312
Graphene
C 34.40207 34.04757 0.01295
C 11.1732 21.82352 -0.0331
C 9.9037 21.31781 -0.00316
C 9.58349 19.95987 0.02188
C 9.72135 8.58994 -0.01979
C 9.82901 7.21382 0.02691
C 11.02914 6.36369 -0.01581
C 10.98552 4.96888 0.01452
C 9.83291 4.27687 0.04892
C 9.82667 2.88933 -0.00111
C 11.05079 2.109 -0.03557
C 11.1172 0.70485 0.03754
C 9.84006 34.07353 0.01739
C 12.33408 32.70327 0.00755
C 13.58861 31.92934 -0.0054
C 13.5309 30.53901 0.00667
C 11.10212 23.24285 -0.0258
C 9.89056 24.05135 0.03338
C 9.90393 25.4729 -0.00491
C 11.09202 26.23499 -0.00109
C 8.48178 9.17836 -0.00619
C 7.24252 8.55632 -0.02162
C 7.32887 7.09999 0.00889
C 8.57887 6.46469 -0.00481
C 8.60056 5.00533 0.00979
C 7.40573 4.33833 0.01443
C 7.36743 2.82072 0.03505
C 12.34792 29.78362 0.00143
C 8.63018 2.1266 -0.02815
C 7.35125 33.97556 -0.05302
C 9.86254 32.69789 0.00213
C 11.08023 31.99907 -0.00066
C 11.08714 30.56537 -0.00289
C 9.87507 29.80391 0.00028
C 9.95779 28.34281 -0.02213
C 11.15989 27.73452 0.03698
C 8.58492 0.67835 -0.04147
C 7.32725 11.44555 0.01848
C 12.3734 28.37895 -0.017
C 12.20043 25.33706 -0.00831
C 15.99995 0.70182 0.00199
C 14.72589 0.01054 0.01511
C 17.16773 32.63666 -0.00478
C 18.3577 31.93145 -0.01662
C 18.64301 9.25995 -0.01185
C 17.34328 8.71652 0.01126
C 17.17124 7.30843 0.01852
C 18.34973 6.457 -0.00381
C 18.38013 5.03371 0.03046
C 17.19956 4.33478 0.0296
C 17.20742 2.90481 0.03374
C 18.42057 2.17796 -0.02845
C 18.4117 0.65168 -0.03213
C 17.1867 0.01395 0.02239
C 19.64881 32.54474 0.01153
C 16.01472 2.11388 0.01087
C 14.75162 2.92336 -0.01527
C 14.67491 4.31342 0.00096
C 16.01323 5.0525 0.01277
C 12.32507 24.08214 -0.02957
C 12.3004 21.08168 -0.04422
C 12.20954 6.93497 0.00654
C 13.53727 6.57249 -0.00703
C 13.473 5.07052 -0.04076
C 12.27123 4.28286 -0.00652
C 12.34188 2.83256 0.0058
C 13.592 27.67363 0.00364
C 13.53879 2.13118 -0.00865
C 12.31401 0.08005 -0.00311
C 14.75495 32.678 0.00742
C 16.02817 31.88124 -0.01594
C 15.89214 30.5213 0.0106
C 14.77652 29.80794 -0.01154
C 14.80023 7.00621 -0.01721
C 15.99362 6.48985 -0.02422
C 13.59797 0.7725 0.00675
C 20.87769 32.23 0.02734
C 7.26461 16.73159 0.02098
C 7.40376 19.79945 0.0351
C 3.59735 9.24025 0.0402
C 2.33981 8.48968 0.00572
C 2.35214 7.09192 0.03592
C 3.62966 6.34358 0.00406
C 3.68046 4.90998 0.00943
C 2.46749 4.28104 0.02841
C 2.50037 2.77293 -0.01111
C 3.75346 2.10842 -0.01275
C 3.71551 0.63123 0.00985
C 2.39861 34.03859 -0.02245
C 4.91992 32.65158 -0.00428
C 6.14828 31.92135 0.03101
C 6.17731 30.51797 -0.01536
C 4.92906 29.81518 -0.02689
C 4.91516 28.41812 -0.01046
C 3.71844 10.67014 -0.02759
C 2.43752 11.37716 0.03589
C 2.52476 12.78107 -0.00033
C 3.78301 13.55354 -0.01062
C 3.65083 30.42691 -0.00131
C 2.34348 29.81224 -0.01118
C 2.41221 28.35232 -0.014
C 3.63137 27.67281 0.02147
C 3.64197 26.2423 0.00373
C 2.43599 25.57004 -0.00191
C 2.44444 24.17727 0.00438
C 6.10467 27.73698 -0.00891
C 3.66208 23.47774 0.01291
C 2.49582 21.29956 0.00057
C 2.46237 19.89747 -0.01634
C 3.68537 19.16491 -0.00334
C 3.6665 17.7617 0.02339
C 2.4503 17.09074 0.01641
C 2.52097 15.64074 -0.00719
C 3.74553 14.95704 0.01364
C 3.72188 22.03956 0.00093
C 8.63743 19.18685 -0.03113
C 6.07097 26.32216 0.02819
C 4.88164 24.18234 -0.02971
C 6.11714 2.18896 -0.01952
C 6.18791 0.71933 -0.02813
C 4.94064 34.06466 0.00374
C 7.38971 32.58319 0.00052
C 8.68642 31.98411 -0.03682
C 8.64369 30.57433 0.01965
C 7.3707 29.81402 0.02058
C 7.41972 28.37369 -0.01957
C 8.65413 27.64497 -0.0108
C 8.67262 26.24145 -0.00368
C 7.26673 25.56982 -0.02696
C 7.32788 24.17317 -0.00114
C 8.58027 23.41894 0.00228
C 8.6009 21.90178 0.00798
C 7.36526 21.27878 0.00422
C 4.91895 2.86834 0.05265
C 4.90207 4.24872 -0.01717
C 6.10443 4.96103 0.00244
C 6.12147 6.39999 0.02299
C 6.09988 23.39663 0.02894
C 6.15406 21.9845 -0.01789
C 4.95911 21.30257 0.00444
C 4.93104 19.87113 -0.00925
C 6.21603 19.11373 0.01877
C 6.19131 17.69113 0.01363
C 4.91626 17.01422 -0.02162
C 4.86528 25.5653 0.00165
C 4.89119 15.65125 0.00415
C 6.21602 13.54769 0.02162
C 5.01089 12.85244 0.0076
C 4.92065 11.46689 0.01241
C 6.1419 10.68968 -0.01454
C 6.08199 9.30019 0.01945
C 4.85187 8.5704 0.01416
C 4.84575 7.11146 0.03542
C 6.2093 14.97119 -0.0014
C 20.77824 13.56361 -0.0055
C 19.89092 12.51883 0.01515
C 19.45655 11.11695 -0.00225
C 31.90953 24.08047 0.01927
C 33.1713 23.4559 0.01574
C 33.18299 22.06342 -0.02383
C 31.93803 21.31676 -0.01429
C 31.99127 19.91435 -0.0136
C 33.24162 19.21707 0.00594
C 33.24579 17.84085 -0.02474
C 31.97942 17.10987 0.00369
C 31.93765 15.70695 0.00455
C 33.1971 15.01866 -0.00644
C 33.15165 13.60391 -0.01839
C 31.89915 12.89383 0.00137
C 31.91575 11.4834 0.00199
C 33.14413 10.77236 0.04381
C 33.17173 9.33126 0.02806
C 31.87801 25.50696 0.03794
C 33.10623 26.20841 -0.01779
C 33.19098 27.68423 0.00682
C 31.89241 28.36154 0.00026
C 29.47282 15.73546 -0.00944
C 30.68231 15.05591 -0.03735
C 30.64787 13.56145 -0.00971
C 29.47852 12.81011 0.01518
C 29.44043 11.40161 0.01908
C 30.73298 10.77361 0.07705
C 30.68875 9.12634 0.0103
C 32.02299 8.45207 0.01504
C 29.44151 8.5844 0.02108
C 30.75308 2.03402 0.00307
C 30.73095 0.6793 0.00346
C 29.45965 34.05207 0.01713
C 31.93331 32.64657 -0.01694
C 33.17017 31.99396 0.01428
C 33.12058 30.50831 -0.02142
C 31.88242 29.8528 0.0544
C 29.50481 2.7816 0.00716
C 29.47411 17.14393 -0.02155
C 33.02945 6.52939 -0.00069
C 31.89647 4.1471 -0.03838
C 34.43264 15.71708 0.02114
C 1.2392 14.98834 -0.02957
C 1.21722 13.56346 0.00343
C 34.38938 12.80593 -0.02656
C 34.38181 11.45784 -0.02442
C 1.18973 10.69492 -0.00027
C 1.11574 9.2602 -0.00583
C 34.33164 8.57817 -0.02302
C 34.32886 7.15573 -0.02849
C 1.11492 6.44767 0.02931
C 1.14683 5.03538 0.00628
C 34.29558 4.37941 -0.0345
C 34.40762 2.91643 -0.00931
C 1.27771 2.11044 -0.00939
C 1.22247 0.65128 -0.00468
C 0.04348 17.1229 0.00648
C 1.2422 17.8011 0.01223
C 1.26005 19.2274 -0.01678
C 0.0603 19.95994 0.01951
C 31.95497 2.76147 0.00349
C 33.22595 2.09963 -0.00323
C 33.18166 0.69167 -0.00841
C 31.94993 0.00448 0.0001
C 34.42369 32.61501 -0.02927
C 1.17897 31.95568 -0.01404
C 1.12696 30.48448 0.01027
C 32.9682 5.06985 0.04926
C 34.30876 29.85433 0.01831
C 1.18853 27.68672 -0.00439
C 1.20659 26.28317 -0.00598
C 34.37618 25.57667 -0.05239
C 34.37145 24.12257 0.03076
C 1.22798 23.45881 0.00723
C 1.20475 22.06239 0.02712
C 34.42152 21.35468 -0.02213
C 34.40296 28.43343 -0.01037
C 30.66212 17.85301 -0.01461
C 30.76437 19.20295 -0.01303
C 29.54556 19.84628 -0.0405
C 22.1204 2.83942 -0.01199
C 23.29541 2.15711 -0.00229
C 23.28942 0.69737 -0.00938
C 22.08844 34.00184 -0.0264
C 24.58359 32.7007 -0.01154
C 25.78456 31.96842 0.00684
C 25.70203 30.53767 -0.01052
C 25.96983 14.91963 -0.01679
C 25.69937 13.54617 0.00367
C 24.53214 12.83228 0.04306
C 24.54247 11.38914 0.00996
C 25.75883 10.6055 0.00195
C 25.67227 9.20158 -0.00802
C 24.34888 8.4828 -0.00218
C 24.68025 7.09413 -0.01654
C 22.11383 4.28586 -0.009
C 23.38477 5.00136 -0.00285
C 23.12246 9.3874 0.01423
C 23.22453 10.77552 0.02555
C 20.90328 10.80118 0.00071
C 21.08853 9.33991 -0.01107
C 19.83835 8.54385 -0.01586
C 19.65456 7.11581 -0.01971
C 20.8734 6.32387 -0.02118
C 20.81101 5.00076 0.00733
C 19.59082 4.28581 -0.00178
C 25.90453 6.3029 -0.00037
C 19.61101 2.8804 0.00768
C 20.85176 0.66199 0.03005
C 19.58372 34.04801 -0.04078
C 22.19801 32.56425 0.02117
C 23.46441 31.89958 0.02737
C 23.32157 13.49918 -0.00498
C 22.03668 12.95046 0.00135
C 22.062 11.52948 0.03102
C 20.87386 2.20263 -0.0276
C 25.82979 4.9457 -0.0032
C 24.54949 4.26276 0.00622
C 24.55756 2.85993 -0.02815
C 27.03007 2.8098 0.04266
C 28.23999 2.1189 0.01324
C 28.25237 0.68394 0.0014
C 27.01443 34.06069 0.00924
C 29.46872 32.60654 0.02326
C 30.65955 31.98191 0.00261
C 30.59724 30.5329 0.03265
C 26.97882 4.19398 0.01177
C 29.34864 29.74289 -0.02049
C 30.69075 27.6295 -0.01415
C 30.70277 26.24506 -0.03039
C 29.53239 25.46393 0.01836
C 29.55511 24.276 0.03531
C 30.67756 23.39741 -0.00669
C 30.65513 21.99618 0.0101
C 29.58553 21.14141 0.01705
C 29.54513 28.38538 -0.01854
C 3.65473 31.88748 -0.02896
C 27.01511 7.14333 -0.00416
C 28.18741 9.27315 0.01799
C 25.78333 2.12556 -0.00942
C 25.77261 0.72395 0.00487
C 24.53543 0.01811 0.00826
C 26.99718 32.65908 -0.00294
C 28.2133 31.81358 0.00152
C 28.05582 30.37203 0.01257
C 26.76018 29.66077 0.02316
C 26.92632 8.51245 0.01699
C 27.15714 28.36285 0.04185
C 28.20791 17.86601 -0.00621
C 27.06256 15.62723 0.02611
C 28.33111 14.97118 0.02198
C 28.26755 13.53914 0.01094
C 27.02236 12.84458 0.00235
C 27.03366 11.38388 0.01495
C 28.22701 10.68008 0.01259
C 28.23748 27.62423 0.00194
C 2.42734 32.594 -0.01004
