332
Graphene
C 34.40823 0.0391 0.01295
C 12.30997 25.5932 0.03505
C 12.285 24.18081 -0.02815
C 13.52503 23.48984 -0.04147
C 13.5985 22.02868 -0.05302
C 12.37172 21.33973 0.00213
C 12.30858 19.90132 -0.00066
C 13.45635 19.05847 -0.00289
C 13.51329 26.23061 0.01443
C 13.48983 17.61035 0.00028
C 12.30378 15.51333 0.03698
C 13.55844 14.91559 -0.00109
C 13.55561 13.43548 -0.00491
C 12.34218 12.77993 0.03338
C 12.30122 11.36801 -0.0258
C 13.6022 10.7486 -0.0331
C 13.5245 9.28179 -0.00316
C 12.29856 16.90857 -0.02213
C 13.5294 27.63435 0.00979
C 12.31229 28.35225 -0.00481
C 12.29589 29.74723 0.00889
C 9.80448 17.03136 -0.03682
C 9.75888 15.58427 0.01965
C 11.02438 15.00174 0.02058
C 10.96537 13.54243 -0.01957
C 9.8479 12.83069 -0.0108
C 11.16508 10.65819 -0.00368
C 11.08801 9.29563 -0.02696
C 10.00039 8.43778 -0.00114
C 9.57183 7.27669 0.00228
C 9.86746 4.23771 0.00798
C 9.88637 2.85826 0.00422
C 11.0766 2.21877 0.0351
C 11.05278 0.79257 -0.03113
C 9.77898 0.08902 0.02098
C 12.31908 32.64157 0.01848
C 13.52762 31.91193 -0.00619
C 13.50597 30.51759 -0.02162
C 12.39831 8.54869 0.02188
C 13.43009 4.87484 -0.01979
C 12.29469 4.29879 0.02691
C 12.33204 2.84268 -0.01581
C 15.94491 13.47028 0.00675
C 14.803 12.71456 -0.00311
C 14.82335 11.35845 0.00742
C 15.99893 10.65348 -0.01594
C 15.99292 9.22458 0.0106
C 14.73925 8.56537 -0.01154
C 14.74248 7.14525 -0.01721
C 15.88742 6.33848 -0.02422
C 16.00027 4.90613 0.01277
C 14.76682 4.29467 0.00096
C 14.7252 2.81082 -0.01527
C 15.87998 2.13248 0.01087
C 15.91884 0.73322 0.00199
C 14.78368 34.02796 0.01511
C 17.24505 32.74831 -0.00478
C 18.55465 31.85893 -0.01662
C 18.27356 30.4351 -0.01185
C 15.98294 14.90368 -0.00865
C 11.13808 17.70926 0.00052
C 14.75309 15.63398 0.0058
C 15.98232 17.76191 -0.04076
C 13.55183 2.05341 0.01452
C 13.5426 0.65659 0.04892
C 12.25235 34.06419 -0.00111
C 14.75014 32.6574 -0.03557
C 15.96153 31.9834 0.03754
C 15.91801 30.56798 0.01739
C 14.72809 29.8569 0.00755
C 14.73694 28.40692 -0.0054
C 15.9982 27.5593 0.00667
C 15.99349 26.38367 0.00143
C 14.81016 25.63198 -0.017
C 14.80995 24.16374 0.00364
C 16.0252 23.49876 -0.00831
C 16.08454 22.0657 -0.02957
C 14.76829 21.24768 -0.04422
C 14.7029 19.78545 0.00654
C 15.9662 19.18057 -0.00703
C 14.74914 17.00593 -0.00652
C 17.22594 29.93149 0.01126
C 11.05465 19.18613 0.00374
C 9.8425 21.37038 -0.01952
C 4.82549 32.72874 -0.01118
C 6.07352 31.92677 -0.014
C 6.11995 30.52737 0.02147
C 4.94358 29.79322 0.00373
C 4.93344 28.36034 -0.00191
C 6.09367 27.62582 0.00438
C 6.11486 26.19062 0.01291
C 2.45902 34.05657 -0.00131
C 4.83545 25.5007 0.00093
C 6.19821 23.4056 -0.01634
C 6.19271 22.02673 -0.00334
C 4.9311 21.35703 0.02339
C 4.93904 19.88197 0.01641
C 6.15372 19.20554 -0.00719
C 6.19445 17.77377 0.01364
C 4.96448 17.15146 -0.01062
C 4.9221 24.07981 0.00057
C 3.66606 0.74565 -0.02896
C 3.65932 2.18644 -0.01004
C 2.38873 2.84375 0.00488
C 3.67742 30.53407 0.00054
C 2.44408 29.88023 0.03007
C 2.47796 28.4297 -0.00095
C 3.7428 27.68843 0.01572
C 3.7276 26.3075 -0.04848
C 2.42658 25.6269 -0.00892
C 2.39279 24.20374 -0.01362
C 3.66304 23.43678 -0.0008
C 3.64529 22.04588 0.0288
C 2.40243 21.29709 0.00393
C 2.42556 19.90131 0.00895
C 3.74533 19.1454 0.00685
C 3.73649 17.7551 0.02888
C 2.48748 16.97515 -0.00482
C 2.48576 15.53974 -0.01384
C 3.59684 4.87956 0.03693
C 2.38865 4.28645 0.01745
C 6.1646 5.09459 -0.00033
C 4.92884 4.36173 0.03589
C 4.91339 2.83614 -0.02759
C 6.15396 2.13935 0.0402
C 8.7169 4.96459 -0.00925
C 7.30847 4.26811 0.01877
C 7.33251 2.84333 0.01363
C 8.54343 2.15816 -0.02162
C 8.56212 0.72715 0.00415
C 7.33324 34.05335 -0.0014
C 9.80272 32.69173 0.02162
C 11.07796 31.97252 0.0076
C 11.07063 30.47604 0.01241
C 9.79741 29.87629 -0.01454
C 9.85659 28.45348 0.01945
C 11.0667 27.68354 0.01416
C 11.05542 26.2705 0.03542
C 9.75415 25.51408 0.02299
C 9.82144 24.08835 0.00244
C 11.07937 23.39042 -0.01717
C 11.0761 21.99443 0.05265
C 8.71457 6.38237 0.00444
C 9.8669 19.94735 -0.02813
C 8.45181 15.02354 -0.01789
C 7.39844 17.0483 -0.02971
C 6.17013 0.76009 0.00572
C 4.94616 0.04609 0.03592
C 7.30102 32.56417 0.00406
C 8.56578 31.93619 0.00943
C 8.54785 30.48042 0.02841
C 7.31045 29.80591 -0.01111
C 7.3436 28.31605 -0.01275
C 8.61183 27.74322 0.00985
C 8.58692 26.28581 -0.02245
C 7.3897 25.54838 -0.00428
C 7.37654 24.15563 0.03101
C 8.59909 23.47468 -0.01536
C 8.61504 22.06468 -0.02689
C 7.40068 21.2706 -0.01046
C 7.39396 19.90328 -0.00891
C 8.64495 19.23346 0.02819
C 8.63756 17.77421 0.00165
C 7.43336 15.65079 0.02894
C 17.20843 21.29921 0.01852
C 17.28391 19.94985 -0.00381
C 18.42296 19.15519 0.03046
C 29.51862 4.35295 0.00026
C 29.48017 2.96727 0.00682
C 30.68475 2.2091 -0.01779
C 30.70377 0.7389 0.03794
C 29.3915 34.04422 0.01927
C 32.01756 32.7772 0.01574
C 33.1783 31.97437 -0.02383
C 30.77629 4.99529 0.0544
C 33.17203 30.55658 -0.01429
C 32.11489 28.41357 0.00594
C 33.10079 27.84336 -0.02474
C 33.1159 19.13944 0.00369
C 33.12937 17.78226 0.00455
C 31.9302 17.03437 -0.00644
C 31.93301 15.61289 -0.01839
C 33.15685 14.97568 0.00137
C 31.8017 29.8571 -0.0136
C 30.78758 6.40068 -0.02142
C 29.55436 7.06501 0.01428
C 29.52465 8.49028 -0.01694
C 26.99719 4.26542 0.01705
C 26.96726 2.83872 -0.0405
C 28.25061 2.18318 -0.01303
C 28.2098 0.73983 -0.01461
C 26.97204 34.06497 -0.02155
C 29.38819 32.66786 -0.00944
C 30.7093 31.96474 -0.03735
C 30.6729 30.60154 -0.00971
C 30.78019 17.77203 0.01518
C 29.51336 17.12932 0.01908
C 29.45992 15.61715 0.07705
C 30.74007 14.95097 0.0103
C 30.78419 13.49042 0.02108
C 29.581 12.81459 0.00716
C 29.45919 11.34935 0.00307
C 30.71538 10.64505 0.00346
C 30.7848 9.20088 0.01713
C 33.19232 13.56456 0.00199
C 32.03502 12.7298 0.04381
C 32.0005 11.32688 0.02806
C 33.32642 10.61614 0.01504
C 0.01032 21.33367 0.01223
C 34.31002 19.97819 0.00648
C 1.24794 19.17589 0.02114
C 1.21738 17.72064 -0.02957
C 34.41937 17.01418 0.00343
C 34.40286 15.6369 -0.02656
C 1.36937 15.10343 -0.02442
C 34.36598 12.56784 -0.00027
C 0.05212 11.41741 -0.00583
C 34.41728 8.57693 -0.02302
C 0.10473 7.20762 -0.02849
C 1.17591 6.30237 0.02931
C 1.1739 4.94917 0.00628
C 34.4198 4.18125 -0.0345
C 34.38437 2.77067 -0.00931
C 1.14222 2.08366 -0.00939
C 1.2049 0.7102 -0.00468
C 1.13976 21.99397 -0.01678
C 28.26159 5.00466 0.0101
C 1.16767 23.42559 0.01951
C 0.10174 25.39746 0.02712
C 33.25092 9.2338 -0.00069
C 32.02251 8.4816 0.04926
C 32.04703 7.07416 -0.03838
C 33.24696 6.31479 0.00349
C 33.27125 4.92329 -0.00323
C 31.9921 4.24272 -0.00841
C 31.94392 2.81361 0.0001
C 33.17376 2.12543 -0.02927
C 33.22021 0.74787 -0.01404
C 31.98972 0.09594 0.01027
C 0.02938 32.7176 0.01831
C 1.21952 31.99094 -0.01037
C 1.20959 30.62791 -0.00439
C 34.37455 29.8509 -0.00598
C 0.00017 28.35914 -0.05239
C 1.27506 27.72303 0.03076
C 1.21998 26.29776 0.00723
C 34.39889 24.23227 -0.02213
C 28.27422 6.41867 -0.00669
C 27.09756 7.15279 0.03531
C 27.12478 8.55616 0.01836
C 19.66246 15.54739 0.02117
C 20.84441 14.90456 0.02737
C 20.92729 13.47296 -0.00498
C 19.7367 12.76017 0.00135
C 19.59897 11.36752 0.03102
C 20.83353 10.656 0.02555
C 20.84259 9.16865 0.01423
C 19.59195 8.51322 -0.00285
C 19.61707 7.05179 -0.009
C 20.92404 6.48657 -0.01199
C 20.94904 5.01394 -0.00229
C 19.66195 4.27268 -0.00938
C 19.64751 2.84034 -0.0264
C 20.81401 2.10789 -0.01154
C 20.85373 0.69422 0.00684
C 19.64657 34.07105 -0.01052
C 22.01747 17.08305 -0.01679
C 19.71467 17.06962 -0.04078
C 22.15123 15.62989 0.00367
C 21.03587 17.63501 0.03005
C 17.23746 0.08301 0.00768
C 18.3934 17.78476 0.0296
C 17.19882 17.05497 0.03374
C 17.18967 15.63727 -0.02845
C 18.4017 14.91369 -0.03213
C 18.47411 13.42129 0.02239
C 17.16757 12.75862 0.01153
C 17.21513 11.38242 0.02734
C 18.37711 10.69246 -0.0055
C 18.41408 9.25817 0.01515
C 17.22798 8.46676 -0.00225
C 17.15983 7.0081 0.00071
C 18.37912 6.37615 -0.01107
C 18.44451 4.97672 -0.01586
C 17.23654 4.19764 -0.01971
C 17.14896 2.79335 -0.02118
C 18.39717 2.10846 0.00733
C 18.43698 0.75929 -0.00178
C 19.63904 32.61844 -0.0276
C 3.65248 31.9922 -0.00494
C 23.40859 14.88757 0.04306
C 22.17749 12.76771 0.00195
C 25.88677 6.39804 0.01495
C 25.77742 4.93198 0.01259
C 24.58202 4.17692 0.01799
C 24.58108 2.77013 0.01699
C 25.78555 2.12161 -0.00416
C 25.8081 0.69309 0.01177
C 24.64687 34.06563 0.04266
C 27.06064 32.74179 0.01324
C 28.03014 17.60367 0.0014
C 27.05006 16.97476 0.00924
C 26.98777 15.58064 0.02326
C 28.29911 14.88565 0.00261
C 28.34573 13.47951 0.03265
C 27.11553 12.81416 -0.02049
C 26.97308 11.32553 -0.01854
C 28.21079 10.60258 -0.01415
C 28.28987 9.21518 -0.03039
C 24.64876 7.04691 0.00235
C 23.45253 13.4553 0.00996
C 24.61579 8.44918 0.01094
C 25.77569 10.58394 0.02611
C 22.0931 11.32689 -0.00802
C 23.37627 10.58287 -0.00218
C 23.37505 9.17141 -0.01654
C 22.12286 8.51312 -0.00037
C 22.21946 7.03928 -0.0032
C 23.47412 6.27962 0.00622
C 23.3737 4.88727 -0.02815
C 22.09516 4.25484 -0.00942
C 22.12103 2.8242 0.00487
C 23.35204 2.09909 0.00826
C 23.41576 0.55251 -0.00294
C 22.03923 0.05515 0.00152
C 24.61912 15.61059 0.01257
C 25.84922 14.8998 0.02316
C 25.91975 13.49431 0.04185
C 24.68633 12.818 0.00194
C 24.62323 11.37438 -0.00621
C 25.88853 9.15896 0.02198
C 2.48412 32.70741 -0.00562
