335
Graphene
C 34.4309 0.04964 0.01295
C 13.44267 31.8891 0.00979
C 13.6278 30.44466 0.01443
C 12.33631 29.8099 0.03505
C 12.27768 28.4673 -0.02815
C 13.50183 27.62277 -0.04147
C 13.56363 10.70592 -0.05302
C 13.63205 9.33604 0.00213
C 12.41642 8.54663 -0.00066
C 12.31071 7.22254 -0.00289
C 13.55067 6.41548 0.00028
C 13.43584 4.97319 -0.02213
C 12.26955 4.33676 0.03698
C 12.3076 2.89073 -0.00109
C 13.50578 2.20021 -0.00491
C 13.54843 0.69941 0.03338
C 12.36933 34.03047 -0.0258
C 14.71383 32.64179 -0.0331
C 12.3035 32.6372 -0.00481
C 15.94897 31.88814 -0.00316
C 9.89991 0.08335 0.00889
C 11.12047 2.15955 -0.00619
C 9.84786 32.74206 0.00374
C 11.05019 31.95346 0.00052
C 11.12227 30.57775 -0.03682
C 9.77017 29.93477 0.01965
C 9.69849 28.48072 0.02058
C 11.07308 27.78773 -0.01957
C 10.94824 26.40267 -0.0108
C 9.89537 25.81851 -0.00368
C 9.9417 11.3682 -0.02696
C 10.98112 10.58355 -0.00114
C 11.10111 9.13739 0.00228
C 9.85742 8.5386 0.00798
C 9.80579 7.11824 0.00422
C 11.01547 6.47158 0.0351
C 11.09105 5.03164 -0.03113
C 9.80788 4.36212 0.02098
C 9.7445 2.91145 0.01848
C 11.15269 0.75228 -0.02162
C 7.35649 0.09253 -0.02813
C 16.07154 30.47412 0.02188
C 14.84195 28.20867 0.02691
C 18.41195 6.51999 -0.00865
C 18.41092 5.03638 0.00675
C 17.27631 4.23709 -0.00311
C 17.21869 2.80456 0.00742
C 18.45403 2.0768 -0.01594
C 18.42975 0.67668 0.0106
C 17.15532 34.07393 -0.01154
C 19.6101 32.68273 -0.01721
C 20.82379 31.89592 -0.02422
C 20.84139 30.49342 0.01277
C 19.59429 29.70212 0.00096
C 19.52517 28.25564 -0.01527
C 21.04096 13.34454 0.01087
C 19.82538 11.37617 0.00199
C 21.07246 10.62254 0.01511
C 20.93697 9.24026 -0.00478
C 19.6107 8.6153 -0.01662
C 17.20207 7.24528 0.0058
C 14.87276 29.76517 -0.01979
C 17.23084 8.7229 -0.00652
C 18.62896 11.01358 -0.00703
C 16.19019 27.65569 -0.01581
C 15.70001 10.70063 0.01452
C 15.96556 9.38565 0.04892
C 14.80285 8.57567 -0.00111
C 14.75879 7.10107 -0.03557
C 16.04949 6.45192 0.03754
C 16.0435 4.99009 0.01739
C 14.67246 4.29897 0.00755
C 14.71265 2.85412 -0.0054
C 15.91905 2.12053 0.00667
C 15.99708 0.70841 0.00143
C 14.75733 34.02923 -0.017
C 17.19071 32.58499 0.00364
C 18.38882 31.97148 -0.00831
C 18.4263 30.55916 -0.02957
C 17.28007 29.77322 -0.04422
C 17.49249 28.41917 0.00654
C 18.43761 9.467 -0.04076
C 19.64815 7.14131 -0.01185
C 8.65345 0.73677 -0.01952
C 7.34535 2.85443 -0.01717
C 2.48847 8.58894 -0.01004
C 2.37447 7.11986 -0.02896
C 3.59978 6.42153 -0.00131
C 3.66816 5.0186 -0.01118
C 2.36707 4.4406 -0.014
C 2.42672 2.97522 0.02147
C 3.65444 2.21869 0.00373
C 3.67674 0.80698 -0.00191
C 2.41419 0.13665 0.00438
C 4.83255 32.72237 0.01291
C 6.16122 31.98359 0.00093
C 6.14163 30.55151 0.00057
C 4.90527 29.8729 -0.01634
C 4.87821 28.42292 -0.00334
C 6.03358 27.71754 0.02339
C 6.08497 26.33714 0.01641
C 4.89504 25.48572 -0.00719
C 3.74118 9.30832 0.00488
C 4.95785 24.08576 0.01364
C 3.67804 10.72432 0.01745
C 2.33537 12.70331 -0.01384
C 3.67933 30.58682 -0.01142
C 2.4964 29.80443 -0.00562
C 2.52546 28.34661 -0.00494
C 3.71819 27.65141 0.00054
C 3.76175 26.21818 0.03007
C 2.51331 25.52573 -0.00095
C 2.51787 24.17925 0.01572
C 3.72871 23.43069 -0.04848
C 3.66199 22.02621 -0.00892
C 2.36605 21.38604 -0.01362
C 2.34633 19.94351 -0.0008
C 3.57464 19.18127 0.0288
C 3.5709 17.83649 0.00393
C 2.41949 17.0836 0.00895
C 2.45017 15.65123 0.00685
C 3.63252 14.82389 0.02888
C 3.67035 13.42846 -0.00482
C 2.41718 11.37471 0.03693
C 8.59217 2.17639 0.05265
C 6.29802 23.37862 -0.01062
C 4.96741 21.29621 0.03589
C 8.58058 32.04979 -0.01789
C 8.61507 30.61038 0.00444
C 7.39762 29.85832 -0.00925
C 7.33283 28.42691 0.01877
C 8.55041 27.68935 0.01363
C 8.57504 26.17654 -0.02162
C 7.39473 25.60292 0.00415
C 7.37479 24.18053 -0.0014
C 7.41027 12.74533 0.02162
C 7.43336 11.36212 0.0076
C 8.6942 10.66659 0.01241
C 8.64412 9.28183 -0.01454
C 7.33628 8.56695 0.01945
C 7.34987 7.18911 0.01416
C 8.53421 6.42768 0.03542
C 8.56267 5.00868 0.02299
C 7.35284 4.23498 0.00244
C 7.4035 32.69339 0.02894
C 6.15084 21.93555 -0.00033
C 4.84721 0.10743 -0.02971
C 6.14228 2.14529 0.02819
C 4.90156 19.86605 -0.02759
C 6.0755 18.93075 0.0402
C 6.09024 17.72298 0.00572
C 4.94421 17.06671 0.03592
C 4.84387 15.61643 0.00406
C 6.10961 14.94298 0.00943
C 6.2775 13.54682 0.02841
C 4.92841 12.80922 -0.01111
C 4.88426 11.35454 -0.01275
C 6.12845 10.66515 0.00985
C 6.11902 9.2882 -0.02245
C 4.93753 8.55792 -0.00428
C 4.87794 7.13416 0.03101
C 6.13677 6.44398 -0.01536
C 6.19248 5.05646 -0.02689
C 4.94995 4.3051 -0.01046
C 4.91371 2.85944 -0.00891
C 6.09641 0.78297 0.00165
C 3.64841 32.03252 0.01849
C 20.80193 6.39949 0.01126
C 19.71169 4.28984 -0.00381
C 31.95778 29.79009 0.0544
C 31.92946 28.46371 0.00026
C 33.16966 27.72165 0.00682
C 33.19824 26.2808 -0.01779
C 31.95247 25.56637 0.03794
C 31.99387 24.11449 0.01927
C 33.24013 23.43319 0.01574
C 33.15751 22.04327 -0.02383
C 31.86385 21.37202 -0.01429
C 31.89834 19.90836 -0.0136
C 33.16103 19.18489 0.00594
C 33.03405 17.77915 -0.02474
C 31.88434 17.04544 0.00369
C 31.92012 15.64362 0.00455
C 33.13808 14.91659 -0.00644
C 33.063 13.53167 -0.01839
C 31.92703 12.78623 0.00137
C 33.16467 30.57275 -0.02142
C 32.02796 11.29944 0.00199
C 33.16553 32.00048 0.01428
C 29.46488 0.02767 0.01713
C 29.46314 24.14317 0.0101
C 30.74222 23.45757 0.01705
C 30.69695 22.073 -0.0405
C 29.45306 21.32035 -0.01303
C 29.44212 19.90804 -0.01461
C 30.62097 19.1792 -0.02155
C 30.67697 17.791 -0.00944
C 29.39977 17.08195 -0.03735
C 29.37368 15.62611 -0.00971
C 30.631 14.98086 0.01518
C 30.60069 13.46863 0.01908
C 29.31607 12.62548 0.07705
C 29.57328 11.32568 0.0103
C 30.73723 10.77492 0.02108
C 29.57569 2.91887 0.00716
C 30.70415 2.20169 0.00307
C 30.71721 0.73874 0.00346
C 31.93371 32.66042 -0.01694
C 29.44911 25.55691 -0.00669
C 33.14018 10.49824 0.04381
C 32.21204 7.94134 0.01504
C 1.13447 17.73943 0.01223
C 34.32111 17.07273 0.00648
C 34.29606 15.61534 0.02114
C 1.12198 14.8468 -0.02957
C 1.07916 13.51429 0.00343
C 34.2555 12.75824 -0.02656
C 34.34353 11.30797 -0.02442
C 1.15133 10.65049 -0.00027
C 1.20146 9.28853 -0.00583
C 0.00918 8.48535 -0.02302
C 34.32171 7.16461 -0.02849
C 1.11716 6.42617 0.02931
C 1.128 5.02983 0.00628
C 34.25752 4.40087 -0.0345
C 34.35267 2.91367 -0.00931
C 1.14178 2.23518 -0.00939
C 1.13876 0.8355 -0.00468
C 1.24712 19.16561 -0.01678
C 33.12766 9.07344 0.02806
C 34.3793 19.92775 0.01951
C 1.20796 22.11148 0.02712
C 32.90567 6.76289 -0.00069
C 32.95691 5.16688 0.04926
C 31.81326 4.27781 -0.03838
C 31.96387 2.88597 0.00349
C 33.18508 2.16432 -0.00323
C 33.26412 0.70997 -0.00841
C 32.01357 34.05914 0.0001
C 34.37593 32.67785 -0.02927
C 1.21875 32.0337 -0.01404
C 1.28129 30.55534 0.01027
C 34.3871 29.90095 0.01831
C 34.40522 28.47043 -0.01037
C 1.21036 27.67475 -0.00439
C 1.21786 26.25969 -0.00598
C 34.43076 25.59834 -0.05239
C 0.02799 24.09747 0.03076
C 1.26828 23.41729 0.00723
C 34.35132 21.33753 -0.02213
C 20.92546 5.05513 0.01852
C 30.72754 26.31576 0.03531
C 29.46099 28.49229 -0.03039
C 23.53362 5.1223 -0.04078
C 22.17991 4.35016 0.02117
C 22.13813 2.89081 0.02737
C 23.31114 2.09014 -0.00498
C 23.3362 0.60259 0.00135
C 22.12491 34.07081 0.03102
C 24.57147 32.53012 0.02555
C 25.82179 31.9647 0.01423
C 25.77336 30.50987 -0.00285
C 24.50429 29.73783 -0.009
C 24.47947 28.29143 -0.01199
C 25.63845 27.47884 -0.00229
C 25.64318 25.98683 -0.00938
C 24.79324 24.89951 -0.0264
C 25.5674 23.63448 -0.01154
C 25.48563 22.20315 0.00684
C 24.51338 19.88908 -0.01052
C 23.40198 6.49777 0.03005
C 25.75291 19.21201 -0.01679
C 22.10043 7.13944 -0.0276
C 23.43238 9.05501 -0.00178
C 19.68149 2.90224 0.03046
C 20.91494 2.20096 0.0296
C 20.94849 0.81009 0.03374
C 19.71952 34.07704 -0.02845
C 22.05527 32.61811 -0.03213
C 23.27281 31.87633 0.02239
C 23.28745 30.47684 0.01153
C 21.99799 29.81357 0.02734
C 22.06512 28.41341 -0.0055
C 23.26182 27.81877 0.01515
C 23.32558 18.11655 -0.00225
C 21.66934 14.68928 0.00071
C 23.15203 14.75468 -0.01107
C 23.4434 13.21546 -0.01586
C 22.23625 12.55816 -0.01971
C 22.41961 11.06781 -0.02118
C 23.82879 10.30489 0.00733
C 22.12327 8.51992 0.00768
C 30.65859 27.72269 0.01836
C 25.73417 17.75393 0.00367
C 24.30724 15.65103 0.00996
C 26.97565 20.00732 0.00235
C 28.2288 19.20204 0.01495
C 28.15155 17.75033 0.01259
C 26.87265 17.04084 0.01799
C 26.89188 15.56688 0.01699
C 28.15276 14.80915 -0.00416
C 28.03538 13.2849 0.01177
C 26.78757 12.70182 0.04266
C 26.22619 11.40608 0.01324
C 26.83331 2.91208 0.0014
C 28.1423 2.39847 0.00924
C 28.29151 0.86294 0.02326
C 27.08304 0.1166 0.00261
C 29.45304 32.67674 0.03265
C 30.7047 31.94596 -0.02049
C 30.70258 30.56391 -0.01854
C 29.41376 29.90341 -0.01415
C 26.82271 21.41772 0.01094
C 24.40975 17.06961 0.04306
C 28.12572 22.0419 0.02198
C 26.99346 24.17273 -0.00621
C 25.67692 14.92554 0.00195
C 25.70967 13.56818 -0.00802
C 24.59115 12.66972 -0.00218
C 24.8119 11.19791 -0.01654
C 24.71852 4.24939 -0.00037
C 24.53886 2.78809 -0.0032
C 25.75956 2.04106 0.00622
C 25.81397 0.62472 -0.02815
C 24.63277 34.0278 -0.00942
C 27.0433 32.72159 0.00487
C 28.15238 31.98811 0.00826
C 28.16457 30.56485 -0.00294
C 26.9479 29.74649 0.00152
C 26.93933 28.23552 0.01257
C 28.25245 27.732 0.02316
C 28.21622 26.30079 0.04185
C 27.00495 25.51158 0.00194
C 28.20543 23.41797 0.02611
C 2.40751 32.76146 0.01396
