314
Graphene
C 34.30191 34.05844 0.01295
C 13.39187 14.95304 -0.0258
C 13.49293 13.55988 -0.0331
C 12.46052 12.70451 -0.00316
C 12.38322 11.30548 0.02188
C 13.50631 5.02983 -0.01979
C 12.40923 4.23402 0.02691
C 12.31735 2.85557 -0.01581
C 13.51878 2.11833 0.01452
C 13.48252 0.68239 0.04892
C 12.28801 34.03507 -0.00111
C 14.76104 32.45646 -0.03557
C 16.07547 31.90268 0.03754
C 16.02382 30.46745 0.01739
C 14.86263 29.78775 0.00755
C 15.92454 13.60571 -0.0054
C 12.34439 15.99825 0.03338
C 12.33125 28.35362 -0.00491
C 12.35867 29.70239 -0.00109
C 13.59401 30.34529 0.03698
C 9.85887 29.82938 0.01848
C 9.86156 28.42651 -0.00619
C 11.1055 27.67885 -0.02162
C 10.86993 26.37945 0.00889
C 9.88498 25.42718 -0.00481
C 9.85704 24.0884 0.00979
C 9.76196 21.36161 0.01443
C 14.67295 13.02094 0.00667
C 9.94219 20.043 0.03505
C 9.93453 4.24431 -0.04147
C 9.76617 2.85179 -0.05302
C 11.04264 2.18109 0.00213
C 11.00877 0.68156 -0.00066
C 9.80291 0.0218 -0.00289
C 12.39501 32.52592 0.00028
C 13.5831 31.789 -0.02213
C 11.19841 17.44446 -0.02815
C 11.07863 30.49699 0.02098
C 14.87449 11.56174 0.00143
C 15.9054 9.16636 0.00364
C 18.49697 0.6128 0.01087
C 17.23079 34.06922 0.00199
C 19.71375 32.4728 0.01511
C 20.98291 32.05312 -0.00478
C 20.0724 12.8703 -0.01662
C 19.66892 11.49566 -0.01185
C 20.87809 10.68244 0.01126
C 20.87361 9.25815 0.01852
C 19.65454 8.59473 -0.00381
C 19.63152 7.17593 0.03046
C 20.90395 6.42362 0.0296
C 20.88405 4.95468 0.03374
C 19.71186 4.25342 -0.02845
C 19.68143 2.86933 -0.03213
C 20.90855 2.19673 0.02239
C 18.47627 2.08835 -0.01527
C 17.21215 2.79666 0.00096
C 17.24653 4.24885 0.01277
C 18.44921 4.98311 -0.02422
C 16.04611 6.31276 -0.00831
C 15.95721 4.95341 -0.02957
C 14.70656 4.19627 -0.04422
C 14.7603 2.80878 0.00654
C 15.96401 2.11565 -0.00703
C 15.98954 0.70806 -0.04076
C 14.79237 33.96704 -0.00652
C 15.85698 10.55801 -0.017
C 17.239 32.63827 0.0058
C 16.98954 12.77576 0.00675
C 17.22212 11.44617 -0.00311
C 18.44596 10.81425 0.00742
C 18.39024 9.34505 -0.01594
C 17.21302 8.48229 0.0106
C 17.22436 7.05069 -0.01154
C 18.4345 6.37754 -0.01721
C 18.50483 31.9443 -0.00865
C 11.0216 31.87135 -0.03113
C 9.81962 32.67162 0.0351
C 7.28348 34.01752 0.00422
C 2.48494 7.17123 0.03589
C 3.73077 6.43554 -0.02759
C 3.69613 5.03832 0.0402
C 2.46294 4.26298 0.00572
C 2.40018 2.85808 0.03592
C 3.66308 2.16793 0.00406
C 3.6122 0.74543 0.00943
C 2.35318 0.06296 0.02841
C 4.80281 32.6137 -0.01111
C 6.03482 31.88396 -0.01275
C 6.08148 30.42321 0.00985
C 4.83665 29.73234 -0.02245
C 4.88065 28.33511 -0.00428
C 6.15011 27.66944 0.03101
C 6.13218 26.27099 -0.01536
C 2.44822 8.55144 -0.00033
C 3.70449 9.31644 -0.01062
C 3.66188 10.68309 0.01364
C 2.54445 11.44353 -0.00719
C 3.60534 30.47976 -0.01004
C 2.38344 29.8396 -0.02896
C 2.3915 28.45607 -0.00131
C 3.66117 27.64206 -0.01118
C 3.73749 26.21287 -0.014
C 2.49483 25.52186 0.02147
C 2.51213 24.09654 0.00373
C 4.98316 25.52207 -0.02689
C 3.70981 23.41424 -0.00191
C 2.44463 21.26097 0.01291
C 2.39179 19.90756 0.00093
C 3.62548 19.23756 0.00057
C 3.52155 17.915 -0.01634
C 2.51272 16.97082 -0.00334
C 2.50282 15.59188 0.02339
C 2.29738 12.8128 0.01641
C 3.75348 21.96814 0.00438
C 4.90491 24.18032 -0.01046
C 6.14225 23.40271 -0.00891
C 6.15899 21.97745 0.02819
C 7.33599 25.6137 -0.01717
C 7.36563 24.14471 0.05265
C 8.62477 23.43732 -0.01952
C 8.62588 22.01963 -0.02813
C 7.39305 21.21893 0.00374
C 7.44458 19.76205 0.00052
C 8.7933 19.33856 -0.03682
C 8.58559 26.29767 0.00244
C 8.70801 9.03957 0.01965
C 7.30643 7.13275 -0.01957
C 8.48457 6.38171 -0.0108
C 8.69078 4.92574 -0.00368
C 7.39031 4.24601 -0.02696
C 7.35292 2.83131 -0.00114
C 8.52393 2.06491 0.00228
C 8.55386 0.68933 0.00798
C 7.35861 8.65776 0.02058
C 20.89563 0.70889 0.01153
C 8.61473 27.72455 0.02299
C 7.29424 29.80631 0.01416
C 4.95524 21.31585 0.00165
C 4.96058 19.90771 -0.02971
C 6.16093 19.12931 0.02894
C 6.09835 9.28749 -0.01789
C 4.92595 8.59044 0.00444
C 4.91064 7.16583 -0.00925
C 6.06983 6.464 0.01877
C 7.31031 28.38744 0.03542
C 6.08996 5.02737 0.01363
C 4.85963 2.85341 0.00415
C 6.13481 2.13912 -0.0014
C 6.10585 0.64308 0.02162
C 4.81273 34.03292 0.0076
C 7.29361 32.54077 0.01241
C 8.57278 31.9055 -0.01454
C 8.53951 30.52754 0.01945
C 4.87646 4.25123 -0.02162
C 19.66516 34.03532 0.02734
C 22.10849 32.73099 -0.0055
C 23.1919 31.9438 0.01515
C 31.98195 24.09306 0.03794
C 33.24566 23.40959 0.01927
C 33.20844 22.00746 0.01574
C 31.939 21.28178 -0.02383
C 31.91281 19.86281 -0.01429
C 33.16803 19.19975 -0.0136
C 33.15857 17.80206 0.00594
C 31.95015 17.12171 -0.02474
C 31.92046 15.66821 0.00369
C 33.16314 15.00269 0.00455
C 33.22372 13.59587 -0.00644
C 31.95484 12.88384 -0.01839
C 31.94493 11.42899 0.00137
C 33.21269 10.71226 0.00199
C 33.17439 9.28053 0.04381
C 32.00421 25.51137 -0.01779
C 33.20144 26.24575 0.00682
C 33.16747 27.66207 0.00026
C 31.88707 28.3574 0.0544
C 29.45903 11.36134 -0.02155
C 30.73247 10.68019 -0.00944
C 30.66227 9.30671 -0.03735
C 29.40949 8.52462 -0.00971
C 29.45337 7.10075 0.01518
C 30.75719 6.46694 0.01908
C 30.79613 5.00434 0.07705
C 31.91132 8.54392 0.02806
C 29.50956 4.22524 0.0103
C 30.7262 2.08488 0.00716
C 30.70374 0.72516 0.00307
C 29.4774 34.07631 0.00346
C 31.83037 32.62864 0.01713
C 33.12287 31.90994 -0.01694
C 33.12999 30.49686 0.01428
C 31.88095 29.79429 -0.02142
C 29.52293 2.81907 0.02108
C 31.96699 7.15862 0.01504
C 33.20857 6.46874 -0.00069
C 33.14676 5.04153 0.04926
C 0.06418 17.10608 0.00648
C 34.41357 15.71501 0.02114
C 1.21103 14.95707 -0.02957
C 1.11719 13.55676 0.00343
C 34.3771 12.85454 -0.02656
C 0.01747 11.48331 -0.02442
C 1.2379 10.72873 -0.00027
C 1.33847 17.7343 0.01223
C 1.24059 9.25912 -0.00583
C 0.01462 7.17526 -0.02849
C 1.22825 6.48379 0.02931
C 1.2177 5.01634 0.00628
C 34.40217 4.29244 -0.0345
C 34.36632 2.90921 -0.00931
C 1.17006 2.14628 -0.00939
C 1.11236 0.68947 -0.00468
C 0.02544 8.55805 -0.02302
C 29.46768 12.84322 -0.01461
C 1.22108 19.20526 -0.01678
C 34.40075 21.29143 -0.02213
C 31.97157 4.26082 -0.03838
C 31.91966 2.88428 0.00349
C 33.14187 2.17464 -0.00323
C 33.11998 0.74357 -0.00841
C 31.91379 0.04185 0.0001
C 34.27727 32.66221 -0.02927
C 1.11913 32.0023 -0.01404
C 34.40066 19.88864 0.01951
C 1.15176 30.52498 0.01027
C 34.38381 28.4391 -0.01037
C 1.16525 27.68714 -0.00439
C 1.23983 26.24383 -0.00598
C 34.4256 25.53766 -0.05239
C 0.02682 24.11747 0.03076
C 1.27002 23.40927 0.00723
C 1.22506 21.9931 0.02712
C 34.33078 29.81007 0.01831
C 3.57342 31.93753 0.00488
C 30.74861 13.56495 -0.01303
C 29.41932 15.60867 0.01705
C 25.80355 13.52129 -0.009
C 24.61608 12.83316 -0.01199
C 24.56345 11.48057 -0.00229
C 25.8067 10.6815 -0.00938
C 25.71353 9.23357 -0.0264
C 24.54357 8.5549 -0.01154
C 24.57205 7.1278 0.00684
C 25.78667 6.34709 -0.01052
C 25.87338 4.97499 -0.01679
C 24.6184 4.32381 0.00367
C 24.62731 2.90804 0.04306
C 25.7685 2.1159 0.00996
C 25.75288 0.69259 0.00195
C 24.53586 0.03854 -0.00802
C 26.94213 32.69432 -0.00218
C 25.71454 14.9604 -0.00285
C 24.56255 29.89612 0.01423
C 25.77754 30.49475 0.02555
C 25.70554 31.88298 0.03102
C 23.41061 30.59014 -0.00225
C 23.29418 13.47519 0.00071
C 21.99967 12.79823 -0.01107
C 22.13103 11.37008 -0.01586
C 23.38539 10.71391 -0.01971
C 23.30536 9.29892 -0.02118
C 22.09945 8.62393 0.00733
C 28.17272 31.97352 -0.01654
C 22.1302 7.11719 -0.00178
C 23.4013 5.03617 -0.0276
C 22.13877 4.28412 0.03005
C 22.10043 2.84195 -0.04078
C 23.33004 2.14616 0.02117
C 23.33609 0.75114 0.02737
C 22.11664 0.05674 -0.00498
C 24.46164 32.61906 0.00135
C 23.35558 6.41381 0.00768
C 28.20861 30.50774 -0.00037
C 27.03623 29.83763 -0.0032
C 27.08382 28.4476 0.00622
C 29.37281 32.69429 0.01177
C 30.64563 31.91264 0.04266
C 30.63269 30.53398 0.01324
C 29.42764 29.75911 0.0014
C 29.37164 28.41061 0.00924
C 30.63664 27.64737 0.02326
C 30.76452 26.24611 0.00261
C 26.97429 34.04024 -0.00416
C 29.44504 25.49319 0.03265
C 30.78705 23.41179 -0.01854
C 30.67917 21.99024 -0.01415
C 29.59748 21.18169 -0.03039
C 29.46322 19.74391 0.01836
C 30.69377 19.16223 0.03531
C 30.79347 17.76874 -0.00669
C 29.59722 17.0099 0.0101
C 29.56282 24.08021 -0.02049
C 30.69166 14.99589 -0.0405
C 28.23357 0.66087 0.01699
C 27.06765 2.83685 0.01259
C 28.1368 27.60721 -0.02815
C 28.35447 26.30292 -0.00942
C 28.37225 17.60045 0.00487
C 27.13003 17.09713 0.00826
C 26.87436 15.79161 -0.00294
C 28.16937 14.99945 0.00152
C 28.27362 13.61147 0.01257
C 28.30191 2.06689 0.01799
C 27.03428 12.81875 0.02316
C 28.22407 10.63173 0.00194
C 28.23351 9.24278 -0.00621
C 27.03649 8.54653 0.02611
C 26.99013 7.08909 0.02198
C 28.24977 6.36278 0.01094
C 28.31624 4.95411 0.00235
C 27.03967 4.23882 0.01495
C 27.01283 11.35175 0.04185
C 2.34785 32.64715 0.01745
