383
Graphene
C 34.31966 0.04728 0.01295
C 15.92338 6.4892 0.0076
C 15.92349 5.03184 0.01241
C 14.69707 4.34594 -0.01454
C 14.71325 2.88553 0.01945
C 15.9551 2.1619 0.01416
C 15.97845 0.76413 0.03542
C 14.70117 33.99627 0.02299
C 17.12021 32.63165 0.00244
C 18.40904 31.94499 -0.01717
C 14.71023 7.21155 0.02162
C 18.3991 30.50555 0.05265
C 17.1504 28.328 -0.02813
C 18.41007 27.62301 0.00374
C 18.44776 26.24662 0.00052
C 17.22164 25.47451 -0.03682
C 17.26234 24.03062 0.01965
C 18.4469 23.37581 0.02058
C 18.40967 21.98049 -0.01957
C 17.13453 21.28492 -0.0108
C 17.16045 19.8529 -0.00368
C 17.16064 29.83379 -0.01952
C 18.39353 19.15043 -0.02696
C 14.7746 8.61801 -0.0014
C 15.85728 10.73973 -0.02162
C 12.27749 0.11424 0.02841
C 14.75778 32.61656 -0.01111
C 15.92568 31.91714 -0.01275
C 15.91242 30.53651 0.00985
C 14.73861 29.77301 -0.02245
C 14.71063 28.32554 -0.00428
C 15.97213 27.57215 0.03101
C 16.01411 26.26154 -0.01536
C 14.78216 25.67819 -0.02689
C 16.02448 9.30286 0.00415
C 14.86499 24.28393 -0.01046
C 15.88619 22.07792 0.02819
C 14.62369 21.29076 0.00165
C 14.7391 19.92366 -0.02971
C 15.80579 19.01576 0.02894
C 15.96282 17.48058 -0.01789
C 16.09763 15.07549 0.00444
C 15.94613 13.64828 -0.00925
C 14.75925 12.87621 0.01877
C 14.64475 11.48475 0.01363
C 15.97579 23.45391 -0.00891
C 13.52986 0.76692 0.00943
C 18.46147 17.67278 -0.00114
C 17.32403 15.60774 0.00798
C 20.83805 23.40922 -0.0258
C 20.8593 22.00821 -0.0331
C 19.6252 21.24646 -0.00316
C 19.66213 19.84738 0.02188
C 20.86035 19.14297 -0.01979
C 20.94139 17.70908 0.02691
C 19.7562 17.07326 -0.01581
C 19.75346 15.58269 0.01452
C 20.92035 14.90036 0.04892
C 19.6804 24.09092 0.03338
C 20.90582 13.47644 -0.00111
C 19.71667 11.37842 0.03754
C 20.88892 10.65326 0.01739
C 20.89671 9.25091 0.00755
C 19.63229 8.56134 -0.0054
C 19.63543 7.12514 0.00667
C 20.83833 6.39967 0.00143
C 20.92838 4.96349 -0.017
C 19.6903 4.20258 0.00364
C 19.60193 2.7863 -0.00831
C 19.78521 12.78437 -0.03557
C 17.20661 17.02893 0.00228
C 19.60167 25.52436 -0.00491
C 20.86008 27.53251 0.03698
C 18.59626 14.81238 0.00422
C 18.48324 13.45378 0.0351
C 17.2124 12.84726 -0.03113
C 17.11793 11.44937 0.02098
C 18.44305 10.79145 0.01848
C 18.44319 9.32381 -0.00619
C 17.25201 8.56144 -0.02162
C 17.17891 7.12093 0.00889
C 18.40631 6.41333 -0.00481
C 20.85428 26.1289 -0.00109
C 18.47831 4.99256 0.00979
C 17.23741 2.87269 0.03505
C 18.39469 2.09659 -0.02815
C 18.414 0.67264 -0.04147
C 17.19585 34.0776 -0.05302
C 19.69303 32.63899 0.00213
C 20.90654 31.88051 -0.00066
C 20.86751 30.45129 -0.00289
C 19.61995 29.77852 0.00028
C 19.63881 28.34442 -0.02213
C 17.18125 4.25581 0.01443
C 20.84787 2.04892 -0.02957
C 13.54314 2.18862 0.00406
C 12.26858 4.40344 0.00572
C 5.94739 26.30568 -0.00094
C 5.86148 9.41599 0.02322
C 4.7683 8.54779 -0.00725
C 4.82513 7.06852 -0.05697
C 6.11388 6.51121 0.01087
C 6.12857 5.12787 -0.01343
C 4.88994 4.30867 0.00988
C 4.8757 2.88933 0.0276
C 6.08443 2.20514 0.01305
C 6.06146 27.73365 -0.02566
C 6.13155 0.80218 -0.00077
C 7.32016 32.75379 -0.02929
C 8.48796 31.96818 -0.00966
C 8.50249 30.62851 -0.03337
C 7.28559 29.9183 0.01227
C 7.28076 28.41285 0.00873
C 8.44644 27.63192 -0.00049
C 8.53478 26.18811 0.00848
C 7.27153 25.55854 -0.01303
C 7.55537 24.19108 -0.01378
C 4.88452 0.07048 0.03368
C 8.77856 23.33781 0.02635
C 4.80724 28.40247 -0.03113
C 6.08609 30.64742 -0.00643
C 3.60788 30.52766 -0.003
C 2.41077 29.84616 0.01402
C 2.391 28.32404 0.02379
C 3.63397 27.63688 0.00907
C 2.66889 19.44831 0.00643
C 2.47961 12.71952 -0.01509
C 2.557 11.34353 0.03267
C 3.74048 10.52667 0.02374
C 3.55762 9.19273 0.00402
C 4.84889 29.84946 0.017
C 2.29337 8.52349 0.0073
C 3.59331 6.35725 0.03828
C 3.55971 4.98791 0.01226
C 2.3901 4.20241 -0.00279
C 2.33885 2.86959 0.01996
C 3.60011 2.23037 -0.03996
C 3.63118 0.79727 0.01465
C 2.45334 0.01526 -0.00074
C 4.77512 32.71399 -0.00518
C 6.05179 32.07546 0.0086
C 2.33116 7.1178 0.0174
C 12.32872 2.92643 0.03592
C 8.4909 9.39114 0.0127
C 7.2678 7.34908 0.01849
C 11.06038 2.28008 -0.01118
C 11.04824 0.8468 -0.014
C 9.74848 0.07372 0.02147
C 12.24534 32.71686 0.00373
C 13.47943 32.00897 -0.00191
C 13.47174 30.59225 0.00438
C 12.28995 29.8647 0.01291
C 12.21194 28.44781 0.00093
C 13.42866 27.78372 0.00057
C 9.84773 2.99064 -0.00131
C 13.56172 26.36939 -0.01634
C 12.51128 24.26982 0.02339
C 13.71939 23.52555 0.01641
C 13.37605 22.22063 -0.00719
C 13.30322 10.62983 0.01364
C 13.48757 9.21724 -0.01062
C 12.25812 8.51969 -0.00033
C 12.21033 7.13289 0.03589
C 13.49553 6.51137 -0.02759
C 13.51421 5.05752 0.0402
C 12.3444 25.67836 -0.00334
C 7.21149 8.78618 0.01396
C 9.77889 4.41569 -0.02896
C 10.9736 6.49676 0.00488
C 8.57003 6.62167 -0.01142
C 8.60547 5.19246 -0.00562
C 7.36752 4.37021 -0.00494
C 7.30091 2.87923 0.00054
C 8.62619 2.27149 0.03007
C 8.55909 0.8351 -0.00095
C 7.37962 0.05204 0.01572
C 9.75431 32.72138 -0.04848
C 11.00076 32.03463 -0.00892
C 11.01636 5.12275 -0.01004
C 11.05534 30.59036 -0.01362
C 9.70128 28.39418 0.0288
C 10.98719 27.71695 0.00393
C 11.07016 26.31454 0.00895
C 9.87734 25.50578 0.00685
C 10.01797 24.00612 0.02888
C 11.37929 23.44644 -0.00482
C 11.21186 9.43358 -0.01384
C 9.77629 8.8263 0.03693
C 9.8709 7.34849 0.01745
C 9.72881 29.89045 -0.0008
C 3.58212 31.96047 0.00031
C 20.85456 0.65712 -0.04422
C 22.11596 32.62021 -0.00703
C 30.65914 6.41464 0.0103
C 30.57462 4.96853 0.02108
C 29.40076 4.26694 0.00716
C 29.48885 2.85846 0.00307
C 30.68163 2.13807 0.00346
C 30.68615 0.74165 0.01713
C 29.44212 0.04023 -0.01694
C 31.85838 32.67316 0.01428
C 33.1162 31.94392 -0.02142
C 29.44349 7.10456 0.07705
C 33.15306 30.52488 0.0544
C 31.8764 28.38926 0.00682
C 33.19057 27.57225 -0.01779
C 33.19384 26.10148 0.03794
C 31.91608 25.55675 0.01927
C 31.931 24.2113 0.01574
C 33.08887 23.42823 -0.02383
C 33.1221 22.04536 -0.01429
C 31.89156 21.26736 -0.0136
C 32.01547 19.93567 0.00594
C 31.93353 29.81618 0.00026
C 33.30795 19.3059 -0.02474
C 29.48546 8.51985 0.01908
C 30.75962 10.69411 -0.00971
C 30.65835 31.86148 0.0014
C 30.69401 30.43887 0.00924
C 29.38416 29.83327 0.02326
C 29.42032 28.47747 0.00261
C 30.59647 27.72546 0.03265
C 30.70034 26.31433 -0.02049
C 29.45225 25.54121 -0.01854
C 29.42193 24.11225 -0.01415
C 30.64141 23.41393 -0.03039
C 30.68099 9.23208 0.01518
C 30.61005 21.97482 0.01836
C 29.47673 19.87505 -0.00669
C 30.80159 19.18139 0.0101
C 30.89593 17.78827 0.01705
C 29.58216 17.08791 -0.0405
C 29.53019 15.63589 -0.01303
C 30.82349 14.9438 -0.01461
C 30.74787 13.488 -0.02155
C 29.52384 12.83869 -0.00944
C 29.55973 11.37484 -0.03735
C 29.48098 21.20709 0.03531
C 29.47072 32.66427 0.01324
C 33.31317 17.86542 0.00369
C 32.06583 15.70322 -0.00644
C 34.40223 21.48521 -0.02213
C 0.12489 20.06491 0.01951
C 1.29088 19.20674 -0.01678
C 1.46887 17.87475 0.01223
C 0.13714 17.16802 0.00648
C 0.09442 15.74807 0.02114
C 1.30073 15.11982 -0.02957
C 1.3149 13.63942 0.00343
C 0.10225 12.88222 -0.02656
C 34.36202 23.98007 0.02712
C 0.07517 11.34872 -0.02442
C 1.09979 9.22109 -0.00583
C 34.32137 8.46669 -0.02302
C 34.34149 7.10971 -0.02849
C 1.07185 6.36663 0.02931
C 1.12829 5.03031 0.00628
C 34.35959 4.34298 -0.0345
C 34.32521 2.89893 -0.00931
C 1.10156 2.16652 -0.00939
C 1.14714 0.73372 -0.00468
C 1.21085 10.59681 -0.00027
C 32.0879 17.115 0.00455
C 0.04983 25.39593 0.00723
C 1.12151 27.67422 -0.05239
C 33.34377 15.01655 -0.01839
C 33.32183 13.59911 0.00137
C 32.03697 12.76101 0.00199
C 32.05846 11.31904 0.04381
C 33.23071 10.68091 0.02806
C 33.16762 9.19747 0.01504
C 31.85333 8.46488 -0.00069
C 31.87451 7.04071 0.04926
C 33.14287 6.45852 -0.03838
C 1.24843 26.27405 0.03076
C 33.15075 5.06051 0.00349
C 31.87853 2.89423 -0.00841
C 33.12449 2.20925 0.0001
C 33.1265 0.82349 -0.02927
C 31.87355 0.04993 -0.01404
C 34.36802 32.67028 0.01027
C 1.18266 32.06001 0.01831
C 1.09539 30.59227 -0.01037
C 34.34128 29.8679 -0.00439
C 34.35391 28.34333 -0.00598
C 31.86626 4.29873 -0.00323
C 19.61635 34.05329 0.00654
C 26.94124 34.06726 0.04266
C 28.20676 2.14382 -0.00416
C 23.311 6.32525 0.03046
C 23.23553 4.84983 0.0296
C 22.08283 4.15929 0.03374
C 22.0414 2.77293 -0.02845
C 23.25824 2.15887 -0.03213
C 23.26622 0.65789 0.02239
C 22.02152 34.00653 0.01153
C 24.5407 32.60558 0.02734
C 25.75088 31.83283 -0.0055
C 22.06712 7.10113 -0.00381
C 25.74706 30.40877 0.01515
C 24.54266 28.34608 0.00071
C 25.76801 27.65785 -0.01107
C 25.73552 26.21055 -0.01586
C 24.52923 25.44138 -0.01971
C 24.47323 24.06909 -0.02118
C 25.77444 23.35314 0.00733
C 25.8693 21.95633 -0.00178
C 24.61364 21.3095 0.00768
C 24.60122 19.89316 -0.0276
C 24.51112 29.769 -0.00225
C 25.81038 19.1379 0.03005
C 22.14115 8.53615 0.01852
C 23.36565 10.62603 -0.01185
C 23.2784 31.88542 -0.04076
C 23.27645 30.4514 -0.00652
C 22.06956 29.75617 0.0058
C 22.12053 28.29679 -0.00865
C 23.34389 27.63974 0.00675
C 23.34128 26.23978 -0.00311
C 22.11322 25.45353 0.00742
C 22.07075 24.03822 -0.01594
C 23.33133 23.31047 0.0106
C 23.35156 9.17773 0.01126
C 23.34578 21.88686 -0.01154
C 22.18009 19.83621 -0.02422
C 23.43491 19.12187 0.01277
C 23.42693 17.69112 0.00096
C 22.14971 17.01762 -0.01527
C 22.12154 15.63336 0.01087
C 23.43085 14.92978 0.00199
C 23.34482 13.47949 0.01511
C 22.13653 12.74231 -0.00478
C 22.11385 11.37966 -0.01662
C 22.16423 21.21827 -0.01721
C 28.22814 0.70975 0.01177
C 25.84141 17.77197 -0.04078
C 24.69724 15.58185 0.02737
C 28.18014 23.41293 0.00622
C 28.28587 22.00108 -0.02815
C 27.10114 21.16365 -0.00942
C 27.11947 19.7428 0.00487
C 28.33639 19.12799 0.00826
C 28.37437 17.74399 -0.00294
C 27.10376 17.06619 0.00152
C 27.15544 15.58325 0.01257
C 28.36051 14.8731 0.02316
C 26.94527 24.10056 -0.0032
C 28.32775 13.48016 0.04185
C 27.02953 11.31169 -0.00621
C 28.32017 10.69422 0.02611
C 28.29677 9.22194 0.02198
C 27.00457 8.46022 0.01094
C 27.0024 7.01675 0.00235
C 28.23413 6.37114 0.01495
C 28.20552 4.95154 0.01259
C 26.91497 4.2665 0.01799
C 26.98143 2.83752 0.01699
C 27.04273 12.731 0.00194
C 24.60526 16.9786 0.02117
C 27.04455 25.5388 -0.00037
C 28.28445 27.64323 -0.00218
C 25.9599 14.9007 -0.00498
C 25.86886 13.52451 0.00135
C 24.5844 12.85904 0.03102
C 24.62267 11.43792 0.02555
C 25.81147 10.62261 0.01423
C 25.8225 9.20521 -0.00285
C 24.63408 8.4608 -0.009
C 24.52936 7.09323 -0.01199
C 25.78902 6.33261 -0.00229
C 28.27994 26.24461 -0.01654
C 25.67401 4.93188 -0.00938
C 24.47611 2.74936 -0.01154
C 25.7577 2.01716 0.00684
C 25.75631 0.62134 -0.01052
C 24.44532 34.00668 -0.01679
C 26.99802 32.62932 0.00367
C 28.17911 31.9505 0.04306
C 28.19021 30.51382 0.00996
C 27.01453 29.76607 0.00195
C 27.06532 28.33731 -0.00802
C 24.52554 4.16168 -0.0264
C 2.43174 32.70272 0.03189
