401
Graphene
C 0.01761 0.02687 0.01295
C 13.58196 9.20813 0.00165
C 12.27162 8.59357 -0.02971
C 12.29484 7.1414 0.02894
C 13.54042 6.38274 -0.01789
C 13.56933 5.00678 0.00444
C 12.31787 4.28317 -0.00925
C 12.25264 2.81386 0.01877
C 13.4899 2.09889 0.01363
C 13.49552 0.59123 -0.02162
C 12.2708 34.06575 0.00415
C 14.82028 32.6867 -0.0014
C 16.02952 31.91717 0.02162
C 16.01833 30.4971 0.0076
C 14.79729 29.80038 0.01241
C 14.72973 28.46008 -0.01454
C 15.99478 27.67145 0.01945
C 15.97153 26.22912 0.01416
C 14.70457 25.52121 0.03542
C 14.83151 24.07658 0.02299
C 15.96525 23.40773 0.00244
C 15.96297 22.03956 -0.01717
C 13.54469 10.60955 0.02819
C 14.73656 21.33161 0.05265
C 12.21499 11.38077 -0.00891
C 13.55892 14.91875 -0.02689
C 11.10172 5.00786 0.02339
C 9.86322 4.29937 0.01641
C 9.86789 2.87014 -0.00719
C 11.05526 2.15959 0.01364
C 11.08389 0.73523 -0.01062
C 9.86431 0.03018 -0.00033
C 12.29085 32.72821 0.03589
C 13.50519 31.96405 -0.02759
C 13.51375 30.59248 0.0402
C 12.31033 29.76711 0.00572
C 12.28854 28.39661 0.03592
C 13.54219 27.72259 0.00406
C 13.58343 26.25454 0.00943
C 12.26005 25.52487 0.02841
C 12.28013 24.17383 -0.01111
C 13.55552 23.41978 -0.01275
C 13.47489 22.00521 0.00985
C 12.30805 21.30374 -0.02245
C 12.36174 19.89697 -0.00428
C 13.51849 19.17979 0.03101
C 13.54129 17.75653 -0.01536
C 13.5167 13.63865 -0.01046
C 11.06592 6.43168 -0.00334
C 14.73573 19.8036 -0.01952
C 15.99133 17.70564 0.00374
C 17.21874 24.20286 -0.05302
C 18.45128 23.4087 0.00213
C 18.403 22.00886 -0.00066
C 17.20593 21.32537 -0.00289
C 17.25979 19.85797 0.00028
C 18.51958 19.22996 -0.02213
C 18.45535 17.70943 0.03698
C 17.23507 16.99772 -0.00109
C 17.21423 15.59442 -0.00491
C 18.4484 9.16612 0.03338
C 17.17729 8.52306 -0.0258
C 17.18774 7.07209 -0.0331
C 18.44236 6.35873 -0.00316
C 18.47098 4.942 0.02188
C 17.21412 4.29946 -0.01979
C 17.17529 2.85403 0.02691
C 18.40996 2.14931 -0.01581
C 18.38964 0.7539 0.01452
C 17.2063 0.02109 0.04892
C 19.68121 32.68382 -0.00111
C 20.93828 31.902 -0.03557
C 17.24671 25.58401 -0.04147
C 15.99881 19.17371 -0.02813
C 18.43588 26.2904 -0.02815
C 17.25924 28.42504 0.01443
C 14.73401 17.04617 0.00052
C 14.76369 15.59301 -0.03682
C 15.98834 14.85934 0.01965
C 15.96722 13.46136 0.02058
C 14.79172 12.81206 -0.01957
C 14.74684 11.35821 -0.0108
C 15.94955 10.65694 -0.00368
C 15.95326 9.23687 -0.02696
C 14.75163 8.5049 -0.00114
C 14.70228 7.11153 0.00228
C 15.97132 6.40775 0.00798
C 16.00229 4.96595 0.00422
C 14.73681 4.22894 0.0351
C 14.74075 2.76169 -0.03113
C 15.95009 2.09754 0.02098
C 15.99967 0.67612 0.01848
C 14.72575 34.05936 -0.00619
C 17.24255 32.65435 -0.02162
C 18.49227 31.98167 0.00889
C 18.40068 30.59474 -0.00481
C 17.23399 29.78033 0.00979
C 18.43529 27.67284 0.03505
C 9.81859 7.12631 -0.01634
C 9.83733 8.57488 0.00057
C 11.08338 9.19122 0.00093
C 2.4523 4.29035 0.02374
C 2.45495 2.87195 0.00402
C 3.66869 2.13098 0.0073
C 3.6833 0.71975 0.0174
C 2.44788 0.03796 0.03828
C 4.9377 32.62021 0.01226
C 6.14808 31.99771 -0.00279
C 6.16746 30.56418 0.01996
C 4.92277 29.83765 -0.03996
C 4.8704 28.46636 0.01465
C 6.16692 27.71739 -0.00074
C 6.15162 26.25641 -0.00518
C 4.91344 25.55449 0.0086
C 4.87646 24.16394 -0.00643
C 6.18219 23.39597 0.017
C 6.21308 22.02737 -0.03113
C 4.91623 21.29262 -0.02566
C 4.99627 19.85228 -0.00094
C 6.13506 19.14203 0.02322
C 4.86393 16.98607 -0.00725
C 4.87818 12.87654 -0.05697
C 3.6989 4.96951 0.03267
C 4.97374 11.37137 0.01087
C 3.65946 6.41583 -0.01509
C 2.50989 8.53389 0.00907
C 3.64324 30.49857 -0.00039
C 2.48285 29.78422 0.0064
C 2.38343 28.33359 0.00211
C 3.67907 27.74575 -0.00449
C 3.66425 26.29325 -0.01979
C 2.43606 25.56973 0.02784
C 2.47476 24.17651 -0.01977
C 3.68321 23.3575 -0.00561
C 3.74145 22.01793 0.00208
C 2.49171 21.36398 0.01707
C 2.47797 19.93927 0.02769
C 3.70014 19.15981 -0.03291
C 3.67893 17.67645 -0.04999
C 2.44761 17.0075 0.04505
C 2.50334 15.60077 0.03284
C 3.66586 14.86856 -0.04307
C 3.69386 13.50806 0.03189
C 2.45229 12.8382 0.00031
C 2.41165 11.38445 -0.003
C 3.72123 10.65637 0.01402
C 3.73201 9.25381 0.02379
C 2.47393 7.15167 0.00643
C 6.09974 10.52483 -0.01343
C 6.11845 9.21254 0.00988
C 4.8577 8.55624 0.0276
C 8.55358 4.93837 -0.0008
C 7.38069 4.26262 0.0288
C 7.37216 2.87553 0.00393
C 8.60068 2.1703 0.00895
C 8.63388 0.67165 0.00685
C 7.36877 0.01983 0.02888
C 9.82396 32.68438 -0.00482
C 11.08258 31.95679 -0.01384
C 11.05816 30.50914 0.03693
C 9.84198 29.81594 0.01745
C 9.85158 28.44021 0.00488
C 11.03215 27.71309 -0.01004
C 11.02346 26.33629 -0.02896
C 9.87559 25.56559 -0.00131
C 9.85506 24.17654 -0.01118
C 11.05643 23.45686 -0.014
C 11.09326 22.05964 0.02147
C 9.8065 21.39207 0.00373
C 9.82226 19.91678 -0.00191
C 11.12057 19.1975 0.00438
C 11.02276 10.68043 0.01291
C 8.60734 6.42859 -0.01362
C 7.39582 7.08486 -0.00892
C 7.37366 8.49971 -0.04848
C 8.55238 9.27261 0.01572
C 4.87796 7.16261 0.01305
C 6.15313 6.41655 -0.00077
C 6.09449 4.98289 0.03368
C 4.89718 4.28619 -0.02929
C 4.92145 2.81576 -0.00966
C 6.16128 2.12092 -0.03337
C 6.10905 0.76162 0.01227
C 4.90687 0.03519 0.00873
C 7.42568 32.71189 -0.00049
C 8.62426 31.90415 0.00848
C 20.91338 30.55126 0.03754
C 8.58065 30.52404 -0.01303
C 7.39541 28.4071 0.02635
C 8.59085 27.73367 0.0127
C 8.53368 26.27218 0.01396
C 7.34178 25.57562 0.01849
C 7.37015 24.09823 -0.01142
C 8.61535 23.46186 -0.00562
C 8.56012 21.99248 -0.00494
C 7.39456 21.32799 0.00054
C 7.37817 19.80164 0.03007
C 8.61419 19.16819 -0.00095
C 7.37784 29.87053 -0.01378
C 3.72753 31.94327 0.02728
C 19.70012 29.8485 0.01739
C 19.66154 24.10548 -0.0054
C 30.73559 9.24206 0.01518
C 29.49742 8.53441 0.01908
C 29.46263 7.16446 0.07705
C 30.76711 6.3859 0.0103
C 30.76146 4.93815 0.02108
C 29.56933 4.21698 0.00716
C 29.51479 2.84524 0.00307
C 30.73963 2.13917 0.00346
C 30.74516 0.70951 0.01713
C 29.50553 34.06041 -0.01694
C 31.9665 32.63849 0.01428
C 33.19354 31.97026 -0.02142
C 33.25861 30.57007 0.0544
C 31.98857 29.75986 0.00026
C 31.99971 28.37119 0.00682
C 33.21488 27.70315 -0.01779
C 33.20675 26.31061 0.03794
C 31.9968 25.50887 0.01927
C 31.94305 24.13618 0.01574
C 33.26778 23.38648 -0.02383
C 33.17361 21.96928 -0.01429
C 30.7006 10.66345 -0.00971
C 31.93875 21.27033 -0.0136
C 29.47961 11.42554 -0.03735
C 29.52975 17.05712 -0.02155
C 28.29854 4.90781 -0.00416
C 27.06233 4.24699 0.01177
C 27.07257 2.86316 0.04266
C 28.34088 2.10737 0.01324
C 28.28553 0.63142 0.0014
C 27.06536 0.00175 0.00924
C 29.55663 32.62569 0.02326
C 30.70726 31.9188 0.00261
C 30.75045 30.48584 0.03265
C 29.50592 29.80814 -0.02049
C 29.49736 28.40631 -0.01854
C 30.76098 27.76907 -0.01415
C 30.75824 26.28608 -0.03039
C 29.56047 25.59934 0.01836
C 29.47214 24.15473 0.03531
C 30.74951 23.42126 -0.00669
C 30.73362 21.99903 0.0101
C 29.55478 21.33644 0.01705
C 29.56664 19.88174 -0.0405
C 30.72133 19.12274 -0.01303
C 30.71342 17.77293 -0.01461
C 29.53293 12.77523 -0.00944
C 28.3117 6.4403 0.01699
C 31.92108 19.81717 0.00594
C 33.18178 17.71824 0.00369
C 1.20924 22.02661 0.02712
C 0.04847 21.29996 -0.02213
C 34.37961 19.85241 0.01951
C 1.19 19.19627 -0.01678
C 1.21943 17.70638 0.01223
C 34.38895 17.01036 0.00648
C 34.4019 15.54533 0.02114
C 1.22253 14.96213 -0.02957
C 1.23606 13.53942 0.00343
C 0.01093 12.75621 -0.02656
C 34.41435 11.35026 -0.02442
C 1.17459 10.64482 -0.00027
C 1.17683 9.24664 -0.00583
C 34.42336 8.53899 -0.02302
C 0.02595 7.05558 -0.02849
C 1.22538 6.36934 0.02931
C 1.18902 4.99248 0.00628
C 0.00224 4.26665 -0.0345
C 34.42869 2.88321 -0.00931
C 1.23079 2.15723 -0.00939
C 1.2175 0.71295 -0.00468
C 1.22401 23.48337 0.00723
C 33.20544 19.15944 -0.02474
C 0.01508 24.16028 0.03076
C 1.2128 26.24055 -0.00598
C 33.20746 14.8801 0.00455
C 33.18738 13.50097 -0.00644
C 31.93322 12.84231 -0.01839
C 31.95869 11.30553 0.00137
C 33.1858 10.61608 0.00199
C 33.13686 9.22439 0.04381
C 31.97188 8.53485 0.02806
C 31.99458 7.11024 0.01504
C 33.13462 6.33982 -0.00069
C 33.17356 4.96433 0.04926
C 31.99404 4.26843 -0.03838
C 31.9652 2.80989 0.00349
C 33.17136 2.13942 -0.00323
C 33.22947 0.6612 -0.00841
C 31.98522 34.06749 0.0001
C 0.0293 32.67934 -0.02927
C 1.21183 31.93627 -0.01404
C 1.24621 30.47023 0.01027
C 34.41831 29.79684 0.01831
C 34.40278 28.39487 -0.01037
C 1.23017 27.66947 -0.00439
C 0.03839 25.55637 -0.05239
C 27.05926 7.14035 0.01799
C 26.97545 8.53194 0.01259
C 28.21216 9.21321 0.01495
C 22.13897 19.81121 0.00199
C 23.32449 19.16641 0.01511
C 23.40901 17.73337 -0.00478
C 22.15585 17.02183 -0.01662
C 22.03528 15.63744 -0.01185
C 23.30207 14.82073 0.01126
C 23.38123 13.45119 0.01852
C 23.38583 10.60778 -0.00381
C 23.40587 9.1831 0.03046
C 22.1727 8.47747 0.0296
C 22.16221 7.07633 0.03374
C 23.35631 6.37799 -0.02845
C 23.38701 4.89769 -0.03213
C 22.11096 4.26259 0.02239
C 22.13338 2.86927 0.01153
C 23.39225 2.06257 0.02734
C 23.42324 0.66233 -0.0055
C 22.11099 34.03769 0.01515
C 24.57557 32.65534 -0.00225
C 25.82019 31.97666 0.00071
C 25.81839 30.50398 -0.01107
C 22.17823 21.29923 0.01087
C 24.56411 29.80894 -0.01586
C 23.35619 22.03975 -0.01527
C 23.39616 27.67005 0.01277
C 20.95449 22.02629 0.00667
C 19.72277 21.34095 0.00143
C 19.7006 19.91435 -0.017
C 20.94002 19.12454 0.00364
C 20.90049 17.759 -0.00831
C 19.70803 17.08313 -0.02957
C 20.89462 9.29664 -0.04422
C 19.6478 8.56025 0.00654
C 19.66665 7.10124 -0.00703
C 20.88347 6.41524 -0.04076
C 20.92014 4.97279 -0.00652
C 19.71958 4.27925 0.0058
C 19.65959 2.89705 -0.00865
C 20.91596 2.1037 0.00675
C 20.92976 0.76298 -0.00311
C 19.71499 0.00798 0.00742
C 22.19056 32.60698 -0.01594
C 23.31512 31.90275 0.0106
C 23.38765 30.54992 -0.01154
C 22.11123 29.78965 -0.01721
C 22.26862 28.42916 -0.02422
C 23.30294 23.42987 0.00096
C 24.59205 28.39124 -0.01971
C 25.8279 27.67401 -0.02118
C 25.70799 26.27426 0.00733
C 28.22444 31.97291 -0.00802
C 28.24543 30.54181 -0.00218
C 27.02305 29.81978 -0.01654
C 27.07525 28.35418 -0.00037
C 28.21988 27.6533 -0.0032
C 28.27231 26.26796 0.00622
C 27.01322 25.56241 -0.02815
C 27.01871 24.11294 -0.00942
C 28.24077 23.44115 0.00487
C 28.26832 22.01109 0.00826
C 27.03825 21.29456 -0.00294
C 27.04667 19.88381 0.00152
C 28.31257 19.09724 0.01257
C 28.30464 17.72476 0.02316
C 27.04575 17.01487 0.04185
C 27.07405 15.60555 0.00194
C 28.36187 15.01425 -0.00621
C 28.32802 13.5297 0.02611
C 27.01314 12.72174 0.02198
C 27.06419 11.32578 0.01094
C 28.283 10.68384 0.00235
C 27.00767 32.68435 0.00195
C 24.60011 34.06032 0.00996
C 25.88731 0.75431 0.04306
C 25.86258 2.15278 0.00367
C 24.5825 25.55479 -0.00178
C 24.51628 24.0924 0.00768
C 25.8131 23.48187 -0.0276
C 25.81595 22.02886 0.03005
C 24.54325 21.27559 -0.04078
C 24.54782 19.8619 0.02117
C 25.83395 19.16289 0.02737
C 25.83048 17.75778 -0.00498
C 24.61441 17.05053 0.00135
C 24.62297 15.59078 0.03102
C 19.65282 28.47079 0.00755
C 25.85815 14.91895 0.02555
C 24.54989 12.76514 -0.00285
C 24.60237 11.32297 -0.009
C 25.84308 10.65779 -0.01199
C 25.81849 9.29592 -0.00229
C 24.62838 8.50322 -0.00938
C 24.58078 7.06771 -0.0264
C 25.91084 6.40239 -0.01154
C 25.78062 5.01987 0.00684
C 24.60312 4.24627 -0.01052
C 24.61775 2.85553 -0.01679
C 25.82585 13.47406 0.01423
C 2.47392 32.59804 0.00245
