382
Graphene
C 0.01573 0.02618 0.01295
C 12.33454 29.79338 0.01241
C 12.26755 28.43308 -0.01454
C 13.51832 27.73542 0.01945
C 13.53702 26.262 0.01416
C 12.31338 25.60291 0.03542
C 12.39347 11.35144 0.02299
C 13.4595 10.62209 0.00244
C 13.50841 9.21836 -0.01717
C 12.28516 8.41632 0.05265
C 12.2864 7.05731 -0.01952
C 13.5619 6.39803 -0.02813
C 13.55363 4.93215 0.00374
C 12.30993 4.2382 0.00052
C 12.35283 2.83091 -0.03682
C 13.51453 2.195 0.01965
C 13.53356 0.66546 0.02058
C 12.28982 34.02061 -0.01957
C 14.71291 32.6338 -0.0108
C 16.04242 31.89067 -0.00368
C 13.48629 30.49599 0.0076
C 13.51416 31.98182 0.02162
C 12.30963 32.62862 -0.0014
C 9.78421 0.04569 0.00415
C 11.00125 30.57707 -0.01111
C 9.85572 29.88062 -0.01275
C 9.86122 28.42446 0.00985
C 11.07833 27.71645 -0.02245
C 11.07283 26.2908 -0.00428
C 9.8166 25.58011 0.03101
C 9.84691 24.11711 -0.01536
C 11.08182 23.45375 -0.02689
C 9.87422 12.86754 -0.01046
C 15.9745 30.5102 -0.02696
C 9.8653 11.42347 -0.00891
C 11.09843 9.18639 0.00165
C 9.85536 8.52476 -0.02971
C 9.8569 7.11921 0.02894
C 11.11912 6.39041 -0.01789
C 11.03944 4.91946 0.00444
C 9.81982 4.28673 -0.00925
C 9.85282 2.80654 0.01877
C 11.03394 2.11317 0.01363
C 11.07871 0.68148 -0.02162
C 11.16032 10.6571 0.02819
C 14.75608 29.83402 -0.00114
C 14.77235 28.42836 0.00228
C 15.94794 27.76423 0.00798
C 18.44389 6.40956 -0.0258
C 18.41932 4.91156 -0.0331
C 17.18935 4.25017 -0.00316
C 17.21658 2.88305 0.02188
C 18.46233 2.10516 -0.01979
C 18.42799 0.73734 0.02691
C 17.209 0.0299 -0.01581
C 19.69425 32.64066 0.01452
C 20.95273 31.98531 0.04892
C 17.20405 7.06072 0.03338
C 20.94275 30.53669 -0.00111
C 19.70129 28.39736 0.03754
C 20.94488 27.63857 0.01739
C 20.84817 26.2592 0.00755
C 19.68036 25.53958 -0.0054
C 19.65506 11.30072 0.00667
C 20.93198 10.61837 0.00143
C 20.89536 9.25202 -0.017
C 19.65072 8.54631 0.00364
C 19.66239 7.11763 -0.00831
C 19.61695 29.84589 -0.03557
C 11.04829 31.9936 0.02841
C 17.18585 8.50899 -0.00491
C 18.5082 10.63922 0.03698
C 15.96923 26.27739 0.00422
C 14.77173 25.56933 0.0351
C 15.9786 9.22754 -0.03113
C 14.79367 8.52709 0.02098
C 14.7622 7.0887 0.01848
C 15.99618 6.35988 -0.00619
C 15.95418 4.96604 -0.02162
C 14.74596 4.26672 0.00889
C 14.77408 2.87428 -0.00481
C 18.40992 9.19633 -0.00109
C 15.94522 2.13697 0.00979
C 14.71458 34.07753 0.03505
C 17.21038 32.64846 -0.02815
C 18.41508 31.9715 -0.04147
C 18.43828 30.56906 -0.05302
C 17.24361 29.79383 0.00213
C 17.18939 28.37865 -0.00066
C 18.44456 27.64804 -0.00289
C 18.45325 26.23707 0.00028
C 17.2416 25.54809 -0.02213
C 15.95856 0.70775 0.01443
C 9.84229 32.64165 0.00943
C 7.40823 0.02207 0.00406
C 8.55641 0.78041 0.03592
C 3.68623 4.92125 0.02322
C 2.44543 4.24568 -0.00725
C 2.44359 2.85561 -0.05697
C 3.69729 2.18258 0.01087
C 3.70008 0.65966 -0.01343
C 2.43942 0.0171 0.00988
C 4.86572 32.70256 0.0276
C 6.11053 31.96729 0.01305
C 6.14004 30.55205 -0.00077
C 3.67605 6.43129 -0.00094
C 4.93487 29.79322 0.03368
C 6.16388 27.71891 -0.00966
C 6.1469 26.28675 -0.03337
C 4.92172 25.57904 0.01227
C 4.90464 24.21644 0.00873
C 6.17659 23.44892 -0.00049
C 6.13923 21.98976 0.00848
C 4.91486 21.29915 -0.01303
C 4.89473 19.93019 -0.01378
C 6.19529 19.12357 0.02635
C 4.98521 28.40691 -0.02929
C 6.13258 17.75539 0.0127
C 2.52103 7.08275 -0.02566
C 3.69034 9.24324 0.017
C 3.62468 30.5243 0.01402
C 2.4274 29.91095 0.02379
C 2.46538 28.42813 0.00907
C 3.717 27.6817 0.00643
C 3.65753 26.2928 -0.01509
C 2.51042 25.53753 0.03267
C 2.45661 24.11772 0.02374
C 3.76568 23.41718 0.00402
C 3.62761 21.97316 0.0073
C 2.4567 8.5741 -0.03113
C 2.41853 21.33846 0.0174
C 3.68715 19.17912 0.01226
C 3.6802 17.80676 -0.00279
C 2.46537 16.98195 0.01996
C 2.49446 15.62618 -0.03996
C 3.72471 14.94988 0.01465
C 3.68557 13.51852 -0.00074
C 2.4642 12.78567 -0.00518
C 2.45276 11.32483 0.0086
C 3.67629 10.63275 -0.00643
C 2.4793 19.88004 0.03828
C 20.91842 6.37548 -0.02957
C 4.91439 17.06543 0.01396
C 6.17959 14.96927 -0.01142
C 8.54783 22.01957 -0.014
C 7.41822 21.29621 0.02147
C 7.43701 19.88581 0.00373
C 8.63314 19.19782 -0.00191
C 8.60316 17.68933 0.00438
C 7.35713 17.03443 0.01291
C 7.3696 15.63755 0.00093
C 8.55475 14.8592 0.00057
C 8.62916 13.50916 -0.01634
C 8.61004 23.41867 -0.01118
C 7.37396 12.81176 -0.00334
C 8.65034 10.62341 0.01641
C 8.61855 9.26698 -0.00719
C 7.37019 8.56277 0.01364
C 7.41669 7.15655 -0.01062
C 8.59151 6.38755 -0.00033
C 8.60017 4.97306 0.03589
C 7.39808 4.2814 -0.02759
C 7.37576 2.85607 0.0402
C 8.56839 2.16698 0.00572
C 7.42181 11.36515 0.02339
C 4.9406 15.68163 0.01849
C 7.37959 24.18563 -0.00131
C 8.60848 26.31811 -0.01004
C 6.10745 13.54365 -0.00562
C 4.90196 12.78375 -0.00494
C 4.94209 11.36211 0.00054
C 6.10139 10.63392 0.03007
C 6.15482 9.24644 -0.00095
C 4.90805 8.51884 0.01572
C 4.90712 7.08211 -0.04848
C 6.13803 6.42096 -0.00892
C 6.10371 5.0136 -0.01362
C 7.3781 25.59763 -0.02896
C 4.85822 4.27888 -0.0008
C 6.12526 2.1817 0.00393
C 6.15329 0.70163 0.00895
C 4.93573 0.00395 0.00685
C 7.34044 32.69025 0.02888
C 8.57759 31.96414 -0.00482
C 8.63161 30.56317 -0.01384
C 7.39781 29.77804 0.03693
C 7.36447 28.40313 0.01745
C 8.55489 27.69797 0.00488
C 4.93386 2.84759 0.0288
C 20.8822 5.01146 -0.04422
C 19.60477 4.27613 0.00654
C 19.63381 2.8226 -0.00703
C 29.4714 4.21075 0.0103
C 29.52675 2.88416 0.02108
C 30.70374 2.11776 0.00716
C 30.75589 0.72832 0.00307
C 29.51653 34.03869 0.00346
C 31.94824 32.64985 0.01713
C 33.19977 31.97015 -0.01694
C 33.24039 30.52606 0.01428
C 32.00097 29.8503 -0.02142
C 30.73234 4.96783 0.07705
C 31.98541 28.40299 0.0544
C 33.17495 26.27315 0.00682
C 31.92002 25.59481 -0.01779
C 32.01907 24.14797 0.03794
C 33.22958 23.38487 0.01927
C 33.26014 21.97319 0.01574
C 31.98965 21.32905 -0.02383
C 31.97015 19.90845 -0.01429
C 33.2166 19.1808 -0.0136
C 33.17623 17.75352 0.00594
C 33.20445 27.68862 0.00026
C 31.96372 17.06937 -0.02474
C 30.78648 6.44314 0.01908
C 29.51162 8.46198 -0.00971
C 29.54294 29.78139 0.0014
C 29.53103 28.39515 0.00924
C 30.75681 27.69812 0.02326
C 30.7224 26.221 0.00261
C 29.46557 25.5476 0.03265
C 29.54761 24.05863 -0.02049
C 30.72312 23.40571 -0.01854
C 30.71917 22.04906 -0.01415
C 29.52 21.29301 -0.03039
C 29.4932 7.12076 0.01518
C 29.51153 19.87226 0.01836
C 30.75883 17.68955 -0.00669
C 29.5276 17.02718 0.0101
C 29.52167 15.63789 0.01705
C 30.82587 14.90615 -0.0405
C 30.73988 13.43809 -0.01303
C 29.51772 12.79272 -0.01461
C 29.55834 11.34181 -0.02155
C 30.72541 10.62568 -0.00944
C 30.75339 9.23218 -0.03735
C 30.73734 19.16636 0.03531
C 30.72916 30.53318 0.01324
C 32.01897 15.65532 0.00369
C 33.20911 13.4742 -0.00644
C 0.03065 21.34004 -0.02213
C 34.39983 19.90959 0.01951
C 1.24172 19.18466 -0.01678
C 1.22311 17.73157 0.01223
C 0.03552 17.05257 0.00648
C 0.01979 15.60602 0.02114
C 1.20517 14.87465 -0.02957
C 1.22966 13.51791 0.00343
C 0.00505 12.7651 -0.02656
C 1.23861 22.07772 0.02712
C 34.3813 11.30392 -0.02442
C 1.20271 9.20994 -0.00583
C 34.41401 8.52133 -0.02302
C 0.04541 7.10283 -0.02849
C 1.16913 6.33883 0.02931
C 1.17694 4.95799 0.00628
C 34.41998 4.20095 -0.0345
C 34.418 2.82281 -0.00931
C 1.24304 2.09618 -0.00939
C 1.24824 0.7609 -0.00468
C 1.22596 10.70984 -0.00027
C 33.2215 14.88772 0.00455
C 1.23121 23.44265 0.00723
C 34.39219 25.56107 -0.05239
C 31.9151 12.79182 -0.01839
C 31.96836 11.3568 0.00137
C 33.21351 10.60472 0.00199
C 33.18934 9.22493 0.04381
C 31.9479 8.55122 0.02806
C 31.9665 7.14172 0.01504
C 33.19039 6.44578 -0.00069
C 33.18246 4.98551 0.04926
C 31.95055 4.2633 -0.03838
C 34.42546 24.1814 0.03076
C 31.9921 2.86055 0.00349
C 33.21543 0.69292 -0.00841
C 31.95706 34.05508 0.0001
C 34.41255 32.65367 -0.02927
C 1.21401 31.9746 -0.01404
C 1.213 30.59157 0.01027
C 34.43173 29.77385 0.01831
C 0.00357 28.38987 -0.01037
C 1.1899 27.66187 -0.00439
C 1.23979 26.28389 -0.00598
C 33.23143 2.12152 -0.00323
C 3.6244 31.92351 -0.003
C 30.72964 31.93229 0.04266
C 27.07179 34.07057 -0.00416
C 22.12482 4.21107 0.03046
C 22.12495 2.85331 0.0296
C 23.38491 2.08512 0.03374
C 23.37546 0.69299 -0.02845
C 22.16393 34.07863 -0.03213
C 24.58389 32.69109 0.02239
C 25.85338 31.89652 0.01153
C 25.78362 30.49057 0.02734
C 24.55459 29.7976 -0.0055
C 23.37231 4.95312 -0.00381
C 24.62567 28.38367 0.01515
C 25.79498 26.32428 0.00071
C 24.52783 25.54617 -0.01107
C 24.54855 24.11853 -0.01586
C 25.82269 23.39179 -0.01971
C 25.78035 22.01593 -0.02118
C 24.58761 21.28447 0.00733
C 24.61655 19.84798 -0.00178
C 25.72343 19.17701 0.00768
C 25.76305 17.72298 -0.0276
C 25.82448 27.69625 -0.00225
C 24.59932 17.03875 0.03005
C 23.39005 6.33113 0.01852
C 22.16046 8.4742 -0.01185
C 20.94889 2.11834 -0.04076
C 20.92573 0.72496 -0.00652
C 19.70334 34.02727 0.0058
C 22.1042 32.6318 -0.00865
C 23.36534 31.98188 0.00675
C 23.39613 30.4915 -0.00311
C 22.2089 29.78067 0.00742
C 22.13894 28.33011 -0.01594
C 23.37691 27.6655 0.0106
C 22.17523 7.08392 0.01126
C 23.35901 26.25781 -0.01154
C 22.14971 24.16246 -0.02422
C 23.3213 23.39621 0.01277
C 23.34424 22.0034 0.00096
C 23.39118 14.89756 -0.01527
C 23.41142 13.48934 0.01087
C 22.17775 12.78676 0.00199
C 22.12885 11.38709 0.01511
C 23.39748 10.59207 -0.00478
C 23.34194 9.23029 -0.01662
C 22.14036 25.57184 -0.01721
C 29.47465 32.70266 0.01177
C 24.52766 15.61114 -0.04078
C 25.84308 13.52437 0.02737
C 27.01872 21.31806 0.00622
C 27.04731 19.85202 -0.02815
C 28.31472 19.1774 -0.00942
C 28.26116 17.79041 0.00487
C 27.03611 17.00777 0.00826
C 27.06269 15.67439 -0.00294
C 28.31666 14.9031 0.00152
C 28.32826 13.47425 0.01257
C 26.9872 12.73214 0.02316
C 28.32586 22.03997 -0.0032
C 27.03858 11.31939 0.04185
C 28.39714 9.27259 -0.00621
C 27.04243 8.55644 0.02611
C 27.05861 7.09066 0.02198
C 28.31122 6.36572 0.01094
C 28.21665 4.97419 0.00235
C 26.98989 4.26248 0.01495
C 27.02353 2.84403 0.01259
C 28.26299 2.12034 0.01799
C 28.30663 0.67145 0.01699
C 28.22712 10.61835 0.00194
C 25.81278 14.92918 0.02117
C 28.25293 23.43071 -0.00037
C 27.02752 25.56517 -0.00218
C 24.60322 12.82514 -0.00498
C 24.59676 11.38398 0.00135
C 25.82196 10.62328 0.03102
C 25.7981 9.2182 0.02555
C 24.60053 8.45089 0.01423
C 24.62131 7.07891 -0.00285
C 25.82289 6.36783 -0.009
C 25.83417 4.95055 -0.01199
C 24.64477 4.33726 -0.00229
C 27.05282 24.15786 -0.01654
C 24.57866 2.81324 -0.00938
C 25.8415 0.70299 -0.01154
C 24.58862 0.03968 0.00684
C 27.01855 32.64515 -0.01052
C 28.30826 31.92434 -0.01679
C 28.32488 30.56624 0.00367
C 27.09246 29.84458 0.04306
C 27.03568 28.41482 0.00996
C 28.26587 27.65095 0.00195
C 28.28346 26.30733 -0.00802
C 25.82296 2.14339 -0.0264
C 2.42733 32.64972 0.00031
