349
Graphene
C 34.40448 0.00525 0.01295
C 14.79671 2.84992 0.00422
C 16.04871 2.22818 0.0351
C 16.08986 0.75091 -0.03113
C 14.91001 34.06286 0.02098
C 17.42426 32.72293 0.01848
C 18.37577 31.90833 -0.00619
C 18.24983 18.99116 -0.02162
C 18.45024 17.62072 0.00889
C 17.25158 16.76212 -0.00481
C 17.23235 15.39219 0.00979
C 18.47686 14.77333 0.01443
C 18.65345 13.27961 0.03505
C 18.4818 4.97971 -0.02815
C 17.46629 4.33162 -0.04147
C 17.29162 2.93235 -0.05302
C 18.54334 2.19954 0.00213
C 18.52715 0.77769 -0.00066
C 14.57404 4.38011 0.00798
C 16.00211 14.54078 0.00228
C 14.81398 14.56373 -0.00114
C 14.85997 17.97177 -0.02696
C 11.06597 6.40766 -0.01454
C 11.03035 5.00114 0.01945
C 9.81094 4.28352 0.01416
C 9.87012 2.86997 0.03542
C 11.05578 2.09107 0.02299
C 11.09025 0.69952 0.00244
C 9.78509 0.09059 -0.01717
C 13.52929 18.01711 0.05265
C 17.353 0.06001 -0.00289
C 12.27766 17.43907 -0.01952
C 13.56999 15.12991 0.00374
C 13.42821 4.9735 0.00052
C 12.18191 4.28696 -0.03682
C 12.32253 2.7232 0.01965
C 13.53549 2.1057 0.02058
C 13.61366 0.65625 -0.01957
C 12.36719 0.12368 -0.0108
C 16.0693 17.46231 -0.00368
C 12.34336 15.64985 -0.02813
C 19.61083 32.60069 0.00028
C 20.92111 31.94579 -0.02213
C 20.73367 30.50477 0.03698
C 20.85582 0.72109 -0.00831
C 19.66302 34.07632 -0.02957
C 22.14457 32.60719 -0.04422
C 23.35935 31.88201 0.00654
C 23.33701 30.48769 -0.00703
C 22.04662 29.84758 -0.04076
C 22.00177 28.45818 -0.00652
C 23.24907 27.80458 0.0058
C 20.90948 2.08626 0.00364
C 23.26739 26.31988 -0.00865
C 21.99271 24.17139 -0.00311
C 23.32769 23.43745 0.00742
C 23.37396 22.11178 -0.01594
C 22.09925 21.3527 0.0106
C 22.00343 19.94497 -0.01154
C 23.29474 19.29468 -0.01721
C 23.39349 17.77705 -0.02422
C 22.08705 17.05163 0.01277
C 22.02132 25.62537 0.00675
C 9.92243 7.15557 0.01241
C 19.70698 2.87853 -0.017
C 20.93867 4.98311 0.00667
C 19.54708 29.68551 -0.00109
C 20.69974 27.77797 -0.00491
C 20.82087 26.50575 0.03338
C 20.7287 23.54399 -0.0258
C 20.80649 22.04635 -0.0331
C 19.7958 21.09508 -0.00316
C 19.45995 19.82471 0.02188
C 20.8145 19.15544 -0.01979
C 19.6888 4.3446 0.00143
C 20.88093 17.67493 0.02691
C 19.66134 15.48883 0.01452
C 20.90704 14.88276 0.04892
C 20.97012 13.46399 -0.00111
C 19.83727 12.64726 -0.03557
C 20.86232 10.54358 0.03754
C 20.7529 9.26142 0.01739
C 19.6323 7.11402 0.00755
C 20.79152 6.43377 -0.0054
C 19.68975 16.91717 -0.01581
C 9.78663 8.6923 0.0076
C 9.90239 11.25361 0.02162
C 10.02038 12.73578 -0.0014
C 2.46367 7.10199 -0.00892
C 3.6915 6.40254 -0.01362
C 3.66099 4.9902 -0.0008
C 2.43534 4.34512 0.0288
C 2.45877 2.89304 0.00393
C 3.65651 2.1018 0.00895
C 3.67222 0.721 0.00685
C 2.42545 0.05652 0.02888
C 2.5239 8.50173 -0.04848
C 4.90865 32.69732 -0.00482
C 6.02067 30.66284 0.03693
C 4.96298 29.88875 0.01745
C 4.77512 28.40286 0.00488
C 4.77736 25.57834 -0.01004
C 4.76525 24.22717 -0.02896
C 4.88992 21.31758 -0.00131
C 4.74647 19.96476 -0.01118
C 6.04108 19.21768 -0.014
C 6.19975 32.05828 -0.01384
C 6.17646 17.8443 0.02147
C 3.72732 9.23208 0.01572
C 2.5124 11.3585 0.03007
C 3.59264 30.55589 0.03368
C 2.36101 29.92754 -0.02929
C 2.36364 28.48102 -0.00966
C 3.56888 27.78696 -0.03337
C 3.57964 26.36046 0.01227
C 2.3996 25.56289 0.00873
C 2.34337 24.18293 -0.00049
C 3.53496 23.55273 0.00848
C 3.73733 10.67868 -0.00095
C 3.66463 22.05567 -0.01303
C 2.41406 19.87507 0.02635
C 3.59979 19.13808 0.0127
C 3.63583 17.69436 0.01396
C 2.34302 16.9724 0.01849
C 2.35882 15.62953 -0.01142
C 3.72736 14.97971 -0.00562
C 3.73217 13.54095 -0.00494
C 2.47102 12.76818 0.00054
C 2.35033 21.22554 -0.01378
C 22.0879 15.67261 0.00096
C 4.91166 17.10856 0.00373
C 6.12815 15.01266 0.00438
C 7.4216 12.85383 -0.02245
C 7.38293 11.35394 -0.00428
C 8.62288 10.63487 0.03101
C 8.50025 9.24155 -0.01536
C 7.29895 8.4501 -0.02689
C 7.34603 7.03785 -0.01046
C 8.61599 6.49757 -0.00891
C 8.6699 5.10918 0.02819
C 8.70396 13.48486 0.00985
C 7.45039 4.37218 0.00165
C 8.58855 2.25811 0.02894
C 8.62835 0.82327 -0.01789
C 7.36818 0.16276 0.00444
C 10.99189 17.77928 -0.00925
C 9.82755 16.99992 0.01877
C 9.76639 15.62037 0.01363
C 11.01841 14.92586 -0.02162
C 11.12 13.60216 0.00415
C 7.33857 2.98663 -0.02971
C 4.92875 15.65762 -0.00191
C 8.57596 14.9047 -0.01275
C 7.40692 17.13458 0.02841
C 6.19982 13.58255 0.01291
C 4.92048 12.76396 0.00093
C 4.95376 11.37752 0.00057
C 6.13861 10.66515 -0.01634
C 6.11649 9.27563 -0.00334
C 4.89538 8.53694 0.02339
C 4.92187 7.09465 0.01641
C 6.12621 6.40653 -0.00719
C 7.40818 15.70641 -0.01111
C 6.15334 4.99959 0.01364
C 4.90384 2.86346 -0.00033
C 6.14355 2.22604 0.03589
C 6.10035 0.83077 -0.02759
C 4.90835 0.07176 0.0402
C 7.46078 32.85015 0.00572
C 7.27189 19.8502 0.03592
C 8.4401 19.25446 0.00406
C 8.54569 17.82358 0.00943
C 4.83716 4.26615 -0.01062
C 3.79389 31.89883 -0.00077
C 23.32939 14.85143 -0.01527
C 22.16495 12.76089 0.00199
C 33.13173 30.50466 0.01428
C 31.88782 29.79259 -0.02142
C 31.99811 28.42581 0.0544
C 33.20753 27.71282 0.00026
C 33.17528 26.30622 0.00682
C 31.94864 25.58996 -0.01779
C 32.00872 24.13314 0.03794
C 33.27219 23.46062 0.01927
C 33.167 22.02537 0.01574
C 31.92238 21.32967 -0.02383
C 31.96027 19.92834 -0.01429
C 33.1823 19.18633 -0.0136
C 33.12611 17.74477 0.00594
C 31.86174 17.01013 -0.02474
C 31.94364 15.60833 0.00369
C 33.1602 14.85706 0.00455
C 33.17967 13.4516 -0.00644
C 33.13188 31.93477 -0.01694
C 32.00719 32.69697 0.01713
C 29.47237 0.03509 0.00346
C 30.75233 0.66902 0.00307
C 29.53721 19.90222 0.01836
C 30.7797 19.17958 0.03531
C 30.68301 17.81802 -0.00669
C 29.49036 17.10935 0.0101
C 29.46117 15.6361 0.01705
C 30.66324 14.86879 -0.0405
C 30.64033 13.49139 -0.01303
C 29.42745 12.77789 -0.01461
C 31.95584 12.74932 -0.01839
C 29.43355 11.29334 -0.02155
C 30.78197 9.12303 -0.03735
C 29.54907 8.47811 -0.00971
C 29.54689 7.04254 0.01518
C 30.81879 6.34009 0.01908
C 30.76365 4.94337 0.07705
C 29.53466 4.31719 0.0103
C 29.52764 2.84945 0.02108
C 30.7633 2.15454 0.00716
C 30.7336 10.60933 -0.00944
C 31.96501 11.34064 0.00137
C 33.19504 10.59658 0.00199
C 33.25306 9.17414 0.04381
C 1.17858 19.17936 -0.01678
C 1.10878 17.79257 0.01223
C 34.33874 17.01351 0.00648
C 34.38673 15.54896 0.02114
C 1.13913 14.88299 -0.02957
C 1.1876 13.44469 0.00343
C 34.38712 12.74595 -0.02656
C 34.38967 11.30152 -0.02442
C 34.41355 19.84819 0.01951
C 1.22512 10.60702 -0.00027
C 0.07373 8.49585 -0.02302
C 0.07039 7.02201 -0.02849
C 1.28386 6.39641 0.02931
C 1.24721 4.99448 0.00628
C 0.00979 4.29942 -0.0345
C 0.00218 2.85225 -0.00931
C 1.23166 2.12291 -0.00939
C 1.18658 0.72016 -0.00468
C 1.28713 9.21854 -0.00583
C 29.50517 21.3679 -0.03039
C 34.34823 21.26196 -0.02213
C 1.18807 23.38909 0.00723
C 31.99135 8.53823 0.02806
C 32.00924 7.07696 0.01504
C 33.21212 6.37511 -0.00069
C 33.21052 4.95317 0.04926
C 31.96706 4.24498 -0.03838
C 31.95706 2.79952 0.00349
C 33.19541 2.1778 -0.00323
C 33.22864 0.77318 -0.00841
C 1.15269 21.96126 0.02712
C 31.9708 34.03014 0.0001
C 1.25145 32.01429 -0.01404
C 1.1577 30.63162 0.01027
C 34.43085 29.85955 0.01831
C 34.407 28.43772 -0.01037
C 1.17174 27.81123 -0.00439
C 1.19309 26.37185 -0.00598
C 34.40034 25.61841 -0.05239
C 0.0515 24.15799 0.03076
C 34.42177 32.65189 -0.02927
C 30.7525 22.09955 -0.01415
C 30.72829 23.52517 -0.01854
C 29.48499 24.19331 -0.02049
C 25.83013 22.05584 -0.02118
C 24.64496 21.39183 0.00733
C 24.53373 20.00761 -0.00178
C 25.85824 19.23368 0.00768
C 25.85453 17.78813 -0.0276
C 24.64346 17.08417 0.03005
C 24.58357 15.63433 -0.04078
C 25.82387 14.9134 0.02117
C 25.75521 23.48727 -0.01971
C 25.76065 13.42152 0.02737
C 24.54298 11.38423 0.00135
C 25.74052 10.62371 0.03102
C 25.8066 9.2199 0.02555
C 24.52938 8.47008 0.01423
C 24.5349 7.07165 -0.00285
C 25.77179 6.31928 -0.009
C 25.80971 4.91315 -0.01199
C 24.56887 4.26366 -0.00229
C 24.54676 12.74217 -0.00498
C 24.51073 2.8743 -0.00938
C 24.50809 24.19505 -0.01586
C 25.75153 26.31851 0.00071
C 22.05454 11.23707 0.01511
C 23.30661 10.61836 -0.00478
C 23.3319 9.21079 -0.01662
C 22.04185 8.49269 -0.01185
C 22.07295 7.07615 0.01126
C 23.35454 6.42155 0.01852
C 23.31386 5.02663 -0.00381
C 22.14168 4.28407 0.03046
C 24.50463 25.59794 -0.01107
C 22.11681 2.79272 0.0296
C 23.30211 0.69977 -0.02845
C 22.12882 34.02872 -0.03213
C 24.51451 32.60026 0.02239
C 25.75902 31.94191 0.01153
C 25.84567 30.54539 0.02734
C 24.53258 29.79882 -0.0055
C 24.45133 28.4034 0.01515
C 25.6759 27.74525 -0.00225
C 23.37765 2.14 0.03374
C 23.35157 13.46854 0.01087
C 25.86997 2.10469 -0.0264
C 24.57195 34.06885 0.00684
C 28.27975 9.2024 -0.00621
C 27.03046 8.51097 0.02611
C 27.00503 7.09294 0.02198
C 28.24482 6.34323 0.01094
C 28.29637 4.90901 0.00235
C 27.12934 4.20385 0.01495
C 27.06426 2.76563 0.01259
C 28.30546 2.08138 0.01799
C 28.22243 10.6408 0.00194
C 28.29625 0.71858 0.01699
C 29.50394 32.6242 0.01177
C 30.70988 32.02613 0.04266
C 30.72434 30.55046 0.01324
C 29.4277 29.87716 0.0014
C 29.43293 28.43558 0.00924
C 30.72822 27.81556 0.02326
C 30.73457 26.33385 0.00261
C 29.46322 25.58252 0.03265
C 27.08691 34.04204 -0.00416
C 25.88279 0.66017 -0.01154
C 26.998 11.33644 0.04185
C 28.20154 13.45746 0.01257
C 27.01312 32.65868 -0.01052
C 28.15754 31.92554 -0.01679
C 28.2412 30.52767 0.00367
C 27.00991 29.856 0.04306
C 26.93165 28.42224 0.00996
C 28.17388 27.67786 0.00195
C 28.21078 26.24808 -0.00802
C 26.92899 25.63717 -0.00218
C 27.04101 12.73139 0.02316
C 27.01131 24.2411 -0.01654
C 28.33427 22.05498 -0.0032
C 27.09507 21.35682 0.00622
C 27.03406 19.98429 -0.02815
C 28.26385 19.25887 -0.00942
C 28.28226 17.86969 0.00487
C 27.06322 17.0906 0.00826
C 27.03695 15.65053 -0.00294
C 28.26788 14.89877 0.00152
C 28.27805 23.47724 -0.00037
C 2.54713 32.66035 0.01305
