435
Graphene
C 0.05274 33.9855 0.01295
C 13.45224 17.83991 0.01641
C 12.25977 17.11735 -0.00719
C 12.3125 15.68429 0.01364
C 13.48879 14.99318 -0.01062
C 13.52302 13.52562 -0.00033
C 12.33202 12.83087 0.03589
C 12.36214 11.44364 -0.02759
C 13.64659 10.82427 0.0402
C 13.67871 9.40888 0.00572
C 12.42481 8.67038 0.03592
C 12.3008 7.17355 0.00406
C 13.54419 6.44065 0.00943
C 13.47288 4.99229 0.02841
C 12.2313 4.23262 -0.01111
C 12.27293 2.80947 -0.01275
C 13.42469 2.18003 0.00985
C 13.45309 0.79602 -0.02245
C 12.2427 0.11683 -0.00428
C 14.66847 32.61578 0.03101
C 16.00097 31.9502 -0.01536
C 15.92999 30.52365 -0.02689
C 14.70594 29.91017 -0.01046
C 14.71747 28.45801 -0.00891
C 13.48818 19.2223 0.02339
C 15.88976 27.71759 0.02819
C 12.1919 20.04057 -0.00334
C 13.36683 22.09348 0.00057
C 9.82723 12.85017 -0.01362
C 9.89535 11.42675 -0.0008
C 11.068 10.71216 0.0288
C 11.13051 9.27061 0.00393
C 9.89199 8.54041 0.00895
C 9.86188 7.17239 0.00685
C 11.11371 6.40168 0.02888
C 11.0352 5.06232 -0.00482
C 9.77539 4.32535 -0.01384
C 9.79536 2.91272 0.03693
C 10.94988 2.15565 0.01745
C 11.01386 0.8331 0.00488
C 9.80965 0.02295 -0.01004
C 12.19724 32.74325 -0.02896
C 13.47227 31.99253 -0.00131
C 13.4859 30.53846 -0.01118
C 12.18537 29.85391 -0.014
C 12.2837 28.43488 0.02147
C 13.51884 27.75703 0.00373
C 13.54405 26.31008 -0.00191
C 12.32085 25.59543 0.00438
C 12.20553 24.20864 0.01291
C 13.45964 23.5379 0.00093
C 12.07565 21.42022 -0.01634
C 15.95716 26.34884 0.00165
C 14.76628 25.57025 -0.02971
C 14.64045 24.14345 0.02894
C 18.36633 22.06761 -0.00368
C 17.15651 21.30217 -0.02696
C 17.23998 19.86505 -0.00114
C 18.44959 19.0758 0.00228
C 18.33002 17.6321 0.00798
C 17.17434 16.7742 0.00422
C 17.22776 15.24092 0.0351
C 18.54568 14.46722 -0.03113
C 18.209 9.50795 0.02098
C 17.02377 8.62001 0.01848
C 17.22382 7.14204 -0.00619
C 18.37982 6.40148 -0.02162
C 18.43296 4.97713 0.00889
C 17.2527 4.26861 -0.00481
C 17.14661 2.82324 0.00979
C 18.38758 2.1663 0.01443
C 18.38597 0.70792 0.03505
C 17.17961 0.03676 -0.02815
C 19.674 32.67032 -0.04147
C 20.85142 31.95793 -0.05302
C 20.89669 30.59876 0.00213
C 19.70134 29.84682 -0.00066
C 19.64777 28.44257 -0.00289
C 18.38532 23.47711 -0.0108
C 17.1171 24.22243 -0.01957
C 17.16509 25.63807 0.02058
C 18.40723 26.31487 0.01965
C 15.89256 23.49035 -0.01789
C 15.94632 22.03048 0.00444
C 14.6434 21.4037 -0.00925
C 14.71739 19.94852 0.01877
C 15.92317 19.17841 0.01363
C 15.93009 17.65081 -0.02162
C 14.70743 16.97099 0.00415
C 14.73275 15.61103 -0.0014
C 15.91608 14.7962 0.02162
C 15.02555 8.54598 0.0076
C 14.90183 7.15166 0.01241
C 11.06816 13.55386 -0.00892
C 15.98107 6.35511 -0.01454
C 14.76914 4.18821 0.01416
C 14.64595 2.85765 0.03542
C 15.95409 2.19878 0.02299
C 16.01575 0.67865 0.00244
C 14.67452 34.01046 -0.01717
C 17.1888 32.72756 0.05265
C 18.39664 31.98364 -0.01952
C 18.45231 30.58123 -0.02813
C 17.20989 29.86963 0.00374
C 17.11309 28.45557 0.00052
C 18.41002 27.7205 -0.03682
C 15.98192 4.99062 0.01945
C 20.87325 27.72634 0.00028
C 11.0579 14.93804 -0.04848
C 9.7855 17.13967 -0.00095
C 3.79191 2.1179 0.00558
C 3.63961 0.74445 -0.0059
C 2.49296 34.07139 -0.01386
C 4.94363 32.6754 -0.02805
C 6.21681 31.91738 0.00081
C 6.20105 30.50861 0.00245
C 4.9806 29.69026 0.02728
C 4.97967 28.11323 -0.00039
C 6.11145 27.24335 0.0064
C 6.14419 25.60327 0.00211
C 4.79919 25.06474 -0.00449
C 5.30274 21.41835 -0.01979
C 4.98165 19.9763 0.02784
C 6.08478 19.15605 -0.01977
C 6.16092 17.72487 -0.00561
C 4.82313 17.15357 0.00208
C 4.83016 15.70413 0.01707
C 6.0346 15.03898 0.02769
C 6.12444 13.58814 -0.03291
C 4.84583 12.83241 -0.04999
C 4.92145 11.43607 0.04505
C 6.10571 10.73609 0.03284
C 6.0667 9.29632 -0.04307
C 2.45596 2.87155 -0.02375
C 4.82033 8.56498 0.03189
C 2.47778 4.21916 0.00828
C 3.70826 6.44252 0.04421
C 3.75993 30.45454 0.00535
C 2.58645 29.7873 -0.00198
C 2.516 28.36408 -0.00012
C 3.66268 27.45138 -0.04306
C 3.67059 26.11435 -0.03672
C 2.45026 25.55727 0.01913
C 2.58311 24.14343 0.00267
C 3.95893 23.61337 0.00787
C 4.2487 22.27323 0.02426
C 2.70945 21.49164 0.01218
C 2.54336 20.09777 -0.01471
C 3.78709 19.45769 -0.02827
C 3.5992 17.89776 0.01078
C 2.41475 17.06799 -0.00112
C 2.34321 15.6805 0.03345
C 3.54002 14.9108 0.00748
C 3.59487 13.431 0.00662
C 2.35215 12.78405 -0.0154
C 2.30861 11.38545 -0.01299
C 3.67481 10.72662 -0.00407
C 3.60344 9.26317 0.01138
C 2.32015 8.46595 0.03278
C 2.39606 7.09371 -0.00177
C 3.70241 5.00094 0.00088
C 4.91395 7.16512 0.00031
C 6.16017 6.55735 -0.003
C 6.19385 5.02681 0.01402
C 7.33907 7.28521 0.00988
C 8.52896 6.47621 0.0276
C 8.55088 5.0504 0.01305
C 7.306 4.31166 -0.00077
C 7.38317 2.86736 0.03368
C 8.61546 2.18439 -0.02929
C 8.57878 0.78939 -0.00966
C 7.42458 0.07394 -0.03337
C 9.77456 32.64077 0.01227
C 11.01472 32.05132 0.00873
C 10.94004 30.56736 -0.00049
C 9.66113 29.81773 0.00848
C 9.71866 28.35704 -0.01303
C 10.99135 27.74977 -0.01378
C 11.04829 26.30826 0.02635
C 9.87019 25.61493 0.0127
C 9.68925 24.26922 0.01396
C 10.83445 23.52636 0.01849
C 10.75097 22.09697 -0.01142
C 9.3798 21.60317 -0.00562
C 9.61864 20.06507 -0.00494
C 10.96805 19.35306 0.00054
C 11.00665 17.87429 0.03007
C 7.40627 8.67933 -0.01343
C 8.62957 9.33945 0.01087
C 8.68369 10.731 -0.05697
C 7.4207 11.46187 -0.00725
C 4.9456 4.35079 0.02379
C 4.94072 2.96343 0.00907
C 6.12266 2.14451 0.00643
C 6.17027 0.7774 -0.01509
C 4.90679 34.07276 0.03267
C 7.37325 32.72757 0.02374
C 8.54047 31.95751 0.00402
C 8.4125 30.44328 0.0073
C 7.26654 29.58401 0.0174
C 7.22554 28.14006 0.03828
C 8.53483 27.56866 0.01226
C 9.84686 15.70221 0.01572
C 8.56292 26.20397 -0.00279
C 8.33839 23.77548 -0.03996
C 7.97552 22.36349 0.01465
C 6.76191 21.50176 -0.00074
C 7.11565 20.03814 -0.00518
C 8.45398 19.37443 0.0086
C 8.53762 17.84984 -0.00643
C 7.35993 17.04684 0.017
C 7.33093 15.63768 -0.03113
C 8.61136 15.02696 -0.02566
C 8.62717 13.55838 -0.00094
C 7.30229 12.91213 0.02322
C 7.49294 25.19028 0.01996
C 3.74852 31.93885 0.01984
C 20.80785 26.31199 -0.02213
C 19.61294 24.12242 -0.00109
C 30.68757 14.91346 -0.0405
C 30.70023 13.3789 -0.01303
C 29.41825 12.66933 -0.01461
C 29.48879 11.28629 -0.02155
C 30.67321 10.52942 -0.00944
C 30.69286 9.14603 -0.03735
C 29.51433 8.37626 -0.00971
C 29.50969 6.95503 0.01518
C 30.70589 6.28223 0.01908
C 30.71395 4.8362 0.07705
C 29.51531 4.10524 0.0103
C 29.46033 2.81547 0.02108
C 30.69621 2.0857 0.00716
C 30.70107 0.70313 0.00307
C 29.45235 0.01744 0.00346
C 31.94032 32.58908 0.01713
C 33.18587 31.95431 -0.01694
C 33.23497 30.47676 0.01428
C 31.94584 29.85235 -0.02142
C 31.93115 28.41374 0.0544
C 33.17544 27.67928 0.00026
C 33.14271 26.26551 0.00682
C 31.98815 25.53244 -0.01779
C 29.40423 15.53796 0.01705
C 31.93746 24.17716 0.03794
C 29.40626 16.9689 0.0101
C 30.71678 19.14933 0.03531
C 28.27696 9.16827 -0.00621
C 27.04907 8.44094 0.02611
C 27.04982 6.99064 0.02198
C 28.25588 6.21076 0.01094
C 28.28744 4.88638 0.00235
C 26.95561 4.19706 0.01495
C 26.96587 2.77349 0.01259
C 28.1887 2.05465 0.01799
C 28.20074 0.6887 0.01699
C 27.02407 34.03501 -0.00416
C 29.5088 32.69404 0.01177
C 30.76245 31.91129 0.04266
C 30.69844 30.57651 0.01324
C 29.5083 29.86556 0.0014
C 29.47476 28.46931 0.00924
C 30.70215 27.70372 0.02326
C 30.72687 26.29168 0.00261
C 29.51663 25.6198 0.03265
C 29.53982 24.14948 -0.02049
C 30.71348 23.48454 -0.01854
C 30.70228 22.11035 -0.01415
C 29.54263 21.34286 -0.03039
C 29.54954 19.82709 0.01836
C 30.63519 17.69621 -0.00669
C 33.19688 23.41263 0.01927
C 33.2106 22.00612 0.01574
C 31.99183 21.31381 -0.02383
C 0.04357 24.14435 0.03076
C 1.36477 23.55539 0.00723
C 1.39948 22.09991 0.02712
C 0.12695 21.36639 -0.02213
C 0.09251 19.91515 0.01951
C 1.3761 19.28512 -0.01678
C 1.20982 17.75525 0.01223
C 34.35275 17.0882 0.00648
C 34.24727 15.63359 0.02114
C 1.10208 14.97675 -0.02957
C 1.15181 13.57005 0.00343
C 34.28135 12.75967 -0.02656
C 34.36294 11.30515 -0.02442
C 1.13203 10.60117 -0.00027
C 1.10169 9.15034 -0.00583
C 34.42251 8.48924 -0.02302
C 34.4073 7.04226 -0.02849
C 1.1583 6.35823 0.02931
C 1.21734 4.90983 0.00628
C 0.01808 4.16308 -0.0345
C 0.02158 2.78126 -0.00931
C 1.23576 2.11148 -0.00939
C 1.25458 0.65727 -0.00468
C 34.42208 25.60563 -0.05239
C 1.18189 26.30837 -0.00598
C 1.20778 27.67797 -0.00439
C 0.02198 28.37533 -0.01037
C 32.00626 19.91461 -0.01429
C 33.25569 19.26162 -0.0136
C 33.11712 17.82309 0.00594
C 31.90574 17.03285 -0.02474
C 31.89088 15.58024 0.00369
C 33.08699 14.81732 0.00455
C 33.10106 13.39568 -0.00644
C 31.87708 12.71183 -0.01839
C 31.82233 11.25932 0.00137
C 33.06947 10.52667 0.00199
C 33.10285 9.11386 0.04381
C 28.22983 10.58361 0.00194
C 31.87462 8.34221 0.02806
C 33.21352 6.28528 -0.00069
C 33.13973 4.92962 0.04926
C 31.97439 4.15632 -0.03838
C 31.95491 2.75385 0.00349
C 33.13442 2.09907 -0.00323
C 33.19245 0.68432 -0.00841
C 31.98523 34.07809 0.0001
C 0.04228 32.58136 -0.02927
C 1.27323 31.88028 -0.01404
C 1.265 30.46004 0.01027
C 34.42444 29.72189 0.01831
C 31.93781 6.92208 0.01504
C 19.5948 25.64009 0.03698
C 27.033 11.3013 0.04185
C 28.2141 13.38113 0.01257
C 22.09401 28.44081 -0.00652
C 23.30528 27.69755 0.0058
C 23.2858 26.40545 -0.00865
C 22.07131 25.63726 0.00675
C 22.07121 24.17969 -0.00311
C 23.36715 23.45097 0.00742
C 23.33659 22.05342 -0.01594
C 22.05612 21.34016 0.0106
C 22.05839 19.85241 -0.01154
C 23.26582 19.1584 -0.01721
C 23.3158 17.73072 -0.02422
C 22.12627 16.98953 0.01277
C 22.1229 15.59296 0.00096
C 23.40717 14.86648 -0.01527
C 23.26646 13.43689 0.01087
C 22.05016 12.79267 0.00199
C 22.03835 11.38693 0.01511
C 23.22453 10.65931 -0.00478
C 23.30681 9.30697 -0.01662
C 22.0182 8.4969 -0.01185
C 22.11116 7.0964 0.01126
C 23.27542 6.40622 0.01852
C 23.36086 5.00093 -0.00381
C 22.16239 29.85229 -0.04076
C 22.15398 4.25991 0.03046
C 23.34739 30.48708 -0.00703
C 22.07426 32.70004 -0.04422
C 20.87441 23.50337 -0.00491
C 20.88364 22.06545 0.03338
C 19.603 21.31599 -0.0258
C 19.61784 19.88522 -0.0331
C 20.82313 19.22757 -0.00316
C 20.77561 17.69711 0.02188
C 19.55163 16.97232 -0.01979
C 19.5105 15.50709 0.02691
C 20.88745 14.84546 -0.01581
C 20.81408 13.4569 0.01452
C 19.41032 12.85158 0.04892
C 19.57042 11.46447 -0.00111
C 20.76876 10.69622 -0.03557
C 20.76366 9.21253 0.03754
C 19.51221 8.66105 0.01739
C 19.62012 7.19624 0.00755
C 20.89184 6.38476 -0.0054
C 20.86825 4.95314 0.00667
C 19.67869 4.29953 0.00143
C 19.61953 2.89007 -0.017
C 20.81083 2.16411 0.00364
C 20.76289 0.71239 -0.00831
C 19.60156 0.00828 -0.02957
C 23.30048 32.01195 0.00654
C 22.08583 2.82278 0.0296
C 23.2059 2.14945 0.03374
C 23.31781 0.78386 -0.02845
C 24.53525 4.25063 -0.00229
C 24.52605 2.81854 -0.00938
C 25.71577 2.14829 -0.0264
C 25.82824 0.80818 -0.01154
C 24.55245 0.13422 0.00684
C 26.98831 32.57809 -0.01052
C 28.31284 31.93989 -0.01679
C 28.23468 30.52337 0.00367
C 27.03991 29.8734 0.04306
C 26.9387 28.43569 0.00996
C 28.23861 27.71834 0.00195
C 28.23621 26.35413 -0.00802
C 27.04725 25.58939 -0.00218
C 26.99649 24.13415 -0.01654
C 28.30109 23.45281 -0.00037
C 28.26068 22.03134 -0.0032
C 26.95836 21.37922 0.00622
C 26.9985 19.93842 -0.02815
C 28.27656 19.22423 -0.00942
C 28.26111 17.78765 0.00487
C 26.92531 17.08498 0.00826
C 26.9698 15.72739 -0.00294
C 28.20626 14.81023 0.00152
C 25.79594 4.98812 -0.01199
C 25.8152 6.42451 -0.009
C 24.52779 7.03683 -0.00285
C 24.52876 8.5434 0.01423
C 22.02361 0.04293 -0.03213
C 24.48921 32.71933 0.02239
C 25.76746 31.91484 0.01153
C 25.75669 30.60739 0.02734
C 24.53515 29.84507 -0.0055
C 24.53438 28.41426 0.01515
C 25.76465 27.72179 -0.00225
C 25.83322 26.29582 0.00071
C 24.56412 25.59283 -0.01107
C 24.54165 24.18997 -0.01586
C 25.75622 23.55425 -0.01971
C 26.96185 12.74352 0.02316
C 25.77055 22.08256 -0.02118
C 24.52383 19.80308 -0.00178
C 25.76709 19.13429 0.00768
C 25.73279 17.7034 -0.0276
C 24.54868 17.01839 0.03005
C 24.60771 15.61226 -0.04078
C 25.7507 15.03142 0.02117
C 25.75438 13.53975 0.02737
C 24.55012 12.77688 -0.00498
C 24.47239 11.33561 0.00135
C 25.76906 10.56785 0.03102
C 25.7374 9.12734 0.02555
C 24.51602 21.33118 0.00733
C 2.49912 32.58554 0.01073
