409
Graphene
C 34.28397 0.02028 0.01295
C 13.41073 5.32022 -0.01536
C 12.13771 4.54676 -0.02689
C 12.04748 3.00481 -0.01046
C 13.32023 2.26171 -0.00891
C 13.32062 0.89566 0.02819
C 12.07823 0.08866 0.00165
C 14.56758 32.7817 -0.02971
C 15.79223 32.10953 0.02894
C 15.79542 30.65162 -0.01789
C 14.58646 29.84975 0.00444
C 14.62585 28.4367 -0.00925
C 15.8528 27.71544 0.01877
C 15.75139 26.37125 0.01363
C 14.5328 25.65215 -0.02162
C 14.56494 24.19639 0.00415
C 15.76057 23.39523 -0.0014
C 15.73951 22.04104 0.02162
C 14.55562 21.31031 0.0076
C 14.38583 19.81746 0.01241
C 15.50803 19.33635 -0.01454
C 14.689 7.33826 0.01945
C 13.40257 6.82765 0.03101
C 12.1941 7.40362 -0.00428
C 12.17704 19.79918 -0.02245
C 12.20849 21.27229 0.00985
C 9.68019 19.84337 0.00438
C 11.04174 19.28164 0.01291
C 9.49892 8.96269 0.00093
C 9.67994 7.50679 0.00057
C 11.0337 6.82687 -0.01634
C 10.9904 5.26429 -0.00334
C 9.7869 4.53387 0.02339
C 9.71689 3.04876 0.01641
C 10.87309 2.28831 -0.00719
C 10.83413 0.78585 0.01364
C 15.78255 6.44037 0.01416
C 9.67144 0.1087 -0.01062
C 13.32803 32.07207 0.03589
C 13.3787 30.66054 -0.02759
C 12.14073 29.92206 0.0402
C 12.22404 28.49942 0.00572
C 13.40276 27.72638 0.03592
C 13.32662 26.36863 0.00406
C 12.06148 25.63753 0.00943
C 12.10603 24.18472 0.02841
C 13.29893 23.40383 -0.01111
C 13.2592 22.03913 -0.01275
C 12.08709 32.74717 -0.00033
C 9.73677 21.32026 -0.00191
C 15.82625 5.02784 0.03542
C 14.51312 2.95783 0.00244
C 18.21659 2.14207 0.01443
C 18.32282 0.7123 0.03505
C 17.05792 0.03665 -0.02815
C 19.54494 32.72669 -0.04147
C 20.72546 31.9798 -0.05302
C 20.6811 30.45218 0.00213
C 19.44557 29.84074 -0.00066
C 19.44444 28.4642 -0.00289
C 20.68935 27.6898 0.00028
C 20.62416 26.24233 -0.02213
C 19.39493 25.48426 0.03698
C 19.46071 24.08369 -0.00109
C 20.72978 23.43172 -0.00491
C 20.75302 21.92915 0.03338
C 19.38296 21.26682 -0.0258
C 19.24879 19.78099 -0.0331
C 20.4797 19.10145 -0.00316
C 20.48638 17.64849 0.02188
C 19.18104 16.88551 -0.01979
C 19.42572 15.50327 0.02691
C 20.76529 14.7953 -0.01581
C 17.01311 2.92359 0.00979
C 17.0521 4.30243 -0.00481
C 18.22818 4.99354 0.00889
C 18.23665 6.35817 -0.02162
C 15.74849 2.25334 -0.01717
C 15.81613 0.84316 0.05265
C 14.58859 0.16394 -0.01952
C 17.0622 32.7038 -0.02813
C 18.28921 32.00771 0.00374
C 18.2708 30.57174 0.00052
C 16.99323 29.88135 -0.03682
C 17.04326 28.37734 0.01965
C 18.26612 27.67968 0.02058
C 18.18851 26.2928 -0.01957
C 14.62755 4.38374 0.02299
C 16.9426 25.55511 -0.0108
C 18.22052 23.37126 -0.02696
C 18.13719 21.99138 -0.00114
C 16.84875 21.26104 0.00228
C 16.7889 19.79599 0.00798
C 18.0246 19.08723 0.00422
C 17.95123 17.59245 0.0351
C 18.26237 10.58848 -0.03113
C 18.1375 9.2485 0.02098
C 17.02264 8.46799 0.01848
C 17.11665 7.0719 -0.00619
C 17.03244 24.11719 -0.00368
C 10.93011 21.96295 0.00373
C 10.8593 23.42922 0.02147
C 9.65726 24.18258 -0.014
C 2.29346 3.01064 -0.003
C 3.43129 2.32075 0.01402
C 3.55981 0.88014 0.02379
C 2.25535 0.0979 0.00907
C 4.79221 32.79577 0.00643
C 6.01283 31.99808 -0.01509
C 6.00722 30.58081 0.03267
C 4.8006 29.97345 0.02374
C 4.76991 28.54413 0.00402
C 6.04002 27.82976 0.0073
C 5.95337 26.2842 0.0174
C 4.71748 25.67427 0.03828
C 4.75205 24.22029 0.01226
C 5.98497 23.51187 -0.00279
C 6.08382 22.04935 0.01996
C 4.84856 21.36692 -0.03996
C 4.8391 19.82436 0.01465
C 6.08943 19.16922 -0.00074
C 6.1227 17.77165 -0.00518
C 4.91718 17.00727 0.0086
C 4.85078 15.50819 -0.00643
C 2.31038 4.4069 0.00031
C 3.56441 5.08293 0.03189
C 3.57347 6.52267 -0.04307
C 2.34968 7.10574 0.03284
C 3.56444 30.59923 -0.02375
C 2.36543 29.90986 0.00558
C 2.34428 28.45133 -0.0059
C 3.62378 27.75623 -0.01386
C 3.48879 26.37767 -0.02805
C 2.30531 25.65851 0.00081
C 2.35669 24.18204 0.00245
C 3.61672 23.44414 0.02728
C 3.6466 22.00291 -0.00039
C 2.36277 21.30762 0.0064
C 6.15251 14.84145 0.017
C 2.43014 19.97271 0.00211
C 3.63696 17.74041 -0.01979
C 2.51646 17.04294 0.02784
C 2.40455 15.67405 -0.01977
C 3.58624 14.88883 -0.00561
C 3.58992 13.54708 0.00208
C 2.32825 12.86211 0.01707
C 2.40771 11.47389 0.02769
C 3.56975 10.67036 -0.03291
C 3.54163 9.20873 -0.04999
C 2.30828 8.56222 0.04505
C 3.59998 19.14887 -0.00449
C 6.24405 13.46693 -0.03113
C 4.95565 12.84292 -0.02566
C 4.84416 11.39772 -0.00094
C 7.44762 16.86895 0.00054
C 7.30525 15.52721 0.03007
C 7.43056 12.50873 -0.00095
C 7.4298 11.15195 0.01572
C 8.36958 9.59967 -0.04848
C 7.16749 8.6825 -0.00892
C 7.18919 7.29554 -0.01362
C 8.48174 6.66941 -0.0008
C 8.58751 5.21484 0.0288
C 7.29916 4.42263 0.00393
C 8.54214 17.76527 -0.00494
C 7.22459 2.94366 0.00895
C 8.42146 0.86423 0.02888
C 7.13875 0.13574 -0.00482
C 9.62185 32.80784 -0.01384
C 10.93807 32.11685 0.03693
C 10.87768 30.71576 0.01745
C 9.71583 30.02952 0.00488
C 9.76475 28.58107 -0.01004
C 10.9826 27.84509 -0.02896
C 10.94721 26.47204 -0.00131
C 9.64918 25.6966 -0.01118
C 8.48611 2.28648 0.00685
C 20.67636 13.4032 0.01452
C 8.44875 19.18106 -0.00562
C 7.23913 21.40402 0.01849
C 6.02994 10.69076 0.02322
C 5.95464 9.22563 -0.00725
C 4.82451 8.57817 -0.05697
C 4.7547 7.17914 0.01087
C 5.98106 6.61562 -0.01343
C 5.95204 5.12028 0.00988
C 4.76803 4.39437 0.0276
C 4.71774 2.94879 0.01305
C 5.92332 2.20288 -0.00077
C 6.00817 0.84843 0.03368
C 7.23678 19.98471 -0.01142
C 4.74722 0.10554 -0.02929
C 8.41848 32.07032 -0.03337
C 8.39363 30.6184 0.01227
C 7.15095 29.92915 0.00873
C 7.16777 28.5468 -0.00049
C 8.50059 27.95177 0.00848
C 8.48209 26.45624 -0.01303
C 7.24041 25.63634 -0.01378
C 7.29446 24.18656 0.02635
C 8.46454 23.43685 0.0127
C 8.43391 22.07408 0.01396
C 7.27294 32.70321 -0.00966
C 3.61182 32.05281 0.00828
C 19.44322 12.8314 0.04892
C 20.69743 10.73022 -0.03557
C 29.4011 8.52284 -0.00971
C 29.4273 7.11366 0.01518
C 30.72478 6.4593 0.01908
C 30.75151 5.07155 0.07705
C 29.41008 4.29566 0.0103
C 29.34003 2.90886 0.02108
C 30.51431 2.18602 0.00716
C 30.54073 0.72432 0.00307
C 29.32931 0.05067 0.00346
C 31.78399 32.71885 0.01713
C 33.02661 32.08735 -0.01694
C 32.95741 30.63357 0.01428
C 31.77105 29.88846 -0.02142
C 31.86184 28.49663 0.0544
C 32.99057 27.65725 0.00026
C 33.06875 26.29374 0.00682
C 31.66034 25.5791 -0.01779
C 31.70349 24.10338 0.03794
C 32.93408 23.51842 0.01927
C 33.06085 22.14889 0.01574
C 31.75688 21.31915 -0.02383
C 30.5861 9.24526 -0.03735
C 30.67412 10.67239 -0.00944
C 29.45327 11.39126 -0.02155
C 29.40014 12.80832 -0.01461
C 28.0801 2.1614 0.01799
C 28.13801 0.70922 0.01699
C 26.89429 34.05174 -0.00416
C 29.25613 32.61414 0.01177
C 30.55976 31.91589 0.04266
C 30.50039 30.48783 0.01324
C 29.25424 29.78916 0.0014
C 29.30184 28.40318 0.00924
C 30.59405 27.73524 0.02326
C 30.49271 26.23221 0.00261
C 31.77383 19.92735 -0.01429
C 29.28328 25.50319 0.03265
C 30.53845 23.35639 -0.01854
C 30.46776 21.97908 -0.01415
C 29.20496 21.1613 -0.03039
C 29.17237 19.77158 0.01836
C 30.60724 19.13534 0.03531
C 30.61105 17.76823 -0.00669
C 29.29739 17.09906 0.0101
C 29.31116 15.66909 0.01705
C 30.57013 14.88899 -0.0405
C 30.52478 13.48496 -0.01303
C 29.30866 24.08149 -0.02049
C 26.89339 2.89539 0.01259
C 33.07166 19.30974 -0.0136
C 31.86271 17.06604 -0.02474
C 1.23815 22.07941 0.02712
C 34.34628 21.41939 -0.02213
C 34.37721 20.01266 0.01951
C 1.14428 19.23039 -0.01678
C 1.24434 17.7861 0.01223
C 34.35753 17.18702 0.00648
C 34.28578 15.67182 0.02114
C 1.08947 14.92508 -0.02957
C 1.05418 13.58327 0.00343
C 34.28987 12.93405 -0.02656
C 34.3813 11.4469 -0.02442
C 1.13711 10.72235 -0.00027
C 1.11541 9.27532 -0.00583
C 34.23808 8.67903 -0.02302
C 34.32455 7.20935 -0.02849
C 1.11246 6.52585 0.02931
C 1.09734 5.07601 0.00628
C 34.33527 4.29572 -0.0345
C 34.27977 2.90828 -0.00931
C 1.09589 2.28344 -0.00939
C 0.98487 0.7987 -0.00468
C 1.15321 23.51564 0.00723
C 34.28202 24.14872 0.03076
C 34.32017 25.5257 -0.05239
C 1.03799 26.3462 -0.00598
C 31.81754 15.64731 0.00369
C 33.06014 14.93976 0.00455
C 33.06086 13.57405 -0.00644
C 31.7828 12.84178 -0.01839
C 31.81433 11.39 0.00137
C 33.14077 10.71823 0.00199
C 33.09311 9.31923 0.04381
C 31.83325 8.57677 0.02806
C 31.91035 7.19207 0.01504
C 33.13275 6.48426 -0.00069
C 33.10309 17.86687 0.00594
C 33.1637 5.05107 0.04926
C 31.77866 2.91135 0.00349
C 33.00654 2.17245 -0.00323
C 33.05377 0.72095 -0.00841
C 31.82767 0.04831 0.0001
C 34.20868 32.71982 -0.02927
C 0.97545 32.06577 -0.01404
C 1.06914 30.59423 0.01027
C 34.22749 29.85192 0.01831
C 34.24998 28.39664 -0.01037
C 1.15258 27.81578 -0.00439
C 31.89839 4.25385 -0.03838
C 26.98396 4.32339 0.01495
C 28.19872 5.00413 0.00235
C 28.15652 6.42579 0.01094
C 21.82995 15.59631 0.00096
C 23.10695 14.97815 -0.01527
C 23.2019 13.49611 0.01087
C 21.97273 12.75289 0.00199
C 21.92862 11.35998 0.01511
C 23.12045 10.57657 -0.00478
C 23.20348 9.12468 -0.01662
C 21.89432 8.47852 -0.01185
C 21.88314 7.05505 0.01126
C 23.1178 6.35853 0.01852
C 23.18918 4.96791 -0.00381
C 21.94786 4.29276 0.03046
C 21.90095 2.87305 0.0296
C 23.20151 2.08538 0.03374
C 23.16952 0.6756 -0.02845
C 21.93855 34.07537 -0.03213
C 24.37976 32.62468 0.02239
C 25.62427 31.98667 0.01153
C 25.6287 30.50241 0.02734
C 24.49516 29.7944 -0.0055
C 24.35336 28.38514 0.01515
C 21.7961 17.00565 0.01277
C 23.02291 17.70988 -0.02422
C 23.04154 19.20701 -0.01721
C 21.7397 19.7825 -0.01154
C 20.68411 9.28126 0.03754
C 19.47297 8.624 0.01739
C 19.46383 7.11568 0.00755
C 20.63831 6.40329 -0.0054
C 20.71306 4.98078 0.00667
C 19.5092 4.32854 0.00143
C 19.45829 2.87928 -0.017
C 20.70342 2.13531 0.00364
C 20.76497 0.72078 -0.00831
C 19.5601 0.01182 -0.02957
C 25.60304 27.66562 -0.00225
C 21.92176 32.71659 -0.04422
C 23.13786 30.51834 -0.00703
C 21.96066 29.81459 -0.04076
C 21.86093 28.3895 -0.00652
C 23.18647 27.71662 0.0058
C 23.13056 26.27203 -0.00865
C 21.97404 25.55327 0.00675
C 21.94678 24.19772 -0.00311
C 23.07363 23.39078 0.00742
C 23.07996 21.9923 -0.01594
C 21.91355 21.21666 0.0106
C 23.16649 31.91098 0.00654
C 25.59279 26.28073 0.00071
C 24.34067 25.50678 -0.01107
C 24.32491 24.135 -0.01586
C 26.8038 29.78735 0.04306
C 26.81458 28.42817 0.00996
C 28.09076 27.66351 0.00195
C 28.11025 26.25351 -0.00802
C 26.78465 25.5283 -0.00218
C 26.81426 24.09811 -0.01654
C 28.0633 23.41086 -0.00037
C 28.03503 21.9741 -0.0032
C 26.78916 21.38442 0.00622
C 26.70836 19.84301 -0.02815
C 27.92199 30.54526 0.00367
C 27.96917 19.10162 -0.00942
C 26.74753 17.01694 0.00826
C 26.79385 15.52117 -0.00294
C 28.04506 14.92326 0.00152
C 28.13913 13.49316 0.01257
C 26.89826 12.71244 0.02316
C 26.94603 11.29414 0.04185
C 28.20382 10.66166 0.00194
C 28.08053 9.25276 -0.00621
C 26.88261 8.55875 0.02611
C 26.89121 7.07102 0.02198
C 27.96837 17.74954 0.00487
C 19.39015 11.4671 -0.00111
C 28.07728 31.90853 -0.01679
C 24.35919 34.03099 0.00684
C 25.49671 23.42964 -0.01971
C 25.4787 21.98193 -0.02118
C 24.2612 21.29015 0.00733
C 24.30895 19.9501 -0.00178
C 25.47402 19.21545 0.00768
C 25.48661 17.75791 -0.0276
C 24.27123 17.05243 0.03005
C 24.39207 15.56406 -0.04078
C 25.57506 14.83059 0.02117
C 25.61215 13.41983 0.02737
C 26.87435 32.65898 -0.01052
C 24.41269 12.82022 -0.00498
C 25.66553 10.66255 0.03102
C 25.59125 9.24088 0.02555
C 24.33588 8.47928 0.01423
C 24.32767 7.01898 -0.00285
C 25.65076 6.37337 -0.009
C 25.70497 5.00997 -0.01199
C 24.41271 4.24903 -0.00229
C 24.48027 2.88734 -0.00938
C 25.62681 2.04762 -0.0264
C 25.60255 0.69299 -0.01154
C 24.35664 11.38533 0.00135
C 2.26519 32.77272 0.00088
