407
Graphene
C 34.38826 0.06525 0.01295
C 12.31502 28.50553 -0.02689
C 13.45618 27.81287 -0.01046
C 13.45883 26.31301 -0.00891
C 12.27575 25.56734 0.02819
C 12.26678 24.07852 0.00165
C 13.58724 23.47487 -0.02971
C 13.60252 22.04781 0.02894
C 12.36503 21.30579 -0.01789
C 12.28408 19.82596 0.00444
C 13.49404 19.10914 -0.00925
C 13.54838 17.68568 0.01877
C 12.26521 17.01087 0.01363
C 12.09923 15.57619 -0.02162
C 12.27762 8.38861 0.00415
C 12.28925 7.08078 -0.0014
C 13.50389 6.35715 0.02162
C 13.52306 4.89238 0.0076
C 12.27518 4.21503 0.01241
C 12.19997 2.80963 -0.01454
C 13.45343 2.08981 0.01945
C 13.42051 0.68725 0.01416
C 12.21953 29.89709 -0.01536
C 13.44854 30.58666 0.03101
C 13.46956 31.97995 -0.00428
C 12.24934 32.64469 -0.02245
C 9.83231 24.17355 0.01291
C 10.96193 23.40825 0.00093
C 11.09775 22.02404 0.00057
C 9.89874 21.2346 -0.01634
C 9.82645 19.84415 -0.00334
C 11.06949 19.15223 0.02339
C 11.05046 17.77283 0.01641
C 9.84618 17.01245 -0.00719
C 9.72318 15.62402 0.01364
C 11.05774 14.97207 -0.01062
C 12.271 34.03013 0.03542
C 9.86166 12.8197 -0.00033
C 11.29154 9.10365 -0.02759
C 9.8463 8.5774 0.0402
C 9.86974 7.23403 0.00572
C 11.05987 6.45156 0.03592
C 11.04939 5.04035 0.00406
C 9.82366 4.39782 0.00943
C 9.74974 2.9595 0.02841
C 10.94209 2.22218 -0.01111
C 10.99714 0.69534 -0.01275
C 9.76023 0.06233 0.00985
C 9.81751 11.63017 0.03589
C 9.79651 25.60919 0.00438
C 14.72543 32.62349 0.02299
C 15.9757 30.59577 -0.01717
C 18.48084 27.72557 0.03505
C 18.46501 26.29297 -0.02815
C 17.18381 25.67127 -0.04147
C 17.20335 24.19243 -0.05302
C 18.41616 23.43904 0.00213
C 18.41939 21.95629 -0.00066
C 17.21127 21.29883 -0.00289
C 17.1818 19.90806 0.00028
C 18.43351 19.29986 -0.02213
C 18.47097 17.87056 0.03698
C 17.34829 17.09474 -0.00109
C 18.57304 8.74324 -0.00491
C 17.30871 7.25595 0.03338
C 18.27389 6.33398 -0.0258
C 18.32803 4.89065 -0.0331
C 17.08102 4.24724 -0.00316
C 17.17542 2.82074 0.02188
C 18.43108 2.1012 -0.01979
C 18.42916 0.67462 0.02691
C 17.19226 34.0724 -0.01581
C 19.6909 32.68419 0.01452
C 17.18232 28.42438 0.01443
C 17.1666 29.91971 0.00979
C 18.4467 30.52362 -0.00481
C 18.40651 32.01453 0.00889
C 14.77887 29.86592 0.05265
C 14.72432 28.46639 -0.01952
C 15.95065 27.74503 -0.02813
C 15.95954 26.34724 0.00374
C 14.7522 25.5394 0.00052
C 14.73726 24.13229 -0.03682
C 15.98315 23.42822 0.01965
C 15.99198 22.04686 0.02058
C 14.8275 21.21315 -0.01957
C 14.76858 19.78587 -0.0108
C 16.0221 31.98424 0.00244
C 16.03153 19.06559 -0.00368
C 14.7254 16.92042 -0.00114
C 14.72041 7.00902 0.00228
C 15.97325 6.55065 0.00798
C 15.89918 5.08214 0.00422
C 14.76784 4.28226 0.0351
C 14.71957 2.90028 -0.03113
C 15.92413 2.14988 0.02098
C 15.97737 0.69116 0.01848
C 14.71485 34.07231 -0.00619
C 17.1713 32.70388 -0.02162
C 16.06577 17.59126 -0.02696
C 20.89379 31.92022 0.04892
C 11.04289 26.33998 -0.00191
C 9.77239 28.4654 0.02147
C 2.41277 2.83133 0.02379
C 3.66226 2.14272 0.00907
C 3.64711 0.75142 0.00643
C 2.37815 0.0468 -0.01509
C 4.84465 32.77089 0.03267
C 6.10978 31.98554 0.02374
C 6.05273 30.60107 0.00402
C 4.81402 29.85836 0.0073
C 4.78833 28.41613 0.0174
C 6.08682 27.75457 0.03828
C 6.08203 26.36841 0.01226
C 4.91449 25.64672 -0.00279
C 4.86416 24.16804 0.01996
C 6.14278 23.49978 -0.03996
C 6.09757 22.07481 0.01465
C 4.96175 21.3371 -0.00074
C 4.91085 19.91076 -0.00518
C 6.08108 19.18676 0.0086
C 6.12678 17.84116 -0.00643
C 4.85007 17.08423 0.017
C 4.87271 15.62373 -0.03113
C 2.41847 4.25973 0.01402
C 3.60245 5.02594 -0.003
C 3.6742 6.47849 0.00031
C 2.49836 7.13603 0.03189
C 3.61893 30.54857 -0.0059
C 2.42269 29.83201 -0.01386
C 2.40403 28.36263 -0.02805
C 3.58595 27.60673 0.00081
C 3.62971 26.28111 0.00245
C 2.39315 25.53635 0.02728
C 2.43167 24.22314 -0.00039
C 3.63582 23.49853 0.0064
C 3.58287 22.04143 0.00211
C 2.35831 21.25445 -0.00449
C 6.15075 15.0051 -0.02566
C 2.37707 19.88127 -0.01979
C 3.63426 17.81297 -0.01977
C 2.37273 17.04669 -0.00561
C 2.42579 15.64998 0.00208
C 3.64666 14.94506 0.01707
C 3.67548 13.42582 0.02769
C 2.43048 12.81115 -0.03291
C 2.39631 11.41625 -0.04999
C 3.63825 10.77495 0.04505
C 3.69096 9.29239 0.03284
C 2.50829 8.57815 -0.04307
C 3.63258 19.24159 0.02784
C 11.01738 27.76796 0.00373
C 6.14996 13.60997 -0.00094
C 4.93731 11.38848 -0.00725
C 7.43654 17.17212 -0.00095
C 7.42181 15.69078 0.01572
C 8.5376 14.98451 -0.04848
C 8.55441 13.60197 -0.00892
C 7.42292 12.88267 -0.01362
C 7.41438 11.42319 -0.0008
C 8.68188 10.72812 0.0288
C 8.65291 9.31433 0.00393
C 7.36487 8.6415 0.00895
C 7.40311 7.20237 0.00685
C 8.66887 6.52482 0.02888
C 8.58584 5.08227 -0.00482
C 7.35486 4.36457 -0.01384
C 7.3734 2.91035 0.03693
C 8.54417 2.18668 0.01745
C 8.54059 0.6967 0.00488
C 7.35404 0.08121 -0.01004
C 9.77366 32.70497 -0.02896
C 11.00769 31.98842 -0.00131
C 10.88603 30.59568 -0.01118
C 9.69489 29.82383 -0.014
C 8.65804 17.76794 0.03007
C 8.60541 19.1921 0.00054
C 7.36973 19.9471 -0.00494
C 7.33355 21.35816 -0.00562
C 6.20794 10.69503 -0.05697
C 6.14851 9.27663 0.01087
C 4.92715 8.58047 -0.01343
C 4.90961 7.1712 0.00988
C 6.18435 6.47376 0.0276
C 6.10599 5.00666 0.01305
C 4.81325 4.32695 -0.00077
C 4.87516 2.90982 0.03368
C 6.11358 2.29029 -0.02929
C 6.11083 0.86719 -0.00966
C 4.97298 12.77874 0.02322
C 4.87602 0.09707 -0.03337
C 8.46584 32.03962 0.00873
C 8.48392 30.60036 -0.00049
C 7.31671 29.91242 0.00848
C 7.25287 28.48261 -0.01303
C 8.54887 27.75359 -0.01378
C 8.6061 26.28621 0.02635
C 7.3505 25.56524 0.0127
C 7.35915 24.18027 0.01396
C 8.60558 23.48182 0.01849
C 8.64473 22.07052 -0.01142
C 7.27498 32.77549 0.01227
C 3.54262 32.03777 0.00558
C 20.87461 30.51263 -0.00111
C 19.686 28.36774 0.03754
C 29.55664 8.5195 -0.00971
C 29.53515 7.00784 0.01518
C 30.76102 6.28051 0.01908
C 30.67731 4.90764 0.07705
C 29.41372 4.27695 0.0103
C 29.43478 2.78535 0.02108
C 30.73754 2.11401 0.00716
C 30.75992 0.67824 0.00307
C 29.47787 0.01344 0.00346
C 31.96493 32.69335 0.01713
C 33.11927 31.90209 -0.01694
C 33.08611 30.49216 0.01428
C 31.89742 29.80701 -0.02142
C 31.88958 28.38146 0.0544
C 33.16381 27.61412 0.00026
C 33.18002 26.23989 0.00682
C 31.90246 25.62263 -0.01779
C 31.92418 24.18944 0.03794
C 33.11474 23.41651 0.01927
C 33.12964 22.01225 0.01574
C 31.9116 21.27715 -0.02383
C 30.73564 9.19502 -0.03735
C 30.68266 10.58707 -0.00944
C 29.41496 11.23182 -0.02155
C 29.45274 12.67695 -0.01461
C 28.24834 2.08594 0.01799
C 28.25992 0.66361 0.01699
C 27.03898 34.06224 -0.00416
C 29.50622 32.65716 0.01177
C 30.62674 31.97872 0.04266
C 30.70439 30.51032 0.01324
C 29.478 29.80732 0.0014
C 29.44635 28.41384 0.00924
C 30.62561 27.7412 0.02326
C 30.65467 26.30534 0.00261
C 31.95056 19.88767 -0.01429
C 29.45525 25.57244 0.03265
C 30.70302 23.42623 -0.01854
C 30.76252 22.01086 -0.01415
C 29.45678 21.34288 -0.03039
C 29.47729 19.87167 0.01836
C 30.7158 19.09676 0.03531
C 30.68629 17.72978 -0.00669
C 29.51023 17.06026 0.0101
C 29.47296 15.62578 0.01705
C 30.69341 14.8461 -0.0405
C 30.6211 13.46553 -0.01303
C 29.46478 24.20364 -0.02049
C 27.00973 2.75882 0.01259
C 33.183 19.15261 -0.0136
C 31.94651 17.04614 -0.02474
C 1.22566 22.01116 0.02712
C 34.41179 21.33297 -0.02213
C 34.42375 19.89035 0.01951
C 1.16929 19.19309 -0.01678
C 1.13363 17.7595 0.01223
C 34.32915 17.02498 0.00648
C 34.36609 15.57057 0.02114
C 1.14316 14.9715 -0.02957
C 1.15135 13.54844 0.00343
C 34.41735 12.84455 -0.02656
C 34.41254 11.34891 -0.02442
C 1.14233 10.59867 -0.00027
C 1.17906 9.25462 -0.00583
C 0.01427 8.50321 -0.02302
C 34.37573 7.03624 -0.02849
C 1.23892 6.3804 0.02931
C 1.19268 4.92931 0.00628
C 0.00062 4.2858 -0.0345
C 34.40423 2.86939 -0.00931
C 1.1484 2.15045 -0.00939
C 1.15276 0.75986 -0.00468
C 1.24655 23.40006 0.00723
C 0.00265 24.07374 0.03076
C 34.3912 25.51038 -0.05239
C 1.1585 26.21295 -0.00598
C 31.98271 15.59486 0.00369
C 33.16631 14.86755 0.00455
C 33.14863 13.48781 -0.00644
C 31.94244 12.75804 -0.01839
C 31.89486 11.31234 0.00137
C 33.16985 10.64623 0.00199
C 33.24947 9.18677 0.04381
C 31.9089 8.53474 0.02806
C 31.90392 7.06092 0.01504
C 33.1281 6.33424 -0.00069
C 33.15045 17.73757 0.00594
C 33.25999 4.95282 0.04926
C 31.93706 2.80495 0.00349
C 33.21143 2.07794 -0.00323
C 33.1933 0.72176 -0.00841
C 32.0017 34.05357 0.0001
C 34.37177 32.66505 -0.02927
C 1.14634 31.90937 -0.01404
C 1.22618 30.50912 0.01027
C 34.31443 29.84692 0.01831
C 34.29722 28.38083 -0.01037
C 1.15053 27.71541 -0.00439
C 31.94817 4.28169 -0.03838
C 19.70985 29.81626 -0.03557
C 27.11868 4.10886 0.01495
C 28.22788 6.44769 0.01094
C 23.37684 31.91012 -0.01527
C 23.37851 30.49674 0.01087
C 22.10905 29.85877 0.00199
C 22.10917 28.3692 0.01511
C 23.30865 27.67348 -0.00478
C 23.38069 26.28306 -0.01662
C 22.17313 25.58304 -0.01185
C 22.12469 24.12935 0.01126
C 23.37355 23.41836 0.01852
C 23.34105 22.05071 -0.00381
C 22.15858 21.32918 0.03046
C 22.17933 19.8747 0.0296
C 23.34145 19.15729 0.03374
C 23.34659 17.73593 -0.02845
C 22.16772 17.01398 -0.03213
C 22.15273 15.57071 0.02239
C 23.33371 14.85139 0.01153
C 23.42242 13.46195 0.02734
C 22.12972 12.83129 -0.0055
C 22.18564 11.3047 0.01515
C 21.75221 4.28128 -0.00225
C 22.13915 32.66076 0.00096
C 19.62273 0.0593 0.01277
C 20.84683 0.75567 -0.02422
C 20.79319 2.22088 -0.01721
C 20.90155 27.65474 0.01739
C 20.91166 26.24317 0.00755
C 19.63404 25.53402 -0.0054
C 19.66516 24.13934 0.00667
C 20.87587 23.4679 0.00143
C 20.86786 22.03229 -0.017
C 19.6481 21.22413 0.00364
C 19.69931 19.8632 -0.00831
C 20.92754 19.07747 -0.02957
C 20.99496 17.69374 -0.04422
C 22.12367 2.87616 0.00071
C 19.69595 17.00655 0.00654
C 20.84366 14.88594 -0.04076
C 20.94298 13.44327 -0.00652
C 19.57324 12.61917 0.0058
C 20.06311 11.43741 -0.00865
C 21.11429 10.54443 0.00675
C 19.9095 8.35979 -0.00311
C 19.61214 7.05501 0.00742
C 20.7826 5.02551 -0.01594
C 19.53454 4.23923 0.0106
C 19.62929 2.8219 -0.01154
C 19.65648 15.63101 -0.00703
C 28.12683 4.98638 0.00235
C 23.31443 2.18883 -0.01107
C 22.04037 34.07116 -0.01971
C 28.26546 30.53791 0.00996
C 27.01087 29.81294 0.00195
C 27.01341 28.40945 -0.00802
C 28.23586 27.70763 -0.00218
C 28.28352 26.30726 -0.01654
C 27.07033 25.5633 -0.00037
C 27.00879 24.16986 -0.0032
C 28.22135 23.5057 0.00622
C 28.24209 22.12916 -0.02815
C 27.10906 21.24602 -0.00942
C 27.08632 19.89343 0.00487
C 28.25968 19.18418 0.00826
C 28.29947 17.71885 -0.00294
C 27.15372 17.05801 0.00152
C 27.0249 15.66076 0.01257
C 28.2159 14.8863 0.02316
C 28.27745 13.41911 0.04185
C 27.12408 12.73271 0.00194
C 27.08624 11.39534 -0.00621
C 28.11639 10.45911 0.02611
C 28.25966 9.01311 0.02198
C 28.21815 31.95893 0.04306
C 27.056 32.6743 0.00367
C 24.53254 0.03104 -0.01679
C 25.79796 0.61276 -0.01052
C 24.58551 32.71681 -0.02118
C 25.79646 31.92895 0.00733
C 25.79161 30.48284 -0.00178
C 24.64376 29.71998 0.00768
C 24.5593 28.31555 -0.0276
C 25.83879 27.64471 0.03005
C 25.84396 26.1949 -0.04078
C 24.56953 25.48354 0.02117
C 24.58038 24.13309 0.02737
C 25.8214 23.44686 -0.00498
C 23.28804 0.73899 -0.01586
C 25.88838 21.94219 0.00135
C 24.63694 19.86627 0.02555
C 25.83806 19.11648 0.01423
C 25.86995 17.68955 -0.00285
C 24.62058 17.00616 -0.009
C 24.52478 15.57511 -0.01199
C 25.79997 14.92842 -0.00229
C 25.79117 13.47375 -0.00938
C 24.66993 12.68378 -0.0264
C 24.64104 2.89037 -0.01154
C 25.75284 1.99671 0.00684
C 24.66203 21.29726 0.03102
C 2.34826 32.69295 -0.02375
