352
Graphene
C 0.03645 34.06412 0.01295
C 9.82438 15.60353 -0.00114
C 10.99622 14.76874 0.00228
C 11.09529 13.45426 0.00798
C 9.83183 12.81725 0.00422
C 9.73128 11.29748 0.0351
C 10.93262 10.63534 -0.03113
C 11.01761 9.27779 0.02098
C 9.69436 8.6132 0.01848
C 9.87773 17.00938 -0.02696
C 9.78434 7.21129 -0.00619
C 11.1458 5.0675 0.00889
C 9.90118 4.3778 -0.00481
C 9.80192 2.96475 0.00979
C 11.02596 2.26459 0.01443
C 10.97597 0.76983 0.03505
C 9.79076 0.06569 -0.02815
C 12.24256 32.6978 -0.04147
C 13.51375 31.91469 -0.05302
C 11.03136 6.57485 -0.02162
C 13.51164 30.50814 0.00213
C 11.09275 17.68991 -0.00368
C 9.79407 19.95487 -0.01957
C 8.63404 5.09169 0.02162
C 7.41005 4.31257 0.0076
C 7.3121 2.94385 0.01241
C 8.56085 2.1942 -0.01454
C 8.54804 0.75053 0.01945
C 7.34294 0.04221 0.01416
C 9.80246 32.72309 0.03542
C 11.00179 32.03754 0.02299
C 11.04105 19.16791 -0.0108
C 11.00207 30.52927 0.00244
C 9.79056 28.35171 0.05265
C 11.03273 27.61783 -0.01952
C 11.07683 26.31329 -0.02813
C 9.85798 25.66816 0.00374
C 9.85791 24.10797 0.00052
C 11.09066 23.43737 -0.03682
C 11.07563 22.0229 0.01965
C 9.8568 21.28819 0.02058
C 9.78794 29.86199 -0.01717
C 8.56854 6.52313 -0.0014
C 12.21271 29.89821 -0.00066
C 13.43723 27.66207 0.00028
C 13.41484 0.64774 -0.017
C 12.1539 0.00086 0.00364
C 14.69893 32.5668 -0.00831
C 15.96935 31.95516 -0.02957
C 15.93502 30.51077 -0.04422
C 14.68672 29.86052 0.00654
C 14.70543 28.39285 -0.00703
C 16.00899 27.77 -0.04076
C 13.45069 2.07807 0.00143
C 16.03871 26.26434 -0.00652
C 14.70858 24.12131 -0.00865
C 15.90378 23.34394 0.00675
C 15.93144 21.95822 -0.00311
C 14.7605 21.17688 0.00742
C 14.73627 19.7633 -0.01594
C 15.90849 19.15655 0.0106
C 16.06379 17.72171 -0.01154
C 14.84738 17.04365 -0.01721
C 14.78951 25.59865 0.0058
C 12.21918 28.44186 -0.00289
C 12.24395 2.90142 0.00667
C 13.72373 5.08348 0.00755
C 13.53309 26.22619 -0.02213
C 12.35192 25.52455 0.03698
C 12.31889 24.12137 -0.00109
C 13.54047 23.38645 -0.00491
C 13.52372 21.92676 0.03338
C 12.28556 21.30163 -0.0258
C 12.28637 19.86863 -0.0331
C 13.50349 19.1363 -0.00316
C 12.37572 4.34844 -0.0054
C 13.57043 17.73018 0.02188
C 12.19892 15.57484 0.02691
C 13.4752 14.82454 -0.01581
C 13.52392 13.39292 0.01452
C 12.42647 12.52125 0.04892
C 12.3102 11.15105 -0.00111
C 12.33559 8.73299 -0.03557
C 12.37405 7.22798 0.03754
C 13.46914 6.44315 0.01739
C 12.34135 16.97136 -0.01979
C 14.67729 15.52048 -0.02422
C 7.28572 7.1546 0.00415
C 8.44242 9.25063 0.01363
C 2.40478 7.16536 -0.00095
C 3.65375 6.44362 0.01572
C 3.69871 4.98739 -0.04848
C 2.44393 4.32178 -0.00892
C 2.36424 2.85885 -0.01362
C 3.5905 2.14721 -0.0008
C 3.69822 0.67706 0.0288
C 2.44543 0.07998 0.00393
C 2.36927 8.53728 0.03007
C 4.89073 32.75 0.00895
C 6.02297 30.57629 0.02888
C 4.85958 29.89397 -0.00482
C 4.94089 28.36609 -0.01384
C 6.17357 27.72046 0.03693
C 6.14769 26.30376 0.01745
C 4.92181 25.61372 0.00488
C 4.89214 24.12312 -0.01004
C 6.09488 23.44318 -0.02896
C 6.10261 32.02965 0.00685
C 6.15252 21.9953 -0.00131
C 3.68308 9.23464 0.00054
C 2.4098 11.38362 -0.00562
C 3.6611 30.5734 0.0276
C 2.47183 29.88634 0.01305
C 2.43476 28.44329 -0.00077
C 3.73299 27.70866 0.03368
C 3.71537 26.36253 -0.02929
C 2.44595 25.66161 -0.00966
C 2.40702 24.18456 -0.03337
C 3.58576 23.47413 0.01227
C 3.60653 10.70862 -0.00494
C 3.65411 22.06815 0.00873
C 2.37433 19.89686 0.00848
C 3.59624 19.13401 -0.01303
C 3.61264 17.71887 -0.01378
C 2.40022 17.09338 0.02635
C 2.27834 15.72947 0.0127
C 3.55183 14.96776 0.01396
C 3.63651 13.51864 0.01849
C 2.48831 12.83413 -0.01142
C 2.46289 21.28739 -0.00049
C 7.28063 8.48733 -0.02162
C 4.90747 21.27803 -0.01118
C 6.06638 19.11389 0.02147
C 7.36685 28.46559 -0.01111
C 8.53334 27.73834 -0.01275
C 8.58021 26.3276 0.00985
C 7.40797 25.6043 -0.02245
C 7.35818 24.09668 -0.00428
C 8.66917 23.40413 0.03101
C 8.63183 21.98775 -0.01536
C 7.36937 21.28598 -0.02689
C 7.30762 29.91537 0.02841
C 7.33138 19.88936 -0.01046
C 8.59561 17.648 0.02819
C 7.34399 17.04389 0.00165
C 7.31636 15.64749 -0.02971
C 8.5638 14.97081 0.02894
C 8.59377 13.51257 -0.01789
C 7.41042 12.82832 0.00444
C 7.30437 11.36675 -0.00925
C 8.4921 10.64164 0.01877
C 8.57709 19.21393 -0.00891
C 4.86301 19.88214 -0.014
C 8.57989 30.59991 0.00943
C 7.35637 32.75941 0.03592
C 6.0725 17.77989 0.00373
C 4.85939 17.0248 -0.00191
C 4.78543 15.61241 0.00438
C 6.06886 14.85342 0.01291
C 6.15163 13.47844 0.00093
C 4.87818 12.75981 0.00057
C 4.83008 11.39658 -0.01634
C 6.07297 10.68333 -0.00334
C 8.60144 32.04779 0.00406
C 6.1447 9.32744 0.02339
C 4.92718 7.08672 -0.00719
C 6.09938 6.34591 0.01364
C 6.12581 4.98948 -0.01062
C 4.95491 4.25152 -0.00033
C 4.87077 2.87625 0.03589
C 6.04931 2.15439 -0.02759
C 6.15896 0.73459 0.0402
C 4.88403 0.02289 0.00572
C 4.94768 8.60053 0.01641
C 15.95118 14.92447 0.01277
C 14.86032 4.1879 0.00096
C 14.67159 2.82984 -0.01527
C 33.14398 31.98513 -0.01694
C 33.21359 30.57793 0.01428
C 32.04513 29.80789 -0.02142
C 32.02256 28.4316 0.0544
C 33.2212 27.71326 0.00026
C 33.14623 26.26157 0.00682
C 31.93707 25.58471 -0.01779
C 31.82852 24.11402 0.03794
C 31.90816 32.66491 0.01713
C 33.11078 23.46784 0.01927
C 31.8959 21.36678 -0.02383
C 31.85363 19.95415 -0.01429
C 33.14541 19.23831 -0.0136
C 33.1045 17.80248 0.00594
C 31.80468 17.07661 -0.02474
C 31.80839 15.76709 0.00369
C 33.00435 14.94676 0.00455
C 33.0775 13.56636 -0.00644
C 33.11814 22.06617 0.01574
C 31.85578 12.76197 -0.01839
C 29.568 34.01664 0.00346
C 30.73719 2.10799 0.00716
C 30.68791 27.78306 -0.03039
C 30.74952 26.29936 0.01836
C 29.53646 25.71786 0.03531
C 29.38151 24.27605 -0.00669
C 30.46336 23.38879 0.0101
C 30.71626 22.01459 0.01705
C 30.59384 19.36071 -0.0405
C 30.53162 17.93629 -0.01303
C 30.72694 0.71585 0.00307
C 29.33907 17.07827 -0.01461
C 30.60957 14.90877 -0.00944
C 30.62474 13.42441 -0.03735
C 29.29504 12.53341 -0.00971
C 29.46965 11.15965 0.01518
C 30.63685 10.4507 0.01908
C 30.79712 9.02821 0.07705
C 29.93873 8.04338 0.0103
C 29.54094 2.79597 0.02108
C 29.27522 15.67069 -0.02155
C 29.44267 28.4319 -0.01415
C 31.8726 11.34832 0.00137
C 33.24775 9.2568 0.04381
C 1.08443 19.26692 -0.01678
C 1.13166 17.82624 0.01223
C 34.31211 17.05112 0.00648
C 34.33018 15.66906 0.02114
C 1.19189 14.88883 -0.02957
C 1.15345 13.47384 0.00343
C 34.3088 12.83689 -0.02656
C 34.3118 11.38036 -0.02442
C 34.35441 19.97931 0.01951
C 1.11732 10.72889 -0.00027
C 0.04256 8.58634 -0.02302
C 34.38303 7.09579 -0.02849
C 1.15946 6.42179 0.02931
C 1.19176 5.01509 0.00628
C 34.41269 4.31067 -0.0345
C 0.02466 2.89288 -0.00931
C 1.23475 2.14572 -0.00939
C 1.22746 0.66964 -0.00468
C 1.1508 9.35214 -0.00583
C 33.11202 10.64237 0.00199
C 0.00978 21.3891 -0.02213
C 1.09141 23.39295 0.00723
C 32.10739 8.45092 0.02806
C 31.79088 7.06636 0.01504
C 33.06979 6.34502 -0.00069
C 33.15425 4.94961 0.04926
C 31.95196 4.14804 -0.03838
C 31.96856 2.80398 0.00349
C 33.20293 2.13311 -0.00323
C 33.26329 0.79611 -0.00841
C 1.2469 22.0225 0.02712
C 31.98645 34.05898 0.0001
C 1.16593 31.97847 -0.01404
C 1.23941 30.61137 0.01027
C 0.00764 29.85661 0.01831
C 34.41571 28.48485 -0.01037
C 1.22309 27.73779 -0.00439
C 1.19187 26.36708 -0.00598
C 34.34644 25.59666 -0.05239
C 34.30296 24.14902 0.03076
C 34.40867 32.63806 -0.02927
C 29.55897 29.93919 -0.01854
C 30.86373 30.62991 -0.02049
C 30.77319 32.00009 0.03265
C 18.30727 0.78305 -0.01586
C 17.1169 0.06609 -0.01971
C 19.65411 32.73551 -0.02118
C 20.8296 31.98294 0.00733
C 20.94691 30.58091 -0.00178
C 19.65713 29.89848 0.00768
C 19.69313 28.37946 -0.0276
C 20.91336 27.6485 0.03005
C 18.36516 2.26223 -0.01107
C 20.89505 26.23311 -0.04078
C 19.6055 24.14645 0.02737
C 20.85029 23.54018 -0.00498
C 19.71468 21.17696 0.00135
C 19.60103 19.74761 0.03102
C 20.88872 18.26442 0.02555
C 19.89247 17.28995 0.01423
C 19.61471 2.88638 -0.00285
C 20.92614 2.37736 -0.009
C 19.63938 25.55233 0.02117
C 20.86949 0.86226 -0.01199
C 17.14086 2.97477 0.00071
C 17.26629 16.87517 0.01515
C 15.93137 2.12916 0.01087
C 15.92105 0.70786 0.00199
C 14.69596 34.03878 0.01511
C 17.20201 32.73541 -0.00478
C 18.44768 32.12425 -0.01662
C 18.37685 30.67234 -0.01185
C 17.22591 29.79532 0.01126
C 17.21144 28.43336 0.01852
C 17.01325 15.46001 -0.00225
C 18.4389 27.67583 -0.00381
C 17.23477 25.53803 0.0296
C 17.1455 24.12688 0.03374
C 18.41417 23.39247 -0.02845
C 18.55025 21.87576 -0.03213
C 17.18327 21.2478 0.02239
C 17.12444 19.88514 0.01153
C 18.4037 19.09659 0.02734
C 18.49501 17.6194 -0.0055
C 18.42869 26.27455 0.03046
C 19.68515 0.08495 -0.00229
C 22.11692 32.73546 -0.00938
C 23.3379 32.04199 -0.0264
C 25.8375 0.70805 0.00194
C 24.6642 0.0821 -0.00621
C 26.98652 32.71611 0.02611
C 28.22672 31.94996 0.02198
C 28.25387 30.48778 0.01094
C 26.97617 29.84202 0.00235
C 26.97098 28.44187 0.01495
C 28.17593 27.7497 0.01259
C 25.91455 2.12352 0.04185
C 28.23771 26.38968 0.01799
C 28.12619 14.70551 -0.00416
C 28.23312 13.54577 0.01177
C 27.2351 4.30173 0.04266
C 27.19004 2.85077 0.01324
C 28.36706 2.07548 0.0014
C 28.38149 0.66654 0.00924
C 27.06595 34.07641 0.02326
C 29.47449 32.5965 0.00261
C 27.15095 25.4229 0.01699
C 24.70493 2.87319 0.02316
C 24.87797 4.18137 0.01257
C 25.99917 4.6636 0.00152
C 23.35193 30.51867 -0.01154
C 22.09672 29.81812 0.00684
C 22.13381 28.34351 -0.01052
C 23.4316 27.72342 -0.01679
C 23.34434 26.25331 0.00367
C 22.16877 25.53421 0.04306
C 22.00853 24.17364 0.00996
C 22.18294 2.82875 0.00195
C 23.46394 2.15338 -0.00802
C 23.48127 0.7301 -0.00218
C 22.12656 0.03019 -0.01654
C 24.58317 32.75468 -0.00037
C 25.81349 31.99912 -0.0032
C 25.83397 30.55596 0.00622
C 24.56354 29.75999 -0.02815
C 24.64578 28.38612 -0.00942
C 25.74887 27.56365 0.00487
C 25.89269 26.13328 0.00826
C 24.59516 25.54067 -0.00294
C 3.65908 32.07097 0.00988
C 2.46758 32.70827 -0.01343
