350
Graphene
C 34.40516 0.05159 0.01295
C 13.51391 9.18939 0.00798
C 12.22808 8.57367 0.00422
C 12.28563 7.15655 0.0351
C 13.45897 6.42873 -0.03113
C 13.48549 5.00255 0.02098
C 12.27602 4.26414 0.01848
C 12.33534 2.86653 -0.00619
C 13.50919 2.0926 -0.02162
C 13.51236 0.66068 0.00889
C 12.26453 33.95591 -0.00481
C 14.85019 32.64459 0.00979
C 16.03963 31.98165 0.01443
C 16.27191 30.58882 0.03505
C 14.76509 15.52382 -0.02815
C 15.94479 14.83249 -0.04147
C 15.91897 13.52678 -0.05302
C 14.71803 12.68505 0.00213
C 13.56656 10.6416 0.00228
C 12.26674 11.32887 -0.00114
C 12.25994 12.72052 -0.02696
C 13.55065 13.38339 -0.00368
C 11.0279 13.50945 0.01241
C 9.80789 12.75254 -0.01454
C 9.78366 11.3566 0.01945
C 10.98205 10.69209 0.01416
C 11.05158 9.24456 0.03542
C 9.84551 8.60085 0.02299
C 9.83856 7.18212 0.00244
C 11.06022 6.5201 -0.01717
C 14.84126 11.23959 -0.00066
C 11.11097 5.09352 0.05265
C 9.8369 2.96076 -0.02813
C 11.10289 2.16269 0.00374
C 11.01136 0.62197 0.00052
C 9.80479 34.07826 -0.03682
C 12.33558 32.40523 0.01965
C 13.61187 32.11891 0.02058
C 12.31299 15.50082 -0.01957
C 13.5161 14.86859 -0.0108
C 9.85858 4.40907 -0.01952
C 16.08236 10.42732 -0.00289
C 16.07886 8.95747 0.00028
C 14.69865 8.47189 -0.02213
C 17.18239 2.92903 0.00364
C 18.45104 2.18061 -0.00831
C 18.4959 0.69535 -0.02957
C 17.23386 34.0694 -0.04422
C 19.6496 32.63913 0.00654
C 20.90219 31.9051 -0.00703
C 20.86663 30.52577 -0.04076
C 19.68201 29.81006 -0.00652
C 17.22632 4.32408 -0.017
C 19.63646 28.40237 0.0058
C 20.95934 26.32425 0.00675
C 20.97703 23.42918 -0.00311
C 21.0787 22.11768 0.00742
C 19.4267 19.69966 -0.01594
C 20.78299 19.09744 0.0106
C 20.90932 17.65152 -0.01154
C 19.65006 17.06054 -0.01721
C 19.53387 15.6525 -0.02422
C 20.70967 27.61601 -0.00865
C 11.11603 14.86984 0.0076
C 18.50877 4.80139 0.00143
C 17.03009 11.42311 -0.0054
C 14.68679 7.10091 0.03698
C 15.99942 6.4497 -0.00109
C 16.05936 5.05475 -0.00491
C 14.75412 4.25534 0.03338
C 14.71331 2.81598 -0.0258
C 15.92716 2.18128 -0.0331
C 16.01533 0.78337 -0.00316
C 14.82867 0.00797 0.02188
C 17.03787 7.46348 0.00667
C 17.24258 32.63063 -0.01979
C 18.48671 30.52912 -0.01581
C 17.27592 29.81693 0.01452
C 18.47835 17.76347 0.04892
C 17.30577 17.11979 -0.00111
C 17.06425 15.69016 -0.03557
C 18.32709 14.97871 0.03754
C 18.36436 13.58584 0.01739
C 17.22324 12.74075 0.00755
C 18.4138 31.94971 0.02691
C 10.0158 15.63304 0.02162
C 9.74419 16.99565 -0.0014
C 10.99729 31.87982 0.00415
C 2.46033 7.1281 -0.04848
C 3.70674 6.39501 -0.00892
C 3.66823 4.99286 -0.01362
C 2.48762 4.25788 -0.0008
C 2.47736 2.80526 0.0288
C 3.75259 2.19593 0.00393
C 3.68684 0.76097 0.00895
C 2.43299 0.05363 0.00685
C 2.53688 8.55189 0.01572
C 4.87726 32.74319 0.02888
C 6.1197 30.50087 -0.01384
C 4.93031 29.83477 0.03693
C 4.80241 28.44656 0.01745
C 6.19862 27.64691 0.00488
C 5.91394 26.34405 -0.01004
C 4.90484 25.44894 -0.02896
C 4.82909 24.04126 -0.00131
C 4.85173 21.46542 -0.01118
C 6.07265 31.96631 -0.00482
C 5.02907 20.10959 -0.014
C 3.74191 9.26985 -0.00095
C 2.48086 11.41457 0.00054
C 3.63591 30.5506 -0.00077
C 2.36771 29.86776 0.03368
C 2.37156 28.42045 -0.02929
C 3.634 27.73632 -0.00966
C 3.64961 26.21452 -0.03337
C 2.36776 25.5227 0.01227
C 2.38316 24.1625 0.00873
C 3.5456 23.41348 -0.00049
C 3.68964 10.67956 0.03007
C 3.50916 22.0091 0.00848
C 2.37767 19.86504 -0.01378
C 3.70379 19.23233 0.02635
C 3.67186 17.81605 0.0127
C 2.39638 17.02697 0.01396
C 2.40695 15.6423 0.01849
C 3.66231 14.90642 -0.01142
C 3.67506 13.49807 -0.00562
C 2.47401 12.80473 -0.00494
C 2.3811 21.31021 -0.01303
C 20.82694 15.0241 0.01277
C 5.95684 19.15925 0.02147
C 4.9029 17.07473 -0.00191
C 7.35194 17.10583 0.00985
C 7.42537 15.79166 -0.02245
C 8.65766 15.02767 -0.00428
C 8.558 13.55787 0.03101
C 7.34501 12.79959 -0.01536
C 7.38373 11.41704 -0.02689
C 8.59746 10.71429 -0.01046
C 8.58849 9.29376 -0.00891
C 8.65487 17.61862 -0.01275
C 7.36325 8.53068 0.02819
C 8.60818 6.49295 -0.02971
C 8.65183 5.07551 0.02894
C 7.44399 4.38202 -0.01789
C 7.44312 2.92322 0.00444
C 8.62652 2.16514 -0.00925
C 8.57734 0.71193 0.01877
C 7.38451 0.06224 0.01363
C 9.87625 32.64832 -0.02162
C 7.34954 7.14795 0.00165
C 6.15802 17.8083 0.00373
C 7.31403 28.40234 -0.01111
C 8.55858 30.57448 0.00943
C 4.89013 15.60903 0.00438
C 6.13521 14.99553 0.01291
C 6.18881 13.53761 0.00093
C 4.95059 12.75579 0.00057
C 4.91739 11.36368 -0.01634
C 6.19863 10.68305 -0.00334
C 6.12291 9.2649 0.02339
C 4.93016 8.49034 0.01641
C 7.43194 29.81459 0.02841
C 4.91281 7.07215 -0.00719
C 6.18356 5.0335 -0.01062
C 4.93718 4.29733 -0.00033
C 4.96524 2.88814 0.03589
C 6.20277 2.19931 -0.02759
C 6.17955 0.82076 0.0402
C 4.9094 0.07218 0.00572
C 7.30128 32.74312 0.03592
C 8.60478 31.96837 0.00406
C 6.10506 6.39499 0.01364
C 19.68454 4.31636 0.00096
C 19.71382 2.88437 -0.01527
C 20.95844 2.13992 0.01087
C 33.20535 31.97309 -0.01694
C 33.19774 30.56924 0.01428
C 31.95206 29.83566 -0.02142
C 31.92566 28.40355 0.0544
C 33.1031 27.70094 0.00026
C 33.12015 26.27672 0.00682
C 31.93458 25.52327 -0.01779
C 31.9398 24.17506 0.03794
C 31.95675 32.6777 0.01713
C 33.16093 23.45961 0.01927
C 31.97588 21.3111 -0.02383
C 31.93506 19.87522 -0.01429
C 33.13514 19.14845 -0.0136
C 33.13202 17.74635 0.00594
C 31.91348 17.12477 -0.02474
C 31.89001 15.67367 0.00369
C 33.10955 14.98667 0.00455
C 33.20427 13.56576 -0.00644
C 33.11775 22.03359 0.01574
C 31.94973 12.80972 -0.01839
C 29.56527 34.01199 0.00346
C 30.74284 2.08789 0.00716
C 29.48277 21.37024 -0.03039
C 29.45783 19.95766 0.01836
C 30.66753 19.2423 0.03531
C 30.71005 17.83499 -0.00669
C 29.46026 17.12772 0.0101
C 29.5316 15.66027 0.01705
C 30.7348 14.92837 -0.0405
C 30.73519 13.49814 -0.01303
C 30.80058 0.68739 0.00307
C 29.47943 12.81818 -0.01461
C 30.77635 10.64726 -0.00944
C 30.82072 9.26357 -0.03735
C 29.56485 8.51802 -0.00971
C 29.54375 7.08895 0.01518
C 30.78806 6.38858 0.01908
C 30.75639 4.94542 0.07705
C 29.50054 4.1518 0.0103
C 29.54783 2.82112 0.02108
C 29.53384 11.39941 -0.02155
C 30.65455 22.01818 -0.01415
C 32.02634 11.32358 0.00137
C 33.2442 9.23202 0.04381
C 1.15004 19.11502 -0.01678
C 1.14309 17.67102 0.01223
C 34.36011 17.00853 0.00648
C 34.37296 15.66961 0.02114
C 1.18784 14.876 -0.02957
C 1.22143 13.49749 0.00343
C 34.41738 12.76063 -0.02656
C 0.03616 11.38229 -0.02442
C 34.33773 19.82076 0.01951
C 1.29419 10.62425 -0.00027
C 0.05626 8.5123 -0.02302
C 0.05582 7.09343 -0.02849
C 1.2835 6.35805 0.02931
C 1.25477 4.9158 0.00628
C 34.42542 4.29806 -0.0345
C 34.41154 2.9277 -0.00931
C 1.21319 2.17466 -0.00939
C 1.22375 0.72475 -0.00468
C 1.32385 9.15094 -0.00583
C 33.25731 10.62872 0.00199
C 34.34902 21.30698 -0.02213
C 1.19147 23.38644 0.00723
C 32.07087 8.47607 0.02806
C 31.9923 7.08413 0.01504
C 33.22694 6.36261 -0.00069
C 33.1889 4.96111 0.04926
C 31.96618 4.2372 -0.03838
C 31.96089 2.85595 0.00349
C 33.16658 2.17753 -0.00323
C 33.1976 0.76671 -0.00841
C 1.14057 21.99997 0.02712
C 31.99437 0.0373 0.0001
C 1.20994 32.03362 -0.01404
C 1.14384 30.57273 0.01027
C 34.36899 29.82896 0.01831
C 34.36143 28.42414 -0.01037
C 1.1415 27.66378 -0.00439
C 1.16842 26.30304 -0.00598
C 34.38788 25.53147 -0.05239
C 34.37876 24.09735 0.03076
C 0.00652 32.71114 -0.02927
C 3.67922 32.01616 0.01305
C 30.72125 23.44256 -0.01854
C 29.48013 25.59665 0.03265
C 23.29651 2.06907 -0.01971
C 23.28589 0.6697 -0.02118
C 22.07165 34.06008 0.00733
C 24.55459 32.71593 -0.00178
C 25.75247 32.04897 0.00768
C 25.80498 30.6085 -0.0276
C 24.58276 29.87507 0.03005
C 24.60831 28.40999 -0.04078
C 22.17488 2.91112 -0.01586
C 25.82411 27.73161 0.02117
C 24.62665 25.60365 -0.00498
C 24.61086 24.16319 0.00135
C 24.48253 21.20844 0.03102
C 24.50818 19.77074 0.02555
C 25.76381 19.11811 0.01423
C 25.79728 17.69301 -0.00285
C 24.52609 17.06384 -0.009
C 24.617 15.60135 -0.01199
C 25.77582 26.34897 0.02737
C 25.80871 14.96996 -0.00229
C 22.46802 4.31979 -0.01107
C 22.16282 15.3 -0.00225
C 20.92049 0.68644 0.00199
C 19.68424 34.0243 0.01511
C 22.1318 32.65845 -0.00478
C 23.33235 31.99158 -0.01662
C 23.35216 30.5152 -0.01185
C 22.10058 29.80622 0.01126
C 22.02617 28.32784 0.01852
C 23.38295 27.71162 -0.00381
C 23.43453 14.77608 0.00071
C 23.36663 26.30209 0.03046
C 22.21263 24.17252 0.03374
C 23.40357 23.4403 -0.02845
C 23.39263 22.0167 -0.03213
C 22.18235 21.25914 0.02239
C 22.1113 19.76648 0.01153
C 23.27634 19.1039 0.02734
C 23.25752 17.71527 -0.0055
C 22.13243 16.79503 0.01515
C 22.14057 25.60939 0.0296
C 29.52191 24.11412 -0.02049
C 25.82562 13.5354 -0.00938
C 25.70474 4.8838 -0.01154
C 28.26388 10.66236 0.00194
C 28.34416 9.23493 -0.00621
C 27.21112 8.46137 0.02611
C 27.01722 7.04586 0.02198
C 28.32844 6.33391 0.01094
C 28.28923 4.89061 0.00235
C 27.03351 4.19282 0.01495
C 27.05272 2.78502 0.01259
C 27.20777 11.48749 0.04185
C 28.34818 2.06968 0.01799
C 27.06546 0.0005 -0.00416
C 29.50118 32.63272 0.01177
C 30.77228 31.94212 0.04266
C 30.71869 30.56212 0.01324
C 29.44831 29.88335 0.0014
C 29.41937 28.47852 0.00924
C 30.65093 27.68445 0.02326
C 30.70028 26.2778 0.00261
C 28.30414 0.65764 0.01699
C 26.01866 6.18744 -0.0264
C 26.89983 12.78621 0.02316
C 28.28136 14.88808 0.00152
C 24.37342 4.17486 0.00684
C 24.54299 2.70332 -0.01052
C 25.8514 1.99792 -0.01679
C 25.81311 0.6777 0.00367
C 24.59403 0.05502 0.04306
C 27.05859 32.70141 0.00996
C 28.2935 31.95064 0.00195
C 28.22963 30.53509 -0.00802
C 28.28681 13.48558 0.01257
C 27.01036 29.86998 -0.00218
C 28.2038 27.75056 -0.00037
C 28.23427 26.28748 -0.0032
C 26.97095 25.64458 0.00622
C 26.96065 19.89193 -0.02815
C 28.25559 19.27833 -0.00942
C 28.26907 17.85684 0.00487
C 27.00376 17.07057 0.00826
C 27.03369 15.64663 -0.00294
C 27.00904 28.44837 -0.01654
C 2.41647 32.72595 0.0276
