327
Graphene
C 0.04397 0.02828 0.01295
C 11.13259 23.43299 0.00213
C 11.02201 22.08169 -0.00066
C 9.8537 21.32329 -0.00289
C 9.86733 19.85907 0.00028
C 11.15749 19.22697 -0.02213
C 11.10749 17.73784 0.03698
C 9.76492 16.96092 -0.00109
C 9.79631 24.12002 -0.05302
C 9.82514 15.47259 -0.00491
C 11.05989 13.52334 -0.0258
C 9.90471 12.80167 -0.0331
C 9.89737 11.29855 -0.00316
C 11.09247 10.64154 0.02188
C 11.17051 9.237 -0.01979
C 9.80383 8.60856 0.02691
C 9.87261 7.09068 -0.01581
C 11.05079 14.72754 0.03338
C 9.75138 25.5323 -0.04147
C 11.11504 26.18902 -0.02815
C 11.01861 27.65869 0.03505
C 7.35605 11.37896 -0.0108
C 8.6006 10.61006 -0.00368
C 8.56123 9.29306 -0.02696
C 7.30515 8.57745 -0.00114
C 7.40486 7.15866 0.00228
C 8.64069 6.43611 0.00798
C 8.63446 4.98623 0.00422
C 7.38733 4.27055 0.0351
C 7.37802 2.84868 -0.03113
C 8.62162 2.10491 0.02098
C 8.65384 0.74141 0.01848
C 7.40228 0.09076 -0.00619
C 9.81357 32.66644 -0.02162
C 11.0416 32.03171 0.00889
C 11.05735 30.4954 -0.00481
C 9.85996 29.81287 0.00979
C 9.8575 28.42537 0.01443
C 11.15683 6.37859 0.01452
C 7.33992 12.7203 -0.01957
C 11.06006 5.00005 0.04892
C 9.866 2.79035 -0.03557
C 12.22167 4.22632 0.0106
C 12.32401 2.81045 -0.01154
C 13.62007 2.15321 -0.01721
C 13.52392 0.76497 -0.02422
C 12.32929 0.01153 0.01277
C 14.69308 32.78687 0.00096
C 15.94501 31.98257 -0.01527
C 13.4975 4.88347 -0.01594
C 15.97503 30.51271 0.01087
C 14.76936 28.44668 0.01511
C 15.98781 27.66666 -0.00478
C 15.94172 26.26528 -0.01662
C 14.74235 25.55839 -0.01185
C 14.79301 24.11144 0.01126
C 14.813 7.14086 0.01852
C 15.97501 6.39673 -0.00381
C 14.76763 29.82576 0.00199
C 13.56859 6.36908 0.00742
C 12.37089 7.06027 -0.00311
C 12.2509 8.46718 0.00675
C 11.05442 2.08142 0.03754
C 11.09262 0.64606 0.01739
C 9.86906 34.05152 0.00755
C 12.26264 32.70505 -0.0054
C 13.46661 31.93426 0.00667
C 13.48397 30.54375 0.00143
C 12.22434 29.88536 -0.017
C 12.26163 28.43347 0.00364
C 13.49853 27.72643 -0.00831
C 13.55489 26.24919 -0.02957
C 12.33486 25.55847 -0.04422
C 12.30475 24.17002 0.00654
C 13.57289 23.45555 -0.00703
C 13.57689 22.04862 -0.04076
C 12.3615 21.28281 -0.00652
C 12.31753 19.8457 0.0058
C 12.20976 16.98413 -0.00865
C 9.81923 4.25202 -0.00111
C 16.05519 4.97041 0.03046
C 8.56489 13.49737 0.02058
C 7.30641 15.62562 -0.03682
C 2.40508 8.54344 0.00438
C 2.44531 7.08075 0.01291
C 3.6161 6.40092 0.00093
C 3.69031 5.00681 0.00057
C 2.51463 4.24037 -0.01634
C 2.44257 2.83231 -0.00334
C 3.69298 2.0827 0.02339
C 3.64955 9.21376 -0.00191
C 3.71033 0.70671 0.01641
C 4.8534 32.63957 0.01364
C 6.1742 31.94911 -0.01062
C 6.21481 30.56199 -0.00033
C 4.88886 29.87999 0.03589
C 4.93332 28.36836 -0.02759
C 6.09956 27.66909 0.0402
C 6.10532 26.27485 0.00572
C 2.49472 0.04745 -0.00719
C 3.70237 10.6064 0.00373
C 2.42958 11.38946 0.02147
C 2.42516 12.81872 -0.014
C 3.62823 30.53432 -0.00892
C 2.44073 29.84191 -0.01362
C 2.45062 28.45207 -0.0008
C 3.70766 27.67333 0.0288
C 3.68079 26.30733 0.00393
C 2.48704 25.60511 0.00895
C 2.45012 24.17697 0.00685
C 3.6183 23.51184 0.02888
C 3.67829 22.03815 -0.00482
C 2.43964 21.28482 -0.01384
C 2.41818 19.86418 0.03693
C 3.66346 19.20527 0.01745
C 3.72039 17.68853 0.00488
C 2.50051 17.0741 -0.01004
C 2.44363 15.6183 -0.02896
C 3.75254 14.86811 -0.00131
C 3.69906 13.48745 -0.01118
C 4.8496 25.53924 0.03592
C 8.5466 14.97639 0.01965
C 4.90535 24.15438 0.00406
C 6.19459 21.98999 0.02841
C 7.38635 32.71053 -0.0014
C 8.65255 31.92283 0.02162
C 8.58119 30.48564 0.0076
C 7.40971 29.77541 0.01241
C 7.27391 28.35676 -0.01454
C 8.58086 27.79876 0.01945
C 8.56152 26.35835 0.01416
C 4.90324 34.07859 0.00415
C 7.41157 25.6177 0.03542
C 8.62591 23.34863 0.00244
C 8.65779 21.99831 -0.01717
C 7.41692 21.35336 0.05265
C 7.40357 19.92904 -0.01952
C 8.60677 19.15284 -0.02813
C 8.55156 17.65926 0.00374
C 7.33746 17.0223 0.00052
C 7.43797 24.14597 0.02299
C 6.14648 0.68228 -0.02162
C 6.13675 2.14945 0.01363
C 4.93275 2.9037 0.01877
C 4.88065 21.32424 -0.01111
C 4.97105 19.85979 -0.01275
C 6.20866 19.17894 0.00985
C 6.15412 17.7898 -0.02245
C 4.87589 16.93537 -0.00428
C 4.90836 15.59172 0.03101
C 6.10496 14.91437 -0.01536
C 6.09525 13.43813 -0.02689
C 4.90696 12.74692 -0.01046
C 4.91096 11.38003 -0.00891
C 6.13503 10.68118 0.02819
C 6.15215 9.18781 0.00165
C 4.89358 8.56112 -0.02971
C 4.89941 7.15135 0.02894
C 6.18378 6.42519 -0.01789
C 6.14417 4.96592 0.00444
C 4.92665 4.27777 -0.00925
C 6.20459 23.48694 0.00943
C 3.67055 31.94691 -0.04848
C 14.74065 4.29271 0.0296
C 16.02279 2.09412 -0.02845
C 33.20857 26.35227 0.00682
C 31.96524 25.61566 -0.01779
C 32.00482 24.19643 0.03794
C 33.17153 23.53679 0.01927
C 33.18007 22.08575 0.01574
C 31.98453 21.30542 -0.02383
C 31.89894 19.88807 -0.01429
C 33.21539 27.75725 0.00026
C 33.19628 19.14488 -0.0136
C 31.98167 17.02698 -0.02474
C 31.9244 15.6717 0.00369
C 33.17183 14.93624 0.00455
C 33.21748 13.49718 -0.00644
C 31.83102 12.73805 -0.01839
C 31.90918 11.37882 0.00137
C 33.15572 10.63785 0.00199
C 33.24653 17.7218 0.00594
C 31.92619 28.4607 0.0544
C 31.94842 29.8533 -0.02142
C 33.25277 30.59218 0.01428
C 29.57518 21.16533 -0.0405
C 29.50849 20.01266 -0.01303
C 30.63274 19.11711 -0.01461
C 30.79534 17.75916 -0.02155
C 30.74487 14.85476 -0.00944
C 30.63518 13.6312 -0.03735
C 30.67585 9.23692 -0.00971
C 29.48084 6.99854 0.01518
C 30.7221 6.46338 0.01908
C 30.68641 4.96078 0.07705
C 29.51066 4.32939 0.0103
C 29.51076 2.79093 0.02108
C 30.74857 2.13359 0.00716
C 30.74479 0.72449 0.00307
C 29.55909 34.06921 0.00346
C 31.99169 32.682 0.01713
C 33.1901 31.95219 -0.01694
C 33.18943 9.22268 0.04381
C 30.73431 22.02602 0.01705
C 31.85453 8.61882 0.02806
C 33.22807 6.38724 -0.00069
C 0.00874 16.98462 0.00648
C 0.05296 15.57588 0.02114
C 1.22851 14.94006 -0.02957
C 1.2163 13.52516 0.00343
C 0.01734 12.78707 -0.02656
C 34.39683 11.33706 -0.02442
C 1.20994 10.6427 -0.00027
C 1.19129 17.79292 0.01223
C 1.2695 9.28601 -0.00583
C 0.01322 7.00549 -0.02849
C 1.26008 6.34045 0.02931
C 1.25371 4.96 0.00628
C 34.41725 4.29111 -0.0345
C 0.00071 2.78115 -0.00931
C 1.19764 2.13447 -0.00939
C 1.30119 0.67808 -0.00468
C 34.37904 8.46908 -0.02302
C 1.169 19.1978 -0.01678
C 34.39247 19.86965 0.01951
C 34.38048 21.34371 -0.02213
C 33.19168 4.9717 0.04926
C 31.97073 4.21844 -0.03838
C 32.00805 2.80801 0.00349
C 33.21212 2.14902 -0.00323
C 33.27041 0.69291 -0.00841
C 31.97514 34.00684 0.0001
C 0.01949 32.67318 -0.02927
C 1.26725 31.92488 -0.01404
C 1.18081 30.52713 0.01027
C 0.01851 29.8157 0.01831
C 34.43134 28.40601 -0.01037
C 1.2192 27.74253 -0.00439
C 1.25822 26.34348 -0.00598
C 34.42015 25.60136 -0.05239
C 0.03168 24.23175 0.03076
C 1.18536 23.48041 0.00723
C 1.21509 22.02479 0.02712
C 31.98815 7.11075 0.01504
C 14.83321 2.88512 0.03374
C 30.80202 23.42363 0.0101
C 29.45746 25.48944 0.03531
C 19.65754 29.85992 0.00135
C 19.67161 28.44766 0.03102
C 20.94697 27.71402 0.02555
C 20.82615 26.18932 0.01423
C 19.62151 4.20693 -0.00285
C 19.66771 2.84738 -0.009
C 20.95738 2.12292 -0.01199
C 20.83002 30.51838 -0.00498
C 20.85701 0.72764 -0.00229
C 22.12202 32.63597 -0.0264
C 23.32469 31.92888 -0.01154
C 23.36649 30.46595 0.00684
C 22.12975 29.88526 -0.01052
C 22.13868 28.46368 -0.01679
C 23.36072 27.67831 0.00367
C 23.44627 26.25471 0.04306
C 19.59066 34.06569 -0.00938
C 20.82232 31.97122 0.02737
C 19.65539 32.69421 0.02117
C 17.26598 34.03844 -0.04078
C 15.99828 0.69154 -0.03213
C 14.69176 0.0653 0.02239
C 17.1928 32.67758 0.01153
C 18.43641 32.01232 0.02734
C 18.40114 30.56229 -0.0055
C 17.18582 29.81478 0.01515
C 17.20748 28.44068 -0.00225
C 18.46624 27.69112 0.00071
C 18.40258 26.24483 -0.01107
C 17.24793 25.57342 -0.01586
C 17.28432 7.01737 -0.01971
C 18.275 6.46655 -0.02118
C 18.4835 5.06392 0.00733
C 17.2101 4.20189 -0.00178
C 17.21586 2.79032 0.00768
C 18.37398 2.11794 -0.0276
C 18.42546 0.74002 0.03005
C 22.1741 4.2449 0.00996
C 29.43331 24.02798 -0.00669
C 22.11413 2.87771 0.00195
C 23.38912 0.73494 -0.00218
C 27.01018 25.47943 0.01799
C 27.11142 24.09826 0.01699
C 28.23028 23.40767 -0.00416
C 28.24016 4.92624 0.01177
C 27.16844 4.2806 0.04266
C 27.01587 2.80712 0.01324
C 28.30115 2.06152 0.0014
C 28.26399 26.21995 0.01259
C 28.27319 0.67214 0.00924
C 29.5563 32.64953 0.00261
C 30.79026 31.90331 0.03265
C 30.7246 30.55815 -0.02049
C 29.40257 29.8132 -0.01854
C 29.44089 28.3772 -0.01415
C 30.73299 27.62373 -0.03039
C 30.68694 26.26775 0.01836
C 27.09701 34.04823 0.02326
C 28.28858 27.68377 0.01495
C 26.94371 28.37821 0.00235
C 26.9779 29.7455 0.01094
C 22.14074 34.0787 -0.01654
C 24.61786 32.6399 -0.00037
C 25.87428 31.87878 -0.0032
C 25.87448 30.47273 0.00622
C 24.62882 29.7981 -0.02815
C 24.58928 28.38286 -0.00942
C 25.82273 27.59759 0.00487
C 25.77665 26.18921 0.00826
C 24.47624 25.67128 -0.00294
C 24.67901 4.15859 0.00152
C 24.68634 2.81885 0.01257
C 25.82835 2.04551 0.02316
C 25.83809 0.67149 0.04185
C 24.61859 34.07322 0.00194
C 27.08416 32.62342 -0.00621
C 28.3187 31.95371 0.02611
C 28.23125 30.52403 0.02198
C 23.38213 2.1685 -0.00802
C 2.50795 32.66676 0.01572
