384
Graphene
C 34.30877 34.07607 0.01295
C 11.08999 5.03286 0.02162
C 9.77699 4.30317 0.0076
C 9.82619 2.89932 0.01241
C 11.05927 2.17637 -0.01454
C 11.06155 0.79898 0.01945
C 9.80136 0.05502 0.01416
C 12.27677 32.66477 0.03542
C 13.49464 31.95041 0.02299
C 13.47263 30.46571 0.00244
C 11.04321 6.47783 -0.0014
C 12.31299 29.80173 -0.01717
C 13.49537 27.64705 -0.01952
C 13.53104 26.24969 -0.02813
C 12.32116 25.5066 0.00374
C 12.29692 24.11905 0.00052
C 13.55406 23.38086 -0.03682
C 13.58263 21.9582 0.01965
C 12.27994 21.29213 0.02058
C 12.26109 19.88029 -0.01957
C 13.39313 19.22395 -0.0108
C 12.26419 28.3692 0.05265
C 13.50775 17.779 -0.00368
C 9.78591 7.19469 0.00415
C 11.08609 9.32493 0.01363
C 11.03454 30.53507 0.00943
C 9.77899 29.90993 0.02841
C 9.81936 28.47705 -0.01111
C 11.05014 27.71769 -0.01275
C 11.04855 26.31467 0.00985
C 9.82177 25.63832 -0.02245
C 9.8701 24.23858 -0.00428
C 11.09645 23.4379 0.03101
C 11.06529 21.98311 -0.01536
C 9.86293 8.57427 -0.02162
C 9.82675 21.32019 -0.02689
C 11.05526 19.0943 -0.00891
C 11.04838 17.65533 0.02819
C 9.84695 16.96126 0.00165
C 9.82353 15.54167 -0.02971
C 11.08326 14.91693 0.02894
C 11.17295 13.50403 -0.01789
C 9.87825 12.83683 0.00444
C 9.84208 11.43678 -0.00925
C 11.11692 10.73995 0.01877
C 9.87193 19.95741 -0.01046
C 11.11684 31.97074 0.00406
C 12.26296 17.01754 -0.02696
C 13.47095 14.92576 0.00228
C 15.98501 21.86343 0.03338
C 14.78448 21.19386 -0.0258
C 14.74402 19.79101 -0.0331
C 15.99235 19.04014 -0.00316
C 14.74312 17.03498 0.02188
C 14.64811 15.8037 -0.01979
C 14.83086 12.86414 0.02691
C 14.77716 11.46939 -0.01581
C 15.95317 10.71467 0.01452
C 15.99391 23.27289 -0.00491
C 16.06337 9.25377 0.04892
C 14.71805 7.03168 -0.03557
C 16.0056 6.41687 0.03754
C 16.00389 4.95616 0.01739
C 14.78174 4.2476 0.00755
C 14.74924 2.84494 -0.0054
C 15.93933 2.1533 0.00667
C 15.97681 0.66675 0.00143
C 14.76373 34.01961 -0.017
C 17.09451 32.59744 0.00364
C 14.73987 8.59906 -0.00111
C 12.29763 15.57643 -0.00114
C 14.7577 23.94227 -0.00109
C 16.03789 26.09706 -0.02213
C 13.57368 13.54001 0.00798
C 12.36072 12.83902 0.00422
C 12.37609 11.39732 0.0351
C 13.57129 10.68127 -0.03113
C 13.53716 9.30372 0.02098
C 12.34904 8.55714 0.01848
C 12.28146 7.14934 -0.00619
C 13.48081 6.3974 -0.02162
C 13.53729 4.97527 0.00889
C 14.69961 25.43788 0.03698
C 12.27999 4.35009 -0.00481
C 13.53187 2.13213 0.01443
C 13.54124 0.65818 0.03505
C 12.30181 0.03498 -0.02815
C 14.71693 32.63135 -0.04147
C 15.86431 31.92005 -0.05302
C 16.00623 30.43406 0.00213
C 14.71339 29.79907 -0.00066
C 14.74617 28.35217 -0.00289
C 15.97166 27.5702 0.00028
C 12.29277 2.88438 0.00979
C 18.40674 31.86435 -0.00831
C 9.789 32.67902 0.03592
C 8.59935 0.83571 0.0402
C 3.65512 5.05882 -0.02566
C 2.34421 4.32974 -0.00094
C 2.30553 2.89151 0.02322
C 3.66422 2.18307 -0.00725
C 3.64012 0.84332 -0.05697
C 2.35563 0.13054 0.01087
C 4.88718 32.71639 -0.01343
C 6.12605 32.00642 0.00988
C 6.08495 30.63975 0.0276
C 3.60898 6.45514 -0.03113
C 4.87164 29.89174 0.01305
C 6.12556 27.84617 0.03368
C 6.13449 26.33185 -0.02929
C 4.81434 25.57903 -0.00966
C 4.92799 24.13835 -0.03337
C 6.16342 23.46852 0.01227
C 6.1636 22.09229 0.00873
C 4.92368 21.33638 -0.00049
C 4.97616 19.89825 0.00848
C 6.22324 19.2168 -0.01303
C 4.83564 28.48542 -0.00077
C 6.24481 17.75311 -0.01378
C 2.31171 7.10015 0.017
C 3.62702 9.23058 0.0086
C 3.6119 30.62728 0.00031
C 2.35537 29.90788 -0.003
C 2.34125 28.42136 0.01402
C 3.58813 27.74385 0.02379
C 3.61962 26.26046 0.00907
C 2.24642 25.59659 0.00643
C 2.46857 24.18092 -0.01509
C 3.64409 23.37574 0.03267
C 3.69577 22.0065 0.02374
C 2.3768 8.4905 -0.00643
C 2.44734 21.28892 0.00402
C 3.74009 19.31724 0.0174
C 3.75576 17.7822 0.03828
C 2.54101 17.09305 0.01226
C 2.47859 15.68044 -0.00279
C 3.66847 14.93885 0.01996
C 3.67221 13.53183 -0.03996
C 2.45075 12.81902 0.01465
C 2.41803 11.40034 -0.00074
C 3.66663 10.68168 -0.00518
C 2.4871 19.85072 0.0073
C 7.34905 0.10699 0.00572
C 4.95553 17.07627 0.02635
C 6.0988 14.88877 0.01396
C 8.61868 22.04506 -0.00131
C 7.3756 21.30469 -0.01118
C 7.42709 19.88883 -0.014
C 8.64962 19.08788 0.02147
C 8.60772 17.72036 0.00373
C 7.39682 17.05854 -0.00191
C 7.35573 15.52941 0.00438
C 8.60064 14.87474 0.01291
C 8.61141 13.48679 0.00093
C 8.62788 23.49497 -0.02896
C 7.30511 12.78146 0.00057
C 8.6138 10.73185 -0.00334
C 8.5509 9.26892 0.02339
C 7.2635 8.64421 0.01641
C 7.35896 7.18637 -0.00719
C 8.5889 6.48716 0.01364
C 8.57919 5.06796 -0.01062
C 7.31112 4.30789 -0.00033
C 7.3532 2.92061 0.03589
C 8.62841 2.22685 -0.02759
C 7.35494 11.45912 -0.01634
C 4.91043 15.60684 0.0127
C 7.37614 24.18837 -0.01004
C 8.59023 26.41264 0.01745
C 5.98483 13.53812 0.01849
C 4.85332 12.77233 -0.01142
C 4.82232 11.34879 -0.00562
C 6.13498 10.69175 -0.00494
C 6.03956 9.30774 0.00054
C 4.87824 8.5585 0.03007
C 4.8642 7.168 -0.00095
C 6.09139 6.46439 0.01572
C 6.08608 4.99732 -0.04848
C 7.34348 25.6227 0.00488
C 4.9087 4.30501 -0.00892
C 6.15728 2.20542 -0.0008
C 6.12828 0.78124 0.0288
C 4.86287 0.12505 0.00393
C 7.35186 32.73666 0.00895
C 8.60446 32.04413 0.00685
C 8.61665 30.60672 0.02888
C 7.3937 29.98123 -0.00482
C 7.32837 28.53499 -0.01384
C 8.61239 27.79043 0.03693
C 4.91205 2.92697 -0.01362
C 18.38213 30.46499 -0.02957
C 17.21659 29.75136 -0.04422
C 17.19835 28.29885 0.00654
C 30.6617 10.74821 0.0103
C 30.68403 9.29759 0.02108
C 29.45058 8.60772 0.00716
C 29.452 7.163 0.00307
C 30.66387 6.45317 0.00346
C 30.70075 4.99974 0.01713
C 29.51547 4.27474 -0.01694
C 29.44698 2.85633 0.01428
C 30.64651 2.08905 -0.02142
C 29.39033 11.47753 0.07705
C 30.64504 0.70972 0.0544
C 31.86574 32.68272 0.00682
C 33.15676 32.06077 -0.01779
C 31.98858 24.07972 0.03794
C 33.26581 23.37531 0.01927
C 33.22676 21.94402 0.01574
C 31.93446 21.29895 -0.02383
C 32.00136 19.84329 -0.01429
C 33.22825 19.12837 -0.0136
C 33.17791 17.74236 0.00594
C 29.40939 0.02554 0.00026
C 32.00241 17.06735 -0.02474
C 29.61585 12.87732 0.01908
C 30.81332 14.89013 -0.00971
C 28.22136 9.2281 0.0014
C 27.03003 8.59917 0.00924
C 27.14279 7.21405 0.02326
C 28.22838 6.50046 0.00261
C 28.33954 5.02388 0.03265
C 27.05593 4.20823 -0.02049
C 27.04015 2.85445 -0.01854
C 28.22683 2.10271 -0.01415
C 28.2122 0.76303 -0.03039
C 30.89161 13.53111 0.01518
C 26.96784 34.07404 0.01836
C 29.41508 24.06184 -0.00669
C 30.66563 23.53104 0.0101
C 30.67478 22.08126 0.01705
C 29.48902 21.30148 -0.0405
C 29.50547 19.87773 -0.01303
C 30.74979 19.0908 -0.01461
C 30.71642 17.6727 -0.02155
C 29.39067 16.85945 -0.00944
C 29.54846 15.56004 -0.03735
C 29.30795 32.65565 0.03531
C 28.24765 10.67446 0.01324
C 32.00492 15.61154 0.00369
C 33.23774 13.56266 -0.00644
C 0.01311 21.26844 -0.02213
C 0.0579 19.84875 0.01951
C 1.27352 19.16013 -0.01678
C 1.28975 17.78931 0.01223
C 0.04089 17.07789 0.00648
C 0.05493 15.67509 0.02114
C 1.24959 14.93829 -0.02957
C 1.2354 13.50645 0.00343
C 34.42549 12.82811 -0.02656
C 1.19767 21.99101 0.02712
C 0.0097 11.41775 -0.02442
C 1.1656 9.14422 -0.00583
C 34.3822 8.51188 -0.02302
C 34.3691 7.07594 -0.02849
C 1.10418 6.37213 0.02931
C 1.11612 4.965 0.00628
C 34.33151 4.31616 -0.0345
C 34.37053 2.9019 -0.00931
C 1.11215 2.16503 -0.00939
C 1.11517 0.73043 -0.00468
C 1.23266 10.66236 -0.00027
C 33.2894 14.98231 0.00455
C 1.20305 23.43557 0.00723
C 34.39012 25.50814 -0.05239
C 32.02077 12.81428 -0.01839
C 31.99003 11.34359 0.00137
C 33.22904 10.71835 0.00199
C 33.11313 9.30877 0.04381
C 31.96257 8.56644 0.02806
C 31.90295 7.18938 0.01504
C 33.16081 6.44333 -0.00069
C 33.1145 4.97627 0.04926
C 31.93408 4.23904 -0.03838
C 0.03026 24.1339 0.03076
C 31.91671 2.8347 0.00349
C 33.06241 0.71245 -0.00841
C 31.82529 34.05859 0.0001
C 34.35655 32.65294 -0.02927
C 1.11845 32.03417 -0.01404
C 1.15492 30.57788 0.01027
C 0.0792 29.71317 0.01831
C 34.41399 28.48616 -0.01037
C 1.10908 27.64979 -0.00439
C 1.09227 26.30812 -0.00598
C 33.11141 2.15189 -0.00323
C 28.29233 17.69065 0.04266
C 28.23418 19.09028 0.01177
C 27.04623 19.77047 -0.00416
C 19.60045 28.36938 -0.00381
C 20.88428 27.63674 0.03046
C 20.84222 26.19681 0.0296
C 19.62397 25.476 0.03374
C 19.66039 24.02126 -0.02845
C 20.91332 23.2397 -0.03213
C 20.92562 21.85944 0.02239
C 19.69815 21.11204 0.01153
C 19.99553 8.55034 0.02734
C 19.60681 29.76019 0.01852
C 19.71467 7.18672 -0.0055
C 20.93392 4.99937 -0.00225
C 19.66529 4.31903 0.00071
C 19.65898 2.83092 -0.01107
C 20.83865 2.10811 -0.01586
C 20.91954 0.64893 -0.01971
C 19.65835 34.0177 -0.02118
C 22.13275 32.67357 0.00733
C 23.38383 31.89066 -0.00178
C 23.27342 30.54529 0.00768
C 20.91052 6.39549 0.01515
C 22.06458 29.80207 -0.0276
C 20.84184 30.48288 0.01126
C 19.60449 32.5728 -0.01662
C 18.42066 27.61378 -0.00703
C 18.41966 26.18839 -0.04076
C 17.25891 25.43141 -0.00652
C 17.24419 24.01579 0.0058
C 18.48629 23.27316 -0.00865
C 18.5378 21.88457 0.00675
C 17.24054 21.16681 -0.00311
C 17.03864 19.72901 0.00742
C 17.39092 11.23431 -0.01594
C 20.90584 31.9386 -0.01185
C 18.4212 10.70181 0.0106
C 17.31985 8.60165 -0.01721
C 17.24188 7.17733 -0.02422
C 18.50287 6.41041 0.01277
C 18.4235 4.96887 0.00096
C 17.19211 4.24014 -0.01527
C 17.16773 2.81807 0.01087
C 18.42624 2.07761 0.00199
C 18.38288 0.66434 0.01511
C 17.21448 33.9931 -0.00478
C 18.68183 9.31035 -0.01154
C 22.08088 28.3718 0.03005
C 23.27116 27.5871 -0.04078
C 23.32714 26.20616 0.02117
C 25.79744 21.92699 0.00622
C 24.53875 21.30383 -0.02815
C 24.54186 19.85298 -0.00942
C 25.74007 19.1724 0.00487
C 25.793 9.25064 0.00826
C 24.84419 8.48042 -0.00294
C 24.57702 7.08178 0.00152
C 25.85831 6.48649 0.01257
C 25.77346 4.96566 0.02316
C 25.76609 23.37918 -0.0032
C 24.56338 4.26071 0.04185
C 25.76658 2.14697 -0.00621
C 25.70436 0.71664 0.02611
C 24.51762 34.01928 0.02198
C 27.12935 32.69563 0.01094
C 26.84233 25.41236 0.00235
C 26.98785 24.01797 0.01495
C 28.19676 23.30728 0.01259
C 28.25021 21.90236 0.01799
C 27.01939 21.18162 0.01699
C 24.5701 2.79936 0.00194
C 24.52359 24.12363 -0.00037
C 24.586 25.55083 -0.01654
C 25.79661 26.35267 -0.00218
C 22.11661 25.48189 0.02737
C 22.09967 24.06068 -0.00498
C 23.30721 23.44208 0.00135
C 23.31696 21.9562 0.03102
C 22.1839 21.16636 0.02555
C 22.27925 19.74716 0.01423
C 21.97563 8.63086 -0.00285
C 22.037 7.15932 -0.009
C 23.31134 6.44148 -0.01199
C 23.30063 5.06032 -0.00229
C 22.19561 4.28191 -0.00938
C 22.12327 2.86066 -0.0264
C 23.3504 2.14982 -0.01154
C 23.34184 0.7028 0.00684
C 22.14828 34.07071 -0.01052
C 24.65535 32.61887 -0.01679
C 25.90746 31.88117 0.00367
C 25.84978 30.37916 0.04306
C 24.50522 29.86685 0.00996
C 24.47173 28.36227 0.00195
C 25.69395 27.75561 -0.00802
C 3.57955 32.00616 0.03189
C 2.32176 32.70091 -0.04307
