357
Graphene
C 0.03191 0.04279 0.01295
C 13.47329 0.71044 -0.0108
C 12.27084 0.03247 -0.00368
C 14.66417 32.65822 -0.02696
C 15.80929 31.96453 -0.00114
C 15.82142 30.45818 0.00228
C 14.63837 29.67805 0.00798
C 14.72569 28.19018 0.00422
C 15.96806 27.68972 0.0351
C 13.55565 2.17622 -0.01957
C 16.0835 9.23444 -0.03113
C 14.85457 7.07239 0.01848
C 16.0677 6.38389 -0.00619
C 15.98861 4.98357 -0.02162
C 14.76875 4.33488 0.00889
C 14.78091 2.81554 -0.00481
C 15.95876 2.11598 0.00979
C 15.94959 0.64116 0.01443
C 14.75699 34.07834 0.03505
C 14.81288 8.5152 0.02098
C 17.14353 32.59732 -0.02815
C 12.35326 2.81693 0.02058
C 13.59514 5.01833 -0.03682
C 9.94561 7.14748 -0.02162
C 11.22812 6.44769 0.00415
C 11.13144 5.09217 -0.0014
C 9.85144 4.40668 0.02162
C 9.9307 2.91137 0.0076
C 11.11234 2.10036 0.01241
C 10.99454 0.70571 -0.01454
C 9.78491 0.04611 0.01945
C 12.28807 4.30511 0.01965
C 12.27403 32.55379 0.01416
C 13.43334 30.39058 0.02299
C 12.18259 29.7913 0.00244
C 12.26188 28.34662 -0.01717
C 13.42023 27.65365 0.05265
C 13.68431 9.2102 -0.01952
C 12.32208 8.72382 -0.02813
C 12.40458 7.18137 0.00374
C 13.62937 6.41077 0.00052
C 13.51369 31.85668 0.03542
C 18.41713 31.88344 -0.04147
C 18.34385 30.53183 -0.05302
C 17.07148 29.86274 0.00213
C 20.94824 9.16287 0.00667
C 19.69995 8.45641 0.00143
C 19.68796 6.92655 -0.017
C 20.94895 6.28796 0.00364
C 20.90792 4.93634 -0.00831
C 19.64466 4.22241 -0.02957
C 19.68904 2.72775 -0.04422
C 20.89805 2.09635 0.00654
C 20.78063 10.56323 -0.0054
C 20.86533 0.65334 -0.00703
C 22.13956 32.55843 -0.00652
C 23.3682 31.85775 0.0058
C 23.38242 30.55284 -0.00865
C 22.04646 29.8143 0.00675
C 22.12479 28.35379 -0.00311
C 23.30518 27.66489 0.00742
C 23.316 26.27775 -0.01594
C 22.04876 25.59125 0.0106
C 19.67274 34.06114 -0.04076
C 20.97167 23.27461 0.00755
C 19.52539 25.68076 0.01739
C 20.80726 26.19753 0.03754
C 17.12589 28.43927 -0.00066
C 18.42049 27.67639 -0.00289
C 18.37666 26.3077 0.00028
C 18.67411 9.27735 -0.02213
C 17.35117 8.71064 0.03698
C 17.29645 7.13986 -0.00109
C 18.44669 6.27891 -0.00491
C 18.41133 4.85261 0.03338
C 17.1518 4.24101 -0.0258
C 17.22013 2.83904 -0.0331
C 18.49021 2.10898 -0.00316
C 18.47011 0.63624 0.02188
C 17.1915 33.9658 -0.01979
C 19.62229 32.57607 0.02691
C 20.93562 31.92104 -0.01581
C 20.80402 30.55276 0.01452
C 19.6038 29.85461 0.04892
C 19.63674 28.45809 -0.00111
C 20.89318 27.66032 -0.03557
C 9.91061 8.52871 0.01363
C 11.07957 9.3309 0.01877
C 9.64904 25.63597 -0.00925
C 10.86858 26.22054 0.00444
C 3.69281 6.5268 -0.00562
C 3.70062 5.04879 -0.00494
C 2.44835 4.33989 0.00054
C 2.43343 2.95539 0.03007
C 3.63735 2.24158 -0.00095
C 3.70236 0.76453 0.01572
C 2.44693 0.11548 -0.04848
C 4.9394 32.73213 -0.00892
C 2.39297 7.19927 -0.01142
C 6.13647 31.98013 -0.01362
C 4.82443 29.93565 0.0288
C 4.87632 28.42912 0.00393
C 6.08809 27.70632 0.00895
C 6.04345 26.32116 0.00685
C 4.84498 25.53662 0.02888
C 4.84393 24.11502 -0.00482
C 6.24033 23.44027 -0.01384
C 6.07426 21.94422 0.03693
C 6.12222 30.55557 -0.0008
C 2.42679 8.62594 0.01849
C 3.7976 9.23327 0.01396
C 3.64969 10.6809 0.0127
C 3.59509 30.62744 -0.00725
C 2.39436 29.86712 -0.05697
C 2.43612 28.41901 0.01087
C 3.63937 27.73545 -0.01343
C 3.6612 26.2431 0.00988
C 2.50026 25.51181 0.0276
C 2.40844 24.09671 0.01305
C 3.68245 23.38927 -0.00077
C 3.66668 22.03497 0.03368
C 2.44961 21.266 -0.02929
C 2.41025 19.896 -0.00966
C 3.63638 19.15383 -0.03337
C 3.74138 17.71342 0.01227
C 2.38639 17.13416 0.00873
C 2.37771 15.69203 -0.00049
C 3.61019 14.96682 0.00848
C 3.66805 13.58625 -0.01303
C 2.42624 12.74833 -0.01378
C 2.50848 11.41247 0.02635
C 4.93923 21.16497 0.01745
C 21.96135 24.08048 -0.01154
C 4.90756 19.76012 0.00488
C 4.97517 15.63493 -0.02896
C 7.23107 11.4269 0.00406
C 8.49271 10.79508 0.00943
C 8.66906 9.35747 0.02841
C 7.3923 8.7799 -0.01111
C 7.42302 7.28037 -0.01275
C 8.61214 6.59925 0.00985
C 8.54769 5.16985 -0.02245
C 7.31897 4.36613 -0.00428
C 7.46926 24.08153 0.03592
C 7.34808 2.98314 0.03101
C 8.60123 0.76122 -0.02689
C 7.31618 0.00928 -0.01046
C 9.73719 32.69269 -0.00891
C 10.99018 31.99643 0.02819
C 10.98132 30.51731 0.00165
C 9.79565 29.80252 -0.02971
C 9.8136 28.49311 0.02894
C 11.00052 27.52887 -0.01789
C 8.62934 2.25158 -0.01536
C 7.27846 25.54551 0.00572
C 8.46747 26.29074 0.0402
C 8.52944 27.72952 -0.02759
C 6.18852 13.71737 -0.00131
C 4.97357 12.97863 -0.01118
C 4.88453 11.45165 -0.014
C 6.05418 10.82967 0.02147
C 6.13125 9.42541 0.00373
C 5.00663 8.65336 -0.00191
C 4.97131 7.20868 0.00438
C 6.2048 6.51921 0.01291
C 6.115 5.06495 0.00093
C 4.94049 4.30238 0.00057
C 4.86421 2.87304 -0.01634
C 6.11411 2.19425 -0.00334
C 6.15122 0.77231 0.02339
C 4.84902 0.06792 0.01641
C 7.39449 32.6801 -0.00719
C 8.57705 31.95777 0.01364
C 8.564 30.513 -0.01062
C 7.30906 29.84195 -0.00033
C 7.31435 28.41985 0.03589
C 4.78028 16.9375 -0.01004
C 3.66078 32.03506 0.02322
C 23.29857 23.47828 -0.01721
C 23.30084 19.21479 0.01277
C 31.99375 32.69556 0.01713
C 33.16094 31.94649 -0.01694
C 33.20612 30.50642 0.01428
C 31.94376 29.89408 -0.02142
C 31.89918 28.4499 0.0544
C 33.12838 27.69215 0.00026
C 33.13629 26.24493 0.00682
C 31.98425 25.56466 -0.01779
C 29.52077 0.03151 0.00346
C 31.89563 24.12504 0.03794
C 33.16599 22.04837 0.01574
C 31.85794 21.31802 -0.02383
C 31.91738 19.94021 -0.01429
C 33.07762 19.15716 -0.0136
C 33.10332 17.76678 0.00594
C 31.84551 17.00457 -0.02474
C 31.91648 15.72553 0.00369
C 33.15118 14.97414 0.00455
C 33.14463 23.49302 0.01927
C 33.10184 13.54455 -0.00644
C 30.75416 0.74918 0.00307
C 29.54447 2.81615 0.02108
C 30.66536 22.05695 -0.01415
C 29.44941 21.36118 -0.03039
C 29.41353 19.86796 0.01836
C 30.68082 19.16288 0.03531
C 30.65316 17.7593 -0.00669
C 29.40506 17.03625 0.0101
C 29.45708 15.6115 0.01705
C 30.66875 14.95771 -0.0405
C 30.76754 2.16271 0.00716
C 30.63256 13.49652 -0.01303
C 29.50981 11.25902 -0.02155
C 30.75802 10.59153 -0.00944
C 30.73309 9.15913 -0.03735
C 29.50152 8.55538 -0.00971
C 29.42677 7.03716 0.01518
C 30.725 6.33963 0.01908
C 30.78408 4.93356 0.07705
C 29.53967 4.25593 0.0103
C 29.42035 12.66881 -0.01461
C 31.904 12.76914 -0.01839
C 31.92277 11.39788 0.00137
C 33.13751 10.6254 0.00199
C 1.15613 19.26103 -0.01678
C 1.18276 17.82884 0.01223
C 34.37951 17.06334 0.00648
C 34.4155 15.60208 0.02114
C 1.16628 14.86766 -0.02957
C 1.25662 13.4952 0.00343
C 34.40034 12.91408 -0.02656
C 34.38082 11.43846 -0.02442
C 34.27973 19.84572 0.01951
C 1.24177 10.73826 -0.00027
C 34.42487 8.54972 -0.02302
C 34.40813 7.15259 -0.02849
C 1.21301 6.44259 0.02931
C 1.24311 5.05368 0.00628
C 0.06802 4.22788 -0.0345
C 0.00078 2.88497 -0.00931
C 1.17063 2.18469 -0.00939
C 1.27152 0.83039 -0.00468
C 1.2034 9.30468 -0.00583
C 34.41217 21.26767 -0.02213
C 1.20154 21.96269 0.02712
C 1.18085 23.42467 0.00723
C 33.16619 9.25624 0.04381
C 31.97026 8.47544 0.02806
C 31.93889 7.10089 0.01504
C 33.18798 6.35573 -0.00069
C 33.29471 5.00391 0.04926
C 32.03547 4.25186 -0.03838
C 31.97686 2.86166 0.00349
C 33.14325 2.14592 -0.00323
C 33.26613 0.76963 -0.00841
C 32.03215 34.06025 0.0001
C 34.43128 32.70247 -0.02927
C 1.21129 31.99483 -0.01404
C 1.22454 30.6749 0.01027
C 0.00932 29.84742 0.01831
C 34.3705 28.38421 -0.01037
C 1.15906 27.71347 -0.00439
C 1.19419 26.28537 -0.00598
C 34.41141 25.62115 -0.05239
C 34.42514 24.19888 0.03076
C 30.6701 23.42389 -0.01854
C 29.37718 24.20225 -0.02049
C 29.48787 25.58709 0.03265
C 30.78297 26.2435 0.00261
C 24.52429 25.62501 -0.01107
C 24.5192 24.18654 -0.01586
C 25.77961 23.44277 -0.01971
C 25.75013 21.98317 -0.02118
C 24.36369 21.38548 0.00733
C 24.46484 19.99857 -0.00178
C 25.74577 19.27716 0.00768
C 25.73572 17.8047 -0.0276
C 25.77858 26.2557 0.00071
C 24.51443 17.06995 0.03005
C 25.79315 14.85559 0.02117
C 25.75876 13.46272 0.02737
C 24.50799 12.69354 -0.00498
C 24.4748 11.29524 0.00135
C 25.7389 10.6239 0.03102
C 25.7449 9.18626 0.02555
C 24.53333 8.50411 0.01423
C 24.60352 7.02242 -0.00285
C 24.46782 15.65333 -0.04078
C 25.78405 27.73076 -0.00225
C 24.55082 28.37557 0.01515
C 24.5677 29.83426 -0.0055
C 23.41724 17.83384 0.00096
C 23.21272 14.92682 -0.01527
C 23.25087 13.47234 0.01087
C 22.11605 12.66878 0.00199
C 22.05158 11.28863 0.01511
C 23.30372 10.54283 -0.00478
C 23.29737 9.13832 -0.01662
C 22.12483 8.45785 -0.01185
C 22.19878 7.02822 0.01126
C 23.43072 6.34616 0.01852
C 23.4147 4.95604 -0.00381
C 22.10375 4.25098 0.03046
C 22.11817 2.77481 0.0296
C 23.26931 2.14291 0.03374
C 23.3233 0.69429 -0.02845
C 22.11511 33.96925 -0.03213
C 24.6183 32.64036 0.02239
C 25.74532 31.93784 0.01153
C 25.81703 30.56376 0.02734
C 25.82333 6.32185 -0.009
C 23.1603 22.18973 -0.02422
C 25.79074 4.88 -0.01199
C 24.55543 2.76827 -0.00938
C 26.9723 11.33743 0.04185
C 28.23186 10.64598 0.00194
C 28.21856 9.22488 -0.00621
C 26.98572 8.4691 0.02611
C 27.00013 7.00617 0.02198
C 28.23502 6.36514 0.01094
C 28.25685 4.95993 0.00235
C 27.04462 4.23442 0.01495
C 26.97211 12.6894 0.02316
C 27.01171 2.83903 0.01259
C 28.27903 0.74834 0.01699
C 27.0807 34.04031 -0.00416
C 29.4699 32.64742 0.01177
C 30.72654 32.01871 0.04266
C 30.70577 30.63541 0.01324
C 29.5432 29.8665 0.0014
C 29.43473 28.49021 0.00924
C 30.73794 27.72167 0.02326
C 28.24194 2.11835 0.01799
C 28.14502 13.38579 0.01257
C 28.2308 14.89888 0.00152
C 27.00731 15.58208 -0.00294
C 25.80851 2.03752 -0.0264
C 25.82507 0.6437 -0.01154
C 24.56155 34.00562 0.00684
C 27.04323 32.63678 -0.01052
C 28.24964 31.9737 -0.01679
C 28.23115 30.5051 0.00367
C 27.02341 29.83423 0.04306
C 26.95598 28.46324 0.00996
C 28.30394 27.71651 0.00195
C 28.23653 26.27946 -0.00802
C 27.03437 25.64652 -0.00218
C 26.91583 24.18869 -0.01654
C 28.21401 23.4407 -0.00037
C 28.18385 22.00611 -0.0032
C 26.98094 21.33169 0.00622
C 27.01296 19.954 -0.02815
C 28.12472 19.17633 -0.00942
C 28.14874 17.71146 0.00487
C 26.92026 17.00783 0.00826
C 24.53939 4.19428 -0.00229
C 2.49933 32.73555 -0.00094
