275
Graphene
C 34.40561 0.04832 0.01295
C 11.14541 26.24673 -0.01527
C 11.06164 27.74242 0.00096
C 9.76121 28.46411 0.01277
C 9.90141 29.83961 -0.02422
C 11.10302 30.59989 -0.01721
C 11.10023 31.97347 -0.01154
C 9.79508 32.67295 0.0106
C 7.30415 34.0438 -0.01594
C 8.53781 0.57754 0.00742
C 8.60534 2.02843 -0.00311
C 7.4093 2.83146 0.00675
C 7.44602 4.2512 -0.00865
C 8.66929 4.93571 0.0058
C 8.64408 6.30014 -0.00652
C 9.85795 25.71109 0.01087
C 7.41052 7.03921 -0.04076
C 8.6907 9.1624 0.00654
C 8.49521 10.48326 -0.04422
C 7.47482 11.33168 -0.02957
C 7.22926 12.72926 -0.00831
C 7.27279 15.63096 0.00364
C 7.44575 17.01442 -0.017
C 8.50458 17.88676 0.00143
C 8.54597 19.20216 0.00667
C 7.29918 19.98304 -0.0054
C 7.41407 21.34531 0.00755
C 8.63031 22.06462 0.01739
C 8.63115 23.45522 0.03754
C 7.37542 24.13741 -0.03557
C 7.37418 25.53024 -0.00111
C 7.42646 8.50645 -0.00703
C 9.88544 24.29898 0.00199
C 10.95778 23.39634 0.01511
C 10.9709 22.20476 -0.00478
C 18.54986 2.11829 0.00135
C 17.22364 2.8853 -0.00498
C 17.286 4.26937 0.02737
C 14.79328 33.97406 0.02117
C 16.01386 0.68068 -0.04078
C 16.00889 2.14117 0.03005
C 14.78764 2.83135 -0.0276
C 14.55224 4.2453 0.00768
C 14.78127 32.67433 -0.00178
C 12.39033 34.04915 0.00733
C 13.56522 0.75831 -0.02118
C 13.53314 2.17008 -0.01971
C 12.26781 2.91672 -0.01586
C 12.25221 4.34315 -0.01107
C 13.52804 4.79527 0.00071
C 12.21751 28.37791 -0.00225
C 12.37628 29.82377 0.01515
C 9.93327 21.21472 -0.01662
C 9.71741 19.91786 -0.01185
C 9.79787 8.49082 0.01126
C 9.99002 7.12396 0.01852
C 11.18777 6.42937 -0.00381
C 11.06311 4.99424 0.03046
C 8.59598 26.33527 0.04892
C 9.84405 4.1992 0.0296
C 11.07549 2.10225 -0.02845
C 11.04173 0.69746 -0.03213
C 9.79035 33.97523 0.02239
C 12.31626 32.65545 0.01153
C 13.67843 31.89217 0.02734
C 13.43786 30.57986 -0.0055
C 9.8149 2.78722 0.03374
C 18.40451 0.56649 0.03102
C 8.57684 27.72175 0.01452
C 7.36192 29.85311 0.02691
C 2.49353 34.06358 -0.01957
C 3.71575 0.70017 0.02058
C 3.69025 2.10038 0.01965
C 2.46877 2.85574 -0.03682
C 2.51256 4.32835 0.00052
C 3.73097 5.00821 0.00374
C 3.70435 6.39031 -0.02813
C 2.4248 7.02235 -0.01952
C 2.4255 8.46401 0.05265
C 3.70254 9.20431 -0.01717
C 3.74592 10.67113 0.00244
C 2.40775 11.37212 0.02299
C 2.45264 12.77656 0.03542
C 3.63119 13.47307 0.01416
C 4.93239 32.67863 -0.0108
C 3.66176 14.88422 0.01945
C 2.45834 17.04402 0.01241
C 3.71448 17.75306 0.0076
C 3.67324 19.14897 0.02162
C 2.4114 19.80916 -0.0014
C 2.42969 21.26036 0.00415
C 3.63784 21.99512 -0.02162
C 3.65612 23.36485 0.01363
C 2.50839 24.14181 0.01877
C 2.49877 25.57451 -0.00925
C 3.68878 26.32671 0.00444
C 3.69992 27.71046 -0.01789
C 2.4494 28.43523 0.02894
C 2.44642 29.83413 -0.02971
C 3.66364 30.59524 0.00165
C 2.3981 15.61706 -0.01454
C 6.10543 31.94449 -0.00368
C 6.0917 30.59309 -0.02696
C 4.8602 29.90659 -0.00114
C 8.58562 30.57551 -0.01979
C 8.59681 31.96981 0.02188
C 7.37592 32.57941 -0.00316
C 4.97281 0.02717 -0.0331
C 6.15668 0.74264 -0.0258
C 6.1795 2.17542 0.03338
C 4.87683 2.8995 -0.00491
C 4.93733 4.32082 -0.00109
C 6.17846 4.91203 0.03698
C 6.12274 6.35945 -0.02213
C 4.86474 7.09786 0.00028
C 4.97635 8.49231 -0.00289
C 6.23025 9.22558 -0.00066
C 6.17488 10.6205 0.00213
C 5.00738 11.34515 -0.05302
C 4.85043 12.7574 -0.04147
C 6.12329 13.46859 -0.02815
C 4.88506 28.4578 0.00228
C 6.14395 27.74927 0.00798
C 6.19223 26.23736 0.00422
C 4.89374 25.58851 0.0351
C 4.94783 24.13602 -0.03113
C 6.12646 23.35666 0.02098
C 7.35913 28.44339 -0.01581
C 6.11741 21.98892 0.01848
C 4.8692 19.95609 -0.02162
C 6.08689 19.26462 0.00889
C 6.13438 17.8143 -0.00481
C 4.98375 17.03607 0.00979
C 4.90786 15.53098 0.01443
C 6.2063 14.9155 0.03505
C 4.86086 21.33013 -0.00619
C 3.68907 32.01561 0.02819
C 17.16664 0.02735 0.02555
C 20.86537 2.13161 -0.00285
C 31.99603 4.2546 -0.03838
C 33.21676 4.97556 0.04926
C 33.17238 6.38088 -0.00069
C 31.99714 7.13305 0.01504
C 31.97129 8.59705 0.02806
C 33.21773 9.23577 0.04381
C 33.24948 10.65202 0.00199
C 32.02119 11.36494 0.00137
C 31.99095 12.75352 -0.01839
C 33.19343 13.39704 -0.00644
C 33.13577 14.83535 0.00455
C 31.90348 15.57984 0.00369
C 31.95472 16.94543 -0.02474
C 33.20255 17.72477 0.00594
C 31.96513 2.81981 0.00349
C 33.1514 19.18757 -0.0136
C 31.97739 21.26735 -0.02383
C 33.18774 22.0473 0.01574
C 33.19967 23.48797 0.01927
C 31.97248 24.14688 0.03794
C 31.92461 25.58916 -0.01779
C 33.16298 26.33328 0.00682
C 33.20612 27.72317 0.00026
C 31.9648 28.44773 0.0544
C 31.9576 29.87291 -0.02142
C 33.20917 30.56851 0.01428
C 33.14716 31.99068 -0.01694
C 31.98234 32.71273 0.01713
C 29.50973 0.05148 0.00346
C 30.71473 0.77779 0.00307
C 31.90527 19.87165 -0.01429
C 33.20105 2.16833 -0.00323
C 33.16647 0.75561 -0.00841
C 31.91265 0.03918 0.0001
C 1.22649 0.72238 -0.00468
C 1.25273 2.13295 -0.00939
C 34.42075 2.87072 -0.00931
C 34.4192 4.31341 -0.0345
C 1.2171 4.98742 0.00628
C 1.14029 6.39034 0.02931
C 34.35371 7.11808 -0.02849
C 34.41308 8.52461 -0.02302
C 1.22341 9.23135 -0.00583
C 1.19454 10.67637 -0.00027
C 34.42495 11.40341 -0.02442
C 0.02647 12.8299 -0.02656
C 1.23933 13.4709 0.00343
C 1.19483 14.89951 -0.02957
C 34.37576 15.58655 0.02114
C 34.39887 17.05707 0.00648
C 1.21153 17.78275 0.01223
C 34.37537 32.7216 -0.02927
C 1.16658 31.93689 -0.01404
C 1.20375 30.52764 0.01027
C 0.00062 29.85043 0.01831
C 34.41267 28.42129 -0.01037
C 1.20974 27.7659 -0.00439
C 30.75172 2.16812 0.00716
C 1.21425 26.29001 -0.00598
C 0.00269 24.21546 0.03076
C 1.25669 23.4827 0.00723
C 1.2355 22.05557 0.02712
C 34.41904 21.32827 -0.02213
C 34.40894 19.89573 0.01951
C 1.17343 19.15807 -0.01678
C 34.37612 25.61955 -0.05239
C 19.72018 2.74867 0.01423
C 29.51395 2.78393 0.02108
C 30.77783 4.95725 0.07705
C 28.25329 9.23888 -0.00621
C 28.25452 10.6807 0.00194
C 27.13221 11.49684 0.04185
C 27.06855 12.64188 0.02316
C 28.19184 13.47585 0.01257
C 28.20145 14.89683 0.00152
C 27.19145 15.69659 -0.00294
C 27.10502 16.91971 0.00826
C 28.25392 17.77396 0.00487
C 28.31424 19.08361 -0.00942
C 28.29794 30.57812 -0.02815
C 28.25206 31.90146 0.00622
C 26.97782 32.61118 -0.0032
C 24.61449 34.02727 -0.00037
C 27.04672 8.48483 0.02611
C 25.80226 0.76719 -0.01654
C 24.5624 2.87166 -0.00802
C 24.50597 4.35351 0.00195
C 25.77817 5.0021 0.00996
C 25.88167 6.27903 0.04306
C 25.76215 32.03428 0.00367
C 24.78239 32.64813 -0.01679
C 22.21421 34.07625 -0.01052
C 23.38408 0.57922 0.00684
C 23.34676 2.10678 -0.01154
C 22.16744 2.82435 -0.0264
C 22.23727 4.25144 -0.00938
C 23.24959 4.83527 -0.00229
C 19.63971 0.07216 -0.01199
C 20.88363 0.53886 -0.009
C 25.84296 2.23191 -0.00218
C 26.98208 7.14001 0.02198
C 28.31548 6.46205 0.01094
C 28.25436 5.05062 0.00235
C 30.76772 6.38448 0.01908
C 29.54423 7.15006 0.01518
C 29.57063 8.57768 -0.00971
C 30.77039 9.20078 -0.03735
C 30.73166 10.66587 -0.00944
C 29.50079 11.41221 -0.02155
C 29.53561 12.81047 -0.01461
C 30.77071 13.5072 -0.01303
C 30.65335 14.87562 -0.0405
C 29.45112 15.59205 0.01705
C 29.53116 16.98666 0.0101
C 30.74215 17.74289 -0.00669
C 30.68666 19.1297 0.03531
C 29.35386 19.94689 0.01836
C 29.5596 21.24151 -0.03039
C 30.71671 21.94333 -0.01415
C 30.69795 23.37543 -0.01854
C 27.05313 4.37025 0.01495
C 27.08888 2.93508 0.01259
C 28.28154 2.12812 0.01799
C 28.27292 0.69378 0.01699
C 26.96815 0.00105 -0.00416
C 29.50217 32.66271 0.01177
C 29.54191 4.29242 0.0103
C 30.72179 31.9641 0.04266
C 29.43737 29.79286 0.0014
C 29.51636 28.44242 0.00924
C 30.70062 27.77512 0.02326
C 30.67576 26.33039 0.00261
C 29.51237 25.40953 0.03265
C 29.48895 24.27124 -0.02049
C 30.75992 30.54372 0.01324
C 2.40673 32.67531 -0.00891
