351
Graphene
C 34.43297 34.03096 0.01295
C 17.25628 21.28599 0.00228
C 17.16398 19.95002 0.00798
C 18.45991 19.1796 0.00422
C 18.39156 17.69778 0.0351
C 17.14884 17.09004 -0.03113
C 17.2759 15.64268 0.02098
C 18.45184 14.90125 0.01848
C 18.25795 13.49265 -0.00619
C 18.38045 22.03766 -0.00114
C 18.49073 6.36873 -0.02162
C 17.38502 4.24779 -0.00481
C 17.12128 2.88497 0.00979
C 18.43435 2.17254 0.01443
C 18.48879 0.76474 0.03505
C 17.24456 0.02308 -0.02815
C 19.63615 32.63027 -0.04147
C 20.88167 31.89186 -0.05302
C 20.90221 30.51368 0.00213
C 18.5396 4.96849 0.00889
C 19.62558 29.84359 -0.00066
C 18.42786 23.55372 -0.02696
C 17.26584 25.51858 -0.0108
C 15.92611 22.01173 0.0076
C 14.68089 21.23366 0.01241
C 14.61136 19.82886 -0.01454
C 15.95493 19.18006 0.01945
C 15.90742 17.80621 0.01416
C 14.72853 17.13178 0.03542
C 14.86437 15.74494 0.02299
C 15.94477 15.11089 0.00244
C 17.24654 24.19324 -0.00368
C 15.90335 2.16769 -0.01717
C 14.811 0.05756 -0.01952
C 17.15116 32.65913 -0.02813
C 18.43287 31.8758 0.00374
C 18.43412 30.51742 0.00052
C 17.17522 29.8422 -0.03682
C 17.19231 28.36238 0.01965
C 18.3551 27.65677 0.02058
C 18.43698 26.24474 -0.01957
C 16.08432 0.69859 0.05265
C 15.91594 23.38352 0.02162
C 19.61543 28.39839 -0.00289
C 20.885 26.2272 -0.02213
C 20.9644 2.0115 0.00364
C 20.92241 0.63701 -0.00831
C 19.63589 0.07438 -0.02957
C 22.08972 32.62542 -0.04422
C 23.31288 31.87557 0.00654
C 23.32668 30.48411 -0.00703
C 22.09865 29.74828 -0.04076
C 22.08004 28.28678 -0.00652
C 19.68458 2.85873 -0.017
C 23.35826 27.65163 0.0058
C 22.09518 25.5411 0.00675
C 22.12467 24.15272 -0.00311
C 23.35003 23.41962 0.00742
C 23.35456 22.02426 -0.01594
C 22.1385 21.3328 0.0106
C 22.12026 19.90476 -0.01154
C 23.3584 19.23882 -0.01721
C 23.32647 17.77925 -0.02422
C 23.37207 26.15203 -0.00865
C 20.82959 27.62771 0.00028
C 19.74281 4.27877 0.00143
C 20.84367 6.43199 -0.0054
C 19.62545 25.47199 0.03698
C 19.69207 24.09628 -0.00109
C 20.9167 23.37782 -0.00491
C 20.89249 21.99074 0.03338
C 19.61926 21.38372 -0.0258
C 19.67827 20.00558 -0.0331
C 20.89433 19.13785 -0.00316
C 20.88618 17.70892 0.02188
C 20.93263 5.02766 0.00667
C 19.61345 16.98716 -0.01979
C 20.8376 14.87614 -0.01581
C 20.71273 13.44948 0.01452
C 19.45803 12.66231 0.04892
C 19.73023 11.26978 -0.00111
C 20.94581 10.65102 -0.03557
C 20.88671 9.23439 0.03754
C 19.6488 8.6973 0.01739
C 19.60713 7.25083 0.00755
C 19.65223 15.61416 0.02691
C 22.10604 16.98067 0.01277
C 14.68606 24.15325 -0.0014
C 15.94044 26.23882 -0.02162
C 4.87193 32.6741 0.01572
C 6.1261 31.95103 -0.04848
C 6.13111 30.49986 -0.00892
C 4.88266 29.77007 -0.01362
C 4.9659 28.34895 -0.0008
C 6.19817 27.66864 0.0288
C 4.81183 15.47064 0.00393
C 6.13491 15.29234 0.00895
C 2.45152 34.05971 -0.00095
C 4.84142 12.7546 0.00685
C 6.09264 2.31714 -0.00482
C 6.10473 0.76891 -0.01384
C 4.86858 0.13053 0.03693
C 7.34611 32.74257 0.01745
C 8.57297 31.946 0.00488
C 8.57475 30.55366 -0.01004
C 7.35908 29.87201 -0.02896
C 7.34866 28.34076 -0.00131
C 4.95618 2.80604 0.02888
C 8.58834 27.70476 -0.01118
C 3.67727 0.76029 0.03007
C 2.41023 2.88701 -0.00494
C 3.66704 30.48081 0.01305
C 2.44839 29.69468 -0.00077
C 2.50204 28.28586 0.03368
C 3.75499 27.62182 -0.02929
C 3.57748 26.14091 -0.00966
C 2.4588 25.68559 -0.03337
C 2.29698 17.03115 0.01227
C 2.30638 15.72165 0.00873
C 3.68783 2.14437 0.00054
C 3.46442 14.93974 -0.00049
C 2.42898 12.87286 -0.01303
C 2.42853 11.39081 -0.01378
C 3.75783 10.68584 0.02635
C 3.55984 9.42483 0.0127
C 2.68996 8.31627 0.01396
C 2.69324 6.72866 0.01849
C 3.6933 5.12988 -0.01142
C 2.42355 4.24015 -0.00562
C 3.68698 13.53966 0.00848
C 14.72844 25.60868 0.00415
C 8.83363 26.20831 -0.014
C 8.55952 2.18049 0.00373
C 13.52431 26.29736 -0.01275
C 12.37019 25.6305 0.00985
C 12.14933 24.17268 -0.02245
C 13.49962 23.46706 -0.00428
C 13.48873 21.99912 0.03101
C 12.12026 21.4964 -0.01536
C 11.99846 20.04582 -0.02689
C 13.33254 19.25687 -0.01046
C 13.56708 27.81922 -0.01111
C 13.51285 17.86327 -0.00891
C 13.61869 0.74641 0.00165
C 12.23475 0.29339 -0.02971
C 14.7356 32.72242 0.02894
C 15.94033 31.9883 -0.01789
C 16.00476 30.64432 0.00444
C 14.73757 29.8737 -0.00925
C 14.76737 28.50782 0.01877
C 15.90781 27.69719 0.01363
C 12.35459 17.09104 0.02819
C 7.54365 15.25994 0.02147
C 12.30031 28.44031 0.02841
C 13.49762 30.62435 0.00406
C 8.46023 0.75747 -0.00191
C 7.24637 0.04184 0.00438
C 9.82623 32.77459 0.01291
C 11.12745 32.14339 0.00093
C 11.10357 30.59369 0.00057
C 9.81991 29.86731 -0.01634
C 9.85224 28.44759 -0.00334
C 11.05829 27.76405 0.02339
C 12.29255 29.8653 0.00943
C 11.18541 26.32078 0.01641
C 10.92975 23.50785 0.01364
C 10.90448 18.98299 -0.01062
C 11.11228 17.53626 -0.00033
C 9.77889 18.35675 0.03589
C 10.95809 0.7662 -0.02759
C 9.72341 0.13259 0.0402
C 12.27742 32.85044 0.00572
C 13.50904 32.08946 0.03592
C 9.84361 25.57563 -0.00719
C 3.66363 31.8957 0.0276
C 22.11659 15.57988 0.00096
C 23.27713 13.54378 0.01087
C 33.15001 31.88624 -0.01694
C 33.20997 30.49072 0.01428
C 31.92465 29.87841 -0.02142
C 31.88318 28.44237 0.0544
C 33.14756 27.66794 0.00026
C 33.18503 26.30974 0.00682
C 31.9114 25.66229 -0.01779
C 31.98347 24.2292 0.03794
C 32.0051 32.65813 0.01713
C 33.10882 23.44516 0.01927
C 31.95121 21.41081 -0.02383
C 31.97402 19.98693 -0.01429
C 33.10062 19.20761 -0.0136
C 33.20401 17.76768 0.00594
C 31.96475 17.06872 -0.02474
C 31.89999 15.60291 0.00369
C 33.08713 14.94951 0.00455
C 33.17319 13.51668 -0.00644
C 33.25657 22.05589 0.01574
C 31.96981 12.76203 -0.01839
C 29.49791 34.03404 0.00346
C 30.74577 2.1434 0.00716
C 29.49308 21.36629 -0.03039
C 29.53218 19.9788 0.01836
C 30.7557 19.2471 0.03531
C 30.73846 17.84184 -0.00669
C 29.45149 17.06784 0.0101
C 29.4387 15.69633 0.01705
C 30.70326 14.88721 -0.0405
C 30.68678 13.45763 -0.01303
C 30.80266 0.65931 0.00307
C 29.47231 12.70948 -0.01461
C 30.80051 10.62583 -0.00944
C 30.82479 9.16144 -0.03735
C 29.51385 8.5091 -0.00971
C 29.53943 7.02824 0.01518
C 30.77059 6.29671 0.01908
C 30.80482 4.90632 0.07705
C 29.53107 4.21946 0.0103
C 29.52179 2.80548 0.02108
C 29.49827 11.27914 -0.02155
C 30.74726 22.10819 -0.01415
C 32.02091 11.33758 0.00137
C 33.34055 9.17928 0.04381
C 1.05264 19.22394 -0.01678
C 1.20657 17.85867 0.01223
C 34.42814 17.09487 0.00648
C 34.29238 15.61383 0.02114
C 1.0309 14.91531 -0.02957
C 1.24775 13.47191 0.00343
C 0.05376 12.72966 -0.02656
C 0.03622 11.34466 -0.02442
C 34.27611 19.89715 0.01951
C 1.29029 10.6272 -0.00027
C 0.20299 8.47741 -0.02302
C 0.03599 7.14588 -0.02849
C 1.34204 6.40085 0.02931
C 1.18151 4.95692 0.00628
C 34.41707 4.28714 -0.0345
C 0.01588 2.8409 -0.00931
C 1.22669 2.10663 -0.00939
C 1.27157 0.71541 -0.00468
C 1.46011 9.13166 -0.00583
C 33.26418 10.65097 0.00199
C 34.3891 21.30306 -0.02213
C 1.18269 23.43335 0.00723
C 32.05674 8.50712 0.02806
C 31.97167 7.11305 0.01504
C 33.15969 6.47287 -0.00069
C 33.18383 4.98416 0.04926
C 32.00254 4.24493 -0.03838
C 31.98091 2.77885 0.00349
C 33.24536 2.16323 -0.00323
C 33.25689 0.65686 -0.00841
C 1.04715 22.25372 0.02712
C 32.0449 34.07842 0.0001
C 1.22153 31.95216 -0.01404
C 1.22739 30.51346 0.01027
C 0.03011 29.8125 0.01831
C 34.38782 28.36283 -0.01037
C 1.19998 27.74624 -0.00439
C 1.20464 26.27177 -0.00598
C 34.40628 25.61041 -0.05239
C 34.30758 24.20007 0.03076
C 34.37086 32.62201 -0.02927
C 23.33615 14.87592 -0.01527
C 30.72406 23.48193 -0.01854
C 29.4281 25.60153 0.03265
C 25.82485 23.41905 -0.01971
C 25.75305 21.9903 -0.02118
C 24.6068 21.22502 0.00733
C 24.65801 19.91631 -0.00178
C 25.92894 19.18251 0.00768
C 25.77751 17.82048 -0.0276
C 24.534 17.07766 0.03005
C 24.56202 15.60704 -0.04078
C 24.59827 24.13757 -0.01586
C 25.79713 14.9087 0.02117
C 24.55413 12.80128 -0.00498
C 24.64512 11.35645 0.00135
C 25.81308 10.59192 0.03102
C 25.81744 9.21139 0.02555
C 24.57389 8.53272 0.01423
C 24.59108 7.02754 -0.00285
C 25.82179 6.25556 -0.009
C 25.87418 4.87576 -0.01199
C 25.77302 13.49892 0.02737
C 24.70264 4.25215 -0.00229
C 24.58366 25.50423 -0.01107
C 25.7814 27.70339 -0.00225
C 22.03033 12.80817 0.00199
C 22.18137 11.3323 0.01511
C 23.40652 10.63682 -0.00478
C 23.38162 9.15287 -0.01662
C 22.1452 8.45748 -0.01185
C 22.10184 7.10178 0.01126
C 23.34451 6.4052 0.01852
C 23.37984 4.98816 -0.00381
C 25.82358 26.23799 0.00071
C 22.15022 4.3061 0.03046
C 23.41028 2.0858 0.03374
C 23.31486 0.61518 -0.02845
C 22.10843 34.00579 -0.03213
C 24.53129 32.62155 0.02239
C 25.79725 31.94522 0.01153
C 25.76603 30.51146 0.02734
C 24.50756 29.79487 -0.0055
C 24.57377 28.38689 0.01515
C 22.15215 2.8544 0.0296
C 29.46877 24.20755 -0.02049
C 24.564 2.78057 -0.00938
C 25.78866 0.58138 -0.01154
C 28.23657 10.65176 0.00194
C 28.24907 9.21409 -0.00621
C 27.06866 8.42657 0.02611
C 27.08496 7.05728 0.02198
C 28.30492 6.39539 0.01094
C 28.3084 4.91081 0.00235
C 27.11536 4.13866 0.01495
C 27.05579 2.75504 0.01259
C 27.03479 11.3498 0.04185
C 28.37742 2.0884 0.01799
C 27.0122 33.98677 -0.00416
C 29.46728 32.61983 0.01177
C 30.70299 31.96955 0.04266
C 30.69139 30.51915 0.01324
C 29.39802 29.83787 0.0014
C 29.38366 28.44088 0.00924
C 30.64009 27.80005 0.02326
C 30.69814 26.3449 0.00261
C 28.32567 0.71514 0.01699
C 25.86567 2.04563 -0.0264
C 27.00824 12.85612 0.02316
C 28.25776 14.89257 0.00152
C 24.52111 34.06995 0.00684
C 27.12852 32.6621 -0.01052
C 28.2071 31.96002 -0.01679
C 28.1619 30.53583 0.00367
C 26.9389 29.78987 0.04306
C 26.99219 28.41504 0.00996
C 28.19586 27.69661 0.00195
C 28.27025 26.28858 -0.00802
C 28.21215 13.50856 0.01257
C 27.02477 25.52004 -0.00218
C 28.3281 23.51445 -0.00037
C 28.28268 22.06417 -0.0032
C 27.0082 21.33971 0.00622
C 27.05204 19.91609 -0.02815
C 28.27078 19.19708 -0.00942
C 28.20483 17.73543 0.00487
C 27.01989 17.09622 0.00826
C 26.9608 15.66133 -0.00294
C 27.07614 24.10747 -0.01654
C 2.42666 32.64096 0.00988
