445
Graphene
C 34.42854 0.05631 0.01295
C 13.50971 17.76385 0.01291
C 12.32491 17.01704 0.00093
C 12.3189 15.57393 0.00057
C 13.50228 14.96226 -0.01634
C 13.46571 13.51027 -0.00334
C 12.23094 12.84612 0.02339
C 12.28687 11.43241 0.01641
C 13.57334 10.73081 -0.00719
C 13.56505 9.33338 0.01364
C 12.40877 8.61634 -0.01062
C 12.29888 7.18375 -0.00033
C 13.45196 6.35757 0.03589
C 13.45487 4.95626 -0.02759
C 12.22818 4.31119 0.0402
C 12.25685 2.83955 0.00572
C 13.46616 2.25816 0.03592
C 13.53817 0.86018 0.00406
C 12.33594 0.09709 0.00943
C 14.71959 32.64724 0.02841
C 15.92539 31.87811 -0.01111
C 15.9146 30.55323 -0.01275
C 14.67293 29.84105 0.00985
C 14.83923 28.42986 -0.02245
C 13.47975 19.16243 0.00438
C 12.13071 19.88301 -0.00191
C 12.17087 21.33836 0.00373
C 13.4532 22.08568 0.02147
C 10.95339 13.53738 -0.00494
C 9.76976 12.79104 0.00054
C 9.80125 11.39497 0.03007
C 11.03651 10.74351 -0.00095
C 11.13509 9.27884 0.01572
C 9.82886 8.60265 -0.04848
C 9.85697 7.10537 -0.00892
C 11.07424 6.4182 -0.01362
C 11.06731 4.99359 -0.0008
C 9.78078 4.26808 0.0288
C 9.72379 2.89712 0.00393
C 16.00165 27.734 -0.00428
C 11.04753 2.14277 0.00895
C 9.76486 0.05883 0.02888
C 12.31549 32.73338 -0.00482
C 13.40183 31.89485 -0.01384
C 13.45231 30.47055 0.03693
C 12.2743 29.75655 0.01745
C 12.28548 28.40879 0.00488
C 13.54431 27.67191 -0.01004
C 13.56056 26.3241 -0.02896
C 12.33612 25.59422 -0.00131
C 12.25057 24.18536 -0.01118
C 13.38331 23.47037 -0.014
C 10.97618 0.80264 0.00685
C 15.91748 26.26671 0.03101
C 14.70444 25.53768 -0.01536
C 14.66993 24.16243 -0.02689
C 18.37805 27.69697 0.00052
C 18.46704 26.3557 -0.03682
C 17.14643 25.60608 0.01965
C 17.13493 24.13803 0.02058
C 18.33095 23.49925 -0.01957
C 18.44083 22.0724 -0.0108
C 17.1662 21.47065 -0.00368
C 17.14661 20.02399 -0.02696
C 18.35164 19.25705 -0.00114
C 18.40401 17.69889 0.00228
C 17.15817 17.02306 0.00798
C 17.19991 28.49316 0.00374
C 17.17967 15.59232 0.00422
C 18.42124 13.37796 -0.03113
C 17.14513 12.76516 0.02098
C 17.17575 11.34019 0.01848
C 18.42236 10.64721 -0.00619
C 18.42135 9.22133 -0.02162
C 17.233 8.48343 0.00889
C 17.13816 7.07201 -0.00481
C 18.4114 6.31125 0.00979
C 18.4584 4.96593 0.01443
C 17.2273 4.22682 0.03505
C 17.21014 2.79989 -0.02815
C 18.39274 14.87543 0.0351
C 10.97811 14.96765 -0.00562
C 17.16695 29.87787 -0.02813
C 18.45895 31.94679 0.05265
C 15.94975 23.47076 -0.01046
C 15.92884 22.03118 -0.00891
C 14.64362 21.36543 0.02819
C 14.64287 19.97824 0.00165
C 15.91592 19.27687 -0.02971
C 15.89885 17.80435 0.02894
C 14.7213 17.07665 -0.01789
C 14.75635 15.67939 0.00444
C 15.97458 14.93084 -0.00925
C 15.91967 13.5692 0.01877
C 14.68306 12.83365 0.01363
C 18.43199 30.5102 -0.01952
C 14.73761 11.38538 -0.02162
C 16.00918 9.17954 -0.0014
C 14.75478 8.49362 0.02162
C 14.68506 7.02854 0.0076
C 15.8949 6.39563 0.01241
C 15.99424 4.90738 -0.01454
C 14.72748 4.21181 0.01945
C 14.76487 2.86602 0.01416
C 15.97817 2.12766 0.03542
C 16.02251 0.61983 0.02299
C 14.71954 34.04263 0.00244
C 17.1131 32.59822 -0.01717
C 15.93532 10.65981 0.00415
C 9.85056 15.7463 -0.01142
C 9.79379 17.12292 0.01849
C 11.03366 17.73496 0.01396
C 3.62612 0.7935 -0.01299
C 2.43984 0.07085 -0.00407
C 4.94413 32.75738 0.01138
C 6.1209 32.02311 0.03278
C 6.10458 30.53778 -0.00177
C 4.90502 29.85916 0.04421
C 4.79963 28.38893 0.00088
C 6.09503 27.73286 0.00828
C 6.11693 26.25775 -0.02375
C 4.92322 25.46373 0.00558
C 4.86891 24.10504 -0.0059
C 3.72531 2.19559 -0.0154
C 6.14693 23.39497 -0.01386
C 4.79677 21.34209 0.00081
C 4.82026 19.89529 0.00245
C 6.08468 19.22701 0.02728
C 6.08572 17.84389 -0.00039
C 4.89648 17.02532 0.0064
C 4.89247 15.6204 0.00211
C 6.20347 14.9839 -0.00449
C 6.09621 13.54918 -0.01979
C 4.88608 12.82097 0.02784
C 4.81884 11.35768 -0.01977
C 6.14676 10.67703 -0.00561
C 6.03312 21.97499 -0.02805
C 6.14633 9.32568 0.00208
C 2.55197 2.85388 0.00662
C 3.73718 5.04888 0.03345
C 3.63528 30.59588 -0.02419
C 2.49105 29.74741 -0.03951
C 2.46181 28.30154 -0.00141
C 3.64488 27.59707 -0.00374
C 3.71401 26.21174 -0.0213
C 2.38926 25.64015 0.01116
C 2.26547 24.08618 -0.0005
C 3.5893 23.47752 -0.00018
C 3.5751 22.14136 0.01073
C 2.41394 21.27818 0.01984
C 2.3985 19.82881 0.00535
C 2.4977 4.35289 0.00748
C 3.61186 19.14139 -0.00198
C 2.3627 17.00592 -0.04306
C 2.3818 15.58451 -0.03672
C 3.56527 14.99924 0.01913
C 3.64432 13.516 0.00267
C 2.41177 12.73159 0.00787
C 2.44146 11.33276 0.02426
C 3.70506 10.66184 0.01218
C 3.7275 9.19816 -0.01471
C 2.43577 8.48991 -0.02827
C 2.46818 7.07911 0.01078
C 3.73225 6.4425 -0.00112
C 3.57349 17.75111 -0.00012
C 18.41974 2.10601 -0.04147
C 4.96492 8.58516 0.01707
C 6.17752 6.42705 -0.03291
C 8.6496 9.30735 -0.03113
C 7.36506 8.59664 -0.02566
C 7.34168 7.22864 -0.00094
C 8.55307 6.41922 0.02322
C 8.58144 4.9613 -0.00725
C 7.36038 4.30917 -0.05697
C 7.34848 2.94956 0.01087
C 8.56212 2.20439 -0.01343
C 8.61353 0.81443 0.00988
C 7.40899 0.0216 0.0276
C 9.83848 32.70265 0.01305
C 8.63099 10.7466 0.017
C 11.08596 31.93558 -0.00077
C 9.82883 29.84997 -0.02929
C 9.82546 28.43592 -0.00966
C 11.029 27.65024 -0.03337
C 11.0598 26.19381 0.01227
C 9.79076 25.65496 0.00873
C 9.72761 24.14759 -0.00049
C 10.96344 23.52128 0.00848
C 11.01678 22.09542 -0.01303
C 9.76062 21.3688 -0.01378
C 9.85716 19.97535 0.02635
C 10.92348 19.23188 0.0127
C 11.07375 30.5353 0.03368
C 4.93663 7.15821 0.02769
C 7.44328 11.38326 -0.00643
C 8.54931 13.54524 -0.00518
C 6.14841 5.04761 -0.04999
C 4.92138 4.28686 0.04505
C 4.97381 2.8331 0.03284
C 6.16788 2.22172 -0.04307
C 6.12307 0.74072 0.03189
C 4.90631 0.09619 0.00031
C 7.38144 32.67884 -0.003
C 8.68319 31.93182 0.01402
C 8.61025 30.56248 0.02379
C 7.37358 29.88371 0.00907
C 7.362 28.47919 0.00643
C 7.34074 12.80212 0.0086
C 8.589 27.73588 -0.01509
C 7.34382 25.54092 0.02374
C 7.30258 24.11523 0.00402
C 8.52765 23.44812 0.0073
C 8.53212 22.05274 0.0174
C 7.29493 21.32268 0.03828
C 7.2965 19.86905 0.01226
C 8.52622 19.32795 -0.00279
C 8.55386 17.8446 0.01996
C 7.30406 17.21796 -0.03996
C 7.35465 15.79324 0.01465
C 8.57256 15.04599 -0.00074
C 8.55932 26.30936 0.03267
C 3.67808 32.03956 0.02438
C 18.37556 0.75473 -0.05302
C 19.57685 32.72946 -0.00066
C 29.39942 15.66541 0.01705
C 30.6145 14.87718 -0.0405
C 30.51023 13.4613 -0.01303
C 29.20156 12.90179 -0.01461
C 29.36535 11.48375 -0.02155
C 30.62154 10.68982 -0.00944
C 30.66147 9.34844 -0.03735
C 29.48825 8.55643 -0.00971
C 29.51694 7.08455 0.01518
C 30.78961 6.40896 0.01908
C 30.72107 4.95845 0.07705
C 29.41917 4.21533 0.0103
C 29.54049 2.84141 0.02108
C 30.76536 2.04523 0.00716
C 30.7182 0.61612 0.00307
C 29.43233 34.07617 0.00346
C 31.86988 32.5755 0.01713
C 33.17787 31.93325 -0.01694
C 33.18837 30.52709 0.01428
C 31.95214 29.78138 -0.02142
C 31.93072 28.36183 0.0544
C 33.1424 27.74201 0.00026
C 33.1782 26.34164 0.00682
C 29.53767 17.0091 0.0101
C 30.68154 17.72192 -0.00669
C 30.64159 19.2118 0.03531
C 29.41103 19.93409 0.01836
C 26.93181 11.45859 0.04185
C 28.08919 10.76542 0.00194
C 28.20862 9.3173 -0.00621
C 27.09727 8.51438 0.02611
C 27.04215 7.08273 0.02198
C 28.24871 6.35663 0.01094
C 28.25137 4.96037 0.00235
C 27.03703 4.21483 0.01495
C 26.96406 2.82631 0.01259
C 28.23407 2.10617 0.01799
C 28.21896 0.77688 0.01699
C 31.94531 25.61595 -0.01779
C 26.9733 0.06461 -0.00416
C 30.77604 31.84905 0.04266
C 30.79494 30.52084 0.01324
C 29.52443 29.91588 0.0014
C 29.44855 28.5324 0.00924
C 30.72311 27.70929 0.02326
C 30.74285 26.25314 0.00261
C 29.56771 25.51806 0.03265
C 29.52222 24.05361 -0.02049
C 30.80274 23.44029 -0.01854
C 30.72884 22.01445 -0.01415
C 29.53758 21.33832 -0.03039
C 29.47704 32.66829 0.01177
C 32.04975 24.1708 0.03794
C 33.20036 23.39332 0.01927
C 33.18366 21.985 0.01574
C 34.41981 25.58027 -0.05239
C 34.3563 24.17173 0.03076
C 1.11482 23.42993 0.00723
C 1.20212 21.97158 0.02712
C 34.36433 21.23031 -0.02213
C 34.37449 19.86236 0.01951
C 1.21371 19.16109 -0.01678
C 1.21785 17.74747 0.01223
C 34.37858 17.0457 0.00648
C 34.35501 15.61683 0.02114
C 1.15887 14.85714 -0.02957
C 1.20981 26.32947 -0.00598
C 1.15072 13.45234 0.00343
C 34.34911 11.34033 -0.02442
C 1.24885 10.65888 -0.00027
C 1.24924 9.21007 -0.00583
C 34.42406 8.49541 -0.02302
C 34.40388 7.07701 -0.02849
C 1.12578 6.40901 0.02931
C 1.20296 5.00957 0.00628
C 0.06175 4.1804 -0.0345
C 0.0683 2.74057 -0.00931
C 1.31118 2.14499 -0.00939
C 1.25112 0.76639 -0.00468
C 34.31272 12.71055 -0.02656
C 26.42039 12.88424 0.02316
C 1.19382 27.69941 -0.00439
C 0.01244 29.80154 0.01831
C 31.97718 21.3371 -0.02383
C 31.92555 19.9117 -0.01429
C 33.13384 19.17061 -0.0136
C 33.1206 17.76318 0.00594
C 31.88496 17.06558 -0.02474
C 31.88844 15.47342 0.00369
C 33.12839 14.81914 0.00455
C 33.06585 13.463 -0.00644
C 31.81324 12.78813 -0.01839
C 31.90069 11.31671 0.00137
C 33.08552 10.62028 0.00199
C 34.40741 28.45265 -0.01037
C 33.1447 9.20333 0.04381
C 31.99627 7.11386 0.01504
C 33.23797 6.36768 -0.00069
C 33.19333 4.94987 0.04926
C 31.94494 4.20631 -0.03838
C 31.97896 2.79324 0.00349
C 33.19064 2.0612 -0.00323
C 33.17859 0.65558 -0.00841
C 31.94761 34.00794 0.0001
C 34.38806 32.70606 -0.02927
C 1.24322 31.94728 -0.01404
C 1.25417 30.56596 0.01027
C 31.97592 8.4622 0.02806
C 27.59956 13.75276 0.01257
C 27.91132 15.29369 0.00152
C 27.35413 16.67121 -0.00294
C 20.83497 2.1138 -0.04422
C 20.8426 0.7356 0.00654
C 19.6053 0.04261 -0.00703
C 22.13219 32.69191 -0.04076
C 23.36472 31.9328 -0.00652
C 23.34008 30.50009 0.0058
C 22.04236 29.81743 -0.00865
C 22.02294 28.44958 0.00675
C 23.22303 27.76781 -0.00311
C 23.30126 26.34408 0.00742
C 22.03167 25.52152 -0.01594
C 19.64755 2.86636 -0.02957
C 22.02955 24.06677 0.0106
C 23.39214 21.91585 -0.01721
C 22.06741 21.20432 -0.02422
C 22.12101 19.80394 0.01277
C 23.40018 19.09825 0.00096
C 23.46148 17.68199 -0.01527
C 22.15307 16.9915 0.01087
C 22.12018 15.59394 0.00199
C 23.32732 14.87423 0.01511
C 23.6082 13.45718 -0.00478
C 22.28263 12.72872 -0.01662
C 22.18406 11.31267 -0.01185
C 23.41657 23.37909 -0.01154
C 23.45406 10.61718 0.01126
C 19.66764 4.25606 -0.00831
C 20.83228 6.43249 -0.017
C 20.87303 32.04766 -0.00289
C 20.91109 30.6063 0.00028
C 19.66696 29.84354 -0.02213
C 19.70079 28.47637 0.03698
C 20.86012 27.70567 -0.00109
C 20.83271 26.2645 -0.00491
C 19.6783 25.58652 0.03338
C 19.66939 24.22852 -0.0258
C 20.84933 23.40855 -0.0331
C 20.94758 21.92403 -0.00316
C 19.69723 21.2636 0.02188
C 20.8868 5.04288 0.00364
C 19.59158 19.82905 -0.01979
C 20.93935 17.69209 -0.01581
C 19.74823 17.01523 0.01452
C 19.65463 15.65744 0.04892
C 20.9275 14.90025 -0.00111
C 21.00847 13.43659 -0.03557
C 19.77528 12.7779 0.03754
C 19.70358 11.32383 0.01739
C 20.94753 10.68553 0.00755
C 20.89649 9.28982 -0.0054
C 19.66025 8.60202 0.00667
C 19.64841 7.15896 0.00143
C 20.86669 19.08551 0.02691
C 17.13791 34.00301 0.00213
C 23.34774 9.22074 0.01852
C 22.08355 7.08798 0.03046
C 24.56625 8.46038 -0.00285
C 24.54703 6.99969 -0.009
C 25.83394 6.34394 -0.01199
C 25.75111 5.0171 -0.00229
C 24.55583 4.29524 -0.00938
C 24.51349 2.85926 -0.0264
C 25.77265 2.16109 -0.01154
C 25.7095 0.77712 0.00684
C 24.52862 34.03873 -0.01052
C 27.02824 32.7293 -0.01679
C 28.26524 31.99622 0.00367
C 25.79411 9.19082 0.01423
C 28.32052 30.6076 0.04306
C 27.07138 28.50705 0.00195
C 28.29889 27.70397 -0.00802
C 28.38751 26.24332 -0.00218
C 27.1283 25.58539 -0.01654
C 27.01933 24.21292 -0.00037
C 28.2576 23.42003 -0.0032
C 28.22732 21.89166 0.00622
C 27.09255 21.11898 -0.02815
C 27.05286 19.78819 -0.00942
C 28.22384 19.02292 0.00487
C 28.30856 17.59935 0.00826
C 27.03334 29.90871 0.00996
C 22.08955 8.521 -0.00381
C 25.78745 10.57798 0.02555
C 24.98641 12.79364 0.00135
C 23.36495 6.35962 0.0296
C 23.29251 4.95959 0.03374
C 22.09459 4.28207 -0.02845
C 22.08998 2.84124 -0.03213
C 23.33474 2.16067 0.02239
C 23.32111 0.73885 0.01153
C 22.05381 0.02082 0.02734
C 24.62665 32.58838 -0.0055
C 25.80482 31.98621 0.01515
C 25.81585 30.56246 -0.00225
C 24.60319 29.94761 0.00071
C 24.6693 11.30452 0.03102
C 24.48698 28.42344 -0.01107
C 25.79769 26.30168 -0.01971
C 24.52436 25.55725 -0.02118
C 24.55377 24.17444 0.00733
C 25.84391 23.50304 -0.00178
C 25.78701 21.96899 0.00768
C 24.58792 21.19132 -0.0276
C 24.59877 19.73264 0.03005
C 25.90902 18.85424 -0.04078
C 26.09832 17.34428 0.02117
C 24.72549 16.9347 0.02737
C 24.38992 15.67347 -0.00498
C 25.8188 27.80665 -0.01586
C 2.43344 32.70861 0.00297
