342
Graphene
C 34.3696 34.03917 0.01295
C 14.84136 8.48062 0.01848
C 14.67254 7.06537 -0.00619
C 15.9411 6.40612 -0.02162
C 16.09069 5.03804 0.00889
C 14.85689 4.29898 -0.00481
C 14.80974 2.85366 0.00979
C 16.0187 2.00722 0.01443
C 15.85762 0.51845 0.03505
C 14.63183 33.91148 -0.02815
C 17.21499 32.61138 -0.04147
C 18.46654 32.09773 -0.05302
C 18.6472 10.55293 0.00213
C 18.49125 9.26509 -0.00066
C 17.27118 8.66138 -0.00289
C 17.2205 7.08015 0.00028
C 18.42173 6.38152 -0.02213
C 18.46051 4.97744 0.03698
C 16.0697 9.14957 0.02098
C 17.21388 4.21944 -0.00109
C 14.36514 32.43817 -0.03113
C 13.4969 0.62464 0.00422
C 9.81099 8.66494 0.00244
C 9.69857 7.1238 -0.01717
C 11.04484 6.51169 0.05265
C 11.11654 5.07643 -0.01952
C 9.90336 4.34323 -0.02813
C 9.9179 2.8939 0.00374
C 11.11977 2.12565 0.00052
C 11.08209 0.71233 -0.03682
C 9.80033 0.04103 0.01965
C 12.31452 32.58829 0.02058
C 12.30749 8.61967 -0.01957
C 12.23411 7.25591 -0.0108
C 13.41218 6.41041 -0.00368
C 13.56799 5.07589 -0.02696
C 12.35159 4.34497 -0.00114
C 12.37665 2.8407 0.00228
C 13.55694 2.12449 0.00798
C 12.26829 0.00721 0.0351
C 17.20729 2.68777 -0.00491
C 18.4272 2.08534 0.03338
C 18.38935 0.6489 -0.0258
C 23.46596 30.51162 -0.00703
C 21.99421 29.83828 -0.04076
C 22.21033 28.46648 -0.00652
C 23.38299 27.75452 0.0058
C 23.35441 26.28176 -0.00865
C 22.1385 25.60229 0.00675
C 21.94745 24.28906 -0.00311
C 23.21815 23.49358 0.00742
C 23.2502 21.9373 -0.01594
C 21.99958 21.28369 0.0106
C 22.03109 19.81254 -0.01154
C 23.35111 19.15309 -0.01721
C 23.34823 17.80002 -0.02422
C 22.12704 16.97976 0.01277
C 22.18678 15.75084 0.00096
C 23.32739 14.95337 -0.01527
C 23.28809 13.52974 0.01087
C 23.33948 31.96439 0.00654
C 22.13929 32.54457 -0.04422
C 19.60286 34.06531 -0.02957
C 20.83644 0.66699 -0.00831
C 17.0549 33.96689 -0.0331
C 19.68272 32.63354 -0.00316
C 20.89383 31.90266 0.02188
C 20.89402 30.52287 -0.01979
C 20.76576 23.51451 0.02691
C 21.03379 22.16797 -0.01581
C 20.86906 19.06309 0.01452
C 20.87222 13.48876 0.04892
C 11.06861 9.05701 0.02299
C 19.72346 11.45058 -0.00111
C 20.89123 9.30934 0.03754
C 19.68448 8.49044 0.01739
C 19.67358 7.04395 0.00755
C 20.88998 6.34685 -0.0054
C 20.87736 4.92836 0.00667
C 19.69543 4.1586 0.00143
C 19.66721 2.72971 -0.017
C 20.92357 2.05026 0.00364
C 20.91008 10.75092 -0.03557
C 9.8393 24.31773 0.03542
C 9.78668 29.82297 0.01416
C 11.16559 31.93031 0.01945
C 2.41099 7.09414 0.02888
C 3.59194 6.41294 -0.00482
C 3.69086 4.95439 -0.01384
C 2.48566 4.22871 0.03693
C 2.45677 2.73713 0.01745
C 3.71463 2.13677 0.00488
C 3.7459 0.70962 -0.01004
C 2.44775 34.05663 -0.02896
C 4.88672 32.74865 -0.00131
C 6.18653 31.95422 -0.01118
C 6.12879 30.58676 -0.014
C 4.89755 29.86822 0.02147
C 4.92304 28.45255 0.00373
C 6.15692 27.69048 -0.00191
C 6.11614 26.36157 0.00438
C 4.87158 25.5834 0.01291
C 4.92471 24.16618 0.00093
C 2.42086 8.53252 0.00685
C 3.60304 9.28912 0.00895
C 3.69021 10.66793 0.00393
C 2.40846 11.35522 0.0288
C 3.66105 30.62514 0.00848
C 2.4286 29.89803 -0.01303
C 2.41644 28.49771 -0.01378
C 3.70994 27.70817 0.02635
C 3.62506 26.31803 0.0127
C 2.40401 25.60098 0.01396
C 2.42931 24.14612 0.01849
C 3.72794 23.4255 -0.01142
C 6.13149 23.43255 0.00057
C 3.79268 22.00579 -0.00562
C 2.4937 19.84638 0.00054
C 3.6136 19.10503 0.03007
C 3.70353 17.67302 -0.00095
C 2.48914 17.06317 0.01572
C 2.44187 15.5486 -0.04848
C 3.59099 14.8681 -0.00892
C 3.59853 13.51299 -0.01362
C 2.4336 12.75294 -0.0008
C 2.56596 21.29631 -0.00494
C 22.10806 12.81989 0.00199
C 6.29167 22.00867 -0.01634
C 4.85579 19.92692 0.02339
C 8.4305 26.41491 -0.00891
C 7.38612 25.59904 0.02819
C 7.38056 24.18356 0.00165
C 8.65563 23.68188 -0.02971
C 7.37276 11.05561 0.02894
C 8.66477 10.72225 -0.01789
C 8.66267 9.34052 0.00444
C 7.43563 8.58807 -0.00925
C 7.33621 7.19431 0.01877
C 8.51611 6.44241 0.01363
C 8.64728 4.96908 -0.02162
C 7.36333 4.27318 0.00415
C 7.37961 2.89508 -0.0014
C 8.64013 2.20388 0.02162
C 8.62692 0.74461 0.0076
C 7.43563 0.09057 0.01241
C 9.84319 32.67666 -0.01454
C 8.77319 27.85177 -0.01046
C 7.45093 28.31878 -0.02689
C 7.40176 29.86427 -0.01536
C 8.62033 30.5273 0.03101
C 4.78002 16.84948 0.01641
C 4.80303 15.55104 -0.00719
C 6.11868 13.56997 0.01364
C 4.97344 12.8545 -0.01062
C 4.94391 11.39507 -0.00033
C 6.09143 10.73431 0.03589
C 6.13627 9.22234 -0.02759
C 4.84797 8.56086 0.0402
C 5.12322 21.18152 -0.00334
C 4.84825 7.13791 0.00572
C 6.18503 5.03141 0.00406
C 4.91764 4.28417 0.00943
C 4.92164 2.9003 0.02841
C 6.14659 2.14347 -0.01111
C 6.12899 0.81084 -0.01275
C 4.95484 0.01517 0.00985
C 7.4297 32.70938 -0.02245
C 8.62432 31.94652 -0.00428
C 6.13598 6.41934 0.03592
C 22.14722 11.3701 0.01511
C 23.33543 10.66797 -0.00478
C 23.35537 9.2969 -0.01662
C 32.01695 29.7307 -0.02142
C 31.98199 28.36291 0.0544
C 33.21332 27.71567 0.00026
C 33.17691 26.23976 0.00682
C 31.94643 25.55765 -0.01779
C 31.9017 24.17507 0.03794
C 33.18319 23.45549 0.01927
C 33.19911 22.0005 0.01574
C 31.97266 21.28059 -0.02383
C 31.96133 19.87492 -0.01429
C 33.26577 19.16576 -0.0136
C 33.21831 17.77045 0.00594
C 31.92064 17.06347 -0.02474
C 31.92587 15.70675 0.00369
C 33.18144 14.90467 0.00455
C 33.18157 13.49715 -0.00644
C 31.92086 12.7905 -0.01839
C 33.19321 30.55039 0.01428
C 33.1878 32.01085 -0.01694
C 31.89874 32.67112 0.01713
C 29.51 34.05326 0.00346
C 30.70952 19.18086 0.03531
C 30.76208 17.78589 -0.00669
C 29.47306 17.06874 0.0101
C 29.48268 15.6895 0.01705
C 30.74127 14.96118 -0.0405
C 30.75864 13.50054 -0.01303
C 29.49214 12.83449 -0.01461
C 29.48262 11.37154 -0.02155
C 31.9484 11.38658 0.00137
C 30.71858 10.65348 -0.00944
C 29.51386 8.50201 -0.00971
C 29.48939 7.03702 0.01518
C 30.67598 6.4301 0.01908
C 30.78126 5.04255 0.07705
C 29.49083 4.22949 0.0103
C 29.47614 2.78549 0.02108
C 30.72097 2.13554 0.00716
C 30.67482 0.72866 0.00307
C 30.73694 9.2844 -0.03735
C 29.48955 19.90157 0.01836
C 33.22008 10.69879 0.00199
C 31.96533 8.57201 0.02806
C 1.2044 17.7747 0.01223
C 34.37281 17.06953 0.00648
C 34.39179 15.60871 0.02114
C 1.2235 14.86943 -0.02957
C 1.17817 13.52205 0.00343
C 34.40066 12.77754 -0.02656
C 34.4128 11.41945 -0.02442
C 1.22456 10.64325 -0.00027
C 1.2224 9.15464 -0.00583
C 34.40024 8.54076 -0.02302
C 0.01372 7.09796 -0.02849
C 1.21408 6.39167 0.02931
C 1.23929 5.01202 0.00628
C 0.00172 4.29306 -0.0345
C 0.00939 2.82115 -0.00931
C 1.16044 2.07202 -0.00939
C 1.23356 0.67668 -0.00468
C 1.21843 19.13382 -0.01678
C 34.41256 19.91704 0.01951
C 0.04468 21.32368 -0.02213
C 1.29238 21.9756 0.02712
C 31.94659 7.18928 0.01504
C 33.19886 6.45162 -0.00069
C 33.22939 4.99361 0.04926
C 32.04232 4.31359 -0.03838
C 31.94568 2.88231 0.00349
C 33.22533 2.15152 -0.00323
C 33.17052 0.74419 -0.00841
C 31.92326 0.05035 0.0001
C 33.1704 9.29934 0.04381
C 34.33246 32.66773 -0.02927
C 1.19944 30.58116 0.01027
C 34.38607 29.8454 0.01831
C 34.42836 28.45516 -0.01037
C 1.18257 27.66115 -0.00439
C 1.16561 26.32245 -0.00598
C 34.37515 25.51584 -0.05239
C 34.39583 24.05837 0.03076
C 1.16798 23.35836 0.00723
C 1.18584 31.96131 -0.01404
C 3.71683 32.03279 -0.00049
C 29.4751 21.32829 -0.03039
C 30.77617 23.3708 -0.01854
C 25.80336 19.23015 0.00768
C 25.82535 17.7461 -0.0276
C 24.58749 17.03644 0.03005
C 24.58106 15.64678 -0.04078
C 25.77908 14.94437 0.02117
C 25.77248 13.51603 0.02737
C 24.56945 12.73519 -0.00498
C 24.60038 11.30112 0.00135
C 25.8525 10.68807 0.03102
C 25.82735 9.19786 0.02555
C 24.57033 8.57625 0.01423
C 24.51456 7.15284 -0.00285
C 25.73573 6.40392 -0.009
C 25.77228 5.00636 -0.01199
C 24.54149 4.24514 -0.00229
C 24.56184 2.76632 -0.00938
C 25.76418 2.12268 -0.0264
C 24.57482 19.87797 -0.00178
C 24.55876 21.34708 0.00733
C 25.81667 22.02924 -0.02118
C 25.8131 23.44521 -0.01971
C 22.08048 8.49642 -0.01185
C 22.08965 7.1391 0.01126
C 23.30099 6.44879 0.01852
C 23.37998 4.97807 -0.00381
C 22.07434 4.19488 0.03046
C 22.06847 2.79684 0.0296
C 23.3484 2.14423 0.03374
C 23.33312 0.67456 -0.02845
C 25.79893 0.71271 -0.01154
C 22.07617 33.98995 -0.03213
C 25.80762 31.91215 0.01153
C 25.88851 30.53984 0.02734
C 24.72619 29.82789 -0.0055
C 24.65746 28.38936 0.01515
C 25.87176 27.59433 -0.00225
C 25.81498 26.23277 0.00071
C 24.54437 25.57797 -0.01107
C 24.53587 24.14667 -0.01586
C 24.55787 32.66422 0.02239
C 30.66603 21.96753 -0.01415
C 24.55945 34.0448 0.00684
C 28.33402 31.82555 -0.01679
C 27.03602 7.03971 0.02198
C 28.26075 6.3826 0.01094
C 28.33827 4.93149 0.00235
C 26.97982 4.29903 0.01495
C 26.9958 2.87876 0.01259
C 28.31327 2.03093 0.01799
C 28.2745 0.64298 0.01699
C 26.96559 34.01796 -0.00416
C 29.45802 32.55775 0.01177
C 30.70543 31.87942 0.04266
C 30.7589 30.48779 0.01324
C 29.5836 29.76112 0.0014
C 29.5488 28.36737 0.00924
C 30.72185 27.70358 0.02326
C 30.73584 26.28609 0.00261
C 29.53142 25.53458 0.03265
C 29.49667 24.13467 -0.02049
C 26.99789 8.48812 0.02611
C 28.29113 9.26401 -0.00621
C 28.27773 10.68779 0.00194
C 27.06991 11.42644 0.04185
C 28.32776 30.42579 0.00367
C 27.0817 29.74992 0.04306
C 27.06601 28.34746 0.00996
C 28.31775 27.69162 0.00195
C 28.27604 26.31238 -0.00802
C 27.06787 25.55511 -0.00218
C 27.05376 24.10994 -0.01654
C 28.2883 23.39581 -0.00037
C 26.93907 32.6338 -0.01052
C 28.26217 22.00481 -0.0032
C 27.02173 19.90652 -0.02815
C 28.27965 19.17811 -0.00942
C 28.2798 17.80586 0.00487
C 27.02972 17.05305 0.00826
C 27.05576 15.63507 -0.00294
C 28.25837 14.97353 0.00152
C 28.28082 13.54829 0.01257
C 27.04714 12.79269 0.02316
C 27.01463 21.35725 0.00622
C 2.36966 32.57998 0.00873
