429
Graphene
C 0.01281 0.02795 0.01295
C 13.56647 19.14668 0.03589
C 13.48124 17.79829 -0.02759
C 12.29009 17.08397 0.0402
C 12.30486 15.60197 0.00572
C 13.54756 14.96843 0.03592
C 13.54201 13.51786 0.00406
C 12.24404 12.74856 0.00943
C 12.24787 11.35009 0.02841
C 13.49149 10.56233 -0.01111
C 13.52352 9.22502 -0.01275
C 12.3435 19.92334 -0.00033
C 12.33337 8.49751 0.00985
C 13.54334 6.38521 -0.00428
C 13.56391 4.95217 0.03101
C 12.25974 4.31985 -0.01536
C 12.30485 2.81357 -0.02689
C 13.54076 2.07882 -0.01046
C 13.50772 0.67727 -0.00891
C 12.36558 34.014 0.02819
C 14.71418 32.65299 0.00165
C 15.96271 31.99023 -0.02971
C 15.98488 30.48825 0.02894
C 12.26201 7.15037 -0.02245
C 12.23569 21.38512 -0.01062
C 13.54601 22.06523 0.01364
C 13.563 23.45345 -0.00719
C 11.07869 13.51618 0.00685
C 9.85633 12.77877 0.02888
C 9.81913 11.3708 -0.00482
C 11.06164 10.62469 -0.01384
C 11.10029 9.23985 0.03693
C 9.84474 8.58415 0.01745
C 9.79329 7.11968 0.00488
C 11.02101 6.46455 -0.01004
C 11.07326 4.9476 -0.02896
C 9.8595 4.264 -0.00131
C 9.87477 2.85591 -0.01118
C 11.13066 2.11161 -0.014
C 11.04991 0.65598 0.02147
C 9.83218 0.03463 0.00373
C 12.3271 32.63724 -0.00191
C 13.49132 31.93458 0.00438
C 13.54007 30.53277 0.01291
C 12.37772 29.82229 0.00093
C 12.30271 28.41948 0.00057
C 13.5515 27.72316 -0.01634
C 13.51556 26.36782 -0.00334
C 12.2893 25.60019 0.02339
C 12.29448 24.09586 0.01641
C 14.75214 29.80706 -0.01789
C 14.75818 28.44862 0.00444
C 15.98257 27.66542 -0.00925
C 15.94731 26.28749 0.01877
C 18.4196 30.56471 0.00228
C 17.229 29.80432 0.00798
C 17.24325 28.46905 0.00422
C 18.47912 27.6509 0.0351
C 17.21568 21.267 -0.03113
C 17.2286 19.86671 0.02098
C 18.48957 19.12082 0.01848
C 18.40504 17.75302 -0.00619
C 17.19199 17.03295 -0.02162
C 17.2226 15.59193 0.00889
C 18.44851 14.88603 -0.00481
C 18.41976 13.52298 0.00979
C 17.18923 12.78224 0.01443
C 17.17176 11.36047 0.03505
C 18.38442 10.69309 -0.02815
C 18.44257 9.27702 -0.04147
C 17.2009 8.54717 -0.05302
C 17.23688 7.06593 0.00213
C 18.45399 6.38098 -0.00066
C 18.4709 4.99468 -0.00289
C 17.25698 4.29042 0.00028
C 17.2684 2.85668 -0.02213
C 18.44956 2.1407 0.03698
C 18.45129 31.90973 -0.00114
C 11.04622 14.89801 0.00895
C 17.2115 32.63503 -0.02696
C 16.03063 0.73875 -0.0108
C 14.74645 25.56423 0.01363
C 14.74251 24.14102 -0.02162
C 15.90853 23.45236 0.00415
C 16.01262 22.01479 -0.0014
C 14.70837 21.30353 0.02162
C 14.76189 19.88497 0.0076
C 16.01827 19.14518 0.01241
C 15.96508 17.71913 -0.01454
C 14.73901 16.9973 0.01945
C 14.7131 15.62556 0.01416
C 15.98559 14.89166 0.03542
C 15.97553 13.47299 0.02299
C 14.78932 12.75958 0.00244
C 14.80705 11.36911 -0.01717
C 15.965 10.68027 0.05265
C 15.99024 9.17502 -0.01952
C 14.72164 8.51773 -0.02813
C 14.73681 7.10235 0.00374
C 15.98387 6.42143 0.00052
C 16.02217 4.92475 -0.03682
C 14.75227 4.27699 0.01965
C 14.7315 2.84858 0.02058
C 15.95512 2.132 -0.01957
C 14.76791 0.00967 -0.00368
C 9.84366 15.67617 0.00393
C 9.87416 17.00168 0.0288
C 11.07195 17.80494 -0.0008
C 3.70264 2.14085 0.02728
C 3.67116 0.72111 -0.00039
C 2.39249 0.04362 0.0064
C 4.94345 32.67549 0.00211
C 6.15848 31.89399 -0.00449
C 6.14197 30.50988 -0.01979
C 4.8916 29.83307 0.02784
C 4.91895 28.33559 -0.01977
C 6.18712 26.27923 -0.00561
C 4.92069 25.56226 0.00208
C 4.9981 24.12619 0.01707
C 6.17281 23.44526 0.02769
C 6.11921 21.98346 -0.03291
C 4.91444 21.37375 -0.04999
C 4.93302 19.87709 0.04505
C 6.17264 19.13345 0.03284
C 6.11552 17.7519 -0.04307
C 4.94776 17.00972 0.03189
C 4.89686 15.57986 0.00031
C 6.18873 14.91186 -0.003
C 6.05475 13.46791 0.01402
C 4.88478 12.85813 0.02379
C 4.88847 11.42579 0.00907
C 2.45057 2.84364 0.00245
C 6.17143 10.69673 0.00643
C 2.46064 4.18826 0.00081
C 3.74809 6.39277 -0.01386
C 3.70864 30.58201 0.00267
C 2.46302 29.87346 0.00787
C 2.4288 28.39835 0.02426
C 3.67105 27.65118 0.01218
C 3.66816 26.23673 -0.01471
C 2.494 25.56044 -0.02827
C 2.47506 24.10888 0.01078
C 3.70301 23.44628 -0.00112
C 3.70948 22.04874 0.03345
C 2.43127 21.28165 0.00748
C 2.51335 19.85042 0.00662
C 3.73759 19.15921 -0.0154
C 3.70626 17.77307 -0.01299
C 2.44266 16.93636 -0.00407
C 2.47163 15.58435 0.01138
C 3.67687 14.90161 0.03278
C 3.63118 13.42653 -0.00177
C 2.44924 12.78429 0.04421
C 2.43544 11.38687 0.00088
C 3.67351 10.69071 0.00828
C 3.71207 9.20383 -0.02375
C 2.45652 8.54601 0.00558
C 2.44249 7.12347 -0.0059
C 3.70745 4.98091 -0.02805
C 18.43021 0.6664 -0.00109
C 6.1488 9.23749 -0.01509
C 4.9725 7.13824 0.02374
C 7.38961 8.51744 -0.02929
C 7.35809 7.1413 -0.00966
C 8.63006 6.38227 -0.03337
C 8.62643 5.02127 0.01227
C 7.39421 4.30671 0.00873
C 7.41659 2.88745 -0.00049
C 8.5763 2.19876 0.00848
C 8.60438 0.75782 -0.01303
C 7.39007 0.03677 -0.01378
C 9.79631 32.65801 0.02635
C 11.0809 31.99272 0.0127
C 11.09752 30.52088 0.01396
C 9.83807 29.81175 0.01849
C 9.85124 28.43441 -0.01142
C 11.02082 27.72184 -0.00562
C 11.09166 26.25135 -0.00494
C 9.79 25.55571 0.00054
C 9.79712 24.15984 0.03007
C 11.06742 23.39696 -0.00095
C 11.05863 22.00169 0.01572
C 9.77056 21.33609 -0.04848
C 9.80637 19.89051 -0.00892
C 11.09818 19.23807 -0.01362
C 8.62616 9.20246 0.03368
C 4.91842 8.53608 0.03267
C 8.55341 10.65986 -0.00077
C 7.35791 12.80131 0.0276
C 6.15653 6.42775 0.00402
C 6.0816 4.97501 0.0073
C 4.87085 4.2605 0.0174
C 4.88977 2.7861 0.03828
C 6.16475 2.17446 0.01226
C 6.07351 0.74274 -0.00279
C 4.92249 0.0398 0.01996
C 7.37986 32.64856 -0.03996
C 8.60409 31.93593 0.01465
C 8.59315 30.57112 -0.00074
C 8.68114 26.27558 -0.00518
C 7.42922 25.64152 0.0086
C 7.36551 24.13119 -0.00643
C 8.59109 23.45224 0.017
C 8.59281 22.01427 -0.03113
C 7.33737 21.34752 -0.02566
C 7.41163 19.87667 -0.00094
C 8.60897 19.10945 0.02322
C 8.66874 17.69723 -0.00725
C 7.36721 17.07353 -0.05697
C 7.37355 15.66061 0.01087
C 8.62674 14.91794 -0.01343
C 8.58422 13.48832 0.00988
C 7.36578 11.36663 0.01305
C 3.66935 31.98808 0.01913
C 17.25262 0.01376 -0.00491
C 20.91931 31.87545 -0.0258
C 29.53922 12.75998 -0.01461
C 29.54159 11.37551 -0.02155
C 30.74168 10.66788 -0.00944
C 30.74159 9.20639 -0.03735
C 29.46165 8.5322 -0.00971
C 29.56069 7.06024 0.01518
C 30.71272 6.35786 0.01908
C 30.71735 4.99318 0.07705
C 29.4761 4.23563 0.0103
C 29.48464 2.86984 0.02108
C 30.73416 13.50214 -0.01303
C 30.75665 2.07665 0.00716
C 29.54351 34.05 0.00346
C 31.95887 32.67988 0.01713
C 33.25481 31.92888 -0.01694
C 33.20871 30.45937 0.01428
C 31.99251 29.81418 -0.02142
C 32.02354 28.37449 0.0544
C 33.18318 27.68797 0.00026
C 33.20461 26.25657 0.00682
C 31.9651 25.56349 -0.01779
C 31.97111 24.15927 0.03794
C 30.77019 0.74936 0.00307
C 30.75684 14.9201 -0.0405
C 29.55534 15.65988 0.01705
C 29.46822 17.05773 0.0101
C 27.05875 7.10166 0.02198
C 28.29928 6.37545 0.01094
C 28.32639 5.00728 0.00235
C 27.08273 4.24763 0.01495
C 27.03164 2.80822 0.01259
C 28.28289 2.15167 0.01799
C 28.29127 0.71478 0.01699
C 27.08598 0.04221 -0.00416
C 29.46318 32.58271 0.01177
C 30.71951 31.91387 0.04266
C 30.73525 30.52056 0.01324
C 29.56863 29.80875 0.0014
C 29.46692 28.35583 0.00924
C 30.7125 27.67907 0.02326
C 30.71048 26.22151 0.00261
C 29.47737 25.5291 0.03265
C 29.49771 24.04914 -0.02049
C 30.75101 23.49628 -0.01854
C 30.75939 22.07313 -0.01415
C 29.54678 21.3111 -0.03039
C 29.52154 19.85266 0.01836
C 30.69881 19.13117 0.03531
C 30.69666 17.74565 -0.00669
C 33.2217 23.44005 0.01927
C 33.24662 21.96051 0.01574
C 31.99951 21.30181 -0.02383
C 31.93807 19.92151 -0.01429
C 34.42926 24.17928 0.03076
C 1.21894 23.49974 0.00723
C 1.19301 22.03639 0.02712
C 34.40535 21.29321 -0.02213
C 7e-05 19.91707 0.01951
C 1.25397 19.17749 -0.01678
C 1.24229 17.73975 0.01223
C 34.41105 16.99332 0.00648
C 34.40384 15.59814 0.02114
C 1.21313 14.92579 -0.02957
C 1.21314 13.5636 0.00343
C 0.00695 12.71648 -0.02656
C 34.4134 11.33547 -0.02442
C 1.17011 10.66172 -0.00027
C 1.2304 9.25103 -0.00583
C 0.02874 8.52415 -0.02302
C 34.36611 7.04854 -0.02849
C 1.18491 6.36925 0.02931
C 1.23922 4.95103 0.00628
C 34.42284 4.19345 -0.0345
C 34.41638 2.83894 -0.00931
C 1.27614 2.10315 -0.00939
C 1.25025 0.70919 -0.00468
C 0.02753 25.59798 -0.05239
C 27.03891 8.515 0.02611
C 1.25467 26.21696 -0.00598
C 34.42359 28.38847 -0.01037
C 33.1716 19.17018 -0.0136
C 33.19886 17.75695 0.00594
C 32.0157 17.02085 -0.02474
C 31.98558 15.63804 0.00369
C 33.14576 14.88387 0.00455
C 33.16007 13.45148 -0.00644
C 31.96075 12.72228 -0.01839
C 31.93258 11.35172 0.00137
C 33.21891 10.63016 0.00199
C 33.2119 9.22636 0.04381
C 31.89122 8.52465 0.02806
C 31.9037 7.0632 0.01504
C 33.20038 6.38325 -0.00069
C 33.20814 4.95156 0.04926
C 32.00775 4.2284 -0.03838
C 32.01686 2.81208 0.00349
C 33.23121 2.10782 -0.00323
C 33.19174 0.69778 -0.00841
C 31.99497 34.02133 0.0001
C 34.39565 32.6377 -0.02927
C 1.20329 31.97889 -0.01404
C 1.26987 30.48696 0.01027
C 0.06882 29.78077 0.01831
C 1.20634 27.63425 -0.00439
C 28.27489 9.2309 -0.00621
C 28.30955 10.65927 0.00194
C 27.06092 11.3249 0.04185
C 22.18611 28.43249 0.00675
C 23.31613 27.66703 -0.00311
C 23.38295 26.29056 0.00742
C 23.39908 21.94532 -0.01594
C 22.23959 21.32167 0.0106
C 22.15594 19.93507 -0.01154
C 23.35806 19.20345 -0.01721
C 23.3757 17.67954 -0.02422
C 22.11995 17.02913 0.01277
C 22.13628 15.62035 0.00096
C 23.32651 14.96147 -0.01527
C 23.35045 13.47258 0.01087
C 22.14148 12.78366 0.00199
C 22.09397 11.37557 0.01511
C 23.361 10.64379 -0.00478
C 23.3839 9.25113 -0.01662
C 22.11666 8.56716 -0.01185
C 22.15048 7.04674 0.01126
C 23.3863 6.41692 0.01852
C 23.40235 4.95929 -0.00381
C 22.18656 4.22624 0.03046
C 22.07996 2.80171 0.0296
C 23.39122 2.14348 0.03374
C 22.11071 29.77709 -0.00865
C 23.48753 0.74664 -0.02845
C 23.33913 30.55897 0.0058
C 22.1548 32.64715 -0.04076
C 20.90034 30.50329 -0.0331
C 19.57845 29.84263 -0.00316
C 19.57499 28.41091 0.02188
C 19.65372 19.8611 -0.01979
C 20.88299 19.19852 0.02691
C 20.93296 17.72204 -0.01581
C 19.59947 17.00132 0.01452
C 19.67312 15.61041 0.04892
C 20.8787 14.92262 -0.00111
C 20.8714 13.45433 -0.03557
C 19.65061 12.80405 0.03754
C 19.67126 11.35795 0.01739
C 20.88914 10.62582 0.00755
C 20.89758 9.23044 -0.0054
C 19.68453 8.44834 0.00667
C 19.70497 7.08617 0.00143
C 20.90951 6.37074 -0.017
C 20.92619 4.98884 0.00364
C 19.76797 4.34134 -0.00831
C 19.68466 2.86843 -0.02957
C 20.86142 2.08932 -0.04422
C 20.89379 0.69967 0.00654
C 19.65916 0.00487 -0.00703
C 23.35587 31.98217 -0.00652
C 19.66578 32.62945 0.03338
C 22.18492 0.02265 -0.03213
C 25.85943 31.95553 0.01153
C 25.80985 2.14508 -0.0264
C 25.82656 0.67514 -0.01154
C 24.5972 0.04169 0.00684
C 27.06616 32.64013 -0.01052
C 28.26551 31.91722 -0.01679
C 28.25771 30.51522 0.00367
C 27.05649 29.80801 0.04306
C 27.02399 28.39288 0.00996
C 28.28916 27.68684 0.00195
C 28.31047 26.25864 -0.00802
C 27.04411 25.63651 -0.00218
C 27.09458 24.18723 -0.01654
C 28.24257 23.41041 -0.00037
C 28.31374 21.98801 -0.0032
C 27.05108 21.31153 0.00622
C 27.062 19.91057 -0.02815
C 28.29833 19.1333 -0.00942
C 28.2611 17.70236 0.00487
C 27.10741 17.04718 0.00826
C 27.0085 15.67443 -0.00294
C 28.29699 14.92023 0.00152
C 28.29414 13.52413 0.01257
C 27.04868 12.75008 0.02316
C 24.6162 2.80297 -0.00938
C 24.56119 32.66955 0.02239
C 24.634 4.2618 -0.00229
C 25.81469 6.36468 -0.009
C 25.75608 30.53599 0.02734
C 24.56918 29.80409 -0.0055
C 24.55058 28.41739 0.01515
C 25.82345 27.68939 -0.00225
C 25.76032 26.22845 0.00071
C 24.54326 25.53618 -0.01107
C 24.60734 24.15142 -0.01586
C 25.83066 23.49747 -0.01971
C 25.8005 21.92307 -0.02118
C 24.61197 21.3018 0.00733
C 24.57688 19.91026 -0.00178
C 25.79387 19.17866 0.00768
C 25.81578 17.8127 -0.0276
C 24.60136 17.02302 0.03005
C 24.58162 15.5847 -0.04078
C 25.81948 14.91108 0.02117
C 25.84145 13.50363 0.02737
C 24.62549 12.7788 -0.00498
C 24.63312 11.39736 0.00135
C 25.82155 10.63022 0.03102
C 25.82123 9.24289 0.02555
C 24.56612 8.5076 0.01423
C 24.56499 7.1285 -0.00285
C 25.81845 4.92365 -0.01199
C 2.38774 32.64138 -0.03672
