320
Graphene
C 34.35106 34.04536 0.01295
C 11.28349 19.28746 -0.02213
C 11.0586 18.0028 0.03698
C 9.97709 17.22135 -0.00109
C 10.18788 15.69932 -0.00491
C 11.46532 15.31684 0.03338
C 9.76911 12.70469 -0.0258
C 9.75717 11.48187 -0.0331
C 10.0879 19.92033 0.00028
C 9.63718 8.48629 -0.00316
C 11.13323 6.41222 -0.01979
C 11.03509 5.03017 0.02691
C 9.67726 4.25181 -0.01581
C 9.81021 2.8261 0.01452
C 11.03322 2.13742 0.04892
C 11.04054 0.71736 -0.00111
C 9.83603 34.07336 -0.03557
C 9.96379 7.06864 0.02188
C 12.28113 32.65396 0.03754
C 10.94511 27.57201 -0.00289
C 9.84688 29.83633 0.00213
C 7.45578 12.79155 0.00798
C 7.41463 11.29515 0.00422
C 8.54652 10.61541 0.0351
C 8.38598 9.14956 -0.03113
C 7.22611 8.41844 0.02098
C 7.32365 7.05125 0.01848
C 8.60489 6.44909 -0.00619
C 9.75327 28.34293 -0.00066
C 8.50484 5.05356 -0.02162
C 7.33801 2.80678 -0.00481
C 8.58917 2.16193 0.00979
C 8.58631 0.68132 0.01443
C 7.403 0.0523 0.03505
C 9.81801 32.6633 -0.02815
C 11.08189 31.92953 -0.04147
C 11.13276 30.47234 -0.05302
C 7.33048 4.29592 0.00889
C 8.73371 13.63669 0.00228
C 13.51225 31.86568 0.01739
C 12.25849 29.67952 -0.0054
C 15.94181 0.71036 -0.02422
C 14.72567 0.00178 0.01277
C 17.17892 32.70964 0.00096
C 18.45647 32.00775 -0.01527
C 18.43806 30.58014 0.01087
C 17.22826 29.76064 0.00199
C 17.32947 28.38512 0.01511
C 15.93101 2.116 -0.01721
C 18.54485 27.69035 -0.00478
C 18.3089 2.20368 -0.01185
C 18.43475 0.82114 0.01126
C 17.17974 0.06203 0.01852
C 19.73478 32.7547 -0.00381
C 20.92785 32.02049 0.03046
C 20.89814 30.59455 0.0296
C 19.68391 29.96788 0.03374
C 17.07754 2.88613 -0.01662
C 13.52297 30.4021 0.00755
C 14.71416 2.7997 -0.01154
C 16.36312 26.38744 -0.01594
C 12.22844 28.13956 0.00667
C 13.61394 27.73331 0.00143
C 12.43505 18.48792 -0.017
C 12.54648 16.86382 0.00364
C 13.52351 5.01556 -0.00831
C 12.27091 4.26265 -0.02957
C 12.26196 2.82792 -0.04422
C 14.59466 4.14685 0.0106
C 13.53088 2.1091 0.00654
C 12.27463 0.05349 -0.04076
C 14.70526 32.64447 -0.00652
C 15.93028 31.92308 0.0058
C 16.00298 30.48926 -0.00865
C 14.79022 29.8533 0.00675
C 14.81488 28.4105 -0.00311
C 16.08705 27.67825 0.00742
C 13.53067 0.70318 -0.00703
C 19.70047 28.46249 -0.02845
C 8.80335 15.05406 -0.00114
C 7.44827 17.10883 -0.00368
C 3.6468 9.24367 0.02339
C 2.42417 8.53046 0.01641
C 2.38925 7.10462 -0.00719
C 3.65629 6.34547 0.01364
C 3.62291 4.93801 -0.01062
C 2.399 4.28773 -0.00033
C 2.37377 2.77369 0.03589
C 3.64533 10.67467 -0.00334
C 3.65954 2.12442 -0.02759
C 2.38656 0.04247 0.00572
C 4.9115 32.60161 0.03592
C 6.12081 31.93744 0.00406
C 6.1514 30.54426 0.00943
C 4.95253 29.78075 0.02841
C 4.94963 28.3702 -0.01111
C 6.21118 27.57889 -0.01275
C 3.67173 0.67671 0.0402
C 6.19977 26.20501 0.00985
C 2.44025 11.3626 -0.01634
C 3.71418 13.51281 0.00093
C 3.70488 30.50353 0.02888
C 2.43802 29.79674 -0.00482
C 2.47965 28.38081 -0.01384
C 3.65601 27.63269 0.03693
C 3.67222 26.21702 0.01745
C 2.3815 25.62552 0.00488
C 2.4432 24.20142 -0.01004
C 2.4946 12.78558 0.00057
C 3.64721 23.41768 -0.02896
C 2.47221 21.33543 -0.01118
C 2.46341 19.83679 -0.014
C 3.73985 19.17877 0.02147
C 3.73582 17.76554 0.00373
C 2.51336 17.12116 -0.00191
C 2.455 15.68467 0.00438
C 3.72458 14.95286 0.01291
C 3.7008 21.97064 -0.00131
C 7.55043 15.68916 -0.02696
C 4.93656 25.57101 -0.02245
C 6.12181 23.46637 0.03101
C 6.10621 0.67895 0.01945
C 4.92386 34.04073 0.01416
C 7.39562 32.62034 0.03542
C 8.59789 31.93616 0.02299
C 8.59798 30.52366 0.00244
C 7.36448 29.80527 -0.01717
C 7.34797 28.40345 0.05265
C 6.09867 2.12879 -0.01454
C 8.52408 27.64262 -0.01952
C 7.45377 25.3989 0.00374
C 7.50213 23.87061 0.00052
C 8.45889 22.45137 -0.03682
C 7.35053 21.45597 0.01965
C 7.50878 20.0505 0.02058
C 8.82007 19.28481 -0.01957
C 8.68914 17.81968 -0.0108
C 8.57705 26.22046 -0.02813
C 4.88039 24.16947 -0.00428
C 4.92416 2.79269 0.01241
C 6.10713 5.00754 0.02162
C 6.03534 22.05766 -0.01536
C 4.93315 21.25787 -0.02689
C 5.00466 19.82468 -0.01046
C 6.25578 19.23233 -0.00891
C 6.20539 17.76919 0.02819
C 4.98739 17.03773 0.00165
C 4.94516 15.64072 -0.02971
C 4.89902 4.23549 0.0076
C 6.25767 14.91489 0.02894
C 4.969 12.88836 0.00444
C 4.89076 11.45274 -0.00925
C 6.09088 10.64992 0.01877
C 6.02586 9.22601 0.01363
C 4.82415 8.5186 -0.02162
C 4.85257 7.0281 0.00415
C 6.03565 6.37951 -0.0014
C 6.23627 13.53 -0.01789
C 20.94326 27.7787 -0.03213
C 20.79405 26.34938 0.02239
C 19.64849 2.82678 0.01153
C 31.90702 25.54149 -0.01779
C 31.92855 24.11256 0.03794
C 33.11423 23.47698 0.01927
C 33.13491 22.07293 0.01574
C 31.90191 21.34266 -0.02383
C 31.94714 19.92963 -0.01429
C 33.23847 19.23023 -0.0136
C 33.1215 26.27969 0.00682
C 33.27566 17.74464 0.00594
C 31.96706 15.64472 0.00369
C 33.19532 15.00554 0.00455
C 33.13581 13.61989 -0.00644
C 31.93341 12.79378 -0.01839
C 31.93358 11.41207 0.00137
C 33.10989 10.73356 0.00199
C 33.1601 9.30335 0.04381
C 31.95739 17.01986 -0.02474
C 31.94972 8.59614 0.02806
C 33.1044 27.7043 0.00026
C 31.87846 29.84524 -0.02142
C 29.4011 12.79095 -0.01461
C 29.43964 11.39546 -0.02155
C 30.73938 10.7394 -0.00944
C 30.77869 9.26569 -0.03735
C 29.55662 8.56005 -0.00971
C 29.33331 7.2381 0.01518
C 30.54295 6.51818 0.01908
C 31.90961 28.42544 0.0544
C 30.60283 5.09574 0.07705
C 29.3554 2.85022 0.02108
C 30.66801 2.16093 0.00716
C 30.65412 0.7166 0.00307
C 29.38147 34.05443 0.00346
C 31.90025 32.72266 0.01713
C 33.07426 31.95693 -0.01694
C 33.07425 30.51149 0.01428
C 29.60159 4.11108 0.0103
C 30.62786 13.48709 -0.01303
C 31.89192 7.14154 0.01504
C 33.10031 4.96314 0.04926
C 0.10332 17.11214 0.00648
C 0.04505 15.67984 0.02114
C 1.23561 14.95257 -0.02957
C 1.2274 13.52938 0.00343
C 34.40294 12.92672 -0.02656
C 34.32597 11.4196 -0.02442
C 1.12266 10.68364 -0.00027
C 1.31736 17.85921 0.01223
C 1.1935 9.27319 -0.00583
C 34.32413 7.05368 -0.02849
C 1.16629 6.37498 0.02931
C 1.12092 4.93584 0.00628
C 34.30456 4.2758 -0.0345
C 34.24199 2.83726 -0.00931
C 1.03162 2.04927 -0.00939
C 1.10231 0.68658 -0.00468
C 34.379 8.52927 -0.02302
C 33.0511 6.37852 -0.00069
C 1.18068 19.19829 -0.01678
C 34.39209 21.38228 -0.02213
C 31.91255 4.33997 -0.03838
C 31.82816 2.87308 0.00349
C 33.01669 2.17085 -0.00323
C 33.06746 0.73741 -0.00841
C 31.83376 34.07193 0.0001
C 34.3565 32.64434 -0.02927
C 1.16654 31.90014 -0.01404
C 34.42123 19.96339 0.01951
C 1.19123 30.52324 0.01027
C 34.3503 28.38683 -0.01037
C 1.19084 27.81366 -0.00439
C 1.21061 26.36996 -0.00598
C 0.03369 25.64468 -0.05239
C 34.39825 24.19851 0.03076
C 1.21017 23.43485 0.00723
C 1.25266 22.04126 0.02712
C 34.37247 29.8699 0.01831
C 30.66051 14.91502 -0.0405
C 29.48428 15.67269 0.01705
C 29.47526 17.07444 0.0101
C 25.79633 30.48978 0.02555
C 24.50116 29.80848 0.01423
C 24.49895 28.43186 -0.00285
C 25.74466 27.71147 -0.009
C 25.74961 26.21865 -0.01199
C 24.44914 25.44642 -0.00229
C 24.48223 24.04678 -0.00938
C 25.76957 31.90981 0.03102
C 25.77637 23.34875 -0.0264
C 24.5306 21.21315 0.00684
C 24.52675 19.77931 -0.01052
C 25.7129 19.07321 -0.01679
C 25.85279 17.65393 0.00367
C 24.83907 16.41412 0.04306
C 25.44621 15.32669 0.00996
C 24.45043 34.05134 0.00195
C 25.82502 21.93194 -0.01154
C 26.98418 32.5789 -0.00802
C 24.61814 32.69244 0.00135
C 23.44969 0.70057 0.02737
C 20.8451 2.18648 0.02734
C 20.96917 0.80935 -0.0055
C 19.70152 0.05968 0.01515
C 22.13019 32.71387 -0.00225
C 23.38703 31.96748 0.00071
C 23.30579 30.57732 -0.01107
C 22.10897 29.88252 -0.01586
C 22.14017 0.06093 -0.00498
C 22.10614 28.471 -0.01971
C 23.2481 26.2788 0.00733
C 21.98632 25.65604 -0.00178
C 22.10845 24.23706 0.00768
C 23.2002 23.4028 -0.0276
C 23.31731 21.92691 0.03005
C 23.45593 18.71948 -0.04078
C 23.78392 17.50459 0.02117
C 23.28356 27.71517 -0.02118
C 28.17108 31.90904 -0.00218
C 28.21237 30.51756 -0.01654
C 27.01441 29.80193 -0.00037
C 26.90439 0.03965 -0.00416
C 29.4231 32.61203 0.01177
C 30.6438 32.01877 0.04266
C 30.72437 30.56693 0.01324
C 29.42851 29.86869 0.0014
C 29.48049 28.3896 0.00924
C 30.7397 27.75242 0.02326
C 28.07774 0.53904 0.01699
C 30.70617 26.29997 0.00261
C 29.46943 24.17006 -0.02049
C 30.74003 23.42134 -0.01854
C 30.72645 22.06578 -0.01415
C 29.43341 21.29887 -0.03039
C 29.43827 19.87936 0.01836
C 30.7161 19.17562 0.03531
C 30.68388 17.77906 -0.00669
C 29.45262 25.5925 0.03265
C 27.4146 8.03949 0.01799
C 28.15175 9.20959 0.01259
C 28.1171 10.69984 0.01495
C 26.99971 28.36932 -0.0032
C 28.21894 27.70542 0.00622
C 28.1874 26.30643 -0.02815
C 26.9775 25.45069 -0.00942
C 26.94779 24.05497 0.00487
C 28.13942 23.39742 0.00826
C 28.21476 21.97803 -0.00294
C 27.06232 21.22805 0.00152
C 26.95932 19.80812 0.01257
C 28.20021 19.13284 0.02316
C 28.20422 17.74443 0.04185
C 27.04134 17.09139 0.00194
C 26.84456 15.70058 -0.00621
C 28.15454 15.00187 0.02611
C 28.13807 13.57728 0.02198
C 27.06962 12.71943 0.01094
C 26.96394 11.54298 0.00235
C 3.65713 31.88239 0.00685
C 2.36588 32.65356 0.00895
