331
Graphene
C 0.00853 34.06107 0.01295
C 13.4335 5.0622 -0.02815
C 12.36573 4.26376 -0.04147
C 12.33952 2.82668 -0.05302
C 13.5004 2.11783 0.00213
C 13.43839 0.71149 -0.00066
C 12.31017 34.03874 -0.00289
C 14.78424 32.68621 0.00028
C 13.51797 6.48552 0.03505
C 15.96561 32.06078 -0.02213
C 14.81103 29.79382 -0.00109
C 15.29733 28.45874 -0.00491
C 14.95824 11.188 0.03338
C 16.26156 10.57308 -0.0258
C 16.07579 9.22155 -0.0331
C 14.84857 8.51587 -0.00316
C 14.77719 7.14573 0.02188
C 15.91709 30.65501 0.03698
C 12.37714 7.16351 0.01443
C 12.29897 8.57018 0.00979
C 13.62065 9.28024 -0.00481
C 11.12029 10.7225 0.01965
C 11.15269 9.35674 0.02058
C 9.86501 8.4773 -0.01957
C 9.94767 7.05717 -0.0108
C 11.11333 6.46434 -0.00368
C 11.10996 5.02064 -0.02696
C 9.85433 4.35941 -0.00114
C 9.79969 2.93007 0.00228
C 11.07507 2.18817 0.00798
C 11.11156 0.80709 0.00422
C 9.83939 0.0846 0.0351
C 12.31777 32.58163 -0.03113
C 13.54651 31.87197 0.02098
C 13.53983 30.28777 0.01848
C 12.21981 29.88682 -0.00619
C 12.38651 11.3538 -0.02162
C 13.67826 10.7625 0.00889
C 15.98049 6.39195 -0.01979
C 16.01218 4.94252 0.02691
C 14.70352 4.25074 -0.01581
C 14.76492 2.84555 0.01452
C 20.99224 30.44961 -0.00311
C 19.58165 29.72421 0.00742
C 19.74774 28.33348 -0.01594
C 20.80042 27.82774 0.0106
C 20.83826 10.64158 -0.01154
C 20.90987 9.21932 -0.01721
C 19.70006 8.56274 -0.02422
C 19.67668 7.15861 0.01277
C 20.85582 6.41488 0.00096
C 20.92518 4.97651 -0.01527
C 19.74556 4.24434 0.01087
C 19.65704 2.79435 0.00199
C 20.90122 2.13164 0.01511
C 20.78099 0.68772 -0.00478
C 19.53834 33.98525 -0.01662
C 22.06628 32.66118 -0.01185
C 23.31838 31.9214 0.01126
C 20.96124 31.89775 0.00675
C 9.77416 11.37446 -0.03682
C 19.6291 32.5401 -0.00865
C 18.40162 0.71508 -0.00652
C 16.03324 2.1556 0.04892
C 15.91904 0.73739 -0.00111
C 14.64374 34.04221 -0.03557
C 17.17465 32.72733 0.03754
C 18.37983 31.83558 0.01739
C 18.30986 30.32819 0.00755
C 17.11469 29.74209 -0.0054
C 16.75099 28.34896 0.00667
C 18.35502 10.70057 0.00143
C 18.45346 9.29024 -0.017
C 17.28681 8.55021 0.00364
C 17.24946 7.07063 -0.00831
C 18.42285 6.31202 -0.02957
C 18.46717 4.94558 -0.04422
C 17.3026 4.25274 0.00654
C 17.23251 2.84172 -0.00703
C 18.44814 2.11498 -0.04076
C 17.14125 0.05308 0.0058
C 23.29752 30.53581 0.01852
C 9.62654 12.85641 0.00052
C 9.82241 29.91613 -0.02813
C 2.3785 8.53824 -0.014
C 2.3993 7.06756 0.02147
C 3.61388 6.32868 0.00373
C 3.63046 4.94415 -0.00191
C 2.49481 4.18217 0.00438
C 2.41319 2.80741 0.01291
C 3.76156 2.15409 0.00093
C 3.58125 9.22918 -0.01118
C 3.78031 0.70461 0.00057
C 4.90621 32.76914 -0.00334
C 6.13045 32.06983 0.02339
C 6.21226 30.64974 0.01641
C 4.94969 29.97002 -0.00719
C 4.8581 28.48307 0.01364
C 6.1484 27.78104 -0.01062
C 6.18606 26.32103 -0.00033
C 2.46652 0.13505 -0.01634
C 3.59673 10.6417 -0.00131
C 2.40643 11.4209 -0.02896
C 2.36605 12.84525 -0.01004
C 3.69636 30.64908 0.03007
C 2.47087 29.82818 -0.00095
C 2.43583 28.49384 0.01572
C 3.65147 27.70082 -0.04848
C 3.74038 26.3457 -0.00892
C 2.51746 25.64965 -0.01362
C 2.46668 24.17583 -0.0008
C 3.66827 23.36405 0.0288
C 3.61436 21.9003 0.00393
C 2.34194 21.35089 0.00895
C 2.45229 19.95664 0.00685
C 3.63022 19.38374 0.02888
C 3.76203 17.87714 -0.00482
C 2.40317 17.13215 -0.01384
C 2.43329 15.67019 0.03693
C 3.71346 14.97404 0.01745
C 3.5977 13.60663 0.00488
C 4.99769 25.60579 0.03589
C 4.79355 24.24385 -0.02759
C 4.80584 17.0818 0.0402
C 4.96795 15.65116 0.00572
C 8.58734 13.31208 0.01877
C 7.2931 12.65713 0.01363
C 7.33422 11.19747 -0.02162
C 8.62564 10.6444 0.00415
C 8.60548 9.12539 -0.0014
C 7.28619 8.55826 0.02162
C 7.34028 7.10468 0.0076
C 8.56132 6.37119 0.01241
C 8.52975 4.97597 -0.01454
C 7.26242 4.26264 0.01945
C 7.38024 2.87074 0.01416
C 8.59491 2.18257 0.03542
C 8.6281 0.81081 0.02299
C 7.45301 0.04398 0.00244
C 9.84305 32.78906 -0.01717
C 11.05983 32.02201 0.05265
C 11.02876 30.58316 -0.01952
C 8.68606 27.80113 -0.00925
C 9.71291 28.47735 0.00374
C 7.41783 28.47675 0.00444
C 8.56584 30.71746 0.02894
C 6.09834 14.88096 0.03592
C 6.05289 13.43964 0.00406
C 4.81506 12.80459 0.00943
C 4.7879 11.34449 0.02841
C 6.06177 10.54903 -0.01111
C 6.07234 9.25131 -0.01275
C 4.83285 8.52129 0.00985
C 4.89097 7.01113 -0.02245
C 6.11969 6.34658 -0.00428
C 6.06455 4.95227 0.03101
C 4.8786 4.19004 -0.01536
C 5.00967 2.77498 -0.02689
C 6.22028 2.11301 -0.01046
C 6.24022 0.7353 -0.00891
C 4.97974 0.02152 0.02819
C 7.39057 32.71231 0.00165
C 8.5933 32.07221 -0.02971
C 7.46589 29.97045 -0.01789
C 3.69499 32.08032 0.00054
C 22.15794 29.65987 -0.00381
C 23.42412 27.48621 0.0296
C 33.14921 27.71213 0.00026
C 33.17693 26.24426 0.00682
C 31.88825 25.57185 -0.01779
C 31.83362 24.21594 0.03794
C 33.19721 23.53444 0.01927
C 33.15185 22.08914 0.01574
C 31.92994 21.32632 -0.02383
C 31.93184 28.43306 0.0544
C 31.95311 19.89206 -0.01429
C 33.25322 17.80132 0.00594
C 32.00937 17.11903 -0.02474
C 31.91366 15.67567 0.00369
C 33.14573 14.92302 0.00455
C 33.18365 13.55157 -0.00644
C 31.9047 12.80987 -0.01839
C 31.87243 11.35698 0.00137
C 33.18741 19.19145 -0.0136
C 31.85161 29.83164 -0.02142
C 33.14362 30.53907 0.01428
C 33.18228 31.90983 -0.01694
C 29.45214 15.55982 0.01705
C 30.66139 14.88857 -0.0405
C 30.64768 13.39214 -0.01303
C 29.3732 12.75286 -0.01461
C 29.42492 11.37996 -0.02155
C 30.60671 10.69797 -0.00944
C 30.66807 9.23164 -0.03735
C 29.52735 8.51164 -0.00971
C 29.51972 7.07962 0.01518
C 30.71568 6.37994 0.01908
C 30.76323 4.9314 0.07705
C 29.45753 4.20596 0.0103
C 29.47343 2.83688 0.02108
C 30.70464 2.03016 0.00716
C 30.70527 0.67445 0.00307
C 29.4653 34.0635 0.00346
C 31.9266 32.60979 0.01713
C 33.16785 10.62407 0.00199
C 33.12538 9.2106 0.04381
C 31.88149 8.49186 0.02806
C 31.9373 7.09182 0.01504
C 1.19006 17.87564 0.01223
C 0.0007 17.06881 0.00648
C 34.42979 15.61569 0.02114
C 1.27833 14.92137 -0.02957
C 1.20779 13.57545 0.00343
C 34.40539 12.84899 -0.02656
C 34.36881 11.4179 -0.02442
C 1.15647 10.72449 -0.00027
C 1.12807 9.22784 -0.00583
C 34.36272 8.42173 -0.02302
C 0.00278 7.0113 -0.02849
C 1.17901 6.31277 0.02931
C 1.23701 4.87528 0.00628
C 34.42835 4.21498 -0.0345
C 34.39824 2.86562 -0.00931
C 1.20999 2.16057 -0.00939
C 1.24789 0.72621 -0.00468
C 1.2369 19.22959 -0.01678
C 29.4513 16.99747 0.0101
C 34.38156 19.94893 0.01951
C 1.13443 22.10761 0.02712
C 33.22072 6.31903 -0.00069
C 33.1603 4.94882 0.04926
C 31.97212 4.20899 -0.03838
C 31.99778 2.73246 0.00349
C 33.23026 2.07434 -0.00323
C 33.23886 0.66722 -0.00841
C 31.97966 34.07872 0.0001
C 34.39 32.61885 -0.02927
C 1.19164 31.98567 -0.01404
C 1.16833 30.47195 0.01027
C 34.33851 29.81811 0.01831
C 34.39528 28.38751 -0.01037
C 1.236 27.67405 -0.00439
C 1.27007 26.30769 -0.00598
C 34.42317 25.62496 -0.05239
C 34.3405 24.19531 0.03076
C 1.09931 23.49419 0.00723
C 34.40883 21.3603 -0.02213
C 22.17617 27.99952 0.03046
C 30.72168 17.67851 -0.00669
C 29.43153 19.85531 0.01836
C 25.63019 13.45828 0.02737
C 24.34726 12.75787 -0.00498
C 24.43221 11.34439 0.00135
C 25.69768 10.68317 0.03102
C 25.87189 9.26584 0.02555
C 24.66832 8.48668 0.01423
C 24.60511 7.09104 -0.00285
C 25.68634 14.84934 0.02117
C 25.80685 6.39477 -0.009
C 24.56455 4.26501 -0.00229
C 24.61914 2.83927 -0.00938
C 25.77872 2.13106 -0.0264
C 25.83306 0.63577 -0.01154
C 24.53038 34.06405 0.00684
C 27.04369 32.62958 -0.01052
C 28.22536 31.91108 -0.01679
C 25.79053 5.00687 -0.01199
C 24.01627 26.31811 -0.04078
C 25.50235 26.31889 0.03005
C 25.83503 27.72545 -0.0276
C 22.05046 11.17793 0.03374
C 23.24453 10.64513 -0.02845
C 23.32864 9.20583 -0.03213
C 22.11296 8.51242 0.02239
C 22.11896 7.07451 0.01153
C 23.345 6.3694 0.02734
C 23.41722 5.03189 -0.0055
C 22.15759 4.28163 0.01515
C 22.16324 2.85178 -0.00225
C 23.33308 2.10701 0.00071
C 23.27584 0.73951 -0.01107
C 22.02414 0.02571 -0.01586
C 24.55831 32.647 -0.01971
C 25.74852 31.97239 -0.02118
C 25.67102 30.57896 0.00733
C 24.58889 29.80155 -0.00178
C 24.62944 28.43703 0.00768
C 28.13585 30.53791 0.00367
C 26.98911 29.85544 0.04306
C 27.04884 28.41865 0.00996
C 28.20905 27.74222 0.00195
C 26.99417 4.30515 0.01495
C 26.9977 2.87823 0.01259
C 28.22979 2.15284 0.01799
C 28.20451 0.74692 0.01699
C 27.05652 34.06443 -0.00416
C 29.41954 32.65398 0.01177
C 30.69694 31.92993 0.04266
C 30.57683 30.55582 0.01324
C 29.45578 29.80464 0.0014
C 29.49059 28.42538 0.00924
C 30.70388 27.70432 0.02326
C 30.66322 26.31876 0.00261
C 29.43546 25.68004 0.03265
C 29.35501 24.19834 -0.02049
C 30.6163 23.49958 -0.01854
C 30.68455 22.0542 -0.01415
C 29.46281 21.31555 -0.03039
C 28.27256 4.93102 0.00235
C 30.72689 19.15271 0.03531
C 28.28871 6.33885 0.01094
C 27.0799 8.5232 0.02611
C 28.14372 26.31769 -0.00802
C 26.7947 25.56819 -0.00218
C 26.87628 24.12945 -0.01654
C 28.13225 23.40325 -0.00037
C 28.08988 21.93806 -0.0032
C 27.03848 21.10857 0.00622
C 26.95463 19.94645 -0.02815
C 28.22139 19.17403 -0.00942
C 28.20482 17.76698 0.00487
C 26.94798 17.09928 0.00826
C 26.86638 15.65642 -0.00294
C 28.13577 14.84815 0.00152
C 28.08789 13.47747 0.01257
C 26.88175 12.68372 0.02316
C 26.99568 11.31487 0.04185
C 28.20171 10.61178 0.00194
C 28.24932 9.26416 -0.00621
C 27.05022 6.97138 0.02198
C 2.41707 32.73227 -0.00494
