339
Graphene
C 34.41972 0.02391 0.01295
C 13.62197 4.80268 -0.02162
C 12.37131 4.54972 0.00889
C 12.35472 2.95737 -0.00481
C 13.5237 2.18865 0.00979
C 13.52805 0.71546 0.01443
C 12.31144 0.05286 0.03505
C 14.7043 32.61641 -0.02815
C 15.86382 31.86165 -0.04147
C 15.86996 30.51741 -0.05302
C 14.56611 29.66746 0.00213
C 14.93122 28.37241 -0.00066
C 15.98765 27.54438 -0.00289
C 16.19368 26.2182 0.00028
C 14.60135 16.97042 -0.02213
C 14.93432 15.77666 0.03698
C 15.80252 14.74628 -0.00109
C 16.1237 4.98906 -0.00491
C 11.78648 15.58799 -0.00619
C 14.85961 4.27813 0.03338
C 12.11607 16.94289 0.01848
C 13.41454 19.03964 -0.03113
C 9.796 19.80551 0.05265
C 11.05307 19.27956 -0.01952
C 11.05304 17.85748 -0.02813
C 9.74142 17.16065 0.00374
C 10.08323 15.76994 0.00052
C 10.99284 5.05294 -0.03682
C 9.83648 4.2478 0.01965
C 9.84565 2.84055 0.02058
C 11.0907 2.2491 -0.01957
C 11.10619 0.80323 -0.0108
C 9.85342 0.05955 -0.00368
C 12.28132 32.72337 -0.02696
C 13.43825 31.87283 -0.00114
C 13.45949 30.5898 0.00228
C 13.59249 22.09524 0.00798
C 12.51665 21.28671 0.00422
C 12.36109 19.96739 0.0351
C 13.58944 17.77207 0.02098
C 14.83392 2.76254 -0.0258
C 15.99568 2.07387 -0.0331
C 16.00041 0.69067 -0.00316
C 20.91734 30.55112 -0.00652
C 19.58507 29.86176 0.0058
C 19.61849 28.47488 -0.00865
C 20.83089 27.8034 0.00675
C 20.64845 26.31657 -0.00311
C 19.53231 12.7104 0.00742
C 19.58279 11.464 -0.01594
C 20.81438 10.6809 0.0106
C 20.85484 9.16154 -0.01154
C 19.64602 8.45909 -0.01721
C 19.61953 7.06417 -0.02422
C 20.89761 6.3793 0.01277
C 20.9527 4.98707 0.00096
C 19.6864 4.21494 -0.01527
C 19.70225 2.8357 0.01087
C 20.90666 2.10832 0.00199
C 20.85123 0.69227 0.01511
C 20.86884 31.96429 -0.04076
C 19.6501 32.61613 -0.00703
C 17.14948 34.0437 0.00654
C 18.37052 0.69148 -0.04422
C 14.72854 34.03994 0.02188
C 17.06138 32.54865 -0.01979
C 18.34304 31.96361 0.02691
C 18.40505 30.53007 -0.01581
C 17.19112 29.76831 0.01452
C 17.22658 28.36113 0.04892
C 18.46258 27.68957 -0.00111
C 18.73628 26.33444 -0.03557
C 11.06105 32.0192 -0.01717
C 17.48863 25.77567 0.03754
C 18.49517 10.60663 0.00755
C 18.60259 9.26538 -0.0054
C 17.14138 7.01675 0.00667
C 18.36601 6.34915 0.00143
C 18.47748 4.90115 -0.017
C 17.27287 4.14755 0.00364
C 17.20472 2.71148 -0.00831
C 18.47802 2.06792 -0.02957
C 18.5359 13.54938 0.01739
C 19.65263 34.03477 -0.00478
C 9.88625 32.76217 0.00244
C 8.5805 0.739 0.03542
C 2.46138 8.47129 -0.01384
C 2.41286 7.08945 0.03693
C 3.67151 6.33111 0.01745
C 3.64748 4.97243 0.00488
C 2.40481 4.21827 -0.01004
C 2.41968 2.81802 -0.02896
C 3.72388 2.18457 -0.00131
C 3.7451 0.77863 -0.01118
C 2.45626 0.0709 -0.014
C 4.97907 32.70005 0.02147
C 6.13271 31.89165 0.00373
C 6.24219 30.38091 -0.00191
C 4.91722 29.86602 0.00438
C 4.81416 28.45805 0.01291
C 4.81201 25.6416 0.00093
C 4.84903 24.18316 0.00057
C 5.99416 23.49036 -0.01634
C 3.71655 9.28451 -0.00482
C 6.22495 22.21049 -0.00334
C 3.63398 10.65943 0.02888
C 2.44506 12.76537 0.00895
C 3.70612 30.65843 0.02635
C 2.48794 29.95148 0.0127
C 2.46096 28.53306 0.01396
C 3.71495 27.70909 0.01849
C 3.67074 26.31943 -0.01142
C 2.4738 25.60363 -0.00562
C 2.38409 24.12418 -0.00494
C 3.63683 23.3896 0.00054
C 3.77616 22.03106 0.03007
C 2.55245 21.23638 -0.00095
C 2.58986 19.86792 0.01572
C 3.71247 19.14939 -0.04848
C 3.63856 17.74083 -0.00892
C 2.43709 17.09683 -0.01362
C 2.45149 15.59755 -0.0008
C 3.62593 14.88398 0.0288
C 3.63981 13.50383 0.00393
C 2.40477 11.30689 0.00685
C 4.97289 21.24551 0.02339
C 5.01547 19.8558 0.01641
C 6.13228 19.06636 -0.00719
C 7.16395 21.24507 0.00165
C 7.29582 19.86167 -0.02971
C 8.56188 19.23352 0.02894
C 8.52894 17.81808 -0.01789
C 7.34977 16.97461 0.00444
C 7.45761 15.65944 -0.00925
C 8.85107 14.94901 0.01877
C 8.59159 13.5793 0.01363
C 7.52446 12.78396 -0.02162
C 7.32244 11.44061 0.00415
C 7.22474 8.41573 -0.0014
C 7.56161 7.11781 0.02162
C 8.67837 6.33874 0.0076
C 8.6523 5.0266 0.01241
C 7.39724 4.34087 -0.01454
C 7.35204 2.93327 0.01945
C 8.60093 2.19031 0.01416
C 7.4502 29.98648 0.02819
C 8.67884 30.61491 -0.00891
C 8.70741 31.93173 -0.01046
C 7.40315 32.65375 -0.02689
C 6.11473 17.68056 0.01364
C 4.88395 16.97143 -0.01062
C 4.89785 15.61302 -0.00033
C 6.15732 14.91235 0.03589
C 6.17712 13.47244 -0.02759
C 4.94726 12.76204 0.0402
C 4.85466 11.41242 0.00572
C 6.20073 10.6723 0.03592
C 7.3592 34.01249 0.02299
C 6.13684 9.23123 0.00406
C 4.91847 7.15122 0.02841
C 6.16739 6.43266 -0.01111
C 6.09165 5.02798 -0.01275
C 4.89734 4.24929 0.00985
C 4.93903 2.84026 -0.02245
C 6.12704 2.25515 -0.00428
C 6.17743 0.76765 0.03101
C 4.97191 0.10301 -0.01536
C 4.8705 8.53185 0.00943
C 3.6935 32.04825 -0.01378
C 22.17726 32.59934 -0.01662
C 23.41313 30.52636 0.01126
C 31.95308 29.81715 -0.02142
C 31.96194 28.35812 0.0544
C 33.18522 27.69932 0.00026
C 33.2426 26.26972 0.00682
C 32.05635 25.52693 -0.01779
C 31.9508 24.12909 0.03794
C 33.11188 23.414 0.01927
C 33.17809 21.99586 0.01574
C 31.94471 21.23598 -0.02383
C 31.93184 19.86295 -0.01429
C 33.17209 19.201 -0.0136
C 33.20783 17.7266 0.00594
C 31.98156 17.07039 -0.02474
C 31.95369 15.60724 0.00369
C 33.21331 14.94876 0.00455
C 33.17446 13.48309 -0.00644
C 31.9542 12.83207 -0.01839
C 33.151 30.53547 0.01428
C 31.99315 11.36575 0.00137
C 33.16047 31.97397 -0.01694
C 29.49684 0.01915 0.00346
C 30.73436 17.77673 -0.00669
C 29.45893 17.02915 0.0101
C 29.52472 15.65971 0.01705
C 30.73009 14.94486 -0.0405
C 30.69106 13.58307 -0.01303
C 29.47003 12.84588 -0.01461
C 29.5327 11.3852 -0.02155
C 30.73927 10.69956 -0.00944
C 30.74043 9.24329 -0.03735
C 29.57104 8.51579 -0.00971
C 29.47471 7.10763 0.01518
C 30.69395 6.41582 0.01908
C 30.70121 4.97317 0.07705
C 29.42867 4.18714 0.0103
C 29.51796 2.83639 0.02108
C 30.7476 2.16401 0.00716
C 30.71995 0.73127 0.00307
C 31.84563 32.66399 0.01713
C 33.18019 10.64211 0.00199
C 33.17319 9.23202 0.04381
C 31.97094 8.49496 0.02806
C 1.18373 17.75113 0.01223
C 34.37189 16.99803 0.00648
C 0.02895 15.65716 0.02114
C 1.24807 14.88358 -0.02957
C 1.24581 13.46253 0.00343
C 34.4326 12.74751 -0.02656
C 34.42034 11.39077 -0.02442
C 1.22572 10.56377 -0.00027
C 1.16815 9.19196 -0.00583
C 34.40902 8.52412 -0.02302
C 34.3859 7.07611 -0.02849
C 1.16723 6.41696 0.02931
C 1.17923 4.9504 0.00628
C 34.37416 4.23587 -0.0345
C 0.01161 2.89697 -0.00931
C 1.19718 2.11965 -0.00939
C 1.27294 0.68128 -0.00468
C 1.25529 19.20031 -0.01678
C 0.01411 19.91089 0.01951
C 34.43022 21.25014 -0.02213
C 1.24198 21.91532 0.02712
C 31.93501 7.09574 0.01504
C 33.14547 6.37999 -0.00069
C 33.13106 4.97188 0.04926
C 31.91244 4.32626 -0.03838
C 31.97655 2.90177 0.00349
C 33.2243 2.19763 -0.00323
C 33.16158 0.73947 -0.00841
C 31.9545 0.03315 0.0001
C 30.70981 19.15359 0.03531
C 34.35199 32.71265 -0.02927
C 1.2413 30.57295 0.01027
C 0.0034 29.85804 0.01831
C 0.0276 28.46198 -0.01037
C 1.24958 27.72924 -0.00439
C 1.28292 26.30222 -0.00598
C 0.03769 25.48411 -0.05239
C 34.41556 24.15078 0.03076
C 1.19761 23.36469 0.00723
C 1.18247 32.05244 -0.01404
C 23.36023 31.92342 -0.01185
C 29.53991 19.85573 0.01836
C 30.70586 21.98835 -0.01415
C 24.60708 29.83226 -0.0276
C 24.58755 28.36635 0.03005
C 25.83302 27.7227 -0.04078
C 25.82374 26.21823 0.02117
C 24.57304 25.74242 0.02737
C 25.85932 14.81151 -0.00498
C 25.73305 13.48287 0.00135
C 24.50401 12.85225 0.03102
C 24.57001 11.34648 0.02555
C 25.82003 10.67044 0.01423
C 25.77279 9.27043 -0.00285
C 24.51412 8.57813 -0.009
C 24.55418 7.10367 -0.01199
C 25.74198 6.44489 -0.00229
C 25.74042 5.01382 -0.00938
C 24.54026 4.26704 -0.0264
C 24.59569 2.85922 -0.01154
C 25.83285 30.48446 0.00768
C 25.74307 2.09051 0.00684
C 25.8764 31.91444 -0.00178
C 22.12014 34.06086 -0.02118
C 22.18252 29.86619 0.01852
C 22.14001 28.44044 -0.00381
C 23.28667 27.62055 0.03046
C 23.34918 26.35989 0.0296
C 23.24486 13.31715 0.03374
C 22.05319 12.73274 -0.02845
C 22.02854 11.32628 -0.03213
C 23.2513 10.62167 0.02239
C 23.34635 9.23969 0.01153
C 22.08294 8.47068 0.02734
C 22.06776 7.10445 -0.0055
C 23.28413 6.42548 0.01515
C 23.35165 4.93579 -0.00225
C 22.13723 4.26013 0.00071
C 22.14389 2.76843 -0.01107
C 23.35004 2.0764 -0.01586
C 23.32978 0.68456 -0.01971
C 24.60525 32.67892 0.00733
C 25.75273 0.66351 -0.01052
C 24.57148 34.02234 -0.01679
C 27.05461 32.62491 0.00367
C 28.22156 6.391 0.01094
C 28.22847 4.90207 0.00235
C 26.99168 4.27573 0.01495
C 27.0423 2.85983 0.01259
C 28.24018 2.16287 0.01799
C 28.22561 0.69785 0.01699
C 26.98456 34.0449 -0.00416
C 29.36061 32.67896 0.01177
C 30.69734 31.93259 0.04266
C 30.67973 30.55491 0.01324
C 29.4619 29.72725 0.0014
C 29.53609 28.32723 0.00924
C 30.76151 27.67463 0.02326
C 30.75993 26.27895 0.00261
C 29.52313 25.5756 0.03265
C 29.53382 24.1391 -0.02049
C 30.70929 23.48588 -0.01854
C 27.08056 7.11663 0.02198
C 27.09803 8.50006 0.02611
C 28.30046 9.23371 -0.00621
C 28.25028 10.64293 0.00194
C 28.29276 31.894 0.04306
C 28.2477 30.43772 0.00996
C 27.04541 29.75924 0.00195
C 27.07127 28.38385 -0.00802
C 28.29219 27.62812 -0.00218
C 28.3498 26.26754 -0.01654
C 27.08694 25.55562 -0.00037
C 27.15663 24.2338 -0.0032
C 29.43891 21.23566 -0.03039
C 28.19649 23.31784 0.00622
C 28.27549 19.1818 -0.00942
C 28.18865 17.88562 0.00487
C 27.09344 17.05029 0.00826
C 26.8419 15.70213 -0.00294
C 28.23369 14.9381 0.00152
C 28.26413 13.58169 0.01257
C 27.01413 12.77071 0.02316
C 27.11884 11.35152 0.04185
C 28.34853 22.00245 -0.02815
C 2.40824 32.73799 -0.01303
