382
Graphene
C 34.38383 0.04918 0.01295
C 11.01092 5.03381 0.01241
C 9.80475 4.29414 -0.01454
C 9.8041 2.92704 0.01945
C 11.00355 2.2062 0.01416
C 11.01854 0.71421 0.03542
C 9.8461 0.11233 0.02299
C 12.28762 32.61938 0.00244
C 13.48397 31.88643 -0.01717
C 13.47533 30.51245 0.05265
C 12.24515 29.80079 -0.01952
C 12.28127 28.36226 -0.02813
C 13.54979 27.63854 0.00374
C 13.59122 26.22896 0.00052
C 12.37748 25.6075 -0.03682
C 12.42319 24.0906 0.01965
C 13.59491 23.22069 0.02058
C 13.45396 21.8399 -0.01957
C 12.2178 21.26634 -0.0108
C 12.25583 19.8629 -0.00368
C 11.05083 6.40786 0.0076
C 9.83193 7.11267 0.02162
C 9.83885 8.53475 -0.0014
C 11.07498 9.21522 0.00415
C 11.05877 30.50468 -0.01111
C 9.80402 29.89237 -0.01275
C 9.89124 28.45924 0.00985
C 11.10287 27.69769 -0.02245
C 11.1059 26.32385 -0.00428
C 9.91215 25.63765 0.03101
C 9.82339 24.26607 -0.01536
C 11.05886 23.49124 -0.02689
C 11.05302 22.07034 -0.01046
C 13.58897 19.28793 -0.02696
C 9.8717 21.35314 -0.00891
C 11.04505 19.18088 0.00165
C 11.08119 17.69217 -0.02971
C 9.79842 16.93729 0.02894
C 9.76569 15.58717 -0.01789
C 11.08838 14.91235 0.00444
C 11.07951 13.46472 -0.00925
C 9.80408 12.7678 0.01877
C 9.85694 11.34808 0.01363
C 11.10235 10.66992 -0.02162
C 9.88462 19.9092 0.02819
C 13.68385 17.85473 -0.00114
C 12.35985 17.06691 0.00228
C 12.36203 15.57655 0.00798
C 14.64994 16.94192 -0.0258
C 14.88132 15.65549 -0.0331
C 15.98739 14.86633 -0.00316
C 15.93974 13.43203 0.02188
C 14.72753 12.78373 -0.01979
C 14.75309 11.38582 0.02691
C 16.01868 10.65877 -0.01581
C 16.00533 9.24756 0.01452
C 14.71797 8.5476 0.04892
C 14.67584 24.07492 0.03338
C 14.79196 7.14332 -0.00111
C 15.94737 4.96393 0.03754
C 14.70429 4.2509 0.01739
C 14.71222 2.80732 0.00755
C 15.95099 2.05783 -0.0054
C 15.91649 0.68156 0.00667
C 14.68893 33.98951 0.00143
C 17.18917 32.61474 -0.017
C 18.44018 31.97171 0.00364
C 18.44146 30.50775 -0.00831
C 16.03438 6.33222 -0.03557
C 10.98915 32.02992 0.02841
C 14.94501 25.38517 -0.00491
C 15.94295 27.68497 0.03698
C 13.52761 14.96918 0.00422
C 13.52916 13.54623 0.0351
C 12.32097 12.77315 -0.03113
C 12.28483 11.41029 0.02098
C 13.49705 10.621 0.01848
C 13.48122 9.25936 -0.00619
C 12.3062 8.4891 -0.02162
C 12.28994 7.06594 0.00889
C 13.48833 6.39403 -0.00481
C 16.00107 26.25164 -0.00109
C 13.52792 4.97205 0.00979
C 12.27566 2.83776 0.03505
C 13.50178 2.07313 -0.02815
C 13.52953 0.66906 -0.04147
C 12.28013 34.04104 -0.05302
C 14.64204 32.54494 0.00213
C 15.9204 31.88168 -0.00066
C 15.90569 30.47236 -0.00289
C 14.72378 29.71874 0.00028
C 14.75922 28.33308 -0.02213
C 12.32744 4.33348 0.01443
C 9.72638 32.80426 0.00943
C 7.35323 0.11182 0.00406
C 8.6103 0.84122 0.03592
C 3.60135 5.02084 0.02322
C 2.39044 4.25335 -0.00725
C 2.42009 2.86319 -0.05697
C 3.62132 2.11883 0.01087
C 3.69265 0.73418 -0.01343
C 2.44244 0.01513 0.00988
C 4.81484 32.60138 0.0276
C 6.10013 31.94108 0.01305
C 6.11628 30.57442 -0.00077
C 3.69104 6.4241 -0.00094
C 4.90052 29.87848 0.03368
C 6.18383 27.75462 -0.00966
C 6.19319 26.3171 -0.03337
C 4.96411 25.6004 0.01227
C 4.90878 24.14078 0.00873
C 6.10297 23.45839 -0.00049
C 6.11038 22.05059 0.00848
C 4.94552 21.29634 -0.01303
C 4.95871 19.87704 -0.01378
C 6.21414 19.21383 0.02635
C 4.88113 28.40912 -0.02929
C 6.21039 17.81251 0.0127
C 2.40608 7.13769 -0.02566
C 3.6679 9.23452 0.017
C 3.64762 30.52272 0.01402
C 2.40491 29.77814 0.02379
C 2.41624 28.44877 0.00907
C 3.64085 27.77853 0.00643
C 3.68254 26.34822 -0.01509
C 2.43376 25.57577 0.03267
C 2.46366 24.23824 0.02374
C 3.64752 23.43392 0.00402
C 3.70214 22.03295 0.0073
C 2.44195 8.49173 -0.03113
C 2.46492 21.33651 0.0174
C 3.68072 19.18373 0.01226
C 3.61153 17.82555 -0.00279
C 2.49018 17.09593 0.01996
C 2.46285 15.63191 -0.03996
C 3.67847 14.94082 0.01465
C 3.65091 13.55893 -0.00074
C 2.43445 12.77872 -0.00518
C 2.45461 11.3808 0.0086
C 3.65202 10.68015 -0.00643
C 2.37091 19.93206 0.03828
C 17.14761 29.80703 -0.02957
C 4.94684 17.11018 0.01396
C 6.10244 14.9789 -0.01142
C 8.60729 22.11406 -0.014
C 7.37009 21.32223 0.02147
C 7.44674 19.84656 0.00373
C 8.74447 19.12963 -0.00191
C 8.73036 17.77798 0.00438
C 7.38668 17.05116 0.01291
C 7.39101 15.59245 0.00093
C 8.61155 14.87647 0.00057
C 8.54552 13.46832 -0.01634
C 8.62897 23.51007 -0.01118
C 7.32359 12.79203 -0.00334
C 8.55011 10.67632 0.01641
C 8.58683 9.22116 -0.00719
C 7.29552 8.51314 0.01364
C 7.32441 7.1688 -0.01062
C 8.54503 6.45957 -0.00033
C 8.53943 5.06004 0.03589
C 7.28886 4.35681 -0.02759
C 7.29103 2.95854 0.0402
C 8.57813 2.23543 0.00572
C 7.31001 11.41153 0.02339
C 4.8676 15.74288 0.01849
C 7.35311 24.21587 -0.00131
C 8.64841 26.31797 -0.01004
C 6.12139 13.54026 -0.00562
C 4.88886 12.87857 -0.00494
C 4.87043 11.4936 0.00054
C 6.10652 10.72841 0.03007
C 6.15164 9.29093 -0.00095
C 4.903 8.59057 0.01572
C 4.91562 7.13857 -0.04848
C 6.15675 6.42453 -0.00892
C 6.10246 5.04122 -0.01362
C 7.43636 25.63579 -0.02896
C 4.91217 4.34438 -0.0008
C 6.10611 2.17048 0.00393
C 6.12498 0.75259 0.00895
C 4.86917 34.06758 0.00685
C 7.30295 32.7193 0.02888
C 8.55217 32.10438 -0.00482
C 8.55614 30.61293 -0.01384
C 7.37975 29.95793 0.03693
C 7.44552 28.48008 0.01745
C 8.68964 27.77423 0.00488
C 4.86097 2.83824 0.0288
C 17.1804 28.36505 -0.04422
C 18.42879 27.76228 0.00654
C 18.49199 13.41521 -0.00703
C 29.38307 4.30425 0.0103
C 29.42482 2.86942 0.02108
C 30.71045 2.14075 0.00716
C 30.75547 0.73682 0.00307
C 29.50285 0.06344 0.00346
C 31.90431 32.66982 0.01713
C 33.17051 31.96594 -0.01694
C 33.19985 30.5644 0.01428
C 31.97363 29.83056 -0.02142
C 30.66874 4.98804 0.07705
C 31.94774 28.44051 0.0544
C 33.1345 26.25109 0.00682
C 31.92368 25.4759 -0.01779
C 31.94486 24.11856 0.03794
C 33.21779 23.46018 0.01927
C 33.15498 22.05392 0.01574
C 31.94055 21.28395 -0.02383
C 31.91965 19.87998 -0.01429
C 33.19411 19.25986 -0.0136
C 33.24606 17.83371 0.00594
C 33.11872 27.71784 0.00026
C 32.05194 17.09488 -0.02474
C 30.72751 6.35536 0.01908
C 29.48849 8.48903 -0.00971
C 29.53757 29.87526 0.0014
C 29.52888 28.45669 0.00924
C 30.71998 27.65104 0.02326
C 30.62204 26.27522 0.00261
C 29.29231 25.45995 0.03265
C 29.59894 24.14211 -0.02049
C 30.75057 23.44361 -0.01854
C 30.68566 21.99187 -0.01415
C 29.52472 21.24955 -0.03039
C 29.5223 7.02353 0.01518
C 29.58343 19.88349 0.01836
C 30.79513 17.80965 -0.00669
C 29.63395 17.02041 0.0101
C 29.45689 15.61465 0.01705
C 30.71883 14.93573 -0.0405
C 30.76772 13.49839 -0.01303
C 29.48846 12.7416 -0.01461
C 29.48303 11.33209 -0.02155
C 30.72024 10.61716 -0.00944
C 30.75577 9.29819 -0.03735
C 30.70937 19.16626 0.03531
C 30.7483 30.56495 0.01324
C 31.98626 15.59381 0.00369
C 33.19596 13.51591 -0.00644
C 34.41242 21.31702 -0.02213
C 0.03565 19.90312 0.01951
C 1.24392 19.1978 -0.01678
C 1.26461 17.78358 0.01223
C 0.04403 17.04358 0.00648
C 0.03036 15.66845 0.02114
C 1.29071 14.88837 -0.02957
C 1.17443 13.44503 0.00343
C 34.36158 12.74219 -0.02656
C 1.21058 22.06687 0.02712
C 34.39659 11.40197 -0.02442
C 1.22547 9.19518 -0.00583
C 0.00311 8.51115 -0.02302
C 34.42764 7.09897 -0.02849
C 1.25225 6.419 0.02931
C 1.14572 4.98257 0.00628
C 34.30671 4.30229 -0.0345
C 34.3641 2.89058 -0.00931
C 1.21544 2.19017 -0.00939
C 1.22704 0.67802 -0.00468
C 1.17858 10.64751 -0.00027
C 33.24181 14.95262 0.00455
C 1.25097 23.50137 0.00723
C 34.40841 25.59758 -0.05239
C 32.00765 12.75971 -0.01839
C 31.9478 11.26448 0.00137
C 33.1739 10.64202 0.00199
C 33.20938 9.23401 0.04381
C 32.02136 8.47884 0.02806
C 31.96542 7.10926 0.01504
C 33.20204 6.395 -0.00069
C 33.09824 5.00782 0.04926
C 31.89962 4.26722 -0.03838
C 34.4274 24.14912 0.03076
C 31.92736 2.88344 0.00349
C 33.14485 0.71799 -0.00841
C 31.97252 0.02784 0.0001
C 34.33127 32.75154 -0.02927
C 1.1078 32.04 -0.01404
C 1.17569 30.52373 0.01027
C 34.37637 29.82681 0.01831
C 34.4231 28.40728 -0.01037
C 1.25383 27.64649 -0.00439
C 1.20125 26.24675 -0.00598
C 33.12497 2.10926 -0.00323
C 3.60647 31.95437 -0.003
C 30.75025 31.94359 0.04266
C 27.02444 34.05423 -0.00416
C 19.63521 7.01781 0.03046
C 20.89338 6.34622 0.0296
C 20.87383 4.91941 0.03374
C 19.68115 4.20125 -0.02845
C 19.70689 2.75565 -0.03213
C 20.90032 2.0813 0.02239
C 20.93505 0.66732 0.01153
C 19.67397 34.0531 0.02734
C 22.21746 32.65655 -0.0055
C 19.65851 8.44836 -0.00381
C 23.41747 31.93779 0.01515
C 22.1371 29.79574 0.00071
C 22.05104 28.36221 -0.01107
C 23.28389 27.77066 -0.01586
C 22.16394 12.71828 -0.01971
C 22.17606 11.25844 -0.02118
C 23.28986 10.58608 0.00733
C 23.31775 9.15664 -0.00178
C 22.14704 8.4341 0.00768
C 22.17143 7.05867 -0.0276
C 23.41036 30.44883 -0.00225
C 23.36416 6.40504 0.03005
C 20.85284 9.16996 0.01852
C 19.63491 11.3203 -0.01185
C 17.26724 12.76984 -0.04076
C 17.2671 11.37017 -0.00652
C 18.43077 10.64126 0.0058
C 18.4353 9.16366 -0.00865
C 17.26098 8.43561 0.00675
C 17.21204 7.03457 -0.00311
C 18.40838 6.33889 0.00742
C 18.45075 4.86375 -0.01594
C 17.16601 4.16286 0.0106
C 20.91014 10.59691 0.01126
C 17.18033 2.78437 -0.01154
C 18.46681 0.69057 -0.02422
C 17.24388 0.00503 0.01277
C 19.63291 32.63474 0.00096
C 20.8985 32.01532 -0.01527
C 20.89751 30.51953 0.01087
C 19.65256 29.8076 0.00199
C 19.61962 28.26227 0.01511
C 20.77612 27.59658 -0.00478
C 19.61179 12.62913 -0.01662
C 18.45017 2.10067 -0.01721
C 29.47747 32.7044 0.01177
C 23.32808 4.98433 -0.04078
C 22.07112 2.79039 0.02737
C 28.29566 31.98664 0.00622
C 28.36313 30.62139 -0.02815
C 27.11642 29.94836 -0.00942
C 27.14321 28.51385 0.00487
C 28.36998 27.76756 0.00826
C 28.27905 26.40047 -0.00294
C 28.44452 14.73698 0.00152
C 28.25528 13.44553 0.01257
C 27.0343 12.80539 0.02316
C 27.03045 32.6475 -0.0032
C 27.02661 11.39473 0.04185
C 28.22009 9.20093 -0.00621
C 27.08349 8.55574 0.02611
C 27.02411 7.16466 0.02198
C 28.21989 6.39597 0.01094
C 28.1913 4.96811 0.00235
C 26.93717 4.19684 0.01495
C 26.94911 2.83625 0.01259
C 28.19754 2.14339 0.01799
C 28.22817 0.77046 0.01699
C 28.26933 10.6458 0.00194
C 22.11208 4.25553 0.02117
C 24.59542 34.06131 -0.00037
C 25.73761 2.12048 -0.00218
C 23.30537 2.10154 -0.00498
C 23.32043 0.70362 0.00135
C 22.14097 34.05345 0.03102
C 24.59818 32.66682 0.02555
C 25.77633 31.99519 0.01423
C 25.80975 30.49852 -0.00285
C 24.65289 29.70575 -0.009
C 24.54546 28.17404 -0.01199
C 25.8409 27.88102 -0.00229
C 25.79234 0.68694 -0.01654
C 25.75086 13.2735 -0.00938
C 24.50694 11.30491 -0.01154
C 25.7266 10.67718 0.00684
C 25.81755 9.21403 -0.01052
C 24.60721 8.53822 -0.01679
C 24.52997 7.10326 0.00367
C 25.82424 6.4259 0.04306
C 25.74158 4.99063 0.00996
C 24.5405 4.29597 0.00195
C 24.48832 2.81221 -0.00802
C 24.44002 12.68553 -0.0264
C 2.38355 32.68208 0.00031
