371
Graphene
C 34.38406 0.1656 0.01295
C 13.45507 26.25471 -0.01717
C 12.23672 25.56239 0.05265
C 12.30013 24.18053 -0.01952
C 13.51307 23.47545 -0.02813
C 13.59729 22.01026 0.00374
C 12.28324 21.31918 0.00052
C 12.33336 19.91013 -0.03682
C 13.56781 19.20921 0.01965
C 13.45006 17.71813 0.02058
C 12.22974 17.04318 -0.01957
C 12.10915 15.52019 -0.0108
C 13.32875 14.74665 -0.00368
C 13.24809 13.2878 -0.02696
C 11.90068 12.47006 -0.00114
C 12.13412 11.03774 0.00228
C 13.55855 10.56516 0.00798
C 13.60944 9.1583 0.00422
C 12.33187 8.64683 0.0351
C 12.25355 7.23919 -0.03113
C 13.45847 27.71615 0.00244
C 13.39866 6.35658 0.02098
C 12.26782 28.38563 0.02299
C 13.56971 30.49776 0.01416
C 9.82608 21.42685 -0.01046
C 9.85032 19.94104 -0.00891
C 11.08668 19.26736 0.02819
C 10.98691 17.79667 0.00165
C 9.70393 17.14905 -0.02971
C 9.34448 15.6637 0.02894
C 10.69742 14.84405 -0.01789
C 10.85915 13.40754 0.00444
C 11.44057 9.89315 -0.00925
C 9.79038 7.13116 0.01877
C 10.98057 6.49684 0.01363
C 11.07261 5.14584 -0.02162
C 9.75495 4.51384 0.00415
C 9.80803 2.94367 -0.0014
C 11.02209 2.08568 0.02162
C 11.01375 0.63129 0.0076
C 9.80153 0.04429 0.01241
C 12.357 32.60649 -0.01454
C 13.58257 31.89054 0.01945
C 12.27119 29.83719 0.03542
C 13.36851 4.90754 0.01848
C 12.11266 4.27386 -0.00619
C 12.20442 2.80209 -0.02162
C 14.72429 8.46221 0.01452
C 14.69826 6.98532 0.04892
C 15.95206 6.36031 -0.00111
C 15.86959 4.96466 -0.03557
C 14.57348 4.25654 0.03754
C 14.68057 2.77953 0.01739
C 15.91786 2.19441 0.00755
C 15.97209 0.69787 -0.0054
C 14.73974 34.04589 0.00667
C 17.29875 32.66496 0.00143
C 17.22479 21.19762 -0.017
C 17.30549 19.87441 0.00364
C 18.47551 19.03233 -0.00831
C 18.52729 17.5799 -0.02957
C 17.20636 16.89816 -0.04422
C 17.11989 15.46809 0.00654
C 18.34001 14.73197 -0.00703
C 18.30461 13.34335 -0.04076
C 17.10096 12.75637 -0.00652
C 16.00165 9.08754 -0.01581
C 15.92091 10.62909 0.02691
C 14.70884 11.24938 -0.01979
C 14.56722 12.71898 0.02188
C 13.45946 2.08437 0.00889
C 13.50758 0.66468 -0.00481
C 12.27774 34.07317 0.00979
C 14.84611 32.6828 0.01443
C 16.12446 31.78641 0.03505
C 16.04155 30.39173 -0.02815
C 14.81621 29.72409 -0.04147
C 14.74367 28.30733 -0.05302
C 14.69298 25.67807 0.00213
C 11.07536 22.06515 -0.02689
C 14.83784 24.34809 -0.00066
C 16.17104 22.14895 0.00028
C 14.89684 21.20917 -0.02213
C 14.77804 19.80436 0.03698
C 15.97497 19.07642 -0.00109
C 15.91449 17.58929 -0.00491
C 14.60819 16.92382 0.03338
C 14.58141 15.44127 -0.0258
C 15.81136 14.86771 -0.0331
C 15.83216 13.46917 -0.00316
C 15.89158 23.46162 -0.00289
C 17.11535 11.30535 0.0058
C 11.03025 23.46435 -0.01536
C 9.74186 25.60839 -0.00428
C 3.774 6.44573 -0.02929
C 3.67251 5.11166 -0.00966
C 2.45002 4.3264 -0.03337
C 2.42185 2.96753 0.01227
C 3.64916 2.19664 0.00873
C 3.61335 0.81648 -0.00049
C 2.41174 0.09522 0.00848
C 4.88474 32.80037 -0.01303
C 6.076 32.0806 -0.01378
C 6.0165 30.59727 0.02635
C 4.79727 29.9477 0.0127
C 4.78678 28.54365 0.01396
C 6.02958 27.72837 0.01849
C 6.04271 26.31332 -0.01142
C 4.78105 25.62462 -0.00562
C 4.87197 24.23892 -0.00494
C 6.12596 23.5433 0.00054
C 6.08884 22.11275 0.03007
C 4.85383 21.39763 -0.00095
C 2.46958 7.20763 0.03368
C 4.8996 20.01248 0.01572
C 2.52743 8.62269 -0.00077
C 3.79899 10.79544 0.0276
C 3.49844 30.60164 0.01226
C 2.29694 29.84739 -0.00279
C 2.35856 28.41126 0.01996
C 3.62166 27.71886 -0.03996
C 3.59932 26.37166 0.01465
C 2.34299 25.64849 -0.00074
C 2.38172 24.25812 -0.00518
C 3.623 23.59362 0.0086
C 3.65473 22.13061 -0.00643
C 2.27516 21.3956 0.017
C 2.47629 19.93718 -0.03113
C 3.64441 19.19716 -0.02566
C 3.75618 17.80414 -0.00094
C 2.52164 16.99757 0.02322
C 2.49925 15.57894 -0.00725
C 3.80605 14.87783 -0.05697
C 3.65277 13.45244 0.01087
C 2.46483 12.75962 -0.01343
C 2.41863 11.39264 0.00988
C 3.95741 9.37574 0.01305
C 6.18463 19.29487 -0.04848
C 6.19362 17.86389 -0.00892
C 5.05966 17.10101 -0.01362
C 8.59895 19.32766 -0.00334
C 8.59482 17.94713 0.02339
C 7.45102 17.18579 0.01641
C 7.84311 15.70926 -0.00719
C 7.20604 7.2322 0.01364
C 8.53497 6.72749 -0.01062
C 8.48724 5.16856 -0.00033
C 7.33677 4.35528 0.03589
C 7.38901 2.94934 -0.02759
C 8.60954 2.23974 0.0402
C 8.58443 0.83787 0.00572
C 7.32605 0.08977 0.03592
C 9.84075 32.70085 0.00406
C 11.09663 31.96003 0.00943
C 11.0338 30.57842 0.02841
C 9.82104 29.86775 -0.01111
C 9.77001 28.51278 -0.01275
C 11.01473 27.73737 0.00985
C 11.02409 26.27287 -0.02245
C 7.38456 20.01195 -0.01634
C 7.33264 21.35333 0.00057
C 8.59247 22.11909 0.00093
C 8.54545 23.49853 0.01291
C 5.19327 15.58481 -0.0008
C 6.4336 14.9753 0.0288
C 5.00208 8.55745 0.00393
C 4.9464 7.16463 0.00895
C 6.18413 6.44247 0.00685
C 6.10838 4.9806 0.02888
C 4.8799 4.37337 -0.00482
C 4.86128 2.8863 -0.01384
C 6.14027 2.20144 0.03693
C 9.80746 24.23463 0.03101
C 6.12979 0.78541 0.01745
C 7.34524 32.76784 -0.01004
C 8.60019 32.0536 -0.02896
C 8.59714 30.63194 -0.00131
C 7.3248 29.90685 -0.01118
C 7.25098 28.45345 -0.014
C 8.56698 27.73318 0.02147
C 8.49462 26.29089 0.00373
C 7.30167 25.58154 -0.00191
C 7.39319 24.21811 0.00438
C 4.81905 0.10873 0.00488
C 3.66013 32.05971 0.03828
C 18.34305 10.49912 -0.00865
C 17.26449 8.35842 -0.00311
C 30.70804 2.23022 0.00716
C 30.7792 0.76356 0.00307
C 29.54791 0.09989 0.00346
C 31.81185 32.68068 0.01713
C 33.07949 32.07952 -0.01694
C 33.00636 30.62295 0.01428
C 31.72468 29.89472 -0.02142
C 31.79125 28.37109 0.0544
C 33.03464 27.72521 0.00026
C 32.99278 26.27362 0.00682
C 31.81863 25.57405 -0.01779
C 31.81406 24.17091 0.03794
C 33.05778 23.43987 0.01927
C 33.01331 22.00826 0.01574
C 31.7764 21.22662 -0.02383
C 31.97264 19.86731 -0.01429
C 33.26181 19.17326 -0.0136
C 33.20884 17.76997 0.00594
C 31.97793 17.04625 -0.02474
C 29.48771 2.93325 0.02108
C 31.88427 15.64382 0.00369
C 29.45359 4.39533 0.0103
C 30.74742 6.51577 0.01908
C 30.61193 27.55365 0.00261
C 30.64745 26.32174 0.03265
C 29.49546 24.37628 -0.02049
C 30.54969 23.43477 -0.01854
C 30.32749 21.947 -0.01415
C 29.24225 21.20741 -0.03039
C 29.4895 19.82208 0.01836
C 30.65087 19.12263 0.03531
C 30.67215 17.71853 -0.00669
C 29.43962 17.0276 0.0101
C 29.38028 15.69263 0.01705
C 30.66603 14.99319 -0.0405
C 30.69917 13.58522 -0.01303
C 29.555 12.80902 -0.01461
C 29.58123 11.33333 -0.02155
C 30.80462 10.69792 -0.00944
C 30.73573 9.32345 -0.03735
C 29.48256 8.53956 -0.00971
C 29.45932 7.12816 0.01518
C 30.69516 5.08444 0.07705
C 33.20929 14.97154 0.00455
C 33.17346 13.49968 -0.00644
C 31.91238 12.90134 -0.01839
C 0.08075 19.88926 0.01951
C 1.268 19.15899 -0.01678
C 1.39946 17.73142 0.01223
C 0.13377 17.03253 0.00648
C 0.00671 15.63752 0.02114
C 1.28327 14.97175 -0.02957
C 1.17242 13.47568 0.00343
C 34.3668 12.77518 -0.02656
C 34.37103 11.41889 -0.02442
C 1.1971 10.78195 -0.00027
C 1.30577 9.35132 -0.00583
C 0.06292 8.64871 -0.02302
C 0.02001 7.21848 -0.02849
C 1.25644 6.54203 0.02931
C 1.32724 5.18624 0.00628
C 0.05675 4.43456 -0.0345
C 34.43306 3.05309 -0.00931
C 1.20129 2.24576 -0.00939
C 1.21014 0.84457 -0.00468
C 34.30647 21.29107 -0.02213
C 1.12325 22.12793 0.02712
C 1.08283 23.51222 0.00723
C 34.28984 24.21262 0.03076
C 31.98403 11.35949 0.00137
C 33.17959 10.69705 0.00199
C 33.17576 9.23104 0.04381
C 31.96191 8.54062 0.02806
C 31.97633 7.14998 0.01504
C 33.19276 6.54968 -0.00069
C 33.20999 5.13569 0.04926
C 31.90414 4.33544 -0.03838
C 31.93094 2.93375 0.00349
C 29.14503 30.31046 0.02326
C 33.18437 2.28413 -0.00323
C 31.97586 0.05035 0.0001
C 34.31987 32.78031 -0.02927
C 1.14679 32.01852 -0.01404
C 1.07744 30.55167 0.01027
C 34.24756 29.86536 0.01831
C 34.21882 28.42417 -0.01037
C 1.09613 27.71134 -0.00439
C 1.08701 26.2958 -0.00598
C 34.29044 25.66781 -0.05239
C 33.1146 0.87205 -0.00841
C 18.45735 9.10975 0.00675
C 30.44551 30.59676 0.00924
C 29.39232 32.83503 0.01324
C 19.65514 4.20518 0.02239
C 19.69257 2.75069 0.01153
C 20.83372 1.95248 0.02734
C 20.79764 0.44768 -0.0055
C 19.48769 33.99752 0.01515
C 23.43865 19.14946 -0.00225
C 23.30466 17.71466 0.00071
C 22.2346 16.90439 -0.01107
C 22.14411 15.48085 -0.01586
C 23.3705 14.82876 -0.01971
C 23.33039 13.36387 -0.02118
C 22.06136 12.73067 0.00733
C 22.05363 11.26212 -0.00178
C 23.24604 10.58889 0.00768
C 23.24701 9.19947 -0.0276
C 22.02043 8.47859 0.03005
C 22.09614 7.06111 -0.04078
C 23.23915 6.25526 0.02117
C 23.36108 4.79958 0.02737
C 20.94698 4.90186 -0.03213
C 22.12934 4.11484 -0.00498
C 20.90044 6.28853 -0.02845
C 19.69048 8.42941 0.0296
C 17.13563 6.99428 0.00742
C 18.40033 6.27115 -0.01594
C 18.4564 4.97184 0.0106
C 17.1892 4.27481 -0.01154
C 17.16729 2.83412 -0.01721
C 18.42802 2.11828 -0.02422
C 18.32426 0.72515 0.01277
C 17.20291 34.01074 0.00096
C 19.80846 19.63328 -0.01527
C 20.73581 18.87984 0.01087
C 20.99381 17.56221 0.00199
C 19.73197 16.87243 0.01511
C 19.63504 15.43964 -0.00478
C 20.87827 14.76441 -0.01662
C 20.80489 13.31365 -0.01185
C 19.58813 12.67679 0.01126
C 19.57213 11.27706 0.01852
C 20.84415 10.47063 -0.00381
C 20.869 9.12878 0.03046
C 19.6282 7.03128 0.03374
C 22.18279 2.72985 0.00135
C 23.35362 1.94027 0.03102
C 23.42456 0.43914 0.02555
C 28.24805 19.18426 0.00826
C 28.23327 17.81399 -0.00294
C 26.99884 17.13696 0.00152
C 26.97664 15.71016 0.01257
C 28.21939 14.86288 0.02316
C 28.21959 13.45147 0.04185
C 26.99618 12.74995 0.00194
C 27.05947 11.3432 -0.00621
C 28.35323 10.65329 0.02611
C 28.29189 9.2291 0.02198
C 27.05866 8.51721 0.01094
C 26.98983 7.07149 0.00235
C 28.19864 6.34247 0.01495
C 28.20161 4.98978 0.01259
C 27.03052 4.2262 0.01799
C 27.08397 2.83281 0.01699
C 28.27904 2.09875 -0.00416
C 28.35848 0.74564 0.01177
C 27.30095 33.89279 0.04266
C 27.02009 19.92039 0.00487
C 27.81339 21.33026 -0.00942
C 27.92842 32.5591 -0.02815
C 24.62911 33.90151 0.00622
C 22.10908 33.99552 0.01423
C 24.52179 19.85803 -0.00285
C 25.85267 19.3647 -0.009
C 25.81575 17.91834 -0.01199
C 24.5798 17.10514 -0.00229
C 24.58948 15.61759 -0.00938
C 25.83308 14.91481 -0.0264
C 25.68925 13.49955 -0.01154
C 24.58393 12.67255 0.00684
C 30.59029 32.04341 0.0014
C 24.53321 11.23944 -0.01052
C 25.77918 9.21135 0.00367
C 24.4924 8.49001 0.04306
C 24.45856 6.95132 0.00996
C 25.72638 6.40538 0.00195
C 25.76373 4.91278 -0.00802
C 24.54272 4.15642 -0.00218
C 24.63292 2.69832 -0.01654
C 25.86314 2.04601 -0.00037
C 25.93632 0.495 -0.0032
C 25.85931 10.60721 -0.01679
C 2.2889 32.7831 0.0174
