398
Graphene
C 34.34473 0.00138 0.01295
C 12.29381 11.49341 0.02894
C 13.51111 10.74898 -0.01789
C 13.51238 9.38522 0.00444
C 12.27479 8.65526 -0.00925
C 12.31037 7.13068 0.01877
C 13.60011 6.49979 0.01363
C 13.60371 5.03634 -0.02162
C 12.38814 4.34609 0.00415
C 12.28617 2.91767 -0.0014
C 12.30585 12.92855 -0.02971
C 13.54404 2.15579 0.02162
C 12.28208 0.09157 0.01241
C 14.74525 32.58427 -0.01454
C 15.95661 31.90383 0.01945
C 15.77364 30.44291 0.01416
C 14.51949 29.76097 0.03542
C 14.49848 28.29476 0.02299
C 15.71714 27.59472 0.00244
C 16.05784 26.16296 -0.01717
C 16.20181 15.13168 0.05265
C 13.5534 0.67316 0.0076
C 13.40047 13.82472 0.00165
C 13.10501 15.11259 0.02819
C 13.33525 27.54391 -0.00891
C 9.87431 15.68247 -0.00719
C 11.16595 15.05734 0.01364
C 11.09899 13.57931 -0.01062
C 9.82607 12.88679 -0.00033
C 9.90491 11.43613 0.03589
C 11.09428 10.78313 -0.02759
C 11.09972 9.36774 0.0402
C 9.86627 8.58325 0.00572
C 9.83863 7.20983 0.03592
C 11.1055 6.44162 0.00406
C 11.06453 5.03248 0.00943
C 9.80573 4.39567 0.02841
C 9.79532 2.90304 -0.01111
C 10.99373 2.27095 -0.01275
C 11.09847 0.85098 0.00985
C 9.87134 0.12085 -0.02245
C 12.27289 32.7354 -0.00428
C 13.55008 31.995 0.03101
C 13.41604 30.58399 -0.01536
C 12.17557 29.76381 -0.02689
C 12.14421 28.37771 -0.01046
C 15.93288 13.76471 -0.01952
C 14.72825 13.00284 -0.02813
C 14.76005 11.54585 0.00374
C 15.95118 10.8048 0.00052
C 18.46018 9.28209 0.00213
C 17.20911 8.52418 -0.00066
C 17.25577 7.11501 -0.00289
C 18.46881 6.35014 0.00028
C 18.49791 4.93199 -0.02213
C 17.20929 4.26948 0.03698
C 17.23767 2.82534 -0.00109
C 18.51563 2.10917 -0.00491
C 18.46248 0.67358 0.03338
C 17.31448 34.00021 -0.0258
C 19.63744 32.60336 -0.0331
C 20.93544 31.91561 -0.00316
C 20.90856 30.49027 0.02188
C 19.59343 29.82019 -0.01979
C 19.53394 28.38545 0.02691
C 20.86556 27.75633 -0.01581
C 20.87548 26.40845 0.01452
C 19.75106 25.65059 0.04892
C 19.98649 24.31072 -0.00111
C 20.45173 23.09681 -0.03557
C 21.21371 21.9366 0.03754
C 18.42947 10.71185 -0.05302
C 9.73026 25.72338 0.01641
C 17.24628 11.39788 -0.04147
C 18.42734 13.52379 0.03505
C 16.00382 9.30373 -0.03682
C 14.73958 8.71572 0.01965
C 14.81192 7.27154 0.02058
C 16.01048 6.47733 -0.01957
C 16.01065 4.95921 -0.0108
C 14.75971 4.29533 -0.00368
C 14.73292 2.862 -0.02696
C 16.06593 2.12414 -0.00114
C 16.03193 0.6298 0.00228
C 14.79095 34.00356 0.00798
C 17.24414 32.61263 0.00422
C 18.45342 31.83533 0.0351
C 18.30427 30.45953 -0.03113
C 17.04609 29.76057 0.02098
C 17.08464 28.35082 0.01848
C 18.283 27.60215 -0.00619
C 18.34979 26.11791 -0.02162
C 17.04278 25.55495 0.00889
C 18.17056 17.56538 -0.00481
C 17.32573 15.88608 0.00979
C 18.48047 14.93737 0.01443
C 17.15368 12.92315 -0.02815
C 10.77506 26.38507 0.02339
C 10.96681 27.73252 -0.00334
C 9.69393 28.50476 -0.01634
C 2.4259 4.33945 0.0174
C 2.41551 2.90761 0.03828
C 3.71313 2.23896 0.01226
C 3.63767 0.86955 -0.00279
C 2.41414 0.1261 0.01996
C 4.83891 32.78646 -0.03996
C 6.07136 32.11576 0.01465
C 6.05634 30.66281 -0.00074
C 4.85377 29.84809 -0.00518
C 4.88705 28.4643 0.0086
C 6.00576 27.67843 -0.00643
C 6.10792 26.34879 0.017
C 4.89498 25.5347 -0.03113
C 4.92182 24.02124 -0.02566
C 6.2551 23.26865 -0.00094
C 6.22071 21.85812 0.02322
C 4.90847 21.20253 -0.00725
C 4.89781 19.82218 -0.05697
C 6.0279 19.19462 0.01087
C 6.10849 17.78318 -0.01343
C 4.8993 17.03184 0.00988
C 3.61514 5.06071 0.0073
C 4.83737 15.59177 0.0276
C 3.65067 6.44827 0.00402
C 2.39976 8.48781 0.03267
C 3.68429 30.60115 -0.00449
C 2.40577 29.90353 -0.01979
C 2.47915 28.44776 0.02784
C 3.71731 27.72838 -0.01977
C 3.73843 26.26195 -0.00561
C 2.46721 25.5424 0.00208
C 2.44656 24.1087 0.01707
C 3.67127 23.36693 0.02769
C 3.70867 21.91149 -0.03291
C 2.48429 21.25905 -0.04999
C 2.43633 19.8537 0.04505
C 3.65887 19.12265 0.03284
C 3.67264 17.75998 -0.04307
C 2.39993 17.0707 0.03189
C 2.40075 15.59188 0.00031
C 3.57852 14.85383 -0.003
C 3.60613 13.49663 0.01402
C 2.37236 12.77518 0.02379
C 2.40221 11.34087 0.00907
C 3.64533 10.71747 0.00643
C 3.6175 9.29396 -0.01509
C 2.42036 7.13801 0.02374
C 20.16145 20.98747 0.01739
C 6.12537 14.96009 0.01305
C 4.8698 12.85211 0.03368
C 7.42746 17.16773 0.00393
C 7.39086 15.77123 0.00895
C 8.57295 15.03078 0.00685
C 8.57748 13.56193 0.02888
C 7.32331 12.80656 -0.00482
C 7.39095 11.40221 -0.01384
C 8.71262 10.72434 0.03693
C 8.63718 9.26368 0.01745
C 7.4105 8.59391 0.00488
C 7.37557 7.20329 -0.01004
C 8.61909 6.4947 -0.02896
C 8.60911 5.05961 -0.00131
C 7.43405 4.3368 -0.01118
C 7.42087 2.93412 -0.014
C 8.59698 2.2333 0.02147
C 8.58786 0.75765 0.00373
C 7.41653 0.01995 -0.00191
C 9.81971 32.73096 0.00438
C 11.06064 31.95201 0.01291
C 11.03538 30.51688 0.00093
C 9.64578 29.92075 0.00057
C 8.51611 18.08389 0.0288
C 6.0725 13.51682 -0.00077
C 7.36386 19.71781 -0.0008
C 8.62846 23.44152 -0.00892
C 4.92715 11.39631 -0.02929
C 6.14086 10.73867 -0.00966
C 6.1691 9.26227 -0.03337
C 4.93464 8.57574 0.01227
C 4.96189 7.17228 0.00873
C 6.15658 6.50138 -0.00049
C 6.13009 5.14475 0.00848
C 4.89829 4.4155 -0.01303
C 4.85153 3.0497 -0.01378
C 6.06566 2.22765 0.02635
C 6.10063 0.81304 0.0127
C 4.86881 0.10991 0.01396
C 7.38577 32.75226 0.01849
C 8.57322 32.08876 -0.01142
C 8.43997 30.65696 -0.00562
C 7.31146 29.90093 -0.00494
C 7.29932 28.50536 0.00054
C 8.47564 27.79344 0.03007
C 8.47972 26.28721 -0.00095
C 7.30697 25.52583 0.01572
C 7.45593 24.02605 -0.04848
C 7.38669 21.03271 -0.01362
C 19.61513 19.78882 0.00755
C 20.95084 19.23806 -0.0054
C 20.82946 17.79919 0.00667
C 29.54686 7.11811 0.01518
C 30.76198 6.40307 0.01908
C 30.69106 5.03344 0.07705
C 29.53618 4.1726 0.0103
C 29.55518 2.79339 0.02108
C 30.72342 2.04283 0.00716
C 30.62996 0.57917 0.00307
C 29.36629 34.03697 0.00346
C 31.60991 32.4133 0.01713
C 32.92971 31.87144 -0.01694
C 32.97553 30.44268 0.01428
C 31.81755 29.67052 -0.02142
C 31.97485 28.29383 0.0544
C 33.16624 27.58113 0.00026
C 33.0969 26.15363 0.00682
C 31.87562 25.50312 -0.01779
C 31.78821 24.11168 0.03794
C 33.03557 23.42621 0.01927
C 33.0321 22.0028 0.01574
C 31.8164 21.29379 -0.02383
C 31.85453 19.89601 -0.01429
C 29.48636 8.57078 -0.00971
C 33.09992 19.20243 -0.0136
C 30.72448 9.29629 -0.03735
C 29.46156 11.38768 -0.02155
C 28.30572 0.74166 -0.00416
C 27.07758 33.93951 0.01177
C 28.99193 32.52073 0.04266
C 30.23717 31.60124 0.01324
C 30.42111 30.14456 0.0014
C 29.58335 28.63809 0.00924
C 30.75791 27.64372 0.02326
C 30.73196 26.28657 0.00261
C 29.43319 25.62571 0.03265
C 29.38982 24.16387 -0.02049
C 30.59161 23.39506 -0.01854
C 30.57784 21.94615 -0.01415
C 29.36915 21.3398 -0.03039
C 29.36492 19.93202 0.01836
C 30.53988 19.18248 0.03531
C 30.62748 17.76607 -0.00669
C 29.37325 17.0967 0.0101
C 29.37394 15.68302 0.01705
C 30.64598 14.97074 -0.0405
C 30.68271 13.49908 -0.01303
C 29.45881 12.76508 -0.01461
C 30.70502 10.70123 -0.00944
C 28.30548 2.15947 0.01699
C 33.07161 17.82599 0.00594
C 31.8856 15.60811 0.00369
C 1.25156 21.94892 0.02712
C 34.3616 21.27828 -0.02213
C 34.35712 19.86578 0.01951
C 1.17833 19.19323 -0.01678
C 1.18295 17.81145 0.01223
C 34.37724 17.06353 0.00648
C 34.3038 15.68108 0.02114
C 1.14116 14.94834 -0.02957
C 1.11468 13.55657 0.00343
C 34.27943 12.83093 -0.02656
C 34.40478 11.43636 -0.02442
C 1.1676 10.67288 -0.00027
C 1.19732 9.22721 -0.00583
C 34.37545 8.61166 -0.02302
C 0.02264 7.11577 -0.02849
C 1.17242 6.40159 0.02931
C 1.19674 5.04914 0.00628
C 34.42329 4.19994 -0.0345
C 34.42822 2.77133 -0.00931
C 1.23702 2.16058 -0.00939
C 1.17813 0.71389 -0.00468
C 1.25656 23.35081 0.00723
C 31.89223 17.08176 -0.02474
C 34.39097 24.01847 0.03076
C 1.15802 26.21788 -0.00598
C 33.07628 14.93607 0.00455
C 33.12296 13.57257 -0.00644
C 31.88814 12.85176 -0.01839
C 31.93743 11.40462 0.00137
C 33.1697 10.66523 0.00199
C 33.09755 9.32854 0.04381
C 31.97156 8.5096 0.02806
C 31.95663 7.13241 0.01504
C 33.18529 6.41791 -0.00069
C 33.1313 5.00505 0.04926
C 31.95699 4.3008 -0.03838
C 32.03025 2.85931 0.00349
C 33.17577 1.98853 -0.00323
C 33.13776 0.60706 -0.00841
C 31.87258 33.91031 0.0001
C 34.20206 32.69904 -0.02927
C 1.04088 32.05962 -0.01404
C 1.13379 30.58638 0.01027
C 34.33663 29.79019 0.01831
C 0.0678 28.3735 -0.01037
C 1.23914 27.58822 -0.00439
C 34.36087 25.47745 -0.05239
C 3.64094 32.0049 0.00211
C 27.05077 2.82694 0.01799
C 28.30501 4.89066 0.01495
C 23.44751 19.08377 0.01511
C 23.3265 17.70178 -0.00478
C 22.05508 17.05988 -0.01662
C 22.09205 15.62123 -0.01185
C 23.28298 14.95387 0.01126
C 23.27903 13.51141 0.01852
C 22.17685 12.75362 -0.00381
C 22.18839 11.30957 0.03046
C 23.3938 10.63051 0.0296
C 23.26225 9.2031 0.03374
C 22.08387 8.571 -0.02845
C 22.1642 7.13305 -0.03213
C 23.37801 6.4024 0.02239
C 23.37629 4.96845 0.01153
C 22.17705 4.2312 0.02734
C 22.1956 2.80917 -0.0055
C 23.40416 2.09033 0.01515
C 23.3578 0.65939 -0.00225
C 22.12677 0.01708 0.00071
C 24.802 32.61808 -0.01107
C 26.1833 31.8757 -0.01586
C 22.28009 19.86563 0.00199
C 25.86376 30.43168 -0.01971
C 22.63417 21.34713 0.01087
C 22.02756 28.38099 0.00096
C 19.56439 17.06903 0.00143
C 19.64634 15.61879 -0.017
C 20.90066 14.95455 0.00364
C 20.8782 13.4961 -0.00831
C 19.65576 12.78088 -0.02957
C 19.66244 11.40916 -0.04422
C 20.8916 10.66693 0.00654
C 20.85998 9.15313 -0.00703
C 19.66934 8.57675 -0.04076
C 19.6878 7.11812 -0.00652
C 20.97993 6.32919 0.0058
C 20.99603 4.88402 -0.00865
C 19.74294 4.20047 0.00675
C 19.6788 2.8242 -0.00311
C 20.95904 2.10785 0.00742
C 20.97168 0.67882 -0.01594
C 19.66708 33.9986 0.0106
C 22.18269 32.48886 -0.01154
C 23.48963 31.90307 -0.01721
C 23.29744 30.51288 -0.02422
C 22.11616 29.77976 0.01277
C 23.23491 27.52567 -0.01527
C 27.04314 4.2465 0.01259
C 24.55329 29.70998 -0.02118
C 25.81591 27.43048 -0.00178
C 28.42494 27.82189 -0.00802
C 28.3043 26.3332 -0.00218
C 27.04336 25.65431 -0.01654
C 26.90228 24.2781 -0.00037
C 28.07248 23.51375 -0.0032
C 27.99988 22.0577 0.00622
C 26.78376 21.4012 -0.02815
C 26.95414 20.0218 -0.00942
C 28.12027 19.22026 0.00487
C 28.18079 17.84708 0.00826
C 26.93341 17.0691 -0.00294
C 26.90888 15.61897 0.00152
C 28.15707 14.96855 0.01257
C 28.19473 13.48583 0.02316
C 26.99122 12.79329 0.04185
C 27.01876 11.39153 0.00194
C 28.27293 10.68128 -0.00621
C 28.29707 9.28152 0.02611
C 27.02222 8.41791 0.02198
C 27.03475 7.04901 0.01094
C 28.39444 6.36745 0.00235
C 27.09498 28.24628 0.00195
C 24.53482 28.10204 0.00733
C 26.96345 29.64945 0.00996
C 24.57211 34.0078 0.00367
C 25.42336 22.14228 0.00768
C 24.12647 21.40137 -0.0276
C 24.55052 19.93822 0.03005
C 25.7514 19.23829 -0.04078
C 25.73832 17.79948 0.02117
C 24.55211 17.0887 0.02737
C 24.54119 15.72444 -0.00498
C 25.71972 15.00097 0.00135
C 25.80303 13.56531 0.03102
C 24.5803 12.7837 0.02555
C 24.62389 11.37508 0.01423
C 25.89758 10.6264 -0.00285
C 25.8153 9.20582 -0.009
C 24.58674 8.48767 -0.01199
C 24.5479 7.1212 -0.00229
C 25.87097 6.37761 -0.00938
C 25.77608 4.89597 -0.0264
C 24.58645 4.21804 -0.01154
C 24.64047 2.84121 0.00684
C 25.85831 2.0906 -0.01052
C 25.89517 0.54833 -0.01679
C 27.51692 32.54094 0.04306
C 2.35085 32.72204 0.0064
