377
Graphene
C 34.33855 0.05512 0.01295
C 15.99263 14.886 0.03542
C 16.00429 13.53351 0.02299
C 14.77817 12.85581 0.00244
C 14.76795 11.431 -0.01717
C 16.01647 10.78532 0.05265
C 16.00945 9.35018 -0.01952
C 15.94883 6.22713 -0.02813
C 16.03833 4.83852 0.00374
C 14.80384 4.11625 0.00052
C 14.7051 2.78127 -0.03682
C 16.01382 2.08757 0.01965
C 16.02177 0.65188 0.02058
C 14.81426 34.00659 -0.01957
C 16.92098 32.60161 -0.0108
C 18.10382 31.99482 -0.00368
C 18.516 30.48377 -0.02696
C 18.31243 19.00475 -0.00114
C 18.44706 17.67408 0.00228
C 17.31181 16.97317 0.00798
C 14.66099 15.65905 0.01416
C 14.74151 17.14747 0.01945
C 15.89033 17.52503 -0.01454
C 14.73014 32.69009 0.01241
C 9.84108 2.91081 -0.00428
C 11.09204 2.08993 0.03101
C 11.04501 0.6559 -0.01536
C 9.78723 0.04128 -0.02689
C 12.49465 32.63181 -0.01046
C 12.14648 17.1643 -0.00891
C 12.334 15.64841 0.02819
C 13.54651 14.92735 0.00165
C 13.52853 13.55052 -0.02971
C 17.15935 15.60706 0.00422
C 12.31302 12.77903 0.02894
C 13.59306 10.62956 0.00444
C 13.74436 9.22729 -0.00925
C 12.41865 8.44382 0.01877
C 13.70367 4.84128 0.01363
C 12.34163 4.21319 -0.02162
C 12.2443 2.85536 0.00415
C 13.49302 2.04495 -0.0014
C 13.5059 0.65251 0.02162
C 12.31314 33.96203 0.0076
C 12.42822 11.35367 -0.01789
C 9.85339 4.33773 -0.02245
C 18.52671 14.91691 0.0351
C 17.1813 12.88 0.02098
C 19.69019 16.99763 -0.01979
C 19.75876 15.52511 0.02691
C 20.91526 14.80672 -0.01581
C 20.93757 13.48268 0.01452
C 19.67089 12.76288 0.04892
C 19.71873 11.39356 -0.00111
C 20.95002 10.67339 -0.03557
C 20.84663 9.21634 0.03754
C 19.64932 8.53468 0.01739
C 19.61714 7.04334 0.00755
C 20.85055 6.37935 -0.0054
C 20.81283 4.94247 0.00667
C 19.62585 4.1945 0.00143
C 19.65181 2.81046 -0.017
C 20.8719 2.07394 0.00364
C 20.90437 0.63899 -0.00831
C 19.64253 33.9698 -0.02957
C 22.09913 32.70041 -0.04422
C 23.3093 31.89486 0.00654
C 20.83307 17.70849 0.02188
C 20.7834 19.10625 -0.00316
C 19.42787 19.94693 -0.0331
C 19.61933 21.25866 -0.0258
C 17.23452 11.39907 0.01848
C 18.44977 10.70852 -0.00619
C 18.34379 9.22359 -0.02162
C 17.09702 8.45332 0.00889
C 17.11652 7.0124 -0.00481
C 18.38797 6.41615 0.00979
C 18.44667 4.98839 0.01443
C 17.25755 4.17853 0.03505
C 17.22306 2.76058 -0.02815
C 18.45853 13.48924 -0.03113
C 18.47319 2.09997 -0.04147
C 17.17153 34.01355 0.00213
C 19.46189 32.58397 -0.00066
C 20.8108 31.94014 -0.00289
C 20.82443 30.53093 0.00028
C 19.52635 29.87856 -0.02213
C 20.93183 27.47295 0.03698
C 20.88076 26.28568 -0.00109
C 20.92761 23.30498 -0.00491
C 20.81979 21.93788 0.03338
C 18.45572 0.69112 -0.05302
C 11.14379 5.08361 0.00985
C 11.12987 6.53479 -0.01275
C 9.88547 7.19953 -0.01111
C 3.65326 5.0104 0.00988
C 2.4702 4.24374 0.0276
C 2.42828 2.86373 0.01305
C 3.66607 2.15367 -0.00077
C 3.60739 0.7701 0.03368
C 2.40209 34.04199 -0.02929
C 4.86287 32.77359 -0.00966
C 6.04221 32.05252 -0.03337
C 6.11852 30.65691 0.01227
C 5.03355 29.76864 0.00873
C 4.78887 28.44615 -0.00049
C 4.8512 25.34224 0.00848
C 4.84827 24.16149 -0.01303
C 6.07221 22.13447 -0.01378
C 4.93883 21.34878 0.02635
C 4.94031 19.93912 0.0127
C 6.1926 19.13605 0.01396
C 6.07745 17.72546 0.01849
C 4.89521 17.11525 -0.01142
C 3.64957 6.41148 -0.01343
C 2.48293 7.10941 0.01087
C 2.44906 8.58492 -0.05697
C 3.61795 9.28893 -0.00725
C 3.72496 30.5489 0.03267
C 2.43421 29.88391 0.02374
C 2.44247 28.42396 0.00402
C 3.62775 27.69533 0.0073
C 3.69826 26.24457 0.0174
C 2.53553 25.56298 0.03828
C 2.44419 24.21305 0.01226
C 3.57448 23.4414 -0.00279
C 3.65531 22.00968 0.01996
C 4.94161 15.70356 -0.00562
C 2.40204 21.39413 -0.03996
C 3.67753 19.25112 -0.00074
C 3.66556 17.82049 -0.00518
C 2.46742 17.05582 0.0086
C 2.5 15.71755 -0.00643
C 3.64339 14.93658 0.017
C 3.67944 13.57126 -0.03113
C 2.45677 12.84066 -0.02566
C 2.48302 11.41831 -0.00094
C 3.71639 10.68722 0.02322
C 2.42705 19.92007 0.01465
C 6.15591 14.97363 -0.00494
C 6.21172 13.58258 0.00054
C 4.93059 12.85354 0.03007
C 7.45682 8.58742 0.00438
C 7.43099 7.22679 0.01291
C 8.62645 6.50869 0.00093
C 8.61918 5.07018 0.00057
C 7.33922 4.31128 -0.01634
C 7.36976 2.92277 -0.00334
C 8.61867 2.14371 0.02339
C 8.58358 0.80356 0.01641
C 7.34098 0.11698 -0.00719
C 8.65552 9.27327 -0.00191
C 9.66478 32.6808 0.01364
C 9.61519 17.35143 -0.00033
C 9.75339 15.87783 0.03589
C 11.05 15.03421 -0.02759
C 11.12784 13.59723 0.0402
C 9.9091 12.85326 0.00572
C 9.94529 11.40803 0.03592
C 11.15725 10.66922 0.00406
C 11.19205 9.23512 0.00943
C 9.90568 8.64465 0.02841
C 11.13982 17.73398 -0.01062
C 23.31547 30.48645 -0.00703
C 8.72302 10.70903 0.00373
C 7.44919 12.87975 -0.014
C 4.95698 11.4708 -0.00095
C 6.21402 10.71385 0.01572
C 6.1246 9.3158 -0.04848
C 4.85984 8.62733 -0.00892
C 4.92214 7.16837 -0.01362
C 6.09918 6.4567 -0.0008
C 6.10928 5.06054 0.0288
C 4.93249 4.31386 0.00393
C 4.89517 2.90584 0.00895
C 7.42125 11.42762 0.02147
C 6.0572 2.20244 0.00685
C 4.85087 0.06371 -0.00482
C 7.22835 32.74515 -0.01384
C 8.57228 32.235 0.03693
C 7.51762 19.54228 0.01745
C 8.3339 18.10898 0.00488
C 7.27405 17.11191 -0.01004
C 7.39258 15.67958 -0.02896
C 8.72091 15.07766 -0.00131
C 8.70129 13.51658 -0.01118
C 6.06462 0.7379 0.02888
C 3.6201 32.0033 -0.01509
C 22.14551 29.81623 -0.04076
C 23.26762 27.65141 0.0058
C 30.69744 2.18748 0.00716
C 30.76893 0.79128 0.00307
C 29.51272 0.03582 0.00346
C 31.94625 32.68586 0.01713
C 33.1548 31.95238 -0.01694
C 33.20357 30.59835 0.01428
C 31.98176 29.84321 -0.02142
C 31.90564 28.44816 0.0544
C 33.15168 27.81186 0.00026
C 33.23694 26.27844 0.00682
C 31.93614 25.61516 -0.01779
C 31.9299 24.18068 0.03794
C 33.15489 23.48213 0.01927
C 33.13312 22.06838 0.01574
C 31.93806 21.29295 -0.02383
C 31.94417 19.86833 -0.01429
C 33.1027 19.15957 -0.0136
C 33.17158 17.75425 0.00594
C 31.9498 17.05162 -0.02474
C 29.42213 2.79104 0.02108
C 29.47686 4.26304 0.0103
C 30.71954 4.97694 0.07705
C 30.75414 6.44788 0.01908
C 30.70389 27.6761 0.02326
C 30.71329 26.29729 0.00261
C 29.46932 25.5394 0.03265
C 29.50698 24.13775 -0.02049
C 30.69031 23.42507 -0.01854
C 30.71071 21.96338 -0.01415
C 29.46398 21.27264 -0.03039
C 29.46884 19.88688 0.01836
C 30.75532 19.10058 0.03531
C 31.94401 15.5893 0.00369
C 30.71934 17.76731 -0.00669
C 29.4626 15.65984 0.01705
C 30.72257 14.95478 -0.0405
C 30.76043 13.5194 -0.01303
C 29.50391 12.81814 -0.01461
C 29.50175 11.38553 -0.02155
C 30.74543 10.699 -0.00944
C 30.76918 9.25613 -0.03735
C 29.46288 8.50802 -0.00971
C 29.45807 7.16708 0.01518
C 29.46998 17.10138 0.0101
C 29.49453 28.38711 0.00924
C 33.23827 14.97621 0.00455
C 32.00048 12.79573 -0.01839
C 34.33019 19.93247 0.01951
C 1.21386 19.2488 -0.01678
C 1.20211 17.69349 0.01223
C 34.38666 17.04561 0.00648
C 0.00933 15.63612 0.02114
C 1.28778 14.94733 -0.02957
C 1.23992 13.51175 0.00343
C 0.03146 12.86296 -0.02656
C 0.05726 11.42237 -0.02442
C 1.22237 10.67451 -0.00027
C 1.15841 9.27697 -0.00583
C 34.38709 8.48273 -0.02302
C 34.39646 7.09052 -0.02849
C 1.19064 6.39586 0.02931
C 1.20539 5.01502 0.00628
C 34.37837 4.29428 -0.0345
C 34.39544 2.84422 -0.00931
C 1.14822 2.1381 -0.00939
C 1.11467 0.73691 -0.00468
C 34.33334 21.34455 -0.02213
C 1.1586 22.12962 0.02712
C 1.2636 23.44753 0.00723
C 0.01525 24.15615 0.03076
C 32.01023 11.36537 0.00137
C 33.23358 10.69668 0.00199
C 33.22575 9.26675 0.04381
C 31.98528 8.53948 0.02806
C 31.99097 7.13669 0.01504
C 33.18095 6.35309 -0.00069
C 33.16216 4.91611 0.04926
C 31.95437 4.24719 -0.03838
C 31.9596 2.89739 0.00349
C 33.22349 13.60174 -0.00644
C 33.1294 2.14764 -0.00323
C 31.90888 0.00858 0.0001
C 34.39001 32.67762 -0.02927
C 1.19497 31.99284 -0.01404
C 1.16246 30.56741 0.01027
C 34.3845 29.90202 0.01831
C 34.36101 28.49833 -0.01037
C 1.23608 27.77354 -0.00439
C 1.26693 26.30359 -0.00598
C 0.02782 25.58071 -0.05239
C 33.09526 0.64758 -0.00841
C 29.47157 29.83634 0.0014
C 30.71144 30.56173 0.01324
C 30.68568 31.9937 0.04266
C 23.36145 0.67743 -0.02845
C 22.07497 34.03023 -0.03213
C 24.54275 32.63108 0.02239
C 25.8475 31.98807 0.01153
C 25.77694 30.50551 0.02734
C 24.55622 29.81466 -0.0055
C 24.50133 28.35548 0.01515
C 25.70584 27.65821 -0.00225
C 25.79517 26.2051 0.00071
C 24.48281 25.51996 -0.01107
C 24.58577 24.0814 -0.01586
C 25.78794 23.3548 -0.01971
C 25.77284 21.9263 -0.02118
C 24.54362 21.23804 0.00733
C 24.51538 19.7839 -0.00178
C 25.73553 19.09067 0.00768
C 25.81108 17.66406 -0.0276
C 24.58325 17.02391 0.03005
C 24.58572 15.53932 -0.04078
C 23.33032 2.10441 0.03374
C 22.12841 2.78984 0.0296
C 22.11399 4.22016 0.03046
C 23.26285 4.93062 -0.00381
C 23.22462 26.16421 -0.00865
C 22.13272 25.41778 0.00675
C 22.1307 24.04324 -0.00311
C 23.37785 23.35182 0.00742
C 23.29887 21.91774 -0.01594
C 22.06341 21.20797 0.0106
C 21.99582 19.84148 -0.01154
C 23.26393 19.10295 -0.01721
C 23.28325 17.72464 -0.02422
C 25.80164 14.87283 0.02117
C 22.09273 16.99352 0.01277
C 23.35935 14.87454 -0.01527
C 23.41002 13.43688 0.01087
C 22.19985 12.72826 0.00199
C 22.19265 11.3283 0.01511
C 23.36888 10.62706 -0.00478
C 23.38915 9.24901 -0.01662
C 22.03332 8.52728 -0.01185
C 22.065 7.10811 0.01126
C 23.35131 6.35171 0.01852
C 22.10264 15.62486 0.00096
C 25.8242 13.44589 0.02737
C 24.60794 12.7619 -0.00498
C 24.60656 11.28992 0.00135
C 28.28205 19.14596 -0.00942
C 28.21283 17.77674 0.00487
C 27.04896 17.01992 0.00826
C 27.01825 15.57286 -0.00294
C 28.2921 14.95055 0.00152
C 28.23369 13.57105 0.01257
C 27.04879 12.7586 0.02316
C 27.08451 11.36067 0.04185
C 28.25323 10.62406 0.00194
C 27.02053 19.74082 -0.02815
C 28.28953 9.21223 -0.00621
C 27.00324 7.1191 0.02198
C 28.2299 6.42415 0.01094
C 28.19888 5.00929 0.00235
C 27.06946 4.31922 0.01495
C 26.94961 2.86847 0.01259
C 28.25089 2.14759 0.01799
C 28.23909 0.73796 0.01699
C 27.00964 0.02 -0.00416
C 29.44904 32.68568 0.01177
C 27.06058 8.48505 0.02611
C 22.10009 28.42215 -0.00652
C 27.0482 21.20901 0.00622
C 28.28252 23.41614 -0.00037
C 25.83061 10.65641 0.03102
C 25.89623 9.21006 0.02555
C 24.66722 8.54015 0.01423
C 24.54118 7.09932 -0.00285
C 25.76122 6.32387 -0.009
C 25.80909 4.96245 -0.01199
C 24.63244 4.2392 -0.00229
C 24.59973 2.81456 -0.00938
C 25.79093 2.12979 -0.0264
C 28.28139 22.00292 -0.0032
C 25.7741 0.68218 -0.01154
C 27.0176 32.65845 -0.01052
C 28.18751 31.90825 -0.01679
C 28.2519 30.53192 0.00367
C 26.94893 29.7832 0.04306
C 26.9613 28.30056 0.00996
C 28.23322 27.62786 0.00195
C 28.24009 26.24915 -0.00802
C 27.01471 25.4287 -0.00218
C 27.05265 23.98784 -0.01654
C 24.5587 34.05504 0.00684
C 2.42909 32.70077 0.00643
