447
Graphene
C 34.41082 0.04088 0.01295
C 13.51945 17.75588 -0.00191
C 12.22445 17.0589 0.00438
C 12.24046 15.65202 0.01291
C 13.48934 14.8805 0.00093
C 13.46696 13.53737 0.00057
C 12.28214 12.81616 -0.01634
C 12.26337 11.3671 -0.00334
C 13.51808 10.70385 0.02339
C 13.50979 9.25332 0.01641
C 12.32401 8.57876 -0.00719
C 12.30889 7.17015 0.01364
C 13.4609 19.17472 0.00373
C 13.56769 6.41045 -0.01062
C 12.33009 4.17778 0.03589
C 12.25954 2.79013 -0.02759
C 13.52667 2.09709 0.0402
C 13.47938 0.72267 0.00572
C 12.27642 34.07088 0.03592
C 14.76273 32.66859 0.00406
C 15.93372 31.97245 0.00943
C 15.98201 30.56296 0.02841
C 14.75191 29.80939 -0.01111
C 14.7435 28.43912 -0.01275
C 15.97856 27.69125 0.00985
C 13.57651 4.99817 -0.00033
C 15.97734 26.24765 -0.02245
C 12.26876 19.91643 0.02147
C 13.50246 21.99499 -0.01118
C 11.12563 13.55947 -0.01142
C 9.86429 12.88632 -0.00562
C 9.81932 11.46692 -0.00494
C 11.05135 10.74168 0.00054
C 11.03729 9.21921 0.03007
C 9.82263 8.55169 -0.00095
C 9.83704 7.12669 0.01572
C 11.01265 6.38491 -0.04848
C 11.07974 4.97036 -0.00892
C 9.85612 4.30485 -0.01362
C 9.80376 2.87912 -0.0008
C 12.23314 21.25179 -0.014
C 11.08388 2.06522 0.0288
C 9.75836 0.0238 0.00895
C 12.2345 32.68921 0.00685
C 13.54293 32.02819 0.02888
C 13.51416 30.58424 -0.00482
C 12.29731 29.85659 -0.01384
C 12.18778 28.47748 0.03693
C 13.45354 27.77161 0.01745
C 13.48491 26.31308 0.00488
C 12.28318 25.59273 -0.01004
C 12.24771 24.18883 -0.02896
C 13.52958 23.42518 -0.00131
C 11.06199 0.70151 0.00393
C 11.06124 14.94492 0.01849
C 14.72917 25.6184 -0.00428
C 16.00466 23.37242 -0.01536
C 18.44741 26.27368 0.00374
C 17.19544 25.59271 0.00052
C 17.1721 24.16722 -0.03682
C 18.48417 23.48019 0.01965
C 18.41283 21.99574 0.02058
C 17.19603 21.25985 -0.01957
C 17.14877 19.86676 -0.0108
C 18.3476 19.11823 -0.00368
C 18.39658 17.7288 -0.02696
C 17.19886 16.995 -0.00114
C 17.22354 15.6077 0.00228
C 18.40214 27.75091 -0.02813
C 18.40928 14.82937 0.00798
C 17.18942 12.78951 0.0351
C 17.18025 11.38 -0.03113
C 18.35124 10.65399 0.02098
C 18.41977 9.21232 0.01848
C 17.21097 8.50617 -0.00619
C 17.26909 7.1253 -0.02162
C 18.47509 6.40626 0.00889
C 18.47249 4.993 -0.00481
C 17.24238 4.31708 0.00979
C 17.13449 2.90583 0.01443
C 18.40349 2.14758 0.03505
C 18.40513 13.44578 0.00422
C 14.73977 24.18013 0.03101
C 17.21098 28.37753 -0.01952
C 18.42793 30.58082 -0.01717
C 15.93375 21.94319 -0.02689
C 14.74197 21.32389 -0.01046
C 14.73955 19.86542 -0.00891
C 15.91081 19.17181 0.02819
C 15.99494 17.71626 0.00165
C 14.70564 17.06272 -0.02971
C 14.75095 15.58279 0.02894
C 15.97357 14.89079 -0.01789
C 15.95316 13.42903 0.00444
C 14.67841 12.73329 -0.00925
C 14.73429 11.35329 0.01877
C 17.27449 29.77903 0.05265
C 15.97601 10.67307 0.01363
C 14.72577 8.55199 0.00415
C 14.79289 7.157 -0.0014
C 16.04477 6.37089 0.02162
C 16.04305 5.01936 0.0076
C 14.81239 4.25933 0.01241
C 14.70383 2.79474 -0.01454
C 15.90859 2.11055 0.01945
C 15.952 0.74688 0.01416
C 14.6841 0.0209 0.03542
C 17.27393 32.70656 0.02299
C 18.45524 31.99475 0.00244
C 16.01547 9.22808 -0.02162
C 18.3753 0.73921 -0.02815
C 9.86052 15.60669 0.01396
C 11.05442 17.80639 0.02635
C 3.68376 0.73301 0.00662
C 2.47817 34.05506 -0.0154
C 4.91067 32.68416 -0.01299
C 6.12048 31.96744 -0.00407
C 6.12125 30.49917 0.01138
C 4.94287 29.83401 0.03278
C 4.9692 28.41632 -0.00177
C 6.13955 27.62362 0.04421
C 6.16428 26.24428 0.00088
C 4.9109 25.48575 0.00828
C 4.88468 24.11069 -0.02375
C 3.63296 2.16134 0.00748
C 6.14762 23.3889 0.00558
C 4.84911 21.3144 -0.01386
C 4.89359 19.86426 -0.02805
C 6.07331 19.11538 0.00081
C 6.14075 17.78158 0.00245
C 4.86418 17.06703 0.02728
C 4.88504 15.65666 -0.00039
C 6.18046 15.04036 0.0064
C 6.15529 13.53772 0.00211
C 4.98696 12.82278 -0.00449
C 4.9374 11.42325 -0.01979
C 6.10489 10.7378 0.02784
C 6.08784 22.00744 -0.0059
C 6.09022 9.28927 -0.01977
C 2.44922 2.84742 0.03345
C 3.60738 5.00458 0.01078
C 3.65564 30.5605 0.00297
C 2.46351 29.76841 0.02438
C 2.50918 28.33468 -0.02419
C 3.71959 27.6644 -0.03951
C 3.72227 26.23616 -0.00141
C 2.39882 25.49626 -0.00374
C 2.40965 24.0837 -0.0213
C 3.62996 23.38722 0.01116
C 3.64938 22.04866 -0.0005
C 2.34267 21.31398 -0.00018
C 2.33888 19.80633 0.01073
C 2.43499 4.26886 -0.00112
C 3.57711 19.13239 0.01984
C 2.38544 17.024 -0.00198
C 2.47483 15.58681 -0.00012
C 3.6651 14.9539 -0.04306
C 3.66307 13.50428 -0.03672
C 2.49823 12.77995 0.01913
C 2.50712 11.3743 0.00267
C 3.69578 10.6758 0.00787
C 3.64566 9.28568 0.02426
C 2.47647 8.48051 0.01218
C 2.38618 7.11233 -0.01471
C 3.67797 6.42068 -0.02827
C 3.64768 17.71532 0.00535
C 9.81099 17.06406 0.0127
C 4.92351 8.61081 -0.00561
C 6.14468 6.46771 0.01707
C 8.6242 9.27788 -0.00643
C 7.39689 8.58525 0.017
C 7.40091 7.05174 -0.03113
C 8.69028 6.47105 -0.02566
C 8.63519 5.03647 -0.00094
C 7.39402 4.33422 0.02322
C 7.33612 2.90335 -0.00725
C 8.57306 2.2321 -0.05697
C 8.55476 0.77717 0.01087
C 7.22828 0.04956 -0.01343
C 9.79371 32.74183 0.00988
C 8.60717 10.67191 0.0086
C 11.02099 31.99937 0.0276
C 9.80715 29.8752 -0.00077
C 9.78785 28.43902 0.03368
C 11.06427 27.76811 -0.02929
C 11.11024 26.3308 -0.00966
C 9.87057 25.64459 -0.03337
C 9.8144 24.17691 0.01227
C 11.06779 23.36215 0.00873
C 11.05415 21.97856 -0.00049
C 9.76963 21.30515 0.00848
C 9.81513 19.94484 -0.01303
C 11.06138 19.24203 -0.01378
C 11.04525 30.62388 0.01305
C 4.90138 7.13051 0.00208
C 7.36348 11.45375 -0.00518
C 8.61474 13.55276 0.01465
C 6.11706 5.01372 0.02769
C 4.84106 4.33236 -0.03291
C 4.85554 2.89922 -0.04999
C 6.06729 2.23058 0.04505
C 6.05379 0.76384 0.03284
C 4.87365 0.0414 -0.04307
C 7.30622 32.64683 0.03189
C 8.56975 31.99623 0.00031
C 8.66107 30.55248 -0.003
C 7.38372 29.82637 0.01402
C 7.42594 28.42343 0.02379
C 7.38331 12.87052 -0.00074
C 8.60135 27.76712 0.00907
C 7.43627 25.55983 -0.01509
C 7.32449 24.13649 0.03267
C 8.58305 23.4529 0.02374
C 8.54162 21.98713 0.00402
C 7.32441 21.33638 0.0073
C 7.32493 19.85044 0.0174
C 8.59913 19.17878 0.03828
C 8.52659 17.78213 0.01226
C 7.32066 17.02483 -0.00279
C 7.38989 15.5888 0.01996
C 8.58358 14.97208 -0.03996
C 8.67608 26.27118 0.00643
C 3.68355 31.93217 -0.00605
C 17.21276 0.03673 -0.04147
C 20.8402 31.98713 0.00213
C 29.49453 17.03269 0.0101
C 29.56202 15.61017 0.01705
C 30.77513 14.86225 -0.0405
C 30.76841 13.45434 -0.01303
C 29.55275 12.70225 -0.01461
C 29.49584 11.26467 -0.02155
C 30.69346 10.58393 -0.00944
C 30.74497 9.2429 -0.03735
C 29.47398 8.53563 -0.00971
C 29.51256 7.10952 0.01518
C 30.79161 6.41081 0.01908
C 30.73664 17.71584 -0.00669
C 30.71416 5.00257 0.07705
C 29.53167 2.89742 0.02108
C 30.6866 2.15361 0.00716
C 30.79357 0.78741 0.00307
C 29.50296 0.05762 0.00346
C 32.01078 32.70716 0.01713
C 33.23612 31.94719 -0.01694
C 33.20779 30.55486 0.01428
C 32.00066 29.83524 -0.02142
C 31.94181 28.41112 0.0544
C 33.15965 27.72587 0.00026
C 33.17334 26.25733 0.00682
C 29.48817 4.28863 0.0103
C 31.89174 25.51834 -0.01779
C 30.69514 19.07985 0.03531
C 29.46331 21.31584 -0.03039
C 27.09208 12.7372 0.02316
C 27.06762 11.28084 0.04185
C 28.27255 10.61801 0.00194
C 28.24451 9.23163 -0.00621
C 27.02988 8.59263 0.02611
C 27.01547 7.1177 0.02198
C 28.29754 6.41347 0.01094
C 28.27318 4.98517 0.00235
C 27.07271 4.23984 0.01495
C 27.08236 2.86141 0.01259
C 28.266 2.14214 0.01799
C 29.51219 19.87635 0.01836
C 28.31799 0.74305 0.01699
C 29.51532 32.69768 0.01177
C 30.78135 32.00663 0.04266
C 30.73684 30.60279 0.01324
C 29.50382 29.80486 0.0014
C 29.44935 28.40825 0.00924
C 30.70886 27.76809 0.02326
C 30.6818 26.34596 0.00261
C 29.47527 25.61893 0.03265
C 29.45109 24.10816 -0.02049
C 30.64405 23.37958 -0.01854
C 30.66186 21.93612 -0.01415
C 27.00887 0.0239 -0.00416
C 28.37713 13.4492 0.01257
C 31.91531 24.15743 0.03794
C 33.15053 21.92003 0.01574
C 34.40129 25.5352 -0.05239
C 34.43138 24.11341 0.03076
C 1.20573 23.37706 0.00723
C 1.16717 21.99001 0.02712
C 34.30292 21.26168 -0.02213
C 34.33204 19.8496 0.01951
C 1.18545 19.13562 -0.01678
C 1.18701 17.65089 0.01223
C 34.39703 16.95268 0.00648
C 0.00519 15.49107 0.02114
C 1.22547 14.85158 -0.02957
C 1.18192 26.27127 -0.00598
C 1.25466 13.42935 0.00343
C 0.08382 11.31327 -0.02442
C 1.29752 10.66014 -0.00027
C 1.25741 9.21504 -0.00583
C 0.04944 8.4789 -0.02302
C 34.42714 7.01246 -0.02849
C 1.21097 6.3988 0.02931
C 1.24909 5.01643 0.00628
C 0.05316 4.36546 -0.0345
C 34.42033 2.88239 -0.00931
C 1.21909 2.18481 -0.00939
C 1.28215 0.66634 -0.00468
C 0.09274 12.7156 -0.02656
C 33.14789 23.38757 0.01927
C 1.17633 27.61565 -0.00439
C 34.39632 29.79238 0.01831
C 31.91196 21.24111 -0.02383
C 31.92453 19.82063 -0.01429
C 33.12526 19.05072 -0.0136
C 33.16595 17.6289 0.00594
C 31.88916 16.99998 -0.02474
C 31.97746 15.52643 0.00369
C 33.16515 14.82563 0.00455
C 33.25006 13.44683 -0.00644
C 32.00446 12.71768 -0.01839
C 32.02418 11.27486 0.00137
C 33.21033 10.58844 0.00199
C 34.40703 28.39924 -0.01037
C 33.24282 9.17237 0.04381
C 31.99016 7.04672 0.01504
C 33.19102 6.36509 -0.00069
C 33.23089 4.96068 0.04926
C 31.99355 4.31055 -0.03838
C 31.95193 2.86983 0.00349
C 33.18854 2.16627 -0.00323
C 33.17609 0.71683 -0.00841
C 31.93898 0.05951 0.0001
C 0.03908 32.64315 -0.02927
C 1.25816 31.97141 -0.01404
C 1.25374 30.50119 0.01027
C 31.99185 8.49867 0.02806
C 19.61836 32.68922 -0.05302
C 28.39756 14.87602 0.00152
C 26.99819 17.10001 0.00826
C 20.83252 0.71375 -0.02957
C 19.65406 0.02299 -0.04422
C 22.0741 32.79252 0.00654
C 23.30495 31.92556 -0.00703
C 23.31805 30.5667 -0.04076
C 22.0557 29.81728 -0.00652
C 22.0335 28.32257 0.0058
C 23.30673 27.71114 -0.00865
C 23.41336 26.29827 0.00675
C 22.10058 25.5381 -0.00311
C 22.14408 24.14167 0.00742
C 20.89689 2.17396 -0.00831
C 23.37694 23.43929 -0.01594
C 22.13701 21.27457 -0.01154
C 22.14108 19.86097 -0.01721
C 23.34844 19.09664 -0.02422
C 23.3445 17.65496 0.01277
C 22.14656 15.5243 0.00096
C 23.42543 14.90673 -0.01527
C 23.33132 13.45443 0.01087
C 22.11748 12.79997 0.00199
C 22.07839 11.37974 0.01511
C 23.30001 10.59415 -0.00478
C 23.32478 9.26046 -0.01662
C 23.36271 22.01133 0.0106
C 22.11591 8.49691 -0.01185
C 19.65524 2.86544 0.00364
C 20.9141 4.95374 0.00143
C 20.82648 30.58413 -0.00066
C 19.61271 29.84985 -0.00289
C 19.65019 28.41702 0.00028
C 20.83686 27.66576 -0.02213
C 20.91933 26.27973 0.03698
C 19.69432 25.5882 -0.00109
C 19.67916 24.21283 -0.00491
C 20.80633 23.42026 0.03338
C 20.85533 22.01373 -0.0258
C 19.66584 21.26128 -0.0331
C 19.61033 19.91903 -0.00316
C 19.71455 4.31963 -0.017
C 20.90638 19.1881 0.02188
C 19.59106 16.96517 0.02691
C 19.62603 15.59267 -0.01581
C 20.91782 14.9566 0.01452
C 20.86884 13.52119 0.04892
C 19.65657 12.82248 -0.00111
C 19.6092 11.37159 -0.03557
C 20.84135 10.65524 0.03754
C 20.86863 9.23033 0.01739
C 19.66244 8.43274 0.00755
C 19.69464 7.08126 -0.0054
C 20.95774 6.43347 0.00667
C 20.7962 17.77926 -0.01979
C 27.12951 15.59902 -0.00294
C 22.13694 7.09762 0.01126
C 23.41883 4.98174 -0.00381
C 24.60387 8.55028 0.01423
C 24.53313 7.14929 -0.00285
C 25.83361 6.40336 -0.009
C 25.82375 4.96819 -0.01199
C 24.67366 4.20384 -0.00229
C 24.62 2.82717 -0.00938
C 25.84443 2.13993 -0.0264
C 25.84459 0.71354 -0.01154
C 24.55766 34.05792 0.00684
C 27.01735 32.64938 -0.01052
C 28.24061 32.01421 -0.01679
C 25.78309 9.26642 0.02555
C 28.29601 30.58508 0.00367
C 26.93227 28.38634 0.00996
C 28.20723 27.73924 0.00195
C 28.22771 26.30517 -0.00802
C 27.05535 25.5623 -0.00218
C 27.05263 24.14925 -0.01654
C 28.25298 23.49721 -0.00037
C 28.28019 22.04471 -0.0032
C 27.08616 21.32389 0.00622
C 26.96267 19.88483 -0.02815
C 28.30118 19.14188 -0.00942
C 28.29742 17.77096 0.00487
C 27.05466 29.81204 0.04306
C 23.38821 6.36434 0.01852
C 25.80841 10.63616 0.03102
C 24.53665 12.75353 -0.00498
C 22.1299 4.29572 0.03046
C 22.1495 2.90276 0.0296
C 23.34466 2.1156 0.03374
C 23.34422 0.72194 -0.02845
C 22.05308 0.0496 -0.03213
C 24.54353 32.70391 0.02239
C 25.81125 31.93426 0.01153
C 25.78461 30.5523 0.02734
C 24.57885 29.88608 -0.0055
C 24.64883 28.46353 0.01515
C 25.81627 27.64669 -0.00225
C 24.51546 11.34249 0.00135
C 25.81239 26.23027 0.00071
C 24.6041 24.18182 -0.01586
C 25.8243 23.39745 -0.01971
C 25.72954 22.01661 -0.02118
C 24.5225 21.27713 0.00733
C 24.49069 19.81944 -0.00178
C 25.67451 19.10904 0.00768
C 25.74564 17.7529 -0.0276
C 24.52835 17.02855 0.03005
C 24.62232 15.61293 -0.04078
C 25.80598 14.86516 0.02117
C 25.78349 13.45281 0.02737
C 24.56337 25.53152 -0.01107
C 2.51762 32.62988 0.00321
