353
Graphene
C 0.01003 0.02518 0.01295
C 12.2101 32.58404 -0.00114
C 13.55869 32.11401 0.00228
C 12.21995 17.11455 0.00798
C 12.40325 15.65177 0.00422
C 13.51901 14.94533 0.0351
C 13.51737 13.51799 -0.03113
C 12.26699 12.78432 0.02098
C 12.2513 11.34017 0.01848
C 9.73003 0.04324 -0.02696
C 13.51483 10.58784 -0.00619
C 12.37378 8.47226 0.00889
C 12.42324 7.06651 -0.00481
C 13.61913 6.36925 0.00979
C 13.53363 4.93994 0.01443
C 12.32797 4.28738 0.03505
C 12.34254 2.85565 -0.02815
C 13.49896 2.03458 -0.04147
C 13.42187 0.59349 -0.05302
C 13.58153 9.21128 -0.02162
C 12.17365 0.00297 0.00213
C 10.96377 0.68661 -0.00368
C 9.85659 2.8347 -0.01957
C 7.26361 0.04153 0.02162
C 9.79837 32.63364 0.0076
C 10.96318 31.96283 0.01241
C 9.8741 29.98416 -0.01454
C 11.15575 17.70811 0.01945
C 9.85714 17.09426 0.01416
C 9.89869 15.68411 0.03542
C 11.05825 14.99033 0.02299
C 11.07903 2.13379 -0.0108
C 11.06235 13.51778 0.00244
C 9.83227 11.38846 0.05265
C 11.04522 10.63082 -0.01952
C 11.13958 9.20523 -0.02813
C 9.89776 8.47837 0.00374
C 9.91897 7.06122 0.00052
C 11.10111 6.34015 -0.03682
C 11.03039 4.95494 0.01965
C 9.76426 4.26408 0.02058
C 9.8458 12.78977 -0.01717
C 8.52047 0.6906 -0.0014
C 14.7888 32.50934 -0.00066
C 15.0106 17.04659 0.00028
C 18.42962 13.54098 -0.017
C 17.19353 12.86819 0.00364
C 17.18794 11.45028 -0.00831
C 18.40357 10.65371 -0.02957
C 18.42246 9.17924 -0.04422
C 17.19378 8.48426 0.00654
C 17.2267 7.09949 -0.00703
C 18.41867 6.39713 -0.04076
C 18.3105 14.96936 0.00143
C 18.35589 4.94501 -0.00652
C 17.31905 2.82151 -0.00865
C 18.51013 2.11933 0.00675
C 18.43164 0.71963 -0.00311
C 17.17903 0.02924 0.00742
C 19.65069 32.59955 -0.01594
C 20.87307 31.86418 0.0106
C 20.98798 30.44644 -0.01154
C 20.91681 19.13351 -0.01721
C 17.2203 4.21993 0.0058
C 16.03112 31.94037 -0.00289
C 17.10794 15.67882 0.00667
C 18.364 17.72287 0.00755
C 14.71165 15.78022 -0.02213
C 15.93498 14.95257 0.03698
C 15.94994 13.61427 -0.00109
C 14.75212 12.78269 -0.00491
C 14.77636 11.32794 0.03338
C 16.01759 10.6823 -0.0258
C 16.02865 9.27354 -0.0331
C 14.8622 8.51147 -0.00316
C 17.26599 17.03866 -0.0054
C 14.77035 7.13319 0.02188
C 15.98306 4.86912 0.02691
C 14.76478 4.18614 -0.01581
C 14.77124 2.77261 0.01452
C 16.01597 2.14652 0.04892
C 15.92294 0.69221 -0.00111
C 14.70393 0.02678 -0.03557
C 17.20353 32.58938 0.03754
C 18.46586 31.93271 0.01739
C 15.94147 6.38091 -0.01979
C 8.65009 2.08469 0.00415
C 7.37243 2.85639 -0.02162
C 7.32302 4.25637 0.01363
C 2.40095 7.05599 0.03007
C 3.65571 6.40128 -0.00095
C 3.62905 4.97309 0.01572
C 2.4647 4.22805 -0.04848
C 2.49024 2.86598 -0.00892
C 3.763 2.20952 -0.01362
C 3.68832 0.74084 -0.0008
C 2.41874 0.02842 0.0288
C 2.45444 8.47498 0.00054
C 4.8558 32.71466 0.00393
C 6.14397 30.54747 0.00685
C 4.92046 29.87505 0.02888
C 4.84666 28.39652 -0.00482
C 6.14632 27.71472 -0.01384
C 6.16822 26.28036 0.03693
C 4.97237 25.59831 0.01745
C 4.98719 24.14247 0.00488
C 6.25203 23.44519 -0.01004
C 6.10527 32.00486 0.00895
C 6.17805 21.98906 -0.02896
C 3.70078 9.25324 -0.00494
C 2.36356 11.32267 -0.01142
C 3.68805 30.54156 0.00988
C 2.44672 29.81522 0.0276
C 2.38118 28.39198 0.01305
C 3.63738 27.68373 -0.00077
C 3.71678 26.2907 0.03368
C 2.49338 25.57619 -0.02929
C 2.48205 24.1211 -0.00966
C 3.73992 23.44438 -0.03337
C 3.69949 10.69628 -0.00562
C 3.67255 22.05511 0.01227
C 2.41002 19.98758 -0.00049
C 3.66848 19.2395 0.00848
C 3.63942 17.79714 -0.01303
C 2.44679 17.02785 -0.01378
C 2.43947 15.63777 0.02635
C 3.7233 14.85307 0.0127
C 3.68772 13.45409 0.01396
C 2.43234 12.75319 0.01849
C 2.34498 21.36718 0.00873
C 4.86128 21.30921 -0.00131
C 4.89602 19.95884 -0.01118
C 6.19534 19.19627 -0.014
C 7.25173 25.42431 -0.01111
C 7.3692 24.12267 -0.01275
C 7.3823 21.42141 0.00985
C 7.4827 20.02125 -0.02245
C 8.52508 19.07984 -0.00428
C 8.56401 17.74858 0.03101
C 7.37804 16.99603 -0.01536
C 7.435 15.60559 -0.02689
C 7.31487 28.37545 0.02841
C 8.63296 14.86966 -0.01046
C 7.33111 12.81169 0.02819
C 7.39453 11.37668 0.00165
C 8.61311 10.63773 -0.02971
C 8.68382 9.24028 0.02894
C 7.42707 8.53973 -0.01789
C 7.39603 7.11242 0.00444
C 8.61288 6.36514 -0.00925
C 8.55968 4.94992 0.01877
C 8.61046 13.49006 -0.00891
C 7.40098 29.78169 0.00943
C 8.66579 30.5319 0.00406
C 8.55445 31.95285 0.03592
C 6.17409 17.75594 0.02147
C 4.92854 17.05185 0.00373
C 4.92504 15.61225 -0.00191
C 6.13144 14.95009 0.00438
C 6.17811 13.54239 0.01291
C 4.9313 12.7857 0.00093
C 4.91494 11.38641 0.00057
C 6.15184 10.69788 -0.01634
C 6.16732 9.28246 -0.00334
C 4.95006 8.54896 0.02339
C 4.88843 7.11705 0.01641
C 6.08201 6.42097 -0.00719
C 6.14814 5.02495 0.01364
C 4.8991 4.33613 -0.01062
C 4.9616 2.97834 -0.00033
C 6.13944 2.19006 0.03589
C 6.0805 0.80167 -0.02759
C 4.82718 0.05764 0.0402
C 7.3568 32.74435 0.00572
C 20.85291 17.77996 -0.02422
C 3.62159 32.01442 -0.01343
C 19.57328 17.12366 0.01277
C 20.85351 14.90944 -0.01527
C 31.84159 32.59201 -0.01694
C 33.10327 31.97578 0.01428
C 33.1413 30.49641 -0.02142
C 32.05332 29.68961 0.0544
C 33.08164 27.89664 0.00026
C 33.11591 26.46285 0.00682
C 32.07327 25.54951 -0.01779
C 31.88065 24.17495 0.03794
C 29.53777 34.03988 0.01713
C 33.17578 23.41434 0.01927
C 31.96927 21.32204 -0.02383
C 31.90761 19.91746 -0.01429
C 33.11585 19.17948 -0.0136
C 33.10249 17.7372 0.00594
C 31.88102 17.05766 -0.02474
C 31.95505 15.64214 0.00369
C 33.16335 14.93766 0.00455
C 33.1774 13.49747 -0.00644
C 33.2142 21.99584 0.01574
C 31.98078 12.79734 -0.01839
C 30.75906 0.73422 0.00346
C 29.55702 2.87445 0.00716
C 30.74276 21.99235 -0.03039
C 29.5881 21.29893 0.01836
C 29.52601 19.86237 0.03531
C 30.69852 19.23574 -0.00669
C 30.73184 17.77944 0.0101
C 29.55056 16.97256 0.01705
C 29.55469 15.5204 -0.0405
C 30.80923 14.90324 -0.01303
C 30.79964 2.18465 0.00307
C 30.76806 13.48811 -0.01461
C 29.48396 11.40278 -0.00944
C 30.6929 10.60151 -0.03735
C 30.78052 9.24249 -0.00971
C 29.53345 8.55508 0.01518
C 29.55847 7.08899 0.01908
C 30.7789 6.34997 0.07705
C 30.79441 4.94711 0.0103
C 29.55049 4.22706 0.02108
C 29.47785 12.78618 -0.02155
C 30.78442 23.36997 -0.01415
C 31.90544 11.40992 0.00137
C 33.28375 9.23694 0.04381
C 1.20725 19.16583 -0.01678
C 1.17193 17.7342 0.01223
C 34.32516 17.09048 0.00648
C 34.3923 15.61137 0.02114
C 1.22177 14.92697 -0.02957
C 1.20824 13.49185 0.00343
C 34.42733 12.81696 -0.02656
C 34.39801 11.32622 -0.02442
C 34.40507 19.8576 0.01951
C 1.20007 10.65036 -0.00027
C 0.09113 8.5017 -0.02302
C 34.43175 7.07932 -0.02849
C 1.21373 6.32687 0.02931
C 1.18578 4.92213 0.00628
C 34.37879 4.27065 -0.0345
C 34.38485 2.81646 -0.00931
C 1.21576 2.15543 -0.00939
C 1.22628 0.7652 -0.00468
C 1.26321 9.22049 -0.00583
C 33.16203 10.69159 0.00199
C 0.04055 21.27033 -0.02213
C 1.19825 23.45372 0.00723
C 32.00224 8.54319 0.02806
C 32.00672 7.07524 0.01504
C 33.21997 6.39297 -0.00069
C 33.20484 4.97687 0.04926
C 32.02815 4.29158 -0.03838
C 32.00306 2.82964 0.00349
C 33.17399 2.09618 -0.00323
C 33.21472 0.67179 -0.00841
C 1.18299 22.06126 0.02712
C 31.91947 34.02012 0.0001
C 1.11294 31.91954 -0.01404
C 1.13476 30.50165 0.01027
C 34.42889 29.78632 0.01831
C 34.36114 28.31616 -0.01037
C 1.17826 27.73041 -0.00439
C 1.26246 26.26515 -0.00598
C 0.00725 25.60458 -0.05239
C 34.39899 24.20049 0.03076
C 34.35553 32.69799 -0.02927
C 30.52315 31.99777 -0.01854
C 29.52022 32.65185 -0.02049
C 27.09429 0.08082 0.03265
C 23.4366 19.16407 -0.01586
C 23.3574 17.73432 -0.01971
C 22.12267 17.09734 -0.02118
C 22.08789 15.68444 0.00733
C 23.31416 15.03239 -0.00178
C 23.33452 13.58004 0.00768
C 22.09591 12.77192 -0.0276
C 22.1526 11.36525 0.03005
C 22.06768 19.91507 -0.01107
C 23.40933 10.67725 -0.04078
C 22.13136 8.50124 0.02737
C 22.05474 7.06689 -0.00498
C 23.29095 6.4011 0.00135
C 23.37118 5.00381 0.03102
C 22.18123 4.24751 0.02555
C 22.10838 2.77239 0.01423
C 23.32212 2.12704 -0.00285
C 23.29525 0.64947 -0.009
C 23.43911 9.19837 0.02117
C 22.00599 34.03969 -0.01199
C 22.05967 21.27023 0.00071
C 23.42674 23.34963 0.01515
C 20.82981 13.51641 0.01087
C 19.63197 12.77032 0.00199
C 19.6803 11.33943 0.01511
C 20.94303 10.65096 -0.00478
C 20.92502 9.21996 -0.01662
C 19.688 8.47136 -0.01185
C 19.65443 7.05125 0.01126
C 20.94629 6.33056 0.01852
C 23.235 22.06528 -0.00225
C 20.87951 4.9093 -0.00381
C 19.69551 2.88443 0.0296
C 20.90976 2.09896 0.03374
C 20.77969 0.67797 -0.02845
C 19.59284 34.00747 -0.03213
C 22.09929 32.44515 0.02239
C 23.31018 32.00976 0.01153
C 21.96074 29.6993 0.02734
C 22.24434 28.47143 -0.0055
C 19.6408 4.27883 0.03046
C 24.40758 32.62581 -0.00229
C 25.77069 21.94953 -0.00938
C 24.69281 21.33626 -0.0264
C 28.36355 19.07811 0.00194
C 28.35993 17.6415 -0.00621
C 27.07844 17.01092 0.02611
C 27.09571 15.60128 0.02198
C 28.29846 14.86238 0.01094
C 28.24589 13.44281 0.00235
C 27.05087 12.76363 0.01495
C 27.08402 11.35976 0.01259
C 27.13457 19.84144 0.04185
C 28.31594 10.65492 0.01799
C 27.09009 8.53331 -0.00416
C 27.11185 7.09762 0.01177
C 28.31975 6.43096 0.04266
C 28.32835 4.95891 0.01324
C 27.09565 4.25149 0.0014
C 27.08073 2.82666 0.00924
C 28.32467 2.16215 0.02326
C 28.318 0.70233 0.00261
C 28.29069 9.22306 0.01699
C 27.11786 21.44922 0.02316
C 28.35195 21.79882 0.01257
C 24.58222 34.03365 0.00152
C 24.58258 19.888 -0.01154
C 25.90752 19.21236 0.00684
C 25.85997 17.82407 -0.01052
C 24.56169 17.06996 -0.01679
C 24.58792 15.64111 0.00367
C 25.78434 14.9413 0.04306
C 25.81768 13.53291 0.00996
C 24.55065 12.85381 0.00195
C 24.59806 11.40156 -0.00802
C 25.85648 10.66279 -0.00218
C 25.89051 9.25933 -0.01654
C 24.66139 8.5229 -0.00037
C 24.57482 7.0688 -0.0032
C 25.837 6.39477 0.00622
C 25.92866 5.03532 -0.02815
C 24.60514 4.29428 -0.00942
C 24.58068 2.8802 0.00487
C 25.82021 2.13656 0.00826
C 25.85567 0.62912 -0.00294
C 19.59561 15.6978 0.00096
C 2.34868 32.62165 0.01087
