391
Graphene
C 0.01553 0.0309 0.01295
C 11.12349 2.09356 0.01363
C 11.02579 0.75473 -0.02162
C 9.81633 0.04532 0.00415
C 12.34126 32.6478 -0.0014
C 13.57803 31.99036 0.02162
C 13.54072 30.54104 0.0076
C 12.23865 29.78233 0.01241
C 12.26523 28.37399 -0.01454
C 13.4957 27.60297 0.01945
C 9.847 2.818 0.01877
C 13.56811 26.30725 0.01416
C 12.35556 24.10171 0.02299
C 13.58436 23.40703 0.00244
C 13.57915 21.97906 -0.01717
C 12.28069 21.36776 0.05265
C 12.3033 19.84222 -0.01952
C 13.52667 19.08681 -0.02813
C 13.47432 17.69504 0.00374
C 12.33657 16.9655 0.00052
C 12.26495 15.59242 -0.03682
C 12.27317 25.5963 0.03542
C 9.83822 4.21281 -0.00925
C 11.03182 5.01694 0.00444
C 10.98744 6.45409 -0.01789
C 9.8544 28.43414 -0.02759
C 11.08993 27.70909 0.0402
C 11.07417 26.28788 0.00572
C 9.83493 25.59052 0.03592
C 9.81719 24.16637 0.00406
C 11.07996 23.42732 0.00943
C 11.08858 22.04023 0.02841
C 9.83987 21.38623 -0.01111
C 9.81192 19.91434 -0.01275
C 11.04406 19.23589 0.00985
C 11.08138 17.69784 -0.02245
C 9.83795 17.04546 -0.00428
C 9.86824 15.65241 0.03101
C 11.13674 14.88898 -0.01536
C 11.04338 13.44306 -0.02689
C 9.83824 12.81739 -0.01046
C 9.88155 11.327 -0.00891
C 11.02514 10.62553 0.02819
C 11.09637 9.22194 0.00165
C 9.9155 8.54824 -0.02971
C 9.8319 7.13971 0.02894
C 13.55072 14.91336 0.01965
C 9.78881 29.90693 0.03589
C 13.50956 13.50043 0.02058
C 12.28102 11.30443 -0.0108
C 15.98617 17.71601 0.03698
C 14.76015 17.05533 -0.00109
C 14.75336 15.57829 -0.00491
C 15.9487 14.91867 0.03338
C 15.97657 13.51814 -0.0258
C 14.77027 12.7627 -0.0331
C 14.79671 11.42651 -0.00316
C 15.98609 10.62316 0.02188
C 16.01387 9.23483 -0.01979
C 16.01441 19.15752 -0.02213
C 14.80473 8.49155 0.02691
C 15.93477 6.39095 0.01452
C 15.97613 4.93699 0.04892
C 14.78047 4.21538 -0.00111
C 14.76984 2.79543 -0.03557
C 15.98399 2.15779 0.03754
C 15.95471 0.69218 0.01739
C 14.71069 0.01061 0.00755
C 17.16011 32.69324 -0.0054
C 18.42155 31.97722 0.00667
C 14.7391 7.11838 -0.01581
C 14.81315 19.83929 0.00028
C 14.77952 21.28751 -0.00289
C 16.00206 22.02499 -0.00066
C 13.5349 10.68618 -0.00368
C 13.57923 9.23608 -0.02696
C 12.30904 8.52641 -0.00114
C 12.29654 7.07081 0.00228
C 13.49258 6.36855 0.00798
C 13.50543 4.97327 0.00422
C 12.33201 4.27342 0.0351
C 12.27345 2.82725 -0.03113
C 13.48955 2.12525 0.02098
C 13.48188 0.72143 0.01848
C 12.29209 34.06996 -0.00619
C 14.70314 32.6785 -0.02162
C 15.973 31.98147 0.00889
C 16.00887 30.52561 -0.00481
C 14.72588 29.80033 0.00979
C 14.74929 28.34429 0.01443
C 15.94703 27.6659 0.03505
C 15.99122 26.24389 -0.02815
C 14.72133 25.55703 -0.04147
C 14.78737 24.13708 -0.05302
C 16.03337 23.44993 0.00213
C 12.25875 12.82611 -0.01957
C 18.48163 30.48942 0.00143
C 11.03344 30.55242 -0.00033
C 9.80976 32.68622 0.01364
C 2.47049 4.30171 -0.00074
C 2.48766 2.79191 -0.00518
C 3.69038 2.13904 0.0086
C 3.65827 0.73403 -0.00643
C 2.42963 0.00816 0.017
C 4.92454 32.66698 -0.03113
C 6.14209 31.99912 -0.02566
C 6.15462 30.48703 -0.00094
C 4.92381 29.83494 0.02322
C 3.70952 4.98384 0.01465
C 4.92874 28.38849 -0.00725
C 6.08925 26.34516 0.01087
C 4.93754 25.58242 -0.01343
C 4.89302 24.12485 0.00988
C 6.1002 23.44352 0.0276
C 6.1025 22.05409 0.01305
C 4.94792 21.27038 -0.00077
C 4.98452 19.91423 0.03368
C 6.14317 19.14496 -0.02929
C 6.20347 17.73075 -0.00966
C 6.15937 27.69962 -0.05697
C 3.6309 6.37821 -0.03996
C 2.42828 7.19746 0.01996
C 2.43954 8.5526 -0.00279
C 3.73298 30.53024 0.02769
C 2.47069 29.83062 -0.03291
C 2.52439 28.37789 -0.04999
C 3.67739 27.62956 0.04505
C 3.72218 26.22533 0.03284
C 2.37033 25.4959 -0.04307
C 2.42392 24.192 0.03189
C 3.64119 23.47739 0.00031
C 3.66238 22.03755 -0.003
C 2.47043 21.35489 0.01402
C 2.46428 19.82496 0.02379
C 3.7397 19.20763 0.00907
C 3.70886 17.80522 0.00643
C 2.44717 17.07796 -0.01509
C 2.44973 15.61094 0.03267
C 3.66982 14.86357 0.02374
C 3.69917 13.4731 0.00402
C 2.51191 12.78777 0.0073
C 2.46199 11.3326 0.0174
C 3.6908 10.67096 0.03828
C 3.69649 9.28943 0.01226
C 4.87073 17.04474 -0.03337
C 11.12856 31.97083 -0.01062
C 4.97631 15.62296 0.01227
C 6.18222 13.54147 -0.00049
C 7.34367 19.77077 0.03693
C 8.58977 19.14455 0.01745
C 8.54328 17.76348 0.00488
C 7.30653 16.99345 -0.01004
C 7.38437 15.63839 -0.02896
C 8.5995 14.95264 -0.00131
C 8.6003 13.51189 -0.01118
C 7.40211 12.72813 -0.014
C 7.36295 11.39426 0.02147
C 7.34866 21.30844 -0.01384
C 8.64331 10.6964 0.00373
C 7.38561 8.51532 0.00438
C 7.38442 7.11103 0.01291
C 8.64689 6.42497 0.00093
C 8.60849 4.97631 0.00057
C 7.34855 4.31885 -0.01634
C 7.42874 2.8486 -0.00334
C 8.63089 2.19397 0.02339
C 8.60896 0.76569 0.01641
C 7.42954 0.05314 -0.00719
C 8.58159 9.3271 -0.00191
C 8.57545 22.04244 -0.00482
C 8.61793 23.44171 0.02888
C 7.30741 24.14729 0.00685
C 4.94363 12.81355 0.00848
C 4.94468 11.3554 -0.01303
C 6.17325 10.64899 -0.01378
C 6.14035 9.26864 0.02635
C 4.90103 8.57451 0.0127
C 4.92476 7.11227 0.01396
C 6.09313 6.40504 0.01849
C 6.11317 5.01932 -0.01142
C 4.91777 4.21955 -0.00562
C 4.94911 2.80552 -0.00494
C 6.12594 2.17101 0.00054
C 6.13329 0.72531 0.03007
C 4.96463 0.0455 -0.00095
C 7.38328 32.63181 0.01572
C 8.57918 31.96266 -0.04848
C 8.55062 30.52408 -0.00892
C 7.37043 29.8286 -0.01362
C 7.34605 28.45544 -0.0008
C 8.52631 27.70512 0.0288
C 8.55695 26.29156 0.00393
C 7.34652 25.52278 0.00895
C 6.18279 14.97629 0.00873
C 3.65201 31.96214 0.01707
C 17.23082 29.86513 -0.017
C 18.44411 27.66528 -0.00831
C 30.74075 9.23184 0.07705
C 29.50344 8.53421 0.0103
C 29.55579 7.09885 0.02108
C 30.76045 6.41409 0.00716
C 30.73382 4.95339 0.00307
C 30.74652 2.11746 0.00346
C 30.70883 0.71416 0.01713
C 29.44932 0.05106 -0.01694
C 32.02632 32.65073 0.01428
C 30.75443 10.61067 0.01908
C 33.26911 31.91462 -0.02142
C 31.97438 29.85529 0.00026
C 31.96155 28.43027 0.00682
C 33.20909 27.6942 -0.01779
C 33.19844 26.27945 0.03794
C 31.95983 25.52122 0.01927
C 31.97938 24.15686 0.01574
C 33.24698 23.46655 -0.02383
C 33.22023 21.94189 -0.01429
C 33.26417 19.14401 -0.0136
C 33.23287 30.53915 0.0544
C 29.50294 11.38196 0.01518
C 29.50492 12.7394 -0.00971
C 30.68183 13.53178 -0.03735
C 27.12084 29.75759 0.04266
C 27.00743 28.31718 0.01324
C 28.26449 27.72505 0.0014
C 28.25852 13.4282 0.00924
C 27.0178 12.82044 0.02326
C 27.02669 11.34204 0.00261
C 28.2899 10.57667 0.03265
C 28.3126 9.18714 -0.02049
C 27.06412 8.55374 -0.01854
C 27.12456 7.09225 -0.01415
C 28.30876 6.34398 -0.03039
C 28.29338 0.69126 0.01836
C 27.09631 34.06192 0.03531
C 29.4808 32.63452 -0.00669
C 30.75741 31.9297 0.0101
C 30.74927 30.54362 0.01705
C 29.51125 29.84289 -0.0405
C 29.5265 28.46908 -0.01303
C 30.71791 27.69665 -0.01461
C 30.81528 26.34524 -0.02155
C 30.72197 14.91977 -0.00944
C 33.17677 17.77234 0.00594
C 28.27376 30.5121 0.01177
C 32.03082 17.07546 -0.02474
C 33.24745 14.88074 0.00455
C 34.38547 21.2618 -0.02213
C 34.41979 19.90659 0.01951
C 1.23831 19.19155 -0.01678
C 1.24651 17.80302 0.01223
C 34.3953 16.94451 0.00648
C 34.39422 15.5842 0.02114
C 1.21759 14.90315 -0.02957
C 1.29713 13.48907 0.00343
C 34.3811 12.72803 -0.02656
C 1.15807 22.04047 0.02712
C 34.40629 11.32006 -0.02442
C 1.18408 9.23651 -0.00583
C 34.4111 8.47583 -0.02302
C 34.42364 7.154 -0.02849
C 1.22592 6.42468 0.02931
C 1.22283 4.95377 0.00628
C 34.43191 4.22236 -0.0345
C 34.39327 2.79667 -0.00931
C 1.19555 2.15334 -0.00939
C 1.23985 0.74106 -0.00468
C 1.2535 10.62335 -0.00027
C 1.21774 23.43568 0.00723
C 34.40715 24.20823 0.03076
C 0.00302 25.6071 -0.05239
C 33.20281 13.52677 -0.00644
C 31.93785 12.80609 -0.01839
C 31.93807 11.35028 0.00137
C 33.18409 10.6809 0.00199
C 33.20505 9.23664 0.04381
C 31.98978 8.52303 0.02806
C 31.94559 7.07535 0.01504
C 33.17614 6.38892 -0.00069
C 33.19198 4.99132 0.04926
C 31.95085 4.33789 -0.03838
C 31.9735 2.8033 0.00349
C 33.19353 2.08441 -0.00323
C 33.14942 0.68623 -0.00841
C 31.96558 0.01754 0.0001
C 0.04074 32.66673 -0.02927
C 1.17332 31.89826 -0.01404
C 1.20648 30.51463 0.01027
C 0.01754 29.81646 0.01831
C 34.4253 28.35817 -0.01037
C 1.20909 27.69686 -0.00439
C 1.25748 26.2352 -0.00598
C 31.98615 15.60827 0.00369
C 17.2535 28.43555 0.00364
C 28.25734 31.92949 -0.00416
C 24.61186 34.03482 0.01799
C 17.21916 34.04791 0.01126
C 19.63931 32.63716 0.01852
C 20.91492 31.93577 -0.00381
C 20.95874 30.49676 0.03046
C 19.67745 29.84694 0.0296
C 19.60261 28.38933 0.03374
C 20.84584 27.66206 -0.02845
C 20.89762 26.19691 -0.03213
C 19.63359 25.59058 0.02239
C 18.48731 0.69396 -0.01185
C 19.71353 24.13853 0.01153
C 19.5603 17.02549 -0.0055
C 19.63035 15.58212 0.01515
C 20.89941 14.8981 -0.00225
C 20.89246 13.49977 0.00071
C 19.70966 12.72012 -0.01107
C 19.7153 11.30361 -0.01586
C 20.94283 10.6389 -0.01971
C 20.88442 9.23149 -0.02118
C 19.68263 8.4538 0.00733
C 19.58957 21.22113 0.02734
C 18.42649 2.15123 -0.01662
C 17.26033 2.79284 -0.00478
C 17.28907 4.21664 0.01511
C 18.41335 26.24719 -0.02957
C 17.21 25.56217 -0.04422
C 17.23223 24.16352 0.00654
C 18.45877 23.40839 -0.00703
C 18.50672 22.00549 -0.04076
C 17.20102 21.29807 -0.00652
C 17.24361 19.88924 0.0058
C 18.47714 19.17948 -0.00865
C 18.52955 17.78654 0.00675
C 17.23926 17.07617 -0.00311
C 17.22786 15.65062 0.00742
C 18.48609 14.80223 -0.01594
C 18.44938 13.46416 0.0106
C 17.23272 12.81217 -0.01154
C 17.17496 11.42648 -0.01721
C 18.39833 10.6447 -0.02422
C 18.43869 9.24126 0.01277
C 17.17678 8.52607 0.00096
C 17.19946 7.0806 -0.01527
C 18.47842 6.39025 0.01087
C 18.43476 5.01571 0.00199
C 19.66968 7.03658 -0.00178
C 27.07484 32.70022 0.01699
C 20.92923 6.39416 0.00768
C 19.72166 4.24776 0.03005
C 22.06505 34.04917 -0.00037
C 24.63107 32.67951 -0.0032
C 25.80901 31.91415 0.00622
C 25.96762 30.54871 -0.02815
C 24.57805 29.8422 -0.00942
C 24.60124 28.3743 0.00487
C 25.8111 27.67511 0.00826
C 25.7223 13.5057 -0.00294
C 24.52556 12.79998 0.00152
C 23.32068 0.70598 -0.01654
C 24.56317 11.34117 0.01257
C 25.85095 9.17931 0.04185
C 24.51377 8.47789 0.00194
C 24.59328 7.11298 -0.00621
C 25.8033 6.40767 0.02611
C 25.77975 4.95437 0.02198
C 24.57819 4.28293 0.01094
C 24.60676 2.8487 0.00235
C 25.80053 2.10009 0.01495
C 25.81954 0.73479 0.01259
C 25.8196 10.55139 0.02316
C 23.39304 2.13892 -0.00218
C 22.12731 2.83241 -0.00802
C 22.13471 4.26487 0.00195
C 19.73489 2.90778 -0.04078
C 20.90397 2.1472 0.02117
C 20.87447 0.66771 0.02737
C 19.68217 34.06417 -0.00498
C 22.12983 32.69203 0.00135
C 23.32864 31.96997 0.03102
C 23.36444 30.50524 0.02555
C 22.18393 29.84239 0.01423
C 22.16047 28.39739 -0.00285
C 23.35698 27.68223 -0.009
C 23.30192 26.16816 -0.01199
C 22.15987 25.65863 -0.00229
C 23.37614 13.5073 -0.00938
C 22.10037 12.78368 -0.0264
C 22.12569 11.3555 -0.01154
C 23.36479 10.62469 0.00684
C 23.34018 9.20148 -0.01052
C 22.14974 8.50223 -0.01679
C 22.15166 7.08476 0.00367
C 23.36499 6.45391 0.04306
C 23.40518 5.01526 0.00996
C 20.86673 4.98353 -0.0276
C 2.46865 32.6398 0.00208
