292
Graphene
C 0.01578 0.02685 0.01295
C 12.35171 34.04499 -0.0054
C 14.71031 32.71446 0.00667
C 15.99114 31.9726 0.00143
C 16.0202 30.50583 -0.017
C 14.80431 29.89446 0.00364
C 14.79406 28.43846 -0.00831
C 13.47884 0.67211 0.00755
C 15.95947 27.70094 -0.02957
C 14.73073 25.49209 0.00654
C 14.74941 24.07558 -0.00703
C 16.05062 23.45357 -0.04076
C 14.82056 2.81348 -0.00652
C 16.02925 2.11002 0.0058
C 16.01892 0.67174 -0.00865
C 15.95513 26.34621 -0.04422
C 14.77962 34.0614 0.00675
C 13.54584 2.05879 0.01739
C 12.18798 4.22051 -0.03557
C 9.89173 2.78722 0.03698
C 11.01856 2.07585 -0.00109
C 11.04239 0.70849 -0.00491
C 9.81864 34.04077 0.03338
C 12.27078 32.69716 -0.0258
C 13.44802 31.99234 -0.0331
C 12.34823 2.86769 0.03754
C 13.52809 30.56681 -0.00316
C 12.33559 28.41758 -0.01979
C 13.55966 27.72414 0.02691
C 13.52103 26.28883 -0.01581
C 12.30715 25.5621 0.01452
C 12.32636 24.12776 0.04892
C 13.55349 23.52595 -0.00111
C 12.28337 29.82962 0.02188
C 17.1949 32.71355 -0.00311
C 18.4661 31.88631 0.00742
C 18.47657 30.4838 -0.01594
C 19.70112 24.1478 -0.02845
C 20.96793 23.41187 -0.03213
C 20.89341 21.98735 0.02239
C 19.65913 21.35809 0.01153
C 20.88552 0.62915 0.02734
C 19.6016 34.06891 -0.0055
C 19.68283 25.5343 0.03374
C 22.19538 32.66721 0.01515
C 23.34827 30.57457 0.00071
C 22.15596 29.8262 -0.01107
C 22.1065 28.46784 -0.01586
C 23.34809 27.72018 -0.01971
C 23.32819 26.21325 -0.02118
C 22.12119 25.52589 0.00733
C 23.36232 32.00326 -0.00225
C 20.91134 26.24286 0.0296
C 20.87778 27.68957 0.03046
C 19.66432 28.40199 -0.00381
C 17.24586 29.78798 0.0106
C 17.26033 28.46308 -0.01154
C 18.43897 27.65958 -0.01721
C 18.43862 26.26575 -0.02422
C 17.21768 25.54448 0.01277
C 17.21907 24.07835 0.00096
C 18.39204 23.42508 -0.01527
C 18.48272 21.95415 0.01087
C 17.25138 2.77029 0.00199
C 18.43498 0.67577 0.01511
C 17.21106 0.0326 -0.00478
C 19.62253 32.64198 -0.01662
C 20.86589 31.95194 -0.01185
C 20.86981 30.54965 0.01126
C 19.66213 29.82286 0.01852
C 9.84528 4.28115 -0.02213
C 22.15612 24.08692 -0.00178
C 11.15177 4.93868 0.00028
C 9.84771 24.1482 -0.00066
C 2.47077 2.88952 -0.02971
C 3.72432 2.14516 0.02894
C 3.68491 0.72868 -0.01789
C 2.46403 34.03755 0.00444
C 4.88344 32.62731 -0.00925
C 6.13755 31.94333 0.01877
C 2.49892 4.29887 0.00165
C 6.13698 30.52255 0.01363
C 4.86607 28.41164 0.00415
C 6.11113 27.70895 -0.0014
C 6.15302 26.2618 0.02162
C 4.87387 25.54565 0.0076
C 4.92034 24.152 0.01241
C 6.19366 23.39459 -0.01454
C 4.89773 29.79935 -0.02162
C 6.13613 21.96437 0.01945
C 3.67493 4.95582 0.02819
C 2.51255 7.08328 -0.01046
C 3.65443 30.51271 0.0402
C 2.47387 29.80812 0.00572
C 2.4819 28.43386 0.03592
C 3.64613 27.74397 0.00406
C 3.69711 26.2271 0.00943
C 2.42199 25.58262 0.02841
C 3.68031 6.4081 -0.00891
C 2.45883 24.17966 -0.01111
C 3.70258 21.96865 0.00985
C 2.4402 21.32561 -0.02245
C 2.4123 19.91296 -0.00428
C 3.65954 19.16576 0.03101
C 3.62833 17.727 -0.01536
C 2.47128 17.11133 -0.02689
C 3.70806 23.41695 -0.01275
C 4.91393 21.35077 0.01416
C 4.9374 19.89459 0.03542
C 6.19466 19.1918 0.02299
C 8.54545 5.01724 -0.03113
C 7.37492 4.27078 0.02098
C 7.36955 2.79739 0.01848
C 8.59198 2.13381 -0.00619
C 8.567 0.7522 -0.02162
C 7.40196 34.04305 0.00889
C 8.67162 6.37692 0.0351
C 9.80617 32.66261 -0.00481
C 11.1393 30.52454 0.01443
C 9.83801 29.80021 0.03505
C 9.77809 28.37911 -0.02815
C 11.06007 27.78983 -0.04147
C 11.06826 26.29819 -0.05302
C 9.8661 25.53771 0.00213
C 11.03545 31.96911 0.00979
C 7.41669 21.32992 0.00422
C 8.54226 21.95912 0.00798
C 8.65426 23.42014 0.00228
C 6.08191 4.90925 0.00244
C 4.91395 4.3261 -0.01717
C 4.89803 2.86462 0.05265
C 6.1193 2.1204 -0.01952
C 6.16671 0.72799 -0.02813
C 4.91939 34.00245 0.00374
C 7.40013 32.66368 0.00052
C 8.64127 31.99766 -0.03682
C 8.61357 30.56269 0.01965
C 7.37262 29.79982 0.02058
C 7.33372 28.35209 -0.01957
C 8.58854 27.67125 -0.0108
C 8.6504 26.27094 -0.00368
C 7.39145 25.51458 -0.02696
C 7.38196 24.14597 -0.00114
C 11.0708 23.49827 -0.00289
C 23.31975 23.43204 0.00768
C 23.41951 22.01836 -0.0276
C 22.18511 21.30344 0.03005
C 33.2313 22.05574 -0.01429
C 31.94339 21.21461 -0.0136
C 31.94013 19.86461 0.00594
C 33.16574 19.19106 -0.02474
C 33.16962 17.68014 0.00369
C 31.98809 17.01593 0.00455
C 33.21134 23.45817 -0.02383
C 31.97308 15.63013 -0.00644
C 33.22183 13.42182 0.00137
C 31.94252 12.79668 0.00199
C 31.94252 11.39061 0.04381
C 33.2391 10.66604 0.02806
C 33.16925 9.2347 0.01504
C 31.97703 8.52203 -0.00069
C 33.22151 14.94201 -0.01839
C 31.9625 7.10346 0.04926
C 31.96077 24.16631 0.01574
C 33.23971 26.26849 0.03794
C 29.54033 7.20176 0.07705
C 30.7146 6.40904 0.0103
C 30.76904 5.01562 0.02108
C 29.48427 4.30896 0.00716
C 29.49611 2.86605 0.00307
C 30.75852 2.12583 0.00346
C 31.93463 25.54457 0.01927
C 30.72747 0.73611 0.01713
C 31.99236 32.64797 0.01428
C 33.23124 31.92489 -0.02142
C 33.20033 30.55539 0.0544
C 31.95512 29.87049 0.00026
C 31.97005 28.40663 0.00682
C 33.14667 27.67908 -0.01779
C 29.4735 0.03199 -0.01694
C 33.203 6.36822 -0.03838
C 33.22636 4.97058 0.00349
C 31.92985 4.29345 -0.00323
C 34.40532 17.05722 -0.02957
C 0.05926 15.66864 0.00343
C 1.23734 14.8293 -0.02656
C 34.41302 12.79085 -0.02442
C 34.37076 11.40894 -0.00027
C 1.23467 9.21115 -0.00583
C 1.19937 17.7673 0.02114
C 34.35996 8.52837 -0.02302
C 1.1793 6.3796 0.02931
C 1.20122 4.90449 0.00628
C 0.006 4.27574 -0.0345
C 34.39589 2.82928 -0.00931
C 1.26288 2.17747 -0.00939
C 1.25175 0.68367 -0.00468
C 34.41716 7.09405 -0.02849
C 1.22521 19.17273 0.00648
C 0.02512 19.87276 0.01223
C 0.02767 21.35216 -0.01678
C 31.95404 2.8102 -0.00841
C 33.19552 2.13478 0.0001
C 33.18534 0.70797 -0.02927
C 31.92034 0.05911 -0.01404
C 0.04297 32.65316 0.01027
C 1.23131 31.90843 0.01831
C 1.27938 30.51441 -0.01037
C 34.43097 29.82129 -0.00439
C 34.43277 28.41966 -0.00598
C 1.24111 27.71684 -0.05239
C 1.20447 26.27913 0.03076
C 34.42481 25.5644 0.00723
C 34.40604 24.18176 0.02712
C 1.2585 23.47064 -0.02213
C 1.23366 21.96139 0.01951
C 29.56418 8.46297 0.01908
C 30.75689 9.2485 0.01518
C 30.71515 10.68549 -0.00971
C 29.53362 11.34973 -0.03735
C 25.79583 19.19826 0.04306
C 25.86502 17.70959 0.00996
C 24.55757 16.99693 0.00195
C 24.6151 15.63539 -0.00802
C 25.76313 14.94369 -0.00218
C 25.82376 2.17563 -0.01654
C 24.57436 19.89955 0.00367
C 25.83607 0.65413 -0.00037
C 27.07751 32.64204 0.00622
C 28.28478 31.95631 -0.02815
C 28.34142 30.50464 -0.00942
C 27.04687 29.74478 0.00487
C 27.05064 28.40144 0.00826
C 28.30348 27.6747 -0.00294
C 24.57417 0.00258 -0.0032
C 24.62876 21.27364 -0.01679
C 25.8202 21.99545 -0.01052
C 25.80056 23.43358 0.00684
C 22.12972 19.93044 -0.04078
C 23.32462 19.19586 0.02117
C 23.40659 17.8073 0.02737
C 22.14536 17.10879 -0.00498
C 23.37701 0.72556 0.00135
C 22.13411 0.004 0.03102
C 24.62294 32.68182 0.02555
C 25.85408 31.94641 0.01423
C 25.80739 30.47812 -0.00285
C 24.58563 29.84941 -0.009
C 24.60203 28.40241 -0.01199
C 25.83753 27.75441 -0.00229
C 25.80377 26.22461 -0.00938
C 24.55513 25.54803 -0.0264
C 24.59857 24.15398 -0.01154
C 28.34033 26.26546 0.00152
C 3.6281 31.90878 -0.02759
C 27.02205 25.57445 0.01257
C 28.28236 23.38663 0.04185
C 30.72126 26.2263 -0.02049
C 29.50593 25.51937 -0.01854
C 29.50945 24.20377 -0.01415
C 30.77177 23.47987 -0.03039
C 30.75058 21.995 0.01836
C 29.51287 21.27769 0.03531
C 30.69492 27.63937 0.03265
C 29.46856 19.87755 -0.00669
C 30.76026 17.76065 0.01705
C 29.57637 17.00993 -0.0405
C 29.52033 15.61518 -0.01303
C 30.70543 14.95201 -0.01461
C 30.76229 13.52554 -0.02155
C 29.50197 12.8112 -0.00944
C 30.70806 19.17904 0.0101
C 29.47197 28.38685 0.00261
C 29.5342 29.83089 0.02326
C 30.75965 30.52235 0.00924
C 28.3037 22.00814 0.00194
C 27.03664 21.28513 -0.00621
C 27.04737 19.88566 0.02611
C 28.26738 19.17959 0.02198
C 28.29355 17.80515 0.01094
C 27.06505 16.99363 0.00235
C 27.04287 15.57958 0.01495
C 28.23946 14.90158 0.01259
C 28.29451 13.51342 0.01799
C 27.04699 2.80461 0.01699
C 28.22479 2.07738 -0.00416
C 28.23231 0.70314 0.01177
C 27.08449 34.06383 0.04266
C 29.49806 32.62144 0.01324
C 30.72044 31.96145 0.0014
C 27.0665 24.08877 0.02316
C 2.45789 32.64785 0.03589
