420
Graphene
C 0.02569 0.01725 0.01295
C 13.57054 27.68895 0.00406
C 13.47953 26.34298 0.00943
C 12.27075 25.5974 0.02841
C 12.33333 24.14528 -0.01111
C 13.59647 23.48003 -0.01275
C 13.53218 22.05715 0.00985
C 12.23161 21.27739 -0.02245
C 12.2503 19.86051 -0.00428
C 13.46542 19.03188 0.03101
C 13.53816 17.69277 -0.01536
C 12.35832 28.4429 0.03592
C 12.33075 17.01708 -0.02689
C 13.63973 14.85114 -0.00891
C 13.58752 13.44904 0.02819
C 12.31091 12.88275 0.00165
C 12.3054 11.33226 -0.02971
C 13.494 9.09005 0.02894
C 12.26958 8.46127 -0.01789
C 12.33625 7.01433 0.00444
C 13.49755 6.36539 -0.00925
C 13.50631 4.98866 0.01877
C 12.28414 4.22885 0.01363
C 12.26012 15.64478 -0.01046
C 12.21647 2.90658 -0.02162
C 12.32662 29.89379 0.00572
C 13.54601 31.98461 -0.02759
C 9.83566 21.32678 0.00488
C 9.83941 19.9189 -0.01004
C 11.02001 19.19233 -0.02896
C 11.09173 17.75408 -0.00131
C 9.87451 17.13188 -0.01118
C 9.86669 15.72507 -0.014
C 11.04692 14.97043 0.02147
C 11.02315 13.58902 0.00373
C 9.86969 12.7173 -0.00191
C 9.86344 11.34708 0.00438
C 13.54251 30.58277 0.0402
C 11.20762 10.62185 0.01291
C 9.80616 8.49481 0.00057
C 9.83244 7.10113 -0.01634
C 11.08755 6.34495 -0.00334
C 11.02318 4.94893 0.02339
C 9.86682 4.24729 0.01641
C 9.90004 2.8668 -0.00719
C 11.08964 2.16095 0.01364
C 11.08308 0.73304 -0.01062
C 9.78822 0.12973 -0.00033
C 12.28663 32.6983 0.03589
C 11.01017 9.14917 0.00093
C 13.51631 2.11133 0.00415
C 13.51964 0.75755 -0.0014
C 12.30018 34.07486 0.02162
C 18.39925 30.52451 0.02098
C 17.176 29.83878 0.01848
C 17.23135 28.37386 -0.00619
C 18.53206 27.76074 -0.02162
C 18.44375 26.24992 0.00889
C 17.2373 25.55183 -0.00481
C 17.24444 24.12493 0.00979
C 18.48182 23.37061 0.01443
C 18.39136 22.01449 0.03505
C 17.17427 21.25632 -0.02815
C 18.47477 31.9125 -0.03113
C 17.22385 19.8272 -0.04147
C 18.39087 17.75533 0.00213
C 17.15712 17.0359 -0.00066
C 18.39067 6.40105 -0.00289
C 18.37963 5.08335 0.00028
C 17.19254 4.30218 -0.02213
C 17.20146 2.86187 0.03698
C 18.45336 2.07954 -0.00109
C 18.43778 0.68684 -0.00491
C 17.21525 0.00332 0.03338
C 19.65605 32.69014 -0.0258
C 18.49859 19.19919 -0.05302
C 17.22932 32.67062 0.0351
C 14.7657 34.01958 0.00422
C 15.94101 0.68215 0.00798
C 14.75229 32.65987 0.0076
C 16.03587 31.96021 0.01241
C 15.94856 30.53782 -0.01454
C 14.71655 29.84788 0.01945
C 14.7145 28.42449 0.01416
C 15.97594 27.69519 0.03542
C 15.90276 26.28591 0.02299
C 14.74606 25.59204 0.00244
C 14.83321 24.14371 -0.01717
C 15.96762 23.37188 0.05265
C 15.95329 21.91833 -0.01952
C 14.69452 21.25052 -0.02813
C 14.72177 19.81922 0.00374
C 15.97128 19.15265 0.00052
C 16.01235 17.71785 -0.03682
C 14.83362 17.04285 0.01965
C 14.71639 15.7496 0.02058
C 14.81899 6.99451 -0.01957
C 15.88249 6.43403 -0.0108
C 15.97717 4.99966 -0.00368
C 14.76068 4.31582 -0.02696
C 14.74556 2.77892 -0.00114
C 15.96497 2.13027 0.00228
C 11.0243 22.04186 0.01745
C 20.85151 31.97355 -0.0331
C 11.07225 23.42266 0.03693
C 9.81183 25.62011 -0.00482
C 2.49239 2.8046 -0.00561
C 3.68608 2.15719 0.00208
C 3.72364 0.76155 0.01707
C 2.50697 34.07771 0.02769
C 4.8433 32.74433 -0.03291
C 6.13509 31.95668 -0.04999
C 6.12421 30.49754 0.04505
C 4.90567 29.80055 0.03284
C 4.88322 28.41495 -0.04307
C 6.18286 27.63486 0.03189
C 2.50953 4.26292 -0.01977
C 6.09372 26.22554 0.00031
C 4.97997 24.10727 0.01402
C 6.16697 23.42625 0.02379
C 6.09875 22.00018 0.00907
C 4.89272 21.40134 0.00643
C 4.92476 19.91115 -0.01509
C 6.16491 19.16919 0.03267
C 6.16296 17.75399 0.02374
C 4.97423 17.02238 0.00402
C 4.91451 15.57982 0.0073
C 6.1917 14.90602 0.0174
C 4.82239 25.48585 -0.003
C 6.15646 13.55679 0.03828
C 3.64716 5.02786 0.02784
C 2.42821 7.10747 -0.00449
C 3.71756 30.54312 0.00748
C 2.46572 29.73779 0.00662
C 2.49719 28.35503 -0.0154
C 3.71098 27.73928 -0.01299
C 3.65872 26.31309 -0.00407
C 2.46008 25.53599 0.01138
C 2.3972 24.06806 0.03278
C 3.69111 23.40925 -0.00177
C 3.69918 22.0096 0.04421
C 2.45069 21.31481 0.00088
C 3.67092 6.44136 -0.01979
C 2.45782 19.95817 0.00828
C 3.66835 17.77611 0.00558
C 2.52837 17.01915 -0.0059
C 2.51148 15.62431 -0.01386
C 3.73765 14.91401 -0.02805
C 3.65396 13.34896 0.00081
C 2.42593 12.76481 0.00245
C 2.3738 11.36738 0.02728
C 3.59795 10.58216 -0.00039
C 3.69891 9.20217 0.0064
C 2.42751 8.52954 0.00211
C 3.67735 19.20864 -0.02375
C 4.93274 12.74291 0.01226
C 4.88099 11.33524 -0.00279
C 6.12499 10.71414 0.01996
C 8.62443 14.96783 -0.01303
C 8.61545 13.48364 -0.01378
C 7.38328 12.82746 0.02635
C 7.42323 11.40861 0.0127
C 8.62474 10.68868 0.01396
C 8.58564 9.27216 0.01849
C 7.43002 8.52951 -0.01142
C 7.39467 7.1535 -0.00562
C 8.61046 6.4455 -0.00494
C 8.64569 5.00686 0.00054
C 7.35789 15.70221 0.00848
C 7.3848 4.29898 0.03007
C 8.64879 2.15038 0.01572
C 8.53704 0.74887 -0.04848
C 7.33754 0.00788 -0.00892
C 9.85439 32.68896 -0.01362
C 11.07701 31.95013 -0.0008
C 11.03495 30.60088 0.0288
C 9.80936 29.88454 0.00393
C 9.84684 28.45282 0.00895
C 11.00811 27.7098 0.00685
C 10.99794 26.34451 0.02888
C 7.35498 2.81743 -0.00095
C 7.41625 17.0689 -0.00049
C 8.56893 17.80126 0.00873
C 8.5686 19.20904 0.01227
C 6.22842 9.30817 -0.03996
C 4.9511 8.48959 0.01465
C 4.91565 7.11013 -0.00074
C 6.09915 6.39413 -0.00518
C 6.14269 4.97357 0.0086
C 4.87946 4.33123 -0.00643
C 4.83942 2.87258 0.017
C 6.06586 2.12798 -0.03113
C 6.12295 0.66101 -0.02566
C 4.92283 0.04724 -0.00094
C 7.35269 32.66796 0.02322
C 8.59448 32.0002 -0.00725
C 8.60334 30.512 -0.05697
C 7.36457 29.80502 0.01087
C 7.36129 28.4225 -0.01343
C 8.65082 27.7343 0.00988
C 8.62581 26.33338 0.0276
C 7.35005 25.56223 0.01305
C 7.37031 24.16338 -0.00077
C 8.58055 23.44445 0.03368
C 8.53065 22.09893 -0.02929
C 7.40146 21.29192 -0.00966
C 7.38762 19.85222 -0.03337
C 9.89767 24.13356 -0.01384
C 20.88883 30.5433 -0.00316
C 19.65948 29.85222 0.02188
C 19.71991 28.44263 -0.01979
C 29.49484 11.33645 -0.02155
C 30.71911 10.65618 -0.00944
C 30.73464 9.22543 -0.03735
C 29.56216 8.56386 -0.00971
C 29.54544 7.02297 0.01518
C 30.78429 6.34661 0.01908
C 30.75877 4.9746 0.07705
C 29.52198 4.31333 0.0103
C 29.52088 2.80071 0.02108
C 30.68995 2.13733 0.00716
C 29.57853 12.73255 -0.01461
C 30.67361 0.66966 0.00307
C 31.94774 32.70921 0.01713
C 33.13124 31.92353 -0.01694
C 33.15592 30.54337 0.01428
C 31.96246 29.81276 -0.02142
C 32.00715 28.34317 0.0544
C 33.26053 27.67962 0.00026
C 33.21125 26.31774 0.00682
C 32.03337 25.54512 -0.01779
C 31.98388 24.0528 0.03794
C 33.21601 23.43341 0.01927
C 29.5171 34.03128 0.00346
C 33.19107 22.01521 0.01574
C 30.77236 13.46856 -0.01303
C 29.52267 15.61059 0.01705
C 28.27046 4.98478 0.00235
C 27.07514 4.34327 0.01495
C 27.04865 2.86456 0.01259
C 28.30917 2.19128 0.01799
C 28.25528 0.7412 0.01699
C 27.05627 0.00357 -0.00416
C 29.52539 32.61586 0.01177
C 30.7593 31.98611 0.04266
C 30.7815 30.5085 0.01324
C 29.48269 29.77172 0.0014
C 30.74967 14.93384 -0.0405
C 29.5209 28.40908 0.00924
C 30.7852 26.30778 0.00261
C 29.47079 25.45028 0.03265
C 29.45203 24.08589 -0.02049
C 30.73147 23.41286 -0.01854
C 30.82694 22.01486 -0.01415
C 29.46331 21.25248 -0.03039
C 29.43953 19.88358 0.01836
C 30.7242 19.11903 0.03531
C 30.69907 17.71589 -0.00669
C 29.49294 16.96461 0.0101
C 30.74922 27.75697 0.02326
C 31.97334 21.33773 -0.02383
C 31.96943 19.8825 -0.01429
C 33.20187 19.16733 -0.0136
C 1.16154 23.41085 0.00723
C 1.15441 22.02977 0.02712
C 34.42221 21.30317 -0.02213
C 0.05432 19.83194 0.01951
C 1.24321 19.16688 -0.01678
C 1.1997 17.79967 0.01223
C 34.4126 17.10784 0.00648
C 0.00452 15.6889 0.02114
C 1.21134 14.93842 -0.02957
C 1.18842 13.48355 0.00343
C 34.42674 24.20863 0.03076
C 0.00213 12.76775 -0.02656
C 1.2065 10.63479 -0.00027
C 1.19387 9.2074 -0.00583
C 34.39947 8.51721 -0.02302
C 34.3767 7.11264 -0.02849
C 1.19808 6.46259 0.02931
C 1.22029 4.90151 0.00628
C 34.40283 4.22244 -0.0345
C 34.37835 2.80485 -0.00931
C 1.22687 2.14469 -0.00939
C 1.28449 0.73701 -0.00468
C 34.34263 11.27288 -0.02442
C 34.39726 25.5765 -0.05239
C 1.25347 26.23394 -0.00598
C 1.23829 27.63712 -0.00439
C 33.17474 17.77249 0.00594
C 32.00004 16.98104 -0.02474
C 32.021 15.60945 0.00369
C 33.25398 14.90811 0.00455
C 33.18538 13.45165 -0.00644
C 32.00258 12.69373 -0.01839
C 31.93766 11.32726 0.00137
C 33.13203 10.6225 0.00199
C 33.21234 9.21682 0.04381
C 32.00517 8.53045 0.02806
C 31.96095 7.13891 0.01504
C 33.09401 6.38494 -0.00069
C 33.12598 4.94085 0.04926
C 31.95571 4.20159 -0.03838
C 31.91944 2.80183 0.00349
C 33.22458 2.09644 -0.00323
C 33.22747 0.69944 -0.00841
C 31.8682 0.00453 0.0001
C 34.36637 32.59905 -0.02927
C 1.2418 31.92195 -0.01404
C 1.2434 30.49104 0.01027
C 0.05075 29.77575 0.01831
C 0.06337 28.3214 -0.01037
C 28.32 6.37649 0.01094
C 27.06243 7.08359 0.02198
C 27.06336 8.42157 0.02611
C 28.2569 9.18703 -0.00621
C 23.37788 23.45219 0.0106
C 23.41335 21.94285 -0.01154
C 22.24443 21.23322 -0.01721
C 22.11724 19.81635 -0.02422
C 23.34116 19.13934 0.01277
C 23.37484 17.75328 0.00096
C 22.09789 16.97825 -0.01527
C 22.20015 15.6791 0.01087
C 23.26247 14.84554 0.00199
C 23.39406 13.48749 0.01511
C 22.18183 24.14579 -0.01594
C 23.49768 10.68375 -0.00478
C 22.20712 8.55002 -0.01185
C 22.09851 7.16422 0.01126
C 23.43306 6.3044 0.01852
C 23.34901 4.9489 -0.00381
C 22.16053 4.28877 0.03046
C 22.10175 2.91009 0.0296
C 23.33135 2.14128 0.03374
C 23.33881 0.73942 -0.02845
C 22.07399 0.03175 -0.03213
C 24.60155 32.65393 0.02239
C 23.3648 9.30006 -0.01662
C 22.13431 25.60713 0.00742
C 23.381 26.24702 -0.00311
C 23.43225 27.74831 0.00675
C 20.95944 27.65556 0.02691
C 20.9366 26.25458 -0.01581
C 19.60791 25.51925 0.01452
C 19.72117 24.1565 0.04892
C 20.92389 23.39421 -0.00111
C 21.08702 22.05759 -0.03557
C 19.64954 21.33528 0.03754
C 19.69073 19.89677 0.01739
C 20.89901 19.13472 0.00755
C 20.76623 17.72605 -0.0054
C 19.57593 17.09572 0.00667
C 20.85077 6.35932 0.00143
C 20.89105 4.98738 -0.017
C 19.69671 4.19248 0.00364
C 19.57586 2.79951 -0.00831
C 20.88815 2.15655 -0.02957
C 20.85173 0.74779 -0.04422
C 19.63733 34.04319 0.00654
C 22.08821 32.69224 -0.00703
C 23.35767 31.97553 -0.04076
C 23.34666 30.5046 -0.00652
C 22.11658 29.83991 0.0058
C 22.18915 28.3318 -0.00865
C 25.82818 31.9405 0.01153
C 3.69021 31.92512 0.03345
C 25.83834 30.54238 0.02734
C 24.70958 28.47252 0.01515
C 27.08466 32.6604 -0.01052
C 28.22521 31.87656 -0.01679
C 28.28646 30.47296 0.00367
C 27.01184 29.85617 0.04306
C 27.04462 28.45066 0.00996
C 28.28581 27.69162 0.00195
C 28.34912 26.29424 -0.00802
C 27.07713 25.60774 -0.00218
C 27.03718 24.16924 -0.01654
C 28.233 23.36698 -0.00037
C 24.61097 0.07777 0.00684
C 28.27823 21.97919 -0.0032
C 27.00293 19.85577 -0.02815
C 28.22571 19.1202 -0.00942
C 28.26501 17.69932 0.00487
C 26.99705 17.04161 0.00826
C 27.05768 15.60731 -0.00294
C 28.30812 14.91318 0.00152
C 28.28057 13.52524 0.01257
C 27.11054 12.81934 0.02316
C 27.02744 11.35939 0.04185
C 28.29078 10.61174 0.00194
C 27.06387 21.29197 0.00622
C 25.8323 0.76251 -0.01154
C 25.86488 2.12936 -0.0264
C 24.55136 2.78717 -0.00938
C 25.90476 27.73263 -0.00225
C 25.79645 26.32745 0.00071
C 24.60533 25.58998 -0.01107
C 24.61313 24.17947 -0.01586
C 25.82195 23.39634 -0.01971
C 25.81871 21.9312 -0.02118
C 24.55863 21.21589 0.00733
C 24.60869 19.86705 -0.00178
C 25.81733 19.1447 0.00768
C 25.7414 17.75079 -0.0276
C 24.55801 17.0195 0.03005
C 24.55693 15.63929 -0.04078
C 25.82712 14.8916 0.02117
C 25.78344 13.42691 0.02737
C 24.52371 12.78793 -0.00498
C 24.59481 11.41192 0.00135
C 25.82724 10.68534 0.03102
C 25.83456 9.13271 0.02555
C 24.6123 8.49673 0.01423
C 24.57289 7.14432 -0.00285
C 25.80816 6.40564 -0.009
C 25.79713 5.0386 -0.01199
C 24.6343 4.20886 -0.00229
C 24.61546 29.8163 -0.0055
C 2.48626 32.65626 -0.00112
