388
Graphene
C 0.01384 0.03371 0.01295
C 9.89643 4.23356 -0.02162
C 9.78437 2.90262 0.00415
C 11.06719 2.17385 -0.0014
C 11.09282 0.70181 0.02162
C 9.88484 0.03852 0.0076
C 12.31373 32.6801 0.01241
C 13.47533 31.90726 -0.01454
C 13.48341 30.51217 0.01945
C 12.26357 29.73426 0.01416
C 11.07344 4.94696 0.01363
C 12.34684 28.42469 0.03542
C 13.58697 26.22433 0.00244
C 12.33402 25.54019 -0.01717
C 12.36449 24.12261 0.05265
C 13.48341 23.42771 -0.01952
C 13.51877 22.03549 -0.02813
C 12.3209 21.19862 0.00374
C 12.19868 19.83616 0.00052
C 12.36812 16.98566 -0.03682
C 12.28601 15.60738 0.01965
C 13.51799 27.72509 0.02299
C 13.52813 14.83025 0.02058
C 11.03387 6.43781 0.01877
C 9.76403 8.58066 0.00444
C 9.85658 29.86505 0.00572
C 9.84849 28.43663 0.03592
C 11.07824 27.71673 0.00406
C 11.08332 26.27346 0.00943
C 9.80952 25.58226 0.02841
C 9.8455 24.13856 -0.01111
C 11.10347 23.47405 -0.01275
C 11.08158 22.10318 0.00985
C 9.82326 21.31022 -0.02245
C 9.81663 7.17684 -0.00925
C 9.83831 19.83567 -0.00428
C 11.09034 17.72484 -0.01536
C 9.86401 17.06604 -0.02689
C 9.93422 15.62136 -0.01046
C 11.06595 14.8521 -0.00891
C 11.06602 13.51629 0.02819
C 9.85955 12.75283 0.00165
C 9.77517 11.3585 -0.02971
C 11.08432 10.64505 0.02894
C 11.14012 9.24762 -0.01789
C 11.06007 19.18096 0.03101
C 13.54197 13.50653 -0.01957
C 12.25899 12.8681 -0.0108
C 12.28895 11.39207 -0.00368
C 15.96338 6.2958 -0.00109
C 15.97652 4.91059 -0.00491
C 14.75045 4.29286 0.03338
C 14.7568 2.81397 -0.0258
C 15.94987 2.14688 -0.0331
C 15.94774 0.74625 -0.00316
C 14.76256 34.0626 0.02188
C 17.27581 32.73254 -0.01979
C 18.46643 31.93269 0.02691
C 14.76946 7.10265 0.03698
C 18.45854 30.53344 -0.01581
C 17.22644 28.32205 0.04892
C 17.12505 12.80997 -0.00111
C 17.20151 11.33706 -0.03557
C 18.48554 10.60786 0.03754
C 18.47783 9.17938 0.01739
C 17.20853 8.53951 0.00755
C 17.17058 7.08199 -0.0054
C 18.41472 6.40226 0.00667
C 18.38647 5.01042 0.00143
C 17.21221 29.84531 0.01452
C 14.76407 8.53436 -0.02213
C 16.03618 9.20084 0.00028
C 15.99966 10.64499 -0.00289
C 13.53729 10.65819 -0.02696
C 13.5387 9.25782 -0.00114
C 12.34095 8.55059 0.00228
C 12.28676 7.11461 0.00798
C 13.51423 6.35863 0.00422
C 13.4924 4.93351 0.0351
C 12.28651 4.23947 -0.03113
C 12.33664 2.85345 0.02098
C 13.50955 2.11987 0.01848
C 13.49817 0.72047 -0.00619
C 12.26038 0.02908 -0.02162
C 14.73985 32.65064 0.00889
C 15.92561 31.96482 -0.00481
C 15.9754 30.55443 0.00979
C 14.79562 29.80779 0.01443
C 14.74278 28.37857 0.03505
C 16.00285 27.62902 -0.02815
C 14.73285 25.56452 -0.04147
C 16.03199 13.44655 -0.05302
C 14.71095 12.75514 0.00213
C 14.77978 11.33003 -0.00066
C 11.11797 30.54574 0.0402
C 17.18711 4.30333 -0.017
C 11.08904 31.91098 -0.02759
C 7.34285 0.03067 -0.00033
C 3.69104 4.98837 0.0086
C 2.46944 4.30455 -0.00643
C 2.47726 2.80134 0.017
C 3.67786 2.14055 -0.03113
C 3.65783 0.73322 -0.02566
C 2.43417 34.07608 -0.00094
C 4.91887 32.65297 0.02322
C 6.15133 31.98947 -0.00725
C 6.16703 30.49381 -0.05697
C 3.70084 6.42484 -0.00518
C 4.93879 29.84101 0.01087
C 6.15569 27.71364 0.00988
C 6.06951 26.35596 0.0276
C 4.92856 25.59692 0.01305
C 4.90476 24.13936 -0.00077
C 6.11385 23.42963 0.03368
C 6.1236 22.03722 -0.02929
C 4.95803 21.25937 -0.00966
C 4.95628 19.89294 -0.03337
C 6.12709 19.16953 0.01227
C 4.98698 28.37818 -0.01343
C 6.18625 17.75412 0.00873
C 2.39236 7.07322 -0.00074
C 3.66813 9.32191 -0.03996
C 3.70065 30.52448 0.04505
C 2.48771 29.78223 0.03284
C 2.42822 28.39688 -0.04307
C 3.73048 27.66335 0.03189
C 3.66069 26.23128 0.00031
C 2.49676 25.54889 -0.003
C 2.355 24.1109 0.01402
C 3.65498 23.52534 0.02379
C 3.65934 22.07894 0.00907
C 2.4396 8.529 0.01465
C 2.487 21.35802 0.00643
C 3.69352 19.09958 0.03267
C 3.75226 17.76364 0.02374
C 2.51233 17.08515 0.00402
C 2.46612 15.66396 0.0073
C 3.66872 14.90164 0.0174
C 3.64284 13.42947 0.03828
C 2.43872 12.75587 0.01226
C 2.46692 11.37234 -0.00279
C 3.6981 10.63966 0.01996
C 2.46193 19.91156 -0.01509
C 4.94867 17.09466 -0.00049
C 4.87899 15.62349 0.00848
C 6.19758 14.90368 -0.01303
C 7.42299 21.30165 0.00488
C 7.37401 19.9319 -0.01004
C 8.55238 19.0946 -0.02896
C 8.59135 17.73878 -0.00131
C 7.35379 17.04469 -0.01118
C 7.33237 15.5686 -0.014
C 8.61552 14.91563 0.02147
C 8.60142 13.5273 0.00373
C 7.36316 12.82988 -0.00191
C 8.63344 21.94744 0.01745
C 7.37022 11.40084 0.00438
C 8.60019 9.26658 0.00093
C 7.41609 8.54272 0.00057
C 7.36921 7.09695 -0.01634
C 8.62876 6.40786 -0.00334
C 8.65839 5.01755 0.02339
C 7.3872 4.28237 0.01641
C 7.35609 2.89397 -0.00719
C 8.63853 2.14457 0.01364
C 8.63201 0.77834 -0.01062
C 8.59501 10.68915 0.01291
C 8.64001 23.46289 0.03693
C 7.32778 24.21032 -0.01384
C 7.33254 25.60297 -0.00482
C 6.16688 13.52392 -0.01378
C 4.86421 12.78688 0.02635
C 4.93941 11.3995 0.0127
C 6.1726 10.64432 0.01396
C 6.17792 9.22468 0.01849
C 4.90916 8.57081 -0.01142
C 4.89375 7.14589 -0.00562
C 6.16384 6.38246 -0.00494
C 6.09611 4.95617 0.00054
C 4.87972 4.28088 0.03007
C 4.9146 2.80519 -0.00095
C 6.15884 2.12398 0.01572
C 6.07876 0.75851 -0.04848
C 4.88108 0.00682 -0.00892
C 7.41083 32.72731 -0.01362
C 8.61129 31.92544 -0.0008
C 8.60593 30.55564 0.0288
C 7.33931 29.82727 0.00393
C 7.39066 28.41658 0.00895
C 8.58096 27.74046 0.00685
C 8.52325 26.26873 0.02888
C 9.7854 32.66422 0.03589
C 17.19505 2.80813 0.00364
C 18.45438 2.18513 -0.00831
C 18.38717 0.72918 -0.02957
C 30.7539 5.02134 0.07705
C 29.50695 4.23033 0.0103
C 29.50852 2.83516 0.02108
C 30.73973 2.14682 0.00716
C 30.7884 0.69742 0.00307
C 29.53532 0.0349 0.00346
C 31.94549 32.63292 0.01713
C 33.18767 31.95229 -0.01694
C 33.19583 30.52744 0.01428
C 30.69553 6.46063 0.01908
C 32.02416 29.79778 -0.02142
C 33.21877 27.64724 0.00026
C 33.25101 26.23945 0.00682
C 31.9576 25.58257 -0.01779
C 31.97639 24.1713 0.03794
C 33.22756 23.42818 0.01927
C 33.19801 21.99551 0.01574
C 31.98103 21.29187 -0.02383
C 31.96091 19.91175 -0.01429
C 33.25323 19.22266 -0.0136
C 31.99457 28.31729 0.0544
C 33.23339 17.73335 0.00594
C 29.52433 7.1179 0.01518
C 30.73335 9.28116 -0.03735
C 30.7491 30.46858 0.01324
C 29.46311 29.82148 0.0014
C 29.56459 28.34325 0.00924
C 30.72203 27.62704 0.02326
C 30.69076 26.27304 0.00261
C 29.4742 25.50771 0.03265
C 29.47615 24.13541 -0.02049
C 30.73635 23.44678 -0.01854
C 30.76963 21.97915 -0.01415
C 29.53694 8.51834 -0.00971
C 29.5358 21.34132 -0.03039
C 30.79887 19.14011 0.03531
C 30.74845 17.66718 -0.00669
C 29.5167 17.03386 0.0101
C 29.55502 15.58822 0.01705
C 30.7378 14.90315 -0.0405
C 30.75227 13.48054 -0.01303
C 29.50646 12.7984 -0.01461
C 29.50408 11.37352 -0.02155
C 30.76826 10.71285 -0.00944
C 29.5057 19.87133 0.01836
C 32.0189 17.08727 -0.02474
C 31.95958 15.63194 0.00369
C 33.21768 14.89283 0.00455
C 34.42589 21.29179 -0.02213
C 0.04996 19.92708 0.01951
C 1.26766 19.17226 -0.01678
C 1.21046 17.70142 0.01223
C 34.4253 17.0496 0.00648
C 0.00068 15.62437 0.02114
C 1.25712 14.96698 -0.02957
C 1.18872 13.41918 0.00343
C 34.40358 12.74211 -0.02656
C 1.20195 22.02283 0.02712
C 0.04024 11.35805 -0.02442
C 1.16545 9.19313 -0.00583
C 34.36548 8.53447 -0.02302
C 34.41096 7.06348 -0.02849
C 1.18391 6.3673 0.02931
C 1.21373 4.90035 0.00628
C 34.42759 4.29687 -0.0345
C 0.01305 2.86988 -0.00931
C 1.24995 2.13648 -0.00939
C 1.2435 0.70131 -0.00468
C 1.1744 10.63694 -0.00027
C 1.15553 23.45569 0.00723
C 34.42545 24.1738 0.03076
C 0.03809 25.53287 -0.05239
C 33.21868 13.46576 -0.00644
C 31.93359 12.8204 -0.01839
C 31.97321 11.38233 0.00137
C 33.17864 10.70735 0.00199
C 33.15795 9.25512 0.04381
C 31.94034 8.52549 0.02806
C 31.96464 7.15039 0.01504
C 33.20699 6.396 -0.00069
C 33.21858 4.97624 0.04926
C 31.95315 4.24607 -0.03838
C 31.95528 2.84291 0.00349
C 33.18422 2.1438 -0.00323
C 33.18739 0.76733 -0.00841
C 31.9808 34.02348 0.0001
C 34.42639 32.63707 -0.02927
C 1.18588 31.94734 -0.01404
C 1.23275 30.54694 0.01027
C 0.03534 29.81938 0.01831
C 34.3733 28.353 -0.01037
C 1.19125 27.67231 -0.00439
C 1.25829 26.27293 -0.00598
C 30.73307 31.8838 0.04266
C 29.47369 32.67626 0.01177
C 27.08655 34.02401 -0.00416
C 28.29737 0.69738 0.01699
C 22.17037 12.76567 0.01852
C 22.13858 11.34562 -0.00381
C 23.39831 10.58404 0.03046
C 23.35257 9.20426 0.0296
C 22.08948 8.49367 0.03374
C 22.15478 7.09275 -0.02845
C 23.41107 6.37793 -0.03213
C 23.35353 5.02509 0.02239
C 22.0727 4.25579 0.01153
C 23.31918 26.24523 0.01126
C 22.12014 2.76339 0.02734
C 23.32117 0.73237 0.01515
C 22.1579 34.05748 -0.00225
C 24.60534 32.67908 0.00071
C 25.72585 31.94916 -0.01107
C 25.76965 30.47025 -0.01586
C 24.59462 29.81039 -0.01971
C 24.585 28.38357 -0.02118
C 25.83846 27.64176 0.00733
C 25.86415 26.21366 -0.00178
C 23.39407 2.12089 -0.0055
C 23.31748 27.66921 -0.01185
C 22.13582 28.34793 -0.01662
C 22.09932 29.76921 -0.00478
C 17.1876 0.04986 -0.04422
C 19.72569 32.6302 0.00654
C 20.97524 31.89 -0.00703
C 20.89907 30.48827 -0.04076
C 19.69004 29.7937 -0.00652
C 19.70305 28.41783 0.0058
C 19.67988 11.31468 -0.00865
C 20.9407 10.67271 0.00675
C 20.87022 9.22128 -0.00311
C 19.68649 8.52066 0.00742
C 19.73559 7.06282 -0.01594
C 20.97602 6.39372 0.0106
C 20.93445 5.00545 -0.01154
C 19.67011 4.29906 -0.01721
C 19.70099 2.77629 -0.02422
C 20.87881 2.1111 0.01277
C 20.91294 0.70932 0.00096
C 19.63622 0.06291 -0.01527
C 22.11761 32.63633 0.01087
C 23.37158 31.96431 0.00199
C 23.32711 30.55284 0.01511
C 24.55327 25.54093 0.00768
C 3.73133 31.95685 -0.04999
C 24.59774 24.22782 -0.0276
C 25.80728 21.95207 -0.04078
C 28.33377 22.06575 -0.0032
C 27.06901 21.2858 0.00622
C 27.12122 19.83941 -0.02815
C 28.21628 19.1212 -0.00942
C 28.29498 17.75851 0.00487
C 27.03538 17.01825 0.00826
C 27.16402 15.68168 -0.00294
C 28.2717 14.92994 0.00152
C 28.27845 13.48246 0.01257
C 28.28711 23.4066 -0.00037
C 26.97263 12.76968 0.02316
C 28.23033 10.6661 0.00194
C 28.24155 9.234 -0.00621
C 27.02662 8.51781 0.02611
C 27.08098 7.06588 0.02198
C 28.21655 6.34063 0.01094
C 28.27835 4.96478 0.00235
C 27.01818 4.26685 0.01495
C 27.02025 2.81877 0.01259
C 28.24957 2.14958 0.01799
C 27.04503 11.35706 0.04185
C 27.05514 24.13006 -0.01654
C 27.04787 25.5777 -0.00218
C 28.30315 26.19741 -0.00802
C 25.852 14.92042 0.02117
C 25.81036 13.49943 0.02737
C 24.61065 12.78979 -0.00498
C 24.68737 11.46186 0.00135
C 25.83325 10.64418 0.03102
C 25.77472 9.15908 0.02555
C 24.57773 8.48493 0.01423
C 24.59548 7.12406 -0.00285
C 25.78858 6.40734 -0.009
C 25.82711 4.94365 -0.01199
C 24.63066 4.316 -0.00229
C 24.62954 2.8788 -0.00938
C 25.81121 2.14741 -0.0264
C 25.81854 0.6657 -0.01154
C 24.58341 0.05029 0.00684
C 27.05095 32.63095 -0.01052
C 28.26008 31.92257 -0.01679
C 28.25511 30.51239 0.00367
C 27.05732 29.80165 0.04306
C 27.02346 28.39078 0.00996
C 28.29637 27.68161 0.00195
C 25.81368 23.40218 0.03005
C 2.46934 32.70175 -0.03291
