387
Graphene
C 34.43217 0.04676 0.01295
C 9.90927 4.26612 0.00415
C 9.80341 2.91153 -0.0014
C 11.04481 2.17367 0.02162
C 11.074 0.72274 0.0076
C 9.8646 0.04776 0.01241
C 12.2905 32.69 -0.01454
C 13.49242 31.91449 0.01945
C 13.44851 30.48725 0.01416
C 12.27861 29.72215 0.03542
C 11.06227 4.97394 -0.02162
C 12.3376 28.39582 0.02299
C 13.5878 26.2197 -0.01717
C 12.34585 25.53036 0.05265
C 12.34249 24.14089 -0.01952
C 13.49513 23.46128 -0.02813
C 13.54408 21.95439 0.00374
C 12.30249 21.22686 0.00052
C 12.23907 19.79673 -0.03682
C 13.57686 19.06791 0.01965
C 13.46591 17.7021 0.02058
C 13.54404 27.70477 0.00244
C 12.2878 16.9817 -0.01957
C 10.99099 6.4318 0.01363
C 9.774 8.61286 -0.00925
C 9.87293 29.87723 0.03592
C 9.87061 28.43862 0.00406
C 11.11452 27.73394 0.00943
C 11.09519 26.26978 0.02841
C 9.80288 25.61797 -0.01111
C 9.85589 24.12734 -0.01275
C 11.09302 23.47791 0.00985
C 11.06668 22.09359 -0.02245
C 9.83435 21.29553 -0.00428
C 9.81144 7.2173 0.01877
C 9.83326 19.80027 0.03101
C 11.10498 17.75442 -0.02689
C 9.88287 17.04144 -0.01046
C 9.93057 15.6264 -0.00891
C 11.07694 14.8616 0.02819
C 11.05759 13.48029 0.00165
C 9.85047 12.74586 -0.02971
C 9.78193 11.35713 0.02894
C 11.10314 10.63477 -0.01789
C 11.15801 9.23988 0.00444
C 11.07289 19.17479 -0.01536
C 12.3114 15.62122 -0.0108
C 13.50594 15.0184 -0.00368
C 13.50082 13.56627 -0.02696
C 15.94518 17.68516 -0.00491
C 14.73959 16.99417 0.03338
C 14.75858 15.65818 -0.0258
C 15.99953 14.89945 -0.0331
C 15.94694 13.47263 -0.00316
C 14.71833 12.80212 0.02188
C 14.79018 11.36061 -0.01979
C 16.06352 10.69905 0.02691
C 15.99951 9.20393 -0.01581
C 16.00728 19.1605 -0.00109
C 14.75506 8.52721 0.01452
C 16.01913 6.32778 -0.00111
C 15.94688 4.97638 -0.03557
C 14.72646 4.19374 0.03754
C 14.75229 2.77823 0.01739
C 16.02233 2.10058 0.00755
C 15.9466 0.73346 -0.0054
C 14.6983 0.01373 0.00667
C 17.16326 32.65539 0.00143
C 18.46434 32.12159 -0.017
C 14.75524 7.1358 0.04892
C 14.77239 19.85762 0.03698
C 14.7883 21.26494 -0.02213
C 16.03708 22.055 0.00028
C 12.30525 12.83564 -0.00114
C 12.31149 11.40828 0.00228
C 13.57628 10.69159 0.00798
C 13.53907 9.22279 0.00422
C 12.30564 8.45972 0.0351
C 12.27328 7.04768 -0.03113
C 13.52722 6.37337 0.02098
C 13.57473 4.99359 0.01848
C 12.27505 4.27739 -0.00619
C 12.24918 2.87027 -0.02162
C 13.46864 2.14642 0.00889
C 13.47235 0.7075 -0.00481
C 12.25596 34.06143 0.00979
C 14.73311 32.66612 0.01443
C 16.01983 31.90297 0.03505
C 15.93052 30.54008 -0.02815
C 14.77566 29.72334 -0.04147
C 14.66018 28.37348 -0.05302
C 14.75635 25.50963 0.00213
C 14.74487 24.12426 -0.00066
C 15.97764 23.4109 -0.00289
C 11.12443 30.53384 0.00572
C 17.19388 21.3635 0.00364
C 11.09906 31.9047 0.0402
C 7.35025 0.07108 0.03589
C 3.66576 5.02147 -0.00643
C 2.46697 4.2814 0.017
C 2.46758 2.81183 -0.03113
C 3.66432 2.1356 -0.02566
C 3.61652 0.72834 -0.00094
C 2.43958 34.05851 0.02322
C 4.88434 32.68047 -0.00725
C 6.17679 32.02953 -0.05697
C 6.15911 30.50378 0.01087
C 3.66729 6.42471 0.0086
C 4.9447 29.83833 -0.01343
C 6.19093 27.72186 0.0276
C 6.05755 26.37028 0.01305
C 4.92337 25.59952 -0.00077
C 4.91802 24.14622 0.03368
C 6.0991 23.45653 -0.02929
C 6.09537 22.02718 -0.00966
C 4.94805 21.27683 -0.03337
C 4.9924 19.88116 0.01227
C 6.14626 19.1687 0.00873
C 4.99443 28.39755 0.00988
C 6.15768 17.77852 -0.00049
C 2.37663 7.07096 -0.00518
C 3.63644 9.30924 0.01465
C 3.70046 30.49283 0.03284
C 2.4865 29.78422 -0.04307
C 2.44058 28.40018 0.03189
C 3.73922 27.68019 0.00031
C 3.66725 26.22831 -0.003
C 2.49455 25.52649 0.01402
C 2.34095 24.10759 0.02379
C 3.63442 23.52967 0.00907
C 3.64949 22.09687 0.00643
C 2.41161 8.53334 -0.00074
C 2.48226 21.37248 -0.01509
C 3.71635 19.10506 0.02374
C 3.72853 17.77112 0.00402
C 2.50411 17.10309 0.0073
C 2.46951 15.68409 0.0174
C 3.67739 14.89708 0.03828
C 3.59422 13.44844 0.01226
C 2.43779 12.72361 -0.00279
C 2.47343 11.35929 0.01996
C 3.71176 10.66848 -0.03996
C 2.49376 19.91782 0.03267
C 4.967 17.09024 0.00848
C 4.85605 15.63175 -0.01303
C 6.17202 14.86535 -0.01378
C 7.43606 21.3301 -0.01004
C 7.41738 19.91735 -0.02896
C 8.56129 19.03881 -0.00131
C 8.57148 17.70236 -0.01118
C 7.34123 17.02131 -0.014
C 7.35299 15.58523 0.02147
C 8.63972 14.93414 0.00373
C 8.62054 13.5228 -0.00191
C 7.34861 12.84018 0.00438
C 8.63722 21.96704 0.00488
C 7.37975 11.41371 0.01291
C 8.57682 9.31265 0.00057
C 7.41698 8.53752 -0.01634
C 7.37085 7.1021 -0.00334
C 8.63011 6.41917 0.02339
C 8.6649 5.02276 0.01641
C 7.35881 4.29672 -0.00719
C 7.34675 2.89141 0.01364
C 8.62397 2.14512 -0.01062
C 8.63213 0.79507 -0.00033
C 8.54861 10.69615 0.00093
C 8.64889 23.50649 0.01745
C 7.32285 24.2253 0.03693
C 7.29099 25.6494 -0.01384
C 6.15714 13.52042 0.02635
C 4.85757 12.77211 0.0127
C 4.93633 11.40463 0.01396
C 6.16047 10.645 0.01849
C 6.15493 9.21854 -0.01142
C 4.89619 8.59303 -0.00562
C 4.90923 7.18863 -0.00494
C 6.16102 6.39949 0.00054
C 6.08451 4.98009 0.03007
C 4.8401 4.29473 -0.00095
C 4.91312 2.81001 0.01572
C 6.1585 2.1465 -0.04848
C 6.04746 0.76385 -0.00892
C 4.85505 0.02549 -0.01362
C 7.44106 32.73137 -0.0008
C 8.61145 31.93971 0.0288
C 8.58069 30.53807 0.00393
C 7.33515 29.82065 0.00895
C 7.38406 28.41611 0.00685
C 8.57895 27.75402 0.02888
C 8.49229 26.27985 -0.00482
C 9.80879 32.67265 -0.02759
C 3.6604 31.86383 0.04505
C 17.27493 20.00532 -0.00831
C 18.37437 17.78568 -0.04422
C 30.73472 5.03048 0.07705
C 29.52442 4.25344 0.0103
C 29.49674 2.8091 0.02108
C 30.74266 2.1608 0.00716
C 30.79989 0.71099 0.00307
C 29.55842 0.0315 0.00346
C 31.96389 32.61805 0.01713
C 33.16513 31.94752 -0.01694
C 33.20375 30.5296 0.01428
C 30.68835 6.46615 0.01908
C 32.01426 29.78611 -0.02142
C 33.20465 27.59498 0.00026
C 33.28725 26.22148 0.00682
C 31.95341 25.61891 -0.01779
C 31.98804 24.15967 0.03794
C 33.20129 23.45153 0.01927
C 33.18832 22.0052 0.01574
C 31.95745 21.28078 -0.02383
C 31.97405 19.90452 -0.01429
C 33.27554 19.23639 -0.0136
C 31.97497 28.30034 0.0544
C 33.27448 17.75677 0.00594
C 29.48327 7.13529 0.01518
C 30.7268 9.26779 -0.03735
C 30.73861 31.86251 0.01324
C 30.72498 30.50679 0.0014
C 29.51891 29.70327 0.00924
C 29.46176 28.32783 0.02326
C 30.67409 27.64498 0.00261
C 30.68868 26.18237 0.03265
C 29.47838 24.17055 -0.02049
C 30.7033 23.47564 -0.01854
C 30.75259 21.95293 -0.01415
C 29.5447 8.54212 -0.00971
C 29.54065 21.30699 -0.03039
C 30.81508 19.13272 0.03531
C 30.7472 17.67336 -0.00669
C 29.53387 17.02128 0.0101
C 29.56198 15.6046 0.01705
C 30.71915 14.88932 -0.0405
C 30.73449 13.49102 -0.01303
C 29.51084 12.78573 -0.01461
C 29.47003 11.38879 -0.02155
C 30.75054 10.76348 -0.00944
C 29.48721 19.90273 0.01836
C 32.02861 17.06577 -0.02474
C 31.95143 15.66296 0.00369
C 33.20758 14.90254 0.00455
C 34.43226 21.30953 -0.02213
C 0.08477 19.92389 0.01951
C 1.2752 19.15393 -0.01678
C 1.22404 17.71819 0.01223
C 34.41575 17.06467 0.00648
C 0.01548 15.63426 0.02114
C 1.24942 14.98091 -0.02957
C 1.14361 13.41767 0.00343
C 34.38757 12.75796 -0.02656
C 1.20139 22.02415 0.02712
C 0.04911 11.33627 -0.02442
C 1.12111 9.19498 -0.00583
C 34.33149 8.52515 -0.02302
C 34.39869 7.0626 -0.02849
C 1.18317 6.36693 0.02931
C 1.21626 4.91789 0.00628
C 34.41356 4.32189 -0.0345
C 0.00836 2.88436 -0.00931
C 1.23632 2.12191 -0.00939
C 1.21273 0.70034 -0.00468
C 1.20436 10.59197 -0.00027
C 1.12669 23.43791 0.00723
C 34.42267 24.17445 0.03076
C 0.05858 25.51541 -0.05239
C 33.18235 13.47343 -0.00644
C 31.95157 12.82083 -0.01839
C 31.97853 11.44289 0.00137
C 33.19293 10.73155 0.00199
C 33.15098 9.27122 0.04381
C 31.9072 8.56823 0.02806
C 31.97323 7.14623 0.01504
C 33.19104 6.39103 -0.00069
C 33.20849 4.98115 0.04926
C 31.94371 4.26393 -0.03838
C 31.93586 2.81712 0.00349
C 33.18832 2.17969 -0.00323
C 33.19144 0.79196 -0.00841
C 31.98356 34.00693 0.0001
C 34.4136 32.65573 -0.02927
C 1.17928 31.92625 -0.01404
C 1.23243 30.54798 0.01027
C 0.0486 29.81623 0.01831
C 34.36514 28.32561 -0.01037
C 1.17086 27.69532 -0.00439
C 1.25829 26.26111 -0.00598
C 29.51438 32.62458 0.04266
C 18.38851 19.17847 -0.02957
C 27.0856 34.01785 0.01177
C 28.29498 2.11633 0.01699
C 19.72329 11.35361 0.01852
C 20.89057 10.60207 -0.00381
C 20.90976 9.1574 0.03046
C 19.65456 8.46746 0.0296
C 19.65417 7.07917 0.03374
C 20.91815 6.38827 -0.02845
C 20.97885 4.96282 -0.03213
C 19.6811 4.28189 0.02239
C 19.57439 2.84035 0.01153
C 19.60626 12.73425 0.01126
C 20.9229 2.0813 0.02734
C 19.63777 34.06448 0.01515
C 23.43014 17.70996 -0.00225
C 22.16888 17.10138 0.00071
C 22.01432 15.64146 -0.01107
C 23.25706 14.86564 -0.01586
C 23.37308 13.4478 -0.01971
C 22.15095 12.7277 -0.02118
C 22.18873 11.26676 0.00733
C 23.41513 10.62637 -0.00178
C 20.94493 0.6538 -0.0055
C 23.38114 9.21135 0.00768
C 20.91795 13.40028 -0.01185
C 19.65554 15.59825 -0.00478
C 17.18121 17.01962 0.00654
C 17.29816 15.54138 -0.00703
C 18.51898 14.83204 -0.04076
C 18.41171 13.41021 -0.00652
C 17.19357 12.79222 0.0058
C 17.28034 11.39553 -0.00865
C 18.45258 10.62005 0.00675
C 18.49833 9.23283 -0.00311
C 17.19794 8.48812 0.00742
C 20.87586 14.90132 -0.01662
C 17.24888 7.10211 -0.01594
C 18.50179 5.00454 -0.01154
C 17.25282 4.30722 -0.01721
C 17.24294 2.88197 -0.02422
C 18.45524 2.06453 0.01277
C 18.43011 0.69509 0.00096
C 17.21302 34.07569 -0.01527
C 19.48641 32.70779 0.01087
C 20.82368 17.71122 0.00199
C 19.65811 17.08149 0.01511
C 18.4346 6.41253 0.0106
C 22.13028 8.48975 -0.0276
C 22.14921 7.13005 0.03005
C 23.34459 6.45585 -0.04078
C 27.06371 32.64051 -0.0032
C 28.27999 31.96016 0.00622
C 28.39841 30.54607 -0.02815
C 26.96286 19.73099 -0.00942
C 28.22231 19.15321 0.00487
C 28.29287 17.75604 0.00826
C 27.06473 17.01721 -0.00294
C 27.19456 15.69325 0.00152
C 28.30119 14.90998 0.01257
C 24.62844 0.00442 -0.00037
C 28.28873 13.48488 0.02316
C 26.91599 11.37261 0.00194
C 28.18354 10.68107 -0.00621
C 28.2115 9.22747 0.02611
C 27.02929 8.50638 0.02198
C 27.04897 7.0665 0.01094
C 28.215 6.32436 0.00235
C 28.26325 4.95201 0.01495
C 26.99397 4.25366 0.01259
C 27.02211 2.82004 0.01799
C 27.0174 12.80896 0.04185
C 25.81211 0.69685 -0.01654
C 25.79521 2.10468 -0.00218
C 24.58046 2.85866 -0.00802
C 23.38442 4.89797 0.02117
C 22.16292 4.22219 0.02737
C 22.10004 2.78729 -0.00498
C 23.37985 2.15225 0.00135
C 23.46646 0.74729 0.03102
C 22.16154 0.0361 0.02555
C 25.9097 19.12134 0.01423
C 25.7838 17.73222 -0.00285
C 24.56057 17.07213 -0.009
C 24.49887 15.64335 -0.01199
C 25.86774 14.91657 -0.00229
C 25.86358 13.55156 -0.00938
C 24.66456 12.8185 -0.0264
C 24.56591 11.36896 -0.01154
C 25.77877 10.59434 0.00684
C 25.81837 9.2554 -0.01052
C 24.56165 8.51698 -0.01679
C 24.55857 7.07339 0.00367
C 25.76938 6.35081 0.04306
C 25.80647 4.95985 0.00996
C 24.56149 4.24823 0.00195
C 28.30817 0.68907 -0.00416
C 2.46726 32.60599 -0.04999
