440
Graphene
C 0.05705 0.04307 0.01295
C 13.47958 19.24829 -0.01634
C 13.48286 17.80109 -0.00334
C 12.27947 17.07178 0.02339
C 12.33544 15.64892 0.01641
C 13.5623 14.94823 -0.00719
C 13.53045 13.50995 0.01364
C 12.26243 12.72772 -0.01062
C 12.27587 11.33683 -0.00033
C 13.42724 10.52143 0.03589
C 13.46525 9.08763 -0.02759
C 12.40825 4.3322 0.0402
C 12.33948 2.84226 0.00572
C 13.57895 2.05871 0.03592
C 13.55462 0.71217 0.00406
C 12.32554 0.02325 0.00943
C 14.82659 32.64599 0.02841
C 15.9639 31.90127 -0.01111
C 15.97386 30.41472 -0.01275
C 14.70177 29.74912 0.00985
C 14.68176 28.33765 -0.02245
C 15.94878 27.63872 -0.00428
C 15.96305 26.26863 0.03101
C 14.7492 25.55231 -0.01536
C 12.22316 19.97691 0.00057
C 12.27554 21.37685 0.00093
C 13.61937 22.0353 0.01291
C 13.49032 23.44916 0.00438
C 9.80057 15.62653 -0.00095
C 11.13037 14.92044 0.01572
C 11.09174 13.54495 -0.04848
C 9.78747 12.87976 -0.00892
C 9.82565 11.46427 -0.01362
C 11.01228 10.68795 -0.0008
C 11.01957 9.34777 0.0288
C 10.02898 8.40623 0.00393
C 9.86661 6.98068 0.00895
C 11.22369 5.04192 0.00685
C 9.93208 4.3547 0.02888
C 14.76865 24.1602 -0.02689
C 9.8917 2.86228 -0.00482
C 10.97701 0.67344 0.03693
C 9.76609 0.00726 0.01745
C 12.31748 32.68323 0.00488
C 13.58999 31.96534 -0.01004
C 13.61168 30.53132 -0.02896
C 12.2926 29.94689 -0.00131
C 12.22865 28.54827 -0.01118
C 13.4217 27.69346 -0.014
C 13.48104 26.27873 0.02147
C 12.24767 25.58107 0.00373
C 12.29846 24.13291 -0.00191
C 11.08515 2.12764 -0.01384
C 9.85164 17.07665 0.03007
C 15.99806 23.4239 -0.01046
C 14.81574 21.36226 0.02819
C 18.4462 23.45879 0.02058
C 18.51725 22.01713 -0.01957
C 17.28074 21.2666 -0.0108
C 17.24249 19.83054 -0.00368
C 18.44936 19.1378 -0.02696
C 18.38812 17.66462 -0.00114
C 17.11951 16.96109 0.00228
C 17.19747 15.56679 0.00798
C 18.46247 14.8509 0.00422
C 18.36223 13.47399 0.0351
C 17.15687 12.78145 -0.03113
C 17.107 11.36942 0.02098
C 18.36609 10.73614 0.01848
C 18.39314 9.28165 -0.00619
C 17.24189 8.51543 -0.02162
C 17.20744 7.08856 0.00889
C 18.47247 6.3711 -0.00481
C 18.46345 5.00701 0.00979
C 17.21342 4.28283 0.01443
C 17.25437 2.9149 0.03505
C 18.45036 2.12246 -0.02815
C 18.39952 0.67735 -0.04147
C 17.20253 34.02909 -0.05302
C 17.25054 24.18112 0.01965
C 17.17981 25.54666 -0.03682
C 18.48056 26.30067 0.00052
C 18.40413 27.69518 0.00374
C 14.77548 19.89545 0.00165
C 15.97299 19.17293 -0.02971
C 15.93309 17.77417 0.02894
C 14.70885 17.06203 -0.01789
C 14.82801 15.68267 0.00444
C 16.0077 14.8205 -0.00925
C 15.90341 13.41334 0.01877
C 14.66296 12.70578 0.01363
C 14.62809 11.2736 -0.02162
C 15.94183 10.59417 0.00415
C 15.93182 9.17498 -0.0014
C 16.02196 22.04713 -0.00891
C 14.69391 8.59804 0.02162
C 15.87051 5.02607 0.01241
C 14.64401 4.26977 -0.01454
C 14.73967 2.88385 0.01945
C 16.02884 2.14774 0.01416
C 15.99326 0.73865 0.03542
C 14.75076 34.04127 0.02299
C 17.14501 32.62065 0.00244
C 18.39672 31.97551 -0.01717
C 18.37931 30.58815 0.05265
C 17.21206 29.83499 -0.01952
C 17.16887 28.42163 -0.02813
C 16.02137 6.4687 0.0076
C 19.64177 32.67749 0.00213
C 11.03078 17.79891 0.00054
C 9.77463 19.97004 -0.00562
C 3.74229 0.69529 0.04421
C 2.54766 34.05784 0.00088
C 4.92239 32.69756 0.00828
C 6.16884 31.94605 -0.02375
C 6.18429 30.56362 0.00558
C 4.96852 29.76504 -0.0059
C 4.95618 28.39337 -0.01386
C 6.25807 27.65698 -0.02805
C 6.1906 26.23291 0.00081
C 4.89711 25.65292 0.00245
C 4.88915 24.17721 0.02728
C 6.15061 23.45426 -0.00039
C 6.17891 22.03365 0.0064
C 4.98114 21.26814 0.00211
C 4.90205 19.8679 -0.00449
C 6.14912 19.09003 -0.01979
C 6.16053 17.6239 0.02784
C 4.84935 17.08539 -0.01977
C 4.83764 15.6634 -0.00561
C 6.09165 14.99559 0.00208
C 6.06792 13.59208 0.01707
C 4.88063 12.75039 0.02769
C 4.88362 11.35656 -0.03291
C 3.74066 2.17356 -0.00177
C 2.47902 2.89472 0.03278
C 2.47657 4.29373 0.01138
C 3.67894 5.04901 -0.00407
C 3.70206 30.47766 0.01116
C 2.44319 29.76975 -0.0005
C 2.46351 28.3516 -0.00018
C 3.71656 27.71781 0.01073
C 3.65268 26.30082 0.01984
C 2.39042 25.61016 0.00535
C 2.43893 24.17911 -0.00198
C 3.69616 23.41986 -0.00012
C 3.72575 22.03822 -0.04306
C 2.48126 21.34189 -0.03672
C 2.4214 19.83364 0.01913
C 6.13662 10.61628 -0.04999
C 3.66754 19.1645 0.00267
C 2.3661 17.00117 0.02426
C 2.35799 15.53741 0.01218
C 3.65088 14.95485 -0.01471
C 3.71454 13.50569 -0.02827
C 2.46251 12.78015 0.01078
C 2.43302 11.34908 -0.00112
C 3.64524 10.67452 0.03345
C 3.62829 9.2964 0.00748
C 2.46933 8.50844 0.00662
C 2.46273 7.05052 -0.0154
C 3.72182 6.44641 -0.01299
C 3.5506 17.70169 0.00787
C 10.96232 19.28886 -0.00494
C 6.09522 9.26434 0.04505
C 4.92901 7.21222 -0.04307
C 8.59596 10.79584 -0.00725
C 8.67827 9.28334 -0.05697
C 7.44196 8.58176 0.01087
C 7.3713 7.23004 -0.01343
C 8.63506 6.43308 0.00988
C 8.63299 4.98031 0.0276
C 7.32936 4.27861 0.01305
C 7.40029 2.85238 -0.00077
C 8.61196 2.17356 0.03368
C 8.53916 0.77631 -0.02929
C 7.34133 0.09847 -0.00966
C 9.76791 32.67117 -0.03337
C 11.03843 31.99233 0.01227
C 10.99196 30.54101 0.00873
C 9.82702 29.8338 -0.00049
C 9.81977 28.42607 0.00848
C 11.05219 27.77566 -0.01303
C 11.09816 26.34064 -0.01378
C 9.87985 25.58722 0.02635
C 9.85438 24.15987 0.0127
C 11.09001 23.46205 0.01396
C 11.07503 22.04185 0.01849
C 9.79002 21.36384 -0.01142
C 7.3295 11.39952 0.02322
C 7.28281 12.7984 -0.00094
C 8.51222 13.42738 -0.02566
C 8.58879 14.84662 -0.03113
C 6.14928 6.50658 0.03189
C 6.11063 5.0589 0.00031
C 4.88821 4.25766 -0.003
C 4.97456 2.87596 0.01402
C 6.16901 2.17147 0.02379
C 6.12636 0.75954 0.00907
C 4.93845 0.0359 0.00643
C 7.36462 32.74522 -0.01509
C 8.55391 31.98949 0.03267
C 8.59592 30.50157 0.02374
C 7.39974 29.79911 0.00402
C 4.92932 8.59653 0.03284
C 7.45873 28.38118 0.0073
C 8.69023 26.27439 0.03828
C 7.39567 25.55738 0.01226
C 7.40445 24.09007 -0.00279
C 8.59044 23.44127 0.01996
C 8.60266 22.05283 -0.03996
C 7.38811 21.27911 0.01465
C 7.32081 19.856 -0.00074
C 8.5551 19.21984 -0.00518
C 8.58244 17.78996 0.0086
C 7.45385 16.99398 -0.00643
C 7.38751 15.53001 0.017
C 8.66973 27.64148 0.0174
C 20.89776 31.95275 -0.00066
C 20.86158 30.52553 -0.00289
C 19.5913 29.81813 0.00028
C 30.7182 14.78382 -0.0405
C 30.7408 13.36347 -0.01303
C 29.45128 12.74725 -0.01461
C 29.40117 11.33781 -0.02155
C 30.68849 10.69425 -0.00944
C 30.67592 9.1809 -0.03735
C 29.50588 8.46601 -0.00971
C 29.50378 7.03059 0.01518
C 30.80661 6.35128 0.01908
C 30.8273 4.92884 0.07705
C 29.56079 4.24576 0.0103
C 29.51714 2.74432 0.02108
C 30.73813 2.08518 0.00716
C 30.73813 0.67557 0.00307
C 29.50054 34.07941 0.00346
C 31.97244 32.64297 0.01713
C 33.22133 32.02377 -0.01694
C 33.23298 30.57965 0.01428
C 31.95993 29.89463 -0.02142
C 31.95648 28.4507 0.0544
C 33.18221 27.69768 0.00026
C 33.17039 26.3272 0.00682
C 31.99111 25.60057 -0.01779
C 29.62455 15.64201 0.01705
C 29.53756 17.09022 0.0101
C 30.73851 17.73705 -0.00669
C 29.45633 21.37979 0.03531
C 27.04543 12.8789 0.00194
C 27.03548 11.35694 -0.00621
C 28.21156 10.58145 0.02611
C 28.26642 9.14619 0.02198
C 27.04203 8.49845 0.01094
C 27.0781 7.10909 0.00235
C 28.31692 6.33638 0.01495
C 28.22199 4.88006 0.01259
C 26.97497 4.24207 0.01799
C 27.0521 2.81382 0.01699
C 28.27009 2.12557 -0.00416
C 31.99295 24.1436 0.03794
C 28.31018 0.67351 0.01177
C 29.53722 32.64597 0.01324
C 30.71878 31.90481 0.0014
C 30.68122 30.50294 0.00924
C 29.4122 29.8318 0.02326
C 29.54624 28.35238 0.00261
C 30.80564 27.70783 0.03265
C 30.72808 26.30193 -0.02049
C 29.46547 25.58284 -0.01854
C 29.46285 24.18981 -0.01415
C 30.68505 23.50196 -0.03039
C 30.67269 22.0534 0.01836
C 27.0405 0.02141 0.04266
C 28.2673 13.60567 0.04185
C 33.17159 23.41157 0.01927
C 31.8871 21.20679 -0.02383
C 34.40319 24.15236 0.03076
C 1.19938 23.4541 0.00723
C 1.27364 22.0422 0.02712
C 0.04942 21.27963 -0.02213
C 0.01913 19.8719 0.01951
C 1.15562 19.06147 -0.01678
C 1.16274 17.70766 0.01223
C 34.36838 17.03547 0.00648
C 34.42867 15.59766 0.02114
C 1.20042 14.83866 -0.02957
C 1.2234 13.39106 0.00343
C 34.42232 12.74299 -0.02656
C 0.0112 11.30612 -0.02442
C 1.23398 10.588 -0.00027
C 1.23307 9.23307 -0.00583
C 0.01959 8.52281 -0.02302
C 0.01245 7.09572 -0.02849
C 1.2353 6.33111 0.02931
C 1.22627 4.91338 0.00628
C 0.04068 4.18845 -0.0345
C 34.42304 2.76546 -0.00931
C 1.27367 2.12243 -0.00939
C 1.28158 0.72067 -0.00468
C 34.34837 25.53576 -0.05239
C 1.15288 26.27719 -0.00598
C 1.20554 27.68894 -0.00439
C 34.39247 28.36018 -0.01037
C 31.98746 19.82001 -0.01429
C 33.16933 19.14557 -0.0136
C 33.18293 17.71298 0.00594
C 31.9109 16.99086 -0.02474
C 31.96951 15.57649 0.00369
C 33.21343 14.88699 0.00455
C 33.19847 13.44811 -0.00644
C 32.01337 12.66828 -0.01839
C 31.99676 11.31454 0.00137
C 33.22578 10.57859 0.00199
C 33.20916 9.17994 0.04381
C 33.18867 22.00327 0.01574
C 31.92606 8.56664 0.02806
C 33.26513 6.37701 -0.00069
C 33.27876 4.95312 0.04926
C 32.06004 4.19495 -0.03838
C 31.99456 2.74377 0.00349
C 33.19193 2.08136 -0.00323
C 33.21788 0.70404 -0.00841
C 31.95685 34.05053 0.0001
C 0.03082 32.72021 -0.02927
C 1.26318 31.94815 -0.01404
C 1.23435 30.53753 0.01027
C 0.04418 29.82268 0.01831
C 32.01123 7.10444 0.01504
C 28.3876 15.02104 0.02316
C 27.09134 15.59854 0.01257
C 27.03712 17.07344 0.00152
C 22.14758 32.68399 -0.00703
C 23.32927 31.98792 -0.04076
C 23.31834 30.5585 -0.00652
C 22.12544 29.84719 0.0058
C 22.08306 28.41873 -0.00865
C 23.3178 27.71418 0.00675
C 23.40785 26.30074 -0.00311
C 22.12434 25.61313 0.00742
C 22.08913 24.20308 -0.01594
C 23.29538 23.49982 0.0106
C 23.35196 22.00352 -0.01154
C 22.21327 21.26953 -0.01721
C 22.17882 19.89766 -0.02422
C 23.38804 19.16338 0.01277
C 23.39647 17.74063 0.00096
C 22.19668 17.06465 -0.01527
C 22.18411 15.66609 0.01087
C 23.44473 14.87071 0.00199
C 23.39811 13.46147 0.01511
C 22.1128 12.8025 -0.00478
C 22.09446 11.40995 -0.01662
C 23.2526 10.64958 -0.01185
C 23.30206 9.2507 0.01126
C 19.68324 34.04284 0.00654
C 20.9151 0.64316 -0.04422
C 20.8549 2.06555 -0.02957
C 19.60643 2.83525 -0.00831
C 19.58287 28.4165 -0.02213
C 20.83859 27.69132 0.03698
C 20.87382 26.30346 -0.00109
C 19.65665 25.57477 -0.00491
C 19.73645 24.14883 0.03338
C 20.91067 23.38477 -0.0258
C 20.95684 21.96113 -0.0331
C 19.71086 21.20609 -0.00316
C 19.68214 19.83483 0.02188
C 20.91922 19.22941 -0.01979
C 20.92097 17.72723 0.02691
C 22.14743 8.49057 0.01852
C 19.63294 17.00755 -0.01581
C 20.95411 14.95786 0.04892
C 20.86165 13.48933 -0.00111
C 19.64238 12.81337 -0.03557
C 19.60185 11.37134 0.03754
C 20.82209 10.64995 0.01739
C 20.9306 9.23359 0.00755
C 19.64499 8.54874 -0.0054
C 19.66485 7.10466 0.00667
C 20.86982 6.4066 0.00143
C 20.87184 5.01386 -0.017
C 19.6568 4.24535 0.00364
C 19.68239 15.56986 0.01452
C 22.1192 7.09644 -0.00381
C 23.3703 6.39176 0.03046
C 23.36799 4.96112 0.0296
C 24.58634 8.54748 -0.009
C 24.57723 7.13342 -0.01199
C 25.89398 6.40516 -0.00229
C 25.7924 4.98993 -0.00938
C 24.60772 4.27473 -0.0264
C 24.56899 2.85544 -0.01154
C 25.81587 2.10388 0.00684
C 25.81304 0.72907 -0.01052
C 24.57455 34.04649 -0.01679
C 27.04805 32.67718 0.00367
C 28.30924 31.97135 0.04306
C 25.83274 9.17527 -0.00285
C 28.24782 30.61214 0.00996
C 27.08482 28.41132 -0.00802
C 28.26719 27.63096 -0.00218
C 28.25579 26.24256 -0.01654
C 26.98501 25.53995 -0.00037
C 26.93503 24.0934 -0.0032
C 28.25754 23.43391 0.00622
C 28.22657 22.0131 -0.02815
C 26.95574 21.31036 -0.00942
C 27.04038 19.89022 0.00487
C 28.13068 19.09871 0.00826
C 28.29911 17.71256 -0.00294
C 27.08103 29.84254 0.00195
C 3.70894 31.94582 -0.0213
C 25.79389 10.62135 0.01423
C 24.61324 12.76681 0.03102
C 22.13126 4.30613 0.03374
C 22.05915 2.8743 -0.02845
C 23.35055 2.19647 -0.03213
C 23.38792 0.64648 0.02239
C 22.15333 34.06626 0.01153
C 24.66861 32.64806 0.02734
C 25.88624 31.94872 -0.0055
C 25.84912 30.54052 0.01515
C 24.58715 29.85498 -0.00225
C 24.59092 28.42627 0.00071
C 25.81342 27.77138 -0.01107
C 24.54769 11.31612 0.02555
C 25.83747 26.32634 -0.01586
C 24.56034 24.14767 -0.02118
C 25.7598 23.39617 0.00733
C 25.75436 22.04202 -0.00178
C 24.56751 21.33822 0.00768
C 24.55424 19.8738 -0.0276
C 25.78785 19.17424 0.03005
C 25.83514 17.74338 -0.04078
C 24.61238 16.99073 0.02117
C 24.59412 15.59111 0.02737
C 25.84121 14.91289 -0.00498
C 25.82942 13.52094 0.00135
C 24.6067 25.54808 -0.01971
C 2.49213 32.65853 -0.00374
