374
Graphene
C 0.0186 0.02967 0.01295
C 16.06067 27.66466 0.02299
C 15.96369 26.31282 0.00244
C 14.7618 25.5902 -0.01717
C 14.78731 24.10663 0.05265
C 16.01618 23.4433 -0.01952
C 15.99241 22.01507 -0.02813
C 14.71583 21.26209 0.00374
C 14.71265 19.85679 0.00052
C 15.98103 19.10095 -0.03682
C 15.99123 17.71979 0.01965
C 14.80848 17.04561 0.02058
C 16.03929 2.11663 -0.01957
C 16.01031 0.70599 -0.0108
C 14.79867 34.06346 -0.00368
C 17.1927 32.69771 -0.02696
C 18.45497 31.92249 -0.00114
C 18.43992 30.48479 0.00228
C 17.16297 29.78931 0.00798
C 17.24425 28.36641 0.00422
C 14.71181 28.38629 0.03542
C 18.43274 27.69717 0.0351
C 14.75501 29.80562 0.01416
C 15.96719 31.96662 -0.01454
C 12.22403 32.68641 -0.01536
C 13.53277 31.9815 -0.02689
C 13.57099 30.56858 -0.01046
C 12.34842 29.83274 -0.00891
C 12.32258 28.40166 0.02819
C 13.51933 27.71208 0.00165
C 13.54157 26.27615 -0.02971
C 12.31856 25.58215 0.02894
C 12.29848 24.2198 -0.01789
C 13.5013 23.43885 0.00444
C 13.50324 22.06234 -0.00925
C 12.31249 21.25074 0.01877
C 12.32772 19.86731 0.01363
C 13.54946 19.17628 -0.02162
C 13.57128 17.72528 0.00415
C 12.29023 17.00881 -0.0014
C 13.53465 0.73861 0.02162
C 12.31602 34.0446 0.0076
C 14.70067 32.64642 0.01241
C 15.99411 30.52483 0.01945
C 18.5015 26.25257 -0.03113
C 17.21378 25.56519 0.02098
C 17.23827 24.13413 0.01848
C 19.64966 19.97287 0.02691
C 20.8949 19.19729 -0.01581
C 20.89193 17.70098 0.01452
C 19.68683 17.00511 0.04892
C 19.69135 15.66261 -0.00111
C 20.89013 14.85527 -0.03557
C 20.90991 13.50378 0.03754
C 20.91114 10.61485 0.01739
C 20.91013 9.23744 0.00755
C 20.9813 6.43624 -0.0054
C 20.89112 4.95293 0.00667
C 19.71166 4.23947 0.00143
C 19.69182 2.83711 -0.017
C 20.94678 2.12261 0.00364
C 20.87838 0.72229 -0.00831
C 19.6595 34.07876 -0.02957
C 22.15189 32.63459 -0.04422
C 23.38517 31.94795 0.00654
C 23.337 30.54084 -0.00703
C 19.6621 21.30055 -0.01979
C 20.8782 22.02265 0.02188
C 20.82669 23.48435 -0.00316
C 19.65092 24.15969 -0.0331
C 18.43724 23.44729 -0.00619
C 18.46757 21.99988 -0.02162
C 17.22227 21.31294 0.00889
C 17.2055 19.90795 -0.00481
C 18.43392 19.20114 0.00979
C 18.48631 17.77866 0.01443
C 17.22203 17.03057 0.03505
C 18.4508 14.87716 -0.02815
C 17.17949 2.81407 -0.04147
C 9.83329 0.00557 0.03101
C 18.47554 2.17658 -0.05302
C 17.18756 34.0714 -0.00066
C 19.65405 32.67005 -0.00289
C 20.90458 31.96378 0.00028
C 20.91658 30.51397 -0.02213
C 19.62968 29.82527 0.03698
C 19.67223 28.37883 -0.00109
C 20.93909 27.65164 -0.00491
C 20.87232 26.25079 0.03338
C 19.6773 25.5088 -0.0258
C 18.40117 0.68733 0.00213
C 11.05974 0.69865 -0.00428
C 9.79438 17.04515 -0.02245
C 11.09263 17.72404 0.00985
C 3.72694 2.16813 -0.00077
C 3.67076 0.77083 0.03368
C 2.50627 34.03683 -0.02929
C 4.90508 32.67722 -0.00966
C 6.12309 31.96087 -0.03337
C 6.16148 30.57489 0.01227
C 4.95522 29.78284 0.00873
C 4.90301 28.42216 -0.00049
C 6.09245 27.69513 0.00848
C 6.15272 26.2625 -0.01303
C 4.93204 24.18341 -0.01378
C 6.14977 23.4773 0.02635
C 6.16849 21.9816 0.0127
C 4.93128 21.32631 0.01396
C 4.94414 19.91112 0.01849
C 6.17892 19.19085 -0.01142
C 6.09222 17.7889 -0.00562
C 4.94132 17.03014 -0.00494
C 4.92052 15.59526 0.00054
C 2.43408 2.85489 0.01305
C 2.40813 4.30952 0.0276
C 3.70377 4.93338 0.00988
C 3.73893 6.39995 -0.01343
C 3.6864 30.53215 0.0073
C 2.52119 29.79179 0.0174
C 2.45787 28.39466 0.03828
C 2.39431 24.10896 0.01226
C 3.63555 23.55891 -0.00279
C 3.69945 22.02251 0.01996
C 2.48574 21.291 -0.03996
C 2.45704 19.89782 0.01465
C 3.73634 19.16348 -0.00074
C 6.13616 14.84787 0.03007
C 3.74738 17.73677 -0.00518
C 2.38625 15.58353 -0.00643
C 3.66732 14.9898 0.017
C 3.66079 13.52837 -0.03113
C 2.4514 12.79718 -0.02566
C 2.4802 11.40006 -0.00094
C 3.67602 10.56527 0.02322
C 3.7474 9.21119 -0.00725
C 2.48094 8.56241 -0.05697
C 2.45333 7.14421 0.01087
C 2.47608 17.04428 0.0086
C 22.11828 29.76645 -0.04076
C 6.13338 13.45541 -0.00095
C 4.90548 11.35567 -0.04848
C 7.38691 15.59364 0.00057
C 7.40406 2.8723 -0.01634
C 8.61228 2.2086 -0.00334
C 8.58918 0.73826 0.02339
C 7.42709 0.01437 0.01641
C 9.90333 32.66641 -0.00719
C 11.08133 31.99841 0.01364
C 11.05633 30.47689 -0.01062
C 9.82463 29.80848 -0.00033
C 9.78758 28.41196 0.03589
C 11.01791 27.63564 -0.02759
C 11.07134 26.268 0.0402
C 9.81174 25.58483 0.00572
C 9.80017 24.1831 0.03592
C 11.07998 23.3977 0.00406
C 11.04431 22.02338 0.00943
C 9.81073 21.33899 0.02841
C 9.85811 19.89716 -0.01111
C 11.06286 19.19849 -0.01275
C 7.39766 17.03702 0.00093
C 8.62397 17.78729 0.01291
C 8.63142 19.17509 0.00438
C 7.35974 19.93724 -0.00191
C 4.96925 8.46617 -0.00892
C 4.90181 7.16947 -0.01362
C 6.12727 5.02811 -0.0008
C 4.96703 4.30937 0.0288
C 4.89366 2.92169 0.00393
C 6.13819 2.18135 0.00895
C 6.16277 0.73779 0.00685
C 4.87054 34.07245 0.02888
C 7.38531 32.69225 -0.00482
C 4.91885 12.77187 0.01572
C 8.61158 31.91959 -0.01384
C 7.34911 29.84105 0.01745
C 7.33382 28.45149 0.00488
C 8.58332 27.7112 -0.01004
C 8.55032 26.29919 -0.02896
C 7.33904 25.61396 -0.00131
C 7.39497 24.09917 -0.01118
C 8.60935 23.4205 -0.014
C 8.56256 22.05587 0.02147
C 7.35521 21.33019 0.00373
C 8.65234 30.57229 0.03693
C 22.17777 28.36371 -0.00652
C 23.37032 27.6981 0.0058
C 23.32373 26.25508 -0.00865
C 30.7573 2.11685 0.00716
C 30.72765 0.7259 0.00307
C 29.44928 34.06305 0.00346
C 31.91865 32.65714 0.01713
C 33.18215 31.90588 -0.01694
C 33.21354 30.56646 0.01428
C 31.94163 29.80766 -0.02142
C 32.00212 28.42781 0.0544
C 33.21434 27.67657 0.00026
C 33.182 26.27241 0.00682
C 31.96042 25.57183 -0.01779
C 32.01203 24.14817 0.03794
C 33.23851 23.45986 0.01927
C 33.199 21.9855 0.01574
C 31.98778 21.31178 -0.02383
C 31.95965 19.88618 -0.01429
C 33.15811 19.22191 -0.0136
C 33.22391 17.7591 0.00594
C 31.99218 17.00893 -0.02474
C 29.56442 2.82474 0.02108
C 29.49306 4.27091 0.0103
C 30.74312 4.99933 0.07705
C 30.76559 6.40901 0.01908
C 30.75232 27.66283 0.02326
C 30.7166 26.24469 0.00261
C 29.49175 25.55925 0.03265
C 29.54883 24.1305 -0.02049
C 30.75936 23.38278 -0.01854
C 30.77497 21.99969 -0.01415
C 29.55646 21.32686 -0.03039
C 29.51468 19.89461 0.01836
C 30.74383 19.11659 0.03531
C 31.95889 15.61088 0.00369
C 30.79118 17.69064 -0.00669
C 29.4853 15.57335 0.01705
C 30.74586 14.9367 -0.0405
C 30.71914 13.47488 -0.01303
C 29.47231 12.81731 -0.01461
C 29.51647 11.36957 -0.02155
C 30.7598 10.58987 -0.00944
C 30.77044 9.23751 -0.03735
C 29.50576 8.54926 -0.00971
C 29.57149 7.08828 0.01518
C 29.49856 16.97483 0.0101
C 29.5283 28.39066 0.00924
C 33.24953 14.86728 0.00455
C 31.93107 12.77172 -0.01839
C 0.00681 19.86808 0.01951
C 1.23923 19.19196 -0.01678
C 1.21893 17.75144 0.01223
C 0.01707 17.07158 0.00648
C 34.41271 15.61399 0.02114
C 1.25066 14.94693 -0.02957
C 1.19988 13.51993 0.00343
C 0.00744 12.76051 -0.02656
C 34.4123 11.35869 -0.02442
C 1.25453 10.71364 -0.00027
C 1.25762 9.22786 -0.00583
C 34.40029 8.49185 -0.02302
C 34.42052 7.12293 -0.02849
C 1.21869 6.38719 0.02931
C 1.23512 5.0064 0.00628
C 34.39662 4.1703 -0.0345
C 34.40937 2.80565 -0.00931
C 1.24547 2.13599 -0.00939
C 1.31004 0.70702 -0.00468
C 34.37626 21.26764 -0.02213
C 1.16764 22.03028 0.02712
C 1.21739 23.42051 0.00723
C 34.39666 24.14899 0.03076
C 31.95485 11.29446 0.00137
C 33.1849 10.69415 0.00199
C 33.18989 9.27244 0.04381
C 31.98275 8.51459 0.02806
C 31.96388 7.10607 0.01504
C 33.16013 6.37271 -0.00069
C 33.15679 4.9815 0.04926
C 31.97646 4.2827 -0.03838
C 32.00891 2.82658 0.00349
C 33.22797 13.46327 -0.00644
C 33.16808 2.14998 -0.00323
C 31.97749 0.01993 0.0001
C 34.41837 32.70583 -0.02927
C 1.21082 31.97704 -0.01404
C 1.20875 30.52413 0.01027
C 34.42784 29.84819 0.01831
C 0.0157 28.42073 -0.01037
C 1.26268 27.65656 -0.00439
C 1.21418 26.22978 -0.00598
C 34.42366 25.57839 -0.05239
C 33.18843 0.70505 -0.00841
C 3.705 32.00789 0.00402
C 29.52182 29.76553 0.0014
C 30.761 31.90959 0.04266
C 22.08386 34.05977 -0.03213
C 24.60274 32.71894 0.02239
C 25.87146 31.94343 0.01153
C 25.74251 30.46403 0.02734
C 24.5493 29.8061 -0.0055
C 24.60363 28.40975 0.01515
C 25.80066 27.66391 -0.00225
C 25.78145 26.31051 0.00071
C 24.61344 25.51625 -0.01107
C 24.60883 24.12476 -0.01586
C 25.84985 23.45259 -0.01971
C 25.79152 21.99221 -0.02118
C 24.59789 21.25163 0.00733
C 24.57323 19.83489 -0.00178
C 25.77624 19.15936 0.00768
C 25.82868 17.76818 -0.0276
C 24.62597 17.03008 0.03005
C 24.55715 15.64088 -0.04078
C 25.7468 14.92063 0.02117
C 23.30862 0.68045 -0.02845
C 23.36129 2.06356 0.03374
C 22.11957 2.84947 0.0296
C 22.1725 4.23455 0.03046
C 22.16652 25.55649 0.00675
C 22.05003 24.15282 -0.00311
C 23.31788 23.3756 0.00742
C 23.3916 21.96873 -0.01594
C 22.14649 21.27305 0.0106
C 22.16 19.85486 -0.01154
C 23.38462 19.13091 -0.01721
C 23.37062 17.73608 -0.02422
C 22.12078 17.02776 0.01277
C 25.86073 13.45392 0.02737
C 22.07951 15.57212 0.00096
C 23.36514 13.49696 0.01087
C 22.17624 12.72325 0.00199
C 22.18078 11.3198 0.01511
C 23.34806 10.61622 -0.00478
C 23.34308 9.22441 -0.01662
C 22.13002 8.51394 -0.01185
C 22.1589 7.05881 0.01126
C 23.39607 6.37471 0.01852
C 23.3378 4.94849 -0.00381
C 23.34584 14.92703 -0.01527
C 30.77297 30.51428 0.01324
C 24.66881 12.81646 -0.00498
C 25.84813 10.66954 0.03102
C 28.27824 17.76584 0.00487
C 27.06858 16.98088 0.00826
C 27.02608 15.634 -0.00294
C 28.29977 14.91545 0.00152
C 28.26628 13.54569 0.01257
C 27.023 12.76198 0.02316
C 27.0651 11.36677 0.04185
C 28.26925 10.67604 0.00194
C 28.28118 9.23082 -0.00621
C 27.08759 8.54775 0.02611
C 27.04255 7.15152 0.02198
C 28.30163 6.35254 0.01094
C 28.30931 5.01251 0.00235
C 27.0773 4.25447 0.01495
C 27.09788 2.82736 0.01259
C 28.23512 2.09237 0.01799
C 28.29749 0.71777 0.01699
C 27.03922 34.04654 -0.00416
C 29.60578 32.68654 0.01177
C 28.26272 19.18604 -0.00942
C 27.0541 19.85122 -0.02815
C 27.05303 21.27835 0.00622
C 28.2348 22.02378 -0.0032
C 25.75447 9.22321 0.02555
C 24.55447 8.5156 0.01423
C 24.57874 7.08096 -0.00285
C 25.85209 6.35856 -0.009
C 25.76838 4.91431 -0.01199
C 24.57159 4.27862 -0.00229
C 24.57972 2.87144 -0.00938
C 25.79032 2.12064 -0.0264
C 25.81848 0.74432 -0.01154
C 24.59777 11.38484 0.00135
C 24.58511 0.00111 0.00684
C 28.30329 31.94772 -0.01679
C 28.29323 30.47294 0.00367
C 27.08193 29.82693 0.04306
C 27.03761 28.38337 0.00996
C 28.28524 27.69256 0.00195
C 28.35676 26.34146 -0.00802
C 27.06514 25.59711 -0.00218
C 27.01991 24.10569 -0.01654
C 28.27308 23.3949 -0.00037
C 27.05255 32.65655 -0.01052
C 2.44269 32.6885 0.02374
