377
Graphene
C 34.34261 34.03798 0.01295
C 11.08685 6.43829 0.03542
C 11.0833 4.97874 0.02299
C 9.82824 4.28961 0.00244
C 9.85027 2.91425 -0.01717
C 11.09581 2.13369 0.05265
C 11.05684 0.69865 -0.01952
C 9.83328 0.08035 -0.02813
C 12.2479 32.63535 0.00374
C 13.45677 31.96502 0.00052
C 13.4959 30.50621 -0.03682
C 12.23656 29.76599 0.01965
C 12.37215 28.36237 0.02058
C 13.60772 27.64375 -0.01957
C 13.60203 26.19752 -0.0108
C 12.36178 25.52871 -0.00368
C 12.34091 24.18757 -0.02696
C 13.43324 23.26472 -0.00114
C 12.02148 21.19238 0.00228
C 12.45612 19.88123 0.00798
C 9.90112 7.12394 0.01416
C 9.82538 8.52654 0.01945
C 11.03923 9.29442 -0.01454
C 11.04761 10.70245 0.01241
C 11.01042 31.94689 -0.00428
C 11.07865 30.56819 0.03101
C 9.87061 29.93169 -0.01536
C 9.90075 28.51169 -0.02689
C 11.13061 27.76286 -0.01046
C 11.10315 26.3224 -0.00891
C 9.84452 25.65842 0.02819
C 9.79368 24.23477 0.00165
C 11.09305 23.50236 -0.02971
C 12.1469 15.85854 0.00422
C 11.12734 22.08546 0.02894
C 10.05151 19.85602 0.00444
C 11.4053 18.98827 -0.00925
C 11.22934 17.50204 0.01877
C 9.83013 17.00993 0.01363
C 9.80521 15.62708 -0.02162
C 11.038 14.90566 0.00415
C 11.09466 13.52883 -0.0014
C 9.86589 12.80574 0.02162
C 9.789 11.3805 0.0076
C 9.89883 21.33112 -0.01789
C 9.78842 32.73218 -0.02245
C 13.75486 13.38628 0.0351
C 12.29601 11.37881 0.02098
C 14.77212 7.08328 -0.01979
C 15.92191 6.40437 0.02691
C 15.94379 4.91956 -0.01581
C 14.68424 4.22034 0.01452
C 14.71349 2.83131 0.04892
C 15.97542 2.09662 -0.00111
C 15.97253 0.65441 -0.03557
C 14.7322 34.04434 0.03754
C 17.19294 32.62115 0.01739
C 18.42441 31.92321 0.00755
C 18.48359 30.43013 -0.0054
C 17.17136 29.78633 0.00667
C 17.22804 28.3189 0.00143
C 18.49528 27.51313 -0.017
C 18.47211 25.96083 0.00364
C 17.17077 25.43815 -0.00831
C 17.14687 11.28069 -0.02957
C 18.42362 10.78651 -0.04422
C 18.43013 9.2747 0.00654
C 14.73421 8.54908 0.02188
C 15.90918 9.36637 -0.00316
C 15.80178 10.91976 -0.0331
C 14.5731 11.60414 -0.0258
C 13.42266 10.70895 0.01848
C 13.46707 9.29034 -0.00619
C 12.25488 8.54975 -0.02162
C 12.33235 7.11157 0.00889
C 13.51989 6.39529 -0.00481
C 13.48112 4.98564 0.00979
C 12.28514 4.35269 0.01443
C 12.33339 2.85075 0.03505
C 13.54695 2.1031 -0.02815
C 12.36909 12.85792 -0.03113
C 13.52089 0.65825 -0.04147
C 14.70751 32.62185 0.00213
C 15.99732 31.9135 -0.00066
C 15.97299 30.53232 -0.00289
C 14.82459 29.77372 0.00028
C 14.86853 28.30442 -0.02213
C 16.00673 27.61831 0.03698
C 16.03868 26.13939 -0.00109
C 14.8368 25.40429 -0.00491
C 14.52725 24.07538 0.03338
C 12.25217 34.04938 -0.05302
C 7.28845 0.05501 0.00985
C 8.54533 0.78106 -0.01275
C 8.59049 2.11891 -0.01111
C 3.64682 5.00003 0.00988
C 2.40247 4.25563 0.0276
C 2.42101 2.78773 0.01305
C 3.67324 2.13706 -0.00077
C 3.62118 0.74622 0.03368
C 2.41769 0.03177 -0.02929
C 4.88454 32.69858 -0.00966
C 6.08163 31.99939 -0.03337
C 6.17039 30.57331 0.01227
C 4.95824 29.87587 0.00873
C 4.93049 28.37302 -0.00049
C 6.16528 27.76305 0.00848
C 6.18623 26.26522 -0.01303
C 4.89309 25.64039 -0.01378
C 4.86478 24.15136 0.02635
C 6.11648 23.45329 0.0127
C 6.05874 22.01268 0.01396
C 4.86434 21.29313 0.01849
C 5.0076 19.86579 -0.01142
C 3.67075 6.37983 -0.01343
C 2.39218 7.12216 0.01087
C 2.38059 8.48392 -0.05697
C 3.65853 9.28924 -0.00725
C 3.62373 30.48549 0.03267
C 2.38931 29.88091 0.02374
C 2.39787 28.4502 0.00402
C 3.63987 27.71216 0.0073
C 3.70002 26.38204 0.0174
C 2.46634 25.62454 0.03828
C 2.47414 24.09051 0.01226
C 3.58669 23.38004 -0.00279
C 3.64587 21.95736 0.01996
C 6.1951 19.17145 -0.00562
C 2.39798 21.3322 -0.03996
C 3.67385 19.1726 -0.00074
C 3.67935 17.77644 -0.00518
C 2.49184 17.10987 0.0086
C 2.4454 15.67866 -0.00643
C 3.66789 15.02627 0.017
C 3.70297 13.51388 -0.03113
C 2.43874 12.78351 -0.02566
C 2.43977 11.38467 -0.00094
C 3.66437 10.75915 0.02322
C 2.40527 19.91375 0.01465
C 6.1926 17.73727 -0.00494
C 4.86009 17.09001 0.00054
C 4.87746 15.70154 0.03007
C 8.64373 23.44727 0.00438
C 8.66204 21.98915 0.01291
C 7.45217 21.36174 0.00093
C 7.45518 19.91514 0.00057
C 8.72664 19.15339 -0.01634
C 8.6566 17.65254 -0.00334
C 7.44314 17.07276 0.02339
C 7.34459 15.61883 0.01641
C 8.60257 14.86507 -0.00719
C 7.37856 24.20423 -0.00191
C 8.57367 13.46123 0.01364
C 7.33364 11.36958 -0.00033
C 8.55498 10.67337 0.03589
C 8.53605 9.28488 -0.02759
C 7.34753 8.59265 0.0402
C 7.36631 7.11665 0.00572
C 8.5772 6.41053 0.03592
C 8.56415 5.02573 0.00406
C 7.35159 4.26841 0.00943
C 7.38843 2.87333 0.02841
C 7.37972 12.80514 -0.01062
C 17.10769 8.60153 -0.00703
C 7.37542 25.58681 0.00373
C 8.67293 27.77184 -0.014
C 6.09289 14.91585 -0.00095
C 6.14237 13.52834 0.01572
C 4.94494 12.82683 -0.04848
C 4.9239 11.45934 -0.00892
C 6.06194 10.73472 -0.01362
C 6.11555 9.321 -0.0008
C 4.86372 8.56446 0.0288
C 4.87164 7.15877 0.00393
C 6.13746 6.45341 0.00895
C 8.62445 26.33959 0.02147
C 6.14552 5.00548 0.00685
C 4.85397 2.96167 -0.00482
C 6.16379 2.21667 -0.01384
C 6.09774 0.78816 0.03693
C 4.82228 0.03018 0.01745
C 7.2564 32.74416 0.00488
C 8.5098 31.96518 -0.01004
C 8.65716 30.57382 -0.02896
C 7.37126 29.86865 -0.00131
C 7.41698 28.49803 -0.01118
C 4.86635 4.31854 0.02888
C 3.66198 31.93479 -0.01509
C 17.06707 7.18245 -0.04076
C 18.34394 4.9582 0.0058
C 30.65804 6.40525 0.00716
C 30.70794 5.02021 0.00307
C 29.47945 4.31663 0.00346
C 29.4569 2.85143 0.01713
C 30.74894 2.1316 -0.01694
C 30.65845 0.67758 0.01428
C 29.50141 34.07519 -0.02142
C 32.0283 32.74058 0.0544
C 33.17198 32.08474 0.00026
C 33.22746 26.31954 0.00682
C 32.0812 25.56084 -0.01779
C 31.92743 24.27708 0.03794
C 33.16754 23.55296 0.01927
C 33.11765 22.10795 0.01574
C 31.95844 21.295 -0.02383
C 31.92603 19.87726 -0.01429
C 33.16501 19.17465 -0.0136
C 33.15956 17.74732 0.00594
C 31.9832 17.05321 -0.02474
C 29.36808 7.14949 0.02108
C 29.4028 8.5383 0.0103
C 30.70854 9.25211 0.07705
C 30.74719 10.68228 0.01908
C 28.17323 6.3804 0.02326
C 28.19217 4.99424 0.00261
C 27.0545 4.30394 0.03265
C 27.08233 2.83104 -0.02049
C 28.28902 2.06576 -0.01854
C 28.25922 0.61001 -0.01415
C 27.01979 0.05523 -0.03039
C 29.52475 24.245 0.01836
C 30.66681 23.55951 0.03531
C 32.03307 15.65855 0.00369
C 30.70216 22.03891 -0.00669
C 29.49637 19.89465 0.01705
C 30.78438 19.15992 -0.0405
C 30.77795 17.75347 -0.01303
C 29.55807 17.0941 -0.01461
C 29.58394 15.60627 -0.02155
C 30.81234 14.81682 -0.00944
C 30.75899 13.46775 -0.03735
C 29.53029 12.78452 -0.00971
C 29.47994 11.31505 0.01518
C 29.44083 21.33782 0.0101
C 26.93081 7.07575 0.00924
C 33.23635 14.9991 0.00455
C 32.02432 12.77188 -0.01839
C 34.35884 19.85753 0.01951
C 1.18188 19.17338 -0.01678
C 1.23404 17.76477 0.01223
C 0.03022 17.02923 0.00648
C 0.05312 15.66169 0.02114
C 1.28202 14.97813 -0.02957
C 1.26647 13.5975 0.00343
C 0.02628 12.78612 -0.02656
C 0.00275 11.4036 -0.02442
C 1.28097 10.71479 -0.00027
C 1.26065 9.20754 -0.00583
C 34.42033 8.52651 -0.02302
C 34.37958 7.08218 -0.02849
C 1.19594 6.40788 0.02931
C 1.24729 4.95395 0.00628
C 34.39813 4.23186 -0.0345
C 34.32694 2.82019 -0.00931
C 1.19998 2.10539 -0.00939
C 1.19986 0.65948 -0.00468
C 34.30135 21.32911 -0.02213
C 1.10557 22.00808 0.02712
C 1.17224 23.49207 0.00723
C 34.40223 24.20378 0.03076
C 32.00298 11.33041 0.00137
C 33.20764 10.65525 0.00199
C 33.15179 9.24922 0.04381
C 31.94759 8.48139 0.02806
C 31.9102 7.06349 0.01504
C 33.15207 6.38802 -0.00069
C 33.12437 5.0368 0.04926
C 31.89887 4.30047 -0.03838
C 31.94954 2.87122 0.00349
C 33.26084 13.54062 -0.00644
C 33.11093 2.10537 -0.00323
C 31.88651 0.02821 0.0001
C 34.41676 32.64582 -0.02927
C 1.21169 31.94146 -0.01404
C 1.19105 30.56074 0.01027
C 0.18868 29.75564 0.01831
C 34.38392 28.45152 -0.01037
C 1.11682 27.70898 -0.00439
C 1.26905 26.33169 -0.00598
C 0.04688 25.60578 -0.05239
C 33.11656 0.76697 -0.00841
C 26.96072 8.51374 0.0014
C 28.21737 9.23225 0.01324
C 28.24765 10.60701 0.04266
C 19.75399 34.0113 -0.02845
C 22.12935 32.5686 -0.03213
C 23.32591 31.93323 0.02239
C 23.29469 30.48573 0.01153
C 22.12295 29.77914 0.02734
C 22.19436 28.33196 -0.0055
C 23.33639 27.62648 0.01515
C 23.37485 26.17432 -0.00225
C 22.15664 25.39321 0.00071
C 22.33194 24.08305 -0.01107
C 23.423 23.32894 -0.01586
C 22.17929 11.32943 -0.01971
C 23.33515 10.58175 -0.02118
C 23.3782 9.20815 0.00733
C 22.11352 8.53119 -0.00178
C 22.04189 7.06919 0.00768
C 23.27461 6.32203 -0.0276
C 23.30345 4.92511 0.03005
C 22.03035 4.24728 -0.04078
C 20.97013 0.657 0.03374
C 20.90298 2.11171 0.0296
C 19.65243 2.85272 0.03046
C 19.64168 4.26968 -0.00381
C 17.16302 4.19063 -0.00865
C 17.21423 2.72471 0.00675
C 18.47986 2.07659 -0.00311
C 18.52419 0.68986 0.00742
C 17.22801 0.01796 -0.01594
C 19.70642 32.58462 0.0106
C 20.88195 31.81283 -0.01154
C 20.89516 30.41604 -0.01721
C 19.67285 29.70148 -0.02422
C 22.12399 2.80649 0.02117
C 19.70289 28.26683 0.01277
C 20.94284 26.1564 -0.01527
C 19.76593 25.55523 0.01087
C 19.6891 11.2626 0.00199
C 20.91266 10.70475 0.01511
C 20.88498 9.27751 -0.00478
C 19.59182 8.52908 -0.01662
C 19.56511 7.10955 -0.01185
C 20.83043 6.40284 0.01126
C 20.76211 4.99081 0.01852
C 20.92671 27.5638 0.00096
C 23.38848 2.06656 0.02737
C 23.34713 0.66221 -0.00498
C 22.1443 34.06329 0.00135
C 24.54446 4.2807 -0.00942
C 24.56254 2.86152 0.00487
C 25.85236 2.13132 0.00826
C 25.82788 0.74784 -0.00294
C 24.5413 34.05746 0.00152
C 26.85945 32.72136 0.01257
C 27.04809 25.60095 0.02316
C 26.99935 24.16585 0.04185
C 28.31018 23.46883 0.00194
C 25.81094 4.91767 -0.02815
C 28.24972 22.04164 -0.00621
C 27.09245 19.96222 0.02198
C 28.26411 19.16043 0.01094
C 28.35004 17.72722 0.00235
C 27.02491 16.91058 0.01495
C 27.0921 15.55258 0.01259
C 28.2684 14.87978 0.01799
C 28.32993 13.46995 0.01699
C 27.00837 12.83306 -0.00416
C 26.94635 11.40188 0.01177
C 27.15727 21.35899 0.02611
C 18.3352 6.44459 -0.00652
C 25.74266 6.28857 0.00622
C 24.55275 8.38581 -0.00037
C 24.49729 32.66254 0.03102
C 25.9113 31.81891 0.02555
C 25.70565 30.40327 0.01423
C 24.47362 29.78329 -0.00285
C 24.48422 28.42086 -0.009
C 25.71989 27.73377 -0.01199
C 25.92565 26.4299 -0.00229
C 24.65685 25.50453 -0.00938
C 24.56265 24.06802 -0.0264
C 24.48643 7.0235 -0.0032
C 25.81499 23.45682 -0.01154
C 24.60277 21.35101 -0.01052
C 25.89888 19.3214 -0.01679
C 26.11981 17.99488 0.00367
C 25.92704 14.83778 0.04306
C 25.66016 13.54607 0.00996
C 24.49487 12.69171 0.00195
C 24.55829 11.29534 -0.00802
C 25.80507 10.59533 -0.00218
C 25.75362 9.19532 -0.01654
C 25.77289 22.01934 0.00684
C 2.41958 32.65958 0.00643
