445
Graphene
C 0.02109 0.02763 0.01295
C 13.56144 17.74276 0.01291
C 12.26826 17.09753 0.00093
C 12.29678 15.64849 0.00057
C 13.54931 14.90487 -0.01634
C 13.59592 13.54002 -0.00334
C 12.33633 12.81369 0.02339
C 12.26813 11.34878 0.01641
C 13.50972 10.64371 -0.00719
C 13.50266 9.15269 0.01364
C 12.29288 8.5305 -0.01062
C 12.33876 7.13282 -0.00033
C 13.54611 6.35746 0.03589
C 13.55188 4.94998 -0.02759
C 12.33834 4.25057 0.0402
C 12.26054 2.91414 0.00572
C 13.51163 2.12255 0.03592
C 13.51848 0.65153 0.00406
C 12.23449 34.04258 0.00943
C 14.79358 32.60609 0.02841
C 15.93708 31.93784 -0.01111
C 15.96446 30.58417 -0.01275
C 14.77374 29.79028 0.00985
C 14.71943 28.44958 -0.02245
C 13.48194 19.22217 0.00438
C 12.32279 19.93472 -0.00191
C 12.33221 21.32878 0.00373
C 13.5467 22.03193 0.02147
C 11.08792 13.47284 -0.00494
C 9.84099 12.78173 0.00054
C 9.8465 11.34145 0.03007
C 11.09393 10.66446 -0.00095
C 11.05622 9.30674 0.01572
C 9.79378 8.52705 -0.04848
C 9.81825 7.14706 -0.00892
C 11.07024 6.34754 -0.01362
C 11.07998 4.97794 -0.0008
C 9.87754 4.28673 0.0288
C 9.91687 2.8497 0.00393
C 15.94555 27.6511 -0.00428
C 11.06468 2.16914 0.00895
C 9.85378 34.0388 0.02888
C 12.23176 32.63926 -0.00482
C 13.53098 31.92165 -0.01384
C 13.60389 30.5258 0.03693
C 12.29318 29.8331 0.01745
C 12.28729 28.42459 0.00488
C 13.46409 27.78603 -0.01004
C 13.49853 26.32294 -0.02896
C 12.28946 25.52133 -0.00131
C 12.30256 24.09808 -0.01118
C 13.52915 23.4703 -0.014
C 11.06455 0.69664 0.00685
C 15.95108 26.28101 0.03101
C 14.72645 25.57568 -0.01536
C 14.7668 24.11896 -0.02689
C 18.48048 27.74627 0.00052
C 18.46544 26.251 -0.03682
C 17.24063 25.56605 0.01965
C 17.23444 24.12259 0.02058
C 18.47201 23.38689 -0.01957
C 18.39704 22.01446 -0.0108
C 17.20777 21.27587 -0.00368
C 17.23982 19.81945 -0.02696
C 18.47642 19.13963 -0.00114
C 18.43162 17.79013 0.00228
C 17.17185 17.03736 0.00798
C 17.1791 28.39889 0.00374
C 17.1314 15.67363 0.00422
C 18.42484 13.50208 -0.03113
C 17.19865 12.77763 0.02098
C 17.24535 11.3167 0.01848
C 18.46692 10.65305 -0.00619
C 18.45279 9.26466 -0.02162
C 17.21453 8.56592 0.00889
C 17.2364 7.12787 -0.00481
C 18.43499 6.39586 0.00979
C 18.45924 4.94117 0.01443
C 17.1848 4.21889 0.03505
C 17.20147 2.82986 -0.02815
C 18.48094 14.9155 0.0351
C 11.04034 14.89567 -0.00562
C 17.17305 29.82466 -0.02813
C 18.41156 31.95258 0.05265
C 15.99945 23.43122 -0.01046
C 15.96789 22.00921 -0.00891
C 14.7715 21.31968 0.02819
C 14.80048 19.87754 0.00165
C 15.97008 19.16174 -0.02971
C 15.96887 17.69588 0.02894
C 14.71433 17.03326 -0.01789
C 14.75824 15.60252 0.00444
C 15.93577 14.89403 -0.00925
C 16.01344 13.4727 0.01877
C 14.82069 12.78886 0.01363
C 18.40695 30.55792 -0.01952
C 14.78058 11.31391 -0.02162
C 15.96638 9.24806 -0.0014
C 14.7488 8.53189 0.02162
C 14.76664 7.12514 0.0076
C 15.99764 6.33135 0.01241
C 15.97245 4.96398 -0.01454
C 14.72262 4.28927 0.01945
C 14.71092 2.86203 0.01416
C 15.97015 2.13956 0.03542
C 16.00862 0.758 0.02299
C 14.78783 34.0314 0.00244
C 17.22975 32.68619 -0.01717
C 15.99201 10.66383 0.00415
C 9.86115 15.64019 -0.01142
C 9.80002 17.11512 0.01849
C 11.08644 17.77796 0.01396
C 3.68042 0.67465 -0.01299
C 2.45674 34.073 -0.00407
C 4.91563 32.67671 0.01138
C 6.21534 31.88982 0.03278
C 6.19619 30.53242 -0.00177
C 4.89612 29.81818 0.04421
C 4.98209 28.3826 0.00088
C 6.16198 27.69369 0.00828
C 6.0898 26.28027 -0.02375
C 4.90313 25.63646 0.00558
C 4.92009 24.15612 -0.0059
C 3.70459 2.09632 -0.0154
C 6.15373 23.44183 -0.01386
C 4.96415 21.28242 0.00081
C 4.90427 19.84249 0.00245
C 6.19653 19.1521 0.02728
C 6.05314 17.71339 -0.00039
C 4.87842 17.09729 0.0064
C 4.88771 15.64447 0.00211
C 6.1446 14.90631 -0.00449
C 6.19683 13.50178 -0.01979
C 4.90671 12.71121 0.02784
C 4.93726 11.36739 -0.01977
C 6.1654 10.67997 -0.00561
C 6.139 22.03423 -0.02805
C 6.14917 9.2387 0.00208
C 2.42503 2.76442 0.00662
C 3.69005 4.93049 0.03345
C 3.7154 30.53808 -0.02419
C 2.47128 29.79008 -0.03951
C 2.46396 28.42369 -0.00141
C 3.69642 27.73696 -0.00374
C 3.6606 26.26835 -0.0213
C 2.51905 25.55875 0.01116
C 2.52288 24.14715 -0.0005
C 3.70468 23.46469 -0.00018
C 3.65508 21.90314 0.01073
C 2.43869 21.2711 0.01984
C 2.43032 19.88648 0.00535
C 2.42349 4.17182 0.00748
C 3.70051 19.17105 -0.00198
C 2.452 17.05094 -0.04306
C 2.43302 15.6293 -0.03672
C 3.71436 14.86495 0.01913
C 3.67741 13.51598 0.00267
C 2.44786 12.83086 0.00787
C 2.47187 11.38699 0.02426
C 3.68213 10.64739 0.01218
C 3.69601 9.22831 -0.01471
C 2.48334 8.5486 -0.02827
C 2.45537 7.09823 0.01078
C 3.6686 6.42097 -0.00112
C 3.72359 17.76526 -0.00012
C 18.46456 2.18799 -0.04147
C 4.9227 8.56158 0.01707
C 6.20492 6.41688 -0.03291
C 8.57185 9.30391 -0.03113
C 7.36488 8.55984 -0.02566
C 7.39253 7.11875 -0.00094
C 8.5406 6.3708 0.02322
C 8.62912 4.98127 -0.00725
C 7.39547 4.25398 -0.05697
C 7.38996 2.83562 0.01087
C 8.59245 2.1676 -0.01343
C 8.57204 0.7578 0.00988
C 7.37149 0.03289 0.0276
C 9.7773 32.65962 0.01305
C 8.56349 10.70381 0.017
C 11.04938 31.93632 -0.00077
C 9.87169 29.80163 -0.02929
C 9.79182 28.4488 -0.00966
C 11.0237 27.71213 -0.03337
C 11.11716 26.33012 0.01227
C 9.88083 25.53514 0.00873
C 9.84039 24.15549 -0.00049
C 11.02274 23.4166 0.00848
C 11.09461 22.01727 -0.01303
C 9.82402 21.35771 -0.01378
C 9.76583 19.88354 0.02635
C 11.03177 19.19128 0.0127
C 11.04881 30.49079 0.03368
C 4.94816 7.17078 0.02769
C 7.32704 11.36098 -0.00643
C 8.64056 13.52851 -0.00518
C 6.16432 4.93797 -0.04999
C 4.92839 4.24369 0.04505
C 4.90324 2.84269 0.03284
C 6.17029 2.1167 -0.04307
C 6.14745 0.74122 0.03189
C 4.90188 34.05981 0.00031
C 7.36501 32.68924 -0.003
C 8.57296 31.96852 0.01402
C 8.55812 30.59737 0.02379
C 7.42355 29.83571 0.00907
C 7.38899 28.37347 0.00643
C 7.45654 12.75748 0.0086
C 8.58398 27.71588 -0.01509
C 7.37968 25.59774 0.02374
C 7.42203 24.14944 0.00402
C 8.60657 23.42574 0.0073
C 8.59207 22.0021 0.0174
C 7.34716 21.31906 0.03828
C 7.4199 19.91676 0.01226
C 8.59036 19.12351 -0.00279
C 8.63535 17.73207 0.01996
C 7.388 17.05727 -0.03996
C 7.38113 15.65507 0.01465
C 8.6197 14.87769 -0.00074
C 8.57937 26.28001 0.03267
C 3.74384 31.93132 0.02438
C 18.41076 0.69209 -0.05302
C 19.64106 32.66841 -0.00066
C 30.7281 17.72339 0.01705
C 29.49881 17.07142 -0.0405
C 29.50541 15.63852 -0.01303
C 30.74472 14.85866 -0.01461
C 30.78358 13.49617 -0.02155
C 30.76121 10.65835 -0.00944
C 30.79893 9.25075 -0.03735
C 29.49488 8.46798 -0.00971
C 29.52451 7.09805 0.01518
C 30.785 6.3799 0.01908
C 30.71908 4.96754 0.07705
C 29.51126 4.24089 0.0103
C 29.51237 2.85414 0.02108
C 30.73113 2.13297 0.00716
C 30.76965 0.75744 0.00307
C 29.50072 34.06968 0.00346
C 31.99254 32.70102 0.01713
C 33.1714 31.97493 -0.01694
C 33.20304 30.53753 0.01428
C 31.98024 29.80115 -0.02142
C 32.03138 28.43323 0.0544
C 33.24604 27.69422 0.00026
C 33.1652 26.23925 0.00682
C 30.73571 19.19105 0.0101
C 29.52016 19.88194 -0.00669
C 29.53627 21.33661 0.03531
C 30.71712 21.92965 0.01836
C 28.26314 14.86637 0.04185
C 28.28948 13.50126 0.00194
C 27.13581 12.77552 -0.00621
C 27.00051 11.3252 0.02611
C 28.2218 9.23553 0.02198
C 27.06313 8.48986 0.01094
C 27.04626 7.09848 0.00235
C 28.27096 6.34287 0.01495
C 28.28121 5.0238 0.01259
C 27.06034 4.29417 0.01799
C 27.04678 2.82846 0.01699
C 31.96957 25.53392 -0.01779
C 28.24449 2.09775 -0.00416
C 27.02543 34.07509 0.04266
C 29.51412 32.67353 0.01324
C 30.77763 31.89942 0.0014
C 30.75502 30.50171 0.00924
C 29.49114 29.84199 0.02326
C 29.5055 28.41436 0.00261
C 30.73421 27.72255 0.03265
C 30.721 26.25024 -0.02049
C 29.48431 25.56132 -0.01854
C 29.51553 24.18801 -0.01415
C 30.77937 23.44021 -0.03039
C 28.28062 0.70829 0.01177
C 31.96802 24.1182 0.03794
C 33.20071 23.40943 0.01927
C 33.19488 22.0121 0.01574
C 34.4161 25.64563 -0.05239
C 34.43142 24.10566 0.03076
C 1.23031 23.42145 0.00723
C 1.16448 22.01433 0.02712
C 34.42306 21.31886 -0.02213
C 0.0343 19.88774 0.01951
C 1.18028 19.12642 -0.01678
C 1.19794 17.73464 0.01223
C 0.0133 17.018 0.00648
C 34.41443 15.56723 0.02114
C 1.19305 14.92537 -0.02957
C 1.26855 26.23612 -0.00598
C 1.23851 13.49547 0.00343
C 0.01318 11.37627 -0.02442
C 1.19987 10.65883 -0.00027
C 1.24157 9.17859 -0.00583
C 34.4103 8.50196 -0.02302
C 34.39756 7.08911 -0.02849
C 1.2262 6.37034 0.02931
C 1.26535 4.92177 0.00628
C 34.42308 4.26894 -0.0345
C 34.37034 2.82806 -0.00931
C 1.18311 2.10986 -0.00939
C 1.2515 0.65357 -0.00468
C 34.40677 12.77081 -0.02656
C 27.08316 15.597 0.02316
C 1.26488 27.66532 -0.00439
C 34.34945 29.82694 0.01831
C 31.93853 21.24978 -0.02383
C 31.98965 19.87323 -0.01429
C 33.20919 19.15816 -0.0136
C 33.22681 17.71701 0.00594
C 32.01234 17.00195 -0.02474
C 32.02248 15.58759 0.00369
C 33.20261 14.88614 0.00455
C 33.23623 13.41964 -0.00644
C 31.91799 12.75252 -0.01839
C 31.93858 11.35841 0.00137
C 33.22661 10.59671 0.00199
C 0.07657 28.37955 -0.01037
C 33.16301 9.19815 0.04381
C 31.96 7.10369 0.01504
C 33.20563 6.40071 -0.00069
C 33.20736 4.95398 0.04926
C 32.0117 4.28006 -0.03838
C 31.94869 2.84904 0.00349
C 33.19687 2.13566 -0.00323
C 33.24394 0.68798 -0.00841
C 32.0258 0.01567 0.0001
C 0.0222 32.69268 -0.02927
C 1.24091 31.9953 -0.01404
C 1.25944 30.46028 0.01027
C 31.96298 8.52095 0.02806
C 27.08512 17.05828 0.01257
C 28.26525 17.80483 0.00152
C 28.24653 19.18095 -0.00294
C 20.90691 2.16569 -0.04422
C 20.86578 0.75315 0.00654
C 19.65046 34.0542 -0.00703
C 22.17569 32.67351 -0.04076
C 23.37288 32.01324 -0.00652
C 23.35854 30.50168 0.0058
C 22.16751 29.85707 -0.00865
C 22.18197 28.40164 0.00675
C 23.41028 27.66823 -0.00311
C 23.31086 26.23432 0.00742
C 22.18147 25.55023 -0.01594
C 19.66534 2.83453 -0.02957
C 22.26163 24.16248 0.0106
C 23.31683 22.03953 -0.01721
C 22.11444 21.29185 -0.02422
C 22.14086 19.865 0.01277
C 23.27059 19.16157 0.00096
C 23.29034 17.7585 -0.01527
C 22.10434 17.01508 0.01087
C 22.12107 15.60318 0.00199
C 23.39367 14.87012 0.01511
C 23.28546 13.44785 -0.00478
C 22.11404 12.77759 -0.01662
C 22.09371 11.36709 -0.01185
C 23.33716 23.41124 -0.01154
C 23.35186 10.65438 0.01126
C 19.68895 4.27827 -0.00831
C 20.91238 6.37276 -0.017
C 20.89888 31.95941 -0.00289
C 20.94428 30.46189 0.00028
C 19.7141 29.81522 -0.02213
C 19.66712 28.38534 0.03698
C 20.90736 27.65634 -0.00109
C 20.97961 26.30522 -0.00491
C 19.6759 25.56078 0.03338
C 19.64507 24.08777 -0.0258
C 20.89564 23.40639 -0.0331
C 20.8726 22.05343 -0.00316
C 19.62875 21.32594 0.02188
C 20.919 4.96953 0.00364
C 19.7359 19.91544 -0.01979
C 20.93648 17.76796 -0.01581
C 19.664 17.05527 0.01452
C 19.66293 15.5606 0.04892
C 20.91496 14.94308 -0.00111
C 20.90268 13.48766 -0.03557
C 19.65648 12.76197 0.03754
C 19.65866 11.33358 0.01739
C 20.89586 10.61697 0.00755
C 20.89076 9.21124 -0.0054
C 19.68076 8.52083 0.00667
C 19.69905 7.06898 0.00143
C 20.90895 19.23801 0.02691
C 17.25652 0.02506 0.00213
C 23.3233 9.20923 0.01852
C 22.15158 7.06097 0.03046
C 25.85322 10.66085 -0.00285
C 25.83085 9.26574 -0.009
C 24.62285 8.48274 -0.01199
C 24.573 7.07125 -0.00229
C 25.90792 6.41071 -0.00938
C 25.79618 5.03074 -0.0264
C 24.62376 4.28505 -0.01154
C 24.60001 2.87965 0.00684
C 25.81651 2.08237 -0.01052
C 25.85465 0.63535 -0.01679
C 24.54624 34.05926 0.00367
C 24.64501 11.35005 0.01423
C 27.05462 32.64527 0.04306
C 28.24247 30.55264 0.00195
C 27.04539 29.82822 -0.00802
C 27.02626 28.42675 -0.00218
C 28.2922 27.68275 -0.01654
C 28.23556 26.19983 -0.00037
C 27.03405 25.55879 -0.0032
C 27.04241 24.16062 0.00622
C 28.29955 23.46262 -0.02815
C 28.26661 21.92163 -0.00942
C 27.06719 21.28835 0.00487
C 27.0341 19.92755 0.00826
C 28.26311 31.95287 0.00996
C 22.13157 8.54346 -0.00381
C 24.59409 12.73752 0.02555
C 25.84813 14.88924 0.00135
C 23.3786 6.37165 0.0296
C 23.36102 4.95426 0.03374
C 22.14108 4.22704 -0.02845
C 22.16166 2.85427 -0.03213
C 23.36629 2.15961 0.02239
C 23.38457 0.74817 0.01153
C 22.08399 34.05685 0.02734
C 24.55768 32.70187 -0.0055
C 25.80078 31.93103 0.01515
C 25.75525 30.53032 -0.00225
C 24.53105 29.84092 0.00071
C 25.8093 13.48346 0.03102
C 24.6264 28.45483 -0.01107
C 25.8057 26.26206 -0.01971
C 24.59555 25.58557 -0.02118
C 24.56555 24.11903 0.00733
C 25.83831 23.36069 -0.00178
C 25.79802 22.02145 0.00768
C 24.56582 21.35461 -0.0276
C 24.62539 19.89369 0.03005
C 25.86229 19.16494 -0.04078
C 25.85696 17.7786 0.02117
C 24.595 17.02311 0.02737
C 24.70068 15.61705 -0.00498
C 25.88454 27.62877 -0.01586
C 2.53083 32.73635 0.00297
