354
Graphene
C 0.00241 0.03104 0.01295
C 17.35366 32.59894 -0.02696
C 18.40061 32.07379 -0.00114
C 18.56258 19.27185 0.00228
C 18.42069 17.75319 0.00798
C 17.29134 17.07611 0.00422
C 17.2197 15.68262 0.0351
C 18.38951 14.87206 -0.03113
C 18.39828 13.441 0.02098
C 14.74806 33.92725 -0.00368
C 17.21662 12.73945 0.01848
C 18.5305 10.65161 -0.02162
C 18.48432 9.19989 0.00889
C 17.26746 8.48396 -0.00481
C 17.26878 7.09205 0.00979
C 18.43219 6.44913 0.01443
C 18.44894 4.94829 0.03505
C 17.22255 4.17888 -0.02815
C 17.14808 2.78211 -0.04147
C 17.27869 11.26919 -0.00619
C 18.3851 2.08766 -0.05302
C 15.94361 0.71445 -0.0108
C 14.76032 2.81411 0.02058
C 13.46707 5.02283 -0.0014
C 12.21684 4.31985 0.02162
C 12.31669 2.90615 0.0076
C 13.56371 2.14228 0.01241
C 13.5621 0.66123 -0.01454
C 12.33759 0.06725 0.01945
C 14.78535 15.64902 0.01416
C 15.99876 14.95347 0.03542
C 16.00148 2.13653 -0.01957
C 15.99886 13.5532 0.02299
C 14.72563 11.35149 -0.01717
C 15.97088 10.692 0.05265
C 16.01184 9.16986 -0.01952
C 14.77211 8.49215 -0.02813
C 14.77572 7.10523 0.00374
C 16.08487 6.35772 0.00052
C 15.96048 4.88711 -0.03682
C 14.72932 4.28933 0.01965
C 14.79036 12.77137 0.00244
C 13.46931 6.38922 0.00415
C 18.45752 0.67698 0.00213
C 19.76617 32.64525 -0.00289
C 19.65546 4.29183 0.00143
C 19.65387 2.88356 -0.017
C 20.84678 2.21731 0.00364
C 20.86767 0.77277 -0.00831
C 19.67162 34.02052 -0.02957
C 22.13622 32.63003 -0.04422
C 23.40653 32.00963 0.00654
C 23.3591 30.5207 -0.00703
C 20.86804 5.00096 0.00667
C 22.11081 29.83296 -0.04076
C 23.4009 27.67214 0.0058
C 23.44172 26.32351 -0.00865
C 22.14101 25.50803 0.00675
C 22.14845 24.12254 -0.00311
C 23.36885 23.38869 0.00742
C 23.35624 21.97893 -0.01594
C 22.05155 21.28971 0.0106
C 22.10133 19.84597 -0.01154
C 22.12397 28.33693 -0.00652
C 17.21082 34.01701 -0.00066
C 20.88394 6.42773 -0.0054
C 19.64192 8.51685 0.01739
C 20.88254 31.96971 0.00028
C 20.78682 30.56334 -0.02213
C 19.65975 29.90977 0.03698
C 20.91736 27.5767 -0.00109
C 20.97807 26.3251 -0.00491
C 20.94455 23.31863 0.03338
C 20.94902 22.14384 -0.0258
C 19.58151 19.8763 -0.0331
C 19.72645 7.13554 0.00755
C 20.88769 19.20674 -0.00316
C 19.67261 16.98217 -0.01979
C 19.62158 15.54022 0.02691
C 20.87757 14.9029 -0.01581
C 20.95837 13.50647 0.01452
C 19.65713 12.80662 0.04892
C 19.64579 11.38419 -0.00111
C 20.8731 10.6707 -0.03557
C 20.87739 9.20387 0.03754
C 20.82848 17.76855 0.02188
C 12.24532 7.12432 -0.02162
C 12.32995 8.50518 0.01363
C 13.51476 9.22222 0.01877
C 2.47075 2.78021 0.00054
C 3.67498 2.09218 0.03007
C 3.6746 0.6741 -0.00095
C 2.40818 34.04593 0.01572
C 4.99196 32.63223 -0.04848
C 6.23105 32.01775 -0.00892
C 6.18434 17.76148 -0.01362
C 4.91727 17.01627 -0.0008
C 2.43386 4.25188 -0.00494
C 4.9161 15.64147 0.0288
C 6.17768 13.56196 0.00895
C 4.95622 12.71868 0.00685
C 4.88938 11.37394 0.02888
C 6.10181 10.66671 -0.00482
C 6.12807 9.26147 -0.01384
C 4.90592 8.52063 0.03693
C 4.92427 7.15615 0.01745
C 6.18124 6.37288 0.00488
C 6.17239 14.98389 0.00393
C 6.15735 5.00799 -0.01004
C 3.65921 5.00478 -0.00562
C 2.36429 7.11958 0.01849
C 3.68115 30.61398 -0.01343
C 2.50995 29.76131 0.00988
C 2.36653 28.40793 0.0276
C 2.3798 25.46036 0.01305
C 2.48405 24.22 -0.00077
C 2.5031 21.33501 0.03368
C 2.50557 19.9023 -0.02929
C 3.79419 19.10918 -0.00966
C 3.667 6.3997 -0.01142
C 3.64015 17.75983 -0.03337
C 2.41437 15.7267 0.00873
C 3.68917 14.93622 -0.00049
C 3.74636 13.47631 0.00848
C 2.45537 12.80341 -0.01303
C 2.51211 11.33614 -0.01378
C 3.65778 10.60373 0.02635
C 3.71972 9.18235 0.0127
C 2.37382 8.50667 0.01396
C 2.38918 17.15913 0.01227
C 4.86423 4.30279 -0.02896
C 4.89166 2.85572 -0.00131
C 6.17208 2.19464 -0.01118
C 9.83694 11.26706 0.02841
C 11.09546 10.67528 -0.01111
C 11.12617 9.25827 -0.01275
C 9.8771 8.58741 0.00985
C 9.85174 7.13644 -0.02245
C 11.01137 6.33529 -0.00428
C 11.01358 4.95411 0.03101
C 9.84774 4.28067 -0.01536
C 9.84365 12.74168 0.00943
C 9.81385 2.86152 -0.02689
C 11.07666 0.72061 -0.00891
C 9.79892 0.04249 0.02819
C 12.36792 15.57354 0.00165
C 13.60144 14.95786 -0.02971
C 13.57033 13.50484 0.02894
C 12.25059 12.68266 -0.01789
C 12.27348 11.33616 0.00444
C 13.47685 10.65846 -0.00925
C 11.00419 2.10153 -0.01046
C 11.05278 13.46788 0.00406
C 11.0628 15.02566 0.03592
C 9.78931 15.6433 0.00572
C 6.21724 0.63764 -0.014
C 4.89873 0.01183 0.02147
C 7.21884 17.15373 0.00373
C 7.45045 15.69569 -0.00191
C 8.59668 14.92499 0.00438
C 8.65377 13.48075 0.01291
C 7.39754 12.83036 0.00093
C 7.34779 11.39131 0.00057
C 8.56825 10.68451 -0.01634
C 8.65104 9.25651 -0.00334
C 7.39454 8.59324 0.02339
C 7.38095 7.1584 0.01641
C 8.61878 6.49071 -0.00719
C 8.57296 5.08899 0.01364
C 7.33364 4.33466 -0.01062
C 7.39402 2.90231 -0.00033
C 8.53362 2.15203 0.03589
C 8.61587 0.71214 -0.02759
C 7.36065 34.04555 0.0402
C 23.34888 19.15707 -0.01721
C 23.32376 17.77793 -0.02422
C 22.06385 17.10039 0.01277
C 22.13334 15.65974 0.00096
C 31.90516 32.66013 0.01713
C 33.10054 31.97616 -0.01694
C 33.185 30.51098 0.01428
C 31.98995 29.82375 -0.02142
C 31.92446 28.45666 0.0544
C 33.16443 27.72616 0.00026
C 33.25604 26.34786 0.00682
C 32.00407 25.50981 -0.01779
C 29.51423 0.02789 0.00346
C 31.92266 24.09201 0.03794
C 33.20392 22.01042 0.01574
C 31.9284 21.35151 -0.02383
C 31.86524 19.90053 -0.01429
C 33.13342 19.17741 -0.0136
C 33.17911 17.70051 0.00594
C 31.939 17.07673 -0.02474
C 31.9514 15.64963 0.00369
C 33.1947 14.93605 0.00455
C 33.19192 23.39807 0.01927
C 33.19877 13.47103 -0.00644
C 30.74644 0.73699 0.00307
C 29.54645 2.83508 0.02108
C 30.78048 22.05846 -0.01415
C 29.51088 21.27883 -0.03039
C 29.49048 19.89735 0.01836
C 30.69891 19.17649 0.03531
C 30.67367 17.81753 -0.00669
C 29.55402 17.00483 0.0101
C 29.54686 15.55624 0.01705
C 30.79535 14.86243 -0.0405
C 30.72979 2.15081 0.00716
C 30.7529 13.5105 -0.01303
C 29.53807 11.37678 -0.02155
C 30.71547 10.65377 -0.00944
C 30.74362 9.1758 -0.03735
C 29.50139 8.56948 -0.00971
C 29.5613 7.15563 0.01518
C 30.74172 6.29574 0.01908
C 30.78688 4.92186 0.07705
C 29.58108 4.27069 0.0103
C 29.53893 12.81147 -0.01461
C 31.98193 12.71691 -0.01839
C 31.9245 11.35769 0.00137
C 33.24221 10.63972 0.00199
C 1.17726 19.11215 -0.01678
C 1.15025 17.77506 0.01223
C 34.36973 17.0278 0.00648
C 34.40122 15.63612 0.02114
C 1.22188 14.94029 -0.02957
C 1.2537 13.43831 0.00343
C 0.04034 12.78724 -0.02656
C 0.00378 11.35775 -0.02442
C 0.04407 19.87145 0.01951
C 1.24062 10.6096 -0.00027
C 0.03543 8.54167 -0.02302
C 0.02759 7.08645 -0.02849
C 1.19971 6.36465 0.02931
C 1.23749 4.92109 0.00628
C 34.4169 4.27078 -0.0345
C 34.4048 2.83804 -0.00931
C 1.22888 2.19259 -0.00939
C 1.19135 0.7487 -0.00468
C 1.24753 9.28843 -0.00583
C 34.41404 21.30979 -0.02213
C 1.25282 22.01213 0.02712
C 1.24547 23.42282 0.00723
C 33.27564 9.24741 0.04381
C 31.99442 8.52987 0.02806
C 31.95439 7.04756 0.01504
C 33.1929 6.43044 -0.00069
C 33.22677 5.01027 0.04926
C 32.02063 4.32177 -0.03838
C 31.93294 2.75214 0.00349
C 33.14981 2.09483 -0.00323
C 33.21442 0.70771 -0.00841
C 32.01315 34.06015 0.0001
C 34.34073 32.64532 -0.02927
C 1.13599 31.9356 -0.01404
C 1.18005 30.50138 0.01027
C 34.40805 29.80289 0.01831
C 34.397 28.34152 -0.01037
C 1.22561 27.78417 -0.00439
C 1.25118 26.34463 -0.00598
C 0.00978 25.56794 -0.05239
C 0.0033 24.15031 0.03076
C 30.68989 23.42166 -0.01854
C 3.59787 31.93981 0.01087
C 29.49189 24.17818 -0.02049
C 30.79016 26.19546 0.00261
C 24.61162 25.57742 -0.01107
C 24.54 24.18996 -0.01586
C 25.79064 23.46084 -0.01971
C 25.82876 22.09127 -0.02118
C 24.61028 21.27387 0.00733
C 24.53981 19.89023 -0.00178
C 25.82106 19.2294 0.00768
C 25.7847 17.75958 -0.0276
C 25.86674 26.26124 0.00071
C 24.53261 17.00161 0.03005
C 25.79405 14.91338 0.02117
C 25.82486 13.52416 0.02737
C 24.59595 12.84588 -0.00498
C 24.61259 11.3068 0.00135
C 25.82276 10.5928 0.03102
C 25.78354 9.20856 0.02555
C 24.56838 8.50766 0.01423
C 24.6237 7.09589 -0.00285
C 24.50268 15.57021 -0.04078
C 25.79994 6.35053 -0.009
C 25.84085 27.70619 -0.00225
C 24.53783 29.74792 -0.0055
C 23.28256 14.88419 -0.01527
C 23.38362 13.46881 0.01087
C 22.1674 12.76543 0.00199
C 22.15478 11.36121 0.01511
C 23.34383 10.61722 -0.00478
C 23.36586 9.1593 -0.01662
C 22.12606 8.4726 -0.01185
C 22.10766 7.07011 0.01126
C 24.6077 28.37706 0.01515
C 23.43295 6.33278 0.01852
C 22.07372 4.29965 0.03046
C 22.04938 2.86577 0.0296
C 23.2863 2.08798 0.03374
C 23.33314 0.64101 -0.02845
C 22.07172 0.0197 -0.03213
C 24.65736 32.65043 0.02239
C 25.81953 31.93054 0.01153
C 25.72488 30.55256 0.02734
C 23.29203 4.9037 -0.00381
C 25.8383 4.95235 -0.01199
C 24.61781 4.2122 -0.00229
C 24.57069 2.80054 -0.00938
C 27.09721 11.28354 0.04185
C 28.35399 10.64573 0.00194
C 28.26107 9.2267 -0.00621
C 27.05316 8.43312 0.02611
C 27.02555 7.05244 0.02198
C 28.27563 6.42027 0.01094
C 28.34789 4.92168 0.00235
C 27.16829 4.21464 0.01495
C 27.03956 12.71025 0.02316
C 27.05958 2.82033 0.01259
C 28.30151 0.72115 0.01699
C 27.04495 34.06014 -0.00416
C 29.57079 32.67 0.01177
C 30.67408 31.94111 0.04266
C 30.76866 30.52779 0.01324
C 29.5781 29.81291 0.0014
C 29.60965 28.4209 0.00924
C 30.7858 27.70736 0.02326
C 28.29869 2.17291 0.01799
C 28.271 13.39252 0.01257
C 28.27045 14.90826 0.00152
C 27.0496 15.63593 -0.00294
C 25.83308 2.19062 -0.0264
C 25.78886 0.73063 -0.01154
C 24.62908 0.04458 0.00684
C 27.0531 32.6759 -0.01052
C 28.27309 31.95467 -0.01679
C 28.34616 30.54033 0.00367
C 26.99249 29.90036 0.04306
C 27.07062 28.39148 0.00996
C 28.33004 27.76588 0.00195
C 28.32141 26.30042 -0.00802
C 27.10233 25.54253 -0.00218
C 27.00596 24.12391 -0.01654
C 28.29235 23.45295 -0.00037
C 28.31745 21.9952 -0.0032
C 27.1852 21.34159 0.00622
C 27.02827 19.93783 -0.02815
C 28.2711 19.13976 -0.00942
C 28.28268 17.71298 0.00487
C 26.96314 17.06078 0.00826
C 29.45653 25.55655 0.03265
C 2.35314 32.66407 -0.05697
