381
Graphene
C 34.34716 0.07058 0.01295
C 13.43939 27.74377 -0.01454
C 13.37423 26.21958 0.01945
C 12.14341 25.56405 0.01416
C 12.15942 24.20857 0.03542
C 13.37322 23.44344 0.02299
C 13.44055 22.00546 0.00244
C 12.24288 21.33167 -0.01717
C 12.29105 19.86704 0.05265
C 13.5861 19.21882 -0.01952
C 13.58581 17.7325 -0.02813
C 12.28479 17.08458 0.00374
C 12.33369 15.60222 0.00052
C 13.60847 14.83425 -0.03682
C 13.43999 13.42944 0.01965
C 12.29027 12.70374 0.02058
C 12.29642 11.32176 -0.01957
C 13.54819 10.63068 -0.0108
C 13.51482 9.21911 -0.00368
C 12.19233 8.53777 -0.02696
C 12.26598 28.44744 0.01241
C 12.21457 29.8748 0.0076
C 13.4958 30.65449 0.02162
C 13.52561 32.0283 -0.0014
C 11.11534 19.20056 -0.01275
C 11.03712 17.84139 0.00985
C 9.85246 17.07633 -0.02245
C 9.82637 15.62596 -0.00428
C 11.06856 14.93421 0.03101
C 11.05977 13.52602 -0.01536
C 9.88297 12.7769 -0.02689
C 9.82401 11.37037 -0.01046
C 11.02597 10.59861 -0.00891
C 12.318 7.07144 -0.00114
C 11.03982 9.22301 0.02819
C 9.86402 7.1092 -0.02971
C 11.0823 6.39288 0.02894
C 11.04752 4.96711 -0.01789
C 9.81314 4.28117 0.00444
C 9.8509 2.90838 -0.00925
C 11.05089 2.12929 0.01877
C 11.05087 0.75424 0.01363
C 9.83795 0.04242 -0.02162
C 12.24526 32.72314 0.00415
C 9.75604 8.52594 0.00165
C 13.49664 6.321 0.00228
C 13.48639 4.93223 0.00798
C 12.29404 4.1767 0.00422
C 14.75244 11.33707 -0.0331
C 15.98937 10.61961 -0.00316
C 15.97221 9.20122 0.02188
C 14.69718 8.53723 -0.01979
C 14.69698 7.15932 0.02691
C 16.01836 6.381 -0.01581
C 16.01531 4.89779 0.01452
C 14.69842 4.28161 0.04892
C 14.7116 2.79747 -0.00111
C 14.73626 12.80774 -0.0258
C 15.9903 2.13617 -0.03557
C 14.77183 0.03507 0.01739
C 17.1833 32.64683 0.00755
C 18.43692 31.89543 -0.0054
C 18.44924 30.51251 0.00667
C 17.24953 29.76957 0.00143
C 17.16903 28.31494 -0.017
C 18.3583 27.48951 0.00364
C 18.35355 25.97694 -0.00831
C 17.03633 25.45804 -0.02957
C 16.00368 0.70584 0.03754
C 9.9387 19.92194 -0.01111
C 16.03696 13.40134 0.03338
C 14.78728 15.62613 -0.00109
C 12.33115 2.85022 0.0351
C 13.57738 2.03313 -0.03113
C 13.5979 0.63781 0.02098
C 12.30352 0.00386 0.01848
C 14.74615 32.73002 -0.00619
C 15.95352 31.95972 -0.02162
C 16.03716 30.51075 0.00889
C 14.79084 29.84897 -0.00481
C 14.68829 28.42169 0.00979
C 16.03699 14.85591 -0.00491
C 15.89646 27.66769 0.01443
C 14.55907 25.51762 -0.02815
C 14.63363 24.10966 -0.04147
C 15.85673 23.29987 -0.05302
C 15.96005 21.94085 0.00213
C 14.72072 21.30526 -0.00066
C 14.83615 19.84848 -0.00289
C 16.09 19.17387 0.00028
C 16.00255 17.69779 -0.02213
C 14.75383 17.01209 0.03698
C 15.76326 26.28966 0.03505
C 9.81387 21.32181 0.02841
C 10.93643 22.03879 0.00943
C 10.98948 23.44139 0.00406
C 4.79444 32.77192 -0.00725
C 6.04548 32.05512 -0.05697
C 5.98303 30.66228 0.01087
C 5.00097 24.27253 -0.01343
C 6.15784 23.55411 0.00988
C 6.08757 22.11775 0.0276
C 4.91231 21.44395 0.01305
C 4.92154 20.0397 -0.00077
C 6.0854 19.25238 0.03368
C 2.32949 34.06777 0.02322
C 6.07071 17.86637 -0.02929
C 4.97304 15.66938 -0.03337
C 6.19321 14.99695 0.01227
C 6.19828 13.56143 0.00873
C 5.02924 12.7827 -0.00049
C 4.93982 11.33436 0.00848
C 6.18301 10.67983 -0.01303
C 6.13148 9.28721 -0.01378
C 4.95724 8.60487 0.02635
C 4.88915 7.24185 0.0127
C 4.87927 17.12591 -0.00966
C 6.132 6.41247 0.01396
C 3.4895 0.79566 -0.00094
C 2.35595 2.99017 -0.03113
C 2.51547 24.26283 0.02379
C 3.75768 23.58283 0.00907
C 3.67733 22.0944 0.00643
C 2.44732 21.372 -0.01509
C 2.4487 19.96725 0.03267
C 3.64114 19.32044 0.02374
C 3.72422 17.87613 0.00402
C 2.40592 17.13498 0.0073
C 2.52834 15.72727 0.0174
C 3.59074 2.16969 -0.02566
C 3.7007 14.91318 0.03828
C 2.44461 12.86669 -0.00279
C 2.43527 11.43074 0.01996
C 3.69446 10.6921 -0.03996
C 3.69194 9.2585 0.01465
C 2.4863 8.55045 -0.00074
C 2.39409 7.19191 -0.00518
C 3.64103 6.45571 0.0086
C 3.72317 5.05539 -0.00643
C 2.41269 4.41233 0.017
C 3.66923 13.5291 0.01226
C 17.01362 23.99461 -0.04422
C 6.09442 4.91958 0.01849
C 4.8493 2.80224 -0.00562
C 8.65528 10.72396 0.02147
C 8.54604 9.29944 0.00373
C 7.27558 8.54523 -0.00191
C 7.31379 7.11585 0.00438
C 8.63757 6.49524 0.01291
C 8.63817 5.02908 0.00093
C 7.39166 4.30737 0.00057
C 7.42857 2.92783 -0.01634
C 8.56828 2.14638 -0.00334
C 7.4214 11.42024 -0.014
C 8.61317 0.71572 0.02339
C 9.76576 32.725 -0.00719
C 11.04637 31.98497 0.01364
C 10.95385 30.61619 -0.01062
C 9.69071 29.87553 -0.00033
C 9.75544 28.50039 0.03589
C 10.93244 27.76983 -0.02759
C 10.93638 26.34172 0.0402
C 9.79046 25.65631 0.00572
C 9.78785 24.18183 0.03592
C 7.33341 0.05426 0.01641
C 4.87278 4.20864 -0.01142
C 7.43669 12.80985 -0.01118
C 8.56239 14.96257 -0.02896
C 6.16079 2.15279 -0.00494
C 6.10872 0.74137 0.00054
C 4.80142 0.06205 0.03007
C 7.38322 32.72883 -0.00095
C 8.54414 31.9685 0.01572
C 8.48401 30.60824 -0.04848
C 7.06478 29.82325 -0.00892
C 7.36423 28.39517 -0.01362
C 8.53441 27.64505 -0.0008
C 8.64032 13.53139 -0.00131
C 8.50691 26.2954 0.0288
C 7.30441 24.28103 0.00895
C 8.51576 23.53032 0.00685
C 8.56695 22.09083 0.02888
C 7.32523 21.4313 -0.00482
C 7.3944 20.00976 -0.01384
C 8.64263 19.25556 0.03693
C 8.58419 17.82463 0.01745
C 7.3223 17.15194 0.00488
C 7.42755 15.76235 -0.01004
C 7.21909 25.67404 0.00393
C 3.71029 32.00712 0.01402
C 18.40107 23.46652 0.00654
C 17.2135 21.28235 -0.04076
C 29.51285 7.20937 0.02108
C 30.66359 6.40398 0.00716
C 30.76875 5.02392 0.00307
C 29.48763 4.23607 0.00346
C 29.47765 2.81862 0.01713
C 30.72469 2.0849 -0.01694
C 30.74603 0.66056 0.01428
C 29.47113 0.02682 -0.02142
C 31.94222 32.66374 0.0544
C 33.20745 32.10594 0.00026
C 33.15765 30.72355 0.00682
C 31.96365 29.97687 -0.01779
C 32.04951 28.51041 0.03794
C 33.1759 27.61866 0.01927
C 33.59954 26.28983 0.01574
C 33.19969 23.32791 -0.02383
C 33.00459 21.93626 -0.01429
C 31.85889 21.21478 -0.0136
C 31.68053 19.87119 0.00594
C 29.5685 8.59291 0.0103
C 30.83588 9.29003 0.07705
C 30.73866 10.68458 0.01908
C 29.40674 11.39865 0.01518
C 28.24598 9.33825 0.00924
C 26.95642 8.48358 0.02326
C 27.02768 7.0506 0.00261
C 28.26522 6.41515 0.03265
C 28.22568 5.06773 -0.02049
C 27.08426 4.22269 -0.01854
C 26.96088 2.82226 -0.01415
C 28.24521 2.15577 -0.03039
C 28.26093 0.69584 0.01836
C 33.10904 19.17677 -0.02474
C 27.07334 34.00781 0.03531
C 30.79415 31.85777 0.0101
C 30.67998 30.50492 0.01705
C 30.51036 19.11427 -0.0405
C 30.75786 17.71136 -0.01303
C 29.44513 17.04825 -0.01461
C 29.44858 15.68824 -0.02155
C 30.66855 14.90772 -0.00944
C 30.68004 13.52454 -0.03735
C 29.48385 12.83455 -0.00971
C 29.53953 32.59611 -0.00669
C 33.06151 17.76838 0.00369
C 31.93287 17.07308 0.00455
C 31.87588 15.61251 -0.00644
C 34.40288 21.35891 -0.02213
C 34.30912 19.8761 0.01951
C 1.21373 19.27789 -0.01678
C 1.18384 17.86406 0.01223
C 34.36144 17.19003 0.00648
C 34.37472 15.68395 0.02114
C 1.1634 15.02924 -0.02957
C 1.19488 13.64216 0.00343
C 34.40912 12.83051 -0.02656
C 1.24084 22.00442 0.02712
C 34.35285 11.37171 -0.02442
C 1.28829 9.30351 -0.00583
C 34.403 8.58757 -0.02302
C 34.36172 7.17135 -0.02849
C 1.10527 6.46585 0.02931
C 1.18343 5.0554 0.00628
C 34.38092 4.29425 -0.0345
C 34.38115 2.89753 -0.00931
C 1.16551 2.21649 -0.00939
C 1.11778 0.83639 -0.00468
C 1.21206 10.65877 -0.00027
C 28.21127 10.69878 0.0014
C 1.32201 23.4285 0.00723
C 34.05479 25.20529 -0.05239
C 33.205 14.90698 -0.01839
C 33.22862 13.51674 0.00137
C 31.94875 12.85997 0.00199
C 31.90838 11.50784 0.04381
C 33.11524 10.70195 0.02806
C 33.16462 9.2403 0.01504
C 32.00498 8.47951 -0.00069
C 31.95002 7.07528 0.04926
C 33.18298 6.41756 -0.03838
C 0.00756 23.87457 0.03076
C 33.15909 5.00764 0.00349
C 31.89101 2.83719 -0.00841
C 33.14922 2.12302 0.0001
C 33.19748 0.7528 -0.02927
C 31.9815 0.04972 -0.01404
C 34.43032 32.7564 0.01027
C 1.21658 31.9583 0.01831
C 1.17459 30.51807 -0.01037
C 34.34242 29.98395 -0.00439
C 33.87934 28.75975 -0.00598
C 31.96429 4.26929 -0.00323
C 26.93268 11.42687 0.01324
C 27.00161 12.89172 0.04266
C 28.21008 13.52678 0.01177
C 19.60453 28.27628 0.0296
C 19.66764 21.19448 0.03374
C 19.84239 19.79118 -0.02845
C 20.86153 18.98443 -0.03213
C 20.82461 17.56269 0.02239
C 19.6412 16.91088 0.01153
C 19.68317 15.50189 0.02734
C 20.8832 14.80574 -0.0055
C 20.85641 13.34424 0.01515
C 19.79449 29.70253 0.03046
C 19.67534 12.62748 -0.00225
C 20.8907 10.63923 -0.01107
C 20.90435 9.19016 -0.01586
C 19.69495 8.44961 -0.01971
C 19.74148 7.02575 -0.02118
C 20.9194 6.33879 0.00733
C 20.94025 4.90186 -0.00178
C 19.69051 4.23249 0.00768
C 19.66049 2.82633 -0.0276
C 20.92974 2.07882 0.03005
C 19.73552 11.2921 0.00071
C 20.87879 0.71843 -0.04078
C 20.86754 30.55226 -0.00381
C 19.56497 32.65993 0.01126
C 17.36298 19.83985 -0.00652
C 18.60562 19.10299 0.0058
C 18.48798 17.66854 -0.00865
C 17.21047 16.96558 0.00675
C 17.2281 15.47842 -0.00311
C 18.43884 14.74917 0.00742
C 18.39319 13.40064 -0.01594
C 17.15361 12.63659 0.0106
C 17.23908 11.21865 -0.01154
C 20.87881 31.87555 0.01852
C 18.44445 10.53816 -0.01721
C 17.22801 8.50231 0.01277
C 17.20285 7.05263 0.00096
C 18.49375 6.3811 -0.01527
C 18.49042 4.93086 0.01087
C 17.25213 4.21389 0.00199
C 17.24104 2.78436 0.01511
C 18.46344 2.11298 -0.00478
C 18.4664 0.71255 -0.01662
C 17.20696 0.0369 -0.01185
C 18.40996 9.18199 -0.02422
C 18.48996 22.00375 -0.00703
C 19.67979 34.01301 0.02117
C 23.27692 31.97879 -0.00498
C 25.79012 13.58883 -0.02815
C 24.65486 12.73532 -0.00942
C 24.54459 11.37003 0.00487
C 25.76583 10.63529 0.00826
C 25.78483 9.14526 -0.00294
C 24.59662 8.48798 0.00152
C 24.56162 7.0006 0.01257
C 25.80154 6.38439 0.02316
C 25.77653 4.98379 0.04185
C 25.8059 15.00821 0.00622
C 24.57082 4.17418 0.00194
C 25.84014 2.14953 0.02611
C 25.73622 0.73386 0.02198
C 24.59806 0.01901 0.01094
C 27.06733 32.65918 0.00235
C 28.28468 32.0127 0.01495
C 28.32061 17.79944 0.01259
C 26.89214 17.2648 0.01799
C 26.96365 15.75932 0.01699
C 28.17721 14.98922 -0.00416
C 24.61742 2.78252 -0.00621
C 22.13007 32.64477 0.02737
C 24.50673 15.65781 -0.0032
C 25.68562 17.74291 -0.01654
C 22.42774 19.21645 0.00135
C 23.08176 17.8732 0.03102
C 22.03989 16.87024 0.02555
C 22.09672 15.52504 0.01423
C 23.33996 14.82549 -0.00285
C 23.31716 13.42813 -0.009
C 22.06069 12.672 -0.01199
C 22.09338 11.29771 -0.00229
C 23.30598 10.60579 -0.00938
C 24.35418 17.24667 -0.00037
C 23.39923 9.19736 -0.0264
C 22.16943 7.07848 0.00684
C 23.38221 6.39429 -0.01052
C 23.38087 4.92669 -0.01679
C 22.16097 4.2318 0.00367
C 22.11162 2.81221 0.04306
C 23.34389 2.08662 0.00996
C 23.3076 0.68029 0.00195
C 22.07912 34.04487 -0.00802
C 24.43999 32.60522 -0.00218
C 22.17666 8.43623 -0.01154
C 2.47625 32.64616 -0.003
