435
Graphene
C 0.03996 33.97069 0.01295
C 13.48031 22.04801 0.01641
C 12.31225 21.31875 -0.00719
C 12.31233 19.92627 0.01364
C 13.45504 19.20058 -0.01062
C 13.50753 17.70474 -0.00033
C 12.32365 17.03697 0.03589
C 12.3383 15.64753 -0.02759
C 13.51861 14.82454 0.0402
C 13.55806 13.47381 0.00572
C 12.31267 12.72314 0.03592
C 12.301 11.25716 0.00406
C 13.54414 10.59435 0.00943
C 13.59128 9.23062 0.02841
C 12.35048 8.53416 -0.01111
C 12.36878 7.04467 -0.01275
C 13.50616 6.3029 0.00985
C 13.43498 4.91165 -0.02245
C 12.26466 4.13625 -0.00428
C 12.20254 2.76641 0.03101
C 13.51837 2.12226 -0.01536
C 13.54582 0.6891 -0.02689
C 12.31307 0.04737 -0.01046
C 14.78662 32.72545 -0.00891
C 13.51451 23.42506 0.02339
C 15.91291 31.92889 0.02819
C 12.24301 24.23591 -0.00334
C 13.4896 26.27513 0.00057
C 9.88065 17.0836 -0.01362
C 9.77693 15.65138 -0.0008
C 11.02059 14.96909 0.0288
C 11.066 13.50931 0.00393
C 9.80035 12.85156 0.00895
C 9.91349 11.50707 0.00685
C 11.09463 10.6647 0.02888
C 11.12498 9.353 -0.00482
C 9.8982 8.56408 -0.01384
C 9.83702 7.12139 0.03693
C 11.02735 6.35546 0.01745
C 11.08959 4.96692 0.00488
C 9.78072 4.23004 -0.01004
C 9.78695 2.83037 -0.02896
C 11.07914 2.08856 -0.00131
C 11.10426 0.68401 -0.01118
C 9.82931 0.0328 -0.014
C 12.26847 32.65494 0.02147
C 13.50923 32.03316 0.00373
C 13.45146 30.56246 -0.00191
C 12.21522 29.85293 0.00438
C 12.26077 28.47365 0.01291
C 13.53729 27.75462 0.00093
C 12.24491 25.6138 -0.01634
C 15.96575 30.55975 0.00165
C 14.693 29.89343 -0.02971
C 14.70501 28.46871 0.02894
C 18.41798 31.9988 -0.00368
C 18.43657 30.46616 -0.02696
C 17.24521 29.83557 -0.00114
C 17.21333 28.35902 0.00228
C 18.46408 27.59711 0.00798
C 18.37145 26.23019 0.00422
C 17.19525 25.55157 0.0351
C 17.19403 24.12725 -0.03113
C 18.4639 23.4222 0.02098
C 18.44296 21.94977 0.01848
C 17.18175 21.25929 -0.00619
C 17.11221 19.86668 -0.02162
C 18.34134 19.191 0.00889
C 18.40083 17.75988 -0.00481
C 17.16782 17.00558 0.00979
C 17.28116 15.62884 0.01443
C 18.4934 14.95812 0.03505
C 18.43317 13.53608 -0.02815
C 17.21366 12.80508 -0.04147
C 17.20673 11.3919 -0.05302
C 18.40683 10.66133 0.00213
C 18.41592 9.26598 -0.00066
C 17.21785 8.58322 -0.00289
C 17.18851 32.68569 -0.0108
C 14.76568 0.09217 -0.01957
C 15.93936 0.75914 0.02058
C 15.93819 2.19387 0.01965
C 15.94526 27.74098 -0.01789
C 15.94251 26.29393 0.00444
C 14.71439 25.58447 -0.00925
C 14.72924 24.14555 0.01877
C 15.9156 23.4378 0.01363
C 15.92667 22.02975 -0.02162
C 14.79088 21.27031 0.00415
C 14.71449 19.87097 -0.0014
C 15.91491 19.13605 0.02162
C 15.9328 17.71812 0.0076
C 14.75237 17.02197 0.01241
C 11.12719 17.82515 -0.00892
C 14.67811 15.55234 -0.01454
C 15.97815 13.43592 0.01416
C 14.73504 12.75504 0.03542
C 14.79166 11.33736 0.02299
C 16.01732 10.66803 0.00244
C 16.02643 9.22774 -0.01717
C 14.8356 8.51533 0.05265
C 14.75492 7.047 -0.01952
C 15.97773 6.39407 -0.02813
C 15.97978 5.02374 0.00374
C 14.69315 4.25969 0.00052
C 14.71016 2.82597 -0.03682
C 15.97142 14.94574 0.01945
C 17.19825 7.1089 0.00028
C 11.09986 19.21722 -0.04848
C 9.84032 21.32579 -0.00095
C 3.75092 2.11897 0.00558
C 3.65154 0.73944 -0.0059
C 2.51737 34.05727 -0.01386
C 4.90787 32.68248 -0.02805
C 6.18255 31.96209 0.00081
C 6.15371 30.56066 0.00245
C 4.92435 29.75083 0.02728
C 5.02884 28.34925 -0.00039
C 6.12495 27.60141 0.0064
C 6.18066 26.18877 0.00211
C 4.95099 25.61581 -0.00449
C 4.9157 24.09522 -0.01979
C 6.14945 23.43884 0.02784
C 6.19531 22.02272 -0.01977
C 5.00486 21.2633 -0.00561
C 4.86094 19.80674 0.00208
C 6.13378 19.11384 0.01707
C 6.05545 17.72221 0.02769
C 4.87447 17.05143 -0.03291
C 4.7661 15.60717 -0.04999
C 6.0405 14.98096 0.04505
C 6.12909 13.59469 0.03284
C 4.89286 12.85077 -0.04307
C 2.39715 2.86608 -0.02375
C 4.94131 11.43989 0.03189
C 2.4544 4.19607 0.00828
C 3.63069 6.4174 0.04421
C 3.68135 30.41845 0.00535
C 2.49797 29.7462 -0.00198
C 2.50035 28.34505 -0.00012
C 3.74158 27.68974 -0.04306
C 3.66835 26.35484 -0.03672
C 2.43911 25.60846 0.01913
C 2.43156 24.14317 0.00267
C 3.70322 23.48145 0.00787
C 3.72474 22.04988 0.02426
C 2.50815 21.33842 0.01218
C 2.45699 19.85221 -0.01471
C 3.66718 19.16294 -0.02827
C 3.54645 17.68285 0.01078
C 2.31497 16.97294 -0.00112
C 2.35809 15.64388 0.03345
C 3.54142 14.94821 0.00748
C 3.66717 13.50876 0.00662
C 2.44528 12.74926 -0.0154
C 2.38043 11.40667 -0.01299
C 3.71577 10.73426 -0.00407
C 3.66156 9.28949 0.01138
C 2.41556 8.53976 0.03278
C 2.42746 7.16451 -0.00177
C 3.65974 5.00694 0.00088
C 6.1745 10.70823 0.00031
C 6.15916 9.32136 -0.003
C 4.91132 8.57724 0.01402
C 7.40293 11.4412 0.00988
C 8.68971 10.72117 0.0276
C 8.6992 9.3023 0.01305
C 7.36427 8.62189 -0.00077
C 7.32346 7.19117 0.03368
C 8.55518 6.49185 -0.02929
C 8.50851 5.08036 -0.00966
C 7.36708 4.32715 -0.03337
C 7.35065 2.83245 0.01227
C 8.57442 2.14396 0.00873
C 8.6548 0.72398 -0.00049
C 7.4148 0.02071 0.00848
C 9.90539 32.67443 -0.01303
C 11.03804 31.96755 -0.01378
C 10.98477 30.5557 0.02635
C 9.75514 29.8526 0.0127
C 9.79764 28.45822 0.01396
C 11.01872 27.76941 0.01849
C 11.08284 26.31881 -0.01142
C 9.84604 25.61718 -0.00562
C 9.84847 24.1974 -0.00494
C 11.05458 23.5637 0.00054
C 11.03894 22.06987 0.03007
C 7.38835 12.87452 -0.01343
C 8.53353 13.59306 0.01087
C 8.49522 14.96162 -0.05697
C 7.33434 15.71202 -0.00725
C 4.88684 7.18323 0.02379
C 6.08075 6.53234 0.00907
C 6.08655 5.01103 0.00643
C 4.91687 4.33859 -0.01509
C 4.89491 2.88008 0.03267
C 6.11148 2.20612 0.02374
C 6.13759 0.74049 0.00402
C 4.88171 0.00646 0.0073
C 7.35532 32.72666 0.0174
C 8.56856 31.99126 0.03828
C 8.58772 30.58902 0.01226
C 9.85544 19.90605 0.01572
C 7.38374 29.79438 -0.00279
C 8.63623 27.643 -0.03996
C 8.5742 26.28415 0.01465
C 7.39469 25.53461 -0.00074
C 7.39039 24.12876 -0.00518
C 8.70926 23.46022 0.0086
C 8.64041 22.0255 -0.00643
C 7.41201 21.3081 0.017
C 7.3417 19.87665 -0.03113
C 8.6088 19.22216 -0.02566
C 8.68059 17.78607 -0.00094
C 7.34747 17.04637 0.02322
C 7.41155 28.3814 0.01996
C 3.67936 31.91292 0.01984
C 18.42858 6.43249 -0.02213
C 17.18589 4.31469 -0.00109
C 30.73821 14.89563 -0.0405
C 30.69845 13.38392 -0.01303
C 29.44045 12.67369 -0.01461
C 29.45807 11.2787 -0.02155
C 30.70347 10.55645 -0.00944
C 30.73724 9.21788 -0.03735
C 29.40347 8.65001 -0.00971
C 29.33995 7.23669 0.01518
C 30.67497 6.43269 0.01908
C 30.72553 4.93734 0.07705
C 29.52055 4.17898 0.0103
C 29.55583 2.82245 0.02108
C 30.79964 2.06536 0.00716
C 30.75116 0.60495 0.00307
C 29.4698 34.04405 0.00346
C 31.95774 32.56805 0.01713
C 33.18676 31.96241 -0.01694
C 33.23238 30.5378 0.01428
C 31.99693 29.85429 -0.02142
C 31.93825 28.41529 0.0544
C 33.22236 27.78115 0.00026
C 33.15543 26.33104 0.00682
C 31.98161 25.62115 -0.01779
C 29.57644 15.62785 0.01705
C 31.91707 24.22634 0.03794
C 29.53992 17.04421 0.0101
C 30.61704 19.22843 0.03531
C 28.3234 13.42868 -0.00621
C 27.05071 12.75727 0.02611
C 28.18875 10.58252 0.02198
C 28.26796 6.26431 0.01094
C 28.2944 4.99813 0.00235
C 27.05291 4.23223 0.01495
C 27.11235 2.79871 0.01259
C 28.31724 2.07048 0.01799
C 28.31805 0.71003 0.01699
C 27.03433 0.05075 -0.00416
C 29.48079 32.6491 0.01177
C 30.74526 31.89848 0.04266
C 30.727 30.565 0.01324
C 29.49555 29.83973 0.0014
C 29.52947 28.4655 0.00924
C 30.72385 27.74799 0.02326
C 30.66988 26.32465 0.00261
C 29.46304 25.58999 0.03265
C 29.4644 24.0866 -0.02049
C 30.68793 23.41815 -0.01854
C 30.66445 22.03583 -0.01415
C 29.51398 21.30209 -0.03039
C 29.44562 19.86012 0.01836
C 30.77121 17.77142 -0.00669
C 33.17337 23.47392 0.01927
C 33.18514 22.07057 0.01574
C 31.98501 21.30387 -0.02383
C 34.42539 24.15488 0.03076
C 1.219 23.46482 0.00723
C 1.25654 22.00363 0.02712
C 34.41625 21.35688 -0.02213
C 34.30046 19.87478 0.01951
C 1.18274 19.23521 -0.01678
C 1.15866 17.75023 0.01223
C 34.41976 17.05802 0.00648
C 34.38905 15.5925 0.02114
C 1.20713 14.81306 -0.02957
C 1.1502 13.38707 0.00343
C 34.27232 12.71278 -0.02656
C 34.42724 11.32495 -0.02442
C 1.21576 10.60718 -0.00027
C 1.18987 9.1709 -0.00583
C 0.05018 8.44904 -0.02302
C 34.43291 6.985 -0.02849
C 1.20955 6.41209 0.02931
C 1.25528 4.96575 0.00628
C 0.03582 4.17928 -0.0345
C 0.05099 2.77883 -0.00931
C 1.21211 2.06295 -0.00939
C 1.27442 0.61722 -0.00468
C 34.43122 25.62602 -0.05239
C 1.18886 26.30764 -0.00598
C 1.18686 27.68013 -0.00439
C 0.05036 28.43405 -0.01037
C 31.95036 19.86015 -0.01429
C 33.13554 19.08215 -0.0136
C 33.1533 17.69935 0.00594
C 31.98871 16.9798 -0.02474
C 31.90868 15.57083 0.00369
C 33.12798 14.85864 0.00455
C 33.13312 13.41502 -0.00644
C 31.90171 12.73783 -0.01839
C 31.87675 11.25987 0.00137
C 33.15931 10.5412 0.00199
C 33.19237 9.14584 0.04381
C 28.34522 14.87926 0.00194
C 31.92607 8.43967 0.02806
C 33.19402 6.275 -0.00069
C 33.18809 4.91848 0.04926
C 32.02555 4.15101 -0.03838
C 32.05325 2.70651 0.00349
C 33.21293 2.06752 -0.00323
C 33.18507 0.64576 -0.00841
C 32.01826 34.01029 0.0001
C 0.01737 32.60397 -0.02927
C 1.24307 31.91394 -0.01404
C 1.2619 30.51244 0.01027
C 34.41907 29.82239 0.01831
C 31.96146 7.03817 0.01504
C 18.44313 5.03946 0.03698
C 27.10441 15.53874 0.04185
C 28.29523 17.77215 0.01257
C 19.62073 8.53429 -0.00652
C 19.67799 7.09734 0.0058
C 20.85295 6.43391 -0.00865
C 20.90006 4.93887 0.00675
C 19.57503 4.25144 -0.00311
C 19.58044 2.83757 0.00742
C 20.85242 2.22592 -0.01594
C 20.84907 0.7677 0.0106
C 19.6642 34.07766 -0.01154
C 22.11325 32.66214 -0.01721
C 23.3408 31.98933 -0.02422
C 23.38936 30.55351 0.01277
C 22.13017 29.89421 0.00096
C 22.16095 28.34973 -0.01527
C 23.3849 27.68945 0.01087
C 23.35254 26.30972 0.00199
C 22.19564 25.59475 0.01511
C 22.15258 24.11486 -0.00478
C 23.35957 23.44122 -0.01662
C 23.34571 21.98379 -0.01185
C 22.21353 21.36071 0.01126
C 22.10128 19.97451 0.01852
C 23.31992 19.24062 -0.00381
C 20.83886 9.30585 -0.04076
C 23.31348 17.76647 0.03046
C 21.08111 10.63554 -0.00703
C 19.67452 12.74939 -0.04422
C 17.12252 2.94816 -0.00491
C 18.41431 2.17064 0.03338
C 18.39686 0.69367 -0.0258
C 17.17429 34.06793 -0.0331
C 19.66463 32.71244 -0.00316
C 20.88406 31.94339 0.02188
C 20.88896 30.54238 -0.01979
C 19.68413 29.78453 0.02691
C 19.71963 28.32831 -0.01581
C 20.93123 27.69369 0.01452
C 20.85282 26.20572 0.04892
C 19.67036 25.48828 -0.00111
C 19.70356 24.07278 -0.03557
C 20.8893 23.38713 0.03754
C 20.91755 22.02602 0.01739
C 19.73363 21.31288 0.00755
C 19.60919 19.86105 -0.0054
C 20.86669 19.20006 0.00667
C 20.82179 17.79877 0.00143
C 19.58602 17.12449 -0.017
C 19.67261 15.67502 0.00364
C 20.91275 14.93704 -0.00831
C 20.83966 13.52124 -0.02957
C 19.73865 11.37209 0.00654
C 22.03028 17.07422 0.0296
C 22.11175 15.68941 0.03374
C 23.3578 14.96676 -0.02845
C 25.86377 14.83617 -0.00229
C 25.7552 13.25146 -0.00938
C 24.44766 12.75445 -0.0264
C 25.83106 4.95026 -0.01154
C 24.58304 4.37996 0.00684
C 24.6059 2.88244 -0.01052
C 25.77483 2.13403 -0.01679
C 25.7465 0.74556 0.00367
C 24.56053 34.06864 0.04306
C 27.02973 32.70872 0.00996
C 28.2433 31.94208 0.00195
C 28.22033 30.5796 -0.00802
C 27.05332 29.8526 -0.00218
C 27.01995 28.39874 -0.01654
C 28.36248 27.69891 -0.00037
C 28.23865 26.3328 -0.0032
C 26.99968 25.5788 0.00622
C 26.9651 24.16372 -0.02815
C 28.18771 23.43039 -0.00942
C 28.29224 21.94042 0.00487
C 27.00388 21.21177 0.00826
C 26.93395 19.81242 -0.00294
C 28.24843 19.1685 0.00152
C 24.57965 15.59039 -0.01199
C 24.53094 17.00452 -0.009
C 25.77106 17.63811 -0.00285
C 25.76148 19.11336 0.01423
C 23.31172 13.52404 -0.03213
C 22.0656 12.85573 0.02239
C 22.04454 11.46598 0.01153
C 22.11024 6.85173 0.02734
C 23.4239 6.4684 -0.0055
C 23.41244 5.02506 0.01515
C 22.20389 4.28837 -0.00225
C 22.14281 2.82026 0.00071
C 23.38285 2.15707 -0.01107
C 23.33701 0.70216 -0.01586
C 22.08786 0.02373 -0.01971
C 27.11484 17.00707 0.02316
C 24.63366 32.64452 -0.02118
C 25.842 30.54334 -0.00178
C 24.61444 29.91651 0.00768
C 24.62411 28.45874 -0.0276
C 25.84666 27.73157 0.03005
C 25.82169 26.24623 -0.04078
C 24.58031 25.58186 0.02117
C 24.61282 24.143 0.02737
C 25.81237 23.43618 -0.00498
C 25.9125 22.02194 0.00135
C 24.6702 21.239 0.03102
C 24.58599 19.89598 0.02555
C 25.86954 31.95706 0.00733
C 2.48551 32.62489 0.01073
