436
Graphene
C 0.03004 33.99931 0.01295
C 12.27101 11.54712 0.02339
C 13.54146 10.75009 0.01641
C 13.4195 9.34246 -0.00719
C 12.17263 8.62897 0.01364
C 12.16085 7.11463 -0.01062
C 13.40958 6.44869 -0.00033
C 13.51264 5.04803 0.03589
C 12.26733 4.28224 -0.02759
C 12.29438 2.90209 0.0402
C 13.49456 2.08625 0.00572
C 13.49072 0.63925 0.03592
C 12.28449 34.06703 0.00406
C 14.78149 32.6899 0.00943
C 15.96819 31.94851 0.02841
C 16.0171 30.42917 -0.01111
C 14.71264 29.79294 -0.01275
C 14.65756 28.39696 0.00985
C 15.96738 27.71809 -0.02245
C 15.96441 26.37628 -0.00428
C 14.85452 25.68726 0.03101
C 14.77406 24.21749 -0.01536
C 15.96757 23.49382 -0.02689
C 15.81415 21.9 -0.01046
C 12.27347 13.11145 -0.00334
C 14.54746 21.23337 -0.00891
C 13.63443 13.67217 -0.01634
C 12.29464 21.28611 0.00093
C 9.77454 11.54982 -0.00892
C 11.07935 10.85313 -0.01362
C 11.00577 9.39486 -0.0008
C 9.79215 8.637 0.0288
C 9.8243 7.13936 0.00393
C 11.02197 6.39602 0.00895
C 11.04855 4.91283 0.00685
C 9.81878 4.30688 0.02888
C 9.83405 2.90132 -0.00482
C 10.98237 2.17356 -0.01384
C 10.99142 0.75767 0.03693
C 9.8443 0.04264 0.01745
C 12.30926 32.6042 0.00488
C 13.56412 31.98115 -0.01004
C 13.59086 30.50866 -0.02896
C 12.28633 29.79944 -0.00131
C 12.26436 28.36598 -0.01118
C 13.49013 27.67494 -0.014
C 13.50616 26.32672 0.02147
C 12.29223 25.5965 0.00373
C 12.23933 24.21708 -0.00191
C 13.50509 23.49344 0.00438
C 13.48662 22.08688 0.01291
C 12.59727 20.00073 0.00057
C 14.3127 19.94163 0.02819
C 15.63864 19.08573 0.00165
C 15.8366 17.65256 -0.02971
C 18.28379 19.16607 -0.0108
C 18.32935 17.72674 -0.00368
C 17.07486 17.10178 -0.02696
C 17.16988 15.55984 -0.00114
C 18.454 14.83504 0.00228
C 18.44427 13.48168 0.00798
C 17.2339 12.80825 0.00422
C 17.20288 11.42298 0.0351
C 18.45211 10.6719 -0.03113
C 18.32223 9.24819 0.02098
C 17.16711 8.48466 0.01848
C 17.15267 7.11746 -0.00619
C 18.42914 6.39983 -0.02162
C 18.43361 4.9824 0.00889
C 17.1797 4.32228 -0.00481
C 17.12779 2.89807 0.00979
C 18.33774 2.18525 0.01443
C 18.40885 0.7275 0.03505
C 17.208 34.03424 -0.02815
C 19.62498 32.63626 -0.04147
C 20.81329 31.93034 -0.05302
C 20.86573 30.56214 0.00213
C 19.68143 29.89308 -0.00066
C 16.98593 19.77883 -0.01957
C 17.04869 21.24332 0.02058
C 18.2995 21.98241 0.01965
C 18.35767 23.44181 -0.03682
C 15.97846 14.8786 0.02894
C 16.00396 13.52266 -0.01789
C 14.80997 12.85512 0.00444
C 14.78142 11.43228 -0.00925
C 15.91478 10.65163 0.01877
C 15.9065 9.24786 0.01363
C 14.68936 8.56501 -0.02162
C 14.69396 7.16137 0.00415
C 15.92368 6.40586 -0.0014
C 15.92411 5.03956 0.02162
C 14.79556 4.25395 0.0076
C 9.82596 12.98728 -0.04848
C 14.68786 2.76892 0.01241
C 16.00816 0.60985 0.01945
C 14.74624 0.00352 0.01416
C 17.18472 32.63536 0.03542
C 18.39386 31.96278 0.02299
C 18.43389 30.48881 0.00244
C 17.20163 29.86498 -0.01717
C 17.15621 28.35405 0.05265
C 18.44086 27.64532 -0.01952
C 18.38676 26.24367 -0.02813
C 17.18199 25.57045 0.00374
C 17.16387 24.13358 0.00052
C 15.92924 2.11664 -0.01454
C 19.68274 28.36794 -0.00289
C 10.98766 13.73531 0.01572
C 9.90688 21.27776 0.03007
C 3.77204 2.07345 -0.02375
C 3.71049 0.66396 0.00558
C 2.44981 34.03595 -0.0059
C 4.92015 32.69349 -0.01386
C 6.17307 31.89111 -0.02805
C 6.18075 30.52778 0.00081
C 4.88761 29.82529 0.00245
C 4.93315 28.4025 0.02728
C 6.12811 27.75163 -0.00039
C 6.15366 26.30139 0.0064
C 4.93216 25.57932 0.00211
C 4.93615 24.02199 -0.00449
C 6.17948 23.33008 -0.01979
C 6.16701 21.96332 0.02784
C 4.90485 21.3034 -0.01977
C 4.8642 19.98324 -0.00561
C 6.19505 19.23796 0.00208
C 6.04843 17.79864 0.01707
C 4.83827 17.13451 0.02769
C 4.81529 15.63576 -0.03291
C 6.03357 14.95936 -0.04999
C 6.007 13.56002 0.04505
C 4.74691 12.81574 0.03284
C 2.47435 2.86717 0.00828
C 4.84494 11.46732 -0.04307
C 2.43631 4.21727 0.00088
C 3.72155 6.42101 -0.00177
C 3.72894 30.55936 0.01984
C 2.5144 29.87465 0.00535
C 2.5042 28.39629 -0.00198
C 3.65695 27.58776 -0.00012
C 3.67026 26.23438 -0.04306
C 2.48618 25.51912 -0.03672
C 2.4883 24.09027 0.01913
C 3.69404 23.36579 0.00267
C 3.56216 21.97893 0.00787
C 2.35053 21.32158 0.02426
C 2.36586 19.84788 0.01218
C 3.68093 19.32338 -0.01471
C 3.58568 17.79312 -0.02827
C 2.36013 17.07496 0.01078
C 2.32506 15.62384 -0.00112
C 3.58927 14.95122 0.03345
C 3.56386 13.50126 0.00748
C 2.35437 12.74524 0.00662
C 2.33264 11.36578 -0.0154
C 3.66195 10.69074 -0.01299
C 3.66253 9.26302 -0.00407
C 2.39262 8.541 0.01138
C 2.47442 7.09404 0.03278
C 3.68691 5.03076 0.04421
C 6.09447 10.80312 0.03189
C 6.15739 9.39349 0.00031
C 4.93662 8.58681 -0.003
C 7.29392 11.49621 -0.01343
C 8.5531 10.7527 0.00988
C 8.63716 9.3485 0.0276
C 7.35634 8.66709 0.01305
C 7.35642 7.21202 -0.00077
C 8.61069 6.49053 0.03368
C 8.58329 5.02408 -0.02929
C 7.36655 4.3711 -0.00966
C 7.34748 2.91923 -0.03337
C 8.59161 2.21319 0.01227
C 8.57571 0.75958 0.00873
C 7.4021 0.04594 -0.00049
C 9.86376 32.62458 0.00848
C 11.01583 31.95366 -0.01303
C 11.13742 30.54157 -0.01378
C 9.87249 29.79692 0.02635
C 9.79612 28.40553 0.0127
C 11.06127 27.68017 0.01396
C 11.04796 26.20034 0.01849
C 9.84759 25.51581 -0.01142
C 9.78069 24.0981 -0.00562
C 11.02609 23.48305 -0.00494
C 11.11545 22.00234 0.00054
C 7.31297 12.89643 0.01087
C 8.56097 13.67321 -0.05697
C 8.56718 15.16359 -0.00725
C 7.30596 15.73425 0.02322
C 4.97446 7.1932 0.01402
C 6.14813 6.51909 0.02379
C 6.0698 5.01895 0.00907
C 4.92863 4.32887 0.00643
C 4.92058 2.89249 -0.01509
C 6.11984 2.21146 0.03267
C 6.18307 0.73781 0.02374
C 4.97644 34.0566 0.00402
C 7.33407 32.70682 0.0073
C 8.59457 31.94228 0.0174
C 8.57467 30.61094 0.03828
C 10.02861 19.89366 -0.00095
C 7.41122 29.82879 0.01226
C 8.58295 27.71065 0.01996
C 8.58759 26.3437 -0.03996
C 7.43243 25.61942 0.01465
C 7.31649 24.15935 -0.00074
C 8.60218 23.42064 -0.00518
C 8.62388 22.02728 0.0086
C 7.45001 21.23515 -0.00643
C 7.49935 19.8229 0.017
C 8.82586 19.04096 -0.03113
C 8.55994 17.68686 -0.02566
C 7.29685 17.07204 -0.00094
C 7.32477 28.52414 -0.00279
C 20.88658 27.77583 0.00028
C 20.83415 26.35281 -0.02213
C 19.63913 25.55185 0.03698
C 30.68007 14.87432 -0.0405
C 30.68205 13.38603 -0.01303
C 29.44346 12.71878 -0.01461
C 29.54217 11.35076 -0.02155
C 30.72416 10.55018 -0.00944
C 30.675 9.08914 -0.03735
C 29.4551 8.37789 -0.00971
C 29.49722 6.98352 0.01518
C 30.68112 6.21618 0.01908
C 30.71353 4.83859 0.07705
C 29.5595 4.1197 0.0103
C 29.49363 2.77278 0.02108
C 30.7124 2.10134 0.00716
C 30.74011 0.67863 0.00307
C 29.48861 0.00662 0.00346
C 32.0019 32.61266 0.01713
C 33.2185 31.90576 -0.01694
C 33.20937 30.44548 0.01428
C 31.94792 29.82698 -0.02142
C 31.96857 28.40156 0.0544
C 33.19321 27.66621 0.00026
C 33.16984 26.24004 0.00682
C 32.00192 25.54777 -0.01779
C 29.45193 15.57579 0.01705
C 31.93999 24.15898 0.03794
C 29.40195 16.9975 0.0101
C 30.72137 19.12734 0.03531
C 28.2907 9.18604 -0.00621
C 27.06842 8.42326 0.02611
C 27.0226 7.00156 0.02198
C 28.21643 6.26276 0.01094
C 28.28018 4.87234 0.00235
C 26.98465 4.17619 0.01495
C 26.99999 2.78435 0.01259
C 28.20957 2.08998 0.01799
C 28.25208 0.69866 0.01699
C 27.02898 34.02837 -0.00416
C 29.52527 32.64904 0.01177
C 30.76313 31.90262 0.04266
C 30.71283 30.58041 0.01324
C 29.47005 29.84896 0.0014
C 29.46865 28.46262 0.00924
C 30.74895 27.75774 0.02326
C 30.69948 26.27982 0.00261
C 29.50376 25.61001 0.03265
C 29.51626 24.2334 -0.02049
C 30.72116 23.47006 -0.01854
C 30.70619 22.08313 -0.01415
C 29.49999 21.29377 -0.03039
C 29.52404 19.81029 0.01836
C 30.60068 17.71054 -0.00669
C 33.1796 23.4308 0.01927
C 33.10948 22.02894 0.01574
C 31.89077 21.32397 -0.02383
C 34.40292 24.15914 0.03076
C 1.17394 23.46724 0.00723
C 1.16165 22.05251 0.02712
C 34.3895 21.32359 -0.02213
C 34.42656 19.89607 0.01951
C 1.1792 19.15032 -0.01678
C 1.09487 17.69858 0.01223
C 34.29732 17.00322 0.00648
C 34.21846 15.57682 0.02114
C 1.04313 14.92475 -0.02957
C 1.12884 13.53279 0.00343
C 34.3481 12.72281 -0.02656
C 34.38599 11.29346 -0.02442
C 1.16323 10.56737 -0.00027
C 1.1845 9.22311 -0.00583
C 34.38792 8.52016 -0.02302
C 34.39878 7.03582 -0.02849
C 1.18571 6.35381 0.02931
C 1.20546 4.93233 0.00628
C 34.40653 4.12166 -0.0345
C 0.06363 2.73905 -0.00931
C 1.23925 2.09818 -0.00939
C 1.20663 0.68551 -0.00468
C 0.0267 25.57098 -0.05239
C 1.26088 26.24593 -0.00598
C 1.18198 27.71442 -0.00439
C 0.00547 28.35928 -0.01037
C 31.94296 19.9335 -0.01429
C 33.20153 19.30686 -0.0136
C 33.08795 17.79634 0.00594
C 31.8482 16.99562 -0.02474
C 31.88285 15.61129 0.00369
C 33.05969 14.83364 0.00455
C 33.13191 13.37629 -0.00644
C 31.89893 12.7145 -0.01839
C 31.94024 11.28463 0.00137
C 33.14426 10.52068 0.00199
C 33.10228 9.16024 0.04381
C 28.23986 10.59323 0.00194
C 31.87826 8.37263 0.02806
C 33.17704 6.26058 -0.00069
C 33.14023 4.88553 0.04926
C 31.95831 4.15464 -0.03838
C 31.92034 2.7141 0.00349
C 33.2089 2.04449 -0.00323
C 33.20147 0.6282 -0.00841
C 32.01908 34.07038 0.0001
C 0.07497 32.60083 -0.02927
C 1.26705 31.89083 -0.01404
C 1.24081 30.53023 0.01027
C 34.42379 29.78679 0.01831
C 31.92343 6.91811 0.01504
C 27.0687 11.30989 0.04185
C 26.96615 12.79063 0.02316
C 28.24719 13.38022 0.01257
C 22.07224 28.44369 -0.00652
C 23.31058 27.73052 0.0058
C 23.29557 26.40314 -0.00865
C 22.0933 25.64743 0.00675
C 22.13386 24.22074 -0.00311
C 23.38089 23.45067 0.00742
C 23.2889 22.0783 -0.01594
C 22.03278 21.38979 0.0106
C 22.04333 19.88309 -0.01154
C 23.29649 19.21257 -0.01721
C 23.33015 17.78247 -0.02422
C 22.12362 17.06559 0.01277
C 22.1092 15.65874 0.00096
C 23.41414 14.87438 -0.01527
C 23.29904 13.49397 0.01087
C 22.09065 12.79831 0.00199
C 22.17203 11.40841 0.01511
C 23.30721 10.64842 -0.00478
C 23.35893 9.26007 -0.01662
C 21.98768 8.40278 -0.01185
C 22.09512 7.0331 0.01126
C 23.30022 6.41362 0.01852
C 23.38036 5.041 -0.00381
C 22.07993 29.83288 -0.04076
C 23.33722 30.4563 -0.00703
C 23.28264 31.89356 0.00654
C 22.05766 32.65984 -0.04422
C 19.57943 24.18178 -0.00109
C 20.98484 23.51572 -0.00491
C 20.85015 22.05223 0.03338
C 19.65872 21.29486 -0.0258
C 19.53728 19.92399 -0.0331
C 20.80453 19.14508 -0.00316
C 20.80123 17.76561 0.02188
C 19.5633 17.11562 -0.01979
C 19.5885 15.63982 0.02691
C 20.79155 14.98627 -0.01581
C 20.86958 13.46165 0.01452
C 22.09647 4.31929 0.03046
C 19.66087 12.79173 0.04892
C 20.83149 10.60251 -0.03557
C 20.85967 9.21752 0.03754
C 19.57092 8.5705 0.01739
C 19.62944 7.15378 0.00755
C 20.84142 6.42348 -0.0054
C 20.83827 4.9969 0.00667
C 19.58801 4.29089 0.00143
C 19.57318 2.81265 -0.017
C 20.8474 2.14439 0.00364
C 20.86217 0.76123 -0.00831
C 19.71025 0.07551 -0.02957
C 19.67483 11.34997 -0.00111
C 3.729 31.95678 0.01073
C 22.12213 2.85872 0.0296
C 23.34976 0.76858 -0.02845
C 24.56528 4.28706 -0.00229
C 24.51737 2.83924 -0.00938
C 25.74774 2.09411 -0.0264
C 25.79388 0.75541 -0.01154
C 24.58318 0.07602 0.00684
C 27.00145 32.63648 -0.01052
C 28.29637 31.9083 -0.01679
C 28.179 30.56046 0.00367
C 27.01831 29.89048 0.04306
C 26.93587 28.47798 0.00996
C 28.21385 27.72548 0.00195
C 28.24337 26.27921 -0.00802
C 26.99862 25.54681 -0.00218
C 27.09109 24.17567 -0.01654
C 28.24257 23.51584 -0.00037
C 28.21605 21.97084 -0.0032
C 26.96475 21.34684 0.00622
C 26.9816 19.94572 -0.02815
C 28.25609 19.21345 -0.00942
C 28.21557 17.7868 0.00487
C 26.99747 17.12871 0.00826
C 27.04242 15.6345 -0.00294
C 28.20404 14.86682 0.00152
C 25.83498 4.93559 -0.01199
C 25.7522 6.33848 -0.009
C 24.58504 7.1162 -0.00285
C 24.57944 8.5147 0.01423
C 22.05039 0.01126 -0.03213
C 24.47782 32.63807 0.02239
C 25.77037 32.02202 0.01153
C 25.79116 30.52774 0.02734
C 24.59691 29.79535 -0.0055
C 24.53023 28.44118 0.01515
C 25.76544 27.6687 -0.00225
C 25.80833 26.24625 0.00071
C 24.52272 25.58063 -0.01107
C 24.53578 24.20236 -0.01586
C 25.79937 23.56436 -0.01971
C 23.25554 2.14338 0.03374
C 25.71185 22.06087 -0.02118
C 24.55483 19.84797 -0.00178
C 25.76372 19.16621 0.00768
C 25.76294 17.80974 -0.0276
C 24.58449 17.01155 0.03005
C 24.66306 15.70889 -0.04078
C 25.84099 14.98398 0.02117
C 25.79486 13.56633 0.02737
C 24.56999 12.82496 -0.00498
C 24.54461 11.32458 0.00135
C 25.86006 10.6551 0.03102
C 25.8478 9.17006 0.02555
C 24.50201 21.27725 0.00733
C 2.47856 32.60826 -0.00018
