328
Graphene
C 34.35714 0.00854 0.01295
C 10.92698 6.25903 -0.05302
C 10.83935 4.94347 0.00213
C 9.66309 4.21868 -0.00066
C 9.76497 2.77753 -0.00289
C 11.00542 2.08251 0.00028
C 11.08027 0.71236 -0.02213
C 9.72823 34.06194 0.03698
C 9.79873 7.13195 -0.04147
C 12.28597 32.66706 -0.00109
C 13.38463 30.49654 0.03338
C 12.23225 29.77765 -0.0258
C 12.26062 28.31557 -0.0331
C 13.47821 27.75412 -0.00316
C 13.54094 26.28672 0.02188
C 12.30951 25.47771 -0.01979
C 12.19218 23.8868 0.02691
C 13.51253 31.96155 -0.00491
C 9.95545 8.51859 -0.02815
C 11.19463 9.33538 0.03505
C 11.15158 10.78709 0.01443
C 7.34259 4.33605 -0.01957
C 7.3961 2.79077 -0.0108
C 8.54383 2.05617 -0.00368
C 8.51483 0.69742 -0.02696
C 7.32008 0.00658 -0.00114
C 9.8279 32.74176 0.00228
C 11.047 31.98565 0.00798
C 11.02032 30.46506 0.00422
C 9.81093 29.72602 0.0351
C 9.89143 28.27188 -0.03113
C 11.02392 27.58398 0.02098
C 11.01131 26.12965 0.01848
C 9.75547 25.4416 -0.00619
C 9.72742 23.88352 -0.02162
C 10.96163 23.26204 0.00889
C 9.70743 12.69427 -0.00481
C 9.9431 11.35687 0.00979
C 13.49267 23.38565 -0.01581
C 8.51683 4.93356 0.02058
C 12.19876 8.45577 0.01452
C 13.4703 6.26042 -0.00111
C 15.91829 2.15449 -0.01594
C 15.97534 0.78099 0.0106
C 14.79894 0.05274 -0.01154
C 17.20353 32.6774 -0.01721
C 18.51138 31.90486 -0.02422
C 18.50165 30.44775 0.01277
C 17.23304 29.82805 0.00096
C 14.69715 2.85126 0.00742
C 17.13068 28.35394 -0.01527
C 18.47685 26.20379 0.00199
C 17.16882 25.52786 0.01511
C 17.27776 24.01669 -0.00478
C 18.58743 23.47469 -0.01662
C 17.06792 7.18327 -0.01185
C 18.35262 6.57371 0.01126
C 18.30987 5.11753 0.01852
C 18.46358 27.66942 0.01087
C 14.62308 4.30929 -0.00311
C 15.88363 5.06118 0.00675
C 15.81406 6.57172 -0.00865
C 13.3699 4.88671 -0.03557
C 12.16426 4.1916 0.03754
C 12.24592 2.80288 0.01739
C 13.48325 2.13765 0.00755
C 13.4391 0.75877 -0.0054
C 12.24749 0.07981 0.00667
C 14.74597 32.72694 0.00143
C 16.00057 31.99767 -0.017
C 16.01501 30.54949 0.00364
C 14.74946 29.81458 -0.00831
C 14.69876 28.40786 -0.02957
C 15.88996 27.7375 -0.04422
C 15.95306 26.32118 0.00654
C 14.7569 25.48915 -0.00703
C 14.66735 24.07438 -0.04076
C 16.00519 23.60184 -0.00652
C 14.50231 7.09696 0.0058
C 12.14882 6.9574 0.04892
C 17.11551 4.35372 -0.00381
C 8.60501 6.42858 0.01965
C 7.27231 8.47842 0.00052
C 2.26547 8.59613 -0.00191
C 2.27343 7.18173 0.00438
C 3.5333 6.48743 0.01291
C 3.58386 5.03607 0.00093
C 2.34594 4.31503 0.00057
C 2.31303 2.90875 -0.01634
C 3.59698 2.18538 -0.00334
C 3.56926 9.25307 0.00373
C 3.64523 0.83094 0.02339
C 4.91911 32.76146 -0.00719
C 6.1455 31.98687 0.01364
C 6.16441 30.58772 -0.01062
C 4.92079 29.91778 -0.00033
C 4.97583 28.45614 0.03589
C 6.17592 27.7613 -0.02759
C 6.20477 26.364 0.0402
C 2.42931 0.08075 0.01641
C 3.53232 10.65609 0.02147
C 2.28263 11.42516 -0.014
C 2.31431 12.83892 -0.01118
C 3.68063 30.55407 -0.04848
C 2.45559 29.86793 -0.00892
C 2.45388 28.43761 -0.01362
C 3.73351 27.80151 -0.0008
C 3.64014 26.40559 0.0288
C 2.38828 25.6167 0.00393
C 2.39848 24.18683 0.00895
C 3.63886 23.62571 0.00685
C 3.87096 22.15296 0.02888
C 2.58756 21.38612 -0.00482
C 2.52738 20.00443 -0.01384
C 3.68947 19.22931 0.03693
C 3.63528 17.80327 0.01745
C 2.41487 17.13213 0.00488
C 2.41117 15.71234 -0.01004
C 3.6617 14.96673 -0.02896
C 3.57479 13.52778 -0.00131
C 4.90618 25.65995 0.00572
C 7.29006 7.10907 -0.03682
C 4.85288 24.31165 0.03592
C 6.2728 22.23665 0.00943
C 7.29416 32.66446 0.00415
C 8.65056 31.92008 -0.0014
C 8.69179 30.43892 0.02162
C 7.43824 29.83269 0.0076
C 7.42913 28.30185 0.01241
C 8.69064 27.59324 -0.01454
C 8.60665 26.19905 0.01945
C 4.9099 0.11114 -0.02162
C 7.35722 25.67449 0.01416
C 8.42856 23.60173 0.02299
C 7.72004 22.07912 0.00244
C 8.53989 13.21311 -0.01717
C 7.25844 12.77693 0.05265
C 7.26662 11.34424 -0.01952
C 8.62995 10.67562 -0.02813
C 8.65183 9.2112 0.00374
C 7.18767 24.27807 0.03542
C 6.11008 0.76549 0.01363
C 6.12815 2.17626 0.01877
C 4.87409 2.86964 -0.00925
C 5.1053 21.42299 0.02841
C 5.01658 19.90592 -0.01111
C 5.97329 19.06623 -0.01275
C 6.15875 17.75246 0.00985
C 4.92839 16.99778 -0.02245
C 4.88534 15.66545 -0.00428
C 6.0953 15.01984 0.03101
C 6.07049 13.47606 -0.01536
C 4.80916 12.843 -0.02689
C 4.76553 11.39319 -0.01046
C 6.03665 10.66072 -0.00891
C 6.07469 9.13263 0.02819
C 4.85848 8.46775 0.00165
C 4.83287 7.0764 -0.02971
C 6.1035 6.40478 0.02894
C 6.10395 5.0057 -0.01789
C 4.9088 4.24974 0.00444
C 6.00079 23.61824 0.00406
C 17.1575 2.86054 0.03046
C 18.36046 2.22419 0.0296
C 18.46503 0.77668 0.03374
C 33.17719 26.25181 0.00682
C 31.9196 25.54276 -0.01779
C 32.01112 24.09837 0.03794
C 33.17987 23.38806 0.01927
C 33.33848 21.978 0.01574
C 32.08606 21.34985 -0.02383
C 32.03711 19.87086 -0.01429
C 33.14304 27.68833 0.00026
C 33.26552 19.2512 -0.0136
C 31.91195 17.20103 -0.02474
C 32.00304 16.02091 0.00369
C 33.06402 15.00445 0.00455
C 33.03037 13.54478 -0.00644
C 31.82645 12.8653 -0.01839
C 31.50352 11.51228 0.00137
C 32.80222 10.67264 0.00199
C 33.19857 17.89146 0.00594
C 31.85017 28.42713 0.0544
C 31.90961 29.83123 -0.02142
C 33.18298 30.59893 0.01428
C 30.73736 23.41978 -0.0405
C 30.78718 22.03836 -0.01303
C 29.55167 21.20288 -0.01461
C 30.78421 19.28897 -0.02155
C 30.51244 10.59941 -0.00944
C 30.48825 9.24673 -0.03735
C 29.39246 8.38978 -0.00971
C 29.50227 7.00999 0.01518
C 30.67599 6.36452 0.01908
C 30.61082 4.92991 0.07705
C 29.47273 4.20362 0.0103
C 29.43318 2.70829 0.02108
C 30.67413 2.1297 0.00716
C 30.59983 0.75565 0.00307
C 29.40253 34.04406 0.00346
C 31.95452 32.77233 0.01713
C 33.20101 31.98664 -0.01694
C 32.87594 9.26834 0.04381
C 29.47381 24.11418 0.01705
C 31.77086 8.48645 0.02806
C 33.06413 6.42764 -0.00069
C 34.34949 17.11769 0.00648
C 34.33905 15.73204 0.02114
C 1.18801 15.02408 -0.02957
C 1.08101 13.48649 0.00343
C 34.18294 12.81785 -0.02656
C 34.19717 11.39584 -0.02442
C 1.06367 10.72002 -0.00027
C 1.20973 17.81354 0.01223
C 1.02082 9.29736 -0.00583
C 34.1972 7.20459 -0.02849
C 1.02273 6.50394 0.02931
C 1.04482 5.0939 0.00628
C 34.35034 4.32921 -0.0345
C 0.00245 2.88892 -0.00931
C 1.12589 2.19223 -0.00939
C 1.18068 0.68819 -0.00468
C 34.12349 8.59452 -0.02302
C 1.31061 19.27015 -0.01678
C 34.42632 19.94321 0.01951
C 0.13498 21.33027 -0.02213
C 33.10813 4.98157 0.04926
C 31.87559 4.23003 -0.03838
C 31.93934 2.83389 0.00349
C 33.18456 2.21016 -0.00323
C 33.17114 0.69426 -0.00841
C 31.86176 34.06512 0.0001
C 34.4255 32.7552 -0.02927
C 1.19127 32.00619 -0.01404
C 1.16428 30.62843 0.01027
C 34.41109 29.84075 0.01831
C 34.39709 28.34055 -0.01037
C 1.25609 27.61488 -0.00439
C 1.18477 26.27508 -0.00598
C 34.37254 25.54506 -0.05239
C 0.02622 24.11737 0.03076
C 1.21169 23.41733 0.00723
C 1.39433 22.07403 0.02712
C 31.80769 7.10905 0.01504
C 29.40964 25.54846 0.0101
C 30.65545 26.25791 -0.00669
C 30.61927 27.67488 0.03531
C 23.35507 30.5055 -0.00498
C 22.12828 29.76298 0.00135
C 22.18157 28.34955 0.03102
C 23.33019 27.51639 0.02555
C 23.31459 26.14645 0.01423
C 22.09603 25.41612 -0.00285
C 22.14864 23.96465 -0.009
C 23.35672 31.90613 0.02737
C 23.3268 23.43464 -0.01199
C 23.46547 6.61677 -0.00938
C 23.36179 5.05981 -0.0264
C 22.1612 4.31581 -0.01154
C 22.14332 2.90497 0.00684
C 23.38496 2.10846 -0.01052
C 23.31707 0.69616 -0.01679
C 22.01803 0.05995 0.00367
C 22.16017 7.14303 -0.00229
C 22.05089 32.69424 0.02117
C 19.63273 0.07163 -0.04078
C 20.85391 0.74092 0.03005
C 17.20882 0.05433 -0.02845
C 19.69321 32.69924 -0.03213
C 20.97262 31.87026 0.02239
C 20.92754 30.45533 0.01153
C 19.73789 29.74972 0.02734
C 19.66751 28.37937 -0.0055
C 20.93355 27.71289 0.01515
C 20.88554 26.23823 -0.00225
C 19.69754 25.53595 0.00071
C 19.76448 24.13856 -0.01107
C 20.86688 23.42807 -0.01586
C 19.60522 6.95761 -0.01971
C 20.89707 6.59052 -0.02118
C 20.88124 5.16218 0.00733
C 19.60436 4.30146 -0.00178
C 19.62544 2.8096 0.00768
C 20.89804 2.16338 -0.0276
C 24.64893 32.62791 0.04306
C 25.77063 31.86426 0.00996
C 25.73476 30.43712 0.00195
C 24.5874 29.72955 -0.00802
C 26.97234 25.47675 0.01259
C 27.02369 23.97863 0.01799
C 28.38959 23.31299 0.01699
C 28.56196 21.90077 -0.00416
C 27.13578 7.00936 0.01177
C 28.27999 6.31356 0.04266
C 28.29539 4.86518 0.01324
C 27.03097 4.18613 0.0014
C 27.074 2.76759 0.00924
C 28.24351 2.03975 0.02326
C 28.21198 0.65638 0.00261
C 26.96511 34.05934 0.03265
C 29.40358 32.62713 -0.02049
C 30.67197 31.93468 -0.01854
C 30.71876 30.46982 -0.01415
C 29.48068 29.80842 -0.03039
C 29.46942 28.3972 0.01836
C 28.19519 26.34265 0.01495
C 3.59473 32.01569 0.01572
C 28.15397 27.75384 0.00235
C 27.0229 29.75227 0.02198
C 24.53121 28.33211 -0.00218
C 25.7439 27.64734 -0.01654
C 25.73133 26.17102 -0.00037
C 24.58279 25.4154 -0.0032
C 24.61768 23.90563 0.00622
C 25.84714 23.33974 -0.02815
C 24.66755 7.17599 -0.00942
C 25.82395 6.44017 0.00487
C 25.82562 4.91847 0.00826
C 24.57824 4.27299 -0.00294
C 24.54087 2.84163 0.00152
C 25.82473 2.10102 0.01257
C 25.7795 0.65078 0.02316
C 24.52889 34.02398 0.04185
C 27.07198 32.65819 0.00194
C 28.20458 31.89562 -0.00621
C 28.25552 30.47073 0.02611
C 26.96362 28.39542 0.01094
C 2.41087 32.71234 -0.00095
