365
Graphene
C 34.39149 0.01534 0.01295
C 11.1751 10.65339 0.00052
C 11.07357 9.20641 -0.03682
C 9.78458 8.54992 0.01965
C 9.8674 7.1742 0.02058
C 11.09075 6.40674 -0.01957
C 10.98457 4.97655 -0.0108
C 9.80933 4.23777 -0.00368
C 9.80091 2.79518 -0.02696
C 9.87008 11.31348 0.00374
C 11.03004 2.08818 -0.00114
C 9.80434 0.03977 0.00798
C 12.39999 32.61953 0.00422
C 13.5918 31.92919 0.0351
C 13.50508 30.57222 -0.03113
C 12.34515 29.81512 0.02098
C 12.33948 28.45266 0.01848
C 13.66835 27.5252 -0.00619
C 13.35111 26.17644 -0.02162
C 11.07328 0.69752 0.00228
C 9.83097 12.64665 -0.02813
C 11.09637 13.40792 -0.01952
C 11.079 14.91817 0.05265
C 8.56135 0.69144 0.02894
C 7.32954 0.02807 -0.01789
C 9.84361 32.72065 0.00444
C 11.11364 31.99878 -0.00925
C 11.0456 30.59768 0.01877
C 9.79569 29.89807 0.01363
C 9.83319 28.46782 -0.02162
C 11.10849 27.75035 0.00415
C 11.00431 26.31223 -0.0014
C 9.77871 25.6277 0.02162
C 9.84146 24.26404 0.0076
C 11.06333 23.42704 0.01241
C 11.0518 22.10145 -0.01454
C 9.87223 21.26071 0.01945
C 9.89008 19.79385 0.01416
C 11.09734 19.12513 0.03542
C 11.09275 17.74112 0.02299
C 9.86067 16.94489 0.00244
C 9.78343 15.54947 -0.01717
C 12.20917 25.47386 0.00889
C 12.33292 24.08215 -0.00481
C 13.59974 23.56185 0.00979
C 13.65668 22.13043 0.01443
C 14.85392 21.41676 -0.03557
C 14.78933 19.93728 0.03754
C 15.98021 19.39083 0.01739
C 14.58762 8.36808 0.00755
C 14.83311 7.06947 -0.0054
C 16.0772 6.392 0.00667
C 15.9738 5.02697 0.00143
C 14.72407 4.287 -0.017
C 14.72363 2.82283 0.00364
C 15.9761 2.21684 -0.00831
C 15.90557 0.71284 -0.02957
C 14.74226 0.04388 -0.04422
C 17.18059 32.60544 0.00654
C 18.4124 31.86859 -0.00703
C 18.38 30.45139 -0.04076
C 17.1566 29.84266 -0.00652
C 18.37554 21.84257 0.0058
C 17.39557 21.06573 -0.00865
C 17.17092 19.74492 0.00675
C 14.66551 28.40451 -0.00111
C 8.56117 2.11823 -0.02971
C 14.74905 29.81246 0.04892
C 16.0202 31.90817 -0.01581
C 12.37716 21.34665 0.03505
C 12.37444 19.91194 -0.02815
C 13.55299 19.18871 -0.04147
C 13.5688 17.81164 -0.05302
C 12.48699 16.96738 0.00213
C 12.21036 15.64418 -0.00066
C 12.2829 12.75431 -0.00289
C 12.2291 11.47143 0.00028
C 13.49152 9.00819 -0.02213
C 12.26109 8.56035 0.03698
C 12.37606 7.16544 -0.00109
C 13.52847 6.39903 -0.00491
C 13.49215 4.99971 0.03338
C 12.23917 4.27421 -0.0258
C 12.23659 2.84515 -0.0331
C 13.49095 2.14668 -0.00316
C 13.55677 0.7165 0.02188
C 12.36723 33.9758 -0.01979
C 14.73499 32.6905 0.02691
C 15.94999 30.54189 0.01452
C 7.31986 2.86017 0.00165
C 7.31853 4.24677 0.02819
C 8.50732 4.93703 -0.00891
C 3.71245 6.45863 0.00848
C 3.70418 5.00358 -0.01303
C 2.46498 4.27035 -0.01378
C 2.48275 2.83217 0.02635
C 3.66474 2.18541 0.0127
C 3.61312 0.7267 0.01396
C 2.42177 33.9827 0.01849
C 4.91291 32.67752 -0.01142
C 6.14454 32.02215 -0.00562
C 6.16367 30.50965 -0.00494
C 4.96124 29.78662 0.00054
C 4.94292 28.40216 0.03007
C 6.13487 27.73891 -0.00095
C 6.14738 26.2495 0.01572
C 4.9328 25.59682 -0.04848
C 4.91535 24.12872 -0.00892
C 6.14248 23.43093 -0.01362
C 6.11603 22.04163 -0.0008
C 4.90548 21.29798 0.0288
C 2.40541 7.12196 -0.00049
C 4.8806 19.8999 0.00393
C 2.43291 8.56261 0.00873
C 3.71582 10.70634 -0.03337
C 3.70919 30.54278 -0.00518
C 2.46217 29.80824 0.0086
C 2.52394 28.41759 -0.00643
C 3.67203 27.62901 0.017
C 3.67781 26.22093 -0.03113
C 2.41997 25.64821 -0.02566
C 2.39125 24.12403 -0.00094
C 3.63461 23.51859 0.02322
C 3.58046 22.12582 -0.00725
C 2.45703 21.26553 -0.05697
C 2.47806 19.84565 0.01087
C 3.72584 19.12179 -0.01343
C 3.64852 17.70265 0.00988
C 2.47141 17.05557 0.0276
C 2.39233 15.5562 0.01305
C 3.68138 14.97769 -0.00077
C 3.70611 13.59814 0.03368
C 2.45468 12.78354 -0.02929
C 2.45166 11.46585 -0.00966
C 3.62622 9.30463 0.01227
C 17.18187 7.17752 -0.00311
C 6.15832 19.229 0.00895
C 4.99438 17.10484 0.02888
C 7.34617 25.54417 -0.01062
C 7.40491 24.11676 -0.00033
C 8.63316 23.4444 0.03589
C 8.65789 22.04959 -0.02759
C 7.37847 21.38388 0.0402
C 7.37103 19.95483 0.00572
C 8.66847 19.21311 0.03592
C 8.6527 17.81268 0.00406
C 7.45198 17.09728 0.00943
C 7.41701 15.60535 0.02841
C 8.61398 14.85775 -0.01111
C 8.51376 13.32798 -0.01275
C 7.2612 12.73295 0.00985
C 7.34716 11.40145 -0.02245
C 8.52574 10.59423 -0.00428
C 8.55235 9.19741 0.03101
C 7.36582 8.52909 -0.01536
C 7.36917 7.14023 -0.02689
C 8.64761 6.32554 -0.01046
C 8.54185 26.26447 0.01364
C 6.22688 17.80228 0.00685
C 8.57755 27.71077 -0.00719
C 7.35088 29.80189 0.02339
C 4.89186 15.68493 -0.00482
C 6.16649 15.01409 -0.01384
C 6.12948 13.57373 0.03693
C 4.86172 12.90337 0.01745
C 4.88688 11.42566 0.00488
C 6.09338 10.68347 -0.01004
C 6.12779 9.26487 -0.02896
C 4.93201 8.58476 -0.00131
C 4.87183 7.2025 -0.01118
C 6.11696 6.43698 -0.014
C 6.15942 5.00298 0.02147
C 4.90332 4.22111 0.00373
C 4.89705 2.84544 -0.00191
C 6.09839 2.16883 0.00438
C 6.06341 0.74827 0.01291
C 4.85148 0.03677 0.00093
C 7.30544 32.73366 0.00057
C 8.61207 32.03785 -0.01634
C 8.57229 30.55544 -0.00334
C 7.34686 28.41925 0.01641
C 3.746 31.92496 -0.00074
C 18.42165 6.57005 0.00742
C 17.25413 4.29284 0.0106
C 30.70893 4.93574 0.00346
C 29.57822 4.2683 0.01713
C 29.48468 2.80235 -0.01694
C 30.74691 2.1335 0.01428
C 30.72617 0.73129 -0.02142
C 29.5045 0.02984 0.0544
C 31.90991 32.68576 0.00026
C 33.10161 31.98634 0.00682
C 30.76262 6.29533 0.00307
C 33.23792 30.53131 -0.01779
C 31.98308 28.46523 0.01927
C 33.13337 27.71721 0.01574
C 33.14565 26.34247 -0.02383
C 31.93583 25.5822 -0.01429
C 31.96931 24.13062 -0.0136
C 33.17237 23.48143 0.00594
C 33.15337 22.01808 -0.02474
C 31.95021 21.35507 0.00369
C 32.00724 29.86767 0.03794
C 29.52816 17.11897 0.00716
C 30.73594 17.73392 0.02108
C 30.69929 19.22733 0.0103
C 28.36055 4.87544 -0.02049
C 27.09537 4.2583 -0.01854
C 27.06389 2.81354 -0.01415
C 28.24973 2.12184 -0.03039
C 28.27832 0.76499 0.01836
C 27.15399 0.03279 0.03531
C 29.44225 32.73322 -0.00669
C 30.65416 31.9635 0.0101
C 30.73491 30.52719 0.01705
C 29.57111 29.78042 -0.0405
C 29.525 28.34993 -0.01303
C 30.76385 27.65224 -0.01461
C 30.72382 26.24792 -0.02155
C 29.46889 25.60689 -0.00944
C 29.53324 24.06277 -0.03735
C 30.71597 23.39257 -0.00971
C 30.72067 21.98197 0.01518
C 29.46339 21.25455 0.01908
C 29.502 19.89 0.07705
C 32.00122 19.90612 0.00455
C 33.20768 19.14953 -0.00644
C 33.2015 17.73296 -0.01839
C 31.91514 17.04038 0.00137
C 0.01762 19.84033 0.01951
C 1.22717 19.14744 -0.01678
C 1.20225 17.79341 0.01223
C 34.424 16.9744 0.00648
C 34.42273 15.58419 0.02114
C 1.23972 14.84836 -0.02957
C 1.2185 13.46186 0.00343
C 34.29527 12.75104 -0.02656
C 0.03456 11.36119 -0.02442
C 1.20475 10.65612 -0.00027
C 1.24539 9.32906 -0.00583
C 0.05324 8.58118 -0.02302
C 34.3455 7.21867 -0.02849
C 1.19048 6.48394 0.02931
C 1.29727 5.06343 0.00628
C 0.01879 4.30894 -0.0345
C 0.00171 2.90957 -0.00931
C 1.24599 2.18029 -0.00939
C 1.21398 0.66656 -0.00468
C 34.38832 21.29368 -0.02213
C 27.04415 17.20793 0.03265
C 1.22804 22.04027 0.02712
C 0.01257 24.22167 0.03076
C 32.02411 15.66227 0.00199
C 33.11397 14.81443 0.04381
C 33.14601 13.48105 0.02806
C 31.88952 7.01479 0.01504
C 33.08289 6.48478 -0.00069
C 33.20787 4.99362 0.04926
C 31.95784 4.30988 -0.03838
C 31.93669 2.78223 0.00349
C 33.20585 2.1758 -0.00323
C 33.20466 0.78944 -0.00841
C 31.95162 0.03755 0.0001
C 34.33545 32.7184 -0.02927
C 1.16638 31.92831 -0.01404
C 1.26534 30.52186 0.01027
C 0.03781 29.87512 0.01831
C 34.40033 28.4328 -0.01037
C 1.25476 27.75461 -0.00439
C 1.16884 26.37004 -0.00598
C 34.41541 25.57642 -0.05239
C 1.18628 23.4115 0.00723
C 28.33276 17.65013 0.00261
C 28.23174 19.19214 0.02326
C 27.006 19.9742 0.00924
C 19.63206 34.01394 -0.0055
C 22.12853 32.6727 0.01515
C 23.33813 32.00287 -0.00225
C 23.30433 30.58342 0.00071
C 22.12052 29.77001 -0.01107
C 22.003 28.37746 -0.01586
C 23.24759 27.6319 -0.01971
C 23.373 26.20958 -0.02118
C 22.09591 25.50574 0.00733
C 22.00595 24.12299 -0.00178
C 23.26317 23.35824 0.00768
C 23.30753 21.90409 -0.0276
C 22.09169 21.12471 0.03005
C 22.10794 19.7661 -0.04078
C 23.35325 19.00764 0.02117
C 23.43852 17.66895 0.02737
C 23.47594 10.61739 -0.00498
C 23.37861 9.26645 0.00135
C 22.14516 8.44744 0.03102
C 20.98549 0.62732 0.02734
C 22.11381 7.11679 0.02555
C 20.89128 1.97415 0.01153
C 19.72678 4.18552 -0.03213
C 17.22576 2.8844 -0.01154
C 18.46624 2.07096 -0.01721
C 18.4405 0.69542 -0.02422
C 17.19203 0.00745 0.01277
C 19.63879 32.65865 0.00096
C 20.90886 31.92242 -0.01527
C 20.89069 30.55417 0.01087
C 19.68296 29.76971 0.00199
C 19.51345 28.38871 0.01511
C 20.57998 27.55893 -0.00478
C 20.93563 26.22736 -0.01662
C 20.94865 23.33891 -0.01185
C 20.8645 21.97194 0.01126
C 19.62817 21.25586 0.01852
C 19.72671 19.86223 -0.00381
C 20.87768 19.18813 0.03046
C 19.66075 6.90403 0.0296
C 20.90562 6.36346 0.03374
C 20.94584 4.89692 -0.02845
C 19.64792 2.75101 0.02239
C 18.42617 5.02822 -0.01594
C 23.35595 6.36437 0.01423
C 22.12202 4.21639 -0.009
C 25.85426 6.33499 0.00152
C 25.91477 4.97945 0.01257
C 24.62686 4.29668 0.02316
C 24.61808 2.8973 0.04185
C 25.82809 2.15326 0.00194
C 25.8942 0.76144 -0.00621
C 24.65751 0.02366 0.02611
C 27.06367 32.63443 0.02198
C 28.27847 31.89287 0.01094
C 28.32126 30.49551 0.00235
C 27.07497 29.81596 0.01495
C 26.96671 28.40079 0.01259
C 28.2784 27.68537 0.01799
C 28.27915 26.32898 0.01699
C 26.99961 25.61863 -0.00416
C 26.99297 24.18881 0.01177
C 28.20488 23.50228 0.04266
C 28.20674 22.05628 0.01324
C 27.01942 21.36783 0.0014
C 24.6611 7.09295 -0.00294
C 23.36876 4.91071 -0.00285
C 24.59741 8.46859 0.00826
C 24.61354 17.0105 -0.00942
C 22.0835 2.83735 -0.01199
C 23.33204 2.12362 -0.00229
C 23.52154 0.76299 -0.00938
C 22.15356 34.00544 -0.0264
C 24.58183 32.66857 -0.01154
C 25.82147 31.964 0.00684
C 25.76732 30.56916 -0.01052
C 24.52303 29.83478 -0.01679
C 24.49478 28.3995 0.00367
C 25.71168 27.71899 0.04306
C 25.74892 26.27717 0.00996
C 24.47912 25.49951 0.00195
C 24.48434 24.06526 -0.00802
C 25.69683 23.43353 -0.00218
C 25.75951 22.03347 -0.01654
C 24.5512 21.31395 -0.00037
C 24.54245 19.84179 -0.0032
C 25.80723 19.22437 0.00622
C 25.90411 17.82628 -0.02815
C 24.51015 15.65036 0.00487
C 2.4224 32.62259 0.01465
