302
Graphene
C 34.32312 0.05571 0.01295
C 12.16146 25.45398 0.04892
C 13.76084 6.56208 -0.00111
C 13.68655 5.17176 -0.03557
C 12.35979 4.40419 0.03754
C 12.31709 3.02198 0.01739
C 13.51483 2.29851 0.00755
C 13.50879 26.03912 0.01452
C 13.51224 0.80654 -0.0054
C 14.70954 32.64405 0.00143
C 15.90486 31.90533 -0.017
C 15.91673 30.4595 0.00364
C 14.70125 29.67459 -0.00831
C 14.66287 28.20748 -0.02957
C 15.92314 27.62344 -0.04422
C 12.35969 34.03015 0.00667
C 13.43471 27.51354 -0.01581
C 12.26625 28.20079 0.02691
C 12.26344 29.68989 -0.01979
C 11.00108 27.54999 -0.04147
C 10.98385 26.09459 -0.05302
C 9.66005 25.44955 0.00213
C 8.93974 23.99098 -0.00066
C 9.88379 7.29771 -0.00289
C 10.96174 6.49981 0.00028
C 11.10895 5.13047 -0.02213
C 9.87724 4.34864 0.03698
C 9.88024 2.93419 -0.00109
C 11.12094 2.28025 -0.00491
C 11.22026 0.83238 0.03338
C 9.83771 0.11497 -0.0258
C 12.27692 32.61911 -0.0331
C 13.50615 31.90442 -0.00316
C 13.49112 30.47982 0.02188
C 15.97962 26.23333 0.00654
C 14.94514 25.35904 -0.00703
C 15.76976 6.4887 -0.04076
C 16.07025 5.08803 -0.00652
C 17.23753 2.85094 0.01126
C 18.4937 2.09687 0.01852
C 18.42683 0.65004 -0.00381
C 17.19669 34.05099 0.03046
C 19.72882 32.64513 0.0296
C 20.95408 31.89917 0.03374
C 20.85651 30.51207 -0.02845
C 19.62012 29.82612 -0.03213
C 19.60592 28.36992 0.02239
C 20.87493 27.64167 0.01153
C 20.86305 26.22858 0.02734
C 19.60277 25.51171 -0.0055
C 19.66074 24.16534 0.01515
C 20.84447 23.58767 -0.00225
C 20.74087 22.08165 0.00071
C 17.3251 4.2746 -0.01185
C 9.78912 28.33287 -0.02815
C 18.61442 4.90271 -0.01662
C 17.10819 6.96304 0.01511
C 14.89862 4.36301 0.0058
C 14.75235 2.99998 -0.00865
C 15.99439 2.2582 0.00675
C 16.00305 0.79991 -0.00311
C 14.75208 34.06265 0.00742
C 17.16199 32.64878 -0.01594
C 18.44096 31.97058 0.0106
C 18.37521 30.52619 -0.01154
C 17.13852 29.80467 -0.01721
C 17.18068 28.34349 -0.02422
C 18.43458 27.68005 0.01277
C 18.47124 26.27066 0.00096
C 17.25619 25.59906 -0.01527
C 17.42234 24.05524 0.01087
C 18.53987 23.37229 0.00199
C 18.35149 6.40881 -0.00478
C 9.8222 29.74578 0.03505
C 11.05329 30.3397 0.01443
C 11.05019 31.82958 0.00979
C 3.7179 10.70777 -0.02245
C 3.62096 9.19192 -0.00428
C 2.35403 8.51023 0.03101
C 2.36584 7.13179 -0.01536
C 3.59154 6.36868 -0.02689
C 3.66289 4.91598 -0.01046
C 2.35232 4.28019 -0.00891
C 2.41794 2.88616 0.02819
C 3.64714 2.2036 0.00165
C 3.60652 0.79602 -0.02971
C 2.4192 0.07998 0.02894
C 4.8318 32.69021 -0.01789
C 6.11833 31.99519 0.00444
C 6.07241 30.53379 -0.00925
C 4.84199 29.80729 0.01877
C 2.44989 11.42084 0.00985
C 4.8925 28.35534 0.01363
C 2.41468 12.74874 -0.01275
C 3.70973 14.83713 0.02841
C 3.61083 30.54963 -0.01634
C 2.39136 29.8388 -0.00334
C 2.42709 28.36466 0.02339
C 3.66264 27.67672 0.01641
C 3.7099 26.21802 -0.00719
C 2.48507 25.54118 0.01364
C 2.5107 24.06779 -0.01062
C 3.83046 23.46858 -0.00033
C 3.74659 22.0391 0.03589
C 2.37156 21.34955 -0.02759
C 2.43557 19.90168 0.0402
C 3.60627 19.18492 0.00572
C 3.62188 17.84237 0.03592
C 2.48097 17.0922 0.00406
C 2.56746 15.73935 0.00943
C 3.56641 13.46386 -0.01111
C 19.45596 21.57837 -0.01107
C 6.11565 27.67917 -0.02162
C 4.96119 25.54184 -0.0014
C 7.29857 28.38269 -0.0108
C 8.55415 27.66675 -0.00368
C 8.62237 26.2595 -0.02696
C 7.3988 25.65154 -0.00114
C 7.67338 24.21104 0.00228
C 7.09351 8.65523 0.00798
C 7.3496 7.13933 0.00422
C 8.62512 6.58783 0.0351
C 8.61433 5.0387 -0.03113
C 7.35851 4.34762 0.02098
C 7.40647 2.94315 0.01848
C 8.6078 2.18337 -0.00619
C 8.60739 0.76886 -0.02162
C 7.33832 0.0455 0.00889
C 9.85262 32.67393 -0.00481
C 7.35034 29.8375 -0.01957
C 6.19617 26.21123 0.00415
C 8.62102 30.49908 0.02058
C 7.34584 32.71893 -0.03682
C 5.14547 24.08893 0.02162
C 6.47979 23.45273 0.0076
C 6.14452 22.16435 0.01241
C 4.94941 21.38948 -0.01454
C 4.98412 11.12425 0.01945
C 6.01747 9.35388 0.01416
C 4.82695 8.48893 0.03542
C 4.81902 7.04758 0.02299
C 6.11118 6.4053 0.00244
C 6.18554 5.03539 -0.01717
C 4.95886 4.3028 0.05265
C 4.98219 2.86929 -0.01952
C 6.20512 2.16822 -0.02813
C 6.07965 0.76079 0.00374
C 4.83699 0.10383 0.00052
C 8.58726 31.93032 0.01965
C 19.86917 4.24114 -0.01586
C 19.71881 2.76956 -0.01971
C 20.9203 2.02822 -0.02118
C 33.18746 21.97717 0.01574
C 31.93828 21.27681 -0.02383
C 31.9009 19.90409 -0.01429
C 33.13866 19.17988 -0.0136
C 33.1974 17.73109 0.00594
C 31.91277 17.02046 -0.02474
C 31.95836 15.6309 0.00369
C 33.18329 14.90508 0.00455
C 33.18037 13.53431 -0.00644
C 31.87752 12.72078 -0.01839
C 31.94425 11.29619 0.00137
C 33.23705 10.74112 0.00199
C 33.17948 9.31651 0.04381
C 31.98578 8.55191 0.02806
C 32.04146 7.27783 0.01504
C 33.13914 23.36605 0.01927
C 33.1324 6.50505 -0.00069
C 31.9609 24.12739 0.03794
C 33.16266 26.31934 0.00682
C 29.49496 17.11762 -0.00971
C 29.2909 15.74786 0.01518
C 30.53901 14.95357 0.01908
C 30.76036 13.55904 0.07705
C 30.51312 4.93304 0.0103
C 29.36412 3.02184 0.02108
C 30.66016 2.29556 0.00716
C 30.64605 0.8451 0.00307
C 29.43233 0.0901 0.00346
C 31.88378 32.77079 0.01713
C 33.07292 32.04591 -0.01694
C 33.07723 30.60098 0.01428
C 31.93443 29.86736 -0.02142
C 31.92219 28.43335 0.0544
C 33.16403 27.71096 0.00026
C 31.99879 25.57638 -0.01779
C 30.72362 17.75758 -0.03735
C 33.06697 5.07077 0.04926
C 31.88315 2.94911 0.00349
C 0.0307 15.66579 0.02114
C 1.25581 14.96173 -0.02957
C 1.2079 13.53023 0.00343
C 34.38526 12.86559 -0.02656
C 0.05419 11.48497 -0.02442
C 1.23386 10.62935 -0.00027
C 1.16726 9.26856 -0.00583
C 34.37417 8.59032 -0.02302
C 34.34906 7.20568 -0.02849
C 1.12816 6.45769 0.02931
C 1.14659 5.03875 0.00628
C 34.29418 4.36376 -0.0345
C 34.29194 2.92161 -0.00931
C 1.1229 2.23333 -0.00939
C 1.12343 0.82497 -0.00468
C 34.42972 17.07086 0.00648
C 31.75824 4.38729 -0.03838
C 1.2206 17.76949 0.01223
C 34.38264 19.87582 0.01951
C 33.07957 2.27843 -0.00323
C 33.1071 0.84581 -0.00841
C 31.8692 0.08114 0.0001
C 34.3415 32.71477 -0.02927
C 1.16278 32.0596 -0.01404
C 1.19879 30.63729 0.01027
C 34.37592 29.91962 0.01831
C 34.3694 28.37611 -0.01037
C 1.18152 27.75697 -0.00439
C 1.20398 26.22842 -0.00598
C 34.33902 25.60137 -0.05239
C 34.38169 24.15282 0.03076
C 1.24283 23.41781 0.00723
C 1.16622 22.02519 0.02712
C 34.38598 21.28582 -0.02213
C 1.15448 19.18326 -0.01678
C 3.57878 31.98123 0.00057
C 30.67037 19.2783 -0.00944
C 29.38537 21.3063 -0.01461
C 22.26232 2.68828 -0.01154
C 23.55208 2.0373 0.00684
C 23.34518 0.62268 -0.01052
C 22.10791 34.03234 -0.01679
C 24.6436 32.64148 0.00367
C 25.80405 31.97836 0.04306
C 25.85598 30.54576 0.00996
C 24.59503 29.78329 0.00195
C 24.61082 28.3611 -0.00802
C 25.79827 27.64036 -0.00218
C 25.80047 26.22561 -0.01654
C 24.55882 25.61048 -0.00037
C 24.49631 24.10411 -0.0032
C 25.79673 23.45966 0.00622
C 25.70729 22.03399 -0.02815
C 21.71586 15.41249 -0.0264
C 24.51265 21.27729 -0.00942
C 22.37463 16.55755 -0.00938
C 23.20443 19.2394 -0.01199
C 20.93519 0.58733 0.00733
C 19.66107 0.04806 -0.00178
C 22.14248 32.5841 0.00768
C 23.39096 31.97441 -0.0276
C 23.33062 30.50211 0.03005
C 22.15717 29.78683 -0.04078
C 22.07115 28.4046 0.02117
C 23.31809 27.76108 0.02737
C 23.28747 26.30337 -0.00498
C 22.10726 25.5937 0.00135
C 22.06797 24.1964 0.03102
C 23.2956 23.49049 0.02555
C 23.31646 22.06007 0.01423
C 22.02912 21.35772 -0.00285
C 22.06339 19.92895 -0.009
C 23.16565 17.78834 -0.00229
C 29.42435 19.9246 -0.02155
C 24.56553 19.83587 0.00487
C 25.79366 17.56496 -0.00294
C 27.10546 16.8752 0.00924
C 28.24129 2.36923 0.02326
C 28.24597 0.83785 0.00261
C 26.97842 0.11566 0.03265
C 29.45642 32.74221 -0.02049
C 30.68701 31.9745 -0.01854
C 30.78065 30.53956 -0.01415
C 29.50659 29.91735 -0.03039
C 29.45954 28.51742 0.01836
C 30.70059 27.72442 0.03531
C 30.72267 26.2549 -0.00669
C 29.50818 25.59641 0.0101
C 29.47699 24.18369 0.01705
C 30.66256 23.46296 -0.0405
C 30.67029 21.98302 -0.01303
C 28.2813 17.77066 0.0014
C 25.77131 18.99794 0.00826
C 28.239 19.16887 0.01324
C 26.8994 21.25681 0.01177
C 24.31574 17.14796 0.00152
C 25.52997 2.13017 0.01257
C 25.74024 0.85756 0.02316
C 24.57274 34.07415 0.04185
C 27.02517 32.72159 0.00194
C 28.23083 31.99993 -0.00621
C 28.28881 30.5969 0.02611
C 27.05419 29.83163 0.02198
C 26.99234 28.40382 0.01094
C 28.24342 27.72172 0.00235
C 28.32667 26.3155 0.01495
C 27.04581 25.61962 0.01259
C 27.01536 24.19798 0.01799
C 28.23699 23.46512 0.01699
C 28.11851 22.02995 -0.00416
C 26.96861 19.8421 0.04266
C 2.40749 32.73397 0.00093
