372
Graphene
C 34.33631 34.05424 0.01295
C 14.70661 4.30504 0.00244
C 14.76222 2.85024 -0.01717
C 16.01536 2.18497 0.05265
C 16.0421 0.82683 -0.01952
C 14.80539 0.07329 -0.02813
C 17.18553 32.67736 0.00374
C 18.34768 31.87578 0.00052
C 18.39299 30.44673 -0.03682
C 17.17072 29.74807 0.01965
C 17.2656 28.21758 0.02058
C 18.48836 27.56865 -0.01957
C 18.4227 26.18613 -0.0108
C 17.06632 25.50226 -0.00368
C 17.2991 24.12988 -0.02696
C 18.44473 23.54647 -0.00114
C 18.54986 14.64411 0.00228
C 18.24435 13.35171 0.00798
C 17.11964 12.62273 0.00422
C 17.13831 11.27509 0.0351
C 16.08354 4.9879 0.02299
C 18.44938 10.58589 -0.03113
C 16.02358 6.41343 0.03542
C 14.7065 8.49019 0.01945
C 12.31837 8.49225 -0.02689
C 12.25462 7.06963 -0.01046
C 13.51202 6.41748 -0.00891
C 13.4979 5.03181 0.02819
C 12.27511 4.27214 0.00165
C 12.28583 2.87136 -0.02971
C 13.50718 2.17616 0.02894
C 13.54963 0.78303 -0.01789
C 12.32742 0.02051 0.00444
C 14.79552 32.72514 -0.00925
C 15.99232 31.92446 0.01877
C 15.97613 30.58916 0.01363
C 14.80774 29.84504 -0.02162
C 14.90874 28.39712 0.00415
C 16.01772 27.53638 -0.0014
C 15.94725 26.21133 0.02162
C 14.72065 11.20369 0.0076
C 15.88724 10.66852 0.01241
C 15.96178 9.23337 -0.01454
C 14.73897 7.12303 0.01416
C 18.41174 9.21536 0.02098
C 17.18753 8.52816 0.01848
C 17.24608 7.11118 -0.00619
C 20.81731 14.87449 -0.01581
C 20.86112 13.48129 0.01452
C 19.66477 12.75936 0.04892
C 19.73163 11.34167 -0.00111
C 20.93582 10.52771 -0.03557
C 20.99931 9.17201 0.03754
C 19.74576 8.4947 0.01739
C 19.67215 7.08286 0.00755
C 20.87126 6.37706 -0.0054
C 20.90509 4.93607 0.00667
C 19.76277 4.25944 0.00143
C 19.7033 2.8278 -0.017
C 20.85179 2.06548 0.00364
C 20.81628 0.59622 -0.00831
C 19.6299 33.99815 -0.02957
C 22.11617 32.59493 -0.04422
C 23.30545 31.92702 0.00654
C 23.3268 30.48383 -0.00703
C 22.13199 29.75948 -0.04076
C 19.38371 15.70156 0.02691
C 19.53594 17.08673 -0.01979
C 20.85774 17.63908 0.02188
C 20.75832 19.08813 -0.00316
C 18.48016 6.35421 -0.02162
C 18.50269 4.99519 0.00889
C 17.25406 4.27769 -0.00481
C 17.22175 2.85858 0.00979
C 18.48304 2.17803 0.01443
C 18.4746 0.72338 0.03505
C 17.27211 0.08728 -0.02815
C 19.60442 32.60116 -0.04147
C 20.8726 31.93581 -0.05302
C 13.44886 9.27614 -0.01536
C 20.83676 30.49003 0.00213
C 19.71037 28.43631 -0.00289
C 20.91119 27.69548 0.00028
C 20.889 26.2566 -0.02213
C 19.66667 25.54766 0.03698
C 19.75079 24.12541 -0.00109
C 20.89352 23.39931 -0.00491
C 20.73157 22.04189 0.03338
C 19.70328 21.28743 -0.0258
C 19.63129 19.83897 -0.0331
C 19.64192 29.83082 -0.00066
C 22.1064 28.40355 -0.00652
C 13.49244 10.68111 0.03101
C 12.40565 28.33132 -0.02245
C 2.37963 4.2347 0.03368
C 2.4072 2.78836 -0.02929
C 3.61966 2.17654 -0.00966
C 3.66721 0.71571 -0.03337
C 2.42489 34.07294 0.01227
C 4.90032 32.68347 0.00873
C 6.12034 32.07406 -0.00049
C 6.14644 30.55265 0.00848
C 4.91051 29.82932 -0.01303
C 4.82081 28.46913 -0.01378
C 6.0667 27.81976 0.02635
C 6.12042 26.43793 0.0127
C 5.02878 25.56652 0.01396
C 4.83502 24.2051 0.01849
C 4.91187 12.90085 -0.01142
C 4.87447 11.51161 -0.00562
C 6.14446 10.7835 -0.00494
C 6.13454 9.36917 0.00054
C 4.94804 8.58141 0.03007
C 3.62529 4.96654 -0.00077
C 4.92845 7.08855 -0.00095
C 3.66843 6.41497 0.01305
C 2.49251 8.53991 0.00988
C 3.65905 30.59903 0.03828
C 2.37673 29.90498 0.01226
C 2.36822 28.51042 -0.00279
C 3.67746 27.68883 0.01996
C 3.72576 26.20161 -0.03996
C 2.46001 25.55668 0.01465
C 2.41517 24.15144 -0.00074
C 3.78068 23.33753 -0.00518
C 3.67738 21.98885 0.0086
C 2.68166 21.17148 -0.00643
C 2.46627 19.71842 0.017
C 2.27918 17.12672 -0.03113
C 2.53887 15.73231 -0.02566
C 3.56248 14.91821 -0.00094
C 3.86219 13.65021 0.02322
C 2.47072 12.77729 -0.00725
C 2.45688 11.435 -0.05697
C 3.67749 10.71803 0.01087
C 3.70224 9.24816 -0.01343
C 2.48097 7.13021 0.0276
C 6.07932 6.37628 0.01572
C 6.08949 5.00353 -0.04848
C 4.91626 4.23988 -0.00892
C 11.05396 30.53237 -0.01634
C 9.79967 29.91076 -0.00334
C 9.76201 28.30851 0.02339
C 11.0837 27.95772 0.01641
C 10.96973 10.75236 -0.00719
C 10.99822 9.34146 0.01364
C 9.81683 8.56813 -0.01062
C 9.79277 7.08719 -0.00033
C 11.05646 6.41426 0.03589
C 11.02053 4.93291 -0.02759
C 9.73687 4.27088 0.0402
C 9.79102 2.87698 0.00572
C 11.01568 2.21845 0.03592
C 11.0958 0.76661 0.00406
C 9.84755 0.07866 0.00943
C 12.26226 32.78713 0.02841
C 13.56068 31.99145 -0.01111
C 13.59518 30.57973 -0.01275
C 12.33708 29.80057 0.00985
C 11.06773 31.99549 0.00057
C 9.84668 32.75839 0.00093
C 7.30746 0.07038 0.01291
C 8.62632 0.74113 0.00438
C 4.87259 2.80577 -0.01362
C 6.08621 2.19403 -0.0008
C 6.13333 0.7258 0.0288
C 4.91668 0.02098 0.00393
C 7.34621 32.73619 0.00895
C 8.61181 32.01763 0.00685
C 8.61369 30.61103 0.02888
C 7.37805 29.92136 -0.00482
C 7.37251 28.49543 -0.01384
C 13.70896 27.79122 -0.00428
C 8.49118 27.72225 0.03693
C 8.53745 10.67278 0.00488
C 8.66252 9.27388 -0.01004
C 7.3737 8.60097 -0.02896
C 7.26214 7.19325 -0.00131
C 8.58791 6.47537 -0.01118
C 8.51983 5.02898 -0.014
C 7.31572 4.30945 0.02147
C 7.32678 2.8811 0.00373
C 8.57829 2.16137 -0.00191
C 7.36132 11.30395 0.01745
C 23.32477 27.64816 0.0058
C 23.33319 26.3075 -0.00865
C 22.1149 25.58313 0.00675
C 30.71628 2.09397 0.00716
C 30.68061 0.67696 0.00307
C 29.49273 34.05191 0.00346
C 31.8838 32.67564 0.01713
C 33.14029 31.96382 -0.01694
C 33.15037 30.61044 0.01428
C 31.87927 29.84778 -0.02142
C 31.90292 28.45133 0.0544
C 33.1152 27.722 0.00026
C 33.20225 26.33281 0.00682
C 32.00682 25.60753 -0.01779
C 31.9651 24.19135 0.03794
C 33.18173 23.47717 0.01927
C 33.22822 22.03371 0.01574
C 32.04461 21.36233 -0.02383
C 32.03343 19.94747 -0.01429
C 33.24128 19.2431 -0.0136
C 33.16669 17.75892 0.00594
C 31.97181 16.98669 -0.02474
C 29.48187 2.93656 0.02108
C 31.9899 15.56031 0.00369
C 29.49294 4.2933 0.0103
C 30.75972 6.43533 0.01908
C 30.7583 26.33235 0.00261
C 29.56119 25.63562 0.03265
C 29.57193 24.18507 -0.02049
C 30.77893 23.4332 -0.01854
C 30.72059 22.0187 -0.01415
C 29.59363 21.36957 -0.03039
C 29.60061 19.90022 0.01836
C 30.83316 19.14117 0.03531
C 30.80877 17.66223 -0.00669
C 29.59 17.04846 0.0101
C 29.60429 15.54135 0.01705
C 30.76527 14.87231 -0.0405
C 30.79065 13.42045 -0.01303
C 29.50904 12.78523 -0.01461
C 29.4268 11.36582 -0.02155
C 30.65419 10.62745 -0.00944
C 30.68615 9.27989 -0.03735
C 29.46248 8.54574 -0.00971
C 29.45987 7.12584 0.01518
C 30.76507 5.00097 0.07705
C 33.23319 14.88496 0.00455
C 33.22785 13.47225 -0.00644
C 31.95604 12.72144 -0.01839
C 34.41523 19.92808 0.01951
C 1.24715 19.21019 -0.01678
C 1.02625 17.8253 0.01223
C 34.34075 17.07801 0.00648
C 0.02575 15.67117 0.02114
C 1.26833 14.96926 -0.02957
C 1.29905 13.58587 0.00343
C 0.00591 12.75285 -0.02656
C 0.01818 11.36052 -0.02442
C 1.217 10.67518 -0.00027
C 1.29655 9.22057 -0.00583
C 0.02119 8.48888 -0.02302
C 34.42965 7.11363 -0.02849
C 1.29433 6.47222 0.02931
C 1.22511 5.02167 0.00628
C 34.41617 4.27926 -0.0345
C 34.36683 2.83686 -0.00931
C 1.19988 2.16692 -0.00939
C 1.19456 0.69936 -0.00468
C 0.06788 21.30556 -0.02213
C 1.28002 21.95475 0.02712
C 1.29586 23.42424 0.00723
C 0.03231 24.1456 0.03076
C 31.90169 11.30457 0.00137
C 33.21626 10.66006 0.00199
C 33.24148 9.29117 0.04381
C 31.97879 8.53565 0.02806
C 31.98461 7.15092 0.01504
C 33.20284 6.41705 -0.00069
C 33.14314 5.00259 0.04926
C 31.95415 4.23902 -0.03838
C 31.97215 2.80793 0.00349
C 30.68059 27.70417 0.02326
C 33.13737 2.17034 -0.00323
C 31.93724 0.03984 0.0001
C 34.33399 32.6251 -0.02927
C 1.13377 32.00123 -0.01404
C 1.19298 30.54929 0.01027
C 34.40756 29.8668 0.01831
C 34.39053 28.47711 -0.01037
C 1.1899 27.70282 -0.00439
C 1.20846 26.32781 -0.00598
C 0.01882 25.60119 -0.05239
C 33.14601 0.76847 -0.00841
C 29.45129 28.41708 0.00924
C 29.48111 29.80255 0.0014
C 30.62669 30.55877 0.01324
C 24.49852 32.63209 0.02239
C 25.78898 31.96102 0.01153
C 25.84256 30.50887 0.02734
C 24.62039 29.81336 -0.0055
C 24.58677 28.39105 0.01515
C 25.87125 27.61719 -0.00225
C 25.82394 26.19614 0.00071
C 24.56006 25.47532 -0.01107
C 24.59038 24.0758 -0.01586
C 25.86814 23.38579 -0.01971
C 25.87486 21.98489 -0.02118
C 24.59416 21.30687 0.00733
C 24.59357 19.80044 -0.00178
C 25.87866 19.11606 0.00768
C 25.84016 17.7243 -0.0276
C 24.6028 16.98213 0.03005
C 24.63734 15.54345 -0.04078
C 25.86932 14.92306 0.02117
C 25.84174 13.51689 0.02737
C 22.07706 33.96843 -0.03213
C 23.3641 0.64506 -0.02845
C 23.28657 2.09574 0.03374
C 22.07559 2.81873 0.0296
C 22.12035 24.1375 -0.00311
C 23.2771 23.41646 0.00742
C 23.30083 21.94089 -0.01594
C 22.11147 21.24389 0.0106
C 22.07941 19.85047 -0.01154
C 23.3187 19.14257 -0.01721
C 23.35418 17.71907 -0.02422
C 22.09038 17.08445 0.01277
C 22.04124 15.63344 0.00096
C 24.62734 12.75338 -0.00498
C 23.40316 14.86723 -0.01527
C 22.11801 12.83495 0.00199
C 22.16437 11.36949 0.01511
C 23.40444 10.59144 -0.00478
C 23.40039 9.23514 -0.01662
C 22.17294 8.50902 -0.01185
C 22.11289 7.09654 0.01126
C 23.27046 6.32978 0.01852
C 23.36989 4.88588 -0.00381
C 22.12962 4.20143 0.03046
C 23.36852 13.40249 0.01087
C 3.69065 32.01239 0.0174
C 24.58241 11.31599 0.00135
C 25.82025 9.22321 0.02555
C 27.09206 17.03213 0.00826
C 27.07961 15.61814 -0.00294
C 28.3122 14.86276 0.00152
C 28.30295 13.54805 0.01257
C 27.05216 12.77588 0.02316
C 26.98647 11.34414 0.04185
C 28.18747 10.59298 0.00194
C 28.29422 9.23433 -0.00621
C 27.05797 8.50295 0.02611
C 26.97037 7.08376 0.02198
C 28.20591 6.43085 0.01094
C 28.22706 4.99178 0.00235
C 26.98277 4.26502 0.01495
C 26.97132 2.89671 0.01259
C 28.2114 2.15205 0.01799
C 28.24171 0.75773 0.01699
C 27.0106 0.03973 -0.00416
C 29.35007 32.70472 0.01177
C 30.6131 31.9742 0.04266
C 28.38886 17.7917 0.00487
C 28.29714 19.17194 -0.00942
C 27.14661 19.81676 -0.02815
C 27.13201 21.2994 0.00622
C 24.63547 8.53431 0.01423
C 24.54715 7.07805 -0.00285
C 25.74175 6.41926 -0.009
C 25.77812 4.98999 -0.01199
C 24.54665 4.18747 -0.00229
C 24.54737 2.76605 -0.00938
C 25.80908 2.08279 -0.0264
C 25.79414 0.62448 -0.01154
C 24.52576 33.95923 0.00684
C 25.80855 10.66692 0.03102
C 26.97306 32.65338 -0.01052
C 28.15868 30.44408 0.00367
C 27.00715 29.71093 0.04306
C 27.03172 28.27992 0.00996
C 28.24681 27.67613 0.00195
C 28.23612 26.22385 -0.00802
C 27.04886 25.49654 -0.00218
C 27.05997 24.0691 -0.01654
C 28.28011 23.39508 -0.00037
C 28.34373 22.01 -0.0032
C 28.19424 31.91115 -0.01679
C 2.41232 32.68774 0.0073
