382
Graphene
C 34.31382 0.01423 0.01295
C 11.06332 5.00117 0.01241
C 9.7322 4.3479 -0.01454
C 9.80303 2.89854 0.01945
C 11.04504 2.15947 0.01416
C 11.05959 0.78737 0.03542
C 9.7499 0.0983 0.02299
C 12.20471 32.63987 0.00244
C 13.43703 31.92325 -0.01717
C 13.52847 30.46897 0.05265
C 12.33711 29.76807 -0.01952
C 12.30877 28.40274 -0.02813
C 13.4962 27.64376 0.00374
C 13.5515 26.22727 0.00052
C 12.32437 25.50287 -0.03682
C 12.28081 24.1452 0.01965
C 13.58567 23.39843 0.02058
C 13.53356 22.0067 -0.01957
C 12.292 21.34638 -0.0108
C 12.37126 19.90161 -0.00368
C 11.01982 6.43648 0.0076
C 9.81482 7.19144 0.02162
C 9.87153 8.55114 -0.0014
C 11.09964 9.24203 0.00415
C 10.99456 30.57195 -0.01111
C 9.80639 29.89343 -0.01275
C 9.91393 28.48231 0.00985
C 11.063 27.73474 -0.02245
C 11.12153 26.32169 -0.00428
C 9.86437 25.67563 0.03101
C 9.8877 24.20023 -0.01536
C 11.06583 23.40972 -0.02689
C 11.07349 22.01894 -0.01046
C 13.57351 19.20214 -0.02696
C 9.82931 21.28551 -0.00891
C 11.03868 19.16298 0.00165
C 11.02963 17.72583 -0.02971
C 9.86843 17.00715 0.02894
C 9.85665 15.54748 -0.01789
C 11.02483 14.85647 0.00444
C 11.06349 13.5234 -0.00925
C 9.83262 12.80431 0.01877
C 9.79219 11.38658 0.01363
C 11.09226 10.59428 -0.02162
C 9.80259 19.88904 0.02819
C 13.51626 17.75103 -0.00114
C 12.29345 17.00933 0.00228
C 12.28564 15.62317 0.00798
C 14.69185 21.33894 -0.0258
C 14.82224 19.88686 -0.0331
C 15.99911 19.05238 -0.00316
C 16.02281 17.70366 0.02188
C 14.77062 17.02507 -0.01979
C 14.78943 15.6386 0.02691
C 15.97149 14.92333 -0.01581
C 15.91333 13.45484 0.01452
C 14.7482 12.78582 0.04892
C 14.79814 24.01828 0.03338
C 14.7862 11.31638 -0.00111
C 15.98037 9.23396 0.03754
C 14.76302 8.50722 0.01739
C 14.74093 7.08456 0.00755
C 16.03716 6.36828 -0.0054
C 16.00408 4.93906 0.00667
C 14.77451 4.20351 0.00143
C 14.75463 2.82554 -0.017
C 15.92362 2.05989 0.00364
C 15.8977 0.64308 -0.00831
C 15.99365 10.70624 -0.03557
C 10.98739 31.99512 0.02841
C 14.72445 25.4517 -0.00491
C 15.9782 27.61026 0.03698
C 13.62005 14.91998 0.00422
C 13.50777 13.50893 0.0351
C 12.29543 12.7841 -0.03113
C 12.31727 11.33499 0.02098
C 13.52242 10.69078 0.01848
C 13.5174 9.25792 -0.00619
C 12.32326 8.52095 -0.02162
C 12.326 7.12295 0.00889
C 13.57301 6.38473 -0.00481
C 15.99443 26.14826 -0.00109
C 13.51239 4.95828 0.00979
C 12.25268 2.88329 0.03505
C 13.52308 2.08242 -0.02815
C 13.45985 0.67727 -0.04147
C 12.24899 0.02903 -0.05302
C 14.71181 32.60484 0.00213
C 15.86564 31.87667 -0.00066
C 15.95143 30.45214 -0.00289
C 14.71463 29.80801 0.00028
C 14.70759 28.37212 -0.02213
C 12.22977 4.29796 0.01443
C 9.80287 32.7524 0.00943
C 7.3192 0.0815 0.00406
C 8.47657 0.85311 0.03592
C 3.66387 4.99508 0.02322
C 2.43929 4.28349 -0.00725
C 2.40502 2.87054 -0.05697
C 3.64482 2.19734 0.01087
C 3.62488 0.68862 -0.01343
C 2.4091 0.01061 0.00988
C 4.88007 32.71702 0.0276
C 6.11594 32.01423 0.01305
C 6.08034 30.61584 -0.00077
C 3.60974 6.49383 -0.00094
C 4.86174 29.85882 0.03368
C 6.16823 27.79236 -0.00966
C 6.17954 26.33112 -0.03337
C 4.95505 25.55466 0.01227
C 4.88804 24.18223 0.00873
C 6.1535 23.44407 -0.00049
C 6.1612 22.02572 0.00848
C 4.98023 21.31947 -0.01303
C 4.9316 19.94394 -0.01378
C 6.21972 19.22079 0.02635
C 4.90971 28.48992 -0.02929
C 6.21439 17.80746 0.0127
C 2.47503 7.09568 -0.02566
C 3.62018 9.32035 0.017
C 3.594 30.57695 0.01402
C 2.45876 29.85093 0.02379
C 2.43526 28.37931 0.00907
C 3.64727 27.7066 0.00643
C 3.68529 26.3246 -0.01509
C 2.50981 25.65007 0.03267
C 2.3727 24.19006 0.02374
C 3.69887 23.51578 0.00402
C 3.69921 22.03671 0.0073
C 2.46926 8.53271 -0.03113
C 2.43069 21.37151 0.0174
C 3.66457 19.24828 0.01226
C 3.71234 17.84652 -0.00279
C 2.39082 17.12028 0.01996
C 2.41685 15.7386 -0.03996
C 3.57009 14.9685 0.01465
C 3.61824 13.5179 -0.00074
C 2.40219 12.82624 -0.00518
C 2.41542 11.36709 0.0086
C 3.65028 10.71168 -0.00643
C 2.51102 19.92239 0.03828
C 14.71817 33.97495 -0.02957
C 4.92411 17.13768 0.01396
C 6.16433 14.92468 -0.01142
C 8.61645 22.04765 -0.014
C 7.40639 21.38855 0.02147
C 7.43203 19.96071 0.00373
C 8.58927 19.24997 -0.00191
C 8.67454 17.73662 0.00438
C 7.50338 17.11461 0.01291
C 7.37128 15.67162 0.00093
C 8.54483 14.84305 0.00057
C 8.58076 13.49882 -0.01634
C 8.628 23.54318 -0.01118
C 7.34732 12.83369 -0.00334
C 8.5667 10.69856 0.01641
C 8.545 9.31389 -0.00719
C 7.31941 8.58238 0.01364
C 7.31957 7.13035 -0.01062
C 8.56031 6.47249 -0.00033
C 8.52314 5.01601 0.03589
C 7.33486 4.31258 -0.02759
C 7.35007 2.90697 0.0402
C 8.52469 2.23916 0.00572
C 7.32195 11.43535 0.02339
C 4.8821 15.6518 0.01849
C 7.37012 24.19235 -0.00131
C 8.67147 26.36751 -0.01004
C 6.10875 13.49823 -0.00562
C 4.86499 12.82965 -0.00494
C 4.88605 11.42201 0.00054
C 6.03327 10.71552 0.03007
C 6.09621 9.32116 -0.00095
C 4.85991 8.61899 0.01572
C 4.87117 7.1438 -0.04848
C 6.0571 6.42123 -0.00892
C 6.05463 5.02278 -0.01362
C 7.40858 25.62164 -0.02896
C 4.80257 4.32465 -0.0008
C 6.08096 2.23035 0.00393
C 6.04856 0.75135 0.00895
C 4.86331 0.01266 0.00685
C 7.32737 32.75481 0.02888
C 8.53569 32.04399 -0.00482
C 8.58525 30.68657 -0.01384
C 7.33643 29.88205 0.03693
C 7.43968 28.52701 0.01745
C 8.64599 27.74105 0.00488
C 4.86313 2.89199 0.0288
C 17.18503 32.63135 -0.04422
C 18.38561 31.85751 0.00654
C 18.36184 30.43503 -0.00703
C 30.65947 10.66728 0.0103
C 30.7416 9.29928 0.02108
C 29.42776 8.55064 0.00716
C 29.45437 7.11268 0.00307
C 30.7176 6.40098 0.00346
C 30.73983 5.0166 0.01713
C 29.52748 4.26632 -0.01694
C 29.48942 2.75132 0.01428
C 30.71903 2.18157 -0.02142
C 29.40065 11.36504 0.07705
C 30.74118 0.74712 0.0544
C 31.78947 32.7601 0.00682
C 32.94017 31.94609 -0.01779
C 33.16829 30.47103 0.03794
C 33.21351 27.87527 0.01927
C 33.17358 26.44664 0.01574
C 31.92641 25.54148 -0.02383
C 31.99675 24.27471 -0.01429
C 33.13237 23.35363 -0.0136
C 33.21669 21.98658 0.00594
C 29.62967 34.0622 0.00026
C 33.33422 18.10229 -0.02474
C 29.39696 12.83477 0.01908
C 30.94125 14.99343 -0.00971
C 25.81412 4.89738 0.0014
C 24.59416 4.19621 0.00924
C 24.6494 2.8043 0.02326
C 25.89216 2.10308 0.00261
C 25.77477 0.71065 0.03265
C 24.66479 33.98309 -0.02049
C 28.11318 13.39117 -0.01854
C 26.8102 12.91847 -0.01415
C 26.92859 11.4758 -0.03039
C 30.64517 13.5156 0.01518
C 28.17644 10.73404 0.01836
C 27.01591 8.51813 -0.00669
C 27.06472 7.10879 0.0101
C 28.23005 6.37398 0.01705
C 28.34957 4.9219 -0.0405
C 27.05287 4.20584 -0.01303
C 27.09527 2.85037 -0.01461
C 28.31193 1.96373 -0.02155
C 28.29851 0.44609 -0.00944
C 26.99243 34.05283 -0.03735
C 28.22049 9.27672 0.03531
C 25.84134 6.38532 0.01324
C 31.95662 15.67708 0.00369
C 33.16603 13.58067 -0.00644
C 34.29828 21.10821 -0.02213
C 34.36535 19.70862 0.01951
C 1.23941 19.20702 -0.01678
C 1.21844 17.80568 0.01223
C 0.02469 17.15959 0.00648
C 0.0436 15.71185 0.02114
C 1.13265 14.94435 -0.02957
C 1.16003 13.53181 0.00343
C 34.34049 12.85312 -0.02656
C 1.15741 21.95176 0.02712
C 34.31995 11.36482 -0.02442
C 1.22113 9.16805 -0.00583
C 34.3519 8.53849 -0.02302
C 34.39121 7.10213 -0.02849
C 1.12421 6.40764 0.02931
C 1.22404 5.03887 0.00628
C 0.01213 4.33159 -0.0345
C 34.36952 2.91879 -0.00931
C 1.18025 2.11421 -0.00939
C 1.16591 0.7564 -0.00468
C 1.21455 10.74357 -0.00027
C 33.28291 14.9942 0.00455
C 1.13843 23.37771 0.00723
C 34.32979 25.56932 -0.05239
C 31.92095 12.86274 -0.01839
C 31.91438 11.43469 0.00137
C 33.14602 10.68978 0.00199
C 33.14693 9.28663 0.04381
C 31.9322 8.56522 0.02806
C 31.96977 7.08756 0.01504
C 33.14373 6.40983 -0.00069
C 33.17883 4.98914 0.04926
C 31.93771 4.30773 -0.03838
C 34.34153 24.17944 0.03076
C 31.92767 2.88489 0.00349
C 33.16182 0.77569 -0.00841
C 31.94052 0.01569 0.0001
C 34.21861 32.62531 -0.02927
C 1.10954 31.94381 -0.01404
C 1.23124 30.54555 0.01027
C 34.40256 29.84693 0.01831
C 0.06846 28.42948 -0.01037
C 1.2123 27.65441 -0.00439
C 1.21755 26.27557 -0.00598
C 33.17914 2.20965 -0.00323
C 3.59001 31.95972 -0.003
C 24.64611 7.05699 0.04266
C 25.7741 9.27547 -0.00416
C 17.1513 33.96849 0.03046
C 19.65038 32.60058 0.0296
C 20.9786 31.87652 0.03374
C 20.8354 30.47453 -0.02845
C 19.61101 29.73056 -0.03213
C 19.61441 28.36653 0.02239
C 20.91648 27.76822 0.01153
C 20.87477 26.41261 0.02734
C 19.75031 25.59069 -0.0055
C 18.34635 0.67266 -0.00381
C 20.09051 24.28923 0.01515
C 20.36894 22.09217 0.00071
C 19.68699 21.08255 -0.01107
C 19.5253 19.67001 -0.01586
C 20.88264 19.10376 -0.01971
C 20.92975 17.73225 -0.02118
C 19.71589 16.95921 0.00733
C 19.6843 15.5596 -0.00178
C 20.8491 14.91468 0.00768
C 20.8446 13.49084 -0.0276
C 20.98454 23.25808 -0.00225
C 19.66896 12.83696 0.03005
C 18.42014 2.05988 0.01852
C 17.21552 4.18811 -0.01185
C 17.21093 29.75683 -0.04076
C 17.18774 28.35249 -0.00652
C 18.43277 27.54376 0.0058
C 18.41078 26.10121 -0.00865
C 17.21032 25.38785 0.00675
C 17.21967 19.77002 -0.00311
C 18.38387 19.04253 0.00742
C 18.4166 17.6229 -0.01594
C 17.21548 16.97837 0.0106
C 17.16867 2.79296 0.01126
C 17.20118 15.56729 -0.01154
C 18.42941 13.51786 -0.02422
C 17.09912 12.78147 0.01277
C 17.22555 11.4355 0.00096
C 18.44017 10.63022 -0.01527
C 18.4207 9.18899 0.01087
C 17.17063 8.46827 0.00199
C 17.23528 7.07409 0.01511
C 18.48866 6.31799 -0.00478
C 18.44327 4.96032 -0.01662
C 18.429 14.89516 -0.01721
C 24.56641 8.54811 0.01177
C 19.63535 11.40005 -0.04078
C 20.88684 9.23655 0.02737
C 23.30602 10.67563 0.00622
C 23.32971 9.2151 -0.02815
C 22.1497 8.53069 -0.00942
C 22.13499 7.15598 0.00487
C 23.41963 6.37365 0.00826
C 23.36498 5.01085 -0.00294
C 22.20391 4.25007 0.00152
C 22.23983 2.79295 0.01257
C 23.39539 2.07775 0.02316
C 22.08233 11.29589 -0.0032
C 23.41243 0.70806 0.04185
C 24.68722 32.67942 -0.00621
C 24.50698 29.62465 0.02611
C 24.48215 28.47736 0.02198
C 25.98854 25.85753 0.01094
C 24.69619 25.7461 0.00235
C 25.55252 13.53933 0.01495
C 24.47169 12.76359 0.01259
C 24.49539 11.36632 0.01799
C 25.79392 10.68516 0.01699
C 22.19214 34.02811 0.00194
C 20.84901 10.59935 0.02117
C 21.98821 12.70336 -0.00037
C 23.38212 14.73876 -0.00218
C 19.61535 8.51976 -0.00498
C 19.69349 7.07902 0.00135
C 20.93135 6.35308 0.03102
C 20.97844 4.96639 0.02555
C 19.76945 4.23738 0.01423
C 19.69003 2.84934 -0.00285
C 20.90949 2.01103 -0.009
C 20.84847 0.54576 -0.01199
C 19.63462 34.04164 -0.00229
C 23.24208 13.39947 -0.01654
C 22.23286 32.6127 -0.00938
C 23.37211 30.55782 -0.01154
C 22.09839 29.87928 0.00684
C 22.10617 28.45667 -0.01052
C 23.30758 27.62194 -0.01679
C 23.29729 26.26735 0.00367
C 22.02829 25.58126 0.04306
C 21.9937 24.22357 0.00996
C 22.03991 16.87852 0.00195
C 22.13946 15.55117 -0.00802
C 23.45517 31.98394 -0.0264
C 2.35191 32.67639 0.00031
