377
Graphene
C 34.35828 34.05447 0.01295
C 13.48031 27.76503 0.03542
C 13.44163 26.24928 0.02299
C 12.21053 25.66638 0.00244
C 12.34706 11.32831 -0.01717
C 13.57662 10.83961 0.05265
C 13.49873 9.25789 -0.01952
C 12.29513 8.58604 -0.02813
C 12.3062 7.07234 0.00374
C 13.5559 6.40794 0.00052
C 13.57621 4.89551 -0.03682
C 12.30719 4.15902 0.01965
C 12.33422 2.81262 0.02058
C 13.55394 2.0828 -0.01957
C 13.53938 0.67598 -0.0108
C 12.30586 34.05639 -0.00368
C 14.73902 32.62336 -0.02696
C 15.94284 31.88627 -0.00114
C 15.98461 30.42896 0.00228
C 14.6872 29.74953 0.00798
C 12.34404 28.46117 0.01416
C 12.25029 29.81611 0.01945
C 13.49971 30.53053 -0.01454
C 13.51742 31.89892 0.01241
C 9.80247 29.91689 -0.00428
C 9.83703 28.53031 0.03101
C 11.03394 27.78551 -0.01536
C 11.0407 26.35784 -0.02689
C 9.84605 25.64117 -0.01046
C 9.79878 24.29223 -0.00891
C 9.88483 12.7877 0.02819
C 9.84511 11.42051 0.00165
C 11.12613 10.74186 -0.02971
C 14.82566 28.30902 0.00422
C 11.09921 9.29534 0.02894
C 9.87358 7.14072 0.00444
C 11.07184 6.33066 -0.00925
C 11.14531 4.88645 0.01877
C 9.8678 4.25491 0.01363
C 9.86484 2.88909 -0.02162
C 11.1068 2.08612 0.00415
C 11.00521 0.73133 -0.0014
C 9.85307 34.06465 0.02162
C 12.2412 32.72276 0.0076
C 9.84335 8.53631 -0.01789
C 10.99824 30.56782 -0.02245
C 16.05174 27.69716 0.0351
C 14.7293 25.91432 0.02098
C 17.21719 7.07686 -0.01979
C 18.34617 6.36498 0.02691
C 18.64247 4.96997 -0.01581
C 17.24546 4.23079 0.01452
C 17.20114 2.87667 0.04892
C 18.45846 2.09494 -0.00111
C 18.45963 0.6736 -0.03557
C 17.18182 34.05187 0.03754
C 19.66279 32.58128 0.01739
C 20.93492 31.90863 0.00755
C 20.95613 30.42098 -0.0054
C 19.66428 29.76353 0.00667
C 19.60159 28.37077 0.00143
C 20.89141 27.58906 -0.017
C 20.87118 26.17764 0.00364
C 19.61322 25.46616 -0.00831
C 19.67602 24.12347 -0.02957
C 20.85697 23.33382 -0.04422
C 20.9521 22.00842 0.00654
C 17.19075 8.56055 0.02188
C 18.40669 9.23261 -0.00316
C 18.3759 10.73109 -0.0331
C 17.239 11.44434 -0.0258
C 14.82755 11.24263 0.01848
C 16.06105 10.75384 -0.00619
C 15.94418 9.25718 -0.02162
C 14.73456 8.54718 0.00889
C 14.73258 7.07193 -0.00481
C 15.98402 6.36773 0.00979
C 15.97987 4.96572 0.01443
C 14.79767 4.21526 0.03505
C 14.79193 2.78491 -0.02815
C 15.97848 26.21666 -0.03113
C 15.9911 2.07553 -0.04147
C 14.81694 34.00037 0.00213
C 17.19682 32.59215 -0.00066
C 18.43425 31.97027 -0.00289
C 18.43444 30.53842 0.00028
C 17.20185 29.75288 -0.02213
C 17.24663 28.3812 0.03698
C 18.46137 27.60004 -0.00109
C 18.41672 26.16899 -0.00491
C 17.24906 25.47936 0.03338
C 15.97736 0.65987 -0.05302
C 11.04791 32.01159 0.00985
C 9.7759 32.68324 -0.01275
C 7.32629 0.07153 -0.01111
C 3.65843 4.99995 0.00988
C 2.42065 4.252 0.0276
C 2.41336 2.78356 0.01305
C 3.65884 2.15819 -0.00077
C 3.65972 0.72567 0.03368
C 2.43766 0.06585 -0.02929
C 4.84489 32.66875 -0.00966
C 6.10728 32.00813 -0.03337
C 6.17016 30.59751 0.01227
C 4.9657 29.85509 0.00873
C 4.93523 28.39364 -0.00049
C 6.17071 27.75159 0.00848
C 6.18672 26.23838 -0.01303
C 4.90447 25.62514 -0.01378
C 4.85413 24.20889 0.02635
C 6.12076 23.43212 0.0127
C 6.07559 22.04562 0.01396
C 4.88337 21.2869 0.01849
C 4.96939 19.88316 -0.01142
C 3.70938 6.41189 -0.01343
C 2.37427 7.08943 0.01087
C 2.40147 8.45799 -0.05697
C 3.66883 9.28929 -0.00725
C 3.66083 30.50715 0.03267
C 2.46162 29.8373 0.02374
C 2.39494 28.4615 0.00402
C 3.65286 27.73991 0.0073
C 3.72515 26.3808 0.0174
C 2.47664 25.60978 0.03828
C 2.4604 24.09373 0.01226
C 3.66879 23.36274 -0.00279
C 3.60996 21.94712 0.01996
C 6.23398 19.17354 -0.00562
C 2.37237 21.29438 -0.03996
C 3.67119 19.19906 -0.00074
C 3.69295 17.79904 -0.00518
C 2.46808 17.11497 0.0086
C 2.47629 15.64331 -0.00643
C 3.69992 14.98162 0.017
C 3.67195 13.50066 -0.03113
C 2.45026 12.78591 -0.02566
C 2.44146 11.38568 -0.00094
C 3.65671 10.74599 0.02322
C 2.40229 19.92371 0.01465
C 6.25264 17.73725 -0.00494
C 4.86143 17.0509 0.00054
C 4.92585 15.66197 0.03007
C 8.69229 23.476 0.00438
C 8.45574 22.12223 0.01291
C 7.47654 21.27762 0.00093
C 7.41545 19.84694 0.00057
C 7.44136 17.13073 -0.01634
C 7.57159 15.70844 -0.00334
C 8.3659 14.72263 0.02339
C 8.67488 13.40238 0.01641
C 7.34047 12.75715 -0.00719
C 7.39065 24.16587 -0.00191
C 7.35321 11.3903 0.01364
C 8.61552 9.23158 -0.00033
C 7.36835 8.54917 0.03589
C 7.3621 7.1843 -0.02759
C 8.66186 6.38143 0.0402
C 8.69317 4.95506 0.00572
C 7.37725 4.25626 0.03592
C 7.32991 2.87253 0.00406
C 8.5604 2.17222 0.00943
C 8.59381 0.73458 0.02841
C 8.61059 10.6606 -0.01062
C 20.90589 14.91351 -0.00703
C 7.39425 25.55599 0.00373
C 8.6537 27.75491 -0.014
C 6.22703 15.0195 -0.00095
C 6.16333 13.5937 0.01572
C 4.98721 12.84824 -0.04848
C 4.89619 11.46816 -0.00892
C 6.09209 10.71335 -0.01362
C 6.1559 9.28629 -0.0008
C 4.85641 8.52038 0.0288
C 4.90299 7.13826 0.00393
C 6.14961 6.42743 0.00895
C 8.65958 26.31852 0.02147
C 6.15901 4.95701 0.00685
C 4.82442 2.93864 -0.00482
C 6.10683 2.18963 -0.01384
C 6.13946 0.73046 0.03693
C 4.86665 0.04893 0.01745
C 7.3065 32.78273 0.00488
C 8.5757 32.00332 -0.01004
C 8.55374 30.63784 -0.02896
C 7.30326 29.84005 -0.00131
C 7.38933 28.5026 -0.01118
C 4.84964 4.35272 0.02888
C 3.70071 31.90879 -0.01509
C 20.74841 13.55624 -0.04076
C 19.59734 11.39592 0.0058
C 30.73393 2.14768 0.00716
C 30.63467 0.73782 0.00307
C 29.47797 0.03697 0.00346
C 31.91989 32.69697 0.01713
C 33.17717 32.00021 -0.01694
C 33.17789 30.5302 0.01428
C 31.94431 29.85683 -0.02142
C 31.90974 28.42975 0.0544
C 33.15612 27.72494 0.00026
C 33.20458 26.36546 0.00682
C 32.01506 25.61238 -0.01779
C 32.00382 24.22046 0.03794
C 33.20766 23.5096 0.01927
C 33.13103 22.07331 0.01574
C 31.9527 21.28955 -0.02383
C 31.98681 19.88114 -0.01429
C 33.2237 19.14488 -0.0136
C 33.20416 17.7236 0.00594
C 31.98437 16.98354 -0.02474
C 29.52829 2.94701 0.02108
C 29.49116 4.33441 0.0103
C 30.75239 4.98079 0.07705
C 30.72868 6.35315 0.01908
C 30.70117 27.71442 0.02326
C 30.73839 26.27567 0.00261
C 29.51204 25.57964 0.03265
C 29.47276 24.11215 -0.02049
C 30.76191 23.43387 -0.01854
C 30.67416 21.99279 -0.01415
C 29.47036 21.29269 -0.03039
C 29.60045 19.86613 0.01836
C 30.774 19.21895 0.03531
C 31.91244 15.63824 0.00369
C 30.7748 17.72238 -0.00669
C 29.42551 15.65039 0.01705
C 30.63889 14.88362 -0.0405
C 30.72621 13.48948 -0.01303
C 29.53773 12.79584 -0.01461
C 29.53026 11.34926 -0.02155
C 30.80241 10.66032 -0.00944
C 30.67069 9.22994 -0.03735
C 29.48328 8.58716 -0.00971
C 29.5074 7.07152 0.01518
C 29.45911 17.07355 0.0101
C 29.4649 28.42038 0.00924
C 33.16154 14.96612 0.00455
C 31.99648 12.85699 -0.01839
C 34.39851 19.84369 0.01951
C 1.15833 19.13793 -0.01678
C 1.25206 17.82208 0.01223
C 0.04503 17.0556 0.00648
C 0.03911 15.66193 0.02114
C 1.2566 14.98405 -0.02957
C 1.28486 13.57905 0.00343
C 0.01881 12.80165 -0.02656
C 34.43307 11.37842 -0.02442
C 1.27117 10.69193 -0.00027
C 1.26748 9.21413 -0.00583
C 0.02445 8.5637 -0.02302
C 34.41776 7.09616 -0.02849
C 1.21084 6.38766 0.02931
C 1.23259 4.9203 0.00628
C 34.42339 4.21549 -0.0345
C 34.34361 2.8222 -0.00931
C 1.20845 2.08913 -0.00939
C 1.22251 0.65362 -0.00468
C 34.32676 21.31085 -0.02213
C 1.11671 21.95967 0.02712
C 1.16684 23.47114 0.00723
C 34.42151 24.18576 0.03076
C 32.00822 11.42621 0.00137
C 33.2229 10.68211 0.00199
C 33.18848 9.23793 0.04381
C 31.98974 8.49234 0.02806
C 31.98213 7.03245 0.01504
C 33.21297 6.39821 -0.00069
C 33.17545 5.01041 0.04926
C 31.95346 4.271 -0.03838
C 31.91937 2.81121 0.00349
C 33.23045 13.50955 -0.00644
C 33.15781 2.13741 -0.00323
C 31.90054 0.07267 0.0001
C 34.38845 32.68454 -0.02927
C 1.19941 31.96387 -0.01404
C 1.26856 30.57904 0.01027
C 0.0297 29.86028 0.01831
C 34.41058 28.44419 -0.01037
C 1.1565 27.7054 -0.00439
C 1.26891 26.29755 -0.00598
C 0.0376 25.59019 -0.05239
C 33.14332 0.82038 -0.00841
C 29.45078 29.83495 0.0014
C 30.74511 30.52224 0.01324
C 30.79143 31.92057 0.04266
C 21.95426 15.73258 -0.02845
C 23.28109 14.88875 -0.03213
C 23.26078 13.41332 0.02239
C 22.01795 12.67007 0.01153
C 22.04389 11.2729 0.02734
C 23.35322 10.7334 -0.0055
C 23.44999 2.0542 0.01515
C 23.41559 0.67418 -0.00225
C 22.1519 33.9664 0.00071
C 24.65135 32.6284 -0.01107
C 25.83236 31.8911 -0.01586
C 25.83334 30.42841 -0.01971
C 24.65354 29.72989 -0.02118
C 24.5944 28.33464 0.00733
C 25.78275 27.67253 -0.00178
C 25.7797 26.18778 0.00768
C 24.56172 25.49316 -0.0276
C 24.55482 24.09849 0.03005
C 25.78082 23.48628 -0.04078
C 22.16881 17.10971 0.03374
C 23.28082 17.78747 0.0296
C 23.32297 19.22644 0.03046
C 22.1307 19.81931 -0.00381
C 20.8409 10.5571 -0.00865
C 20.73324 9.07424 0.00675
C 19.54555 8.56629 -0.00311
C 19.69273 4.16093 0.00742
C 19.88166 2.83836 -0.01594
C 21.0771 2.03796 0.0106
C 20.98259 0.64565 -0.01154
C 19.68385 0.05596 -0.01721
C 22.20575 32.62118 -0.02422
C 25.84895 21.99663 0.02117
C 23.36069 31.94363 0.01277
C 22.17457 29.75735 -0.01527
C 22.12302 28.35644 0.01087
C 23.35822 27.67777 0.00199
C 23.30368 26.27912 0.01511
C 22.11062 25.56733 -0.00478
C 22.09355 24.14254 -0.01662
C 23.30829 23.406 -0.01185
C 23.31459 21.99057 0.01126
C 22.01606 21.26313 0.01852
C 23.39987 30.46847 0.00096
C 24.55845 21.29681 0.02737
C 24.60336 19.84646 -0.00498
C 25.79536 19.10713 0.00135
C 27.02773 19.81277 -0.00942
C 28.28098 19.20035 0.00487
C 28.29778 17.74211 0.00826
C 27.07431 17.04451 -0.00294
C 26.97184 15.60957 0.00152
C 28.22888 14.88847 0.01257
C 28.31918 13.52455 0.02316
C 27.00167 12.85466 0.04185
C 27.04359 11.38602 0.00194
C 27.00215 21.25926 -0.02815
C 28.24112 10.65395 -0.00621
C 26.98848 8.5868 0.02198
C 28.34296 6.36877 0.01094
C 28.19294 5.07079 0.00235
C 27.02095 4.18271 0.01495
C 26.99744 2.87951 0.01259
C 28.23425 2.13594 0.01799
C 28.30611 0.72592 0.01699
C 27.07609 0.02326 -0.00416
C 29.56714 32.68029 0.01177
C 28.29858 9.23982 0.02611
C 19.6037 12.80969 -0.00652
C 28.25515 21.86851 0.00622
C 27.04339 24.07892 -0.00037
C 25.72871 17.64983 0.03102
C 24.57157 16.97595 0.02555
C 24.46661 15.52594 0.01423
C 25.77739 14.90314 -0.00285
C 25.77926 13.55116 -0.009
C 24.55846 12.76827 -0.01199
C 24.54555 11.32235 -0.00229
C 25.76074 10.61499 -0.00938
C 25.92583 9.23275 -0.0264
C 28.22397 23.35925 -0.0032
C 25.81996 2.04555 -0.01154
C 24.67033 34.04971 -0.01052
C 27.0735 32.65258 -0.01679
C 28.28246 31.88194 0.00367
C 28.21859 30.50857 0.04306
C 27.05887 29.79741 0.00996
C 27.05473 28.38292 0.00195
C 28.24943 27.60817 -0.00802
C 28.2697 26.18888 -0.00218
C 27.00069 25.52265 -0.01654
C 25.82604 0.65434 0.00684
C 2.42299 32.65034 0.00643
