395
Graphene
C 34.41323 0.0116 0.01295
C 12.28299 7.24414 0.00444
C 13.53602 6.43749 -0.00925
C 13.5836 5.00579 0.01877
C 12.31534 4.3521 0.01363
C 12.26603 2.77496 -0.02162
C 13.52026 2.11918 0.00415
C 13.50728 0.71118 -0.0014
C 12.27434 0.01519 0.02162
C 14.82019 32.71089 0.0076
C 12.28743 8.66796 -0.01789
C 15.97758 31.91415 0.01241
C 14.81016 29.78888 0.01945
C 14.78718 28.38024 0.01416
C 15.94323 27.57928 0.03542
C 16.0366 26.1628 0.02299
C 14.73282 25.61458 0.00244
C 14.72518 24.20706 -0.01717
C 16.00952 23.51534 0.05265
C 16.00683 9.4095 -0.01952
C 14.78769 8.68752 -0.02813
C 16.02738 30.42331 -0.01454
C 13.51636 9.46983 0.02894
C 12.14129 24.24758 -0.02971
C 12.25508 25.6274 0.00165
C 9.75954 24.31199 -0.01062
C 10.93959 23.70112 -0.00033
C 9.68659 11.48626 0.03589
C 10.93339 10.75413 -0.02759
C 11.05367 9.35976 0.0402
C 9.81638 8.61057 0.00572
C 9.7446 7.15191 0.03592
C 11.06819 6.44627 0.00406
C 11.10289 5.03458 0.00943
C 9.81989 4.30276 0.02841
C 9.80013 2.91893 -0.01111
C 11.06061 2.16868 -0.01275
C 11.0445 0.67286 0.00985
C 9.82151 0.064 -0.02245
C 12.24685 32.74243 -0.00428
C 13.53368 32.03154 0.03101
C 13.54061 30.60285 -0.01536
C 12.28247 29.91571 -0.02689
C 12.1663 28.50476 -0.01046
C 13.4146 27.7237 -0.00891
C 13.43364 26.34148 0.02819
C 14.71608 7.20739 0.00374
C 15.9097 6.30526 0.00052
C 15.98338 4.9124 -0.03682
C 14.70268 4.29546 0.01965
C 19.66586 32.70382 -0.00289
C 20.92352 31.96372 0.00028
C 20.9775 30.56268 -0.02213
C 19.76861 29.8018 0.03698
C 19.69099 28.36106 -0.00109
C 20.95205 27.64872 -0.00491
C 20.92998 26.18353 0.03338
C 19.70413 25.52741 -0.0258
C 19.69395 24.13983 -0.0331
C 20.93269 23.53742 -0.00316
C 20.59316 22.16315 0.02188
C 19.17452 22.03768 -0.01979
C 21.23777 18.36236 0.02691
C 20.95095 15.02374 -0.01581
C 20.65726 13.62165 0.01452
C 19.49824 12.74701 0.04892
C 19.4636 11.36588 -0.00111
C 20.70214 10.60419 -0.03557
C 20.79706 9.17971 0.03754
C 19.56274 8.45652 0.01739
C 19.58986 6.99902 0.00755
C 17.24869 0.02128 -0.00066
C 9.69934 25.72619 0.01364
C 18.51393 0.6032 0.00213
C 17.19933 2.79263 -0.04147
C 14.73151 2.86378 0.02058
C 15.92254 2.14421 -0.01957
C 16.03145 0.76631 -0.0108
C 14.79245 0.03312 -0.00368
C 17.21741 32.61639 -0.02696
C 18.40201 31.94389 -0.00114
C 18.45677 30.49786 0.00228
C 17.25793 29.72543 0.00798
C 17.15089 28.2836 0.00422
C 18.36356 27.59298 0.0351
C 18.43476 26.17094 -0.03113
C 17.26702 25.35436 0.02098
C 17.28532 23.80158 0.01848
C 18.52785 23.25358 -0.00619
C 18.13548 10.60253 -0.02162
C 18.34365 9.22216 0.00889
C 17.15781 8.5598 -0.00481
C 17.1929 7.07136 0.00979
C 18.36921 6.31102 0.01443
C 18.35559 4.86447 0.03505
C 17.21424 4.14079 -0.02815
C 18.36767 2.06245 -0.05302
C 20.89655 6.32822 -0.0054
C 10.95846 26.39556 -0.00719
C 9.72886 28.45028 0.02339
C 2.39415 4.33908 -0.00279
C 2.40561 2.82253 0.01996
C 3.6212 2.22888 -0.03996
C 3.63566 0.82979 0.01465
C 2.37052 0.0498 -0.00074
C 4.87212 32.68441 -0.00518
C 6.05177 32.03334 0.0086
C 6.00151 30.59913 -0.00643
C 4.85577 29.876 0.017
C 3.63523 5.00175 0.01226
C 4.87542 28.49498 -0.03113
C 6.0756 26.33632 -0.00094
C 4.89975 25.63642 0.02322
C 4.94472 24.20428 -0.00725
C 6.18461 23.41268 -0.05697
C 6.25626 22.02343 0.01087
C 5.00755 21.25455 -0.01343
C 5.09454 19.88307 0.00988
C 6.23931 19.05648 0.0276
C 6.2918 17.65966 0.01305
C 6.07739 27.78709 -0.02566
C 3.62259 6.35156 0.03828
C 2.41542 7.13233 0.0174
C 2.35647 8.55101 0.0073
C 3.63021 30.53685 -0.01977
C 2.34072 29.8778 -0.00561
C 2.3863 28.47536 0.00208
C 3.62722 27.68834 0.01707
C 3.69382 26.29137 0.02769
C 2.51918 25.39211 -0.03291
C 2.53939 24.03815 -0.04999
C 3.81584 23.39602 0.04505
C 3.77243 21.89329 0.03284
C 2.55207 21.29361 -0.04307
C 2.52179 19.80545 0.03189
C 3.79509 19.14888 0.00031
C 3.73562 17.75223 -0.003
C 2.45417 17.10234 0.01402
C 2.44763 15.67437 0.02379
C 3.69148 14.87277 0.00907
C 3.61581 13.37455 0.00643
C 2.3632 12.80448 -0.01509
C 2.37254 11.3299 0.03267
C 3.6166 10.68255 0.02374
C 3.67493 9.30822 0.00402
C 4.93993 17.07903 -0.00077
C 4.94314 15.58004 0.03368
C 6.18916 14.77517 -0.02929
C 6.07752 13.52258 -0.00966
C 7.52207 19.79564 0.00685
C 7.33483 16.85549 0.02888
C 7.46981 15.47738 -0.00482
C 8.5886 13.5542 -0.01384
C 7.37915 12.89203 0.03693
C 7.34957 11.37893 0.01745
C 8.55319 10.79932 0.00488
C 8.58246 9.29529 -0.01004
C 7.3796 8.58345 -0.02896
C 7.3316 7.18657 -0.00131
C 8.57464 6.45546 -0.01118
C 8.53781 5.05909 -0.014
C 7.32215 4.41234 0.02147
C 7.36488 3.01178 0.00373
C 8.56758 2.28478 -0.00191
C 8.58051 0.81849 0.00438
C 7.31383 0.11867 0.01291
C 9.82404 32.6742 0.00093
C 11.01396 31.99913 0.00057
C 11.02392 30.58773 -0.01634
C 9.7751 29.83419 -0.00334
C 7.46295 21.24691 0.00895
C 10.97203 27.7529 0.01641
C 8.67875 22.09862 0.00393
C 7.34311 24.20977 -0.0008
C 4.81964 12.75471 -0.03337
C 4.84603 11.35642 0.01227
C 6.08414 10.68294 0.00873
C 6.08361 9.27555 -0.00049
C 4.88034 8.59421 0.00848
C 4.91122 7.12639 -0.01303
C 6.13166 6.49102 -0.01378
C 6.12947 5.06852 0.02635
C 4.90644 4.34841 0.0127
C 4.90895 2.90812 0.01396
C 6.10323 2.25796 0.01849
C 6.06853 0.87965 -0.01142
C 4.80594 0.10374 -0.00562
C 7.33486 32.78068 -0.00494
C 8.52741 32.0677 0.00054
C 8.54096 30.62172 0.03007
C 7.34274 29.93436 -0.00095
C 7.31839 28.53193 0.01572
C 8.49091 27.82893 -0.04848
C 8.5272 26.34926 -0.00892
C 7.33151 25.60914 -0.01362
C 8.56747 23.51406 0.0288
C 3.65232 32.01551 0.02784
C 20.83778 4.89239 0.00667
C 19.64675 2.79231 -0.017
C 30.61821 6.41351 0.01908
C 30.70876 4.90625 0.07705
C 29.46344 4.23155 0.0103
C 29.44264 2.86531 0.02108
C 30.67585 2.11253 0.00716
C 30.71067 0.632 0.00307
C 29.49545 34.03892 0.00346
C 31.96537 32.70252 0.01713
C 33.15944 31.95159 -0.01694
C 29.4414 7.11214 0.01518
C 33.18187 30.51357 0.01428
C 32.00908 28.38912 0.0544
C 33.19648 27.60324 0.00026
C 33.18917 26.21135 0.00682
C 31.92071 25.4987 -0.01779
C 31.98689 24.05373 0.03794
C 33.24088 23.38116 0.01927
C 33.15332 21.93466 0.01574
C 31.9737 21.29087 -0.02383
C 32.00127 19.8524 -0.01429
C 31.96716 29.84018 -0.02142
C 29.4603 8.53006 -0.00971
C 30.57418 9.28606 -0.03735
C 30.66056 10.65689 -0.00944
C 29.48726 32.6228 0.01177
C 30.82257 32.02061 0.04266
C 30.77116 30.55286 0.01324
C 29.62256 29.69696 0.0014
C 29.54839 28.30855 0.00924
C 30.79489 27.6076 0.02326
C 30.6967 26.20441 0.00261
C 29.50876 25.46476 0.03265
C 29.54333 24.12184 -0.02049
C 30.80697 23.37913 -0.01854
C 30.74352 21.98374 -0.01415
C 29.56148 21.28348 -0.03039
C 29.50624 19.84948 0.01836
C 30.79219 19.16379 0.03531
C 30.69694 17.74252 -0.00669
C 29.43081 16.96859 0.0101
C 29.45176 15.59798 0.01705
C 30.69178 14.90139 -0.0405
C 30.66118 13.46765 -0.01303
C 29.32493 12.77766 -0.01461
C 29.43367 11.35542 -0.02155
C 33.20178 19.11177 -0.0136
C 33.16167 17.71698 0.00594
C 31.91775 17.05409 -0.02474
C 31.94149 15.59086 0.00369
C 1.24308 21.96909 0.02712
C 34.43189 21.17931 -0.02213
C 0.08724 19.8879 0.01951
C 1.35088 19.17797 -0.01678
C 1.23437 17.78819 0.01223
C 34.42906 17.05232 0.00648
C 34.37939 15.70045 0.02114
C 1.14936 14.95546 -0.02957
C 1.17912 13.56739 0.00343
C 34.34266 12.86802 -0.02656
C 34.29462 11.47563 -0.02442
C 1.09823 10.67647 -0.00027
C 1.12973 9.22758 -0.00583
C 34.29973 8.55767 -0.02302
C 34.29017 7.12982 -0.02849
C 1.20023 6.48 0.02931
C 1.24747 5.00924 0.00628
C 34.37688 4.28716 -0.0345
C 34.36012 2.89261 -0.00931
C 1.16957 2.14654 -0.00939
C 1.2254 0.71237 -0.00468
C 1.2636 23.38571 0.00723
C 27.16871 34.02405 -0.00416
C 0.03144 24.11186 0.03076
C 1.25124 26.28149 -0.00598
C 33.15749 14.94792 0.00455
C 33.09888 13.56818 -0.00644
C 31.8764 12.82426 -0.01839
C 31.87017 11.39802 0.00137
C 33.08025 10.70669 0.00199
C 33.06753 9.27887 0.04381
C 31.84971 8.50081 0.02806
C 31.84866 7.18579 0.01504
C 33.10707 6.41903 -0.00069
C 33.1667 5.01015 0.04926
C 31.95586 4.20547 -0.03838
C 31.91641 2.85126 0.00349
C 33.25992 2.1353 -0.00323
C 33.20544 0.70189 -0.00841
C 31.94271 0.01312 0.0001
C 34.36291 32.7142 -0.02927
C 1.16021 32.00197 -0.01404
C 1.11324 30.62111 0.01027
C 34.35095 29.84976 0.01831
C 34.36314 28.40262 -0.01037
C 1.20553 27.67558 -0.00439
C 0.00636 25.5956 -0.05239
C 19.65632 4.2212 0.00143
C 28.36398 0.70057 0.01699
C 26.97655 2.84318 0.01259
C 23.19515 9.26446 -0.01662
C 22.0121 8.51292 -0.01185
C 22.12547 7.12069 0.01126
C 23.30211 6.38668 0.01852
C 23.32425 4.95997 -0.00381
C 22.08966 4.2114 0.03046
C 22.12015 2.83961 0.0296
C 23.29662 2.11869 0.03374
C 23.45647 0.71862 -0.02845
C 23.1747 10.6843 -0.00478
C 22.12585 34.03577 -0.03213
C 25.87702 31.89977 0.01153
C 25.85988 30.53956 0.02734
C 24.65244 29.87317 -0.0055
C 24.67475 28.41267 0.01515
C 25.9327 27.63608 -0.00225
C 25.83092 26.29507 0.00071
C 24.54698 25.58412 -0.01107
C 24.60829 24.07362 -0.01586
C 25.7824 23.38236 -0.01971
C 24.57582 32.60444 0.02239
C 21.91734 11.40241 0.01511
C 21.92723 12.78972 0.00199
C 23.15178 13.5237 0.01087
C 20.91471 2.13145 0.00364
C 20.90127 0.66099 -0.00831
C 19.76973 34.05703 -0.02957
C 22.1685 32.6061 -0.04422
C 23.3735 31.91325 0.00654
C 23.40812 30.46867 -0.00703
C 22.20987 29.75373 -0.04076
C 22.25832 28.31178 -0.00652
C 23.46788 27.70908 0.0058
C 23.35458 26.34025 -0.00865
C 22.17484 25.58247 0.00675
C 22.19312 24.19206 -0.00311
C 23.32549 23.44997 0.00742
C 23.18485 21.97397 -0.01594
C 21.86191 21.24835 0.0106
C 21.95216 19.67865 -0.01154
C 23.29272 19.21266 -0.01721
C 23.30361 17.80116 -0.02422
C 21.93869 17.34045 0.01277
C 21.85218 15.8954 0.00096
C 23.21371 14.98233 -0.01527
C 25.71584 21.89991 -0.02118
C 24.50193 21.31355 0.00733
C 24.56099 19.86396 -0.00178
C 25.7808 19.27666 0.00768
C 27.0558 25.51162 -0.00218
C 27.11822 24.1216 -0.01654
C 28.2825 23.40482 -0.00037
C 28.2536 21.96936 -0.0032
C 27.09267 21.32752 0.00622
C 27.03981 19.97396 -0.02815
C 28.20349 19.19986 -0.00942
C 28.24246 17.75223 0.00487
C 26.96529 17.05432 0.00826
C 26.95763 15.65677 -0.00294
C 28.10495 14.91357 0.00152
C 28.07199 13.44157 0.01257
C 26.94675 12.69457 0.02316
C 26.98116 11.27346 0.04185
C 28.18185 10.60523 0.00194
C 28.17586 9.22315 -0.00621
C 26.9157 8.49979 0.02611
C 26.95206 7.12195 0.02198
C 28.18773 6.39486 0.01094
C 28.20208 4.96641 0.00235
C 26.92062 4.25181 0.01495
C 28.29595 26.15925 -0.00802
C 28.22563 2.11245 0.01799
C 28.37469 27.63167 0.00195
C 27.1587 29.85081 0.04306
C 25.76813 17.76178 -0.0276
C 24.46945 17.05376 0.03005
C 24.49447 15.61808 -0.04078
C 25.67888 14.87646 0.02117
C 25.74273 13.46245 0.02737
C 24.51733 12.7858 -0.00498
C 24.39576 11.37978 0.00135
C 25.69509 10.62401 0.03102
C 25.64015 9.23357 0.02555
C 24.45656 8.57214 0.01423
C 24.5129 7.1007 -0.00285
C 25.72268 6.45732 -0.009
C 25.77414 4.99214 -0.01199
C 24.49912 4.24833 -0.00229
C 24.53648 2.85868 -0.00938
C 25.73587 2.15048 -0.0264
C 25.83352 0.72951 -0.01154
C 24.611 34.04947 0.00684
C 27.06885 32.66243 -0.01052
C 28.33841 31.90998 -0.01679
C 28.34496 30.47223 0.00367
C 27.11554 28.45014 0.00996
C 2.41449 32.70028 -0.01979
