383
Graphene
C 34.38604 0.08207 0.01295
C 13.46759 10.70604 0.0076
C 13.57024 9.28106 0.01241
C 12.36602 8.54172 -0.01454
C 12.36447 7.16342 0.01945
C 13.5788 6.39471 0.01416
C 13.50598 4.94706 0.03542
C 12.33861 4.3026 0.02299
C 12.26395 2.87664 0.00244
C 13.49139 2.12621 -0.01717
C 12.25264 11.45206 0.02162
C 13.56944 0.63207 0.05265
C 14.81994 32.67825 -0.02813
C 16.06874 31.98404 0.00374
C 15.94815 30.52181 0.00052
C 14.77269 29.82493 -0.03682
C 14.81281 28.47292 0.01965
C 15.91772 27.64742 0.02058
C 14.72812 15.66617 -0.01957
C 15.88402 14.92887 -0.0108
C 15.89722 13.50194 -0.00368
C 12.28327 34.02406 -0.01952
C 14.7007 12.8063 -0.02696
C 12.28808 12.78277 -0.0014
C 13.49276 14.93398 -0.02162
C 11.05395 5.06206 0.02841
C 9.83972 4.32065 -0.01111
C 9.8052 2.95319 -0.01275
C 11.0064 2.16266 0.00985
C 11.05921 0.72083 -0.02245
C 9.80529 34.06126 -0.00428
C 12.20078 32.64505 0.03101
C 13.50599 31.9555 -0.01536
C 13.49105 30.54255 -0.02689
C 13.43435 13.52903 0.00415
C 12.15554 29.66427 -0.01046
C 13.6216 27.72545 0.02819
C 13.55962 26.3375 0.00165
C 12.5121 25.4497 -0.02971
C 12.26895 24.14098 0.02894
C 12.22823 21.27885 -0.01789
C 12.2449 19.88119 0.00444
C 13.5875 17.79414 -0.00925
C 12.24008 17.132 0.01877
C 12.19675 15.68289 0.01363
C 12.27347 28.14987 -0.00891
C 11.11844 6.435 0.00943
C 14.71332 11.40757 -0.00114
C 16.00264 9.2394 0.00798
C 18.48732 6.37313 -0.0258
C 18.43837 4.9004 -0.0331
C 17.17299 4.25747 -0.00316
C 17.15747 2.79901 0.02188
C 18.39476 2.04993 -0.01979
C 18.44898 0.69691 0.02691
C 17.26103 34.04374 -0.01581
C 19.6865 32.60595 0.01452
C 20.95331 31.93687 0.04892
C 17.20887 7.13257 0.03338
C 20.90681 30.53902 -0.00111
C 19.70605 28.25837 0.03754
C 21.0198 27.66212 0.01739
C 19.72566 15.36895 0.00755
C 21.02679 15.00055 -0.0054
C 20.91954 13.50384 0.00667
C 19.67128 12.76253 0.00143
C 19.62428 11.33213 -0.017
C 20.89665 10.6787 0.00364
C 20.93066 9.15525 -0.00831
C 19.6643 29.72345 -0.03557
C 15.93884 10.64024 0.00228
C 17.20898 8.5538 -0.00491
C 18.38395 10.69011 0.03698
C 14.76244 8.60411 0.00422
C 14.79195 7.11951 0.0351
C 15.99013 6.40657 -0.03113
C 15.96576 4.96869 0.02098
C 14.75996 4.23931 0.01848
C 14.76385 2.8282 -0.00619
C 15.9467 2.10103 -0.02162
C 16.03081 0.68366 0.00889
C 14.81788 34.06886 -0.00481
C 18.42786 9.20901 -0.00109
C 17.31326 32.65498 0.00979
C 18.45405 30.47045 0.03505
C 17.2762 29.73337 -0.02815
C 17.16883 28.12921 -0.04147
C 18.44212 27.77385 -0.05302
C 17.11961 15.452 0.00213
C 18.42361 14.99112 -0.00066
C 18.34502 13.45862 -0.00289
C 17.14202 12.72757 0.00028
C 17.14672 11.30418 -0.02213
C 18.51456 31.94721 0.01443
C 19.62631 8.45342 -0.02957
C 9.88261 7.13194 0.00406
C 11.05451 9.28352 0.00572
C 3.68761 0.76029 -0.00094
C 2.40008 0.05459 0.02322
C 4.72258 32.71198 -0.00725
C 6.09084 21.94704 -0.05697
C 4.85036 21.29978 0.01087
C 4.8501 19.90255 -0.01343
C 6.09693 19.24405 0.00988
C 6.10568 17.84821 0.0276
C 4.87372 17.08942 0.01305
C 3.69105 2.19342 -0.02566
C 4.90108 15.71471 -0.00077
C 6.12676 13.58117 -0.02929
C 4.91918 12.86938 -0.00966
C 4.91098 11.35515 -0.03337
C 6.12333 10.66838 0.01227
C 6.09034 9.31355 0.00873
C 4.84639 8.55192 -0.00049
C 4.80704 7.11716 0.00848
C 6.09815 6.43541 -0.01303
C 6.11701 5.00437 -0.01378
C 6.13628 15.06568 0.03368
C 4.86107 4.25312 0.02635
C 2.42334 2.85169 -0.03113
C 3.65668 4.99892 -0.00643
C 2.53984 30.09111 -0.003
C 2.33541 25.54701 0.01402
C 2.53593 24.16385 0.02379
C 3.69012 23.35991 0.00907
C 3.6367 21.93257 0.00643
C 2.41341 21.33994 -0.01509
C 2.36009 19.92268 0.03267
C 3.6019 19.23386 0.02374
C 3.67825 17.76121 0.00402
C 2.4422 4.28711 0.017
C 2.42634 17.02824 0.0073
C 3.68806 15.00255 0.03828
C 3.74336 13.61262 0.01226
C 2.46879 12.84648 -0.00279
C 2.43997 11.3467 0.01996
C 3.64717 10.65214 -0.03996
C 3.6195 9.25985 0.01465
C 2.40728 8.50567 -0.00074
C 2.36152 7.05597 -0.00518
C 3.59557 6.39585 0.0086
C 2.48279 15.65774 0.0174
C 9.83012 8.59376 0.03592
C 4.90732 2.84955 0.0127
C 6.14802 0.74584 0.01849
C 8.63527 0.72936 -0.01118
C 7.3 0.1315 -0.014
C 9.7721 32.48139 0.02147
C 11.05165 31.8827 0.00373
C 10.98728 30.42386 -0.00191
C 11.42871 26.41384 0.00438
C 9.71731 23.95658 0.01291
C 11.09584 23.45504 0.00093
C 11.10404 22.00768 0.00057
C 8.64435 2.16337 -0.00131
C 9.82488 21.38055 -0.01634
C 11.09185 19.18034 0.02339
C 11.01083 17.79466 0.01641
C 9.76146 17.11053 -0.00719
C 9.78114 15.71609 0.01364
C 10.98585 14.97093 -0.01062
C 11.07749 13.51804 -0.00033
C 9.85312 12.85296 0.03589
C 9.89555 11.39855 -0.02759
C 11.05532 10.72035 0.0402
C 9.87052 19.91164 -0.00334
C 6.18093 2.12165 0.01396
C 7.42619 2.87408 -0.02896
C 8.6837 5.09765 0.00488
C 4.93127 34.05562 -0.01142
C 7.44854 32.80274 -0.00562
C 8.51802 32.07784 -0.00494
C 8.62428 23.42434 0.00054
C 8.57237 22.02145 0.03007
C 7.37319 21.31313 -0.00095
C 7.34548 19.93304 0.01572
C 8.56943 19.21094 -0.04848
C 8.57294 17.83142 -0.00892
C 7.45283 4.28472 -0.01004
C 7.37664 17.1003 -0.01362
C 8.59452 14.98264 0.0288
C 8.59096 13.59353 0.00393
C 7.35318 12.83665 0.00895
C 7.34601 11.42131 0.00685
C 8.59129 10.72151 0.02888
C 8.59912 9.35778 -0.00482
C 7.32486 8.61348 -0.01384
C 7.35789 7.22281 0.03693
C 8.59736 6.47334 0.01745
C 7.39957 15.71431 -0.0008
C 3.55504 32.02868 0.00031
C 19.67679 7.0442 -0.04422
C 20.89778 4.89012 -0.00703
C 29.42025 4.20694 0.0103
C 29.42627 2.86018 0.02108
C 30.6392 2.13681 0.00716
C 30.6605 0.77458 0.00307
C 29.48491 0.0376 0.00346
C 31.95993 32.67035 0.01713
C 33.23453 31.99757 -0.01694
C 33.19377 30.54256 0.01428
C 31.97689 29.87109 -0.02142
C 30.66849 4.9795 0.07705
C 31.85871 28.4723 0.0544
C 33.17004 26.24287 0.00682
C 31.92885 25.5088 -0.01779
C 31.89905 24.14921 0.03794
C 33.16647 23.48868 0.01927
C 33.13988 21.99222 0.01574
C 31.91813 21.29436 -0.02383
C 31.97044 19.88053 -0.01429
C 33.19695 19.15202 -0.0136
C 33.21867 17.75655 0.00594
C 33.07422 27.70414 0.00026
C 32.00717 17.05187 -0.02474
C 30.66042 6.44138 0.01908
C 29.4722 8.47076 -0.00971
C 29.54734 29.86105 0.0014
C 29.46486 28.42608 0.00924
C 30.67424 27.69029 0.02326
C 30.67971 26.2246 0.00261
C 29.39384 25.56162 0.03265
C 29.43787 24.08471 -0.02049
C 30.70117 23.38803 -0.01854
C 30.63062 21.96914 -0.01415
C 29.45768 21.28359 -0.03039
C 29.44193 7.08061 0.01518
C 29.48364 19.87125 0.01836
C 30.817 17.75449 -0.00669
C 29.60126 17.04379 0.0101
C 29.53859 15.62695 0.01705
C 30.7876 14.889 -0.0405
C 30.80505 13.4196 -0.01303
C 29.55146 12.76762 -0.01461
C 29.55756 11.33273 -0.02155
C 30.79292 10.64036 -0.00944
C 30.7154 9.28028 -0.03735
C 30.74298 19.2123 0.03531
C 30.7478 30.60156 0.01324
C 31.97197 15.61096 0.00369
C 33.23369 13.51843 -0.00644
C 34.38178 21.25941 -0.02213
C 34.37468 19.84955 0.01951
C 1.16279 19.1716 -0.01678
C 1.22266 17.74543 0.01223
C 0.06058 17.06773 0.00648
C 0.03762 15.69322 0.02114
C 1.29452 14.94317 -0.02957
C 1.30655 13.51509 0.00343
C 0.0308 12.79191 -0.02656
C 1.22455 22.01694 0.02712
C 0.06329 11.4491 -0.02442
C 1.21515 9.201 -0.00583
C 34.40276 8.50473 -0.02302
C 34.37658 7.12371 -0.02849
C 1.11856 6.33249 0.02931
C 1.12507 4.92036 0.00628
C 34.30591 4.24596 -0.0345
C 34.34808 2.86945 -0.00931
C 1.1673 2.16177 -0.00939
C 1.18832 0.75937 -0.00468
C 1.22856 10.65052 -0.00027
C 33.23523 14.97413 0.00455
C 1.2676 23.43189 0.00723
C 0.0659 25.64663 -0.05239
C 32.01649 12.76326 -0.01839
C 32.01106 11.35069 0.00137
C 33.26378 10.69237 0.00199
C 33.20428 9.25386 0.04381
C 31.99116 8.49385 0.02806
C 31.86908 7.12361 0.01504
C 33.14924 6.41069 -0.00069
C 33.10336 4.98479 0.04926
C 31.89182 4.20434 -0.03838
C 0.01213 24.17829 0.03076
C 31.89936 2.82841 0.00349
C 33.12703 0.72019 -0.00841
C 31.90924 0.03645 0.0001
C 34.40763 32.74839 -0.02927
C 1.17942 32.00252 -0.01404
C 1.19307 30.62459 0.01027
C 34.37913 29.83683 0.01831
C 34.36082 28.45324 -0.01037
C 1.23295 27.81926 -0.00439
C 1.29119 26.437 -0.00598
C 33.14117 2.14534 -0.00323
C 20.89848 6.35981 0.00654
C 30.79692 31.96953 0.04266
C 26.98692 34.05246 -0.00416
C 22.15136 4.22296 0.03046
C 22.10328 2.83176 0.0296
C 23.30984 2.11418 0.03374
C 23.37734 0.67664 -0.02845
C 22.18525 34.02209 -0.03213
C 24.60934 32.64381 0.02239
C 25.8578 31.90535 0.01153
C 25.82885 30.46996 0.02734
C 24.59089 29.81061 -0.0055
C 23.38093 4.90346 -0.00381
C 24.58381 28.39403 0.01515
C 25.63692 26.164 0.00071
C 24.20787 25.37289 -0.01107
C 24.44135 24.04782 -0.01586
C 25.71659 23.39668 -0.01971
C 25.75633 21.97885 -0.02118
C 24.70467 21.14405 0.00733
C 24.47777 19.80914 -0.00178
C 25.69262 19.17609 0.00768
C 25.81542 17.77258 -0.0276
C 25.74551 27.60136 -0.00225
C 24.56215 17.08937 0.03005
C 23.2724 6.36095 0.01852
C 22.11024 8.49683 -0.01185
C 19.67791 4.19773 -0.04076
C 19.62239 2.77407 -0.00652
C 20.90094 2.07643 0.0058
C 20.95511 0.65147 -0.00865
C 19.68967 34.04852 0.00675
C 22.168 32.66677 -0.00311
C 23.3715 31.93714 0.00742
C 23.35832 30.48947 -0.01594
C 22.0847 29.82877 0.0106
C 22.11431 7.07 0.01126
C 22.17424 28.47691 -0.01154
C 23.22198 26.36173 -0.02422
C 23.30238 17.69001 0.01277
C 22.24928 15.71971 0.00096
C 23.44259 14.92562 -0.01527
C 23.38978 13.43152 0.01087
C 22.16613 12.7567 0.00199
C 22.12035 11.37238 0.01511
C 23.42577 10.59979 -0.00478
C 23.38267 9.15452 -0.01662
C 23.35363 27.71492 -0.01721
C 29.49202 32.69718 0.01177
C 24.70005 15.61266 -0.04078
C 25.83318 13.49837 0.02737
C 26.94066 21.22833 0.00622
C 26.89104 19.78536 -0.02815
C 28.23759 19.16892 -0.00942
C 28.37999 17.76434 0.00487
C 27.10443 17.02424 0.00826
C 27.14067 15.63437 -0.00294
C 28.34641 14.93477 0.00152
C 28.41307 13.56082 0.01257
C 27.02975 12.82339 0.02316
C 28.20173 21.98139 -0.0032
C 27.0026 11.36588 0.04185
C 28.32406 9.20405 -0.00621
C 27.0661 8.57445 0.02611
C 27.02512 7.13238 0.02198
C 28.27168 6.37402 0.01094
C 28.26917 4.97596 0.00235
C 27.02059 4.24089 0.01495
C 27.0129 2.81612 0.01259
C 28.20365 2.08311 0.01799
C 28.20548 0.68908 0.01699
C 28.30106 10.63284 0.00194
C 25.9387 14.93951 0.02117
C 28.19594 23.40138 -0.00037
C 26.9125 25.50763 -0.00218
C 24.60037 12.76122 -0.00498
C 24.65238 11.3298 0.00135
C 25.89016 10.63912 0.03102
C 25.85153 9.2741 0.02555
C 24.64386 8.51196 0.01423
C 24.59206 7.07924 -0.00285
C 25.78842 6.41165 -0.009
C 25.81517 4.91132 -0.01199
C 24.5776 4.23574 -0.00229
C 26.94179 24.11797 -0.01654
C 24.66818 2.82593 -0.00938
C 25.76545 0.61886 -0.01154
C 24.52138 33.94785 0.00684
C 26.97978 32.62223 -0.01052
C 28.29236 31.90626 -0.01679
C 28.25274 30.5106 0.00367
C 27.10312 29.76795 0.04306
C 27.01815 28.36638 0.00996
C 28.2641 27.65585 0.00195
C 28.15671 26.25868 -0.00802
C 25.78182 2.05244 -0.0264
C 2.37313 32.72557 0.03189
