352
Graphene
C 34.37602 0.03871 0.01295
C 15.98999 31.78175 -0.00114
C 15.92048 30.3995 0.00228
C 14.7464 29.67693 0.00798
C 14.65919 28.22563 0.00422
C 15.89198 27.62202 0.0351
C 15.96704 26.1002 -0.03113
C 14.67272 25.44569 0.02098
C 14.69143 23.9053 0.01848
C 14.78347 32.60957 -0.02696
C 15.93256 23.37128 -0.00619
C 15.90392 0.78445 0.00889
C 14.72125 0.06392 -0.00481
C 17.16513 32.55848 0.00979
C 18.42576 31.88005 0.01443
C 18.32725 30.46467 0.03505
C 17.10559 29.66479 -0.02815
C 17.11678 28.24608 -0.04147
C 18.35855 27.69586 -0.05302
C 15.7092 2.1475 -0.02162
C 18.34771 26.20309 0.00213
C 12.37052 0.05326 -0.00368
C 13.42933 23.43587 -0.01957
C 11.02112 26.36554 0.02162
C 9.69427 25.60677 0.0076
C 9.68334 24.19813 0.01241
C 10.81069 23.4173 -0.01454
C 9.93555 4.31012 0.01945
C 10.1087 2.99239 0.01416
C 11.18965 2.11927 0.03542
C 11.20318 0.7067 0.02299
C 13.53859 0.71648 -0.0108
C 9.89791 0.11412 0.00244
C 13.59639 31.9275 0.05265
C 13.53609 30.47502 -0.01952
C 12.29387 29.80428 -0.02813
C 12.30889 28.37326 0.00374
C 13.42438 27.58237 0.00052
C 13.47374 26.15749 -0.03682
C 12.13423 25.46481 0.01965
C 12.05989 23.90936 0.02058
C 12.3194 32.63184 -0.01717
C 11.04853 27.78157 -0.0014
C 17.21765 25.29987 -0.00066
C 18.60877 23.11705 0.00028
C 20.9176 6.51731 -0.017
C 20.77049 5.08639 0.00364
C 19.51935 4.29262 -0.00831
C 19.50094 2.9026 -0.02957
C 20.71885 2.20398 -0.04422
C 20.82114 0.79452 0.00654
C 19.60423 34.05512 -0.00703
C 22.16147 32.64433 -0.04076
C 19.49639 7.46864 0.00143
C 23.31594 32.02669 -0.00652
C 22.07611 29.75747 -0.00865
C 22.00682 28.33232 0.00675
C 23.28298 27.69284 -0.00311
C 23.28229 26.23997 0.00742
C 22.10014 25.54541 -0.01594
C 22.12818 24.06542 0.0106
C 23.26978 23.42075 -0.01154
C 23.124 21.96777 -0.01721
C 23.30764 30.49225 0.0058
C 17.23895 23.81512 -0.00289
C 19.95588 8.90817 0.00667
C 20.74119 21.98676 0.00755
C 19.43375 21.95613 -0.02213
C 18.44055 6.56551 0.03698
C 18.17067 5.19736 -0.00109
C 17.16715 4.32285 -0.00491
C 17.03096 2.94132 0.03338
C 18.31727 2.11502 -0.0258
C 18.28782 0.63816 -0.0331
C 17.00112 34.05026 -0.00316
C 20.9527 9.48816 -0.0054
C 19.68153 32.58258 0.02188
C 20.86428 30.50249 0.02691
C 19.62189 29.73071 -0.01581
C 19.64374 28.30509 0.01452
C 20.85623 27.59346 0.04892
C 20.84393 26.20453 -0.00111
C 19.63418 25.52848 -0.03557
C 19.57313 24.12226 0.03754
C 20.88238 23.48048 0.01739
C 20.91198 31.95226 -0.01979
C 21.93156 21.34634 -0.02422
C 9.78304 28.51063 0.00415
C 11.07514 30.56345 0.01363
C 2.57151 7.19882 -0.00095
C 3.6986 6.45535 0.01572
C 3.6918 5.04075 -0.04848
C 2.54328 4.29232 -0.00892
C 2.54161 2.89542 -0.01362
C 3.73884 2.16221 -0.0008
C 3.69215 0.79293 0.0288
C 2.45796 0.01555 0.00393
C 2.50709 8.67543 0.03007
C 4.87341 32.76746 0.00895
C 6.18811 30.62344 0.02888
C 4.90767 29.8785 -0.00482
C 4.90564 28.57283 -0.01384
C 6.07529 27.7624 0.03693
C 6.01547 26.37824 0.01745
C 4.78504 25.57 0.00488
C 4.74161 24.21063 -0.01004
C 6.04293 23.43532 -0.02896
C 6.13251 32.09637 0.00685
C 6.18734 22.09289 -0.00131
C 3.77296 9.40048 0.00054
C 2.46165 11.46347 -0.00562
C 3.71931 30.65074 0.0276
C 2.43026 29.9048 0.01305
C 2.41747 28.53205 -0.00077
C 3.60254 27.85894 0.03368
C 3.59237 26.30197 -0.02929
C 2.37253 25.53718 -0.00966
C 2.35106 24.10886 -0.03337
C 3.61328 23.39918 0.01227
C 3.78355 10.77261 -0.00494
C 3.726 21.99052 0.00873
C 2.51901 19.82196 0.00848
C 3.73909 19.10156 -0.01303
C 3.62802 17.72327 -0.01378
C 2.30804 17.09415 0.02635
C 2.38856 15.61589 0.0127
C 3.49579 14.99421 0.01396
C 3.54774 13.62179 0.01849
C 2.29667 12.81068 -0.01142
C 2.54749 21.23924 -0.00049
C 9.83365 29.92214 -0.02162
C 5.00007 21.30479 -0.01118
C 6.23448 19.06431 0.02147
C 8.55874 26.33772 -0.01111
C 7.33805 25.60229 -0.01275
C 7.34391 24.20405 0.00985
C 8.51408 23.54102 -0.02245
C 8.71619 22.17255 -0.00428
C 7.59802 21.30947 0.03101
C 7.35782 19.90596 -0.01536
C 7.3618 8.58184 -0.02689
C 8.49866 27.82639 0.02841
C 7.44381 7.28207 -0.01046
C 8.87946 5.17668 0.02819
C 7.54192 4.4147 0.00165
C 7.49707 2.93108 -0.02971
C 8.67501 2.18828 0.02894
C 8.65955 0.81522 -0.01789
C 7.42574 0.03836 0.00444
C 9.92035 32.7279 -0.00925
C 11.07732 32.01735 0.01877
C 8.74683 6.54631 -0.00891
C 4.91596 19.84333 -0.014
C 7.30319 28.47387 0.00943
C 8.57331 30.58347 0.03592
C 5.92787 17.74814 0.00373
C 5.0209 16.86827 -0.00191
C 4.76928 15.51898 0.00438
C 4.73609 13.05975 0.01291
C 4.96755 11.63112 0.00093
C 6.10492 10.82001 0.00057
C 6.32977 9.5205 -0.01634
C 4.974 8.6118 -0.00334
C 7.34111 29.84546 0.00406
C 5.005 7.13958 0.02339
C 6.32148 5.1059 -0.00719
C 4.94792 4.3424 0.01364
C 4.97086 2.90015 -0.01062
C 6.15859 2.20733 -0.00033
C 6.20564 0.74027 0.03589
C 4.99365 0.09567 -0.02759
C 7.39429 32.74637 0.0402
C 8.72752 32.06728 0.00572
C 6.28748 6.46825 0.01641
C 23.23442 19.1964 0.01277
C 23.39377 17.94302 0.00096
C 23.21676 14.80047 -0.01527
C 33.13457 32.03967 -0.01694
C 33.1234 30.60397 0.01428
C 31.87802 29.88599 -0.02142
C 31.93559 28.41995 0.0544
C 33.1948 27.77694 0.00026
C 33.14214 26.35085 0.00682
C 31.8539 25.60239 -0.01779
C 31.89996 24.20993 0.03794
C 31.90345 32.68673 0.01713
C 33.10331 23.46224 0.01927
C 31.90514 21.30176 -0.02383
C 31.88541 19.88983 -0.01429
C 33.13675 19.27509 -0.0136
C 33.10768 17.88484 0.00594
C 31.91317 17.2045 -0.02474
C 31.84724 15.64829 0.00369
C 33.13016 14.95184 0.00455
C 33.08445 13.4889 -0.00644
C 33.21933 22.04377 0.01574
C 31.84767 12.84998 -0.01839
C 29.41927 0.01942 0.00346
C 30.68276 2.17196 0.00716
C 29.39953 21.34468 -0.03039
C 29.40991 19.98339 0.01836
C 30.59072 19.20295 0.03531
C 30.68159 17.84101 -0.00669
C 29.42703 17.04015 0.0101
C 29.37071 15.65198 0.01705
C 30.69514 14.96424 -0.0405
C 30.6489 13.57958 -0.01303
C 30.70042 0.70078 0.00307
C 29.47827 12.80786 -0.01461
C 30.67235 10.68415 -0.00944
C 30.76958 9.21175 -0.03735
C 29.51403 8.46828 -0.00971
C 29.50142 6.98434 0.01518
C 30.71709 6.32038 0.01908
C 30.79406 4.9203 0.07705
C 29.48953 4.1977 0.0103
C 29.43735 2.7575 0.02108
C 29.43971 11.33815 -0.02155
C 30.63206 22.03657 -0.01415
C 31.90421 11.31948 0.00137
C 33.18898 9.18108 0.04381
C 1.28233 19.21591 -0.01678
C 1.12727 17.82161 0.01223
C 34.35687 17.16081 0.00648
C 34.38129 15.59115 0.02114
C 1.12587 14.91954 -0.02957
C 1.10223 13.49105 0.00343
C 34.31054 12.71793 -0.02656
C 34.39716 11.3759 -0.02442
C 0.01667 19.93324 0.01951
C 1.24083 10.71083 -0.00027
C 34.39973 8.55148 -0.02302
C 0.02328 7.20375 -0.02849
C 1.32726 6.49944 0.02931
C 1.36239 5.04097 0.00628
C 0.11121 4.26041 -0.0345
C 0.03795 2.84647 -0.00931
C 1.23156 2.18589 -0.00939
C 1.21719 0.82222 -0.00468
C 1.22182 9.26146 -0.00583
C 33.17426 10.65916 0.00199
C 34.40798 21.34803 -0.02213
C 1.16893 23.46292 0.00723
C 31.99542 8.41103 0.02806
C 32.04163 6.97651 0.01504
C 33.27848 6.32496 -0.00069
C 33.26574 4.85992 0.04926
C 31.98817 4.24925 -0.03838
C 31.96295 2.78823 0.00349
C 33.23385 2.14607 -0.00323
C 33.13706 0.63689 -0.00841
C 1.23225 22.01011 0.02712
C 31.88419 0.06926 0.0001
C 1.24547 31.97962 -0.01404
C 1.17189 30.51222 0.01027
C 34.34655 29.9126 0.01831
C 34.39282 28.49144 -0.01037
C 1.15426 27.77229 -0.00439
C 1.16871 26.27493 -0.00598
C 34.39113 25.56959 -0.05239
C 34.36518 24.1636 0.03076
C 34.38494 32.74538 -0.02927
C 30.65296 23.41892 -0.01854
C 29.40232 24.12627 -0.02049
C 29.4005 25.61383 0.03265
C 24.4625 24.1542 -0.01586
C 25.7037 23.44018 -0.01971
C 25.65221 22.07581 -0.02118
C 24.3816 21.36085 0.00733
C 24.39835 19.92441 -0.00178
C 25.6599 19.21122 0.00768
C 25.78997 17.76386 -0.0276
C 24.4662 17.0975 0.03005
C 24.55881 25.63934 -0.01107
C 24.34425 15.61796 -0.04078
C 25.77304 13.50008 0.02737
C 24.51706 12.75286 -0.00498
C 24.58771 11.32015 0.00135
C 25.83147 10.60838 0.03102
C 25.80247 9.23093 0.02555
C 24.61995 8.42766 0.01423
C 24.62782 7.0752 -0.00285
C 25.80973 6.30982 -0.009
C 25.65418 14.94363 0.02117
C 25.79872 4.95261 -0.01199
C 25.71391 26.34863 0.00071
C 24.47692 28.39965 0.01515
C 23.19661 13.43328 0.01087
C 22.10492 12.48145 0.00199
C 22.12339 11.26264 0.01511
C 23.39974 10.52857 -0.00478
C 23.45013 9.14328 -0.01662
C 22.22016 8.6385 -0.01185
C 22.1005 7.1945 0.01126
C 23.35417 6.38917 0.01852
C 25.6615 27.78475 -0.00225
C 23.2569 4.96546 -0.00381
C 21.94486 2.93938 0.0296
C 23.29455 2.24165 0.03374
C 23.32825 0.80979 -0.02845
C 22.07557 0.07146 -0.03213
C 24.48469 32.64815 0.02239
C 25.73383 31.85277 0.01153
C 25.76351 30.4659 0.02734
C 24.5067 29.75268 -0.0055
C 22.08805 4.30166 0.03046
C 24.51049 4.27882 -0.00229
C 24.47501 2.85311 -0.00938
C 25.77111 2.13629 -0.0264
C 28.28067 10.62873 0.00194
C 28.29994 9.19189 -0.00621
C 27.1048 8.49159 0.02611
C 27.05307 7.11499 0.02198
C 28.26289 6.35893 0.01094
C 28.26039 4.90949 0.00235
C 26.94076 4.24023 0.01495
C 26.91341 2.86962 0.01259
C 27.06403 11.30259 0.04185
C 28.20643 2.04425 0.01799
C 26.95248 34.02207 -0.00416
C 29.47363 32.68463 0.01177
C 30.6826 31.96708 0.04266
C 30.67488 30.51513 0.01324
C 29.48993 29.84842 0.0014
C 29.48301 28.41144 0.00924
C 30.76397 27.69262 0.02326
C 30.69257 26.27281 0.00261
C 28.23119 0.6605 0.01699
C 26.99825 12.78519 0.02316
C 28.17352 13.49542 0.01257
C 28.2316 14.82733 0.00152
C 25.75512 0.68156 -0.01154
C 24.5649 34.0626 0.00684
C 27.05122 32.65602 -0.01052
C 28.22417 31.90324 -0.01679
C 28.24062 30.50623 0.00367
C 26.92716 29.76228 0.04306
C 26.9263 28.38756 0.00996
C 28.17138 27.74591 0.00195
C 28.23349 26.36753 -0.00802
C 26.9551 25.58493 -0.00218
C 26.89057 24.23324 -0.01654
C 28.18088 23.49223 -0.00037
C 28.2133 22.08737 -0.0032
C 26.88708 21.34753 0.00622
C 26.9658 19.97758 -0.02815
C 28.17463 19.1741 -0.00942
C 28.26335 17.79826 0.00487
C 26.98147 17.043 0.00826
C 26.9148 15.61756 -0.00294
C 3.70236 31.99588 0.00988
C 2.42114 32.71499 -0.01343
