373
Graphene
C 34.37281 0.01353 0.01295
C 16.01537 6.41331 0.00244
C 16.00762 5.07075 -0.01717
C 14.77181 4.37065 0.05265
C 14.76229 2.92098 -0.01952
C 15.99261 2.20984 -0.02813
C 16.00805 0.79165 0.00374
C 14.77377 0.03812 0.00052
C 17.15109 32.66931 -0.03682
C 18.39722 31.85579 0.01965
C 18.35804 30.47415 0.02058
C 17.20178 29.76386 -0.01957
C 17.22289 28.30167 -0.0108
C 18.45636 27.60972 -0.00368
C 18.48479 26.29281 -0.02696
C 16.8591 15.30246 -0.00114
C 18.35027 14.88888 0.00228
C 18.38113 13.47921 0.00798
C 17.15503 12.76428 0.00422
C 17.19715 11.35028 0.0351
C 14.67184 7.11032 0.02299
C 18.42203 10.68046 -0.03113
C 14.74653 8.50554 0.03542
C 15.96823 10.70058 0.01945
C 13.44215 9.3127 -0.02689
C 12.21794 8.54937 -0.01046
C 12.2254 7.13818 -0.00891
C 13.47218 6.44292 0.02819
C 13.52645 5.0022 0.00165
C 12.24261 4.31048 -0.02971
C 12.27832 2.90372 0.02894
C 13.53946 2.19874 -0.01789
C 13.60076 0.82961 0.00444
C 12.35169 0.06136 -0.00925
C 14.74488 32.71633 0.01877
C 16.02458 31.93635 0.01363
C 15.96561 30.5078 -0.02162
C 14.75854 29.81941 0.00415
C 14.99477 28.48668 -0.0014
C 15.93379 27.52885 0.02162
C 16.12604 13.74389 0.0076
C 14.89175 12.99466 0.01241
C 14.74956 11.44604 -0.01454
C 15.99997 9.20937 0.01416
C 18.45419 9.19395 0.02098
C 17.18975 8.4771 0.01848
C 17.19054 7.0593 -0.00619
C 20.77584 14.90884 -0.01581
C 20.87818 13.46386 0.01452
C 19.61107 12.78324 0.04892
C 19.618 11.37196 -0.00111
C 20.86053 10.6963 -0.03557
C 20.90213 9.18942 0.03754
C 19.6739 8.50857 0.01739
C 19.71017 7.10686 0.00755
C 20.96227 6.35118 -0.0054
C 20.93758 4.94114 0.00667
C 19.64483 4.25741 0.00143
C 19.64632 2.83093 -0.017
C 20.88005 2.03424 0.00364
C 20.85118 0.60433 -0.00831
C 19.5842 34.02162 -0.02957
C 22.0034 32.54971 -0.04422
C 23.26766 31.83332 0.00654
C 23.30505 30.44361 -0.00703
C 22.04926 29.7154 -0.04076
C 19.52097 15.55686 0.02691
C 19.54244 16.92934 -0.01979
C 20.74917 17.6091 0.02188
C 20.80666 19.01028 -0.00316
C 18.45887 6.47668 -0.02162
C 18.49484 5.00335 0.00889
C 17.30564 4.28982 -0.00481
C 17.26235 2.88014 0.00979
C 18.4285 2.06119 0.01443
C 18.39232 0.65215 0.03505
C 17.14109 0.02587 -0.02815
C 19.59707 32.56627 -0.04147
C 20.8172 31.8272 -0.05302
C 13.57626 10.68133 -0.01536
C 20.88937 30.46118 0.00213
C 19.68592 28.33073 -0.00289
C 20.86304 27.54612 0.00028
C 20.78361 26.13748 -0.02213
C 19.51824 25.33798 0.03698
C 19.65593 24.00437 -0.00109
C 20.89701 23.38067 -0.00491
C 20.92615 21.90725 0.03338
C 19.655 21.09684 -0.0258
C 19.73173 19.89877 -0.0331
C 19.60519 29.72951 -0.00066
C 12.29405 11.27904 0.03101
C 12.31933 12.80189 -0.00428
C 13.42954 13.32786 -0.02245
C 2.46197 2.88194 0.03368
C 3.57555 2.16583 -0.02929
C 3.63207 0.6838 -0.00966
C 2.39733 0.01998 -0.03337
C 4.8785 32.71941 0.01227
C 6.10804 32.0229 0.00873
C 6.13221 30.57134 -0.00049
C 4.90081 29.93762 0.00848
C 4.82321 28.47182 -0.01303
C 6.29748 27.88264 -0.01378
C 5.08452 15.40835 0.02635
C 5.88461 13.9731 0.0127
C 4.88717 12.93333 0.01396
C 4.89851 11.52531 0.01849
C 6.18502 10.86863 -0.01142
C 6.25704 9.3449 -0.00562
C 4.97299 8.62859 -0.00494
C 4.84977 7.1528 0.00054
C 6.12949 6.50265 0.03007
C 2.44432 4.27329 -0.00077
C 3.61683 5.06621 0.01305
C 3.67278 6.39974 0.0276
C 2.4259 7.10294 0.00988
C 3.61794 30.63495 0.0174
C 2.4686 29.91116 0.03828
C 2.37485 28.47095 0.01226
C 3.61502 27.68153 -0.00279
C 3.6463 26.33649 0.01996
C 2.49838 25.47174 -0.03996
C 2.46885 23.98726 0.01465
C 2.48475 21.37275 -0.00074
C 2.59255 19.95141 -0.00518
C 6.06973 5.06116 -0.00095
C 3.70075 19.0929 0.0086
C 2.40307 16.97106 0.017
C 2.45029 15.59501 -0.03113
C 3.7481 14.93421 -0.02566
C 3.58186 13.52197 -0.00094
C 2.42419 12.91868 0.02322
C 2.43732 11.41539 -0.00725
C 3.71146 10.74861 -0.05697
C 3.76343 9.29809 0.01087
C 2.49519 8.56545 -0.01343
C 3.73028 17.83602 -0.00643
C 22.10058 28.22648 -0.00652
C 4.88705 4.33761 0.01572
C 6.06374 2.13222 -0.00892
C 9.85177 29.82182 -0.01634
C 9.62057 28.55615 -0.00334
C 9.74526 12.94041 0.02339
C 9.75644 11.3802 0.01641
C 11.00294 10.59648 -0.00719
C 11.0527 9.2564 0.01364
C 9.75812 8.62406 -0.01062
C 9.74953 7.10503 -0.00033
C 10.94918 6.41465 0.03589
C 10.98484 5.04577 -0.02759
C 9.80341 4.26196 0.0402
C 9.81978 2.93125 0.00572
C 11.05592 2.23484 0.03592
C 11.11668 0.80399 0.00406
C 9.90038 0.04029 0.00943
C 12.32378 32.64784 0.02841
C 13.55146 31.98897 -0.01111
C 13.49099 30.5693 -0.01275
C 12.22832 29.8409 0.00985
C 11.10188 30.60002 0.00057
C 11.03987 32.07391 0.00093
C 9.79486 32.72498 0.01291
C 7.30436 0.00789 0.00438
C 6.13575 0.70886 -0.01362
C 4.86327 0.02204 -0.0008
C 7.36215 32.67425 0.0288
C 8.59586 31.96722 0.00393
C 8.62418 30.66552 0.00895
C 7.38566 29.96877 0.00685
C 7.33953 28.54475 0.02888
C 8.67727 13.49271 -0.00482
C 7.24409 13.19468 -0.01384
C 4.8493 2.90762 -0.04848
C 7.33809 11.6703 0.03693
C 8.55586 9.3661 0.00488
C 7.43428 8.58489 -0.01004
C 7.39192 7.16303 -0.02896
C 8.54512 6.43812 -0.00131
C 8.54177 5.04997 -0.01118
C 7.33979 4.29927 -0.014
C 7.31952 2.85478 0.02147
C 8.56633 2.2173 0.00373
C 8.5781 0.75783 -0.00191
C 8.56204 10.82907 0.01745
C 3.66686 31.99064 0.0073
C 23.37877 27.63354 0.0058
C 22.00994 25.46467 0.00675
C 30.64135 2.12967 0.00716
C 30.64058 0.70316 0.00307
C 29.35714 34.07483 0.00346
C 31.89997 32.67741 0.01713
C 33.12733 31.91199 -0.01694
C 33.1862 30.57894 0.01428
C 31.92084 29.85942 -0.02142
C 31.92775 28.44908 0.0544
C 33.17185 27.71301 0.00026
C 33.23877 26.27358 0.00682
C 31.98858 25.57886 -0.01779
C 31.99005 24.13231 0.03794
C 33.17042 23.43886 0.01927
C 33.13923 22.01744 0.01574
C 31.91255 21.26953 -0.02383
C 32.03365 19.8686 -0.01429
C 33.2455 19.16681 -0.0136
C 33.23032 17.70359 0.00594
C 31.95919 16.98985 -0.02474
C 29.37028 2.8321 0.02108
C 31.95449 15.63657 0.00369
C 29.50117 4.33783 0.0103
C 30.70328 6.41388 0.01908
C 30.80968 26.27546 0.00261
C 29.54906 25.56235 0.03265
C 29.50318 24.18724 -0.02049
C 30.73749 23.45445 -0.01854
C 30.76468 21.99457 -0.01415
C 29.53192 21.28011 -0.03039
C 29.52194 19.89939 0.01836
C 30.81861 19.19785 0.03531
C 30.70067 17.76513 -0.00669
C 29.52953 17.07406 0.0101
C 29.60223 15.624 0.01705
C 30.73358 14.89661 -0.0405
C 30.70156 13.47879 -0.01303
C 29.45819 12.76264 -0.01461
C 29.50474 11.35408 -0.02155
C 30.77296 10.70676 -0.00944
C 30.75489 9.17241 -0.03735
C 29.49112 8.57795 -0.00971
C 29.43498 7.17362 0.01518
C 30.76342 4.99196 0.07705
C 33.1746 14.91905 0.00455
C 33.2165 13.50413 -0.00644
C 32.04154 12.77288 -0.01839
C 0.04155 19.93951 0.01951
C 1.35056 19.27742 -0.01678
C 1.23996 17.84686 0.01223
C 34.39799 17.08952 0.00648
C 0.00797 15.65935 0.02114
C 1.20024 14.92514 -0.02957
C 1.17434 13.53054 0.00343
C 34.39355 12.82781 -0.02656
C 0.03941 11.36477 -0.02442
C 1.29752 10.69727 -0.00027
C 1.26539 9.31023 -0.00583
C 0.02742 8.58217 -0.02302
C 0.04975 7.11305 -0.02849
C 1.23577 6.39 0.02931
C 1.22578 4.98635 0.00628
C 0.00256 4.3755 -0.0345
C 34.39855 2.84126 -0.00931
C 1.15176 2.13708 -0.00939
C 1.13288 0.74676 -0.00468
C 0.00477 21.29443 -0.02213
C 1.19767 21.93794 0.02712
C 1.17652 23.357 0.00723
C 34.42726 24.14051 0.03076
C 32.02221 11.37362 0.00137
C 33.24354 10.63985 0.00199
C 33.19156 9.28228 0.04381
C 31.94576 8.57913 0.02806
C 32.00432 7.11074 0.01504
C 33.26176 6.43286 -0.00069
C 33.21458 5.03606 0.04926
C 31.94178 4.32757 -0.03838
C 31.89391 2.86327 0.00349
C 30.72159 27.69332 0.02326
C 33.16893 2.17246 -0.00323
C 31.91557 0.04691 0.0001
C 34.37714 32.70042 -0.02927
C 1.15625 32.02684 -0.01404
C 1.1115 30.58744 0.01027
C 34.37036 29.85485 0.01831
C 34.3846 28.41031 -0.01037
C 1.25543 27.71454 -0.00439
C 1.32613 26.22505 -0.00598
C 0.04368 25.5429 -0.05239
C 33.17249 0.7478 -0.00841
C 29.43394 28.39014 0.00924
C 29.45712 29.84863 0.0014
C 30.71324 30.49037 0.01324
C 24.53914 32.53911 0.02239
C 25.71136 31.86791 0.01153
C 25.78199 30.47866 0.02734
C 24.52115 29.70812 -0.0055
C 24.5489 28.29748 0.01515
C 25.79479 27.64082 -0.00225
C 25.82939 26.17652 0.00071
C 24.51923 25.49953 -0.01107
C 24.49286 24.10978 -0.01586
C 25.75489 23.32739 -0.01971
C 25.75054 21.9665 -0.02118
C 24.60041 21.21336 0.00733
C 24.53197 19.82405 -0.00178
C 25.85011 19.13358 0.00768
C 25.84316 17.7482 -0.0276
C 24.61229 17.04296 0.03005
C 24.59946 15.63562 -0.04078
C 25.82883 14.84146 0.02117
C 25.79418 13.47079 0.02737
C 22.02991 34.00409 -0.03213
C 23.26589 0.63647 -0.02845
C 23.40911 2.049 0.03374
C 22.07283 2.74714 0.0296
C 22.14069 24.05438 -0.00311
C 23.32814 23.39144 0.00742
C 23.32112 21.98916 -0.01594
C 22.08038 21.23632 0.0106
C 22.04803 19.85348 -0.01154
C 23.2919 19.15168 -0.01721
C 23.37774 17.69831 -0.02422
C 22.11233 16.93924 0.01277
C 22.01538 15.60782 0.00096
C 24.54382 12.83121 -0.00498
C 23.27088 14.92549 -0.01527
C 22.09072 12.77163 0.00199
C 22.02843 11.40261 0.01511
C 23.313 10.66627 -0.00478
C 23.41423 9.28253 -0.01662
C 22.15704 8.49856 -0.01185
C 22.16887 7.10882 0.01126
C 23.42199 6.38107 0.01852
C 23.27706 4.91277 -0.00381
C 22.08826 4.18061 0.03046
C 23.31759 13.55747 0.01087
C 23.3103 26.22575 -0.00865
C 24.54461 11.36005 0.00135
C 25.82991 9.26673 0.02555
C 27.04884 16.99712 0.00826
C 27.01318 15.57037 -0.00294
C 28.36954 14.94331 0.00152
C 28.23366 13.49507 0.01257
C 27.06397 12.78973 0.02316
C 27.00617 11.35995 0.04185
C 28.27624 10.62475 0.00194
C 28.24509 9.24912 -0.00621
C 26.9968 8.54151 0.02611
C 27.05187 7.10601 0.02198
C 28.25199 6.41598 0.01094
C 28.21622 4.99761 0.00235
C 27.03927 4.19673 0.01495
C 26.93009 2.84868 0.01259
C 28.16893 2.19293 0.01799
C 28.25158 0.74971 0.01699
C 26.98413 34.04932 -0.00416
C 29.39798 32.67175 0.01177
C 30.62197 32.00551 0.04266
C 28.33743 17.67566 0.00487
C 28.26944 19.07176 -0.00942
C 27.05952 19.87723 -0.02815
C 27.0589 21.31793 0.00622
C 24.54243 8.52277 0.01423
C 24.57729 7.11745 -0.00285
C 25.85971 6.34437 -0.009
C 25.82607 4.93496 -0.01199
C 24.63283 4.26314 -0.00229
C 24.54841 2.80182 -0.00938
C 25.77703 2.0592 -0.0264
C 25.7191 0.62579 -0.01154
C 24.50866 34.01022 0.00684
C 25.75376 10.64146 0.03102
C 26.98257 32.6614 -0.01052
C 28.26027 30.51043 0.00367
C 27.00038 29.78682 0.04306
C 27.02338 28.36244 0.00996
C 28.20499 27.65799 0.00195
C 28.29985 26.21132 -0.00802
C 27.05171 25.46214 -0.00218
C 27.09002 24.07308 -0.01654
C 28.29023 23.44923 -0.00037
C 28.25615 21.99935 -0.0032
C 28.15531 31.91913 -0.01679
C 2.37858 32.73752 0.00402
