355
Graphene
C 0.04305 0.04637 0.01295
C 16.0016 27.64267 -0.00368
C 15.92461 26.33291 -0.02696
C 14.72714 25.60233 -0.00114
C 14.79451 24.13309 0.00228
C 16.03426 23.49473 0.00798
C 15.98764 22.02813 0.00422
C 14.67878 21.28974 0.0351
C 14.70893 19.82869 -0.03113
C 14.74836 28.28754 -0.0108
C 15.96415 19.07997 0.02098
C 16.12503 0.73934 -0.00619
C 14.85712 0.04593 -0.02162
C 17.25644 32.62553 0.00889
C 18.50058 31.96347 -0.00481
C 18.44537 30.58834 0.00979
C 17.19882 29.75981 0.01443
C 17.2529 28.34124 0.03505
C 18.33899 27.6494 -0.02815
C 16.18532 17.61894 0.01848
C 18.43061 26.24458 -0.04147
C 14.75221 29.81679 -0.01957
C 16.01134 31.91253 0.01965
C 9.83784 0.06307 0.00415
C 12.21836 32.68528 -0.0014
C 13.54327 32.02336 0.02162
C 13.55387 30.59669 0.0076
C 12.32308 29.83951 0.01241
C 12.33656 28.45628 -0.01454
C 13.52405 27.68417 0.01945
C 13.53926 26.26835 0.01416
C 16.02124 30.52739 0.02058
C 12.32787 25.64767 0.03542
C 13.53013 23.45791 0.00244
C 13.49551 22.03228 -0.01717
C 12.29376 21.24159 0.05265
C 12.31472 19.76143 -0.01952
C 13.55251 19.21322 -0.02813
C 13.62337 0.63113 0.00374
C 12.27321 0.0412 0.00052
C 14.77168 32.66795 -0.03682
C 12.27505 24.12726 0.02299
C 17.11766 25.518 -0.05302
C 17.27628 24.15079 0.00213
C 18.51689 23.44013 -0.00066
C 20.78214 14.87856 0.00143
C 21.00995 13.52569 -0.017
C 20.86113 6.54309 0.00364
C 20.77585 5.07789 -0.00831
C 19.71905 4.16796 -0.02957
C 19.60769 2.82789 -0.04422
C 20.89575 2.12753 0.00654
C 20.94147 0.69952 -0.00703
C 19.6392 15.63416 0.00667
C 19.65414 0.04657 -0.04076
C 23.41992 31.96367 0.0058
C 23.39752 30.58733 -0.00865
C 22.18707 29.77619 0.00675
C 22.16424 24.10212 -0.00311
C 23.3624 23.41666 0.00742
C 23.33469 21.97107 -0.01594
C 22.06626 21.30243 0.0106
C 22.10091 19.83291 -0.01154
C 22.15245 32.56841 -0.00652
C 19.69766 16.97711 -0.0054
C 20.91118 17.78357 0.00755
C 20.83094 19.17793 0.01739
C 18.41276 22.02066 -0.00289
C 17.10557 21.37331 0.00028
C 17.16506 19.9128 -0.02213
C 18.40165 19.14763 0.03698
C 18.48103 17.67631 -0.00109
C 17.20541 17.0752 -0.00491
C 18.45444 2.12417 0.03338
C 18.45123 0.78434 -0.0258
C 17.28209 0.04603 -0.0331
C 19.71097 32.65066 -0.00316
C 20.91438 31.91226 0.02188
C 20.88202 30.40813 -0.01979
C 19.58932 29.83773 0.02691
C 19.7359 25.58013 -0.01581
C 19.67303 24.18907 0.01452
C 20.87965 23.48267 0.04892
C 20.83751 22.01112 -0.00111
C 19.65478 21.29964 -0.03557
C 19.58998 19.8655 0.03754
C 11.0232 0.70142 -0.02162
C 23.39512 19.15762 -0.01721
C 10.98352 19.17359 0.01363
C 9.79126 21.25121 -0.00925
C 2.4356 7.06183 -0.00494
C 3.66392 6.33675 0.00054
C 3.71557 4.96501 0.03007
C 2.45815 4.24977 -0.00095
C 2.502 2.85796 0.01572
C 3.67136 2.17503 -0.04848
C 3.67437 0.69865 -0.00892
C 2.46845 34.0696 -0.01362
C 2.45063 8.5168 -0.00562
C 4.94104 32.73273 -0.0008
C 6.1516 30.49079 0.00393
C 4.88823 29.86014 0.00895
C 4.86982 28.42827 0.00685
C 6.09848 27.7301 0.02888
C 6.13596 26.26622 -0.00482
C 4.93353 25.61166 -0.01384
C 4.94912 24.10496 0.03693
C 6.18281 23.46973 0.01745
C 6.16806 31.99703 0.0288
C 6.11598 22.03307 0.00488
C 3.53263 9.41448 -0.01142
C 2.48701 11.45475 0.01396
C 3.66297 30.52856 0.01087
C 2.41228 29.83792 -0.01343
C 2.41744 28.42111 0.00988
C 3.72281 27.66627 0.0276
C 3.73059 26.29348 0.01305
C 2.47354 25.55194 -0.00077
C 2.56113 24.13981 0.03368
C 3.72754 23.47024 -0.02929
C 3.57556 10.57343 0.01849
C 3.61111 22.08588 -0.00966
C 2.47844 19.91151 0.01227
C 3.72192 19.17683 0.00873
C 3.6788 17.79743 -0.00049
C 2.49405 17.01948 0.00848
C 2.44657 15.55793 -0.01303
C 3.74878 14.8623 -0.01378
C 3.65767 13.44288 0.02635
C 2.40798 12.82903 0.0127
C 2.40755 21.37151 -0.03337
C 4.88752 21.36626 -0.01004
C 4.97597 19.92262 -0.02896
C 6.16232 19.11557 -0.00131
C 8.65339 19.21137 0.00943
C 8.51745 17.7694 0.02841
C 7.46175 17.16218 -0.01111
C 7.45271 2.76248 -0.01275
C 8.38282 2.10866 0.00985
C 8.59916 0.72408 -0.02245
C 7.42392 0.01638 -0.00428
C 9.86412 32.67052 0.03101
C 7.37062 19.90907 0.00406
C 11.07119 32.01426 -0.01536
C 9.78259 29.82861 -0.01046
C 9.89824 28.41763 -0.00891
C 11.15324 27.70733 0.02819
C 11.08374 26.28525 0.00165
C 9.78298 25.47013 -0.02971
C 9.81309 24.10406 0.02894
C 11.04765 23.4058 -0.01789
C 11.01117 21.92372 0.00444
C 11.08426 30.54534 -0.02689
C 7.34212 21.33734 0.03592
C 8.57404 22.0148 0.00572
C 8.62534 23.35251 0.0402
C 6.11524 17.76124 -0.01118
C 4.90496 17.09989 -0.014
C 5.00652 15.65673 0.02147
C 6.10817 14.91038 0.00373
C 4.90066 12.82585 -0.00191
C 4.96548 4.29567 0.00438
C 4.90258 2.88052 0.01291
C 6.10775 2.21828 0.00093
C 6.21743 0.75437 0.00057
C 4.96398 0.07536 -0.01634
C 7.38163 32.71245 -0.00334
C 8.63483 32.03428 0.02339
C 8.56747 30.6499 0.01641
C 7.36068 29.88753 -0.00719
C 7.38503 28.44168 0.01364
C 8.56616 27.70093 -0.01062
C 8.61049 26.30971 -0.00033
C 7.40371 25.54141 0.03589
C 7.42088 24.11702 -0.02759
C 9.82749 19.88152 0.01877
C 3.66857 32.01673 -0.05697
C 23.38757 17.75173 -0.02422
C 22.09698 15.63362 0.00096
C 31.93168 32.67851 0.01713
C 33.1668 31.92012 -0.01694
C 33.20676 30.50316 0.01428
C 31.95074 29.87221 -0.02142
C 31.95574 28.44199 0.0544
C 33.25481 27.75637 0.00026
C 33.23313 26.25738 0.00682
C 31.96401 25.58096 -0.01779
C 29.47085 34.05909 0.00346
C 31.97359 24.1351 0.03794
C 33.15867 22.03575 0.01574
C 31.86475 21.30462 -0.02383
C 31.88718 19.89312 -0.01429
C 33.1357 19.13741 -0.0136
C 33.19257 17.77369 0.00594
C 31.94421 17.03183 -0.02474
C 31.99942 15.67096 0.00369
C 33.20755 14.88308 0.00455
C 33.16712 23.43141 0.01927
C 33.16818 13.48623 -0.00644
C 30.74022 0.71116 0.00307
C 29.53421 2.8632 0.02108
C 30.73498 22.00741 -0.01415
C 29.53065 21.27929 -0.03039
C 29.46707 19.89781 0.01836
C 30.68145 19.22156 0.03531
C 30.7315 17.76503 -0.00669
C 29.51846 16.98156 0.0101
C 29.58013 15.58827 0.01705
C 30.77229 14.92528 -0.0405
C 30.72887 2.16198 0.00716
C 30.7395 13.50569 -0.01303
C 29.49339 11.33928 -0.02155
C 30.73563 10.66798 -0.00944
C 30.73112 9.21962 -0.03735
C 29.56933 8.54141 -0.00971
C 29.55136 7.01668 0.01518
C 30.79385 6.34037 0.01908
C 30.77076 4.96687 0.07705
C 29.57058 4.31383 0.0103
C 29.52659 12.73207 -0.01461
C 31.94664 12.76458 -0.01839
C 31.99665 11.32323 0.00137
C 33.19679 10.58518 0.00199
C 1.19389 19.16664 -0.01678
C 1.20568 17.71823 0.01223
C 34.36113 17.08399 0.00648
C 0.00013 15.60573 0.02114
C 1.2295 14.86711 -0.02957
C 1.23645 13.46871 0.00343
C 0.00677 12.81997 -0.02656
C 0.04623 11.34515 -0.02442
C 34.40527 19.80393 0.01951
C 1.26196 10.6605 -0.00027
C 0.03481 8.48719 -0.02302
C 34.40674 7.08167 -0.02849
C 1.21495 6.34605 0.02931
C 1.2368 4.94987 0.00628
C 34.41048 4.3178 -0.0345
C 0.00484 2.89136 -0.00931
C 1.21376 2.16728 -0.00939
C 1.2601 0.79561 -0.00468
C 1.19436 9.28221 -0.00583
C 34.411 21.29223 -0.02213
C 1.20145 22.03274 0.02712
C 1.28513 23.495 0.00723
C 33.24032 9.17119 0.04381
C 31.9243 8.5228 0.02806
C 31.97848 7.11358 0.01504
C 33.18284 6.42942 -0.00069
C 33.219 5.02523 0.04926
C 31.93353 4.20527 -0.03838
C 31.93415 2.76546 0.00349
C 33.20534 2.13239 -0.00323
C 33.26618 0.72272 -0.00841
C 31.92393 34.0425 0.0001
C 34.37502 32.68284 -0.02927
C 1.17661 31.88974 -0.01404
C 1.17314 30.52108 0.01027
C 34.43172 29.81252 0.01831
C 0.01712 28.4243 -0.01037
C 1.22278 27.76826 -0.00439
C 1.21892 26.27709 -0.00598
C 34.42502 25.52334 -0.05239
C 34.41662 24.12892 0.03076
C 30.72217 23.42472 -0.01854
C 22.1036 17.05949 0.01277
C 29.5053 24.11139 -0.02049
C 30.7378 26.25394 0.00261
C 24.52061 25.62054 -0.01107
C 24.5781 24.21937 -0.01586
C 25.82589 23.51234 -0.01971
C 25.79347 22.06161 -0.02118
C 24.59916 21.25778 0.00733
C 24.58883 19.9255 -0.00178
C 25.85394 19.18507 0.00768
C 25.77141 17.75866 -0.0276
C 25.75081 26.20192 0.00071
C 24.55398 17.03104 0.03005
C 25.79202 14.97399 0.02117
C 25.81247 13.57357 0.02737
C 24.61087 12.7224 -0.00498
C 24.5929 11.3136 0.00135
C 25.77328 10.6341 0.03102
C 25.82568 9.25786 0.02555
C 24.60239 8.46806 0.01423
C 24.53696 7.03701 -0.00285
C 24.53952 15.64384 -0.04078
C 25.84002 6.36465 -0.009
C 25.79413 27.65691 -0.00225
C 24.52401 29.78751 -0.0055
C 23.34791 14.83384 -0.01527
C 23.42634 13.47222 0.01087
C 22.13303 12.74914 0.00199
C 22.14595 11.31102 0.01511
C 23.34883 10.58537 -0.00478
C 23.32975 9.17165 -0.01662
C 22.10545 8.50164 -0.01185
C 22.09654 7.14128 0.01126
C 24.66528 28.37874 0.01515
C 23.36694 6.37547 0.01852
C 22.05466 4.26594 0.03046
C 22.06453 2.82421 0.0296
C 23.36783 2.08173 0.03374
C 23.31061 0.71239 -0.02845
C 22.16013 34.03253 -0.03213
C 24.6062 32.6758 0.02239
C 25.70851 31.92995 0.01153
C 25.76234 30.46459 0.02734
C 23.34623 4.9443 -0.00381
C 25.8201 4.95754 -0.01199
C 24.65912 4.18108 -0.00229
C 24.58601 2.76827 -0.00938
C 27.05936 11.3382 0.04185
C 28.28637 10.6293 0.00194
C 28.30505 9.14834 -0.00621
C 27.00989 8.4832 0.02611
C 27.05232 7.10871 0.02198
C 28.33457 6.31829 0.01094
C 28.32837 4.91601 0.00235
C 27.07041 4.2086 0.01495
C 27.05361 12.79082 0.02316
C 27.08626 2.7959 0.01259
C 28.30303 0.66453 0.01699
C 27.07553 34.0619 -0.00416
C 29.53166 32.65372 0.01177
C 30.70302 31.97904 0.04266
C 30.78935 30.54564 0.01324
C 29.56824 29.86749 0.0014
C 29.57546 28.45898 0.00924
C 30.75009 27.72407 0.02326
C 28.34017 2.06682 0.01799
C 28.24884 13.48011 0.01257
C 28.29973 14.9552 0.00152
C 27.01518 15.68383 -0.00294
C 25.85144 2.12718 -0.0264
C 25.81703 0.7279 -0.01154
C 24.59051 0.06727 0.00684
C 27.04681 32.6438 -0.01052
C 28.26319 31.97492 -0.01679
C 28.30133 30.57934 0.00367
C 27.01155 29.80421 0.04306
C 27.10933 28.4409 0.00996
C 28.35031 27.70438 0.00195
C 28.31055 26.24351 -0.00802
C 26.96969 25.53101 -0.00218
C 27.07839 24.17448 -0.01654
C 28.28553 23.41648 -0.00037
C 28.41118 22.04149 -0.0032
C 27.03961 21.34351 0.00622
C 27.05212 19.89483 -0.02815
C 28.27515 19.13442 -0.00942
C 28.18037 17.73881 0.00487
C 26.9492 17.08592 0.00826
C 29.48325 25.50874 0.03265
C 2.37155 32.68044 -0.00725
