325
Graphene
C 34.35924 34.07222 0.01295
C 14.74364 4.33242 -0.00066
C 14.77498 2.88155 -0.00289
C 15.9794 2.16124 0.00028
C 16.00346 0.7403 -0.02213
C 14.7523 34.05494 0.03698
C 17.14408 32.64082 -0.00109
C 18.4186 31.93952 -0.00491
C 15.99364 5.05572 0.00213
C 18.40935 30.51596 0.03338
C 17.13899 28.43047 -0.0331
C 18.3806 27.64468 -0.00316
C 18.41137 26.25975 0.02188
C 17.21948 25.56185 -0.01979
C 17.00568 7.243 0.02691
C 18.31567 6.38401 -0.01581
C 18.42893 4.99563 0.01452
C 17.12407 29.81582 -0.0258
C 17.19951 4.32342 0.04892
C 15.88775 6.44777 -0.05302
C 14.98981 8.58377 -0.02815
C 12.17189 7.23606 -0.02696
C 13.41286 6.49088 -0.00114
C 13.56865 4.96057 0.00228
C 12.34267 4.35045 0.00798
C 12.28264 2.90971 0.00422
C 13.49498 2.19512 0.0351
C 13.48848 0.73743 -0.03113
C 14.64706 7.06853 -0.04147
C 12.28952 0.04209 0.02098
C 15.90372 31.93111 -0.00619
C 15.92104 30.45771 -0.02162
C 14.72654 29.73668 0.00889
C 14.64283 28.2934 -0.00481
C 15.95391 27.55687 0.00979
C 15.92199 26.10188 0.01443
C 16.31502 8.688 0.03505
C 14.67122 32.62766 0.01848
C 17.19343 2.86943 -0.00111
C 18.4407 2.12861 -0.03557
C 18.39681 0.67996 0.03754
C 20.89341 0.75963 -0.01154
C 19.6827 0.08708 -0.01721
C 22.10696 32.64958 -0.02422
C 23.24606 31.91252 0.01277
C 23.28371 30.50483 0.00096
C 22.05483 29.8175 -0.01527
C 22.09196 28.35339 0.01087
C 20.81205 2.13616 0.0106
C 23.36894 27.76947 0.00199
C 22.19395 25.66486 -0.00478
C 22.18557 24.18327 -0.01662
C 23.38157 23.4753 -0.01185
C 23.2945 21.99887 0.01126
C 22.08314 21.28275 0.01852
C 22.09076 19.91254 -0.00381
C 23.13683 18.9775 0.03046
C 23.37689 26.31913 0.01511
C 19.5859 2.82622 -0.01594
C 19.73344 4.22981 0.00742
C 20.87409 5.10223 -0.00311
C 17.24656 34.05819 0.01739
C 19.63818 32.70134 0.00755
C 20.83811 31.90923 -0.0054
C 20.80529 30.46991 0.00667
C 19.63009 29.74444 0.00143
C 19.64902 28.36919 -0.017
C 20.85705 27.68422 0.00364
C 20.97034 26.25095 -0.00831
C 19.66282 25.54414 -0.02957
C 19.57983 24.12401 -0.04422
C 20.83496 23.54303 0.00654
C 20.88506 22.0769 -0.00703
C 19.68555 21.38421 -0.04076
C 19.581 20.06776 -0.00652
C 20.73512 19.26998 0.0058
C 20.73895 17.84028 -0.00865
C 20.67199 16.32473 0.00675
C 12.17429 8.66585 -0.00368
C 13.66171 9.32034 -0.0108
C 13.82666 10.58503 -0.01957
C 13.36312 27.94425 0.02058
C 2.43956 34.04833 0.00093
C 5.00539 32.6127 0.00057
C 6.24069 31.92221 -0.01634
C 6.20521 30.47287 -0.00334
C 4.95243 29.75917 0.02339
C 4.92315 28.42502 0.01641
C 5.88176 27.32241 -0.00719
C 3.7072 0.76267 0.01291
C 5.2822 26.15985 0.01364
C 6.28832 10.70412 -0.00033
C 6.11294 9.16719 0.03589
C 4.80975 8.52625 -0.02759
C 4.77541 7.11539 0.0402
C 6.0778 6.39548 0.00572
C 6.08427 4.97108 0.03592
C 4.86389 4.2195 0.00406
C 5.08409 11.24011 -0.01062
C 3.67727 2.1477 0.00438
C 2.41988 2.8884 -0.00191
C 2.44063 4.23953 0.00373
C 3.72943 30.50258 -0.0008
C 2.45106 29.90382 0.0288
C 2.4536 28.51242 0.00393
C 3.70029 27.79004 0.00895
C 3.85765 26.35856 0.00685
C 2.55066 25.65789 0.02888
C 2.45756 24.33213 -0.00482
C 2.73813 15.07278 -0.01384
C 3.22058 14.12202 0.03693
C 2.4273 12.95251 0.01745
C 2.48052 11.55851 0.00488
C 3.68379 10.72556 -0.01004
C 3.66565 9.17624 -0.02896
C 2.3429 8.56231 -0.00131
C 2.35992 7.12301 -0.01118
C 3.63807 6.40475 -0.014
C 3.54557 5.02944 0.02147
C 4.89763 2.83266 0.00943
C 23.12055 17.51779 0.0296
C 6.15628 2.04121 0.02841
C 4.91838 34.03262 -0.01275
C 9.79411 28.4205 0.0076
C 11.02058 9.281 0.01241
C 9.73274 8.704 -0.01454
C 9.76607 7.15071 0.01945
C 10.95843 6.48323 0.01416
C 11.10143 5.14596 0.03542
C 9.86994 4.30948 0.02299
C 9.81888 29.89497 0.02162
C 9.81396 2.91253 0.00244
C 11.00111 0.70478 0.05265
C 9.83443 0.08799 -0.01952
C 12.29598 32.67481 -0.02813
C 13.48056 31.91243 0.00374
C 13.53256 30.51733 0.00052
C 12.17137 29.90577 -0.03682
C 12.1733 28.57233 0.01965
C 11.10416 2.18234 -0.01717
C 11.00277 30.7159 -0.0014
C 11.09613 32.12752 0.00415
C 9.79764 32.65658 -0.02162
C 7.44991 32.55318 0.00985
C 8.65754 31.92415 -0.02245
C 8.54459 30.46959 -0.00428
C 7.35297 29.58442 0.03101
C 7.20915 28.13304 -0.01536
C 8.57408 27.77331 -0.02689
C 7.9295 10.73726 -0.01046
C 8.3906 9.40447 -0.00891
C 7.29881 8.50365 0.02819
C 7.30952 7.09685 0.00165
C 8.53697 6.38537 -0.02971
C 8.65503 5.02306 0.02894
C 7.36107 4.33613 -0.01789
C 7.34225 2.85778 0.00444
C 8.56278 2.1727 -0.00925
C 8.60319 0.71011 0.01877
C 7.43407 34.04176 0.01363
C 6.15814 0.6571 -0.01111
C 3.7031 31.9408 -0.01362
C 21.84055 16.94169 0.03374
C 23.29631 5.03109 -0.03213
C 33.15903 26.2312 0.00682
C 31.88286 25.5328 -0.01779
C 31.96618 24.10518 0.03794
C 33.2058 23.40486 0.01927
C 33.12639 21.99808 0.01574
C 31.89995 21.29025 -0.02383
C 31.96951 19.93678 -0.01429
C 33.21119 27.63441 0.00026
C 33.21126 19.2374 -0.0136
C 31.97046 17.04846 -0.02474
C 31.94614 15.65471 0.00369
C 33.16853 14.87255 0.00455
C 33.11229 13.46338 -0.00644
C 31.93116 12.72747 -0.01839
C 31.97266 11.35018 0.00137
C 33.25387 10.59812 0.00199
C 33.22841 17.83528 0.00594
C 33.1641 9.22514 0.04381
C 31.97254 28.39044 0.0544
C 33.13726 30.49748 0.01428
C 30.69738 13.44923 -0.01303
C 29.48507 12.7296 -0.01461
C 29.51639 11.28104 -0.02155
C 30.7611 10.67818 -0.00944
C 30.73589 9.29317 -0.03735
C 29.56139 8.49597 -0.00971
C 29.55636 7.05751 0.01518
C 31.90113 29.80505 -0.02142
C 30.73734 6.33907 0.01908
C 29.45378 4.25843 0.0103
C 29.46088 2.82536 0.02108
C 30.72304 2.06118 0.00716
C 30.70129 0.68801 0.00307
C 29.49362 0.00789 0.00346
C 31.90959 32.65019 0.01713
C 33.08078 31.94112 -0.01694
C 30.67151 4.88508 0.07705
C 31.96057 8.54777 0.02806
C 31.94317 7.0791 0.01504
C 33.17437 6.3887 -0.00069
C 0.04709 17.1019 0.00648
C 34.42637 15.67799 0.02114
C 1.26473 14.91638 -0.02957
C 1.08712 13.50327 0.00343
C 34.36394 12.82831 -0.02656
C 0.01119 11.3849 -0.02442
C 1.25025 10.68642 -0.00027
C 1.19257 17.83414 0.01223
C 1.1946 9.28942 -0.00583
C 34.39921 7.1194 -0.02849
C 1.16541 6.40449 0.02931
C 1.20608 5.00618 0.00628
C 34.35379 4.27246 -0.0345
C 34.38657 2.82573 -0.00931
C 1.19256 2.10696 -0.00939
C 1.15735 0.74597 -0.00468
C 34.42539 8.52495 -0.02302
C 1.10252 19.19541 -0.01678
C 0.02908 19.97794 0.01951
C 0.03463 21.39644 -0.02213
C 33.15786 4.98222 0.04926
C 31.93791 4.24928 -0.03838
C 31.97619 2.84346 0.00349
C 33.18152 2.15953 -0.00323
C 33.12825 0.73472 -0.00841
C 31.92319 34.04557 0.0001
C 34.3584 32.6516 -0.02927
C 1.19613 32.02361 -0.01404
C 1.24283 30.61256 0.01027
C 34.41418 29.92655 0.01831
C 0.00126 28.45738 -0.01037
C 1.18413 27.76838 -0.00439
C 1.20465 26.35168 -0.00598
C 0.03763 25.54014 -0.05239
C 0.01169 24.11185 0.03076
C 1.37219 23.52475 0.00723
C 1.20884 22.05908 0.02712
C 30.73453 14.92556 -0.0405
C 29.50243 15.64677 0.01705
C 29.3866 17.03754 0.0101
C 30.62702 17.7173 -0.00669
C 24.68677 15.47446 0.03102
C 25.81947 14.81465 0.02555
C 26.05266 9.76459 0.01423
C 24.49997 7.15468 -0.00285
C 25.74566 6.57149 -0.009
C 25.78718 5.03535 -0.01199
C 24.51855 4.2538 -0.00229
C 24.44167 16.85088 0.00135
C 24.45212 2.86043 -0.00938
C 25.79478 0.78945 -0.01154
C 24.55433 34.06166 0.00684
C 27.02002 32.70718 -0.01052
C 28.24872 31.99025 -0.01679
C 28.22071 30.62203 0.00367
C 27.04647 29.75711 0.04306
C 26.95624 28.36577 0.00996
C 25.73168 2.2276 -0.0264
C 25.69066 17.62004 -0.00498
C 25.68165 19.06952 0.02737
C 24.47858 19.66689 0.02117
C 22.0775 4.29873 0.02239
C 22.01727 2.87316 0.01153
C 23.33977 2.1419 0.02734
C 23.37915 0.71067 -0.0055
C 22.15268 34.05211 0.01515
C 24.55147 32.55794 -0.00225
C 25.80472 31.87153 0.00071
C 25.82701 30.50819 -0.01107
C 24.5238 29.89502 -0.01586
C 24.54382 28.47846 -0.01971
C 25.75647 27.67195 -0.02118
C 25.73066 26.24497 0.00733
C 24.5377 25.5451 -0.00178
C 24.565 24.17782 0.00768
C 25.71759 23.38617 -0.0276
C 25.67689 21.95071 0.03005
C 24.48123 21.15048 -0.04078
C 28.21517 27.64391 0.00195
C 23.46516 6.28873 -0.02845
C 28.13679 26.22413 -0.00802
C 27.04046 24.16097 -0.01654
C 28.2807 0.75489 0.01699
C 27.02199 0.02631 -0.00416
C 29.48844 32.68952 0.01177
C 30.70677 31.89866 0.04266
C 30.6314 30.52424 0.01324
C 29.44879 29.85975 0.0014
C 29.39794 28.42916 0.00924
C 28.1785 2.14958 0.01799
C 30.69568 27.79383 0.02326
C 29.42974 25.60515 0.03265
C 29.44317 24.19787 -0.02049
C 30.72475 23.42924 -0.01854
C 30.66339 22.00625 -0.01415
C 29.43269 21.24102 -0.03039
C 29.47606 19.86436 0.01836
C 30.77059 19.22641 0.03531
C 30.64583 26.33321 0.00261
C 27.01813 2.86934 0.01259
C 27.01579 4.2669 0.01495
C 28.22068 5.006 0.00235
C 28.26744 23.38017 -0.00037
C 28.23835 21.98583 -0.0032
C 26.96164 21.23351 0.00622
C 26.98441 19.82992 -0.02815
C 28.19203 19.10229 -0.00942
C 28.14846 17.70217 0.00487
C 26.96049 16.97593 0.00826
C 27.09038 15.52049 -0.00294
C 28.30553 14.90039 0.00152
C 28.21622 13.35866 0.01257
C 27.01799 12.47872 0.02316
C 26.79074 11.19051 0.04185
C 28.26333 10.59485 0.00194
C 28.3169 9.23122 -0.00621
C 26.96467 8.68771 0.02611
C 27.04698 7.22898 0.02198
C 28.22682 6.41321 0.01094
C 26.94531 25.48962 -0.00218
C 2.45261 32.62771 -0.00892
