269
Graphene
C 34.40937 34.07372 0.01295
C 14.69019 0.03358 -0.00478
C 15.91787 0.63024 0.01511
C 15.98795 2.06918 0.00199
C 14.72861 2.80293 0.01087
C 14.75498 4.26989 -0.01527
C 16.02505 4.91333 0.00096
C 15.98921 6.2902 0.01277
C 14.79128 7.10789 -0.02422
C 14.72767 8.41238 -0.01721
C 15.79114 9.15596 -0.01154
C 15.93109 10.51018 0.0106
C 14.87146 29.98909 -0.01594
C 15.92043 32.07469 0.00742
C 14.58716 32.73843 -0.00311
C 12.23186 0.11716 0.00675
C 13.51085 0.77715 -0.00865
C 13.46955 2.14561 0.0058
C 12.26729 2.91292 -0.00652
C 12.29515 4.3092 -0.04076
C 13.48583 4.92422 -0.00703
C 13.52782 6.39686 0.00654
C 12.40812 7.1046 -0.04422
C 12.23281 29.75365 -0.02957
C 13.56149 30.34987 -0.00831
C 13.46303 31.93579 0.00364
C 12.2687 32.69919 -0.017
C 9.77 0.05345 0.00143
C 10.9548 0.77764 0.00667
C 11.05901 2.24726 -0.0054
C 17.00613 32.58184 -0.01662
C 17.15805 17.44884 -0.01185
C 17.89395 16.39188 0.01126
C 18.47605 14.95092 0.01852
C 19.63472 33.79721 0.01423
C 20.85071 0.62556 0.02555
C 20.89187 2.06027 0.03102
C 19.70787 2.82357 0.00135
C 19.67748 4.24977 -0.00498
C 20.89968 4.93286 0.02737
C 20.89999 6.3638 0.02117
C 19.68966 6.95403 -0.04078
C 19.66101 8.51319 0.03005
C 20.90848 9.28166 -0.0276
C 20.87518 10.66186 0.00768
C 19.62078 11.42175 -0.00178
C 19.57141 12.90741 0.00733
C 20.77793 13.52066 -0.02118
C 9.81284 2.89802 0.00755
C 20.88436 15.06091 -0.01971
C 17.24764 34.00773 -0.01107
C 18.52622 0.58142 0.00071
C 18.50705 1.93888 -0.00225
C 17.28229 2.78256 0.01515
C 17.22557 4.1881 -0.0055
C 18.37564 4.87856 0.02734
C 18.45114 6.3317 0.01153
C 17.23532 7.05918 0.02239
C 17.10082 8.42813 -0.03213
C 18.39806 9.2154 -0.02845
C 18.35922 10.67055 0.03374
C 17.01285 11.27118 0.0296
C 17.16306 12.7192 0.03046
C 18.30561 13.55657 -0.00381
C 19.59776 15.62089 -0.01586
C 9.78476 4.3649 0.01739
C 11.01025 5.08822 0.03754
C 11.04879 6.73364 -0.03557
C 4.82353 25.54311 0.00798
C 6.14947 26.26473 0.00228
C 6.19795 27.71184 -0.00114
C 4.94688 28.33781 -0.02696
C 4.94125 29.7742 -0.00368
C 6.13802 30.50261 -0.0108
C 6.03422 31.94105 -0.01957
C 4.87645 32.75961 0.02058
C 2.37835 0.07774 0.01965
C 3.63617 0.87484 -0.03682
C 3.65415 2.2694 0.00052
C 2.36991 2.87105 0.00374
C 2.33625 4.36728 -0.02813
C 3.61323 5.00486 -0.01952
C 4.82454 24.1626 0.00422
C 3.54614 6.5515 0.05265
C 2.42682 8.67408 0.00244
C 3.73429 9.38849 0.02299
C 2.25396 11.85364 0.03542
C 2.21212 19.8089 0.01416
C 2.38693 21.13768 0.01945
C 3.49413 22.04473 -0.01454
C 3.60017 23.47554 0.01241
C 2.37848 24.15007 0.0076
C 2.33191 25.57606 0.02162
C 3.62085 26.28338 -0.0014
C 3.69411 27.70012 0.00415
C 2.49143 28.42572 -0.02162
C 2.53747 29.80839 0.01363
C 3.69801 30.56432 0.01877
C 2.32535 7.24192 -0.01717
C 22.08417 15.64926 -0.00285
C 6.03517 23.53457 0.0351
C 4.82185 7.20069 0.02098
C 9.81306 7.08536 -0.00111
C 9.97994 28.45963 0.04892
C 9.82098 29.87166 0.01452
C 11.12513 30.58924 -0.01581
C 11.00612 32.02378 0.02691
C 9.81238 32.75081 -0.01979
C 7.31134 0.11065 0.02188
C 8.55306 0.75394 -0.00316
C 8.55839 2.16732 -0.0331
C 7.36769 2.91154 -0.0258
C 7.31869 4.35412 0.03338
C 8.52923 5.12681 -0.00491
C 8.55763 6.62422 -0.00109
C 7.31662 7.36261 0.03698
C 4.53645 8.53356 -0.03113
C 7.24491 24.08463 -0.02213
C 8.54531 26.28858 -0.00289
C 8.7973 27.69626 -0.00066
C 7.45822 28.37774 0.00213
C 7.35994 29.85136 -0.05302
C 8.57851 30.57558 -0.04147
C 8.56137 31.93988 -0.02815
C 7.26235 32.68198 0.03505
C 4.89348 0.13425 0.01443
C 6.0486 0.85555 0.00979
C 6.08625 2.29978 -0.00481
C 4.80596 3.01535 0.00889
C 4.87969 4.39761 -0.02162
C 6.02946 5.1378 -0.00619
C 6.07128 6.54993 0.01848
C 7.41972 25.49116 0.00028
C 3.61748 31.94093 -0.00925
C 23.3552 15.10676 -0.009
C 22.12328 12.91107 -0.00229
C 32.04056 2.92595 0.00349
C 31.97792 4.34335 -0.03838
C 33.16035 5.04454 0.04926
C 33.13732 6.49875 -0.00069
C 31.9618 7.20296 0.01504
C 31.8733 8.59887 0.02806
C 33.16328 9.29888 0.04381
C 33.15692 10.80761 0.00199
C 31.85439 11.39129 0.00137
C 31.8985 12.79674 -0.01839
C 33.11209 13.50512 -0.00644
C 33.12468 14.89257 0.00455
C 31.92258 15.60979 0.00369
C 31.90911 17.12146 -0.02474
C 33.16779 17.73971 0.00594
C 33.11601 19.13554 -0.0136
C 31.74429 19.96611 -0.01429
C 31.91139 21.26716 -0.02383
C 32.98597 22.04727 0.01574
C 33.01992 23.39335 0.01927
C 31.99934 24.24309 0.03794
C 32.03659 25.55224 -0.01779
C 33.12204 26.27983 0.00682
C 33.01057 27.68992 0.00026
C 31.94601 28.51571 0.0544
C 31.74717 29.86738 -0.02142
C 33.14217 30.55727 0.01428
C 33.09391 31.97018 -0.01694
C 31.87418 32.72199 0.01713
C 33.22303 2.18359 -0.00323
C 33.20256 0.75423 -0.00841
C 31.93145 0.14766 0.0001
C 34.36341 32.70049 -0.02927
C 1.11215 0.82968 -0.00468
C 1.12261 2.23701 -0.00939
C 34.30226 2.92209 -0.00931
C 34.34453 4.35443 -0.0345
C 1.08177 5.07871 0.00628
C 1.07967 6.505 0.02931
C 34.34779 7.28513 -0.02849
C 0.00332 8.72333 -0.02302
C 1.26171 9.42799 -0.00583
C 1.24234 10.86375 -0.00027
C 34.36936 11.46165 -0.02442
C 34.30898 12.80802 -0.02656
C 1.24447 13.3407 0.00343
C 1.16668 14.72318 -0.02957
C 29.51898 0.19053 0.00346
C 34.42661 15.52387 0.02114
C 1.07331 17.62667 0.01223
C 1.15016 19.02892 -0.01678
C 34.29578 19.89355 0.01951
C 34.31852 21.34559 -0.02213
C 1.16621 21.99404 0.02712
C 1.08089 23.42366 0.00723
C 34.25718 24.21152 0.03076
C 34.3747 25.56545 -0.05239
C 1.20113 26.36461 -0.00598
C 1.21937 27.70674 -0.00439
C 34.3781 28.49938 -0.01037
C 34.36978 29.90782 0.01831
C 1.23276 30.6333 0.01027
C 1.19416 32.04325 -0.01404
C 34.40565 16.87901 0.00648
C 30.72222 0.90681 0.00307
C 30.77708 2.26745 0.00716
C 29.52494 2.94687 0.02108
C 27.06669 17.01407 0.01094
C 28.22976 17.51255 0.02198
C 24.70306 33.94886 0.02611
C 25.89276 0.51228 -0.00621
C 25.84686 1.99274 0.00194
C 24.63095 2.63595 0.04185
C 24.59062 4.10601 0.02316
C 25.79125 4.9191 0.01257
C 25.72808 6.38306 0.00152
C 24.55299 7.07639 -0.00294
C 24.56564 8.55469 0.00826
C 25.87059 9.32121 0.00487
C 25.79225 10.68467 -0.00942
C 24.54343 11.39076 -0.02815
C 27.07534 15.63716 0.00235
C 24.5371 12.84381 0.00622
C 25.85433 14.92147 -0.00037
C 24.56344 15.66753 -0.01654
C 22.10325 34.07253 -0.00218
C 23.39683 0.35196 -0.00802
C 23.37358 1.94316 0.00195
C 22.15383 2.68948 0.00996
C 22.09692 4.20888 0.04306
C 23.40403 4.87218 0.00367
C 23.4104 6.33982 -0.01679
C 22.15235 7.05255 -0.01052
C 22.08079 8.53086 0.00684
C 23.3298 9.21817 -0.01154
C 23.29305 10.68871 -0.0264
C 22.00155 11.43846 -0.00938
C 25.78212 13.51671 -0.0032
C 23.34784 13.56579 -0.01199
C 28.23135 14.87473 0.01495
C 27.01365 12.78771 0.01799
C 29.43159 4.29336 0.0103
C 30.70285 5.02496 0.07705
C 30.6829 6.43355 0.01908
C 29.45729 7.16509 0.01518
C 29.4092 8.57925 -0.00971
C 30.66533 9.26908 -0.03735
C 30.66556 10.67157 -0.00944
C 29.52608 11.46835 -0.02155
C 29.54794 12.86132 -0.01461
C 30.73621 13.51868 -0.01303
C 30.77146 14.93294 -0.0405
C 29.46755 15.58762 0.01705
C 29.53445 17.07167 0.0101
C 30.65776 17.82418 -0.00669
C 28.19529 13.49335 0.01259
C 30.63627 19.22628 0.03531
C 30.48588 32.0661 -0.03039
C 29.42967 32.94346 -0.01415
C 27.15815 0.00394 -0.01854
C 28.32695 0.79845 -0.02049
C 28.28957 2.28178 0.03265
C 26.97625 2.76251 0.00261
C 27.0039 4.28285 0.02326
C 28.21793 4.97051 0.00924
C 28.22925 6.38263 0.0014
C 27.01854 7.06325 0.01324
C 27.05628 8.55115 0.04266
C 28.26834 9.26654 0.01177
C 28.31814 10.71473 -0.00416
C 27.08728 11.3069 0.01699
C 30.68485 30.74413 0.01836
C 2.37977 32.7578 0.00444
