306
Graphene
C 0.01592 0.01677 0.01295
C 14.78042 25.51059 0.02691
C 14.83839 24.14808 -0.01581
C 16.07409 23.41248 0.01452
C 16.09035 22.03175 0.04892
C 14.73029 21.60586 -0.00111
C 14.90535 4.17979 -0.03557
C 14.72127 2.778 0.03754
C 15.87063 2.07616 0.01739
C 15.9806 0.65192 0.00755
C 14.78029 34.06016 -0.0054
C 17.21691 32.66915 0.00667
C 18.45099 31.93318 0.00143
C 18.40246 30.51288 -0.017
C 17.20005 29.75498 0.00364
C 17.25056 28.37642 -0.00831
C 15.99714 26.20199 -0.01979
C 18.48035 27.65743 -0.02957
C 15.99557 27.61177 0.02188
C 14.79416 29.79622 -0.0331
C 12.32297 29.8551 0.01443
C 12.27259 28.43002 0.03505
C 13.51642 27.66184 -0.02815
C 13.52579 26.29422 -0.04147
C 12.25001 25.55956 -0.05302
C 12.25288 24.14151 0.00213
C 13.54537 23.55301 -0.00066
C 13.65368 22.14329 -0.00289
C 12.36736 2.84106 0.00028
C 13.49226 2.18529 -0.02213
C 13.46886 0.74703 0.03698
C 12.26236 34.05264 -0.00109
C 14.80545 32.6321 -0.00491
C 15.98237 31.87748 0.03338
C 15.99259 30.54043 -0.0258
C 14.75444 28.44674 -0.00316
C 13.57057 30.52382 0.00979
C 18.46765 26.32715 -0.04422
C 17.28156 24.06255 -0.00703
C 19.70292 21.2279 -0.01662
C 19.63271 19.85373 -0.01185
C 19.64582 2.64579 0.01126
C 20.85608 2.13582 0.01852
C 20.90159 0.68674 -0.00381
C 19.66862 0.03684 0.03046
C 22.09897 32.72472 0.0296
C 23.29168 31.90995 0.03374
C 23.30288 30.55759 -0.02845
C 22.14509 29.78479 -0.03213
C 22.0679 28.47785 0.02239
C 23.32481 27.71628 0.01153
C 23.38083 26.31708 0.02734
C 22.20565 25.52393 -0.0055
C 22.13089 24.12658 0.01515
C 20.90978 22.00485 -0.00478
C 17.22211 25.5247 0.00654
C 20.94534 23.41579 0.01511
C 19.73516 25.52418 0.01087
C 18.4671 23.37794 -0.04076
C 18.52169 21.95412 -0.00652
C 17.22283 21.22274 0.0058
C 17.21407 19.82148 -0.00865
C 17.07014 2.6685 0.00675
C 18.31613 2.16499 -0.00311
C 18.39403 0.73533 0.00742
C 17.23278 34.05517 -0.01594
C 19.63599 32.64248 0.0106
C 20.89868 31.92329 -0.01154
C 20.87249 30.49848 -0.01721
C 19.64624 29.79421 -0.02422
C 19.66122 28.35649 0.01277
C 20.88764 27.68004 0.00096
C 20.97704 26.30022 -0.01527
C 19.68535 24.11388 0.00199
C 13.54149 31.92386 -0.00481
C 12.36178 32.65794 0.00889
C 9.83706 0.00463 -0.02162
C 2.41096 2.89044 0.02841
C 3.67478 2.17005 -0.01111
C 3.73015 0.7431 -0.01275
C 2.46949 0.00098 0.00985
C 4.93598 32.64967 -0.02245
C 6.17749 31.95812 -0.00428
C 6.12614 30.5264 0.03101
C 4.88584 29.77972 -0.01536
C 4.85182 28.34625 -0.02689
C 6.12139 27.69506 -0.01046
C 6.13631 26.20544 -0.00891
C 4.88072 25.49541 0.02819
C 4.94064 24.06911 0.00165
C 6.1677 23.33722 -0.02971
C 6.16323 21.89435 0.02894
C 2.356 4.29475 0.00943
C 4.87135 21.29927 -0.01789
C 3.57226 5.04117 0.00406
C 2.55173 7.22541 0.00572
C 3.70426 30.50139 0.00438
C 2.44375 29.73836 0.01291
C 2.45924 28.29958 0.00093
C 3.68718 27.63595 0.00057
C 3.63565 26.19468 -0.01634
C 2.40269 25.53705 -0.00334
C 2.43692 24.10988 0.02339
C 3.68598 23.36161 0.01641
C 3.69411 21.92182 -0.00719
C 2.44478 21.26453 0.01364
C 2.37595 19.89648 -0.01062
C 3.67926 19.29519 -0.00033
C 2.51066 17.08032 0.03589
C 2.40539 15.85901 -0.02759
C 2.26005 8.57183 0.0402
C 3.62467 6.41273 0.03592
C 4.7838 19.78578 0.00444
C 6.18446 4.9193 -0.00925
C 4.73493 4.35142 0.01877
C 7.3826 34.07065 0.01965
C 9.88442 32.66356 0.02058
C 11.05223 32.01047 -0.01957
C 11.13874 30.61083 -0.0108
C 9.78143 29.93835 -0.00368
C 9.76714 28.43274 -0.02696
C 11.01815 27.75109 -0.00114
C 11.06467 26.26694 0.00228
C 9.84279 25.51272 0.00798
C 9.82591 24.1193 0.00422
C 11.1018 23.39048 0.0351
C 10.94811 21.99188 -0.03113
C 9.79192 2.84222 0.02098
C 11.00285 2.34076 0.01848
C 11.03204 0.80684 -0.00619
C 8.59062 0.65597 -0.03682
C 8.5908 2.00876 0.00052
C 7.3963 2.808 0.00374
C 7.228 4.31376 -0.02813
C 4.97169 2.90838 0.01363
C 6.13925 2.13978 -0.02162
C 6.13243 0.76014 0.00415
C 4.98398 0.00431 -0.0014
C 7.38476 32.7135 0.02162
C 8.6054 32.00176 0.0076
C 8.54459 30.63073 0.01241
C 23.42743 23.42071 -0.00225
C 7.3618 29.81178 -0.01454
C 8.57387 27.7663 0.01416
C 8.50775 26.24411 0.03542
C 7.35661 25.50858 0.02299
C 7.40422 24.03609 0.00244
C 8.69801 23.37188 -0.01717
C 8.63963 21.93977 0.05265
C 7.52956 21.31849 -0.01952
C 7.29786 28.40569 0.01945
C 23.30582 21.97051 0.00071
C 22.12439 21.27565 -0.01107
C 22.01636 19.85252 -0.01586
C 33.10356 23.48152 0.01927
C 33.13994 22.01713 0.01574
C 31.93719 21.28277 -0.02383
C 31.96347 19.82265 -0.01429
C 33.2124 19.18105 -0.0136
C 33.22186 17.77648 0.00594
C 31.99258 17.11903 -0.02474
C 31.93276 15.6672 0.00369
C 33.27409 15.02826 0.00455
C 33.17352 13.61324 -0.00644
C 31.93548 12.83649 -0.01839
C 31.93492 11.40282 0.00137
C 33.15882 10.73916 0.00199
C 33.19925 9.32778 0.04381
C 31.95427 8.61567 0.02806
C 31.87149 24.18367 0.03794
C 31.93948 7.18105 0.01504
C 31.90296 25.55252 -0.01779
C 33.12639 27.69753 0.00026
C 30.78362 9.32791 -0.03735
C 29.55365 8.52956 -0.00971
C 29.50658 7.11183 0.01518
C 30.70619 6.45887 0.01908
C 30.65193 5.00357 0.07705
C 29.38637 4.25119 0.0103
C 29.41002 2.91587 0.02108
C 30.62269 2.14521 0.00716
C 30.72442 0.73273 0.00307
C 29.47208 0.0499 0.00346
C 32.01919 32.65752 0.01713
C 33.24999 31.9435 -0.01694
C 33.20963 30.50416 0.01428
C 31.94952 29.86261 -0.02142
C 31.9385 28.41795 0.0544
C 33.1582 26.25288 0.00682
C 33.1411 6.49701 -0.00069
C 33.08034 5.05114 0.04926
C 31.82814 4.33401 -0.03838
C 0.09224 15.70524 0.02114
C 1.39942 14.8479 -0.02957
C 1.20172 13.4181 0.00343
C 34.40966 12.92356 -0.02656
C 34.34445 11.49273 -0.02442
C 1.19257 10.97725 -0.00027
C 1.24668 9.4361 -0.00583
C 34.41101 8.63311 -0.02302
C 34.41867 7.21808 -0.02849
C 1.24727 6.49184 0.02931
C 1.17082 5.08909 0.00628
C 34.3804 4.33251 -0.0345
C 34.36452 2.92304 -0.00931
C 1.21375 2.19835 -0.00939
C 1.23066 0.68987 -0.00468
C 0.09508 17.07743 0.00648
C 1.22244 17.81273 0.01223
C 1.17174 19.20769 -0.01678
C 34.40364 19.9116 0.01951
C 31.86001 2.92548 0.00349
C 33.14775 2.14227 -0.00323
C 33.15696 0.68552 -0.00841
C 31.96436 0.0369 0.0001
C 34.41215 32.61581 -0.02927
C 1.2152 31.92981 -0.01404
C 1.25769 30.49214 0.01027
C 30.6988 10.69642 -0.00944
C 34.41646 29.80657 0.01831
C 1.14187 27.67772 -0.00439
C 1.20031 26.21977 -0.00598
C 34.33863 25.57313 -0.05239
C 34.34828 24.18201 0.03076
C 1.17868 23.39965 0.00723
C 1.21888 22.00488 0.02712
C 34.37013 21.38202 -0.02213
C 34.35897 28.39517 -0.01037
C 3.71348 31.95717 -0.00191
C 29.50324 11.43343 -0.02155
C 30.72309 13.49794 -0.01303
C 25.68062 17.65105 -0.00938
C 25.74322 4.97446 -0.0264
C 24.76488 4.21129 -0.01154
C 24.46103 2.79551 0.00684
C 25.73709 2.15794 -0.01052
C 25.7469 0.77135 -0.01679
C 24.524 0.02045 0.00367
C 26.99846 32.73164 0.04306
C 28.2035 32.01424 0.00996
C 28.23173 30.6153 0.00195
C 26.98571 29.86093 -0.00802
C 26.98041 28.44387 -0.00218
C 28.19812 27.77726 -0.01654
C 28.24058 26.34459 -0.00037
C 27.04004 25.60024 -0.0032
C 25.69587 19.10782 -0.00229
C 27.02717 24.22273 0.00622
C 24.4817 19.66449 -0.01199
C 25.7392 21.9347 -0.00285
C 23.19533 19.20109 -0.01971
C 22.13827 2.86018 -0.02118
C 23.30248 2.10868 0.00733
C 23.38969 0.68666 -0.00178
C 22.0809 0.01083 0.00768
C 24.49221 32.69177 -0.0276
C 25.76071 31.9517 0.03005
C 25.77805 30.57824 -0.04078
C 24.56117 29.87323 0.02117
C 24.56715 28.47417 0.02737
C 25.79081 27.7013 -0.00498
C 25.81456 26.28755 0.00135
C 24.61826 25.58238 0.03102
C 24.62461 24.15621 0.02555
C 25.81959 23.44007 0.01423
C 24.49306 21.16751 -0.009
C 28.23901 23.47406 -0.02815
C 28.20362 22.07021 -0.00942
C 26.94289 21.26247 0.00487
C 29.43462 29.92697 0.0014
C 29.47118 28.51093 0.00924
C 30.71814 27.78165 0.02326
C 30.71612 26.3572 0.00261
C 29.48751 25.64073 0.03265
C 29.45013 24.15969 -0.02049
C 30.64857 23.45888 -0.01854
C 30.668 22.00563 -0.01415
C 29.4493 21.31484 -0.03039
C 29.49133 19.81749 0.01836
C 30.70909 19.16717 0.03531
C 30.76327 17.75189 -0.00669
C 29.48092 17.02471 0.0101
C 29.47137 15.56983 0.01705
C 30.70748 14.89683 -0.0405
C 30.7215 30.65588 0.01324
C 30.79419 32.02552 0.04266
C 29.48747 32.70928 0.01177
C 26.97944 0.0123 -0.00416
C 26.97391 19.81979 0.00826
C 28.21288 19.17124 -0.00294
C 28.236 17.68417 0.00152
C 26.98167 17.01701 0.01257
C 27.25446 15.65603 0.02316
C 28.16751 14.70137 0.04185
C 28.33001 13.32008 0.00194
C 29.51195 12.78108 -0.01461
C 28.33005 10.57882 -0.00621
C 26.96809 7.23292 0.02198
C 28.24434 6.39678 0.01094
C 28.25224 5.01019 0.00235
C 26.97941 4.30195 0.01495
C 26.91041 2.9279 0.01259
C 28.19559 2.16026 0.01799
C 28.19507 0.74929 0.01699
C 28.3062 9.30297 0.02611
C 2.43449 32.62596 0.00373
