380
Graphene
C 0.00906 0.03699 0.01295
C 13.59167 4.9858 -0.01454
C 12.26907 2.94599 0.01945
C 13.49044 2.20575 0.01416
C 13.56273 0.7214 0.03542
C 12.34337 0.06028 0.02299
C 14.79887 32.69323 0.00244
C 15.94346 31.89859 -0.01717
C 15.93219 30.4837 0.05265
C 14.71744 29.6902 -0.01952
C 14.75889 28.33412 -0.02813
C 16.04325 27.705 0.00374
C 16.05068 26.23206 0.00052
C 14.79691 25.53863 -0.03682
C 14.79903 24.12858 0.01965
C 15.96336 23.48623 0.02058
C 15.99602 21.96602 -0.01957
C 14.76345 21.20801 -0.0108
C 14.70582 19.81908 -0.00368
C 16.04223 19.08996 -0.02696
C 13.45552 6.26302 0.01241
C 12.2909 17.10861 0.0076
C 13.5174 17.70105 0.02162
C 13.47681 19.21806 -0.0014
C 10.96892 19.25565 -0.01275
C 11.09537 17.77594 0.00985
C 9.87944 17.09888 -0.02245
C 9.83262 2.85674 -0.00428
C 11.06869 2.19025 0.03101
C 11.06603 0.72199 -0.01536
C 9.84706 0.00111 -0.02689
C 12.35929 32.69806 -0.01046
C 13.5636 32.05173 -0.00891
C 15.98201 17.73403 -0.00114
C 13.53038 30.60954 0.02819
C 12.32168 28.33803 -0.02971
C 13.53699 27.67373 0.02894
C 13.57588 26.28436 -0.01789
C 12.39412 25.54741 0.00444
C 12.26601 24.08141 -0.00925
C 13.52456 23.45064 0.01877
C 13.54323 21.95893 0.01363
C 12.23828 21.2814 -0.02162
C 12.29693 19.87166 0.00415
C 12.39097 29.84107 0.00165
C 14.74944 17.05677 0.00228
C 14.76396 15.6931 0.00798
C 15.90759 14.99629 0.00422
C 17.19408 19.88397 -0.0331
C 18.4245 19.09812 -0.00316
C 18.46145 17.72224 0.02188
C 17.22517 17.09066 -0.01979
C 17.21733 15.61484 0.02691
C 18.38411 14.91448 -0.01581
C 18.43481 13.52546 0.01452
C 17.23246 12.78016 0.04892
C 17.27658 11.40492 -0.00111
C 17.20418 21.25686 -0.0258
C 18.47767 10.66268 -0.03557
C 17.24106 8.49576 0.01739
C 17.25103 7.05529 0.00755
C 18.42335 6.38717 -0.0054
C 18.43588 4.93053 0.00667
C 17.22561 4.19571 0.00143
C 17.23876 2.80719 -0.017
C 18.43659 2.16701 0.00364
C 18.39779 0.72033 -0.00831
C 17.16502 0.02243 -0.02957
C 18.36462 9.26249 0.03754
C 9.79268 19.94687 -0.01111
C 18.43718 21.99474 0.03338
C 17.24438 24.09437 -0.00109
C 16.03905 13.48038 0.0351
C 16.04453 10.68992 -0.03113
C 15.96039 9.287 0.02098
C 14.85006 8.51124 0.01848
C 14.71341 7.13573 -0.00619
C 15.99656 6.32348 -0.02162
C 15.95444 4.93481 0.00889
C 14.744 4.24061 -0.00481
C 14.81145 2.87468 0.00979
C 18.41831 23.4011 -0.00491
C 15.94077 2.13121 0.01443
C 14.70833 0.01453 -0.02815
C 17.19239 32.65663 -0.04147
C 18.3886 31.95535 -0.05302
C 18.42928 30.55859 0.00213
C 17.25698 29.79484 -0.00066
C 17.22126 28.37165 -0.00289
C 18.46281 27.6203 0.00028
C 18.41261 26.23644 -0.02213
C 17.23556 25.50101 0.03698
C 15.9188 0.69806 0.03505
C 19.69292 32.64501 -0.04422
C 9.89537 21.3281 0.02841
C 11.00967 23.48819 0.00406
C 3.71177 4.90411 -0.05697
C 2.43949 4.26433 0.01087
C 2.43532 2.86276 -0.01343
C 3.68799 2.191 0.00988
C 3.6875 0.67062 0.0276
C 2.42942 0.02921 0.01305
C 4.86876 32.69804 -0.00077
C 6.10241 31.969 0.03368
C 6.13052 30.56085 -0.02929
C 4.91117 29.88094 -0.00966
C 4.93457 28.35771 -0.03337
C 6.16424 27.73727 0.01227
C 6.16005 26.31219 0.00873
C 4.95024 25.58718 -0.00049
C 4.85012 24.20774 0.00848
C 6.15716 23.48003 -0.01303
C 6.14181 21.99916 -0.01378
C 4.90193 21.30846 0.02635
C 4.86048 19.91124 0.0127
C 3.7095 6.31792 -0.00725
C 2.51154 7.10038 0.02322
C 2.44733 8.49686 -0.00094
C 3.7951 9.1815 -0.02566
C 3.69129 30.53969 0.00907
C 2.38718 29.82077 0.00643
C 2.41856 28.4758 -0.01509
C 3.68335 27.70965 0.03267
C 3.74097 26.24962 0.02374
C 2.47066 25.58201 0.00402
C 2.51665 24.14135 0.0073
C 3.66197 23.37707 0.0174
C 3.74191 21.98444 0.03828
C 6.04407 19.13827 0.01396
C 2.4247 21.40325 0.01226
C 3.62314 19.23548 0.01996
C 3.68886 17.78119 -0.03996
C 2.48711 17.08131 0.01465
C 2.48796 15.5408 -0.00074
C 3.732 14.93081 -0.00518
C 3.75011 13.55758 0.0086
C 2.47488 12.83272 -0.00643
C 2.44146 11.36645 0.017
C 3.65904 10.58875 -0.03113
C 2.4513 19.89428 -0.00279
C 6.21207 17.73464 0.01849
C 4.95 17.00951 -0.01142
C 4.95382 15.64199 -0.00562
C 7.36208 19.94214 0.02147
C 8.55201 19.20163 0.00373
C 8.7027 17.74975 -0.00191
C 7.49194 17.04131 0.00438
C 7.31554 15.65515 0.01291
C 7.30974 6.92113 0.00093
C 7.35146 4.23221 0.00057
C 7.34062 2.86586 -0.01634
C 8.55329 2.09997 -0.00334
C 7.38607 21.31595 -0.014
C 8.5944 0.73559 0.02339
C 9.81668 32.67548 -0.00719
C 11.12848 31.93171 0.01364
C 11.06001 30.56196 -0.01062
C 9.84021 29.85959 -0.00033
C 9.87427 28.43469 0.03589
C 11.05808 27.6842 -0.02759
C 11.09282 26.26452 0.0402
C 9.87125 25.6143 0.00572
C 9.81874 24.1693 0.03592
C 7.33022 0.07193 0.01641
C 11.10999 22.01604 0.00943
C 8.61648 22.08976 -0.01118
C 7.36398 24.19746 -0.02896
C 6.25553 15.00062 -0.00494
C 4.87449 12.79357 0.00054
C 4.86534 11.49818 0.03007
C 4.9441 8.52233 -0.00095
C 4.8368 7.1142 0.01572
C 6.15117 6.44581 -0.04848
C 6.19256 4.9458 -0.00892
C 4.93822 4.24823 -0.01362
C 4.89028 2.88385 -0.0008
C 8.56139 23.50218 -0.00131
C 6.14126 2.16695 0.0288
C 4.84003 0.01432 0.00895
C 7.32551 32.72153 0.00685
C 8.60477 31.93305 0.02888
C 8.61329 30.50366 -0.00482
C 7.33526 29.86589 -0.01384
C 7.34911 28.43188 0.03693
C 8.65862 27.75723 0.01745
C 8.62371 26.22745 0.00488
C 7.37537 25.60652 -0.01004
C 6.07784 0.72367 0.00393
C 20.90587 31.93285 0.00654
C 20.88171 30.56916 -0.00703
C 19.58358 29.81231 -0.04076
C 29.46659 2.83129 0.02108
C 30.70626 2.08324 0.00716
C 30.75035 0.74049 0.00307
C 29.47796 34.05065 0.00346
C 31.98175 32.69391 0.01713
C 33.19528 31.92133 -0.01694
C 33.1853 30.52974 0.01428
C 31.97156 29.83591 -0.02142
C 32.01623 28.39487 0.0544
C 33.24179 27.75569 0.00026
C 33.18164 26.27236 0.00682
C 31.94956 25.56886 -0.01779
C 31.94282 24.13657 0.03794
C 33.13836 23.4943 0.01927
C 33.24998 22.02409 0.01574
C 32.02859 21.25284 -0.02383
C 32.00396 19.83999 -0.01429
C 33.21834 19.1984 -0.0136
C 33.17006 17.78375 0.00594
C 29.54957 4.26562 0.0103
C 30.72037 4.9751 0.07705
C 30.71893 6.3757 0.01908
C 29.46551 7.11869 0.01518
C 28.33121 2.16474 0.00924
C 28.28131 0.62052 0.02326
C 27.07581 34.04913 0.00261
C 29.52627 32.65626 0.03265
C 30.73668 31.98113 -0.02049
C 30.74502 30.46703 -0.01854
C 29.47765 29.82863 -0.01415
C 29.56346 28.35082 -0.03039
C 30.72314 27.62455 0.01836
C 31.94239 16.99693 -0.02474
C 30.69521 26.21434 0.03531
C 29.51415 24.18359 0.0101
C 30.73239 23.44217 0.01705
C 30.76672 21.93879 -0.0405
C 29.59552 21.28857 -0.01303
C 30.74632 19.26086 -0.01461
C 29.53157 11.28844 -0.02155
C 30.73505 10.58061 -0.00944
C 30.75677 9.18804 -0.03735
C 29.55194 8.50753 -0.00971
C 29.45907 25.55786 -0.00669
C 32.01116 15.67789 0.00369
C 33.19683 14.90147 0.00455
C 33.16807 13.46966 -0.00644
C 0.03885 21.37794 -0.02213
C 34.41987 19.90023 0.01951
C 1.23722 19.22626 -0.01678
C 1.19588 17.79043 0.01223
C 34.41752 17.04013 0.00648
C 34.43286 15.60723 0.02114
C 1.27145 14.94771 -0.02957
C 1.26414 13.48734 0.00343
C 34.4091 12.73671 -0.02656
C 1.22831 22.08315 0.02712
C 34.40925 11.34557 -0.02442
C 1.24964 9.28638 -0.00583
C 34.37922 8.44572 -0.02302
C 34.3766 7.06447 -0.02849
C 1.211 6.37536 0.02931
C 1.2742 4.95916 0.00628
C 34.35955 4.21598 -0.0345
C 34.36207 2.82256 -0.00931
C 1.21048 2.08956 -0.00939
C 1.19473 0.72342 -0.00468
C 1.20674 10.60957 -0.00027
C 27.05881 2.91134 0.0014
C 1.23156 23.50724 0.00723
C 34.42072 25.56785 -0.05239
C 31.97773 12.74867 -0.01839
C 31.90136 11.33412 0.00137
C 33.12406 10.67489 0.00199
C 33.20214 9.24079 0.04381
C 32.01125 8.48665 0.02806
C 31.97245 7.08707 0.01504
C 33.14853 6.43482 -0.00069
C 33.2057 5.00897 0.04926
C 31.95964 4.34449 -0.03838
C 34.39564 24.18258 0.03076
C 31.9226 2.83748 0.00349
C 33.20687 0.74671 -0.00841
C 31.9902 0.00145 0.0001
C 0.01268 32.67046 -0.02927
C 1.2009 31.91849 -0.01404
C 1.19222 30.53025 0.01027
C 34.41677 29.85899 0.01831
C 34.42683 28.47415 -0.01037
C 1.2319 27.64876 -0.00439
C 1.24384 26.22174 -0.00598
C 33.12192 2.12383 -0.00323
C 27.05877 4.28304 0.01324
C 28.31585 4.96772 0.04266
C 28.20939 6.31976 0.01177
C 20.86638 0.70054 0.0296
C 19.67954 0.00776 0.03374
C 22.11234 32.60555 -0.02845
C 23.33979 31.97863 -0.03213
C 23.41506 30.47394 0.02239
C 22.15104 29.81834 0.01153
C 22.18161 28.41184 0.02734
C 23.33345 27.66074 -0.0055
C 23.386 26.19616 0.01515
C 20.92107 2.11736 0.03046
C 22.09655 25.54922 -0.00225
C 23.35111 23.44375 -0.01107
C 23.39855 21.98833 -0.01586
C 22.13554 21.33597 -0.01971
C 22.0335 19.87408 -0.02118
C 23.32683 19.21748 0.00733
C 22.11156 16.88262 -0.00178
C 22.04737 15.69984 0.00768
C 22.18658 12.76801 -0.0276
C 22.17085 11.3863 0.03005
C 22.01484 24.14695 0.00071
C 23.27966 10.61006 -0.04078
C 19.70856 2.83704 -0.00381
C 19.67868 7.07826 0.01126
C 19.73275 28.33616 -0.00652
C 20.96092 27.63116 0.0058
C 20.93477 26.25361 -0.00865
C 19.66338 25.54597 0.00675
C 19.68607 24.06001 -0.00311
C 20.84404 23.38681 0.00742
C 20.88524 22.03434 -0.01594
C 19.73094 21.23773 0.0106
C 19.74432 19.81888 -0.01154
C 19.60216 4.18488 0.01852
C 20.88065 19.12573 -0.01721
C 19.68874 17.0167 0.01277
C 19.67702 15.59785 0.00096
C 20.94278 14.89392 -0.01527
C 20.89849 13.47358 0.01087
C 19.67079 12.78612 0.00199
C 19.73168 11.33994 0.01511
C 20.97 10.67878 -0.00478
C 20.96219 9.25925 -0.01662
C 19.68745 8.53901 -0.01185
C 20.96283 17.64927 -0.02422
C 3.65131 31.98355 0.02379
C 23.38616 9.22178 0.02117
C 22.10519 2.9364 -0.00498
C 24.55845 2.84544 -0.02815
C 25.8333 2.15571 -0.00942
C 25.78269 0.73851 0.00487
C 24.57455 34.06177 0.00826
C 27.08207 32.66905 -0.00294
C 28.26707 32.02276 0.00152
C 28.26139 30.50241 0.01257
C 27.08557 29.87837 0.02316
C 27.09893 28.41729 0.04185
C 24.66321 4.1938 0.00622
C 28.23586 27.65391 0.00194
C 27.07913 25.58278 0.02611
C 27.03548 24.09572 0.02198
C 28.41231 23.4701 0.01094
C 28.26616 21.99883 0.00235
C 27.06074 21.28475 0.01495
C 28.38293 10.6534 0.01259
C 28.16526 9.25197 0.01799
C 26.96913 8.51552 0.01699
C 26.97845 7.09346 -0.00416
C 28.26321 26.26482 -0.00621
C 22.17054 8.50476 0.02737
C 25.70981 4.92172 -0.0032
C 24.60957 7.13343 -0.01654
C 23.29567 2.15981 0.00135
C 23.29234 0.67415 0.03102
C 22.08933 0.00943 0.02555
C 24.58819 32.65511 0.01423
C 25.8164 31.93748 -0.00285
C 25.81601 30.52341 -0.009
C 24.61219 29.74398 -0.01199
C 24.61559 28.36185 -0.00229
C 25.82089 27.69211 -0.00938
C 25.78102 6.38375 -0.00037
C 25.93199 26.3643 -0.0264
C 24.59485 24.13443 0.00684
C 25.78387 23.35813 -0.01052
C 25.82521 21.94584 -0.01679
C 24.61722 21.32212 0.00367
C 24.4385 19.88689 0.04306
C 24.64184 11.26672 0.00996
C 25.83708 10.7391 0.00195
C 25.86179 9.27895 -0.00802
C 24.58163 8.53677 -0.00218
C 24.58664 25.51163 -0.01154
C 2.43574 32.71604 0.01402
