385
Graphene
C 34.40236 0.1035 0.01295
C 9.81496 4.3349 0.02162
C 9.8436 2.83777 0.0076
C 11.05664 2.19235 0.01241
C 11.14251 0.83638 -0.01454
C 9.8863 0.10384 0.01945
C 12.32575 32.66148 0.01416
C 13.52918 31.88085 0.03542
C 13.52962 30.46055 0.02299
C 12.29242 29.8515 0.00244
C 11.08285 5.08747 -0.0014
C 12.28849 28.35121 -0.01717
C 13.55356 26.28335 -0.01952
C 12.32221 25.60407 -0.02813
C 12.31943 24.17704 0.00374
C 13.4918 23.27714 0.00052
C 13.50871 21.95065 -0.03682
C 12.27323 21.28687 0.01965
C 12.35007 19.81237 0.02058
C 13.51224 19.14332 -0.01957
C 13.53991 17.68496 -0.0108
C 13.58366 27.61049 0.05265
C 12.23632 17.08659 -0.00368
C 11.08777 6.48805 0.00415
C 9.87819 8.6531 0.01363
C 9.89031 29.84834 0.00943
C 9.89556 28.47187 0.02841
C 11.0873 27.63927 -0.01111
C 11.09038 26.26603 -0.01275
C 9.83281 25.62212 0.00985
C 9.87188 24.23229 -0.02245
C 11.07427 23.46147 -0.00428
C 11.08932 21.97406 0.03101
C 9.87551 21.35375 -0.01536
C 9.79517 7.22187 -0.02162
C 9.8672 19.92952 -0.02689
C 11.02475 17.72234 -0.00891
C 9.85357 16.93218 0.02819
C 9.73434 15.58569 0.00165
C 11.04927 14.8947 -0.02971
C 11.10162 13.41 0.02894
C 9.84118 12.77509 -0.01789
C 9.90341 11.33354 0.00444
C 11.1089 10.68195 -0.00925
C 11.1137 9.26179 0.01877
C 11.07868 19.13891 -0.01046
C 11.09845 30.57507 0.00406
C 12.23798 15.57271 -0.02696
C 13.50541 13.6486 0.00228
C 16.05672 19.11821 0.03338
C 15.99153 17.6872 -0.0258
C 14.74467 16.95988 -0.0331
C 14.72648 15.65667 -0.00316
C 15.99595 14.93419 0.02188
C 16.00897 4.93842 -0.01979
C 14.80487 4.32116 0.02691
C 14.78617 2.81917 -0.01581
C 16.03771 2.14473 0.01452
C 14.80401 19.80369 -0.00491
C 15.94343 0.66821 0.04892
C 17.10693 32.64739 -0.03557
C 18.4005 31.86185 0.03754
C 18.46524 30.47279 0.01739
C 17.19357 29.76594 0.00755
C 17.1699 28.34858 -0.0054
C 18.47375 27.70093 0.00667
C 18.38683 26.31684 0.00143
C 17.15323 25.56515 -0.017
C 17.11076 24.11542 0.00364
C 14.70807 34.05114 -0.00111
C 13.47917 15.01062 -0.00114
C 14.7356 21.25697 -0.00109
C 15.87578 23.39387 -0.02213
C 12.41021 12.77467 0.00798
C 12.23571 11.43035 0.00422
C 12.36133 8.57604 0.0351
C 12.48521 7.19346 -0.03113
C 13.41654 6.2998 0.02098
C 13.56353 4.9393 0.01848
C 12.27281 4.28268 -0.00619
C 12.26218 2.8642 -0.02162
C 13.59228 2.21149 0.00889
C 16.00312 21.98528 0.03698
C 13.57213 0.78915 -0.00481
C 14.65924 32.65809 0.01443
C 15.94296 31.94153 0.03505
C 15.98733 30.47267 -0.02815
C 14.70475 29.76156 -0.04147
C 14.77762 28.35733 -0.05302
C 15.94726 27.66225 0.00213
C 15.92597 26.23072 -0.00066
C 14.71383 25.51577 -0.00289
C 14.72514 24.09449 0.00028
C 12.32514 0.06352 0.00979
C 11.0771 31.98159 0.03592
C 9.93266 32.71275 0.00572
C 7.41956 0.0417 0.0402
C 3.6419 4.96714 -0.03113
C 2.38253 4.26423 -0.02566
C 2.42294 2.86825 -0.00094
C 3.60732 2.20843 0.02322
C 3.61337 0.71515 -0.00725
C 2.35826 0.02746 -0.05697
C 4.84432 32.75424 0.01087
C 6.0676 32.03272 -0.01343
C 6.12067 30.61034 0.00988
C 3.62784 6.43451 0.017
C 4.87228 29.91295 0.0276
C 6.07149 27.77867 -0.00077
C 6.04755 26.37467 0.03368
C 4.89528 25.56512 -0.02929
C 4.88337 24.18886 -0.00966
C 6.15427 23.5031 -0.03337
C 6.13571 22.01735 0.01227
C 4.88797 21.27093 0.00873
C 5.01216 19.91075 -0.00049
C 6.28426 19.20894 0.00848
C 4.91387 28.50956 0.01305
C 6.20797 17.78888 -0.01303
C 2.38977 7.07447 -0.00643
C 3.66557 9.22257 -0.00518
C 3.65554 30.57171 0.03189
C 2.43659 29.82737 0.00031
C 2.47117 28.43307 -0.003
C 3.70838 27.69043 0.01402
C 3.57638 26.29221 0.02379
C 2.41463 25.56218 0.00907
C 2.35491 24.11837 0.00643
C 3.71052 23.51417 -0.01509
C 3.62247 21.9624 0.03267
C 2.42435 8.44038 0.0086
C 2.41611 21.30832 0.02374
C 3.76687 19.16006 0.0073
C 3.79498 17.83645 0.0174
C 2.4803 17.10423 0.03828
C 2.48365 15.64906 0.01226
C 3.68369 14.94399 -0.00279
C 3.65997 13.52035 0.01996
C 2.43538 12.80585 -0.03996
C 2.44325 11.33336 0.01465
C 3.61082 10.62537 -0.00074
C 2.5113 19.90806 0.00402
C 4.98998 17.11436 -0.01378
C 4.90552 15.65383 0.02635
C 6.07446 14.94643 0.0127
C 7.36304 21.3583 -0.00131
C 7.51758 19.87779 -0.01118
C 8.68924 19.07059 -0.014
C 8.6887 17.71732 0.02147
C 7.41014 16.96177 0.00373
C 7.33662 15.53224 -0.00191
C 8.60855 14.88466 0.00438
C 8.58136 13.45001 0.01291
C 7.34089 12.80404 0.00093
C 8.64528 22.07411 -0.02896
C 7.30281 11.45837 0.00057
C 8.55731 9.29538 -0.00334
C 7.34966 8.56175 0.02339
C 7.32638 7.14064 0.01641
C 8.60695 6.45758 -0.00719
C 8.6229 5.01061 0.01364
C 7.35443 4.29107 -0.01062
C 7.31372 2.89358 -0.00033
C 8.59441 2.18332 0.03589
C 8.61024 0.80492 -0.02759
C 8.55325 10.71286 -0.01634
C 8.62455 23.50851 -0.01004
C 7.35047 24.25349 0.00488
C 7.35657 25.65281 0.01745
C 6.08254 13.51942 0.01396
C 4.84122 12.80433 0.01849
C 4.93191 11.39075 -0.01142
C 6.09985 10.68248 -0.00562
C 6.10887 9.29468 -0.00494
C 4.86461 8.59301 0.00054
C 4.88842 7.1054 0.03007
C 6.14483 6.43905 -0.00095
C 6.11808 5.04378 0.01572
C 4.91573 4.3072 -0.04848
C 4.92908 2.83377 -0.00892
C 6.10472 2.15201 -0.01362
C 6.14064 0.70907 -0.0008
C 4.87946 0.00553 0.0288
C 7.38793 32.66577 0.00393
C 8.59835 31.95462 0.00895
C 8.62953 30.6289 0.00685
C 7.36563 29.89218 0.02888
C 7.38934 28.50649 -0.00482
C 8.6174 27.82506 -0.01384
C 8.60557 26.38871 0.03693
C 18.36319 23.40497 -0.00831
C 3.61358 32.07218 -0.04307
C 18.42641 22.01657 -0.02957
C 17.25241 19.74841 0.00654
C 29.46801 4.27471 0.0103
C 29.49901 2.85271 0.02108
C 30.69179 2.1325 0.00716
C 30.69848 0.69762 0.00307
C 29.48392 34.05095 0.00346
C 31.92621 32.65291 0.01713
C 33.21711 31.99527 -0.01694
C 33.1855 30.61958 0.01428
C 31.95321 29.84796 -0.02142
C 30.72658 4.95206 0.07705
C 31.95122 28.38541 0.0544
C 33.16487 26.34352 0.00682
C 31.99762 25.63769 -0.01779
C 32.01106 24.22398 0.03794
C 33.24985 23.43965 0.01927
C 33.20411 22.01729 0.01574
C 31.94791 21.3542 -0.02383
C 31.9738 19.88548 -0.01429
C 33.22085 19.1828 -0.0136
C 33.21702 17.72771 0.00594
C 33.14025 27.70677 0.00026
C 31.98965 17.06906 -0.02474
C 30.67607 6.40987 0.01908
C 30.73517 9.49334 -0.00971
C 27.04694 0.03606 0.0014
C 29.51187 32.68023 0.00924
C 30.78674 31.90425 0.02326
C 30.64558 30.54607 0.00261
C 29.50772 29.82002 0.03265
C 29.4762 28.36367 -0.02049
C 30.69306 27.69467 -0.01854
C 30.7446 26.21673 -0.01415
C 29.45928 25.55932 -0.03039
C 29.46863 6.76593 0.01518
C 29.50002 24.1691 0.01836
C 30.74603 22.0411 -0.00669
C 29.47719 21.27996 0.0101
C 29.51524 19.87603 0.01705
C 30.73453 19.08312 -0.0405
C 30.71003 17.68542 -0.01303
C 29.42313 16.98011 -0.01461
C 29.5544 15.64281 -0.02155
C 30.70159 14.83518 -0.00944
C 30.80676 13.47959 -0.03735
C 30.78283 23.45873 0.03531
C 28.27188 0.74339 0.01324
C 31.93589 15.54921 0.00369
C 33.14096 13.40278 -0.00644
C 34.4079 21.28945 -0.02213
C 0.02144 19.86446 0.01951
C 1.24435 19.14826 -0.01678
C 1.23365 17.78251 0.01223
C 0.04182 17.09842 0.00648
C 34.41487 15.61258 0.02114
C 1.2269 14.9479 -0.02957
C 1.17119 13.46804 0.00343
C 34.41284 12.83803 -0.02656
C 1.19561 22.01652 0.02712
C 0.01041 11.35371 -0.02442
C 1.11688 9.16927 -0.00583
C 34.41038 8.55094 -0.02302
C 34.38289 7.08802 -0.02849
C 1.14517 6.42074 0.02931
C 1.15324 4.99677 0.00628
C 34.3495 4.32369 -0.0345
C 34.36675 2.83872 -0.00931
C 1.20004 2.19275 -0.00939
C 1.18666 0.82439 -0.00468
C 1.19402 10.62058 -0.00027
C 33.21213 14.86919 0.00455
C 1.21942 23.39436 0.00723
C 34.40659 25.57221 -0.05239
C 31.82034 12.65497 -0.01839
C 31.85821 11.2013 0.00137
C 33.21585 10.64794 0.00199
C 33.18841 9.26926 0.04381
C 31.9372 8.61885 0.02806
C 31.87579 7.17316 0.01504
C 33.11954 6.41109 -0.00069
C 33.10066 4.96487 0.04926
C 31.91076 4.20501 -0.03838
C 34.41271 24.1462 0.03076
C 31.94782 2.84979 0.00349
C 33.15991 0.74604 -0.00841
C 31.93835 34.07859 0.0001
C 0.0218 32.6834 -0.02927
C 1.14819 31.97856 -0.01404
C 1.16305 30.51909 0.01027
C 34.40851 29.82278 0.01831
C 0.00649 28.40427 -0.01037
C 1.21348 27.67261 -0.00439
C 1.26429 26.29868 -0.00598
C 33.18194 2.13445 -0.00323
C 28.33081 2.13035 0.04266
C 27.12729 2.909 0.01177
C 26.97413 4.25413 -0.00416
C 20.98531 17.72317 -0.00381
C 19.77945 17.02879 0.03046
C 19.7149 15.68661 0.0296
C 20.89353 4.75893 0.03374
C 19.737 4.08193 -0.02845
C 19.62326 2.71391 -0.03213
C 20.92454 2.11467 0.02239
C 20.93517 0.67818 0.01153
C 19.66893 34.05458 0.02734
C 20.91989 19.09047 0.01852
C 22.17724 32.7306 -0.0055
C 23.30411 30.50093 -0.00225
C 22.12613 29.79105 0.00071
C 22.16271 28.2867 -0.01107
C 23.32751 27.65859 -0.01586
C 23.34452 26.24231 -0.01971
C 22.19312 25.49265 -0.02118
C 22.10879 24.13808 0.00733
C 23.32105 23.42233 -0.00178
C 23.35572 22.01508 0.00768
C 23.2695 31.96293 0.01515
C 22.1304 21.34114 -0.0276
C 19.68841 19.8756 0.01126
C 20.91239 22.00633 -0.01662
C 18.45633 19.14195 -0.00703
C 18.49261 17.6622 -0.04076
C 17.22001 16.80413 -0.00652
C 17.27339 15.30818 0.0058
C 18.55833 14.87229 -0.00865
C 17.05395 4.08926 0.00675
C 17.26366 2.80548 -0.00311
C 18.41421 2.04536 0.00742
C 18.45623 0.63913 -0.01594
C 19.64236 21.2808 -0.01185
C 17.21511 34.03718 0.0106
C 20.90557 31.935 -0.01721
C 20.93049 30.54448 -0.02422
C 19.70107 29.87428 0.01277
C 19.69939 28.42415 0.00096
C 20.88405 27.64184 -0.01527
C 20.79309 26.30301 0.01087
C 19.55309 25.58927 0.00199
C 19.48861 24.14124 0.01511
C 20.81829 23.38915 -0.00478
C 19.64107 32.59186 -0.01154
C 22.1326 19.84746 0.03005
C 23.37026 19.14377 -0.04078
C 23.30127 17.84649 0.02117
C 25.90391 2.16148 0.00622
C 25.83104 0.69861 -0.02815
C 24.62445 34.06734 -0.00942
C 27.04437 32.65664 0.00487
C 28.2493 31.9155 0.00826
C 28.2225 30.51406 -0.00294
C 27.07316 29.79657 0.00152
C 26.98221 28.36816 0.01257
C 28.21689 27.70002 0.02316
C 24.60066 2.88976 -0.0032
C 28.23804 26.24588 0.04185
C 27.03836 24.11337 -0.00621
C 28.29031 23.41262 0.02611
C 28.30389 21.93996 0.02198
C 26.9842 21.2707 0.01094
C 26.96047 19.87085 0.00235
C 28.23586 19.14849 0.01495
C 28.1311 17.76997 0.01259
C 28.18838 6.3817 0.01799
C 28.13309 5.00583 0.01699
C 27.05215 25.52607 0.00194
C 24.55406 4.48512 -0.00037
C 25.80277 4.95775 -0.01654
C 25.86268 17.68244 -0.00218
C 22.21421 17.03117 0.02737
C 23.29566 4.86718 -0.00498
C 22.07835 4.30233 0.00135
C 22.14926 2.76866 0.03102
C 23.49661 2.18391 0.02555
C 23.4576 0.74239 0.01423
C 22.13362 34.0781 -0.00285
C 24.55035 32.59013 -0.009
C 25.87087 31.96015 -0.01199
C 25.75 30.5272 -0.00229
C 24.52226 29.77886 -0.00938
C 24.5569 28.38553 -0.0264
C 25.78309 27.74945 -0.01154
C 25.79405 26.29613 0.00684
C 24.60466 25.58469 -0.01052
C 24.57836 24.18326 -0.01679
C 25.77055 23.46993 0.00367
C 25.72832 21.9852 0.04306
C 24.5233 21.25084 0.00996
C 24.55462 19.87486 0.00195
C 25.73995 19.10667 -0.00802
C 17.19342 21.21866 -0.04422
C 2.34363 32.69544 0.03284
