311
Graphene
C 0.02546 34.06252 0.01295
C 13.50713 30.46328 -0.00316
C 12.26695 29.85462 0.02188
C 12.22953 28.49405 -0.01979
C 13.54139 27.69708 0.02691
C 13.64898 26.21095 -0.01581
C 12.3299 25.62024 0.01452
C 12.33068 24.19799 0.04892
C 13.4886 23.32342 -0.00111
C 13.46737 22.01155 -0.03557
C 12.26401 21.25326 0.03754
C 12.36764 19.8365 0.01739
C 13.62867 19.17326 0.00755
C 13.57275 17.73791 -0.0054
C 12.31287 17.09294 0.00667
C 12.28404 15.53304 0.00143
C 13.54981 31.84642 -0.0331
C 12.34395 32.59374 -0.0258
C 9.82893 0.0295 0.03338
C 11.02427 0.39921 -0.00491
C 11.0084 30.54528 -0.02162
C 9.81596 29.7415 0.00889
C 9.77325 28.43171 -0.00481
C 11.06677 27.78495 0.00979
C 11.09565 26.36696 0.01443
C 9.7974 25.65787 0.03505
C 9.85437 24.20057 -0.02815
C 13.57671 15.0476 -0.017
C 11.0325 23.39876 -0.04147
C 9.86465 21.28026 0.00213
C 9.84007 19.89641 -0.00066
C 11.13182 19.24611 -0.00289
C 11.07723 17.79466 0.00028
C 9.84613 17.18465 -0.02213
C 9.89447 15.58161 0.03698
C 11.07311 14.9033 -0.00109
C 11.05583 21.9713 -0.05302
C 11.05197 31.90361 -0.00619
C 13.6452 0.62415 0.00364
C 14.80165 32.54007 -0.02957
C 17.25728 19.84905 0.01511
C 18.24813 19.14396 -0.00478
C 18.40601 17.78549 -0.01662
C 17.15783 17.06585 -0.01185
C 17.21801 15.63989 0.01126
C 18.4832 14.91566 0.01852
C 18.38242 13.57811 -0.00381
C 17.14579 12.8197 0.03046
C 17.39471 11.50941 0.0296
C 18.29621 10.6103 0.03374
C 18.6091 9.34885 -0.02845
C 18.61803 6.38631 -0.03213
C 18.37264 5.01354 0.02239
C 17.20846 4.29483 0.01153
C 17.11745 2.97168 0.02734
C 18.52756 32.00046 0.00199
C 17.27426 32.63931 0.01087
C 14.83686 33.97275 -0.01527
C 16.03666 0.73378 0.00096
C 16.07603 31.84861 -0.04422
C 15.98847 30.50629 0.00654
C 14.88836 29.74887 -0.00703
C 14.70112 28.40373 -0.04076
C 14.72543 25.33139 -0.00652
C 14.73205 24.03869 0.0058
C 15.85631 22.13995 -0.00865
C 12.40712 0.02603 -0.00831
C 14.78727 21.34007 0.00675
C 16.03833 19.24176 0.00742
C 15.95415 17.82832 -0.01594
C 14.81205 17.02941 0.0106
C 14.81602 15.59525 -0.01154
C 16.08333 14.94851 -0.01721
C 15.97146 13.58991 -0.02422
C 15.96331 2.05599 0.01277
C 14.75706 19.90382 -0.00311
C 18.4653 2.12062 -0.0055
C 9.84629 32.64018 0.01848
C 8.56582 0.63533 -0.03113
C 3.64245 9.19974 0.00572
C 2.43016 8.52112 0.03592
C 2.39517 7.15298 0.00406
C 3.5427 6.45266 0.00943
C 3.71507 5.05448 0.02841
C 2.45202 4.2589 -0.01111
C 2.45278 2.8211 -0.01275
C 3.62538 2.12172 0.00985
C 3.68298 0.72021 -0.02245
C 2.51033 34.05372 -0.00428
C 4.90565 32.65253 0.03101
C 6.19654 31.88683 -0.01536
C 6.16509 30.45951 -0.02689
C 4.89167 29.80485 -0.01046
C 4.84681 28.41497 -0.00891
C 3.69821 10.54879 0.0402
C 2.42567 11.34364 -0.02759
C 2.47923 12.82325 0.03589
C 3.74967 13.4826 -0.00033
C 3.66404 30.54438 -0.01118
C 2.47667 29.76056 -0.014
C 2.43691 28.41684 0.02147
C 3.68496 27.6693 0.00373
C 3.62931 26.27025 -0.00191
C 2.38308 25.58788 0.00438
C 2.49302 24.15716 0.01291
C 6.14412 27.69386 0.02819
C 3.66716 23.47522 0.00093
C 2.44576 21.33288 -0.01634
C 2.44823 19.95576 -0.00334
C 3.69658 19.27247 0.02339
C 3.66358 17.81446 0.01641
C 2.39053 17.05927 -0.00719
C 2.45787 15.64919 0.01364
C 3.69254 14.89945 -0.01062
C 3.68316 21.98756 0.00057
C 7.36383 34.02961 0.02098
C 6.12583 26.29314 0.00165
C 4.91546 24.16213 0.02894
C 7.37323 29.8015 -0.02813
C 7.35723 28.41844 0.00374
C 8.60763 27.7296 0.00052
C 8.57009 26.25085 -0.03682
C 7.37347 25.55647 0.01965
C 7.35092 24.15462 0.02058
C 8.67344 23.42824 -0.01957
C 8.57402 21.99705 -0.0108
C 7.36332 21.28531 -0.00368
C 7.33111 19.88912 -0.02696
C 8.6589 19.22227 -0.00114
C 8.55777 17.71536 0.00228
C 7.35532 17.08588 0.00798
C 7.402 15.66566 0.00422
C 8.58266 15.15033 0.0351
C 8.62915 30.54341 -0.01952
C 8.60133 31.87375 0.05265
C 7.3919 32.52415 -0.01717
C 4.90728 34.01776 0.00244
C 6.14318 23.37494 -0.01789
C 6.12358 21.97439 0.00444
C 4.87619 21.27785 -0.00925
C 4.94699 19.87036 0.01877
C 6.16553 19.22217 0.01363
C 6.11548 17.80805 -0.02162
C 4.87521 17.10301 0.00415
C 4.90601 25.58603 -0.02971
C 4.86376 15.6916 -0.0014
C 6.22022 13.56713 0.0076
C 5.10334 12.70555 0.01241
C 4.94249 11.39117 -0.01454
C 4.76094 4.26037 0.01945
C 4.97319 2.87983 0.01416
C 5.96011 1.99032 0.03542
C 6.13334 0.62925 0.02299
C 6.1806 14.92042 0.02162
C 3.6764 31.91551 -0.00131
C 18.47638 0.74493 0.01515
C 19.58433 32.74979 0.00071
C 33.22215 23.43138 0.01927
C 33.23571 22.03 0.01574
C 31.99988 21.31551 -0.02383
C 32.01218 19.87183 -0.01429
C 33.27593 19.21475 -0.0136
C 33.22096 17.8015 0.00594
C 31.97559 17.04533 -0.02474
C 31.96867 15.7002 0.00369
C 33.22872 14.9435 0.00455
C 33.25822 13.57226 -0.00644
C 31.98732 12.88219 -0.01839
C 31.89678 11.48781 0.00137
C 33.14638 10.77148 0.00199
C 33.08823 9.31665 0.04381
C 31.80394 8.60411 0.02806
C 31.96283 24.12702 0.03794
C 32.00301 25.58711 -0.01779
C 33.19997 26.29692 0.00682
C 33.12395 27.65846 0.00026
C 29.5052 12.93766 -0.00944
C 30.71519 10.6108 -0.03735
C 30.60361 9.36581 -0.00971
C 29.45174 7.13455 0.01518
C 30.56783 6.42712 0.01908
C 30.70689 4.97888 0.07705
C 29.51208 4.32492 0.0103
C 31.86027 7.12698 0.01504
C 29.51795 2.84389 0.02108
C 30.7085 0.6802 0.00307
C 29.51025 34.0079 0.00346
C 31.97765 32.67254 0.01713
C 33.13617 31.97552 -0.01694
C 33.10104 30.51899 0.01428
C 31.89129 29.84233 -0.02142
C 31.87994 28.42737 0.0544
C 30.74897 2.09093 0.00716
C 30.68832 13.52033 -0.02155
C 33.11828 6.39072 -0.00069
C 31.92596 4.14879 -0.03838
C 0.02519 15.65422 0.02114
C 1.26664 14.92274 -0.02957
C 1.28295 13.50166 0.00343
C 0.01413 12.8689 -0.02656
C 34.40336 11.39896 -0.02442
C 1.20127 10.67125 -0.00027
C 1.19051 9.26071 -0.00583
C 34.36527 8.58326 -0.02302
C 34.35063 7.08342 -0.02849
C 1.13107 6.40074 0.02931
C 1.23397 5.00701 0.00628
C 34.38971 4.27697 -0.0345
C 34.42461 2.82912 -0.00931
C 1.17049 2.11282 -0.00939
C 1.22371 0.73054 -0.00468
C 34.41594 17.06606 0.00648
C 1.19191 17.79276 0.01223
C 1.28909 19.17642 -0.01678
C 0.06682 19.93217 0.01951
C 31.97166 2.7149 0.00349
C 33.22116 2.11225 -0.00323
C 33.23702 0.69046 -0.00841
C 31.98873 34.04814 0.0001
C 34.41146 32.68868 -0.02927
C 1.23645 31.88599 -0.01404
C 1.17229 30.52133 0.01027
C 33.2184 4.95584 0.04926
C 34.40382 29.79933 0.01831
C 1.199 27.70012 -0.00439
C 1.15288 26.23554 -0.00598
C 34.41131 25.49444 -0.05239
C 0.02459 24.15029 0.03076
C 1.26762 23.46449 0.00723
C 1.30177 22.05565 0.02712
C 0.06913 21.4002 -0.02213
C 34.35685 28.39783 -0.01037
C 17.29752 0.0005 -0.00225
C 30.74646 14.99545 -0.01461
C 29.42979 16.97462 -0.0405
C 22.12213 15.54049 -0.00229
C 23.30863 4.99513 -0.00938
C 22.14278 4.37846 -0.0264
C 22.12234 2.89217 -0.01154
C 23.3912 2.25923 0.00684
C 23.3542 0.79643 -0.01052
C 22.10324 34.07464 -0.01679
C 24.61945 32.67079 0.00367
C 25.69719 31.95629 0.04306
C 25.8034 19.07257 0.00996
C 25.8533 17.7779 0.00195
C 24.56553 17.0232 -0.00802
C 24.55502 15.61395 -0.00218
C 25.86869 4.96575 -0.01654
C 24.58541 4.52735 -0.00037
C 22.02838 17.01381 -0.01199
C 23.26501 17.76147 -0.009
C 23.46219 19.07482 -0.00285
C 22.39174 32.7617 0.01423
C 20.79501 17.51356 -0.01107
C 19.54723 16.99439 -0.01586
C 19.69203 15.59786 -0.01971
C 20.96111 14.79192 -0.02118
C 20.91063 13.45499 0.00733
C 19.62285 12.79109 -0.00178
C 19.39447 11.45281 0.00768
C 24.60115 2.89738 -0.0032
C 19.50244 8.44027 -0.0276
C 20.63382 6.32361 -0.04078
C 20.85905 4.9952 0.02117
C 19.61124 4.18333 0.02737
C 19.63463 2.82107 -0.00498
C 20.96485 2.18284 0.00135
C 20.92491 0.75918 0.03102
C 19.73309 0.0238 0.02555
C 19.72994 7.17856 0.03005
C 29.45146 15.55779 -0.01303
C 25.84223 2.17561 0.00622
C 24.51437 34.07584 -0.00942
C 29.4869 32.60276 0.01324
C 30.70013 31.92448 0.0014
C 30.61141 30.54204 0.00924
C 29.40378 29.79602 0.02326
C 29.45963 28.36132 0.00261
C 30.69594 27.65705 0.03265
C 30.71839 26.30503 -0.02049
C 29.51571 25.61251 -0.01854
C 29.4272 24.21307 -0.01415
C 30.70778 23.43026 -0.03039
C 30.69018 22.03707 0.01836
C 29.48421 21.28841 0.03531
C 29.46838 19.81874 -0.00669
C 30.75833 19.13079 0.0101
C 30.67932 17.75199 0.01705
C 26.98465 34.06876 0.04266
C 28.27801 0.70122 0.01177
C 28.35196 2.14401 -0.00416
C 27.07944 2.80062 0.01699
C 27.03595 32.6135 0.00487
C 28.25834 31.93165 0.00826
C 28.154 30.41097 -0.00294
C 26.96673 29.80705 0.00152
C 28.29561 27.63316 0.01257
C 28.40943 23.3129 0.02316
C 28.05301 22.02412 0.04185
C 25.78862 0.74742 -0.02815
C 26.98425 21.24477 0.00194
C 28.23296 19.13256 0.02611
C 28.26195 17.67525 0.02198
C 26.99204 17.01203 0.01094
C 27.0146 15.64124 0.00235
C 28.24065 14.92242 0.01495
C 28.28597 4.94194 0.01259
C 27.01166 4.30995 0.01799
C 27.00337 19.88623 -0.00621
C 2.4031 32.64068 -0.02896
