325
Graphene
C 0.02109 0.00779 0.01295
C 9.82265 24.1954 -0.00066
C 11.17437 23.45523 -0.00289
C 11.21445 22.01658 0.00028
C 9.93709 21.32552 -0.02213
C 9.90985 19.84506 0.03698
C 11.12497 19.0824 -0.00109
C 11.02685 17.73196 -0.00491
C 9.82376 25.58148 0.00213
C 9.7973 16.99315 0.03338
C 11.12076 14.82075 -0.0331
C 11.07886 13.42095 -0.00316
C 9.85715 12.76156 0.02188
C 9.87382 11.37733 -0.01979
C 11.08992 10.6887 0.02691
C 11.02753 9.19476 -0.01581
C 9.78714 8.53532 0.01452
C 9.83494 15.53836 -0.0258
C 9.85973 7.12463 0.04892
C 11.06514 26.3001 -0.05302
C 9.85361 28.35281 -0.02815
C 7.39887 11.3576 -0.02696
C 8.61741 10.69715 -0.00114
C 8.57401 9.24136 0.00228
C 7.35243 8.54926 0.00798
C 7.32297 7.19117 0.00422
C 8.58916 6.47975 0.0351
C 8.55673 5.04002 -0.03113
C 11.01124 27.61583 -0.04147
C 7.37075 4.3348 0.02098
C 8.5883 2.16194 -0.00619
C 8.63321 0.71383 -0.02162
C 7.39365 34.05825 0.00889
C 9.80864 32.63543 -0.00481
C 11.0156 31.9136 0.00979
C 10.98049 30.5962 0.01443
C 9.77801 29.77791 0.03505
C 7.39221 2.89205 0.01848
C 11.01996 6.39564 -0.00111
C 11.05487 4.91856 -0.03557
C 9.83169 4.26785 0.03754
C 13.53621 15.00185 -0.01154
C 13.55734 13.5541 -0.01721
C 12.34804 12.76775 -0.02422
C 12.35842 11.34663 0.01277
C 13.60523 10.66912 0.00096
C 13.47831 9.31086 -0.01527
C 12.2805 8.47676 0.01087
C 12.30897 15.63158 0.0106
C 12.28213 7.14864 0.00199
C 13.55073 4.921 -0.00478
C 12.27262 4.18432 -0.01662
C 12.1635 2.81424 -0.01185
C 13.44402 2.12663 0.01126
C 13.50426 0.7333 0.01852
C 12.2842 0.04116 -0.00381
C 14.66595 32.64325 0.03046
C 13.48785 6.40006 0.01511
C 12.23217 17.0268 -0.01594
C 13.45457 17.77146 0.00742
C 13.54796 19.17712 -0.00311
C 9.83538 2.8226 0.01739
C 10.99669 2.11782 0.00755
C 11.06061 0.74123 -0.0054
C 9.84002 34.07214 0.00667
C 12.27487 32.68033 0.00143
C 13.48928 32.00857 -0.017
C 13.48695 30.61493 0.00364
C 12.2554 29.81929 -0.00831
C 12.22707 28.35549 -0.02957
C 13.5257 27.67618 -0.04422
C 13.63098 26.27323 0.00654
C 12.37492 25.56373 -0.00703
C 12.39705 24.20501 -0.04076
C 13.49581 23.47151 -0.00652
C 13.51592 22.1295 0.0058
C 12.46548 21.31417 -0.00865
C 12.41052 19.91116 0.00675
C 7.3585 12.79599 -0.00368
C 8.59914 13.39363 -0.0108
C 8.51607 14.76494 -0.01957
C 7.33718 15.48245 0.02058
C 2.40976 8.53174 0.00093
C 2.4058 7.12423 0.00057
C 3.63855 6.41721 -0.01634
C 3.67899 4.97209 -0.00334
C 2.4404 4.22975 0.02339
C 2.42217 2.82409 0.01641
C 3.73317 2.12486 -0.00719
C 3.60697 9.20817 0.01291
C 3.65727 0.67401 0.01364
C 4.92209 32.69359 -0.00033
C 6.19937 32.013 0.03589
C 6.18808 30.55712 -0.02759
C 4.90512 29.87669 0.0402
C 4.92065 28.40706 0.00572
C 6.06701 27.72653 0.03592
C 6.13014 26.29894 0.00406
C 2.42451 0.00027 -0.01062
C 3.67436 10.53109 0.00438
C 2.46246 11.30779 -0.00191
C 2.47156 12.66335 0.00373
C 3.69838 30.57903 -0.0008
C 2.51076 29.80925 0.0288
C 2.45191 28.44568 0.00393
C 3.70069 27.72832 0.00895
C 3.67547 26.40261 0.00685
C 2.44739 25.63215 0.02888
C 2.43273 24.27276 -0.00482
C 3.67647 23.54132 -0.01384
C 3.71029 22.12265 0.03693
C 2.42353 21.34896 0.01745
C 2.42538 19.94014 0.00488
C 3.71471 19.19589 -0.01004
C 3.72012 17.72409 -0.02896
C 2.43818 17.03344 -0.00131
C 2.48679 15.51265 -0.01118
C 3.71321 14.862 -0.014
C 3.64458 13.42367 0.02147
C 4.91474 25.61354 0.00943
C 15.96401 31.98964 0.0296
C 4.95565 24.19116 0.02841
C 6.14036 22.07774 -0.01275
C 7.37934 32.69927 0.0076
C 8.58067 31.93821 0.01241
C 8.58908 30.48893 -0.01454
C 7.40057 29.80012 0.01945
C 7.32978 28.39621 0.01416
C 8.60048 27.64977 0.03542
C 8.58996 26.20692 0.02299
C 4.95477 0.00498 0.02162
C 7.338 25.50777 0.00244
C 8.62308 23.43689 0.05265
C 8.69388 22.08273 -0.01952
C 7.40119 21.35497 -0.02813
C 7.44673 19.88262 0.00374
C 8.66835 19.11938 0.00052
C 8.62747 17.6921 -0.03682
C 7.35994 17.02367 0.01965
C 7.39063 24.15647 -0.01717
C 6.16353 0.74327 -0.0014
C 6.14132 2.2056 0.00415
C 4.93205 2.84446 -0.02162
C 4.87305 21.32605 0.00985
C 4.9686 19.94477 -0.02245
C 6.13351 19.22016 -0.00428
C 6.10307 17.77633 0.03101
C 4.90942 17.00066 -0.01536
C 4.94113 15.68296 -0.02689
C 6.09725 14.8715 -0.01046
C 6.12507 13.41265 -0.00891
C 4.89022 12.71667 0.02819
C 4.85658 11.32492 0.00165
C 6.13163 10.67604 -0.02971
C 6.08323 9.2532 0.02894
C 4.8452 8.5462 -0.01789
C 4.90118 7.05057 0.00444
C 6.16528 6.41129 -0.00925
C 6.11829 5.02014 0.01877
C 4.90618 4.32983 0.01363
C 6.16679 23.44481 -0.01111
C 3.67311 31.96317 -0.01362
C 15.94809 30.57843 0.03374
C 14.75839 28.37976 -0.03213
C 31.98164 32.77164 0.00682
C 33.28832 31.99933 -0.01779
C 33.25496 30.61854 0.03794
C 31.95874 29.96799 0.01927
C 31.92147 28.5296 0.01574
C 33.13005 27.7506 -0.02383
C 33.11757 26.33328 -0.01429
C 29.40004 0.06147 0.00026
C 31.90906 25.50246 -0.0136
C 33.22394 23.47667 -0.02474
C 33.17355 22.07053 0.00369
C 32.00331 21.3523 0.00455
C 31.92911 19.93559 -0.00644
C 33.05563 19.24891 -0.01839
C 33.14621 17.81026 0.00137
C 31.86001 17.01882 0.00199
C 32.04033 24.19011 0.00594
C 31.94127 15.69147 0.04381
C 30.62354 0.72071 0.0544
C 29.45751 2.91517 0.01428
C 27.01599 29.66152 -0.01303
C 27.17762 28.27433 -0.01461
C 28.49332 27.56637 -0.02155
C 26.93358 2.68634 -0.00944
C 28.14127 2.31787 -0.03735
C 28.12336 0.73552 -0.00971
C 26.98657 0.03422 0.01518
C 30.66229 2.1677 -0.02142
C 29.48915 32.75984 0.01908
C 30.70616 30.64616 0.0103
C 29.54445 29.96466 0.02108
C 29.53312 28.49847 0.00716
C 30.73794 27.84715 0.00307
C 30.69183 26.33431 0.00346
C 29.32735 25.89239 0.01713
C 30.73695 17.96219 -0.01694
C 30.74809 32.07774 0.07705
C 33.10552 14.87312 0.02806
C 33.22922 13.53736 0.01504
C 33.29668 6.29466 -0.00069
C 34.41968 17.00045 0.00648
C 34.39591 15.64567 0.02114
C 1.23107 14.89115 -0.02957
C 1.21743 13.45173 0.00343
C 34.39965 12.70718 -0.02656
C 0.10895 11.35951 -0.02442
C 1.21879 10.6564 -0.00027
C 1.2048 17.68208 0.01223
C 1.1489 9.24226 -0.00583
C 34.23723 7.22247 -0.02849
C 1.09056 6.39197 0.02931
C 1.17006 5.04781 0.00628
C 34.35791 4.27625 -0.0345
C 34.4312 2.83456 -0.00931
C 1.24546 2.11115 -0.00939
C 1.23779 0.73314 -0.00468
C 34.35786 8.62757 -0.02302
C 1.17555 19.16301 -0.01678
C 34.41833 19.88784 0.01951
C 0.00663 21.29083 -0.02213
C 33.05741 4.97584 0.04926
C 31.85429 4.15167 -0.03838
C 31.95236 2.83771 0.00349
C 33.19049 2.15951 -0.00323
C 33.1918 0.72744 -0.00841
C 31.9045 0.09299 0.0001
C 0.0679 32.6803 -0.02927
C 1.257 31.9598 -0.01404
C 1.23401 30.49515 0.01027
C 34.39007 29.80111 0.01831
C 34.3891 28.43072 -0.01037
C 1.18067 27.72571 -0.00439
C 1.24239 26.34385 -0.00598
C 34.42257 25.66236 -0.05239
C 34.41683 24.16161 0.03076
C 1.23158 23.52108 0.00723
C 1.15263 22.05066 0.02712
C 28.26996 30.55428 -0.0405
C 28.23597 31.9851 0.01705
C 26.9985 32.66622 0.0101
C 24.54924 33.97281 -0.00669
C 17.1861 32.59981 0.03102
C 18.50909 31.93874 0.02555
C 18.50824 30.49488 0.01423
C 17.1897 29.8312 -0.00285
C 17.15496 28.35192 -0.009
C 18.35602 27.64263 -0.01199
C 16.98943 16.99063 -0.00229
C 14.69754 0.00827 0.00135
C 17.21818 15.66604 -0.00938
C 18.3536 13.3552 -0.01154
C 17.0773 12.75605 0.00684
C 17.18851 11.36972 -0.01052
C 18.24491 10.51975 -0.01679
C 18.46466 9.1668 0.00367
C 17.18884 8.51511 0.04306
C 17.12154 7.10702 0.00996
C 18.45863 14.68319 -0.0264
C 15.95457 0.67097 -0.00498
C 15.8804 2.06973 0.02737
C 14.66113 2.80532 0.02117
C 15.99124 27.65975 0.02239
C 15.96714 26.36981 0.01153
C 14.819 25.59738 0.02734
C 15.91743 17.81576 -0.0055
C 14.71528 17.10248 0.01515
C 14.77423 15.65462 -0.00225
C 16.01219 14.99984 0.00071
C 15.91493 13.56636 -0.01107
C 14.75647 12.82076 -0.01586
C 14.84943 11.42457 -0.01971
C 16.00292 10.65217 -0.02118
C 15.9381 9.26723 0.00733
C 14.70251 8.51996 -0.00178
C 14.73172 7.09271 0.00768
C 15.97783 6.36025 -0.0276
C 16.03794 5.01902 0.03005
C 14.79711 4.25217 -0.04078
C 18.4502 6.46436 0.00195
C 14.6993 29.85711 -0.02845
C 18.48491 4.93725 -0.00802
C 17.10311 2.81878 -0.01654
C 22.10202 28.18671 0.01699
C 23.38067 27.7977 -0.00416
C 22.13559 4.10107 0.01177
C 22.13707 2.65145 0.04266
C 23.32697 2.09791 0.01324
C 23.36743 0.66831 0.0014
C 22.1643 34.0339 0.00924
C 22.13452 29.67503 0.01799
C 24.6398 32.57941 0.02326
C 25.81133 30.43317 0.03265
C 24.59173 29.75216 -0.02049
C 24.66731 28.13621 -0.01854
C 25.9187 27.67829 -0.01415
C 24.41483 2.97223 -0.03039
C 25.65312 2.24542 0.01836
C 25.72136 0.74062 0.03531
C 25.8434 31.91522 0.00261
C 23.35601 30.43764 0.01259
C 23.36213 31.88163 0.01495
C 22.19074 32.62588 0.00235
C 18.38123 2.035 -0.00037
C 18.44452 0.65943 -0.0032
C 17.12113 33.99813 0.00622
C 19.74379 32.61595 -0.02815
C 20.9524 31.92232 -0.00942
C 20.88671 30.45944 0.00487
C 19.65854 29.68824 0.00826
C 19.62185 28.09002 -0.00294
C 20.84961 27.62238 0.00152
C 19.59365 15.52883 0.01257
C 19.50531 7.31531 0.02316
C 20.99515 4.79935 0.04185
C 19.66534 4.22754 0.00194
C 19.59699 2.77342 -0.00621
C 20.85191 2.04806 0.02611
C 20.88476 0.61988 0.02198
C 19.68975 34.03589 0.01094
C 17.22499 4.21759 -0.00218
C 2.47549 32.60771 -0.00892
