350
Graphene
C 34.41749 0.02536 0.01295
C 13.61871 14.81031 0.00798
C 13.49762 13.46409 0.00422
C 12.30031 12.85281 0.0351
C 12.34107 11.48538 -0.03113
C 12.28927 8.54921 0.02098
C 12.20311 7.384 0.01848
C 12.25436 4.13483 -0.00619
C 12.17759 2.73613 -0.02162
C 13.50691 2.04268 0.00889
C 13.5121 0.37032 -0.00481
C 12.30161 33.97051 0.00979
C 16.6583 19.26458 0.01443
C 16.08597 17.78276 0.03505
C 14.81404 17.09172 -0.02815
C 14.80912 15.5455 -0.04147
C 16.04304 14.88362 -0.05302
C 15.92637 13.44888 0.00213
C 12.26264 15.62834 0.00228
C 12.39901 16.9868 -0.00114
C 13.50596 17.64351 -0.02696
C 9.87954 34.05019 -0.00368
C 11.01388 19.09906 0.01241
C 11.10959 17.66612 -0.01454
C 9.83394 17.00366 0.01945
C 9.8359 15.59741 0.01416
C 11.06335 14.89745 0.03542
C 11.03458 13.47864 0.02299
C 9.7777 12.82116 0.00244
C 9.90722 11.43972 -0.01717
C 14.89352 12.8424 -0.00066
C 11.19778 10.8179 0.05265
C 9.94468 8.63253 -0.02813
C 9.97899 7.15523 0.00374
C 11.14359 6.39471 0.00052
C 11.16891 4.97342 -0.03682
C 9.86186 4.29037 0.01965
C 9.82467 2.79015 0.02058
C 11.02064 2.02639 -0.01957
C 11.05313 0.65531 -0.0108
C 11.11415 9.44958 -0.01952
C 14.72397 2.59912 -0.00289
C 15.94607 2.64634 0.00028
C 16.002 0.08978 -0.02213
C 20.76739 13.54053 0.00364
C 19.70949 2.90616 -0.00831
C 20.89086 2.05478 -0.02957
C 20.92632 0.71535 -0.04422
C 19.7428 0.05716 0.00654
C 21.96505 32.64345 -0.00703
C 23.16713 31.81242 -0.04076
C 23.20392 30.43259 -0.00652
C 20.9127 14.95928 -0.017
C 21.98926 29.6894 0.0058
C 23.3066 27.70051 0.00675
C 23.32906 26.3002 -0.00311
C 22.26031 25.42328 0.00742
C 22.15647 24.12742 -0.01594
C 23.32421 23.36562 0.0106
C 23.38216 22.0407 -0.01154
C 22.18875 21.32703 -0.01721
C 21.98425 19.93806 -0.02422
C 22.025 28.2614 -0.00865
C 9.97693 19.67203 0.0076
C 19.64045 15.62849 0.00143
C 20.8144 17.84483 -0.0054
C 14.7758 33.94417 0.03698
C 17.91383 19.21174 -0.00109
C 18.39847 17.72774 -0.00491
C 17.24682 16.90746 0.03338
C 17.27917 15.50261 -0.0258
C 18.48192 14.79792 -0.0331
C 18.68337 13.43401 -0.00316
C 17.21135 2.76719 0.02188
C 19.64024 17.06007 0.00667
C 18.47268 2.6372 -0.01979
C 17.35089 0.11511 -0.01581
C 19.64719 32.73184 0.01452
C 20.69972 31.86042 0.04892
C 20.8618 30.51184 -0.00111
C 20.9181 21.93411 -0.03557
C 19.79457 21.32224 0.03754
C 19.23133 20.05648 0.01739
C 20.66287 19.26327 0.00755
C 18.47599 0.57684 0.02691
C 9.49595 32.5911 0.02162
C 7.35248 0.01227 -0.0014
C 8.54778 0.71204 0.00415
C 2.47868 7.1372 -0.04848
C 3.72569 6.40828 -0.00892
C 3.68966 5.02367 -0.01362
C 2.4852 4.29562 -0.0008
C 2.40855 2.86081 0.0288
C 3.69619 2.14635 0.00393
C 3.71592 0.74303 0.00895
C 2.4239 0.05466 0.00685
C 2.53886 8.51627 0.01572
C 4.87795 32.68751 0.02888
C 6.11177 30.52559 -0.01384
C 4.92306 29.89674 0.03693
C 4.82346 28.43722 0.01745
C 6.04824 27.77934 0.00488
C 5.95709 26.49782 -0.01004
C 4.8406 25.54364 -0.02896
C 4.84096 24.135 -0.00131
C 6.10625 23.56796 -0.01118
C 6.06476 31.93518 -0.00482
C 6.29871 22.21707 -0.014
C 3.74488 9.27632 -0.00095
C 2.44988 11.40142 0.00054
C 3.60038 30.54325 -0.00077
C 2.33776 29.8798 0.03368
C 2.38086 28.4036 -0.02929
C 3.62125 27.73742 -0.00966
C 3.60568 26.28258 -0.03337
C 2.3927 25.52311 0.01227
C 2.40621 24.16185 0.00873
C 3.55214 23.40379 -0.00049
C 3.71016 10.67661 0.03007
C 3.67789 21.982 0.00848
C 2.38424 19.83387 -0.01378
C 3.65303 19.18369 0.02635
C 3.60938 17.73384 0.0127
C 2.37555 16.9806 0.01396
C 2.38092 15.63962 0.01849
C 3.71273 14.92704 -0.01142
C 3.66797 13.48331 -0.00562
C 2.51046 12.80177 -0.00494
C 2.40719 21.29646 -0.01303
C 23.32356 19.26407 0.01277
C 4.95117 21.4411 0.02147
C 6.11426 19.27387 -0.00191
C 7.26176 19.9973 0.00985
C 8.50257 19.28045 -0.02245
C 8.64231 17.83304 -0.00428
C 7.37589 17.10883 0.03101
C 7.3699 15.63932 -0.01536
C 8.57859 14.97728 -0.02689
C 8.57056 13.60959 -0.01046
C 7.38463 12.90205 -0.00891
C 7.32557 21.3576 -0.01275
C 7.41491 11.42545 0.02819
C 8.68183 9.31941 -0.02971
C 7.47083 8.58285 0.02894
C 7.43435 7.19318 -0.01789
C 8.71937 6.49874 0.00444
C 8.62949 5.02084 -0.00925
C 7.43324 4.32785 0.01877
C 7.4015 2.88886 0.01363
C 8.56835 2.14102 -0.02162
C 8.65774 10.74585 0.00165
C 4.90163 19.96852 0.00373
C 7.31749 29.70479 -0.01111
C 7.2454 32.68038 0.00943
C 6.11772 17.8489 0.00438
C 4.89102 17.08045 0.01291
C 4.90821 15.68633 0.00093
C 6.155 14.95038 0.00057
C 6.15495 13.5715 -0.01634
C 4.93843 12.82828 -0.00334
C 4.89917 11.40751 0.02339
C 6.17258 10.66256 0.01641
C 8.48885 31.95616 0.02841
C 6.17958 9.18578 -0.00719
C 4.97381 7.10725 -0.01062
C 6.22626 6.46938 -0.00033
C 6.21401 5.0171 0.03589
C 5.01103 4.29356 -0.02759
C 4.93002 2.88053 0.0402
C 6.18273 2.16928 0.00572
C 6.15066 0.7682 0.03592
C 4.86219 0.04613 0.00406
C 4.93571 8.51299 0.01364
C 23.30744 17.79259 0.00096
C 22.05728 17.18457 -0.01527
C 22.19658 15.71225 0.01087
C 33.19626 31.96575 -0.01694
C 33.20898 30.54887 0.01428
C 31.92918 29.82763 -0.02142
C 31.90382 28.4398 0.0544
C 33.12356 27.70487 0.00026
C 33.1215 26.26437 0.00682
C 31.89508 25.54587 -0.01779
C 31.90405 24.16047 0.03794
C 32.01693 32.69379 0.01713
C 33.16139 23.42554 0.01927
C 31.96887 21.32726 -0.02383
C 31.89244 19.87731 -0.01429
C 33.11156 19.11427 -0.0136
C 33.14638 17.75955 0.00594
C 31.90789 17.12361 -0.02474
C 31.9137 15.68802 0.00369
C 33.13636 14.96781 0.00455
C 33.19411 13.57913 -0.00644
C 33.12083 22.04393 0.01574
C 31.95198 12.78806 -0.01839
C 29.54927 34.03223 0.00346
C 30.74325 2.13538 0.00716
C 29.46071 21.35344 -0.03039
C 29.51458 19.92581 0.01836
C 30.6853 19.24661 0.03531
C 30.72893 17.81878 -0.00669
C 29.47761 17.13842 0.0101
C 29.50501 15.64052 0.01705
C 30.73645 14.94277 -0.0405
C 30.74012 13.47144 -0.01303
C 30.82274 0.69887 0.00307
C 29.49836 12.81096 -0.01461
C 30.76571 10.63955 -0.00944
C 30.8129 9.24853 -0.03735
C 29.5321 8.52688 -0.00971
C 29.5227 7.07168 0.01518
C 30.7818 6.36931 0.01908
C 30.74861 4.9386 0.07705
C 29.54113 4.16941 0.0103
C 29.53201 2.74392 0.02108
C 29.51974 11.37225 -0.02155
C 30.68536 22.0454 -0.01415
C 32.0354 11.29267 0.00137
C 33.24207 9.23951 0.04381
C 1.107 19.15942 -0.01678
C 1.17623 17.67127 0.01223
C 34.35581 16.9912 0.00648
C 34.38362 15.67672 0.02114
C 1.17499 14.86218 -0.02957
C 1.22181 13.50553 0.00343
C 34.43207 12.78797 -0.02656
C 0.07187 11.35278 -0.02442
C 34.33017 19.81418 0.01951
C 1.28521 10.62026 -0.00027
C 0.0373 8.51034 -0.02302
C 0.04438 7.06878 -0.02849
C 1.30605 6.39653 0.02931
C 1.27878 4.94365 0.00628
C 34.40209 4.31611 -0.0345
C 34.40422 2.91644 -0.00931
C 1.19574 2.18474 -0.00939
C 1.20949 0.72385 -0.00468
C 1.29225 9.17048 -0.00583
C 33.27248 10.65727 0.00199
C 34.36019 21.31097 -0.02213
C 1.14623 23.39959 0.00723
C 32.08334 8.49957 0.02806
C 32.00867 7.07857 0.01504
C 33.24675 6.39094 -0.00069
C 33.21469 4.96406 0.04926
C 31.9623 4.22199 -0.03838
C 31.95765 2.87007 0.00349
C 33.16798 2.16995 -0.00323
C 33.21296 0.76901 -0.00841
C 1.13593 21.92525 0.02712
C 31.98079 0.00276 0.0001
C 1.20199 32.02979 -0.01404
C 1.15628 30.59199 0.01027
C 34.33848 29.81422 0.01831
C 34.34381 28.44887 -0.01037
C 1.15484 27.66235 -0.00439
C 1.14855 26.30851 -0.00598
C 34.37529 25.5182 -0.05239
C 34.37814 24.14314 0.03076
C 0.00169 32.70583 -0.02927
C 3.66171 31.95161 0.01305
C 30.64439 23.46391 -0.01854
C 29.45979 25.65765 0.03265
C 25.81618 23.42713 -0.01971
C 25.84005 22.05286 -0.02118
C 24.63156 21.3532 0.00733
C 24.61575 19.89906 -0.00178
C 25.78233 19.20327 0.00768
C 25.83856 17.79541 -0.0276
C 24.57589 17.12483 0.03005
C 24.61538 15.67457 -0.04078
C 24.55727 24.06843 -0.01586
C 25.77948 14.95817 0.02117
C 24.60721 12.78507 -0.00498
C 24.57062 11.31694 0.00135
C 25.88457 10.66613 0.03102
C 25.9032 9.25986 0.02555
C 24.70448 8.50764 0.01423
C 24.72525 7.05922 -0.00285
C 25.87278 6.29102 -0.009
C 25.79264 4.87178 -0.01199
C 25.862 13.50496 0.02737
C 24.5029 4.25042 -0.00229
C 24.54469 25.54572 -0.01107
C 25.76715 27.69477 -0.00225
C 23.42914 14.97243 0.00199
C 23.30302 13.49649 0.01511
C 22.06259 12.74193 -0.00478
C 22.12045 11.36458 -0.01662
C 23.32765 10.50997 -0.01185
C 23.43808 9.07002 0.01126
C 23.43373 6.48202 0.01852
C 23.19263 5.08432 -0.00381
C 25.78669 26.2661 0.00071
C 22.09505 4.25258 0.03046
C 23.3699 2.05803 0.03374
C 23.32603 0.65888 -0.02845
C 22.12373 34.04472 -0.03213
C 24.4984 32.6115 0.02239
C 25.80212 31.92571 0.01153
C 25.74924 30.48301 0.02734
C 24.50709 29.7671 -0.0055
C 24.52879 28.40481 0.01515
C 22.15011 2.83006 0.0296
C 29.47128 24.22109 -0.02049
C 24.61228 2.75319 -0.00938
C 25.78871 0.65766 -0.01154
C 28.28216 10.65066 0.00194
C 28.27518 9.22412 -0.00621
C 27.10635 8.48706 0.02611
C 27.082 7.05238 0.02198
C 28.3271 6.30607 0.01094
C 28.30439 4.87563 0.00235
C 27.04773 4.14693 0.01495
C 27.03637 2.75583 0.01259
C 27.06782 11.42686 0.04185
C 28.33204 2.02683 0.01799
C 27.0481 34.03392 -0.00416
C 29.45882 32.6086 0.01177
C 30.76343 31.94507 0.04266
C 30.73508 30.5546 0.01324
C 29.4174 29.8581 0.0014
C 29.39806 28.46934 0.00924
C 30.62174 27.72913 0.02326
C 30.73072 26.33425 0.00261
C 28.2867 0.61016 0.01699
C 25.87385 2.07079 -0.0264
C 27.08875 12.81769 0.02316
C 28.2505 14.94664 0.00152
C 24.57283 33.96039 0.00684
C 27.00437 32.62279 -0.01052
C 28.25124 31.88778 -0.01679
C 28.16441 30.51537 0.00367
C 26.98412 29.75401 0.04306
C 26.99216 28.40007 0.00996
C 28.14039 27.719 0.00195
C 28.2363 26.3007 -0.00802
C 28.30516 13.53408 0.01257
C 26.99993 25.56914 -0.00218
C 28.27942 23.42146 -0.00037
C 28.28957 22.10617 -0.0032
C 27.04966 21.33526 0.00622
C 27.06374 19.91456 -0.02815
C 28.23216 19.27792 -0.00942
C 28.28155 17.89069 0.00487
C 27.01824 17.04942 0.00826
C 27.03377 15.66707 -0.00294
C 27.02879 24.11635 -0.01654
C 2.42627 32.70241 0.0276
