273
Graphene
C 34.41561 0.12456 0.01295
C 13.47273 0.68753 0.00199
C 13.41243 2.13798 0.01087
C 12.21833 2.88797 -0.01527
C 12.34337 4.31295 0.00096
C 13.47056 5.0553 0.01277
C 13.44188 6.48163 -0.02422
C 12.24047 7.29681 -0.01721
C 12.28469 8.681 -0.01154
C 12.91306 30.60819 0.0106
C 13.359 31.98455 -0.01594
C 12.16767 32.78159 0.00742
C 9.84926 0.0207 -0.00311
C 11.02081 0.77446 0.00675
C 10.98929 2.23464 -0.00865
C 12.30588 0.03265 0.01511
C 9.79117 2.94659 0.0058
C 11.11904 4.97943 -0.04076
C 11.06168 6.54388 -0.00703
C 9.85057 7.16225 0.00654
C 9.82789 8.54396 -0.04422
C 11.06223 9.27329 -0.02957
C 10.07911 30.02954 -0.00831
C 11.29994 30.55324 0.00364
C 11.06881 32.08193 -0.017
C 9.81911 32.6772 0.00143
C 7.31775 0.12316 0.00667
C 8.57287 0.76668 -0.0054
C 8.56044 2.20507 0.00755
C 7.38225 2.92847 0.01739
C 7.27799 4.26214 0.03754
C 9.77766 4.39252 -0.00652
C 8.52506 5.11593 -0.03557
C 14.64582 32.59531 -0.00478
C 16.01658 30.46861 -0.01185
C 19.5589 28.24119 0.03102
C 19.59849 29.66386 0.00135
C 20.79353 30.45117 -0.00498
C 20.77805 31.86129 0.02737
C 19.57367 32.57568 0.02117
C 17.2915 34.04895 -0.04078
C 18.4732 0.6646 0.03005
C 18.38263 2.05918 -0.0276
C 17.19741 2.79344 0.00768
C 17.18123 4.23465 -0.00178
C 18.40518 4.94725 0.00733
C 18.40298 6.43092 -0.02118
C 17.11042 7.19658 -0.01971
C 17.20888 8.56262 -0.01586
C 15.839 31.85624 -0.01662
C 18.42642 9.25804 -0.01107
C 17.11412 29.6489 -0.00225
C 18.30073 30.40117 0.01515
C 18.3948 31.80167 -0.0055
C 17.19443 32.57297 0.02734
C 14.73296 34.00202 0.01153
C 15.99599 0.68715 0.02239
C 15.97693 2.15069 -0.03213
C 14.65492 2.79952 -0.02845
C 14.69056 4.26879 0.03374
C 15.91946 4.87099 0.0296
C 15.84311 6.3818 0.03046
C 14.68527 7.12896 -0.00381
C 14.6919 8.53286 0.01852
C 15.95546 9.10335 0.01126
C 18.5586 10.80892 0.00071
C 8.53477 6.44125 -0.00111
C 7.24207 7.09282 0.04892
C 7.27836 8.4485 0.01452
C 2.40187 0.08622 -0.00368
C 3.6544 0.7369 -0.0108
C 3.62484 2.18572 -0.01957
C 2.40749 3.00925 0.02058
C 2.39239 4.38721 0.01965
C 3.67044 5.04697 -0.03682
C 3.57574 6.45074 0.00052
C 2.34817 7.22617 0.00374
C 2.28776 8.66379 -0.02813
C 3.61145 9.31042 -0.01952
C 3.76412 10.74325 0.05265
C 2.44327 11.40096 -0.01717
C 2.38696 12.80977 0.00244
C 3.75865 13.4502 0.02299
C 4.8826 32.71584 -0.02696
C 3.70256 14.95307 0.03542
C 2.1025 16.98864 0.01945
C 3.35591 17.75844 -0.01454
C 3.52572 19.16158 0.01241
C 2.26598 19.89069 0.0076
C 2.19083 21.25469 0.02162
C 3.50966 22.02423 -0.0014
C 3.51388 23.45746 0.00415
C 2.26278 24.25988 -0.02162
C 2.37183 25.62655 0.01363
C 3.62656 26.32633 0.01877
C 3.69645 27.68137 -0.00925
C 2.44522 28.39334 0.00444
C 2.41216 29.85723 -0.01789
C 3.7028 30.5533 0.02894
C 2.33644 15.55184 0.01416
C 6.16044 32.01633 -0.00114
C 6.18034 30.54972 0.00228
C 4.97052 29.84868 0.00798
C 8.42453 9.20317 -0.01581
C 7.74031 10.71406 0.02691
C 7.41882 28.46077 -0.01979
C 7.44273 29.85622 0.02188
C 8.68192 30.54918 -0.00316
C 8.56839 32.03802 -0.0331
C 7.35342 32.78049 -0.0258
C 4.89426 0.04367 0.03338
C 6.12663 0.84232 -0.00491
C 6.1964 2.28334 -0.00109
C 4.87136 2.91142 0.03698
C 4.85943 4.34811 -0.02213
C 6.09004 4.9812 0.00028
C 5.98277 6.30507 -0.00289
C 4.83603 7.1028 -0.00066
C 4.79305 8.53866 0.00213
C 6.03093 9.21228 -0.05302
C 4.92099 28.33641 0.00422
C 6.26869 27.6592 0.0351
C 6.00338 26.28574 -0.03113
C 4.80445 25.542 0.02098
C 4.74591 24.14528 0.01848
C 5.86808 23.40451 -0.00619
C 20.70858 27.48902 0.02555
C 5.79959 22.15125 -0.02162
C 4.71896 19.92594 -0.00481
C 4.54498 17.01991 0.00979
C 4.88662 15.7631 0.01443
C 4.99652 12.78123 0.03505
C 5.10502 11.46548 -0.02815
C 6.2569 10.62637 -0.04147
C 4.63069 21.22939 0.00889
C 3.67297 31.98652 -0.02971
C 21.5381 26.37701 0.01423
C 20.92505 10.73184 -0.009
C 31.95394 2.95095 0.00349
C 31.95771 4.38991 -0.03838
C 33.19519 5.07207 0.04926
C 33.1476 6.44888 -0.00069
C 31.89988 7.08446 0.01504
C 31.86227 8.53034 0.02806
C 33.04765 9.38742 0.04381
C 33.00268 10.72806 0.00199
C 31.83093 11.52109 0.00137
C 31.98104 12.83239 -0.01839
C 33.0268 13.67183 -0.00644
C 33.06837 22.14578 0.00455
C 33.01929 23.50011 0.00369
C 31.92548 24.31065 -0.02474
C 33.25392 2.28132 -0.00323
C 31.62674 25.67466 0.00594
C 33.13122 27.79968 -0.01429
C 31.94997 28.53703 -0.02383
C 31.93048 29.98432 0.01574
C 33.19427 30.63448 0.01927
C 33.15929 32.02244 0.03794
C 31.94922 32.80665 -0.01779
C 29.48604 0.16019 0.00682
C 30.72071 0.8718 0.00026
C 30.70685 2.28106 0.0544
C 29.48517 2.94095 -0.02142
C 29.46237 4.34534 0.01428
C 30.72212 5.06313 -0.01694
C 30.70394 6.45982 0.01713
C 29.4669 7.15032 0.00346
C 32.96447 26.45981 -0.0136
C 29.48863 8.49564 0.00307
C 33.20603 0.90193 -0.00841
C 0.00416 32.73555 -0.02927
C 1.20018 0.82045 -0.00468
C 1.17636 2.21097 -0.00939
C 0.00436 2.9392 -0.00931
C 34.39595 4.36639 -0.0345
C 1.14659 5.09818 0.00628
C 1.14529 6.50405 0.02931
C 34.34108 7.24948 -0.02849
C 34.27681 8.67724 -0.02302
C 1.07292 9.39846 -0.00583
C 1.10255 10.75686 -0.00027
C 34.16391 11.4163 -0.02442
C 34.21805 12.93681 -0.02656
C 1.10221 13.48669 0.00343
C 1.13855 14.93437 -0.02957
C 31.92575 0.15113 0.0001
C 34.41218 15.53742 0.02114
C 0.93119 17.69506 0.01223
C 0.9977 19.20366 -0.01678
C 34.35931 19.99177 0.01951
C 34.25571 21.36547 -0.02213
C 1.07605 22.0842 0.02712
C 1.06808 23.5572 0.00723
C 34.22739 24.2566 0.03076
C 34.2252 25.65493 -0.05239
C 1.08674 26.32281 -0.00598
C 1.20303 27.75174 -0.00439
C 34.42797 28.47475 -0.01037
C 0.0327 29.92265 0.01831
C 1.19713 30.67241 0.01027
C 1.20226 32.03775 -0.01404
C 34.26589 16.92889 0.00648
C 30.69754 9.22018 0.00716
C 30.70523 10.63254 0.02108
C 30.51976 26.51847 0.0103
C 24.5447 29.65976 0.02611
C 25.79527 30.34312 -0.00621
C 25.82455 31.90283 0.00194
C 24.60016 32.56328 0.04185
C 22.14245 34.07306 0.02316
C 23.36134 0.7621 0.01257
C 23.38604 2.18869 0.00152
C 22.16995 2.82675 -0.00294
C 22.07803 4.19262 0.00826
C 23.31693 4.99952 0.00487
C 23.30325 6.48846 -0.00942
C 22.13113 7.27464 -0.02815
C 22.14538 8.64023 0.00622
C 23.28273 9.39147 -0.0032
C 24.57419 28.18849 0.02198
C 23.25167 27.67075 -0.00037
C 21.95764 29.70746 -0.00218
C 23.33682 30.33936 -0.00802
C 23.36695 31.82758 0.00195
C 22.13366 32.53834 0.00996
C 19.71595 34.02109 0.04306
C 20.96613 0.69363 0.00367
C 20.9427 2.08584 -0.01679
C 19.75237 2.8469 -0.01052
C 19.67583 4.20885 0.00684
C 20.89852 4.94964 -0.01154
C 20.85119 6.46494 -0.0264
C 19.58503 7.15156 -0.00938
C 19.61083 8.57742 -0.00229
C 20.84563 9.23495 -0.01199
C 22.10513 28.2851 -0.01654
C 25.87351 27.62616 0.01094
C 25.83365 9.29664 0.00235
C 24.50588 8.71773 0.01495
C 30.74396 27.84762 0.07705
C 29.55239 28.54337 0.01908
C 29.46499 29.96129 0.01518
C 30.74887 30.6853 -0.00971
C 30.7413 32.04501 -0.03735
C 29.48866 32.78955 -0.00944
C 26.96859 0.06169 -0.02155
C 28.20105 0.78186 -0.01461
C 28.21856 2.28953 -0.01303
C 26.96871 2.90345 -0.0405
C 26.97626 4.3473 0.01705
C 28.19378 5.02795 0.0101
C 28.23493 6.52279 -0.00669
C 27.09794 7.29079 0.03531
C 27.11437 8.78004 0.01836
C 28.40218 9.56337 -0.03039
C 29.12195 10.75114 -0.01415
C 24.5225 7.31068 0.01259
C 25.85096 6.53855 0.01799
C 25.72546 5.10289 0.01699
C 24.53779 4.35159 -0.00416
C 24.63083 2.90988 0.01177
C 25.81024 2.15654 0.04266
C 19.74855 11.35106 -0.00285
C 25.76006 0.6885 0.01324
C 27.00004 32.73152 0.00924
C 28.2282 32.0566 0.02326
C 28.25772 30.57233 0.00261
C 27.02803 29.76628 0.03265
C 27.1181 28.1615 -0.02049
C 28.40355 27.78925 -0.01854
C 24.57332 34.06307 0.0014
C 2.44911 32.71467 0.00165
