300
Graphene
C 34.33583 0.05812 0.01295
C 9.74673 0.16951 -0.00111
C 12.4026 32.87958 -0.03557
C 13.51072 31.95417 0.03754
C 13.53541 30.53608 0.01739
C 12.3547 29.91677 0.00755
C 12.32848 28.43718 -0.0054
C 9.50124 15.618 0.04892
C 13.53946 27.69173 0.00667
C 12.31618 25.53282 -0.017
C 12.43845 24.15364 0.00364
C 12.52747 0.1625 -0.00831
C 14.74628 32.56881 -0.02957
C 15.99258 31.94546 -0.04422
C 16.03905 30.51461 0.00654
C 13.4898 26.32778 0.00143
C 9.9349 16.83045 0.01452
C 9.87615 19.66687 -0.01581
C 9.92602 21.05629 0.02691
C 8.59098 14.67846 -0.05302
C 7.38284 2.50338 0.00213
C 8.43121 0.79116 -0.00066
C 7.28447 0.01104 -0.00289
C 9.89289 32.83275 0.00028
C 11.13938 32.14718 -0.02213
C 11.14585 30.71133 0.03698
C 9.93824 29.91532 -0.00109
C 9.90973 28.48958 -0.00491
C 11.11313 27.76687 0.03338
C 11.06667 26.3348 -0.0258
C 9.92637 25.56232 -0.0331
C 9.86883 24.15761 -0.00316
C 11.1848 23.51726 0.02188
C 10.78427 22.18854 -0.01979
C 14.7548 29.88591 -0.00703
C 14.75063 28.35892 -0.04076
C 15.9744 27.68795 -0.00652
C 16.04929 26.24627 0.0058
C 20.96908 26.24388 0.01852
C 20.61491 8.74863 -0.00381
C 20.83593 6.19213 0.03046
C 20.87482 4.94887 0.0296
C 19.55743 2.81282 0.03374
C 20.92572 2.11696 -0.02845
C 20.84624 0.75748 -0.03213
C 19.57283 0.05632 0.02239
C 22.11 32.72229 0.01153
C 23.28746 31.93908 0.02734
C 23.36309 30.44035 -0.0055
C 22.11828 29.79332 0.01515
C 22.15145 28.41684 -0.00225
C 23.35342 27.67338 0.00071
C 23.50582 26.09311 -0.01107
C 20.90201 27.74118 0.01126
C 7.36107 15.58002 -0.04147
C 19.63614 28.32311 -0.01185
C 20.8724 30.5347 -0.00478
C 14.91456 25.68704 -0.00865
C 15.78216 0.60423 0.00675
C 14.77937 34.07289 -0.00311
C 17.19797 32.64726 0.00742
C 18.40282 32.00358 -0.01594
C 18.45773 30.56444 0.0106
C 17.29199 29.78384 -0.01154
C 17.25391 28.41519 -0.01721
C 18.34221 27.55675 -0.02422
C 18.01003 26.13371 0.01277
C 18.53344 2.19529 0.00096
C 18.34806 0.79484 -0.01527
C 17.178 0.05236 0.01087
C 19.61806 32.70764 0.00199
C 20.91277 31.91036 0.01511
C 19.63377 29.76465 -0.01662
C 22.10903 25.55547 -0.01586
C 7.40176 16.9925 -0.02815
C 8.64719 19.14691 0.01443
C 3.67154 10.73457 0.03101
C 3.72796 9.3327 -0.01536
C 2.54644 8.59885 -0.02689
C 2.48276 7.21071 -0.01046
C 3.68104 6.39336 -0.00891
C 3.71098 4.93262 0.02819
C 2.40631 11.3614 -0.00428
C 2.44461 4.32122 0.00165
C 3.61305 2.15118 0.02894
C 3.63379 0.71598 -0.01789
C 2.43325 0.0623 0.00444
C 4.8866 32.57643 -0.00925
C 6.09684 32.02664 0.01877
C 6.10882 30.59798 0.01363
C 2.41055 2.89799 -0.02971
C 2.52781 12.72927 -0.02245
C 3.71431 13.42133 0.00985
C 3.72007 14.84129 -0.01275
C 3.69242 30.52544 0.02339
C 2.41118 29.898 0.01641
C 2.46222 28.38557 -0.00719
C 3.66418 27.68527 0.01364
C 3.61292 26.26705 -0.01062
C 2.40561 25.66184 -0.00033
C 2.45712 24.08418 0.03589
C 3.68212 23.44705 -0.02759
C 3.7179 21.9919 0.0402
C 2.45299 21.2823 0.00572
C 2.48835 19.8763 0.03592
C 3.68189 19.19564 0.00406
C 3.66937 17.71807 0.00943
C 2.45534 17.00296 0.02841
C 2.44575 15.59523 -0.01111
C 4.91122 29.81384 -0.02162
C 4.877 28.42266 0.00415
C 6.20868 27.72324 -0.0014
C 6.1473 26.25041 0.02162
C 6.03954 0.67135 -0.00368
C 4.89367 34.04173 -0.02696
C 7.3653 32.73914 -0.00114
C 8.65893 32.06375 0.00228
C 8.60072 30.57221 0.00798
C 7.43032 29.8549 0.00422
C 7.4401 28.43254 0.0351
C 8.6365 27.73265 -0.03113
C 8.63809 26.36115 0.02098
C 7.39015 25.6208 0.01848
C 7.39252 24.11583 -0.00619
C 8.59106 23.44919 -0.02162
C 8.72243 21.9945 0.00889
C 7.37319 21.28411 -0.00481
C 7.44752 19.91708 0.00979
C 6.04379 2.04804 -0.0108
C 8.54778 17.77349 0.03505
C 4.85311 2.834 -0.01957
C 4.76629 7.26593 0.01965
C 4.90699 25.63454 0.0076
C 4.92114 24.08082 0.01241
C 6.1634 23.42628 -0.01454
C 6.16684 22.02396 0.01945
C 4.93702 21.27938 0.01416
C 4.92205 19.84936 0.03542
C 6.15525 19.13719 0.02299
C 6.19704 17.75549 0.00244
C 4.95723 17.10916 -0.01717
C 4.90395 15.64665 0.05265
C 6.13001 14.94582 -0.01952
C 6.10067 13.61546 -0.02813
C 5.00704 12.72789 0.00374
C 4.87236 11.3866 0.00052
C 4.83592 8.43666 -0.03682
C 4.91425 4.21057 0.02058
C 23.26944 9.17792 -0.01971
C 22.01311 8.55642 -0.02118
C 22.02151 7.10667 0.00733
C 31.89655 21.34457 -0.02383
C 31.99363 19.96798 -0.01429
C 33.12902 19.18981 -0.0136
C 33.18986 17.74352 0.00594
C 31.95775 17.02135 -0.02474
C 31.87155 15.70992 0.00369
C 33.13555 22.11177 0.01574
C 33.12261 14.93634 0.00455
C 31.84183 12.82592 -0.01839
C 31.87412 11.43502 0.00137
C 33.12796 10.74716 0.00199
C 33.19552 9.26414 0.04381
C 31.91571 8.57991 0.02806
C 31.9256 7.12513 0.01504
C 33.16409 13.54568 -0.00644
C 33.11743 23.4727 0.01927
C 31.93676 24.17536 0.03794
C 31.9759 25.60353 -0.01779
C 29.46703 7.12119 0.01518
C 30.72884 6.37862 0.01908
C 30.74113 4.9818 0.07705
C 29.55192 4.35925 0.0103
C 29.50394 2.85117 0.02108
C 30.73463 2.16065 0.00716
C 30.70459 0.73225 0.00307
C 29.50142 34.05945 0.00346
C 32.03825 32.72796 0.01713
C 33.14314 31.94484 -0.01694
C 33.18465 30.58835 0.01428
C 31.92652 29.95271 -0.02142
C 31.97619 28.50146 0.0544
C 33.12572 27.75652 0.00026
C 33.20023 26.29619 0.00682
C 33.13748 6.52373 -0.00069
C 33.21372 5.03829 0.04926
C 32.006 4.35572 -0.03838
C 31.8888 2.89158 0.00349
C 34.37892 15.57636 0.02114
C 1.17768 14.94255 -0.02957
C 1.21723 13.51379 0.00343
C 34.42412 12.86921 -0.02656
C 34.36069 11.37388 -0.02442
C 1.19947 10.65883 -0.00027
C 1.25814 9.19874 -0.00583
C 0.03405 8.57191 -0.02302
C 34.39176 7.0824 -0.02849
C 1.24562 6.45219 0.02931
C 1.24043 5.01727 0.00628
C 34.40061 4.33607 -0.0345
C 34.35388 2.91367 -0.00931
C 1.14856 2.18479 -0.00939
C 1.14422 0.73151 -0.00468
C 34.42547 17.01456 0.00648
C 29.43646 8.60478 -0.00971
C 1.29132 17.79767 0.01223
C 34.35973 19.90449 0.01951
C 33.14197 2.1564 -0.00323
C 33.10183 0.77674 -0.00841
C 31.93119 0.04522 0.0001
C 34.38343 32.71034 -0.02927
C 1.17171 31.99972 -0.01404
C 1.19476 30.57082 0.01027
C 0.00931 29.87641 0.01831
C 34.37924 28.48123 -0.01037
C 1.19961 27.76796 -0.00439
C 1.20815 26.36834 -0.00598
C 0.03428 25.57586 -0.05239
C 34.37478 24.18037 0.03076
C 1.19902 23.38751 0.00723
C 1.16799 22.01387 0.02712
C 34.37471 21.35213 -0.02213
C 1.1585 19.19285 -0.01678
C 30.70425 9.26186 -0.03735
C 30.65883 10.67877 -0.00944
C 29.37455 11.41157 -0.02155
C 25.81947 6.38038 0.00684
C 25.82522 4.91079 -0.01052
C 24.57677 4.21462 -0.01679
C 24.5728 2.86616 0.00367
C 25.81795 2.12368 0.04306
C 25.86415 0.63396 0.00996
C 24.58083 34.07273 0.00195
C 27.00527 32.63714 -0.00802
C 28.17858 31.93966 -0.00218
C 28.20009 30.54364 -0.01654
C 27.03084 29.83228 -0.00037
C 27.01525 28.44176 -0.0032
C 28.23169 27.78363 0.00622
C 28.24385 26.34621 -0.02815
C 27.0745 25.70311 -0.00942
C 24.51584 6.99003 -0.01154
C 27.03162 24.30586 0.00487
C 24.49418 8.35989 -0.0264
C 25.59714 10.60183 -0.00229
C 23.33771 6.33615 -0.00178
C 23.32414 4.93791 0.00768
C 22.17344 4.20662 -0.0276
C 22.17565 2.78123 0.03005
C 23.3665 2.167 -0.04078
C 23.34201 0.66318 0.02117
C 22.05952 0.10152 0.02737
C 24.46893 32.63745 -0.00498
C 25.79234 31.92785 0.00135
C 25.76769 30.4712 0.03102
C 24.59595 29.77511 0.02555
C 24.51705 28.34474 0.01423
C 25.75253 27.82173 -0.00285
C 25.88482 26.37083 -0.009
C 24.80303 25.45573 -0.01199
C 25.6998 9.19051 -0.00938
C 3.60595 31.90067 -0.00334
C 28.16191 23.43701 0.00826
C 28.16685 15.04014 0.00152
C 30.72916 27.75871 0.02326
C 30.77825 26.32941 0.00261
C 29.51485 25.60684 0.03265
C 29.42213 24.21665 -0.02049
C 30.58263 23.47545 -0.01854
C 30.67571 22.0221 -0.01415
C 29.40622 21.30749 -0.03039
C 29.48531 19.7743 0.01836
C 30.76 19.19994 0.03531
C 30.75126 17.80786 -0.00669
C 29.57189 17.13855 0.0101
C 29.43335 15.72282 0.01705
C 30.64842 14.97987 -0.0405
C 30.58374 13.5795 -0.01303
C 29.40402 12.82864 -0.01461
C 29.4549 28.43357 0.00924
C 28.25479 21.98037 -0.00294
C 29.40181 29.83672 0.0014
C 30.70321 32.05153 0.04266
C 28.22109 13.63827 0.01257
C 27.07955 12.81119 0.02316
C 26.77735 11.32112 0.04185
C 28.13138 10.66398 0.00194
C 28.21552 9.25165 -0.00621
C 26.97477 8.51579 0.02611
C 26.97818 7.15834 0.02198
C 28.26236 6.37556 0.01094
C 28.24069 4.98375 0.00235
C 27.03573 4.28019 0.01495
C 26.9993 2.83834 0.01259
C 28.28791 2.10403 0.01799
C 28.30329 0.66332 0.01699
C 27.01508 34.03112 -0.00416
C 29.49781 32.63426 0.01177
C 30.69488 30.60953 0.01324
C 2.41838 32.72888 -0.01634
