351
Graphene
C 0.03651 34.01849 0.01295
C 17.21983 21.31061 0.00228
C 17.15992 19.9136 0.00798
C 18.4061 19.16273 0.00422
C 18.37382 17.75289 0.0351
C 17.12286 17.08823 -0.03113
C 17.2125 15.65401 0.02098
C 18.45086 14.90046 0.01848
C 18.29058 13.45958 -0.00619
C 18.42214 22.05831 -0.00114
C 18.45423 6.3972 -0.02162
C 17.32126 4.25866 -0.00481
C 17.14942 2.9348 0.00979
C 18.40828 2.08712 0.01443
C 18.42451 0.79249 0.03505
C 17.27645 34.05837 -0.02815
C 19.58256 32.61906 -0.04147
C 20.89549 31.91511 -0.05302
C 20.89581 30.49917 0.00213
C 18.55349 5.01196 0.00889
C 19.62888 29.85072 -0.00066
C 18.40153 23.48486 -0.02696
C 17.23395 25.58732 -0.0108
C 15.94478 21.96096 0.0076
C 14.7022 21.19863 0.01241
C 14.60974 19.83112 -0.01454
C 15.90062 19.21659 0.01945
C 15.9512 17.80493 0.01416
C 14.72418 17.12158 0.03542
C 14.78741 15.7635 0.02299
C 15.99769 15.09964 0.00244
C 17.21465 24.16747 -0.00368
C 15.8425 2.08092 -0.01717
C 14.84068 0.03605 -0.01952
C 17.17614 32.64128 -0.02813
C 18.36553 31.89356 0.00374
C 18.42202 30.5037 0.00052
C 17.18178 29.85859 -0.03682
C 17.13756 28.40557 0.01965
C 18.42324 27.70992 0.02058
C 18.44656 26.19179 -0.01957
C 16.06848 0.72683 0.05265
C 15.96947 23.39221 0.02162
C 19.56218 28.42664 -0.00289
C 20.82412 26.20864 -0.02213
C 20.98158 2.03018 0.00364
C 20.87938 0.65787 -0.00831
C 19.63691 0.0501 -0.02957
C 22.16073 32.56016 -0.04422
C 23.34344 31.86519 0.00654
C 23.35107 30.50482 -0.00703
C 22.07104 29.7491 -0.04076
C 22.0791 28.32428 -0.00652
C 19.69051 2.83952 -0.017
C 23.3923 27.55674 0.0058
C 22.11259 25.56076 0.00675
C 22.13188 24.08563 -0.00311
C 23.37286 23.45997 0.00742
C 23.30817 22.02192 -0.01594
C 22.12327 21.30198 0.0106
C 22.12393 19.86578 -0.01154
C 23.4047 19.20242 -0.01721
C 23.30128 17.79749 -0.02422
C 23.3335 26.18018 -0.00865
C 20.77513 27.65197 0.00028
C 19.75112 4.27779 0.00143
C 20.87023 6.46168 -0.0054
C 19.66927 25.49426 0.03698
C 19.6618 24.1149 -0.00109
C 20.95151 23.39543 -0.00491
C 20.92095 21.95677 0.03338
C 19.56157 21.3658 -0.0258
C 19.62315 19.96366 -0.0331
C 20.92054 19.16556 -0.00316
C 20.89139 17.74764 0.02188
C 20.89372 5.01099 0.00667
C 19.62641 17.02896 -0.01979
C 20.82928 14.88099 -0.01581
C 20.7216 13.4204 0.01452
C 19.46152 12.66802 0.04892
C 19.6801 11.24219 -0.00111
C 20.95375 10.66068 -0.03557
C 20.92293 9.26961 0.03754
C 19.68629 8.75091 0.01739
C 19.6582 7.2453 0.00755
C 19.68438 15.58411 0.02691
C 22.09491 16.99795 0.01277
C 14.67984 24.1893 -0.0014
C 15.90063 26.28162 -0.02162
C 4.86137 32.67436 0.01572
C 6.11289 31.97811 -0.04848
C 6.07193 30.55047 -0.00892
C 4.92754 29.83179 -0.01362
C 4.99616 28.32908 -0.0008
C 6.16069 27.62375 0.0288
C 4.80211 15.43114 0.00393
C 6.14215 15.39795 0.00895
C 2.45027 34.04488 -0.00095
C 4.80624 12.72914 0.00685
C 6.13369 2.3004 -0.00482
C 6.08963 0.80435 -0.01384
C 4.87224 0.05728 0.03693
C 7.2992 32.71652 0.01745
C 8.60741 31.98761 0.00488
C 8.62572 30.54812 -0.01004
C 7.35274 29.83898 -0.02896
C 7.33721 28.34453 -0.00131
C 4.93488 2.82273 0.02888
C 8.60501 27.706 -0.01118
C 3.63291 0.75072 0.03007
C 2.42306 2.82529 -0.00494
C 3.68798 30.53242 0.01305
C 2.5267 29.74006 -0.00077
C 2.50269 28.30972 0.03368
C 3.71787 27.61578 -0.02929
C 3.62009 26.17866 -0.00966
C 2.33259 25.61788 -0.03337
C 2.31833 17.06741 0.01227
C 2.20539 15.71281 0.00873
C 3.63895 2.15483 0.00054
C 3.52256 14.86055 -0.00049
C 2.43285 12.8189 -0.01303
C 2.46119 11.38231 -0.01378
C 3.74347 10.74899 0.02635
C 3.59477 9.34381 0.0127
C 2.76911 8.34603 0.01396
C 2.70034 6.69491 0.01849
C 3.59864 5.25324 -0.01142
C 2.48056 4.31234 -0.00562
C 3.70095 13.50011 0.00848
C 14.72729 25.57263 0.00415
C 8.77739 26.23336 -0.014
C 8.48234 2.18378 0.00373
C 13.57051 26.39091 -0.01275
C 12.34509 25.63062 0.00985
C 12.09457 24.17398 -0.02245
C 13.50191 23.44355 -0.00428
C 13.43748 21.99269 0.03101
C 12.10799 21.49207 -0.01536
C 11.9087 20.06704 -0.02689
C 13.29118 19.2889 -0.01046
C 13.53405 27.81221 -0.01111
C 13.47853 17.94045 -0.00891
C 13.6267 0.78695 0.00165
C 12.22307 0.25674 -0.02971
C 14.7002 32.70052 0.02894
C 15.92816 32.027 -0.01789
C 15.99848 30.62399 0.00444
C 14.73888 29.96467 -0.00925
C 14.75625 28.49536 0.01877
C 15.94057 27.6882 0.01363
C 12.30159 17.12303 0.02819
C 7.59697 15.19639 0.02147
C 12.33867 28.46522 0.02841
C 13.49797 30.64996 0.00406
C 8.45898 0.85051 -0.00191
C 7.26586 0.00899 0.00438
C 9.87915 32.75411 0.01291
C 11.08121 32.11351 0.00093
C 11.09379 30.62813 0.00057
C 9.8638 29.89484 -0.01634
C 9.7823 28.49184 -0.00334
C 11.08436 27.74053 0.02339
C 12.30245 29.92202 0.00943
C 11.15676 26.30817 0.01641
C 10.92714 23.4527 0.01364
C 10.93347 18.98579 -0.01062
C 11.05444 17.46245 -0.00033
C 9.80749 18.64421 0.03589
C 10.94883 0.77346 -0.02759
C 9.72722 0.13629 0.0402
C 12.28287 32.88553 0.00572
C 13.50355 32.10308 0.03592
C 9.91634 25.54562 -0.00719
C 3.68007 31.93213 0.0276
C 22.15572 15.55515 0.00096
C 23.28372 13.48968 0.01087
C 33.11149 31.8698 -0.01694
C 33.18938 30.51064 0.01428
C 31.9567 29.83321 -0.02142
C 31.9383 28.47392 0.0544
C 33.16784 27.67612 0.00026
C 33.13217 26.33618 0.00682
C 31.94403 25.6778 -0.01779
C 31.92275 24.18214 0.03794
C 31.97025 32.67565 0.01713
C 33.14394 23.45167 0.01927
C 31.96121 21.39402 -0.02383
C 31.91167 19.98786 -0.01429
C 33.07363 19.20428 -0.0136
C 33.25787 17.76395 0.00594
C 31.96524 17.04366 -0.02474
C 31.93731 15.68582 0.00369
C 33.08432 14.92901 0.00455
C 33.17464 13.52894 -0.00644
C 33.17673 22.02333 0.01574
C 31.98516 12.73352 -0.01839
C 29.51218 34.02303 0.00346
C 30.73104 2.11388 0.00716
C 29.48317 21.39421 -0.03039
C 29.51514 19.95576 0.01836
C 30.78141 19.2759 0.03531
C 30.71241 17.83221 -0.00669
C 29.4428 17.10828 0.0101
C 29.45498 15.68515 0.01705
C 30.64732 14.9147 -0.0405
C 30.68972 13.4657 -0.01303
C 30.7033 0.72453 0.00307
C 29.4451 12.70655 -0.01461
C 30.8034 10.59278 -0.00944
C 30.82365 9.13553 -0.03735
C 29.57651 8.5147 -0.00971
C 29.50438 7.08697 0.01518
C 30.76793 6.29328 0.01908
C 30.78091 4.88476 0.07705
C 29.56426 4.22899 0.0103
C 29.47842 2.80019 0.02108
C 29.50444 11.31023 -0.02155
C 30.76134 22.05371 -0.01415
C 32.01533 11.37094 0.00137
C 33.35712 9.208 0.04381
C 1.0223 19.29012 -0.01678
C 1.19725 17.8922 0.01223
C 34.42416 17.07983 0.00648
C 34.33961 15.64146 0.02114
C 1.06744 14.90372 -0.02957
C 1.22516 13.47915 0.00343
C 0.03078 12.73996 -0.02656
C 0.01124 11.32038 -0.02442
C 34.27162 19.92772 0.01951
C 1.25505 10.5904 -0.00027
C 0.19112 8.5106 -0.02302
C 0.11792 7.08903 -0.02849
C 1.37779 6.38917 0.02931
C 1.19306 4.95484 0.00628
C 34.41318 4.28917 -0.0345
C 0.08169 2.84179 -0.00931
C 1.22271 2.1029 -0.00939
C 1.27523 0.69246 -0.00468
C 1.45756 9.17509 -0.00583
C 33.20943 10.62221 0.00199
C 34.4178 21.37557 -0.02213
C 1.17137 23.49759 0.00723
C 32.06006 8.53015 0.02806
C 31.95867 7.06655 0.01504
C 33.18964 6.43706 -0.00069
C 33.2149 4.99717 0.04926
C 32.03563 4.20928 -0.03838
C 31.97158 2.7784 0.00349
C 33.25813 2.11913 -0.00323
C 33.28492 0.71261 -0.00841
C 1.0435 22.16392 0.02712
C 32.00551 34.01884 0.0001
C 1.18346 31.91952 -0.01404
C 1.29923 30.51793 0.01027
C 0.00706 29.81175 0.01831
C 34.42782 28.38772 -0.01037
C 1.18461 27.72021 -0.00439
C 1.19994 26.28242 -0.00598
C 34.31992 25.59899 -0.05239
C 34.33679 24.20019 0.03076
C 34.39377 32.61018 -0.02927
C 23.32982 14.86774 -0.01527
C 30.73327 23.51921 -0.01854
C 29.51875 25.56684 0.03265
C 25.80574 23.45256 -0.01971
C 25.73969 22.03541 -0.02118
C 24.56812 21.22947 0.00733
C 24.64342 19.86713 -0.00178
C 25.86744 19.22466 0.00768
C 25.81772 17.79145 -0.0276
C 24.51195 17.06191 0.03005
C 24.55058 15.6032 -0.04078
C 24.57061 24.13637 -0.01586
C 25.7437 14.92455 0.02117
C 24.54557 12.7845 -0.00498
C 24.61973 11.36162 0.00135
C 25.82213 10.58567 0.03102
C 25.81107 9.21821 0.02555
C 24.57544 8.48239 0.01423
C 24.60693 7.03993 -0.00285
C 25.85767 6.26627 -0.009
C 25.93321 4.90294 -0.01199
C 25.77613 13.51051 0.02737
C 24.65336 4.21434 -0.00229
C 24.57574 25.54713 -0.01107
C 25.78832 27.72241 -0.00225
C 22.01515 12.7919 0.00199
C 22.17508 11.37958 0.01511
C 23.40764 10.607 -0.00478
C 23.36812 9.21579 -0.01662
C 22.1707 8.47259 -0.01185
C 22.06707 7.11172 0.01126
C 23.36583 6.37818 0.01852
C 23.40017 4.99973 -0.00381
C 25.78881 26.22078 0.00071
C 22.16239 4.30159 0.03046
C 23.37282 2.05332 0.03374
C 23.29706 0.66498 -0.02845
C 22.13484 34.00453 -0.03213
C 24.55482 32.58204 0.02239
C 25.79816 31.92064 0.01153
C 25.72518 30.53727 0.02734
C 24.54328 29.77923 -0.0055
C 24.49908 28.4235 0.01515
C 22.17296 2.83096 0.0296
C 29.49601 24.22587 -0.02049
C 24.58932 2.81778 -0.00938
C 25.76258 0.61255 -0.01154
C 28.26147 10.62539 0.00194
C 28.2533 9.2011 -0.00621
C 27.02644 8.45899 0.02611
C 27.07839 7.06358 0.02198
C 28.29624 6.40396 0.01094
C 28.27298 4.91691 0.00235
C 27.10601 4.16321 0.01495
C 27.10168 2.73484 0.01259
C 27.01133 11.37105 0.04185
C 28.33399 2.09858 0.01799
C 27.04584 34.00991 -0.00416
C 29.4741 32.61067 0.01177
C 30.67932 31.9745 0.04266
C 30.70655 30.57813 0.01324
C 29.38696 29.84527 0.0014
C 29.37034 28.45677 0.00924
C 30.64743 27.77392 0.02326
C 30.65126 26.3282 0.00261
C 28.28928 0.69142 0.01699
C 25.80365 2.04029 -0.0264
C 26.99518 12.83178 0.02316
C 28.19605 14.94735 0.00152
C 24.5325 34.07963 0.00684
C 27.10576 32.64225 -0.01052
C 28.26226 31.89734 -0.01679
C 28.17885 30.54515 0.00367
C 26.93508 29.77708 0.04306
C 26.97426 28.41486 0.00996
C 28.16531 27.70584 0.00195
C 28.25335 26.25573 -0.00802
C 28.21112 13.43415 0.01257
C 27.05078 25.55531 -0.00218
C 28.2845 23.48872 -0.00037
C 28.2619 22.07164 -0.0032
C 26.99327 21.35168 0.00622
C 27.10602 19.93268 -0.02815
C 28.24099 19.16214 -0.00942
C 28.2748 17.77173 0.00487
C 26.93841 17.0174 0.00826
C 27.01026 15.57561 -0.00294
C 27.09297 24.14934 -0.01654
C 2.44821 32.6299 0.00988
