370
Graphene
C 0.02389 0.04924 0.01295
C 10.95331 6.43267 0.05265
C 11.02669 5.03008 -0.01952
C 9.82307 4.28283 -0.02813
C 9.80719 2.85358 0.00374
C 11.07298 2.15661 0.00052
C 11.00602 0.73867 -0.03682
C 9.79539 0.03609 0.01965
C 12.24293 32.67765 0.02058
C 13.5274 31.93426 -0.01957
C 13.53701 30.56936 -0.0108
C 12.27523 29.84106 -0.00368
C 12.22143 28.21282 -0.02696
C 13.52526 17.63581 -0.00114
C 12.2678 16.9727 0.00228
C 12.23557 15.62693 0.00798
C 13.56362 14.84353 0.00422
C 13.51563 13.43214 0.0351
C 12.31037 12.77799 -0.03113
C 12.25602 11.3504 0.02098
C 9.71767 7.13448 -0.01717
C 13.50255 10.63669 0.01848
C 9.75839 8.5287 0.00244
C 11.0443 10.60436 0.03542
C 7.37478 0.01742 -0.00891
C 9.86338 32.73244 0.02819
C 11.09719 31.91747 0.00165
C 11.06692 30.51753 -0.02971
C 9.82214 29.87004 0.02894
C 9.7699 28.47778 -0.01789
C 11.03634 27.71576 0.00444
C 9.8734 25.7266 -0.00925
C 9.84426 24.40546 0.01877
C 9.80066 21.35243 0.01363
C 9.95743 20.03793 -0.02162
C 11.14084 19.09821 0.00415
C 11.00369 17.74334 -0.0014
C 9.74666 17.09843 0.02162
C 9.86662 15.65855 0.0076
C 11.01015 14.87084 0.01241
C 11.02068 13.48168 -0.01454
C 9.81297 12.78102 0.01945
C 9.79456 11.31346 0.01416
C 10.99364 9.19736 0.02299
C 8.63469 0.80083 -0.01046
C 13.50429 9.21616 -0.00619
C 12.19317 7.11794 0.00889
C 14.75583 4.30172 0.01452
C 14.68159 2.82934 0.04892
C 15.94135 2.05057 -0.00111
C 15.99445 0.68794 -0.03557
C 14.75633 0.00228 0.03754
C 17.14483 32.57493 0.01739
C 18.3813 31.84101 0.00755
C 18.3744 30.39069 -0.0054
C 17.23716 29.64618 0.00667
C 18.19224 18.00985 0.00143
C 18.17545 16.68854 -0.017
C 16.98219 15.86981 0.00364
C 17.17688 12.73194 -0.00831
C 17.34425 11.36074 -0.02957
C 18.39059 10.50653 -0.04422
C 18.64788 9.19104 0.00654
C 17.3249 8.50079 -0.00703
C 17.25127 7.08496 -0.04076
C 18.40326 6.27109 -0.00652
C 15.97524 4.95052 -0.01581
C 12.27403 8.48564 -0.02162
C 15.9958 6.33318 0.02691
C 14.80097 8.59616 0.02188
C 13.48237 6.46605 -0.00481
C 13.51882 5.06292 0.00979
C 12.25427 4.24458 0.01443
C 12.27181 2.87233 0.03505
C 13.48133 2.10129 -0.02815
C 13.52557 0.67961 -0.04147
C 12.24584 0.00777 -0.05302
C 14.81042 32.6044 0.00213
C 15.97364 31.80037 -0.00066
C 15.91287 30.34554 -0.00289
C 14.59959 29.71181 0.00028
C 14.61708 16.82143 -0.02213
C 14.73717 15.53132 0.03698
C 15.97592 14.87952 -0.00109
C 15.99425 13.34792 -0.00491
C 14.73024 12.69216 0.03338
C 14.70502 11.3489 -0.0258
C 16.04035 10.7148 -0.0331
C 16.06472 9.26297 -0.00316
C 14.71309 7.15049 -0.01979
C 8.60107 2.22222 -0.02689
C 7.33482 2.87445 -0.01536
C 7.38711 4.30989 0.03101
C 3.64875 6.42564 -0.00966
C 3.64788 5.09744 -0.03337
C 2.44268 4.34058 0.01227
C 2.39997 2.87178 0.00873
C 3.63522 2.17933 -0.00049
C 3.6148 0.81529 0.00848
C 2.35479 0.00142 -0.01303
C 4.87883 32.69862 -0.01378
C 6.08882 32.0162 0.02635
C 6.10539 30.60123 0.0127
C 4.90288 29.91017 0.01396
C 4.90635 28.41904 0.01849
C 6.16613 27.74054 -0.01142
C 6.22648 26.30968 -0.00562
C 4.92726 25.63288 -0.00494
C 4.95309 24.16724 0.00054
C 6.2033 23.51207 0.03007
C 6.16452 22.06791 -0.00095
C 4.94095 21.39673 0.01572
C 2.40977 7.19842 -0.02929
C 4.97183 19.93483 -0.04848
C 2.50336 8.61558 0.03368
C 3.61725 10.75659 0.01305
C 3.71246 30.57082 -0.00279
C 2.36933 29.91065 0.01996
C 2.37888 28.48575 -0.03996
C 3.61583 27.7883 0.01465
C 3.64728 26.39127 -0.00074
C 2.47497 25.63526 -0.00518
C 2.44864 24.18046 0.0086
C 3.69862 23.48369 -0.00643
C 3.72913 22.08525 0.017
C 2.45769 21.40114 -0.03113
C 2.44203 19.95022 -0.02566
C 3.64272 19.20746 -0.00094
C 3.72256 17.84759 0.02322
C 2.4669 17.11307 -0.00725
C 2.42444 15.62685 -0.05697
C 3.70982 15.00314 0.01087
C 3.65326 13.59582 -0.01343
C 2.38314 12.90373 0.00988
C 2.38344 11.43047 0.0276
C 3.71113 9.33936 -0.00077
C 6.20787 19.2403 -0.00892
C 6.19001 17.78375 -0.01362
C 4.91312 17.09655 -0.0008
C 7.40769 24.28964 0.02339
C 8.64309 23.56513 0.01641
C 8.63107 22.05265 -0.00719
C 7.4384 21.3183 0.01364
C 7.49879 19.91411 -0.01062
C 8.69656 19.23416 -0.00033
C 8.581 17.80875 0.03589
C 7.40128 17.08132 -0.02759
C 7.34187 15.68603 0.0402
C 8.57147 14.99248 0.00572
C 8.60204 13.53802 0.03592
C 7.35314 12.83776 0.00406
C 7.38229 11.42517 0.00943
C 8.52877 10.66216 0.02841
C 8.54406 9.29868 -0.01111
C 7.27574 8.49537 -0.01275
C 7.30403 7.07899 0.00985
C 8.53152 6.47418 -0.02245
C 8.64298 5.05584 -0.00428
C 7.45832 25.70533 -0.00334
C 8.68517 26.41852 -0.01634
C 8.58877 27.81231 0.00057
C 7.39347 28.4979 0.00093
C 4.97054 15.73983 0.0288
C 6.12854 14.97197 0.00393
C 6.10997 13.53802 0.00895
C 4.87753 12.79196 0.00685
C 4.85079 11.4033 0.02888
C 6.11591 10.67859 -0.00482
C 6.08081 9.29747 -0.01384
C 4.85251 8.5603 0.03693
C 4.87405 7.132 0.01745
C 18.42334 4.88333 0.0058
C 6.12429 6.40335 0.00488
C 4.88693 4.35212 -0.02896
C 4.89031 2.89459 -0.00131
C 6.1018 2.16632 -0.01118
C 6.13934 0.71728 -0.014
C 4.8626 0.06408 0.02147
C 7.37285 32.65639 0.00373
C 8.6586 31.96032 -0.00191
C 8.62371 30.55312 0.00438
C 7.4521 29.87308 0.01291
C 6.13122 5.0402 -0.01004
C 17.23337 4.1936 -0.00865
C 17.20012 2.79895 0.00675
C 18.41482 2.10905 -0.00311
C 30.7888 2.26687 0.00716
C 30.76645 0.76082 0.00307
C 29.75113 33.89512 0.00346
C 31.92826 32.73832 0.01713
C 33.14553 32.02677 -0.01694
C 33.10488 30.61645 0.01428
C 31.86403 29.97348 -0.02142
C 31.95419 28.55487 0.0544
C 33.14545 27.7779 0.00026
C 33.15876 26.37668 0.00682
C 31.90111 25.62025 -0.01779
C 32.00566 24.15858 0.03794
C 33.2108 23.47681 0.01927
C 33.20622 22.0593 0.01574
C 31.9641 21.29461 -0.02383
C 31.90574 19.82138 -0.01429
C 33.17888 19.18459 -0.0136
C 33.11209 17.74534 0.00594
C 31.84208 17.01199 -0.02474
C 29.54636 2.80636 0.02108
C 31.98872 15.6745 0.00369
C 29.50325 4.28894 0.0103
C 30.69915 6.44951 0.01908
C 30.66008 26.32779 0.00261
C 29.44158 25.57501 0.03265
C 29.4644 24.11256 -0.02049
C 30.75365 23.43384 -0.01854
C 30.76462 22.05397 -0.01415
C 29.40551 21.38849 -0.03039
C 29.53962 19.88198 0.01836
C 30.6903 19.08517 0.03531
C 30.58439 17.7062 -0.00669
C 29.31322 16.9117 0.0101
C 29.49612 15.45243 0.01705
C 30.7907 14.90694 -0.0405
C 30.75281 13.51462 -0.01303
C 29.47949 12.94178 -0.01461
C 29.33458 11.49531 -0.02155
C 30.68816 10.75926 -0.00944
C 30.5862 9.29235 -0.03735
C 29.37162 8.6339 -0.00971
C 29.45902 7.13476 0.01518
C 30.72169 5.02389 0.07705
C 33.20422 14.88774 0.00455
C 33.21065 13.45443 -0.00644
C 31.99735 12.7735 -0.01839
C 34.4136 19.94785 0.01951
C 1.16898 19.20412 -0.01678
C 1.25327 17.77289 0.01223
C 34.35915 17.03548 0.00648
C 34.35856 15.6219 0.02114
C 1.12385 14.934 -0.02957
C 1.10392 13.50506 0.00343
C 34.39435 12.80027 -0.02656
C 0.00139 11.33467 -0.02442
C 1.1993 10.69481 -0.00027
C 1.19973 9.25329 -0.00583
C 34.39173 8.5467 -0.02302
C 34.38226 7.13566 -0.02849
C 1.24571 6.48261 0.02931
C 1.26481 5.04509 0.00628
C 0.06239 4.33735 -0.0345
C 34.42869 2.94982 -0.00931
C 1.1878 2.19643 -0.00939
C 1.17615 0.75266 -0.00468
C 34.40152 21.34794 -0.02213
C 1.24777 22.04189 0.02712
C 1.23444 23.4491 0.00723
C 34.39177 24.21766 0.03076
C 31.92275 11.39039 0.00137
C 33.17409 10.69814 0.00199
C 33.14845 9.2388 0.04381
C 31.89484 8.58738 0.02806
C 31.95428 7.14778 0.01504
C 33.14316 6.40353 -0.00069
C 33.27764 4.97413 0.04926
C 31.98915 4.31598 -0.03838
C 31.98225 2.90346 0.00349
C 30.67445 27.84702 0.02326
C 33.1897 2.20016 -0.00323
C 32.05498 0.01546 0.0001
C 0.00633 32.74433 -0.02927
C 1.16367 31.94301 -0.01404
C 1.11591 30.57235 0.01027
C 34.37724 29.87747 0.01831
C 34.35307 28.39586 -0.01037
C 1.15447 27.71908 -0.00439
C 1.26971 26.31065 -0.00598
C 34.42696 25.62959 -0.05239
C 33.24236 0.77237 -0.00841
C 3.63435 32.01608 0.01226
C 29.41136 28.52171 0.00924
C 30.52456 30.87785 0.01324
C 23.3645 27.71859 0.02239
C 23.35425 26.31138 0.01153
C 22.15262 25.57191 0.02734
C 22.00198 24.27019 -0.0055
C 23.19977 23.45803 0.01515
C 23.32291 21.96868 -0.00225
C 22.10819 21.00717 0.00071
C 21.41583 19.82435 -0.01107
C 22.0383 8.33078 -0.01586
C 22.02905 6.96058 -0.01971
C 23.26924 6.22364 -0.02118
C 23.36885 4.82235 0.00733
C 22.12305 4.14723 -0.00178
C 22.12796 2.73493 0.00768
C 23.39565 2.07732 -0.0276
C 23.37535 0.6011 0.03005
C 22.11175 33.94915 -0.04078
C 24.61987 32.59463 0.02117
C 25.78962 31.82038 0.02737
C 22.07399 28.33397 -0.03213
C 25.61447 30.3841 -0.00498
C 22.08584 29.72466 -0.02845
C 23.31523 31.90547 0.0296
C 18.39923 0.6687 0.00742
C 17.18001 34.06555 -0.01594
C 19.57409 32.5881 0.0106
C 20.87173 31.83107 -0.01154
C 20.88677 30.43326 -0.01721
C 19.68773 29.73386 -0.02422
C 19.78829 28.34223 0.01277
C 20.8752 27.66675 0.00096
C 21.31562 18.54282 -0.01527
C 19.97453 8.33619 0.01087
C 19.65608 7.00144 0.00199
C 20.86795 6.22064 0.01511
C 20.90286 4.85281 -0.00478
C 19.66 4.14803 -0.01662
C 19.60895 2.75546 -0.01185
C 20.87948 2.02508 0.01126
C 20.90187 0.62526 0.01852
C 19.61094 34.01127 -0.00381
C 22.0534 32.5392 0.03046
C 23.33891 30.46607 0.03374
C 24.53467 29.71024 0.00135
C 24.53046 28.39179 0.03102
C 25.69871 27.61826 0.02555
C 26.96545 24.12741 0.00826
C 28.20694 23.38533 -0.00294
C 28.19646 22.04494 0.00152
C 26.9813 21.24243 0.01257
C 27.16736 19.85913 0.02316
C 28.3398 19.12241 0.04185
C 28.246 17.75464 0.00194
C 28.1677 10.72374 -0.00621
C 28.04813 9.28382 0.02611
C 26.75023 8.44288 0.02198
C 26.94306 7.11849 0.01094
C 28.19471 6.43853 0.00235
C 28.24055 5.04444 0.01495
C 27.04754 4.18798 0.01259
C 27.12189 2.78583 0.01799
C 28.36873 1.96183 0.01699
C 28.392 0.49243 -0.00416
C 27.1923 33.79631 0.01177
C 30.55125 32.3848 0.04266
C 27.01121 25.54682 0.00487
C 28.25343 26.34914 -0.00942
C 28.20198 27.79469 -0.02815
C 26.95577 28.43257 0.00622
C 25.75588 26.20079 0.01423
C 24.58056 25.51233 -0.00285
C 24.51479 24.08404 -0.009
C 25.64656 23.39324 -0.01199
C 25.77485 21.97507 -0.00229
C 24.54749 21.31777 -0.00938
C 24.70665 19.86405 -0.0264
C 25.80124 19.28499 -0.01154
C 24.029 8.55877 0.00684
C 29.2878 30.11433 0.0014
C 24.4064 7.25451 -0.01052
C 25.82976 4.92774 0.00367
C 24.59567 4.17782 0.04306
C 24.71759 2.74932 0.00996
C 25.92933 1.97113 0.00195
C 25.96095 0.54313 -0.00802
C 24.6885 33.98837 -0.00218
C 27.13046 32.28649 -0.01654
C 27.98002 30.8392 -0.00037
C 26.95493 29.84741 -0.0032
C 25.71573 6.37753 -0.01679
C 2.39532 32.68982 0.03828
