369
Graphene
C 34.41266 0.00927 0.01295
C 13.57185 10.64467 -0.01952
C 13.50865 9.26093 -0.02813
C 12.27085 8.54992 0.00374
C 12.34607 7.09674 0.00052
C 13.55506 6.41648 -0.03682
C 13.56001 4.99894 0.01965
C 12.27029 4.24507 0.02058
C 12.24627 2.79285 -0.01957
C 13.47808 2.01911 -0.0108
C 13.56496 0.64021 -0.00368
C 12.36504 0.01577 -0.02696
C 14.84257 32.60816 -0.00114
C 16.08772 31.91458 0.00228
C 15.99659 30.5383 0.00798
C 14.77181 29.84105 0.00422
C 14.73087 28.37586 0.0351
C 15.9521 27.60163 -0.03113
C 15.9261 26.1636 0.02098
C 14.81629 25.42411 0.01848
C 12.29432 11.33869 0.05265
C 15.8256 13.49025 -0.00619
C 12.24801 12.70941 -0.01717
C 13.48754 26.21056 0.02299
C 9.81841 12.89854 0.02819
C 9.87615 11.43889 0.00165
C 11.08055 10.67635 -0.02971
C 11.09119 9.2691 0.02894
C 9.8667 8.54573 -0.01789
C 9.84079 7.14395 0.00444
C 11.09519 6.39726 -0.00925
C 11.11219 4.99477 0.01877
C 9.87492 4.33386 0.01363
C 9.7688 2.90308 -0.02162
C 11.0218 2.16346 0.00415
C 11.09799 0.64819 -0.0014
C 9.83965 34.06175 0.02162
C 12.3751 32.69783 0.0076
C 13.62387 31.90349 0.01241
C 13.46608 30.51916 -0.01454
C 12.24857 29.84398 0.01945
C 12.26487 28.36889 0.01416
C 13.47414 27.68457 0.03542
C 12.28766 25.59789 0.00244
C 11.28314 13.41496 -0.00891
C 14.84465 12.85329 -0.02162
C 15.99252 10.69544 -0.00481
C 17.15966 11.47076 0.04892
C 18.39717 10.64929 -0.00111
C 18.43673 9.19327 -0.03557
C 17.17414 8.48601 0.03754
C 17.22188 7.13692 0.01739
C 18.46123 6.34636 0.00755
C 18.41454 4.93819 -0.0054
C 17.2044 4.27067 0.00667
C 17.23323 2.82919 0.00143
C 18.53347 2.19839 -0.017
C 18.46226 0.68192 0.00364
C 17.24633 0.02076 -0.00831
C 19.68636 32.6132 -0.02957
C 20.92894 31.92907 -0.04422
C 20.80963 30.50478 0.00654
C 19.62649 29.78198 -0.00703
C 19.67643 28.32815 -0.04076
C 20.91014 27.63531 -0.00652
C 20.8469 26.29297 0.0058
C 17.1166 12.85719 0.01452
C 14.70009 11.41792 0.00889
C 18.33908 13.53729 -0.01581
C 18.34744 23.57834 -0.01979
C 15.98847 9.26434 0.00979
C 14.76104 8.48679 0.01443
C 14.82917 7.13677 0.03505
C 16.02569 6.45038 -0.02815
C 15.99655 5.0253 -0.04147
C 14.81252 4.27813 -0.05302
C 14.75232 2.84031 0.00213
C 15.99886 2.07867 -0.00066
C 15.98567 0.65442 -0.00289
C 14.73798 34.02917 0.00028
C 17.26636 32.70676 -0.02213
C 18.45153 31.9155 0.03698
C 18.37724 30.53199 -0.00109
C 17.16154 29.79556 -0.00491
C 17.18003 28.35058 0.03338
C 18.38241 27.6866 -0.0258
C 18.40641 26.29277 -0.0331
C 17.2357 25.49305 -0.00316
C 17.3071 24.08101 0.02188
C 18.45096 14.80352 0.02691
C 9.66616 24.07659 -0.01046
C 9.83368 25.50321 -0.02689
C 11.06392 26.24193 -0.01536
C 2.54553 2.84482 -0.03337
C 3.75589 2.18751 0.01227
C 3.63882 0.76833 0.00873
C 2.50503 0.03089 -0.00049
C 4.864 32.71985 0.00848
C 6.0801 31.98255 -0.01303
C 6.15367 30.63982 -0.01378
C 4.88521 23.99471 0.02635
C 6.09146 23.46951 0.0127
C 6.13035 22.05146 0.01396
C 4.87654 21.31906 0.01849
C 4.90615 19.91433 -0.01142
C 6.20078 19.21453 -0.00562
C 6.21987 17.72128 -0.00494
C 4.93903 17.02953 0.00054
C 4.92319 15.63986 0.03007
C 6.13693 14.9755 -0.00095
C 6.08853 13.54291 0.01572
C 4.90175 12.83912 -0.04848
C 2.45 4.22297 -0.00966
C 4.88215 11.4058 -0.00892
C 3.64091 5.04357 -0.02929
C 2.50623 7.0388 -0.00077
C 3.73829 30.52816 0.01996
C 2.48773 29.8264 -0.03996
C 2.58885 25.51027 0.01465
C 2.46875 24.16531 -0.00074
C 3.63043 23.45826 -0.00518
C 3.63813 22.08851 0.0086
C 2.48767 21.33598 -0.00643
C 2.51828 19.85273 0.017
C 3.70241 19.18733 -0.03113
C 3.72585 17.74378 -0.02566
C 2.44742 16.98122 -0.00094
C 2.47528 15.61308 0.02322
C 3.61346 14.91785 -0.00725
C 3.64221 13.50886 -0.05697
C 2.40673 12.84435 0.01087
C 2.41784 11.42416 -0.01343
C 3.69404 10.67559 0.00988
C 3.71132 9.16086 0.0276
C 2.4661 8.50644 0.01305
C 3.72155 6.41856 0.03368
C 6.16802 10.70981 -0.01362
C 6.11434 9.24412 -0.0008
C 4.86659 8.49185 0.0288
C 7.33786 12.79334 0.01641
C 7.39438 11.39204 -0.00719
C 8.66714 10.66976 0.01364
C 8.60796 9.25295 -0.01062
C 7.38093 8.61981 -0.00033
C 7.35414 7.14706 0.03589
C 8.64247 6.40542 -0.02759
C 8.67742 4.978 0.0402
C 7.43683 4.30201 0.00572
C 7.36843 2.75035 0.03592
C 8.55429 2.08829 0.00406
C 8.54578 0.71453 0.00943
C 7.2795 34.05745 0.02841
C 9.83842 32.69293 -0.01111
C 11.05872 31.97569 -0.01275
C 11.03166 30.5936 0.00985
C 9.8391 29.82442 -0.02245
C 9.8228 28.43257 -0.00428
C 11.02117 27.7179 0.03101
C 8.614 13.56521 0.02339
C 8.56658 14.89556 -0.00334
C 7.48308 15.66233 -0.01634
C 7.4213 17.09231 0.00057
C 4.90477 7.10276 0.00393
C 6.11202 6.44091 0.00895
C 6.20877 4.9884 0.00685
C 4.93417 4.34826 0.02888
C 4.93491 2.91565 -0.00482
C 6.13195 2.19886 -0.01384
C 6.06082 0.78902 0.03693
C 4.87427 0.07731 0.01745
C 7.3777 32.68882 0.00488
C 19.61023 25.60258 -0.00865
C 8.61463 32.02634 -0.01004
C 7.30264 29.76938 -0.00131
C 7.39123 28.41849 -0.01118
C 8.57745 27.74913 -0.014
C 8.5493 26.32718 0.02147
C 7.43728 25.56235 0.00373
C 7.3093 24.17942 -0.00191
C 8.58656 23.58632 0.00438
C 7.31634 21.14882 0.01291
C 7.39586 19.97471 0.00093
C 8.55517 30.59911 -0.02896
C 3.73246 31.92699 -0.00279
C 19.68351 24.18278 0.00675
C 20.84381 21.92685 0.00742
C 30.71928 0.71981 0.00307
C 29.46084 0.00494 0.00346
C 31.97253 32.67702 0.01713
C 33.16255 31.98046 -0.01694
C 33.09003 30.5477 0.01428
C 31.90206 29.78872 -0.02142
C 31.94057 28.36365 0.0544
C 33.21356 27.74184 0.00026
C 33.18143 26.32951 0.00682
C 31.9749 25.59668 -0.01779
C 31.97896 24.109 0.03794
C 33.16289 23.43088 0.01927
C 33.21476 22.04186 0.01574
C 31.9971 21.32843 -0.02383
C 32.00597 19.92415 -0.01429
C 33.19449 19.16278 -0.0136
C 33.20738 17.74119 0.00594
C 31.93319 16.99521 -0.02474
C 31.94278 15.67212 0.00369
C 30.81106 2.13069 0.00716
C 33.16996 14.87026 0.00455
C 29.58104 2.77279 0.02108
C 30.72952 4.95973 0.07705
C 30.72037 31.97115 0.03265
C 30.73498 30.56177 -0.02049
C 29.48875 29.80366 -0.01854
C 29.53108 28.40104 -0.01415
C 30.69783 27.69958 -0.03039
C 30.76931 26.32858 0.01836
C 29.55031 25.49079 0.03531
C 29.54674 24.09804 -0.00669
C 30.80267 23.42748 0.0101
C 30.77168 22.04041 0.01705
C 29.50472 21.27828 -0.0405
C 29.47339 19.85858 -0.01303
C 30.78438 19.11186 -0.01461
C 30.66742 17.66216 -0.02155
C 29.37017 17.16813 -0.00944
C 30.62082 9.14726 -0.03735
C 29.53293 8.62678 -0.00971
C 29.48609 7.14973 0.01518
C 30.72893 6.34122 0.01908
C 29.56383 4.24439 0.0103
C 29.50482 32.67588 0.00261
C 33.21279 13.44321 -0.00644
C 31.91041 11.35809 0.00137
C 0.03087 19.86614 0.01951
C 1.2681 19.13271 -0.01678
C 1.20343 17.72822 0.01223
C 34.39569 17.03885 0.00648
C 34.41892 15.61621 0.02114
C 1.21225 14.95828 -0.02957
C 1.22406 13.56951 0.00343
C 0.02622 12.81897 -0.02656
C 34.43102 11.40171 -0.02442
C 1.19175 10.66662 -0.00027
C 1.21783 9.27648 -0.00583
C 0.0022 8.53924 -0.02302
C 0.06711 7.14418 -0.02849
C 1.28216 6.36915 0.02931
C 1.20999 4.91722 0.00628
C 34.38891 4.29796 -0.0345
C 34.42386 2.83766 -0.00931
C 1.24774 2.1578 -0.00939
C 1.20414 0.64009 -0.00468
C 34.42346 21.28939 -0.02213
C 31.97867 12.62463 -0.01839
C 1.29205 22.01205 0.02712
C 34.38935 24.14053 0.03076
C 33.12625 10.64545 0.00199
C 33.18198 9.16626 0.04381
C 31.87645 8.54005 0.02806
C 31.95619 7.04458 0.01504
C 33.22641 6.48223 -0.00069
C 33.21019 5.05366 0.04926
C 31.98116 4.29688 -0.03838
C 31.98736 2.8168 0.00349
C 33.16619 2.10764 -0.00323
C 33.14684 0.73157 -0.00841
C 31.93016 34.07774 0.0001
C 0.03959 32.62677 -0.02927
C 1.27847 31.96014 -0.01404
C 1.20553 30.57898 0.01027
C 34.39724 29.92953 0.01831
C 0.02538 28.46729 -0.01037
C 1.14912 27.77611 -0.00439
C 1.28535 26.2969 -0.00598
C 34.38532 25.59131 -0.05239
C 1.21456 23.43829 0.00723
C 27.04719 34.06541 0.02326
C 28.25547 0.68056 0.00924
C 28.29122 2.10486 0.0014
C 23.28089 30.59776 0.01153
C 22.10884 29.91387 0.02734
C 22.1555 28.37797 -0.0055
C 23.3421 27.63766 0.01515
C 23.32068 26.24095 -0.00225
C 22.1028 25.55209 0.00071
C 22.12606 24.14212 -0.01107
C 23.29278 23.37886 -0.01586
C 23.30729 21.96328 -0.01971
C 22.13498 21.26562 -0.02118
C 22.09846 19.82156 0.00733
C 23.31835 19.16896 -0.00178
C 23.39679 17.74068 0.00768
C 22.21632 16.96969 -0.0276
C 22.08859 15.6283 0.03005
C 22.08205 8.38942 -0.04078
C 22.15324 7.02232 0.02117
C 23.36577 6.38082 0.02737
C 23.36055 4.94038 -0.00498
C 23.35663 31.93964 0.02239
C 22.19127 4.2145 0.00135
C 22.16173 32.73441 -0.03213
C 20.87794 0.68989 0.03374
C 19.60519 21.11139 -0.01594
C 19.65303 19.92634 0.0106
C 20.8386 19.12891 -0.01154
C 20.88102 17.73851 -0.01721
C 19.7872 17.02018 -0.02422
C 19.39635 15.72295 0.01277
C 20.93288 14.80724 0.00096
C 20.8522 13.43915 -0.01527
C 19.70625 12.74976 0.01087
C 19.74596 11.27673 0.00199
C 20.94245 10.58035 0.01511
C 20.99454 9.22304 -0.00478
C 19.66051 8.46814 -0.01662
C 19.69147 7.01927 -0.01185
C 20.84228 6.34027 0.01126
C 20.91633 4.9556 0.01852
C 19.72956 4.19083 -0.00381
C 19.79013 2.80395 0.03046
C 20.91521 2.04163 0.0296
C 19.65009 34.05272 -0.02845
C 22.1527 2.83026 0.03102
C 23.38372 2.14056 0.02555
C 23.43912 0.72385 0.01423
C 28.27458 31.91969 -0.00294
C 28.29603 30.56595 0.00152
C 27.09236 29.80109 0.01257
C 27.13387 28.43042 0.02316
C 28.3241 27.72965 0.04185
C 28.31218 26.27899 0.00194
C 27.0865 25.51811 -0.00621
C 27.0525 24.12126 0.02611
C 28.32021 23.4533 0.02198
C 28.25749 22.06921 0.01094
C 27.00345 21.34373 0.00235
C 27.01358 19.90609 0.01495
C 28.20657 19.16309 0.01259
C 28.3865 17.73162 0.01799
C 27.10055 7.10914 0.01699
C 28.25969 6.47462 -0.00416
C 28.33496 4.94115 0.01177
C 27.0751 4.28547 0.04266
C 27.10258 2.82223 0.01324
C 27.08731 32.62489 0.00826
C 24.57643 34.06485 0.00487
C 25.84847 0.6852 -0.00942
C 25.80838 2.10981 -0.02815
C 22.24764 0.05314 -0.00285
C 24.5729 32.67211 -0.009
C 25.81241 31.95563 -0.01199
C 25.85871 30.48213 -0.00229
C 24.46464 29.82697 -0.00938
C 24.516 28.42985 -0.0264
C 25.73177 27.69136 -0.01154
C 25.79886 26.25441 0.00684
C 24.59582 25.53338 -0.01052
C 20.85111 23.36098 -0.00311
C 24.54804 24.10609 -0.01679
C 25.7463 22.0131 0.04306
C 24.54759 21.30325 0.00996
C 24.54177 19.87997 0.00195
C 25.77713 19.22509 -0.00802
C 24.55997 7.05103 -0.00218
C 25.8185 6.46953 -0.01654
C 25.86397 4.88244 -0.00037
C 24.6026 4.21563 -0.0032
C 24.58254 2.79478 0.00622
C 25.84485 23.42381 0.00367
C 2.5046 32.74678 0.01226
