336
Graphene
C 34.38603 0.00992 0.01295
C 16.06981 27.54285 -0.00481
C 14.44973 6.79272 0.00979
C 15.85065 6.29377 0.01443
C 15.84734 4.9213 0.03505
C 14.61552 4.17741 -0.02815
C 14.74858 2.78922 -0.04147
C 16.00491 2.16688 -0.05302
C 15.94148 0.73583 0.00213
C 14.69905 0.08395 -0.00066
C 17.0812 32.68464 -0.00289
C 18.32754 31.94434 0.00028
C 18.48125 30.58566 -0.02213
C 17.27847 29.74767 0.03698
C 17.36553 28.12435 -0.00109
C 18.74779 27.65676 -0.00491
C 18.46196 9.07014 0.03338
C 17.40421 8.49298 -0.0258
C 14.85868 28.1987 0.00889
C 17.05801 7.11084 -0.0331
C 14.76955 29.66847 -0.02162
C 15.89755 31.90129 0.01848
C 9.70884 3.37187 -0.02813
C 11.01744 2.65197 0.00374
C 11.12456 1.02471 0.00052
C 9.86125 0.18227 -0.03682
C 12.30346 32.67502 0.01965
C 13.50424 31.89765 0.02058
C 13.55111 30.4618 -0.01957
C 12.31543 29.82497 -0.0108
C 12.20831 28.20595 -0.00368
C 13.44862 27.67994 -0.02696
C 13.43398 5.89909 -0.00114
C 13.17766 4.50658 0.00228
C 12.42542 3.34268 0.00798
C 13.42568 2.30764 0.00422
C 13.53232 0.8203 0.0351
C 12.26349 0.16112 -0.03113
C 14.64479 32.70969 0.02098
C 15.97354 30.48663 -0.00619
C 10.02523 8.88357 -0.01952
C 18.41539 6.42164 -0.00316
C 17.15946 4.28311 -0.01979
C 19.65315 0.05056 0.0058
C 22.06613 32.72766 -0.00865
C 23.35252 31.95826 0.00675
C 23.40482 30.56274 -0.00311
C 22.19809 29.83329 0.00742
C 22.1934 28.47558 -0.01594
C 23.39605 27.69024 0.0106
C 23.25894 26.27678 -0.01154
C 21.88855 25.55881 -0.01721
C 21.92005 24.2228 -0.02422
C 23.21328 23.36482 0.01277
C 23.39551 21.94815 0.00096
C 23.32105 15.05079 -0.01527
C 23.19576 13.59362 0.01087
C 22.18303 12.79892 0.00199
C 21.97629 11.46048 0.01511
C 23.2994 10.70515 -0.00478
C 20.84503 0.76663 -0.00652
C 18.31714 4.9594 0.02188
C 20.82021 2.13655 -0.04076
C 19.49325 4.28963 0.00654
C 17.16793 2.88485 0.02691
C 18.40688 2.05925 -0.01581
C 18.41178 0.68612 0.01452
C 17.13771 34.06232 0.04892
C 19.64597 32.69188 -0.00111
C 20.85637 31.99968 -0.03557
C 20.91706 30.57089 0.03754
C 19.69494 29.9115 0.01739
C 19.67621 28.56263 0.00755
C 20.88306 27.883 -0.0054
C 20.69671 26.5342 0.00667
C 20.7397 10.5492 0.00143
C 20.95916 9.14447 -0.017
C 19.6983 8.47826 0.00364
C 19.65976 7.04846 -0.00831
C 20.86406 6.36686 -0.02957
C 20.79231 4.89563 -0.04422
C 19.58049 2.81185 -0.00703
C 23.39398 9.2339 -0.01662
C 10.92612 27.70682 0.05265
C 9.82789 29.97276 0.00244
C 2.50789 8.54001 0.00488
C 2.47278 7.06581 -0.01004
C 3.68327 6.37524 -0.02896
C 3.68753 5.01677 -0.00131
C 2.457 4.32202 -0.01118
C 2.4741 2.88382 -0.014
C 3.66942 2.12441 0.02147
C 3.68246 0.71857 0.00373
C 2.42373 0.06767 -0.00191
C 4.87115 32.74278 0.00438
C 6.22668 32.02591 0.01291
C 6.13916 30.66054 0.00093
C 4.86006 29.87551 0.00057
C 4.77659 28.45073 -0.01634
C 6.03511 27.73334 -0.00334
C 6.19316 26.36161 0.02339
C 4.96232 25.57506 0.01641
C 3.73218 9.17541 0.01745
C 4.88134 24.17685 -0.00719
C 3.68341 10.64896 0.03693
C 2.34063 12.71827 -0.00482
C 3.62304 30.6386 0.01849
C 2.45555 29.82062 -0.01142
C 2.44251 28.44378 -0.00562
C 3.61269 27.70672 -0.00494
C 3.77296 26.28754 0.00054
C 2.48054 25.53091 0.03007
C 2.50565 24.13152 -0.00095
C 3.71993 23.38478 0.01572
C 3.69216 21.99592 -0.04848
C 2.44759 21.37935 -0.00892
C 2.40384 19.86108 -0.01362
C 3.65707 19.17291 -0.0008
C 3.66003 17.78923 0.0288
C 2.44857 17.07737 0.00393
C 2.44252 15.6586 0.00895
C 3.64203 14.79444 0.00685
C 3.63228 13.42485 0.02888
C 2.38559 11.3264 -0.01384
C 9.79227 28.44791 -0.01717
C 6.22743 23.47848 0.01364
C 5.00331 21.16854 -0.00033
C 8.49385 27.74945 0.02894
C 8.58904 26.451 -0.01789
C 7.55642 25.57204 0.00444
C 7.25003 24.29501 -0.00925
C 8.66375 9.00751 0.01877
C 7.44737 8.4787 0.01363
C 7.39607 7.00886 -0.02162
C 8.62428 6.1835 0.00415
C 8.66681 4.81765 -0.0014
C 7.39389 4.25601 0.02162
C 7.37952 2.87925 0.0076
C 8.74175 2.46279 0.01241
C 8.72714 0.98591 -0.01454
C 7.44747 0.17563 0.01945
C 9.80764 32.85712 0.01416
C 11.05276 32.0469 0.03542
C 11.05811 30.58056 0.02299
C 7.34545 28.50521 -0.02971
C 6.2043 21.91226 -0.01062
C 7.35135 29.94287 0.00165
C 8.63958 32.05849 -0.00891
C 4.98089 19.71323 0.03589
C 4.73044 16.90274 -0.02759
C 4.77064 15.65285 0.0402
C 4.8933 12.79213 0.00572
C 5.02574 11.35163 0.03592
C 6.08283 10.53766 0.00406
C 6.18958 9.19786 0.00943
C 4.90458 8.51263 0.02841
C 4.8983 7.02803 -0.01111
C 6.12057 6.35562 -0.01275
C 6.12894 4.96014 0.00985
C 4.9513 4.29031 -0.02245
C 4.88325 2.8633 -0.00428
C 6.07547 2.11568 0.03101
C 6.18496 0.70339 -0.01536
C 4.89056 0.05669 -0.02689
C 7.44856 32.81746 -0.01046
C 8.62888 30.68778 0.02819
C 22.19733 8.4657 -0.01185
C 22.1038 7.03122 0.01126
C 23.36479 6.33748 0.01852
C 31.93885 28.40768 0.0544
C 33.13553 27.68302 0.00026
C 33.20193 26.27237 0.00682
C 31.94752 25.51555 -0.01779
C 31.98794 24.10568 0.03794
C 33.202 23.41286 0.01927
C 33.20544 21.97034 0.01574
C 32.00499 21.29083 -0.02383
C 31.96076 19.8941 -0.01429
C 33.24863 19.17038 -0.0136
C 33.17373 17.71978 0.00594
C 31.92834 17.0449 -0.02474
C 31.89842 15.65646 0.00369
C 33.17084 14.90285 0.00455
C 33.12335 13.53805 -0.00644
C 31.83267 12.73264 -0.01839
C 31.89746 11.40226 0.00137
C 31.91219 29.85763 -0.02142
C 33.21213 10.62293 0.00199
C 33.12089 30.56987 0.01428
C 31.87853 32.60622 0.01713
C 29.54016 17.08005 0.0101
C 29.53078 15.67388 0.01705
C 30.68727 15.02741 -0.0405
C 30.62879 13.45387 -0.01303
C 29.43482 12.8196 -0.01461
C 29.49144 11.37877 -0.02155
C 30.68911 10.63495 -0.00944
C 30.7213 9.23738 -0.03735
C 29.52475 8.52138 -0.00971
C 29.41234 7.18294 0.01518
C 30.6113 6.37957 0.01908
C 30.68783 4.9676 0.07705
C 29.43583 4.21325 0.0103
C 29.44633 2.86783 0.02108
C 30.68769 2.09719 0.00716
C 30.61425 0.75406 0.00307
C 29.46644 0.03473 0.00346
C 33.11235 31.97835 -0.01694
C 30.75225 17.71503 -0.00669
C 33.22154 9.2233 0.04381
C 31.87218 7.12747 0.01504
C 1.17423 17.71538 0.01223
C 34.38068 17.01123 0.00648
C 34.35036 15.58914 0.02114
C 1.10674 14.87162 -0.02957
C 1.08785 13.52606 0.00343
C 34.25447 12.8258 -0.02656
C 34.36901 11.31527 -0.02442
C 1.18626 10.58645 -0.00027
C 1.21879 9.23899 -0.00583
C 34.42213 8.49863 -0.02302
C 34.33452 7.141 -0.02849
C 1.20526 6.40299 0.02931
C 1.20504 4.96632 0.00628
C 34.43048 4.26938 -0.0345
C 34.36015 2.84906 -0.00931
C 1.18067 2.14593 -0.00939
C 1.18235 0.77353 -0.00468
C 1.27051 19.15435 -0.01678
C 31.96209 8.51394 0.02806
C 34.39109 19.90385 0.01951
C 1.24748 22.0527 0.02712
C 33.09493 6.41337 -0.00069
C 33.15978 5.01779 0.04926
C 31.96862 4.25301 -0.03838
C 31.90878 2.83873 0.00349
C 33.15174 2.11836 -0.00323
C 33.16841 0.71779 -0.00841
C 31.90263 34.0509 0.0001
C 34.39373 32.68105 -0.02927
C 1.22314 31.99353 -0.01404
C 1.25351 30.55419 0.01027
C 34.37156 29.87777 0.01831
C 34.3855 28.47346 -0.01037
C 1.196 27.76068 -0.00439
C 1.18896 26.31517 -0.00598
C 0.00626 25.57628 -0.05239
C 34.40893 24.0579 0.03076
C 1.26035 23.4217 0.00723
C 34.42342 21.27926 -0.02213
C 30.74207 19.25213 0.03531
C 29.52727 19.89034 0.01836
C 29.50581 21.30586 -0.03039
C 24.48206 17.21182 0.03005
C 24.4112 15.85208 -0.04078
C 25.78743 15.00088 0.02117
C 25.79468 13.55677 0.02737
C 24.57936 12.84892 -0.00498
C 24.51035 11.49285 0.00135
C 25.75602 10.72049 0.03102
C 25.75992 9.25717 0.02555
C 24.55143 8.51151 0.01423
C 24.57779 7.08081 -0.00285
C 25.82978 6.49414 -0.009
C 25.85324 5.05258 -0.01199
C 24.55242 4.27037 -0.00229
C 24.57234 2.88342 -0.00938
C 25.77714 2.15361 -0.0264
C 25.79168 0.72963 -0.01154
C 24.5148 34.07735 0.00684
C 25.8286 17.73077 -0.0276
C 27.00844 32.61724 -0.01052
C 25.89188 19.18387 0.00768
C 24.43106 21.07533 0.00733
C 23.38997 4.99291 -0.00381
C 22.09855 4.25416 0.03046
C 22.06758 2.85259 0.0296
C 23.27345 2.17474 0.03374
C 23.34544 0.75595 -0.02845
C 22.0941 34.0788 -0.03213
C 24.58035 32.67467 0.02239
C 25.80185 31.91827 0.01153
C 25.79452 30.52808 0.02734
C 24.60162 29.77928 -0.0055
C 24.59042 28.40142 0.01515
C 25.84874 27.57557 -0.00225
C 25.70382 26.15647 0.00071
C 24.40903 25.51151 -0.01107
C 24.45477 24.19801 -0.01586
C 25.68121 23.3698 -0.01971
C 25.77444 21.96658 -0.02118
C 24.59115 19.68975 -0.00178
C 28.28215 31.87771 -0.01679
C 28.28965 30.49072 0.00367
C 27.00213 29.85209 0.04306
C 28.23206 4.97263 0.00235
C 26.98359 4.29297 0.01495
C 26.99007 2.87148 0.01259
C 28.17609 2.19375 0.01799
C 28.22138 0.70484 0.01699
C 27.05287 0.01234 -0.00416
C 29.50361 32.65626 0.01177
C 30.65173 31.90168 0.04266
C 30.68132 30.48087 0.01324
C 29.51824 29.75334 0.0014
C 29.44213 28.39734 0.00924
C 30.78874 27.66245 0.02326
C 30.75732 26.27181 0.00261
C 29.48804 25.52972 0.03265
C 29.47639 24.13063 -0.02049
C 30.72667 23.47583 -0.01854
C 30.69054 22.04736 -0.01415
C 28.22155 6.44028 0.01094
C 27.0183 7.08014 0.02198
C 27.02882 8.6138 0.02611
C 28.32466 9.30934 -0.00621
C 26.99756 28.30791 0.00996
C 28.25512 27.68559 0.00195
C 28.18814 26.20906 -0.00802
C 26.96346 25.49915 -0.00218
C 26.94488 24.0452 -0.01654
C 28.19704 23.40904 -0.00037
C 28.272 22.00135 -0.0032
C 27.00812 21.27383 0.00622
C 3.65883 32.05323 0.01396
C 27.09101 19.86056 -0.02815
C 28.25517 17.7831 0.00487
C 27.00795 17.07067 0.00826
C 27.00593 15.65742 -0.00294
C 28.22811 14.88142 0.00152
C 28.1763 13.54194 0.01257
C 26.98374 12.74136 0.02316
C 26.98428 11.36763 0.04185
C 28.26468 10.66295 0.00194
C 28.29085 19.16109 -0.00942
C 2.43428 32.72273 0.0127
