366
Graphene
C 34.32846 0.01498 0.01295
C 17.06978 28.42952 0.00374
C 18.3123 27.67661 0.00052
C 18.26871 26.26402 -0.03682
C 17.01245 25.5724 0.01965
C 17.03895 24.14198 0.02058
C 18.35105 23.48144 -0.01957
C 18.45292 22.06823 -0.0108
C 17.24518 21.33646 -0.00368
C 17.13405 29.84227 -0.02813
C 17.2384 19.89763 -0.02696
C 18.45134 17.72148 0.00228
C 17.1899 17.0042 0.00798
C 17.16075 15.61783 0.00422
C 18.45189 14.82981 0.0351
C 18.36994 13.42674 -0.03113
C 17.01093 12.6441 0.02098
C 17.25052 11.25605 0.01848
C 18.44616 10.60181 -0.00619
C 18.44889 19.17378 -0.00114
C 18.3569 30.50702 -0.01952
C 18.38093 31.92731 0.05265
C 17.11732 32.62103 -0.01717
C 14.60282 25.57545 -0.02971
C 14.5768 24.17429 0.02894
C 15.77941 23.46638 -0.01789
C 15.90502 22.00144 0.00444
C 14.65444 21.23066 -0.00925
C 14.56593 19.82839 0.01877
C 15.96062 19.28235 0.01363
C 16.03025 17.84979 -0.02162
C 14.74646 17.18635 0.00415
C 14.77271 15.74301 -0.0014
C 15.96147 14.86486 0.02162
C 15.87348 13.43876 0.0076
C 16.05021 6.31797 0.01241
C 15.87772 5.02301 -0.01454
C 14.7182 4.15165 0.01945
C 14.79188 2.75676 0.01416
C 15.95545 2.02941 0.03542
C 16.03527 0.66301 0.02299
C 14.7291 34.05034 0.00244
C 18.48127 9.11543 -0.02162
C 17.26189 8.47556 0.00889
C 17.1849 7.11079 -0.00481
C 18.44084 6.34554 0.00979
C 20.86209 14.8621 -0.00111
C 20.827 13.42588 -0.03557
C 19.60675 12.77035 0.03754
C 19.64664 11.37371 0.01739
C 20.86524 10.60889 0.00755
C 20.87391 9.20608 -0.0054
C 19.67072 8.52642 0.00667
C 19.6307 7.13825 0.00143
C 20.92874 6.40138 -0.017
C 20.88308 4.91949 0.00364
C 19.64645 4.22041 -0.00831
C 19.65231 2.76316 -0.02957
C 20.88554 2.03689 -0.04422
C 20.89154 0.68412 0.00654
C 19.61985 34.02981 -0.00703
C 22.15089 32.71309 -0.04076
C 23.36211 31.91791 -0.00652
C 23.34119 30.46965 0.0058
C 22.03685 29.75755 -0.00865
C 19.61808 15.58068 0.04892
C 15.80367 26.32374 0.00165
C 19.59972 16.95208 0.01452
C 20.90584 19.13968 0.02691
C 18.38903 4.90716 0.01443
C 17.16779 4.14788 0.03505
C 17.21697 2.72499 -0.02815
C 18.45543 2.01946 -0.04147
C 18.3701 0.62656 -0.05302
C 17.15504 33.96147 0.00213
C 19.58658 32.63315 -0.00066
C 20.86169 31.97076 -0.00289
C 20.77075 30.48522 0.00028
C 19.54962 29.73784 -0.02213
C 19.62505 28.33929 0.03698
C 20.80599 27.55684 -0.00109
C 20.74961 26.19397 -0.00491
C 19.51239 25.56811 0.03338
C 19.62186 24.15621 -0.0258
C 20.87271 23.3482 -0.0331
C 20.85909 22.01363 -0.00316
C 19.71771 21.379 0.02188
C 19.73238 19.94741 -0.01979
C 20.84998 17.61109 -0.01581
C 15.79818 27.71168 0.02819
C 14.66135 28.45421 -0.00891
C 14.72817 29.91445 -0.01046
C 4.86191 29.87141 -0.00049
C 4.78799 28.40833 0.00848
C 5.99853 27.63497 -0.01303
C 6.2053 26.28734 -0.01378
C 4.82564 12.4659 0.02635
C 5.11393 11.11165 0.0127
C 5.8427 9.89865 0.01396
C 4.83985 8.72822 0.01849
C 5.06582 7.41918 -0.01142
C 6.20099 6.65534 -0.00562
C 6.27759 5.23487 -0.00494
C 5.01917 4.51549 0.00054
C 4.94073 3.04991 0.03007
C 6.10259 2.22632 -0.00095
C 6.09967 0.78759 0.01572
C 4.79022 0.16842 -0.04848
C 7.35527 32.76897 -0.00892
C 8.54807 32.05669 -0.01362
C 8.49879 30.68464 -0.0008
C 6.02207 30.67526 0.00873
C 7.22542 29.89283 0.0288
C 6.02817 32.06524 0.01227
C 2.31402 0.0735 -0.00966
C 3.66658 30.63853 -0.00074
C 2.42877 29.92927 -0.00518
C 2.36646 28.40716 0.0086
C 3.53161 27.63497 -0.00643
C 3.51998 26.18522 0.017
C 2.46105 25.47974 -0.03113
C 3.77905 13.27423 -0.02566
C 2.44587 12.90029 -0.00094
C 2.42514 11.51538 0.02322
C 3.61028 10.77115 -0.00725
C 3.56883 9.42692 -0.05697
C 2.36632 8.63625 0.01087
C 2.57884 7.22352 -0.01343
C 3.84138 6.65172 0.00988
C 3.74953 5.21117 0.0276
C 2.57277 4.43902 0.01305
C 2.50127 3.01207 -0.00077
C 3.69279 2.35119 0.03368
C 3.58658 0.80376 -0.02929
C 4.82671 32.75801 -0.03337
C 21.95422 28.34804 0.00675
C 7.15329 28.51211 0.00393
C 8.46674 26.39666 0.00685
C 12.28806 28.44665 0.01364
C 13.50428 27.72925 -0.01062
C 13.34174 26.27841 -0.00033
C 12.12948 25.54784 0.03589
C 12.10433 24.11483 -0.02759
C 13.24468 23.26316 0.0402
C 13.47382 21.92465 0.00572
C 13.32156 19.14762 0.03592
C 13.44562 17.83977 0.00406
C 12.53136 16.74795 0.00943
C 12.29407 15.392 0.02841
C 13.54595 14.99335 -0.01111
C 12.49633 3.02843 -0.01275
C 13.57356 2.05471 0.00985
C 13.50979 0.70846 -0.02245
C 12.22308 0.1157 -0.00428
C 14.66184 32.69492 0.03101
C 15.86635 31.96376 -0.01536
C 15.92689 30.61116 -0.02689
C 12.29248 29.89321 -0.00719
C 8.39173 27.7983 0.00895
C 13.42517 30.69881 0.01641
C 12.17688 32.77476 -0.00334
C 7.27481 4.28726 0.02888
C 7.34036 2.87699 -0.00482
C 8.5924 2.28195 -0.01384
C 8.60478 0.80905 0.03693
C 7.33205 0.14483 0.01745
C 9.77149 32.77457 0.00488
C 10.9761 32.01694 -0.01004
C 11.03336 30.63459 -0.02896
C 9.81521 29.94698 -0.00131
C 9.69424 28.45217 -0.01118
C 10.9163 27.77723 -0.014
C 10.9076 26.23157 0.02147
C 9.58132 25.81563 0.00373
C 10.97522 14.84799 -0.00191
C 8.98767 4.50488 0.00438
C 9.6553 3.23083 0.01291
C 11.02844 2.63779 0.00093
C 11.04292 0.96424 0.00057
C 9.84171 0.17852 -0.01634
C 13.41839 32.09718 0.02339
C 23.18603 27.61283 -0.00311
C 23.29053 26.19205 0.00742
C 22.11567 25.46851 -0.01594
C 29.47627 4.25376 0.00307
C 29.48569 2.78095 0.00346
C 30.72757 2.11087 0.01713
C 30.68171 0.7258 -0.01694
C 29.47993 0.02454 0.01428
C 31.87333 32.74471 -0.02142
C 33.13089 31.94064 0.0544
C 33.12673 30.50705 0.00026
C 31.85169 29.79285 0.00682
C 31.94131 28.43761 -0.01779
C 33.07717 27.73133 0.03794
C 33.09249 26.34716 0.01927
C 31.93237 25.57071 0.01574
C 32.12205 24.20328 -0.02383
C 33.43407 23.44482 -0.01429
C 33.30593 22.03967 -0.0136
C 31.99594 21.2893 0.00594
C 31.95903 19.89016 -0.02474
C 33.24848 19.16941 0.00369
C 30.6393 4.98163 0.00716
C 33.22255 17.8063 0.00455
C 30.66968 6.38941 0.02108
C 29.60936 8.5281 0.07705
C 29.43014 28.39842 0.03265
C 30.71239 27.71408 -0.02049
C 30.73606 26.34038 -0.01854
C 29.49054 25.44988 -0.01415
C 29.55285 24.07258 -0.03039
C 30.80667 23.42746 0.01836
C 30.78723 21.96485 0.03531
C 29.5039 21.3155 -0.00669
C 29.45876 19.91535 0.0101
C 30.71287 19.18007 0.01705
C 30.69122 17.72688 -0.0405
C 29.44431 17.03404 -0.01303
C 29.5585 15.65808 -0.01461
C 30.78484 14.96103 -0.02155
C 30.83915 13.4754 -0.00944
C 29.51924 12.76694 -0.03735
C 29.50199 11.38331 -0.00971
C 30.78059 10.67928 0.01518
C 30.74769 9.37275 0.01908
C 29.4366 7.15374 0.0103
C 29.37527 29.82938 0.00261
C 32.00055 17.06759 -0.00644
C 33.24386 14.98791 0.00137
C 1.61431 24.40007 0.01951
C 34.41707 21.14868 -0.01678
C 34.43067 20.01592 0.01223
C 0.01478 17.05846 0.00648
C 0.1208 15.72697 0.02114
C 1.2024 14.88798 -0.02957
C 1.28268 13.56846 0.00343
C 34.41893 12.80202 -0.02656
C 34.40488 11.44067 -0.02442
C 1.20866 10.71031 -0.00027
C 1.23799 9.24227 -0.00583
C 0.0053 8.49617 -0.02302
C 0.05357 7.15111 -0.02849
C 1.25211 6.4854 0.02931
C 1.29008 5.06851 0.00628
C 0.00917 4.29838 -0.0345
C 34.3723 2.87731 -0.00931
C 1.23103 2.30722 -0.00939
C 1.15042 0.75051 -0.00468
C 0.26178 24.28749 -0.02213
C 31.99929 15.66265 -0.01839
C 34.35237 25.74813 0.02712
C 1.11588 27.69113 0.03076
C 33.19341 13.62084 0.00199
C 31.98166 12.86053 0.04381
C 32.0546 11.43476 0.02806
C 33.19963 10.61473 0.01504
C 33.23562 9.23048 -0.00069
C 31.96793 8.55185 0.04926
C 31.91657 7.12154 -0.03838
C 33.25564 6.39184 0.00349
C 33.18985 4.96723 -0.00323
C 31.91869 4.33691 -0.00841
C 31.87353 2.87987 0.0001
C 33.08086 2.16115 -0.02927
C 33.12593 0.7699 -0.01404
C 31.92219 0.08754 0.01027
C 34.3607 32.67395 0.01831
C 1.17985 32.04607 -0.01037
C 1.15266 30.53962 -0.00439
C 34.37268 29.83044 -0.00598
C 34.32041 28.42466 -0.05239
C 1.2051 26.35275 0.00723
C 3.6189 32.0347 0.01465
C 30.71795 30.56026 0.02326
C 29.45873 32.7548 0.0014
C 22.1391 0.02637 0.02734
C 24.48334 32.60588 -0.0055
C 25.68662 31.80372 0.01515
C 25.7155 30.39169 -0.00225
C 24.5031 29.7065 0.00071
C 24.4307 28.29306 -0.01107
C 25.69175 27.62771 -0.01586
C 25.71188 26.24735 -0.01971
C 24.50902 25.51257 -0.02118
C 24.55341 24.13006 0.00733
C 25.85747 23.31842 -0.00178
C 25.77653 21.92644 0.00768
C 24.61671 21.234 -0.0276
C 24.57121 19.8733 0.03005
C 25.76846 19.13532 -0.04078
C 25.8542 17.7675 0.02117
C 24.60666 17.02818 0.02737
C 24.61439 15.59955 -0.00498
C 25.85745 14.92991 0.00135
C 23.40338 0.69529 0.01153
C 25.74979 13.51565 0.03102
C 23.37214 2.1177 0.02239
C 22.1392 4.23975 -0.02845
C 22.09248 24.04926 0.0106
C 23.38104 23.38764 -0.01154
C 23.36263 21.93278 -0.01721
C 22.10773 21.27852 -0.02422
C 22.12136 19.85403 0.01277
C 23.29357 19.10109 0.00096
C 23.24044 17.70319 -0.01527
C 22.11895 16.97178 0.01087
C 22.08961 15.55196 0.00199
C 23.3489 14.83135 0.01511
C 23.28822 13.47703 -0.00478
C 22.07272 12.7736 -0.01662
C 22.09387 11.36877 -0.01185
C 23.34867 10.66464 0.01126
C 23.37607 9.30773 0.01852
C 22.15709 8.49179 -0.00381
C 22.20549 7.08324 0.03046
C 23.34563 6.34004 0.0296
C 23.35627 4.92878 0.03374
C 22.13071 2.68029 -0.03213
C 30.66115 31.96677 0.00924
C 24.52111 12.75195 0.02555
C 25.75558 10.57831 -0.00285
C 28.22452 19.1744 -0.00294
C 28.29226 17.74674 0.00152
C 27.11318 17.00316 0.01257
C 27.04866 15.5472 0.02316
C 28.30252 14.872 0.04185
C 28.26723 13.43713 0.00194
C 26.94497 12.71668 -0.00621
C 26.96862 11.30443 0.02611
C 28.25689 10.67341 0.02198
C 28.30905 9.25453 0.01094
C 27.04592 8.49856 0.00235
C 27.06687 7.09327 0.01495
C 28.30374 6.40877 0.01259
C 28.19746 4.95085 0.01799
C 26.99978 4.20357 0.01699
C 27.03564 2.8313 -0.00416
C 28.20615 2.14067 0.01177
C 28.19658 0.66893 0.04266
C 26.91383 34.03044 0.01324
C 27.03814 19.83685 0.00826
C 24.54212 11.35356 0.01423
C 27.00986 21.21738 0.00487
C 28.31694 23.38213 -0.02815
C 25.8052 9.20424 -0.009
C 24.49384 8.46217 -0.01199
C 24.55616 7.06943 -0.00229
C 25.80368 6.34465 -0.00938
C 25.80714 4.90712 -0.0264
C 24.53238 4.3178 -0.01154
C 24.54992 2.81804 0.00684
C 25.81873 2.09257 -0.01052
C 25.77 0.72609 -0.01679
C 24.54094 34.04689 0.00367
C 27.01298 32.6193 0.04306
C 28.26163 31.92072 0.00996
C 28.20288 30.50027 0.00195
C 26.92999 29.72521 -0.00802
C 26.97573 28.34766 -0.00218
C 28.18872 27.60809 -0.01654
C 28.25135 26.07977 -0.00037
C 26.94742 25.50083 -0.0032
C 27.04226 24.06042 0.00622
C 28.22222 21.99751 -0.00942
C 2.3924 32.69674 -0.03996
