327
Graphene
C 0.00083 0.0301 0.01295
C 18.48934 27.77653 0.00213
C 18.45949 26.28036 -0.00066
C 17.20816 25.5894 -0.00289
C 17.26769 24.20901 0.00028
C 18.485 23.41127 -0.02213
C 18.44075 21.95702 0.03698
C 17.20864 21.27527 -0.00109
C 17.24506 28.37136 -0.05302
C 17.20045 19.50617 -0.00491
C 18.52307 0.63745 -0.0258
C 17.32332 0.0677 -0.0331
C 19.72593 32.58547 -0.00316
C 20.96498 31.92673 0.02188
C 20.89645 30.53916 -0.01979
C 19.7424 29.75714 0.02691
C 19.7786 28.42372 -0.01581
C 18.54677 18.94533 0.03338
C 17.12901 29.80653 -0.04147
C 18.34952 30.50363 -0.02815
C 18.46523 31.92659 0.03505
C 12.17447 0.08613 -0.0108
C 14.73876 32.7584 -0.00368
C 16.02958 32.05846 -0.02696
C 15.99773 30.63726 -0.00114
C 14.74979 29.86607 0.00228
C 14.82059 28.47528 0.00798
C 16.01729 27.6577 0.00422
C 15.94887 26.29585 0.0351
C 14.74938 25.59206 -0.03113
C 14.76213 24.16734 0.02098
C 16.03887 23.5148 0.01848
C 15.98092 22.01553 -0.00619
C 14.73564 21.37436 -0.02162
C 14.71352 19.85238 0.00889
C 15.82998 19.07191 -0.00481
C 14.82409 34.03494 0.00979
C 17.19322 32.7255 0.01443
C 20.96205 27.68362 0.01452
C 13.51366 19.16226 -0.01957
C 20.84747 26.26485 0.04892
C 19.76185 24.17501 -0.03557
C 22.05356 25.50076 0.0106
C 22.14745 24.04958 -0.01154
C 23.40081 23.43135 -0.01721
C 23.40372 22.02895 -0.02422
C 22.14926 21.37866 0.01277
C 22.09468 19.90859 0.00096
C 23.31995 19.18342 -0.01527
C 23.26276 26.24408 -0.01594
C 23.27422 17.81453 0.01087
C 22.12579 15.62274 0.01511
C 23.36781 14.91543 -0.00478
C 23.31164 13.43996 -0.01662
C 22.0396 12.84492 -0.01185
C 22.06466 11.41154 0.01126
C 23.36267 10.60375 0.01852
C 23.3609 9.28802 -0.00381
C 22.06116 17.09625 0.00199
C 23.38186 27.58475 0.00742
C 22.2107 28.35808 -0.00311
C 22.14781 29.71722 0.00675
C 20.95385 23.33953 0.03754
C 20.89218 21.98848 0.01739
C 19.67352 21.29623 0.00755
C 19.55495 19.83515 -0.0054
C 20.8458 19.22344 0.00667
C 20.76668 17.76299 0.00143
C 19.48499 17.27165 -0.017
C 20.88743 15.02225 0.00364
C 20.93311 10.6394 -0.00831
C 20.95613 4.92074 -0.02957
C 19.71094 2.86116 -0.04422
C 20.8677 2.19009 0.00654
C 20.92434 0.78415 -0.00703
C 19.70588 0.01688 -0.04076
C 22.14084 32.65755 -0.00652
C 23.34064 31.90848 0.0058
C 23.36271 30.47178 -0.00865
C 19.62905 25.56725 -0.00111
C 22.13495 8.51336 0.03046
C 12.29886 19.81104 0.02058
C 13.4692 22.02681 -0.03682
C 4.81552 29.8068 0.00438
C 4.87277 28.42339 0.01291
C 6.13104 27.70822 0.00093
C 6.21606 26.28643 0.00057
C 4.97699 25.53532 -0.01634
C 4.89405 24.12192 -0.00334
C 6.14299 23.43006 0.02339
C 6.1083 30.46164 -0.00191
C 6.14431 21.96219 0.01641
C 4.81205 19.71779 0.01364
C 6.0697 19.21098 -0.01062
C 5.00579 2.84201 -0.00033
C 6.16656 2.12022 0.03589
C 6.1321 0.78382 -0.02759
C 4.93188 34.06476 0.0402
C 7.31287 32.67703 0.00572
C 4.85045 21.29963 -0.00719
C 6.07694 31.93209 0.00373
C 4.91095 32.63251 0.02147
C 2.53476 34.06633 -0.014
C 3.64111 30.58492 -0.00892
C 2.42704 29.88464 -0.01362
C 2.4487 28.40047 -0.0008
C 3.65209 27.73797 0.0288
C 3.73743 26.24098 0.00393
C 2.45092 25.63081 0.00895
C 2.36691 24.22964 0.00685
C 3.6396 23.50396 0.02888
C 3.64732 22.06742 -0.00482
C 2.45872 21.37206 -0.01384
C 2.41014 19.92388 0.03693
C 3.56545 19.15333 0.01745
C 2.53293 17.05756 0.00488
C 2.60536 4.21969 -0.01004
C 2.53205 2.8357 -0.02896
C 3.7344 2.16885 -0.00131
C 3.70209 0.76617 -0.01118
C 8.58403 31.95159 0.03592
C 12.22672 21.32787 0.01965
C 8.62238 30.54523 0.00406
C 7.33639 28.41727 0.02841
C 10.99059 21.99762 -0.0014
C 9.77763 21.16178 0.02162
C 9.89709 19.82053 0.0076
C 11.01357 19.29111 0.01241
C 10.99601 0.53191 -0.01454
C 9.73487 0.062 0.01945
C 12.33181 32.77565 0.01416
C 10.99541 23.41802 0.00415
C 13.47594 31.99171 0.03542
C 12.31866 29.87253 0.00244
C 12.32358 28.38121 -0.01717
C 13.57986 27.7346 0.05265
C 13.53606 26.31316 -0.01952
C 12.28694 25.57442 -0.02813
C 12.25342 24.15974 0.00374
C 13.51765 23.45664 0.00052
C 13.46337 30.58632 0.02299
C 9.75578 24.13538 -0.02162
C 9.88451 25.54065 0.01363
C 11.08742 26.29124 0.01877
C 8.63815 27.69884 -0.01111
C 8.66534 26.26854 -0.01275
C 7.45036 25.59909 0.00985
C 7.3799 24.09233 -0.02245
C 8.5903 23.35609 -0.00428
C 8.601 21.84515 0.03101
C 7.41111 21.18529 -0.01536
C 7.24909 19.85244 -0.02689
C 8.57806 2.15555 -0.01046
C 8.47315 0.83376 -0.00891
C 7.32406 0.01489 0.02819
C 9.74178 32.67923 0.00165
C 11.07791 31.98848 -0.02971
C 11.12213 30.55256 0.02894
C 9.85984 29.8359 -0.01789
C 9.84537 28.45885 0.00444
C 11.09135 27.75142 -0.00925
C 7.36636 29.81646 0.00943
C 3.70411 31.95826 -0.04848
C 22.13549 7.22375 0.0296
C 23.4209 5.03191 -0.02845
C 33.21566 30.65625 0.00682
C 32.0216 29.92078 -0.01779
C 31.88608 28.47966 0.03794
C 33.19326 27.83803 0.01927
C 33.14367 26.41626 0.01574
C 31.87876 25.57711 -0.02383
C 31.89747 24.09095 -0.01429
C 33.17477 32.05087 0.00026
C 33.12368 23.3878 -0.0136
C 31.95515 21.29407 -0.02474
C 31.95027 19.87607 0.00369
C 33.19535 19.1784 0.00455
C 33.13707 17.76901 -0.00644
C 31.96551 17.07202 -0.01839
C 31.91508 15.65644 0.00137
C 33.17459 14.95141 0.00199
C 33.23692 21.95206 0.00594
C 31.93739 32.68851 0.0544
C 29.52475 0.01551 -0.02142
C 30.7242 0.71982 0.01428
C 30.70604 19.16397 -0.0405
C 30.69418 17.72171 -0.01303
C 29.54956 17.00126 -0.01461
C 29.4576 15.63954 -0.02155
C 30.66275 14.94749 -0.00944
C 30.60328 13.49426 -0.03735
C 29.42864 12.69197 -0.00971
C 29.40494 11.30823 0.01518
C 30.70786 10.63529 0.01908
C 30.72766 9.24182 0.07705
C 29.4488 8.52863 0.0103
C 29.48199 7.07848 0.02108
C 30.75514 6.39579 0.00716
C 30.78865 4.96884 0.00307
C 29.52583 4.326 0.00346
C 29.57334 2.87434 0.01713
C 30.77398 2.17366 -0.01694
C 33.17634 13.51473 0.04381
C 29.53782 19.79126 0.01705
C 31.87145 12.84164 0.02806
C 33.33483 10.69569 -0.00069
C 0.03082 21.30033 0.00648
C 34.42618 19.86825 0.02114
C 1.24109 19.1424 -0.02957
C 1.34502 17.69693 0.00343
C 0.03111 17.01582 -0.02656
C 34.34213 15.63249 -0.02442
C 34.26201 12.7804 -0.00027
C 1.22051 22.0448 0.01223
C 0.03057 11.4504 -0.00583
C 0.13895 7.07546 -0.02849
C 1.23048 6.31333 0.02931
C 1.37484 4.95352 0.00628
C 0.04473 4.23114 -0.0345
C 34.41518 2.83968 -0.00931
C 1.24393 2.09218 -0.00939
C 1.20246 0.74575 -0.00468
C 34.23702 8.35557 -0.02302
C 1.15936 23.46221 -0.01678
C 34.35465 24.19043 0.01951
C 34.39152 25.62961 -0.02213
C 33.21922 9.20493 0.04926
C 31.91162 8.51042 -0.03838
C 31.97502 7.04836 0.00349
C 33.24421 6.33119 -0.00323
C 33.21541 4.96879 -0.00841
C 32.00375 4.24032 0.0001
C 32.01775 2.7708 -0.02927
C 33.19624 2.07015 -0.01404
C 33.23431 0.69885 0.01027
C 31.95726 0.05894 0.01831
C 34.43197 32.74102 -0.01037
C 1.23374 32.07618 -0.00439
C 1.193 30.61131 -0.00598
C 0.00952 29.95433 -0.05239
C 34.40663 28.52176 0.03076
C 1.22152 27.75427 0.00723
C 1.21364 26.33333 0.02712
C 32.04312 11.41733 0.01504
C 23.28797 6.39859 0.03374
C 29.46709 21.17538 0.0101
C 30.6635 23.35589 0.03531
C 24.55936 15.56447 0.00135
C 25.8078 14.93913 0.03102
C 25.81878 13.49496 0.02555
C 24.55726 12.77237 0.01423
C 24.6475 11.34393 -0.00285
C 25.82684 10.62124 -0.009
C 25.7995 9.2187 -0.01199
C 24.51644 17.025 -0.00498
C 24.64879 8.48649 -0.00229
C 25.79054 6.32754 -0.0264
C 25.81582 4.89567 -0.01154
C 24.61664 4.29729 0.00684
C 24.61387 2.84552 -0.01052
C 25.81105 2.14233 -0.01679
C 25.83342 0.69032 0.00367
C 24.522 0.0329 0.04306
C 24.57679 7.10853 -0.00938
C 25.74895 17.71639 0.02737
C 25.82301 19.14128 0.02117
C 24.55343 19.90682 -0.04078
C 22.18734 4.36538 -0.03213
C 22.12877 2.84628 0.02239
C 23.30771 2.236 0.01153
C 23.38133 0.79552 0.02734
C 22.14686 0.06486 -0.0055
C 24.56364 32.65297 0.01515
C 25.82784 31.97751 -0.00225
C 25.85588 30.53788 0.00071
C 24.6014 29.80612 -0.01107
C 24.59584 28.37588 -0.01586
C 25.83359 27.67896 -0.01971
C 25.87659 26.2568 -0.02118
C 24.61258 25.51427 0.00733
C 24.68025 24.20163 -0.00178
C 25.86328 23.39212 0.00768
C 25.77742 21.95585 -0.0276
C 24.52957 21.24371 0.03005
C 27.04816 32.64222 0.00996
C 30.73852 21.96046 -0.00669
C 28.30549 31.92821 0.00195
C 27.0789 29.80027 -0.00218
C 28.25613 6.36391 0.01799
C 28.30157 4.92258 0.01699
C 27.04624 4.24838 -0.00416
C 27.13251 2.83351 0.01177
C 28.32018 2.14013 0.04266
C 28.29754 0.71308 0.01324
C 27.05411 0.01412 0.0014
C 27.02231 7.00339 0.01259
C 29.51549 32.6772 0.00924
C 30.78649 30.54736 0.00261
C 29.52482 29.87965 0.03265
C 29.45891 28.4323 -0.02049
C 30.69641 27.69095 -0.01854
C 30.71373 26.24078 -0.01415
C 29.4807 25.46811 -0.03039
C 29.46724 24.02747 0.01836
C 30.68068 31.97602 0.02326
C 27.00781 8.41911 0.01495
C 28.24183 9.18034 0.00235
C 28.15063 10.63307 0.01094
C 27.06331 28.37781 -0.01654
C 28.27279 27.65428 -0.00037
C 28.28462 26.17186 -0.0032
C 27.08528 25.51463 0.00622
C 27.04995 24.083 -0.02815
C 28.26751 23.32103 -0.00942
C 28.24861 21.94387 0.00487
C 27.01245 21.27953 0.00826
C 27.08342 19.81307 -0.00294
C 28.28471 19.13192 0.00152
C 28.21256 17.68289 0.01257
C 27.02284 17.04672 0.02316
C 27.05168 15.61651 0.04185
C 28.27312 14.90006 0.00194
C 28.26164 13.5048 -0.00621
C 27.00994 12.78194 0.02611
C 27.00173 11.37538 0.02198
C 28.31778 30.50173 -0.00802
C 2.48426 32.68525 0.01572
