307
Graphene
C 34.23103 34.07019 0.01295
C 11.11564 0.67097 -0.01979
C 9.90322 34.06463 0.02691
C 12.29609 32.64096 -0.01581
C 13.56003 31.88862 0.01452
C 13.54386 30.5012 0.04892
C 12.31149 29.78175 -0.00111
C 12.28405 28.42539 -0.03557
C 13.43109 27.72775 0.03754
C 13.35457 26.34298 0.01739
C 12.20608 25.60566 0.00755
C 12.17765 24.17285 -0.0054
C 13.49861 23.52012 0.00667
C 13.5422 21.95773 0.00143
C 12.29752 21.37649 -0.017
C 13.62834 4.83947 0.00364
C 11.04805 2.15687 0.02188
C 12.2769 4.59581 -0.00831
C 9.73223 2.94561 -0.00316
C 10.94419 5.26983 -0.0258
C 8.59978 2.12659 0.00979
C 8.68785 0.72534 0.01443
C 7.38022 34.016 0.03505
C 9.88181 32.63322 -0.02815
C 11.0601 31.89675 -0.04147
C 11.10752 30.46573 -0.05302
C 9.78789 29.79897 0.00213
C 9.75634 28.37635 -0.00066
C 11.04552 27.7599 -0.00289
C 10.93402 26.34219 0.00028
C 9.71604 25.62319 -0.02213
C 9.67234 24.12772 0.03698
C 10.94366 23.3018 -0.00109
C 10.9287 21.78798 -0.00491
C 9.64315 21.22819 0.03338
C 9.74733 4.39639 -0.0331
C 12.21109 2.95762 -0.02957
C 13.54813 2.25666 -0.04422
C 13.48782 0.68208 0.00654
C 17.09716 19.89858 -0.01662
C 18.19689 19.42598 -0.01185
C 18.28885 6.38481 0.01126
C 18.45 5.00965 0.01852
C 17.26126 4.21317 -0.00381
C 17.28729 2.78698 0.03046
C 18.49978 2.12106 0.0296
C 18.4422 0.65949 0.03374
C 17.15029 34.05288 -0.02845
C 19.66496 32.73881 -0.03213
C 19.53268 18.6495 0.02239
C 20.96363 19.22281 0.01153
C 21.28217 17.65029 0.02734
C 19.91105 17.39724 -0.0055
C 21.15989 15.02503 0.01515
C 15.99141 20.57488 -0.00478
C 18.46233 32.08213 0.01511
C 17.28786 32.68462 0.00199
C 14.71446 34.0163 0.01087
C 12.27908 34.0329 -0.00703
C 14.77611 32.57603 -0.04076
C 16.08277 31.88798 -0.00652
C 16.09989 30.4662 0.0058
C 14.88043 29.6917 -0.00865
C 14.678 28.3422 0.00675
C 14.58769 25.72033 -0.00311
C 7.36337 2.81146 -0.00481
C 14.74359 24.40342 0.00742
C 15.89706 22.42019 0.0106
C 14.85859 21.27352 -0.01154
C 16.05568 4.99895 -0.01721
C 14.89419 4.30857 -0.02422
C 14.81882 2.85643 0.01277
C 16.00318 2.11626 0.00096
C 15.93506 0.66003 -0.01527
C 16.00074 23.67336 -0.01594
C 20.86829 13.79139 -0.00225
C 7.31584 4.22201 0.00889
C 8.28284 6.5087 -0.00619
C 3.59383 10.71146 0.00943
C 3.70081 9.33377 0.02841
C 2.39582 8.70244 -0.01111
C 2.35669 7.1679 -0.01275
C 3.58404 6.43752 0.00985
C 3.57916 5.01661 -0.02245
C 2.35347 4.29137 -0.00428
C 2.35305 2.90346 0.03101
C 3.56265 2.17891 -0.01536
C 3.60148 0.79857 -0.02689
C 2.29797 34.06849 -0.01046
C 4.90848 32.72741 -0.00891
C 6.13252 32.07605 0.02819
C 6.19079 30.57688 0.00165
C 4.82525 29.95092 -0.02971
C 2.38191 11.4206 0.00406
C 4.91031 28.50532 0.02894
C 2.27978 12.88841 0.03592
C 3.73352 14.99359 0.0402
C 3.62367 30.5769 -0.00191
C 2.40654 29.85294 0.00438
C 2.48778 28.40816 0.01291
C 3.69536 27.73919 0.00093
C 3.65307 26.35742 0.00057
C 2.41738 25.58768 -0.01634
C 2.41643 24.13578 -0.00334
C 3.62001 23.47357 0.02339
C 3.65449 22.08071 0.01641
C 2.4387 21.31175 -0.00719
C 2.4306 19.96165 0.01364
C 3.69539 19.17066 -0.01062
C 3.7277 17.74532 -0.00033
C 2.38713 17.08181 0.03589
C 2.41664 15.69579 -0.02759
C 3.57168 13.55681 0.00572
C 6.0709 27.75674 -0.01789
C 6.0664 26.30946 0.00444
C 4.90556 25.57586 -0.00925
C 4.80031 0.10052 -0.03682
C 7.40429 32.68061 0.01965
C 8.68105 31.93005 0.02058
C 8.65213 30.52266 -0.01957
C 7.38913 29.79642 -0.0108
C 7.29472 28.42649 -0.00368
C 8.50724 27.73331 -0.02696
C 8.46194 26.32099 -0.00114
C 7.31684 25.62549 0.00228
C 7.30052 24.19154 0.00798
C 8.48631 23.44299 0.00422
C 8.5304 22.02899 0.0351
C 7.33138 21.32944 -0.03113
C 7.43356 20.01832 0.02098
C 7.14297 7.28625 0.01848
C 6.08105 0.69796 0.00052
C 6.03034 2.17548 0.00374
C 4.80522 2.84419 -0.02813
C 4.81719 4.2868 -0.01952
C 4.89709 24.20553 0.01877
C 6.10847 23.47827 0.01363
C 6.08063 22.02546 -0.02162
C 4.88286 21.37772 0.00415
C 4.95082 19.95435 -0.0014
C 6.26911 19.24631 0.02162
C 6.03005 17.94541 0.0076
C 8.45179 5.13934 -0.02162
C 5.08281 17.03589 0.01241
C 4.82015 12.81464 0.01945
C 4.63346 11.5283 0.01416
C 6.36042 8.43914 0.03542
C 4.94925 8.41657 0.02299
C 4.82575 6.94601 0.00244
C 6.00578 6.24171 -0.01717
C 6.07823 4.88319 0.05265
C 4.86538 15.66318 -0.01454
C 3.70282 31.96491 0.00373
C 20.84987 10.73671 0.00071
C 19.59838 8.57218 -0.01586
C 31.93659 29.65024 0.01927
C 31.7945 28.27864 0.01574
C 33.15079 27.67198 -0.02383
C 33.21305 26.27299 -0.01429
C 32.00633 25.45429 -0.0136
C 32.13405 23.99811 0.00594
C 33.23475 23.39225 -0.02474
C 31.5969 15.78671 0.00369
C 32.9244 15.07954 0.00455
C 32.98888 13.64987 -0.00644
C 31.8199 12.9315 -0.01839
C 31.8248 11.49318 0.00137
C 33.08504 10.71254 0.00199
C 33.1482 9.31343 0.04381
C 31.90682 8.64008 0.02806
C 33.1353 30.45806 0.03794
C 31.94856 7.14879 0.01504
C 33.10758 31.92312 -0.01779
C 29.44284 34.0443 0.00026
C 29.43784 23.75336 -0.03735
C 30.60726 15.0774 -0.00971
C 30.57981 13.63297 0.01518
C 29.3389 13.0137 0.01908
C 29.35447 11.54022 0.07705
C 30.60424 10.76024 0.0103
C 30.70162 9.29752 0.02108
C 29.45721 8.61107 0.00716
C 29.40434 7.14739 0.00307
C 30.69944 6.45377 0.00346
C 30.65717 5.04875 0.01713
C 29.40638 4.29465 -0.01694
C 29.43291 2.91732 0.01428
C 30.59753 2.16609 -0.02142
C 30.63678 0.73502 0.0544
C 31.83395 32.65193 0.00682
C 33.1688 6.4964 -0.00069
C 33.18811 5.02994 0.04926
C 31.89631 4.32382 -0.03838
C 34.17375 15.71688 0.02114
C 1.07389 15.01201 -0.02957
C 1.06889 13.59958 0.00343
C 34.24742 12.9071 -0.02656
C 34.28296 11.4802 -0.02442
C 1.15521 10.79443 -0.00027
C 1.12855 9.37857 -0.00583
C 34.40608 8.61144 -0.02302
C 34.37456 7.20319 -0.02849
C 1.10741 6.46047 0.02931
C 1.149 5.02745 0.00628
C 34.37591 4.3299 -0.0345
C 34.29861 2.87621 -0.00931
C 1.10657 2.19695 -0.00939
C 1.06918 0.73442 -0.00468
C 0.01645 17.05906 0.00648
C 1.18531 17.83105 0.01223
C 1.16666 19.25126 -0.01678
C 0.08147 20.07841 0.01951
C 31.86242 2.84933 0.00349
C 33.05785 2.1404 -0.00323
C 33.04912 0.7028 -0.00841
C 31.86637 34.00512 0.0001
C 34.25583 32.63596 -0.02927
C 1.10763 32.00172 -0.01404
C 1.16373 30.54458 0.01027
C 29.86514 24.99709 -0.00944
C 34.33935 29.85022 0.01831
C 1.23713 27.73899 -0.00439
C 1.16887 26.25426 -0.00598
C 34.41615 25.5225 -0.05239
C 0.05165 24.05884 0.03076
C 1.24382 23.4156 0.00723
C 1.21658 22.01915 0.02712
C 34.42921 21.40367 -0.02213
C 34.3923 28.37237 -0.01037
C 20.64434 9.36456 -0.01107
C 30.72264 26.03522 -0.02155
C 29.48643 28.38167 -0.01303
C 21.93067 8.60768 -0.00938
C 21.99717 7.1686 -0.0264
C 23.25665 6.5674 -0.01154
C 23.28545 5.11257 0.00684
C 22.09391 4.32083 -0.01052
C 22.10759 2.81787 -0.01679
C 23.33857 2.1744 0.00367
C 23.27266 0.73229 0.04306
C 22.19587 34.02344 0.00996
C 24.56836 32.6774 0.00195
C 25.74733 31.98154 -0.00802
C 25.11561 19.60907 -0.00218
C 25.96532 18.61233 -0.01654
C 26.18898 17.25282 -0.00037
C 24.79047 16.9336 -0.0032
C 23.18739 9.35478 -0.00229
C 24.59457 15.55275 0.00622
C 23.2223 10.78944 -0.01199
C 21.88606 12.90875 -0.00285
C 19.44777 7.18532 -0.01971
C 20.68917 6.44559 -0.02118
C 20.86979 4.96035 0.00733
C 19.63375 4.22664 -0.00178
C 19.6932 2.88072 0.00768
C 20.92217 2.12987 -0.0276
C 20.91012 0.75928 0.03005
C 19.6542 34.06076 -0.04078
C 22.25916 19.60524 0.02117
C 23.71051 19.36976 0.02737
C 23.70913 17.7794 -0.00498
C 22.49941 17.07529 0.00135
C 22.29276 15.67028 0.03102
C 23.41293 14.88072 0.02555
C 23.21356 13.45691 0.01423
C 21.93713 11.54374 -0.009
C 25.81907 14.9515 -0.02815
C 25.76624 13.52114 -0.00942
C 24.44676 12.86037 0.00487
C 28.1884 10.7767 0.0014
C 28.20032 9.33307 0.00924
C 26.96028 8.58529 0.02326
C 26.96146 7.20078 0.00261
C 28.17343 6.41162 0.03265
C 28.24572 5.02229 -0.02049
C 26.96971 4.36134 -0.01854
C 26.967 2.89413 -0.01415
C 28.20485 2.15148 -0.03039
C 28.20362 0.74114 0.01836
C 26.96725 34.04044 0.03531
C 29.39233 32.61315 -0.00669
C 30.54861 31.8594 0.0101
C 30.6084 30.41918 0.01705
C 29.32124 29.70972 -0.0405
C 26.99781 11.46808 0.01324
C 26.97715 12.93479 0.04266
C 28.11143 13.90703 0.01177
C 28.05497 15.38943 -0.00416
C 24.43719 11.43575 0.00826
C 25.76814 10.73288 -0.00294
C 25.77582 9.29461 0.00152
C 24.45629 8.63363 0.01257
C 24.5323 7.25111 0.02316
C 25.66816 6.48629 0.04185
C 25.75058 5.09293 0.00194
C 30.42037 27.43904 -0.01461
C 24.51168 4.33847 -0.00621
C 25.73084 2.13087 0.02198
C 25.74706 0.74594 0.01094
C 24.50997 0.01414 0.00235
C 26.92985 32.68355 0.01495
C 28.16533 31.85757 0.01259
C 28.12487 30.51644 0.01799
C 26.85028 16.06025 0.01699
C 24.46663 2.85127 0.02611
C 2.34698 32.67948 0.02147
