274
Graphene
C 34.32624 0.07275 0.01295
C 16.0316 30.42377 0.01087
C 15.9855 31.85648 -0.01527
C 14.84665 32.60471 0.00096
C 12.20106 34.04596 0.01277
C 13.47726 0.75774 -0.02422
C 13.52381 2.14388 -0.01721
C 12.33715 2.99652 -0.01154
C 12.43551 4.37737 0.0106
C 13.70581 4.92997 -0.01594
C 13.68407 6.39767 0.00742
C 12.43075 7.16139 -0.00311
C 12.3399 25.6291 0.00675
C 13.52784 26.17429 -0.00865
C 13.48442 27.69975 0.0058
C 14.69005 29.82209 0.00199
C 12.20772 28.39668 -0.00652
C 13.45386 30.40908 -0.00703
C 13.49354 31.9592 0.00654
C 12.23572 32.63468 -0.04422
C 9.8111 0.01823 -0.02957
C 11.06061 0.81488 -0.00831
C 11.10873 2.24472 0.00364
C 9.82997 2.95447 -0.017
C 9.863 4.36406 0.00143
C 11.11367 5.00695 0.00667
C 11.1451 6.54767 -0.0054
C 9.89728 7.12117 0.00755
C 9.68563 25.53004 0.01739
C 11.02692 26.08006 0.03754
C 10.9683 27.66032 -0.03557
C 12.22701 29.79594 -0.04076
C 9.76847 28.41126 -0.00111
C 14.71504 28.36745 0.01511
C 16.07059 26.16622 -0.01662
C 18.98167 21.03673 0.00135
C 19.75122 32.78081 -0.00498
C 17.16021 34.00237 0.02737
C 18.42586 0.72765 0.02117
C 18.42704 2.08433 -0.04078
C 17.21747 2.78776 0.03005
C 17.30656 4.20807 -0.0276
C 18.55217 4.9257 0.00768
C 18.44244 6.38096 -0.00178
C 17.4165 6.93258 0.00733
C 18.13059 22.30885 -0.02118
C 18.50575 23.58395 -0.01971
C 18.02668 24.85851 -0.01586
C 17.90156 26.03553 -0.01107
C 15.88962 27.57031 -0.00478
C 18.20891 27.36145 0.00071
C 17.32961 29.65995 0.01515
C 18.39208 30.49848 -0.0055
C 18.75498 31.81383 0.02734
C 17.25956 32.57232 0.01153
C 14.72633 34.06885 0.02239
C 15.92904 0.66486 -0.03213
C 15.9633 2.01128 -0.02845
C 14.76277 2.75903 0.03374
C 14.84867 4.19706 0.0296
C 16.09902 4.83787 0.03046
C 16.15909 6.35327 -0.00381
C 14.93371 7.11555 0.01852
C 14.48155 8.4753 0.01126
C 14.87541 25.71172 -0.01185
C 17.14673 28.18531 -0.00225
C 9.80922 29.80519 0.04892
C 11.00089 30.50123 0.01452
C 10.98903 31.91414 -0.01581
C 4.86059 29.84728 -0.0108
C 6.0359 30.61119 -0.01957
C 6.08262 32.00115 0.02058
C 4.84071 32.78375 0.01965
C 2.37343 0.04498 -0.03682
C 3.59563 0.7928 0.00052
C 3.67641 2.19843 0.00374
C 2.33462 2.91585 -0.02813
C 2.42123 4.30804 -0.01952
C 3.67469 5.00165 0.05265
C 3.64891 6.4325 -0.01717
C 2.38399 7.16011 0.00244
C 2.45137 8.60446 0.02299
C 3.63318 9.36468 0.03542
C 4.84471 28.4113 -0.00368
C 3.65619 10.67508 0.01416
C 2.40133 12.8823 -0.01454
C 2.32088 15.76578 0.01241
C 2.16163 17.0329 0.0076
C 2.43063 20.01348 0.02162
C 2.38686 21.40682 -0.0014
C 3.50821 22.13352 0.00415
C 3.63951 23.49489 -0.02162
C 2.35785 24.15066 0.01363
C 2.30514 25.66623 0.01877
C 3.57612 26.25309 -0.00925
C 3.5611 27.70955 0.00444
C 2.40347 28.48521 -0.01789
C 2.3588 29.89531 0.02894
C 3.6318 30.55827 -0.02971
C 2.60014 11.5134 0.01945
C 6.11873 27.7503 -0.02696
C 6.04775 26.33307 -0.00114
C 4.82495 25.57065 0.00228
C 9.84298 32.71364 0.02691
C 7.31219 34.06208 -0.01979
C 8.51285 0.76711 0.02188
C 8.56735 2.15244 -0.00316
C 7.36098 2.82935 -0.0331
C 7.40708 4.33178 -0.0258
C 8.65752 5.09426 0.03338
C 8.61719 6.55965 -0.00491
C 7.44046 7.23881 -0.00109
C 7.21471 8.6617 0.03698
C 7.14754 24.2029 -0.02213
C 7.32008 25.52909 0.00028
C 8.48019 26.29159 -0.00289
C 8.48775 27.69891 -0.00066
C 7.29188 28.49117 0.00213
C 7.31069 29.9256 -0.05302
C 8.59292 30.54831 -0.04147
C 4.83401 24.1271 0.00798
C 6.089 23.41009 0.00422
C 6.09889 9.23353 0.0351
C 4.8444 8.64769 -0.03113
C 4.83521 7.25247 0.02098
C 6.15376 6.5071 0.01848
C 19.92807 20.2553 0.03102
C 6.15331 5.08241 -0.00619
C 4.86096 2.94993 0.00889
C 6.0881 2.20861 -0.00481
C 6.03542 0.79067 0.00979
C 4.84802 0.11847 0.01443
C 7.35446 32.67025 0.03505
C 8.62881 31.93041 -0.02815
C 4.91802 4.4078 -0.02162
C 20.97125 19.44569 0.02555
C 20.95096 18.05888 0.01423
C 21.53972 6.33915 -0.00285
C 31.91339 4.38822 -0.03838
C 33.15524 5.11096 0.04926
C 33.14819 6.56219 -0.00069
C 31.83289 7.16096 0.01504
C 31.91073 8.54475 0.02806
C 33.14118 9.25761 0.04381
C 33.11093 10.681 0.00199
C 31.90896 11.44562 0.00137
C 31.87126 12.84786 -0.01839
C 33.14012 13.5474 -0.00644
C 33.12055 14.93156 0.00455
C 31.88233 15.67928 0.00369
C 31.88909 17.1329 -0.02474
C 33.12371 17.81397 0.00594
C 31.95911 2.97536 0.00349
C 33.14789 19.27653 -0.0136
C 31.95708 21.33981 -0.02383
C 32.93082 22.2496 0.01574
C 33.14716 23.5762 0.01927
C 33.62697 26.96184 0.03794
C 33.06764 30.61793 -0.01779
C 32.90378 31.98423 0.00682
C 31.81781 32.79755 0.00026
C 29.59854 0.02451 0.0544
C 30.69781 0.78227 -0.02142
C 30.65278 2.31456 0.01428
C 29.42282 2.91759 -0.01694
C 29.39759 4.343 0.01713
C 30.66411 5.03365 0.00346
C 30.62357 6.44366 0.00307
C 31.9449 19.97447 -0.01429
C 33.12893 2.23796 -0.00323
C 33.11587 0.80587 -0.00841
C 31.91031 0.10016 0.0001
C 1.17091 0.81517 -0.00468
C 1.17107 2.2114 -0.00939
C 34.39853 2.93485 -0.00931
C 34.40173 4.36104 -0.0345
C 1.18666 5.06232 0.00628
C 1.12833 6.43866 0.02931
C 34.39362 7.20125 -0.02849
C 34.39357 8.60959 -0.02302
C 1.18391 9.32808 -0.00583
C 1.1776 10.74088 -0.00027
C 0.0279 11.44846 -0.02442
C 34.37704 12.82634 -0.02656
C 1.21673 13.58087 0.00343
C 1.1499 14.92759 -0.02957
C 34.38976 15.70489 0.02114
C 34.39504 17.07708 0.00648
C 1.10839 17.87444 0.01223
C 34.28373 32.74514 -0.02927
C 1.0702 31.93055 -0.01404
C 1.09846 30.44112 0.01027
C 34.17822 29.75748 0.01831
C 34.21387 28.31235 -0.01037
C 1.15378 27.82647 -0.00439
C 29.3357 7.10248 0.00716
C 1.24918 26.4687 -0.00598
C 34.15594 24.35827 0.03076
C 1.07383 23.55199 0.00723
C 1.06531 22.12822 0.02712
C 34.30395 21.42831 -0.02213
C 34.3385 20.01619 0.01951
C 1.19168 19.35497 -0.01678
C 34.29406 25.77043 -0.05239
C 3.50989 32.01333 0.00165
C 29.51537 8.55662 0.02108
C 30.73527 10.72038 0.07705
C 24.19188 7.14113 -0.00621
C 24.42279 8.55437 0.00194
C 25.62802 9.24949 0.04185
C 25.71627 10.65665 0.02316
C 24.62247 11.56124 0.01257
C 24.62397 12.74145 0.00152
C 25.73493 13.48989 -0.00294
C 25.85128 14.87965 0.00826
C 24.59212 15.50654 0.00487
C 24.6133 16.86536 -0.00942
C 25.74965 17.69561 -0.02815
C 22.03084 33.95784 0.00622
C 23.2781 0.39173 -0.0032
C 23.40908 2.05856 -0.00037
C 25.53409 6.3894 0.02611
C 22.15235 2.7283 -0.01654
C 23.38164 4.95578 -0.00802
C 22.96108 6.30763 0.00195
C 23.26162 14.80137 0.00996
C 22.25541 15.55599 0.04306
C 21.89244 17.08759 0.00367
C 23.40938 17.63941 -0.01679
C 23.41546 19.18392 -0.01052
C 22.36864 19.67472 0.00684
C 19.64843 0.00385 -0.01154
C 20.93378 0.6687 -0.0264
C 20.91381 2.08583 -0.00938
C 19.67016 2.8501 -0.00229
C 19.85056 4.19192 -0.01199
C 21.00376 4.93823 -0.009
C 22.19187 4.21748 -0.00218
C 25.72565 4.99262 0.02198
C 24.54287 4.19184 0.01094
C 24.61877 2.83738 0.00235
C 29.46583 11.42999 0.01908
C 29.5046 12.85178 0.01518
C 30.71026 13.5806 -0.00971
C 30.68828 15.04157 -0.03735
C 29.49257 15.72291 -0.00944
C 29.4268 17.19128 -0.02155
C 30.6399 17.83231 -0.01461
C 30.65939 19.28126 -0.01303
C 29.35872 19.74188 -0.0405
C 27.13053 0.07839 0.01705
C 28.30783 0.58743 0.0101
C 28.2539 2.18954 -0.00669
C 27.03161 2.90728 0.03531
C 26.97331 4.282 0.01836
C 28.20812 5.00369 -0.03039
C 28.13565 6.37369 -0.01415
C 26.83535 7.13004 -0.01854
C 25.76013 2.12605 0.01495
C 25.79326 0.51164 0.01259
C 24.55473 34.05081 0.01799
C 28.31959 19.26748 0.01699
C 28.2081 17.9098 -0.00416
C 26.99389 17.19885 0.01177
C 30.70883 9.33324 0.0103
C 27.01877 15.66782 0.04266
C 28.20964 13.49482 0.0014
C 26.98082 12.76966 0.00924
C 27.01816 11.37898 0.02326
C 28.21749 10.5945 0.00261
C 28.15842 9.18607 0.03265
C 26.91112 8.48912 -0.02049
C 28.23933 14.95851 0.01324
C 2.29878 32.68698 0.02819
