416
Graphene
C 34.36673 34.02641 0.01295
C 12.21479 28.474 -0.01111
C 13.49477 27.72648 -0.01275
C 13.49934 26.27521 0.00985
C 12.269 25.60997 -0.02245
C 12.25597 24.14093 -0.00428
C 13.48595 23.37222 0.03101
C 13.48827 21.96078 -0.01536
C 12.28451 21.20788 -0.02689
C 12.33779 19.87189 -0.01046
C 13.5695 19.1244 -0.00891
C 12.25937 29.90945 0.02841
C 13.55292 17.72099 0.02819
C 12.30066 15.63749 -0.02971
C 13.52314 14.89092 0.02894
C 13.59694 13.35679 -0.01789
C 12.30286 12.67653 0.00444
C 12.29853 11.24366 -0.00925
C 13.54538 10.51876 0.01877
C 13.4799 9.11914 0.01363
C 12.26614 8.42133 -0.02162
C 12.21923 7.0619 0.00415
C 13.49227 6.39846 -0.0014
C 12.33754 17.0203 0.00165
C 13.58892 4.9722 0.02162
C 13.50451 30.56863 0.00943
C 12.28022 32.72025 0.03592
C 11.04761 22.00043 -0.00131
C 9.77716 21.35556 -0.01118
C 9.79283 19.9787 -0.014
C 11.02083 19.18365 0.02147
C 11.10128 17.72899 0.00373
C 9.85136 17.10116 -0.00191
C 9.89654 15.66499 0.00438
C 11.06816 14.89716 0.01291
C 11.10696 13.53456 0.00093
C 9.85563 12.75057 0.00057
C 13.53207 32.00369 0.00406
C 9.85184 11.35778 -0.01634
C 11.03843 9.14159 0.02339
C 9.74692 8.49703 0.01641
C 9.79873 7.11251 -0.00719
C 11.02756 6.39274 0.01364
C 11.02737 5.01651 -0.01062
C 9.71661 4.33215 -0.00033
C 9.78274 2.93638 0.03589
C 11.06262 2.24265 -0.02759
C 11.07798 0.78333 0.0402
C 9.78941 0.10291 0.00572
C 11.07899 10.55267 -0.00334
C 11.11057 23.45466 -0.02896
C 12.32366 4.26358 0.0076
C 13.59933 2.18635 -0.01454
C 14.78142 7.0399 -0.00619
C 16.03952 6.3712 -0.02162
C 16.02272 4.97675 0.00889
C 14.75038 4.26432 -0.00481
C 14.79389 2.88835 0.00979
C 16.0186 2.13813 0.01443
C 15.99677 0.70799 0.03505
C 14.77885 0.04795 -0.02815
C 17.14426 32.65429 -0.04147
C 18.32177 31.95693 -0.05302
C 14.75772 8.43006 0.01848
C 18.39953 30.50589 0.00213
C 17.14614 28.45939 -0.00289
C 18.39282 27.71476 0.00028
C 18.3432 26.28963 -0.02213
C 17.12215 25.57772 0.03698
C 17.14021 24.08421 -0.00109
C 18.37608 23.38674 -0.00491
C 18.37247 22.01954 0.03338
C 17.21889 21.3023 -0.0258
C 17.28249 19.87596 -0.0331
C 17.16223 17.09504 -0.00316
C 17.14002 29.86187 -0.00066
C 12.33805 2.91253 0.01241
C 16.00899 9.1996 0.02098
C 14.75525 11.25138 0.0351
C 13.55113 0.76583 0.01945
C 12.26214 0.0453 0.01416
C 14.72874 32.71976 0.03542
C 15.96919 31.93252 0.02299
C 15.95741 30.537 0.00244
C 14.73561 29.90355 -0.01717
C 14.72647 28.44832 0.05265
C 15.89179 27.75224 -0.01952
C 15.8727 26.35697 -0.02813
C 14.73555 25.60459 0.00374
C 15.96846 10.64042 -0.03113
C 14.71047 24.14208 0.00052
C 15.92322 21.99087 0.01965
C 14.73743 21.27528 0.02058
C 14.73083 19.87407 -0.01957
C 16.02083 19.21439 -0.0108
C 16.05935 17.81534 -0.00368
C 14.80971 17.09173 -0.02696
C 14.82415 15.6407 -0.00114
C 16.03234 14.84845 0.00228
C 16.01237 13.42319 0.00798
C 14.78827 12.73664 0.00422
C 15.94273 23.413 -0.03682
C 17.01959 15.74263 0.02188
C 9.88036 24.14359 -0.01004
C 11.08766 26.31317 0.01745
C 2.37085 2.76867 -0.03291
C 3.61472 2.17897 -0.04999
C 3.62649 0.73401 0.04505
C 2.39758 0.00372 0.03284
C 4.893 32.66561 -0.04307
C 6.14481 31.95329 0.03189
C 6.11615 30.58959 0.00031
C 4.85996 29.94287 -0.003
C 4.92611 28.45389 0.01402
C 6.19263 27.69166 0.02379
C 2.40498 4.29726 0.02769
C 6.14502 26.27756 0.00907
C 4.90999 24.14726 -0.01509
C 6.1096 23.47675 0.03267
C 6.06613 22.10559 0.02374
C 4.88219 21.35411 0.00402
C 4.90689 19.90378 0.0073
C 6.12634 19.26696 0.0174
C 6.1375 17.86371 0.03828
C 4.99019 17.09188 0.01226
C 4.93767 15.67078 -0.00279
C 6.2421 14.86761 0.01996
C 4.9694 25.53948 0.00643
C 6.13528 13.46254 -0.03996
C 3.60866 4.99248 0.01707
C 2.43627 7.10219 -0.00561
C 3.60639 30.53463 -0.00407
C 2.34084 29.78739 0.01138
C 2.42349 28.45165 0.03278
C 3.65797 27.69267 -0.00177
C 3.74178 26.23915 0.04421
C 2.46364 25.52506 0.00088
C 2.45323 24.15935 0.00828
C 3.68568 23.51729 -0.02375
C 3.62313 22.04748 0.00558
C 2.37002 21.30651 -0.0059
C 3.65222 6.45274 0.00208
C 2.40596 19.88407 -0.01386
C 3.71767 17.80321 0.00081
C 2.5269 17.06842 0.00245
C 2.52763 15.63432 0.02728
C 3.73598 14.87624 -0.00039
C 3.65443 13.41776 0.0064
C 2.46056 12.85742 0.00211
C 2.39284 11.37318 -0.00449
C 3.64119 10.57486 -0.01979
C 3.68962 9.20755 0.02784
C 2.41844 8.54386 -0.01977
C 3.61835 19.24117 -0.02805
C 9.85649 25.58893 0.00488
C 4.86072 12.6921 0.01465
C 6.18585 10.67567 -0.00518
C 7.38842 15.61284 0.0127
C 8.61426 14.93176 0.01396
C 8.64194 13.52896 0.01849
C 7.39316 12.8196 -0.01142
C 7.35934 11.39512 -0.00562
C 8.62845 10.69814 -0.00494
C 8.61555 9.30651 0.00054
C 7.32238 8.63902 0.03007
C 7.3332 7.16318 -0.00095
C 8.52298 6.44321 0.01572
C 7.39593 17.05499 0.02635
C 8.57026 4.99293 -0.04848
C 7.29255 2.91953 -0.01362
C 8.53646 2.23418 -0.0008
C 8.54147 0.79851 0.0288
C 7.25376 0.07602 0.00393
C 9.82518 32.78618 0.00895
C 11.07927 32.06998 0.00685
C 11.12571 30.58839 0.02888
C 9.88991 29.90114 -0.00482
C 9.79231 28.48767 -0.01384
C 11.05031 27.81287 0.03693
C 7.36597 4.32954 -0.00892
C 4.84892 11.29149 -0.00074
C 8.58814 17.8931 -0.01378
C 7.34411 19.94087 0.00848
C 6.14536 9.2901 0.0086
C 4.89824 8.50128 -0.00643
C 4.85042 7.19254 0.017
C 6.14046 6.45611 -0.03113
C 6.10887 5.07079 -0.02566
C 4.83756 4.33619 -0.00094
C 4.82478 2.90311 0.02322
C 6.1347 2.18313 -0.00725
C 6.04758 0.7884 -0.05697
C 4.83243 0.07567 0.01087
C 8.59306 19.27472 -0.01303
C 7.37487 32.73149 -0.01343
C 8.57006 30.61004 0.0276
C 7.34957 29.90827 0.01305
C 7.37026 28.48006 -0.00077
C 8.59866 27.80961 0.03368
C 8.64639 26.32669 -0.02929
C 7.41046 25.61686 -0.00966
C 7.40347 24.21407 -0.03337
C 8.6255 23.46546 0.01227
C 8.54567 22.08743 0.00873
C 7.32009 21.32649 -0.00049
C 8.55284 32.04876 0.00988
C 18.46126 13.32367 -0.01979
C 17.18829 12.80969 0.02691
C 17.20853 11.32363 -0.01581
C 30.77031 10.59044 -0.00944
C 30.77012 9.22489 -0.03735
C 29.52838 8.49044 -0.00971
C 29.52216 7.05928 0.01518
C 30.74184 6.36447 0.01908
C 30.71327 4.93909 0.07705
C 29.55348 4.22668 0.0103
C 29.5233 2.87186 0.02108
C 30.73179 2.10379 0.00716
C 30.783 0.69239 0.00307
C 29.50073 11.34556 -0.02155
C 29.51327 0.11764 0.00346
C 33.18873 31.89012 -0.01694
C 33.14368 30.46389 0.01428
C 31.85333 29.77154 -0.02142
C 31.88378 28.39686 0.0544
C 33.09381 27.6345 0.00026
C 33.14168 26.24791 0.00682
C 31.92033 25.54119 -0.01779
C 31.92026 24.12297 0.03794
C 33.20393 23.41705 0.01927
C 33.15857 22.00554 0.01574
C 32.00686 32.61407 0.01713
C 31.95052 21.32448 -0.02383
C 29.46694 12.75119 -0.01461
C 30.68186 14.88089 -0.0405
C 27.08518 4.22804 0.01495
C 27.0814 2.86372 0.01259
C 28.29125 2.14272 0.01799
C 28.23499 0.75882 0.01699
C 27.04242 0.05261 -0.00416
C 29.5098 32.76853 0.01177
C 30.80558 31.97646 0.04266
C 30.6464 30.5868 0.01324
C 29.44799 29.86113 0.0014
C 29.45409 28.41273 0.00924
C 30.72684 13.42743 -0.01303
C 30.68994 27.66906 0.02326
C 29.46349 25.61066 0.03265
C 29.47781 24.15045 -0.02049
C 30.69064 23.39184 -0.01854
C 30.6589 22.03985 -0.01415
C 29.4684 21.32024 -0.03039
C 29.50466 19.90947 0.01836
C 30.65744 19.16948 0.03531
C 30.69921 17.74712 -0.00669
C 29.37732 17.00281 0.0101
C 29.36677 15.58768 0.01705
C 30.708 26.26746 0.00261
C 28.37643 4.90287 0.00235
C 31.94022 19.86928 -0.01429
C 33.12159 17.74474 0.00594
C 1.2179 23.42482 0.00723
C 1.21249 22.03907 0.02712
C 0.0436 21.33037 -0.02213
C 0.03134 19.88296 0.01951
C 1.22451 19.15468 -0.01678
C 1.22822 17.79401 0.01223
C 0.00218 17.09368 0.00648
C 0.01903 15.64213 0.02114
C 1.23842 14.9345 -0.02957
C 1.22794 13.52166 0.00343
C 0.01137 24.1158 0.03076
C 0.00197 12.78052 -0.02656
C 1.16845 10.61958 -0.00027
C 1.20046 9.15737 -0.00583
C 34.41596 8.46401 -0.02302
C 0.00166 7.08336 -0.02849
C 1.21013 6.3579 0.02931
C 1.22251 4.95174 0.00628
C 0.00439 4.16331 -0.0345
C 34.34376 2.84901 -0.00931
C 1.14005 2.14135 -0.00939
C 1.19788 0.71287 -0.00468
C 34.41703 11.35817 -0.02442
C 33.18704 19.17572 -0.0136
C 34.41406 25.59234 -0.05239
C 1.17394 27.63007 -0.00439
C 31.89041 17.04466 -0.02474
C 31.87763 15.6148 0.00369
C 33.17836 14.94913 0.00455
C 33.21549 13.55658 -0.00644
C 31.97405 12.76794 -0.01839
C 32.00468 11.29241 0.00137
C 33.24107 10.60144 0.00199
C 33.19804 9.2134 0.04381
C 32.02013 8.46581 0.02806
C 31.96732 7.07813 0.01504
C 1.19638 26.25741 -0.00598
C 33.17647 6.38833 -0.00069
C 31.96379 4.23606 -0.03838
C 32.00312 2.86953 0.00349
C 33.16941 2.10926 -0.00323
C 33.09431 0.67674 -0.00841
C 31.95471 33.99124 0.0001
C 34.3891 32.58968 -0.02927
C 1.23076 31.93251 -0.01404
C 1.18522 30.45588 0.01027
C 34.37144 29.75373 0.01831
C 34.33734 28.34501 -0.01037
C 33.18864 4.96226 0.04926
C 28.30925 6.29707 0.01094
C 27.05773 7.00192 0.02198
C 27.06628 8.44103 0.02611
C 20.92082 9.22115 -0.01154
C 19.68316 8.52122 -0.01721
C 19.64871 7.03409 -0.02422
C 20.96238 6.31633 0.01277
C 20.93148 4.95118 0.00096
C 19.74634 4.31671 -0.01527
C 19.75583 2.82212 0.01087
C 21.01377 2.11421 0.00199
C 20.92129 0.67478 0.01511
C 19.65984 0.00868 -0.00478
C 20.86447 10.64176 0.0106
C 22.08074 32.65346 -0.01662
C 23.3577 30.54768 0.01126
C 22.06284 29.88007 0.01852
C 22.09412 28.44737 -0.00381
C 23.36662 27.67994 0.03046
C 23.29839 26.2415 0.0296
C 22.04548 25.55233 0.03374
C 22.1546 24.0965 -0.02845
C 23.3306 23.42241 -0.03213
C 21.99614 11.48478 0.02239
C 23.23016 10.86634 0.01153
C 23.32683 31.9825 -0.01185
C 23.33453 9.2726 0.02734
C 19.72541 11.32577 -0.01594
C 19.67517 21.34808 -0.00311
C 18.47534 10.63915 0.01452
C 18.49411 9.26064 0.04892
C 17.30343 8.48581 -0.00111
C 17.21486 7.04406 -0.03557
C 18.45711 6.32899 0.03754
C 18.53013 4.87647 0.01739
C 17.23774 4.21124 0.00755
C 17.2285 2.80022 -0.0054
C 18.41539 2.13467 0.00667
C 18.44202 0.69286 0.00143
C 19.62431 12.7243 0.00742
C 17.226 34.05093 -0.017
C 20.84302 31.94062 -0.00831
C 20.89491 30.5051 -0.02957
C 19.65767 29.73207 -0.04422
C 19.64137 28.31718 0.00654
C 20.87922 27.65069 -0.00703
C 20.90067 26.25027 -0.04076
C 19.55848 25.55179 -0.00652
C 19.60905 24.1099 0.0058
C 20.91938 23.52217 -0.00865
C 20.79366 22.10687 0.00675
C 19.55047 32.67948 0.00364
C 22.16773 8.50821 -0.0055
C 22.17014 7.07141 0.01515
C 23.37565 6.37765 -0.00225
C 25.86235 0.78003 -0.01679
C 24.63816 0.04897 0.00367
C 27.11779 32.70985 0.04306
C 28.28666 31.97366 0.00996
C 28.26752 30.57842 0.00195
C 27.08898 29.84521 -0.00802
C 27.08618 28.41643 -0.00218
C 28.27479 27.70754 -0.01654
C 28.23427 26.29078 -0.00037
C 27.00469 25.58113 -0.0032
C 25.82002 2.11899 -0.01052
C 26.98924 24.10012 0.00622
C 28.22274 21.95708 -0.00942
C 27.02702 21.27574 0.00487
C 28.3437 19.20619 0.00826
C 28.32544 17.85308 -0.00294
C 28.2424 14.78999 0.00152
C 28.1482 13.48424 0.01257
C 27.04475 12.63283 0.02316
C 27.04408 11.27255 0.04185
C 28.24435 10.57687 0.00194
C 28.29647 9.19613 -0.00621
C 28.28264 23.38503 -0.02815
C 24.6174 2.80805 0.00684
C 24.68865 4.21097 -0.01154
C 25.82653 4.91581 -0.0264
C 23.39337 4.9211 0.00071
C 22.15445 4.15727 -0.01107
C 22.24117 2.80667 -0.01586
C 23.44487 2.14515 -0.01971
C 23.38628 0.67792 -0.02118
C 22.17379 34.04916 0.00733
C 24.63742 32.62465 -0.00178
C 25.82956 31.88934 0.00768
C 25.81966 30.52188 -0.0276
C 24.57102 29.85597 0.03005
C 24.66276 28.37349 -0.04078
C 25.83565 27.62302 0.02117
C 25.74513 26.20538 0.02737
C 24.56287 25.51781 -0.00498
C 24.56578 24.13093 0.00135
C 25.79485 23.40974 0.03102
C 26.00477 22.10001 0.02555
C 24.52505 11.08409 0.01423
C 25.80447 10.56254 -0.00285
C 25.82286 9.10314 -0.009
C 24.58532 8.45336 -0.01199
C 24.60633 7.12728 -0.00229
C 25.87346 6.33429 -0.00938
C 3.64403 31.93238 -0.01299
C 2.40819 32.68847 -0.0154
