226
Graphene
C 34.41773 0.05625 0.01295
C 13.52557 6.35713 -0.04078
C 12.24376 7.11335 0.03005
C 12.21137 8.53069 -0.0276
C 13.39525 9.27587 0.00768
C 13.47064 10.73379 -0.00178
C 12.23246 11.40494 0.00733
C 12.34149 12.72814 -0.02118
C 13.35493 13.49343 -0.01971
C 13.9305 32.58078 -0.01586
C 12.36036 32.63776 -0.01107
C 9.78376 33.95774 0.00071
C 13.52657 4.99143 0.02117
C 10.97647 0.65479 -0.00225
C 9.82061 2.79974 -0.0055
C 9.80911 4.26961 0.02734
C 11.01226 4.94376 0.01153
C 11.04412 6.37924 0.02239
C 9.77543 7.16119 -0.03213
C 9.7159 8.55903 -0.02845
C 10.90238 9.24033 0.03374
C 10.93583 10.72209 0.0296
C 9.70051 11.35426 0.03046
C 9.86201 29.94051 -0.00381
C 11.09707 30.43845 0.01852
C 11.05008 2.16908 0.01515
C 11.15003 31.87167 0.01126
C 12.29251 4.23473 0.02737
C 13.52981 2.10109 0.00135
C 17.07407 11.40779 -0.02815
C 17.11628 12.88423 0.00622
C 18.52317 13.15811 -0.0032
C 16.65248 16.63775 -0.00037
C 17.39739 17.79494 -0.01654
C 18.57591 18.45375 -0.00218
C 16.43767 19.25874 -0.00802
C 14.56897 33.88154 0.00195
C 15.92238 0.42693 0.00996
C 15.96087 1.94433 0.04306
C 14.75435 2.79676 0.00367
C 12.32295 2.77721 -0.00498
C 14.79119 4.22152 -0.01679
C 15.97245 6.46975 0.00684
C 14.7475 7.12255 -0.01154
C 14.75012 8.57433 -0.0264
C 15.87537 9.34554 -0.00938
C 15.83189 10.77568 -0.00229
C 14.62946 11.53527 -0.01199
C 14.76254 13.0942 -0.009
C 16.18778 14.06287 -0.00285
C 16.49454 15.43614 0.01423
C 12.22001 0.00537 0.02555
C 13.48483 0.6666 0.03102
C 15.9964 4.9871 -0.01052
C 9.84632 32.50897 -0.01185
C 7.3211 33.99491 -0.01662
C 8.60012 0.70168 -0.00478
C 4.85661 29.76484 0.01739
C 6.05795 30.5043 0.03754
C 6.06633 31.91298 -0.03557
C 4.88163 32.69548 -0.00111
C 2.45383 0.032 0.04892
C 3.68166 0.79043 0.01452
C 3.698 2.17087 -0.01581
C 2.42432 2.8295 0.02691
C 2.36051 4.2959 -0.01979
C 3.61756 4.99988 0.02188
C 3.62594 6.3988 -0.00316
C 4.80958 28.18454 0.00755
C 2.43209 7.13242 -0.0331
C 3.51602 9.32285 0.03338
C 3.52908 10.69099 -0.00491
C 2.33108 11.45168 -0.00109
C 2.32135 12.86949 0.03698
C 3.75689 13.51219 -0.02213
C 3.09047 14.85925 0.00028
C 2.33041 25.39672 -0.00289
C 3.65488 27.82053 -0.00066
C 2.35658 28.40882 0.00213
C 2.40485 29.83427 -0.05302
C 3.65113 30.48517 -0.04147
C 2.33035 8.54331 -0.0258
C 4.96217 12.83915 -0.0054
C 4.66587 11.47738 0.00667
C 5.88157 10.69803 0.00143
C 8.60227 2.07547 0.01511
C 7.43953 2.86944 0.00199
C 7.42758 4.32473 0.01087
C 8.63094 4.98956 -0.01527
C 8.63055 6.43384 0.00096
C 7.31433 7.24009 0.01277
C 7.3026 8.66901 -0.02422
C 8.47256 9.3581 -0.01721
C 8.41473 10.84676 -0.01154
C 7.04116 11.51599 0.0106
C 6.55183 12.90045 -0.01594
C 7.33384 29.97234 0.00742
C 8.54773 30.39422 -0.00311
C 8.60191 31.82109 0.00675
C 7.3257 32.58164 -0.00865
C 4.91201 0.05472 0.0058
C 6.13658 0.75759 -0.00652
C 6.1658 2.14104 -0.04076
C 4.91637 2.87517 -0.00703
C 4.89666 4.34221 0.00654
C 6.13709 5.10868 -0.04422
C 6.16237 6.43373 -0.02957
C 4.89237 7.09622 -0.00831
C 4.79715 8.49619 0.00364
C 5.98299 9.3025 -0.017
C 18.4064 10.89415 -0.00942
C 18.55646 9.54133 0.00487
C 17.23551 8.73052 0.00826
C 17.22557 7.23923 -0.00294
C 31.96934 34.05143 -0.01404
C 33.19258 0.67564 -0.02927
C 33.08064 2.11958 0.0001
C 31.85017 2.90243 -0.00841
C 31.73997 4.31564 -0.00323
C 33.05643 4.94991 0.00349
C 33.18779 6.35716 -0.03838
C 31.8593 7.00615 0.04926
C 31.90294 8.27417 -0.00069
C 32.85932 9.25418 0.01504
C 33.0496 10.56156 0.02806
C 0.00823 32.69072 0.01027
C 33.86407 18.21687 0.04381
C 33.30633 21.81286 0.00137
C 33.22563 23.43093 -0.01839
C 31.93636 24.19216 -0.00644
C 31.8881 25.55285 0.00455
C 33.1554 26.27847 0.00369
C 33.09548 27.77343 -0.02474
C 31.83353 28.3546 0.00594
C 31.83992 29.81629 -0.0136
C 33.04699 30.53395 -0.01429
C 33.1747 31.97153 -0.02383
C 31.97176 32.61636 0.01574
C 31.9884 21.59027 0.00199
C 1.19507 31.96517 0.01831
C 1.18507 30.52418 -0.01037
C 34.27403 29.8049 -0.00439
C 1.23303 0.70964 -0.00468
C 1.23243 2.11108 -0.00939
C 34.32948 2.74112 -0.00931
C 34.32422 4.18075 -0.0345
C 1.10525 4.99921 0.00628
C 1.17232 6.52939 0.02931
C 34.35286 7.13266 -0.02849
C 34.27781 8.5957 -0.02302
C 1.09056 9.313 -0.00583
C 1.1038 10.74227 -0.00027
C 34.18928 11.36241 -0.02442
C 34.33175 12.86431 -0.02656
C 1.04922 13.51442 0.00343
C 1.81258 15.27024 -0.02957
C 0.82209 16.0779 0.02114
C 0.54918 17.34208 0.00648
C 1.08426 18.94787 0.01223
C 34.27172 19.66725 -0.01678
C 34.26498 21.0353 0.01951
C 1.51784 23.6351 -0.02213
C 0.13504 24.18078 0.02712
C 34.38258 25.63463 0.00723
C 1.20306 26.28519 0.03076
C 1.17289 27.7633 -0.05239
C 34.3294 28.42468 -0.00598
C 29.50999 0.0929 0.01927
C 3.65313 31.96333 -0.02815
C 30.74553 0.75006 0.03794
C 29.41278 2.88299 0.00682
C 25.87653 27.7046 -0.02049
C 24.20901 30.37752 0.03265
C 25.63471 30.69373 0.00261
C 25.85333 32.10341 0.02326
C 24.6218 32.89965 0.00924
C 22.27872 0.07186 0.0014
C 23.49379 0.82609 0.01324
C 23.36078 2.17091 0.04266
C 22.30398 2.74413 0.01177
C 23.57767 32.01183 -0.00416
C 19.78835 0.09547 0.01699
C 25.63266 26.3916 -0.01854
C 21.01857 0.5529 0.01799
C 19.62425 2.81777 0.01495
C 19.55359 4.1787 0.00235
C 19.55945 7.28823 0.01094
C 19.52185 8.65299 0.02198
C 17.2078 34.02137 0.02611
C 18.4636 0.47521 -0.00621
C 18.43156 2.07342 0.00194
C 17.17653 2.77993 0.04185
C 17.16712 4.25686 0.02316
C 18.40002 5.05449 0.01257
C 18.42785 6.43179 0.00152
C 20.97372 2.20258 0.01259
C 26.23505 2.30605 -0.01415
C 25.92705 0.92282 -0.03039
C 24.67914 0.13788 0.01836
C 30.34162 4.72278 0.00026
C 30.743 22.02826 0.0544
C 30.62542 23.39348 -0.02142
C 29.39 24.07478 0.01428
C 29.43394 25.46296 -0.01694
C 30.6 26.20985 0.01713
C 30.66435 27.63089 0.00346
C 29.45972 28.42976 0.00307
C 29.37536 29.87777 0.00716
C 30.62763 30.5189 0.02108
C 30.71961 31.93506 0.0103
C 29.4896 32.68033 0.07705
C 27.11731 0.13204 0.01908
C 28.31386 0.84998 0.01518
C 28.21163 2.18346 -0.00971
C 28.11127 23.52563 -0.03735
C 26.99999 24.25042 -0.00944
C 26.80234 25.62552 -0.02155
C 28.20404 26.35042 -0.01461
C 28.15983 27.80869 -0.01303
C 26.92745 28.50806 -0.0405
C 26.86817 29.98488 0.01705
C 28.17724 30.61819 0.0101
C 28.22884 31.98067 -0.00669
C 27.05518 32.79604 0.03531
C 30.64447 2.14303 -0.01779
C 2.45514 32.67601 0.03505
