310
Graphene
C 0.00118 34.05757 0.01295
C 11.08771 2.03417 -0.00316
C 11.11653 0.66044 0.02188
C 9.88788 34.06748 -0.01979
C 12.31412 32.58073 0.02691
C 13.67015 32.22177 -0.01581
C 12.24035 15.60986 0.01452
C 13.47076 14.93661 0.04892
C 13.52693 13.55779 -0.00111
C 12.27563 12.78191 -0.03557
C 12.21643 11.39604 0.03754
C 13.512 10.6963 0.01739
C 13.47312 9.17911 0.00755
C 12.23868 8.47633 -0.0054
C 12.27018 7.08867 0.00667
C 13.49642 6.45857 0.00143
C 9.88785 2.82718 -0.0331
C 13.54639 4.9421 -0.017
C 9.83734 4.2788 -0.0258
C 11.04185 6.36118 -0.00491
C 8.58558 2.12395 0.00889
C 8.55723 0.73182 -0.00481
C 7.32423 34.01789 0.00979
C 9.781 32.67557 0.01443
C 10.96187 32.07809 0.03505
C 9.60535 17.06774 -0.02815
C 9.92014 15.6954 -0.04147
C 11.05341 14.936 -0.05302
C 11.06481 13.50486 0.00213
C 9.81101 12.8378 -0.00066
C 9.89645 11.39903 -0.00289
C 11.06033 10.60416 0.00028
C 11.02713 9.20692 -0.02213
C 9.84479 8.40495 0.03698
C 9.83225 7.0785 -0.00109
C 11.11409 4.97497 0.03338
C 12.37429 4.24712 0.00364
C 12.35189 2.78359 -0.00831
C 13.63523 2.00198 -0.02957
C 17.34179 16.89484 0.01511
C 17.07989 15.52985 -0.00478
C 18.32923 14.90006 -0.01662
C 18.46022 13.50153 -0.01185
C 17.26534 12.77142 0.01126
C 17.27329 11.35191 0.01852
C 18.58957 10.51618 -0.00381
C 18.31122 9.16454 0.03046
C 17.16161 8.42715 0.0296
C 17.21644 7.01857 0.03374
C 18.48359 5.07145 -0.02845
C 17.26272 4.36847 -0.03213
C 17.17573 2.97682 0.02239
C 18.13205 2.06996 0.01153
C 18.40819 0.68489 0.02734
C 18.26046 17.58779 0.00199
C 14.81643 34.06626 0.01087
C 16.05733 0.78446 -0.01527
C 15.91097 2.11665 0.00096
C 13.56533 0.6223 -0.04422
C 12.36619 33.98885 0.00654
C 14.75404 32.63211 -0.00703
C 14.7467 15.41639 -0.04076
C 15.91991 14.80439 -0.00652
C 15.91518 13.42675 0.0058
C 14.7229 12.7297 -0.00865
C 7.32394 2.8234 -0.02162
C 14.73481 11.31898 0.00675
C 16.01183 9.19857 0.00742
C 14.72689 8.56306 -0.01594
C 14.76637 7.11783 0.0106
C 15.98803 6.48752 -0.01154
C 15.98775 5.05954 -0.01721
C 14.782 4.32327 -0.02422
C 14.73103 2.87859 0.01277
C 16.01104 10.65186 -0.00311
C 7.3343 4.23478 -0.00619
C 8.54936 4.99877 0.01848
C 8.6082 6.3881 0.02098
C 3.65775 9.25651 0.03592
C 2.44743 8.5772 0.00406
C 2.39844 7.12611 0.00943
C 3.62227 6.4239 0.02841
C 3.63302 4.97265 -0.01111
C 2.3523 4.28949 -0.01275
C 2.45784 2.78799 0.00985
C 3.64575 2.04068 -0.02245
C 3.70791 0.61746 -0.00428
C 2.50803 33.99928 0.03101
C 4.93515 32.58495 -0.01536
C 6.12285 31.80831 -0.02689
C 6.01328 30.43669 -0.01046
C 4.83442 29.70985 -0.00891
C 4.87666 28.28677 0.02819
C 3.70365 10.63485 0.00572
C 2.48276 11.32067 0.0402
C 2.46767 12.79525 -0.02759
C 3.72226 13.48976 0.03589
C 3.59343 30.52006 -0.014
C 2.40173 29.75796 0.02147
C 2.40468 28.36417 0.00373
C 3.63546 27.6496 -0.00191
C 3.62222 26.29778 0.00438
C 2.43308 25.53868 0.01291
C 2.44996 24.1382 0.00093
C 6.15664 27.62589 0.00165
C 3.6553 23.46108 0.00057
C 2.52376 21.32907 -0.00334
C 2.5309 19.98184 0.02339
C 3.76964 19.2246 0.01641
C 3.72433 17.778 -0.00719
C 2.42292 17.06533 0.01364
C 2.49778 15.67115 -0.01062
C 3.68261 14.93147 -0.00033
C 3.70883 22.03187 -0.01634
C 17.14559 0.13207 -0.0055
C 4.92837 25.61738 -0.02971
C 5.00717 21.46532 -0.01789
C 7.29606 32.56088 0.00374
C 8.56516 31.8659 0.00052
C 8.42428 30.43752 -0.03682
C 7.2758 29.77427 0.01965
C 8.6117 17.76243 0.02058
C 7.32857 17.10478 -0.01957
C 7.45374 15.69041 -0.0108
C 8.65116 15.02209 -0.00368
C 8.68544 13.55685 -0.02696
C 7.42467 12.81565 -0.00114
C 7.45542 11.38309 0.00228
C 8.60166 10.61926 0.00798
C 8.65531 9.23946 0.00422
C 7.32694 8.51506 0.0351
C 7.35405 7.08204 -0.03113
C 4.96415 34.04475 -0.02813
C 6.11352 0.65549 -0.01952
C 6.12726 2.12218 0.05265
C 4.90615 2.86904 -0.01717
C 5.09883 20.0796 0.00444
C 6.00051 19.08339 -0.00925
C 6.08621 17.72008 0.01877
C 4.91534 17.03494 0.01363
C 4.94557 15.62935 -0.02162
C 6.15144 14.92016 0.00415
C 6.19899 13.53915 -0.0014
C 4.82458 24.35137 0.02894
C 4.93293 12.82198 0.02162
C 6.14354 10.6399 0.01241
C 6.12928 9.14607 -0.01454
C 4.87843 8.52599 0.01945
C 4.86599 7.05335 0.01416
C 6.12614 6.38752 0.03542
C 6.09544 5.0027 0.02299
C 4.86593 4.19401 0.00244
C 4.87676 11.37813 0.0076
C 20.84636 19.11048 0.01515
C 20.86224 17.74295 -0.00225
C 19.63754 17.08388 0.00071
C 33.16921 23.45706 0.01927
C 33.16921 22.04733 0.01574
C 31.95704 21.3697 -0.02383
C 31.94564 19.93316 -0.01429
C 33.15607 19.25685 -0.0136
C 33.1463 17.85822 0.00594
C 31.91607 17.0935 -0.02474
C 31.91258 15.70545 0.00369
C 33.16551 15.03869 0.00455
C 33.16894 13.66889 -0.00644
C 31.92054 12.9547 -0.01839
C 31.92631 11.50679 0.00137
C 33.14279 10.84643 0.00199
C 33.14813 9.41838 0.04381
C 32.00159 8.5477 0.02806
C 31.84964 24.15765 0.03794
C 31.90065 25.60272 -0.01779
C 33.1546 26.22816 0.00682
C 33.13584 27.66175 0.00026
C 30.72693 19.19135 -0.00944
C 30.67858 17.79979 -0.03735
C 29.48138 17.02906 -0.00971
C 29.45879 15.58419 0.01518
C 30.72995 14.99976 0.01908
C 30.69013 13.56682 0.07705
C 29.54634 12.70122 0.0103
C 32.02904 7.36649 0.01504
C 30.54307 11.05842 0.02108
C 30.79199 0.8111 0.00307
C 29.55482 0.0868 0.00346
C 31.96716 32.65223 0.01713
C 33.16962 31.93015 -0.01694
C 33.12484 30.53332 0.01428
C 31.86566 29.80907 -0.02142
C 31.85377 28.37489 0.0544
C 30.70221 2.11298 0.00716
C 29.47969 19.85547 -0.02155
C 33.09784 6.46792 -0.00069
C 32.0726 4.19747 -0.03838
C 34.38029 15.75966 0.02114
C 1.21116 14.98067 -0.02957
C 1.26872 13.56595 0.00343
C 34.42895 12.92744 -0.02656
C 34.4272 11.47867 -0.02442
C 1.19701 10.75142 -0.00027
C 1.21031 9.27387 -0.00583
C 34.37531 8.63603 -0.02302
C 34.30404 7.19616 -0.02849
C 1.03719 6.44394 0.02931
C 1.16163 4.99539 0.00628
C 34.34967 4.33127 -0.0345
C 0.00445 2.92804 -0.00931
C 1.21828 2.09465 -0.00939
C 1.2479 0.63109 -0.00468
C 34.43145 17.13431 0.00648
C 1.25625 17.79349 0.01223
C 1.24768 19.25475 -0.01678
C 34.39207 19.95899 0.01951
C 31.91188 2.94686 0.00349
C 33.11852 2.1965 -0.00323
C 33.19852 0.75143 -0.00841
C 31.95081 34.07545 0.0001
C 34.40052 32.64409 -0.02927
C 1.22714 31.88627 -0.01404
C 1.20167 30.50427 0.01027
C 33.1429 5.03802 0.04926
C 34.32692 29.84072 0.01831
C 1.10252 27.68435 -0.00439
C 1.22495 26.23735 -0.00598
C 34.40169 25.60721 -0.05239
C 34.41577 24.16629 0.03076
C 1.23602 23.45809 0.00723
C 1.22619 22.08401 0.02712
C 34.38975 21.36613 -0.02213
C 34.36379 28.43348 -0.01037
C 3.66381 31.90915 -0.01118
C 29.47477 21.3122 -0.01461
C 30.69242 23.39465 -0.0405
C 22.06686 15.63432 -0.00229
C 23.33824 14.84863 -0.00938
C 23.16701 13.47151 -0.0264
C 22.03677 33.89826 -0.01154
C 24.64985 32.76503 0.00684
C 25.80944 31.92797 -0.01052
C 25.74019 30.5524 -0.01679
C 24.48191 29.80584 0.00367
C 24.50222 28.41279 0.04306
C 25.69814 27.67879 0.00996
C 25.64778 26.30394 0.00195
C 24.53112 25.501 -0.00802
C 24.62642 24.12582 -0.00218
C 25.78118 23.40577 -0.01654
C 25.73499 21.94755 -0.00037
C 22.11615 17.03381 -0.01199
C 23.23979 17.77406 -0.009
C 23.22962 19.24628 -0.00285
C 21.89326 20.02226 0.01423
C 19.57567 15.64274 -0.01107
C 20.8028 14.92014 -0.01586
C 21.09929 13.5599 -0.01971
C 19.73532 12.82362 -0.02118
C 19.70284 11.38984 0.00733
C 20.89518 0.27663 -0.00178
C 19.69025 0.66427 0.00768
C 24.51989 21.31218 -0.0032
C 22.66643 32.87652 -0.0276
C 23.35565 30.47672 -0.04078
C 23.37289 27.42529 0.02117
C 23.31758 26.18271 0.02737
C 22.25589 24.46301 -0.00498
C 23.3954 23.53027 0.00135
C 23.31319 22.08098 0.03102
C 22.12945 21.3532 0.02555
C 23.5829 31.84745 0.03005
C 30.65803 22.0544 -0.01303
C 24.4873 19.86638 0.00622
C 25.76911 17.64505 -0.00942
C 27.03924 16.98071 0.01324
C 27.00202 15.52181 0.0014
C 28.27852 14.83429 0.00924
C 28.34378 13.41587 0.02326
C 28.22632 0.4751 0.00261
C 27.09173 0.06704 0.03265
C 29.46107 32.70124 -0.02049
C 30.69435 31.95049 -0.01854
C 30.66451 30.54608 -0.01415
C 29.43879 29.80035 -0.03039
C 29.41584 28.38316 0.01836
C 30.66934 27.71904 0.03531
C 30.64647 26.28955 -0.00669
C 29.47901 25.55955 0.0101
C 29.45906 24.14458 0.01705
C 28.22104 17.7013 0.04266
C 28.19747 19.26147 0.01177
C 26.96554 19.8711 -0.00416
C 27.01875 21.32569 0.01699
C 24.5485 17.00362 0.00487
C 24.51776 15.52092 0.00826
C 25.76825 14.77829 -0.00294
C 25.81873 13.36404 0.00152
C 24.50688 0.07167 0.01257
C 27.01548 32.71286 0.02316
C 28.294 31.96161 0.04185
C 25.73744 19.12317 -0.02815
C 28.18255 30.56276 0.00194
C 26.9142 28.44296 0.02611
C 28.18721 27.6387 0.02198
C 28.2109 26.27688 0.01094
C 26.95976 25.57011 0.00235
C 27.04363 24.10603 0.01495
C 28.195 23.42228 0.01259
C 28.20817 21.97913 0.01799
C 26.96291 29.87894 -0.00621
C 2.41779 32.65414 -0.00131
