369
Graphene
C 34.43265 0.01953 0.01295
C 9.88659 7.0368 -0.01952
C 11.02062 6.46122 -0.02813
C 11.06969 5.00564 0.00374
C 9.86331 4.26009 0.00052
C 9.89385 2.86352 -0.03682
C 11.12185 2.14107 0.01965
C 10.99705 0.66666 0.02058
C 9.79887 34.05442 -0.01957
C 12.27081 32.51801 -0.0108
C 13.51081 31.90368 -0.00368
C 13.58848 30.55167 -0.02696
C 12.34827 29.79374 -0.00114
C 12.34528 28.37759 0.00228
C 13.57325 27.70214 0.00798
C 13.48402 26.33116 0.00422
C 12.29391 25.52273 0.0351
C 12.3122 24.05654 -0.03113
C 13.47124 23.35882 0.02098
C 13.58874 21.92538 0.01848
C 9.76515 8.45607 0.05265
C 12.2721 21.34252 -0.00619
C 11.0591 9.15493 -0.01717
C 9.80617 11.40498 0.02299
C 11.01799 31.98819 0.02819
C 11.10233 30.56802 0.00165
C 9.87634 29.856 -0.02971
C 9.86893 28.44483 0.02894
C 11.09629 27.70362 -0.01789
C 11.05955 26.28259 0.00444
C 9.85163 25.56186 -0.00925
C 9.88875 24.17716 0.01877
C 11.06337 23.49822 0.01363
C 11.02633 22.04446 -0.02162
C 9.8246 21.3582 0.00415
C 9.849 19.81553 -0.0014
C 11.08504 19.16654 0.02162
C 11.12796 17.78838 0.0076
C 9.94041 16.99686 0.01241
C 9.78501 15.55323 -0.01454
C 11.06936 14.92914 0.01945
C 11.10384 13.44301 0.01416
C 9.76706 12.76727 0.03542
C 11.11008 10.62361 0.00244
C 9.89322 32.68627 -0.00891
C 12.28814 19.90839 -0.02162
C 12.31885 16.97877 -0.00481
C 15.9608 22.09892 0.04892
C 14.76941 21.28489 -0.00111
C 14.6411 19.75805 -0.03557
C 14.68681 8.52672 0.03754
C 14.77292 7.16725 0.01739
C 15.99093 6.37039 0.00755
C 15.94595 4.98413 -0.0054
C 14.73521 4.27487 0.00667
C 14.7952 2.8287 0.00143
C 16.02907 2.1915 -0.017
C 16.01368 0.66334 0.00364
C 14.77175 0.0118 -0.00831
C 17.22257 32.63101 -0.02957
C 18.48479 31.90673 -0.04422
C 18.36754 30.52098 0.00654
C 17.1804 29.78767 -0.00703
C 17.24203 28.33112 -0.04076
C 18.47744 27.62997 -0.00652
C 18.43198 26.28611 0.0058
C 15.94099 23.4553 0.01452
C 13.52102 19.23831 0.00889
C 14.65639 24.18578 -0.01581
C 15.94578 26.30601 -0.01979
C 12.24479 15.74975 0.00979
C 12.33161 12.65932 0.01443
C 12.30889 11.41615 0.03505
C 13.62249 9.21712 -0.02815
C 12.32108 8.58584 -0.04147
C 12.35384 7.14032 -0.05302
C 13.52064 6.40567 0.00213
C 13.52356 4.92304 -0.00066
C 12.25694 4.22718 -0.00289
C 12.30953 2.82724 0.00028
C 13.59306 2.15177 -0.02213
C 13.49524 0.6977 0.03698
C 12.25304 34.06319 -0.00109
C 14.71128 32.68653 -0.00491
C 15.97476 31.93227 0.03338
C 15.91828 30.51561 -0.0258
C 14.75914 29.83734 -0.0331
C 14.80787 28.37381 -0.00316
C 15.97127 27.6811 0.02188
C 14.72883 25.52955 0.02691
C 7.3132 34.07548 -0.01046
C 8.60134 0.68116 -0.02689
C 8.56393 2.12032 -0.01536
C 3.71995 6.37701 -0.03337
C 3.75918 4.99791 0.01227
C 2.43275 4.31728 0.00873
C 2.5014 2.83285 -0.00049
C 3.68995 2.13285 0.00848
C 3.68264 0.73741 -0.01303
C 2.48935 0.06246 -0.01378
C 4.91607 32.61041 0.02635
C 6.12942 31.95817 0.0127
C 6.12743 30.56355 0.01396
C 4.89715 29.83226 0.01849
C 4.91633 28.41349 -0.01142
C 6.16083 27.74232 -0.00562
C 6.17966 26.22429 -0.00494
C 4.92925 25.57448 0.00054
C 4.9459 24.16915 0.03007
C 6.15519 23.46684 -0.00095
C 6.06996 22.08355 0.01572
C 4.92397 21.3277 -0.04848
C 2.44765 7.05924 -0.00966
C 4.86697 19.87434 -0.00892
C 2.41693 8.56541 -0.02929
C 3.73616 10.62613 -0.00077
C 3.71982 30.57753 0.01996
C 2.4495 29.81239 -0.03996
C 2.53741 28.37029 0.01465
C 3.73418 27.67689 -0.00074
C 3.64778 26.26062 -0.00518
C 2.42189 25.65681 0.0086
C 2.4697 24.1747 -0.00643
C 3.72629 23.4126 0.017
C 3.66834 22.04226 -0.03113
C 2.51218 21.28782 -0.02566
C 2.45322 19.83183 -0.00094
C 3.73395 19.11984 0.02322
C 3.5999 17.69262 -0.00725
C 2.40196 17.11804 -0.05697
C 2.40375 15.68565 0.01087
C 3.65374 14.95107 -0.01343
C 3.72099 13.5356 0.00988
C 2.46463 12.72357 0.0276
C 2.49406 11.36953 0.01305
C 3.71921 9.26886 0.03368
C 6.14292 19.22604 -0.01362
C 6.13358 17.75584 -0.0008
C 4.86912 16.98893 0.0288
C 7.39448 24.12463 0.01641
C 8.65829 23.44928 -0.00719
C 8.61502 22.01096 0.01364
C 7.34775 21.36352 -0.01062
C 7.37653 19.98053 -0.00033
C 8.56293 19.17365 0.03589
C 8.6887 17.74059 -0.02759
C 7.44554 17.05386 0.0402
C 7.39301 15.68099 0.00572
C 8.54552 14.78478 0.03592
C 8.54889 13.44761 0.00406
C 7.32081 12.79063 0.00943
C 7.31727 11.29502 0.02841
C 8.60238 10.67715 -0.01111
C 8.57256 9.22366 -0.01275
C 7.31285 8.59121 0.00985
C 8.66138 4.88604 -0.02245
C 7.37051 4.3527 -0.00428
C 7.35656 2.88243 0.03101
C 7.42837 25.57416 0.02339
C 8.60848 26.27649 -0.00334
C 8.63376 27.69786 -0.01634
C 7.41923 28.43537 0.00057
C 4.90364 15.61166 0.00393
C 6.11454 14.97231 0.00895
C 6.1837 13.50005 0.00685
C 4.93357 12.85341 0.02888
C 4.91092 11.39994 -0.00482
C 6.16057 10.71241 -0.01384
C 6.10599 9.29439 0.03693
C 4.87825 8.59324 0.01745
C 4.93465 7.12986 0.00488
C 17.16281 25.5833 -0.00865
C 6.116 6.49428 -0.01004
C 4.93871 4.24898 -0.00131
C 4.91265 2.84004 -0.01118
C 6.12869 2.17754 -0.014
C 6.11699 0.77991 0.02147
C 4.94502 0.0009 0.00373
C 7.32231 32.67612 -0.00191
C 8.56866 32.00969 0.00438
C 8.62098 30.52166 0.01291
C 7.38926 29.80685 0.00093
C 6.09552 5.09428 -0.02896
C 3.69497 31.96744 -0.00279
C 17.24484 24.19839 0.00675
C 18.39822 21.89942 0.00742
C 30.72608 0.71516 0.00307
C 29.45888 34.05818 0.00346
C 31.99622 32.67731 0.01713
C 33.1707 31.98371 -0.01694
C 33.09336 30.53658 0.01428
C 31.91122 29.80572 -0.02142
C 31.94961 28.3378 0.0544
C 33.2199 27.7553 0.00026
C 33.14958 26.30075 0.00682
C 31.96287 25.59954 -0.01779
C 31.98005 24.10807 0.03794
C 33.18173 23.42406 0.01927
C 33.20894 22.03849 0.01574
C 32.01311 21.31296 -0.02383
C 31.99952 19.92846 -0.01429
C 33.18591 19.16337 -0.0136
C 33.19251 17.75213 0.00594
C 31.97036 17.02523 -0.02474
C 31.93188 15.66366 0.00369
C 30.80764 2.12639 0.00716
C 33.21813 14.85222 0.00455
C 29.57933 2.78986 0.02108
C 30.73497 4.98468 0.07705
C 29.4933 25.57157 0.03265
C 29.51971 24.13353 -0.02049
C 30.73944 23.41851 -0.01854
C 30.76657 22.00458 -0.01415
C 29.51515 21.33043 -0.03039
C 29.58146 19.92605 0.01836
C 30.76779 19.08242 0.03531
C 30.76777 17.70042 -0.00669
C 29.51927 17.05147 0.0101
C 29.51141 15.66482 0.01705
C 30.74943 14.87018 -0.0405
C 30.70167 13.50093 -0.01303
C 29.56685 12.71198 -0.01461
C 29.47103 11.31534 -0.02155
C 30.6914 10.65981 -0.00944
C 30.69789 9.19426 -0.03735
C 29.48073 8.54265 -0.00971
C 29.50456 7.12524 0.01518
C 30.74435 6.33265 0.01908
C 29.55369 4.24734 0.0103
C 30.73551 26.2943 0.00261
C 33.25508 13.45086 -0.00644
C 31.94122 11.2852 0.00137
C 0.01841 19.88232 0.01951
C 1.25088 19.13719 -0.01678
C 1.17636 17.74858 0.01223
C 34.42245 17.01794 0.00648
C 34.42061 15.61121 0.02114
C 1.21207 14.95161 -0.02957
C 1.24941 13.55731 0.00343
C 0.01469 12.80333 -0.02656
C 0.01867 11.4063 -0.02442
C 1.18915 10.69197 -0.00027
C 1.2254 9.25155 -0.00583
C 34.42811 8.52305 -0.02302
C 0.05688 7.15205 -0.02849
C 1.26076 6.37545 0.02931
C 1.2041 4.9162 0.00628
C 34.40652 4.28179 -0.0345
C 0.00317 2.84103 -0.00931
C 1.26753 2.19274 -0.00939
C 1.1882 0.64982 -0.00468
C 34.40716 21.27968 -0.02213
C 31.96201 12.76162 -0.01839
C 1.31092 22.01101 0.02712
C 34.36961 24.12814 0.03076
C 33.14214 10.64971 0.00199
C 33.17389 9.18193 0.04381
C 31.90976 8.52004 0.02806
C 31.96072 7.04176 0.01504
C 33.20469 6.4744 -0.00069
C 33.21356 5.03634 0.04926
C 31.98062 4.28627 -0.03838
C 31.98414 2.82226 0.00349
C 33.15338 2.09719 -0.00323
C 33.13959 0.72191 -0.00841
C 31.95888 0.01109 0.0001
C 0.04476 32.61857 -0.02927
C 1.26412 31.95332 -0.01404
C 1.18984 30.58239 0.01027
C 34.42268 29.88427 0.01831
C 34.43201 28.47456 -0.01037
C 1.20985 27.72556 -0.00439
C 1.19229 26.28122 -0.00598
C 34.40511 25.60108 -0.05239
C 1.23764 23.44269 0.00723
C 30.75523 27.68072 0.02326
C 29.49439 28.36406 0.00924
C 29.49346 29.79593 0.0014
C 19.67439 0.01382 0.01153
C 22.06168 32.7827 0.02734
C 22.12414 29.73006 -0.0055
C 22.11506 28.36938 0.01515
C 23.29132 27.69459 -0.00225
C 23.36244 26.28689 0.00071
C 22.16662 25.55169 -0.01107
C 22.06342 24.06744 -0.01586
C 23.32584 23.42116 -0.01971
C 23.36725 22.0003 -0.02118
C 22.02563 21.28888 0.00733
C 23.33218 2.12113 -0.00178
C 23.40654 0.67238 0.00768
C 22.12398 34.04299 -0.0276
C 25.88477 31.98815 0.03005
C 24.53949 28.33995 -0.04078
C 25.7952 27.64401 0.02117
C 25.80916 26.24641 0.02737
C 24.55615 25.563 -0.00498
C 20.91806 0.74054 0.02239
C 24.64712 24.12236 0.00135
C 20.83582 2.22431 -0.03213
C 20.8416 21.95144 0.03374
C 17.21001 21.29826 -0.01594
C 17.26941 6.92235 0.0106
C 18.32247 6.37915 -0.01154
C 18.49427 4.97464 -0.01721
C 17.26637 4.26351 -0.02422
C 17.12655 2.86486 0.01277
C 18.35742 2.07625 0.00096
C 18.46755 0.66554 -0.01527
C 17.21545 34.06032 0.01087
C 19.73257 32.61302 0.00199
C 20.96871 31.88367 0.01511
C 20.95972 30.48804 -0.00478
C 19.65048 29.81539 -0.01662
C 19.72461 28.33559 -0.01185
C 20.85602 27.6458 0.01126
C 20.90218 26.27 0.01852
C 19.71981 25.47192 -0.00381
C 19.7499 24.08129 0.03046
C 20.85979 23.33548 0.0296
C 19.67445 2.78525 -0.02845
C 25.84375 23.43324 0.03102
C 25.8467 21.98821 0.02555
C 24.62377 21.29652 0.01423
C 27.03135 15.58007 -0.00294
C 28.27369 14.94414 0.00152
C 28.33086 13.47192 0.01257
C 27.17054 12.79303 0.02316
C 27.05235 11.45203 0.04185
C 28.2919 10.6725 0.00194
C 28.30346 9.17111 -0.00621
C 26.98805 8.48591 0.02611
C 27.11527 7.14187 0.02198
C 28.25294 6.45954 0.01094
C 28.23808 4.96863 0.00235
C 27.07408 4.30721 0.01495
C 26.96161 2.90501 0.01259
C 28.28996 2.12242 0.01799
C 28.30971 0.72747 0.01699
C 27.03937 0.07193 -0.00416
C 29.52172 32.60126 0.01177
C 30.7656 32.00104 0.04266
C 30.77852 30.53144 0.01324
C 27.06383 16.97792 0.00826
C 28.23497 17.72049 0.00487
C 28.32065 19.1852 -0.00942
C 27.05186 19.84954 -0.02815
C 24.79597 19.99034 -0.00285
C 25.77153 19.14395 -0.009
C 25.85663 17.73055 -0.01199
C 25.84756 10.52531 -0.00229
C 25.74703 9.39424 -0.00938
C 25.69767 2.12722 -0.0264
C 25.76692 0.73461 -0.01154
C 24.57568 0.00823 0.00684
C 27.0745 32.60506 -0.01052
C 18.37395 23.34681 -0.00311
C 28.29069 31.93871 -0.01679
C 27.01577 29.85905 0.04306
C 26.98851 28.41432 0.00996
C 28.23292 27.72601 0.00195
C 28.27733 26.28072 -0.00802
C 27.05869 25.5419 -0.00218
C 27.04936 24.14928 -0.01654
C 28.29693 23.3425 -0.00037
C 28.30525 21.97177 -0.0032
C 27.05062 21.24846 0.00622
C 28.26953 30.50402 0.00367
C 2.52154 32.79923 0.01226
