365
Graphene
C 0.01558 0.02985 0.01295
C 11.11088 9.15525 0.00052
C 9.78176 8.61184 -0.03682
C 11.07007 0.73598 0.01965
C 9.86672 34.06179 0.02058
C 12.33705 32.70264 -0.01957
C 13.54975 31.96683 -0.0108
C 13.47555 30.5009 -0.00368
C 12.26332 29.78778 -0.02696
C 11.04197 10.54298 0.00374
C 12.28627 28.36387 -0.00114
C 13.56455 26.28386 0.00798
C 12.31736 25.54196 0.00422
C 12.34681 24.11315 0.0351
C 13.55876 23.33596 -0.03113
C 13.47927 22.11753 0.02098
C 12.31813 21.26063 0.01848
C 12.28826 19.82357 -0.00619
C 13.48485 19.15611 -0.02162
C 13.60329 27.61794 0.00228
C 9.77655 11.32554 -0.02813
C 9.805 12.80138 -0.01952
C 11.07024 13.42917 0.05265
C 7.33413 0.04519 0.02894
C 9.75696 32.71261 -0.01789
C 11.082 31.99225 0.00444
C 11.08984 30.5489 -0.00925
C 9.85978 29.84158 0.01877
C 9.87245 28.41431 0.01363
C 11.06077 27.6934 -0.02162
C 11.06436 26.26768 0.00415
C 9.85996 25.59297 -0.0014
C 9.8559 24.22684 0.02162
C 11.04974 23.42715 0.0076
C 11.04986 22.05857 0.01241
C 9.86269 21.22747 -0.01454
C 9.8406 19.86677 0.01945
C 11.08696 19.21267 0.01416
C 11.13609 17.74988 0.03542
C 9.84303 16.98662 0.02299
C 9.8369 15.63046 0.00244
C 11.09614 14.86283 -0.01717
C 13.4449 17.7429 0.00889
C 12.30417 17.03138 -0.00481
C 12.36459 15.62299 0.00979
C 13.53024 14.93969 0.01443
C 14.75966 2.82045 -0.03557
C 15.96548 2.23899 0.03754
C 15.98415 0.71544 0.01739
C 14.72505 34.01555 0.00755
C 17.22133 32.62104 -0.0054
C 18.44861 31.9817 0.00667
C 18.45222 30.50053 0.00143
C 17.13129 17.08213 -0.017
C 17.226 15.67702 0.00364
C 18.48867 14.9113 -0.00831
C 18.50328 13.56499 -0.02957
C 17.22588 12.75837 -0.04422
C 17.23217 11.38317 0.00654
C 18.43366 10.60858 -0.00703
C 18.48037 9.19677 -0.04076
C 17.20066 2.85348 -0.00652
C 18.42292 2.10392 0.0058
C 18.47122 0.65704 -0.00865
C 17.24049 34.04364 0.00675
C 15.99897 9.28687 -0.00111
C 8.57175 0.71816 -0.02971
C 15.9573 10.64037 0.04892
C 14.69927 12.82906 -0.01581
C 13.50035 13.52198 0.03505
C 12.28084 12.78663 -0.02815
C 12.32963 11.3296 -0.04147
C 13.55147 10.65379 -0.05302
C 13.47631 9.22916 0.00213
C 12.35494 8.58269 -0.00066
C 13.60154 0.73688 -0.00289
C 12.32681 0.04518 0.00028
C 14.77337 32.61042 -0.02213
C 15.96235 31.90112 0.03698
C 15.98784 30.50615 -0.00109
C 14.80973 29.80875 -0.00491
C 14.69731 28.40562 0.03338
C 14.72085 19.88385 -0.0258
C 15.96134 17.72999 -0.0331
C 14.72567 17.05265 -0.00316
C 14.71081 15.62923 0.02188
C 16.00049 14.94313 -0.01979
C 16.0322 13.49488 0.02691
C 14.72956 11.36232 0.01452
C 8.6045 2.0632 0.00165
C 7.3882 2.82854 0.02819
C 7.40512 4.24734 -0.00891
C 3.64932 6.36617 0.00848
C 3.72889 4.96099 -0.01303
C 2.51995 4.29523 -0.01378
C 2.44673 2.89969 0.02635
C 3.72259 2.10365 0.0127
C 3.66721 0.71704 0.01396
C 2.45332 0.01402 0.01849
C 4.94906 32.71181 -0.01142
C 6.15916 31.87757 -0.00562
C 6.13234 30.52093 -0.00494
C 4.90195 29.82493 0.00054
C 4.89306 28.39256 0.03007
C 6.14762 27.69622 -0.00095
C 6.12336 26.32435 0.01572
C 4.92024 25.50738 -0.04848
C 4.91978 24.15577 -0.00892
C 6.15217 23.45376 -0.01362
C 6.14736 22.0424 -0.0008
C 4.8792 21.3592 0.0288
C 2.47591 7.11977 -0.00049
C 4.91377 19.86958 0.00393
C 2.45413 8.52782 0.00873
C 3.64105 10.68138 -0.03337
C 3.74943 30.48397 -0.00518
C 2.53267 29.84176 0.0086
C 2.43747 28.38789 -0.00643
C 3.75314 27.67282 0.017
C 3.70265 26.2547 -0.03113
C 2.40949 25.55182 -0.02566
C 2.42353 24.22488 -0.00094
C 3.67965 23.42144 0.02322
C 3.71671 21.97863 -0.00725
C 2.43245 21.33049 -0.05697
C 2.51272 19.886 0.01087
C 3.67056 19.13061 -0.01343
C 3.72147 17.72947 0.00988
C 2.36165 17.01172 0.0276
C 2.42684 15.70266 0.01305
C 3.64137 14.97614 -0.00077
C 3.67866 13.51873 0.03368
C 2.51146 12.81333 -0.02929
C 2.459 11.29717 -0.00966
C 3.72845 9.2577 0.01227
C 19.70805 32.68523 -0.00311
C 6.14611 19.21665 0.00895
C 4.9151 17.03787 0.02888
C 7.34106 25.54022 -0.01062
C 7.36028 24.1293 -0.00033
C 8.64025 23.43671 0.03589
C 8.62208 21.96646 -0.02759
C 7.3754 21.34215 0.0402
C 7.37423 19.95051 0.00572
C 8.55076 19.18873 0.03592
C 8.65974 17.74868 0.00406
C 7.43289 17.04391 0.00943
C 7.3887 15.66009 0.02841
C 8.56216 14.82509 -0.01111
C 8.58932 13.47636 -0.01275
C 7.33664 12.80074 0.00985
C 7.3107 11.31902 -0.02245
C 8.58592 10.65287 -0.00428
C 8.59499 9.24986 0.03101
C 7.34238 8.54544 -0.01536
C 7.41773 7.03033 -0.02689
C 8.60682 6.45916 -0.01046
C 8.59581 26.30859 0.01364
C 6.17738 17.78473 0.00685
C 8.61524 27.69442 -0.00719
C 7.39791 29.83254 0.02339
C 4.94684 15.64942 -0.00482
C 6.13169 14.90843 -0.01384
C 6.11625 13.52027 0.03693
C 4.95133 12.77121 0.01745
C 4.90155 11.41032 0.00488
C 6.11381 10.69813 -0.01004
C 6.17389 9.29757 -0.02896
C 4.88916 8.61552 -0.00131
C 4.90327 7.13268 -0.01118
C 6.14627 6.40024 -0.014
C 6.10491 4.96814 0.02147
C 4.93463 4.29737 0.00373
C 4.94839 2.84518 -0.00191
C 6.1765 2.1168 0.00438
C 6.11463 0.75893 0.01291
C 4.89606 0.05245 0.00093
C 7.385 32.66713 0.00057
C 8.54997 31.9633 -0.01634
C 8.58213 30.58349 -0.00334
C 7.3899 28.38645 0.01641
C 3.72248 31.93362 -0.00074
C 20.86313 32.01609 0.00742
C 20.89448 14.92427 0.0106
C 29.54953 0.03826 0.00346
C 31.97951 32.60693 0.01713
C 33.19137 31.95877 -0.01694
C 33.16168 30.51883 0.01428
C 31.98886 29.81465 -0.02142
C 31.96481 28.43404 0.0544
C 33.12744 27.70117 0.00026
C 33.14546 26.28768 0.00682
C 30.72881 0.64699 0.00307
C 31.96967 25.60166 -0.01779
C 33.1581 23.42309 0.01927
C 33.21984 22.04016 0.01574
C 31.9915 21.27616 -0.02383
C 31.9674 19.88233 -0.01429
C 33.19935 19.20365 -0.0136
C 33.23581 17.75912 0.00594
C 31.99839 17.088 -0.02474
C 31.9791 15.59248 0.00369
C 31.97322 24.158 0.03794
C 30.72659 2.12298 0.00716
C 29.46422 2.89146 0.02108
C 29.55003 4.25939 0.0103
C 29.52706 24.06975 -0.02049
C 30.80645 23.40635 -0.01854
C 30.74823 22.05064 -0.01415
C 29.51734 21.33625 -0.03039
C 29.54609 19.87589 0.01836
C 30.72617 19.15102 0.03531
C 30.74131 17.72147 -0.00669
C 29.48309 17.0618 0.0101
C 29.5652 15.65304 0.01705
C 30.77465 14.84119 -0.0405
C 30.78031 13.45402 -0.01303
C 29.52886 12.80363 -0.01461
C 29.51898 11.39894 -0.02155
C 30.75377 10.60472 -0.00944
C 30.69282 9.24409 -0.03735
C 29.55389 8.47547 -0.00971
C 29.4826 7.05772 0.01518
C 30.71055 6.41922 0.01908
C 30.72003 4.9549 0.07705
C 33.17843 14.91928 0.00455
C 33.20268 13.48309 -0.00644
C 31.98092 12.71963 -0.01839
C 31.9957 11.3279 0.00137
C 0.00436 19.91799 0.01951
C 1.29713 19.16612 -0.01678
C 1.20682 17.68356 0.01223
C 0.0032 17.02623 0.00648
C 0.02968 15.58545 0.02114
C 1.19674 14.89753 -0.02957
C 1.25298 13.46826 0.00343
C 0.00133 12.78015 -0.02656
C 34.40135 11.37197 -0.02442
C 1.23385 10.73597 -0.00027
C 1.2253 9.24174 -0.00583
C 0.03154 8.57515 -0.02302
C 34.3869 7.12628 -0.02849
C 1.21793 6.38355 0.02931
C 1.22476 4.95097 0.00628
C 0.04071 4.27898 -0.0345
C 0.0402 2.82331 -0.00931
C 1.22698 2.09967 -0.00939
C 1.2421 0.74048 -0.00468
C 34.42669 21.31039 -0.02213
C 29.52526 25.59404 0.03265
C 1.17631 21.95323 0.02712
C 34.38716 24.13604 0.03076
C 33.17889 10.64124 0.00199
C 33.24839 9.23154 0.04381
C 31.91557 8.49317 0.02806
C 31.90959 7.12233 0.01504
C 33.17689 6.35853 -0.00069
C 33.17769 4.96669 0.04926
C 31.96126 4.22644 -0.03838
C 31.97396 2.90011 0.00349
C 33.20842 2.16653 -0.00323
C 33.20507 0.69823 -0.00841
C 31.97655 34.05523 0.0001
C 34.38481 32.63777 -0.02927
C 1.17305 31.96982 -0.01404
C 1.24407 30.54943 0.01027
C 0.03479 29.77799 0.01831
C 0.00355 28.39405 -0.01037
C 1.19538 27.71914 -0.00439
C 1.23799 26.29692 -0.00598
C 34.41471 25.63929 -0.05239
C 1.19117 23.46033 0.00723
C 30.70461 26.26401 0.00261
C 30.75678 27.71198 0.02326
C 29.53924 28.39423 0.00924
C 23.36824 9.21288 -0.0055
C 22.10114 8.4912 0.01515
C 22.10776 7.10112 -0.00225
C 23.33193 6.43053 0.00071
C 23.34848 5.04272 -0.01107
C 22.13866 4.20405 -0.01586
C 22.12208 2.81598 -0.01971
C 23.2973 2.12318 -0.02118
C 23.3439 0.74009 0.00733
C 22.18122 34.05438 -0.00178
C 24.50765 32.60801 0.00768
C 25.78028 31.97033 -0.0276
C 25.82424 30.54083 0.03005
C 24.51955 29.7851 -0.04078
C 25.75299 17.76251 0.02117
C 24.68756 17.03535 0.02737
C 24.62111 15.63875 -0.00498
C 25.86219 14.93711 0.00135
C 25.80024 13.46421 0.03102
C 23.36172 10.57657 0.02734
C 24.56912 12.73742 0.02555
C 22.10587 11.34379 0.01153
C 23.37418 13.48578 -0.03213
C 20.94793 13.45904 -0.01154
C 19.65999 12.82172 -0.01721
C 19.58022 11.35695 -0.02422
C 20.83148 10.61871 0.01277
C 20.88936 9.15569 0.00096
C 19.60762 8.50339 -0.01527
C 19.74251 7.05871 0.01087
C 20.9274 6.36945 0.00199
C 20.79031 4.96362 0.01511
C 19.61405 4.19647 -0.00478
C 19.67539 2.82952 -0.01662
C 20.90444 2.10185 -0.01185
C 20.96025 0.64167 0.01126
C 19.71708 34.03087 0.01852
C 22.16169 32.62073 -0.00381
C 23.33629 31.92406 0.03046
C 23.45709 30.43923 0.0296
C 22.10652 15.5613 0.03374
C 23.34474 14.94266 -0.02845
C 22.18127 12.75529 0.02239
C 19.76218 15.53588 -0.01594
C 24.56409 11.31162 0.01423
C 25.82294 9.21602 -0.009
C 28.30411 14.91465 0.00152
C 28.28738 13.47387 0.01257
C 27.08495 12.77956 0.02316
C 27.03433 11.34115 0.04185
C 28.30071 10.67351 0.00194
C 28.33762 9.22967 -0.00621
C 27.11743 8.54867 0.02611
C 27.09356 7.14224 0.02198
C 28.29786 6.41007 0.01094
C 28.31792 4.89624 0.00235
C 27.04257 4.26494 0.01495
C 27.07323 2.85686 0.01259
C 28.26214 2.1882 0.01799
C 28.2562 0.70775 0.01699
C 27.06295 0.01569 -0.00416
C 29.46284 32.68358 0.01177
C 30.73938 31.92281 0.04266
C 30.77975 30.54249 0.01324
C 29.50226 29.87328 0.0014
C 27.05091 15.59009 -0.00294
C 25.84829 10.68995 -0.00285
C 27.06929 17.05199 0.00826
C 28.3224 19.14613 -0.00942
C 24.53764 8.48265 -0.01199
C 24.60546 7.12766 -0.00229
C 25.82288 6.38692 -0.00938
C 25.95432 5.02856 -0.0264
C 24.58485 4.30717 -0.01154
C 24.58726 2.82782 0.00684
C 25.82967 2.09353 -0.01052
C 25.75207 0.70117 -0.01679
C 24.50893 0.02415 0.00367
C 27.01966 32.66721 0.04306
C 28.24159 31.94677 0.00996
C 28.31226 30.49735 0.00195
C 26.96987 29.78315 -0.00802
C 27.06723 28.4416 -0.00218
C 28.21854 27.69669 -0.01654
C 28.25893 26.22057 -0.00037
C 28.26337 23.41725 -0.0032
C 28.27539 22.05146 0.00622
C 27.06727 19.82872 -0.02815
C 28.26473 17.74465 0.00487
C 2.4775 32.58291 0.01465
