316
Graphene
C 34.29561 34.07282 0.01295
C 14.84504 29.75347 -0.00491
C 14.77022 28.3998 0.03338
C 16.08991 27.68773 -0.0258
C 15.93651 26.17556 -0.0331
C 14.65459 25.58388 -0.00316
C 14.80338 24.15374 0.02188
C 15.96255 23.41646 -0.01979
C 15.82238 22.05132 0.02691
C 16.05247 4.61661 -0.01581
C 14.71234 4.37807 0.01452
C 14.79038 2.8445 0.04892
C 15.97537 2.14719 -0.00111
C 15.95534 0.70055 -0.03557
C 14.73134 34.07098 0.03754
C 17.24872 32.69806 0.01739
C 15.96069 30.57697 -0.00109
C 16.05005 31.94811 0.03698
C 14.81582 32.64962 -0.02213
C 12.32888 0.03702 0.00028
C 9.83418 0.02628 -0.03113
C 12.28451 32.74622 0.02098
C 13.62922 31.89766 0.01848
C 13.57202 30.51853 -0.00619
C 12.28193 29.83548 -0.02162
C 12.31252 28.3898 0.00889
C 13.54137 27.67458 -0.00481
C 18.51814 31.89234 0.00755
C 13.44556 26.29133 0.00979
C 12.36227 24.26355 0.03505
C 13.39474 23.66594 -0.02815
C 13.44128 5.0611 -0.04147
C 12.3425 4.20633 -0.05302
C 12.40683 2.73907 0.00213
C 13.5742 2.05422 -0.00066
C 13.51801 0.6426 -0.00289
C 12.24698 25.66309 0.01443
C 18.53462 30.46164 -0.0054
C 17.2387 29.87339 0.00667
C 17.27354 28.41951 0.00143
C 19.69388 28.31166 0.00096
C 20.97593 27.80969 -0.01527
C 19.55172 25.3855 0.01087
C 19.582 24.17036 0.00199
C 19.578 21.27367 0.01511
C 19.56286 19.92176 -0.00478
C 20.73013 19.21245 -0.01662
C 19.73082 29.77696 0.01277
C 21.05814 17.92556 -0.01185
C 21.29153 4.3649 0.01852
C 19.85764 4.23926 -0.00381
C 19.64556 2.88022 0.03046
C 20.91704 2.15464 0.0296
C 20.87666 0.78848 0.03374
C 19.71636 0.0114 -0.02845
C 22.10891 32.74442 -0.03213
C 19.60712 7.49952 0.01126
C 11.09232 0.79495 0.0351
C 20.91411 30.55666 -0.02422
C 19.67786 32.6693 -0.01154
C 18.49928 27.70695 -0.017
C 18.37782 26.34356 0.00364
C 17.17035 25.53016 -0.00831
C 17.23053 24.08616 -0.02957
C 18.40361 23.37034 -0.04422
C 18.42298 22.03928 0.00654
C 16.96157 21.30289 -0.00703
C 20.87779 32.01312 -0.01721
C 17.19063 19.83105 -0.04076
C 18.8061 6.49857 0.0058
C 18.60838 4.99593 -0.00865
C 17.34623 4.27818 0.00675
C 17.26257 2.83043 -0.00311
C 18.45636 2.053 0.00742
C 18.45767 0.62407 -0.01594
C 17.19922 34.04273 0.0106
C 18.22975 19.42393 -0.00652
C 23.2782 31.96247 0.02239
C 11.15864 2.16763 0.00422
C 9.89997 4.20119 0.00228
C 2.41561 2.84451 -0.01062
C 3.57011 2.13414 -0.00033
C 3.62861 0.73906 0.03589
C 2.40133 0.06262 -0.02759
C 4.88071 32.57576 0.0402
C 6.11305 31.91762 0.00572
C 6.08023 30.55412 0.03592
C 4.89801 29.79804 0.00406
C 4.90655 28.37009 0.00943
C 6.11495 27.62753 0.02841
C 6.08036 26.20133 -0.01111
C 4.87931 25.46561 -0.01275
C 4.84436 24.07984 0.00985
C 6.2266 23.46484 -0.02245
C 6.2088 9.31388 -0.00428
C 2.44472 4.28745 0.01364
C 3.69267 4.96986 -0.00719
C 3.7299 6.43499 0.01641
C 2.4916 7.12192 0.02339
C 3.66745 30.59124 0.01745
C 2.43735 29.79195 0.00488
C 2.44607 28.40808 -0.01004
C 3.66833 27.66393 -0.02896
C 3.63065 26.20076 -0.00131
C 2.42179 25.4976 -0.01118
C 2.49997 24.12704 -0.014
C 4.96861 8.5303 0.03101
C 3.70245 23.40733 0.02147
C 2.70665 21.27455 -0.00191
C 2.43917 19.9578 0.00438
C 2.28133 12.869 0.01291
C 2.53529 11.4565 0.00093
C 3.60875 10.58768 0.00057
C 3.70816 9.26752 -0.01634
C 2.4757 8.56414 -0.00334
C 3.87031 21.99712 0.00373
C 5.04602 7.12369 -0.01536
C 6.21586 6.40567 -0.02689
C 6.1926 4.98594 -0.01046
C 7.43232 2.86786 0.02299
C 8.61378 2.04276 0.00244
C 8.58698 0.71391 -0.01717
C 7.35852 34.05696 0.05265
C 9.76113 32.64676 -0.01952
C 11.01105 31.99786 -0.02813
C 11.08758 30.46524 0.00374
C 7.40634 4.3134 0.03542
C 9.77681 29.75948 0.00052
C 10.95442 27.62725 0.01965
C 10.96938 26.34833 0.02058
C 9.76522 25.52631 -0.01957
C 9.63924 24.09953 -0.0108
C 9.82324 7.17726 -0.00368
C 10.80301 6.41459 -0.02696
C 11.15047 4.92786 -0.00114
C 9.78054 28.39172 -0.03682
C 9.92301 2.81178 0.00798
C 8.69436 4.99684 0.01416
C 7.38224 7.05762 -0.01454
C 4.86023 4.27218 -0.00891
C 4.81694 2.86323 0.02819
C 6.08749 2.13391 0.00165
C 6.05922 0.69833 -0.02971
C 4.8507 34.07697 0.02894
C 7.33932 32.62614 -0.01789
C 8.58243 31.90483 0.00444
C 8.65998 6.38264 0.01945
C 8.50201 30.54707 -0.00925
C 7.28464 28.36312 0.01363
C 8.4822 27.63396 -0.02162
C 8.54611 26.28188 0.00415
C 7.32915 25.46017 -0.0014
C 7.34287 24.04979 0.02162
C 8.55982 9.25453 0.0076
C 7.38138 8.52135 0.01241
C 7.3249 29.8062 0.01877
C 23.29874 30.64122 0.01153
C 22.13115 29.8996 0.02734
C 22.06923 28.45688 -0.0055
C 31.91809 24.13496 0.03794
C 33.25134 23.41749 0.01927
C 33.30908 21.99081 0.01574
C 31.98196 21.27774 -0.02383
C 31.9791 19.90501 -0.01429
C 33.35535 19.21306 -0.0136
C 33.19204 17.86761 0.00594
C 31.92629 17.09968 -0.02474
C 31.94058 15.65964 0.00369
C 33.10553 15.04053 0.00455
C 33.12791 13.60733 -0.00644
C 31.87162 12.84763 -0.01839
C 31.93026 11.38032 0.00137
C 33.22585 10.77456 0.00199
C 33.17848 9.30459 0.04381
C 31.89943 25.52055 -0.01779
C 33.11142 26.21882 0.00682
C 33.14292 27.64998 0.00026
C 31.94616 28.32709 0.0544
C 29.39556 11.27527 -0.02155
C 30.72931 10.67538 -0.00944
C 30.80063 9.20538 -0.03735
C 29.57568 8.47911 -0.00971
C 29.63226 7.03221 0.01518
C 30.85788 6.31051 0.01908
C 30.72125 4.9216 0.07705
C 32.0013 8.51829 0.02806
C 29.35167 4.28459 0.0103
C 30.69829 2.17521 0.00716
C 30.62934 0.72146 0.00307
C 29.35758 34.04558 0.00346
C 31.87274 32.69255 0.01713
C 33.13655 31.95169 -0.01694
C 33.09027 30.49892 0.01428
C 31.88055 29.85184 -0.02142
C 29.43687 2.85748 0.02108
C 32.03733 7.17048 0.01504
C 33.1912 6.41171 -0.00069
C 33.17272 5.00256 0.04926
C 34.41838 17.15333 0.00648
C 34.38156 15.70643 0.02114
C 1.1521 15.16268 -0.02957
C 1.26184 13.68326 0.00343
C 34.38922 12.93529 -0.02656
C 0.00683 11.52337 -0.02442
C 1.22868 10.85172 -0.00027
C 1.3133 17.66694 0.01223
C 1.25998 9.24037 -0.00583
C 0.02006 7.1418 -0.02849
C 1.22426 6.4269 0.02931
C 1.23462 4.96199 0.00628
C 34.43279 4.30734 -0.0345
C 34.37937 2.88967 -0.00931
C 1.14756 2.12192 -0.00939
C 1.12323 0.71588 -0.00468
C 34.42205 8.67353 -0.02302
C 29.35355 12.69107 -0.01461
C 1.34396 19.08419 -0.01678
C 0.14002 21.2652 -0.02213
C 31.93104 4.3044 -0.03838
C 31.98338 2.84651 0.00349
C 33.14069 2.22791 -0.00323
C 33.11024 0.72975 -0.00841
C 31.80827 0.01259 0.0001
C 34.35335 32.66488 -0.02927
C 1.17218 31.95247 -0.01404
C 0.15842 19.87215 0.01951
C 1.20106 30.58262 0.01027
C 34.34051 28.4087 -0.01037
C 1.19493 27.72055 -0.00439
C 1.19222 26.28777 -0.00598
C 34.43086 25.56897 -0.05239
C 0.03623 24.12047 0.03076
C 1.27736 23.44496 0.00723
C 1.37461 22.00832 0.02712
C 34.34377 29.88624 0.01831
C 30.59657 13.48788 -0.01303
C 30.71282 14.9086 -0.0405
C 29.47683 15.62544 0.01705
C 25.81494 17.78214 -0.00285
C 24.53054 16.99409 -0.009
C 24.5093 15.63833 -0.01199
C 25.66804 14.82138 -0.00229
C 25.73721 13.41917 -0.00938
C 24.46269 12.64115 -0.0264
C 24.60877 2.94622 -0.01154
C 25.84737 19.20461 0.01423
C 25.72715 2.14261 0.00684
C 24.5337 0.07468 -0.01679
C 26.93514 32.6894 0.00367
C 28.13578 31.97079 0.04306
C 28.15443 30.45835 0.00996
C 26.94863 29.80458 0.00195
C 26.95687 28.39829 -0.00802
C 28.20834 27.62955 -0.00218
C 25.74008 0.72025 -0.01052
C 28.22851 26.2185 -0.01654
C 24.59946 20.0261 0.02555
C 24.49975 28.37201 0.00135
C 21.98286 19.62704 0.01515
C 23.32349 19.14687 -0.00225
C 23.40178 17.79322 0.00071
C 22.17542 17.13688 -0.01107
C 22.10839 15.71192 -0.01586
C 23.21868 14.98651 -0.01971
C 23.30292 13.50733 -0.02118
C 25.6333 27.8322 0.03102
C 22.35844 12.49407 0.00733
C 23.21431 2.49741 0.00768
C 23.26683 0.9503 -0.0276
C 22.13056 0.12011 0.03005
C 24.51379 32.71349 -0.04078
C 25.66868 31.88406 0.02117
C 25.73417 30.45884 0.02737
C 24.50314 29.86043 -0.00498
C 21.92725 3.23394 -0.00178
C 3.62403 31.96427 0.03693
C 27.04658 25.37798 -0.00037
C 28.27171 23.38085 0.00622
C 29.36145 32.59781 0.01177
C 30.63252 32.03258 0.04266
C 30.63621 30.49968 0.01324
C 29.36944 29.77473 0.0014
C 29.33688 28.33454 0.00924
C 30.65136 27.64191 0.02326
C 30.70182 26.25092 0.00261
C 26.95063 34.07216 -0.00416
C 29.47593 25.53988 0.03265
C 30.66044 23.45301 -0.01854
C 30.68701 21.9804 -0.01415
C 29.4306 21.3146 -0.03039
C 29.51826 19.87666 0.01836
C 30.70338 19.17929 0.03531
C 30.72621 17.79269 -0.00669
C 29.44075 17.0342 0.0101
C 29.47656 24.11719 -0.02049
C 27.11389 24.17351 -0.0032
C 28.21983 0.73736 0.01699
C 27.03194 2.81004 0.01259
C 28.22585 21.97284 -0.02815
C 26.94988 21.2943 -0.00942
C 27.06731 19.85652 0.00487
C 28.26858 19.17778 0.00826
C 28.26007 17.74713 -0.00294
C 27.04588 16.99479 0.00152
C 27.01937 15.539 0.01257
C 28.29932 2.15357 0.01799
C 28.17406 14.91397 0.02316
C 26.97027 12.75283 0.00194
C 26.89323 11.37331 -0.00621
C 28.0035 10.48721 0.02611
C 28.27525 9.00797 0.02198
C 28.31571 6.4376 0.01094
C 28.11395 5.00808 0.00235
C 26.97971 4.17277 0.01495
C 28.20287 13.47424 0.04185
C 2.35171 32.69451 -0.01384
