434
Graphene
C 34.38947 34.04851 0.01295
C 13.45512 13.61478 -0.00719
C 12.26666 12.76654 0.01364
C 12.31265 11.35675 -0.01062
C 13.45599 10.62341 -0.00033
C 13.47953 9.24026 0.03589
C 12.25392 8.52703 -0.02759
C 12.22369 7.13949 0.0402
C 13.48973 6.40386 0.00572
C 13.51409 5.07581 0.03592
C 12.30971 4.36954 0.00406
C 12.32741 2.88943 0.00943
C 13.55459 2.1521 0.02841
C 13.46503 0.72158 -0.01111
C 12.27029 0.02394 -0.01275
C 14.74089 32.64976 0.00985
C 15.93636 31.97743 -0.02245
C 15.99754 30.55024 -0.00428
C 14.7934 29.91408 0.03101
C 14.69277 28.48494 -0.01536
C 16.02277 27.67412 -0.02689
C 15.95802 26.20027 -0.01046
C 14.66911 25.54372 -0.00891
C 14.75569 24.03651 0.02819
C 13.5337 15.0229 0.01641
C 16.01866 23.24619 0.00165
C 12.27185 15.71989 0.02339
C 13.48406 17.80494 -0.01634
C 9.77357 8.53574 -0.0008
C 9.82232 7.11132 0.0288
C 10.97443 6.40933 0.00393
C 11.04725 4.94064 0.00895
C 9.85601 4.24324 0.00685
C 9.79368 2.87752 0.02888
C 11.12939 2.1575 -0.00482
C 11.05672 0.76561 -0.01384
C 9.83307 0.0026 0.03693
C 12.23648 32.66396 0.01745
C 13.43689 32.01177 0.00488
C 13.50043 30.61619 -0.01004
C 12.27427 29.81803 -0.02896
C 12.26024 28.42254 -0.00131
C 13.62542 27.66765 -0.01118
C 13.511 26.27221 -0.014
C 12.23276 25.5243 0.02147
C 12.19025 24.11551 0.00373
C 13.4412 23.45153 -0.00191
C 13.60964 21.97483 0.00438
C 12.2833 21.33238 0.01291
C 12.3043 19.98852 0.00093
C 13.50659 19.1781 0.00057
C 12.28811 17.08821 -0.00334
C 10.95995 9.26104 -0.01362
C 16.05823 21.86076 -0.02971
C 14.7961 19.8334 -0.01789
C 17.31584 23.97103 -0.00368
C 18.59023 23.49083 -0.02696
C 17.36404 20.00322 -0.00114
C 18.61891 19.25915 0.00228
C 18.40231 17.8081 0.00798
C 17.15322 17.11976 0.00422
C 17.23221 15.6206 0.0351
C 18.41063 14.84569 -0.03113
C 18.37638 13.50878 0.02098
C 17.17175 12.79847 0.01848
C 17.14075 11.36665 -0.00619
C 18.38487 10.68224 -0.02162
C 18.33607 9.22253 0.00889
C 17.1629 8.51391 -0.00481
C 17.18312 7.10863 0.00979
C 18.4186 6.4325 0.01443
C 18.39732 5.05497 0.03505
C 17.19792 4.30494 -0.02815
C 17.16076 2.81838 -0.04147
C 18.38791 2.10516 -0.05302
C 18.40052 0.67186 0.00213
C 17.17462 34.03924 -0.00066
C 19.63504 32.65389 -0.00289
C 17.27994 25.50585 -0.0108
C 14.79733 21.23787 0.02894
C 18.48396 26.33222 -0.01957
C 17.28245 28.34586 0.01965
C 16.09458 19.2299 0.00444
C 15.98719 17.78308 -0.00925
C 14.6742 17.12575 0.01877
C 14.75596 15.68891 0.01363
C 15.92412 14.96599 -0.02162
C 15.89814 13.53907 0.00415
C 14.74033 12.74024 -0.0014
C 14.74677 11.35356 0.02162
C 15.97281 10.61652 0.0076
C 15.98173 9.28939 0.01241
C 14.78226 8.57239 -0.01454
C 14.70178 7.11354 0.01945
C 15.93517 6.40693 0.01416
C 15.93362 4.90662 0.03542
C 14.70443 4.25453 0.02299
C 14.7643 2.81708 0.00244
C 15.9568 2.04592 -0.01717
C 15.93737 0.60137 0.05265
C 14.70624 0.07383 -0.01952
C 17.24432 32.60814 -0.02813
C 18.49107 31.9163 0.00374
C 18.48963 30.49604 0.00052
C 17.24676 29.80223 -0.03682
C 18.53917 27.69209 0.02058
C 11.01534 10.70886 -0.00892
C 9.76947 11.38472 -0.04848
C 9.68473 12.83468 0.01572
C 2.49117 0.02585 -0.0059
C 4.96474 32.64269 -0.01386
C 6.12198 31.96727 -0.02805
C 6.10853 30.61239 0.00081
C 4.86278 29.84781 0.00245
C 4.9089 28.38578 0.02728
C 6.11202 27.8286 -0.00039
C 6.1368 26.34817 0.0064
C 5.08781 25.55064 0.00211
C 5.80716 19.45906 -0.00449
C 6.04139 17.97489 -0.01979
C 4.97051 17.13374 0.02784
C 4.89699 15.65265 -0.01977
C 6.05884 14.94662 -0.00561
C 6.13474 13.52622 0.00208
C 4.87219 12.78287 0.01707
C 4.82533 11.41585 0.02769
C 6.10827 10.71696 -0.03291
C 6.03841 9.33474 -0.04999
C 4.94458 8.56406 0.04505
C 4.94467 7.10494 0.03284
C 6.18693 6.44274 -0.04307
C 6.1024 5.04967 0.03189
C 3.68267 0.6988 0.00558
C 4.88853 4.34425 0.00031
C 3.70337 2.15964 -0.02375
C 2.45968 4.2544 0.00088
C 3.67369 30.55907 -0.00198
C 2.49922 29.79581 -0.00012
C 2.48957 28.42599 -0.04306
C 3.65223 27.64848 -0.03672
C 3.76261 26.1178 0.01913
C 2.5248 25.43979 0.00267
C 2.38979 23.99749 0.00787
C 2.45029 21.44863 0.02426
C 2.64402 20.00966 0.01218
C 3.92748 19.27467 -0.01471
C 3.70012 17.82313 -0.02827
C 2.44501 17.08867 0.01078
C 2.37195 15.73044 -0.00112
C 3.62604 15.05212 0.03345
C 3.61202 13.58207 0.00748
C 2.37773 12.89767 0.00662
C 2.31992 11.41507 -0.0154
C 3.60735 10.63447 -0.01299
C 3.67798 9.23076 -0.00407
C 2.34019 8.53744 0.01138
C 2.38651 7.0432 0.03278
C 3.64263 6.43722 -0.00177
C 3.6956 5.04447 0.04421
C 2.54732 2.83708 0.00828
C 4.89885 2.89793 -0.003
C 6.10115 2.25043 0.01402
C 6.07914 0.85429 0.02379
C 7.3699 2.89418 0.0276
C 8.54079 2.1744 0.01305
C 8.62334 0.68773 -0.00077
C 7.36817 0.09028 0.03368
C 9.75391 32.62541 -0.02929
C 11.06322 31.99 -0.00966
C 11.01559 30.59949 -0.03337
C 9.73405 29.93027 0.01227
C 9.78245 28.49922 0.00873
C 10.96976 27.72506 -0.00049
C 10.94704 26.3041 0.00848
C 9.64803 25.5522 -0.01303
C 9.55626 24.03861 -0.01378
C 10.92394 23.46359 0.02635
C 10.89508 22.10634 0.0127
C 9.6965 21.31849 0.01396
C 9.78788 19.89666 0.01849
C 11.01212 19.21334 -0.01142
C 11.0139 17.81983 -0.00562
C 9.85685 17.09753 -0.00494
C 9.84742 15.65019 0.00054
C 11.0179 14.87446 0.03007
C 10.9655 13.49588 -0.00095
C 7.37886 4.35007 0.00988
C 8.66815 5.02959 -0.01343
C 8.63413 6.45899 0.01087
C 7.43168 7.20982 -0.05697
C 4.91976 0.06836 0.00907
C 7.43759 32.76183 0.00643
C 8.60654 32.06872 -0.01509
C 8.55625 30.5896 0.03267
C 7.39445 29.95682 0.02374
C 7.38802 28.52925 0.00402
C 8.5137 27.77128 0.0073
C 8.51692 26.34652 0.0174
C 7.32647 25.63517 0.03828
C 7.2045 24.2586 0.01226
C 8.32127 23.28567 -0.00279
C 20.89347 31.90287 0.00028
C 8.25256 21.83293 0.01996
C 8.53216 19.33316 0.01465
C 8.56029 17.8811 -0.00074
C 7.24781 17.18286 -0.00518
C 7.27821 15.72007 0.0086
C 8.50657 15.01293 -0.00643
C 8.55297 13.58458 0.017
C 7.41389 12.82224 -0.03113
C 7.33327 11.40907 -0.02566
C 8.60103 10.7334 -0.00094
C 8.55551 9.33566 0.02322
C 7.34424 8.61305 -0.00725
C 7.35394 20.12221 -0.03996
C 20.84093 30.54374 -0.02213
C 19.64197 29.85794 0.03698
C 19.71105 28.3904 -0.00109
C 30.62372 14.88567 -0.0405
C 30.62961 13.49552 -0.01303
C 29.46358 12.7403 -0.01461
C 29.50932 11.34008 -0.02155
C 30.68325 10.56252 -0.00944
C 30.63999 9.13686 -0.03735
C 29.41749 8.42909 -0.00971
C 29.48754 7.03542 0.01518
C 30.6518 6.17243 0.01908
C 30.69398 4.83554 0.07705
C 29.4563 4.1355 0.0103
C 29.52338 2.77729 0.02108
C 30.67239 2.06267 0.00716
C 30.68327 0.71508 0.00307
C 29.49463 0.00618 0.00346
C 31.90597 32.64936 0.01713
C 33.25947 31.97694 -0.01694
C 33.17148 30.57654 0.01428
C 31.94348 29.81325 -0.02142
C 31.87806 28.41548 0.0544
C 33.12137 27.65439 0.00026
C 33.14973 26.26338 0.00682
C 31.83009 25.58776 -0.01779
C 29.43294 15.55466 0.01705
C 31.86974 24.20146 0.03794
C 29.49978 16.98814 0.0101
C 30.7087 19.17723 0.03531
C 28.18724 9.09333 -0.00621
C 27.02975 8.38613 0.02611
C 27.06859 6.94018 0.02198
C 28.27649 6.27133 0.01094
C 28.22459 4.81464 0.00235
C 27.00172 4.20018 0.01495
C 27.03563 2.73629 0.01259
C 28.30361 2.09074 0.01799
C 28.18925 0.70259 0.01699
C 27.03128 0.05426 -0.00416
C 29.57849 32.65039 0.01177
C 30.7919 31.88648 0.04266
C 30.67174 30.47209 0.01324
C 29.44351 29.82623 0.0014
C 29.18177 28.35468 0.00924
C 30.50276 27.68593 0.02326
C 30.51995 26.28853 0.00261
C 29.20942 25.58089 0.03265
C 29.40199 24.15324 -0.02049
C 30.72082 23.46614 -0.01854
C 30.69424 22.07245 -0.01415
C 29.46772 21.42955 -0.03039
C 29.47617 19.92377 0.01836
C 30.7238 17.71421 -0.00669
C 33.13733 23.46402 0.01927
C 33.09357 21.99491 0.01574
C 31.93246 21.2838 -0.02383
C 34.41284 24.15991 0.03076
C 1.13752 23.43481 0.00723
C 1.12468 22.09348 0.02712
C 34.36892 21.32217 -0.02213
C 0.04785 19.93283 0.01951
C 1.36437 19.29724 -0.01678
C 1.28724 17.87827 0.01223
C 0.0087 17.07495 0.00648
C 34.37295 15.69022 0.02114
C 1.14215 14.90276 -0.02957
C 1.18618 13.56682 0.00343
C 34.39356 12.81104 -0.02656
C 34.26212 11.39898 -0.02442
C 1.16332 10.65408 -0.00027
C 1.18945 9.20555 -0.00583
C 34.42138 8.42563 -0.02302
C 34.41807 7.09869 -0.02849
C 1.15722 6.30431 0.02931
C 1.15528 4.95388 0.00628
C 34.35032 4.19659 -0.0345
C 34.38768 2.76532 -0.00931
C 1.2376 2.08974 -0.00939
C 1.27151 0.6377 -0.00468
C 34.40654 25.59123 -0.05239
C 1.26647 26.24145 -0.00598
C 1.20543 27.64426 -0.00439
C 34.39027 28.3518 -0.01037
C 31.99312 19.85274 -0.01429
C 33.29088 19.20711 -0.0136
C 33.19012 17.82064 0.00594
C 31.93045 17.13104 -0.02474
C 31.92563 15.60325 0.00369
C 33.09507 14.90592 0.00455
C 33.12393 13.42465 -0.00644
C 31.9788 12.69161 -0.01839
C 31.92232 11.26655 0.00137
C 33.11949 10.54255 0.00199
C 33.10919 9.1279 0.04381
C 28.26904 10.50445 0.00194
C 31.84406 8.36454 0.02806
C 33.2124 6.30568 -0.00069
C 33.14551 4.88535 0.04926
C 31.94068 4.16213 -0.03838
C 32.01274 2.80109 0.00349
C 33.21842 2.06537 -0.00323
C 33.14812 0.72874 -0.00841
C 31.89101 0.05656 0.0001
C 0.04432 32.65679 -0.02927
C 1.23506 31.90791 -0.01404
C 1.21614 30.40949 0.01027
C 34.36502 29.76317 0.01831
C 31.84278 6.91353 0.01504
C 3.70479 31.99249 0.00535
C 27.05612 11.21432 0.04185
C 28.23399 13.47482 0.01257
C 23.35921 30.39797 -0.00652
C 22.08625 29.82813 0.0058
C 22.31216 28.43955 -0.00865
C 23.86634 27.75818 0.00675
C 23.8368 26.2298 -0.00311
C 22.47877 25.67832 0.00742
C 22.23185 24.23268 -0.01594
C 23.36567 23.47524 0.0106
C 23.2082 21.93595 -0.01154
C 21.90413 21.30301 -0.01721
C 21.79418 19.87901 -0.02422
C 23.07343 19.17036 0.01277
C 23.25581 17.71244 0.00096
C 22.07091 17.13567 -0.01527
C 22.07486 15.59849 0.01087
C 23.26612 14.89802 0.00199
C 23.24637 13.48494 0.01511
C 22.10041 12.8196 -0.00478
C 22.14901 11.44794 -0.01662
C 23.2381 10.71184 -0.01185
C 23.23653 9.25087 0.01126
C 22.1223 8.51263 0.01852
C 22.10852 7.08014 -0.00381
C 23.35732 31.88608 -0.04076
C 23.33159 6.32296 0.03046
C 22.11446 32.63465 -0.00703
C 20.84295 0.72352 -0.04422
C 21.10342 27.71148 -0.00491
C 21.15799 26.32755 0.03338
C 19.9357 25.63211 -0.0258
C 19.78193 24.24347 -0.0331
C 20.95417 23.66318 -0.00316
C 20.8196 22.30461 0.02188
C 20.47323 19.15609 -0.01979
C 20.76353 17.77727 0.02691
C 19.54625 16.98721 -0.01581
C 19.63992 15.58809 0.01452
C 20.84227 14.9568 0.04892
C 20.82796 13.49931 -0.00111
C 19.60103 12.7906 -0.03557
C 19.64345 11.40524 0.03754
C 20.86438 10.6868 0.01739
C 20.82353 9.30489 0.00755
C 19.61417 8.52726 -0.0054
C 19.62159 7.05793 0.00667
C 20.88982 6.34445 0.00143
C 20.86618 4.93566 -0.017
C 19.63362 4.31001 0.00364
C 19.61593 2.79604 -0.00831
C 20.81998 2.12722 -0.02957
C 19.64198 34.03406 0.00654
C 23.34689 4.97821 0.0296
C 22.03181 4.2848 0.03374
C 22.04414 2.88841 -0.02845
C 24.52889 4.2782 -0.00229
C 24.5359 2.88397 -0.00938
C 25.68489 2.10176 -0.0264
C 25.79692 0.76781 -0.01154
C 24.53113 0.0336 0.00684
C 27.00095 32.70396 -0.01052
C 28.32295 31.92159 -0.01679
C 28.14679 30.54628 0.00367
C 26.94708 29.91346 0.04306
C 26.48581 28.5414 0.00996
C 27.84801 27.76703 0.00195
C 27.79788 26.24594 -0.00802
C 26.48093 25.5356 -0.00218
C 26.95774 24.13559 -0.01654
C 28.13828 23.46301 -0.00037
C 28.22661 22.01102 -0.0032
C 26.96372 21.29378 0.00622
C 26.90637 19.88686 -0.02815
C 28.18091 19.18509 -0.00942
C 28.26203 17.75535 0.00487
C 27.01171 17.11566 0.00826
C 27.00165 15.72126 -0.00294
C 28.17843 14.90184 0.00152
C 25.81821 4.96634 -0.01199
C 25.7967 6.4054 -0.009
C 24.57926 7.04125 -0.00285
C 24.49494 8.50485 0.01423
C 23.31794 2.15707 -0.03213
C 23.33837 0.76087 0.02239
C 22.12744 0.01411 0.01153
C 24.52203 32.67221 0.02734
C 25.75849 32.11444 -0.0055
C 25.7504 30.71697 0.01515
C 24.64776 29.81559 -0.00225
C 25.07466 28.52962 0.00071
C 24.99214 25.41608 -0.01107
C 24.69991 24.08084 -0.01586
C 25.83791 23.28923 -0.01971
C 27.00435 12.75012 0.02316
C 25.7062 21.86294 -0.02118
C 24.33396 19.84754 -0.00178
C 25.57022 19.17146 0.00768
C 25.71096 17.78356 -0.0276
C 24.44817 17.04926 0.03005
C 24.49485 15.69344 -0.04078
C 25.81889 15.02383 0.02117
C 25.83059 13.57493 0.02737
C 24.61392 12.77262 -0.00498
C 24.50624 11.35539 0.00135
C 25.69073 10.63965 0.03102
C 25.76061 9.11802 0.02555
C 24.46089 21.20953 0.00733
C 2.47164 32.61794 0.01984
