335
Graphene
C 34.39424 0.03121 0.01295
C 12.28843 32.67727 0.00979
C 13.43774 31.95365 0.01443
C 13.54393 30.45515 0.03505
C 12.33715 29.72363 -0.02815
C 12.27137 28.35787 -0.04147
C 13.3761 15.00643 -0.05302
C 13.48649 13.60983 0.00213
C 12.22292 13.06664 -0.00066
C 12.17542 11.54817 -0.00289
C 13.47361 10.63927 0.00028
C 13.48867 9.19594 -0.02213
C 12.24885 8.47376 0.03698
C 12.26857 7.15038 -0.00109
C 13.46625 6.40807 -0.00491
C 13.5382 5.03173 0.03338
C 12.27382 4.35128 -0.0258
C 12.2927 2.91017 -0.0331
C 9.84313 0.05785 -0.00481
C 13.51419 2.15832 -0.00316
C 11.06187 0.86215 0.00889
C 9.80381 2.90382 -0.00619
C 9.80332 32.70355 0.00374
C 10.99765 31.95628 0.00052
C 11.06043 30.51229 -0.03682
C 9.83545 29.82521 0.01965
C 9.7061 28.43225 0.02058
C 10.98031 27.61813 -0.01957
C 10.64824 26.17351 -0.0108
C 10.93353 13.56886 -0.00368
C 9.66865 13.00628 -0.02696
C 9.74529 11.52081 -0.00114
C 11.02112 10.83611 0.00228
C 11.08123 9.2669 0.00798
C 9.89375 8.61231 0.00422
C 9.77314 7.13656 0.0351
C 10.98865 6.46127 -0.03113
C 10.97747 5.02462 0.02098
C 9.7561 4.31076 0.01848
C 11.08048 2.20841 -0.02162
C 7.37332 34.05983 -0.02813
C 13.45635 0.76479 0.02188
C 14.61204 32.66186 0.02691
C 17.22514 11.42027 -0.00865
C 18.38607 10.73716 0.00675
C 18.34298 9.31814 -0.00311
C 17.13151 8.47828 0.00742
C 17.1902 7.00856 -0.01594
C 18.4575 6.36616 0.0106
C 18.42522 4.93967 -0.01154
C 17.17212 4.25906 -0.01721
C 17.20272 2.8696 -0.02422
C 18.38635 2.04778 0.01277
C 18.40128 0.6663 0.00096
C 17.15502 34.07692 -0.01527
C 19.51624 32.43405 0.01087
C 20.78378 31.91829 0.00199
C 20.89526 13.48805 0.01511
C 19.7525 12.81374 -0.00478
C 19.61979 11.32852 -0.01662
C 17.11952 12.79316 0.0058
C 12.208 0.05274 -0.01979
C 17.47901 30.40561 -0.00652
C 17.07035 32.65826 -0.00703
C 15.82183 31.96503 -0.01581
C 16.24565 30.5414 0.01452
C 15.03994 29.89355 0.04892
C 16.14724 13.61973 -0.00111
C 14.747 12.95659 -0.03557
C 14.82476 11.38445 0.03754
C 15.98181 10.67631 0.01739
C 15.93388 9.18477 0.00755
C 14.68033 8.49147 -0.0054
C 14.73875 7.09927 0.00667
C 15.90971 6.37259 0.00143
C 15.9543 4.94727 -0.017
C 14.76726 4.27479 0.00364
C 14.72933 2.88594 -0.00831
C 15.91072 2.14701 -0.02957
C 15.97915 0.75457 -0.04422
C 14.7368 0.00389 0.00654
C 18.123 31.75751 -0.04076
C 20.91134 10.78805 -0.01185
C 8.59883 0.77153 -0.01952
C 7.38422 2.79891 -0.01717
C 2.43354 8.55387 -0.01004
C 2.4311 7.19548 -0.02896
C 3.70053 6.48993 -0.00131
C 3.68677 5.05295 -0.01118
C 2.43918 4.32635 -0.014
C 2.401 2.91506 0.02147
C 3.67176 2.24118 0.00373
C 3.55722 0.85187 -0.00191
C 2.34715 0.103 0.00438
C 4.81243 32.68953 0.01291
C 5.99276 32.00136 0.00093
C 6.06226 30.60473 0.00057
C 4.81664 29.88221 -0.01634
C 4.87234 28.52246 -0.00334
C 6.14404 27.83922 0.02339
C 6.23164 26.35558 0.01641
C 5.0281 25.62431 -0.00719
C 3.67127 9.18902 0.00488
C 5.03461 24.28511 0.01364
C 3.61561 10.58866 0.01745
C 2.35932 12.77278 -0.01384
C 3.58673 30.53838 -0.01142
C 2.36931 29.80399 -0.00562
C 2.381 28.39857 -0.00494
C 3.68985 27.7334 0.00054
C 3.73152 26.29031 0.03007
C 2.48825 25.63643 -0.00095
C 2.52185 24.16126 0.01572
C 3.81183 23.4941 -0.04848
C 3.86619 22.09352 -0.00892
C 2.53012 21.28622 -0.01362
C 2.52152 19.91249 -0.0008
C 3.84111 19.22214 0.0288
C 3.91468 17.75314 0.00393
C 2.63342 17.06908 0.00895
C 2.39491 15.61879 0.00685
C 3.62492 14.90819 0.02888
C 3.56397 13.40829 -0.00482
C 2.37987 11.30034 0.03693
C 8.6172 2.16418 0.05265
C 6.37885 23.71696 -0.01062
C 4.90945 20.06468 0.03589
C 7.34259 29.89497 -0.01789
C 7.32617 28.43589 0.00444
C 8.49581 27.65436 -0.00925
C 8.6882 26.18915 0.01877
C 7.42763 25.53316 0.01363
C 7.21224 15.72029 -0.02162
C 8.24384 15.03204 0.00415
C 8.37469 13.71219 -0.0014
C 7.22598 12.79202 0.02162
C 7.39245 11.37172 0.0076
C 8.56931 10.67484 0.01241
C 8.6398 9.20554 -0.01454
C 7.4569 8.47387 0.01945
C 7.33872 7.09579 0.01416
C 8.60444 6.40445 0.03542
C 8.47049 5.01988 0.02299
C 7.37031 4.26608 0.00244
C 8.57429 30.71819 0.02894
C 4.89901 21.22491 -0.00033
C 8.60912 32.04889 -0.02971
C 4.83487 0.05748 0.02819
C 6.435 17.13766 -0.02759
C 5.03347 16.94074 0.0402
C 4.83889 15.52362 0.00572
C 6.08136 14.77351 0.03592
C 6.02544 13.41733 0.00406
C 4.77581 12.69077 0.00943
C 4.86267 11.27427 0.02841
C 6.20824 10.60584 -0.01111
C 6.19954 9.23794 -0.01275
C 4.93189 8.54143 0.00985
C 4.94425 7.09948 -0.02245
C 6.10091 6.40709 -0.00428
C 6.15699 4.99386 0.03101
C 4.93969 4.32563 -0.01536
C 4.91787 2.88585 -0.02689
C 6.12316 2.19108 -0.01046
C 6.15594 0.71625 -0.00891
C 7.31157 32.70225 0.00165
C 3.53881 31.98654 0.01849
C 21.0053 9.35832 0.01126
C 19.58354 7.1382 -0.00381
C 31.90194 28.34219 0.0544
C 33.21604 27.70599 0.00026
C 33.21664 26.235 0.00682
C 32.04399 25.51857 -0.01779
C 32.07873 24.09227 0.03794
C 33.27138 23.41703 0.01927
C 33.31746 22.06499 0.01574
C 32.03025 21.40222 -0.02383
C 31.98132 19.97213 -0.01429
C 33.18747 19.25476 -0.0136
C 33.15241 17.8702 0.00594
C 31.83957 17.13914 -0.02474
C 31.87242 15.70089 0.00369
C 33.09036 15.0177 0.00455
C 33.01504 13.51987 -0.00644
C 31.86036 12.87006 -0.01839
C 31.91835 11.32313 0.00137
C 31.88262 29.74435 -0.02142
C 33.101 10.69115 0.00199
C 33.15701 30.51799 0.01428
C 31.85029 32.64219 0.01713
C 29.35686 17.16902 0.0101
C 29.30314 15.7626 0.01705
C 30.60588 14.93919 -0.0405
C 30.63311 13.62043 -0.01303
C 29.42602 12.84454 -0.01461
C 29.50963 11.4282 -0.02155
C 30.72555 10.68147 -0.00944
C 30.72107 9.23756 -0.03735
C 29.44883 8.52741 -0.00971
C 29.41906 7.05501 0.01518
C 30.67343 6.40541 0.01908
C 30.71574 4.92879 0.07705
C 29.49294 4.24583 0.0103
C 29.4473 2.7506 0.02108
C 30.67667 2.12711 0.00716
C 30.70741 0.66628 0.00307
C 29.44732 34.00267 0.00346
C 33.1026 31.96479 -0.01694
C 30.61605 17.91798 -0.00669
C 33.15847 9.26299 0.04381
C 31.89467 7.09029 0.01504
C 1.41543 17.67617 0.01223
C 0.08993 17.06837 0.00648
C 34.41136 15.67062 0.02114
C 1.219 14.92799 -0.02957
C 1.13268 13.38443 0.00343
C 34.33972 12.7913 -0.02656
C 34.33169 11.4414 -0.02442
C 1.16383 10.72341 -0.00027
C 1.2248 9.2 -0.00583
C 34.41858 8.60563 -0.02302
C 34.35513 7.15079 -0.02849
C 1.13517 6.47632 0.02931
C 1.15633 5.08407 0.00628
C 34.33281 4.3041 -0.0345
C 34.38085 2.90828 -0.00931
C 1.17017 2.22405 -0.00939
C 1.19712 0.77566 -0.00468
C 1.27353 19.0958 -0.01678
C 31.9762 8.51248 0.02806
C 0.14075 19.85485 0.01951
C 1.2876 21.9688 0.02712
C 33.12796 6.42748 -0.00069
C 33.12026 4.96285 0.04926
C 31.87799 4.24198 -0.03838
C 31.94168 2.8083 0.00349
C 33.15882 2.14097 -0.00323
C 33.10878 0.6476 -0.00841
C 31.84826 34.04592 0.0001
C 34.32179 32.68988 -0.02927
C 1.11432 31.96244 -0.01404
C 1.14289 30.53771 0.01027
C 34.42043 29.81118 0.01831
C 0.03618 28.37089 -0.01037
C 1.27406 27.61647 -0.00439
C 1.27951 26.26116 -0.00598
C 0.04231 25.51757 -0.05239
C 0.09568 24.16311 0.03076
C 1.31256 23.465 0.00723
C 0.11655 21.31339 -0.02213
C 19.58532 8.4875 0.01852
C 30.5838 19.27605 0.03531
C 29.60952 21.44385 -0.03039
C 23.34639 2.10447 -0.04078
C 23.20672 0.57394 0.02117
C 22.01743 34.04117 0.02737
C 24.51621 32.60195 -0.00498
C 25.67897 31.92125 0.00135
C 25.72453 30.47779 0.03102
C 24.4947 29.76163 0.02555
C 25.64969 14.87513 0.01423
C 25.78884 13.45797 -0.00285
C 24.59453 12.81183 -0.009
C 24.54604 11.39634 -0.01199
C 25.81096 10.64339 -0.00229
C 25.83313 9.18184 -0.00938
C 24.57732 8.49144 -0.0264
C 24.54779 7.08134 -0.01154
C 25.74407 6.40987 0.00684
C 25.72703 4.94308 -0.01052
C 22.07019 2.82252 0.03005
C 24.49311 4.22084 -0.01679
C 22.09046 4.23441 -0.0276
C 23.32876 6.37509 -0.00178
C 20.91462 6.41826 0.03046
C 20.94964 4.97479 0.0296
C 19.66572 4.28208 0.03374
C 19.58842 2.78094 -0.02845
C 20.82076 2.05921 -0.03213
C 20.82138 0.64037 0.02239
C 19.57372 33.96449 0.01153
C 22.02221 32.54489 0.02734
C 23.26839 31.91753 -0.0055
C 23.35646 30.55582 0.01515
C 23.48899 13.54988 -0.00225
C 22.14902 13.07308 0.00071
C 22.16707 11.48324 -0.01107
C 23.3761 10.66969 -0.01586
C 23.29734 9.22684 -0.01971
C 22.13263 8.64382 -0.02118
C 22.12471 7.10236 0.00733
C 23.32872 4.91278 0.00768
C 29.25128 20.14618 0.01836
C 24.51877 2.81013 0.00367
C 25.75285 0.70116 0.00996
C 28.19373 4.93389 0.00235
C 26.9435 4.28023 0.01495
C 27.01693 2.91094 0.01259
C 28.26749 2.10397 0.01799
C 28.25181 0.75206 0.01699
C 26.92544 34.07465 -0.00416
C 29.38972 32.62526 0.01177
C 30.6901 31.84773 0.04266
C 30.65726 30.46208 0.01324
C 29.35644 29.69423 0.0014
C 29.39143 28.20921 0.00924
C 30.6269 27.58507 0.02326
C 30.78556 26.17398 0.00261
C 29.39122 25.34288 0.03265
C 29.68626 24.03481 -0.02049
C 30.89049 23.46196 -0.01854
C 30.88227 22.09074 -0.01415
C 28.16323 6.34623 0.01094
C 25.75658 2.25948 0.04306
C 26.95474 7.04579 0.02198
C 28.22613 9.18211 -0.00621
C 24.50234 0.00189 0.00195
C 26.92651 32.63104 -0.00802
C 28.17951 31.88578 -0.00218
C 28.09776 30.36741 -0.01654
C 26.91719 29.70959 -0.00037
C 27.04713 28.38828 -0.0032
C 28.07342 27.53317 0.00622
C 28.26952 26.13932 -0.02815
C 28.18775 19.25936 -0.00942
C 28.01721 17.97117 0.00487
C 26.893 17.10999 0.00826
C 26.69606 15.70541 -0.00294
C 28.0865 15.00785 0.00152
C 28.17492 13.58302 0.01257
C 27.0474 12.72667 0.02316
C 27.08415 11.37584 0.04185
C 28.37269 10.64715 0.00194
C 27.04922 8.50685 0.02611
C 2.32651 32.7557 0.01396
