420
Graphene
C 34.42786 34.01881 0.01295
C 13.50876 27.76616 0.00406
C 13.4764 26.27823 0.00943
C 12.24527 25.63782 0.02841
C 12.33121 24.20915 -0.01111
C 13.53646 23.42671 -0.01275
C 13.45842 21.95659 0.00985
C 12.28046 21.30214 -0.02245
C 12.275 19.84913 -0.00428
C 13.47183 19.15292 0.03101
C 13.49696 17.71783 -0.01536
C 12.27785 28.50476 0.03592
C 12.311 16.97982 -0.02689
C 13.67144 14.84975 -0.00891
C 13.54891 13.48369 0.02819
C 12.37115 12.71259 0.00165
C 12.3814 11.34678 -0.02971
C 13.50735 8.97783 0.02894
C 12.27845 8.37854 -0.01789
C 12.22935 6.97387 0.00444
C 13.52058 6.32289 -0.00925
C 13.5114 4.92535 0.01877
C 12.29099 4.30321 0.01363
C 12.40165 15.55712 -0.01046
C 12.35244 2.82391 -0.02162
C 12.26246 29.88417 0.00572
C 13.54182 32.0152 -0.02759
C 9.74824 21.38122 0.00488
C 9.80122 19.93025 -0.01004
C 11.07313 19.17475 -0.02896
C 11.08436 17.78891 -0.00131
C 9.81016 17.13418 -0.01118
C 9.7922 15.76213 -0.014
C 11.05115 14.95896 0.02147
C 11.07586 13.49195 0.00373
C 9.86177 12.82916 -0.00191
C 9.94457 11.32571 0.00438
C 13.49607 30.60715 0.0402
C 11.10744 10.56968 0.01291
C 9.83066 8.51865 0.00057
C 9.83765 7.08655 -0.01634
C 11.02491 6.33469 -0.00334
C 11.03479 4.94985 0.02339
C 9.7676 4.27269 0.01641
C 9.7869 2.8361 -0.00719
C 11.0494 2.12676 0.01364
C 11.03471 0.75099 -0.01062
C 9.81943 0.02004 -0.00033
C 12.3093 32.70672 0.03589
C 11.10586 9.18252 0.00093
C 13.51681 2.16694 0.00415
C 13.51583 0.65989 -0.0014
C 12.25391 0.04069 0.02162
C 18.41223 30.54596 0.02098
C 17.17947 29.81118 0.01848
C 17.23031 28.42802 -0.00619
C 18.44973 27.66551 -0.02162
C 18.44951 26.28305 0.00889
C 17.15262 25.55669 -0.00481
C 17.22608 24.09533 0.00979
C 18.45751 23.42024 0.01443
C 18.46735 21.94055 0.03505
C 17.20287 21.23851 -0.02815
C 18.37869 31.9665 -0.03113
C 17.20646 19.8459 -0.04147
C 18.33491 17.67692 0.00213
C 17.12748 17.01293 -0.00066
C 18.39587 6.50026 -0.00289
C 18.38913 5.02274 0.00028
C 17.12893 4.27062 -0.02213
C 17.12211 2.85883 0.03698
C 18.3253 2.14988 -0.00109
C 18.37796 0.7368 -0.00491
C 17.18743 34.06657 0.03338
C 19.65531 32.64237 -0.0258
C 18.39758 19.14848 -0.05302
C 17.20874 32.67087 0.0351
C 14.74088 0.04283 0.00422
C 16.00671 0.70463 0.00798
C 14.80268 32.67446 0.0076
C 15.97764 31.97815 0.01241
C 15.95916 30.56278 -0.01454
C 14.75058 29.86492 0.01945
C 14.80836 28.45371 0.01416
C 16.01481 27.71066 0.03542
C 15.99961 26.28663 0.02299
C 14.69553 25.57256 0.00244
C 14.76364 24.14917 -0.01717
C 16.05274 23.39505 0.05265
C 15.92906 21.95207 -0.01952
C 14.66986 21.21284 -0.02813
C 14.67977 19.8125 0.00374
C 15.94807 19.13475 0.00052
C 15.99583 17.78996 -0.03682
C 14.73118 17.10126 0.01965
C 14.68352 15.68457 0.02058
C 14.70372 7.05656 -0.01957
C 15.97739 6.4016 -0.0108
C 15.93349 5.011 -0.00368
C 14.7143 4.23178 -0.02696
C 14.74379 2.91287 -0.00114
C 15.94681 2.11381 0.00228
C 11.06036 22.03675 0.01745
C 20.92756 31.9768 -0.0331
C 11.12376 23.52378 0.03693
C 9.82019 25.6142 -0.00482
C 2.38593 2.88989 -0.00561
C 3.64919 2.17234 0.00208
C 3.646 0.70207 0.01707
C 2.44526 0.00654 0.02769
C 4.88261 32.64436 -0.03291
C 6.05298 31.99682 -0.04999
C 6.11733 30.60663 0.04505
C 4.91411 29.84506 0.03284
C 5.00199 28.40764 -0.04307
C 6.12319 27.67451 0.03189
C 2.41076 4.31839 -0.01977
C 6.09387 26.25117 0.00031
C 4.86103 24.08484 0.01402
C 6.17448 23.40995 0.02379
C 6.1557 22.0204 0.00907
C 4.90284 21.26741 0.00643
C 4.91345 19.91239 -0.01509
C 6.13082 19.21304 0.03267
C 6.08971 17.79479 0.02374
C 4.87174 17.04609 0.00402
C 4.93835 15.63809 0.0073
C 6.19106 14.97703 0.0174
C 4.89028 25.53722 -0.003
C 6.12329 13.49345 0.03828
C 3.6722 5.06626 0.02784
C 2.34097 7.1626 -0.00449
C 3.66776 30.52836 0.00748
C 2.48368 29.82441 0.00662
C 2.49809 28.39619 -0.0154
C 3.72689 27.60594 -0.01299
C 3.63853 26.18283 -0.00407
C 2.38232 25.49315 0.01138
C 2.43299 24.14153 0.03278
C 3.62259 23.42974 -0.00177
C 3.62833 22.05208 0.04421
C 2.40054 21.35609 0.00088
C 3.61821 6.48767 -0.01979
C 2.4764 19.88514 0.00828
C 3.73285 17.78575 0.00558
C 2.45205 17.07482 -0.0059
C 2.48056 15.59197 -0.01386
C 3.68023 14.81624 -0.02805
C 3.66713 13.50029 0.00081
C 2.35364 12.71554 0.00245
C 2.36309 11.2655 0.02728
C 3.66253 10.63602 -0.00039
C 3.66743 9.21189 0.0064
C 2.43138 8.54518 0.00211
C 3.72148 19.2156 -0.02375
C 4.91031 12.73853 0.01226
C 4.88299 11.32289 -0.00279
C 6.20981 10.65811 0.01996
C 8.66843 14.96308 -0.01303
C 8.65442 13.57016 -0.01378
C 7.42371 12.8403 0.02635
C 7.35703 11.45277 0.0127
C 8.63571 10.69373 0.01396
C 8.60923 9.2802 0.01849
C 7.34655 8.59813 -0.01142
C 7.34403 7.14804 -0.00562
C 8.59162 6.40461 -0.00494
C 8.56689 5.00658 0.00054
C 7.43137 15.66492 0.00848
C 7.33693 4.28849 0.03007
C 8.5089 2.19934 0.01572
C 8.60347 0.76851 -0.04848
C 7.34511 0.07773 -0.00892
C 9.80352 32.76808 -0.01362
C 11.05348 32.0742 -0.0008
C 11.07402 30.5759 0.0288
C 9.82111 29.9038 0.00393
C 9.83756 28.4988 0.00895
C 11.12729 27.83283 0.00685
C 11.0657 26.34436 0.02888
C 7.33761 2.92397 -0.00095
C 7.36222 17.10722 -0.00049
C 8.62435 17.8679 0.00873
C 8.63675 19.23948 0.01227
C 6.12711 9.27689 -0.03996
C 4.9548 8.60381 0.01465
C 4.90083 7.17314 -0.00074
C 6.1703 6.43465 -0.00518
C 6.12199 5.03471 0.0086
C 4.8928 4.31596 -0.00643
C 4.89524 2.90647 0.017
C 6.13239 2.21494 -0.03113
C 6.06993 0.80925 -0.02566
C 4.86671 0.0279 -0.00094
C 7.30869 32.71141 0.02322
C 8.60134 32.01709 -0.00725
C 8.53802 30.63232 -0.05697
C 7.33603 29.85751 0.01087
C 7.38106 28.37884 -0.01343
C 8.59147 27.73594 0.00988
C 8.54643 26.3015 0.0276
C 7.34935 25.59874 0.01305
C 7.39271 24.17506 -0.00077
C 8.65191 23.52411 0.03368
C 8.58098 22.0159 -0.02929
C 7.31882 21.33071 -0.00966
C 7.33675 19.94174 -0.03337
C 9.8212 24.22857 -0.01384
C 20.90029 30.57547 -0.00316
C 19.67698 29.85264 0.02188
C 19.75027 28.38802 -0.01979
C 29.44637 11.32402 -0.02155
C 30.68822 10.60189 -0.00944
C 30.72997 9.23555 -0.03735
C 29.5169 8.4194 -0.00971
C 29.52916 7.11273 0.01518
C 30.73534 6.37528 0.01908
C 30.75167 4.91423 0.07705
C 29.50304 4.24465 0.0103
C 29.46274 2.92136 0.02108
C 30.67104 2.07524 0.00716
C 29.50559 12.76599 -0.01461
C 30.65486 0.69766 0.00307
C 31.91333 32.64802 0.01713
C 33.1932 31.95103 -0.01694
C 33.23728 30.4582 0.01428
C 31.98393 29.7873 -0.02142
C 31.98809 28.4181 0.0544
C 33.21837 27.67254 0.00026
C 33.22514 26.21993 0.00682
C 31.97509 25.53762 -0.01779
C 31.92448 24.17991 0.03794
C 33.17017 23.43296 0.01927
C 29.40278 34.0572 0.00346
C 33.20832 21.98951 0.01574
C 30.78317 13.43422 -0.01303
C 29.53576 15.57477 0.01705
C 28.32727 4.99602 0.00235
C 27.02312 4.31607 0.01495
C 27.0439 2.94312 0.01259
C 28.23928 2.1654 0.01799
C 28.25553 0.74194 0.01699
C 27.0552 0.03675 -0.00416
C 29.41715 32.6197 0.01177
C 30.71268 31.8888 0.04266
C 30.71215 30.53386 0.01324
C 29.54118 29.85267 0.0014
C 30.79025 14.81394 -0.0405
C 29.55422 28.40536 0.00924
C 30.7618 26.22286 0.00261
C 29.58294 25.60885 0.03265
C 29.5038 24.10539 -0.02049
C 30.69797 23.37066 -0.01854
C 30.61989 21.9217 -0.01415
C 29.47772 21.25185 -0.03039
C 29.4696 19.77472 0.01836
C 30.67823 19.15585 0.03531
C 30.73198 17.71906 -0.00669
C 29.47649 17.03384 0.0101
C 30.77776 27.6175 0.02326
C 31.967 21.2411 -0.02383
C 31.9235 19.84918 -0.01429
C 33.1693 19.18097 -0.0136
C 1.1697 23.43093 0.00723
C 1.1865 21.99705 0.02712
C 34.40783 21.2609 -0.02213
C 34.36757 19.89177 0.01951
C 1.26719 19.20452 -0.01678
C 1.30709 17.75426 0.01223
C 0.03838 17.09813 0.00648
C 0.02494 15.67708 0.02114
C 1.25164 14.94334 -0.02957
C 1.17482 13.51099 0.00343
C 34.37165 24.11063 0.03076
C 34.37548 12.71796 -0.02656
C 1.08924 10.57982 -0.00027
C 1.1727 9.17662 -0.00583
C 34.39933 8.46428 -0.02302
C 34.35721 7.04347 -0.02849
C 1.13863 6.33548 0.02931
C 1.18663 5.02174 0.00628
C 34.38654 4.27468 -0.0345
C 34.41213 2.84847 -0.00931
C 1.1993 2.12979 -0.00939
C 1.21349 0.65414 -0.00468
C 34.37661 11.35713 -0.02442
C 0.01958 25.53885 -0.05239
C 1.21476 26.23661 -0.00598
C 1.31088 27.61391 -0.00439
C 33.15883 17.78111 0.00594
C 31.92548 17.05304 -0.02474
C 31.96028 15.57741 0.00369
C 33.22302 14.91486 0.00455
C 33.2182 13.49318 -0.00644
C 31.97592 12.79265 -0.01839
C 31.92761 11.32014 0.00137
C 33.1693 10.59703 0.00199
C 33.15981 9.20408 0.04381
C 31.94364 8.49625 0.02806
C 31.93082 7.06735 0.01504
C 33.18817 6.33139 -0.00069
C 33.14712 4.92025 0.04926
C 31.92301 4.15404 -0.03838
C 31.93734 2.7357 0.00349
C 33.13799 2.0817 -0.00323
C 33.16343 0.66069 -0.00841
C 31.98421 0.0427 0.0001
C 0.02309 32.6427 -0.02927
C 1.19537 31.8997 -0.01404
C 1.25062 30.48776 0.01027
C 34.42299 29.76646 0.01831
C 0.04475 28.39036 -0.01037
C 28.3209 6.38112 0.01094
C 27.04421 7.03209 0.02198
C 27.08713 8.4931 0.02611
C 28.2991 9.14928 -0.00621
C 23.41803 23.40668 0.0106
C 23.46854 22.00793 -0.01154
C 22.18391 21.23583 -0.01721
C 22.1538 19.81374 -0.02422
C 23.38109 19.09987 0.01277
C 23.2719 17.70531 0.00096
C 22.02392 17.13076 -0.01527
C 22.14296 15.70036 0.01087
C 23.18354 14.82453 0.00199
C 23.33674 13.43798 0.01511
C 22.18518 24.19302 -0.01594
C 23.47687 10.7046 -0.00478
C 22.29746 8.47795 -0.01185
C 21.93158 7.18705 0.01126
C 23.28199 6.43848 0.01852
C 23.43012 4.96351 -0.00381
C 22.08857 4.29725 0.03046
C 22.04864 2.86251 0.0296
C 23.27703 2.17206 0.03374
C 23.30193 0.76871 -0.02845
C 22.09305 0.07655 -0.03213
C 24.53032 32.71366 0.02239
C 23.3268 9.34812 -0.01662
C 22.1873 25.59666 0.00742
C 23.4316 26.35037 -0.00311
C 23.48165 27.71623 0.00675
C 20.95258 27.70893 0.02691
C 20.87866 26.23068 -0.01581
C 19.71177 25.53031 0.01452
C 19.69358 24.04595 0.04892
C 20.99989 23.46708 -0.00111
C 20.93461 21.94613 -0.03557
C 19.77828 21.34427 0.03754
C 19.6827 19.90994 0.01739
C 20.86117 19.17634 0.00755
C 20.81585 17.71314 -0.0054
C 19.5825 17.06114 0.00667
C 20.75989 6.41443 0.00143
C 20.82952 5.00476 -0.017
C 19.54538 4.31043 0.00364
C 19.63184 2.86989 -0.00831
C 20.82473 2.14144 -0.02957
C 20.83444 0.73511 -0.04422
C 19.62825 0.03257 0.00654
C 22.10784 32.7458 -0.00703
C 23.29058 31.97846 -0.04076
C 23.33799 30.59763 -0.00652
C 22.12058 29.784 0.0058
C 22.21129 28.42705 -0.00865
C 25.82117 32.05387 0.01153
C 3.62628 31.98442 0.03345
C 25.81524 30.61561 0.02734
C 24.64747 28.4292 0.01515
C 27.01991 32.7014 -0.01052
C 28.29403 31.92445 -0.01679
C 28.24618 30.52382 0.00367
C 27.0871 29.81002 0.04306
C 27.14325 28.40081 0.00996
C 28.34783 27.70114 0.00195
C 28.2693 26.24933 -0.00802
C 27.07059 25.52104 -0.00218
C 27.00506 24.10536 -0.01654
C 28.22829 23.41635 -0.00037
C 24.52408 34.06491 0.00684
C 28.22065 21.94498 -0.0032
C 27.01946 19.80174 -0.02815
C 28.22236 19.10772 -0.00942
C 28.20197 17.70432 0.00487
C 27.00275 16.95231 0.00826
C 27.01013 15.58452 -0.00294
C 28.27394 14.89425 0.00152
C 28.34802 13.46579 0.01257
C 27.03646 12.76784 0.02316
C 27.08356 11.36573 0.04185
C 28.22829 10.59473 0.00194
C 27.00136 21.20586 0.00622
C 25.8309 0.71058 -0.01154
C 25.8087 2.16575 -0.0264
C 24.62817 2.83124 -0.00938
C 25.90584 27.71152 -0.00225
C 25.90927 26.3073 0.00071
C 24.66534 25.60114 -0.01107
C 24.6188 24.12859 -0.01586
C 25.81445 23.40437 -0.01971
C 25.85826 21.99372 -0.02118
C 24.69354 21.26828 0.00733
C 24.57036 19.77151 -0.00178
C 25.75309 19.08887 0.00768
C 25.79725 17.67558 -0.0276
C 24.50751 16.97008 0.03005
C 24.56139 15.51913 -0.04078
C 25.77468 14.865 0.02117
C 25.83833 13.50655 0.02737
C 24.6219 12.78238 -0.00498
C 24.70067 11.33832 0.00135
C 25.90519 10.61421 0.03102
C 25.84512 9.27864 0.02555
C 24.58579 8.5835 0.01423
C 24.57096 7.11565 -0.00285
C 25.80397 6.40215 -0.009
C 25.8067 4.9657 -0.01199
C 24.59438 4.23044 -0.00229
C 24.60209 29.93716 -0.0055
C 2.38757 32.64133 -0.00112
