353
Graphene
C 34.40948 0.0693 0.01295
C 17.18176 25.55517 -0.00114
C 17.18651 24.09741 0.00228
C 18.40953 23.43223 0.00798
C 18.47968 22.06122 0.00422
C 17.21544 21.32329 0.0351
C 17.16806 19.91916 -0.03113
C 18.38865 19.15185 0.02098
C 18.38303 17.70957 0.01848
C 18.4742 26.27775 -0.02696
C 17.21357 16.91579 -0.00619
C 18.53651 14.85598 0.00889
C 18.48682 13.51022 -0.00481
C 17.21965 12.84716 0.00979
C 17.20952 11.41131 0.01443
C 18.50962 10.64591 0.03505
C 18.43624 9.22206 -0.02815
C 17.19711 8.49326 -0.04147
C 17.21836 7.05449 -0.05302
C 17.24984 15.55221 -0.02162
C 18.42019 6.34316 0.00213
C 18.45973 27.64341 -0.00368
C 17.23334 29.83376 -0.01957
C 15.91068 14.97396 0.02162
C 15.98567 13.6019 0.0076
C 14.72295 12.84038 0.01241
C 14.76276 11.43256 -0.01454
C 16.02211 10.65747 0.01945
C 16.01721 9.21575 0.01416
C 14.78055 8.58761 0.03542
C 14.75157 7.18399 0.02299
C 17.21113 28.39481 -0.0108
C 15.93352 6.33453 0.00244
C 14.76492 4.29425 0.05265
C 14.74214 2.80764 -0.01952
C 16.02001 2.15833 -0.02813
C 15.99395 0.71792 0.00374
C 14.77538 0.00141 0.00052
C 17.17798 32.62392 -0.03682
C 18.48053 31.94209 0.01965
C 18.43448 30.47978 0.02058
C 16.01071 4.95453 -0.01717
C 14.64356 15.7082 -0.0014
C 18.4542 4.94723 -0.00066
C 17.17984 2.79925 0.00028
C 19.69122 12.81879 -0.017
C 19.62272 11.44007 0.00364
C 20.86819 10.68964 -0.00831
C 20.8388 9.2512 -0.02957
C 19.65758 8.48144 -0.04422
C 19.60693 7.012 0.00654
C 20.87735 6.36839 -0.00703
C 20.91262 4.9983 -0.04076
C 20.895 13.53393 0.00143
C 19.69349 4.20196 -0.00652
C 20.92681 2.1286 -0.00865
C 20.95165 0.61485 0.00675
C 19.68807 0.02365 -0.00311
C 22.18063 32.59476 0.00742
C 23.37146 31.92708 -0.01594
C 23.30208 30.54318 0.0106
C 22.13719 29.75358 -0.01154
C 22.10336 28.37966 -0.01721
C 19.68721 2.82846 0.0058
C 17.26073 4.23146 -0.00289
C 20.93118 14.89652 0.00667
C 19.67064 17.07912 0.00755
C 18.49583 2.12247 -0.02213
C 18.46815 0.70577 0.03698
C 17.23292 34.07768 -0.00109
C 19.70975 32.63848 -0.00491
C 20.95056 31.95954 0.03338
C 20.89472 30.53633 -0.0258
C 19.66408 29.86211 -0.0331
C 19.66386 28.42348 -0.00316
C 19.6869 15.66503 -0.0054
C 20.82599 27.69885 0.02188
C 19.61968 25.45409 0.02691
C 19.66032 24.06698 -0.01581
C 20.9214 23.39254 0.01452
C 20.9218 21.98133 0.04892
C 19.69184 21.28344 -0.00111
C 19.60305 19.86592 -0.03557
C 20.84474 19.13549 0.03754
C 20.86184 17.73683 0.01739
C 20.76649 26.28338 -0.01979
C 14.70854 17.09874 0.00415
C 15.95554 17.7439 -0.02162
C 15.96325 19.17311 0.01363
C 4.99701 33.87204 0.03007
C 8.54049 17.659 -0.00095
C 7.36006 16.97707 0.01572
C 7.38224 15.53331 -0.04848
C 8.58484 14.97776 -0.00892
C 8.60657 13.53666 -0.01362
C 7.43925 12.74135 -0.0008
C 7.31943 11.38693 0.0288
C 6.00635 0.425 0.00054
C 8.60179 10.67597 0.00393
C 7.35546 8.73675 0.00685
C 8.85688 1.95095 0.02888
C 8.58388 0.57325 -0.00482
C 7.26239 0.40689 -0.01384
C 11.03609 17.73856 0.03693
C 9.78919 17.22845 0.01745
C 9.85455 15.62462 0.00488
C 11.07809 14.9738 -0.01004
C 8.59354 9.25502 0.00895
C 11.07804 13.46799 -0.02896
C 6.22349 9.31546 -0.00494
C 4.86709 11.2913 -0.01142
C 2.46071 19.82432 0.00988
C 3.5862 17.76767 0.0276
C 2.42173 17.05415 0.01305
C 2.49204 15.59136 -0.00077
C 3.71191 14.95864 0.03368
C 3.63101 13.49649 -0.02929
C 2.49141 12.74414 -0.00966
C 2.42731 11.38555 -0.03337
C 6.08207 10.67477 -0.00562
C 3.68332 10.66713 0.01227
C 2.39757 0.22177 -0.00049
C 4.67041 32.67637 0.00848
C 6.12331 17.67081 -0.01303
C 4.88999 17.15344 -0.01378
C 4.89517 15.65427 0.02635
C 6.13408 14.86151 0.0127
C 6.08857 13.4316 0.01396
C 4.9077 12.77739 0.01849
C 3.61478 9.24364 0.00873
C 9.87118 12.78958 -0.00131
C 9.82239 11.42972 -0.01118
C 11.07311 10.65889 -0.014
C 12.3706 7.06671 -0.01111
C 13.5955 6.38461 -0.01275
C 13.55061 5.00192 0.00985
C 12.33779 4.31288 -0.02245
C 12.30193 2.88728 -0.00428
C 13.50166 2.13985 0.03101
C 13.55365 0.70563 -0.01536
C 12.24667 0.01613 -0.02689
C 12.34416 8.41977 0.02841
C 14.75347 32.64303 -0.01046
C 15.87981 30.4558 0.02819
C 14.71983 29.90463 0.00165
C 16.13982 27.61561 -0.02971
C 16.19205 26.36069 0.02894
C 15.98298 23.40134 -0.01789
C 15.90761 22.03903 0.00444
C 14.77561 21.27408 -0.00925
C 14.66471 19.93745 0.01877
C 15.99185 32.01973 -0.00891
C 13.52176 9.27037 0.00943
C 13.53741 10.67959 0.00406
C 12.33419 11.39141 0.03592
C 11.10659 9.2207 0.02147
C 9.83006 8.52527 0.00373
C 9.88155 7.14843 -0.00191
C 10.98402 6.40282 0.00438
C 11.0754 5.00135 0.01291
C 9.86513 4.30551 0.00093
C 9.73759 2.90958 0.00057
C 11.07285 2.21336 -0.01634
C 11.05137 0.75632 -0.00334
C 9.83673 0.07945 0.02339
C 12.44025 32.74716 0.01641
C 13.54024 32.10154 -0.00719
C 13.48487 19.1991 0.01364
C 13.43964 17.85731 -0.01062
C 12.23314 17.15034 -0.00033
C 12.23244 15.70447 0.03589
C 13.44953 14.95556 -0.02759
C 13.49135 13.5139 0.0402
C 12.30114 12.84476 0.00572
C 23.33292 27.71878 -0.02422
C 3.54147 32.12166 -0.01343
C 23.27972 26.26141 0.01277
C 22.10804 24.13816 -0.01527
C 30.62269 4.99347 -0.01694
C 29.39682 4.22575 0.01428
C 29.42714 2.93043 -0.02142
C 30.57152 2.16634 0.0544
C 30.54307 0.68575 0.00026
C 29.34191 34.05836 0.00682
C 31.95133 32.70635 -0.01779
C 33.20087 31.97635 0.03794
C 30.76712 6.4093 0.01713
C 33.13398 30.53786 0.01927
C 31.90875 28.38069 -0.02383
C 33.21625 27.67843 -0.01429
C 33.17676 26.26212 -0.0136
C 31.93418 25.5085 0.00594
C 31.97986 24.12547 -0.02474
C 33.18579 23.42227 0.00369
C 33.21975 22.08446 0.00455
C 31.95653 21.2939 -0.00644
C 31.89423 29.81094 0.01574
C 31.93119 19.92632 -0.01839
C 29.54552 7.17381 0.00346
C 30.73524 9.25025 0.00716
C 29.51417 28.3508 -0.03039
C 30.73782 27.7115 0.01836
C 30.6777 26.28249 0.03531
C 29.45176 25.59947 -0.00669
C 29.5282 24.10422 0.0101
C 30.6919 23.39871 0.01705
C 30.74782 22.01481 -0.0405
C 29.55834 21.29318 -0.01303
C 29.51184 8.58345 0.00307
C 29.54457 19.85699 -0.01461
C 30.74357 17.77534 -0.00944
C 29.55199 16.98415 -0.03735
C 29.48927 15.61265 -0.00971
C 30.76827 14.9779 0.01518
C 30.7133 13.52164 0.01908
C 29.55375 12.77203 0.07705
C 29.5931 11.33242 0.0103
C 30.8287 10.61734 0.02108
C 30.72573 19.16801 -0.02155
C 29.50053 29.80415 -0.01415
C 33.13441 19.18432 0.00137
C 32.00462 17.07935 0.04381
C 34.29131 24.22588 -0.01678
C 34.30604 21.25866 0.01223
C 34.33065 19.96791 0.00648
C 1.24476 19.22525 0.02114
C 1.15876 17.76299 -0.02957
C 34.39858 17.05432 0.00343
C 0.01682 15.6037 -0.02656
C 1.29049 14.85051 -0.02442
C 34.39831 25.47401 0.01951
C 1.28202 13.49339 -0.00027
C 0.07724 11.38595 -0.02302
C 1.26214 10.62264 -0.02849
C 1.24188 9.26546 0.02931
C 0.07326 8.42306 0.00628
C 34.39339 7.04198 -0.0345
C 34.28524 4.25826 -0.00931
C 34.34992 2.9589 -0.00939
C 1.19787 0.7208 -0.00468
C 34.42743 12.77655 -0.00583
C 33.22614 17.75449 0.00199
C 34.35866 28.40759 -0.02213
C 1.16156 30.6095 0.00723
C 32.01618 15.58818 0.02806
C 33.25692 14.85935 0.01504
C 33.24519 13.50564 -0.00069
C 31.96897 12.81915 0.04926
C 32.00406 11.41134 -0.03838
C 33.22488 10.61803 0.00349
C 33.20198 9.22772 -0.00323
C 31.97554 8.48109 -0.00841
C 0.11946 29.74514 0.02712
C 31.9656 7.04079 0.0001
C 33.12563 4.93719 -0.01404
C 31.84886 4.2275 0.01027
C 31.96995 2.84658 0.01831
C 33.2647 2.12559 -0.01037
C 33.18722 0.8012 -0.00439
C 31.87393 0.03611 -0.00598
C 34.41521 32.67949 -0.05239
C 1.18873 31.96874 0.03076
C 33.23698 6.32351 -0.02927
C 30.71268 30.52321 -0.01854
C 30.74466 32.04279 -0.02049
C 29.42546 32.7075 0.03265
C 22.21651 34.06672 -0.01586
C 24.59601 32.68483 -0.01971
C 25.86289 31.99236 -0.02118
C 25.84359 30.57515 0.00733
C 24.61922 29.85246 -0.00178
C 24.61295 28.4357 0.00768
C 25.84935 27.74636 -0.0276
C 25.81045 26.28805 0.03005
C 23.45294 0.73308 -0.01107
C 24.5837 25.60659 -0.04078
C 25.83654 23.38412 0.02737
C 25.86569 21.92459 -0.00498
C 24.58828 21.33627 0.00135
C 24.62705 19.90219 0.03102
C 25.84785 19.16385 0.02555
C 25.78012 17.67051 0.01423
C 24.55292 17.0138 -0.00285
C 24.53199 15.57297 -0.009
C 24.5955 24.12363 0.02117
C 25.76011 14.83717 -0.01199
C 23.3803 2.14155 0.00071
C 22.16043 4.25832 0.01515
C 23.35023 23.48307 0.01087
C 23.35932 22.01237 0.00199
C 22.15302 21.27549 0.01511
C 22.11764 19.81895 -0.00478
C 23.39011 19.16787 -0.01662
C 23.33604 17.7503 -0.01185
C 22.06968 17.02711 0.01126
C 22.15223 15.59035 0.01852
C 22.15031 2.84948 -0.00225
C 23.33939 14.90275 -0.00381
C 22.04876 12.84455 0.0296
C 22.09104 11.40064 0.03374
C 23.2966 10.62631 -0.02845
C 23.26226 9.22651 -0.03213
C 22.01636 8.4875 0.02239
C 22.12169 7.06024 0.01153
C 23.38277 6.40885 0.02734
C 23.4168 4.99398 -0.0055
C 23.35226 13.49585 0.03046
C 25.82125 13.35188 -0.00229
C 24.45045 12.69176 -0.00938
C 24.51287 11.30681 -0.0264
C 27.10837 19.7761 0.00194
C 28.34892 19.10376 -0.00621
C 28.28531 17.67291 0.02611
C 27.06176 16.94695 0.02198
C 26.94757 15.55284 0.01094
C 28.27097 14.85446 0.00235
C 28.32333 13.38854 0.01495
C 27.03689 12.71586 0.01259
C 27.10665 21.22869 0.04185
C 27.10236 11.32942 0.01799
C 28.27037 9.26391 -0.00416
C 27.03346 8.5377 0.01177
C 27.03857 7.14172 0.04266
C 28.28809 6.40248 0.01324
C 28.24772 5.03437 0.0014
C 27.06207 4.24417 0.00924
C 27.16934 2.90927 0.02326
C 27.27385 34.04618 0.00261
C 28.32105 10.62014 0.01699
C 28.39955 21.93783 0.02316
C 28.26424 23.44589 0.01257
C 27.05366 24.10878 0.00152
C 25.75706 10.65103 -0.01154
C 25.78834 9.23132 0.00684
C 24.53156 8.6196 -0.01052
C 24.55433 7.15301 -0.01679
C 25.8453 6.38011 0.00367
C 25.85694 4.99265 0.04306
C 24.62377 4.29702 0.00996
C 24.60385 2.86404 0.00195
C 25.95574 2.22015 -0.00802
C 26.01903 0.66259 -0.00218
C 24.70561 0.03212 -0.01654
C 27.04184 32.72322 -0.00037
C 28.27169 31.90145 -0.0032
C 28.28071 30.49524 0.00622
C 27.07737 29.90243 -0.02815
C 27.04998 28.45643 -0.00942
C 28.3877 27.69025 0.00487
C 28.25326 26.30972 0.00826
C 27.04555 25.55616 -0.00294
C 22.06991 25.60621 0.00096
C 2.43756 32.7448 0.01087
