275
Graphene
C 34.3402 0.15391 0.01295
C 17.34113 33.08251 -0.01527
C 14.86137 0.13909 0.00096
C 16.04232 1.01897 0.01277
C 15.94635 2.66818 -0.02422
C 14.59192 3.23754 -0.01721
C 15.92573 10.72241 -0.01154
C 14.77517 11.40892 0.0106
C 14.70876 13.16119 -0.01594
C 15.91914 13.73972 0.00742
C 16.4699 15.05101 -0.00311
C 17.1392 30.95161 0.00675
C 16.19171 32.20544 -0.00865
C 14.84742 32.73697 0.0058
C 12.31097 34.05083 -0.00652
C 18.17937 31.99168 0.01087
C 13.53355 0.72467 -0.04076
C 12.13005 2.72676 0.00654
C 12.26554 4.12539 -0.04422
C 13.61099 4.60848 -0.02957
C 13.63168 6.15195 -0.00831
C 12.49316 6.98301 0.00364
C 12.36384 8.44192 -0.017
C 13.51094 9.24954 0.00143
C 13.47281 10.77108 0.00667
C 12.26808 11.41836 -0.0054
C 12.16456 13.00887 0.00755
C 13.44679 13.54325 0.01739
C 13.6819 31.98309 0.03754
C 12.38109 32.43024 -0.03557
C 9.74184 33.82845 -0.00111
C 13.45904 2.22923 -0.00703
C 17.71913 15.30942 0.00199
C 18.78965 14.7645 0.01511
C 18.46246 13.30091 -0.00478
C 22.10781 7.1311 0.00135
C 21.86879 8.47817 -0.00498
C 23.16439 9.25518 0.02737
C 23.21443 10.67541 0.02117
C 21.95026 11.40951 -0.04078
C 21.92716 12.98601 0.03005
C 23.17493 13.65954 -0.0276
C 23.48029 15.0041 0.00768
C 23.408 30.46486 -0.00178
C 23.23486 31.86005 0.00733
C 21.97811 32.64936 -0.02118
C 19.61432 0.12936 -0.01971
C 20.9457 0.701 -0.01586
C 20.99827 2.12995 -0.01107
C 19.93404 3.20734 0.00071
C 20.66266 4.21893 -0.00225
C 20.64287 9.17465 0.01515
C 17.17683 12.74862 -0.01662
C 17.16248 11.1187 -0.01185
C 18.40401 10.48827 0.01126
C 17.28255 3.10318 0.01852
C 18.52891 2.67247 -0.00381
C 18.55839 0.94781 0.03046
C 10.96387 0.51447 0.04892
C 17.30436 0.37306 0.0296
C 20.79458 31.93369 -0.02845
C 20.13535 14.90102 -0.03213
C 20.69981 13.53436 0.02239
C 19.68023 12.58894 0.01153
C 19.68864 11.18446 0.02734
C 20.83128 10.5433 -0.0055
C 19.55899 32.53719 0.03374
C 23.16353 6.41125 0.03102
C 10.92834 2.03014 0.01452
C 9.81701 4.173 0.02691
C 4.92073 8.60484 -0.01957
C 6.18268 9.2653 0.02058
C 6.17141 10.74625 0.01965
C 4.86391 11.47182 -0.03682
C 4.86639 12.82493 0.00052
C 6.06474 13.44973 0.00374
C 5.87722 14.81494 -0.02813
C 4.83843 15.66082 -0.01952
C 5.93733 31.92953 0.05265
C 4.83084 32.71753 -0.01717
C 2.36522 0.05685 0.00244
C 3.56322 0.78791 0.02299
C 3.68595 2.29456 0.03542
C 2.34595 2.9286 0.01416
C 4.90726 7.17532 -0.0108
C 2.47161 4.34482 0.01945
C 3.72027 6.41633 0.01241
C 2.45791 7.13153 0.0076
C 2.39828 8.52183 0.02162
C 3.58585 9.29761 -0.0014
C 3.68442 10.70939 0.00415
C 2.41013 11.42529 -0.02162
C 2.36897 12.83928 0.01363
C 3.62431 13.55416 0.01877
C 3.70949 14.97276 -0.00925
C 2.38301 15.73477 0.00444
C 2.36403 17.02619 -0.01789
C 2.35671 28.58653 0.02894
C 2.47306 29.90952 -0.02971
C 3.57535 30.72892 0.00165
C 3.73256 4.93355 -0.01454
C 6.14996 6.39185 -0.00368
C 6.19375 5.01353 -0.02696
C 5.00837 4.30116 -0.00114
C 11.07947 4.84515 -0.01979
C 11.06463 6.27452 0.02188
C 9.79828 7.05322 -0.00316
C 9.83691 8.60072 -0.0331
C 11.11571 9.18582 -0.0258
C 11.10704 10.64367 0.03338
C 9.81912 11.44393 -0.00491
C 9.76924 13.04504 -0.00109
C 10.93458 13.59601 0.03698
C 11.08478 31.92149 -0.02213
C 9.83416 32.36284 0.00028
C 7.21435 34.07781 -0.00289
C 8.51865 0.52919 -0.00066
C 8.45591 2.018 0.00213
C 7.33607 2.77066 -0.05302
C 7.37745 4.22082 -0.04147
C 8.5952 4.93137 -0.02815
C 4.95307 2.92919 0.00228
C 6.10425 2.1601 0.00798
C 6.04306 0.742 0.00422
C 4.79962 0.09782 0.0351
C 7.25419 32.5076 -0.03113
C 8.49101 31.95078 0.02098
C 9.74137 2.73687 -0.01581
C 8.50392 13.48368 0.01848
C 7.38169 11.50379 -0.02162
C 8.55961 10.73308 0.00889
C 8.5706 9.20433 -0.00481
C 7.37575 8.52441 0.00979
C 7.39809 7.0356 0.01443
C 8.57559 6.36072 0.03505
C 7.34082 12.88721 -0.00619
C 3.59835 32.06183 0.02819
C 23.23407 4.92078 0.02555
C 22.26101 2.73712 -0.00285
C 31.84303 4.33985 -0.03838
C 33.19377 5.0433 0.04926
C 33.19774 6.45625 -0.00069
C 31.92709 7.12346 0.01504
C 31.96729 8.65509 0.02806
C 33.2159 9.28306 0.04381
C 33.17906 10.68221 0.00199
C 31.96437 11.39632 0.00137
C 31.94138 12.82549 -0.01839
C 33.06396 13.49122 -0.00644
C 33.14831 14.98273 0.00455
C 31.9126 15.70878 0.00369
C 31.79944 17.07681 -0.02474
C 33.07451 17.87346 0.00594
C 31.84827 2.89576 0.00349
C 33.0961 19.36095 -0.0136
C 31.79802 21.51271 -0.02383
C 33.14038 22.07004 0.01574
C 33.1028 23.5202 0.01927
C 31.8705 24.12069 0.03794
C 31.78513 25.53836 -0.01779
C 33.12088 26.30396 0.00682
C 33.16977 27.77756 0.00026
C 31.92134 28.50081 0.0544
C 31.91846 29.87298 -0.02142
C 33.22007 30.62955 0.01428
C 33.16269 32.06429 -0.01694
C 31.92901 32.7259 0.01713
C 29.45519 0.00561 0.00346
C 30.61754 0.77652 0.00307
C 31.81575 20.12284 -0.01429
C 33.11101 2.23596 -0.00323
C 33.09873 0.77989 -0.00841
C 31.89424 0.05606 0.0001
C 1.13744 0.81098 -0.00468
C 1.16974 2.21718 -0.00939
C 34.36038 2.9265 -0.00931
C 34.4053 4.384 -0.0345
C 1.27667 5.04092 0.00628
C 1.26577 6.41977 0.02931
C 0.01561 7.20531 -0.02849
C 0.00097 8.56674 -0.02302
C 1.18413 9.2474 -0.00583
C 1.13174 10.69501 -0.00027
C 34.34002 11.44774 -0.02442
C 34.3068 12.85141 -0.02656
C 1.14462 13.53836 0.00343
C 1.17933 15.05091 -0.02957
C 34.37833 15.67894 0.02114
C 34.31439 17.06948 0.00648
C 1.20362 17.80938 0.01223
C 34.3489 32.85499 -0.02927
C 1.09912 32.0518 -0.01404
C 1.19645 30.65693 0.01027
C 0.03734 29.94602 0.01831
C 34.39518 28.46327 -0.01037
C 1.2801 27.82261 -0.00439
C 30.61983 2.1733 0.00716
C 1.03343 26.4624 -0.00598
C 34.4199 24.202 0.03076
C 1.03832 23.41147 0.00723
C 1.10506 22.06328 0.02712
C 34.41529 21.32944 -0.02213
C 34.39174 19.95017 0.01951
C 1.09262 19.15631 -0.01678
C 34.4308 25.62644 -0.05239
C 22.11756 4.18926 0.01423
C 29.43546 2.85697 0.02108
C 30.66751 4.98659 0.07705
C 27.05114 15.57819 -0.00621
C 28.31777 27.80907 0.00194
C 27.08801 28.42848 0.04185
C 26.97468 29.73704 0.02316
C 28.199 30.5349 0.01257
C 28.23439 31.99733 0.00152
C 27.06757 32.65217 -0.00294
C 24.63162 0.03807 0.00826
C 25.8499 0.78207 0.00487
C 25.85101 2.19859 -0.00942
C 24.66399 2.85429 -0.02815
C 24.52136 4.22618 0.00622
C 25.73911 4.98473 -0.0032
C 25.69066 6.43091 -0.00037
C 28.21183 14.899 0.02611
C 24.3948 7.09024 -0.01654
C 25.68234 9.22248 -0.00802
C 25.58863 10.63782 0.00195
C 24.42767 11.39338 0.00996
C 24.39866 12.85473 0.04306
C 25.68982 13.53157 0.00367
C 25.78501 15.10645 -0.01679
C 24.48117 15.73192 -0.01052
C 24.59721 29.95789 0.00684
C 25.80931 30.48707 -0.01154
C 25.87435 31.87128 -0.0264
C 24.50633 32.63027 -0.00938
C 22.20225 34.00684 -0.00229
C 23.35655 0.73991 -0.01199
C 23.45901 2.14145 -0.009
C 24.43755 8.55075 -0.00218
C 28.21485 13.44964 0.02198
C 26.92937 12.78411 0.01094
C 26.89856 11.3181 0.00235
C 30.69807 6.40776 0.01908
C 29.47359 7.1825 0.01518
C 29.42752 8.67543 -0.00971
C 30.69494 9.30002 -0.03735
C 30.64976 10.7112 -0.00944
C 29.38042 11.42436 -0.02155
C 29.47289 12.7962 -0.01461
C 30.7238 13.61051 -0.01303
C 30.66291 14.92377 -0.0405
C 29.45167 15.68516 0.01705
C 29.41784 17.08939 0.0101
C 30.44095 17.96436 -0.00669
C 30.61499 19.25205 0.03531
C 30.7284 26.42328 0.01836
C 30.75981 27.70997 -0.03039
C 29.54526 28.47508 -0.01415
C 29.50602 29.84703 -0.01854
C 28.18622 10.70956 0.01495
C 28.12746 9.31093 0.01259
C 26.90191 8.5707 0.01799
C 26.94336 7.16492 0.01699
C 28.16323 6.45226 -0.00416
C 28.23676 5.01208 0.01177
C 29.46133 4.34236 0.0103
C 27.04778 4.29241 0.04266
C 28.26663 2.13568 0.0014
C 28.23574 0.73798 0.00924
C 26.98451 0.09726 0.02326
C 29.46846 32.67639 0.00261
C 30.63859 31.9449 0.03265
C 30.75857 30.56615 -0.02049
C 27.07757 2.8654 0.01324
C 2.3459 32.7433 -0.00891
