425
Graphene
C 34.38757 34.05486 0.01295
C 12.21381 24.24862 0.00572
C 13.42811 23.4848 0.03592
C 13.4968 22.0145 0.00406
C 12.26344 21.32027 0.00943
C 12.27043 19.82209 0.02841
C 13.54153 19.25549 -0.01111
C 13.63837 17.78233 -0.01275
C 12.35246 17.11776 0.00985
C 12.27542 15.69639 -0.02245
C 13.51852 14.9508 -0.00428
C 12.22047 25.59731 0.0402
C 13.5719 13.57352 0.03101
C 12.39219 11.29555 -0.02689
C 13.6042 10.56661 -0.01046
C 13.6099 9.1912 -0.00891
C 12.31148 8.58536 0.02819
C 12.26645 7.08507 0.00165
C 13.54898 6.35868 -0.02971
C 13.4613 4.95211 0.02894
C 12.22562 4.24384 -0.01789
C 12.2326 2.80315 0.00444
C 13.55515 2.10644 -0.00925
C 12.33658 12.8662 -0.01536
C 13.40597 26.3865 -0.02759
C 13.4243 27.73548 0.03589
C 12.27701 28.48892 -0.00033
C 11.05924 19.18648 -0.01384
C 11.09237 17.80072 0.03693
C 9.90363 17.01187 0.01745
C 9.82678 15.60346 0.00488
C 11.056 14.92652 -0.01004
C 11.0626 13.50979 -0.02896
C 9.83221 12.80125 -0.00131
C 9.74295 11.37683 -0.01118
C 11.15829 10.65276 -0.014
C 11.0529 9.24152 0.02147
C 9.81699 8.55036 0.00373
C 9.82177 7.08293 -0.00191
C 11.0336 6.42665 0.00438
C 11.06306 4.97906 0.01291
C 9.81945 4.32701 0.00093
C 9.74135 2.91061 0.00057
C 10.96244 2.17309 -0.01634
C 10.91194 0.74501 -0.00334
C 9.71661 0.04269 0.02339
C 12.2642 32.72843 0.01641
C 13.52643 32.00431 -0.00719
C 13.46616 30.59962 0.01364
C 12.20992 29.91295 -0.01062
C 13.46597 0.65328 0.01877
C 9.81975 19.90833 -0.00482
C 12.18548 0.01939 0.01363
C 16.06765 31.9035 0.00415
C 15.9945 2.07244 0.0351
C 15.99332 0.62108 -0.03113
C 14.73072 33.94624 0.02098
C 17.37103 32.44568 0.01848
C 18.57639 31.48424 -0.00619
C 18.43462 30.03462 -0.02162
C 17.11007 29.76806 0.00889
C 16.9997 28.36193 -0.00481
C 18.27754 27.76869 0.00979
C 18.26396 26.27932 0.01443
C 14.79489 2.86716 0.00422
C 17.12692 25.55935 0.03505
C 18.3189 23.46501 -0.04147
C 18.35199 22.03337 -0.05302
C 17.24597 21.21869 0.00213
C 17.36783 19.79517 -0.00066
C 18.70261 19.11615 -0.00289
C 18.38388 17.72908 0.00028
C 17.40497 16.81745 -0.02213
C 17.39077 15.28157 0.03698
C 18.12155 14.24184 -0.00109
C 17.34546 13.01478 -0.00491
C 17.10155 24.12958 -0.02815
C 14.78095 4.34873 0.00798
C 16.01898 4.92858 0.00228
C 16.08596 6.36174 -0.00114
C 15.94761 30.51206 -0.0014
C 14.67749 29.82919 0.02162
C 14.59551 28.40613 0.0076
C 15.79661 27.69156 0.01241
C 15.86842 26.30687 -0.01454
C 14.62921 25.6274 0.01945
C 14.63532 24.15285 0.01416
C 15.89343 23.38234 0.03542
C 15.99272 21.91354 0.02299
C 14.78026 21.29656 0.00244
C 14.8485 19.8712 -0.01717
C 16.08308 19.04133 0.05265
C 16.06465 17.64565 -0.01952
C 14.84223 17.01506 -0.02813
C 14.79168 15.64605 0.00374
C 16.07221 14.89154 0.00052
C 15.96632 13.45209 -0.03682
C 14.81664 12.73413 0.01965
C 14.78351 11.36192 0.02058
C 16.02046 10.73463 -0.01957
C 16.04843 9.25076 -0.0108
C 14.88508 8.46005 -0.00368
C 14.84031 7.11677 -0.02696
C 14.76406 32.64949 -0.02162
C 9.84274 21.34534 0.02888
C 11.03572 22.03648 0.00685
C 11.06393 23.50313 0.00895
C 3.5864 2.12749 -0.00449
C 3.65806 0.71648 -0.01979
C 2.4355 34.0699 0.02784
C 4.98634 32.72055 -0.01977
C 6.16667 32.01987 -0.00561
C 6.14928 30.58245 0.00208
C 4.93763 29.8946 0.01707
C 4.95007 28.46451 0.02769
C 6.10582 27.73825 -0.03291
C 6.11781 26.25546 -0.04999
C 2.3522 2.85599 0.00211
C 4.92499 25.57041 0.04505
C 6.14602 23.481 -0.04307
C 6.18372 22.08706 0.03189
C 4.90732 21.34332 0.00031
C 4.95731 19.89354 -0.003
C 6.15848 19.19116 0.01402
C 6.13227 17.76546 0.02379
C 4.8202 17.11487 0.00907
C 4.87201 15.70901 0.00643
C 6.10787 14.92807 -0.01509
C 6.10981 13.5239 0.03267
C 4.91982 24.12352 0.03284
C 2.39239 4.26393 0.0064
C 3.62245 5.08646 -0.00039
C 3.59968 6.45566 0.02728
C 3.6772 30.55011 -0.01471
C 2.48327 29.74185 -0.02827
C 2.45762 28.36902 0.01078
C 3.7427 27.7374 -0.00112
C 3.75515 26.29854 0.03345
C 2.47833 25.5838 0.00748
C 2.46659 24.12633 0.00662
C 3.68565 23.43135 -0.0154
C 3.70944 22.06226 -0.01299
C 2.48635 21.30419 -0.00407
C 2.49842 19.87164 0.01138
C 3.72061 19.14949 0.03278
C 3.62138 17.76642 -0.00177
C 2.43765 16.99909 0.04421
C 2.41043 15.61621 0.00088
C 3.64506 14.95571 0.00828
C 3.64897 13.50652 -0.02375
C 2.38257 12.81856 0.00558
C 2.37658 11.38227 -0.0059
C 3.56897 10.62819 -0.01386
C 3.63599 9.2135 -0.02805
C 2.40813 8.47796 0.00081
C 2.34674 7.11969 0.00245
C 4.81551 12.77431 0.02374
C 4.79757 11.38881 0.00402
C 6.09624 10.69675 0.0073
C 6.11509 9.26188 0.0174
C 8.61488 13.52509 0.01227
C 7.35449 12.77944 0.00873
C 7.39471 11.41866 -0.00049
C 8.5667 10.68267 0.00848
C 8.58643 9.28273 -0.01303
C 7.373 8.5607 -0.01378
C 7.27845 7.22752 0.02635
C 8.53235 6.40876 0.0127
C 8.5831 4.97385 0.01396
C 7.32156 4.23708 0.01849
C 7.30231 2.85509 -0.01142
C 8.53608 2.23164 -0.00562
C 8.50825 0.85445 -0.00494
C 7.26738 0.13096 0.00054
C 9.7384 32.72504 0.03007
C 11.07071 32.08351 -0.00095
C 10.99578 30.61023 0.01572
C 9.76624 29.91874 -0.04848
C 9.75837 28.48836 -0.00892
C 11.04361 27.7821 -0.01362
C 11.05812 26.31332 -0.0008
C 9.7518 25.66042 0.0288
C 9.88931 24.18332 0.00393
C 8.63618 14.92544 -0.03337
C 17.28771 11.53227 0.03338
C 7.36257 15.64777 -0.00966
C 8.62846 17.77482 0.03368
C 4.86136 8.55529 0.03828
C 4.77814 7.21682 0.01226
C 6.08858 6.51756 -0.00279
C 6.14117 5.11685 0.01996
C 4.85685 4.42123 -0.03996
C 4.8425 2.9862 0.01465
C 6.05059 2.21572 -0.00074
C 6.08518 0.82006 -0.00518
C 4.86897 0.05323 0.0086
C 7.36645 32.78656 -0.00643
C 8.52402 31.98327 0.017
C 8.54607 30.64484 -0.03113
C 7.35699 29.90157 -0.02566
C 7.40642 28.43544 -0.00094
C 8.57155 27.76885 0.02322
C 8.55279 26.38055 -0.00725
C 7.3492 25.68809 -0.05697
C 7.40462 24.22902 0.01087
C 8.63003 23.5056 -0.01343
C 8.66333 21.98253 0.00988
C 7.36566 21.27268 0.0276
C 7.37068 19.9 0.01305
C 8.5744 19.24596 -0.00077
C 7.32287 17.09001 -0.02929
C 3.67418 31.95267 0.01218
C 18.49138 10.75764 -0.0258
C 17.28818 8.51218 -0.00316
C 29.52014 11.27643 -0.02155
C 30.76608 10.64782 -0.00944
C 30.69295 9.1267 -0.03735
C 29.52704 8.4661 -0.00971
C 29.54471 7.0002 0.01518
C 30.74756 6.30481 0.01908
C 30.71158 4.85276 0.07705
C 29.4774 4.17048 0.0103
C 29.50091 2.81234 0.02108
C 30.63751 2.04201 0.00716
C 29.50337 12.72847 -0.01461
C 30.66744 0.66962 0.00307
C 31.98077 32.55558 0.01713
C 33.18215 31.87565 -0.01694
C 33.17214 30.45569 0.01428
C 32.0148 29.71394 -0.02142
C 31.96635 28.27396 0.0544
C 33.217 27.63097 0.00026
C 33.15207 26.26312 0.00682
C 31.90466 25.63156 -0.01779
C 31.95851 24.1095 0.03794
C 33.15875 23.3951 0.01927
C 29.4731 34.00415 0.00346
C 30.71886 13.50586 -0.01303
C 30.7106 14.94804 -0.0405
C 29.50946 15.64786 0.01705
C 28.19515 6.36859 0.01094
C 28.23768 4.8704 0.00235
C 26.9105 4.24739 0.01495
C 26.97015 2.85693 0.01259
C 28.19279 2.16291 0.01799
C 28.26377 0.723 0.01699
C 27.07677 34.04927 -0.00416
C 29.54035 32.52384 0.01177
C 30.72076 31.89566 0.04266
C 30.797 30.42021 0.01324
C 29.50898 29.78237 0.0014
C 29.43613 28.37296 0.00924
C 30.6993 27.67657 0.02326
C 30.6618 26.24697 0.00261
C 29.45678 25.49372 0.03265
C 29.45605 24.11143 -0.02049
C 30.70233 23.4087 -0.01854
C 30.71409 21.95754 -0.01415
C 29.4215 21.28096 -0.03039
C 29.36611 19.85845 0.01836
C 30.63298 19.22081 0.03531
C 30.70446 17.75649 -0.00669
C 29.45449 16.9844 0.0101
C 33.1781 21.9841 0.01574
C 27.07214 7.09022 0.02198
C 31.87469 21.31717 -0.02383
C 33.14781 19.18244 -0.0136
C 1.22086 23.44773 0.00723
C 1.25692 21.98309 0.02712
C 34.4082 21.30667 -0.02213
C 0.02179 19.85671 0.01951
C 1.25689 19.18806 -0.01678
C 1.21054 17.77116 0.01223
C 34.4068 17.12062 0.00648
C 34.4111 15.67305 0.02114
C 1.17644 14.93258 -0.02957
C 1.10724 13.45585 0.00343
C 0.00061 24.12258 0.03076
C 34.33196 12.77674 -0.02656
C 1.11815 10.58016 -0.00027
C 1.14931 9.19892 -0.00583
C 34.36983 8.39092 -0.02302
C 34.31411 7.00749 -0.02849
C 1.14125 6.37242 0.02931
C 1.1135 4.97295 0.00628
C 34.38479 4.21079 -0.0345
C 34.36359 2.802 -0.00931
C 1.11971 2.10839 -0.00939
C 1.14616 0.74516 -0.00468
C 34.34111 11.36874 -0.02442
C 34.34979 25.54262 -0.05239
C 1.17482 26.21323 -0.00598
C 1.20264 27.68271 -0.00439
C 33.24272 17.75202 0.00594
C 31.99769 17.08663 -0.02474
C 31.96277 15.73598 0.00369
C 33.12 14.96526 0.00455
C 33.1191 13.53248 -0.00644
C 31.96515 12.77525 -0.01839
C 31.98754 11.34886 0.00137
C 33.1978 10.61297 0.00199
C 33.19908 9.1787 0.04381
C 31.89896 8.53743 0.02806
C 31.96707 7.04948 0.01504
C 33.09721 6.34539 -0.00069
C 33.14263 4.91448 0.04926
C 31.95235 4.16612 -0.03838
C 31.92728 2.72884 0.00349
C 33.18465 2.05041 -0.00323
C 33.20634 0.67904 -0.00841
C 31.94571 34.00026 0.0001
C 0.02268 32.61605 -0.02927
C 1.24892 31.89257 -0.01404
C 1.28026 30.48207 0.01027
C 0.00486 29.81931 0.01831
C 0.00243 28.33952 -0.01037
C 31.89591 19.88697 -0.01429
C 27.0736 8.48319 0.02611
C 28.27276 9.20161 -0.00621
C 28.36493 10.66289 0.00194
C 19.73323 2.80831 0.00742
C 20.85364 2.01965 -0.01594
C 20.90326 0.53937 0.0106
C 19.77261 33.69324 -0.01154
C 22.21071 32.63488 -0.01721
C 23.48179 31.96439 -0.02422
C 23.3169 30.55375 0.01277
C 21.90294 30.30771 0.00096
C 21.88427 28.74983 -0.01527
C 23.1057 27.87365 0.01087
C 19.72675 4.3038 -0.00311
C 23.20116 26.36633 0.00199
C 21.97263 24.28579 -0.00478
C 23.17556 23.4994 -0.01662
C 23.18347 22.13125 -0.01185
C 21.98708 21.31442 0.01126
C 21.7499 20.00773 0.01852
C 23.51636 10.56201 -0.00381
C 23.41207 9.24574 0.03046
C 22.19122 8.53381 0.0296
C 22.13531 7.1354 0.03374
C 23.42148 6.38504 -0.02845
C 21.95134 25.69117 0.01511
C 20.8838 5.03019 0.00675
C 20.88487 6.41083 -0.00865
C 19.68753 7.09811 0.0058
C 17.27798 7.1519 0.02188
C 18.41376 6.41759 -0.01979
C 18.40286 4.93478 0.02691
C 17.15435 4.17305 -0.01581
C 17.23925 2.73112 0.01452
C 18.49865 2.02809 0.04892
C 18.49896 0.54049 -0.00111
C 17.3351 33.87936 -0.03557
C 19.8575 32.21702 0.03754
C 21.25368 31.63417 0.01739
C 19.26252 28.81239 0.00755
C 20.58971 28.01121 -0.0054
C 20.65019 26.5119 0.00667
C 19.46819 25.67608 0.00143
C 19.53542 24.22995 -0.017
C 20.7816 23.52172 0.00364
C 20.82217 22.16321 -0.00831
C 19.64672 21.3737 -0.02957
C 19.92624 19.96532 -0.04422
C 19.84814 11.35632 0.00654
C 21.03626 10.74384 -0.00703
C 20.95767 9.27725 -0.04076
C 19.71118 8.48647 -0.00652
C 23.37655 4.93068 -0.03213
C 22.08835 4.21916 0.02239
C 21.99914 2.81141 0.01153
C 23.34425 2.13654 0.02734
C 25.81415 0.74067 -0.01154
C 24.62616 0.06411 0.00684
C 27.06655 32.6155 -0.01052
C 28.27494 31.96117 -0.01679
C 28.33577 30.47889 0.00367
C 27.12418 29.80407 0.04306
C 27.06057 28.35768 0.00996
C 28.28379 27.65005 0.00195
C 28.273 26.25987 -0.00802
C 27.03649 25.59656 -0.00218
C 27.021 24.23061 -0.01654
C 28.23686 23.44739 -0.00037
C 28.2101 21.97091 -0.0032
C 26.91885 21.32949 0.00622
C 26.91038 19.89981 -0.02815
C 28.1134 19.16239 -0.00942
C 28.18507 17.69847 0.00487
C 26.94705 17.00511 0.00826
C 27.05582 15.56379 -0.00294
C 28.2614 14.94426 0.00152
C 28.25408 13.48259 0.01257
C 27.13776 12.84858 0.02316
C 27.10646 11.43192 0.04185
C 25.78856 2.12631 -0.0264
C 18.54118 9.31169 -0.0331
C 24.49936 2.78758 -0.00938
C 25.717 5.02753 -0.01199
C 23.34361 0.68722 -0.0055
C 22.10696 34.0054 0.01515
C 24.62423 32.69133 -0.00225
C 25.87124 31.94346 0.00071
C 25.92693 30.5467 -0.01107
C 24.61692 29.87749 -0.01586
C 24.45937 28.47295 -0.01971
C 25.69453 27.72525 -0.02118
C 25.77506 26.28406 0.00733
C 24.43501 25.64207 -0.00178
C 24.43394 24.25401 0.00768
C 25.66636 23.48753 -0.0276
C 25.66937 22.03565 0.03005
C 24.38532 21.3133 -0.04078
C 24.369 19.92526 0.02117
C 25.56742 19.1845 0.02737
C 25.75852 17.75966 -0.00498
C 24.67249 11.20293 0.00135
C 25.90472 10.66082 0.03102
C 25.88638 9.19852 0.02555
C 24.61794 8.47323 0.01423
C 24.65224 7.13425 -0.00285
C 25.78911 6.4053 -0.009
C 24.58234 4.19889 -0.00229
C 2.48765 32.64284 0.02426
