372
Graphene
C 0.00204 0.03272 0.01295
C 13.59784 31.92674 0.00244
C 13.4849 30.57915 -0.01717
C 12.28293 29.85825 0.05265
C 12.30931 28.38091 -0.01952
C 13.57144 27.72543 -0.02813
C 13.55271 26.28445 0.00374
C 12.26237 25.53765 0.00052
C 12.26374 24.11065 -0.03682
C 13.4974 23.30233 0.01965
C 13.53482 21.96516 0.02058
C 12.34738 21.31976 -0.01957
C 12.3461 19.84569 -0.0108
C 13.56274 19.12288 -0.00368
C 13.57068 17.71467 -0.02696
C 12.26802 17.12983 -0.00114
C 12.32184 15.57386 0.00228
C 13.60866 14.87582 0.00798
C 12.25461 2.80843 0.00422
C 13.5405 2.07341 0.0351
C 12.27017 32.62951 0.02299
C 13.52141 0.73775 -0.03113
C 9.84336 34.04204 0.03542
C 10.99899 2.19549 0.01945
C 10.98205 27.75942 -0.02689
C 11.09245 26.32572 -0.01046
C 9.89407 25.58884 -0.00891
C 9.87361 24.16871 0.02819
C 11.09396 23.44328 0.00165
C 11.06223 22.03541 -0.02971
C 9.86481 21.32166 0.02894
C 9.87428 19.92303 -0.01789
C 11.08547 19.26921 0.00444
C 11.03108 17.79402 -0.00925
C 9.81753 17.10781 0.01877
C 9.86358 15.55466 0.01363
C 11.10712 14.88308 -0.02162
C 11.07825 13.54955 0.00415
C 9.97763 12.72558 -0.0014
C 9.76342 11.25633 0.02162
C 9.79606 8.58036 0.0076
C 11.0934 4.82232 0.01241
C 9.76791 2.82665 -0.01454
C 11.0921 0.68358 0.01416
C 12.35694 0.00069 0.02098
C 14.78084 32.67404 0.01848
C 16.00913 31.97503 -0.00619
C 17.17604 25.67771 -0.01581
C 17.21016 24.18024 0.01452
C 18.43976 23.3719 0.04892
C 18.44447 21.95954 -0.00111
C 17.22944 21.35311 -0.03557
C 17.20623 19.85599 0.03754
C 18.40656 19.1966 0.01739
C 18.4239 17.74141 0.00755
C 17.22317 17.00995 -0.0054
C 18.49895 0.78709 0.00667
C 17.22831 0.00054 0.00143
C 19.69129 32.64915 -0.017
C 20.91032 31.92648 0.00364
C 20.92523 30.49446 -0.00831
C 19.62937 29.81611 -0.02957
C 19.66015 28.38649 -0.04422
C 20.93446 27.63311 0.00654
C 20.92473 26.24268 -0.00703
C 19.64402 25.59332 -0.04076
C 18.4036 26.27829 0.02691
C 18.38485 27.72653 -0.01979
C 17.13013 28.47235 0.02188
C 17.17261 29.86335 -0.00316
C 15.94926 30.56899 -0.02162
C 14.78075 29.79796 0.00889
C 14.76937 28.41034 -0.00481
C 15.98348 27.73901 0.00979
C 15.98029 26.32331 0.01443
C 14.81054 25.58179 0.03505
C 14.75637 24.13245 -0.02815
C 15.99279 23.39625 -0.04147
C 15.96604 21.98176 -0.05302
C 9.79721 28.42459 -0.01536
C 14.80039 21.30998 0.00213
C 15.96311 19.16999 -0.00289
C 15.97788 17.74907 0.00028
C 14.7554 17.03381 -0.02213
C 14.63306 15.56716 0.03698
C 15.90597 0.64688 -0.00109
C 14.73807 0.01099 -0.00491
C 17.28054 32.62233 0.03338
C 18.43046 31.91495 -0.0258
C 18.4193 30.47466 -0.0331
C 14.72691 19.86568 -0.00066
C 19.69407 24.11157 -0.00652
C 9.77128 29.81215 0.03101
C 11.1063 31.94685 -0.02245
C 3.72911 6.40284 0.03368
C 3.68802 5.02411 -0.02929
C 2.48549 4.21381 -0.00966
C 2.42463 2.84272 -0.03337
C 3.64278 2.17223 0.01227
C 3.67704 0.77348 0.00873
C 2.49596 34.01898 -0.00049
C 4.87985 32.70065 0.00848
C 6.10957 32.0114 -0.01303
C 6.11489 30.54156 -0.01378
C 4.91038 29.85397 0.02635
C 4.91799 28.45037 0.0127
C 6.17129 27.67248 0.01396
C 6.17058 26.29822 0.01849
C 4.93907 25.59688 -0.01142
C 4.92523 24.17835 -0.00562
C 6.09348 23.49977 -0.00494
C 6.17854 22.02954 0.00054
C 4.93573 21.27086 0.03007
C 2.41897 7.08294 -0.00077
C 4.85258 19.8938 -0.00095
C 2.49124 8.46528 0.01305
C 3.75723 10.70875 0.00988
C 3.68658 30.51697 0.03828
C 2.51918 29.80245 0.01226
C 2.4626 28.37741 -0.00279
C 3.60962 27.70955 0.01996
C 3.67549 26.37096 -0.03996
C 2.47448 25.56419 0.01465
C 2.48467 24.11685 -0.00074
C 3.67636 23.4432 -0.00518
C 3.74846 21.99585 0.0086
C 2.4493 21.27423 -0.00643
C 2.49238 19.85416 0.017
C 3.5924 19.13507 -0.03113
C 3.65334 17.80931 -0.02566
C 2.41955 17.08001 -0.00094
C 2.45363 15.64636 0.02322
C 3.70395 14.94384 -0.00725
C 3.70764 13.41987 -0.05697
C 2.49166 12.80025 0.01087
C 2.49061 11.42808 -0.01343
C 3.68886 9.27846 0.0276
C 6.11936 19.16158 0.01572
C 6.10532 17.69302 -0.04848
C 4.86419 17.02848 -0.00892
C 8.66502 22.01144 -0.01634
C 7.40318 21.29044 -0.00334
C 7.37416 19.91162 0.02339
C 8.62193 19.25937 0.01641
C 8.5659 17.79779 -0.00719
C 7.43513 17.05498 0.01364
C 7.45354 15.63993 -0.01062
C 8.65527 14.94032 -0.00033
C 8.56504 13.36607 0.03589
C 7.35509 12.75779 -0.02759
C 7.30805 11.37277 0.0402
C 8.54547 10.63533 0.00572
C 8.60083 9.17255 0.03592
C 7.33699 8.5717 0.00406
C 7.33044 2.85491 0.00943
C 8.61717 2.10612 0.02841
C 8.58429 0.73467 -0.01111
C 7.34104 0.05412 -0.01275
C 9.86976 32.66866 0.00985
C 8.61195 23.43329 0.00057
C 7.38039 24.15588 0.00093
C 7.44781 25.60418 0.01291
C 8.62101 26.28906 0.00438
C 4.8859 15.65708 -0.01362
C 6.21041 14.92989 -0.0008
C 6.16354 13.57518 0.0288
C 4.92878 12.83538 0.00393
C 4.95187 11.45229 0.00895
C 6.10321 10.75422 0.00685
C 6.11994 9.28508 0.02888
C 4.9237 8.52675 -0.00482
C 4.83392 7.13284 -0.01384
C 11.07011 30.55829 -0.00428
C 4.93083 4.23855 0.03693
C 6.15249 2.13236 0.00488
C 6.11294 0.76871 -0.01004
C 4.87568 0.06101 -0.02896
C 7.40074 32.70139 -0.00131
C 8.54293 31.96998 -0.01118
C 8.54113 30.55747 -0.014
C 7.34823 29.80177 0.02147
C 7.38046 28.38884 0.00373
C 8.55878 27.73556 -0.00191
C 4.88125 2.8805 0.01745
C 20.97718 23.47842 0.0058
C 20.93817 21.95694 -0.00865
C 19.67476 21.30733 0.00675
C 30.69266 2.11524 0.00716
C 30.75396 0.69654 0.00307
C 29.48675 0.01952 0.00346
C 31.89496 32.66813 0.01713
C 33.12384 31.95263 -0.01694
C 33.16665 30.47975 0.01428
C 31.95811 29.87172 -0.02142
C 31.92228 28.41073 0.0544
C 33.20604 27.73535 0.00026
C 33.20524 26.25427 0.00682
C 31.96005 25.56345 -0.01779
C 31.97562 24.16373 0.03794
C 33.2304 23.43999 0.01927
C 33.23854 22.05742 0.01574
C 31.96533 21.30529 -0.02383
C 31.96332 19.89756 -0.01429
C 33.17966 19.19182 -0.0136
C 33.14626 17.82181 0.00594
C 32.01726 17.02386 -0.02474
C 29.52145 2.79952 0.02108
C 32.07812 15.57228 0.00369
C 29.52359 4.29149 0.0103
C 30.75679 6.43084 0.01908
C 30.74919 26.25803 0.00261
C 29.49727 25.52934 0.03265
C 29.52475 24.13685 -0.02049
C 30.74081 23.4728 -0.01854
C 30.81872 22.06793 -0.01415
C 29.54119 21.22524 -0.03039
C 29.59061 19.84718 0.01836
C 30.7856 19.16889 0.03531
C 30.73462 17.77536 -0.00669
C 29.51586 16.98257 0.0101
C 29.47818 15.61871 0.01705
C 30.81574 14.84516 -0.0405
C 30.70344 13.44607 -0.01303
C 29.48699 12.7829 -0.01461
C 29.47122 11.3512 -0.02155
C 30.68168 10.69243 -0.00944
C 30.71368 9.22891 -0.03735
C 29.52367 8.46779 -0.00971
C 29.54503 7.08608 0.01518
C 30.73256 5.02307 0.07705
C 33.2883 14.84736 0.00455
C 33.20456 13.39436 -0.00644
C 31.97997 12.75854 -0.01839
C 0.04183 19.857 0.01951
C 1.20114 19.15536 -0.01678
C 1.22047 17.73466 0.01223
C 34.4025 17.0603 0.00648
C 34.42824 15.63529 0.02114
C 1.23897 14.98641 -0.02957
C 1.22979 13.51125 0.00343
C 0.05212 12.8328 -0.02656
C 34.37703 11.3827 -0.02442
C 1.22478 10.66819 -0.00027
C 1.23072 9.2415 -0.00583
C 0.04615 8.56797 -0.02302
C 0.03066 7.09751 -0.02849
C 1.1896 6.34328 0.02931
C 1.22614 4.97436 0.00628
C 0.00271 4.28385 -0.0345
C 0.03744 2.87074 -0.00931
C 1.17952 2.03765 -0.00939
C 1.2091 0.66347 -0.00468
C 0.0031 21.29634 -0.02213
C 1.28784 22.00926 0.02712
C 1.15587 23.40569 0.00723
C 34.38178 24.17789 0.03076
C 31.93993 11.31804 0.00137
C 33.1511 10.63724 0.00199
C 33.20468 9.17557 0.04381
C 31.94766 8.60827 0.02806
C 31.98561 7.16566 0.01504
C 33.19901 6.39747 -0.00069
C 33.20044 4.95177 0.04926
C 31.91403 4.25238 -0.03838
C 31.90028 2.82971 0.00349
C 30.74105 27.70351 0.02326
C 33.24032 2.08114 -0.00323
C 31.96144 34.05211 0.0001
C 34.37703 32.71479 -0.02927
C 1.21675 31.98461 -0.01404
C 1.22146 30.60516 0.01027
C 34.41815 29.84982 0.01831
C 34.40397 28.39942 -0.01037
C 1.21659 27.74506 -0.00439
C 1.25745 26.27459 -0.00598
C 0.01218 25.57784 -0.05239
C 33.18648 0.67044 -0.00841
C 29.50119 28.3812 0.00924
C 29.48939 29.83512 0.0014
C 30.73013 30.60446 0.01324
C 23.39464 2.05778 0.02239
C 23.32156 0.69381 0.01153
C 22.05012 34.07829 0.02734
C 24.5889 32.67957 -0.0055
C 25.84151 31.93972 0.01515
C 25.74478 30.47358 -0.00225
C 24.54847 29.78334 0.00071
C 24.61357 28.39148 -0.01107
C 25.80413 27.65806 -0.01586
C 25.7841 26.26926 -0.01971
C 24.61039 25.51687 -0.02118
C 24.62772 24.11325 0.00733
C 25.85732 23.44849 -0.00178
C 25.80655 21.98892 0.00768
C 24.60361 21.21817 -0.0276
C 24.56439 19.84342 0.03005
C 25.77507 19.16124 -0.04078
C 25.84407 17.75043 0.02117
C 24.65004 17.0108 0.02737
C 23.2933 15.01714 -0.03213
C 22.11717 15.55179 -0.02845
C 22.0669 16.97167 0.03374
C 23.37124 17.64849 0.0296
C 19.64381 19.88746 -0.00311
C 20.94793 19.14102 0.00742
C 20.90026 17.72545 -0.01594
C 19.57522 17.06519 0.0106
C 20.83436 0.61998 -0.01154
C 19.66672 0.02751 -0.01721
C 22.14315 32.62964 -0.02422
C 23.402 31.88333 0.01277
C 23.38293 30.48555 0.00096
C 24.63718 15.59438 -0.00498
C 22.12546 29.79673 -0.01527
C 23.40507 27.60121 0.00199
C 23.32566 26.21139 0.01511
C 22.10327 25.55956 -0.00478
C 22.21851 24.07901 -0.01662
C 23.45546 23.36037 -0.01185
C 23.33223 21.94827 0.01126
C 22.13458 21.26682 0.01852
C 22.15432 19.86344 -0.00381
C 23.36676 19.11834 0.03046
C 22.18961 28.40041 0.01087
C 3.65162 31.92585 0.0174
C 25.85091 14.9415 0.00135
C 24.65786 12.74143 0.02555
C 27.09883 17.07649 0.00826
C 27.09027 15.66602 -0.00294
C 28.28588 14.94707 0.00152
C 28.28317 13.41143 0.01257
C 27.05351 12.77738 0.02316
C 27.05653 11.38548 0.04185
C 28.26843 10.7148 0.00194
C 28.25448 9.24388 -0.00621
C 27.03334 8.55084 0.02611
C 27.00009 7.13074 0.02198
C 28.28249 6.38087 0.01094
C 28.30649 4.99127 0.00235
C 27.04982 4.32346 0.01495
C 27.03897 2.79976 0.01259
C 28.30749 2.19134 0.01799
C 28.33403 0.71943 0.01699
C 27.11987 34.04552 -0.00416
C 29.43439 32.61436 0.01177
C 30.71655 31.98372 0.04266
C 28.28503 17.72476 0.00487
C 28.42739 19.1936 -0.00942
C 27.02665 19.90386 -0.02815
C 27.0563 21.28641 0.00622
C 25.85232 10.55476 0.01423
C 25.71602 9.32364 -0.00285
C 25.75013 6.41553 -0.009
C 25.71755 4.99509 -0.01199
C 24.54878 4.26174 -0.00229
C 24.57565 2.84113 -0.00938
C 25.76089 2.06808 -0.0264
C 25.82068 0.70083 -0.01154
C 24.57252 0.02221 0.00684
C 25.74737 13.44272 0.03102
C 27.02982 32.67623 -0.01052
C 28.28157 30.50859 0.00367
C 27.02428 29.79452 0.04306
C 27.0491 28.40179 0.00996
C 28.29343 27.60747 0.00195
C 28.31215 26.23849 -0.00802
C 27.03447 25.54371 -0.00218
C 27.0651 24.14289 -0.01654
C 28.35771 23.49904 -0.00037
C 28.3097 22.01079 -0.0032
C 28.20484 31.88433 -0.01679
C 2.44983 32.6295 0.0073
