327
Graphene
C 0.03147 0.02996 0.01295
C 14.80351 29.79699 0.00213
C 14.69893 28.46193 -0.00066
C 15.9776 27.72099 -0.00289
C 16.03053 26.26201 0.00028
C 14.83349 25.61238 -0.02213
C 14.78752 24.16281 0.03698
C 15.96672 23.34527 -0.00109
C 15.95204 30.52119 -0.05302
C 15.86726 21.81636 -0.00491
C 15.9873 4.93092 -0.0258
C 14.81551 4.32937 -0.0331
C 14.77978 2.7983 -0.00316
C 16.03168 2.12425 0.02188
C 16.04704 0.69181 -0.01979
C 14.7446 0.09693 0.02691
C 17.24125 32.63089 -0.01581
C 14.73445 21.25866 0.03338
C 15.93951 31.92304 -0.04147
C 14.80529 32.60274 -0.02815
C 12.24063 34.04515 0.03505
C 9.79984 0.04851 -0.0108
C 12.298 32.61537 -0.00368
C 13.50547 31.98725 -0.02696
C 13.45082 30.58453 -0.00114
C 12.31515 29.87027 0.00228
C 12.32014 28.43945 0.00798
C 13.53369 27.71086 0.00422
C 13.55561 26.27405 0.0351
C 12.29158 25.54937 -0.03113
C 12.3048 24.11592 0.02098
C 13.56043 23.45207 0.01848
C 13.58143 22.08618 -0.00619
C 13.42958 4.95199 -0.02162
C 12.317 4.36594 0.00889
C 12.28775 2.78611 -0.00481
C 13.53163 2.13476 0.00979
C 13.54429 0.74654 0.01443
C 18.53505 31.94487 0.01452
C 11.03313 0.64548 -0.01957
C 18.45766 30.56013 0.04892
C 17.23545 28.35128 -0.03557
C 20.80666 9.20637 0.0106
C 19.69457 8.49678 -0.01154
C 19.71582 7.12988 -0.01721
C 20.90021 6.39739 -0.02422
C 20.90962 4.98758 0.01277
C 19.6293 4.34823 0.00096
C 19.65777 2.86623 -0.01527
C 20.92861 10.54912 -0.01594
C 20.91432 2.08678 0.01087
C 19.68527 0.0599 0.01511
C 22.1197 32.62953 -0.00478
C 23.31774 31.97184 -0.01662
C 23.34484 30.5595 -0.01185
C 22.17024 29.78664 0.01126
C 22.19379 28.40749 0.01852
C 23.379 27.64285 -0.00381
C 20.92069 0.69927 0.00199
C 20.94559 13.51619 0.00742
C 20.95916 14.85122 -0.00311
C 19.64624 17.02383 0.00675
C 18.43612 27.64405 0.03754
C 18.48077 26.222 0.01739
C 17.27218 25.49697 0.00755
C 17.17716 24.16182 -0.0054
C 18.39597 6.3742 0.00667
C 18.3897 4.99314 0.00143
C 17.1487 4.32642 -0.017
C 17.19753 2.88974 0.00364
C 18.43125 2.16039 -0.00831
C 18.47997 0.69125 -0.02957
C 17.25211 34.06764 -0.04422
C 19.69266 32.69485 0.00654
C 20.90585 31.98109 -0.00703
C 20.97572 30.53724 -0.04076
C 19.70828 29.83289 -0.00652
C 19.69919 28.34683 0.0058
C 20.86318 27.66284 -0.00865
C 17.2103 29.81666 -0.00111
C 22.15464 15.60985 0.03046
C 11.0323 2.11498 0.02058
C 9.76524 4.31686 -0.03682
C 3.6473 6.42654 0.00438
C 3.68403 4.96534 0.01291
C 2.40339 4.25904 0.00093
C 2.46388 2.86794 0.00057
C 3.7218 2.10775 -0.01634
C 3.66732 0.70035 -0.00334
C 2.47165 34.02583 0.02339
C 2.4103 7.07345 -0.00191
C 4.93155 32.6283 0.01641
C 6.12058 30.53655 0.01364
C 4.94406 29.82116 -0.01062
C 4.9698 28.4298 -0.00033
C 6.11621 27.74774 0.03589
C 6.16441 26.22539 -0.02759
C 4.89259 25.57319 0.0402
C 4.87032 24.16076 0.00572
C 6.17473 32.01109 -0.00719
C 2.48688 8.45765 0.00373
C 3.64787 9.31709 0.02147
C 3.63736 10.58333 -0.014
C 3.65269 30.53 -0.00892
C 2.44236 29.83833 -0.01362
C 2.44694 28.45836 -0.0008
C 3.71357 27.66831 0.0288
C 3.70862 26.31323 0.00393
C 2.48946 25.59783 0.00895
C 2.45599 24.17111 0.00685
C 3.61478 23.49441 0.02888
C 3.69186 22.03507 -0.00482
C 2.43745 21.27138 -0.01384
C 2.42044 19.87188 0.03693
C 3.66924 19.17475 0.01745
C 3.70665 17.70494 0.00488
C 2.5203 17.06017 -0.01004
C 2.3966 15.6332 -0.02896
C 2.53566 12.77745 -0.00131
C 2.49821 11.37972 -0.01118
C 6.07166 23.41944 0.03592
C 9.81995 2.95289 0.01965
C 6.15088 22.01494 0.00406
C 4.93633 19.87886 0.02841
C 7.37333 4.2928 -0.0014
C 7.43966 2.82602 0.02162
C 8.57754 2.08816 0.0076
C 8.64035 0.68129 0.01241
C 7.28242 34.03001 -0.01454
C 9.8129 32.76068 0.01945
C 11.01495 32.01758 0.01416
C 8.62799 4.95649 0.00415
C 11.10641 30.601 0.03542
C 9.85098 28.30977 0.00244
C 11.12258 27.69033 -0.01717
C 11.09854 26.30906 0.05265
C 9.82979 25.59163 -0.01952
C 9.8139 24.14475 -0.02813
C 11.01934 23.32894 0.00374
C 11.01918 21.98311 0.00052
C 9.90116 29.81225 0.02299
C 7.43873 21.2769 -0.02162
C 8.57907 22.02469 0.01363
C 8.61308 23.48595 0.01877
C 4.92245 7.06406 -0.01111
C 6.15594 6.4369 -0.01275
C 6.21555 4.99361 0.00985
C 4.93933 4.3229 -0.02245
C 4.88631 2.74847 -0.00428
C 6.12854 2.10721 0.03101
C 6.08514 0.71067 -0.01536
C 4.84809 34.01696 -0.02689
C 7.40734 32.64842 -0.01046
C 8.61586 31.97695 -0.00891
C 8.61768 30.55497 0.02819
C 7.41353 29.77823 0.00165
C 7.35393 28.43922 -0.02971
C 8.59129 27.72218 0.02894
C 8.62587 26.29994 -0.01789
C 7.36732 25.54456 0.00444
C 7.36701 24.14197 -0.00925
C 4.95319 21.32809 0.00943
C 3.67289 31.94303 -0.04848
C 23.33209 14.96532 0.0296
C 22.17352 12.75265 -0.02845
C 33.20586 26.33731 0.00682
C 31.96678 25.59557 -0.01779
C 32.00909 24.19752 0.03794
C 33.1711 23.5203 0.01927
C 33.18317 22.05996 0.01574
C 31.99131 21.31946 -0.02383
C 31.90087 19.87804 -0.01429
C 33.21992 27.74925 0.00026
C 33.20761 19.15544 -0.0136
C 31.99164 17.01689 -0.02474
C 31.96975 15.65056 0.00369
C 33.18369 14.93843 0.00455
C 33.2254 13.48828 -0.00644
C 31.90532 12.77193 -0.01839
C 31.91904 11.39321 0.00137
C 33.17628 10.62414 0.00199
C 33.225 17.72807 0.00594
C 31.93538 28.45307 0.0544
C 31.94712 29.84742 -0.02142
C 33.25321 30.58802 0.01428
C 30.77746 14.86333 -0.0405
C 30.7275 13.51296 -0.01303
C 29.47428 12.76898 -0.01461
C 29.52834 11.36453 -0.02155
C 30.71508 10.68956 -0.00944
C 30.63818 9.23239 -0.03735
C 29.45263 8.51743 -0.00971
C 29.47837 7.03688 0.01518
C 30.75239 6.44803 0.01908
C 30.68902 4.97549 0.07705
C 29.50918 4.30486 0.0103
C 29.51673 2.80241 0.02108
C 30.74271 2.12544 0.00716
C 30.74359 0.72232 0.00307
C 29.54935 34.06812 0.00346
C 31.99336 32.69671 0.01713
C 33.19096 31.94427 -0.01694
C 33.17332 9.23108 0.04381
C 29.50943 15.60025 0.01705
C 31.89038 8.58817 0.02806
C 33.23603 6.38921 -0.00069
C 0.0091 16.98044 0.00648
C 0.05012 15.57962 0.02114
C 1.23172 14.93787 -0.02957
C 1.24734 13.51307 0.00343
C 0.0229 12.77305 -0.02656
C 34.39948 11.34641 -0.02442
C 1.20871 10.64288 -0.00027
C 1.183 17.78608 0.01223
C 1.27364 9.2817 -0.00583
C 0.00515 7.01702 -0.02849
C 1.26213 6.34151 0.02931
C 1.23787 4.96364 0.00628
C 34.42105 4.28019 -0.0345
C 0.00663 2.78171 -0.00931
C 1.20306 2.14215 -0.00939
C 1.29744 0.66809 -0.00468
C 34.38376 8.47012 -0.02302
C 1.18958 19.20171 -0.01678
C 34.39676 19.86608 0.01951
C 34.38496 21.33649 -0.02213
C 33.19074 4.97637 0.04926
C 31.9801 4.2169 -0.03838
C 32.01067 2.82644 0.00349
C 33.20559 2.15158 -0.00323
C 33.2644 0.68555 -0.00841
C 31.97394 34.0095 0.0001
C 0.01338 32.66964 -0.02927
C 1.26568 31.92793 -0.01404
C 1.18648 30.52349 0.01027
C 0.01331 29.80828 0.01831
C 34.43269 28.41347 -0.01037
C 1.21822 27.71627 -0.00439
C 1.26148 26.33917 -0.00598
C 34.41662 25.59322 -0.05239
C 0.03063 24.22017 0.03076
C 1.18681 23.47847 0.00723
C 1.21399 22.02545 0.02712
C 31.97069 7.11253 0.01504
C 23.40806 13.53717 0.03374
C 29.53651 17.01214 0.0101
C 30.70268 19.09909 0.03531
C 25.82165 14.95969 0.00135
C 25.82722 13.50274 0.03102
C 24.6279 12.8324 0.02555
C 24.55967 11.29004 0.01423
C 25.78297 10.61272 -0.00285
C 25.8349 9.21923 -0.009
C 24.66582 8.51965 -0.01199
C 24.53226 15.62031 -0.00498
C 24.52827 7.11617 -0.00229
C 25.81166 4.93653 -0.0264
C 24.55741 4.26009 -0.01154
C 24.57725 2.78132 0.00684
C 25.82107 2.18206 -0.01052
C 25.84849 0.74474 -0.01679
C 24.59688 0.02223 0.00367
C 27.06238 32.63034 0.04306
C 25.76681 6.36918 -0.00938
C 24.61361 17.10408 0.02737
C 25.74936 17.7361 0.02117
C 25.87393 27.63011 -0.04078
C 22.11666 11.33682 -0.03213
C 23.32849 10.70015 0.02239
C 23.38096 9.26382 0.01153
C 22.1312 8.56722 0.02734
C 22.08453 7.11785 -0.0055
C 23.31251 6.40066 0.01515
C 23.36209 5.02143 -0.00225
C 22.14956 4.27038 0.00071
C 22.14919 2.83812 -0.01107
C 23.33681 2.0977 -0.01586
C 23.33358 0.69971 -0.01971
C 22.11808 0.00319 -0.02118
C 24.56328 32.73934 0.00733
C 25.82249 31.89395 -0.00178
C 25.80619 30.4913 0.00768
C 24.52444 29.8313 -0.0276
C 24.58406 28.40368 0.03005
C 28.32294 31.95086 0.00996
C 30.68109 17.67337 -0.00669
C 28.25901 30.5268 0.00195
C 27.06426 28.41064 -0.00218
C 28.27083 2.0762 0.01799
C 28.25979 0.71538 0.01699
C 27.09028 34.03353 -0.00416
C 29.5316 32.64414 0.01177
C 30.77712 31.9583 0.04266
C 30.72196 30.50705 0.01324
C 29.52559 29.75157 0.0014
C 27.03928 2.81578 0.01259
C 29.48837 28.3629 0.00924
C 30.74278 26.25214 0.00261
C 29.56432 25.50696 0.03265
C 29.47806 24.15516 -0.02049
C 30.67007 23.43189 -0.01854
C 30.68537 22.01335 -0.01415
C 29.52195 21.22433 -0.03039
C 29.46123 19.86893 0.01836
C 30.79657 27.66267 0.02326
C 27.06536 4.24582 0.01495
C 28.1797 4.97328 0.00235
C 28.21633 6.32405 0.01094
C 28.29702 27.68534 -0.01654
C 28.27702 26.23115 -0.00037
C 27.12654 25.51936 -0.0032
C 28.3319 23.29964 0.00622
C 28.34014 22.04122 -0.02815
C 28.2759 19.15486 -0.00942
C 28.29385 17.68365 0.00487
C 26.99472 17.03159 0.00826
C 27.0234 15.6515 -0.00294
C 28.33562 14.85238 0.00152
C 28.35013 13.44735 0.01257
C 27.02117 12.72505 0.02316
C 27.04534 11.32864 0.04185
C 28.31256 10.66068 0.00194
C 28.28548 9.22006 -0.00621
C 27.09979 8.53981 0.02611
C 27.02397 7.09376 0.02198
C 27.05397 29.85255 -0.00802
C 2.49367 32.65321 0.01572
