445
Graphene
C 34.40161 34.04822 0.01295
C 13.47723 17.77227 0.01291
C 12.20554 17.13007 0.00093
C 12.30056 15.70776 0.00057
C 13.47131 14.89362 -0.01634
C 13.50619 13.49702 -0.00334
C 12.29423 12.79691 0.02339
C 12.29487 11.35578 0.01641
C 13.55092 10.67874 -0.00719
C 13.48142 9.21029 0.01364
C 12.28819 8.5057 -0.01062
C 12.31578 7.10577 -0.00033
C 13.54597 6.40159 0.03589
C 13.58045 4.98556 -0.02759
C 12.35054 4.23781 0.0402
C 12.33258 2.72164 0.00572
C 13.54442 2.01114 0.03592
C 13.44721 0.64144 0.00406
C 12.26951 33.98618 0.00943
C 14.734 32.66633 0.02841
C 15.923 31.93965 -0.01111
C 16.01807 30.54188 -0.01275
C 14.69618 29.80673 0.00985
C 14.71412 28.40015 -0.02245
C 13.46602 19.19001 0.00438
C 12.30137 19.96986 -0.00191
C 12.205 21.34926 0.00373
C 13.46451 22.02227 0.02147
C 11.14337 13.57174 -0.00494
C 9.90171 12.9196 0.00054
C 9.86067 11.45865 0.03007
C 11.07698 10.67129 -0.00095
C 11.01716 9.28849 0.01572
C 9.78986 8.5595 -0.04848
C 9.92021 7.23565 -0.00892
C 11.0216 6.41161 -0.01362
C 11.04492 5.05664 -0.0008
C 9.84012 4.32923 0.0288
C 9.8814 2.88241 0.00393
C 16.02533 27.71768 -0.00428
C 11.06214 2.1147 0.00895
C 9.85154 34.0702 0.02888
C 12.25232 32.59596 -0.00482
C 13.4695 31.94784 -0.01384
C 13.48703 30.5549 0.03693
C 12.21591 29.86116 0.01745
C 12.30939 28.40867 0.00488
C 13.45343 27.65612 -0.01004
C 13.48527 26.27711 -0.02896
C 12.2116 25.64206 -0.00131
C 12.32487 24.20935 -0.01118
C 13.49233 23.49446 -0.014
C 11.06167 0.68624 0.00685
C 16.00317 26.31672 0.03101
C 14.75425 25.58537 -0.01536
C 14.72918 24.18185 -0.02689
C 18.42216 27.66926 0.00052
C 18.43913 26.25568 -0.03682
C 17.23031 25.57543 0.01965
C 17.16163 24.12684 0.02058
C 18.43104 23.43645 -0.01957
C 18.39296 22.01885 -0.0108
C 17.17166 21.26805 -0.00368
C 17.1242 19.82413 -0.02696
C 18.33156 19.14172 -0.00114
C 18.38053 17.79134 0.00228
C 17.19597 17.00236 0.00798
C 17.2405 28.38158 0.00374
C 17.17762 15.64721 0.00422
C 18.45389 13.53069 -0.03113
C 17.22782 12.80515 0.02098
C 17.21728 11.33662 0.01848
C 18.43706 10.62119 -0.00619
C 18.40416 9.18565 -0.02162
C 17.22416 8.44585 0.00889
C 17.25599 7.07129 -0.00481
C 18.45647 6.36471 0.00979
C 18.46156 4.98289 0.01443
C 17.19032 4.26316 0.03505
C 17.15503 2.83872 -0.02815
C 18.48261 14.91167 0.0351
C 11.0683 14.97369 -0.00562
C 17.25941 29.78258 -0.02813
C 18.43943 31.98756 0.05265
C 15.95585 23.47758 -0.01046
C 15.94979 22.00124 -0.00891
C 14.70843 21.29094 0.02819
C 14.72596 19.86437 0.00165
C 15.90945 19.2026 -0.02971
C 15.97626 17.72463 0.02894
C 14.65673 17.07851 -0.01789
C 14.73209 15.59275 0.00444
C 15.97539 14.87587 -0.00925
C 15.99048 13.44975 0.01877
C 14.73216 12.75439 0.01363
C 18.39446 30.57536 -0.01952
C 14.74688 11.28136 -0.02162
C 16.01749 9.19473 -0.0014
C 14.76689 8.5169 0.02162
C 14.80736 7.13239 0.0076
C 16.04567 6.37948 0.01241
C 16.00719 4.9792 -0.01454
C 14.75693 4.22245 0.01945
C 14.72038 2.78399 0.01416
C 15.96064 2.07937 0.03542
C 15.90301 0.70375 0.02299
C 14.67561 34.06735 0.00244
C 17.20275 32.69956 -0.01717
C 15.94668 10.66742 0.00415
C 9.86913 15.63995 -0.01142
C 9.78187 17.11577 0.01849
C 11.02842 17.79886 0.01396
C 3.7362 0.69306 -0.01299
C 2.50026 34.00216 -0.00407
C 4.92373 32.70033 0.01138
C 6.20685 31.94937 0.03278
C 6.19615 30.59014 -0.00177
C 4.97472 29.82495 0.04421
C 5.01775 28.41626 0.00088
C 6.14822 27.71703 0.00828
C 6.13642 26.28549 -0.02375
C 4.92952 25.59011 0.00558
C 4.84138 24.13602 -0.0059
C 3.6447 2.14504 -0.0154
C 6.08132 23.46099 -0.01386
C 4.91761 21.30556 0.00081
C 4.82662 19.87448 0.00245
C 6.11144 19.19174 0.02728
C 6.09507 17.76171 -0.00039
C 4.90845 17.09661 0.0064
C 4.8907 15.63284 0.00211
C 6.11951 14.92103 -0.00449
C 6.10718 13.6252 -0.01979
C 4.9064 12.83373 0.02784
C 4.91968 11.48373 -0.01977
C 6.14891 10.73834 -0.00561
C 6.10123 22.01805 -0.02805
C 6.11828 9.26828 0.00208
C 2.44082 2.83576 0.00662
C 3.67816 4.93841 0.03345
C 3.76996 30.51582 -0.02419
C 2.49643 29.86838 -0.03951
C 2.50643 28.46154 -0.00141
C 3.74713 27.73441 -0.00374
C 3.67878 26.23346 -0.0213
C 2.47236 25.58403 0.01116
C 2.48084 24.0618 -0.0005
C 3.66184 23.39795 -0.00018
C 3.66374 21.94712 0.01073
C 2.46944 21.25579 0.01984
C 2.42418 19.86539 0.00535
C 2.42516 4.24585 0.00748
C 3.65051 19.16664 -0.00198
C 2.40019 16.99294 -0.04306
C 2.41858 15.59547 -0.03672
C 3.66482 14.91026 0.01913
C 3.68325 13.52876 0.00267
C 2.46494 12.74809 0.00787
C 2.45198 11.32235 0.02426
C 3.70058 10.6943 0.01218
C 3.66198 9.23368 -0.01471
C 2.43197 8.5228 -0.02827
C 2.48882 7.06226 0.01078
C 3.6427 6.35532 -0.00112
C 3.65677 17.76029 -0.00012
C 18.42285 2.18399 -0.04147
C 4.86106 8.52045 0.01707
C 6.12382 6.43079 -0.03291
C 8.61519 9.29988 -0.03113
C 7.34828 8.60104 -0.02566
C 7.33081 7.17483 -0.00094
C 8.63172 6.50361 0.02322
C 8.64823 5.05885 -0.00725
C 7.37121 4.38867 -0.05697
C 7.4123 2.929 0.01087
C 8.62129 2.14358 -0.01343
C 8.59471 0.72989 0.00988
C 7.38119 0.06465 0.0276
C 9.78006 32.70418 0.01305
C 8.61171 10.76208 0.017
C 11.03684 31.98995 -0.00077
C 9.85751 29.78156 -0.02929
C 9.83362 28.42203 -0.00966
C 11.0389 27.71554 -0.03337
C 10.97196 26.3444 0.01227
C 9.79176 25.58697 0.00873
C 9.80598 24.20564 -0.00049
C 11.0158 23.45698 0.00848
C 10.99931 22.04147 -0.01303
C 9.78584 21.37183 -0.01378
C 9.77996 19.93198 0.02635
C 11.05356 19.23981 0.0127
C 10.97571 30.54666 0.03368
C 4.85421 7.10466 0.02769
C 7.35876 11.48159 -0.00643
C 8.60987 13.61095 -0.00518
C 6.11226 5.0372 -0.04999
C 4.91784 4.31362 0.04505
C 4.87342 2.89368 0.03284
C 6.15893 2.16138 -0.04307
C 6.17184 0.74817 0.03189
C 4.9856 34.07475 0.00031
C 7.361 32.74238 -0.003
C 8.59014 31.95443 0.01402
C 8.52736 30.54671 0.02379
C 7.36255 29.84297 0.00907
C 7.3913 28.3808 0.00643
C 7.36429 12.91492 0.0086
C 8.5942 27.68534 -0.01509
C 7.38639 25.59318 0.02374
C 7.3461 24.17983 0.00402
C 8.55634 23.51883 0.0073
C 8.56574 22.07567 0.0174
C 7.33191 21.32195 0.03828
C 7.3111 19.92091 0.01226
C 8.51297 19.22964 -0.00279
C 8.59481 17.76962 0.01996
C 7.3913 17.01093 -0.03996
C 7.32869 15.6088 0.01465
C 8.58295 14.92329 -0.00074
C 8.55172 26.26251 0.03267
C 3.72372 31.89729 0.02438
C 18.3715 0.70091 -0.05302
C 19.63314 32.70389 -0.00066
C 29.44802 15.67287 0.01705
C 30.64383 14.9096 -0.0405
C 30.65766 13.4595 -0.01303
C 29.29602 12.89027 -0.01461
C 29.47424 11.38617 -0.02155
C 30.73228 10.59908 -0.00944
C 30.77971 9.18355 -0.03735
C 29.46528 8.42617 -0.00971
C 29.50096 7.07568 0.01518
C 30.73216 6.33245 0.01908
C 30.72941 4.93069 0.07705
C 29.52312 4.24614 0.0103
C 29.44513 2.85124 0.02108
C 30.69882 2.13343 0.00716
C 30.7023 0.75367 0.00307
C 29.46914 34.07962 0.00346
C 31.99392 32.7348 0.01713
C 33.23438 31.98265 -0.01694
C 33.29859 30.55087 0.01428
C 31.97193 29.86773 -0.02142
C 32.02007 28.44487 0.0544
C 33.19204 27.70218 0.00026
C 33.23979 26.19825 0.00682
C 29.60433 17.08379 0.0101
C 30.79712 17.72993 -0.00669
C 30.77116 19.15709 0.03531
C 29.53203 19.81776 0.01836
C 27.09718 11.31469 0.04185
C 28.28021 10.56197 0.00194
C 28.3152 9.15903 -0.00621
C 27.05091 8.46229 0.02611
C 27.06302 7.08594 0.02198
C 28.31723 6.3475 0.01094
C 28.32089 4.987 0.00235
C 27.07116 4.23039 0.01495
C 27.0367 2.86262 0.01259
C 28.23022 2.084 0.01799
C 28.27018 0.68467 0.01699
C 31.97526 25.60285 -0.01779
C 27.04469 34.07045 -0.00416
C 30.75957 31.9877 0.04266
C 30.70571 30.60102 0.01324
C 29.44127 29.82911 0.0014
C 29.5207 28.40422 0.00924
C 30.76573 27.70638 0.02326
C 30.72537 26.30816 0.00261
C 29.4746 25.63495 0.03265
C 29.46564 24.15881 -0.02049
C 30.6252 23.42337 -0.01854
C 30.64939 22.03105 -0.01415
C 29.45978 21.30086 -0.03039
C 29.46436 32.70366 0.01177
C 31.89454 24.16864 0.03794
C 33.15106 23.44018 0.01927
C 33.17596 22.0316 0.01574
C 0.0165 25.52562 -0.05239
C 34.40452 24.05806 0.03076
C 1.21912 23.40537 0.00723
C 1.17221 21.96748 0.02712
C 34.3579 21.26387 -0.02213
C 34.37664 19.86004 0.01951
C 1.15572 19.14113 -0.01678
C 1.17208 17.69946 0.01223
C 34.39735 16.96809 0.00648
C 34.41198 15.52051 0.02114
C 1.21998 14.8808 -0.02957
C 1.22491 26.22755 -0.00598
C 1.2562 13.45239 0.00343
C 0.04244 11.32253 -0.02442
C 1.2355 10.62215 -0.00027
C 1.25117 9.18276 -0.00583
C 0.06229 8.48097 -0.02302
C 0.03761 7.04562 -0.02849
C 1.26966 6.35517 0.02931
C 1.22455 4.94052 0.00628
C 34.39945 4.25538 -0.0345
C 34.42297 2.84618 -0.00931
C 1.23292 2.17477 -0.00939
C 1.23891 0.66452 -0.00468
C 34.39614 12.68987 -0.02656
C 26.8808 12.74731 0.02316
C 1.25496 27.67046 -0.00439
C 0.04579 29.82841 0.01831
C 31.92046 21.27352 -0.02383
C 31.95753 19.84936 -0.01429
C 33.13502 19.11422 -0.0136
C 33.16724 17.70127 0.00594
C 31.94957 17.03477 -0.02474
C 31.87937 15.56818 0.00369
C 33.11393 14.9256 0.00455
C 33.22124 13.44707 -0.00644
C 31.90898 12.73249 -0.01839
C 31.96668 11.29032 0.00137
C 33.23156 10.59921 0.00199
C 0.04545 28.41544 -0.01037
C 33.24235 9.19153 0.04381
C 31.93372 7.04011 0.01504
C 33.22917 6.35626 -0.00069
C 33.16492 4.90835 0.04926
C 31.97666 4.26205 -0.03838
C 31.9235 2.85386 0.00349
C 33.21098 2.20804 -0.00323
C 33.1496 0.72065 -0.00841
C 31.91789 0.05849 0.0001
C 0.05755 32.61408 -0.02927
C 1.21637 31.94092 -0.01404
C 1.30024 30.53054 0.01027
C 32.03639 8.46499 0.02806
C 28.02377 13.72391 0.01257
C 28.07943 15.20688 0.00152
C 27.19686 16.81151 -0.00294
C 20.88378 2.1565 -0.04422
C 20.91093 0.77419 0.00654
C 19.69009 0.00416 -0.00703
C 22.05148 32.71738 -0.04076
C 23.2822 32.07873 -0.00652
C 23.34508 30.52404 0.0058
C 22.08006 29.89721 -0.00865
C 22.20675 28.4479 0.00675
C 23.40274 27.69173 -0.00311
C 23.44131 26.26856 0.00742
C 22.19166 25.62717 -0.01594
C 19.6315 2.78884 -0.02957
C 22.15827 24.18681 0.0106
C 23.41385 22.00557 -0.01721
C 22.09812 21.31644 -0.02422
C 22.14561 19.83352 0.01277
C 23.34031 19.10114 0.00096
C 23.41271 17.72919 -0.01527
C 22.12334 17.04013 0.01087
C 22.13943 15.5858 0.00199
C 23.37363 14.86469 0.01511
C 23.51 13.47342 -0.00478
C 22.15546 12.78894 -0.01662
C 22.07048 11.39917 -0.01185
C 23.30613 23.43282 -0.01154
C 23.35511 10.64018 0.01126
C 19.65129 4.25213 -0.00831
C 20.91677 6.36457 -0.017
C 20.83001 32.00938 -0.00289
C 20.86117 30.55318 0.00028
C 19.64489 29.88342 -0.02213
C 19.66559 28.45776 0.03698
C 20.93666 27.71957 -0.00109
C 20.899 26.3396 -0.00491
C 19.65253 25.61077 0.03338
C 19.71383 24.19892 -0.0258
C 20.86878 23.42738 -0.0331
C 20.85132 22.09502 -0.00316
C 19.6604 21.30672 0.02188
C 20.90177 4.97393 0.00364
C 19.64984 19.87871 -0.01979
C 20.85303 17.75487 -0.01581
C 19.59586 17.07918 0.01452
C 19.63986 15.61062 0.04892
C 20.89716 14.95813 -0.00111
C 20.88377 13.4778 -0.03557
C 19.65821 12.80492 0.03754
C 19.61792 11.38762 0.01739
C 20.82819 10.64361 0.00755
C 20.88255 9.19943 -0.0054
C 19.67224 8.47588 0.00667
C 19.71847 7.01145 0.00143
C 20.83965 19.22034 0.02691
C 17.13088 0.03919 0.00213
C 23.31407 9.22098 0.01852
C 22.13028 7.09241 0.03046
C 24.54153 8.51338 -0.00285
C 24.55963 7.14899 -0.009
C 25.82464 6.41245 -0.01199
C 25.74982 5.01224 -0.00229
C 24.63201 4.24831 -0.00938
C 24.56845 2.82769 -0.0264
C 25.84123 2.08176 -0.01154
C 25.81918 0.72005 0.00684
C 24.54642 0.01484 -0.01052
C 27.04055 32.66878 -0.01679
C 28.19077 31.96936 0.00367
C 25.82875 9.21499 0.01423
C 28.2154 30.54452 0.04306
C 27.00811 28.37718 0.00195
C 28.293 27.67471 -0.00802
C 28.2376 26.28061 -0.00218
C 27.03171 25.57919 -0.01654
C 27.03118 24.08595 -0.00037
C 28.29642 23.45676 -0.0032
C 28.22381 22.03034 0.00622
C 27.04372 21.33805 -0.02815
C 27.05842 19.83191 -0.00942
C 28.34853 19.19896 0.00487
C 28.35452 17.76396 0.00826
C 27.04153 29.75893 0.00996
C 22.1342 8.53824 -0.00381
C 25.8026 10.59376 0.02555
C 24.68192 12.68582 0.00135
C 23.34382 6.44402 0.0296
C 23.35516 5.01846 0.03374
C 22.14462 4.2575 -0.02845
C 22.12508 2.86876 -0.03213
C 23.33669 2.16866 0.02239
C 23.37146 0.7706 0.01153
C 22.07645 34.07713 0.02734
C 24.4808 32.7446 -0.0055
C 25.738 31.99264 0.01515
C 25.79502 30.53799 -0.00225
C 24.57471 29.82423 0.00071
C 24.57632 11.28546 0.03102
C 24.59078 28.39285 -0.01107
C 25.78959 26.25874 -0.01971
C 24.66439 25.53749 -0.02118
C 24.55222 24.10165 0.00733
C 25.84451 23.33691 -0.00178
C 25.7577 21.98069 0.00768
C 24.61946 21.22678 -0.0276
C 24.63677 19.76569 0.03005
C 25.82544 19.06192 -0.04078
C 25.86482 17.59431 0.02117
C 24.62426 16.92847 0.02737
C 24.55072 15.58177 -0.00498
C 25.83803 27.61304 -0.01586
C 2.46935 32.61953 0.00297
