348
Graphene
C 0.02702 0.01207 0.01295
C 13.59068 14.8791 0.00422
C 13.45943 13.55057 0.0351
C 12.27483 12.81721 -0.03113
C 12.34675 11.32891 0.02098
C 13.60823 10.7222 0.01848
C 13.51047 9.26343 -0.00619
C 12.22856 8.50475 -0.02162
C 12.27919 7.08952 0.00889
C 13.49224 6.29117 -0.00481
C 13.56712 4.93169 0.00979
C 12.33423 4.2304 0.01443
C 12.37094 2.8103 0.03505
C 13.62266 2.13514 -0.02815
C 13.53065 0.72047 -0.04147
C 12.26717 0.10445 -0.05302
C 14.7828 32.66724 0.00213
C 15.97454 31.88178 -0.00066
C 12.27039 15.57464 0.00798
C 12.35878 16.91537 0.00228
C 13.50704 17.71789 -0.00114
C 13.51195 19.19102 -0.02696
C 11.0858 10.63865 -0.01454
C 10.99968 9.23464 0.01945
C 9.74506 8.57704 0.01416
C 9.87528 7.18429 0.03542
C 11.04437 6.41851 0.02299
C 11.12201 5.00135 0.00244
C 9.87862 4.27196 -0.01717
C 9.81771 2.86482 0.05265
C 16.03418 30.48921 -0.00289
C 11.10161 2.1899 -0.01952
C 9.85443 0.09275 0.00374
C 12.26165 32.72109 0.00052
C 13.47856 31.99723 -0.03682
C 13.59269 30.49238 0.01965
C 13.57165 23.39418 0.02058
C 13.51861 22.04947 -0.01957
C 12.40036 21.20979 -0.0108
C 12.29512 19.85611 -0.00368
C 11.06181 0.78572 -0.02813
C 14.72395 29.71697 0.00028
C 14.70387 28.32899 -0.02213
C 15.95813 27.64217 0.03698
C 14.83637 2.86693 -0.00831
C 16.03458 2.13537 -0.02957
C 16.02225 0.73636 -0.04422
C 14.78691 0.07261 0.00654
C 17.20696 32.6676 -0.00703
C 18.40758 31.8829 -0.04076
C 18.39998 30.48073 -0.00652
C 17.22545 29.86371 0.0058
C 14.78664 4.21614 0.00364
C 17.18042 28.43951 -0.00865
C 18.42381 26.31382 -0.00311
C 17.22912 25.53337 0.00742
C 17.27397 24.19923 -0.01594
C 18.46186 23.40023 0.0106
C 18.44061 21.97246 -0.01154
C 17.22263 21.28836 -0.01721
C 17.2641 19.86315 -0.02422
C 18.40831 19.15469 0.01277
C 18.39156 27.7095 0.00675
C 9.86081 11.30301 0.01241
C 16.01345 4.9299 -0.017
C 14.71197 7.1089 0.00667
C 15.91161 26.24368 -0.00109
C 14.7238 25.60335 -0.00491
C 14.59372 24.22668 0.03338
C 15.97466 23.49016 -0.0258
C 15.96243 22.05605 -0.0331
C 14.81279 21.23117 -0.00316
C 14.76822 19.86983 0.02188
C 15.98623 19.20599 -0.01979
C 15.98739 6.42704 0.00143
C 16.01307 17.76523 0.02691
C 14.78443 15.61932 0.01452
C 16.00569 14.86605 0.04892
C 15.92275 13.4123 -0.00111
C 14.7329 12.79955 -0.03557
C 14.80233 11.39646 0.03754
C 15.95493 10.63618 0.01739
C 15.94557 9.23263 0.00755
C 14.67676 8.54064 -0.0054
C 14.76927 17.04385 -0.01581
C 18.39088 17.77692 0.00096
C 9.82249 12.79542 0.0076
C 11.04778 14.85972 -0.0014
C 3.68859 6.37793 -0.01362
C 3.66297 4.90145 -0.0008
C 2.42371 4.2072 0.0288
C 2.45927 2.79636 0.00393
C 3.67682 2.12294 0.00895
C 3.73862 0.71849 0.00685
C 2.55185 0.0432 0.02888
C 4.90413 32.71234 -0.00482
C 6.11222 31.91682 -0.01384
C 4.94329 21.24303 0.03693
C 4.90679 19.93751 0.01745
C 6.14387 19.20818 0.00488
C 6.11554 17.76957 -0.01004
C 4.84691 17.04229 -0.02896
C 4.87509 15.64469 -0.00131
C 6.07797 14.95916 -0.01118
C 6.13482 13.4822 -0.014
C 2.42596 7.12044 -0.00892
C 2.48981 8.50239 -0.04848
C 3.68231 9.2418 0.01572
C 3.64132 10.65151 -0.00095
C 3.66362 30.58093 -0.02929
C 2.44714 29.89692 -0.00966
C 2.50011 28.39816 -0.03337
C 3.60609 27.62333 0.01227
C 2.40446 25.61689 0.00873
C 2.47823 24.22107 -0.00049
C 3.68695 23.39567 0.00848
C 3.84463 22.06778 -0.01303
C 4.87518 12.7509 0.02147
C 2.56574 21.26808 -0.01378
C 3.69885 19.11944 0.0127
C 3.62335 17.78548 0.01396
C 2.3966 17.09895 0.01849
C 2.44854 15.62841 -0.01142
C 3.71783 14.9136 -0.00562
C 3.67833 13.51787 -0.00494
C 2.4662 12.74232 0.00054
C 2.41969 11.32717 0.03007
C 2.52154 19.89829 0.02635
C 4.81803 11.34175 0.00373
C 6.07546 10.73135 -0.00191
C 6.0756 9.33399 0.00438
C 8.53929 9.27438 -0.02245
C 7.38324 8.54288 -0.00428
C 7.39909 7.02546 0.03101
C 8.68821 6.43645 -0.01536
C 8.67741 5.02575 -0.02689
C 7.38112 4.29875 -0.01046
C 7.35823 2.86587 -0.00891
C 8.57544 2.10114 0.02819
C 8.56596 10.65438 0.00985
C 8.6409 0.67854 0.00165
C 9.81482 32.55137 0.02894
C 11.09233 32.04098 -0.01789
C 9.86389 21.37014 0.00444
C 9.82717 19.95993 -0.00925
C 11.11385 19.12938 0.01877
C 11.1565 17.73394 0.01363
C 9.87189 17.0817 -0.02162
C 9.83333 15.51402 0.00415
C 7.37272 0.01574 -0.02971
C 11.01857 13.48495 0.02162
C 7.33197 11.32533 -0.01275
C 8.61492 13.46941 0.02841
C 4.90895 8.56797 0.01291
C 4.87512 7.13004 0.00093
C 6.1652 6.37144 0.00057
C 6.14348 4.97376 -0.01634
C 4.89558 4.30041 -0.00334
C 4.94666 2.87724 0.02339
C 6.15653 2.14039 0.01641
C 6.14941 0.7293 -0.00719
C 7.39821 12.82974 -0.01111
C 4.9525 0.02904 0.01364
C 8.52832 32.0927 -0.00033
C 7.43394 21.28308 0.03589
C 7.37026 19.98579 -0.02759
C 8.59594 19.20969 0.0402
C 8.65325 17.84399 0.00572
C 7.35151 17.12483 0.03592
C 7.33091 15.70124 0.00406
C 8.56619 14.93415 0.00943
C 7.26659 32.59234 -0.01062
C 17.20111 17.03128 -0.01527
C 17.23544 15.59752 0.01087
C 18.47892 14.90669 0.00199
C 29.38841 2.84074 0.01428
C 30.71005 2.24752 -0.02142
C 30.72948 0.75716 0.0544
C 29.47562 0.00779 0.00026
C 31.92511 32.72483 0.00682
C 33.16502 31.9308 -0.01779
C 33.2082 30.48932 0.03794
C 31.94978 29.86551 0.01927
C 31.97592 28.44315 0.01574
C 33.25816 27.75413 -0.02383
C 33.22821 26.2499 -0.01429
C 31.95278 25.57422 -0.0136
C 31.90722 24.14619 0.00594
C 33.15621 23.43046 -0.02474
C 33.14433 22.07246 0.00369
C 31.86942 21.30016 0.00455
C 31.85143 19.8918 -0.00644
C 29.50049 16.97405 -0.01694
C 30.72954 17.75962 0.01713
C 30.66397 19.18516 0.00346
C 29.4984 19.95363 0.00307
C 28.2614 19.20204 0.01836
C 28.25769 17.62442 0.03531
C 27.01507 17.11708 -0.00669
C 28.43792 2.17673 0.0101
C 28.28506 0.79996 0.01705
C 27.08139 34.02356 -0.0405
C 29.46269 32.66791 -0.01303
C 30.7215 31.97277 -0.01461
C 33.14533 19.20488 -0.01839
C 30.78713 30.56543 -0.02155
C 29.55475 28.32505 -0.03735
C 30.81595 27.67344 -0.00971
C 30.74744 26.29721 0.01518
C 29.50705 25.55482 0.01908
C 29.55287 24.19373 0.07705
C 30.68938 23.42859 0.0103
C 30.67785 21.97385 0.02108
C 29.48849 21.33628 0.00716
C 29.59265 29.86743 -0.00944
C 33.19111 17.67976 0.00137
C 31.97166 16.99003 0.00199
C 32.01358 15.6455 0.04381
C 1.20417 19.20165 -0.01678
C 1.18467 17.75504 0.01223
C 34.39451 17.01759 0.00648
C 0.06809 15.58911 0.02114
C 1.22538 14.86651 -0.02957
C 1.20582 13.45997 0.00343
C 34.29161 12.75969 -0.02656
C 34.41222 11.35314 -0.02442
C 34.40434 19.92271 0.01951
C 1.19164 10.58821 -0.00027
C 0.09814 8.51906 -0.02302
C 34.38204 7.16409 -0.02849
C 1.30858 6.34862 0.02931
C 1.22019 4.88576 0.00628
C 0.00597 4.22665 -0.0345
C 0.02153 2.78653 -0.00931
C 1.22495 2.08572 -0.00939
C 1.25943 0.68199 -0.00468
C 1.199 9.22876 -0.00583
C 27.0454 19.80987 -0.03039
C 0.0154 21.39107 -0.02213
C 1.17877 23.45022 0.00723
C 33.19263 14.95861 0.02806
C 33.15215 13.55874 0.01504
C 33.25026 6.37593 -0.00069
C 33.18679 5.01061 0.04926
C 32.05135 4.28481 -0.03838
C 32.00524 2.86244 0.00349
C 33.19978 2.10134 -0.00323
C 33.23699 0.74555 -0.00841
C 1.29028 22.04728 0.02712
C 31.99997 0.06402 0.0001
C 1.19227 31.86601 -0.01404
C 1.15295 30.5268 0.01027
C 0.00175 29.82536 0.01831
C 0.07717 28.39819 -0.01037
C 1.17939 27.67067 -0.00439
C 1.17111 26.23226 -0.00598
C 34.40492 25.49685 -0.05239
C 34.39317 24.14026 0.03076
C 34.41481 32.59465 -0.02927
C 27.02958 25.70027 -0.01415
C 28.26316 26.26704 -0.01854
C 28.29907 27.75588 -0.02049
C 19.66527 24.15154 -0.02118
C 20.84917 23.39506 0.00733
C 20.82272 22.05011 -0.00178
C 19.67338 21.29099 0.00768
C 19.68307 19.81844 -0.0276
C 20.90867 19.17255 0.03005
C 20.85998 17.81112 -0.04078
C 19.63596 17.0603 0.02117
C 19.62337 25.61058 -0.01971
C 19.66836 15.61303 0.02737
C 19.61562 12.76464 0.00135
C 19.64051 7.16937 0.03102
C 20.92423 4.93204 0.02555
C 19.73057 4.24777 0.01423
C 19.64072 2.78624 -0.00285
C 20.91615 2.14185 -0.009
C 20.84405 0.75565 -0.01199
C 19.64777 0.06706 -0.00229
C 20.97025 14.90567 -0.00498
C 22.12204 32.61146 -0.00938
C 20.85523 26.29168 -0.01586
C 19.68184 28.38611 0.00071
C 18.50861 13.44234 0.01511
C 17.11517 12.69474 -0.00478
C 17.20304 11.30581 -0.01662
C 18.46602 10.55178 -0.01185
C 18.42338 9.21368 0.01126
C 17.19219 8.52668 0.01852
C 17.22111 7.06654 -0.00381
C 18.52087 6.39419 0.03046
C 20.93079 27.737 -0.01107
C 18.4097 4.91748 0.0296
C 17.24171 2.76606 -0.02845
C 18.44445 2.11654 -0.03213
C 18.39563 0.66613 0.02239
C 17.19007 34.0695 0.01153
C 19.70679 32.68125 0.02734
C 20.89751 31.98628 -0.0055
C 20.80881 30.52576 0.01515
C 19.61751 29.80545 -0.00225
C 17.24821 4.16363 0.03374
C 3.70792 31.93297 0.03368
C 23.44563 31.95075 -0.0264
C 22.16066 29.8407 0.00684
C 25.77365 27.65631 -0.00621
C 25.75973 26.21116 0.02611
C 24.60261 25.50786 0.02198
C 24.66428 24.07482 0.01094
C 25.85877 23.36105 0.00235
C 24.60673 21.27754 0.01495
C 24.63261 19.8828 0.01259
C 25.88089 19.24152 0.01799
C 24.58874 28.36116 0.00194
C 25.7924 17.58796 0.01699
C 25.74383 2.1204 0.01177
C 25.88949 0.71631 0.04266
C 24.70171 34.02301 0.01324
C 27.08002 32.62635 0.0014
C 28.28428 31.91931 0.00924
C 28.29969 30.5209 0.02326
C 27.07897 29.79196 0.00261
C 27.07401 28.40218 0.03265
C 24.53198 17.03995 -0.00416
C 23.37592 30.52638 -0.01154
C 24.62428 29.8043 0.04185
C 25.85678 31.93914 0.01257
C 22.20144 28.45796 -0.01052
C 23.35678 27.7034 -0.01679
C 23.42291 26.18781 0.00367
C 22.08603 25.5608 0.04306
C 22.13499 24.16898 0.00996
C 23.3308 23.50169 0.00195
C 23.36486 22.01945 -0.00802
C 22.11216 21.31276 -0.00218
C 25.82555 30.57017 0.02316
C 22.13993 19.87906 -0.01654
C 23.37669 17.74405 -0.0032
C 22.11859 17.10316 0.00622
C 22.03937 15.54221 -0.02815
C 22.24407 2.87992 -0.00942
C 23.36269 2.15922 0.00487
C 23.4462 0.6751 0.00826
C 22.0841 34.01675 -0.00294
C 24.66437 32.68234 0.00152
C 23.34927 19.18718 -0.00037
C 2.5814 32.69984 -0.00077
