404
Graphene
C 34.42831 0.00785 0.01295
C 13.41327 26.33711 -0.01046
C 12.24218 25.61157 -0.00891
C 12.16362 24.19567 0.02819
C 13.3767 23.48467 0.00165
C 13.40444 21.99868 -0.02971
C 12.18539 21.27824 0.02894
C 12.2793 19.85935 -0.01789
C 13.50004 19.18859 0.00444
C 13.54925 17.82837 -0.00925
C 12.30978 17.07346 0.01877
C 12.29793 15.60639 0.01363
C 13.55673 14.89853 -0.02162
C 13.53635 13.43252 0.00415
C 12.29382 12.78691 -0.0014
C 12.36429 11.35578 0.02162
C 13.63089 10.72207 0.0076
C 13.58479 9.2913 0.01241
C 12.33678 8.5528 -0.01454
C 12.21724 7.17937 0.01945
C 13.46231 6.37889 0.01416
C 13.51114 4.99274 0.03542
C 13.55984 27.7616 -0.02689
C 12.27598 4.31352 0.02299
C 12.24051 28.48547 -0.01536
C 13.59971 30.55582 -0.00428
C 10.98228 19.16185 0.00057
C 11.081 17.75904 -0.01634
C 9.82186 17.09932 -0.00334
C 9.84161 15.61834 0.02339
C 11.09595 14.88614 0.01641
C 11.08585 13.42923 -0.00719
C 9.84813 12.69021 0.01364
C 9.84671 11.32984 -0.01062
C 11.10827 10.62599 -0.00033
C 11.03305 9.21631 0.03589
C 9.74115 8.5296 -0.02759
C 9.79865 7.06982 0.0402
C 11.0586 6.42533 0.00572
C 11.0798 5.00674 0.03592
C 9.83114 4.21181 0.00406
C 9.80564 2.86887 0.00943
C 11.08512 2.14508 0.02841
C 11.07802 0.73763 -0.01111
C 9.78351 0.04731 -0.01275
C 12.25788 32.73501 0.00985
C 13.56263 32.02537 -0.02245
C 12.26278 29.92128 0.03101
C 12.27499 2.87556 0.00244
C 13.61271 2.20386 -0.01717
C 13.54033 0.72542 0.05265
C 15.98406 6.42421 -0.02815
C 16.03263 4.99044 -0.04147
C 14.7856 4.29547 -0.05302
C 14.90804 2.81773 0.00213
C 16.13554 2.16385 -0.00066
C 16.00018 0.69207 -0.00289
C 14.79254 0.03304 0.00028
C 17.19977 32.62771 -0.02213
C 18.5836 31.9301 0.03698
C 18.45812 30.52316 -0.00109
C 17.22334 29.87507 -0.00491
C 17.18469 28.40788 0.03338
C 18.43152 27.71503 -0.0258
C 18.33528 26.23019 -0.0331
C 17.12266 25.46443 -0.00316
C 17.168 24.09172 0.02188
C 18.39689 23.4199 -0.01979
C 18.40271 21.96381 0.02691
C 17.13771 21.32199 -0.01581
C 17.16977 19.90272 0.01452
C 18.29584 19.17998 0.04892
C 14.6677 7.09903 0.03505
C 14.7971 8.48742 0.01443
C 16.10094 9.18765 0.00979
C 16.05965 10.60064 -0.00481
C 12.28648 0.09844 -0.01952
C 14.7979 32.7192 -0.02813
C 16.01572 31.95379 0.00374
C 15.99883 30.56621 0.00052
C 14.80688 29.80908 -0.03682
C 14.79393 28.43958 0.01965
C 15.95439 27.69871 0.02058
C 15.91369 26.26421 -0.01957
C 14.61259 25.62901 -0.0108
C 14.62162 24.2236 -0.00368
C 9.85338 19.93001 0.00093
C 15.85063 23.47702 -0.02696
C 14.70009 21.38318 0.00228
C 14.65923 20.02108 0.00798
C 15.96165 19.17569 0.00422
C 16.0076 17.73757 0.0351
C 14.77325 17.02823 -0.03113
C 14.78977 15.59641 0.02098
C 16.00412 14.85996 0.01848
C 16.05514 13.41843 -0.00619
C 14.78537 12.80912 -0.02162
C 14.89376 11.37589 0.00889
C 15.93687 22.05885 -0.00114
C 18.35177 17.70015 -0.00111
C 9.72141 21.39466 0.01291
C 10.95761 23.48013 -0.00191
C 2.33917 33.92123 0.00643
C 5.92396 32.11617 -0.01509
C 5.86065 30.6578 0.03267
C 4.98626 28.86878 0.02374
C 6.02952 27.96323 0.00402
C 6.01668 26.45847 0.0073
C 4.86012 25.76937 0.0174
C 4.78581 24.26171 0.03828
C 6.10477 23.59118 0.01226
C 6.04462 22.08647 -0.00279
C 4.83191 21.30649 0.01996
C 4.81873 19.9044 -0.03996
C 6.09856 19.18142 0.01465
C 6.09539 17.81721 -0.00074
C 4.80248 17.1161 -0.00518
C 4.88908 15.71088 0.0086
C 6.15585 15.00705 -0.00643
C 6.07225 13.51873 0.017
C 4.83938 12.86816 -0.03113
C 4.86049 11.35474 -0.02566
C 6.13983 10.74161 -0.00094
C 3.66803 0.37162 0.00907
C 6.14208 9.26031 0.02322
C 3.62554 1.98495 0.02379
C 2.45339 4.26451 -0.003
C 3.61297 26.51947 0.00081
C 2.43688 25.64962 0.00245
C 2.39096 24.1583 0.02728
C 3.62427 23.45096 -0.00039
C 3.61903 22.06734 0.0064
C 2.3766 21.31723 0.00211
C 2.45219 19.9443 -0.00449
C 3.60386 19.18942 -0.01979
C 3.58475 17.79412 0.02784
C 2.38218 17.01497 -0.01977
C 2.36976 15.58011 -0.00561
C 3.67625 14.89995 0.00208
C 3.67315 13.47572 0.01707
C 2.4179 12.79178 0.02769
C 2.41252 11.43756 -0.03291
C 3.66379 10.69436 -0.04999
C 3.61546 9.21004 0.04505
C 2.37112 8.48468 0.03284
C 2.4217 7.02269 -0.04307
C 3.71347 6.42512 0.03189
C 3.67201 5.0132 0.00031
C 2.48883 2.80036 0.01402
C 4.85257 8.57645 -0.00725
C 4.89077 7.12384 -0.05697
C 6.07166 6.48408 0.01087
C 7.40162 11.45656 -0.04848
C 8.56861 10.6936 -0.00892
C 8.59355 9.28429 -0.01362
C 7.38697 8.58991 -0.0008
C 7.30574 7.11974 0.0288
C 8.54281 6.41067 0.00393
C 8.53766 4.96733 0.00895
C 7.3302 4.30441 0.00685
C 7.28672 2.8337 0.02888
C 8.56352 2.1734 -0.00482
C 8.56705 0.76866 -0.01384
C 7.35609 0.033 0.03693
C 9.83101 32.73768 0.01745
C 11.04234 32.01031 0.00488
C 10.96538 30.63703 -0.01004
C 9.7403 29.88391 -0.02896
C 9.7635 28.52818 -0.00131
C 10.91599 27.78169 -0.01118
C 10.95907 26.34182 -0.014
C 9.75086 25.67985 0.02147
C 9.74104 24.25419 0.00373
C 7.34444 12.83073 0.01572
C 8.60394 13.53417 -0.00095
C 8.60211 14.89922 0.03007
C 7.43705 15.65716 0.00054
C 6.05009 5.00191 -0.01343
C 4.87375 4.27383 0.00988
C 4.85689 2.7304 0.0276
C 6.04642 2.03777 0.01305
C 6.03998 0.58654 -0.00077
C 5.02513 33.7979 0.03368
C 7.26668 32.7106 -0.02929
C 8.55627 32.02534 -0.00966
C 8.52925 30.67194 -0.03337
C 7.20079 30.0057 0.01227
C 10.97687 22.05397 0.00438
C 7.3357 28.54691 0.00873
C 8.45776 26.43737 0.00848
C 7.24939 25.735 -0.01303
C 7.31431 24.30004 -0.01378
C 8.55014 23.59211 0.02635
C 8.52054 22.08118 0.0127
C 7.35406 21.4138 0.01396
C 7.29732 19.87221 0.01849
C 8.61057 19.22896 -0.01142
C 8.56394 17.78245 -0.00562
C 7.33599 17.04927 -0.00494
C 8.54716 27.89193 -0.00049
C 17.2234 16.97051 -0.03557
C 17.29544 15.60464 0.03754
C 18.59827 14.99717 0.01739
C 30.67128 10.78158 -0.00971
C 30.5695 9.32438 0.01518
C 29.41972 8.46333 0.01908
C 29.34684 7.13177 0.07705
C 30.70796 6.3762 0.0103
C 30.77788 4.94601 0.02108
C 29.56534 4.14982 0.00716
C 29.52697 2.76526 0.00307
C 30.78747 2.05974 0.00346
C 30.72209 0.6578 0.01713
C 29.51196 0.01573 -0.01694
C 32.07868 32.67399 0.01428
C 33.37585 31.99778 -0.02142
C 33.30541 30.52982 0.0544
C 32.11015 29.77242 0.00026
C 31.96186 28.3788 0.00682
C 33.17304 27.70712 -0.01779
C 33.13746 26.18036 0.03794
C 31.89906 25.50303 0.01927
C 31.89818 24.1014 0.01574
C 33.09918 23.42294 -0.02383
C 30.72785 13.35937 -0.03735
C 33.06283 21.97166 -0.01429
C 30.48719 14.7719 -0.00944
C 29.38628 16.98448 -0.01461
C 26.43673 6.59691 0.01699
C 27.96344 6.168 -0.00416
C 28.24639 4.88394 0.01177
C 28.32147 2.23864 0.04266
C 28.31764 0.79509 0.01324
C 26.97662 0.21688 0.0014
C 29.54664 32.69497 0.00924
C 30.84056 31.94269 0.02326
C 30.86357 30.42621 0.00261
C 29.55538 29.81692 0.03265
C 29.42156 28.40796 -0.02049
C 30.70085 27.73288 -0.01854
C 30.72336 26.20532 -0.01415
C 29.42933 25.51303 -0.03039
C 29.41115 24.11192 0.01836
C 30.68283 23.43524 0.03531
C 30.60853 22.00844 -0.00669
C 29.3739 21.29673 0.0101
C 29.44102 19.87525 0.01705
C 30.63576 19.14687 -0.0405
C 30.63466 17.75916 -0.01303
C 29.33869 15.53751 -0.02155
C 31.87422 21.34894 -0.0136
C 31.90702 19.86176 0.00594
C 33.09484 19.08834 -0.02474
C 1.13214 22.06078 0.02712
C 34.36405 21.27325 -0.02213
C 34.36416 19.76329 0.01951
C 1.22044 19.1932 -0.01678
C 1.17261 17.7699 0.01223
C 34.38709 17.12404 0.00648
C 34.34731 15.62975 0.02114
C 1.08447 14.94392 -0.02957
C 1.16867 13.53312 0.00343
C 34.3324 12.83456 -0.02656
C 34.36802 11.37606 -0.02442
C 1.19707 10.67984 -0.00027
C 1.08079 9.25287 -0.00583
C 34.29442 8.57598 -0.02302
C 34.33267 7.13154 -0.02849
C 1.20315 6.34993 0.02931
C 1.15571 4.97543 0.00628
C 0.01196 4.21185 -0.0345
C 0.00738 2.82397 -0.00931
C 1.20009 2.11688 -0.00939
C 1.20454 0.71238 -0.00468
C 1.1838 23.51335 0.00723
C 34.34549 24.13181 0.03076
C 34.34777 25.53744 -0.05239
C 1.14056 26.22265 -0.00598
C 33.13467 17.70871 0.00369
C 31.87039 16.98851 0.00455
C 31.76747 15.50527 -0.00644
C 33.12297 14.88832 -0.01839
C 33.13499 13.52684 0.00137
C 31.90684 12.73165 0.00199
C 31.86998 11.36749 0.04381
C 33.10296 10.69779 0.02806
C 33.09575 9.24323 0.01504
C 31.86116 8.57609 -0.00069
C 27.09835 16.89711 0.01799
C 31.91176 7.1443 0.04926
C 33.18828 4.98158 0.00349
C 32.0069 4.27015 -0.00323
C 31.97185 2.85349 -0.00841
C 33.21174 2.12218 0.0001
C 33.14329 0.7287 -0.02927
C 31.97553 0.01956 -0.01404
C 0.09422 32.72558 0.01027
C 0.04698 29.74929 0.01831
C 34.40757 28.37103 -0.01037
C 1.22546 27.67692 -0.00439
C 33.14582 6.41027 -0.03838
C 28.23037 17.69194 0.01259
C 28.18131 19.19258 0.01495
C 26.9685 19.79914 0.00235
C 19.54519 19.87272 0.01087
C 20.83272 19.26345 0.00199
C 20.81554 17.83703 0.01511
C 19.59003 17.15972 -0.00478
C 19.77849 15.82043 -0.01662
C 19.71291 12.73306 -0.01185
C 19.63183 11.37055 0.01126
C 19.76422 8.588 0.01852
C 19.78507 7.14437 -0.00381
C 21.10093 6.36871 0.03046
C 20.87503 4.96999 0.0296
C 19.69422 4.29513 0.03374
C 19.69808 2.87118 -0.02845
C 20.99726 2.1717 -0.03213
C 20.872 0.68275 0.02239
C 19.75044 0.01055 0.01153
C 22.20527 32.68537 0.02734
C 23.41111 31.95294 -0.0055
C 23.41416 30.50413 0.01515
C 22.12614 29.72187 -0.00225
C 22.09975 28.33225 0.00071
C 19.61533 21.24034 -0.01527
C 20.86066 21.9838 0.00096
C 20.83079 23.41055 0.01277
C 19.65215 24.10797 -0.02422
C 18.65962 13.48001 0.00755
C 17.25764 12.75362 -0.0054
C 17.30508 11.23446 0.00667
C 18.50903 10.60892 0.00143
C 18.53069 9.12645 -0.017
C 17.25246 8.40286 0.00364
C 17.29834 6.99279 -0.00831
C 18.57675 6.36728 -0.02957
C 18.49333 4.99685 -0.04422
C 17.26987 4.17396 0.00654
C 23.32357 27.60663 -0.01107
C 17.32967 2.84801 -0.00703
C 18.4632 0.67299 -0.00652
C 17.23808 0.0197 0.0058
C 19.77975 32.67294 -0.00865
C 21.0273 31.92682 0.00675
C 20.9339 30.44391 -0.00311
C 19.74444 29.81679 0.00742
C 19.63405 28.38278 -0.01594
C 20.9343 27.65666 0.0106
C 20.86712 26.26113 -0.01154
C 19.66137 25.56379 -0.01721
C 18.5113 2.14406 -0.04076
C 3.5664 28.19144 -0.02805
C 23.42962 26.20634 -0.01586
C 22.09557 24.12387 -0.02118
C 24.48644 21.10967 0.00195
C 24.5083 19.6205 -0.00802
C 25.75051 18.97769 -0.00218
C 25.7611 17.49679 -0.01654
C 24.51637 16.97861 -0.00037
C 25.19711 7.19605 -0.0032
C 24.87113 2.48981 0.00622
C 25.71944 0.92565 -0.02815
C 24.65505 34.02371 -0.00942
C 27.03987 32.7988 0.00487
C 28.26938 31.98114 0.00826
C 28.35867 30.56041 -0.00294
C 27.13646 29.87997 0.00152
C 27.05712 28.36721 0.01257
C 28.29075 27.67797 0.02316
C 28.17794 26.27339 0.04185
C 27.02896 25.56058 0.00194
C 26.99228 24.18164 -0.00621
C 28.15593 23.37862 0.02611
C 28.07165 21.92255 0.02198
C 26.84482 21.18888 0.01094
C 25.7148 21.95651 0.00996
C 25.82042 23.39033 0.04306
C 24.6142 24.08364 0.00367
C 24.66339 25.48503 -0.01679
C 23.30619 23.39791 0.00733
C 23.30764 21.95021 -0.00178
C 22.0939 21.23525 0.00768
C 22.07617 19.84828 -0.0276
C 23.20893 19.05206 0.03005
C 23.21798 17.52306 -0.04078
C 21.79143 16.90685 0.02117
C 22.58998 6.55004 0.02737
C 24.0001 6.42483 -0.00498
C 23.32189 5.25929 0.00135
C 22.09337 25.51546 -0.01971
C 22.16664 4.25711 0.03102
C 23.51409 2.11272 0.01423
C 23.39077 0.68306 -0.00285
C 22.19862 0.02566 -0.009
C 24.65645 32.60528 -0.01199
C 25.93731 31.8579 -0.00229
C 25.91518 30.53455 -0.00938
C 24.67309 29.80104 -0.0264
C 24.56898 28.39128 -0.01154
C 25.84455 27.65509 0.00684
C 25.91561 26.25333 -0.01052
C 22.23461 2.89077 0.02555
C 2.18412 28.63159 -0.01386
