389
Graphene
C 0.01401 0.01894 0.01295
C 14.79665 25.52346 -0.02162
C 14.70259 24.18937 0.00415
C 16.00256 23.45703 -0.0014
C 16.00581 22.00838 0.02162
C 14.78522 21.30297 0.0076
C 14.78898 19.88792 0.01241
C 15.94442 19.12291 -0.01454
C 15.94944 17.75211 0.01945
C 14.72889 17.00241 0.01416
C 16.00063 26.25447 0.01363
C 14.7724 15.64249 0.03542
C 16.02079 13.46002 0.00244
C 14.78786 12.77297 -0.01717
C 14.79672 11.32595 0.05265
C 15.95432 10.67561 -0.01952
C 15.97387 9.19704 -0.02813
C 14.76929 8.46114 0.00374
C 15.9301 6.3631 0.00052
C 16.04624 4.94539 -0.03682
C 14.736 4.24291 0.01965
C 16.01552 14.9302 0.02299
C 14.76852 2.78689 0.02058
C 15.96443 27.72023 0.01877
C 14.70168 29.85098 0.00444
C 12.30004 29.84012 0.00572
C 12.28895 28.43736 0.03592
C 13.52736 27.71154 0.00406
C 13.52955 26.26362 0.00943
C 12.27953 25.58708 0.02841
C 12.28992 24.12363 -0.01111
C 13.54454 23.48153 -0.01275
C 13.54947 22.07217 0.00985
C 13.51371 14.92174 -0.02245
C 14.73493 28.44341 -0.00925
C 13.52489 13.47193 -0.00428
C 12.29179 11.32415 -0.01536
C 13.5411 10.66638 -0.02689
C 12.38147 2.85834 -0.01046
C 13.54812 2.08806 -0.00891
C 13.53945 0.72028 0.02819
C 12.31364 34.07172 0.00165
C 14.71942 32.6674 -0.02971
C 15.99411 31.93638 0.02894
C 16.02678 30.55239 -0.01789
C 12.29138 12.80533 0.03101
C 15.99306 2.14204 -0.01957
C 15.96453 0.77033 -0.0108
C 14.75992 0.01989 -0.00368
C 18.4304 0.62514 -0.00109
C 17.21175 34.0307 -0.00491
C 19.663 32.6844 0.03338
C 20.92125 31.93454 -0.0258
C 20.8767 30.52329 -0.0331
C 19.63755 29.86104 -0.00316
C 19.68306 28.38546 0.02188
C 20.96331 27.72679 -0.01979
C 20.91647 26.27516 0.02691
C 18.45466 2.13887 0.03698
C 19.69221 25.56467 -0.01581
C 19.70493 17.00251 0.04892
C 19.66577 15.62782 -0.00111
C 20.88195 14.87829 -0.03557
C 20.93804 13.46629 0.03754
C 19.70132 12.74487 0.01739
C 19.64915 11.37428 0.00755
C 20.89308 10.63842 -0.0054
C 20.87566 9.24042 0.00667
C 19.64885 8.53376 0.00143
C 20.89947 17.76946 0.01452
C 17.22468 2.84601 -0.02213
C 17.28395 4.23725 0.00028
C 18.45787 4.97174 -0.00289
C 17.22623 32.64232 -0.02696
C 18.44978 31.9662 -0.00114
C 18.46916 30.56026 0.00228
C 17.21427 29.8214 0.00798
C 17.18642 28.40016 0.00422
C 18.43848 27.65199 0.0351
C 18.43195 26.23834 -0.03113
C 17.24042 25.56149 0.02098
C 17.2029 24.12211 0.01848
C 18.43108 17.76069 -0.00619
C 17.19117 17.0759 -0.02162
C 17.20703 15.62618 0.00889
C 18.39142 14.92348 -0.00481
C 18.43025 13.49727 0.00979
C 17.25691 12.78501 0.01443
C 17.18559 11.33244 0.03505
C 18.43398 10.60933 -0.02815
C 18.43852 9.23569 -0.04147
C 17.22247 8.53002 -0.05302
C 17.17377 7.07375 0.00213
C 18.45062 6.36908 -0.00066
C 13.56195 30.55091 0.0402
C 13.50385 31.97408 -0.02759
C 12.29888 32.6319 0.03589
C 9.81116 0.01451 -0.00033
C 4.94411 32.67487 0.0086
C 6.15282 31.97664 -0.00643
C 6.15094 30.51634 0.017
C 4.92414 29.82366 -0.03113
C 4.90408 28.41486 -0.02566
C 6.11923 27.69234 -0.00094
C 6.12482 26.25319 0.02322
C 4.92994 25.56393 -0.00725
C 4.92363 24.11959 -0.05697
C 2.48461 0.02519 -0.00518
C 6.15976 23.45605 0.01087
C 4.91864 21.31177 0.00988
C 4.83809 19.94685 0.0276
C 4.92256 17.05951 0.01305
C 4.92279 15.63753 -0.00077
C 6.11885 14.91074 0.03368
C 6.15497 13.49818 -0.02929
C 4.9442 11.33476 -0.00966
C 6.16653 10.66279 -0.03337
C 6.13597 9.22847 0.01227
C 6.19982 21.99262 -0.01343
C 3.6947 0.7064 -0.00074
C 3.66462 2.11827 0.01465
C 2.44495 2.90103 -0.03996
C 3.70883 30.52579 -0.04999
C 2.49827 29.79516 0.04505
C 2.43785 28.39196 0.03284
C 3.70633 27.66333 -0.04307
C 3.6542 26.22108 0.03189
C 2.48685 25.54598 0.00031
C 2.39765 24.13278 -0.003
C 3.65546 23.48929 0.01402
C 3.65668 22.0582 0.02379
C 2.45493 21.33475 0.00907
C 2.4772 19.91246 0.00643
C 3.67266 19.13214 -0.01509
C 3.72218 17.73766 0.03267
C 2.49438 17.09237 0.02374
C 3.73813 10.67235 0.00402
C 3.68858 9.23596 0.0073
C 2.43053 8.48553 0.0174
C 2.43203 7.07619 0.03828
C 3.72987 6.38077 0.01226
C 3.64798 4.98432 -0.00279
C 2.47036 4.28381 0.01996
C 4.95976 8.58483 0.00873
C 19.65303 7.09594 -0.017
C 4.96119 7.08562 -0.00049
C 6.20763 4.97151 -0.01303
C 8.61032 2.17331 0.00488
C 8.54678 0.65555 -0.01004
C 7.3577 0.01708 -0.02896
C 9.81767 32.69405 -0.00131
C 11.05125 31.89097 -0.01118
C 11.05194 30.5247 -0.014
C 9.82031 29.83721 0.02147
C 9.83071 28.42659 0.00373
C 11.09037 27.68113 -0.00191
C 7.35662 2.83832 0.01745
C 11.09206 26.28441 0.00438
C 9.8774 24.14975 0.00093
C 11.06976 23.41875 0.00057
C 11.08169 13.50782 -0.01634
C 9.88466 12.82817 -0.00334
C 9.84805 11.37432 0.02339
C 11.04712 10.70413 0.01641
C 9.88675 2.84144 -0.00719
C 11.07261 2.19232 0.01364
C 11.08362 0.76872 -0.01062
C 9.83623 25.60403 0.01291
C 7.36979 4.30652 0.03693
C 8.57114 4.96376 -0.01384
C 7.38225 7.10805 -0.00482
C 4.88263 4.29565 -0.01378
C 4.94052 2.85792 0.02635
C 6.16579 2.13526 0.0127
C 6.1581 0.69165 0.01396
C 4.91276 0.04728 0.01849
C 7.38923 32.69968 -0.01142
C 8.60844 31.94004 -0.00562
C 8.57295 30.49294 -0.00494
C 7.36379 29.83789 0.00054
C 7.37578 28.36192 0.03007
C 8.62783 27.66575 -0.00095
C 8.54786 26.31159 0.01572
C 7.32685 25.56605 -0.04848
C 7.42396 24.16513 -0.00892
C 8.59354 23.40614 -0.01362
C 8.59118 13.53075 -0.0008
C 7.36104 12.77808 0.0288
C 7.39688 11.37838 0.00393
C 8.60054 10.68361 0.00895
C 8.54981 9.25616 0.00685
C 7.36369 8.49862 0.02888
C 6.12973 6.3503 0.00848
C 3.73655 31.96184 -0.03291
C 20.88382 6.42544 0.00364
C 19.6891 4.30089 -0.02957
C 29.51995 7.08993 0.07705
C 30.71632 6.37631 0.0103
C 30.74671 5.00056 0.02108
C 29.53886 4.24207 0.00716
C 29.53398 2.85407 0.00307
C 30.73549 2.09802 0.00346
C 30.71087 0.7056 0.01713
C 29.50708 34.0776 -0.01694
C 31.94601 32.69073 0.01428
C 29.5506 8.53755 0.01908
C 33.22163 31.90951 -0.02142
C 32.01316 29.81461 0.00026
C 31.95228 28.41336 0.00682
C 33.19381 27.69502 -0.01779
C 33.21885 26.28735 0.03794
C 31.98414 25.53947 0.01927
C 31.98655 24.11509 0.01574
C 33.22197 23.45582 -0.02383
C 33.23846 22.04447 -0.01429
C 31.98104 21.26214 -0.0136
C 33.24986 30.50109 0.0544
C 31.96107 19.89755 0.00594
C 30.74906 9.25079 0.01518
C 29.5192 11.36521 -0.03735
C 29.47966 32.67289 0.01324
C 30.77635 31.91112 0.0014
C 30.7213 30.48501 0.00924
C 29.51387 29.81049 0.02326
C 29.47436 28.37582 0.00261
C 30.71241 27.68569 0.03265
C 30.73795 26.22148 -0.02049
C 29.52391 25.53755 -0.01854
C 29.52852 24.15258 -0.01415
C 30.72944 10.6703 -0.00971
C 30.81503 23.43707 -0.03039
C 29.50449 21.24267 0.03531
C 29.53479 19.86468 -0.00669
C 30.75692 19.15123 0.0101
C 30.72997 17.73271 0.01705
C 29.5547 17.03886 -0.0405
C 29.5131 15.62845 -0.01303
C 30.72246 14.92781 -0.01461
C 30.77249 13.5345 -0.02155
C 29.51781 12.75998 -0.00944
C 30.77555 22.02205 0.01836
C 33.18073 19.19861 -0.02474
C 33.22445 17.72663 0.00369
C 31.98666 17.01235 0.00455
C 1.24664 23.45695 -0.02213
C 1.24595 22.01594 0.01951
C 34.4319 21.28871 -0.01678
C 34.42411 19.88875 0.01223
C 1.23804 19.15215 0.00648
C 1.24017 17.7761 0.02114
C 34.40731 16.982 -0.02957
C 34.40892 15.61844 0.00343
C 34.42006 12.74786 -0.02656
C 0.02247 24.15799 0.02712
C 34.38168 11.35481 -0.02442
C 1.20144 9.23626 -0.00583
C 34.41357 8.49763 -0.02302
C 34.40929 7.10099 -0.02849
C 1.20488 6.33112 0.02931
C 1.2183 4.98728 0.00628
C 0.00699 4.25603 -0.0345
C 0.01145 2.82958 -0.00931
C 1.25849 2.13425 -0.00939
C 1.2281 0.69001 -0.00468
C 1.1826 10.68695 -0.00027
C 0.00162 25.59261 0.00723
C 1.24378 26.25033 0.03076
C 1.23223 27.7072 -0.05239
C 31.97323 15.63452 -0.00644
C 33.19437 14.93162 -0.01839
C 33.19113 13.49882 0.00137
C 31.94066 12.78046 0.00199
C 31.93016 11.36507 0.04381
C 33.2096 10.65986 0.02806
C 33.19429 9.25065 0.01504
C 31.97995 8.52769 -0.00069
C 31.95674 7.08247 0.04926
C 33.19378 6.38713 -0.03838
C 33.19981 5.00715 0.00349
C 31.95844 4.2947 -0.00323
C 31.9728 2.78305 -0.00841
C 33.20885 2.11504 0.0001
C 33.16461 0.6988 -0.02927
C 31.97052 0.03048 -0.01404
C 0.02942 32.65391 0.01027
C 1.17825 31.91002 0.01831
C 1.21736 30.54812 -0.01037
C 0.01587 29.79077 -0.00439
C 0.00442 28.3694 -0.00598
C 27.0574 34.07267 0.04266
C 28.27243 0.68361 0.01177
C 28.29591 2.11509 -0.00416
C 27.06787 2.84005 0.01699
C 22.10779 8.48632 0.01852
C 22.15608 7.0492 -0.00381
C 23.36064 6.36068 0.03046
C 23.35531 4.96091 0.0296
C 22.13048 4.2429 0.03374
C 22.16659 2.81106 -0.02845
C 23.36007 2.14369 -0.03213
C 23.3258 0.75883 0.02239
C 22.12281 34.06788 0.01153
C 23.39406 9.16489 0.01126
C 24.53399 32.64257 0.02734
C 25.84584 30.53085 0.01515
C 24.60105 29.82429 -0.00225
C 24.51706 28.43957 0.00071
C 25.78346 27.64081 -0.01107
C 25.84013 26.25564 -0.01586
C 24.59832 25.56062 -0.01971
C 24.60334 24.10592 -0.02118
C 25.82894 23.4116 0.00733
C 25.84421 21.97079 -0.00178
C 25.80339 31.94691 -0.0055
C 23.36552 10.59704 -0.01185
C 22.0969 11.34194 -0.01662
C 22.12701 12.79697 -0.00478
C 19.70183 2.82455 -0.04422
C 20.95368 2.13274 0.00654
C 20.87588 0.65697 -0.00703
C 19.68738 34.06269 -0.04076
C 22.18004 32.67865 -0.00652
C 23.36851 31.92688 0.0058
C 23.38522 30.53132 -0.00865
C 22.1325 29.81745 0.00675
C 22.13321 28.41499 -0.00311
C 23.39929 27.67962 0.00742
C 23.42582 26.2399 -0.01594
C 22.16833 25.56352 0.0106
C 22.13305 24.18737 -0.01154
C 23.36478 23.37889 -0.01721
C 23.32927 22.01208 -0.02422
C 23.38939 19.16189 0.01277
C 23.31581 17.76539 0.00096
C 22.09972 17.04661 -0.01527
C 22.14828 15.60526 0.01087
C 23.35623 14.91072 0.00199
C 23.34804 13.46887 0.01511
C 24.58271 21.31507 0.00768
C 20.91356 5.01917 -0.00831
C 24.58774 19.88107 -0.0276
C 25.80968 17.76687 -0.04078
C 27.10098 24.15395 -0.0032
C 28.30657 23.4095 0.00622
C 28.24474 21.96244 -0.02815
C 27.0751 21.3037 -0.00942
C 27.03317 19.84874 0.00487
C 28.35496 19.19118 0.00826
C 28.25531 17.78559 -0.00294
C 27.05532 17.02192 0.00152
C 27.07958 15.62097 0.01257
C 27.00437 25.55154 -0.00037
C 28.22755 14.8972 0.02316
C 27.03314 12.77683 0.00194
C 27.0366 11.37078 -0.00621
C 28.31583 10.64357 0.02611
C 28.23049 9.20331 0.02198
C 27.07223 8.5118 0.01094
C 27.03982 7.11177 0.00235
C 28.24919 6.3657 0.01495
C 28.26795 4.99644 0.01259
C 27.0573 4.25391 0.01799
C 28.29228 13.46354 0.04185
C 28.26955 26.28415 -0.01654
C 28.29623 27.66202 -0.00218
C 27.07413 28.40873 -0.00802
C 24.56994 17.03811 0.02117
C 24.61247 15.62885 0.02737
C 25.90894 14.98947 -0.00498
C 25.83078 13.51844 0.00135
C 24.57319 12.73175 0.03102
C 24.56845 11.31637 0.02555
C 25.82268 10.67861 0.01423
C 25.80915 9.22804 -0.00285
C 24.601 8.50347 -0.009
C 24.64127 7.09649 -0.01199
C 25.82106 6.42029 -0.00229
C 25.84428 4.99898 -0.00938
C 24.57031 4.23811 -0.0264
C 24.62128 2.88023 -0.01154
C 25.8171 2.13376 0.00684
C 25.79681 0.66288 -0.01052
C 24.60665 34.05158 -0.01679
C 27.04274 32.65796 0.00367
C 28.28788 31.95942 0.04306
C 28.28147 30.53036 0.00996
C 27.07102 29.80657 0.00195
C 25.81119 19.21399 0.03005
C 2.50838 32.71794 0.02769
