373
Graphene
C 34.33253 0.07641 0.01295
C 15.93937 6.36567 0.00244
C 15.90784 4.93819 -0.01717
C 14.7213 4.27842 0.05265
C 14.68483 2.86637 -0.01952
C 15.91527 2.1674 -0.02813
C 15.97661 0.74532 0.00374
C 14.71805 34.05471 0.00052
C 17.15299 32.68235 -0.03682
C 18.38937 31.89725 0.01965
C 18.35974 30.45825 0.02058
C 17.11152 29.79744 -0.01957
C 17.08549 28.36024 -0.0108
C 18.34857 27.62783 -0.00368
C 18.30336 26.1613 -0.02696
C 16.68476 14.89807 -0.00114
C 18.12541 14.80609 0.00228
C 18.54036 13.50343 0.00798
C 17.3131 12.85462 0.00422
C 17.22681 11.41369 0.0351
C 14.68995 7.17868 0.02299
C 18.31009 10.67673 -0.03113
C 14.75864 8.57317 0.03542
C 15.96874 10.73135 0.01945
C 13.5007 9.28785 -0.02689
C 12.27155 8.64471 -0.01046
C 12.28397 7.1825 -0.00891
C 13.49231 6.47396 0.02819
C 13.49498 5.09577 0.00165
C 12.31337 4.36043 -0.02971
C 12.31443 2.91273 0.02894
C 13.4785 2.18728 -0.01789
C 13.52455 0.7383 0.00444
C 12.26811 0.02093 -0.00925
C 14.71073 32.69381 0.01877
C 15.9657 31.95281 0.01363
C 15.84904 30.52123 -0.02162
C 14.63807 29.77844 0.00415
C 14.72701 28.31896 -0.0014
C 15.87849 27.82953 0.02162
C 15.99225 13.52029 0.0076
C 14.772 13.00671 0.01241
C 14.784 11.50392 -0.01454
C 15.88257 9.3349 0.01416
C 18.44129 9.17822 0.02098
C 17.11372 8.57971 0.01848
C 17.20891 7.16897 -0.00619
C 20.83974 14.81879 -0.01581
C 20.86826 13.44489 0.01452
C 19.69114 12.74912 0.04892
C 19.63216 11.3475 -0.00111
C 20.8499 10.68854 -0.03557
C 20.85962 9.29582 0.03754
C 19.65207 8.5434 0.01739
C 19.69448 7.10105 0.00755
C 20.92559 6.35126 -0.0054
C 20.85784 4.94061 0.00667
C 19.58492 4.15283 0.00143
C 19.6373 2.78363 -0.017
C 20.82419 2.11814 0.00364
C 20.90991 0.63362 -0.00831
C 19.6143 34.00618 -0.02957
C 22.09854 32.62051 -0.04422
C 23.2445 31.83528 0.00654
C 23.19151 30.35389 -0.00703
C 22.04008 29.6577 -0.04076
C 19.40899 15.58331 0.02691
C 19.67102 16.93733 -0.01979
C 20.86985 17.67194 0.02188
C 20.85353 19.05229 -0.00316
C 18.43495 6.38327 -0.02162
C 18.39888 4.92701 0.00889
C 17.14069 4.25162 -0.00481
C 17.10813 2.84665 0.00979
C 18.37987 2.14166 0.01443
C 18.43631 0.63983 0.03505
C 17.18876 34.03559 -0.02815
C 19.69781 32.62263 -0.04147
C 20.83054 31.83594 -0.05302
C 13.53858 10.76711 -0.01536
C 20.82382 30.39867 0.00213
C 19.59411 28.23703 -0.00289
C 20.87911 27.52066 0.00028
C 20.86314 26.0739 -0.02213
C 19.49451 25.39327 0.03698
C 19.66037 23.96254 -0.00109
C 20.7977 23.25995 -0.00491
C 20.82386 21.93037 0.03338
C 19.69585 21.10228 -0.0258
C 19.71732 19.94837 -0.0331
C 19.53627 29.68056 -0.00066
C 12.20833 11.47332 0.03101
C 12.55282 12.82205 -0.00428
C 13.42914 13.52905 -0.02245
C 2.39661 2.86803 0.03368
C 3.64468 2.21022 -0.02929
C 3.60866 0.80145 -0.00966
C 2.32522 0.05903 -0.03337
C 4.81289 32.7166 0.01227
C 6.07127 32.06954 0.00873
C 6.09327 30.58534 -0.00049
C 4.86399 29.87407 0.00848
C 5.03395 28.42946 -0.01303
C 6.25923 27.94943 -0.01378
C 5.26109 15.06999 0.02635
C 6.01275 13.85408 0.0127
C 4.80788 12.89614 0.01396
C 4.85496 11.58033 0.01849
C 6.08873 10.87054 -0.01142
C 6.07681 9.44981 -0.00562
C 4.88869 8.68005 -0.00494
C 4.97961 7.2948 0.00054
C 6.11715 6.46193 0.03007
C 2.41605 4.29393 -0.00077
C 3.71663 5.09367 0.01305
C 3.68042 6.56277 0.0276
C 2.44829 7.23667 0.00988
C 3.55906 30.58641 0.0174
C 2.4057 29.8547 0.03828
C 2.50179 28.38819 0.01226
C 3.74165 27.72928 -0.00279
C 3.77823 26.3062 0.01996
C 2.61749 25.43989 -0.03996
C 2.42838 24.12083 0.01465
C 2.49345 21.45894 -0.00074
C 2.5677 20.04371 -0.00518
C 6.15533 5.09841 -0.00095
C 3.58584 19.06463 0.0086
C 2.63517 17.0666 0.017
C 2.63275 15.76183 -0.03113
C 3.76316 14.9541 -0.02566
C 3.50916 13.57283 -0.00094
C 2.38949 12.82572 0.02322
C 2.4461 11.36968 -0.00725
C 3.69937 10.79666 -0.05697
C 3.67388 9.35608 0.01087
C 2.45357 8.61274 -0.01343
C 3.79587 17.9332 -0.00643
C 22.10954 28.23876 -0.00652
C 4.95818 4.31208 0.01572
C 6.08614 2.25988 -0.00892
C 9.73336 29.88311 -0.01634
C 9.28806 28.45252 -0.00334
C 9.53278 12.84862 0.02339
C 9.85054 11.54735 0.01641
C 11.01687 10.77683 -0.00719
C 10.96542 9.36051 0.01364
C 9.75767 8.69388 -0.01062
C 9.7867 7.26023 -0.00033
C 11.02532 6.5345 0.03589
C 11.11927 5.11465 -0.02759
C 9.87975 4.32864 0.0402
C 9.79004 2.86259 0.00572
C 11.0502 2.13737 0.03592
C 11.05231 0.73715 0.00406
C 9.81066 0.12962 0.00943
C 12.29985 32.72782 0.02841
C 13.47493 31.9315 -0.01111
C 13.47548 30.51729 -0.01275
C 12.2558 29.91284 0.00985
C 11.02249 30.5145 0.00057
C 11.15898 31.97483 0.00093
C 9.80189 32.84015 0.01291
C 7.36285 0.10827 0.00438
C 6.07268 0.77496 -0.01362
C 4.78187 0.09604 -0.0008
C 7.33175 32.77069 0.0288
C 8.61181 32.09199 0.00393
C 8.60924 30.68724 0.00895
C 7.31493 29.96837 0.00685
C 7.50508 28.49167 0.02888
C 8.7287 13.68294 -0.00482
C 7.25208 13.33104 -0.01384
C 4.84678 2.90271 -0.04848
C 7.21986 11.71525 0.03693
C 8.48785 9.41804 0.00488
C 7.2438 8.76051 -0.01004
C 7.32423 7.25232 -0.02896
C 8.59435 6.53084 -0.00131
C 8.63994 5.05249 -0.01118
C 7.33403 4.34774 -0.014
C 7.31118 2.94838 0.02147
C 8.50627 2.21403 0.00373
C 8.57795 0.79759 -0.00191
C 8.42597 10.89518 0.01745
C 3.60123 32.02173 0.0073
C 23.31169 27.54296 0.0058
C 22.10686 25.39761 0.00675
C 30.61766 2.20138 0.00716
C 30.72805 0.76493 0.00307
C 29.41614 0.03099 0.00346
C 31.87631 32.71963 0.01713
C 33.09558 32.00601 -0.01694
C 33.17365 30.56447 0.01428
C 31.82308 29.81302 -0.02142
C 31.92825 28.41143 0.0544
C 33.1522 27.6881 0.00026
C 33.23188 26.2934 0.00682
C 31.98294 25.55921 -0.01779
C 31.95055 24.12004 0.03794
C 33.21212 23.47648 0.01927
C 33.25767 21.99481 0.01574
C 32.02511 21.35211 -0.02383
C 32.03166 19.88596 -0.01429
C 33.23832 19.18424 -0.0136
C 33.27465 17.78986 0.00594
C 31.99835 17.14318 -0.02474
C 29.45946 2.83517 0.02108
C 32.00797 15.71375 0.00369
C 29.39793 4.21695 0.0103
C 30.7361 6.42072 0.01908
C 30.68504 26.3408 0.00261
C 29.49845 25.52479 0.03265
C 29.472 24.05803 -0.02049
C 30.6988 23.42071 -0.01854
C 30.68285 21.97358 -0.01415
C 29.51028 21.26991 -0.03039
C 29.51265 19.82313 0.01836
C 30.7255 19.18988 0.03531
C 30.80205 17.76683 -0.00669
C 29.40664 17.08492 0.0101
C 29.4385 15.58863 0.01705
C 30.75402 14.92986 -0.0405
C 30.75453 13.58153 -0.01303
C 29.61279 12.79394 -0.01461
C 29.55574 11.39758 -0.02155
C 30.79558 10.66784 -0.00944
C 30.69789 9.30633 -0.03735
C 29.48205 8.48109 -0.00971
C 29.51766 7.04867 0.01518
C 30.68512 5.00123 0.07705
C 33.24682 14.92102 0.00455
C 33.19157 13.55242 -0.00644
C 31.9128 12.82784 -0.01839
C 0.03687 19.84397 0.01951
C 1.26776 19.13358 -0.01678
C 1.40575 17.72572 0.01223
C 0.09724 17.01007 0.00648
C 0.07062 15.6886 0.02114
C 1.28533 14.92109 -0.02957
C 1.20053 13.50243 0.00343
C 34.33874 12.78933 -0.02656
C 0.00867 11.42152 -0.02442
C 1.22753 10.7058 -0.00027
C 1.26042 9.27743 -0.00583
C 0.03449 8.56028 -0.02302
C 34.38115 7.18715 -0.02849
C 1.17349 6.46727 0.02931
C 1.18484 4.99932 0.00628
C 34.4109 4.27189 -0.0345
C 34.2976 2.88864 -0.00931
C 1.12697 2.24199 -0.00939
C 1.1575 0.77941 -0.00468
C 0.05641 21.28749 -0.02213
C 1.20952 22.03386 0.02712
C 1.21869 23.47747 0.00723
C 34.40651 24.12195 0.03076
C 31.97106 11.38082 0.00137
C 33.17849 10.64937 0.00199
C 33.21501 9.25122 0.04381
C 31.98208 8.54446 0.02806
C 31.88594 7.13419 0.01504
C 33.14871 6.52076 -0.00069
C 33.17208 5.00641 0.04926
C 31.89835 4.34363 -0.03838
C 31.86984 2.91008 0.00349
C 30.7169 27.68973 0.02326
C 33.08402 2.23328 -0.00323
C 31.89028 0.02484 0.0001
C 34.33337 32.69855 -0.02927
C 1.1376 31.93991 -0.01404
C 1.15946 30.53922 0.01027
C 34.39856 29.78742 0.01831
C 34.4001 28.43817 -0.01037
C 1.23774 27.62586 -0.00439
C 1.22839 26.30654 -0.00598
C 0.00449 25.58346 -0.05239
C 33.06219 0.75061 -0.00841
C 29.47269 28.33055 0.00924
C 29.40102 29.82213 0.0014
C 30.62628 30.58638 0.01324
C 24.46388 32.61715 0.02239
C 25.72069 31.86092 0.01153
C 25.69948 30.44109 0.02734
C 24.48817 29.76454 -0.0055
C 24.53925 28.26004 0.01515
C 25.78887 27.62329 -0.00225
C 25.76868 26.23132 0.00071
C 24.58216 25.41056 -0.01107
C 24.54489 24.07269 -0.01586
C 25.76196 23.33266 -0.01971
C 25.76662 21.93735 -0.02118
C 24.58305 21.21832 0.00733
C 24.54987 19.80061 -0.00178
C 25.79872 19.17603 0.00768
C 25.74742 17.77262 -0.0276
C 24.48528 17.08092 0.03005
C 24.46044 15.65766 -0.04078
C 25.70957 14.89119 0.02117
C 25.75265 13.4894 0.02737
C 22.13822 34.03987 -0.03213
C 23.37005 0.65076 -0.02845
C 23.33853 2.0488 0.03374
C 22.05195 2.80713 0.0296
C 22.02283 23.98314 -0.00311
C 23.31149 23.3108 0.00742
C 23.32678 21.81387 -0.01594
C 22.09702 21.0984 0.0106
C 22.12726 19.76468 -0.01154
C 23.36811 19.05955 -0.01721
C 23.21214 17.69366 -0.02422
C 21.96503 16.99765 0.01277
C 22.03882 15.58385 0.00096
C 24.54834 12.78104 -0.00498
C 23.29976 14.91847 -0.01527
C 22.11732 12.79752 0.00199
C 22.0689 11.40164 0.01511
C 23.28327 10.6665 -0.00478
C 23.32153 9.23001 -0.01662
C 22.04554 8.56698 -0.01185
C 22.12908 7.09162 0.01126
C 23.37562 6.36052 0.01852
C 23.30091 4.9299 -0.00381
C 22.16902 4.19481 0.03046
C 23.36338 13.53155 0.01087
C 23.32449 26.07109 -0.00865
C 24.56332 11.39888 0.00135
C 25.81787 9.22458 0.02555
C 26.93699 16.95196 0.00826
C 26.91296 15.58147 -0.00294
C 28.16025 14.81599 0.00152
C 28.30518 13.4722 0.01257
C 27.05062 12.70106 0.02316
C 27.06742 11.31576 0.04185
C 28.34821 10.65295 0.00194
C 28.26677 9.23582 -0.00621
C 27.02927 8.53547 0.02611
C 27.03671 7.11957 0.02198
C 28.30651 6.29367 0.01094
C 28.23182 4.9396 0.00235
C 26.93886 4.24251 0.01495
C 26.93434 2.82104 0.01259
C 28.1606 2.0679 0.01799
C 28.18551 0.62847 0.01699
C 26.90721 33.99907 -0.00416
C 29.46028 32.70854 0.01177
C 30.67578 32.00446 0.04266
C 28.18002 17.72942 0.00487
C 28.2425 19.15975 -0.00942
C 27.07207 19.86521 -0.02815
C 27.042 21.2567 0.00622
C 24.49731 8.49673 0.01423
C 24.59147 7.05294 -0.00285
C 25.82134 6.41376 -0.009
C 25.72524 5.00876 -0.01199
C 24.55353 4.24849 -0.00229
C 24.45488 2.84994 -0.00938
C 25.70552 2.06077 -0.0264
C 25.79001 0.65734 -0.01154
C 24.56844 33.96746 0.00684
C 25.74673 10.68018 0.03102
C 26.96847 32.56922 -0.01052
C 28.19671 30.48818 0.00367
C 26.93238 29.80169 0.04306
C 27.01787 28.29684 0.00996
C 28.23245 27.68208 0.00195
C 28.21247 26.24666 -0.00802
C 26.94708 25.48141 -0.00218
C 26.90906 24.11368 -0.01654
C 28.2072 23.38599 -0.00037
C 28.27075 22.03544 -0.0032
C 28.21183 31.91127 -0.01679
C 2.30915 32.71393 0.00402
