302
Graphene
C 0.01349 0.04043 0.01295
C 13.66128 17.73055 0.04892
C 12.2227 17.12487 -0.00111
C 12.30741 15.62211 -0.03557
C 13.58972 14.89716 0.03754
C 13.63233 0.73596 0.01739
C 12.33732 0.10712 0.00755
C 13.4359 19.07121 0.01452
C 14.69453 32.6391 -0.0054
C 15.99298 30.42405 0.00143
C 14.77468 29.78739 -0.017
C 14.82759 28.44318 0.00364
C 14.80659 16.95847 -0.00831
C 14.80932 15.59762 -0.02957
C 16.06214 14.92765 -0.04422
C 15.95305 31.9991 0.00667
C 12.35997 19.86536 -0.01581
C 12.26717 21.23401 0.02691
C 12.20879 24.1075 -0.01979
C 11.10483 19.09837 -0.04147
C 11.00149 17.72273 -0.05302
C 9.7766 17.10113 0.00213
C 9.82071 15.51595 -0.00066
C 11.0417 15.02345 -0.00289
C 11.00191 0.7734 0.00028
C 9.87375 0.1063 -0.02213
C 12.32559 32.66679 0.03698
C 13.53862 31.94923 -0.00109
C 13.51871 30.53721 -0.00491
C 12.28706 29.83096 0.03338
C 12.31171 28.404 -0.0258
C 13.63848 27.72849 -0.0331
C 13.46393 26.3982 -0.00316
C 12.31157 25.54419 0.02188
C 15.93606 13.54598 0.00654
C 14.80591 12.69454 -0.00703
C 16.04893 2.07752 -0.04076
C 16.04374 0.72663 -0.00652
C 17.3141 34.05324 0.01126
C 19.68402 32.56659 0.01852
C 20.87375 32.02112 -0.00381
C 20.91467 13.38827 0.03046
C 19.64089 12.72451 0.0296
C 19.69433 11.32138 0.03374
C 20.97176 10.64208 -0.02845
C 20.93779 9.2698 -0.03213
C 19.68304 8.5552 0.02239
C 19.60233 7.22806 0.01153
C 20.86901 6.4078 0.02734
C 20.87895 4.89177 -0.0055
C 19.68486 4.2031 0.01515
C 19.67108 2.87931 -0.00225
C 20.88242 2.08528 0.00071
C 18.45151 0.72557 -0.01185
C 9.83487 19.9134 -0.02815
C 18.4749 2.10056 -0.01662
C 17.31561 4.34202 0.01511
C 14.78217 34.05243 0.0058
C 17.24342 32.6562 -0.00865
C 18.41487 31.86699 0.00675
C 18.47137 30.47426 -0.00311
C 17.26057 15.5485 0.00742
C 18.30224 14.8808 -0.01594
C 18.48753 13.44126 0.0106
C 17.20312 12.73583 -0.01154
C 17.19156 11.43491 -0.01721
C 18.34956 10.64514 -0.02422
C 18.33682 9.25014 0.01277
C 17.11717 8.46799 0.00096
C 17.22709 7.25665 -0.01527
C 18.39727 6.41563 0.01087
C 18.47341 4.92981 0.00199
C 17.18812 2.8824 -0.00478
C 9.87013 21.34345 0.03505
C 11.09808 22.03132 0.01443
C 11.08941 23.46837 0.00979
C 2.45009 7.1716 -0.02245
C 3.65656 4.90203 -0.00428
C 2.45044 4.23704 0.03101
C 2.45591 2.83812 -0.01536
C 3.77405 2.18485 -0.02689
C 3.64113 0.70405 -0.01046
C 2.42052 0.02946 -0.00891
C 4.85568 32.68388 0.02819
C 6.11819 31.9492 0.00165
C 6.06679 30.51697 -0.02971
C 4.90303 29.88142 0.02894
C 6.24089 23.42687 -0.01789
C 6.11116 21.99234 0.00444
C 4.89979 21.22355 -0.00925
C 4.86721 19.84475 0.01877
C 2.47322 8.42521 0.00985
C 6.08469 19.11164 0.01363
C 3.69617 10.68311 -0.01275
C 2.50256 12.81691 0.02841
C 3.67454 30.59079 -0.01634
C 2.50336 29.77418 -0.00334
C 2.41055 28.41751 0.02339
C 2.42121 25.60689 0.01641
C 2.52967 24.24645 -0.00719
C 3.72692 23.35123 0.01364
C 3.65642 22.03872 -0.01062
C 2.39555 21.33439 -0.00033
C 2.41142 19.89608 0.03589
C 3.65142 19.19808 -0.02759
C 3.65799 17.816 0.0402
C 2.49327 17.01014 0.00572
C 2.45113 15.62593 0.03592
C 3.70037 14.93515 0.00406
C 3.72271 13.5087 0.00943
C 2.42496 11.44633 -0.01111
C 20.91297 0.72929 -0.01107
C 6.13366 17.70361 -0.02162
C 4.8796 15.61037 -0.0014
C 8.55681 17.80653 -0.0108
C 7.41993 16.97084 -0.00368
C 7.45752 15.61239 -0.02696
C 8.57129 14.88387 -0.00114
C 8.70196 0.65216 0.00228
C 7.3947 0.04728 0.00798
C 9.7974 32.64744 0.00422
C 11.0218 32.07085 0.0351
C 11.06306 30.55755 -0.03113
C 9.87274 29.76733 0.02098
C 9.82751 28.40005 0.01848
C 11.12655 27.6685 -0.00619
C 11.03719 26.23882 -0.02162
C 9.85388 25.52704 0.00889
C 9.76835 24.09624 -0.00481
C 8.58861 19.2608 -0.01957
C 4.8745 17.08943 0.00415
C 7.32459 19.87638 0.02058
C 8.63346 22.03864 -0.03682
C 6.16897 14.80216 0.02162
C 6.12732 13.444 0.0076
C 5.0163 12.89992 0.01241
C 4.9168 2.8577 -0.01454
C 6.08584 0.70206 0.01945
C 4.88804 34.03548 0.01416
C 7.37311 32.61612 0.03542
C 8.616 31.93007 0.02299
C 8.64323 30.48471 0.00244
C 7.37103 29.85153 -0.01717
C 7.40069 28.52127 0.05265
C 8.50324 27.65278 -0.01952
C 8.69806 26.21581 -0.02813
C 7.4002 24.13241 0.00374
C 8.61264 23.48232 0.00052
C 7.33364 21.19601 0.01965
C 19.6664 34.03893 -0.01586
C 22.07251 32.64252 -0.01971
C 23.28427 31.8636 -0.02118
C 31.98686 24.1494 0.01574
C 33.17352 23.45246 -0.02383
C 33.17418 22.05472 -0.01429
C 31.99849 21.24942 -0.0136
C 31.94778 19.90471 0.00594
C 33.17812 19.19371 -0.02474
C 33.25376 17.77959 0.00369
C 31.97651 17.03961 0.00455
C 31.95981 15.6124 -0.00644
C 33.2139 14.90968 -0.01839
C 33.1872 13.50035 0.00137
C 31.92376 12.81708 0.00199
C 31.99279 11.32033 0.04381
C 33.1947 10.68456 0.02806
C 33.2227 9.29965 0.01504
C 32.00349 25.60867 0.01927
C 33.12319 6.46495 -0.00069
C 33.18964 26.32279 0.03794
C 31.99327 28.40258 0.00682
C 29.46651 11.36347 -0.00971
C 30.7153 10.72011 0.01518
C 29.52645 8.55094 0.01908
C 29.57072 7.13156 0.07705
C 30.72425 6.40394 0.0103
C 30.71703 5.04573 0.02108
C 29.53081 4.27382 0.00716
C 29.44274 2.83184 0.00307
C 30.67487 2.17265 0.00346
C 30.74203 0.69054 0.01713
C 29.52143 34.03038 -0.01694
C 31.91156 32.70766 0.01428
C 33.16586 31.9925 -0.02142
C 33.26272 30.5833 0.0544
C 32.02675 29.76829 0.00026
C 33.20079 27.73056 -0.01779
C 29.44288 12.76577 -0.03735
C 33.20392 5.0086 0.04926
C 31.93004 2.87144 0.00349
C 34.35288 15.61691 0.02114
C 1.14519 14.91903 -0.02957
C 1.2055 13.43851 0.00343
C 34.41501 12.83893 -0.02656
C 34.38777 11.36622 -0.02442
C 1.19333 10.69377 -0.00027
C 1.24736 9.22455 -0.00583
C 34.38741 8.54829 -0.02302
C 34.37784 7.13564 -0.02849
C 1.28334 6.38811 0.02931
C 1.22556 5.01317 0.00628
C 34.41781 4.26013 -0.0345
C 34.40523 2.83088 -0.00931
C 1.20679 2.13403 -0.00939
C 1.17229 0.7774 -0.00468
C 0.06207 17.0345 0.00648
C 31.98459 4.2455 -0.03838
C 1.30169 17.70548 0.01223
C 34.41009 19.91687 0.01951
C 33.19266 2.15811 -0.00323
C 33.21496 0.72643 -0.00841
C 31.94677 34.07445 0.0001
C 34.41389 32.66089 -0.02927
C 1.19673 31.97814 -0.01404
C 1.28447 30.57341 0.01027
C 0.04749 29.7526 0.01831
C 0.03921 28.33556 -0.01037
C 1.27704 27.72885 -0.00439
C 1.23471 26.29741 -0.00598
C 0.00281 25.52477 -0.05239
C 34.40899 24.17384 0.03076
C 1.27958 23.38801 0.00723
C 1.17433 21.97525 0.02712
C 34.36433 21.3392 -0.02213
C 1.1747 19.12941 -0.01678
C 3.63492 32.0148 0.00057
C 30.69264 13.50495 -0.00944
C 29.51962 15.53537 -0.01461
C 25.86957 13.49737 -0.01154
C 24.62613 12.79429 0.00684
C 24.67524 11.33569 -0.01052
C 25.83536 10.58131 -0.01679
C 25.87598 9.19751 0.00367
C 24.62656 8.49234 0.04306
C 24.57547 7.10134 0.00996
C 25.81385 6.36368 0.00195
C 25.83706 4.98211 -0.00802
C 24.57877 4.30125 -0.00218
C 24.6176 2.94117 -0.01654
C 25.80462 2.17321 -0.00037
C 25.8502 0.76631 -0.0032
C 24.56397 0.02681 0.00622
C 27.05853 32.67334 -0.02815
C 25.79245 14.87256 -0.0264
C 28.31502 31.98949 -0.00942
C 25.96081 30.52544 -0.00938
C 24.49412 32.59739 -0.01199
C 23.36996 14.93958 0.00733
C 23.38304 13.55613 -0.00178
C 22.14281 12.86723 0.00768
C 22.10462 11.2846 -0.0276
C 23.31717 10.60995 0.03005
C 23.37624 9.232 -0.04078
C 22.18211 8.4982 0.02117
C 22.03961 7.05718 0.02737
C 23.26995 6.39815 -0.00498
C 23.33214 4.94058 0.00135
C 22.09156 4.23571 0.03102
C 22.1135 2.78161 0.02555
C 23.37249 2.21167 0.01423
C 23.3704 0.78511 -0.00285
C 22.14129 0.03069 -0.009
C 25.82403 31.91759 -0.00229
C 30.70521 14.86733 -0.02155
C 28.18577 30.53555 0.00487
C 28.29445 27.75238 -0.00294
C 30.79447 31.88173 0.00924
C 30.7437 30.49392 0.02326
C 29.45868 29.88054 0.00261
C 29.46996 28.42041 0.03265
C 30.74164 27.77153 -0.02049
C 30.7012 26.28815 -0.01854
C 29.47997 25.49566 -0.01415
C 29.57473 24.32223 -0.03039
C 30.74948 23.42185 0.01836
C 30.7417 22.00278 0.03531
C 29.5151 21.13345 -0.00669
C 29.48649 19.94566 0.0101
C 30.68718 19.20517 0.01705
C 30.7348 17.81081 -0.0405
C 29.52711 17.00192 -0.01303
C 29.5496 32.60993 0.0014
C 26.92235 29.82992 0.00826
C 27.05052 0.01551 0.01324
C 28.30679 2.114 0.01177
C 28.14148 17.57915 0.00152
C 27.09882 17.05855 0.01257
C 27.00522 15.63322 0.02316
C 28.2601 14.86566 0.04185
C 28.23833 13.50391 0.00194
C 27.09693 12.73202 -0.00621
C 27.09303 11.3336 0.02611
C 28.29363 10.66535 0.02198
C 28.29751 9.19379 0.01094
C 27.07513 8.44287 0.00235
C 27.04267 7.07135 0.01495
C 28.23878 6.36344 0.01259
C 28.30819 4.97056 0.01799
C 27.10681 4.23833 0.01699
C 27.03618 2.8725 -0.00416
C 28.20613 0.70741 0.04266
C 2.37751 32.6663 0.00093
