433
Graphene
C 34.37871 34.00085 0.01295
C 13.43868 6.42274 0.01364
C 13.53648 4.88676 -0.01062
C 12.24739 4.24522 -0.00033
C 12.1677 2.89172 0.03589
C 13.39452 2.13113 -0.02759
C 13.45051 0.71884 0.0402
C 12.31115 0.01966 0.00572
C 14.77277 32.63468 0.03592
C 15.99747 32.01003 0.00406
C 16.0579 30.5542 0.00943
C 14.78272 29.87927 0.02841
C 14.80118 28.4055 -0.01111
C 16.02168 27.6349 -0.01275
C 15.94407 26.2818 0.00985
C 14.78485 25.58256 -0.02245
C 14.74242 24.17145 -0.00428
C 16.00547 23.45 0.03101
C 15.98064 22.05274 -0.01536
C 14.66182 21.41886 -0.02689
C 14.69334 19.98128 -0.01046
C 15.88511 19.1036 -0.00891
C 15.86988 17.69796 0.02819
C 14.64853 16.9954 0.00165
C 12.23342 7.14132 -0.00719
C 14.674 15.64656 -0.02971
C 12.26071 8.62042 0.01641
C 13.41365 10.74277 -0.00334
C 11.00975 0.76237 0.0288
C 9.81974 0.05049 0.00393
C 12.24413 32.64806 0.00895
C 13.48901 31.97868 0.00685
C 13.50818 30.54845 0.02888
C 12.28726 29.84645 -0.00482
C 12.20372 28.32925 -0.01384
C 13.50139 27.76532 0.03693
C 13.51277 26.30139 0.01745
C 12.30714 25.6753 0.00488
C 12.25078 24.32611 -0.01004
C 13.5234 23.55209 -0.02896
C 13.53432 22.09792 -0.00131
C 12.31149 21.36524 -0.01118
C 12.35364 19.9475 -0.014
C 13.45156 19.19891 0.02147
C 13.40207 17.78491 0.00373
C 12.22806 17.06581 -0.00191
C 12.22775 15.68673 0.00438
C 13.51426 14.89591 0.01291
C 13.55593 13.53912 0.00093
C 12.26214 12.90123 0.00057
C 12.2328 11.44457 -0.01634
C 13.48129 9.37002 0.02339
C 10.92052 2.19933 -0.0008
C 15.95302 14.93543 0.02894
C 14.71751 12.70337 0.00444
C 17.17751 17.04646 -0.02696
C 17.18862 15.55875 -0.00114
C 18.41569 14.93552 0.00228
C 18.39336 13.5534 0.00798
C 17.19709 12.76528 0.00422
C 17.14046 11.41559 0.0351
C 18.40824 10.61188 -0.03113
C 18.46294 9.24335 0.02098
C 17.17203 8.58553 0.01848
C 17.07213 7.19391 -0.00619
C 18.31445 6.39539 -0.02162
C 18.37555 5.02496 0.00889
C 17.25193 4.25812 -0.00481
C 17.18456 2.83771 0.00979
C 18.38553 2.13408 0.01443
C 18.43616 0.74937 0.03505
C 17.17221 0.08405 -0.02815
C 19.65913 32.66849 -0.04147
C 20.83132 31.91766 -0.05302
C 20.83832 30.54329 0.00213
C 19.64538 29.77165 -0.00066
C 19.71319 28.36204 -0.00289
C 20.91068 27.74237 0.00028
C 18.45445 17.755 -0.00368
C 15.94941 13.46524 -0.01789
C 18.44045 19.14051 -0.0108
C 17.22533 21.34675 0.02058
C 14.68016 11.33966 -0.00925
C 15.93221 10.63727 0.01877
C 15.8936 9.24613 0.01363
C 14.69551 8.60549 -0.02162
C 14.73869 7.11265 0.00415
C 15.89937 6.38934 -0.0014
C 15.98632 4.96172 0.02162
C 14.73363 4.2833 0.0076
C 14.71729 2.85328 0.01241
C 15.88776 2.15657 -0.01454
C 15.93633 0.72093 0.01945
C 14.70011 34.05949 0.01416
C 17.08585 32.7031 0.03542
C 18.43303 31.94091 0.02299
C 18.42283 30.51758 0.00244
C 17.23447 29.81093 -0.01717
C 17.19881 28.3865 0.05265
C 18.42733 27.67238 -0.01952
C 18.46231 26.2626 -0.02813
C 17.24399 25.5616 0.00374
C 17.2546 24.13208 0.00052
C 18.49394 23.44155 -0.03682
C 18.41116 22.01377 0.01965
C 17.21841 19.86793 -0.01957
C 9.6255 3.03416 -0.01362
C 9.8413 4.41924 -0.00892
C 11.09409 5.04239 -0.04848
C 6.0331 32.00549 -0.01386
C 6.09427 30.546 -0.02805
C 4.89898 29.79831 0.00081
C 4.87942 28.42958 0.00245
C 6.13252 27.76902 0.02728
C 6.12914 26.32125 -0.00039
C 4.87656 25.65009 0.0064
C 4.87488 24.20062 0.00211
C 6.19549 23.56436 -0.00449
C 6.11729 22.11738 -0.01979
C 4.92267 21.30719 0.02784
C 4.96782 19.8745 -0.01977
C 6.13756 19.135 -0.00561
C 6.08811 17.77016 0.00208
C 4.78071 17.09736 0.01707
C 4.77911 15.63383 0.02769
C 5.99321 15.02133 -0.03291
C 6.0891 13.55902 -0.04999
C 4.79576 12.75438 0.04505
C 4.89586 11.37141 0.03284
C 6.02268 10.637 -0.04307
C 6.034 9.01901 0.03189
C 4.70853 8.46646 0.00031
C 4.81808 32.76996 -0.0059
C 6.15373 0.93393 -0.003
C 2.44834 0.05268 0.00558
C 2.20741 3.16998 0.00828
C 3.67118 30.51307 -0.00012
C 2.48914 29.84578 -0.04306
C 2.45683 28.49028 -0.03672
C 3.66228 27.69455 0.01913
C 3.64738 26.22748 0.00267
C 2.46444 25.54672 0.00787
C 2.4527 24.08942 0.02426
C 3.69924 23.36871 0.01218
C 3.66888 21.95473 -0.01471
C 2.35555 21.2898 -0.02827
C 2.3673 19.87988 0.01078
C 3.62669 19.1955 -0.00112
C 3.62267 17.90178 0.03345
C 2.39513 17.09259 0.00748
C 2.33795 15.62652 0.00662
C 3.61022 14.95866 -0.0154
C 3.56732 13.48617 -0.01299
C 2.25566 12.7963 -0.00407
C 2.37189 11.34713 0.01138
C 3.6089 10.72674 0.03278
C 3.52366 9.25156 -0.00177
C 2.39843 8.4974 0.04421
C 2.6616 7.06612 0.00088
C 3.71302 0.83097 -0.02375
C 4.9339 0.25863 0.01402
C 7.22116 32.6802 0.02379
C 8.53067 32.03275 0.00907
C 9.85879 29.86539 0.01305
C 9.78472 28.50582 -0.00077
C 10.94897 27.72708 0.03368
C 11.10322 26.33402 -0.02929
C 9.85765 25.68044 -0.00966
C 9.8806 24.21307 -0.03337
C 11.09147 23.58996 0.01227
C 10.99601 22.08443 0.00873
C 9.80274 21.4352 -0.00049
C 9.77205 19.99519 0.00848
C 11.02018 19.2285 -0.01303
C 10.97245 17.80704 -0.01378
C 9.77568 17.10114 0.02635
C 9.78376 15.7009 0.0127
C 10.95653 15.01668 0.01396
C 11.02965 13.54987 0.01849
C 9.75295 12.87581 -0.01142
C 9.78059 11.54397 -0.00562
C 11.00542 10.79601 -0.00494
C 11.08005 9.26039 0.00054
C 9.82532 8.4958 0.03007
C 9.75003 7.07777 -0.00095
C 10.93842 6.48711 0.01572
C 11.05855 30.55932 0.0276
C 11.06584 31.98649 0.00988
C 9.81642 32.7615 -0.01343
C 7.30633 0.07049 0.01087
C 8.62857 30.60225 0.00643
C 7.32845 29.93171 -0.01509
C 7.36991 28.52853 0.03267
C 8.60326 27.76856 0.02374
C 8.65893 26.40264 0.00402
C 7.33585 25.6568 0.0073
C 7.46353 24.27293 0.0174
C 8.61537 23.49272 0.03828
C 8.59392 22.08312 0.01226
C 7.35613 21.40591 -0.00279
C 7.32952 19.90642 0.01996
C 20.89758 26.36486 -0.02213
C 8.57306 19.22592 -0.03996
C 7.34346 17.04782 -0.00074
C 7.36741 15.61863 -0.00518
C 8.50599 14.93099 0.0086
C 8.45642 13.55224 -0.00643
C 7.21457 12.79228 0.017
C 7.23097 11.34993 -0.03113
C 8.51002 10.73984 -0.02566
C 8.55727 9.28259 -0.00094
C 7.37205 8.49794 0.02322
C 8.51755 2.1302 -0.00725
C 8.57688 0.70366 -0.05697
C 8.47008 17.79332 0.01465
C 3.60785 32.11405 -0.00198
C 19.7275 25.60442 0.03698
C 20.91779 23.42919 -0.00491
C 30.61156 13.36519 -0.01303
C 29.32326 12.77193 -0.01461
C 29.48683 11.31578 -0.02155
C 30.56829 10.61276 -0.00944
C 30.63097 9.16274 -0.03735
C 29.46216 8.3544 -0.00971
C 29.5243 7.02722 0.01518
C 30.78032 6.24219 0.01908
C 30.73361 4.80251 0.07705
C 29.48195 4.15331 0.0103
C 29.49211 2.76787 0.02108
C 30.77344 2.03347 0.00716
C 30.6563 0.65397 0.00307
C 29.49212 34.04876 0.00346
C 32.00865 32.62355 0.01713
C 33.20226 31.92684 -0.01694
C 33.199 30.47921 0.01428
C 31.94443 29.76709 -0.02142
C 32.00771 28.33748 0.0544
C 33.22413 27.62981 0.00026
C 33.1829 26.19244 0.00682
C 31.98921 25.54825 -0.01779
C 31.986 24.07761 0.03794
C 30.71108 14.83586 -0.0405
C 33.24076 23.46357 0.01927
C 29.46614 15.55228 0.01705
C 30.62854 17.76424 -0.00669
C 27.01933 8.51495 0.02611
C 27.07891 7.03441 0.02198
C 28.31629 6.30259 0.01094
C 28.26873 4.89737 0.00235
C 26.99071 4.13999 0.01495
C 27.08388 2.74799 0.01259
C 28.36142 2.03268 0.01799
C 28.29273 0.65429 0.01699
C 26.99443 34.05708 -0.00416
C 29.52491 32.62521 0.01177
C 30.79518 31.93992 0.04266
C 30.76959 30.5537 0.01324
C 29.56437 29.81937 0.0014
C 29.51198 28.46758 0.00924
C 30.75752 27.70799 0.02326
C 30.73559 26.30308 0.00261
C 29.51028 25.56966 0.03265
C 29.51866 24.18044 -0.02049
C 30.83134 23.49226 -0.01854
C 30.77934 22.0506 -0.01415
C 29.5043 21.35428 -0.03039
C 29.44963 20.00218 0.01836
C 30.68675 19.25608 0.03531
C 29.52647 16.97762 0.0101
C 28.27138 9.15339 -0.00621
C 33.17977 22.01215 0.01574
C 31.91097 19.86702 -0.01429
C 0.02329 24.16659 0.03076
C 1.19601 23.40596 0.00723
C 1.19629 22.01085 0.02712
C 34.41201 21.32762 -0.02213
C 34.39622 19.88998 0.01951
C 1.19906 19.14595 -0.01678
C 1.20244 17.75886 0.01223
C 34.38591 16.99065 0.00648
C 34.34775 15.54284 0.02114
C 1.1321 14.87874 -0.02957
C 1.07521 13.52394 0.00343
C 34.25906 12.78248 -0.02656
C 34.26675 11.293 -0.02442
C 1.17916 10.60245 -0.00027
C 1.14799 9.11578 -0.00583
C 34.41214 8.26654 -0.02302
C 0.12032 6.88085 -0.02849
C 1.45445 6.08673 0.02931
C 1.48202 4.45146 0.00628
C 0.03668 4.14541 -0.0345
C 34.30534 2.72533 -0.00931
C 1.2426 2.13425 -0.00939
C 1.19366 0.72521 -0.00468
C 0.0175 25.55817 -0.05239
C 31.94339 21.31274 -0.02383
C 1.2144 26.21545 -0.00598
C 34.37939 28.38837 -0.01037
C 33.1178 19.19975 -0.0136
C 33.18401 17.79148 0.00594
C 31.92145 17.10352 -0.02474
C 31.89124 15.71749 0.00369
C 33.11916 14.83286 0.00455
C 33.00391 13.46909 -0.00644
C 31.84405 12.69395 -0.01839
C 31.94347 11.27617 0.00137
C 33.15687 10.49189 0.00199
C 33.17436 9.00269 0.04381
C 31.86942 8.41838 0.02806
C 31.98629 7.00178 0.01504
C 33.24904 6.28461 -0.00069
C 33.25024 4.86107 0.04926
C 32.03687 4.08492 -0.03838
C 32.01707 2.73529 0.00349
C 33.22091 1.97947 -0.00323
C 33.20748 0.60867 -0.00841
C 31.95151 34.07626 0.0001
C 34.41251 32.62848 -0.02927
C 1.22087 31.88601 -0.01404
C 1.23626 30.497 0.01027
C 34.405 29.77624 0.01831
C 1.20407 27.67024 -0.00439
C 28.20031 10.57621 0.00194
C 27.0156 11.35834 0.04185
C 26.97955 12.78608 0.02316
C 23.3468 27.62417 0.0058
C 23.3397 26.26418 -0.00865
C 22.07579 25.59175 0.00675
C 22.14095 24.10477 -0.00311
C 23.35078 23.50698 0.00742
C 23.37039 22.04372 -0.01594
C 22.13313 21.39659 0.0106
C 22.12675 19.89173 -0.01154
C 23.36153 19.21822 -0.01721
C 23.34954 17.74135 -0.02422
C 22.13084 17.06849 0.01277
C 22.07958 15.63653 0.00096
C 23.31853 14.90068 -0.01527
C 23.2872 13.43712 0.01087
C 22.08368 12.86537 0.00199
C 22.07091 11.36207 0.01511
C 23.26858 10.67113 -0.00478
C 23.23635 9.26037 -0.01662
C 22.11862 8.50218 -0.01185
C 22.0943 7.08819 0.01126
C 23.32353 6.40556 0.01852
C 23.28669 4.9314 -0.00381
C 22.12819 4.21897 0.03046
C 22.14483 28.39136 -0.00652
C 22.11039 2.81094 0.0296
C 22.1436 29.87113 -0.04076
C 23.38688 31.95538 0.00654
C 20.95823 22.02358 0.03338
C 19.69474 21.26733 -0.0258
C 19.63553 19.91831 -0.0331
C 20.95264 19.2882 -0.00316
C 20.84209 17.82255 0.02188
C 19.67517 17.06985 -0.01979
C 19.64333 15.66074 0.02691
C 20.85921 14.90258 -0.01581
C 20.857 13.50253 0.01452
C 19.57792 12.87362 0.04892
C 19.58582 11.37801 -0.00111
C 20.82061 10.69129 -0.03557
C 20.8179 9.16858 0.03754
C 19.63374 8.50097 0.01739
C 19.59185 7.1174 0.00755
C 20.78278 6.36174 -0.0054
C 20.82117 4.98445 0.00667
C 19.59577 4.28269 0.00143
C 19.62194 2.81189 -0.017
C 20.87423 2.0954 0.00364
C 20.8467 0.719 -0.00831
C 19.64601 0.04353 -0.02957
C 22.00745 32.59507 -0.04422
C 23.31673 30.55995 -0.00703
C 23.34425 2.13961 0.03374
C 23.32325 0.78236 -0.02845
C 21.96952 34.06435 -0.03213
C 24.55214 2.86155 -0.00938
C 25.75772 2.12345 -0.0264
C 25.80037 0.75139 -0.01154
C 24.52567 0.05526 0.00684
C 27.07114 32.63575 -0.01052
C 28.32365 31.91133 -0.01679
C 28.24699 30.56448 0.00367
C 27.05214 29.85334 0.04306
C 26.93334 28.42839 0.00996
C 28.34143 27.67824 0.00195
C 28.28102 26.30972 -0.00802
C 27.0574 25.64483 -0.00218
C 27.094 24.23929 -0.01654
C 28.26581 23.51879 -0.00037
C 28.28949 22.08614 -0.0032
C 27.00262 21.33009 0.00622
C 27.0714 19.9337 -0.02815
C 28.22054 19.20968 -0.00942
C 28.22849 17.6991 0.00487
C 26.94655 17.05419 0.00826
C 26.93851 15.68885 -0.00294
C 28.19306 14.96415 0.00152
C 28.12646 13.52783 0.01257
C 24.53905 4.25422 -0.00229
C 25.80321 4.91022 -0.01199
C 25.76557 6.33865 -0.009
C 24.58565 7.05524 -0.00285
C 24.51263 32.67323 0.02239
C 25.78379 31.95486 0.01153
C 25.77832 30.50788 0.02734
C 24.5683 29.78442 -0.0055
C 24.54674 28.33987 0.01515
C 25.78921 27.69949 -0.00225
C 25.80204 26.24565 0.00071
C 24.59666 25.56377 -0.01107
C 24.57916 24.21149 -0.01586
C 25.83448 23.42813 -0.01971
C 25.80567 21.97252 -0.02118
C 19.70175 24.18751 -0.00109
C 24.51557 21.32918 0.00733
C 25.80517 19.2796 0.00768
C 25.75091 17.81756 -0.0276
C 24.52173 17.00233 0.03005
C 24.54193 15.65406 -0.04078
C 25.7186 14.96152 0.02117
C 25.75908 13.57716 0.02737
C 24.55166 12.79774 -0.00498
C 24.48271 11.45288 0.00135
C 25.76335 10.72721 0.03102
C 25.78931 9.2411 0.02555
C 24.52538 8.51644 0.01423
C 24.5401 19.89183 -0.00178
C 2.36981 32.68859 0.00535
