298
Graphene
C 34.4014 34.07073 0.01295
C 11.33942 10.63379 0.03754
C 11.08505 9.24433 0.01739
C 9.84401 8.52253 0.00755
C 9.90832 7.15668 -0.0054
C 11.05145 6.45737 0.00667
C 11.07999 5.01495 0.00143
C 10.14298 11.29769 -0.03557
C 9.84191 4.31272 -0.017
C 11.10476 2.14337 -0.00831
C 11.13604 0.69521 -0.02957
C 9.88079 0.01136 -0.04422
C 12.3098 32.52965 0.00654
C 13.64043 31.96354 -0.00703
C 13.45105 10.72719 -0.04076
C 9.84425 2.91718 0.00364
C 9.63884 12.58568 -0.00111
C 9.85573 28.33481 0.04892
C 9.93503 29.71789 0.01452
C 7.42807 11.40429 -0.00066
C 8.74649 10.62377 -0.00289
C 8.65632 9.21389 0.00028
C 7.34182 8.50854 -0.02213
C 7.32937 7.14751 0.03698
C 8.63891 6.46807 -0.00109
C 8.63434 5.059 -0.00491
C 7.3606 4.32496 0.03338
C 7.38786 2.89436 -0.0258
C 8.61367 2.1151 -0.0331
C 8.60336 0.76717 -0.00316
C 7.43083 0.02052 0.02188
C 9.87232 32.62055 -0.01979
C 11.05438 31.89988 0.02691
C 10.77822 30.61848 -0.01581
C 13.56403 9.33087 -0.00652
C 7.35705 12.80038 0.00213
C 12.28771 8.5799 0.0058
C 13.51665 6.46578 0.00675
C 17.37565 8.4544 0.03046
C 17.24676 7.0883 0.0296
C 18.31919 6.26599 0.03374
C 18.36532 4.90456 -0.02845
C 17.14205 4.20536 -0.03213
C 17.13171 2.85815 0.02239
C 18.53283 9.24019 -0.00381
C 18.40568 2.10005 0.01153
C 17.27092 0.01394 -0.0055
C 19.58784 32.77229 0.01515
C 20.64861 10.56538 -0.00225
C 20.95458 9.22019 0.00071
C 19.70897 8.46244 -0.01107
C 19.61043 7.03021 -0.01586
C 18.47452 0.69856 0.02734
C 18.65888 10.688 0.01852
C 14.88352 34.07332 0.01126
C 16.0373 0.68793 -0.01185
C 13.47243 4.9658 -0.00311
C 12.25893 4.28006 0.00742
C 12.29974 2.86401 -0.01594
C 13.46285 2.10723 0.0106
C 13.56424 0.7003 -0.01154
C 12.37097 33.96268 -0.01721
C 14.6528 32.65102 -0.02422
C 16.10147 9.02102 0.01277
C 14.78103 8.65773 0.00096
C 14.76085 7.20788 -0.01527
C 16.01302 6.4147 0.01087
C 15.98877 4.98189 0.00199
C 14.70165 4.22548 0.01511
C 14.7331 2.80131 -0.00478
C 15.90008 2.0758 -0.01662
C 12.24854 7.16345 -0.00865
C 8.67579 13.34106 -0.05302
C 7.31697 15.73431 -0.04147
C 7.25253 16.9934 -0.02815
C 3.63785 10.63718 -0.02689
C 3.63166 9.27163 -0.01046
C 2.44184 8.51952 -0.00891
C 2.46153 7.15816 0.02819
C 3.65124 6.39193 0.00165
C 3.69767 4.9759 -0.02971
C 2.42462 11.34623 -0.01536
C 2.44831 4.27942 0.02894
C 3.69032 2.10877 0.00444
C 3.69637 0.70526 -0.00925
C 2.46765 34.06081 0.01877
C 4.94872 32.72435 0.01363
C 6.14859 32.01134 -0.02162
C 6.13434 30.58623 0.00415
C 2.44214 2.86531 -0.01789
C 2.40768 12.79535 0.03101
C 3.62793 13.48197 -0.00428
C 3.707 14.89839 -0.02245
C 3.63724 30.57384 -0.00719
C 2.39064 29.80794 0.01364
C 2.43269 28.43728 -0.01062
C 3.67437 27.73275 -0.00033
C 3.72411 26.30598 0.03589
C 2.46429 25.59001 -0.02759
C 2.46607 24.15824 0.0402
C 3.69734 23.45554 0.00572
C 3.65862 22.07773 0.03592
C 2.46708 21.34959 0.00406
C 2.44039 19.87611 0.00943
C 3.68624 19.18827 0.02841
C 3.68405 17.74555 -0.01111
C 2.44935 17.04929 -0.01275
C 2.45261 15.5964 0.00985
C 4.89405 29.88044 -0.0014
C 4.9398 28.4231 0.02162
C 6.16677 27.67624 0.0076
C 6.18765 26.30619 0.01241
C 6.12783 5.00394 -0.00114
C 4.93848 4.25213 0.00228
C 4.98268 2.77973 0.00798
C 6.13744 2.15083 0.00422
C 6.18572 0.67984 0.0351
C 4.92827 34.07133 -0.03113
C 7.40041 32.69799 0.02098
C 8.63301 31.93259 0.01848
C 8.71406 30.52055 -0.00619
C 7.41044 29.85519 -0.02162
C 7.38962 28.39976 0.00889
C 8.57238 27.74279 -0.00481
C 8.48982 26.30179 0.00979
C 7.46402 25.48445 0.01443
C 7.29468 24.09537 0.03505
C 6.11304 6.38411 -0.02696
C 20.82266 6.32064 -0.01971
C 4.86877 7.11848 -0.00368
C 6.06377 9.33699 -0.01957
C 5.00278 25.55492 -0.01454
C 4.96191 24.13811 0.01945
C 6.18946 23.32914 0.01416
C 6.17843 21.81855 0.03542
C 4.90437 21.28493 0.02299
C 4.85548 19.90109 0.00244
C 5.98429 19.20939 -0.01717
C 6.22532 17.85866 0.05265
C 4.92711 17.04029 -0.01952
C 4.94014 15.60817 -0.02813
C 6.1734 14.83116 0.00374
C 6.15726 13.47624 0.00052
C 4.96084 12.79366 -0.03682
C 4.88293 11.37563 0.01965
C 6.16489 10.71477 0.02058
C 4.89604 8.53931 -0.0108
C 20.81593 4.88483 -0.02118
C 19.55685 4.21506 0.00733
C 19.64316 2.74676 -0.00178
C 31.91212 21.43269 -0.02383
C 31.88247 20.03504 -0.01429
C 33.09001 19.23462 -0.0136
C 33.06772 17.80705 0.00594
C 31.85316 17.1195 -0.02474
C 31.82039 15.67016 0.00369
C 33.13494 22.05219 0.01574
C 33.14566 14.99624 0.00455
C 31.89217 12.81228 -0.01839
C 31.91787 11.36409 0.00137
C 33.14957 10.67241 0.00199
C 33.15065 9.2762 0.04381
C 31.94066 8.54677 0.02806
C 31.90402 7.18306 0.01504
C 33.17697 13.51838 -0.00644
C 33.2139 23.47129 0.01927
C 32.0272 24.26505 0.03794
C 31.86516 25.54098 -0.01779
C 29.46037 7.07217 0.01518
C 30.71912 6.41501 0.01908
C 30.76323 5.02853 0.07705
C 29.53085 4.24538 0.0103
C 29.51506 2.87113 0.02108
C 30.7221 2.14668 0.00716
C 30.69557 0.73189 0.00307
C 29.45523 0.03451 0.00346
C 31.92795 32.68246 0.01713
C 33.16992 31.98969 -0.01694
C 33.18596 30.59245 0.01428
C 31.90665 29.90742 -0.02142
C 31.92014 28.48278 0.0544
C 33.15543 27.76162 0.00026
C 33.17525 26.2924 0.00682
C 33.13922 6.44828 -0.00069
C 33.1338 5.02993 0.04926
C 31.93906 4.29336 -0.03838
C 31.99605 2.8965 0.00349
C 34.39255 15.68396 0.02114
C 1.20105 14.9075 -0.02957
C 1.19881 13.51385 0.00343
C 34.39712 12.77589 -0.02656
C 0.00124 11.3875 -0.02442
C 1.22625 10.65784 -0.00027
C 1.21332 9.22516 -0.00583
C 34.39322 8.51046 -0.02302
C 34.39356 7.14111 -0.02849
C 1.18156 6.42522 0.02931
C 1.23233 5.02415 0.00628
C 34.41521 4.30216 -0.0345
C 34.40833 2.91493 -0.00931
C 1.19947 2.19964 -0.00939
C 1.25219 0.6846 -0.00468
C 34.39562 17.05481 0.00648
C 29.46646 8.49968 -0.00971
C 1.19483 17.76419 0.01223
C 34.34185 19.92944 0.01951
C 33.192 2.17106 -0.00323
C 33.1745 0.71162 -0.00841
C 31.92886 0.04851 0.0001
C 34.37008 32.64178 -0.02927
C 1.20055 31.95753 -0.01404
C 1.19915 30.53616 0.01027
C 34.4162 29.88166 0.01831
C 34.38813 28.49907 -0.01037
C 1.2183 27.71313 -0.00439
C 1.23812 26.3841 -0.00598
C 0.02907 25.63191 -0.05239
C 0.01529 24.16956 0.03076
C 1.22649 23.44093 0.00723
C 1.18853 22.03381 0.02712
C 34.37155 21.36505 -0.02213
C 1.1961 19.20885 -0.01678
C 3.7149 32.00386 0.01641
C 30.70607 9.33038 -0.03735
C 29.50309 11.39835 -0.02155
C 24.57073 32.68615 -0.01052
C 25.73543 31.9445 -0.01679
C 25.61042 30.57444 0.00367
C 26.02296 13.51349 0.04306
C 24.66271 12.94694 0.00996
C 24.52065 11.45066 0.00195
C 22.17079 34.06451 0.00684
C 25.76012 10.61941 -0.00802
C 24.57677 8.4886 -0.01654
C 24.50751 7.04584 -0.00037
C 25.77255 6.40424 -0.0032
C 25.72532 4.99852 0.00622
C 24.4981 4.28053 -0.02815
C 24.53338 2.88005 -0.00942
C 25.80789 9.19331 -0.00218
C 23.35858 0.70805 -0.01154
C 23.30835 2.11221 -0.0264
C 22.17863 2.86596 -0.00938
C 20.88971 2.05857 0.00768
C 20.98318 0.71649 -0.0276
C 19.73976 0.05202 0.03005
C 22.01008 32.63674 -0.04078
C 23.29216 32.23392 0.02117
C 23.28589 13.37719 0.02737
C 22.33202 12.6895 -0.00498
C 21.84121 11.42004 0.00135
C 23.30889 10.72552 0.03102
C 23.35688 9.21149 0.02555
C 22.18654 8.47329 0.01423
C 22.05969 7.04483 -0.00285
C 23.28383 6.4118 -0.009
C 23.3047 4.99453 -0.01199
C 22.04485 4.2648 -0.00229
C 25.7786 2.14242 0.00487
C 25.76815 0.73699 0.00826
C 24.53571 0.01916 -0.00294
C 26.92609 32.63417 0.00152
C 27.05244 34.07897 0.02326
C 29.4019 32.70456 0.00261
C 30.68487 31.99888 0.03265
C 30.60748 30.51658 -0.02049
C 29.41534 29.76182 -0.01854
C 29.42152 28.30961 -0.01415
C 30.73046 27.74347 -0.03039
C 30.80058 26.35748 0.01836
C 30.7275 19.27545 0.03531
C 30.49587 17.88229 -0.00669
C 29.48236 16.95472 0.0101
C 29.33475 15.5942 0.01705
C 30.62857 14.91205 -0.0405
C 30.72019 13.49159 -0.01303
C 29.531 12.78512 -0.01461
C 28.26029 0.71739 0.00924
C 30.71588 10.67491 -0.00944
C 28.26668 2.13976 0.0014
C 27.05803 4.26873 0.04266
C 28.18646 31.94437 0.01257
C 28.18114 30.44461 0.02316
C 26.83342 29.80032 0.04185
C 27.30443 28.4004 0.00194
C 28.2082 27.58258 -0.00621
C 28.2095 14.81165 0.02611
C 28.35032 13.43932 0.02198
C 27.14595 12.71407 0.01094
C 27.00919 11.32591 0.00235
C 28.24403 10.64323 0.01495
C 28.23268 9.23184 0.01259
C 27.04719 8.45625 0.01799
C 26.94145 7.08482 0.01699
C 28.19752 6.37466 -0.00416
C 28.25001 4.98419 0.01177
C 27.03195 2.88582 0.01324
C 2.44809 32.66656 0.02339
