309
Graphene
C 0.02208 0.04099 0.01295
C 18.505 2.10508 0.02188
C 18.41975 0.77103 -0.01979
C 17.20932 0.06059 0.02691
C 19.70492 32.62959 -0.01581
C 20.96018 31.9896 0.01452
C 20.93834 30.53767 0.04892
C 19.63521 29.78443 -0.00111
C 19.6423 28.35157 -0.03557
C 20.86223 27.5892 0.03754
C 19.63013 15.53643 0.01739
C 20.94656 14.93713 0.00755
C 20.94153 13.44395 -0.0054
C 19.71412 12.766 0.00667
C 19.73069 11.33484 0.00143
C 20.88921 10.71882 -0.017
C 17.21143 2.81625 -0.00316
C 20.91855 9.18605 0.00364
C 17.157 4.2146 -0.0331
C 18.49922 6.31463 0.03338
C 15.92163 0.70447 -0.00481
C 14.71259 0.02899 0.00979
C 17.22803 32.64798 0.01443
C 18.41336 31.98217 0.03505
C 18.38761 30.59998 -0.02815
C 17.2411 29.86595 -0.04147
C 17.25271 28.44814 -0.05302
C 18.51918 14.93724 0.00213
C 18.45152 13.49956 -0.00066
C 17.19696 12.79702 -0.00289
C 17.25725 11.34882 0.00028
C 18.49685 10.67149 -0.02213
C 18.45491 9.30496 0.03698
C 17.18158 8.51083 -0.00109
C 17.19306 7.13531 -0.00491
C 18.46715 4.89551 -0.0258
C 19.70216 8.52329 -0.00831
C 19.70681 7.13181 -0.02957
C 20.98533 6.39487 -0.04422
C 23.33934 14.86021 -0.00478
C 23.34748 13.51431 -0.01662
C 22.15673 12.72352 -0.01185
C 22.0924 11.32461 0.01126
C 23.37921 10.61466 0.01852
C 23.43574 9.22381 -0.00381
C 22.14402 8.5373 0.03046
C 22.16669 7.12082 0.0296
C 23.33658 6.4659 0.03374
C 23.34521 4.99031 -0.02845
C 22.11386 4.20872 -0.03213
C 22.14866 2.82569 0.02239
C 23.37807 2.16645 0.01153
C 23.34695 0.67336 0.02734
C 22.09229 34.07887 -0.0055
C 22.1111 15.64472 0.01511
C 22.17738 16.98805 0.00199
C 23.4064 17.80956 0.01087
C 23.3675 19.13596 -0.01527
C 20.91974 4.98589 0.00654
C 19.68494 4.23319 -0.00703
C 19.7264 2.78505 -0.04076
C 20.88885 2.13636 -0.00652
C 20.88396 0.69098 0.0058
C 19.69324 34.02944 -0.00865
C 22.15896 32.63357 0.00675
C 15.96043 2.17764 0.00889
C 23.32635 31.9449 -0.00311
C 22.11511 29.80885 -0.01594
C 22.07228 28.41753 0.0106
C 23.3488 27.73868 -0.01154
C 23.30766 26.28518 -0.01721
C 22.14955 25.52999 -0.02422
C 23.38273 23.36425 0.01277
C 23.34754 22.05364 0.00096
C 23.37655 30.54827 0.00742
C 14.80306 2.88257 -0.02162
C 14.76151 4.27464 -0.00619
C 15.99351 4.91916 0.01848
C 6.10939 0.66215 0.00406
C 4.89318 34.0763 0.00943
C 8.66225 9.27329 0.02841
C 7.33793 8.55616 -0.01111
C 7.34377 7.12175 -0.01275
C 8.5639 6.41958 0.00985
C 8.59649 4.96404 -0.02245
C 7.323 4.2678 -0.00428
C 7.37512 2.86257 0.03101
C 8.63497 2.11402 -0.01536
C 8.57983 0.66598 -0.02689
C 7.37806 34.05828 -0.01046
C 9.85246 15.5836 -0.00891
C 11.07173 14.88346 0.02819
C 11.0362 13.46457 0.00165
C 6.15821 2.13374 0.03592
C 4.96188 2.86279 0.00572
C 4.88656 4.31815 0.0402
C 6.15456 4.93129 -0.02759
C 2.40927 15.7165 0.02147
C 2.433 11.3796 0.00373
C 3.68156 9.30639 -0.00191
C 2.50409 8.47503 0.00438
C 2.42424 7.10919 0.01291
C 3.66279 6.42366 0.00093
C 3.6616 4.97896 0.00057
C 9.84296 11.37711 -0.02971
C 2.4485 4.32875 -0.01634
C 3.72245 2.1035 0.02339
C 3.71863 0.74905 0.01641
C 2.50248 0.01062 -0.00719
C 6.1548 9.25076 0.01364
C 4.87263 8.65706 -0.01062
C 4.92764 7.13404 -0.00033
C 6.13118 6.37126 0.03589
C 2.4582 2.85397 -0.00334
C 24.54832 32.70932 0.01515
C 11.08491 10.60914 0.02894
C 9.87386 8.55762 0.00444
C 12.27615 2.82043 0.00052
C 13.61249 2.11752 -0.03682
C 13.52843 0.70555 0.01965
C 12.24737 34.04248 0.02058
C 14.72613 32.77047 -0.01957
C 15.95861 31.95547 -0.0108
C 16.0485 30.51362 -0.00368
C 15.96774 13.47865 -0.02696
C 14.81938 12.76753 -0.00114
C 14.74216 11.3309 0.00228
C 16.03754 10.63431 0.00798
C 15.88427 9.19287 0.00422
C 14.72136 8.57278 0.0351
C 14.71207 7.11986 -0.03113
C 15.95707 6.3869 0.02098
C 12.32569 4.28077 0.00374
C 13.52461 4.88483 -0.02813
C 13.55276 6.37525 -0.01952
C 12.33008 7.12305 0.05265
C 9.8293 7.13474 -0.00925
C 11.05508 6.38487 0.01877
C 11.04004 4.91435 0.01363
C 9.81932 4.22997 -0.02162
C 9.85609 2.83441 0.00415
C 11.07807 2.10885 -0.0014
C 11.07334 0.71396 0.02162
C 11.0781 9.27878 -0.01789
C 9.80301 34.07809 0.0076
C 13.54222 14.90247 -0.01454
C 13.59814 13.49672 0.01945
C 12.28983 12.8502 0.01416
C 12.26677 11.25578 0.03542
C 13.52591 10.62618 0.02299
C 13.4908 9.23518 0.00244
C 12.24273 8.47249 -0.01717
C 12.36016 15.58108 0.01241
C 2.41787 16.98318 -0.014
C 25.78052 31.993 -0.00225
C 24.62697 29.76038 -0.01107
C 33.19927 27.72031 0.01927
C 33.21571 26.29476 0.01574
C 32.01682 25.58472 -0.02383
C 31.95905 24.13975 -0.01429
C 33.2191 23.43544 -0.0136
C 33.23568 22.04502 0.00594
C 31.97525 21.30341 -0.02474
C 31.96325 19.90562 0.00369
C 33.25126 19.13886 0.00455
C 33.23065 17.78209 -0.00644
C 31.96349 17.06985 -0.01839
C 31.98986 15.6599 0.00137
C 33.14511 14.97902 0.00199
C 33.16588 13.53293 0.04381
C 31.98832 12.80313 0.02806
C 31.91746 28.40581 0.03794
C 31.96842 11.40781 0.01504
C 31.97351 29.80019 -0.01779
C 33.22775 31.94485 0.00026
C 30.71269 13.53653 -0.03735
C 29.47689 12.83302 -0.00971
C 29.52495 11.37385 0.01518
C 30.69021 10.66206 0.01908
C 30.69878 9.27847 0.07705
C 29.5033 8.48763 0.0103
C 29.53838 7.08166 0.02108
C 30.70381 6.4337 0.00716
C 30.72212 4.9803 0.00307
C 29.55308 4.30093 0.00346
C 29.52099 2.78408 0.01713
C 30.73829 2.14124 -0.01694
C 30.70259 0.69936 0.01428
C 29.52894 34.06871 -0.02142
C 31.97087 32.68549 0.0544
C 33.1047 30.53612 0.00682
C 33.14856 10.66356 -0.00069
C 33.17435 9.18185 0.04926
C 31.97652 8.58154 -0.03838
C 34.36476 15.61598 0.02114
C 1.25646 14.92173 -0.02957
C 1.21545 13.45462 0.00343
C 34.4311 12.77899 -0.02656
C 34.39802 11.38556 -0.02442
C 1.27584 10.68201 -0.00027
C 1.25527 9.27162 -0.00583
C 34.41772 8.512 -0.02302
C 34.41582 7.10268 -0.02849
C 1.19391 6.3814 0.02931
C 1.16516 5.01342 0.00628
C 0.04294 4.22533 -0.0345
C 0.0282 2.78526 -0.00931
C 1.30847 2.10687 -0.00939
C 1.25019 0.73316 -0.00468
C 34.42825 17.03268 0.00648
C 1.25475 17.78128 0.01223
C 1.21266 19.16193 -0.01678
C 0.01574 19.88114 0.01951
C 31.95512 7.14438 0.00349
C 33.23797 6.42328 -0.00323
C 33.21336 4.87836 -0.00841
C 32.00506 4.2227 0.0001
C 31.98601 2.85283 -0.02927
C 33.19761 2.16738 -0.01404
C 33.21035 0.66292 0.01027
C 30.71023 14.92356 -0.00944
C 32.0159 34.03289 0.01831
C 1.21044 31.87934 -0.00439
C 1.18563 30.55308 -0.00598
C 34.41386 29.80543 -0.05239
C 34.36124 28.44835 0.03076
C 34.41305 25.51825 0.00723
C 34.41799 24.1628 0.02712
C 0.00548 21.28996 -0.02213
C 0.00218 32.71325 -0.01037
C 29.57819 15.60574 -0.02155
C 29.51101 16.97472 -0.01461
C 30.75174 17.76476 -0.01303
C 24.63812 7.09859 -0.00938
C 25.80054 6.3854 -0.0264
C 25.85106 4.95736 -0.01154
C 24.5899 4.27207 0.00684
C 24.58708 2.8339 -0.01052
C 25.85313 2.18634 -0.01679
C 25.81787 0.73028 0.00367
C 24.63114 0.06359 0.04306
C 27.00519 32.6861 0.00996
C 28.2873 31.96203 0.00195
C 28.29157 30.53052 -0.00802
C 27.09687 29.89029 -0.00218
C 27.08774 28.41037 -0.01654
C 28.25468 27.63902 -0.00037
C 28.29612 26.29294 -0.0032
C 24.60663 8.54111 -0.00229
C 25.85641 9.27241 -0.01199
C 25.78032 10.57201 -0.009
C 24.55721 11.32258 -0.00285
C 24.58834 28.38707 -0.01586
C 25.88887 27.69824 -0.01971
C 25.7448 26.23314 -0.02118
C 24.5232 25.57096 0.00733
C 24.5558 24.08654 -0.00178
C 25.78368 23.42415 0.00768
C 25.80728 21.97535 -0.0276
C 27.04487 25.61527 0.00622
C 24.58401 21.34828 0.03005
C 25.81322 19.18055 0.02117
C 25.84004 17.75015 0.02737
C 24.58386 17.02996 -0.00498
C 24.54008 15.64681 0.00135
C 25.82244 14.91752 0.03102
C 25.84852 13.43007 0.02555
C 24.59324 12.76414 0.01423
C 24.5253 19.91609 -0.04078
C 25.81842 30.57448 0.00071
C 27.04356 24.18934 -0.02815
C 28.25517 22.01116 0.00487
C 27.01995 34.07398 0.0014
C 29.52395 32.68132 0.00924
C 30.77467 31.93505 0.02326
C 30.74166 30.5181 0.00261
C 29.48372 29.76445 0.03265
C 29.48626 28.35524 -0.02049
C 30.72847 27.71857 -0.01854
C 30.73782 26.3599 -0.01415
C 29.54524 25.51963 -0.03039
C 29.51878 24.10022 0.01836
C 30.69083 23.40633 0.03531
C 30.7447 22.01775 -0.00669
C 29.54137 21.29179 0.0101
C 29.45113 19.81454 0.01705
C 30.73187 19.17198 -0.0405
C 28.3001 0.70089 0.01324
C 28.27676 2.0685 0.04266
C 27.02281 2.85626 0.01177
C 27.07836 4.21606 -0.00416
C 27.05521 21.29546 0.00826
C 27.07408 19.90455 -0.00294
C 28.25603 19.14261 0.00152
C 28.30029 17.68861 0.01257
C 27.03503 17.00387 0.02316
C 27.02475 15.5947 0.04185
C 28.30453 14.91756 0.00194
C 28.32439 23.39481 -0.00942
C 28.26625 13.53484 -0.00621
C 26.97618 11.35053 0.02198
C 28.23121 10.62258 0.01094
C 28.2828 9.16366 0.00235
C 27.01745 8.52221 0.01495
C 27.0961 7.09071 0.01259
C 28.31494 6.37851 0.01799
C 28.19916 4.97405 0.01699
C 26.99954 12.72724 0.02611
C 2.49045 32.64548 -0.01118
