429
Graphene
C 0.00518 33.99147 0.01295
C 13.53588 23.46215 0.03589
C 13.52871 22.06894 -0.02759
C 12.328 21.36694 0.0402
C 12.27727 19.91155 0.00572
C 13.45158 19.21671 0.03592
C 13.58058 17.77887 0.00406
C 12.35885 17.00821 0.00943
C 12.3586 15.67446 0.02841
C 13.31945 14.60647 -0.01111
C 13.57735 13.40619 -0.01275
C 12.29688 24.17472 -0.00033
C 12.24992 12.69022 0.00985
C 13.52822 10.66419 -0.00428
C 13.57374 9.21202 0.03101
C 12.32873 8.51752 -0.01536
C 12.27838 7.07455 -0.02689
C 13.53215 6.39414 -0.01046
C 13.47673 4.90722 -0.00891
C 12.27456 4.19363 0.02819
C 12.26511 2.77101 0.00165
C 13.51556 2.12093 -0.02971
C 13.58707 0.6614 0.02894
C 12.27458 11.32467 -0.02245
C 12.2316 25.63173 -0.01062
C 13.54071 26.32416 0.01364
C 13.45937 27.78361 -0.00719
C 11.12178 17.7237 0.00685
C 9.84012 17.02123 0.02888
C 9.82744 15.63307 -0.00482
C 11.06689 14.94654 -0.01384
C 11.03637 13.53014 0.03693
C 9.79331 12.85572 0.01745
C 9.88414 11.37966 0.00488
C 11.1158 10.66811 -0.01004
C 11.12231 9.2334 -0.02896
C 9.88968 8.60042 -0.00131
C 9.86576 7.11092 -0.01118
C 11.06332 6.41728 -0.014
C 10.96379 4.98508 0.02147
C 9.75034 4.32146 0.00373
C 9.73186 2.87543 -0.00191
C 10.99924 2.11296 0.00438
C 10.98778 0.70971 0.01291
C 9.78104 0.03368 0.00093
C 12.30544 32.72408 0.00057
C 13.51543 31.93558 -0.01634
C 13.45084 30.56532 -0.00334
C 12.19339 29.90366 0.02339
C 12.19236 28.5119 0.01641
C 12.28945 0.02491 -0.01789
C 14.75217 32.70755 0.00444
C 15.99007 31.99248 -0.00925
C 15.96808 30.64961 0.01877
C 17.18682 28.47733 0.00228
C 18.4125 27.65471 0.00798
C 18.41042 26.28276 0.00422
C 17.15108 25.55206 0.0351
C 17.16496 24.1536 -0.03113
C 18.37045 23.38326 0.02098
C 18.33163 21.881 0.01848
C 17.1734 21.09891 -0.00619
C 17.20159 19.58191 -0.02162
C 18.52952 18.99588 0.00889
C 18.77773 10.69751 -0.00481
C 18.46456 9.26691 0.00979
C 17.20214 8.62219 0.01443
C 17.22056 7.11517 0.03505
C 18.41047 6.35228 -0.02815
C 18.44605 4.97146 -0.04147
C 17.18947 4.30674 -0.05302
C 17.18507 2.84139 0.00213
C 18.42715 2.14721 -0.00066
C 18.49683 0.73328 -0.00289
C 17.30576 0.01493 0.00028
C 19.72274 32.6928 -0.02213
C 20.95937 32.09008 0.03698
C 17.19327 29.86503 -0.00114
C 11.08371 19.13628 0.00895
C 18.42824 30.57042 -0.02696
C 17.23947 32.71361 -0.0108
C 14.75499 29.8909 0.01363
C 14.69558 28.42923 -0.02162
C 15.90963 27.74696 0.00415
C 15.96468 26.34377 -0.0014
C 14.7493 25.59984 0.02162
C 14.75735 24.18513 0.0076
C 16.00268 23.39795 0.01241
C 16.04028 21.94921 -0.01454
C 14.78234 21.32549 0.01945
C 14.63379 19.90746 0.01416
C 15.86151 19.06947 0.03542
C 14.76607 11.2929 0.02299
C 15.93445 10.67432 0.00244
C 15.97665 9.23858 -0.01717
C 14.71827 8.5385 0.05265
C 14.71891 7.08942 -0.01952
C 15.93061 6.39016 -0.02813
C 15.95609 4.93132 0.00374
C 14.70563 4.21232 0.00052
C 14.71533 2.77074 -0.03682
C 15.94829 2.20488 0.01965
C 16.06336 0.75434 0.02058
C 14.81783 0.00684 -0.01957
C 18.44298 32.00382 -0.00368
C 9.87098 19.94187 0.00393
C 9.82684 21.35023 0.0288
C 11.07444 22.10219 -0.0008
C 3.65558 2.09399 0.02728
C 3.67978 0.70955 -0.00039
C 2.42883 0.04118 0.0064
C 4.8521 32.72906 0.00211
C 6.09312 32.01134 -0.00449
C 6.11408 30.5867 -0.01979
C 4.88866 29.86653 0.02784
C 4.87682 28.446 -0.01977
C 6.11412 27.73249 -0.00561
C 6.16466 26.26522 0.00208
C 4.93923 25.5977 0.01707
C 4.9358 24.16658 0.02769
C 6.17553 23.38397 -0.03291
C 6.18594 22.04158 -0.04999
C 4.9279 21.34894 0.04505
C 4.93906 19.91303 0.03284
C 6.1721 19.20446 -0.04307
C 6.17084 17.72769 0.03189
C 4.89735 17.01284 0.00031
C 4.86788 15.64338 -0.003
C 6.01733 14.88707 0.01402
C 6.07093 13.52005 0.02379
C 4.80616 12.78201 0.00907
C 2.42044 2.87858 0.00245
C 4.85147 11.37639 0.00643
C 2.43539 4.25507 0.00081
C 3.61215 6.42979 -0.01386
C 3.71294 30.48979 0.00267
C 2.44893 29.79738 0.00787
C 2.52863 28.34127 0.02426
C 3.73518 27.6848 0.01218
C 3.63263 26.28205 -0.01471
C 2.45861 25.57701 -0.02827
C 2.44487 24.08979 0.01078
C 3.66538 23.41889 -0.00112
C 3.70762 22.01364 0.03345
C 2.47433 21.28637 0.00748
C 2.45063 19.90448 0.00662
C 3.64983 19.20872 -0.0154
C 3.71172 17.77445 -0.01299
C 2.44262 17.04324 -0.00407
C 2.31638 15.66074 0.01138
C 3.53464 14.95532 0.03278
C 3.57681 13.44209 -0.00177
C 2.3838 12.76341 0.04421
C 2.4516 11.36763 0.00088
C 3.61979 10.69449 0.00828
C 3.63495 9.31269 -0.02375
C 2.44885 8.52807 0.00558
C 2.38041 7.1457 -0.0059
C 3.61832 5.06626 -0.02805
C 20.84757 30.56213 -0.00109
C 6.09335 10.77309 -0.01509
C 4.87091 8.62795 0.02374
C 7.37472 12.81795 -0.02929
C 7.38056 11.46879 -0.00966
C 8.66688 10.7379 -0.03337
C 8.61563 9.33469 0.01227
C 7.37317 8.6342 0.00873
C 7.38379 7.20287 -0.00049
C 8.5518 6.41926 0.00848
C 8.56297 5.01684 -0.01303
C 7.35948 4.35983 -0.01378
C 7.32518 2.90323 0.02635
C 8.53219 2.18246 0.0127
C 8.51163 0.73035 0.01396
C 7.38172 0.02255 0.01849
C 9.83773 32.7027 -0.01142
C 11.05034 31.99406 -0.00562
C 11.01888 30.57969 -0.00494
C 9.75933 29.91564 0.00054
C 9.78594 28.50576 0.03007
C 11.01569 27.73955 -0.00095
C 11.02991 26.35512 0.01572
C 9.78913 25.6367 -0.04848
C 9.90016 24.19168 -0.00892
C 11.0819 23.48221 -0.01362
C 8.56322 13.52607 0.03368
C 6.11358 9.35015 0.03267
C 8.59608 14.9747 -0.00077
C 7.36091 17.08563 0.0276
C 4.86637 7.13656 0.00402
C 6.12457 6.50657 0.0073
C 6.11057 5.11263 0.0174
C 4.87415 4.32063 0.03828
C 4.92779 2.87176 0.01226
C 6.13168 2.15571 -0.00279
C 6.18225 0.74085 0.01996
C 4.92927 0.0101 -0.03996
C 7.34748 32.72125 0.01465
C 8.5509 31.99654 -0.00074
C 8.5516 30.57445 -0.00518
C 7.33848 29.91521 0.0086
C 7.29399 28.44899 -0.00643
C 8.57182 27.7891 0.017
C 8.58813 26.28965 -0.03113
C 7.35831 25.58078 -0.02566
C 7.41696 24.16272 -0.00094
C 8.63003 23.52402 0.02322
C 8.6044 22.11419 -0.00725
C 7.38087 21.3143 -0.05697
C 7.42643 19.9162 0.01087
C 8.66045 19.16796 -0.01343
C 8.5695 17.77385 0.00988
C 7.40064 15.65242 0.01305
C 3.65395 31.94897 0.01913
C 19.65143 29.86686 -0.00491
C 20.82778 27.68264 -0.0258
C 29.46398 12.78994 -0.01461
C 29.44858 11.35367 -0.02155
C 30.68767 10.5908 -0.00944
C 30.73738 9.14896 -0.03735
C 29.43185 8.50649 -0.00971
C 29.45657 7.00904 0.01518
C 30.68675 6.3198 0.01908
C 30.76209 4.91059 0.07705
C 29.49482 4.17884 0.0103
C 29.54175 2.80984 0.02108
C 30.68289 13.5025 -0.01303
C 30.74131 2.00188 0.00716
C 29.51668 34.01818 0.00346
C 31.95543 32.58627 0.01713
C 33.22669 31.85787 -0.01694
C 33.20157 30.43076 0.01428
C 31.98564 29.72586 -0.02142
C 31.94951 28.31006 0.0544
C 33.15127 27.67251 0.00026
C 33.19625 26.23075 0.00682
C 31.94367 25.54472 -0.01779
C 31.92655 24.14721 0.03794
C 30.75277 0.64846 0.00307
C 30.67847 14.89357 -0.0405
C 29.45817 15.63423 0.01705
C 29.49994 17.0826 0.0101
C 27.00408 7.13726 0.02198
C 28.17951 6.3168 0.01094
C 28.29264 4.94155 0.00235
C 27.05512 4.23911 0.01495
C 27.09616 2.81531 0.01259
C 28.34376 2.10536 0.01799
C 28.32021 0.66641 0.01699
C 27.15017 34.05942 -0.00416
C 29.46556 32.62467 0.01177
C 30.75978 31.85207 0.04266
C 30.7178 30.44385 0.01324
C 29.46937 29.78461 0.0014
C 29.44399 28.3314 0.00924
C 30.6807 27.64338 0.02326
C 30.72228 26.24595 0.00261
C 29.46774 25.64384 0.03265
C 29.53755 24.14167 -0.02049
C 30.71422 23.4241 -0.01854
C 30.67122 21.9845 -0.01415
C 29.4836 21.3348 -0.03039
C 29.49771 19.94091 0.01836
C 30.7137 19.22683 0.03531
C 30.74117 17.83693 -0.00669
C 33.18234 23.46631 0.01927
C 33.18852 22.02702 0.01574
C 31.96754 21.30052 -0.02383
C 32.00481 19.93333 -0.01429
C 0.01252 24.07993 0.03076
C 1.23365 23.41214 0.00723
C 1.25131 21.99009 0.02712
C 34.39731 21.30594 -0.02213
C 0.02628 19.88711 0.01951
C 1.23271 19.16635 -0.01678
C 1.21118 17.77421 0.01223
C 34.35575 17.02599 0.00648
C 34.32545 15.63712 0.02114
C 1.0625 14.84226 -0.02957
C 1.08912 13.44676 0.00343
C 34.29766 12.7035 -0.02656
C 34.3575 11.36457 -0.02442
C 1.17927 10.63745 -0.00027
C 1.19111 9.12911 -0.00583
C 34.36348 8.45407 -0.02302
C 34.39822 7.00735 -0.02849
C 1.19729 6.37574 0.02931
C 1.2301 4.98973 0.00628
C 34.41694 4.22993 -0.0345
C 34.38347 2.87849 -0.00931
C 1.23373 2.11873 -0.00939
C 1.24495 0.66873 -0.00468
C 0.03584 25.54327 -0.05239
C 27.02434 8.50645 0.02611
C 1.25331 26.2414 -0.00598
C 0.01461 28.33446 -0.01037
C 33.21505 19.16113 -0.0136
C 33.12247 17.79498 0.00594
C 31.95564 17.05224 -0.02474
C 31.90371 15.6099 0.00369
C 33.11148 14.92827 0.00455
C 33.11395 13.52618 -0.00644
C 31.93362 12.74369 -0.01839
C 31.90759 11.27721 0.00137
C 33.16688 10.55346 0.00199
C 33.11326 9.12727 0.04381
C 31.93214 8.43215 0.02806
C 31.90642 7.01195 0.01504
C 33.1984 6.30841 -0.00069
C 33.16003 4.89116 0.04926
C 31.99202 4.15434 -0.03838
C 31.95192 2.7632 0.00349
C 33.18996 2.09917 -0.00323
C 33.1805 0.64703 -0.00841
C 31.97318 33.97657 0.0001
C 34.38668 32.53848 -0.02927
C 1.2624 31.97907 -0.01404
C 1.24478 30.44424 0.01027
C 0.01911 29.73051 0.01831
C 1.30946 27.62993 -0.00439
C 28.23676 9.18409 -0.00621
C 28.23828 10.62207 0.00194
C 27.05607 11.41096 0.04185
C 22.05898 25.53196 0.00675
C 22.05336 24.11022 -0.00311
C 23.32422 23.48686 0.00742
C 23.35893 22.02307 -0.01594
C 22.11822 21.27684 0.0106
C 22.15254 19.91395 -0.01154
C 23.34974 19.15923 -0.01721
C 23.2716 17.72564 -0.02422
C 21.96934 17.01815 0.01277
C 22.2064 15.59966 0.00096
C 23.42818 14.97474 -0.01527
C 23.36259 13.46858 0.01087
C 22.06877 12.89428 0.00199
C 21.86414 11.49385 0.01511
C 23.14782 10.71341 -0.00478
C 23.26427 9.30962 -0.01662
C 22.05748 8.55209 -0.01185
C 22.11888 7.06804 0.01126
C 23.33912 6.40886 0.01852
C 23.39384 4.96713 -0.00381
C 22.18699 4.32644 0.03046
C 22.18974 2.89671 0.0296
C 23.46119 2.09727 0.03374
C 23.24761 26.2121 -0.00865
C 23.43816 0.64735 -0.02845
C 23.29514 27.70217 0.0058
C 22.06639 29.75934 -0.04076
C 20.84231 26.25861 -0.0331
C 19.5813 25.49145 -0.00316
C 19.6621 24.03729 0.02188
C 20.92406 23.33349 -0.01979
C 20.82934 21.99432 0.02691
C 19.60113 21.28305 -0.01581
C 19.62923 19.86101 0.01452
C 20.94952 19.20273 0.04892
C 20.83589 17.83974 -0.00111
C 20.5725 10.65129 -0.03557
C 20.86707 9.28433 0.03754
C 19.66967 8.4525 0.01739
C 19.64445 7.04563 0.00755
C 20.89264 6.44366 -0.0054
C 20.89466 5.02059 0.00667
C 19.68467 4.33009 0.00143
C 19.7119 2.88157 -0.017
C 21.01114 2.16459 0.00364
C 20.9656 0.72704 -0.00831
C 19.69431 34.07103 -0.02957
C 22.1894 32.74589 -0.04422
C 23.35884 31.935 0.00654
C 23.29009 30.47778 -0.00703
C 22.06848 28.39216 -0.00652
C 19.5863 28.42528 0.03338
C 22.15687 0.00695 -0.03213
C 25.84034 31.9273 0.01153
C 25.89047 2.15313 -0.0264
C 25.92368 0.65127 -0.01154
C 24.6311 0.00589 0.00684
C 27.00593 32.58465 -0.01052
C 28.2799 31.92535 -0.01679
C 28.18392 30.4979 0.00367
C 27.02195 29.74482 0.04306
C 26.91767 28.34342 0.00996
C 28.20272 27.69719 0.00195
C 28.2161 26.2472 -0.00802
C 27.00015 25.50902 -0.00218
C 27.01834 24.06418 -0.01654
C 28.26645 23.46894 -0.00037
C 28.31977 22.05792 -0.0032
C 27.07682 21.31804 0.00622
C 27.02393 19.90378 -0.02815
C 28.28466 19.2407 -0.00942
C 28.25586 17.79956 0.00487
C 27.08745 17.03823 0.00826
C 27.03978 15.64185 -0.00294
C 28.26125 14.87941 0.00152
C 28.26991 13.56055 0.01257
C 27.06291 12.80945 0.02316
C 24.66274 2.82279 -0.00938
C 24.56221 32.6469 0.02239
C 24.68162 4.34447 -0.00229
C 25.82387 6.39652 -0.009
C 25.78187 30.52263 0.02734
C 24.59705 29.79928 -0.0055
C 24.50516 28.42174 0.01515
C 25.71827 27.70466 -0.00225
C 25.76657 26.26167 0.00071
C 24.56489 25.58127 -0.01107
C 24.5653 24.16931 -0.01586
C 25.7753 23.48841 -0.01971
C 25.86113 22.05113 -0.02118
C 24.63718 21.4203 0.00733
C 24.63371 19.88256 -0.00178
C 25.81593 19.12321 0.00768
C 25.76911 17.79476 -0.0276
C 24.54433 17.09151 0.03005
C 24.66354 15.62078 -0.04078
C 25.87409 14.87524 0.02117
C 25.82428 13.47155 0.02737
C 24.58322 12.78644 -0.00498
C 24.49571 11.40788 0.00135
C 25.79888 10.68826 0.03102
C 25.8318 9.28349 0.02555
C 24.53129 8.5779 0.01423
C 24.56087 7.11555 -0.00285
C 25.84762 4.98408 -0.01199
C 2.45748 32.66019 -0.03672
