375
Graphene
C 0.0076 0.03212 0.01295
C 9.91198 7.07511 0.02299
C 11.05134 6.44102 0.00244
C 11.06557 5.00718 -0.01717
C 9.86969 4.22904 0.05265
C 9.87434 2.86279 -0.01952
C 11.08271 2.13409 -0.02813
C 11.01524 0.66484 0.00374
C 9.78507 34.06645 0.00052
C 12.28455 32.56027 -0.03682
C 13.53657 31.92634 0.01965
C 13.57466 30.54222 0.02058
C 12.32499 29.78568 -0.01957
C 12.33696 28.38629 -0.0108
C 13.5827 27.66723 -0.00368
C 13.50165 26.31709 -0.02696
C 12.31003 25.52071 -0.00114
C 12.29159 24.09744 0.00228
C 13.4565 13.43388 0.00798
C 12.33806 12.728 0.00422
C 9.7853 8.49589 0.03542
C 11.02956 9.27868 0.01416
C 11.06818 10.6208 0.01945
C 9.81019 11.38953 -0.01454
C 9.76247 32.71059 0.03101
C 11.07716 31.97605 -0.01536
C 11.09491 30.5502 -0.02689
C 9.87214 29.84943 -0.01046
C 9.88808 28.4118 -0.00891
C 11.0778 27.70011 0.02819
C 11.08496 26.26789 0.00165
C 9.86429 25.60472 -0.02971
C 9.84093 24.22857 0.02894
C 12.27789 11.34523 0.0351
C 11.06107 23.49941 -0.01789
C 9.86298 21.24999 -0.00925
C 9.87577 19.8695 0.01877
C 11.10438 19.14056 0.01363
C 11.1428 17.77223 -0.02162
C 9.80783 16.99802 0.00415
C 9.85039 15.65201 -0.0014
C 11.0867 14.8693 0.02162
C 11.00166 13.47672 0.0076
C 9.83737 12.76134 0.01241
C 11.12723 22.01579 0.00444
C 7.35854 0.0411 -0.00428
C 13.54474 10.64731 -0.03113
C 12.25953 8.59621 0.01848
C 14.75035 2.88207 0.02691
C 15.96722 2.07051 -0.01581
C 15.99333 0.6716 0.01452
C 14.76653 0.03796 0.04892
C 17.22745 32.63769 -0.00111
C 18.41113 31.94501 -0.03557
C 18.4475 30.55236 0.03754
C 17.24099 29.79087 0.01739
C 17.26666 28.45829 0.00755
C 18.46196 27.63206 -0.0054
C 18.4549 26.28637 0.00667
C 18.47225 10.61538 0.00143
C 18.48783 9.19627 -0.017
C 17.17208 8.53942 0.00364
C 17.20303 7.10019 -0.00831
C 18.45597 6.34872 -0.02957
C 18.4715 4.94617 -0.04422
C 17.19426 4.31416 0.00654
C 17.16574 2.8181 -0.00703
C 14.7346 4.27736 -0.01979
C 15.92425 5.02791 0.02188
C 15.95347 6.44272 -0.00316
C 14.72814 7.11325 -0.0331
C 12.33079 7.08276 -0.00619
C 13.53558 6.39699 -0.02162
C 13.53047 5.00163 0.00889
C 12.28946 4.30377 -0.00481
C 12.32407 2.8561 0.00979
C 13.53683 2.15279 0.01443
C 13.52424 0.66122 0.03505
C 12.26521 34.04152 -0.02815
C 14.75816 32.67077 -0.04147
C 13.56477 9.24314 0.02098
C 15.96288 31.96209 -0.05302
C 14.7277 29.81868 -0.00066
C 14.72577 28.41378 -0.00289
C 16.01619 27.67214 0.00028
C 15.91467 26.2552 -0.02213
C 14.78875 25.62224 0.03698
C 14.81967 11.27769 -0.00109
C 15.92635 10.62113 -0.00491
C 15.96725 9.17281 0.03338
C 14.72022 8.49595 -0.0258
C 15.99105 30.50221 0.00213
C 18.40742 2.10276 -0.04076
C 8.61835 0.7039 -0.02245
C 7.42968 2.87099 -0.01275
C 3.65222 5.03612 0.01305
C 2.47443 4.23956 -0.00077
C 2.45223 2.86038 0.03368
C 3.6882 2.13794 -0.02929
C 3.68436 0.76025 -0.00966
C 2.46299 34.01399 -0.03337
C 4.90197 32.69243 0.01227
C 6.13596 31.99324 0.00873
C 6.12037 30.53568 -0.00049
C 4.92804 29.82189 0.00848
C 4.92711 28.45206 -0.01303
C 6.17844 27.66793 -0.01378
C 6.17837 26.29881 0.02635
C 4.94685 25.58541 0.0127
C 4.92349 24.15125 0.01396
C 6.10079 23.51133 0.01849
C 6.1768 22.0499 -0.01142
C 4.91006 21.2608 -0.00562
C 4.91542 19.85057 -0.00494
C 3.64164 6.44215 0.0276
C 2.4736 7.05862 0.00988
C 2.50889 8.53516 -0.01343
C 3.66792 9.23834 0.01087
C 3.78199 30.51544 0.00402
C 2.48195 29.81677 0.0073
C 2.39207 28.37896 0.0174
C 3.65775 27.77055 0.03828
C 3.6958 26.2745 0.01226
C 2.47156 25.55748 -0.00279
C 2.44652 24.16955 0.01996
C 3.73709 23.41924 -0.03996
C 3.66012 21.96793 0.01465
C 6.2171 19.14542 0.00054
C 2.36723 21.2525 -0.00074
C 3.68885 19.23502 0.0086
C 3.65287 17.79192 -0.00643
C 2.43769 17.06858 0.017
C 2.49993 15.65515 -0.03113
C 3.68718 14.83937 -0.02566
C 3.71346 13.49996 -0.00094
C 2.47482 12.80902 0.02322
C 2.46034 11.37838 -0.00725
C 3.67678 10.66205 -0.05697
C 2.43608 19.83523 -0.00518
C 8.59877 2.11874 0.00985
C 6.19472 17.73427 0.03007
C 4.90578 15.59052 0.01572
C 8.62203 23.46446 0.00093
C 8.6248 22.06968 0.00057
C 7.35136 21.32225 -0.01634
C 7.44825 19.88401 -0.00334
C 8.67753 19.1793 0.02339
C 8.63845 17.80981 0.01641
C 7.36458 16.95486 -0.00719
C 7.3557 15.6113 0.01364
C 8.57594 14.94888 -0.01062
C 8.55152 13.44607 -0.00033
C 7.36891 12.77032 0.03589
C 7.36168 11.37678 -0.02759
C 8.59273 10.67723 0.0402
C 8.62058 9.17403 0.00572
C 7.3433 8.56664 0.03592
C 7.35988 7.13393 0.00406
C 8.63367 6.41 0.00943
C 8.591 4.96661 0.02841
C 7.37739 4.27126 -0.01111
C 7.40452 24.18561 0.01291
C 7.39921 25.56905 0.00438
C 8.58548 26.33161 -0.00191
C 8.6587 27.70149 0.00373
C 6.13383 14.94975 -0.04848
C 6.14628 13.5154 -0.00892
C 4.93691 12.83566 -0.01362
C 4.86807 11.45674 -0.0008
C 6.12521 10.69825 0.0288
C 6.1585 9.27084 0.00393
C 4.86523 8.53542 0.00895
C 4.92328 7.1511 0.00685
C 6.16184 6.37423 0.02888
C 4.93261 17.01365 -0.00095
C 6.11585 4.9957 -0.00482
C 4.89904 2.86906 0.03693
C 6.16215 2.13658 0.01745
C 6.06929 0.71461 0.00488
C 4.85027 0.0439 -0.01004
C 7.37513 32.66771 -0.02896
C 8.62465 31.94945 -0.00131
C 8.57598 30.56965 -0.01118
C 7.34101 29.84353 -0.014
C 7.42507 28.4634 0.02147
C 4.91652 4.21321 -0.01384
C 3.70415 31.97164 0.02374
C 18.41869 0.70542 -0.00652
C 19.67572 32.65094 -0.00865
C 30.72332 2.15708 0.00716
C 30.66527 0.70067 0.00307
C 29.46481 34.06628 0.00346
C 31.93334 32.60541 0.01713
C 33.20695 31.99365 -0.01694
C 33.16168 30.52944 0.01428
C 31.98996 29.84662 -0.02142
C 31.99209 28.36606 0.0544
C 33.20587 27.70082 0.00026
C 33.18807 26.30091 0.00682
C 32.00111 25.55779 -0.01779
C 32.00613 24.19193 0.03794
C 33.19773 23.40737 0.01927
C 33.198 22.00673 0.01574
C 31.97453 21.30872 -0.02383
C 31.92137 19.93874 -0.01429
C 33.241 19.17533 -0.0136
C 33.20588 17.71822 0.00594
C 32.02643 17.00753 -0.02474
C 29.50894 2.86965 0.02108
C 29.50269 4.28259 0.0103
C 30.76529 4.97911 0.07705
C 30.73231 6.38809 0.01908
C 30.75697 27.65668 0.02326
C 30.71151 26.28223 0.00261
C 29.54385 25.57557 0.03265
C 29.52917 24.03653 -0.02049
C 30.78655 23.40846 -0.01854
C 30.76867 22.04265 -0.01415
C 29.51577 21.35519 -0.03039
C 29.52714 19.82629 0.01836
C 30.69417 19.16965 0.03531
C 32.04002 15.55812 0.00369
C 30.7164 17.69114 -0.00669
C 29.48666 15.63803 0.01705
C 30.74006 14.89333 -0.0405
C 30.70727 13.52503 -0.01303
C 29.49135 12.79597 -0.01461
C 29.53743 11.30841 -0.02155
C 30.78154 10.63612 -0.00944
C 30.74707 9.26965 -0.03735
C 29.56627 8.50787 -0.00971
C 29.52094 7.03633 0.01518
C 29.51497 17.03299 0.0101
C 29.56325 28.36274 0.00924
C 33.1914 14.87958 0.00455
C 31.97221 12.76865 -0.01839
C 34.42942 19.89864 0.01951
C 1.22312 19.18958 -0.01678
C 1.23811 17.81171 0.01223
C 34.41847 17.02848 0.00648
C 0.02847 15.6575 0.02114
C 1.19733 14.93757 -0.02957
C 1.23311 13.49817 0.00343
C 34.43153 12.76155 -0.02656
C 0.02882 11.40148 -0.02442
C 1.25437 10.66158 -0.00027
C 1.20713 9.18939 -0.00583
C 34.41769 8.55242 -0.02302
C 34.42713 7.1164 -0.02849
C 1.24119 6.42475 0.02931
C 1.17788 4.88099 0.00628
C 34.39378 4.21378 -0.0345
C 34.43249 2.81906 -0.00931
C 1.3094 2.13729 -0.00939
C 1.19597 0.67522 -0.00468
C 34.37714 21.31059 -0.02213
C 1.1959 21.98456 0.02712
C 1.20124 23.44301 0.00723
C 34.41377 24.10013 0.03076
C 31.9686 11.40376 0.00137
C 33.19409 10.69075 0.00199
C 33.1888 9.23648 0.04381
C 31.97629 8.50781 0.02806
C 31.91851 7.08801 0.01504
C 33.14026 6.41135 -0.00069
C 33.20727 4.99151 0.04926
C 32.01272 4.22863 -0.03838
C 31.984 2.84162 0.00349
C 33.18388 13.50786 -0.00644
C 33.20584 2.14744 -0.00323
C 31.95683 0.05295 0.0001
C 34.40758 32.67985 -0.02927
C 1.20083 31.95295 -0.01404
C 1.23631 30.56479 0.01027
C 0.01027 29.82372 0.01831
C 0.02169 28.41378 -0.01037
C 1.20441 27.6478 -0.00439
C 1.20767 26.26258 -0.00598
C 34.40857 25.59025 -0.05239
C 33.18601 0.76802 -0.00841
C 17.23234 34.02863 0.0058
C 29.52098 29.78405 0.0014
C 30.69316 31.92634 0.04266
C 22.0923 11.34176 -0.03213
C 23.40216 10.69327 0.02239
C 23.31203 9.17073 0.01153
C 22.07732 8.50566 0.02734
C 22.13476 7.09494 -0.0055
C 23.3442 6.3499 0.01515
C 23.32822 4.99543 -0.00225
C 22.16041 4.23198 0.00071
C 22.1482 2.82429 -0.01107
C 23.39825 2.14295 -0.01586
C 23.33701 0.70114 -0.01971
C 22.14411 34.02275 -0.02118
C 24.5607 32.63353 0.00733
C 25.78862 31.92116 -0.00178
C 25.81581 30.52873 0.00768
C 24.62987 29.81187 -0.0276
C 24.57274 28.44308 0.03005
C 25.72574 27.68471 -0.04078
C 25.74869 26.2526 0.02117
C 23.39913 26.18137 -0.02845
C 23.32182 27.67676 0.03374
C 22.18651 28.38954 0.0296
C 22.16474 29.79917 0.03046
C 20.8327 31.95966 0.00675
C 20.84734 30.48004 -0.00311
C 19.69256 29.79392 0.00742
C 19.70217 28.35002 -0.01594
C 20.9641 27.61771 0.0106
C 20.94511 26.24269 -0.01154
C 20.96462 10.65279 -0.01721
C 20.85974 9.24068 -0.02422
C 19.69512 8.43594 0.01277
C 24.52691 25.56184 0.02737
C 19.64651 7.10699 0.00096
C 20.95228 4.90709 0.01087
C 19.75383 4.20644 0.00199
C 19.64348 2.79474 0.01511
C 20.89986 2.11523 -0.00478
C 20.9073 0.70878 -0.01662
C 19.66854 34.05328 -0.01185
C 22.18634 32.65481 0.01126
C 23.33278 31.91592 0.01852
C 23.37328 30.5314 -0.00381
C 20.93331 6.37426 -0.01527
C 30.79409 30.53557 0.01324
C 25.85185 13.54063 -0.00498
C 24.59998 11.40625 0.03102
C 28.29196 17.66646 0.00487
C 27.02855 16.99918 0.00826
C 27.07441 15.68498 -0.00294
C 28.25069 14.95937 0.00152
C 28.26295 13.49261 0.01257
C 27.04787 12.79677 0.02316
C 27.02058 11.37052 0.04185
C 28.28842 10.64219 0.00194
C 28.32267 9.25382 -0.00621
C 27.04605 8.5914 0.02611
C 27.05715 7.06333 0.02198
C 28.32078 6.43327 0.01094
C 28.31965 4.9729 0.00235
C 27.08863 4.23878 0.01495
C 27.00398 2.81706 0.01259
C 28.31449 2.14914 0.01799
C 28.27169 0.68486 0.01699
C 27.17476 0.01988 -0.00416
C 29.46716 32.68622 0.01177
C 28.28578 19.15054 -0.00942
C 27.08162 19.83976 -0.02815
C 28.197 21.9997 0.00622
C 28.20881 23.4355 -0.0032
C 25.77579 10.63381 0.02555
C 25.79653 9.22636 0.01423
C 24.6275 8.46931 -0.00285
C 24.51791 7.0525 -0.009
C 25.82747 6.38476 -0.01199
C 25.77889 4.99509 -0.00229
C 24.56466 4.25177 -0.00938
C 24.56192 2.87809 -0.0264
C 25.82363 2.14346 -0.01154
C 24.64482 12.80559 0.00135
C 25.80696 0.72156 0.00684
C 27.07961 32.57115 -0.01679
C 28.30538 31.94717 0.00367
C 28.29163 30.51515 0.04306
C 27.04891 29.82382 0.00996
C 27.12884 28.47267 0.00195
C 28.29842 27.70892 -0.00802
C 28.2518 26.23023 -0.00218
C 27.0324 25.53451 -0.01654
C 27.04981 24.179 -0.00037
C 24.54068 0.00308 -0.01052
C 2.46614 32.6271 0.03267
