323
Graphene
C 0.04539 0.02407 0.01295
C 9.72459 25.60544 -0.00289
C 9.80194 24.13724 0.00028
C 10.97651 23.45446 -0.02213
C 11.10941 22.08175 0.03698
C 9.89434 21.31303 -0.00109
C 9.89092 19.87792 -0.00491
C 11.10133 19.05424 0.03338
C 11.06581 26.26641 -0.00066
C 11.04031 17.66553 -0.0258
C 9.97309 15.46146 -0.00316
C 11.34692 14.8013 0.02188
C 11.07711 13.48175 -0.01979
C 9.84973 12.86192 0.02691
C 9.83351 4.34699 -0.01581
C 10.02244 2.87882 0.01452
C 11.03216 2.06148 0.04892
C 9.7809 16.92411 -0.0331
C 11.15052 0.70848 -0.00111
C 11.06359 27.67304 0.00213
C 9.84504 29.71319 -0.04147
C 7.31855 12.77339 -0.00114
C 7.30869 11.4714 0.00228
C 8.54622 10.77798 0.00798
C 8.3283 9.46849 0.00422
C 7.3586 8.56729 0.0351
C 7.43644 7.16902 -0.03113
C 8.59064 6.47194 0.02098
C 9.8233 28.26933 -0.05302
C 8.80089 5.10978 0.01848
C 7.41517 2.9047 -0.02162
C 8.65733 2.20504 0.00889
C 8.63879 0.7428 -0.00481
C 7.39624 0.09644 0.00979
C 9.8662 32.61248 0.01443
C 11.02458 31.91058 0.03505
C 10.99811 30.42644 -0.02815
C 7.41561 4.29675 -0.00619
C 9.75063 0.02206 -0.03557
C 12.29451 32.63585 0.03754
C 13.53847 31.90638 0.01739
C 14.74083 28.41654 -0.01721
C 16.02784 27.72656 -0.02422
C 15.97922 26.32335 0.01277
C 14.71113 25.59422 0.00096
C 14.72404 24.19625 -0.01527
C 15.95165 23.53474 0.01087
C 15.89586 22.05357 0.00199
C 14.72834 29.79054 -0.01154
C 14.7065 21.35773 0.01511
C 16.02227 19.14137 -0.01662
C 15.98078 17.53889 -0.01185
C 14.71969 17.06008 0.01126
C 14.66117 33.9795 0.01852
C 17.24642 32.79347 -0.00381
C 18.48552 32.08064 0.03046
C 18.42301 30.55761 0.0296
C 14.77659 19.85879 -0.00478
C 15.96384 30.54465 0.0106
C 16.00791 31.96784 -0.01594
C 14.75902 32.67872 0.00742
C 13.51051 30.51364 0.00755
C 12.27759 29.72235 -0.0054
C 12.31083 28.34226 0.00667
C 13.55185 27.65711 0.00143
C 13.54564 26.20349 -0.017
C 12.28788 25.57223 0.00364
C 12.20767 24.17591 -0.00831
C 13.49206 23.46387 -0.02957
C 13.48216 22.01332 -0.04422
C 12.31088 21.23137 0.00654
C 12.26591 19.83056 -0.00703
C 13.53748 19.13347 -0.04076
C 13.53313 17.7301 -0.00652
C 12.32616 17.03603 0.0058
C 12.42691 15.71008 -0.00865
C 13.50013 0.56713 0.00675
C 12.2884 34.0429 -0.00311
C 8.61375 13.44231 -0.02696
C 17.23577 29.89053 0.03374
C 8.60399 14.78121 -0.00368
C 7.42924 16.99979 -0.01957
C 3.66653 9.11491 0.00057
C 2.38755 8.5085 -0.01634
C 2.36413 7.14821 -0.00334
C 3.64468 6.39811 0.02339
C 3.73965 4.95779 0.01641
C 2.46922 4.28276 -0.00719
C 2.48982 2.85332 0.01364
C 3.66868 10.5926 0.00093
C 3.69816 2.11644 -0.01062
C 2.44596 0.00373 0.03589
C 4.9642 32.69086 -0.02759
C 6.15351 31.98076 0.0402
C 6.15113 30.50882 0.00572
C 4.92524 29.83097 0.03592
C 4.88934 28.49889 0.00406
C 6.12941 27.70031 0.00943
C 3.67225 0.67847 -0.00033
C 6.11585 26.26509 0.02841
C 2.44468 11.31327 0.01291
C 3.63241 13.40765 -0.00191
C 3.63636 30.51483 0.00393
C 2.42435 29.77788 0.00895
C 2.45509 28.37958 0.00685
C 3.69719 27.69063 0.02888
C 3.72379 26.37497 -0.00482
C 2.46601 25.61723 -0.01384
C 2.38945 24.23628 0.03693
C 2.44437 12.67515 0.00438
C 3.63075 23.4407 0.01745
C 2.47964 21.32636 -0.01004
C 2.40637 19.91843 -0.02896
C 3.65666 19.22175 -0.00131
C 3.719 17.75926 -0.01118
C 2.47434 17.07703 -0.014
C 2.46794 15.5869 0.02147
C 3.68374 14.83293 0.00373
C 3.66866 22.09557 0.00488
C 4.90415 25.58511 -0.01111
C 4.86495 24.21279 -0.01275
C 6.09358 23.45979 0.00985
C 4.90008 0.01545 0.01241
C 7.36632 32.75506 -0.01454
C 8.63691 31.93914 0.01945
C 8.57941 30.50255 0.01416
C 7.42371 29.82719 0.03542
C 7.31198 28.40961 0.02299
C 8.62566 27.65349 0.00244
C 6.13347 0.70918 0.0076
C 8.55407 26.20346 -0.01717
C 7.35448 24.16118 -0.01952
C 8.55377 23.40631 -0.02813
C 8.69389 22.09965 0.00374
C 7.3972 21.3816 0.00052
C 7.39309 19.92928 -0.03682
C 8.63469 19.18219 0.01965
C 8.61402 17.75444 0.02058
C 7.34033 25.59598 0.05265
C 6.155 2.19898 0.02162
C 4.87848 2.83614 -0.0014
C 4.98622 4.30483 0.00415
C 6.20015 22.11602 -0.02245
C 4.98578 21.30806 -0.00428
C 4.95535 19.92269 0.03101
C 6.1465 19.24157 -0.01536
C 6.15422 17.77403 -0.02689
C 4.89266 17.01315 -0.01046
C 4.90036 15.67767 -0.00891
C 6.09183 14.87056 0.02819
C 6.05573 13.42158 0.00165
C 4.84395 12.74442 -0.02971
C 4.8504 11.29728 0.02894
C 6.13112 10.6527 -0.01789
C 6.14735 9.23328 0.00444
C 4.88513 8.55758 -0.00925
C 4.88107 7.06309 0.01877
C 6.15152 6.43849 0.01363
C 6.19664 5.02646 -0.02162
C 7.37884 15.55063 -0.0108
C 3.67917 31.9542 0.0288
C 17.15343 28.4409 -0.02845
C 18.36229 26.29209 0.02239
C 33.24273 26.31534 0.00682
C 31.96829 25.67077 -0.01779
C 31.97372 24.19159 0.03794
C 33.22907 23.51381 0.01927
C 33.15445 22.08681 0.01574
C 31.91227 21.3899 -0.02383
C 31.85726 20.01306 -0.01429
C 33.23084 27.73386 0.00026
C 33.08259 19.25758 -0.0136
C 31.85418 16.93284 -0.02474
C 32.04687 15.65763 0.00369
C 33.19141 14.94572 0.00455
C 33.14617 13.47913 -0.00644
C 31.97405 12.81827 -0.01839
C 32.04956 11.50563 0.00137
C 33.11271 10.61964 0.00199
C 33.1582 17.80066 0.00594
C 33.18344 9.20637 0.04381
C 31.99085 28.47709 0.0544
C 33.15392 30.5627 0.01428
C 30.81222 26.34025 -0.01303
C 29.52838 25.53937 -0.01461
C 29.52544 24.22413 -0.02155
C 30.77437 23.4678 -0.00944
C 30.67469 22.11221 -0.03735
C 29.41704 21.36305 -0.00971
C 29.42615 19.98494 0.01518
C 31.96461 29.87399 -0.02142
C 30.52119 19.15606 0.01908
C 30.70416 9.05695 0.0103
C 29.41126 8.78801 0.02108
C 30.54599 2.14716 0.00716
C 30.72285 0.70728 0.00307
C 29.53572 34.06147 0.00346
C 31.98959 32.68288 0.01713
C 33.22975 32.00843 -0.01694
C 30.87728 17.89166 0.07705
C 31.92324 8.44034 0.02806
C 32.01609 7.13335 0.01504
C 33.13195 6.34524 -0.00069
C 34.39572 17.14594 0.00648
C 0.06974 15.64673 0.02114
C 1.23322 14.92998 -0.02957
C 1.24075 13.5029 0.00343
C 34.35313 12.80857 -0.02656
C 34.3571 11.32042 -0.02442
C 1.17952 10.60148 -0.00027
C 1.24024 17.72216 0.01223
C 1.15836 9.23139 -0.00583
C 34.38006 7.06497 -0.02849
C 1.18475 6.38263 0.02931
C 1.23129 4.95166 0.00628
C 0.01613 4.28466 -0.0345
C 34.37046 2.82106 -0.00931
C 1.2391 2.1278 -0.00939
C 1.27598 0.70704 -0.00468
C 34.39733 8.50071 -0.02302
C 1.23225 19.10406 -0.01678
C 34.30482 19.86977 0.01951
C 0.00171 21.32533 -0.02213
C 33.18495 4.92338 0.04926
C 31.9531 4.29467 -0.03838
C 31.72657 2.86199 0.00349
C 33.12407 2.10738 -0.00323
C 33.19395 0.75481 -0.00841
C 31.94925 0.02662 0.0001
C 0.07064 32.67438 -0.02927
C 1.20143 31.91111 -0.01404
C 1.17794 30.54891 0.01027
C 34.34529 29.82323 0.01831
C 0.00168 28.43754 -0.01037
C 1.27262 27.67712 -0.00439
C 1.21101 26.30875 -0.00598
C 34.41567 25.6125 -0.05239
C 34.4327 24.22799 0.03076
C 1.16678 23.46079 0.00723
C 1.24002 22.05295 0.02712
C 30.75086 27.7199 -0.0405
C 18.40851 27.70294 -0.03213
C 29.52421 28.4112 0.01705
C 30.68732 30.5763 -0.00669
C 20.89844 21.98847 0.03102
C 19.72268 21.27136 0.02555
C 19.69404 19.94728 0.01423
C 20.83759 0.71723 -0.00285
C 19.71253 34.06209 -0.009
C 22.11869 32.70004 -0.01199
C 23.39208 31.96388 -0.00229
C 20.89221 23.436 0.00135
C 23.30515 30.48413 -0.00938
C 22.05898 28.43037 -0.01154
C 23.35057 27.63356 0.00684
C 23.3316 26.16195 -0.01052
C 22.01667 25.55672 -0.01679
C 22.10189 24.08007 0.00367
C 23.34453 23.4575 0.04306
C 23.3222 21.90821 0.00996
C 22.04899 29.77807 -0.0264
C 22.10558 21.34985 0.00195
C 19.64348 24.142 -0.00498
C 20.85578 26.34569 0.02117
C 17.23263 25.55374 0.01153
C 17.27608 24.16165 0.02734
C 18.4317 23.41439 -0.0055
C 18.46724 21.9624 0.01515
C 17.16763 21.34787 -0.00225
C 17.19357 19.92102 0.00071
C 18.47868 19.16358 -0.01107
C 19.59345 25.54851 0.02737
C 18.26151 17.91774 -0.01586
C 17.21434 0.05781 -0.02118
C 19.7017 32.72438 0.00733
C 20.92314 32.01429 -0.00178
C 20.91952 30.58338 0.00768
C 19.67772 29.85797 -0.0276
C 19.63337 28.41922 0.03005
C 20.89875 27.72982 -0.04078
C 17.20016 16.99641 -0.01971
C 23.32811 2.05291 -0.00802
C 23.37528 0.6721 -0.00218
C 22.03536 0.07818 -0.01654
C 28.17254 30.48075 0.01699
C 26.96635 29.80696 -0.00416
C 27.04144 28.33908 0.01177
C 28.27001 27.67029 0.04266
C 28.31244 26.27389 0.01324
C 27.11369 25.47252 0.0014
C 27.05107 24.10171 0.00924
C 28.26795 31.92093 0.01799
C 28.28171 23.41731 0.02326
C 27.09273 21.24679 0.03265
C 27.11492 2.65944 -0.02049
C 28.30214 1.975 -0.01854
C 28.31734 0.61046 -0.01415
C 26.97947 34.02639 -0.03039
C 29.49006 32.66124 0.01836
C 30.76858 31.93093 0.03531
C 28.2538 22.02147 0.00261
C 27.0647 32.61264 0.01259
C 24.54371 34.04621 0.01495
C 25.76886 0.66587 0.00235
C 24.56504 32.58548 -0.00037
C 25.77131 31.85477 -0.0032
C 25.72082 30.42757 0.00622
C 24.48803 29.74809 -0.02815
C 24.52763 28.28534 -0.00942
C 25.8054 27.59836 0.00487
C 25.80239 26.20971 0.00826
C 24.57193 25.50831 -0.00294
C 24.59117 24.03564 0.00152
C 25.87331 23.27292 0.01257
C 25.74187 21.74496 0.02316
C 24.52518 21.3098 0.04185
C 25.78798 6.25256 0.00194
C 25.85674 5.01702 -0.00621
C 25.04631 4.02795 0.02611
C 24.47511 2.86596 0.02198
C 25.85354 2.12258 0.01094
C 29.46684 29.81194 0.0101
C 2.45328 32.66089 -0.0008
