300
Graphene
C 34.35877 0.07089 0.01295
C 9.633 0.15338 -0.00111
C 12.43763 32.90242 -0.03557
C 13.53647 31.87719 0.03754
C 13.51928 30.53821 0.01739
C 12.32881 29.82774 0.00755
C 12.30716 28.47444 -0.0054
C 9.47868 15.61778 0.04892
C 13.53917 27.70308 0.00667
C 12.35754 25.57405 -0.017
C 12.42192 24.1682 0.00364
C 12.57675 0.14135 -0.00831
C 14.73709 32.64737 -0.02957
C 16.01655 31.93735 -0.04422
C 15.97987 30.54521 0.00654
C 13.48249 26.38028 0.00143
C 9.95562 16.78109 0.01452
C 9.88028 19.64135 -0.01581
C 9.88895 21.10043 0.02691
C 8.58225 14.69616 -0.05302
C 7.49819 2.42974 0.00213
C 8.47234 0.88169 -0.00066
C 7.25407 0.02505 -0.00289
C 9.88998 32.88183 0.00028
C 11.15232 32.14609 -0.02213
C 11.15982 30.71248 0.03698
C 9.86163 29.97079 -0.00109
C 9.88669 28.48928 -0.00491
C 11.154 27.75943 0.03338
C 11.09079 26.2854 -0.0258
C 9.91248 25.60368 -0.0331
C 9.87704 24.16877 -0.00316
C 11.18971 23.55298 0.02188
C 10.85739 22.17195 -0.01979
C 14.78131 29.88222 -0.00703
C 14.7557 28.38295 -0.04076
C 15.99131 27.72873 -0.00652
C 16.11953 26.282 0.0058
C 20.9378 26.27103 0.01852
C 20.60479 8.64321 -0.00381
C 20.88121 6.14693 0.03046
C 20.86079 4.95052 0.0296
C 19.64091 2.91183 0.03374
C 20.89132 2.1227 -0.02845
C 20.89654 0.74782 -0.03213
C 19.61562 0.0132 0.02239
C 22.02697 32.70316 0.01153
C 23.28981 31.95895 0.02734
C 23.34436 30.45569 -0.0055
C 22.11781 29.80116 0.01515
C 22.13811 28.4258 -0.00225
C 23.38811 27.67382 0.00071
C 23.50173 26.02476 -0.01107
C 20.89419 27.64468 0.01126
C 7.28712 15.52882 -0.04147
C 19.6158 28.28378 -0.01185
C 20.87818 30.50165 -0.00478
C 14.98164 25.67487 -0.00865
C 15.84971 0.61017 0.00675
C 14.64766 34.0777 -0.00311
C 17.19458 32.6616 0.00742
C 18.37639 32.0062 -0.01594
C 18.40649 30.55998 0.0106
C 17.23608 29.83897 -0.01154
C 17.23174 28.4945 -0.01721
C 18.28006 27.47877 -0.02422
C 17.91414 26.11077 0.01277
C 18.55353 2.1508 0.00096
C 18.30307 0.79709 -0.01527
C 17.1305 0.04735 0.01087
C 19.59786 32.71791 0.00199
C 20.94128 31.97477 0.01511
C 19.63725 29.79191 -0.01662
C 22.15391 25.56141 -0.01586
C 7.35885 17.00451 -0.02815
C 8.623 19.14098 0.01443
C 3.64243 10.75131 0.03101
C 3.76535 9.35422 -0.01536
C 2.49523 8.61311 -0.02689
C 2.45269 7.14385 -0.01046
C 3.71162 6.40693 -0.00891
C 3.74013 4.95673 0.02819
C 2.39582 11.40121 -0.00428
C 2.40352 4.29185 0.00165
C 3.60358 2.10802 0.02894
C 3.67047 0.681 -0.01789
C 2.41353 0.08252 0.00444
C 4.81635 32.64265 -0.00925
C 6.08144 31.99802 0.01877
C 6.06991 30.5991 0.01363
C 2.42587 2.87108 -0.02971
C 2.54255 12.77403 -0.02245
C 3.76672 13.44954 0.00985
C 3.71446 14.87084 -0.01275
C 3.69245 30.49688 0.02339
C 2.45439 29.84932 0.01641
C 2.39799 28.42396 -0.00719
C 3.67008 27.7017 0.01364
C 3.62549 26.30846 -0.01062
C 2.39738 25.62703 -0.00033
C 2.42255 24.16041 0.03589
C 3.67319 23.4273 -0.02759
C 3.68891 21.99576 0.0402
C 2.47409 21.35403 0.00572
C 2.45401 19.90857 0.03592
C 3.67296 19.12587 0.00406
C 3.68763 17.71829 0.00943
C 2.44705 16.9943 0.02841
C 2.43144 15.6196 -0.01111
C 4.91441 29.8433 -0.02162
C 4.94758 28.39041 0.00415
C 6.19964 27.74792 -0.0014
C 6.20239 26.28316 0.02162
C 5.9465 0.6938 -0.00368
C 4.83115 34.06049 -0.02696
C 7.37924 32.74194 -0.00114
C 8.66642 32.09857 0.00228
C 8.60421 30.66055 0.00798
C 7.38692 29.86329 0.00422
C 7.45103 28.4747 0.0351
C 8.67319 27.7608 -0.03113
C 8.64952 26.29093 0.02098
C 7.4411 25.56688 0.01848
C 7.35063 24.139 -0.00619
C 8.61219 23.43147 -0.02162
C 8.69598 22.00961 0.00889
C 7.42383 21.32082 -0.00481
C 7.47205 19.92237 0.00979
C 6.15557 2.07085 -0.0108
C 8.56698 17.69302 0.03505
C 4.90604 2.78568 -0.01957
C 4.75802 7.16402 0.01965
C 4.84985 25.57493 0.0076
C 4.92519 24.11067 0.01241
C 6.15475 23.43207 -0.01454
C 6.17543 22.01696 0.01945
C 4.96815 21.26064 0.01416
C 4.97393 19.8237 0.03542
C 6.18405 19.11247 0.02299
C 6.18113 17.76978 0.00244
C 4.94888 17.07988 -0.01717
C 4.89976 15.7068 0.05265
C 6.09236 14.93705 -0.01952
C 6.1304 13.56697 -0.02813
C 5.01576 12.76443 0.00374
C 4.88177 11.37832 0.00052
C 4.79116 8.52774 -0.03682
C 4.9071 4.1823 0.02058
C 23.28416 9.24149 -0.01971
C 21.96326 8.5896 -0.02118
C 22.01551 7.07268 0.00733
C 31.87193 21.37289 -0.02383
C 31.98417 19.94862 -0.01429
C 33.18833 19.23718 -0.0136
C 33.22714 17.7524 0.00594
C 31.95282 17.05269 -0.02474
C 31.90101 15.65867 0.00369
C 33.13195 22.07132 0.01574
C 33.10582 14.94255 0.00455
C 31.85062 12.85645 -0.01839
C 31.85692 11.4619 0.00137
C 33.1417 10.73373 0.00199
C 33.23297 9.31626 0.04381
C 31.91554 8.59836 0.02806
C 31.90293 7.1663 0.01504
C 33.13625 13.53728 -0.00644
C 33.12149 23.51909 0.01927
C 31.84702 24.11703 0.03794
C 31.97508 25.53717 -0.01779
C 29.46676 7.13903 0.01518
C 30.68591 6.35526 0.01908
C 30.71553 5.01553 0.07705
C 29.49963 4.33929 0.0103
C 29.495 2.87184 0.02108
C 30.67921 2.17435 0.00716
C 30.70324 0.72636 0.00307
C 29.52123 0.01349 0.00346
C 32.01588 32.71539 0.01713
C 33.19429 31.96471 -0.01694
C 33.14699 30.59175 0.01428
C 31.96674 29.96299 -0.02142
C 31.91071 28.53702 0.0544
C 33.16533 27.72224 0.00026
C 33.15479 26.3003 0.00682
C 33.12434 6.49423 -0.00069
C 33.23783 5.09977 0.04926
C 31.96732 4.34203 -0.03838
C 31.90916 2.87846 0.00349
C 34.3495 15.55479 0.02114
C 1.18053 14.90078 -0.02957
C 1.27873 13.48175 0.00343
C 0.01126 12.83092 -0.02656
C 34.39156 11.36962 -0.02442
C 1.13066 10.62797 -0.00027
C 1.24122 9.30925 -0.00583
C 0.02359 8.52214 -0.02302
C 34.3907 7.13025 -0.02849
C 1.20347 6.45201 0.02931
C 1.22327 5.06359 0.00628
C 34.41789 4.35976 -0.0345
C 34.35324 2.88219 -0.00931
C 1.13553 2.19048 -0.00939
C 1.15436 0.791 -0.00468
C 34.40879 17.03264 0.00648
C 29.48123 8.5885 -0.00971
C 1.18379 17.81268 0.01223
C 34.39195 19.92675 0.01951
C 33.09793 2.19626 -0.00323
C 33.12749 0.78352 -0.00841
C 31.93024 0.02283 0.0001
C 34.38866 32.72266 -0.02927
C 1.17624 31.99057 -0.01404
C 1.17961 30.58873 0.01027
C 34.39831 29.90212 0.01831
C 34.38838 28.45395 -0.01037
C 1.20935 27.78394 -0.00439
C 1.18757 26.36219 -0.00598
C 0.00055 25.57772 -0.05239
C 34.42876 24.18977 0.03076
C 1.17931 23.39211 0.00723
C 1.21813 21.98075 0.02712
C 34.40662 21.36864 -0.02213
C 1.15589 19.21104 -0.01678
C 30.66868 9.20077 -0.03735
C 30.63108 10.6926 -0.00944
C 29.36144 11.41524 -0.02155
C 25.80312 6.32431 0.00684
C 25.81947 4.9588 -0.01052
C 24.50499 4.23172 -0.01679
C 24.58443 2.85602 0.00367
C 25.75518 2.11884 0.04306
C 25.86185 0.70214 0.00996
C 24.53182 34.0495 0.00195
C 26.97532 32.70153 -0.00802
C 28.19394 31.93581 -0.00218
C 28.20557 30.57262 -0.01654
C 27.02344 29.86928 -0.00037
C 27.0083 28.4901 -0.0032
C 28.25876 27.75393 0.00622
C 28.32577 26.36492 -0.02815
C 27.01799 25.70686 -0.00942
C 24.51871 6.96014 -0.01154
C 26.97153 24.32153 0.00487
C 24.42718 8.426 -0.0264
C 25.5677 10.5654 -0.00229
C 23.29788 6.32409 -0.00178
C 23.37098 4.91478 0.00768
C 22.10282 4.16103 -0.0276
C 22.14722 2.81074 0.03005
C 23.37946 2.14411 -0.04078
C 23.32684 0.67648 0.02117
C 22.07344 34.04934 0.02737
C 24.47342 32.63198 -0.00498
C 25.75763 31.90222 0.00135
C 25.79098 30.51664 0.03102
C 24.56457 29.74158 0.02555
C 24.55346 28.36096 0.01423
C 25.77415 27.7635 -0.00285
C 25.83421 26.37931 -0.009
C 24.79206 25.41677 -0.01199
C 25.64003 9.20039 -0.00938
C 3.61104 31.89701 -0.00334
C 28.17744 23.48934 0.00826
C 28.1493 15.11176 0.00152
C 30.75844 27.7806 0.02326
C 30.76756 26.32006 0.00261
C 29.5147 25.60405 0.03265
C 29.38597 24.25802 -0.02049
C 30.60001 23.44644 -0.01854
C 30.64298 22.04658 -0.01415
C 29.3513 21.24692 -0.03039
C 29.47944 19.75672 0.01836
C 30.79059 19.24698 0.03531
C 30.74259 17.78701 -0.00669
C 29.5316 17.22243 0.0101
C 29.40186 15.75609 0.01705
C 30.63041 15.02701 -0.0405
C 30.57477 13.58985 -0.01303
C 29.42041 12.84801 -0.01461
C 29.48956 28.42808 0.00924
C 28.24379 22.02466 -0.00294
C 29.44774 29.85975 0.0014
C 30.71854 32.03728 0.04266
C 28.15224 13.58395 0.01257
C 26.98018 12.78064 0.02316
C 26.7467 11.3795 0.04185
C 28.12915 10.66009 0.00194
C 28.2276 9.2517 -0.00621
C 26.99341 8.5609 0.02611
C 27.00222 7.08592 0.02198
C 28.22639 6.37525 0.01094
C 28.23727 4.99414 0.00235
C 27.02949 4.27444 0.01495
C 27.02258 2.85412 0.01259
C 28.26974 2.12325 0.01799
C 28.27083 0.67634 0.01699
C 27.05415 34.07559 -0.00416
C 29.43212 32.67486 0.01177
C 30.66127 30.56896 0.01324
C 2.39617 32.69459 -0.01634
