411
Graphene
C 34.39158 0.07364 0.01295
C 12.16756 30.02781 -0.00428
C 12.12298 28.54555 0.03101
C 13.29292 27.8323 -0.01536
C 13.34725 26.32526 -0.02689
C 12.15092 25.51039 -0.01046
C 12.26566 24.06519 -0.00891
C 13.57264 23.47884 0.02819
C 13.52277 22.10833 0.00165
C 12.28808 21.38143 -0.02971
C 12.28817 19.9271 0.02894
C 13.43197 19.15104 -0.01789
C 13.3932 17.74628 0.00444
C 12.21359 17.03217 -0.00925
C 12.29711 15.56576 0.01877
C 13.56064 14.85943 0.01363
C 13.48715 13.52426 -0.02162
C 12.28311 12.80647 0.00415
C 12.30076 11.33519 -0.0014
C 13.45668 10.69976 0.02162
C 13.60982 9.2351 0.0076
C 12.37604 8.55869 0.01241
C 13.47988 30.68584 -0.02245
C 13.53417 32.03654 0.00985
C 12.24958 32.73196 -0.01275
C 9.81351 0.05772 -0.01111
C 10.97045 23.41623 0.00373
C 10.97461 22.05734 -0.00191
C 9.77321 21.29656 0.00438
C 9.78683 19.89283 0.01291
C 11.09498 19.19714 0.00093
C 11.04625 17.70579 0.00057
C 9.79546 17.04628 -0.01634
C 9.86795 15.67146 -0.00334
C 11.07425 14.90654 0.02339
C 11.028 13.50266 0.01641
C 12.27358 7.11725 -0.01454
C 9.77617 12.80483 -0.00719
C 10.96674 10.71708 -0.01062
C 11.14121 9.29654 -0.00033
C 9.91907 8.53702 0.03589
C 9.76574 7.14094 -0.02759
C 11.06956 6.46723 0.0402
C 11.00726 5.01892 0.00572
C 9.75382 4.36457 0.03592
C 9.82783 2.91581 0.00406
C 11.03168 2.17056 0.00943
C 11.07994 0.79223 0.02841
C 9.79502 11.39428 0.01364
C 13.55419 6.39245 0.01945
C 13.48103 4.97834 0.01416
C 12.1974 4.25287 0.03542
C 16.06086 9.20526 -0.00481
C 14.81495 8.49565 0.00979
C 14.88627 7.07624 0.01443
C 16.02897 6.2373 0.03505
C 16.04605 4.83433 -0.02815
C 14.80346 4.24086 -0.04147
C 14.77814 2.82753 -0.05302
C 15.95677 2.10231 0.00213
C 16.01773 0.75338 -0.00066
C 14.82231 34.06595 -0.00289
C 15.96947 10.58673 0.00889
C 17.36023 32.61755 0.00028
C 18.42414 30.52642 0.03698
C 17.27939 29.68624 -0.00109
C 17.11325 28.27245 -0.00491
C 17.02977 25.67158 0.03338
C 17.35692 24.27906 -0.0258
C 18.4306 23.30827 -0.0331
C 18.37477 21.93942 -0.00316
C 17.11812 21.32781 0.02188
C 17.15325 19.84512 -0.01979
C 18.42528 19.20168 0.02691
C 18.69523 31.81287 -0.02213
C 9.74819 24.18405 0.02147
C 14.73195 11.30122 -0.02162
C 15.9569 13.39799 0.01848
C 12.28322 2.913 0.02299
C 13.56912 2.13589 0.00244
C 13.45235 0.71818 -0.01717
C 12.27891 0.04476 0.05265
C 14.87329 32.61478 -0.01952
C 16.11841 31.826 -0.02813
C 15.91609 30.45623 0.00374
C 14.67907 29.84173 0.00052
C 14.62839 28.4399 -0.03682
C 15.7702 27.73855 0.01965
C 14.69457 12.75599 -0.00619
C 15.84504 26.35108 0.02058
C 14.73156 24.22764 -0.0108
C 15.95083 23.51647 -0.00368
C 15.97 22.09523 -0.02696
C 14.70019 21.35046 -0.00114
C 14.68552 19.91105 0.00228
C 15.94024 19.10182 0.00798
C 15.86971 17.72394 0.00422
C 14.64076 17.04013 0.0351
C 14.78586 15.50512 -0.03113
C 16.01443 14.81094 0.02098
C 14.64276 25.72325 -0.01957
C 18.40489 17.71324 -0.01581
C 9.74763 25.65078 -0.014
C 10.99301 27.79367 -0.00131
C 2.30203 2.90347 0.03189
C 3.60095 2.2839 0.00031
C 3.62332 0.91773 -0.003
C 2.40215 0.06314 0.01402
C 4.77148 32.80355 0.02379
C 6.02526 32.14821 0.00907
C 6.06821 30.71973 0.00643
C 4.852 29.92213 -0.01509
C 4.85993 28.4601 0.03267
C 6.16273 27.757 0.02374
C 6.1316 26.34218 0.00402
C 4.87439 25.67959 0.0073
C 4.79969 24.27831 0.0174
C 6.04259 23.53305 0.03828
C 6.16554 22.04423 0.01226
C 4.86614 21.33101 -0.00279
C 4.95174 19.87842 0.01996
C 6.15054 19.19277 -0.03996
C 6.15848 17.84809 0.01465
C 4.81619 17.08895 -0.00074
C 4.85113 15.62378 -0.00518
C 2.41061 4.31897 -0.04307
C 3.62023 5.001 0.03284
C 3.60944 6.42127 0.04505
C 2.47607 7.23377 -0.04999
C 3.62287 30.53965 0.00088
C 2.38744 29.89398 0.00828
C 2.28695 28.48595 -0.02375
C 3.53206 27.71976 0.00558
C 3.61563 26.36976 -0.0059
C 2.43543 25.49763 -0.01386
C 2.38609 24.11052 -0.02805
C 3.68645 23.44471 0.00081
C 3.64202 22.05087 0.00245
C 2.36236 21.34431 0.02728
C 6.12912 15.04368 0.0086
C 2.38356 19.8524 -0.00039
C 3.61381 17.83162 0.00211
C 2.3542 17.09099 -0.00449
C 2.48605 15.63095 -0.01979
C 3.6693 14.83774 0.02784
C 3.65283 13.45529 -0.01977
C 2.38946 12.77029 -0.00561
C 2.43881 11.33615 0.00208
C 3.72808 10.8144 0.01707
C 3.70507 9.37971 0.02769
C 2.5012 8.5748 -0.03291
C 3.67744 19.24468 0.0064
C 6.10995 13.61908 -0.00643
C 4.95707 12.84405 0.017
C 4.96173 11.44373 -0.03113
C 7.34388 17.07782 -0.00562
C 7.41819 15.5704 -0.00494
C 8.66109 14.90877 0.00054
C 8.51984 13.47022 0.03007
C 7.33572 12.84039 -0.00095
C 7.31527 11.38832 0.01572
C 8.57002 10.65414 -0.04848
C 8.62741 9.26507 -0.00892
C 7.35087 8.54183 -0.01362
C 7.28103 7.16964 -0.0008
C 8.53699 17.72527 -0.01142
C 8.53549 6.44201 0.0288
C 7.22981 4.38583 0.00895
C 7.35157 2.97927 0.00685
C 8.58154 2.24766 0.02888
C 8.48318 0.85858 -0.00482
C 7.26585 0.08608 -0.01384
C 9.74211 32.75129 0.03693
C 10.9481 32.05149 0.01745
C 10.97713 30.70105 0.00488
C 9.76668 29.94593 -0.01004
C 9.78336 28.47299 -0.02896
C 8.53905 5.07226 0.00393
C 11.0061 26.28014 -0.01118
C 8.64493 19.11625 0.01849
C 7.38858 21.35689 0.0127
C 6.08949 10.66365 -0.02566
C 6.20057 9.2827 -0.00094
C 4.94171 8.58488 0.02322
C 4.86103 7.15985 -0.00725
C 6.03598 6.47693 -0.05697
C 6.01406 5.0455 0.01087
C 4.84507 4.38355 -0.01343
C 4.82145 3.01801 0.00988
C 6.04114 2.28016 0.0276
C 6.02119 0.83406 0.01305
C 7.44949 19.89655 0.01396
C 4.76811 0.15269 -0.00077
C 8.49858 32.04871 -0.02929
C 8.49917 30.69398 -0.00966
C 7.18243 29.939 -0.03337
C 7.34016 28.49205 0.01227
C 8.61256 27.79342 0.00873
C 8.53012 26.34814 -0.00049
C 7.23366 25.69277 0.00848
C 7.29537 24.20653 -0.01303
C 8.51845 23.46986 -0.01378
C 8.57295 22.01211 0.02635
C 7.23945 32.79615 0.03368
C 3.64703 32.01716 0.04421
C 17.16164 17.01507 0.01452
C 18.47906 15.01422 -0.00111
C 30.62388 9.20163 -0.03735
C 29.45072 8.40421 -0.00971
C 29.48668 7.005 0.01518
C 30.69284 6.38158 0.01908
C 30.68791 5.01811 0.07705
C 29.49373 4.26936 0.0103
C 29.51586 2.8974 0.02108
C 30.7009 2.09855 0.00716
C 30.69002 0.7657 0.00307
C 29.47339 34.03718 0.00346
C 31.792 32.65514 0.01713
C 33.06523 31.98377 -0.01694
C 33.11199 30.61648 0.01428
C 31.92085 29.7817 -0.02142
C 31.84093 28.39333 0.0544
C 33.19138 27.76049 0.00026
C 33.23075 26.29547 0.00682
C 31.981 25.58004 -0.01779
C 32.04153 24.13272 0.03794
C 33.24077 23.42659 0.01927
C 33.09006 22.12314 0.01574
C 30.70621 10.56663 -0.00944
C 29.49567 11.25907 -0.02155
C 29.47254 12.70196 -0.01461
C 30.68926 13.50827 -0.01303
C 28.2863 4.98293 0.01259
C 27.08111 4.23216 0.01799
C 27.01365 2.8663 0.01699
C 28.28623 2.14802 -0.00416
C 28.25315 0.73253 0.01177
C 27.0817 34.05595 0.04266
C 29.36638 32.62824 0.01324
C 30.60951 32.0095 0.0014
C 30.6612 30.55811 0.00924
C 29.34274 29.70575 0.02326
C 31.817 21.54233 -0.02383
C 29.41569 28.31566 0.00261
C 30.68102 26.17687 -0.02049
C 29.49111 25.43457 -0.01854
C 29.67781 23.92316 -0.01415
C 30.92059 23.23696 -0.03039
C 29.21475 19.96844 0.01836
C 30.48587 19.35599 0.03531
C 30.64806 17.85359 -0.00669
C 29.48204 17.00425 0.0101
C 29.49921 15.56606 0.01705
C 30.6779 14.87367 -0.0405
C 30.71075 27.66196 0.03265
C 31.79239 20.10172 -0.01429
C 33.02609 19.31047 -0.0136
C 33.08376 17.82977 0.00594
C 1.2004 23.44513 0.00723
C 1.07578 21.9829 0.02712
C 34.27382 21.27681 -0.02213
C 34.28336 19.89362 0.01951
C 1.18253 19.1844 -0.01678
C 1.14335 17.80031 0.01223
C 34.37391 17.10116 0.00648
C 34.3528 15.65604 0.02114
C 1.19074 14.9854 -0.02957
C 1.18835 13.52621 0.00343
C 0.04948 24.14632 0.03076
C 34.3117 12.68696 -0.02656
C 1.21807 10.57146 -0.00027
C 1.20759 9.21501 -0.00583
C 34.40403 8.56056 -0.02302
C 34.32724 7.10076 -0.02849
C 1.16073 6.44357 0.02931
C 1.19139 5.05466 0.00628
C 0.01786 4.29047 -0.0345
C 34.36079 2.90762 -0.00931
C 1.1714 2.18385 -0.00939
C 1.2319 0.72323 -0.00468
C 34.38588 11.32524 -0.02442
C 28.2302 6.35371 0.01495
C 34.41397 25.56582 -0.05239
C 1.14687 27.6822 -0.00439
C 31.88249 17.08496 -0.02474
C 31.93227 15.70591 0.00369
C 33.15264 14.94162 0.00455
C 33.03965 13.47706 -0.00644
C 31.90828 12.78779 -0.01839
C 31.95144 11.31062 0.00137
C 33.126 10.64171 0.00199
C 33.13592 9.22627 0.04381
C 31.93583 8.46996 0.02806
C 31.91309 7.12043 0.01504
C 1.16716 26.33702 -0.00598
C 33.14322 6.41852 -0.00069
C 31.95678 4.28085 -0.03838
C 31.95736 2.92042 0.00349
C 33.1262 2.20025 -0.00323
C 33.08539 0.70816 -0.00841
C 31.92674 34.07204 0.0001
C 34.38565 32.70038 -0.02927
C 1.16698 31.98465 -0.01404
C 1.13064 30.51892 0.01027
C 34.2969 29.93059 0.01831
C 34.35826 28.50444 -0.01037
C 33.21829 5.00178 0.04926
C 17.2213 15.62093 0.04892
C 27.01085 7.05049 0.00235
C 28.23352 9.13281 0.02198
C 20.90665 10.63026 0.01277
C 20.80789 9.25101 0.00096
C 19.67147 8.4847 -0.01527
C 19.75353 7.06344 0.01087
C 20.89492 6.33128 0.00199
C 20.95345 4.90417 0.01511
C 19.75636 4.18676 -0.00478
C 19.70256 2.83532 -0.01662
C 20.91931 2.08797 -0.01185
C 20.94373 0.67121 0.01126
C 19.72571 33.94876 0.01852
C 22.01243 32.59944 -0.00381
C 23.20034 22.00703 0.03046
C 21.92185 21.46413 0.0296
C 22.08144 19.95035 0.03374
C 23.31444 19.18017 -0.02845
C 23.26022 17.76298 -0.03213
C 22.06824 17.05891 0.02239
C 22.12351 15.56914 0.01153
C 23.35525 14.93193 0.02734
C 23.34633 13.58314 -0.0055
C 19.64179 11.32687 -0.02422
C 19.61598 12.74705 -0.01721
C 20.81112 13.38771 -0.01154
C 20.93107 14.87542 0.0106
C 18.39179 13.48754 -0.03557
C 17.2864 12.7541 0.03754
C 17.18232 11.3502 0.01739
C 18.3875 10.59635 0.00755
C 18.41272 9.09742 -0.0054
C 17.20463 8.40885 0.00667
C 17.23148 6.99904 0.00143
C 18.45194 6.39975 -0.017
C 18.50392 5.02991 0.00364
C 17.39267 4.19237 -0.00831
C 22.05495 12.71666 0.01515
C 17.32584 2.78166 -0.02957
C 18.44765 0.62378 0.00654
C 17.31237 33.98614 -0.00703
C 19.94895 32.59175 -0.04076
C 20.67506 22.11102 -0.00652
C 19.67122 21.27444 0.0058
C 19.66396 19.85888 -0.00865
C 20.91327 19.17842 0.00675
C 20.84393 17.71312 -0.00311
C 19.64874 17.0603 0.00742
C 19.70646 15.63501 -0.01594
C 18.47874 2.09134 -0.04422
C 22.14856 11.26681 -0.00225
C 23.34697 10.62712 0.00071
C 23.44892 9.14493 -0.01107
C 25.83527 4.95624 0.00367
C 24.66253 4.2038 0.04306
C 24.59943 2.79431 0.00996
C 25.80665 2.13887 0.00195
C 25.76652 0.69777 -0.00802
C 24.68171 33.95309 -0.00218
C 26.82607 32.72507 -0.01654
C 28.04128 31.96111 -0.00037
C 28.19019 30.59822 -0.0032
C 28.58248 22.7888 0.00622
C 25.83122 6.36598 -0.01679
C 28.54883 21.43503 -0.02815
C 26.91865 19.73894 0.00487
C 28.10793 19.06973 0.00826
C 28.16111 17.65654 -0.00294
C 26.91333 16.9779 0.00152
C 27.01834 15.51628 0.01257
C 28.27906 14.91914 0.02316
C 28.26847 13.3974 0.04185
C 26.98228 12.70798 0.00194
C 27.08855 11.2826 -0.00621
C 28.32789 10.53101 0.02611
C 26.99636 21.14567 -0.00942
C 26.98649 8.46317 0.01094
C 24.56621 7.01859 -0.01052
C 25.78108 9.22141 -0.01154
C 22.14792 8.48295 -0.01586
C 22.06256 7.03799 -0.01971
C 23.37257 6.32427 -0.02118
C 23.3779 4.96631 0.00733
C 22.16115 4.19139 -0.00178
C 22.18783 2.74729 0.00768
C 23.43782 2.02775 -0.0276
C 23.44831 0.56113 0.03005
C 22.09019 33.95911 -0.04078
C 24.83689 32.51675 0.02117
C 24.54259 8.44108 0.00684
C 25.80849 21.87019 0.02737
C 24.49623 19.8619 0.00135
C 25.70974 19.10296 0.03102
C 25.69301 17.65042 0.02555
C 24.44232 17.01691 0.01423
C 24.57692 15.61629 -0.00285
C 25.76431 14.89107 -0.009
C 25.78882 13.44469 -0.01199
C 24.52982 12.73256 -0.00229
C 24.59737 11.31368 -0.00938
C 25.80157 10.6424 -0.0264
C 24.56364 21.38459 -0.00498
C 2.37645 32.66274 -0.00177
