302
Graphene
C 34.32746 0.08821 0.01295
C 13.53081 17.67745 0.04892
C 12.33103 17.02721 -0.00111
C 12.371 15.46061 -0.03557
C 13.63725 14.70584 0.03754
C 13.76211 0.86884 0.01739
C 12.40919 0.25146 0.00755
C 13.44499 19.07909 0.01452
C 14.74727 32.66966 -0.0054
C 16.27508 30.50874 0.00143
C 14.99921 29.8757 -0.017
C 14.91265 28.50762 0.00364
C 14.79054 16.93854 -0.00831
C 14.77829 15.55443 -0.02957
C 16.01233 14.89741 -0.04422
C 15.99226 32.00607 0.00667
C 12.23888 19.84234 -0.01581
C 12.30713 21.2812 0.02691
C 12.36308 24.00156 -0.01979
C 11.00632 19.12154 -0.04147
C 11.08316 17.71439 -0.05302
C 9.85759 17.05036 0.00213
C 9.85776 15.55522 -0.00066
C 11.08839 15.08611 -0.00289
C 11.04989 0.85989 0.00028
C 9.83257 0.19432 -0.02213
C 12.3311 32.87027 0.03698
C 13.5598 32.07314 -0.00109
C 13.61365 30.64148 -0.00491
C 12.38015 29.84336 0.03338
C 12.31494 28.42336 -0.0258
C 13.59459 27.79235 -0.0331
C 13.47008 26.3311 -0.00316
C 12.36281 25.47351 0.02188
C 15.96561 13.49561 0.00654
C 14.68053 12.88517 -0.00703
C 16.00607 2.03533 -0.04076
C 16.07717 0.64824 -0.00652
C 17.29098 33.9667 0.01126
C 19.59702 32.54719 0.01852
C 20.82898 32.12398 -0.00381
C 21.00284 13.35854 0.03046
C 19.73303 12.71962 0.0296
C 19.70682 11.35147 0.03374
C 20.93819 10.65026 -0.02845
C 20.74517 9.26506 -0.03213
C 19.5546 8.51761 0.02239
C 19.56799 7.17442 0.01153
C 20.88665 6.48003 0.02734
C 20.83015 5.01736 -0.0055
C 19.62362 4.27786 0.01515
C 19.62533 2.92187 -0.00225
C 20.88767 2.07953 0.00071
C 18.38103 0.68513 -0.01185
C 9.66439 19.81177 -0.02815
C 18.38134 2.09978 -0.01662
C 17.21239 4.25181 0.01511
C 14.82578 34.0714 0.0058
C 17.25144 32.62396 -0.00865
C 18.33367 31.78646 0.00675
C 17.98864 30.33907 -0.00311
C 17.25875 15.58304 0.00742
C 18.23595 14.87955 -0.01594
C 18.47656 13.38059 0.0106
C 17.25376 12.71647 -0.01154
C 17.11397 11.37258 -0.01721
C 18.3495 10.70274 -0.02422
C 18.37736 9.30379 0.01277
C 17.16193 8.58024 0.00096
C 17.2149 7.27294 -0.01527
C 18.36238 6.41467 0.01087
C 18.37536 4.90995 0.00199
C 17.13371 2.84052 -0.00478
C 9.72268 21.28877 0.03505
C 11.01928 21.90439 0.01443
C 11.10917 23.39294 0.00979
C 2.32474 7.24422 -0.02245
C 3.79454 4.80869 -0.00428
C 2.48454 4.33115 0.03101
C 2.38632 2.90355 -0.01536
C 3.65604 2.20588 -0.02689
C 3.58536 0.74506 -0.01046
C 2.39084 0.05711 -0.00891
C 4.79799 32.73175 0.02819
C 6.05171 32.02744 0.00165
C 6.1003 30.54902 -0.02971
C 4.91751 29.88201 0.02894
C 6.03382 23.54282 -0.01789
C 6.07934 22.02071 0.00444
C 4.87811 21.27313 -0.00925
C 4.84514 19.87553 0.01877
C 2.40978 8.46326 0.00985
C 6.09408 19.22048 0.01363
C 3.72007 10.55683 -0.01275
C 2.38122 12.74668 0.02841
C 3.63929 30.55484 -0.01634
C 2.41387 29.77899 -0.00334
C 2.49126 28.36535 0.02339
C 2.49866 25.56579 0.01641
C 2.60452 24.20111 -0.00719
C 3.83404 23.36062 0.01364
C 3.68388 22.07493 -0.01062
C 2.42328 21.34228 -0.00033
C 2.44895 19.85332 0.03589
C 3.67902 19.06096 -0.02759
C 3.62757 17.65776 0.0402
C 2.35421 17.0888 0.00572
C 2.50287 15.69078 0.03592
C 3.70853 14.90416 0.00406
C 3.63811 13.47658 0.00943
C 2.47405 11.39833 -0.01111
C 20.94252 0.66361 -0.01107
C 6.0774 17.78312 -0.02162
C 4.89228 15.55421 -0.0014
C 8.56841 17.68595 -0.0108
C 7.36913 17.00196 -0.00368
C 7.4522 15.65451 -0.02696
C 8.53852 14.80664 -0.00114
C 8.56266 0.6674 0.00228
C 7.18462 0.07582 0.00798
C 9.84079 32.73667 0.00422
C 11.06574 32.10077 0.0351
C 11.09613 30.52499 -0.03113
C 9.79936 29.8305 0.02098
C 9.80051 28.4371 0.01848
C 11.13127 27.70988 -0.00619
C 11.09469 26.25268 -0.02162
C 9.81096 25.56798 0.00889
C 9.77343 24.09692 -0.00481
C 8.52018 19.12406 -0.01957
C 4.8895 17.01292 0.00415
C 7.3466 19.90379 0.02058
C 8.54237 22.03682 -0.03682
C 6.17657 14.88341 0.02162
C 6.04025 13.53642 0.0076
C 5.01802 12.84111 0.01241
C 4.8204 2.77064 -0.01454
C 5.88925 0.87666 0.01945
C 4.79731 0.01669 0.01416
C 7.25759 32.77957 0.03542
C 8.55987 32.15156 0.02299
C 8.5892 30.6319 0.00244
C 7.37061 29.76372 -0.01717
C 7.30796 28.37727 0.05265
C 8.53502 27.64371 -0.01952
C 8.56259 26.14584 -0.02813
C 7.32848 24.1688 0.00374
C 8.5322 23.4799 0.00052
C 7.31918 21.25472 0.01965
C 19.61983 34.0684 -0.01586
C 22.12664 32.53339 -0.01971
C 23.45111 31.91062 -0.02118
C 31.92203 24.18236 0.01574
C 33.14453 23.47673 -0.02383
C 33.13065 22.04022 -0.01429
C 31.84274 21.32195 -0.0136
C 31.82096 19.90599 0.00594
C 33.06524 19.20204 -0.02474
C 33.07911 17.76336 0.00369
C 31.89234 17.00552 0.00455
C 31.86957 15.63921 -0.00644
C 33.17821 14.93751 -0.01839
C 33.14837 13.49343 0.00137
C 31.89281 12.7483 0.00199
C 31.85822 11.23108 0.04381
C 33.15895 10.72558 0.02806
C 33.34082 9.36515 0.01504
C 31.91188 25.6449 0.01927
C 32.87661 6.45412 -0.00069
C 33.13339 26.29107 0.03794
C 31.96618 28.47094 0.00682
C 29.43312 11.32791 -0.00971
C 30.54946 10.43824 0.01518
C 29.70804 8.74603 0.01908
C 29.91176 7.26571 0.07705
C 31.10898 6.44736 0.0103
C 30.74973 5.07071 0.02108
C 29.51277 4.3338 0.00716
C 29.50576 2.85201 0.00307
C 30.70851 2.18995 0.00346
C 30.70007 0.73059 0.01713
C 29.421 0.02029 -0.01694
C 31.9211 32.72625 0.01428
C 33.18258 31.97429 -0.02142
C 33.1208 30.58491 0.0544
C 31.94387 29.86351 0.00026
C 33.18409 27.73889 -0.01779
C 29.45947 12.76534 -0.03735
C 33.08947 5.01622 0.04926
C 31.92993 2.87462 0.00349
C 34.37142 15.63352 0.02114
C 1.21392 14.97318 -0.02957
C 1.19786 13.50721 0.00343
C 34.39507 12.85252 -0.02656
C 34.4106 11.38839 -0.02442
C 1.18799 10.71179 -0.00027
C 1.21473 9.30416 -0.00583
C 34.41099 8.55624 -0.02302
C 34.22502 7.13164 -0.02849
C 1.07282 6.45588 0.02931
C 1.15432 5.08479 0.00628
C 34.34314 4.38577 -0.0345
C 34.36467 2.97886 -0.00931
C 1.1346 2.24903 -0.00939
C 1.10743 0.84455 -0.00468
C 34.33359 17.05579 0.00648
C 31.92612 4.2635 -0.03838
C 1.11304 17.76882 0.01223
C 34.35121 19.93629 0.01951
C 33.19223 2.26471 -0.00323
C 33.09104 0.82402 -0.00841
C 31.87256 0.01046 0.0001
C 34.3842 32.68499 -0.02927
C 1.16892 32.02587 -0.01404
C 1.13923 30.61906 0.01027
C 34.36439 29.87996 0.01831
C 34.42653 28.40946 -0.01037
C 1.28932 27.78268 -0.00439
C 1.26517 26.24157 -0.00598
C 34.39436 25.54162 -0.05239
C 34.40221 24.21165 0.03076
C 1.31774 23.49521 0.00723
C 1.21387 22.06924 0.02712
C 34.36333 21.36303 -0.02213
C 1.11016 19.17809 -0.01678
C 3.60594 31.98311 0.00057
C 30.68291 13.55652 -0.00944
C 29.34451 15.56396 -0.01461
C 25.75658 13.40343 -0.01154
C 24.5739 12.66942 0.00684
C 24.65137 11.28111 -0.01052
C 25.77992 10.55388 -0.01679
C 25.80364 9.16125 0.00367
C 24.53447 8.42094 0.04306
C 24.59466 7.04805 0.00996
C 25.84415 6.37004 0.00195
C 25.75585 4.99201 -0.00802
C 24.53157 4.22314 -0.00218
C 24.54076 2.81936 -0.01654
C 25.75967 2.12478 -0.00037
C 25.77732 0.73078 -0.0032
C 24.53985 0.03568 0.00622
C 26.90225 32.68519 -0.02815
C 25.38078 14.79309 -0.0264
C 28.16373 31.99302 -0.00942
C 26.00479 30.52098 -0.00938
C 24.52506 32.70146 -0.01199
C 24.12833 15.02426 0.00733
C 23.47135 13.53948 -0.00178
C 22.24702 12.88335 0.00768
C 22.15114 11.29722 -0.0276
C 23.31579 10.59819 0.03005
C 23.30585 9.19925 -0.04078
C 22.04265 8.52729 0.02117
C 22.06794 7.10776 0.02737
C 23.2922 6.39057 -0.00498
C 23.33836 4.97786 0.00135
C 22.06799 4.32545 0.03102
C 22.09625 2.84515 0.02555
C 23.29922 2.10234 0.01423
C 23.27718 0.65949 -0.00285
C 22.1476 33.92786 -0.009
C 25.78252 31.92568 -0.00229
C 30.59117 14.92841 -0.02155
C 28.31107 30.54134 0.00487
C 28.16973 27.87591 -0.00294
C 30.67893 32.07276 0.00924
C 30.73403 30.65763 0.02326
C 29.55499 29.90276 0.00261
C 29.43277 28.4318 0.03265
C 30.71626 27.86354 -0.02049
C 30.70828 26.44178 -0.01854
C 29.56071 25.71278 -0.01415
C 29.50357 24.42629 -0.03039
C 30.64004 23.57471 0.01836
C 30.61426 22.11068 0.03531
C 29.54548 21.20003 -0.00669
C 29.53461 19.89355 0.0101
C 30.6414 19.11896 0.01705
C 30.68197 17.70635 -0.0405
C 29.45633 17.01332 -0.01303
C 29.36104 32.71838 0.0014
C 27.04287 29.83277 0.00826
C 26.99992 0.02853 0.01324
C 28.29918 2.16924 0.01177
C 28.18655 17.56842 0.00152
C 26.99718 16.90104 0.01257
C 26.71112 15.55804 0.02316
C 28.03812 14.85432 0.04185
C 28.20824 13.4959 0.00194
C 27.02409 12.72645 -0.00621
C 27.01074 11.3083 0.02611
C 28.16847 10.6742 0.02198
C 28.33665 9.19456 0.01094
C 27.04615 8.50226 0.00235
C 27.15689 7.12672 0.01495
C 28.47322 6.52356 0.01259
C 28.32608 5.08042 0.01799
C 27.02406 4.31089 0.01699
C 26.99936 2.88659 -0.00416
C 28.17629 0.7744 0.04266
C 2.40218 32.68431 0.00093
