436
Graphene
C 0.01285 0.01033 0.01295
C 13.55919 22.01965 0.02339
C 12.29201 21.3457 0.01641
C 12.32987 19.90603 -0.00719
C 13.52859 19.18109 0.01364
C 13.56715 17.81461 -0.01062
C 12.29712 17.05379 -0.00033
C 12.26348 15.60722 0.03589
C 13.50909 14.89065 -0.02759
C 13.522 13.45897 0.0402
C 12.28396 12.76517 0.00572
C 12.28958 11.40043 0.03592
C 13.52815 10.6478 0.00406
C 13.53078 9.20852 0.00943
C 12.30359 8.53111 0.02841
C 12.27606 7.11962 -0.01111
C 13.53923 6.42869 -0.01275
C 12.30411 4.23315 0.00985
C 12.27253 2.84331 -0.02245
C 13.53349 0.70074 -0.00428
C 12.27665 34.07767 0.03101
C 14.73034 32.6572 -0.01536
C 15.98098 31.92698 -0.02689
C 16.0029 30.5774 -0.01046
C 13.52197 23.46439 -0.00334
C 14.80938 29.82735 -0.00891
C 12.31027 24.16835 -0.01634
C 13.55782 26.28028 0.00093
C 9.85874 17.03068 -0.00892
C 9.80553 15.6281 -0.01362
C 11.05854 14.93964 -0.0008
C 11.09088 13.49835 0.0288
C 9.85483 12.83635 0.00393
C 9.83714 11.37511 0.00895
C 11.05854 10.69653 0.00685
C 11.08079 9.18355 0.02888
C 9.84204 8.51938 -0.00482
C 9.82925 7.08286 -0.01384
C 11.10905 6.38291 0.03693
C 11.04887 4.92313 0.01745
C 9.81535 4.28514 0.00488
C 9.8038 2.83406 -0.01004
C 11.03147 2.16041 -0.02896
C 11.08168 0.73451 -0.00131
C 9.89264 34.05509 -0.01118
C 12.27903 32.67187 -0.014
C 13.52698 31.95965 0.02147
C 13.51832 30.57591 0.00373
C 12.29628 29.86036 -0.00191
C 12.32951 28.37164 0.00438
C 13.50507 27.69022 0.01291
C 12.30824 25.57407 0.00057
C 14.77735 28.38064 0.02819
C 15.97799 27.71125 0.00165
C 15.98479 26.2992 -0.02971
C 18.45197 23.42632 -0.0108
C 18.48103 22.03856 -0.00368
C 17.2234 21.25391 -0.02696
C 17.22605 19.87362 -0.00114
C 18.4486 19.1867 0.00228
C 18.4576 17.72276 0.00798
C 17.15746 17.07274 0.00422
C 17.21894 15.58904 0.0351
C 18.44099 14.8668 -0.03113
C 18.45069 13.46589 0.02098
C 17.21635 12.7723 0.01848
C 17.21096 11.3687 -0.00619
C 18.42603 10.67633 -0.02162
C 18.4144 9.26084 0.00889
C 17.18687 8.54585 -0.00481
C 17.18982 7.09548 0.00979
C 18.47259 6.40236 0.01443
C 18.43368 0.68512 0.03505
C 17.21624 0.0021 -0.02815
C 19.69635 32.6967 -0.04147
C 20.91768 31.98483 -0.05302
C 20.89528 30.52104 0.00213
C 19.66781 29.79349 -0.00066
C 17.19066 24.13194 -0.01957
C 17.22006 25.52742 0.02058
C 18.47275 26.28528 0.01965
C 18.46562 27.70902 -0.03682
C 14.7419 25.55744 0.02894
C 14.73187 24.17086 -0.01789
C 15.97589 23.41921 0.00444
C 15.95557 22.01157 -0.00925
C 14.75721 21.30884 0.01877
C 14.79341 19.87237 0.01363
C 15.98172 19.14163 -0.02162
C 15.9523 17.73546 0.00415
C 14.75608 17.04164 -0.0014
C 14.77253 15.62112 0.02162
C 15.97302 14.87671 0.0076
C 11.04244 17.73471 -0.04848
C 16.00239 13.49269 0.01241
C 14.73309 11.39238 0.01945
C 15.98377 10.66736 0.01416
C 15.96316 9.23573 0.03542
C 14.79749 8.5203 0.02299
C 14.77166 7.10638 0.00244
C 14.76872 34.06043 -0.01717
C 17.22707 32.6499 0.05265
C 18.41682 31.93412 -0.01952
C 18.41895 30.51672 -0.02813
C 17.22423 29.80875 0.00374
C 17.19162 28.41039 0.00052
C 14.77592 12.73223 -0.01454
C 19.68135 28.4155 -0.00289
C 11.04577 19.1905 0.01572
C 9.84154 21.28131 0.03007
C 3.64996 2.19515 -0.02375
C 3.7204 0.70816 0.00558
C 2.44443 0.00585 -0.0059
C 4.94077 32.63365 -0.01386
C 6.12135 31.94932 -0.02805
C 6.17341 30.50905 0.00081
C 4.94336 29.82114 0.00245
C 4.92014 28.40074 0.02728
C 6.14712 27.68857 -0.00039
C 6.12822 26.25505 0.0064
C 4.90506 25.53203 0.00211
C 4.92662 24.15575 -0.00449
C 6.16636 23.40282 -0.01979
C 6.14074 22.00297 0.02784
C 4.87852 21.30684 -0.01977
C 4.93747 19.86103 -0.00561
C 6.15063 19.16163 0.00208
C 6.17852 17.75544 0.01707
C 4.90426 17.06615 0.02769
C 4.95482 15.62413 -0.03291
C 6.15155 14.91831 -0.04999
C 6.15955 13.48075 0.04505
C 4.9213 12.76978 0.03284
C 2.46392 2.82244 0.00828
C 4.91753 11.34491 -0.04307
C 2.46648 4.27476 0.00088
C 3.67795 6.37809 -0.00177
C 3.69028 30.51653 0.01984
C 2.46055 29.79321 0.00535
C 2.46903 28.39318 -0.00198
C 3.71192 27.73769 -0.00012
C 3.70096 26.23624 -0.04306
C 2.44605 25.54629 -0.03672
C 2.45976 24.17591 0.01913
C 3.67726 23.42768 0.00267
C 3.71105 22.04875 0.00787
C 2.4611 21.29464 0.02426
C 2.49219 19.91829 0.01218
C 3.67192 19.11249 -0.01471
C 3.66616 17.74509 -0.02827
C 2.4521 17.04687 0.01078
C 2.44662 15.58327 -0.00112
C 3.71453 14.88339 0.03345
C 3.69924 13.46088 0.00748
C 2.45584 12.76165 0.00662
C 2.44795 11.33684 -0.0154
C 3.67031 10.64237 -0.01299
C 3.71446 9.2332 -0.00407
C 2.50319 8.51738 0.01138
C 2.50106 7.07932 0.03278
C 3.68917 4.98745 0.04421
C 6.14172 10.63622 0.03189
C 6.14813 9.22762 0.00031
C 4.89979 8.56115 -0.003
C 7.39845 11.34496 -0.01343
C 8.60059 10.6769 0.00988
C 8.57687 9.2692 0.0276
C 7.38799 8.55463 0.01305
C 7.35334 7.15152 -0.00077
C 8.60208 6.42328 0.03368
C 8.64263 4.95438 -0.02929
C 7.36059 4.27157 -0.00966
C 7.36266 2.84978 -0.03337
C 8.61373 2.12796 0.01227
C 8.65574 0.73387 0.00873
C 7.37979 0.0053 -0.00049
C 9.81814 32.67132 0.00848
C 11.10549 31.95855 -0.01303
C 11.04855 30.56697 -0.01378
C 9.84051 29.82724 0.02635
C 9.84462 28.40538 0.0127
C 11.07826 27.67243 0.01396
C 11.06012 26.3159 0.01849
C 9.85984 25.57936 -0.01142
C 9.84596 24.14484 -0.00562
C 11.0784 23.37336 -0.00494
C 11.08133 22.01199 0.00054
C 7.35819 12.79853 0.01087
C 8.60599 13.50412 -0.05697
C 8.61919 14.89277 -0.00725
C 7.32614 15.5958 0.02322
C 4.87695 7.11417 0.01402
C 6.13225 6.38809 0.02379
C 6.16043 5.02046 0.00907
C 4.89726 4.26636 0.00643
C 4.90136 2.86281 -0.01509
C 6.16006 2.09759 0.03267
C 6.16687 0.72882 0.02374
C 4.96178 0.00919 0.00402
C 7.40176 32.66256 0.0073
C 8.61245 31.97295 0.0174
C 8.58303 30.51238 0.03828
C 9.84053 19.86459 -0.00095
C 7.39169 29.80113 0.01226
C 8.60115 27.7198 0.01996
C 8.62511 26.27203 -0.03996
C 7.3953 25.54435 0.01465
C 7.39676 24.12693 -0.00074
C 8.62386 23.44429 -0.00518
C 8.64478 22.02669 0.0086
C 7.3782 21.29674 -0.00643
C 7.3647 19.90524 0.017
C 8.62341 19.15471 -0.03113
C 8.60896 17.76264 -0.02566
C 7.38773 17.06354 -0.00094
C 7.32556 28.4096 -0.00279
C 20.96834 27.67803 0.00028
C 20.93362 26.27186 -0.02213
C 19.66912 25.587 0.03698
C 30.78685 14.90313 -0.0405
C 30.72798 13.49829 -0.01303
C 29.52026 12.77499 -0.01461
C 29.51835 11.34415 -0.02155
C 30.74354 10.63118 -0.00944
C 30.73318 9.2612 -0.03735
C 29.48445 8.52923 -0.00971
C 29.52116 7.0986 0.01518
C 30.75839 6.3898 0.01908
C 30.76562 4.97582 0.07705
C 29.48857 4.25768 0.0103
C 29.54798 2.85332 0.02108
C 30.74336 2.08162 0.00716
C 30.75498 0.6964 0.00307
C 29.53313 34.04694 0.00346
C 31.93249 32.64776 0.01713
C 33.21634 31.94087 -0.01694
C 33.21065 30.53072 0.01428
C 31.97919 29.80798 -0.02142
C 32.00958 28.42112 0.0544
C 33.20312 27.70675 0.00026
C 33.20321 26.28993 0.00682
C 31.95267 25.55658 -0.01779
C 29.51949 15.60961 0.01705
C 31.97998 24.15118 0.03794
C 29.5168 17.05438 0.0101
C 30.74821 19.15548 0.03531
C 28.27322 9.22627 -0.00621
C 27.06739 8.54676 0.02611
C 27.05311 7.10216 0.02198
C 28.32066 6.40271 0.01094
C 28.27804 4.93922 0.00235
C 27.02551 4.24074 0.01495
C 27.05567 2.85367 0.01259
C 28.31619 2.11799 0.01799
C 28.25217 0.68462 0.01699
C 27.03919 34.0728 -0.00416
C 29.47438 32.64105 0.01177
C 30.75986 31.92657 0.04266
C 30.7333 30.50907 0.01324
C 29.51646 29.83249 0.0014
C 29.51803 28.39829 0.00924
C 30.77175 27.66245 0.02326
C 30.71769 26.25545 0.00261
C 29.49078 25.52362 0.03265
C 29.49013 24.08576 -0.02049
C 30.75376 23.45308 -0.01854
C 30.75208 22.01698 -0.01415
C 29.55674 21.31552 -0.03039
C 29.50732 19.87287 0.01836
C 30.76162 17.73761 -0.00669
C 33.22076 23.43811 0.01927
C 33.20625 21.99833 0.01574
C 31.9963 21.30732 -0.02383
C 34.42172 24.16352 0.03076
C 1.23419 23.45069 0.00723
C 1.21336 22.02753 0.02712
C 34.41511 21.28502 -0.02213
C 34.42032 19.88301 0.01951
C 1.24266 19.19395 -0.01678
C 1.21624 17.76697 0.01223
C 0.00726 16.98658 0.00648
C 34.42005 15.59966 0.02114
C 1.20551 14.90067 -0.02957
C 1.23292 13.51192 0.00343
C 0.01985 12.74578 -0.02656
C 34.38621 11.35176 -0.02442
C 1.20442 10.68337 -0.00027
C 1.24393 9.22144 -0.00583
C 34.4182 8.50374 -0.02302
C 34.41626 7.10995 -0.02849
C 1.22432 6.34881 0.02931
C 1.22398 4.94773 0.00628
C 0.01697 4.23098 -0.0345
C 0.00148 2.82427 -0.00931
C 1.26698 2.12273 -0.00939
C 1.2519 0.69896 -0.00468
C 34.41818 25.58579 -0.05239
C 1.2475 26.27149 -0.00598
C 1.24974 27.64346 -0.00439
C 0.00264 28.44156 -0.01037
C 31.94843 19.8858 -0.01429
C 33.18199 19.16971 -0.0136
C 33.18 17.73534 0.00594
C 31.96346 17.05879 -0.02474
C 32.01521 15.58475 0.00369
C 33.23028 14.88333 0.00455
C 33.19585 13.47941 -0.00644
C 31.92952 12.7662 -0.01839
C 31.96926 11.32792 0.00137
C 33.18396 10.63309 0.00199
C 33.19152 9.22386 0.04381
C 28.30691 10.63144 0.00194
C 32.00043 8.50057 0.02806
C 33.19292 6.39931 -0.00069
C 33.21195 4.94614 0.04926
C 31.96318 4.24946 -0.03838
C 31.97318 2.88583 0.00349
C 33.21449 2.09464 -0.00323
C 33.22936 0.66983 -0.00841
C 31.9682 34.06898 0.0001
C 34.42418 32.64935 -0.02927
C 1.23656 31.97051 -0.01404
C 1.23571 30.51203 0.01027
C 0.00236 29.81754 0.01831
C 31.93956 7.11762 0.01504
C 27.0668 11.35186 0.04185
C 27.05289 12.7537 0.02316
C 28.31948 13.50668 0.01257
C 22.18696 28.43062 -0.00652
C 23.37479 27.69685 0.0058
C 23.3716 26.23138 -0.00865
C 22.15131 25.56688 0.00675
C 22.13436 24.14737 -0.00311
C 23.36614 23.44945 0.00742
C 23.37933 21.96364 -0.01594
C 22.15253 21.28842 0.0106
C 22.11466 19.91052 -0.01154
C 23.34918 19.16475 -0.01721
C 23.34729 17.75695 -0.02422
C 22.1315 17.04794 0.01277
C 22.10063 15.5734 0.00096
C 23.36075 14.94062 -0.01527
C 23.39472 13.46064 0.01087
C 22.16447 12.75133 0.00199
C 22.09113 11.33451 0.01511
C 23.38106 10.66046 -0.00478
C 23.34097 9.22017 -0.01662
C 22.17771 8.52734 -0.01185
C 22.1584 7.08572 0.01126
C 23.35177 6.35816 0.01852
C 23.37797 4.94364 -0.00381
C 22.12362 29.81683 -0.04076
C 23.31958 30.50259 -0.00703
C 23.34935 31.98026 0.00654
C 22.11947 32.67504 -0.04422
C 19.68286 24.07677 -0.00109
C 20.86656 23.38491 -0.00491
C 20.88131 22.00431 0.03338
C 19.6759 21.30831 -0.0258
C 19.65357 19.85143 -0.0331
C 20.8599 19.20904 -0.00316
C 20.90178 17.75466 0.02188
C 19.7043 17.02457 -0.01979
C 19.67931 15.65884 0.02691
C 20.91779 14.88108 -0.01581
C 20.9181 13.49088 0.01452
C 22.13313 4.23529 0.03046
C 19.68165 12.75805 0.04892
C 20.92336 10.65678 -0.03557
C 20.93339 9.24058 0.03754
C 19.67326 8.48133 0.01739
C 19.65389 7.08072 0.00755
C 20.9242 6.3952 -0.0054
C 20.87899 4.98751 0.00667
C 19.69268 4.23227 0.00143
C 19.70076 2.84837 -0.017
C 20.92873 2.17803 0.00364
C 20.92223 0.72275 -0.00831
C 19.67107 34.07547 -0.02957
C 19.70122 11.38682 -0.00111
C 3.68868 31.93793 0.01073
C 22.13951 2.8337 0.0296
C 23.35606 0.68803 -0.02845
C 24.56525 4.27581 -0.00229
C 24.61697 2.85851 -0.00938
C 25.81378 2.13969 -0.0264
C 25.86759 0.71875 -0.01154
C 24.57794 0.02693 0.00684
C 27.06258 32.63211 -0.01052
C 28.30666 31.93391 -0.01679
C 28.27654 30.53477 0.00367
C 27.08197 29.84518 0.04306
C 27.04364 28.42268 0.00996
C 28.29421 27.67992 0.00195
C 28.28586 26.26673 -0.00802
C 27.09433 25.59113 -0.00218
C 27.03481 24.16638 -0.01654
C 28.2887 23.41578 -0.00037
C 28.31433 22.03917 -0.0032
C 27.04164 21.28881 0.00622
C 27.06236 19.82863 -0.02815
C 28.26902 19.14578 -0.00942
C 28.29418 17.7312 0.00487
C 27.03333 17.02637 0.00826
C 27.02059 15.64735 -0.00294
C 28.28185 14.89113 0.00152
C 25.82935 4.94502 -0.01199
C 25.83445 6.38658 -0.009
C 24.58386 7.05085 -0.00285
C 24.58506 8.52604 0.01423
C 22.13073 34.07614 -0.03213
C 24.60772 32.73926 0.02239
C 25.84593 31.9098 0.01153
C 25.79454 30.50105 0.02734
C 24.58114 29.83178 -0.0055
C 24.58465 28.41187 0.01515
C 25.80825 27.71577 -0.00225
C 25.80703 26.2963 0.00071
C 24.59816 25.52988 -0.01107
C 24.60804 24.12559 -0.01586
C 25.8229 23.44813 -0.01971
C 23.35594 2.09805 0.03374
C 25.82007 22.01034 -0.02118
C 24.59011 19.83829 -0.00178
C 25.79797 19.18268 0.00768
C 25.81397 17.77405 -0.0276
C 24.57367 17.07182 0.03005
C 24.55277 15.58695 -0.04078
C 25.78146 14.91886 0.02117
C 25.82256 13.50509 0.02737
C 24.62937 12.81455 -0.00498
C 24.61119 11.41168 0.00135
C 25.82157 10.62974 0.03102
C 25.80981 9.21574 0.02555
C 24.56491 21.29926 0.00733
C 2.45183 32.63798 -0.00018
