428
Graphene
C 0.02295 0.02311 0.01295
C 12.34363 2.81765 0.03589
C 13.48409 2.18741 -0.02759
C 13.51535 0.75809 0.0402
C 12.31313 34.0616 0.00572
C 14.7874 32.72543 0.03592
C 15.99361 31.97669 0.00406
C 15.93273 30.49369 0.00943
C 14.67082 29.79944 0.02841
C 14.7255 28.27361 -0.01111
C 15.97685 27.69394 -0.01275
C 12.35167 4.29722 -0.00033
C 16.01263 26.24117 0.00985
C 14.77595 24.15395 -0.00428
C 16.02726 23.41264 0.03101
C 15.94716 22.07229 -0.01536
C 14.76423 21.27123 -0.02689
C 14.77087 19.81715 -0.01046
C 15.95387 19.12238 -0.00891
C 16.0558 17.66956 0.02819
C 14.71406 17.03499 0.00165
C 14.73068 15.66907 -0.02971
C 15.98328 14.86788 0.02894
C 14.73563 25.62032 -0.02245
C 13.46301 5.05044 -0.01062
C 13.54436 6.44614 0.01364
C 12.33556 7.12656 -0.00719
C 9.86158 2.86585 0.00685
C 11.08743 2.13151 0.02888
C 11.05097 0.71369 -0.00482
C 9.84243 34.06988 -0.01384
C 12.3251 32.67773 0.03693
C 13.53598 32.01421 0.01745
C 13.48954 30.56664 0.00488
C 12.20967 24.19394 -0.01004
C 13.53028 23.40673 -0.02896
C 13.54442 22.01544 -0.00131
C 12.3436 21.32175 -0.01118
C 12.36972 19.87032 -0.014
C 13.50573 19.12243 0.02147
C 13.51978 17.78948 0.00373
C 12.32671 17.01432 -0.00191
C 12.25337 15.60598 0.00438
C 13.54346 14.90685 0.01291
C 13.61393 13.50526 0.00093
C 12.30543 12.80429 0.00057
C 12.31483 11.39029 -0.01634
C 13.49953 10.74935 -0.00334
C 13.5152 9.2762 0.02339
C 12.28885 8.48184 0.01641
C 15.97873 13.47153 -0.01789
C 14.7695 12.82221 0.00444
C 14.7571 11.34572 -0.00925
C 15.95395 10.65671 0.01877
C 18.43814 14.94339 0.00228
C 18.45591 13.46989 0.00798
C 17.2506 12.85767 0.00422
C 17.22184 11.31581 0.0351
C 18.46006 10.63502 -0.03113
C 18.45544 9.20919 0.02098
C 17.25377 8.47005 0.01848
C 17.16809 7.10132 -0.00619
C 18.41944 6.37879 -0.02162
C 18.46198 4.92719 0.00889
C 17.21962 4.23882 -0.00481
C 17.18692 2.87187 0.00979
C 18.40464 2.13313 0.01443
C 18.40098 0.71814 0.03505
C 17.14519 0.03157 -0.02815
C 19.67517 32.7206 -0.04147
C 20.88427 31.97824 -0.05302
C 20.92849 30.49674 0.00213
C 19.69059 29.80487 -0.00066
C 19.6905 28.40946 -0.00289
C 20.94721 27.73176 0.00028
C 20.96416 26.28915 -0.02213
C 19.67806 25.57649 0.03698
C 17.21976 15.56487 -0.00114
C 9.82683 4.2428 0.00895
C 17.2221 17.00945 -0.02696
C 18.48156 19.19634 -0.0108
C 15.97068 9.22145 0.01363
C 14.72455 8.52846 -0.02162
C 14.70784 7.12575 0.00415
C 15.97702 6.38703 -0.0014
C 15.93474 4.97878 0.02162
C 14.75195 4.27575 0.0076
C 14.7933 2.81677 0.01241
C 15.964 2.09922 -0.01454
C 15.96387 0.65567 0.01945
C 14.70568 0.01076 0.01416
C 17.2264 32.63466 0.03542
C 18.43332 31.93182 0.02299
C 18.48452 30.51125 0.00244
C 17.27036 29.83513 -0.01717
C 17.20227 28.45259 0.05265
C 18.46239 27.63707 -0.01952
C 18.41538 26.26217 -0.02813
C 17.19761 25.55231 0.00374
C 17.21983 24.17566 0.00052
C 18.46595 23.37755 -0.03682
C 18.43485 22.02442 0.01965
C 17.17871 21.31321 0.02058
C 17.18047 19.87752 -0.01957
C 18.44717 17.75951 -0.00368
C 19.67688 24.17093 -0.00109
C 11.09649 4.9332 0.00393
C 9.84879 7.15467 -0.0008
C 3.69461 2.13936 -0.00039
C 3.67858 0.71201 0.0064
C 2.41033 0.04534 0.00211
C 4.94618 32.67394 -0.00449
C 6.15667 31.89888 -0.01979
C 6.08893 30.52973 0.02784
C 4.87624 29.83422 -0.01977
C 4.93826 28.32632 -0.00561
C 4.97399 25.58915 0.00208
C 4.91057 24.14915 0.01707
C 2.53084 2.83186 0.02728
C 6.17423 23.45505 0.02769
C 4.87917 21.27583 -0.04999
C 4.89874 19.95348 0.04505
C 6.14353 19.16148 0.03284
C 6.15843 17.71648 -0.04307
C 4.90189 17.03158 0.03189
C 4.95906 15.6047 0.00031
C 6.11889 14.88245 -0.003
C 6.17486 13.48277 0.01402
C 4.82499 12.76182 0.02379
C 4.89701 11.45333 0.00907
C 6.13602 22.04488 -0.03291
C 2.4471 4.26751 0.00245
C 3.71547 5.00055 0.00081
C 3.69168 6.31643 -0.02805
C 3.7125 30.57231 0.00787
C 2.47897 29.87326 0.02426
C 2.46974 28.44564 0.01218
C 3.68435 27.6806 -0.01471
C 3.65116 26.21113 -0.02827
C 2.44943 25.52557 0.01078
C 2.51133 24.13139 -0.00112
C 3.71149 23.37845 0.03345
C 3.69994 22.00647 0.00748
C 2.46198 21.35067 0.00662
C 2.41758 19.88503 -0.0154
C 3.73789 19.15344 -0.01299
C 3.75956 17.74405 -0.00407
C 2.50848 17.07019 0.01138
C 2.44175 15.50875 0.03278
C 3.6795 14.87347 -0.00177
C 3.62926 13.50227 0.04421
C 2.39752 12.73119 0.00088
C 2.45262 11.36151 0.00828
C 3.67506 10.69822 -0.02375
C 3.67892 9.25866 0.00558
C 2.48723 8.46646 -0.0059
C 2.44909 7.10293 -0.01386
C 6.13171 10.68749 0.00643
C 6.16028 9.26181 -0.01509
C 4.91187 8.50259 0.03267
C 4.94291 7.0977 0.02374
C 8.65968 5.0052 -0.02929
C 7.37784 4.27147 -0.00966
C 7.33408 2.87797 -0.03337
C 8.65165 2.14016 0.01227
C 8.64011 0.76617 0.00873
C 7.37906 0.04091 -0.00049
C 9.86822 32.66953 0.00848
C 11.06152 32.05451 -0.01303
C 11.07811 23.51056 -0.01378
C 11.09537 22.03045 0.02635
C 9.79733 21.29987 0.0127
C 9.85026 19.9162 0.01396
C 11.09338 19.17321 0.01849
C 11.1004 17.74123 -0.01142
C 9.8094 17.06334 -0.00562
C 9.81598 15.64344 -0.00494
C 11.09109 14.91039 0.00054
C 11.01259 13.4734 0.03007
C 9.79621 12.80318 -0.00095
C 9.81605 11.33738 0.01572
C 11.06753 10.63497 -0.04848
C 11.01731 9.27157 -0.00892
C 9.78262 8.55824 -0.01362
C 8.66053 6.46706 0.03368
C 11.09983 6.3526 0.0288
C 7.38072 7.13747 -0.00077
C 8.53387 9.24448 0.0276
C 6.18365 6.3952 0.00402
C 6.13172 5.00908 0.0073
C 4.83955 4.25792 0.0174
C 4.85773 2.8399 0.03828
C 6.1167 2.0872 0.01226
C 6.12994 0.7649 -0.00279
C 4.86506 0.00243 0.01996
C 7.39885 32.69738 -0.03996
C 8.60753 31.92819 0.01465
C 7.42014 24.10844 -0.00074
C 8.57731 23.48057 -0.00518
C 8.67031 22.03443 0.0086
C 7.40488 21.35425 -0.00643
C 7.35759 19.87504 0.017
C 8.60378 19.17655 -0.03113
C 8.59002 17.75293 -0.02566
C 7.32036 17.08813 -0.00094
C 7.41414 15.60629 0.02322
C 8.62787 14.85061 -0.00725
C 8.65595 13.46053 -0.05697
C 7.3663 12.81872 0.01087
C 7.36862 11.39132 -0.01343
C 8.6047 10.664 0.00988
C 7.34538 8.53353 0.01305
C 20.89526 23.4024 -0.00491
C 20.88675 22.02868 0.03338
C 19.71821 21.34138 -0.0258
C 29.51288 12.715 -0.01461
C 29.55688 11.32178 -0.02155
C 30.76447 10.65479 -0.00944
C 30.73613 9.26983 -0.03735
C 29.51332 8.47861 -0.00971
C 29.47632 7.1102 0.01518
C 30.78272 6.35016 0.01908
C 30.70705 4.92912 0.07705
C 29.46975 4.27536 0.0103
C 29.48622 2.81592 0.02108
C 30.70139 13.53082 -0.01303
C 30.73233 2.13234 0.00716
C 29.52332 34.02183 0.00346
C 31.98975 32.63987 0.01713
C 33.2052 31.97868 -0.01694
C 33.26638 30.50843 0.01428
C 31.97919 29.74145 -0.02142
C 32.00258 28.39248 0.0544
C 33.25284 27.67318 0.00026
C 33.16099 26.26392 0.00682
C 31.97287 25.53816 -0.01779
C 31.97448 24.15411 0.03794
C 30.72997 0.70562 0.00307
C 30.78743 14.983 -0.0405
C 29.50551 15.62113 0.01705
C 29.53901 17.07903 0.0101
C 27.02614 7.12883 0.02198
C 28.29564 6.38972 0.01094
C 28.27981 4.96367 0.00235
C 27.09203 4.29923 0.01495
C 27.09354 2.84368 0.01259
C 28.25961 2.08315 0.01799
C 28.27915 0.72135 0.01699
C 27.05835 0.00579 -0.00416
C 29.53795 32.70066 0.01177
C 30.71111 31.86054 0.04266
C 30.70615 30.48976 0.01324
C 29.49638 29.80538 0.0014
C 29.57928 28.38779 0.00924
C 30.70248 27.63653 0.02326
C 30.67239 26.2607 0.00261
C 29.48978 25.49539 0.03265
C 29.48823 24.10338 -0.02049
C 30.74115 23.3931 -0.01854
C 30.75782 22.08093 -0.01415
C 29.54353 21.35549 -0.03039
C 29.52672 19.8731 0.01836
C 30.74485 19.1422 0.03531
C 30.70999 17.70958 -0.00669
C 33.15547 23.44283 0.01927
C 33.21522 22.02453 0.01574
C 32.02902 21.26245 -0.02383
C 31.98175 19.87236 -0.01429
C 34.38715 24.19468 0.03076
C 1.23025 23.47717 0.00723
C 1.206 22.08323 0.02712
C 34.40573 21.31616 -0.02213
C 34.40031 19.88165 0.01951
C 1.22467 19.21316 -0.01678
C 1.25287 17.74407 0.01223
C 0.01308 17.02485 0.00648
C 34.40883 15.58252 0.02114
C 1.21037 14.89835 -0.02957
C 1.20932 13.50544 0.00343
C 34.41349 12.83525 -0.02656
C 34.42002 11.31532 -0.02442
C 1.21804 10.63728 -0.00027
C 1.17533 9.22086 -0.00583
C 34.42366 8.54486 -0.02302
C 0.02498 7.10046 -0.02849
C 1.15338 6.31644 0.02931
C 1.18889 4.94075 0.00628
C 0.01259 4.23583 -0.0345
C 34.43054 2.77645 -0.00931
C 1.22648 2.15482 -0.00939
C 1.26689 0.68225 -0.00468
C 0.00184 25.57544 -0.05239
C 27.08591 8.54085 0.02611
C 1.21846 26.24878 -0.00598
C 0.03603 28.34366 -0.01037
C 33.18699 19.15302 -0.0136
C 33.16191 17.74409 0.00594
C 31.98305 17.03652 -0.02474
C 32.04368 15.58664 0.00369
C 33.2053 14.91849 0.00455
C 33.13495 13.47302 -0.00644
C 31.89321 12.75795 -0.01839
C 31.96493 11.28709 0.00137
C 33.1521 10.65338 0.00199
C 33.22784 9.21863 0.04381
C 31.99947 8.5206 0.02806
C 31.87541 7.12411 0.01504
C 33.13164 6.34284 -0.00069
C 33.21888 4.95771 0.04926
C 31.97582 4.24589 -0.03838
C 32.01726 2.80538 0.00349
C 33.24059 2.07145 -0.00323
C 33.23812 0.67986 -0.00841
C 31.95924 0.00219 0.0001
C 0.01655 32.60129 -0.02927
C 1.19347 31.92683 -0.01404
C 1.20996 30.55517 0.01027
C 0.04499 29.76371 0.01831
C 1.31731 27.64472 -0.00439
C 28.26424 9.2008 -0.00621
C 28.29244 10.63848 0.00194
C 27.07739 11.35977 0.04185
C 22.15127 25.54201 0.00675
C 22.17292 24.14627 -0.00311
C 23.33874 23.40939 0.00742
C 23.37733 22.00325 -0.01594
C 22.1845 21.28435 0.0106
C 22.18334 19.9042 -0.01154
C 23.38168 19.20581 -0.01721
C 23.34663 17.78765 -0.02422
C 22.15675 16.95568 0.01277
C 22.10344 15.60651 0.00096
C 23.3694 14.92043 -0.01527
C 23.35354 13.53746 0.01087
C 22.11268 12.76604 0.00199
C 22.12355 11.37098 0.01511
C 23.3328 10.68182 -0.00478
C 23.35141 9.22278 -0.01662
C 22.16548 8.53317 -0.01185
C 22.13504 7.1448 0.01126
C 23.36051 6.3376 0.01852
C 23.37904 5.00746 -0.00381
C 22.17788 4.25727 0.03046
C 22.19067 2.81847 0.0296
C 23.30396 2.07315 0.03374
C 23.39813 26.29025 -0.00865
C 23.3376 0.66536 -0.02845
C 23.50634 27.72645 0.0058
C 22.11089 29.84587 -0.04076
C 19.67656 19.87159 -0.0331
C 20.90301 19.16488 -0.00316
C 20.8252 17.76309 0.02188
C 19.61869 17.05887 -0.01979
C 19.63747 15.63361 0.02691
C 20.86443 14.9029 -0.01581
C 20.92992 13.45328 0.01452
C 19.59734 12.72828 0.04892
C 19.67714 11.3578 -0.00111
C 20.86441 10.65398 -0.03557
C 20.88064 9.19974 0.03754
C 19.65035 8.53389 0.01739
C 19.66264 7.0998 0.00755
C 20.91201 6.3733 -0.0054
C 20.89396 4.97484 0.00667
C 19.69384 4.17418 0.00143
C 19.70478 2.82694 -0.017
C 20.9141 2.12904 0.00364
C 20.92652 0.7253 -0.00831
C 19.75519 0.09526 -0.02957
C 22.13663 32.67309 -0.04422
C 23.32599 31.90723 0.00654
C 23.34083 30.49782 -0.00703
C 22.16919 28.44368 -0.00652
C 3.65146 31.98586 0.00267
C 22.13613 34.05378 -0.03213
C 25.8798 31.97113 0.01153
C 25.8576 2.15756 -0.0264
C 25.82537 0.733 -0.01154
C 24.57247 34.03874 0.00684
C 27.06234 32.6762 -0.01052
C 28.30585 31.94833 -0.01679
C 28.25088 30.51877 0.00367
C 27.0208 29.80349 0.04306
C 27.04654 28.37891 0.00996
C 28.26155 27.68244 0.00195
C 28.30286 26.27235 -0.00802
C 27.07606 25.56556 -0.00218
C 27.04393 24.20665 -0.01654
C 28.31646 23.44909 -0.00037
C 28.25798 22.01176 -0.0032
C 27.05925 21.27011 0.00622
C 27.05731 19.88675 -0.02815
C 28.29382 19.21048 -0.00942
C 28.28889 17.71597 0.00487
C 27.02674 17.00378 0.00826
C 27.11416 15.63046 -0.00294
C 28.25566 14.95183 0.00152
C 28.29849 13.5024 0.01257
C 27.06245 12.80359 0.02316
C 24.59834 2.83419 -0.00938
C 24.61161 32.62019 0.02239
C 24.54084 4.23538 -0.00229
C 25.87547 6.37917 -0.009
C 25.7885 30.49542 0.02734
C 24.52709 29.83322 -0.0055
C 24.59431 28.40651 0.01515
C 25.77137 27.70983 -0.00225
C 25.82815 26.27672 0.00071
C 24.53643 25.48058 -0.01107
C 24.56427 24.1209 -0.01586
C 25.82209 23.475 -0.01971
C 25.82712 22.06007 -0.02118
C 24.5719 21.2069 0.00733
C 24.61267 19.8599 -0.00178
C 25.81361 19.2246 0.00768
C 25.80187 17.77018 -0.0276
C 24.57855 17.1024 0.03005
C 24.58923 15.59198 -0.04078
C 25.82983 14.89297 0.02117
C 25.85063 13.4929 0.02737
C 24.61395 12.80163 -0.00498
C 24.60758 11.34884 0.00135
C 25.85916 10.66071 0.03102
C 25.81627 9.21182 0.02555
C 24.59586 8.54776 0.01423
C 24.57208 7.07 -0.00285
C 25.79212 4.99855 -0.01199
C 2.42905 32.63765 0.01913
