434
Graphene
C 0.0255 34.03969 0.01295
C 13.52942 21.98489 -0.00719
C 12.27369 21.29604 0.01364
C 12.29859 19.89437 -0.01062
C 13.47056 19.1526 -0.00033
C 13.47662 17.73199 0.03589
C 12.29827 16.97623 -0.02759
C 12.33854 15.57611 0.0402
C 13.52689 14.80573 0.00572
C 13.471 13.47291 0.03592
C 12.24883 12.76687 0.00406
C 12.29123 11.33242 0.00943
C 13.6176 10.86921 0.02841
C 13.64472 9.35421 -0.01111
C 12.38913 8.63152 -0.01275
C 12.37218 7.05499 0.00985
C 13.56775 6.33402 -0.02245
C 13.48056 4.95156 -0.00428
C 12.2701 4.26882 0.03101
C 12.2551 2.80275 -0.01536
C 13.46177 2.12642 -0.02689
C 13.48677 0.75786 -0.01046
C 12.26383 0.00183 -0.00891
C 14.74021 32.72386 0.02819
C 13.49146 23.44946 0.01641
C 15.92618 31.99174 0.00165
C 12.27903 24.17933 0.02339
C 13.49833 26.33226 -0.01634
C 9.86103 17.07321 -0.0008
C 9.77492 15.60658 0.0288
C 11.05409 14.94538 0.00393
C 11.02804 13.48531 0.00895
C 9.76817 12.857 0.00685
C 9.87592 11.4198 0.02888
C 11.11021 10.72245 -0.00482
C 11.11646 9.3297 -0.01384
C 9.94068 8.61651 0.03693
C 9.86051 7.14946 0.01745
C 11.06028 6.37289 0.00488
C 11.03289 4.96633 -0.01004
C 9.81099 4.30687 -0.02896
C 9.73719 2.88261 -0.00131
C 11.00404 2.12246 -0.01118
C 11.0172 0.73727 -0.014
C 9.82139 0.04308 0.02147
C 12.25586 32.7054 0.00373
C 13.50056 32.04299 -0.00191
C 13.50138 30.55443 0.00438
C 12.20875 29.84747 0.01291
C 12.23528 28.49675 0.00093
C 13.47177 27.75869 0.00057
C 12.25791 25.61714 -0.00334
C 11.0657 17.78261 -0.01362
C 15.9229 30.59638 -0.02971
C 14.72841 28.49997 -0.01789
C 18.39774 30.53786 -0.00368
C 17.1215 29.81429 -0.02696
C 17.1894 28.41673 -0.00114
C 18.3892 27.64473 0.00228
C 18.45347 26.21972 0.00798
C 17.20023 25.5586 0.00422
C 17.19085 24.08857 0.0351
C 18.40521 23.39472 -0.03113
C 18.44471 21.98561 0.02098
C 17.22987 21.27049 0.01848
C 17.21846 19.86549 -0.00619
C 18.44728 19.2203 -0.02162
C 18.3675 17.81825 0.00889
C 17.13978 17.06254 -0.00481
C 17.14211 15.56481 0.00979
C 18.42007 14.93495 0.01443
C 18.36737 13.50813 0.03505
C 17.19187 12.69463 -0.02815
C 17.19458 11.24255 -0.04147
C 18.44171 10.6521 -0.05302
C 18.44264 9.21225 0.00213
C 17.29733 8.46052 -0.00066
C 17.26388 7.10665 -0.00289
C 18.42104 32.00277 -0.0108
C 14.72057 29.9051 0.02894
C 17.14036 32.67422 -0.01957
C 15.94379 0.76338 0.01965
C 15.99806 27.71352 0.00444
C 16.0361 26.27673 -0.00925
C 14.76593 25.58176 0.01877
C 14.75923 24.13847 0.01363
C 15.95313 23.39344 -0.02162
C 15.94496 22.01189 0.00415
C 14.77529 21.34102 -0.0014
C 14.72504 19.93519 0.02162
C 15.91011 19.13983 0.0076
C 15.93328 17.72832 0.01241
C 14.69155 16.9779 -0.01454
C 14.68805 15.56703 0.01945
C 15.8893 14.84203 0.01416
C 15.92037 13.30288 0.03542
C 14.70721 12.58766 0.02299
C 16.17982 9.29097 0.00244
C 14.9224 8.59416 -0.01717
C 14.82345 7.06869 0.05265
C 16.00411 6.38143 -0.01952
C 15.97364 4.92597 -0.02813
C 14.73031 4.22504 0.00374
C 14.69708 2.81977 0.00052
C 15.97707 2.15809 -0.03682
C 14.73663 0.01933 0.02058
C 11.10246 19.16117 -0.00892
C 9.8859 19.88872 -0.04848
C 9.92025 21.32649 0.01572
C 3.66094 2.19215 -0.0059
C 3.75353 0.72599 -0.01386
C 2.45012 0.02715 -0.02805
C 4.86359 32.71756 0.00081
C 6.11147 31.99976 0.00245
C 6.14402 30.61132 0.02728
C 4.86454 29.80779 -0.00039
C 4.96118 28.37427 0.0064
C 6.20386 27.68237 0.00211
C 6.18503 26.30001 -0.00449
C 4.94256 25.61462 -0.01979
C 4.9823 24.18715 0.02784
C 6.16678 23.46148 -0.01977
C 6.12642 22.03531 -0.00561
C 4.94786 21.34167 0.00208
C 4.91792 19.87313 0.01707
C 6.1443 19.197 0.02769
C 6.06851 17.69313 -0.03291
C 4.78416 17.00923 -0.04999
C 4.81018 15.59005 0.04505
C 6.04546 14.91072 0.03284
C 6.07626 13.50472 -0.04307
C 4.86964 12.78234 0.03189
C 2.42349 2.81068 0.00558
C 4.87957 11.41722 0.00031
C 2.43092 4.31399 -0.02375
C 3.65109 6.46923 0.00088
C 3.66938 30.45904 -0.00198
C 2.45769 29.78474 -0.00012
C 2.52501 28.34821 -0.04306
C 3.75259 27.67073 -0.03672
C 3.67016 26.31289 0.01913
C 2.46791 25.56008 0.00267
C 2.42752 24.16034 0.00787
C 3.70806 23.45137 0.02426
C 3.7249 22.03205 0.01218
C 2.46572 21.28604 -0.01471
C 2.43428 19.85541 -0.02827
C 3.72537 19.10306 0.01078
C 3.57869 17.74481 -0.00112
C 2.37719 17.03652 0.03345
C 2.34969 15.57538 0.00748
C 3.58357 14.8447 0.00662
C 3.57052 13.43148 -0.0154
C 2.36726 12.66816 -0.01299
C 2.37068 11.29978 -0.00407
C 3.60686 10.68316 0.01138
C 3.67353 9.26321 0.03278
C 2.39948 8.48033 -0.00177
C 2.40672 7.13404 0.04421
C 3.65822 5.013 0.00828
C 6.13876 10.68807 -0.003
C 6.11815 9.28458 0.01402
C 4.90155 8.56199 0.02379
C 7.36586 11.43885 0.0276
C 8.66511 10.77412 0.01305
C 8.67486 9.31437 -0.00077
C 7.39663 8.60035 0.03368
C 7.35333 7.17517 -0.02929
C 8.58948 6.49351 -0.00966
C 8.58394 5.02433 -0.03337
C 7.34717 4.33393 0.01227
C 7.32301 2.87343 0.00873
C 8.53213 2.1494 -0.00049
C 8.58007 0.73798 0.00848
C 7.3987 0.08953 -0.01303
C 9.8417 32.72376 -0.01378
C 11.07802 31.93742 0.02635
C 11.05531 30.58282 0.0127
C 9.85495 29.85072 0.01396
C 9.81621 28.49121 0.01849
C 11.02197 27.78164 -0.01142
C 11.02518 26.37862 -0.00562
C 9.8748 25.62227 -0.00494
C 9.80022 24.25579 0.00054
C 10.99491 23.55309 0.03007
C 11.10928 22.12171 -0.00095
C 7.33833 12.87169 0.00988
C 8.5312 13.56834 -0.01343
C 8.50274 15.00147 0.01087
C 7.26277 15.68392 -0.05697
C 4.91102 7.16129 0.00907
C 6.1505 6.48972 0.00643
C 6.10439 5.07434 -0.01509
C 4.96086 4.32872 0.03267
C 4.88804 2.92019 0.02374
C 6.11754 2.12994 0.00402
C 6.11041 0.74785 0.0073
C 4.90996 0.04247 0.0174
C 7.30819 32.73462 0.03828
C 8.59349 31.98158 0.01226
C 8.55387 30.62955 -0.00279
C 18.48158 6.30532 0.00028
C 7.37229 29.9041 0.01996
C 8.55399 27.78367 0.01465
C 8.60571 26.3259 -0.00074
C 7.38133 25.59966 -0.00518
C 7.43107 24.1596 0.0086
C 8.6189 23.46294 -0.00643
C 8.6616 22.00206 0.017
C 7.3867 21.30569 -0.03113
C 7.37602 19.90083 -0.02566
C 8.66176 19.25299 -0.00094
C 8.63128 17.78844 0.02322
C 7.3634 17.08294 -0.00725
C 7.33058 28.50897 -0.03996
C 18.45642 4.92884 -0.02213
C 17.18768 4.22943 0.03698
C 17.17969 2.76034 -0.00109
C 30.69136 14.85193 -0.0405
C 30.67365 13.42393 -0.01303
C 29.44414 12.74979 -0.01461
C 29.42825 11.25992 -0.02155
C 30.70711 10.55826 -0.00944
C 30.71321 9.16638 -0.03735
C 29.46293 8.4108 -0.00971
C 29.49449 6.97609 0.01518
C 30.77592 6.31727 0.01908
C 30.73608 4.92351 0.07705
C 29.51007 4.16169 0.0103
C 29.53039 2.75718 0.02108
C 30.76892 2.02302 0.00716
C 30.81254 0.63329 0.00307
C 29.58229 34.05295 0.00346
C 32.01386 32.56398 0.01713
C 33.2877 31.85997 -0.01694
C 33.23651 30.4534 0.01428
C 31.93546 29.80691 -0.02142
C 31.94544 28.40048 0.0544
C 33.15951 27.73067 0.00026
C 33.16874 26.27854 0.00682
C 31.81565 25.577 -0.01779
C 29.45608 15.62445 0.01705
C 31.96102 24.21314 0.03794
C 29.46944 17.10696 0.0101
C 30.73947 19.18973 0.03531
C 28.22094 14.91675 -0.00621
C 28.25404 13.47078 0.02611
C 26.99097 12.77453 0.02198
C 27.02076 11.34826 0.01094
C 28.16853 10.61534 0.00235
C 28.22694 9.21367 0.01495
C 27.03945 8.52632 0.01259
C 27.0298 7.03557 0.01799
C 28.2345 6.3041 0.01699
C 28.32892 4.89949 -0.00416
C 27.03742 4.2295 0.01177
C 27.04848 2.80505 0.04266
C 28.26946 2.15356 0.01324
C 28.33418 0.72826 0.0014
C 27.08692 34.07711 0.00924
C 29.54066 32.62754 0.02326
C 30.7213 31.93507 0.00261
C 30.69145 30.53949 0.03265
C 29.45579 29.81193 -0.02049
C 29.47323 28.41563 -0.01854
C 30.68527 27.76232 -0.01415
C 30.63402 26.32314 -0.03039
C 29.54243 19.89102 0.01836
C 30.73199 17.77022 -0.00669
C 33.21855 23.4599 0.01927
C 33.20482 22.04141 0.01574
C 31.90984 21.48337 -0.02383
C 34.41758 24.15798 0.03076
C 1.21247 23.39882 0.00723
C 1.20292 21.99047 0.02712
C 34.38923 21.31075 -0.02213
C 34.41364 19.93245 0.01951
C 1.23254 19.21529 -0.01678
C 1.15595 17.74227 0.01223
C 34.36216 17.00781 0.00648
C 34.30247 15.66194 0.02114
C 1.09973 14.89538 -0.02957
C 1.16037 13.44428 0.00343
C 34.31199 12.69949 -0.02656
C 34.35727 11.32733 -0.02442
C 1.16292 10.62665 -0.00027
C 1.19921 9.19059 -0.00583
C 34.39268 8.45735 -0.02302
C 0.01223 7.02143 -0.02849
C 1.24962 6.39293 0.02931
C 1.27421 5.00215 0.00628
C 0.05714 4.22737 -0.0345
C 0.05383 2.84894 -0.00931
C 1.22208 2.15642 -0.00939
C 1.25613 0.72807 -0.00468
C 0.01063 25.62123 -0.05239
C 1.25096 26.26985 -0.00598
C 1.24693 27.6531 -0.00439
C 34.42781 28.42154 -0.01037
C 31.94867 20.00725 -0.01429
C 33.18567 19.23149 -0.0136
C 33.10349 17.77801 0.00594
C 31.91085 17.05705 -0.02474
C 31.88447 15.55276 0.00369
C 33.08855 14.90517 0.00455
C 33.09957 13.44031 -0.00644
C 31.8815 12.75474 -0.01839
C 31.95782 11.2828 0.00137
C 33.16203 10.58923 0.00199
C 33.14164 9.20229 0.04381
C 26.98851 15.61817 0.00194
C 31.97382 8.42177 0.02806
C 33.21433 6.30276 -0.00069
C 33.22765 4.87332 0.04926
C 31.97591 4.16925 -0.03838
C 32.01253 2.77612 0.00349
C 33.28185 2.06491 -0.00323
C 33.26092 0.61398 -0.00841
C 32.03889 34.04473 0.0001
C 0.04721 32.60171 -0.02927
C 1.2536 31.9432 -0.01404
C 1.27793 30.50464 0.01027
C 0.02619 29.80368 0.01831
C 31.95298 7.04074 0.01504
C 3.66056 31.91132 0.00535
C 27.02495 17.02096 0.04185
C 28.31878 19.30914 0.01257
C 19.62665 7.06916 -0.00652
C 20.89775 6.38414 0.0058
C 20.91751 4.91888 -0.00865
C 19.69041 4.25299 0.00675
C 19.6762 2.83245 -0.00311
C 20.94153 2.14627 0.00742
C 20.91852 0.67892 -0.01594
C 19.62685 0.01548 0.0106
C 22.1084 32.69261 -0.01154
C 23.36726 32.01148 -0.01721
C 23.31749 30.58313 -0.02422
C 22.10529 29.87781 0.01277
C 22.05317 28.43365 0.00096
C 23.34913 27.79653 -0.01527
C 23.36812 26.25483 0.01087
C 22.11559 25.56849 0.00199
C 22.08821 24.19264 0.01511
C 23.27625 23.40724 -0.00478
C 23.40047 21.99212 -0.01662
C 22.15908 21.25799 -0.01185
C 22.14534 19.83151 0.01126
C 23.38955 19.21626 0.01852
C 23.33161 17.81121 -0.00381
C 19.66422 8.49468 -0.04076
C 22.07245 17.07057 0.03046
C 20.8663 9.18007 -0.00703
C 19.64459 11.3603 -0.04422
C 18.41638 2.10195 -0.00491
C 18.36549 0.75034 0.03338
C 17.16968 0.01422 -0.0258
C 19.69609 32.69526 -0.0331
C 20.85251 31.98811 -0.00316
C 20.86486 30.53793 0.02188
C 19.65265 29.78348 -0.01979
C 19.63273 28.35844 0.02691
C 20.90764 27.66479 -0.01581
C 20.89676 26.28057 0.01452
C 19.7033 25.49005 0.04892
C 19.6734 24.11201 -0.00111
C 20.89034 23.41982 -0.03557
C 21.00649 22.00189 0.03754
C 19.70796 21.24604 0.01739
C 19.64138 19.86458 0.00755
C 20.91614 19.18616 -0.0054
C 20.80869 17.77274 0.00667
C 19.57229 17.03838 0.00143
C 19.59209 15.62204 -0.017
C 20.79102 14.9617 0.00364
C 20.86786 13.47609 -0.00831
C 19.60097 12.78488 -0.02957
C 20.84314 10.64355 0.00654
C 22.06316 15.62247 0.0296
C 23.2803 14.87423 0.03374
C 23.33393 13.47384 -0.02845
C 25.76902 14.92643 -0.00229
C 25.77199 13.47909 -0.00938
C 24.50756 12.74631 -0.0264
C 24.57486 11.35185 -0.01154
C 25.79712 10.72507 0.00684
C 25.80433 9.24255 -0.01052
C 24.59275 8.58783 -0.01679
C 24.61291 7.19913 0.00367
C 25.80933 6.42039 0.04306
C 25.78273 4.95243 0.00996
C 24.5776 4.23005 0.00195
C 24.54636 2.82359 -0.00802
C 25.78695 2.15806 -0.00218
C 25.79007 0.71066 -0.01654
C 24.57554 0.00087 -0.00037
C 27.07354 32.66942 -0.0032
C 28.24653 31.97833 0.00622
C 28.22008 30.54521 -0.02815
C 27.03226 29.80124 -0.00942
C 26.99097 28.34443 0.00487
C 28.25527 27.56638 0.00826
C 28.50816 26.10437 -0.00294
C 27.05556 19.77049 0.00152
C 24.57797 15.57137 -0.01199
C 24.50715 17.05763 -0.009
C 25.78507 17.71066 -0.00285
C 25.87862 19.16559 0.01423
C 22.10704 12.76354 -0.03213
C 22.05922 11.42485 0.02239
C 23.31262 10.64287 0.01153
C 23.31325 9.2781 0.02734
C 22.15481 8.62403 -0.0055
C 22.16566 7.20715 0.01515
C 23.39504 6.44184 -0.00225
C 23.39682 5.03037 0.00071
C 22.19566 4.28292 -0.01107
C 22.17294 2.9016 -0.01586
C 23.34921 2.15584 -0.01971
C 28.22154 17.80827 0.02316
C 23.33404 0.71812 -0.02118
C 24.60337 32.62962 -0.00178
C 25.78101 31.91189 0.00768
C 25.80551 30.53369 -0.0276
C 24.57993 29.87405 0.03005
C 24.55573 28.44687 -0.04078
C 25.74118 27.66766 0.02117
C 25.72984 26.26378 0.02737
C 24.67147 25.47243 -0.00498
C 24.4853 24.116 0.00135
C 24.73434 21.40001 0.03102
C 24.65827 19.92419 0.02555
C 22.10583 0.03292 0.00733
C 2.42898 32.65902 0.01984
