263
Graphene
C 34.33564 0.10301 0.01295
C 13.47908 26.22945 0.01852
C 13.5455 27.66015 0.01126
C 12.30548 28.3874 -0.01185
C 12.28118 29.81157 -0.01662
C 13.43085 30.46743 -0.00478
C 13.42643 31.86567 0.01511
C 12.27124 32.65682 0.00199
C 9.7678 33.98315 0.01087
C 11.03788 0.56132 -0.01527
C 11.11143 19.13837 0.00096
C 9.88079 19.90369 0.01277
C 9.88638 21.301 -0.02422
C 11.10455 21.90602 -0.01721
C 11.09967 23.3607 -0.01154
C 9.85601 24.11237 0.0106
C 9.85762 25.62321 -0.01594
C 11.03826 26.31798 0.00742
C 11.08 27.70991 -0.00311
C 9.76825 28.46164 0.00675
C 9.76071 29.95312 -0.00865
C 11.01099 30.53065 0.0058
C 11.00566 31.9775 -0.00652
C 9.74815 32.56248 -0.04076
C 7.33988 0.08254 -0.00703
C 8.59975 0.77515 0.00654
C 8.52307 2.21311 -0.04422
C 7.26895 2.80138 -0.02957
C 7.36234 17.13376 -0.00831
C 8.56292 17.8678 0.00364
C 12.21914 25.57219 -0.00381
C 8.63865 19.22829 -0.017
C 12.28722 24.09972 0.03046
C 13.47545 22.01743 0.03374
C 18.57749 27.71216 -0.01199
C 17.34232 28.33646 -0.009
C 17.17644 29.77523 -0.00285
C 18.41815 30.54128 0.01423
C 18.41601 31.99247 0.02555
C 17.26854 32.72328 0.03102
C 14.7039 33.95217 0.00135
C 15.95488 0.63384 -0.00498
C 15.97021 2.04889 0.02737
C 16.88337 18.1001 0.02117
C 15.71364 18.76433 -0.04078
C 14.72054 19.92098 0.03005
C 14.74861 21.40009 -0.0276
C 15.95616 21.98283 0.00768
C 16.07829 23.3612 -0.00178
C 14.78502 24.1252 0.00733
C 14.78809 25.59864 -0.02118
C 15.97818 26.28708 -0.01971
C 16.10374 27.68244 -0.01586
C 14.81837 28.37566 -0.01107
C 14.73525 29.77714 0.00071
C 15.97535 30.54043 -0.00225
C 15.95288 31.9377 0.01515
C 14.68121 32.54095 -0.0055
C 12.33939 0.06023 0.02734
C 13.59431 0.72993 0.01153
C 13.74284 19.00801 0.02239
C 12.26369 19.71434 -0.03213
C 12.29072 21.2078 -0.02845
C 13.52711 23.43697 0.0296
C 18.5069 26.27248 -0.00229
C 7.37493 19.86719 0.00143
C 8.62571 21.98099 -0.0054
C 3.64562 0.84012 0.01848
C 3.58904 2.25108 0.02098
C 2.44546 3.01667 -0.03113
C 2.45688 4.3871 0.0351
C 3.72928 5.15235 0.00422
C 3.63241 6.51408 0.00798
C 2.43016 7.16578 0.00228
C 2.46028 8.62134 -0.00114
C 3.61739 9.30134 -0.02696
C 3.53487 10.69891 -0.00368
C 2.47461 11.40675 -0.0108
C 2.40956 12.87925 -0.01957
C 3.5816 13.54688 0.02058
C 3.78439 14.88003 0.01965
C 2.50438 15.5367 -0.03682
C 2.51962 16.96164 0.00052
C 3.67431 17.73805 0.00374
C 3.6978 19.16851 -0.02813
C 2.48064 19.84247 -0.01952
C 2.42756 21.25869 0.05265
C 3.618 21.99614 -0.01717
C 3.60823 23.41381 0.00244
C 2.29421 24.14815 0.02299
C 2.39836 25.55632 0.03542
C 3.61795 26.35625 0.01416
C 3.66159 27.77873 0.01945
C 2.37915 28.40611 -0.01454
C 2.44857 29.79929 0.01241
C 3.60213 30.63586 0.0076
C 2.40265 0.09864 -0.00619
C 7.39972 21.28418 0.00667
C 4.79884 32.77995 -0.02162
C 6.09887 30.59104 -0.00481
C 8.55493 23.49504 0.00755
C 7.25801 24.11143 0.01739
C 7.27457 25.53477 0.03754
C 8.60966 26.26512 -0.03557
C 8.54361 27.67122 -0.00111
C 7.22608 28.3544 0.04892
C 7.29097 29.84662 0.01452
C 8.49938 30.52696 -0.01581
C 8.50161 31.93051 0.02691
C 7.24419 32.73431 -0.01979
C 4.88153 0.09717 0.02188
C 6.0799 0.77436 -0.00316
C 6.04281 2.24152 -0.0331
C 4.76009 3.05492 -0.0258
C 4.92602 4.38928 0.03338
C 4.92831 15.70883 -0.00491
C 4.91849 17.02989 -0.00109
C 6.1676 17.74527 0.03698
C 6.09363 19.1955 -0.02213
C 4.84307 19.90229 0.00028
C 4.88285 21.33029 -0.00289
C 6.18436 21.91217 -0.00066
C 6.11489 23.34343 0.00213
C 4.81341 24.0965 -0.05302
C 4.83962 25.53902 -0.04147
C 6.037 26.29635 -0.02815
C 6.05415 27.69293 0.03505
C 4.80333 28.42677 0.01443
C 4.88248 29.91514 0.00979
C 6.06421 32.0355 0.00889
C 3.62499 32.05457 0.02162
C 17.20617 25.51224 -0.00938
C 17.61891 17.04868 -0.01154
C 33.16719 2.27427 -0.00323
C 31.91914 2.88318 0.00349
C 31.90267 4.36714 -0.03838
C 33.17306 5.06607 0.04926
C 33.11864 6.44802 -0.00069
C 31.93362 7.13173 0.01504
C 31.91261 8.65682 0.02806
C 33.18986 9.32157 0.04381
C 33.17979 10.76392 0.00199
C 31.90461 11.42619 0.00137
C 31.94666 12.8194 -0.01839
C 33.152 13.5519 -0.00644
C 33.14308 14.93112 0.00455
C 31.79966 15.75255 0.00369
C 31.909 17.03449 -0.02474
C 33.14406 17.94845 0.00594
C 33.21721 19.39854 -0.0136
C 33.06752 21.79343 -0.01429
C 32.99333 23.24796 -0.02383
C 31.81877 24.11463 0.01574
C 31.78028 25.53907 0.01927
C 33.15126 26.27571 0.03794
C 33.10172 27.69614 -0.01779
C 31.87782 28.47684 0.00682
C 31.94318 29.85055 0.00026
C 33.13399 30.58734 0.0544
C 33.15926 31.98668 -0.02142
C 32.01235 32.81985 0.01428
C 29.45577 0.01416 -0.01694
C 33.19355 0.8509 -0.00841
C 30.73606 0.69909 0.01713
C 31.97742 0.16418 0.0001
C 1.20197 32.03154 -0.01404
C 1.15061 0.82451 -0.00468
C 1.16256 2.29468 -0.00939
C 34.39221 2.9616 -0.00931
C 34.42894 4.40727 -0.0345
C 1.24366 5.09287 0.00628
C 1.16507 6.51593 0.02931
C 34.31634 7.22697 -0.02849
C 34.38899 8.66315 -0.02302
C 1.18483 9.29687 -0.00583
C 1.22055 10.66084 -0.00027
C 0.00389 11.38213 -0.02442
C 34.3573 12.82383 -0.02656
C 1.0996 13.61348 0.00343
C 1.18797 15.00193 -0.02957
C 34.41546 15.72413 0.02114
C 0.01255 17.11656 0.00648
C 1.26645 17.70091 0.01223
C 1.2631 19.08495 -0.01678
C 0.10393 19.80449 0.01951
C 34.3463 21.30019 -0.02213
C 1.15831 21.96138 0.02712
C 1.07169 23.38873 0.00723
C 34.30257 24.05966 0.03076
C 34.28572 25.46869 -0.05239
C 1.05461 26.21355 -0.00598
C 1.08309 27.66454 -0.00439
C 34.33359 28.34503 -0.01037
C 34.37047 29.86499 0.01831
C 1.23008 30.59435 0.01027
C 34.38163 32.70163 -0.02927
C 17.21647 24.1291 -0.0264
C 30.7444 2.16002 0.00346
C 29.5223 4.29074 0.00716
C 24.58677 2.82696 0.01495
C 24.6908 4.19085 0.00235
C 25.86297 4.88968 0.01094
C 24.58598 29.85222 0.02198
C 25.85076 30.36186 0.02611
C 25.91414 31.88426 -0.00621
C 24.61454 32.5212 0.00194
C 22.08068 0.04731 0.04185
C 23.32313 0.64308 0.02316
C 23.35551 2.09029 0.01257
C 22.15748 2.87916 0.00152
C 21.99738 29.71135 -0.00294
C 23.29948 30.32604 0.00826
C 23.42512 31.85655 0.00487
C 22.18594 32.72429 -0.00942
C 19.72631 0.00113 -0.02815
C 20.92941 0.7257 0.00622
C 20.9706 2.15933 -0.0032
C 19.69184 2.94018 -0.00037
C 19.84165 4.27287 -0.01654
C 19.78437 28.47892 -0.00218
C 19.67713 29.83825 -0.00802
C 20.89722 30.55666 0.00195
C 20.97119 32.04172 0.00996
C 19.67127 32.65247 0.04306
C 17.27052 0.00508 0.00367
C 18.49575 0.72795 -0.01679
C 18.42022 2.11233 -0.01052
C 17.18774 2.67048 0.00684
C 25.81352 2.11342 0.01259
C 29.52373 2.85852 0.00307
C 25.78801 0.7392 0.01799
C 27.02549 32.69958 -0.00416
C 30.69109 5.06805 0.02108
C 30.71399 6.46316 0.0103
C 29.43362 7.19666 0.07705
C 29.44235 8.66485 0.01908
C 30.72223 9.30536 0.01518
C 30.6292 10.70618 -0.00971
C 29.40213 11.23994 -0.03735
C 29.32618 12.62347 -0.00944
C 30.651 13.45218 -0.02155
C 30.53428 14.82768 -0.01461
C 30.53264 26.31667 -0.01303
C 30.53103 27.79137 -0.0405
C 29.37469 28.58294 0.01705
C 29.5957 29.96046 0.0101
C 30.81723 30.67005 -0.00669
C 30.78989 32.09742 0.03531
C 29.52436 32.7566 0.01836
C 27.02641 0.04064 -0.03039
C 28.32348 0.77649 -0.01415
C 28.28949 2.15422 -0.01854
C 27.061 2.91369 -0.02049
C 27.01263 4.2834 0.03265
C 28.31813 5.04063 0.00261
C 28.28643 6.45922 0.02326
C 28.32411 9.3929 0.00924
C 28.26998 13.46206 0.0014
C 27.29633 29.74698 0.01324
C 28.3687 30.61504 0.04266
C 28.29791 32.00469 0.01177
C 24.60364 33.97367 0.01699
C 2.42868 32.79125 -0.0014
