356
Graphene
C 0.00491 0.02527 0.01295
C 13.5408 31.93948 -0.0108
C 13.48511 30.62813 -0.00368
C 12.29951 30.00769 -0.02696
C 12.99893 14.56053 -0.00114
C 12.33185 12.8051 0.00228
C 12.3628 8.56245 0.00798
C 12.4566 7.04668 0.00422
C 13.64069 6.17269 0.0351
C 12.29139 32.72807 -0.01957
C 13.42615 4.80358 -0.03113
C 12.26427 2.72577 0.01848
C 13.54979 2.07043 -0.00619
C 13.5424 0.6498 -0.02162
C 12.2768 0.06701 0.00889
C 14.77195 32.5992 -0.00481
C 16.01297 31.9377 0.00979
C 15.97452 30.46427 0.01443
C 15.85036 5.01548 0.03505
C 12.17752 4.15164 0.02098
C 14.69707 4.18886 -0.02815
C 9.79802 33.99822 0.02058
C 10.98463 2.09795 -0.03682
C 9.86471 32.61362 -0.02162
C 11.10717 31.9876 0.00415
C 11.06212 30.56668 -0.0014
C 9.75593 29.85935 0.02162
C 9.77883 28.36738 0.0076
C 9.94913 15.80083 0.01241
C 10.99827 15.14279 -0.01454
C 11.15449 13.70442 0.01945
C 10.97133 0.70762 0.01965
C 9.98132 12.95366 0.01416
C 11.0991 10.7297 0.02299
C 11.19746 9.35857 0.00244
C 9.91427 8.56233 -0.01717
C 9.93149 7.19843 0.05265
C 11.15039 6.41731 -0.01952
C 11.03096 4.92756 -0.02813
C 9.78193 4.20363 0.00374
C 9.78358 2.75437 0.00052
C 9.99813 11.38991 0.03542
C 14.72034 2.73606 -0.04147
C 15.99726 2.06037 -0.05302
C 16.06523 0.61795 0.00213
C 19.58526 7.20929 0.00667
C 20.89395 6.39065 0.00143
C 20.85088 5.0142 -0.017
C 19.53955 4.37133 0.00364
C 19.59536 2.91502 -0.00831
C 20.81736 2.17357 -0.02957
C 20.78971 0.73805 -0.04422
C 19.56924 34.03609 0.00654
C 21.12434 9.73666 -0.0054
C 22.10455 32.63869 -0.00703
C 23.38163 30.50149 -0.00652
C 22.15695 29.86907 0.0058
C 22.04882 28.34931 -0.00865
C 23.31827 27.61462 0.00675
C 23.30932 26.12306 -0.00311
C 22.30323 25.04443 0.00742
C 23.16511 23.59769 -0.01594
C 23.18332 22.13153 0.0106
C 23.34554 31.93479 -0.04076
C 21.07768 13.49036 0.00755
C 20.86581 14.83898 0.01739
C 19.63814 15.81087 0.03754
C 14.75393 34.03285 -0.00066
C 17.27639 32.52932 -0.00289
C 18.45057 31.73635 0.00028
C 18.51854 30.25002 -0.02213
C 17.1973 29.945 0.03698
C 18.55442 15.17875 -0.00109
C 18.52222 6.47688 -0.00491
C 18.34551 5.11559 0.03338
C 17.10921 4.33939 -0.0258
C 17.18525 2.93378 -0.0331
C 18.43621 2.16892 -0.00316
C 18.40845 0.73181 0.02188
C 17.24869 34.02888 -0.01979
C 19.61184 32.54028 0.02691
C 20.81746 31.94709 -0.01581
C 20.89247 30.53607 0.01452
C 19.8778 29.60258 0.04892
C 20.62225 27.96674 -0.00111
C 20.51826 17.30318 -0.03557
C 7.34754 0.04526 0.01363
C 22.17285 20.26912 -0.01154
C 8.62314 0.7007 0.01877
C 7.35717 2.89597 0.00444
C 2.47258 7.2246 -0.00562
C 3.65641 6.49448 -0.00494
C 3.62878 5.02695 0.00054
C 2.42008 4.35386 0.03007
C 2.39727 2.92205 -0.00095
C 3.64061 2.14131 0.01572
C 3.66111 0.69735 -0.04848
C 2.4016 0.07298 -0.00892
C 2.45106 8.6395 -0.01142
C 4.85126 32.62781 -0.01362
C 6.16679 30.48999 0.0288
C 4.94066 29.86545 0.00393
C 4.88392 28.46991 0.00895
C 6.11995 27.74672 0.00685
C 6.20075 26.35783 0.02888
C 4.97212 25.59721 -0.00482
C 5.03991 24.08989 -0.01384
C 6.35646 23.30576 0.03693
C 6.10774 31.91017 -0.0008
C 6.34681 21.75507 0.01745
C 3.7128 9.25968 0.01849
C 2.45707 11.35327 0.0127
C 3.70001 30.54807 -0.05697
C 2.47155 29.82906 0.01087
C 2.41994 28.39421 -0.01343
C 3.76142 27.67638 0.00988
C 3.76257 26.2683 0.0276
C 2.50195 25.52523 0.01305
C 2.4967 24.12761 -0.00077
C 3.76016 23.41943 0.03368
C 3.70367 10.68806 0.01396
C 3.7219 22.10469 -0.02929
C 2.38625 19.91446 -0.03337
C 3.5873 19.16655 0.01227
C 3.68712 17.75152 0.00873
C 2.44945 17.14435 -0.00049
C 2.44925 15.69136 0.00848
C 3.62671 14.93834 -0.01303
C 3.65286 13.51344 -0.01378
C 2.42143 12.851 0.02635
C 2.45661 21.32038 -0.00966
C 4.99551 21.30146 0.00488
C 4.79182 19.86643 -0.01004
C 6.10067 19.28161 -0.02896
C 8.55856 27.79173 0.00406
C 7.44215 25.65481 0.00943
C 7.33217 24.3349 0.02841
C 7.2596 20.21827 -0.01111
C 8.73439 17.57409 -0.01275
C 7.47898 17.11939 0.00985
C 7.33937 15.5799 -0.02245
C 8.67337 14.95972 -0.00428
C 7.36151 28.48025 0.03592
C 8.72513 13.57457 0.03101
C 7.39004 11.44146 -0.02689
C 8.68492 10.681 -0.01046
C 8.64433 9.32515 -0.00891
C 7.33737 8.59294 0.02819
C 7.35011 7.04265 0.00165
C 8.66739 6.44936 -0.02971
C 8.62528 5.0496 0.02894
C 7.36639 4.32443 -0.01789
C 7.47745 12.81943 -0.01536
C 7.38822 29.90032 0.00572
C 8.50931 30.62912 0.0402
C 8.64556 31.9785 -0.02759
C 6.11195 17.84029 -0.00131
C 4.91334 17.11281 -0.01118
C 4.95855 15.62612 -0.014
C 6.14368 14.90169 0.02147
C 6.22366 13.47571 0.00373
C 4.95922 12.76403 -0.00191
C 4.97852 11.3851 0.00438
C 6.21391 10.67633 0.01291
C 6.15394 9.25629 0.00093
C 4.93679 8.57106 0.00057
C 4.94257 7.14698 -0.01634
C 6.11107 6.40993 -0.00334
C 6.08687 5.02498 0.02339
C 4.87163 4.28294 0.01641
C 4.83898 2.83192 -0.00719
C 6.13635 2.14169 0.01364
C 6.10948 0.71714 -0.01062
C 4.91062 34.05524 -0.00033
C 7.37739 32.67795 0.03589
C 8.55665 2.15584 -0.00925
C 23.10904 19.33329 -0.01721
C 23.15747 17.81016 -0.02422
C 21.86647 16.9953 0.01277
C 31.96778 32.73944 0.01713
C 33.20854 32.0203 -0.01694
C 33.21452 30.56968 0.01428
C 31.96785 29.90713 -0.02142
C 32.00925 28.46336 0.0544
C 33.23218 27.669 0.00026
C 33.23491 26.21821 0.00682
C 31.9694 25.57131 -0.01779
C 29.49844 0.04033 0.00346
C 31.97202 24.11848 0.03794
C 33.1306 22.03607 0.01574
C 31.85699 21.29672 -0.02383
C 31.86669 19.88061 -0.01429
C 33.16885 19.17381 -0.0136
C 33.13984 17.79798 0.00594
C 31.8836 17.03284 -0.02474
C 31.85929 15.64174 0.00369
C 33.16695 14.94019 0.00455
C 33.22425 23.4285 0.01927
C 33.15175 13.52815 -0.00644
C 30.76045 0.74078 0.00307
C 29.50002 2.74566 0.02108
C 30.67769 22.03422 -0.01415
C 29.40944 21.312 -0.03039
C 29.40225 19.94623 0.01836
C 30.67896 19.20467 0.03531
C 30.62395 17.75915 -0.00669
C 29.42181 17.04339 0.0101
C 29.44752 15.62617 0.01705
C 30.64385 14.91567 -0.0405
C 30.82664 2.14294 0.00716
C 30.6711 13.49521 -0.01303
C 29.49969 11.34829 -0.02155
C 30.71814 10.63317 -0.00944
C 30.73773 9.14568 -0.03735
C 29.50366 8.54075 -0.00971
C 29.48142 7.05643 0.01518
C 30.71096 6.35398 0.01908
C 30.71539 4.94896 0.07705
C 29.50274 4.23381 0.0103
C 29.47657 12.75191 -0.01461
C 31.9532 12.78492 -0.01839
C 31.88843 11.34482 0.00137
C 33.1433 10.66415 0.00199
C 1.07719 19.23573 -0.01678
C 1.16775 17.82144 0.01223
C 34.33755 17.14065 0.00648
C 34.38063 15.63882 0.02114
C 1.18628 14.94555 -0.02957
C 1.22813 13.52087 0.00343
C 0.03049 12.85128 -0.02656
C 34.34615 11.37738 -0.02442
C 34.36842 19.91169 0.01951
C 1.18065 10.62539 -0.00027
C 34.40985 8.53717 -0.02302
C 34.38982 7.12171 -0.02849
C 1.18443 6.45794 0.02931
C 1.20746 5.0012 0.00628
C 0.01478 4.27078 -0.0345
C 0.00317 2.79449 -0.00931
C 1.21257 2.09101 -0.00939
C 1.17189 0.74184 -0.00468
C 1.20601 9.24226 -0.00583
C 34.37166 21.31567 -0.02213
C 1.20574 21.9866 0.02712
C 1.22345 23.45239 0.00723
C 33.1995 9.25003 0.04381
C 31.98307 8.51265 0.02806
C 32.00469 7.04826 0.01504
C 33.23316 6.38642 -0.00069
C 33.24824 4.95633 0.04926
C 31.96536 4.31491 -0.03838
C 31.9653 2.86325 0.00349
C 33.21744 2.1713 -0.00323
C 33.23865 0.75754 -0.00841
C 31.94923 0.0336 0.0001
C 0.01776 32.68767 -0.02927
C 1.28181 31.9868 -0.01404
C 1.23788 30.56678 0.01027
C 0.01363 29.84251 0.01831
C 34.42528 28.38356 -0.01037
C 1.20026 27.75383 -0.00439
C 1.2642 26.27143 -0.00598
C 0.02546 25.53103 -0.05239
C 0.01491 24.18402 0.03076
C 30.66522 23.43748 -0.01854
C 29.44943 24.1937 -0.02049
C 29.55942 25.55684 0.03265
C 30.78542 26.30424 0.00261
C 24.62076 25.5464 -0.01107
C 24.546 24.1777 -0.01586
C 25.74955 23.45245 -0.01971
C 25.68367 22.04968 -0.02118
C 24.42624 21.37035 0.00733
C 24.43585 20.0112 -0.00178
C 25.71158 19.26096 0.00768
C 25.69826 17.79412 -0.0276
C 25.85103 26.22658 0.00071
C 24.40304 17.04917 0.03005
C 25.76432 14.86994 0.02117
C 25.71923 13.48078 0.02737
C 24.48614 12.70562 -0.00498
C 24.61563 11.26345 0.00135
C 25.819 10.5473 0.03102
C 25.88937 9.17887 0.02555
C 24.63148 8.43281 0.01423
C 24.52564 7.05057 -0.00285
C 24.45726 15.55072 -0.04078
C 25.78725 27.65749 -0.00225
C 24.52803 28.38384 0.01515
C 24.54923 29.80548 -0.0055
C 22.07458 15.58048 0.00096
C 23.21823 14.78205 -0.01527
C 23.21387 13.38422 0.01087
C 21.98888 12.43515 0.00199
C 21.99467 10.90929 0.01511
C 23.3417 10.60917 -0.00478
C 23.46195 9.18086 -0.01662
C 22.09827 8.57392 -0.01185
C 22.12232 7.10292 0.01126
C 23.35002 6.4357 0.01852
C 23.28639 5.04596 -0.00381
C 22.11505 4.2801 0.03046
C 22.05249 2.84777 0.0296
C 23.26082 2.15039 0.03374
C 23.2752 0.70458 -0.02845
C 22.04939 0.0053 -0.03213
C 24.56997 32.61125 0.02239
C 25.80508 31.90665 0.01153
C 25.84302 30.53491 0.02734
C 25.74544 6.2803 -0.009
C 3.59937 31.98725 -0.00725
C 25.78501 4.92889 -0.01199
C 24.46598 2.81991 -0.00938
C 27.03224 11.27456 0.04185
C 28.31539 10.6294 0.00194
C 28.29039 9.22791 -0.00621
C 27.0458 8.4672 0.02611
C 27.03345 7.0471 0.02198
C 28.23197 6.31368 0.01094
C 28.23345 4.92269 0.00235
C 27.04151 4.26001 0.01495
C 26.99948 12.74745 0.02316
C 26.95306 2.83553 0.01259
C 28.22874 0.72137 0.01699
C 27.02434 34.07153 -0.00416
C 29.4831 32.67614 0.01177
C 30.73071 31.99635 0.04266
C 30.74789 30.53869 0.01324
C 29.47262 29.85086 0.0014
C 29.51417 28.46046 0.00924
C 30.76204 27.77481 0.02326
C 28.19421 2.12549 0.01799
C 28.19506 13.45447 0.01257
C 28.19757 14.95249 0.00152
C 26.99247 15.6028 -0.00294
C 25.78294 2.11027 -0.0264
C 25.74703 0.67559 -0.01154
C 24.53804 0.05208 0.00684
C 27.11253 32.68492 -0.01052
C 28.24538 31.97853 -0.01679
C 28.25516 30.52512 0.00367
C 27.03889 29.79651 0.04306
C 27.02934 28.42278 0.00996
C 28.26572 27.73468 0.00195
C 28.38875 26.29101 -0.00802
C 27.09518 25.60613 -0.00218
C 27.0134 24.22062 -0.01654
C 28.15335 23.47899 -0.00037
C 28.16649 22.02812 -0.0032
C 26.90578 21.31222 0.00622
C 26.92953 19.92871 -0.02815
C 28.14572 19.25246 -0.00942
C 28.08445 17.85768 0.00487
C 26.91041 17.08409 0.00826
C 24.5794 4.21002 -0.00229
C 2.50055 32.74689 0.02322
