276
Graphene
C 0.01335 0.0289 0.01295
C 9.86464 4.22122 0.00096
C 11.02907 5.00942 0.01277
C 11.05029 6.42194 -0.02422
C 9.84626 7.09066 -0.01721
C 9.83583 8.59005 -0.01154
C 9.89317 21.31772 0.0106
C 11.02015 21.95237 -0.01594
C 11.03499 23.37078 0.00742
C 9.81962 24.05725 -0.00311
C 9.84308 25.54925 0.00675
C 11.1069 27.70948 -0.00865
C 9.89141 28.35739 0.0058
C 9.89665 29.81373 -0.00652
C 11.13632 30.48651 -0.04076
C 9.80779 2.90343 -0.01527
C 11.06798 31.90392 -0.00703
C 7.36807 34.03011 -0.04422
C 8.55619 0.69072 -0.02957
C 8.66958 2.08047 -0.00831
C 7.34485 2.84774 0.00364
C 7.36151 4.29313 -0.017
C 8.61959 4.91998 0.00143
C 8.57385 6.43624 0.00667
C 7.32016 7.14116 -0.0054
C 7.39485 8.55262 0.00755
C 8.67671 9.19981 0.01739
C 7.41452 19.90701 0.03754
C 7.38734 21.28784 -0.03557
C 8.61449 22.02002 -0.00111
C 8.61803 23.40261 0.04892
C 9.85941 32.69623 0.00654
C 11.08255 2.17597 0.01087
C 11.05045 0.70922 0.00199
C 9.80986 0.05464 0.01511
C 18.48942 6.36146 -0.00498
C 17.24156 7.10098 0.02737
C 17.22285 8.56298 0.02117
C 18.49364 9.20995 -0.04078
C 18.42281 10.6028 0.03005
C 18.4314 32.02348 -0.0276
C 17.20444 32.60464 0.00768
C 14.70045 34.03921 -0.00178
C 15.98071 0.6998 0.00733
C 16.03442 2.12817 -0.02118
C 14.75509 2.86652 -0.01971
C 14.78427 4.26617 -0.01586
C 15.95385 5.04042 -0.01107
C 15.96292 6.44299 0.00071
C 14.72038 7.05704 -0.00225
C 14.79764 8.51286 0.01515
C 15.94584 9.2396 -0.0055
C 12.29422 32.63403 -0.00478
C 13.49044 31.95825 -0.01662
C 13.46754 30.53186 -0.01185
C 12.37132 29.79266 0.01126
C 12.33308 7.12726 0.01852
C 13.52402 6.34162 -0.00381
C 7.39224 24.14258 0.01452
C 13.53495 4.94514 0.03046
C 12.32107 2.7843 0.03374
C 13.48855 2.12124 -0.02845
C 13.51034 0.68254 -0.03213
C 12.31345 34.075 0.02239
C 14.78956 32.61985 0.01153
C 15.93713 31.96108 0.02734
C 12.26875 4.25118 0.0296
C 18.41503 4.99421 0.00135
C 7.33337 25.59932 -0.01581
C 8.61137 27.72058 -0.01979
C 2.45768 34.07809 0.02058
C 3.72614 0.68482 0.01965
C 3.72208 2.13584 -0.03682
C 2.46409 2.85413 0.00052
C 2.46692 4.27885 0.00374
C 3.72257 4.97033 -0.02813
C 3.68247 6.37694 -0.01952
C 2.46971 7.04472 0.05265
C 2.4442 8.49138 -0.01717
C 3.69146 9.22179 0.00244
C 3.74013 10.66295 0.02299
C 2.42794 11.36628 0.03542
C 2.42277 12.80796 0.01416
C 3.65192 13.50635 0.01945
C 4.91496 32.65071 -0.01957
C 3.6515 14.89309 -0.01454
C 2.46156 17.04002 0.0076
C 3.72466 17.7455 0.02162
C 3.67809 19.16911 -0.0014
C 2.43643 19.83294 0.00415
C 2.42614 21.2717 -0.02162
C 3.70831 21.98459 0.01363
C 3.65437 23.40723 0.01877
C 2.47831 24.12815 -0.00925
C 2.49732 25.56963 0.00444
C 3.64828 26.33303 -0.01789
C 3.70332 27.6637 0.02894
C 2.43931 28.41978 -0.02971
C 2.45071 29.84291 0.00165
C 3.71412 30.56566 0.02819
C 2.46459 15.56642 0.01241
C 6.12707 31.97206 -0.0108
C 6.12051 30.55872 -0.00368
C 4.89363 29.80328 -0.02696
C 7.37498 28.41202 0.02188
C 7.3525 29.88702 -0.00316
C 8.62978 30.47658 -0.0331
C 8.62744 31.97806 -0.0258
C 7.37951 32.66924 0.03338
C 4.91855 34.06675 -0.00491
C 6.09061 0.73383 -0.00109
C 6.16561 2.15556 0.03698
C 4.93231 2.81892 -0.02213
C 4.92674 4.25279 0.00028
C 6.11658 4.99842 -0.00289
C 6.17015 6.34087 -0.00066
C 4.95741 7.11061 0.00213
C 4.90101 8.52584 -0.05302
C 6.22744 9.23844 -0.04147
C 6.1462 10.62825 -0.02815
C 4.88334 11.34205 0.03505
C 4.89631 28.46661 -0.00114
C 6.14978 27.7087 0.00228
C 6.16649 26.24957 0.00798
C 4.8753 25.59917 0.00422
C 4.96343 24.1187 0.0351
C 6.11535 23.37503 -0.03113
C 8.6685 26.27353 0.02691
C 6.0723 21.95373 0.02098
C 4.90268 19.95529 -0.00619
C 6.12317 19.21849 -0.02162
C 6.11263 17.78595 0.00889
C 4.95421 17.07324 -0.00481
C 4.88345 15.53873 0.00979
C 4.95531 12.81391 0.01443
C 4.94124 21.32304 0.01848
C 17.21029 4.28249 0.03102
C 17.19258 2.81851 0.02555
C 18.41218 2.08899 0.01423
C 31.96743 4.24513 -0.03838
C 33.2365 4.97407 0.04926
C 33.20243 6.36664 -0.00069
C 31.96269 7.14158 0.01504
C 31.98315 8.56701 0.02806
C 33.15544 9.24018 0.04381
C 33.23394 10.63411 0.00199
C 32.01785 11.33974 0.00137
C 31.98134 12.82474 -0.01839
C 33.19467 13.37847 -0.00644
C 33.18756 14.87044 0.00455
C 31.96304 15.60017 0.00369
C 33.16073 17.73515 -0.02474
C 33.18796 19.13588 0.00594
C 31.96408 2.87942 0.00349
C 33.19894 22.03829 -0.0136
C 32.04005 24.10346 -0.02383
C 31.95268 25.56252 0.01574
C 33.20805 26.29473 0.01927
C 33.23179 27.71943 0.03794
C 31.96286 28.3835 -0.01779
C 31.97498 29.82105 0.00682
C 33.23333 30.56909 0.00026
C 33.20879 31.95008 0.0544
C 31.95101 32.68605 -0.02142
C 29.56141 34.0567 0.01428
C 30.75824 0.75324 -0.01694
C 30.72939 2.14859 0.01713
C 29.52929 2.87778 0.00346
C 29.49317 4.32151 0.00307
C 33.17947 23.45821 -0.01429
C 33.21151 2.1316 -0.00323
C 33.14917 0.69339 -0.00841
C 31.98184 0.03034 0.0001
C 1.26384 0.69542 -0.00468
C 1.26325 2.1188 -0.00939
C 34.41763 2.85932 -0.00931
C 34.40877 4.27453 -0.0345
C 1.23497 4.96005 0.00628
C 1.16317 6.36463 0.02931
C 34.38692 7.13295 -0.02849
C 34.41976 8.50217 -0.02302
C 1.24813 9.21068 -0.00583
C 1.17431 10.71781 -0.00027
C 34.3891 11.38388 -0.02442
C 0.04396 12.8078 -0.02656
C 1.24281 13.46062 0.00343
C 1.21497 14.92379 -0.02957
C 34.38557 15.60129 0.02114
C 0.00241 17.01542 0.00648
C 1.20618 17.77334 0.01223
C 34.36231 32.66074 -0.02927
C 1.19189 31.96717 -0.01404
C 1.20738 30.48061 0.01027
C 34.43157 29.86117 0.01831
C 34.39334 28.41645 -0.01037
C 1.23967 27.70913 -0.00439
C 30.73761 4.92722 0.00716
C 1.23478 26.26841 -0.00598
C 34.42476 24.18181 0.03076
C 1.25395 23.44877 0.00723
C 1.23294 22.06518 0.02712
C 34.40174 21.29366 -0.02213
C 34.40932 19.89057 0.01951
C 1.21588 19.1738 -0.01678
C 34.38437 25.62878 -0.05239
C 30.77964 6.40166 0.02108
C 29.51363 7.04627 0.0103
C 29.55394 8.48824 0.07705
C 24.59527 32.68864 -0.00621
C 22.12973 0.01973 0.00194
C 23.39031 0.70846 0.04185
C 23.33559 2.08605 0.02316
C 22.15629 2.84514 0.01257
C 22.1037 4.27666 0.00152
C 22.15239 7.14776 -0.00294
C 22.13971 8.44776 0.00826
C 23.38226 9.19732 0.00487
C 23.38821 10.65561 -0.00942
C 22.12992 11.36051 -0.02815
C 23.36987 30.49381 0.00622
C 23.3419 31.962 -0.0032
C 22.16799 32.60509 -0.00037
C 19.639 34.04911 -0.01654
C 20.88109 0.74983 -0.00218
C 20.88032 2.12369 -0.00802
C 18.41752 0.72114 -0.00285
C 17.19526 0.01277 -0.009
C 19.69603 32.57445 -0.01199
C 20.93091 31.96805 -0.00229
C 19.71235 12.82215 -0.00938
C 19.70361 11.36923 -0.0264
C 25.82645 31.89641 0.02611
C 20.95467 10.67138 -0.01154
C 19.70651 8.47117 -0.01052
C 19.67815 7.08057 -0.01679
C 20.92542 6.38659 0.00367
C 20.92818 4.99208 0.04306
C 19.65273 4.27561 0.00996
C 19.69418 2.90148 0.00195
C 20.87288 9.23408 0.00684
C 3.75211 31.98888 -0.00891
C 25.79909 30.55014 0.02198
C 24.66278 28.37953 0.00235
C 30.75299 9.23845 0.01908
C 30.79167 10.68848 0.01518
C 29.53774 11.37002 -0.00971
C 29.52042 12.78919 -0.03735
C 30.72316 13.47555 -0.00944
C 30.77196 26.29914 -0.02155
C 30.75875 27.74564 -0.01461
C 29.46954 28.32862 -0.01303
C 29.50462 29.80479 -0.0405
C 30.7398 30.52107 0.01705
C 30.79262 31.94572 0.0101
C 29.47329 32.61261 -0.00669
C 27.00176 0.00057 0.03531
C 28.2776 0.66606 0.01836
C 28.28659 2.12382 -0.03039
C 28.26748 9.21268 -0.01415
C 28.29172 10.70441 -0.01854
C 25.76755 27.75612 0.01495
C 24.60069 11.36466 0.01259
C 25.82821 10.62846 0.01799
C 25.77262 9.19637 0.01699
C 25.76985 2.12808 -0.00416
C 25.80389 0.74192 0.01177
C 24.61825 29.76813 0.01094
C 24.61661 34.05125 0.04266
C 28.25306 31.97528 0.0014
C 28.29576 30.53835 0.00924
C 27.05918 29.85649 0.02326
C 27.02167 28.38276 0.00261
C 28.25346 27.67476 0.03265
C 27.05877 11.33248 -0.02049
C 27.06235 32.66586 0.01324
C 2.49657 32.676 -0.01046
