326
Graphene
C 0.01193 0.02758 0.01295
C 13.56591 26.22692 0.00213
C 12.2497 25.65235 -0.00066
C 12.26574 24.19554 -0.00289
C 13.58074 23.40236 0.00028
C 13.57836 22.05267 -0.02213
C 12.34602 21.3131 0.03698
C 12.24471 19.80954 -0.00109
C 13.51519 27.66827 -0.05302
C 13.5381 19.03968 -0.00491
C 12.28742 15.66456 -0.0258
C 12.33301 2.87177 -0.0331
C 13.55587 2.13648 -0.00316
C 13.56789 0.68695 0.02188
C 12.35298 34.04296 -0.01979
C 14.73555 32.7497 0.02691
C 15.99201 31.93338 -0.01581
C 12.26006 16.89239 0.03338
C 15.94275 30.49755 0.01452
C 12.32648 28.31986 -0.04147
C 13.4782 30.49725 0.03505
C 11.05173 17.77636 -0.00368
C 9.84039 16.99703 -0.02696
C 9.78512 15.66665 -0.00114
C 11.00168 14.9563 0.00228
C 11.06797 13.56093 0.00798
C 9.89561 12.79103 0.00422
C 9.85127 11.38854 0.0351
C 12.31401 29.825 -0.02815
C 9.79165 7.09484 -0.03113
C 9.87879 4.2635 0.01848
C 9.86196 2.8575 -0.00619
C 11.1036 2.23698 -0.02162
C 11.0453 0.73413 0.00889
C 9.82356 0.063 -0.00481
C 12.32715 32.58077 0.00979
C 13.54773 31.94035 0.01443
C 11.09065 4.9839 0.02098
C 14.83544 29.7866 0.04892
C 14.73032 28.33252 -0.00111
C 15.97913 27.71518 -0.03557
C 18.48311 21.94993 0.0106
C 18.34623 4.94127 -0.01154
C 17.26374 2.83634 -0.01721
C 18.50775 2.13195 -0.02422
C 18.44392 0.72611 0.01277
C 17.22905 0.02406 0.00096
C 19.62747 32.74877 -0.01527
C 18.43469 23.39994 -0.01594
C 20.86833 31.86581 0.01087
C 19.68005 29.77997 0.01511
C 19.67466 28.43831 -0.00478
C 20.89954 27.67007 -0.01662
C 20.87153 26.28374 -0.01185
C 19.66839 25.55215 0.01126
C 19.7028 24.09729 0.01852
C 20.95494 23.45367 -0.00381
C 20.89148 30.46846 0.00199
C 17.24776 24.14709 0.00742
C 17.23287 25.54478 -0.00311
C 18.49576 26.21117 0.00675
C 15.9334 26.27136 0.03754
C 14.74557 25.52108 0.01739
C 14.79313 24.08532 0.00755
C 16.02747 23.37643 -0.0054
C 15.96563 22.06983 0.00667
C 14.76466 21.26197 0.00143
C 14.61554 19.8357 -0.017
C 14.68698 2.9197 0.00364
C 15.97031 2.21798 -0.00831
C 15.97094 0.73333 -0.02957
C 14.79856 0.00271 -0.04422
C 17.22195 32.64411 0.00654
C 18.45625 31.98522 -0.00703
C 18.46849 30.56636 -0.04076
C 17.27774 29.83916 -0.00652
C 17.22441 28.40905 0.0058
C 18.45829 27.63243 -0.00865
C 11.01679 19.14299 -0.0108
C 9.81788 19.88229 -0.01957
C 9.90674 21.2853 0.02058
C 11.01423 22.02988 0.01965
C 3.67096 2.1389 0.01291
C 3.63946 0.73564 0.00093
C 2.45862 34.06625 0.00057
C 4.85984 32.65445 -0.01634
C 6.15334 32.00883 -0.00334
C 6.20101 30.49897 0.02339
C 4.87197 29.84499 0.01641
C 2.45139 2.79558 0.00438
C 4.86716 19.85446 -0.00719
C 6.15625 17.73716 -0.01062
C 4.87964 17.02135 -0.00033
C 4.94736 15.59809 0.03589
C 6.20668 14.93362 -0.02759
C 6.11978 13.54037 0.0402
C 4.93382 12.75017 0.00572
C 4.87902 11.37241 0.03592
C 6.13328 19.23922 0.01364
C 2.48612 4.30598 -0.00191
C 3.70934 4.91837 0.00373
C 3.67677 6.39916 0.02147
C 3.65204 30.55293 -0.01362
C 2.41961 29.80886 -0.0008
C 2.45179 28.43187 0.0288
C 2.44379 21.37078 0.00393
C 2.47819 19.85494 0.00895
C 3.72146 19.22175 0.00685
C 3.70687 17.76786 0.02888
C 2.46163 17.0488 -0.00482
C 2.39784 15.68815 -0.01384
C 3.69983 14.92638 0.03693
C 3.67245 13.4544 0.01745
C 2.41039 12.78082 0.00488
C 2.39089 11.40522 -0.01004
C 3.70085 10.62382 -0.02896
C 3.74546 9.26715 -0.00131
C 2.44586 8.50961 -0.01118
C 2.52057 7.06033 -0.014
C 6.14043 10.65975 0.00406
C 20.82494 21.98516 0.03046
C 6.11346 9.32945 0.00943
C 4.90785 7.12575 -0.01111
C 8.63641 9.19035 0.02162
C 7.37529 8.55305 0.0076
C 7.42913 7.09344 0.01241
C 8.59449 6.34459 -0.01454
C 8.65143 4.92907 0.01945
C 7.27583 4.23352 0.01416
C 7.35902 2.92089 0.03542
C 8.60409 10.68432 -0.0014
C 8.61025 2.15346 0.02299
C 7.40793 0.04629 -0.01717
C 9.83789 32.56269 0.05265
C 11.10781 31.94858 -0.01952
C 11.08025 30.55063 -0.02813
C 9.87137 29.86059 0.00374
C 11.05657 27.69098 0.00052
C 11.05974 23.37288 -0.03682
C 8.5956 0.70928 0.00244
C 7.39561 11.36397 0.00415
C 7.38478 12.75101 -0.02162
C 8.59259 13.52664 0.01363
C 6.16235 6.4805 -0.01275
C 6.09853 5.00789 0.00985
C 4.97808 4.25463 -0.02245
C 4.9776 2.84519 -0.00428
C 6.16662 2.1716 0.03101
C 6.10556 0.59004 -0.01536
C 4.88316 34.05684 -0.02689
C 7.35623 32.68809 -0.01046
C 8.57197 31.88778 -0.00891
C 8.61952 30.46592 0.02819
C 7.37069 29.88151 0.00165
C 7.37716 19.91458 -0.02971
C 8.62011 19.12343 0.02894
C 8.58408 17.76655 -0.01789
C 7.36172 17.08048 0.00444
C 7.40923 15.64736 -0.00925
C 8.58587 14.90176 0.01877
C 4.92294 8.53606 0.02841
C 20.92585 5.00569 0.0296
C 19.6604 4.27991 0.03374
C 19.64206 2.85868 -0.02845
C 33.23585 26.27708 0.00682
C 31.978 25.61403 -0.01779
C 31.97972 24.18258 0.03794
C 33.24234 23.48237 0.01927
C 33.16506 22.09796 0.01574
C 31.94136 21.35602 -0.02383
C 31.99671 19.9119 -0.01429
C 33.15309 27.68613 0.00026
C 33.20837 19.20972 -0.0136
C 32.00239 17.01516 -0.02474
C 32.02033 15.60712 0.00369
C 33.19496 14.93017 0.00455
C 33.17854 13.5267 -0.00644
C 31.99 12.77726 -0.01839
C 31.90067 11.35524 0.00137
C 33.13667 10.68919 0.00199
C 33.20823 17.72593 0.00594
C 31.98962 28.38536 0.0544
C 31.92942 29.86758 -0.02142
C 33.16199 30.55548 0.01428
C 30.80637 14.97263 -0.0405
C 30.75498 13.44894 -0.01303
C 29.51873 12.81598 -0.01461
C 29.42726 11.37622 -0.02155
C 30.74936 10.65051 -0.00944
C 30.7045 9.25875 -0.03735
C 29.42825 8.51601 -0.00971
C 29.44947 7.10603 0.01518
C 30.70923 6.34685 0.01908
C 30.74658 5.02078 0.07705
C 29.46498 4.26653 0.0103
C 29.53002 2.87476 0.02108
C 30.75136 2.09274 0.00716
C 30.74274 0.68977 0.00307
C 29.50317 0.00502 0.00346
C 32.01952 32.65802 0.01713
C 33.21922 31.99493 -0.01694
C 33.17613 9.21482 0.04381
C 29.53658 15.6197 0.01705
C 31.94091 8.53298 0.02806
C 33.13472 6.46704 -0.00069
C 0.03871 17.0154 0.00648
C 0.01682 15.55901 0.02114
C 1.27292 14.87679 -0.02957
C 1.2118 13.51381 0.00343
C 34.42438 12.81034 -0.02656
C 34.42218 11.36542 -0.02442
C 1.18791 10.65266 -0.00027
C 1.22058 17.72822 0.01223
C 1.21373 9.25768 -0.00583
C 0.04778 7.13487 -0.02849
C 1.22683 6.29508 0.02931
C 1.25826 4.91302 0.00628
C 0.00787 4.26657 -0.0345
C 0.00245 2.86375 -0.00931
C 1.25408 2.08426 -0.00939
C 1.18975 0.72548 -0.00468
C 0.04972 8.48562 -0.02302
C 1.1834 19.12972 -0.01678
C 34.40261 19.91071 0.01951
C 34.37808 21.28068 -0.02213
C 33.16137 5.0161 0.04926
C 31.95676 4.27904 -0.03838
C 31.98987 2.77868 0.00349
C 33.24105 2.11789 -0.00323
C 33.21474 0.73875 -0.00841
C 32.03648 34.0565 0.0001
C 0.00199 32.59353 -0.02927
C 1.23533 31.95111 -0.01404
C 1.24788 30.51185 0.01027
C 34.39534 29.81013 0.01831
C 0.0038 28.38402 -0.01037
C 1.26887 27.68086 -0.00439
C 1.20133 26.27603 -0.00598
C 0.03487 25.65087 -0.05239
C 0.00122 24.17219 0.03076
C 1.25323 23.52183 0.00723
C 1.19789 22.0758 0.02712
C 31.95727 7.11505 0.01504
C 3.6763 31.94433 -0.00892
C 29.53843 17.06841 0.0101
C 30.79192 19.15136 0.03531
C 25.80988 31.90471 0.00135
C 25.81236 30.55209 0.03102
C 24.58945 29.84835 0.02555
C 24.62987 28.4488 0.01423
C 25.78527 27.60548 -0.00285
C 25.79406 26.22141 -0.009
C 24.57751 25.54416 -0.01199
C 24.66526 32.67041 -0.00498
C 24.51987 24.09965 -0.00229
C 25.7662 22.0247 -0.0264
C 24.5216 21.3049 -0.01154
C 25.78338 6.36328 0.00684
C 25.83174 4.91136 -0.01052
C 24.57488 4.32239 -0.01679
C 24.59339 2.8899 0.00367
C 25.82724 2.13902 0.04306
C 25.80336 23.42781 -0.00938
C 22.07033 34.0537 0.02737
C 23.28306 0.72075 0.02117
C 23.3447 2.16883 -0.04078
C 20.93297 2.10329 -0.03213
C 20.91888 0.6985 0.02239
C 19.64468 0.06506 0.01153
C 22.12048 32.6716 0.02734
C 23.35523 32.02368 -0.0055
C 23.32625 30.56064 0.01515
C 22.1032 29.82661 -0.00225
C 22.12792 28.43779 0.00071
C 23.38177 27.7014 -0.01107
C 23.38681 26.26897 -0.01586
C 22.10658 25.5313 -0.01971
C 22.11355 24.15368 -0.02118
C 23.31223 23.434 0.00733
C 23.40457 22.05952 -0.00178
C 23.38088 4.886 0.00768
C 22.13475 4.26851 -0.0276
C 22.06996 2.82707 0.03005
C 25.80561 0.74438 0.00996
C 30.81042 17.74752 -0.00669
C 24.51523 34.04027 0.00195
C 28.2372 31.94746 -0.00218
C 28.31699 2.12355 0.01799
C 28.27091 0.65131 0.01699
C 27.00485 0.02257 -0.00416
C 29.54509 32.61172 0.01177
C 30.76147 31.93575 0.04266
C 30.77097 30.53929 0.01324
C 29.47961 29.79717 0.0014
C 27.0945 2.7782 0.01259
C 29.50261 28.36255 0.00924
C 30.69655 26.24952 0.00261
C 29.51909 25.51625 0.03265
C 29.54993 24.08579 -0.02049
C 30.75019 23.47415 -0.01854
C 30.66461 22.02568 -0.01415
C 29.44051 21.27253 -0.03039
C 29.53588 19.80116 0.01836
C 30.71016 27.68911 0.02326
C 27.10451 4.23407 0.01495
C 28.29745 4.96661 0.00235
C 28.20099 6.38987 0.01094
C 28.21848 30.47247 -0.01654
C 27.05747 29.80049 -0.00037
C 27.06376 28.35761 -0.0032
C 28.32519 27.62222 0.00622
C 28.33008 26.19829 -0.02815
C 27.09305 25.53539 -0.00942
C 27.04943 24.14537 0.00487
C 28.30042 23.34923 0.00826
C 28.2343 21.96827 -0.00294
C 27.01381 21.31095 0.00152
C 27.13605 19.84523 0.01257
C 28.33847 19.08586 0.02316
C 28.27498 17.69266 0.04185
C 28.30702 10.63497 0.00194
C 28.25445 9.26828 -0.00621
C 27.08049 8.48754 0.02611
C 27.06116 7.13209 0.02198
C 27.01488 32.65722 -0.00802
C 2.45868 32.6816 -0.04848
