399
Graphene
C 34.42188 0.04444 0.01295
C 9.86741 0.00569 -0.02971
C 12.20651 32.72104 0.02894
C 13.49885 31.98974 -0.01789
C 13.60704 30.54932 0.00444
C 12.37642 29.8588 -0.00925
C 12.32037 28.44833 0.01877
C 13.43566 27.6148 0.01363
C 13.45158 26.2067 -0.02162
C 12.28272 25.45257 0.00415
C 12.29525 24.058 -0.0014
C 13.55135 23.40743 0.02162
C 13.54573 22.02241 0.0076
C 12.33514 21.27076 0.01241
C 12.28979 19.90799 -0.01454
C 13.56659 19.20887 0.01945
C 13.50903 17.72499 0.01416
C 12.29607 16.98014 0.03542
C 12.27216 15.5558 0.02299
C 13.59069 14.84191 0.00244
C 13.48729 13.44495 -0.01717
C 12.25886 12.79903 0.05265
C 11.04315 0.72132 0.00165
C 12.27506 11.38725 -0.01952
C 10.98706 2.22339 0.02819
C 9.88043 4.34284 -0.01046
C 11.09209 26.29947 0.01641
C 9.83462 25.60865 -0.00719
C 9.85083 24.17796 0.01364
C 11.03651 23.40042 -0.01062
C 11.11982 22.02271 -0.00033
C 9.87618 21.36513 0.03589
C 9.83093 19.96829 -0.02759
C 11.0329 19.20921 0.0402
C 11.03971 17.79115 0.00572
C 9.86709 16.97402 0.03592
C 9.86739 15.56779 0.00406
C 11.0937 14.91769 0.00943
C 11.10153 13.48061 0.02841
C 9.82823 12.78358 -0.01111
C 9.82122 11.30785 -0.01275
C 11.04886 10.62883 0.00985
C 11.0135 9.1986 -0.02245
C 9.83539 8.49396 -0.00428
C 9.90014 7.12703 0.03101
C 11.13037 6.43145 -0.01536
C 11.12228 5.02745 -0.02689
C 9.79937 2.9973 -0.00891
C 11.09319 27.748 0.02339
C 13.51943 10.62117 -0.02813
C 12.29788 8.50508 0.00052
C 16.02605 14.96729 0.00213
C 15.99254 13.51054 -0.00066
C 14.71747 12.76942 -0.00289
C 14.69422 11.36082 0.00028
C 15.98966 10.70585 -0.02213
C 16.02762 9.25752 0.03698
C 14.79527 8.51887 -0.00109
C 14.78167 7.05757 -0.00491
C 16.04738 6.32671 0.03338
C 16.01273 4.8968 -0.0258
C 14.72253 4.24083 -0.0331
C 14.7406 2.77089 -0.00316
C 15.95193 2.05873 0.02188
C 15.97329 0.68524 -0.01979
C 14.72442 0.02578 0.02691
C 17.13523 32.637 -0.01581
C 18.41757 32.00423 0.01452
C 18.35957 30.61161 0.04892
C 17.12757 29.84829 -0.00111
C 17.20784 28.41356 -0.03557
C 18.42165 27.62771 0.03754
C 14.78737 15.62337 -0.05302
C 13.52338 9.1837 0.00374
C 14.71554 17.08302 -0.04147
C 16.07518 19.23006 0.03505
C 12.30384 7.0665 -0.03682
C 13.53143 6.31343 0.01965
C 13.47386 4.95244 0.02058
C 12.29131 4.25229 -0.01957
C 12.28767 2.86364 -0.0108
C 13.47122 2.11812 -0.00368
C 13.46956 0.7559 -0.02696
C 12.25051 0.04011 -0.00114
C 14.70257 32.70121 0.00228
C 15.89359 31.97726 0.00798
C 15.9871 30.52963 0.00422
C 14.78323 29.78042 0.0351
C 14.73516 28.33639 -0.03113
C 15.95917 27.60832 0.02098
C 15.96648 26.20817 0.01848
C 14.71059 25.51438 -0.00619
C 14.77537 24.10977 -0.02162
C 16.03048 23.41416 0.00889
C 16.06757 22.03405 -0.00481
C 14.81314 21.33987 0.00979
C 14.79043 19.86283 0.01443
C 15.98101 17.81601 -0.02815
C 18.46096 26.25199 0.01739
C 9.82526 28.38724 -0.00334
C 11.04866 30.46831 0.00057
C 2.45389 4.29395 0.0073
C 2.4491 2.8998 0.0174
C 3.69199 2.18014 0.03828
C 3.64695 0.76108 0.01226
C 2.47318 0.06476 -0.00279
C 4.89998 32.6158 0.01996
C 6.19167 31.97704 -0.03996
C 6.14266 30.57059 0.01465
C 4.93086 29.87908 -0.00074
C 4.85146 28.48639 -0.00518
C 6.07929 27.67308 0.0086
C 6.12011 26.26883 -0.00643
C 4.84136 25.56061 0.017
C 4.86843 24.16555 -0.03113
C 6.15543 23.39808 -0.02566
C 6.1914 21.98296 -0.00094
C 4.9725 21.27806 0.02322
C 4.95614 19.86238 -0.00725
C 6.21367 19.14676 -0.05697
C 6.09063 17.75423 0.01087
C 4.84318 17.10543 -0.01343
C 3.62834 5.01133 0.00402
C 4.93366 15.62986 0.00988
C 3.68907 6.40088 0.02374
C 2.51626 8.53176 -0.01509
C 3.65516 30.51752 0.00211
C 2.4403 29.75219 -0.00449
C 2.33106 28.36936 -0.01979
C 3.63603 27.77794 0.02784
C 3.65092 26.36681 -0.01977
C 2.44905 25.59822 -0.00561
C 2.48378 24.14559 0.00208
C 3.70621 23.40883 0.01707
C 3.73945 21.95086 0.02769
C 2.46278 21.38543 -0.03291
C 2.47228 19.91758 -0.04999
C 3.66671 19.13889 0.04505
C 3.59201 17.71356 0.03284
C 2.38639 16.99141 -0.04307
C 2.48275 15.5992 0.03189
C 3.71025 14.92726 0.00031
C 3.6683 13.51353 -0.003
C 2.46185 12.86294 0.01402
C 2.43262 11.3989 0.02379
C 3.72154 10.66847 0.00907
C 3.71219 9.2733 0.00643
C 2.47915 7.14778 0.03267
C 9.77415 29.77489 -0.01634
C 6.1694 14.8935 0.0276
C 4.87592 12.83392 -0.00077
C 8.55433 19.16554 0.0288
C 8.58786 17.70862 0.00393
C 7.32476 17.07191 0.00895
C 7.36406 15.63952 0.00685
C 8.61888 14.90539 0.02888
C 8.57519 13.46756 -0.00482
C 7.36678 12.83264 -0.01384
C 7.39822 11.37866 0.03693
C 8.62136 10.67456 0.01745
C 8.61487 9.22707 0.00488
C 7.38976 8.58493 -0.01004
C 7.39636 7.141 -0.02896
C 8.60883 6.43534 -0.00131
C 8.63227 5.05212 -0.01118
C 7.39715 4.34537 -0.014
C 7.39388 2.91635 0.02147
C 8.62791 2.27056 0.00373
C 8.59788 0.82285 -0.00191
C 7.34508 0.08542 0.00438
C 9.84841 32.68302 0.01291
C 10.97023 31.91443 0.00093
C 7.39501 19.86512 -0.0008
C 6.12345 13.48149 0.01305
C 7.43346 21.31233 -0.01362
C 8.61117 23.47426 -0.04848
C 4.91574 11.43462 0.03368
C 6.13755 10.71515 -0.02929
C 6.07057 9.25348 -0.00966
C 4.90137 8.52659 -0.03337
C 4.93016 7.10117 0.01227
C 6.13282 6.40035 0.00873
C 6.10595 5.05624 -0.00049
C 4.91469 4.321 0.00848
C 4.93723 2.88887 -0.01303
C 6.18922 2.09831 -0.01378
C 6.11024 0.7226 0.02635
C 4.87707 34.04132 0.0127
C 7.38957 32.73064 0.01396
C 8.5722 31.97181 0.01849
C 8.47064 30.5292 -0.01142
C 7.32234 29.80656 -0.00562
C 7.37733 28.37828 -0.00494
C 8.61784 27.71514 0.00054
C 8.5948 26.3202 0.03007
C 7.34306 25.59407 -0.00095
C 7.38132 24.11851 0.01572
C 8.58744 22.05186 -0.00892
C 3.67415 31.97507 0.0064
C 17.27362 25.52936 0.00755
C 18.45137 23.4144 0.00667
C 29.46489 7.07676 0.01518
C 30.72802 6.38174 0.01908
C 30.68711 4.99026 0.07705
C 29.53067 4.28769 0.0103
C 29.55693 2.79169 0.02108
C 30.79654 2.08583 0.00716
C 30.80358 0.6429 0.00307
C 29.53899 34.05594 0.00346
C 31.99732 32.63348 0.01713
C 33.20777 31.94499 -0.01694
C 33.19602 30.50767 0.01428
C 31.95698 29.8224 -0.02142
C 31.96319 28.41556 0.0544
C 33.21245 27.69435 0.00026
C 33.24085 26.22564 0.00682
C 32.00812 25.54683 -0.01779
C 31.98421 24.11723 0.03794
C 33.20267 23.45382 0.01927
C 33.19415 21.98642 0.01574
C 31.94903 21.27932 -0.02383
C 31.96224 19.83523 -0.01429
C 29.3765 8.419 -0.00971
C 33.24183 19.22257 -0.0136
C 30.57233 9.20654 -0.03735
C 30.6349 19.30693 -0.02155
C 27.01648 7.12357 -0.00416
C 28.30574 6.3154 0.01177
C 28.23689 4.98062 0.04266
C 27.07008 4.25217 0.01324
C 27.10136 2.82991 0.0014
C 28.32962 2.06716 0.00924
C 28.29465 0.67363 0.02326
C 27.10627 34.05813 0.00261
C 29.47566 32.61133 0.03265
C 30.73955 31.98067 -0.02049
C 30.74803 30.50546 -0.01854
C 29.55175 29.86271 -0.01415
C 29.57181 28.49373 -0.03039
C 30.76489 27.73993 0.01836
C 30.79083 26.30966 0.03531
C 29.47924 25.60986 -0.00669
C 29.48741 24.13908 0.0101
C 30.74119 23.47797 0.01705
C 30.76648 22.03867 -0.0405
C 29.54888 21.29442 -0.01303
C 29.55426 19.78875 -0.01461
C 30.7713 10.66518 -0.00944
C 27.11443 8.49531 0.01699
C 33.21042 17.80246 0.00594
C 31.9111 15.66596 0.00369
C 1.22668 22.00308 0.02712
C 0.01103 21.27918 -0.02213
C 0.0386 19.88425 0.01951
C 1.18634 19.11525 -0.01678
C 1.14743 17.72481 0.01223
C 34.36177 17.01685 0.00648
C 34.37913 15.57805 0.02114
C 1.20203 14.92052 -0.02957
C 1.20914 13.51564 0.00343
C 0.00217 12.83563 -0.02656
C 34.4185 11.33942 -0.02442
C 1.21322 10.60262 -0.00027
C 1.16542 9.21254 -0.00583
C 34.36637 8.51924 -0.02302
C 0.02243 7.09517 -0.02849
C 1.29148 6.37557 0.02931
C 1.21518 4.95892 0.00628
C 34.3502 4.30704 -0.0345
C 34.40034 2.87531 -0.00931
C 1.17765 2.21484 -0.00939
C 1.15752 0.82007 -0.00468
C 1.21878 23.42359 0.00723
C 31.99547 16.93565 -0.02474
C 0.01949 24.16182 0.03076
C 1.20334 26.25552 -0.00598
C 33.12206 14.85409 0.00455
C 33.14601 13.44662 -0.00644
C 31.97947 12.84178 -0.01839
C 31.8589 11.50847 0.00137
C 33.2046 10.6089 0.00199
C 33.13275 9.18508 0.04381
C 31.86111 8.53235 0.02806
C 31.98398 7.10304 0.01504
C 33.22761 6.38126 -0.00069
C 33.11845 4.93712 0.04926
C 31.8835 4.248 -0.03838
C 31.98218 2.78864 0.00349
C 33.19974 2.11154 -0.00323
C 33.19247 0.71124 -0.00841
C 32.00794 34.00777 0.0001
C 0.03524 32.68264 -0.02927
C 1.25668 31.94535 -0.01404
C 1.23888 30.51033 0.01027
C 0.03019 29.78288 0.01831
C 34.42946 28.34072 -0.01037
C 1.15542 27.65875 -0.00439
C 0.02054 25.53828 -0.05239
C 17.23848 24.12897 -0.0054
C 27.0345 21.43139 0.01799
C 28.21407 23.44899 0.01495
C 19.58744 29.78696 0.01511
C 19.63818 28.34078 -0.00478
C 20.90378 27.67132 -0.01662
C 20.93093 26.27859 -0.01185
C 19.67899 25.55424 0.01126
C 19.63339 24.17239 0.01852
C 20.8064 23.38382 -0.00381
C 20.92828 21.95124 0.03046
C 19.71693 21.21144 0.0296
C 19.75351 19.85564 0.03374
C 19.72586 11.23177 -0.02845
C 21.0115 9.14945 -0.03213
C 19.71341 8.51013 0.02239
C 19.67419 7.09157 0.01153
C 20.91622 6.36668 0.02734
C 20.91929 4.94973 -0.0055
C 19.75652 4.17106 0.01515
C 19.7236 2.78259 -0.00225
C 20.91591 2.04252 0.00071
C 20.89928 0.72596 -0.01107
C 19.69607 0.01487 -0.01586
C 20.84699 30.46069 0.00199
C 22.18091 32.693 -0.01971
C 20.94637 31.92782 0.01087
C 17.24302 34.07346 0.00096
C 18.52817 22.01983 0.00143
C 17.31049 21.36811 -0.017
C 17.27505 19.91697 0.00364
C 18.5261 19.15095 -0.00831
C 18.48053 17.63337 -0.02957
C 17.22443 17.08017 -0.04422
C 17.24914 15.67061 0.00654
C 18.36911 14.85006 -0.00703
C 18.40731 13.65205 -0.04076
C 17.21985 12.79872 -0.00652
C 17.19518 11.42095 0.0058
C 18.50684 10.70936 -0.00865
C 18.45611 9.24082 0.00675
C 17.25592 8.57885 -0.00311
C 17.22043 7.07513 0.00742
C 18.46324 6.44351 -0.01594
C 18.52537 4.95842 0.0106
C 17.29506 4.19604 -0.01154
C 17.17459 2.79287 -0.01721
C 18.47007 2.12375 -0.02422
C 18.4275 0.69538 0.01277
C 19.81548 32.69529 -0.01527
C 28.24292 22.00735 0.01259
C 23.37944 31.97285 -0.02118
C 22.11675 29.82393 -0.00178
C 24.46564 24.17751 -0.00802
C 25.67528 23.45286 -0.00218
C 25.74553 21.93348 -0.01654
C 24.5345 21.33771 -0.00037
C 24.57834 7.03157 -0.0032
C 25.73587 6.34021 0.00622
C 25.77844 4.93672 -0.02815
C 24.53801 4.25895 -0.00942
C 24.53305 2.84831 0.00487
C 25.79946 2.1657 0.00826
C 25.82754 0.70156 -0.00294
C 24.60937 34.06708 0.00152
C 27.02475 32.61551 0.01257
C 28.28265 31.87785 0.02316
C 28.28115 30.48017 0.04185
C 27.08293 29.77616 0.00194
C 27.11496 28.38716 -0.00621
C 28.39289 27.79075 0.02611
C 28.29078 26.32696 0.02198
C 26.9948 25.52152 0.01094
C 26.94564 24.0993 0.00235
C 24.5474 25.61342 0.00195
C 23.32171 30.54239 0.00733
C 25.83796 26.2598 0.00996
C 24.65932 28.46018 0.00367
C 22.16113 28.38537 0.00768
C 23.36581 27.68302 -0.0276
C 23.32935 26.26151 0.03005
C 22.15125 25.58805 -0.04078
C 22.08007 24.11231 0.02117
C 23.25915 23.43319 0.02737
C 23.29931 21.90044 -0.00498
C 22.12149 21.29206 0.00135
C 21.98356 8.47692 0.03102
C 22.16976 7.09614 0.02555
C 23.40094 6.42126 0.01423
C 23.36834 5.03399 -0.00285
C 22.15828 4.29291 -0.009
C 22.05646 2.87304 -0.01199
C 23.36256 2.08757 -0.00229
C 23.36023 0.70715 -0.00938
C 22.17115 0.06437 -0.0264
C 24.58433 32.58624 -0.01154
C 25.85527 31.89578 0.00684
C 25.90584 30.54638 -0.01052
C 24.53928 29.91543 -0.01679
C 25.84765 27.68959 0.04306
C 2.4849 32.75509 -0.00039
