354
Graphene
C 34.37319 34.07262 0.01295
C 13.50362 19.18904 -0.02696
C 13.52087 17.74518 -0.00114
C 12.31589 17.01037 0.00228
C 12.34758 15.59048 0.00798
C 13.51228 14.91412 0.00422
C 13.48866 13.49228 0.0351
C 12.31419 12.79577 -0.03113
C 12.28853 11.38569 0.02098
C 12.27148 19.9291 -0.00368
C 13.4909 10.63974 0.01848
C 12.28745 8.50893 -0.02162
C 12.29636 7.13313 0.00889
C 13.5318 6.47028 -0.00481
C 13.51849 4.96832 0.00979
C 12.31665 4.31648 0.01443
C 12.30697 2.90031 0.03505
C 13.46169 2.14534 -0.02815
C 13.53052 0.67232 -0.04147
C 13.50776 9.25291 -0.00619
C 12.26761 0.00306 -0.05302
C 12.29744 21.28233 -0.0108
C 13.54893 23.41807 0.02058
C 9.76943 8.60718 -0.0014
C 9.80143 7.19066 0.02162
C 11.03287 6.49118 0.0076
C 11.02106 5.09517 0.01241
C 9.83798 4.32034 -0.01454
C 9.84788 2.8892 0.01945
C 11.10665 2.21056 0.01416
C 11.09012 0.74535 0.03542
C 13.51136 21.9722 -0.01957
C 9.91427 0.03543 0.02299
C 13.49678 31.97864 -0.01717
C 13.48355 30.54683 0.05265
C 12.23497 29.82043 -0.01952
C 12.17477 28.34231 -0.02813
C 13.47302 27.63823 0.00374
C 13.4791 26.23345 0.00052
C 12.36355 25.52003 -0.03682
C 12.33575 24.11854 0.01965
C 12.18505 32.61159 0.00244
C 11.06646 9.21849 0.00415
C 14.75585 32.58602 0.00213
C 15.91808 30.51618 -0.00289
C 15.9902 6.37724 0.00143
C 15.90156 4.9709 -0.017
C 14.74852 4.17502 0.00364
C 14.70829 2.76016 -0.00831
C 15.87587 2.07817 -0.02957
C 15.89611 0.65 -0.04422
C 14.70204 33.98424 0.00654
C 17.20449 32.60183 -0.00703
C 14.81295 7.13266 0.00667
C 18.49215 31.91168 -0.04076
C 17.20357 29.78268 0.0058
C 17.18348 28.34087 -0.00865
C 18.45699 27.64415 0.00675
C 18.48587 26.20404 -0.00311
C 17.21514 25.62239 0.00742
C 17.17012 24.17817 -0.01594
C 18.43821 23.4678 0.0106
C 18.4238 22.06122 -0.01154
C 18.52687 30.52885 -0.00652
C 15.99735 31.9137 -0.00066
C 14.83976 8.53232 -0.0054
C 16.059 10.64919 0.01739
C 14.73339 29.86383 0.00028
C 14.75456 28.4375 -0.02213
C 15.96059 27.7565 0.03698
C 16.03334 26.32834 -0.00109
C 14.83216 25.59141 -0.00491
C 14.77499 24.1614 0.03338
C 15.99351 23.41774 -0.0258
C 15.96673 21.98918 -0.0331
C 16.04923 9.22076 0.00755
C 14.75375 21.3187 -0.00316
C 15.97671 19.13886 -0.01979
C 16.0235 17.74799 0.02691
C 14.77752 17.03199 -0.01581
C 14.7666 15.59923 0.01452
C 16.03785 14.90632 0.04892
C 15.9813 13.50932 -0.00111
C 14.70262 12.74725 -0.03557
C 14.76683 11.37811 0.03754
C 14.75537 19.89903 0.02188
C 11.03591 10.64387 -0.02162
C 9.71619 11.38873 0.01363
C 9.80417 12.80012 0.01877
C 2.42479 0.04649 0.00054
C 6.07166 21.92212 0.03007
C 4.87814 21.28368 -0.00095
C 4.93265 19.89209 0.01572
C 6.18322 19.21771 -0.04848
C 6.19196 17.7741 -0.00892
C 4.93262 17.05129 -0.01362
C 4.97229 15.72887 -0.0008
C 3.75072 0.639 -0.00494
C 6.14502 14.98231 0.0288
C 4.90616 12.82478 0.00895
C 4.88922 11.49752 0.00685
C 6.14605 10.73665 0.02888
C 6.12695 9.3402 -0.00482
C 4.87795 8.54733 -0.01384
C 4.87937 7.11909 0.03693
C 6.11418 6.40786 0.01745
C 6.13991 5.03432 0.00488
C 6.09826 13.60487 0.00393
C 4.8777 4.28304 -0.01004
C 3.6627 2.10354 -0.00562
C 2.41366 4.25265 0.01849
C 3.58691 23.34987 -0.01343
C 3.66251 22.04973 0.00988
C 2.42714 21.3269 0.0276
C 2.43793 19.84796 0.01305
C 3.65066 19.15807 -0.00077
C 3.63271 17.72351 0.03368
C 2.40209 17.03349 -0.02929
C 2.38829 15.68405 -0.00966
C 2.43006 2.80874 -0.01142
C 3.69623 14.99358 -0.03337
C 2.46208 12.78965 0.00873
C 2.4789 11.39582 -0.00049
C 3.64295 10.70171 0.00848
C 3.64782 9.23943 -0.01303
C 2.4158 8.46331 -0.01378
C 2.48191 7.06671 0.02635
C 3.64788 6.41971 0.0127
C 3.68187 4.94774 0.01396
C 3.69642 13.48495 0.01227
C 4.91712 2.84548 -0.02896
C 6.149 2.13802 -0.00131
C 6.12702 0.68207 -0.01118
C 8.62351 0.82576 0.02841
C 7.36531 0.0338 -0.01111
C 9.78807 32.72329 -0.01275
C 10.89747 31.8604 0.00985
C 11.09506 30.54525 -0.02245
C 11.13332 27.51628 -0.00428
C 11.11805 26.14193 0.03101
C 9.91817 24.12287 -0.01536
C 8.62013 2.18813 0.00943
C 11.11618 23.40443 -0.02689
C 9.76467 21.36203 -0.00891
C 9.84743 19.91899 0.02819
C 11.02434 19.19663 0.00165
C 11.04283 17.73164 -0.02971
C 9.84229 17.02828 0.02894
C 9.8848 15.70006 -0.01789
C 11.12826 14.90994 0.00444
C 11.07089 13.46675 -0.00925
C 11.06723 22.0753 -0.01046
C 7.35381 2.82114 0.00406
C 7.39 4.24483 0.03592
C 8.58794 5.00767 0.00572
C 4.9354 0.00339 -0.014
C 7.5071 32.68928 0.02147
C 8.72026 23.47518 0.00373
C 8.44748 22.15028 -0.00191
C 7.35104 21.37468 0.00438
C 7.40165 19.95741 0.01291
C 8.63958 19.20621 0.00093
C 8.66709 17.77734 0.00057
C 7.43837 17.12571 -0.01634
C 7.36682 15.68173 -0.00334
C 8.61417 14.95751 0.02339
C 8.56613 13.53385 0.01641
C 7.31835 12.85851 -0.00719
C 7.34774 11.45555 0.01364
C 8.52009 10.75811 -0.01062
C 8.46289 9.33986 -0.00033
C 7.31041 8.62311 0.03589
C 7.34099 7.18317 -0.02759
C 8.53842 6.47947 0.0402
C 17.15747 21.31509 -0.01721
C 17.09987 19.89812 -0.02422
C 18.39267 19.23883 0.01277
C 18.33953 17.87504 0.00096
C 30.6465 0.70122 0.01713
C 29.44771 34.05706 -0.01694
C 31.87725 32.69563 0.01428
C 33.14412 32.02008 -0.02142
C 33.15259 30.56978 0.0544
C 31.912 29.85223 0.00026
C 32.01687 28.40861 0.00682
C 33.20727 27.67764 -0.01779
C 30.66873 2.15162 0.00346
C 33.23612 26.30167 0.03794
C 31.90974 24.11597 0.01574
C 33.17182 23.41204 -0.02383
C 33.15048 22.00942 -0.01429
C 31.88931 21.3095 -0.0136
C 31.95086 19.91256 0.00594
C 33.17813 19.20564 -0.02474
C 33.14622 17.76608 0.00369
C 31.79819 16.9463 0.00455
C 31.97129 25.56009 0.01927
C 32.01711 15.65283 -0.00644
C 29.47515 2.94407 0.00307
C 30.76144 5.02176 0.02108
C 27.03982 34.02646 -0.01415
C 29.45163 32.65575 -0.03039
C 30.65168 31.96838 0.01836
C 30.67098 30.57211 0.03531
C 29.53409 29.76574 -0.00669
C 29.62958 28.40042 0.0101
C 30.87056 27.7056 0.01705
C 30.77822 26.31926 -0.0405
C 29.47639 4.33795 0.00716
C 29.59866 25.50341 -0.01303
C 30.69128 23.42564 -0.02155
C 30.63346 22.00024 -0.00944
C 29.45735 21.28603 -0.03735
C 29.58048 19.79214 -0.00971
C 30.74907 19.09297 0.01518
C 30.68885 17.78858 0.01908
C 29.63947 6.96051 0.07705
C 30.90636 6.40118 0.0103
C 29.50772 24.12646 -0.01461
C 33.17265 14.96562 -0.01839
C 33.23607 13.52684 0.00137
C 32.08776 12.63564 0.00199
C 1.18901 19.18762 -0.01678
C 1.15296 17.74407 0.01223
C 34.35273 17.05105 0.00648
C 34.38631 15.63529 0.02114
C 1.19107 14.93978 -0.02957
C 1.17207 13.55174 0.00343
C 34.38674 12.76917 -0.02656
C 0.03748 11.33182 -0.02442
C 34.35954 19.94352 0.01951
C 1.28839 10.71539 -0.00027
C 0.02613 8.50934 -0.02302
C 34.42405 7.10388 -0.02849
C 1.23247 6.41896 0.02931
C 1.13457 4.98741 0.00628
C 34.35185 4.25263 -0.0345
C 34.4009 2.83061 -0.00931
C 1.18097 2.09557 -0.00939
C 1.17326 0.72078 -0.00468
C 1.25918 9.16143 -0.00583
C 34.36221 21.34026 -0.02213
C 1.16962 22.05384 0.02712
C 1.14771 23.49561 0.00723
C 32.1711 11.42522 0.04381
C 33.30735 10.49058 0.02806
C 33.24587 9.19626 0.01504
C 31.97785 8.58081 -0.00069
C 32.07159 7.16656 0.04926
C 33.20218 6.36146 -0.03838
C 33.15165 5.04617 0.00349
C 31.95792 4.2312 -0.00323
C 31.94218 2.79205 -0.00841
C 33.14753 2.10124 0.0001
C 33.13185 0.67468 -0.02927
C 31.89683 0.0181 -0.01404
C 0.00274 32.68004 0.01027
C 1.30962 31.79114 0.01831
C 1.18 30.46209 -0.01037
C 34.33681 29.79333 -0.00439
C 34.36541 28.46375 -0.00598
C 34.39772 25.56405 -0.05239
C 34.37281 24.17465 0.03076
C 28.24375 0.79723 -0.01854
C 2.39065 24.01719 0.01087
C 28.25809 2.17587 -0.02049
C 27.03798 4.30507 0.00261
C 19.70856 24.10896 -0.01107
C 21.05128 23.37762 -0.01586
C 20.8517 22.04547 -0.01971
C 19.63856 21.29934 -0.02118
C 19.5604 19.9651 0.00733
C 20.75872 19.33369 -0.00178
C 19.58895 7.09737 0.00768
C 20.66826 6.28425 -0.0276
C 19.70309 25.54145 0.00071
C 20.84541 4.98184 0.03005
C 19.55797 2.7756 0.02117
C 20.83355 2.08127 0.02737
C 20.86808 0.67117 -0.00498
C 19.61405 0.00663 0.00135
C 22.12334 32.69221 0.03102
C 23.40162 31.97244 0.02555
C 23.37462 30.54812 0.01423
C 22.10432 29.80442 -0.00285
C 19.62688 4.22605 -0.04078
C 22.1499 28.41067 -0.009
C 20.91941 26.26208 -0.00225
C 19.69526 28.38036 -0.0055
C 17.40006 16.94598 -0.01527
C 17.22392 15.5938 0.01087
C 17.06313 12.7234 0.00199
C 17.16996 11.3831 0.01511
C 18.51722 9.14676 -0.00478
C 17.25362 8.47725 -0.01662
C 17.21294 7.05678 -0.01185
C 18.46665 6.37057 0.01126
C 20.92055 27.67229 0.01515
C 18.3724 4.97132 0.01852
C 17.09007 2.77821 0.03046
C 18.34516 2.03201 0.0296
C 18.38958 0.64499 0.03374
C 17.16091 34.05417 -0.02845
C 19.68949 32.59767 -0.03213
C 20.86324 31.94703 0.02239
C 20.89573 30.45826 0.01153
C 19.71366 29.75323 0.02734
C 17.15272 4.30009 -0.00381
C 23.41508 27.69905 -0.01199
C 23.41184 26.34679 -0.00229
C 22.21546 25.6376 -0.00938
C 25.80474 0.66801 0.04185
C 24.55094 34.06913 0.00194
C 27.05099 32.58145 -0.00621
C 28.24511 31.92469 0.02611
C 28.23673 30.47849 0.02198
C 27.05181 29.7429 0.01094
C 27.14887 28.37895 0.00235
C 28.38142 27.69298 0.01495
C 25.8534 2.14756 0.02316
C 28.42543 26.28035 0.01259
C 26.99444 24.12091 0.01699
C 28.28511 23.42823 -0.00416
C 28.14975 21.99616 0.01177
C 26.80288 21.23099 0.04266
C 27.20034 20.00397 0.01324
C 28.3387 19.25486 0.0014
C 28.46477 6.37299 0.00924
C 28.24613 4.99422 0.02326
C 27.13714 25.52578 0.01799
C 24.57615 2.92511 0.01257
C 24.60875 4.44103 0.00152
C 25.85075 4.85442 -0.00294
C 22.2592 24.15371 -0.0264
C 22.03255 19.86814 -0.01154
C 23.34031 4.9452 0.00684
C 22.1041 4.31781 -0.01052
C 22.08349 2.91421 -0.01679
C 23.26711 2.15848 0.00367
C 23.37273 0.6827 0.04306
C 22.0691 0.02994 0.00996
C 24.64485 32.64531 0.00195
C 25.81655 31.90861 -0.00802
C 25.80034 30.54129 -0.00218
C 24.60829 29.82875 -0.01654
C 24.63019 28.38018 -0.00037
C 25.9121 27.71367 -0.0032
C 25.84744 26.25354 0.00622
C 24.70575 25.60525 -0.02815
C 24.51139 24.22273 -0.00942
C 25.62781 23.42528 0.00487
C 25.65501 22.01529 0.00826
C 27.07494 2.86599 0.03265
C 2.34058 32.74372 -0.05697
