311
Graphene
C 34.35769 34.07051 0.01295
C 13.56587 32.00924 -0.00316
C 13.44962 30.67186 0.02188
C 12.30574 29.89454 -0.01979
C 13.47633 9.31078 0.02691
C 12.32867 8.4864 -0.01581
C 12.25279 7.02205 0.01452
C 13.47149 6.42061 0.04892
C 13.50812 5.00443 -0.00111
C 12.30898 4.28085 -0.03557
C 12.28181 2.86862 0.03754
C 13.41422 2.11772 0.01739
C 13.49164 0.67759 0.00755
C 12.23574 34.04364 -0.0054
C 14.76317 32.66673 0.00667
C 15.96431 31.95435 0.00143
C 12.28571 32.68252 -0.0331
C 9.87047 33.99049 -0.0258
C 11.10323 0.69897 0.03338
C 11.05212 2.18267 -0.00491
C 8.55063 2.08306 -0.02162
C 8.60286 0.66421 0.00889
C 7.33082 0.00675 -0.00481
C 9.90027 32.51718 0.00979
C 11.05695 31.88803 0.01443
C 11.064 30.40414 0.03505
C 9.74117 29.86913 -0.02815
C 15.96574 30.54642 -0.017
C 9.743 11.44672 -0.04147
C 11.09773 9.32518 0.00213
C 9.91708 8.53376 -0.00066
C 9.87039 7.11187 -0.00289
C 10.97773 6.36106 0.00028
C 10.98993 4.91163 -0.02213
C 9.78571 4.26114 0.03698
C 9.78122 2.7998 -0.00109
C 10.83654 10.78175 -0.05302
C 7.35179 2.87549 -0.00619
C 14.7546 29.861 0.00364
C 15.96412 27.77814 -0.02957
C 17.23949 7.19075 0.01511
C 18.39255 6.43688 -0.00478
C 18.39134 5.01268 -0.01662
C 17.16127 4.33452 -0.01185
C 17.17307 2.96194 0.01126
C 18.46664 2.17015 0.01852
C 18.4561 0.79512 -0.00381
C 17.32059 0.00176 0.03046
C 19.6638 32.76071 0.0296
C 20.86567 31.94613 0.03374
C 20.8442 30.53758 -0.02845
C 19.62963 29.94007 -0.03213
C 19.68055 28.40633 0.02239
C 20.77233 27.60987 0.01153
C 20.86929 26.24656 0.02734
C 17.34725 8.75775 0.00199
C 18.63662 9.38136 0.01087
C 18.4531 23.30769 -0.01527
C 18.42041 26.21542 0.00096
C 16.02937 8.85294 -0.04422
C 14.72235 8.46175 0.00654
C 14.7247 7.09754 -0.00703
C 15.94857 6.43141 -0.04076
C 15.92207 4.95729 -0.00652
C 14.72483 4.28266 0.0058
C 14.63144 2.80063 -0.00865
C 14.88157 28.50582 -0.00831
C 15.95053 2.17004 0.00675
C 14.75361 34.06107 0.00742
C 17.18634 32.6561 -0.01594
C 18.48299 31.99629 0.0106
C 18.40335 30.53575 -0.01154
C 17.17716 29.81768 -0.01721
C 17.26485 28.43683 -0.02422
C 18.48255 27.67627 0.01277
C 16.02326 0.75424 -0.00311
C 19.6347 25.52732 -0.0055
C 7.42204 4.24949 0.01848
C 8.60374 6.42696 -0.03113
C 3.61735 9.22272 0.00572
C 2.36614 8.54427 0.03592
C 2.41428 7.10098 0.00406
C 3.64881 6.40396 0.00943
C 3.64302 4.8915 0.02841
C 2.34995 4.26346 -0.01111
C 2.42729 2.80963 -0.01275
C 3.63759 2.07039 0.00985
C 3.6322 0.65239 -0.02245
C 2.44291 34.00134 -0.00428
C 4.83765 32.63767 0.03101
C 6.07709 31.97757 -0.01536
C 6.07518 30.51633 -0.02689
C 4.8832 29.65256 -0.01046
C 5.01055 28.30978 -0.00891
C 3.64441 10.60051 0.0402
C 2.39182 11.44969 -0.02759
C 2.50827 12.86667 0.03589
C 3.72803 13.60862 -0.00033
C 3.60559 30.49462 -0.01118
C 2.41785 29.77746 -0.014
C 2.43226 28.31826 0.02147
C 3.74157 27.649 0.00373
C 3.77351 26.22449 -0.00191
C 2.49805 25.61549 0.00438
C 2.40821 24.18078 0.01291
C 6.29956 27.69567 0.02819
C 3.62897 23.50718 0.00093
C 2.38659 21.33131 -0.01634
C 2.47817 19.9022 -0.00334
C 3.76394 19.18828 0.02339
C 3.76637 17.8083 0.01641
C 2.52921 17.10802 -0.00719
C 2.52316 15.65254 0.01364
C 3.71993 14.9725 -0.01062
C 3.62377 22.11359 0.00057
C 8.57887 4.96967 0.02098
C 6.04836 26.35983 0.00165
C 4.90554 24.05742 0.02894
C 4.85046 34.0341 -0.02813
C 7.31244 32.68672 0.00374
C 8.60803 32.0126 0.00052
C 8.49362 30.56004 -0.03682
C 7.31824 29.76437 0.01965
C 7.49004 28.41602 0.02058
C 7.40613 16.8397 -0.01957
C 7.4346 15.58935 -0.0108
C 8.7123 13.31701 -0.00368
C 7.52052 12.83765 -0.02696
C 7.31034 11.39757 -0.00114
C 8.48757 10.60457 0.00228
C 8.60021 9.19887 0.00798
C 7.38671 8.4995 0.00422
C 7.36937 7.14933 0.0351
C 6.06331 0.71347 -0.01952
C 6.16514 2.16296 0.05265
C 4.93549 2.78393 -0.01717
C 4.90171 4.21072 0.00244
C 4.90249 21.4971 -0.01789
C 4.94706 19.97373 0.00444
C 6.17342 19.19687 -0.00925
C 6.17945 17.80046 0.01877
C 5.00125 17.03773 0.01363
C 5.00046 15.70394 -0.02162
C 6.16127 14.90155 0.00415
C 4.97977 25.49165 -0.02971
C 6.15422 13.48168 -0.0014
C 4.87381 11.35062 0.0076
C 6.135 10.73162 0.01241
C 6.13221 9.27086 -0.01454
C 4.92343 8.5793 0.01945
C 4.87379 7.12881 0.01416
C 6.10598 6.38932 0.03542
C 6.11884 4.91168 0.02299
C 4.87271 12.75268 0.02162
C 3.63739 31.88114 -0.00131
C 19.45812 24.02657 0.01515
C 20.82128 21.92838 0.00071
C 33.14407 26.31232 0.01927
C 31.91914 25.59788 0.01574
C 31.99104 24.18395 -0.02383
C 33.16707 23.4534 -0.01429
C 33.1221 22.07875 -0.0136
C 31.81668 21.42701 0.00594
C 32.02111 20.05189 -0.02474
C 33.11311 19.23175 0.00369
C 33.22115 17.83881 0.00455
C 33.26435 14.9675 -0.00644
C 33.31063 13.67882 -0.01839
C 31.94727 11.47931 0.00137
C 33.18248 10.77629 0.00199
C 33.07372 9.32399 0.04381
C 31.80712 8.66166 0.02806
C 33.17944 27.68614 0.03794
C 31.94454 28.46223 -0.01779
C 31.89145 29.85954 0.00682
C 33.0736 30.54596 0.00026
C 29.55209 24.24168 -0.00944
C 30.82387 23.48232 -0.03735
C 30.62793 22.20167 -0.00971
C 30.82677 10.84845 0.01518
C 30.66242 9.36238 0.01908
C 29.38113 8.58089 0.07705
C 29.43627 7.19106 0.0103
C 31.90169 7.22679 0.01504
C 30.68863 6.47269 0.02108
C 29.45745 4.2376 0.00307
C 29.44047 2.84715 0.00346
C 30.6974 2.13778 0.01713
C 30.67005 0.6792 -0.01694
C 29.43989 34.01479 0.01428
C 31.95812 32.6149 -0.02142
C 33.1637 31.90733 0.0544
C 30.69583 4.99372 0.00716
C 29.45089 25.61946 -0.02155
C 33.06212 6.47457 -0.00069
C 31.89349 4.35002 -0.03838
C 34.42465 15.78097 0.02114
C 1.19038 15.01327 -0.02957
C 1.24877 13.55148 0.00343
C 0.02742 12.902 -0.02656
C 34.4238 11.38494 -0.02442
C 1.1484 10.69136 -0.00027
C 1.08965 9.32708 -0.00583
C 34.2788 8.65025 -0.02302
C 34.27657 7.2445 -0.02849
C 1.16842 6.45427 0.02931
C 1.15687 4.97104 0.00628
C 34.34467 4.26212 -0.0345
C 0.00455 2.82596 -0.00931
C 1.24839 2.10746 -0.00939
C 1.1706 0.68254 -0.00468
C 34.42372 17.1782 0.00648
C 1.29281 17.82855 0.01223
C 1.16947 19.2346 -0.01678
C 34.37957 19.93234 0.01951
C 31.89611 2.829 0.00349
C 33.15052 2.14091 -0.00323
C 33.12911 0.71725 -0.00841
C 31.90382 34.02514 0.0001
C 34.3935 32.6475 -0.02927
C 1.18627 31.96788 -0.01404
C 1.12134 30.59615 0.01027
C 33.1193 5.04472 0.04926
C 34.33842 29.87128 0.01831
C 1.18536 27.71925 -0.00439
C 1.28588 26.33063 -0.00598
C 0.04212 25.5914 -0.05239
C 34.39489 24.15832 0.03076
C 1.1154 23.44127 0.00723
C 1.11871 22.0015 0.02712
C 34.3062 21.32454 -0.02213
C 34.3775 28.38098 -0.01037
C 20.84541 23.20652 -0.00225
C 30.72213 26.31761 -0.01461
C 29.42256 28.34275 -0.0405
C 23.22927 23.38387 -0.00229
C 23.39807 9.15401 -0.00938
C 22.09875 8.65068 -0.0264
C 22.09408 7.21285 -0.01154
C 23.32134 6.38787 0.00684
C 23.35077 5.0094 -0.01052
C 22.12221 4.30461 -0.01679
C 22.17648 2.8904 0.00367
C 23.33331 2.08454 0.04306
C 23.35696 0.74895 0.00996
C 22.10977 0.02935 0.00195
C 24.52534 32.65144 -0.00802
C 25.69772 31.82276 -0.00218
C 25.7675 30.43126 -0.01654
C 24.54776 29.76949 -0.00037
C 22.03363 24.08134 -0.01199
C 22.11438 25.57712 -0.009
C 23.42337 26.20928 -0.00285
C 23.3285 27.58225 0.01423
C 20.03686 10.54387 -0.01107
C 20.79424 9.3817 -0.01586
C 19.69578 8.53127 -0.01971
C 19.63473 7.14089 -0.02118
C 20.85814 6.45813 0.00733
C 20.92671 5.06737 -0.00178
C 19.68352 4.33088 0.00768
C 24.50516 28.2746 -0.0032
C 19.6639 2.87682 -0.0276
C 20.91261 0.75899 -0.04078
C 19.69866 0.07445 0.02117
C 22.07196 32.67537 0.02737
C 23.31715 31.96905 -0.00498
C 23.34944 30.55671 0.00135
C 22.07668 29.81857 0.03102
C 22.08252 28.37355 0.02555
C 20.91423 2.1737 0.03005
C 30.70435 27.71522 -0.01303
C 25.73069 27.56085 0.00622
C 24.58586 25.41476 -0.00942
C 28.46197 23.47294 0.01324
C 28.02585 9.17477 0.0014
C 26.93622 8.46469 0.00924
C 26.99468 7.06487 0.02326
C 28.23345 6.35884 0.00261
C 28.17409 4.96913 0.03265
C 26.95666 4.29938 -0.02049
C 27.06125 2.84222 -0.01854
C 28.24707 2.12699 -0.01415
C 28.18406 0.70179 -0.03039
C 26.96138 34.04376 0.01836
C 29.46907 32.6029 0.03531
C 30.67178 31.96487 -0.00669
C 30.70438 30.54082 0.0101
C 29.46564 29.79946 0.01705
C 27.08416 24.0305 0.04266
C 27.05913 25.41674 0.01177
C 28.20369 26.24177 -0.00416
C 28.2356 27.68321 0.01699
C 24.53959 23.95725 0.00487
C 25.85575 23.43815 0.00826
C 24.52175 8.53002 -0.00294
C 24.51668 7.09887 0.00152
C 25.79162 6.33737 0.01257
C 25.74599 4.93862 0.02316
C 24.47586 4.28531 0.04185
C 25.73316 26.13093 -0.02815
C 24.51873 2.84818 0.00194
C 25.71986 0.75816 0.02611
C 24.49209 0.03866 0.02198
C 26.92887 32.60053 0.01094
C 28.2008 31.9238 0.00235
C 28.28102 30.5584 0.01495
C 27.02608 29.81573 0.01259
C 26.999 28.39048 0.01799
C 25.83015 2.21596 -0.00621
C 2.42521 32.62406 -0.02896
