423
Graphene
C 0.03978 34.02628 0.01295
C 12.35766 25.64269 0.03592
C 12.32471 24.17328 0.00406
C 13.52311 23.4845 0.00943
C 13.56039 22.07569 0.02841
C 12.31479 21.38221 -0.01111
C 12.29436 19.9244 -0.01275
C 13.47394 19.10462 0.00985
C 13.46556 17.6632 -0.02245
C 12.26604 16.98606 -0.00428
C 12.33397 15.55225 0.03101
C 13.54817 26.34575 0.00572
C 13.55215 14.97588 -0.01536
C 12.24297 12.81121 -0.01046
C 12.27202 11.41982 -0.00891
C 13.58357 10.65508 0.02819
C 13.49922 9.23969 0.00165
C 12.34133 8.44601 -0.02971
C 12.32961 7.0044 0.02894
C 13.51201 6.30816 -0.01789
C 13.54534 4.89121 0.00444
C 12.27735 4.19039 -0.00925
C 12.3749 2.8426 0.01877
C 13.53869 13.48742 -0.02689
C 13.47108 27.74344 0.0402
C 12.16557 28.49548 -0.02759
C 12.21916 29.90749 0.03589
C 9.87729 19.96415 0.03693
C 11.09948 19.23817 0.01745
C 11.11007 17.74879 0.00488
C 9.88812 17.07021 -0.01004
C 9.86712 15.64061 -0.02896
C 11.0702 14.88355 -0.00131
C 11.06205 13.56609 -0.01118
C 9.88245 12.79356 -0.014
C 9.87661 11.39913 0.02147
C 11.12961 10.64877 0.00373
C 11.1749 9.17651 -0.00191
C 9.90838 8.53055 0.00438
C 9.89504 7.14236 0.01291
C 11.03292 6.29016 0.00093
C 10.95871 4.94676 0.00057
C 9.75919 4.27365 -0.01634
C 9.79999 2.86454 -0.00334
C 11.06322 2.15388 0.02339
C 11.05772 0.75283 0.01641
C 9.80119 0.05021 -0.00719
C 12.25175 32.69694 0.01364
C 13.41963 31.95687 -0.01062
C 13.47929 30.61687 -0.00033
C 13.55075 2.06495 0.01363
C 9.89381 21.39797 -0.01384
C 13.53619 0.67777 -0.02162
C 14.74126 32.63829 -0.0014
C 14.73585 2.78291 -0.03113
C 15.92944 2.17954 0.02098
C 15.96195 0.69321 0.01848
C 14.77639 0.00901 -0.00619
C 17.25237 32.63745 -0.02162
C 18.45411 31.90609 0.00889
C 18.37238 30.51359 -0.00481
C 17.16645 29.80058 0.00979
C 17.14633 28.36356 0.01443
C 18.38296 27.70578 0.03505
C 14.71687 4.22859 0.0351
C 18.42453 26.2344 -0.02815
C 17.13248 24.15102 -0.05302
C 18.38629 23.50313 0.00213
C 18.42042 22.05626 -0.00066
C 17.18088 21.26485 -0.00289
C 17.17051 19.8441 0.00028
C 18.38922 19.15458 -0.02213
C 18.52941 17.71385 0.03698
C 17.28077 17.06551 -0.00109
C 17.27101 15.63019 -0.00491
C 18.49417 14.94111 0.03338
C 17.12315 25.56501 -0.04147
C 15.99808 4.92911 0.00422
C 16.04337 6.3866 0.00798
C 14.76628 7.04027 0.00228
C 15.96025 31.9555 0.02162
C 15.92818 30.5799 0.0076
C 14.69637 29.86065 0.01241
C 14.66574 28.45806 -0.01454
C 15.89068 27.70403 0.01945
C 15.97893 26.27844 0.01416
C 14.75899 25.56717 0.03542
C 14.69181 24.17555 0.02299
C 15.93772 23.354 0.00244
C 15.90851 21.95183 -0.01717
C 14.72403 21.2088 0.05265
C 14.69016 19.80035 -0.01952
C 16.00351 19.14941 -0.02813
C 16.02179 17.76892 0.00374
C 14.74278 17.06717 0.00052
C 14.78908 15.62156 -0.03682
C 15.97434 14.95203 0.01965
C 15.9629 13.52394 0.02058
C 14.73861 12.83007 -0.01957
C 14.7767 11.37439 -0.0108
C 15.96615 10.67513 -0.00368
C 15.9635 9.207 -0.02696
C 14.73639 8.50473 -0.00114
C 12.30107 0.07634 0.00415
C 18.46773 13.52669 -0.0258
C 11.12769 22.10208 -0.00482
C 9.77282 24.15855 0.00685
C 3.60505 2.1718 0.02784
C 3.67572 0.78484 -0.01977
C 2.49398 0.03911 -0.00561
C 4.89716 32.69075 0.00208
C 6.10531 32.01055 0.01707
C 6.11408 30.55082 0.02769
C 4.92695 29.78797 -0.03291
C 4.96466 28.3469 -0.04999
C 6.17383 27.73822 0.04505
C 6.21313 26.28778 0.03284
C 2.36441 2.91191 -0.01979
C 4.96298 25.65273 -0.04307
C 6.10574 23.43576 0.00031
C 6.19511 22.00421 -0.003
C 4.90192 21.27149 0.01402
C 4.93357 19.91266 0.02379
C 6.15174 19.19896 0.00907
C 6.20372 17.76548 0.00643
C 4.98738 16.96313 -0.01509
C 4.91412 15.53564 0.03267
C 6.11293 14.85898 0.02374
C 6.1438 13.49855 0.00402
C 4.96818 24.15597 0.03189
C 2.39963 4.29089 -0.00449
C 3.59933 5.02332 0.00211
C 3.65067 6.39501 0.0064
C 3.72221 30.54219 0.01078
C 2.49114 29.79314 -0.00112
C 2.48495 28.40584 0.03345
C 3.69413 27.68318 0.00748
C 3.70298 26.25041 0.00662
C 2.49836 25.47815 -0.0154
C 2.47824 24.0518 -0.01299
C 3.6809 23.45528 -0.00407
C 3.6371 22.10036 0.01138
C 2.43266 21.36201 0.03278
C 2.45692 19.95005 -0.00177
C 3.73339 19.20737 0.04421
C 3.7761 17.76863 0.00088
C 2.50907 17.09978 0.00828
C 2.49166 15.59353 -0.02375
C 3.649 14.864 0.00558
C 3.5853 13.38006 -0.0059
C 2.37498 12.70464 -0.01386
C 2.4182 11.37098 -0.02805
C 3.65065 10.70202 0.00081
C 3.6372 9.24821 0.00245
C 2.38016 8.52902 0.02728
C 2.4087 7.11459 -0.00039
C 4.84451 12.73752 0.0073
C 11.05113 23.51519 0.02888
C 4.89258 11.37992 0.0174
C 6.13972 9.30374 0.01226
C 8.60779 13.58145 -0.00049
C 7.35206 12.81395 0.00848
C 7.36363 11.41413 -0.01303
C 8.65038 10.61698 -0.01378
C 8.69064 9.26415 0.02635
C 7.41084 8.59035 0.0127
C 7.37043 7.21265 0.01396
C 8.54782 6.4656 0.01849
C 8.49249 5.03091 -0.01142
C 7.27137 4.35638 -0.00562
C 8.59508 14.9781 0.00873
C 7.28376 2.94439 -0.00494
C 8.61641 0.80601 0.03007
C 7.41327 0.09863 -0.00095
C 9.8053 32.7096 0.01572
C 11.0663 32.0304 -0.04848
C 11.03716 30.62438 -0.00892
C 9.82697 29.87731 -0.01362
C 9.84731 28.45792 -0.0008
C 11.011 27.72805 0.0288
C 11.084 26.30024 0.00393
C 9.83817 25.5333 0.00895
C 8.55736 2.20361 0.00054
C 7.41564 15.68025 0.01227
C 7.3859 17.08586 -0.03337
C 8.6612 17.80492 -0.00966
C 4.91944 8.52439 -0.00279
C 4.92944 7.15684 0.01996
C 6.10455 6.47309 -0.03996
C 6.02715 5.01667 0.01465
C 4.83622 4.29376 -0.00074
C 4.84572 2.86296 -0.00518
C 6.03072 2.17145 0.0086
C 6.13111 0.65904 -0.00643
C 4.90586 0.06009 0.017
C 7.37974 32.68733 -0.03113
C 8.59608 31.96488 -0.02566
C 8.60365 30.53867 -0.00094
C 7.37023 29.84045 0.02322
C 7.36012 28.44972 -0.00725
C 8.5851 27.65416 -0.05697
C 8.65662 26.2622 0.01087
C 7.4257 25.56508 -0.01343
C 7.3315 24.16834 0.00988
C 8.5949 23.41942 0.0276
C 8.57211 22.06107 0.01305
C 7.40534 21.28039 -0.00077
C 7.40845 19.85956 0.03368
C 8.70248 19.17116 -0.02929
C 6.14283 10.70008 0.03828
C 3.72427 31.91167 -0.02827
C 17.21568 12.82269 -0.0331
C 18.51052 10.68934 0.02188
C 29.57811 11.54814 -0.02155
C 30.67069 10.68539 -0.00944
C 30.67556 9.21776 -0.03735
C 29.55055 8.47287 -0.00971
C 29.46137 7.11686 0.01518
C 30.70005 6.29576 0.01908
C 30.72988 4.95227 0.07705
C 29.55036 4.23618 0.0103
C 29.45756 2.83123 0.02108
C 30.67095 2.04934 0.00716
C 29.49952 12.81318 -0.01461
C 30.72941 0.63469 0.00307
C 31.98345 32.64154 0.01713
C 33.20813 31.92268 -0.01694
C 33.24187 30.52628 0.01428
C 31.97694 29.80416 -0.02142
C 31.96848 28.34327 0.0544
C 33.2122 27.60421 0.00026
C 33.21015 26.2497 0.00682
C 31.97516 25.5044 -0.01779
C 31.88828 24.10533 0.03794
C 33.17409 23.40597 0.01927
C 29.49892 34.02994 0.00346
C 30.66739 13.51161 -0.01303
C 30.7291 14.91025 -0.0405
C 29.55675 15.61954 0.01705
C 28.2096 6.52442 0.01094
C 28.20965 5.03653 0.00235
C 27.02542 4.36603 0.01495
C 27.07293 2.89047 0.01259
C 28.29799 2.16671 0.01799
C 28.32181 0.71759 0.01699
C 27.0788 0.09911 -0.00416
C 29.47819 32.6277 0.01177
C 30.71086 31.95393 0.04266
C 30.77906 30.54352 0.01324
C 29.50779 29.80052 0.0014
C 29.47574 28.40419 0.00924
C 30.71208 27.67886 0.02326
C 30.79775 26.23313 0.00261
C 29.51674 25.53829 0.03265
C 29.52127 24.18735 -0.02049
C 30.71345 23.37276 -0.01854
C 30.63352 21.99113 -0.01415
C 29.40935 21.25469 -0.03039
C 29.47885 19.93801 0.01836
C 30.72591 19.18327 0.03531
C 30.77366 17.79492 -0.00669
C 29.58518 17.09851 0.0101
C 33.09689 22.02147 0.01574
C 26.9747 6.95238 0.02198
C 31.89829 21.27363 -0.02383
C 33.18357 19.21445 -0.0136
C 1.20482 23.37546 0.00723
C 1.20748 21.99063 0.02712
C 34.42376 21.34357 -0.02213
C 34.39151 19.96339 0.01951
C 1.21053 19.2379 -0.01678
C 1.25632 17.83224 0.01223
C 0.01539 17.11073 0.00648
C 0.01463 15.61073 0.02114
C 1.24919 14.96848 -0.02957
C 1.15704 13.50563 0.00343
C 0.01104 24.07614 0.03076
C 34.39945 12.78174 -0.02656
C 1.16608 10.62458 -0.00027
C 1.12943 9.19614 -0.00583
C 34.34771 8.52843 -0.02302
C 34.36212 7.08417 -0.02849
C 1.2192 6.38848 0.02931
C 1.1789 4.97126 0.00628
C 34.41751 4.18849 -0.0345
C 34.30205 2.76805 -0.00931
C 1.12281 2.10042 -0.00939
C 1.22363 0.70168 -0.00468
C 34.39046 11.35931 -0.02442
C 0.00906 25.4477 -0.05239
C 1.21253 26.21181 -0.00598
C 1.33137 27.6495 -0.00439
C 33.1805 17.78258 0.00594
C 31.9931 17.02682 -0.02474
C 31.96369 15.62495 0.00369
C 33.22753 14.87786 0.00455
C 33.17427 13.46225 -0.00644
C 31.91735 12.77956 -0.01839
C 31.94273 11.41825 0.00137
C 33.18845 10.57497 0.00199
C 33.14399 9.16511 0.04381
C 31.92084 8.42691 0.02806
C 31.92365 7.03957 0.01504
C 33.21158 6.30764 -0.00069
C 33.23812 4.92869 0.04926
C 31.96719 4.21897 -0.03838
C 31.87428 2.75842 0.00349
C 33.05256 2.08108 -0.00323
C 33.18267 0.65508 -0.00841
C 31.95899 34.05669 0.0001
C 0.04969 32.62024 -0.02927
C 1.308 31.90224 -0.01404
C 1.28765 30.47368 0.01027
C 0.09192 29.74724 0.01831
C 0.081 28.32478 -0.01037
C 31.96193 19.91953 -0.01429
C 17.25952 11.31564 -0.00316
C 28.34615 14.91081 0.02611
C 27.11515 16.97277 0.00194
C 20.88256 14.92813 -0.01594
C 19.56823 12.73131 0.0106
C 19.6185 11.46299 -0.01154
C 19.67246 8.52167 -0.01721
C 19.71227 7.14071 -0.02422
C 20.92012 6.43444 0.01277
C 20.90365 5.02316 0.00096
C 19.68926 4.25121 -0.01527
C 19.64817 2.82241 0.01087
C 20.92561 2.07983 0.00199
C 19.73267 15.57908 0.00742
C 20.91276 0.71754 0.01511
C 22.07 32.51758 -0.01662
C 23.30597 31.95726 -0.01185
C 23.31201 30.54286 0.01126
C 22.1164 29.88394 0.01852
C 22.08904 28.45675 -0.00381
C 23.34623 27.71073 0.03046
C 23.36767 26.33129 0.0296
C 22.10088 25.62131 0.03374
C 22.11343 24.16176 -0.02845
C 23.36334 23.51688 -0.03213
C 19.63315 34.07679 -0.00478
C 19.74551 16.98546 -0.00311
C 20.95247 17.66644 0.00675
C 20.91799 19.11594 -0.00865
C 18.48843 9.23777 -0.01979
C 17.25421 8.56133 0.02691
C 17.21366 7.10177 -0.01581
C 18.55467 6.35724 0.01452
C 18.46333 4.96192 0.04892
C 17.1976 4.24911 -0.00111
C 17.19189 2.85896 -0.03557
C 18.36416 2.15147 0.03754
C 18.41289 0.76836 0.01739
C 17.24046 0.00762 0.00755
C 19.61111 32.69273 -0.0054
C 20.88102 31.89134 0.00667
C 20.80765 30.47586 0.00143
C 19.63059 29.75766 -0.017
C 19.62061 28.38675 0.00364
C 20.85697 27.70225 -0.00831
C 20.88831 26.30153 -0.02957
C 19.67136 25.54219 -0.04422
C 19.65892 24.07505 0.00654
C 20.90951 23.45444 -0.00703
C 20.88596 21.91066 -0.04076
C 19.59355 21.30689 -0.00652
C 19.62312 19.85815 0.0058
C 23.34242 21.94475 0.02239
C 27.31663 15.52991 -0.00621
C 22.17145 21.23454 0.01153
C 23.37583 19.1817 -0.0055
C 25.78091 6.4082 0.00684
C 25.72241 5.08278 -0.01052
C 24.52294 4.27762 -0.01679
C 24.60496 2.80736 0.00367
C 25.84612 2.11815 0.04306
C 25.84819 0.70574 0.00996
C 24.57486 0.01451 0.00195
C 27.04333 32.70665 -0.00802
C 28.19446 31.89287 -0.00218
C 28.28311 30.51656 -0.01654
C 24.67155 17.08196 -0.01154
C 27.02628 29.81759 -0.00037
C 28.25775 27.61198 0.00622
C 28.31199 26.21877 -0.02815
C 27.04274 25.60987 -0.00942
C 27.05152 24.13064 0.00487
C 28.21033 23.4194 0.00826
C 28.27386 22.01359 -0.00294
C 27.05775 21.30627 0.00152
C 27.0369 19.87762 0.01257
C 28.26488 19.14442 0.02316
C 28.33886 17.7731 0.04185
C 27.02922 28.38854 -0.0032
C 25.88467 17.72363 -0.0264
C 25.82761 19.15503 -0.00938
C 24.55633 19.88508 -0.00229
C 23.42593 17.66797 0.01515
C 22.24555 16.88613 -0.00225
C 22.0237 15.46726 0.00071
C 22.20023 6.81944 -0.01107
C 23.29274 6.39041 -0.01586
C 23.33814 4.96068 -0.01971
C 22.14492 4.29079 -0.02118
C 22.14876 2.8775 0.00733
C 23.4037 2.14854 -0.00178
C 23.32065 0.67017 0.00768
C 22.14144 33.97531 -0.0276
C 24.57573 32.65243 0.03005
C 25.83291 32.02603 -0.04078
C 25.82477 30.53291 0.02117
C 24.55936 29.87653 0.02737
C 24.53408 28.36421 -0.00498
C 25.80987 27.64082 0.00135
C 25.84263 26.31867 0.03102
C 24.62753 25.5813 0.02555
C 24.61865 24.14912 0.01423
C 25.83789 23.41575 -0.00285
C 25.86349 21.99431 -0.009
C 24.64049 21.32945 -0.01199
C 22.10874 19.81329 0.02734
C 2.51928 32.65119 -0.01471
