447
Graphene
C 0.01814 0.01839 0.01295
C 12.18052 17.1197 -0.00191
C 12.29711 15.71711 0.00438
C 13.47949 14.92578 0.01291
C 13.46062 13.5272 0.00093
C 12.18176 12.76532 0.00057
C 12.19586 11.37934 -0.01634
C 13.54035 10.71668 -0.00334
C 13.57389 9.33198 0.02339
C 12.32454 8.65004 0.01641
C 12.34971 7.19683 -0.00719
C 13.42391 6.37297 0.01364
C 13.39884 17.75703 0.00373
C 13.48609 4.98739 -0.01062
C 12.26002 2.89667 0.03589
C 13.56027 2.16362 -0.02759
C 13.47041 0.83385 0.0402
C 12.25075 0.12837 0.00572
C 14.74301 32.7122 0.03592
C 15.91642 32.03148 0.00406
C 15.93965 30.50099 0.00943
C 14.67846 29.87735 0.02841
C 14.76686 28.43682 -0.01111
C 15.97212 27.76378 -0.01275
C 15.9754 26.25598 0.00985
C 12.24761 4.28651 -0.00033
C 14.69197 25.50149 -0.02245
C 13.43552 19.0777 0.02147
C 12.22587 21.2468 -0.01118
C 9.81456 12.85576 -0.01142
C 9.73854 11.41118 -0.00562
C 10.96907 10.62247 -0.00494
C 11.06921 9.27552 0.00054
C 9.81781 8.56618 0.03007
C 9.86977 7.07592 -0.00095
C 11.09092 6.46656 0.01572
C 11.08211 5.01941 -0.04848
C 9.77813 4.4174 -0.00892
C 9.7014 2.96643 -0.01362
C 11.03309 2.30842 -0.0008
C 12.19517 19.74151 -0.014
C 11.05074 0.75777 0.0288
C 12.25352 32.76977 0.00895
C 13.42662 32.02086 0.00685
C 13.41708 30.54368 0.02888
C 12.29329 29.84382 -0.00482
C 12.28541 28.37092 -0.01384
C 13.59671 27.71195 0.03693
C 13.57137 26.25464 0.01745
C 12.31729 25.63317 0.00488
C 12.18253 24.15816 -0.01004
C 13.43727 23.38497 -0.02896
C 13.43404 22.07238 -0.00131
C 9.79419 0.05745 0.00393
C 11.02219 13.54488 0.01849
C 14.68171 24.10948 -0.00428
C 15.87893 22.02008 -0.01536
C 17.18889 25.61355 0.00374
C 17.10381 24.09529 0.00052
C 18.35372 23.43021 -0.03682
C 18.39975 22.05028 0.01965
C 17.19838 21.39731 0.02058
C 17.18222 20.0116 -0.01957
C 18.37138 19.20752 -0.0108
C 18.45233 17.72831 -0.00368
C 17.21141 16.993 -0.02696
C 17.22037 15.62489 -0.00114
C 18.38969 14.89404 0.00228
C 18.46543 26.2788 -0.02813
C 18.40768 13.41461 0.00798
C 17.11017 11.30783 0.0351
C 18.29863 10.60277 -0.03113
C 18.39728 9.21472 0.02098
C 17.19692 8.51802 0.01848
C 17.16733 7.09849 -0.00619
C 18.43015 6.46305 -0.02162
C 18.45937 5.00006 0.00889
C 17.19034 4.27854 -0.00481
C 17.23786 2.8714 0.00979
C 18.42627 2.15315 0.01443
C 18.41561 0.73116 0.03505
C 17.08663 12.83384 0.00422
C 15.95813 23.42753 0.03101
C 18.37822 27.71412 -0.01952
C 17.14567 29.90423 -0.01717
C 14.71833 21.31128 -0.02689
C 14.69264 19.88721 -0.01046
C 15.92646 19.20355 -0.00891
C 15.91638 17.7454 0.02819
C 14.67016 17.11143 0.00165
C 14.74865 15.67035 -0.02971
C 15.95175 14.96417 0.02894
C 15.89911 13.56414 -0.01789
C 14.66833 12.82248 0.00444
C 14.67451 11.35387 -0.00925
C 15.92896 10.54435 0.01877
C 17.1268 28.46557 0.05265
C 15.96952 9.19748 0.01363
C 14.67619 7.10963 0.00415
C 15.90325 6.35212 -0.0014
C 15.91565 4.96052 0.02162
C 14.72296 4.20727 0.0076
C 14.82161 2.83132 0.01241
C 16.07022 2.15995 -0.01454
C 15.99384 0.75205 0.01945
C 14.74155 0.05957 0.01416
C 17.14669 32.73206 0.03542
C 18.43357 31.94418 0.02299
C 18.38203 30.49633 0.00244
C 14.71958 8.47641 -0.02162
C 17.32233 34.07433 -0.02815
C 11.04865 15.01177 0.01396
C 9.79063 17.17305 0.02635
C 3.71018 0.74859 0.00662
C 2.36296 0.09499 -0.0154
C 4.85199 32.80792 -0.01299
C 6.14875 32.06115 -0.00407
C 6.09198 30.61094 0.01138
C 4.87918 29.77267 0.03278
C 4.87928 28.30481 -0.00177
C 6.19868 27.71043 0.04421
C 6.15377 26.1791 0.00088
C 4.85766 25.56518 0.00828
C 4.7941 24.22201 -0.02375
C 3.65048 2.20414 0.00748
C 6.09201 23.43521 0.00558
C 4.79441 21.27109 -0.01386
C 4.77566 19.89414 -0.02805
C 6.08759 19.23229 0.00081
C 6.10603 17.73969 0.00245
C 4.84644 16.96852 0.02728
C 4.86397 15.54977 -0.00039
C 6.05565 14.90021 0.0064
C 6.13665 13.52002 0.00211
C 4.92624 12.82966 -0.00449
C 4.92571 11.36221 -0.01979
C 6.18113 10.69491 0.02784
C 6.00595 22.02517 -0.0059
C 6.20266 9.33277 -0.01977
C 2.4367 2.87194 0.03345
C 3.71772 5.05346 0.01078
C 3.65667 30.51163 0.00297
C 2.43859 29.76641 0.02438
C 2.46618 28.35979 -0.02419
C 3.70302 27.56479 -0.03951
C 3.59037 26.22511 -0.00141
C 2.30308 25.52474 -0.00374
C 2.35053 24.10368 -0.0213
C 3.61712 23.50087 0.01116
C 3.62533 21.99715 -0.0005
C 2.41634 21.19307 -0.00018
C 2.43492 19.85529 0.01073
C 2.48938 4.33883 -0.00112
C 3.5924 19.12439 0.01984
C 2.40686 16.99714 -0.00198
C 2.39775 15.6156 -0.00012
C 3.7152 14.91296 -0.04306
C 3.69715 13.48699 -0.03672
C 2.5034 12.77118 0.01913
C 2.48219 11.32316 0.00267
C 3.74782 10.6905 0.00787
C 3.67977 9.19691 0.02426
C 2.52393 8.59925 0.01218
C 2.52951 7.13849 -0.01471
C 3.69275 6.48374 -0.02827
C 3.61407 17.66416 0.00535
C 9.89828 15.77445 0.0127
C 4.99663 8.5097 -0.00561
C 6.2095 6.41917 0.01707
C 8.5628 9.32813 -0.00643
C 7.39667 8.6287 0.017
C 7.42969 7.19484 -0.03113
C 8.58762 6.422 -0.02566
C 8.43177 5.03919 -0.00094
C 7.26746 4.3087 0.02322
C 7.34663 2.87404 -0.00725
C 8.5201 2.17351 -0.05697
C 8.55616 0.71221 0.01087
C 7.39585 0.04686 -0.01343
C 9.87426 32.68914 0.00988
C 8.548 10.74101 0.0086
C 10.96913 31.96517 0.0276
C 9.82499 29.8682 -0.00077
C 9.80598 28.44204 0.03368
C 11.00588 27.68998 -0.02929
C 11.00001 26.25555 -0.00966
C 9.74698 25.49619 -0.03337
C 9.83501 24.09536 0.01227
C 11.01761 23.42932 0.00873
C 11.02874 21.95407 -0.00049
C 9.9113 21.24077 0.00848
C 9.79504 19.79842 -0.01303
C 10.94906 18.95171 -0.01378
C 11.06591 30.51524 0.01305
C 4.96853 7.11235 0.00208
C 7.37959 11.4562 -0.00518
C 8.58749 13.60522 0.01465
C 6.15977 5.07392 0.02769
C 4.97322 4.29253 -0.03291
C 4.84393 2.91629 -0.04999
C 6.06727 2.19782 0.04505
C 6.16732 0.80929 0.03284
C 4.94142 0.13957 -0.04307
C 7.40749 32.67292 0.03189
C 8.63175 31.94762 0.00031
C 8.48572 30.58446 -0.003
C 7.21278 29.89966 0.01402
C 7.32617 28.43673 0.02379
C 7.36 12.88945 -0.00074
C 8.54928 27.68968 0.00907
C 7.29752 25.47645 -0.01509
C 7.41023 24.06125 0.03267
C 8.65475 23.39853 0.02374
C 8.65904 21.94332 0.00402
C 7.26551 21.28408 0.0073
C 7.26588 19.98643 0.0174
C 8.43699 19.20165 0.03828
C 8.5543 17.82624 0.01226
C 7.31533 17.12658 -0.00279
C 7.36741 15.73496 0.01996
C 8.67458 15.08853 -0.03996
C 8.49398 26.26626 0.00643
C 3.71673 32.01605 -0.00605
C 19.64629 32.71206 -0.04147
C 20.86806 30.53079 0.00213
C 29.53249 16.91505 0.0101
C 29.46784 15.45403 0.01705
C 30.72438 14.85414 -0.0405
C 30.73605 13.39053 -0.01303
C 29.46266 12.73167 -0.01461
C 29.54812 11.34909 -0.02155
C 30.80973 10.6063 -0.00944
C 30.78845 9.20937 -0.03735
C 29.4911 8.48896 -0.00971
C 29.43707 7.05507 0.01518
C 30.66206 6.43563 0.01908
C 30.77354 17.66031 -0.00669
C 30.76483 4.93426 0.07705
C 29.54032 2.8178 0.02108
C 30.75817 2.11396 0.00716
C 30.72138 0.66846 0.00307
C 29.45697 0.01533 0.00346
C 31.90107 32.64954 0.01713
C 33.20092 31.99876 -0.01694
C 33.15617 30.55132 0.01428
C 31.90647 29.86469 -0.02142
C 31.97771 28.4699 0.0544
C 33.16788 27.63051 0.00026
C 33.12512 26.23618 0.00682
C 29.49401 4.1682 0.0103
C 31.99676 25.56027 -0.01779
C 30.6922 19.15674 0.03531
C 29.51296 21.27352 -0.03039
C 26.92174 12.78543 0.02316
C 27.05661 11.45087 0.04185
C 28.30706 10.64892 0.00194
C 28.30159 9.22338 -0.00621
C 27.11576 8.48997 0.02611
C 27.00788 7.0773 0.02198
C 28.26102 6.3675 0.01094
C 28.32724 4.9707 0.00235
C 27.03761 4.29738 0.01495
C 27.03116 2.90787 0.01259
C 28.28137 2.14483 0.01799
C 29.45971 19.79263 0.01836
C 28.27785 0.73462 0.01699
C 29.44575 32.74404 0.01177
C 30.70528 31.94791 0.04266
C 30.71611 30.58791 0.01324
C 29.48554 29.88986 0.0014
C 29.47866 28.47583 0.00924
C 30.75339 27.66794 0.02326
C 30.7895 26.25064 0.00261
C 29.5636 25.57363 0.03265
C 29.46261 24.17972 -0.02049
C 30.72993 23.50367 -0.01854
C 30.6784 22.05148 -0.01415
C 27.04276 0.11077 -0.00416
C 28.22273 13.44682 0.01257
C 31.98885 24.09946 0.03794
C 33.12572 22.03946 0.01574
C 34.32474 25.52757 -0.05239
C 34.34853 24.11844 0.03076
C 1.0689 23.35099 0.00723
C 1.11031 21.88833 0.02712
C 34.37476 21.26569 -0.02213
C 34.33001 19.75926 0.01951
C 1.1318 19.12667 -0.01678
C 1.12677 17.72148 0.01223
C 34.38219 17.00335 0.00648
C 34.39055 15.59417 0.02114
C 1.15366 14.88068 -0.02957
C 1.13457 26.23973 -0.00598
C 1.26034 13.4772 0.00343
C 34.43068 11.3687 -0.02442
C 1.22658 10.6415 -0.00027
C 1.23498 9.20542 -0.00583
C 34.39956 8.57605 -0.02302
C 0.00483 7.17678 -0.02849
C 1.26713 6.38632 0.02931
C 1.25182 4.95477 0.00628
C 0.03412 4.20876 -0.0345
C 34.42145 2.84143 -0.00931
C 1.21533 2.17041 -0.00939
C 1.18783 0.7417 -0.00468
C 34.38255 12.70414 -0.02656
C 33.18929 23.38138 0.01927
C 1.29052 27.67938 -0.00439
C 34.35885 29.79561 0.01831
C 31.91683 21.33045 -0.02383
C 31.88333 19.89267 -0.01429
C 33.05618 19.14942 -0.0136
C 33.1316 17.72631 0.00594
C 31.98623 16.95994 -0.02474
C 31.99703 15.52144 0.00369
C 33.25214 14.83505 0.00455
C 33.22288 13.38174 -0.00644
C 31.88852 12.75137 -0.01839
C 31.97366 11.35577 0.00137
C 33.21677 10.64761 0.00199
C 0.03431 28.4045 -0.01037
C 33.20288 9.26023 0.04381
C 31.90137 7.10774 0.01504
C 33.18851 6.43428 -0.00069
C 33.19184 4.94891 0.04926
C 31.97998 4.25483 -0.03838
C 31.95227 2.91338 0.00349
C 33.1695 2.21607 -0.00323
C 33.22796 0.74869 -0.00841
C 32.00324 0.00298 0.0001
C 0.0086 32.71248 -0.02927
C 1.183 31.90648 -0.01404
C 1.22813 30.46768 0.01027
C 32.03608 8.42969 0.02806
C 20.87887 32.016 -0.05302
C 28.15159 14.76566 0.00152
C 27.11783 16.83281 0.00826
C 19.61998 0.07904 -0.02957
C 22.07816 32.64324 -0.04422
C 23.36412 31.89676 0.00654
C 23.31941 30.49404 -0.00703
C 22.0717 29.81671 -0.04076
C 21.99972 28.39538 -0.00652
C 23.25277 27.737 0.0058
C 23.3197 26.35925 -0.00865
C 22.10746 25.59144 0.00675
C 22.06686 24.17659 -0.00311
C 23.18311 23.39331 0.00742
C 20.8796 0.72503 -0.00831
C 23.26258 21.96095 -0.01594
C 22.02179 19.84767 -0.01154
C 23.33218 19.12519 -0.01721
C 23.34965 17.69728 -0.02422
C 22.13356 17.02988 0.01277
C 22.07247 15.58897 0.00096
C 23.29952 14.89998 -0.01527
C 23.35578 13.44002 0.01087
C 22.10544 12.78141 0.00199
C 22.13529 11.40119 0.01511
C 23.39764 10.70403 -0.00478
C 23.2976 9.23286 -0.01662
C 22.09138 21.21314 0.0106
C 22.03312 8.53647 -0.01185
C 20.87643 2.12248 0.00364
C 19.67287 4.29534 0.00143
C 19.61526 29.85332 -0.00066
C 19.63541 28.47786 -0.00289
C 20.82759 27.72543 0.00028
C 20.82449 26.27012 -0.02213
C 19.67407 25.59266 0.03698
C 19.64142 24.14198 -0.00109
C 20.91004 23.43659 -0.00491
C 20.89746 21.9203 0.03338
C 19.69931 21.28103 -0.0258
C 19.62044 19.89334 -0.0331
C 20.77365 19.12402 -0.00316
C 19.64179 2.84496 -0.017
C 20.90766 17.69957 0.02188
C 19.64761 15.65219 0.02691
C 20.89548 14.90573 -0.01581
C 20.88115 13.52048 0.01452
C 19.69348 12.78344 0.04892
C 19.64715 11.3837 -0.00111
C 20.88063 10.61982 -0.03557
C 20.88508 9.25629 0.03754
C 19.65794 8.5654 0.01739
C 19.63961 7.18255 0.00755
C 20.86855 6.3768 -0.0054
C 20.85817 5.01255 0.00667
C 19.73871 17.02116 -0.01979
C 26.9892 15.5503 -0.00294
C 22.08931 7.07913 0.01126
C 23.33133 4.98603 -0.00381
C 24.59426 8.5745 0.01423
C 24.59936 7.12322 -0.00285
C 25.81291 6.44537 -0.009
C 25.8387 4.98857 -0.01199
C 24.54424 4.27392 -0.00229
C 24.58846 2.87985 -0.00938
C 25.74518 2.16514 -0.0264
C 25.83915 0.83325 -0.01154
C 24.595 0.04981 0.00684
C 26.99831 32.76217 -0.01052
C 28.30409 32.01235 -0.01679
C 25.82558 9.20004 0.02555
C 28.21548 30.63752 0.00367
C 27.02095 28.45115 0.00996
C 28.28832 27.76624 0.00195
C 28.31817 26.36305 -0.00802
C 27.06213 25.6187 -0.00218
C 26.97998 24.1365 -0.01654
C 28.22815 23.34732 -0.00037
C 28.1808 21.96667 -0.0032
C 26.93461 21.22481 0.00622
C 27.05634 19.82834 -0.02815
C 28.225 19.07624 -0.00942
C 28.2581 17.61456 0.00487
C 27.05099 29.93662 0.04306
C 23.31796 6.4352 0.01852
C 25.82841 10.705 0.03102
C 24.60862 12.7988 -0.00498
C 22.10479 4.21949 0.03046
C 22.13396 2.82839 0.0296
C 23.34175 2.10932 0.03374
C 23.35769 0.73859 -0.02845
C 22.07489 0.00081 -0.03213
C 24.60975 32.70922 0.02239
C 25.81601 32.08583 0.01153
C 25.7909 30.57345 0.02734
C 24.62485 29.84853 -0.0055
C 24.51776 28.40706 0.01515
C 25.77501 27.67474 -0.00225
C 24.54918 11.42609 0.00135
C 25.69753 26.32374 0.00071
C 24.47177 24.17245 -0.01586
C 25.73698 23.53707 -0.01971
C 25.78485 21.97238 -0.02118
C 24.55031 21.34479 0.00733
C 24.56175 19.82944 -0.00178
C 25.8266 19.16022 0.00768
C 25.89812 17.70525 -0.0276
C 24.59838 17.0404 0.03005
C 24.47751 15.58052 -0.04078
C 25.73853 14.92321 0.02117
C 25.73244 13.44522 0.02737
C 24.56661 25.62366 -0.01107
C 2.43032 32.64732 0.00321
