440
Graphene
C 0.05277 34.06136 0.01295
C 12.3013 19.90561 -0.01634
C 13.40227 19.25818 -0.00334
C 13.40575 17.79794 0.02339
C 12.20087 17.06174 0.01641
C 12.26673 15.67417 -0.00719
C 13.48313 14.94537 0.01364
C 13.49476 13.48679 -0.01062
C 12.24789 12.88359 -0.00033
C 12.27563 11.32597 0.03589
C 13.51427 10.65087 -0.02759
C 13.58616 9.27293 0.0402
C 12.32717 8.48966 0.00572
C 12.26091 7.10287 0.03592
C 13.50639 6.33748 0.00406
C 13.51245 4.95703 0.00943
C 12.25674 4.22016 0.02841
C 12.26705 2.83861 -0.01111
C 13.46919 2.1297 -0.01275
C 13.5334 0.68661 0.00985
C 12.21096 34.01933 -0.02245
C 14.73733 32.64895 -0.00428
C 16.01503 31.89098 0.03101
C 15.98844 30.54191 -0.01536
C 12.24214 21.39686 0.00057
C 13.48561 22.09029 0.00093
C 13.50435 23.45636 0.01291
C 12.24235 24.16586 0.00438
C 9.85061 15.67495 -0.00095
C 11.00729 14.93648 0.01572
C 11.00775 13.50056 -0.04848
C 9.83855 12.76379 -0.00892
C 9.84219 11.37469 -0.01362
C 11.0822 10.631 -0.0008
C 11.06858 9.25672 0.0288
C 9.82898 8.53698 0.00393
C 9.87512 7.15024 0.00895
C 11.06428 6.42047 0.00685
C 11.1047 4.9511 0.02888
C 14.74769 29.82232 -0.02689
C 9.81141 4.30065 -0.00482
C 11.06283 2.12097 0.03693
C 10.99698 0.74193 0.01745
C 9.81619 0.03513 0.00488
C 12.28604 32.63585 -0.01004
C 13.47146 31.94642 -0.02896
C 13.51067 30.49028 -0.00131
C 12.27125 29.86095 -0.01118
C 12.30454 28.415 -0.014
C 13.5354 27.76713 0.02147
C 13.52717 26.36478 0.00373
C 12.35012 25.61158 -0.00191
C 9.81694 2.89032 -0.01384
C 9.79467 17.07001 0.03007
C 14.77144 28.48514 -0.01046
C 15.99765 26.28272 0.02819
C 17.21969 29.80117 0.02058
C 17.17185 28.30804 -0.01957
C 18.44378 27.69375 -0.0108
C 18.45419 26.22055 -0.00368
C 17.22165 25.52245 -0.02696
C 17.24386 24.1588 -0.00114
C 18.44629 23.39303 0.00228
C 18.40906 21.96349 0.00798
C 17.1577 21.22496 0.00422
C 17.14599 19.89079 0.0351
C 18.37885 19.164 -0.03113
C 18.39576 17.74582 0.02098
C 17.17001 17.03398 0.01848
C 17.22487 15.58255 -0.00619
C 18.43494 14.97927 -0.02162
C 18.4403 13.55876 0.00889
C 17.20484 12.81958 -0.00481
C 17.18961 11.41492 0.00979
C 18.39198 10.64328 0.01443
C 18.41808 9.16173 0.03505
C 17.1662 8.49581 -0.02815
C 17.22478 7.07189 -0.04147
C 18.41246 6.3515 -0.05302
C 18.39808 30.50827 0.01965
C 18.46625 32.03539 -0.03682
C 17.21413 32.726 0.00052
C 14.68201 34.05201 0.00374
C 14.72592 25.6228 0.00165
C 14.77016 24.11486 -0.02971
C 16.03163 23.40475 0.02894
C 15.91282 22.00469 -0.01789
C 14.67765 21.36142 0.00444
C 14.61254 19.95984 -0.00925
C 15.89703 19.19017 0.01877
C 15.93749 17.75477 0.01363
C 14.68658 17.05368 -0.02162
C 14.64594 15.60406 0.00415
C 15.98489 14.87899 -0.0014
C 16.00304 27.7237 -0.00891
C 15.93566 13.52764 0.02162
C 14.7585 11.31521 0.01241
C 15.94655 10.68076 -0.01454
C 16.00215 9.29009 0.01945
C 14.80503 8.62736 0.01416
C 14.78438 6.98659 0.03542
C 16.0358 6.29857 0.02299
C 16.11018 4.8085 0.00244
C 14.83808 4.13776 -0.01717
C 14.78802 2.78048 0.05265
C 15.98397 2.12398 -0.01952
C 15.9129 0.66225 -0.02813
C 14.75123 12.80749 0.0076
C 18.47588 4.96787 0.00213
C 10.98708 17.83484 0.00054
C 9.75258 19.94124 -0.00562
C 3.7115 0.78042 0.04421
C 2.47544 0.02742 0.00088
C 4.93337 32.61437 0.00828
C 6.14119 31.96237 -0.02375
C 6.15289 30.47191 0.00558
C 4.98403 29.83645 -0.0059
C 4.90524 28.41481 -0.01386
C 6.19075 27.68208 -0.02805
C 6.15708 26.27848 0.00081
C 4.92401 25.51099 0.00245
C 4.91454 24.17047 0.02728
C 6.17266 23.43596 -0.00039
C 6.10099 22.0117 0.0064
C 4.83858 21.2954 0.00211
C 4.87262 19.8083 -0.00449
C 6.07074 19.20481 -0.01979
C 6.11659 17.81154 0.02784
C 4.83562 16.99271 -0.01977
C 4.8567 15.60412 -0.00561
C 6.05234 14.89138 0.00208
C 6.06569 13.45437 0.01707
C 4.82809 12.87791 0.02769
C 4.80763 11.40037 -0.03291
C 3.74067 2.18453 -0.00177
C 2.48939 2.85994 0.03278
C 2.48964 4.269 0.01138
C 3.68963 5.01302 -0.00407
C 3.70316 30.48506 0.01116
C 2.49654 29.84771 -0.0005
C 2.47636 28.45129 -0.00018
C 3.69936 27.68982 0.01073
C 3.68672 26.28747 0.01984
C 2.46296 25.60419 0.00535
C 2.40736 24.15661 -0.00198
C 3.69949 23.43729 -0.00012
C 3.68551 22.01109 -0.04306
C 2.47264 21.31445 -0.03672
C 2.4142 19.83298 0.01913
C 6.07234 10.78057 -0.04999
C 3.58343 19.14815 0.00267
C 2.39511 16.97181 0.02426
C 2.42716 15.57494 0.01218
C 3.60053 14.87311 -0.01471
C 3.54856 13.48687 -0.02827
C 2.39381 12.72373 0.01078
C 2.43354 11.40497 -0.00112
C 3.66501 10.65929 0.03345
C 3.68114 9.25794 0.00748
C 2.42042 8.52224 0.00662
C 2.49773 7.1691 -0.0154
C 3.70929 6.44912 -0.01299
C 3.67716 17.72486 0.00787
C 11.00431 19.25354 -0.00494
C 6.19466 9.36622 0.04505
C 4.91278 7.17901 -0.04307
C 8.55463 10.68078 -0.00725
C 8.62155 9.33474 -0.05697
C 7.36137 8.64929 0.01087
C 7.43643 7.1456 -0.01343
C 8.69614 6.39971 0.00988
C 8.6136 5.01034 0.0276
C 7.42456 4.40636 0.01305
C 7.38316 2.9703 -0.00077
C 8.56408 2.21159 0.03368
C 8.55558 0.82573 -0.02929
C 7.36782 0.00649 -0.00966
C 9.77973 32.70583 -0.03337
C 10.9467 31.96117 0.01227
C 11.04973 30.55973 0.00873
C 9.78846 29.92408 -0.00049
C 9.90916 28.46059 0.00848
C 11.07502 27.76 -0.01303
C 11.08049 26.30427 -0.01378
C 9.84474 25.67714 0.02635
C 9.83759 24.14309 0.0127
C 11.01591 23.50379 0.01396
C 11.04662 22.08506 0.01849
C 9.84921 21.33173 -0.01142
C 7.32553 11.48184 0.02322
C 7.3138 12.83016 -0.00094
C 8.58753 13.61863 -0.02566
C 8.57154 15.00644 -0.03113
C 6.20216 6.50442 0.03189
C 6.1786 5.09665 0.00031
C 5.00223 4.42851 -0.003
C 4.90719 2.91833 0.01402
C 6.12473 2.20826 0.02379
C 6.15404 0.73187 0.00907
C 4.95016 0.00613 0.00643
C 7.39093 32.68052 -0.01509
C 8.55643 31.98753 0.03267
C 8.51238 30.6127 0.02374
C 7.31309 29.81822 0.00402
C 4.88853 8.61489 0.03284
C 7.39197 28.41572 0.0073
C 8.61005 26.25305 0.03828
C 7.41471 25.58122 0.01226
C 7.40028 24.19116 -0.00279
C 8.59922 23.48659 0.01996
C 8.6035 22.03034 -0.03996
C 7.27891 21.31121 0.01465
C 7.35557 19.89987 -0.00074
C 8.54977 19.15682 -0.00518
C 8.61767 17.72561 0.0086
C 7.24904 17.06793 -0.00643
C 7.31328 15.65274 0.017
C 8.60887 27.74725 0.0174
C 17.33919 4.04295 -0.00066
C 17.24714 2.56934 -0.00289
C 18.33354 0.92288 0.00028
C 30.76069 14.87557 -0.0405
C 30.73996 13.47533 -0.01303
C 29.53375 12.74396 -0.01461
C 29.45932 11.21026 -0.02155
C 30.71697 10.59438 -0.00944
C 30.75159 9.14331 -0.03735
C 29.48203 8.43644 -0.00971
C 29.57398 7.02498 0.01518
C 30.74793 6.31833 0.01908
C 30.76564 4.8717 0.07705
C 29.4937 4.15358 0.0103
C 29.50064 2.82479 0.02108
C 30.76569 2.10143 0.00716
C 30.72183 0.64596 0.00307
C 29.50652 34.02033 0.00346
C 32.05291 32.66578 0.01713
C 33.23634 31.94562 -0.01694
C 33.18349 30.60352 0.01428
C 31.95263 29.8282 -0.02142
C 32.00495 28.47823 0.0544
C 33.1642 27.79135 0.00026
C 33.16337 26.30731 0.00682
C 31.90125 25.55799 -0.01779
C 29.47967 15.6332 0.01705
C 29.4756 17.04017 0.0101
C 30.69162 17.69737 -0.00669
C 30.68987 19.17619 0.03531
C 28.22403 10.5739 0.00194
C 28.25376 9.22484 -0.00621
C 26.96222 8.46999 0.02611
C 27.04757 7.09622 0.02198
C 28.32558 6.32466 0.01094
C 28.40716 4.92431 0.00235
C 27.11057 4.16815 0.01495
C 27.04535 2.80711 0.01259
C 28.28005 2.08516 0.01799
C 28.25441 0.69684 0.01699
C 26.9799 34.0786 -0.00416
C 31.93622 24.19428 0.03794
C 29.53848 32.6493 0.01177
C 30.7759 30.55481 0.01324
C 29.47433 29.86003 0.0014
C 29.49784 28.37939 0.00924
C 30.70862 27.72891 0.02326
C 30.69622 26.32771 0.00261
C 29.48855 25.5922 0.03265
C 29.50501 24.18096 -0.02049
C 30.66464 23.42132 -0.01854
C 30.65742 21.97542 -0.01415
C 29.42626 21.28583 -0.03039
C 29.4385 19.84932 0.01836
C 30.77444 31.98729 0.04266
C 26.95332 11.2925 0.04185
C 33.19977 23.45629 0.01927
C 31.96007 21.30912 -0.02383
C 34.41237 24.12827 0.03076
C 1.20906 23.41081 0.00723
C 1.21537 22.00131 0.02712
C 34.38418 21.35268 -0.02213
C 34.3443 19.814 0.01951
C 1.2059 19.22346 -0.01678
C 1.12257 17.70563 0.01223
C 34.32297 16.95867 0.00648
C 34.34268 15.49724 0.02114
C 1.09161 14.85962 -0.02957
C 1.12917 13.46802 0.00343
C 34.42003 12.7125 -0.02656
C 34.40766 11.2494 -0.02442
C 1.20014 10.64745 -0.00027
C 1.21356 9.1563 -0.00583
C 0.01372 8.41642 -0.02302
C 0.06867 7.03154 -0.02849
C 1.30287 6.43361 0.02931
C 1.30185 4.97635 0.00628
C 0.03092 4.2604 -0.0345
C 0.0579 2.82403 -0.00931
C 1.31096 2.12576 -0.00939
C 1.274 0.70139 -0.00468
C 34.40286 25.62662 -0.05239
C 1.17753 26.26041 -0.00598
C 1.14765 27.71842 -0.00439
C 34.40718 28.44126 -0.01037
C 31.87334 19.92242 -0.01429
C 33.11606 19.12363 -0.0136
C 33.16041 17.72632 0.00594
C 31.84888 17.04064 -0.02474
C 31.88987 15.54704 0.00369
C 33.10521 14.7993 0.00455
C 33.18542 13.39999 -0.00644
C 31.99079 12.7006 -0.01839
C 31.9787 11.28054 0.00137
C 33.1917 10.59543 0.00199
C 33.21953 9.16408 0.04381
C 33.20354 21.97834 0.01574
C 31.98301 8.41875 0.02806
C 33.20754 6.33499 -0.00069
C 33.24209 4.85456 0.04926
C 32.02135 4.21053 -0.03838
C 31.99436 2.7672 0.00349
C 33.27685 2.08264 -0.00323
C 33.25028 0.64846 -0.00841
C 31.99082 34.03111 0.0001
C 0.07885 32.65708 -0.02927
C 1.24264 31.92798 -0.01404
C 1.26308 30.54546 0.01027
C 0.02759 29.89123 0.01831
C 32.02978 7.00796 0.01504
C 27.00025 12.7338 0.02316
C 28.25923 13.45014 0.01257
C 28.27658 14.82466 0.00152
C 22.04418 32.79869 -0.00703
C 23.27475 31.9647 -0.04076
C 23.33676 30.60222 -0.00652
C 22.08889 29.87894 0.0058
C 22.1523 28.48761 -0.00865
C 23.37674 27.83478 0.00675
C 23.41801 26.29174 -0.00311
C 22.13502 25.56578 0.00742
C 22.02542 24.11682 -0.01594
C 23.3545 23.41038 0.0106
C 23.32722 22.08422 -0.01154
C 22.07665 21.31852 -0.01721
C 22.05023 19.87188 -0.02422
C 23.27793 19.2231 0.01277
C 23.38085 17.83443 0.00096
C 22.08006 17.01071 -0.01527
C 22.16968 15.67527 0.01087
C 23.31642 14.9305 0.00199
C 23.36632 13.48105 0.01511
C 22.16473 12.78592 -0.00478
C 22.07396 11.35006 -0.01662
C 23.27982 10.58571 -0.01185
C 23.25335 9.16605 0.01126
C 19.58108 0.2086 0.00654
C 20.818 6.30276 -0.04422
C 19.59417 7.07481 -0.02957
C 19.61198 8.5084 -0.00831
C 17.13409 0.10342 -0.02213
C 19.58606 32.80576 0.03698
C 20.82707 32.09949 -0.00109
C 20.87336 30.65105 -0.00491
C 19.64674 29.8673 0.03338
C 19.63633 28.4562 -0.0258
C 20.91193 27.71128 -0.0331
C 20.90612 26.34249 -0.00316
C 19.67949 25.49778 0.02188
C 19.65639 24.08182 -0.01979
C 20.8835 23.42742 0.02691
C 22.03866 8.44175 0.01852
C 20.84226 21.99082 -0.01581
C 19.62952 19.9131 0.04892
C 20.77787 19.16603 -0.00111
C 20.83356 17.75714 -0.03557
C 19.66661 17.0518 0.03754
C 19.6308 15.71717 0.01739
C 20.80624 14.96052 0.00755
C 20.88917 13.56799 -0.0054
C 19.6504 12.83024 0.00667
C 19.64389 11.43108 0.00143
C 20.9011 10.65219 -0.017
C 20.80736 9.18616 0.00364
C 19.66291 21.32835 0.01452
C 22.00694 6.961 -0.00381
C 23.23918 6.27667 0.03046
C 23.36036 4.86579 0.0296
C 25.81088 6.33328 -0.009
C 25.87198 4.94488 -0.01199
C 24.65035 4.24362 -0.00229
C 24.55858 2.79517 -0.00938
C 25.85405 2.0777 -0.0264
C 25.6844 0.69072 -0.01154
C 24.37931 0.09748 0.00684
C 27.05233 32.68321 -0.01052
C 28.22322 31.94846 -0.01679
C 28.31217 30.54971 0.00367
C 26.97874 29.75892 0.04306
C 24.50031 7.15978 -0.00285
C 27.04589 28.31018 0.00996
C 28.26051 26.2829 -0.00802
C 27.0406 25.53716 -0.00218
C 26.94705 24.14525 -0.01654
C 28.29355 23.46127 -0.00037
C 28.26198 22.03551 -0.0032
C 26.98109 21.31069 0.00622
C 26.98695 19.84965 -0.02815
C 28.19259 19.18572 -0.00942
C 28.27001 17.79395 0.00487
C 27.01035 17.05194 0.00826
C 27.06236 15.69775 -0.00294
C 28.28282 27.68575 0.00195
C 3.75521 31.94812 -0.0213
C 24.54602 8.53229 0.01423
C 25.76986 10.57754 0.03102
C 23.2986 2.36227 0.03374
C 23.08005 0.90301 -0.02845
C 21.88981 0.18334 -0.03213
C 24.41769 32.70867 0.02239
C 25.75396 32.00038 0.01153
C 25.82937 30.54552 0.02734
C 24.58125 29.88844 -0.0055
C 24.61915 28.48652 0.01515
C 25.77862 27.71424 -0.00225
C 25.8371 26.29839 0.00071
C 24.66758 25.6045 -0.01107
C 25.76211 9.23758 0.02555
C 24.58404 24.211 -0.01586
C 25.77238 22.02515 -0.02118
C 24.5163 21.34091 0.00733
C 24.56464 19.92716 -0.00178
C 25.8076 19.08483 0.00768
C 25.81069 17.74843 -0.0276
C 24.56991 16.97757 0.03005
C 24.65561 15.60745 -0.04078
C 25.89845 14.92969 0.02117
C 25.77774 13.42989 0.02737
C 24.52106 12.73272 -0.00498
C 24.5376 11.31704 0.00135
C 25.82287 23.44841 -0.01971
C 2.56916 32.66881 -0.00374
