370
Graphene
C 34.40211 0.05317 0.01295
C 13.49615 31.88322 0.05265
C 13.50123 30.57277 -0.01952
C 12.28673 28.42546 -0.02813
C 13.53796 27.70628 0.00374
C 13.56682 26.29898 0.00052
C 12.33511 25.61952 -0.03682
C 12.34405 24.14362 0.01965
C 13.55022 23.41561 0.02058
C 13.5912 21.9978 -0.01957
C 12.37249 21.33593 -0.0108
C 12.26445 19.91928 -0.00368
C 13.53377 19.16542 -0.02696
C 13.66319 17.77197 -0.00114
C 12.34797 17.19146 0.00228
C 12.12378 15.70594 0.00798
C 12.38363 4.0744 0.00422
C 12.19164 2.6427 0.0351
C 13.40489 2.04925 -0.03113
C 13.5102 0.61057 0.02098
C 12.18221 32.65254 -0.01717
C 12.18566 0.00945 0.01848
C 9.72891 34.05247 0.00244
C 10.95827 2.00661 0.03542
C 9.85306 25.63738 -0.00891
C 9.88941 24.15456 0.02819
C 11.15963 23.46258 0.00165
C 11.09426 22.02765 -0.02971
C 9.80873 21.37402 0.02894
C 9.74314 19.96448 -0.01789
C 10.9519 19.20811 0.00444
C 11.03578 17.82164 -0.00925
C 9.82094 17.15228 0.01877
C 9.68033 15.72909 0.01363
C 11.07589 15.16742 -0.02162
C 9.78193 12.68781 0.00415
C 9.86118 11.50833 -0.0014
C 9.94381 8.66325 0.02162
C 9.96375 7.09917 0.0076
C 10.93371 6.13408 0.01241
C 11.1531 4.81513 -0.01454
C 9.82989 4.15228 0.01945
C 9.7225 2.76784 0.01416
C 10.98971 0.59217 0.02299
C 11.16898 26.35424 -0.01046
C 14.73181 32.62287 -0.00619
C 15.90949 30.55287 0.00889
C 18.41221 26.26497 0.01452
C 17.22242 25.52624 0.04892
C 17.20183 24.12517 -0.00111
C 18.38616 23.44811 -0.03557
C 18.38354 22.07564 0.03754
C 17.16457 21.24292 0.01739
C 17.17998 19.81802 0.00755
C 18.46276 19.16509 -0.0054
C 18.47671 17.72165 0.00667
C 17.29921 17.15486 0.00143
C 17.19123 2.67359 -0.017
C 18.41253 2.06018 0.00364
C 18.42617 0.6155 -0.00831
C 17.17211 34.05428 -0.02957
C 19.67669 32.63077 -0.04422
C 20.88417 31.90153 0.00654
C 20.87239 30.46243 -0.00703
C 19.59271 29.80813 -0.04076
C 19.60593 28.42865 -0.00652
C 18.36271 27.62157 -0.01581
C 15.92842 31.90862 -0.02162
C 17.1212 28.46575 0.02691
C 18.30039 30.56611 0.02188
C 14.68183 29.89287 -0.00481
C 14.72707 28.44756 0.00979
C 15.90776 27.75378 0.01443
C 15.98064 26.23842 0.03505
C 14.74133 25.50042 -0.02815
C 14.80762 24.10704 -0.04147
C 15.97086 23.4713 -0.05302
C 15.99051 21.98786 0.00213
C 14.76809 21.27663 -0.00066
C 14.75945 19.84304 -0.00289
C 16.0449 19.06895 0.00028
C 15.99579 17.61683 -0.02213
C 14.75333 16.94889 0.03698
C 14.6007 2.79962 -0.00109
C 15.87484 2.2941 -0.00491
C 15.91483 0.78864 0.03338
C 14.75843 34.07854 -0.0258
C 17.22155 32.62924 -0.0331
C 18.41844 31.93483 -0.00316
C 17.08457 29.81373 -0.01979
C 11.02487 27.74942 -0.02689
C 9.805 28.44421 -0.01536
C 9.74157 29.84364 0.03101
C 3.6895 6.5443 -0.00966
C 3.65704 5.09627 -0.03337
C 2.43559 4.33299 0.01227
C 2.41923 2.83248 0.00873
C 3.62172 2.18716 -0.00049
C 3.61905 0.77122 0.00848
C 2.45261 0.07685 -0.01303
C 4.8481 32.7022 -0.01378
C 6.06165 31.99514 0.02635
C 6.14847 30.56848 0.0127
C 4.87266 29.8355 0.01396
C 4.89419 28.42365 0.01849
C 6.141 27.76701 -0.01142
C 6.12681 26.30224 -0.00562
C 4.96 25.60688 -0.00494
C 5.04483 24.2024 0.00054
C 4.87288 20.12915 0.03007
C 6.18666 19.32382 -0.00095
C 6.12053 17.87628 0.01572
C 2.45533 7.18641 -0.02929
C 4.91493 17.10392 -0.04848
C 2.47657 8.59642 0.03368
C 3.67991 10.67514 0.01305
C 3.65777 30.57633 -0.00279
C 2.33073 29.88855 0.01996
C 2.39508 28.46487 -0.03996
C 3.59121 27.77351 0.01465
C 3.65906 26.28743 -0.00074
C 2.50302 25.57144 -0.00518
C 2.55094 24.05108 0.0086
C 3.85895 23.32932 -0.00643
C 3.84105 21.80699 0.017
C 2.56141 21.26411 -0.03113
C 2.349 19.87956 -0.02566
C 3.70642 19.28501 -0.00094
C 3.68931 17.7979 0.02322
C 2.49255 17.11948 -0.00725
C 2.42396 15.66214 -0.05697
C 3.68069 14.97843 0.01087
C 3.71657 13.57261 -0.01343
C 2.42793 12.80202 0.00988
C 2.45208 11.47419 0.0276
C 3.71695 9.30803 -0.00077
C 4.91781 15.70099 -0.00892
C 6.1016 14.97814 -0.01362
C 6.18387 13.52597 -0.0008
C 7.31489 15.67619 0.02339
C 8.55168 15.00479 0.01641
C 8.67777 13.56081 -0.00719
C 7.46693 12.77423 0.01364
C 7.4724 11.37119 -0.01062
C 8.64865 10.61055 -0.00033
C 8.68908 9.18167 0.03589
C 7.45628 8.55445 -0.02759
C 7.49825 7.18777 0.0402
C 8.73779 6.43089 0.00572
C 8.61208 5.0482 0.03592
C 7.37046 4.35536 0.00406
C 7.28937 2.80924 0.00943
C 8.52396 2.13516 0.02841
C 8.47096 0.73415 -0.01111
C 7.28224 34.06014 -0.01275
C 9.79621 32.66288 0.00985
C 11.01371 31.93753 -0.02245
C 11.01709 30.50621 -0.00428
C 7.37619 17.09539 -0.00334
C 8.55005 17.83266 -0.01634
C 8.47348 19.23547 0.00057
C 7.34903 25.5675 0.00093
C 4.97034 12.8531 0.0288
C 4.91531 11.4382 0.00393
C 6.22969 10.68783 0.00895
C 6.21585 9.33542 0.00685
C 4.98496 8.60534 0.02888
C 5.00124 7.19977 -0.00482
C 6.18113 6.4627 -0.01384
C 6.15582 5.0409 0.03693
C 4.87852 4.37209 0.01745
C 20.78161 27.64666 0.0058
C 4.90363 2.91922 0.00488
C 6.09038 0.69937 -0.02896
C 4.83729 0.0566 -0.00131
C 7.33319 32.63035 -0.01118
C 8.54074 31.9709 -0.014
C 8.58044 30.55048 0.02147
C 7.34981 29.82289 0.00373
C 7.31814 28.46507 -0.00191
C 8.57804 27.75907 0.00438
C 8.56847 26.29368 0.01291
C 6.0735 2.15062 -0.01004
C 20.82891 26.21865 -0.00865
C 19.67623 25.60378 0.00675
C 19.57861 24.18856 -0.00311
C 30.85509 2.20365 0.00716
C 30.76664 0.7536 0.00307
C 29.58348 0.00045 0.00346
C 31.99073 32.72556 0.01713
C 33.18507 31.98207 -0.01694
C 33.13014 30.56831 0.01428
C 31.90731 29.83059 -0.02142
C 31.93831 28.46742 0.0544
C 33.1757 27.72682 0.00026
C 33.18611 26.31409 0.00682
C 31.94709 25.56936 -0.01779
C 31.97515 24.19858 0.03794
C 33.25452 23.47163 0.01927
C 33.27017 21.99037 0.01574
C 31.99843 21.30852 -0.02383
C 31.96591 19.84143 -0.01429
C 33.17811 19.16175 -0.0136
C 33.05917 17.75346 0.00594
C 31.86078 17.07273 -0.02474
C 29.58941 2.81963 0.02108
C 31.92426 15.57825 0.00369
C 29.6441 4.19555 0.0103
C 30.82722 6.51832 0.01908
C 29.43601 28.43076 0.00261
C 30.66116 27.70491 0.03265
C 30.74687 26.29468 -0.02049
C 29.5352 25.55584 -0.01854
C 29.48043 24.15677 -0.01415
C 30.79768 23.48732 -0.03039
C 30.73577 21.94201 0.01836
C 29.45089 21.36278 0.03531
C 29.49172 19.91688 -0.00669
C 30.71349 19.18469 0.0101
C 30.72866 17.70173 0.01705
C 29.47928 17.1016 -0.0405
C 29.48316 15.6651 -0.01303
C 30.63448 14.90642 -0.01461
C 30.71948 13.50328 -0.02155
C 29.47556 12.71691 -0.00944
C 29.27845 11.38681 -0.03735
C 30.45634 10.53451 -0.00971
C 30.68843 9.09265 0.01518
C 30.68147 5.10487 0.07705
C 33.12567 14.93215 0.00455
C 33.17984 13.47202 -0.00644
C 31.91746 12.67012 -0.01839
C 34.4029 19.95053 0.01951
C 1.19693 19.20502 -0.01678
C 1.17391 17.75561 0.01223
C 34.33055 17.02107 0.00648
C 34.35325 15.60836 0.02114
C 1.17324 14.90859 -0.02957
C 1.20654 13.53913 0.00343
C 34.34528 12.76309 -0.02656
C 0.00264 11.40902 -0.02442
C 1.21195 10.70596 -0.00027
C 1.29381 9.21527 -0.00583
C 0.01094 8.52733 -0.02302
C 34.43215 7.14318 -0.02849
C 1.26495 6.48607 0.02931
C 1.26277 5.02586 0.00628
C 0.05268 4.33347 -0.0345
C 34.3984 2.89175 -0.00931
C 1.17463 2.23332 -0.00939
C 1.1755 0.70372 -0.00468
C 0.00987 21.30705 -0.02213
C 1.2712 22.01654 0.02712
C 1.32912 23.42304 0.00723
C 0.02817 24.14876 0.03076
C 31.85945 11.28103 0.00137
C 33.15884 10.66244 0.00199
C 33.21208 9.29342 0.04381
C 32.00395 8.52144 0.02806
C 32.0541 7.16677 0.01504
C 33.23679 6.37083 -0.00069
C 33.21144 4.95057 0.04926
C 31.93828 4.35324 -0.03838
C 32.00069 2.93519 0.00349
C 29.46017 29.83375 0.02326
C 33.20748 2.17684 -0.00323
C 32.01635 34.06955 0.0001
C 0.00758 32.69243 -0.02927
C 1.14959 31.98389 -0.01404
C 1.15246 30.55605 0.01027
C 34.34452 29.89493 0.01831
C 34.38136 28.47989 -0.01037
C 1.13539 27.73437 -0.00439
C 1.23065 26.32615 -0.00598
C 0.01251 25.61347 -0.05239
C 33.18037 0.73003 -0.00841
C 3.58907 31.95633 0.01226
C 30.70134 30.57044 0.00924
C 29.44347 32.673 0.01324
C 22.05005 25.62864 0.02239
C 22.08329 24.12244 0.01153
C 23.32995 23.40982 0.02734
C 23.22712 21.9839 -0.0055
C 22.07116 21.23177 0.01515
C 22.07757 19.79684 -0.00225
C 23.21378 19.08503 0.00071
C 23.19779 17.69542 -0.01107
C 22.08122 16.91228 -0.01586
C 22.12432 15.48839 -0.01971
C 23.36267 14.9121 -0.02118
C 23.36338 13.50882 0.00733
C 22.1274 12.81316 -0.00178
C 22.23913 4.1636 0.00768
C 22.14443 2.76041 -0.0276
C 23.38775 1.98676 0.03005
C 23.4046 0.59624 -0.04078
C 22.16811 33.99915 0.02117
C 24.64877 32.57289 0.02737
C 23.2708 26.25875 -0.03213
C 25.85302 31.93914 -0.00498
C 23.2625 27.69107 -0.02845
C 22.05874 29.81497 0.0296
C 20.80577 23.4655 0.00742
C 20.82778 22.00762 -0.01594
C 19.63924 21.26771 0.0106
C 19.71755 19.83503 -0.01154
C 20.79909 19.06566 -0.01721
C 20.83929 17.61596 -0.02422
C 19.66522 16.99148 0.01277
C 19.85826 15.50939 0.00096
C 20.9434 14.68653 -0.01527
C 21.26486 6.20939 0.01087
C 20.94408 4.89763 0.00199
C 19.72742 4.18008 0.01511
C 19.66621 2.73902 -0.00478
C 20.88304 2.01686 -0.01662
C 20.92566 0.62876 -0.01185
C 19.72132 33.94428 0.01126
C 22.17273 32.5849 0.01852
C 23.31308 31.91 -0.00381
C 23.33973 30.54532 0.03046
C 22.10271 28.40957 0.03374
C 25.75391 30.46878 0.00135
C 24.55699 29.78911 0.03102
C 24.57213 28.34986 0.02555
C 28.22822 27.70177 0.00826
C 28.25575 26.25519 -0.00294
C 27.00383 25.49837 0.00152
C 27.03976 24.12596 0.01257
C 28.22521 23.47976 0.02316
C 28.22578 22.02406 0.04185
C 27.01046 21.36099 0.00194
C 27.0566 19.96837 -0.00621
C 28.22346 19.20965 0.02611
C 28.20756 17.72656 0.02198
C 26.95322 17.05781 0.01094
C 26.95437 15.64901 0.00235
C 28.19397 15.01182 0.01495
C 28.30232 13.62198 0.01259
C 27.03624 12.93626 0.01799
C 27.09176 2.72063 0.01699
C 28.28662 2.0872 -0.00416
C 28.32533 0.64357 0.01177
C 27.07668 34.07627 0.04266
C 27.01722 28.38144 0.00487
C 27.02843 29.82422 -0.00942
C 28.23552 30.46705 -0.02815
C 28.27921 31.99245 0.00622
C 25.85505 27.73386 0.01423
C 25.75067 26.27084 -0.00285
C 24.51923 25.58633 -0.009
C 24.58061 24.14509 -0.01199
C 25.81181 23.39743 -0.00229
C 25.78138 21.97373 -0.00938
C 24.51897 21.30706 -0.0264
C 24.5536 19.89864 -0.01154
C 25.69168 19.20324 0.00684
C 30.72786 31.99466 0.0014
C 25.66175 17.79125 -0.01052
C 24.55117 15.5527 0.00367
C 25.78901 14.89144 0.04306
C 25.72771 13.41538 0.00996
C 24.50784 12.64213 0.00195
C 24.5355 2.64234 -0.00802
C 25.82273 2.20028 -0.00218
C 25.84195 0.7118 -0.01654
C 24.6475 33.97755 -0.00037
C 27.0056 32.69676 -0.0032
C 24.54054 17.06265 -0.01679
C 2.38612 32.69066 0.03828
