396
Graphene
C 34.38309 34.04376 0.01295
C 12.25335 17.11473 -0.01789
C 12.28767 15.60894 0.00444
C 13.51801 14.97922 -0.00925
C 13.60551 13.57554 0.01877
C 12.35358 12.84148 0.01363
C 12.26371 11.41897 -0.02162
C 13.50197 10.60681 0.00415
C 13.48877 9.16529 -0.0014
C 12.29294 8.50676 0.02162
C 13.48771 17.76155 0.02894
C 12.30487 6.98932 0.0076
C 13.53515 4.96383 -0.01454
C 12.28974 4.21412 0.01945
C 12.24225 2.80866 0.01416
C 13.50349 2.03613 0.03542
C 13.54744 0.72248 0.02299
C 12.32701 0.04844 0.00244
C 14.75698 32.60645 -0.01717
C 15.80852 31.81687 0.05265
C 15.93733 30.38232 -0.01952
C 13.58479 6.34163 0.01241
C 12.23935 29.86439 -0.02971
C 13.29085 30.64958 0.00165
C 13.49072 31.92841 0.02819
C 9.84942 19.82975 0.01364
C 10.96905 19.20502 -0.01062
C 11.12915 17.87522 -0.00033
C 9.86386 17.12149 0.03589
C 9.82595 15.65786 -0.02759
C 11.0382 14.9969 0.0402
C 11.14734 13.55333 0.00572
C 9.92 12.82236 0.03592
C 9.85292 11.44384 0.00406
C 11.07926 10.68386 0.00943
C 11.07505 9.27609 0.02841
C 9.87172 8.51895 -0.01111
C 9.93148 7.05988 -0.01275
C 11.0897 6.31194 0.00985
C 11.12895 4.9455 -0.02245
C 9.82375 4.26082 -0.00428
C 9.83377 2.90507 0.03101
C 11.11777 2.11937 -0.01536
C 11.12574 0.72548 -0.02689
C 9.83468 0.04207 -0.01046
C 12.21267 32.6628 -0.00891
C 16.03154 17.74208 -0.02813
C 14.80944 17.32854 0.00374
C 14.73308 15.71721 0.00052
C 15.93909 15.01091 -0.03682
C 18.50868 10.69372 -0.00066
C 18.4784 9.17722 -0.00289
C 17.22803 8.52386 0.00028
C 17.19399 7.06553 -0.02213
C 18.48135 6.4125 0.03698
C 18.53117 5.03451 -0.00109
C 17.21954 4.2848 -0.00491
C 17.22421 2.90156 0.03338
C 18.41231 2.08608 -0.0258
C 18.42383 0.67524 -0.0331
C 17.23409 33.9703 -0.00316
C 19.61325 32.60808 0.02188
C 20.83359 31.93063 -0.01979
C 20.9025 30.55247 0.02691
C 19.66314 29.82546 -0.01581
C 19.64101 28.43603 0.01452
C 20.72056 27.63484 0.04892
C 21.00059 26.28249 -0.00111
C 20.72984 19.18271 -0.03557
C 20.82457 17.82429 0.03754
C 19.70798 17.00703 0.01739
C 17.21968 11.33942 0.00213
C 9.74385 28.44221 -0.00719
C 17.2722 12.70505 -0.05302
C 18.38017 14.94159 -0.02815
C 16.00904 13.43448 0.01965
C 14.82019 12.74214 0.02058
C 14.7218 11.29385 -0.01957
C 16.01998 10.61969 -0.0108
C 15.99818 9.215 -0.00368
C 14.6859 8.52315 -0.02696
C 14.75728 7.15744 -0.00114
C 15.93329 6.41224 0.00228
C 16.02323 4.9614 0.00798
C 14.77663 4.27023 0.00422
C 14.77531 2.81812 0.0351
C 15.99072 2.10102 -0.03113
C 16.0136 0.65149 0.02098
C 14.78738 34.02972 0.01848
C 17.15376 32.50678 -0.00619
C 18.40412 31.78713 -0.02162
C 18.36498 30.37897 0.00889
C 17.13012 29.89121 -0.00481
C 18.50772 17.76351 0.00979
C 17.23919 17.19769 0.01443
C 17.1902 15.65948 0.03505
C 18.43775 13.54013 -0.04147
C 19.64575 15.60749 0.00755
C 9.74055 29.80134 0.01641
C 10.98192 31.91298 -0.00334
C 2.39822 4.34284 0.01226
C 2.43295 2.83977 -0.00279
C 3.71502 2.14304 0.01996
C 3.66186 0.76877 -0.03996
C 2.43037 0.044 0.01465
C 4.96272 32.71197 -0.00074
C 6.1356 32.04773 -0.00518
C 6.07076 30.5658 0.0086
C 4.86414 29.86898 -0.00643
C 3.60249 5.09778 0.03828
C 4.8437 28.43258 0.017
C 5.99116 26.26053 -0.02566
C 4.85595 25.56195 -0.00094
C 4.86172 24.12652 0.02322
C 6.18586 23.41019 -0.00725
C 6.24611 22.04782 -0.05697
C 4.98298 21.29065 0.01087
C 5.03567 19.90627 -0.01343
C 6.15676 19.17343 0.00988
C 6.18377 17.74712 0.0276
C 6.02401 27.73429 -0.03113
C 3.64131 6.43054 0.0174
C 2.34193 7.13801 0.0073
C 2.35533 8.58269 0.00402
C 3.72365 30.60377 0.02784
C 2.5047 29.77169 -0.01977
C 2.46831 28.3747 -0.00561
C 3.61689 27.65542 0.00208
C 3.68675 26.27632 0.01707
C 2.34227 25.58241 0.02769
C 2.3809 24.20472 -0.03291
C 3.60139 23.4929 -0.04999
C 3.70311 22.00074 0.04505
C 2.53668 21.3566 0.03284
C 2.44346 19.84439 -0.04307
C 3.71594 19.17667 0.03189
C 3.7245 17.73031 0.00031
C 2.48482 16.98794 -0.003
C 2.42487 15.57531 0.01402
C 3.70145 14.91179 0.02379
C 3.6564 13.49401 0.00907
C 2.46143 12.85021 0.00643
C 2.43473 11.42279 -0.01509
C 3.63488 10.67404 0.03267
C 3.63377 9.3076 0.02374
C 4.92514 17.05212 0.01305
C 4.89665 15.61403 -0.00077
C 6.15257 14.8464 0.03368
C 6.15518 13.54849 -0.02929
C 7.45267 19.92165 0.00895
C 8.66953 19.18653 0.00685
C 8.65725 17.8345 0.02888
C 7.39655 17.03087 -0.00482
C 7.37067 15.59323 -0.01384
C 8.60069 14.94584 0.03693
C 8.60483 13.59082 0.01745
C 7.39904 12.79305 0.00488
C 7.38167 11.35434 -0.01004
C 8.58609 10.67065 -0.02896
C 8.64235 9.29076 -0.00131
C 7.34383 8.60085 -0.01118
C 7.36396 7.16537 -0.014
C 8.68234 6.46891 0.02147
C 8.65423 5.03157 0.00373
C 7.37443 4.35645 -0.00191
C 7.41302 2.89419 0.00438
C 8.6236 2.18514 0.01291
C 8.6392 0.74944 0.00093
C 7.44004 0.0438 0.00057
C 9.81719 32.6884 -0.01634
C 7.53529 21.30333 0.00393
C 11.056 30.51242 0.02339
C 8.57499 22.1476 0.0288
C 7.37916 24.18851 -0.01362
C 4.87018 12.80587 -0.00966
C 4.89299 11.36441 -0.03337
C 6.12728 10.67363 0.01227
C 6.06774 9.30389 0.00873
C 4.90222 8.61486 -0.00049
C 4.90956 7.15914 0.00848
C 6.13254 6.4462 -0.01303
C 6.11469 5.00421 -0.01378
C 4.90867 4.30637 0.02635
C 4.89088 2.93059 0.0127
C 6.09545 2.22282 0.01396
C 6.12472 0.86277 0.01849
C 4.90032 0.09115 -0.01142
C 7.40317 32.76954 -0.00562
C 8.55381 32.0394 -0.00494
C 8.50278 30.5596 0.00054
C 7.33493 29.82675 0.03007
C 7.25661 28.40698 -0.00095
C 8.71334 27.67011 0.01572
C 8.45877 26.23597 -0.04848
C 7.33021 25.5999 -0.00892
C 8.58439 23.47291 -0.0008
C 20.80368 14.86114 -0.0054
C 20.98116 13.41445 0.00667
C 19.72071 12.78462 0.00143
C 30.7163 6.44536 0.01908
C 30.72354 4.97463 0.07705
C 29.56244 4.27827 0.0103
C 29.47255 2.85896 0.02108
C 30.71328 2.18941 0.00716
C 30.75529 0.72129 0.00307
C 29.47042 0.0557 0.00346
C 31.95504 32.62116 0.01713
C 33.1989 31.92343 -0.01694
C 29.5047 7.13315 0.01518
C 33.22908 30.45885 0.01428
C 31.98929 28.38318 0.0544
C 33.2474 27.66775 0.00026
C 33.23186 26.27133 0.00682
C 32.02593 25.56973 -0.01779
C 31.97898 24.11595 0.03794
C 33.21124 23.44377 0.01927
C 33.24071 22.00136 0.01574
C 32.01066 21.28239 -0.02383
C 31.99893 19.86265 -0.01429
C 31.94752 29.84026 -0.02142
C 29.44105 8.52966 -0.00971
C 30.63441 9.21382 -0.03735
C 30.68159 10.622 -0.00944
C 29.51915 32.6695 0.01177
C 30.7415 31.93853 0.04266
C 30.71955 30.48157 0.01324
C 29.49525 29.77417 0.0014
C 29.50987 28.43164 0.00924
C 30.74636 27.70314 0.02326
C 30.76778 26.247 0.00261
C 29.49116 25.52621 0.03265
C 29.49454 24.14055 -0.02049
C 30.79168 23.39114 -0.01854
C 30.71384 21.98943 -0.01415
C 29.45617 21.28589 -0.03039
C 29.47919 19.89182 0.01836
C 30.76499 19.22049 0.03531
C 30.74755 17.80753 -0.00669
C 29.45018 17.04217 0.0101
C 29.45718 15.67971 0.01705
C 30.64828 14.9573 -0.0405
C 30.735 13.52989 -0.01303
C 29.47863 12.82888 -0.01461
C 29.4501 11.38233 -0.02155
C 33.16823 19.13374 -0.0136
C 33.20902 17.7561 0.00594
C 32.00245 17.13521 -0.02474
C 31.92462 15.65019 0.00369
C 1.34437 22.03561 0.02712
C 0.09867 21.25498 -0.02213
C 0.04597 19.93054 0.01951
C 1.25964 19.13447 -0.01678
C 1.25955 17.69961 0.01223
C 34.41168 17.03034 0.00648
C 34.41287 15.64012 0.02114
C 1.16781 14.80781 -0.02957
C 1.18536 13.44478 0.00343
C 34.3839 12.72968 -0.02656
C 34.37845 11.36875 -0.02442
C 1.2315 10.65408 -0.00027
C 1.21339 9.27228 -0.00583
C 0.02047 8.54617 -0.02302
C 34.39679 7.11779 -0.02849
C 1.19564 6.40759 0.02931
C 1.18769 4.94282 0.00628
C 34.34838 4.18608 -0.0345
C 34.33111 2.82901 -0.00931
C 1.19588 2.11804 -0.00939
C 1.20544 0.66947 -0.00468
C 1.21912 23.43364 0.00723
C 27.04058 0.03207 -0.00416
C 0.00262 24.04679 0.03076
C 1.10903 26.282 -0.00598
C 33.12487 14.90502 0.00455
C 33.12439 13.49295 -0.00644
C 31.91143 12.77552 -0.01839
C 31.89198 11.36523 0.00137
C 33.14696 10.63688 0.00199
C 33.22816 9.21596 0.04381
C 32.01516 8.43231 0.02806
C 32.00838 7.13233 0.01504
C 33.21722 6.36867 -0.00069
C 33.1975 4.94279 0.04926
C 31.93183 4.23566 -0.03838
C 31.91031 2.85067 0.00349
C 33.20622 2.1093 -0.00323
C 33.15281 0.64968 -0.00841
C 31.89457 34.01527 0.0001
C 0.06087 32.68254 -0.02927
C 1.33687 31.91731 -0.01404
C 1.30121 30.52719 0.01027
C 0.0346 29.81542 0.01831
C 34.40729 28.39592 -0.01037
C 1.20346 27.68841 -0.00439
C 34.35495 25.52288 -0.05239
C 28.2854 0.75328 0.01699
C 28.26916 2.14621 0.01799
C 27.02687 2.86596 0.01259
C 23.27636 19.18241 -0.00478
C 23.30293 17.70276 -0.01662
C 22.07777 17.06229 -0.01185
C 22.04573 15.62943 0.01126
C 23.29273 14.94003 0.01852
C 23.41698 13.47687 -0.00381
C 22.24942 12.63886 0.03046
C 22.16298 11.24589 0.0296
C 21.99381 8.46097 0.03374
C 22.16861 7.17295 -0.02845
C 23.35616 6.42163 -0.03213
C 23.36219 4.9591 0.02239
C 22.1661 4.23774 0.01153
C 22.22834 2.84426 0.02734
C 23.47406 2.13086 -0.0055
C 23.3925 0.69883 0.01515
C 22.10125 0.04279 -0.00225
C 24.5875 32.66072 0.00071
C 25.81725 31.93719 -0.01107
C 25.88219 30.54116 -0.01586
C 24.63866 29.78976 -0.01971
C 21.95375 19.91754 0.01511
C 24.60732 28.32987 -0.02118
C 22.13845 21.23008 0.00199
C 23.38078 23.37985 -0.01527
C 19.68001 11.39755 -0.017
C 20.94939 10.69603 0.00364
C 20.86503 9.28034 -0.00831
C 19.67516 8.54198 -0.02957
C 19.65885 7.09373 -0.04422
C 20.8802 6.32492 0.00654
C 20.97418 4.89631 -0.00703
C 19.72647 4.29334 -0.04076
C 19.69864 2.77772 -0.00652
C 20.9581 2.11742 0.0058
C 20.91011 0.66025 -0.00865
C 19.66905 34.06402 0.00675
C 22.03809 32.6184 -0.00311
C 23.34712 31.91255 0.00742
C 23.45942 30.54375 -0.01594
C 22.16663 29.83199 0.0106
C 22.08269 28.366 -0.01154
C 23.31696 27.74793 -0.01721
C 23.42785 26.2459 -0.02422
C 22.07284 25.50535 0.01277
C 22.23997 24.15757 0.00096
C 23.3774 21.9774 0.01087
C 3.73008 32.02508 -0.01979
C 25.83885 27.64404 0.00733
C 24.54078 25.50529 0.00768
C 28.33673 26.18637 -0.00218
C 27.09656 25.5525 -0.01654
C 26.96738 24.1574 -0.00037
C 28.24524 23.37926 -0.0032
C 28.22941 21.93909 0.00622
C 27.01517 21.26255 -0.02815
C 27.00748 19.82684 -0.00942
C 28.22529 19.15529 0.00487
C 28.2696 17.7474 0.00826
C 26.94067 16.99243 -0.00294
C 26.92492 15.54337 0.00152
C 28.19799 14.95434 0.01257
C 28.22906 13.4585 0.02316
C 26.97416 12.72164 0.04185
C 28.20098 10.72926 0.00194
C 28.07814 9.3097 -0.00621
C 27.08656 8.42148 0.02611
C 27.05478 6.9855 0.02198
C 28.34669 6.39899 0.01094
C 28.40349 5.01269 0.00235
C 27.07964 4.22431 0.01495
C 28.2785 27.61758 -0.00802
C 25.95815 26.27814 -0.00178
C 27.04847 28.32692 0.00195
C 28.26727 30.46595 0.04306
C 24.60392 24.09405 -0.0276
C 25.77522 23.49982 0.03005
C 25.77329 22.02437 -0.04078
C 24.59498 21.31057 0.02117
C 24.56976 19.88329 0.02737
C 25.77835 19.16704 -0.00498
C 25.72452 17.66964 0.00135
C 24.51449 16.99882 0.03102
C 24.56075 15.61119 0.02555
C 25.72847 14.80872 0.01423
C 25.76413 13.39372 -0.00285
C 24.6198 7.07428 -0.009
C 25.82385 6.39938 -0.01199
C 25.87973 5.0275 -0.00229
C 24.68129 4.25607 -0.00938
C 24.61146 2.877 -0.0264
C 25.85075 2.16721 -0.01154
C 25.77867 0.78655 0.00684
C 24.58301 34.045 -0.01052
C 26.99613 32.70877 -0.01679
C 28.2221 31.99475 0.00367
C 27.08591 29.75782 0.00996
C 2.44254 32.70754 -0.00449
