351
Graphene
C 0.01954 0.0389 0.01295
C 17.24706 21.26894 0.00228
C 17.15617 19.96124 0.00798
C 18.43187 19.19893 0.00422
C 18.47655 17.7409 0.0351
C 17.2677 17.09323 -0.03113
C 17.23625 15.62237 0.02098
C 18.38598 14.85324 0.01848
C 18.40563 13.48103 -0.00619
C 18.44147 21.87641 -0.00114
C 18.44576 6.33704 -0.02162
C 17.30928 4.28779 -0.00481
C 17.23132 2.82949 0.00979
C 18.49265 2.08721 0.01443
C 18.48397 0.714 0.03505
C 17.20126 0.0886 -0.02815
C 19.68508 32.6358 -0.04147
C 20.89732 31.86509 -0.05302
C 20.82614 30.47846 0.00213
C 18.49018 4.91867 0.00889
C 19.60691 29.7622 -0.00066
C 18.40568 23.43619 -0.02696
C 17.2145 25.50647 -0.0108
C 15.93602 22.0683 0.0076
C 14.66807 21.36732 0.01241
C 14.78359 19.95242 -0.01454
C 16.01729 19.20335 0.01945
C 16.02517 17.77211 0.01416
C 14.78498 17.03608 0.03542
C 14.88905 15.60874 0.02299
C 15.92731 14.96549 0.00244
C 17.23862 24.14625 -0.00368
C 16.01033 2.18848 -0.01717
C 14.72009 0.02421 -0.01952
C 17.22131 32.73946 -0.02813
C 18.47124 31.89927 0.00374
C 18.47325 30.51665 0.00052
C 17.2322 29.84404 -0.03682
C 17.30816 28.39293 0.01965
C 18.43927 27.63979 0.02058
C 18.42685 26.27007 -0.01957
C 15.97367 0.69594 0.05265
C 15.93404 23.4112 0.02162
C 19.70999 28.34384 -0.00289
C 21.00414 26.2668 -0.02213
C 20.92049 2.1642 0.00364
C 20.92879 0.77076 -0.00831
C 19.66747 0.09908 -0.02957
C 22.10912 32.67746 -0.04422
C 23.32543 31.88467 0.00654
C 23.36163 30.51068 -0.00703
C 22.11235 29.86166 -0.04076
C 22.15901 28.37888 -0.00652
C 19.6531 2.87884 -0.017
C 23.37484 27.70163 0.0058
C 22.17485 25.53417 0.00675
C 22.20426 24.18106 -0.00311
C 23.37552 23.37886 0.00742
C 23.37184 22.01011 -0.01594
C 22.14742 21.29091 0.0106
C 22.14815 19.84063 -0.01154
C 23.3 19.15614 -0.01721
C 23.3297 17.73359 -0.02422
C 23.38819 26.22239 -0.00865
C 20.95752 27.65456 0.00028
C 19.68992 4.29702 0.00143
C 20.8804 6.38884 -0.0054
C 19.64161 25.57457 0.03698
C 19.59269 24.19606 -0.00109
C 20.88157 23.48198 -0.00491
C 20.90428 22.02541 0.03338
C 19.70326 21.24065 -0.0258
C 19.67154 19.88003 -0.0331
C 20.91852 19.18849 -0.00316
C 20.91713 17.81068 0.02188
C 20.95009 4.98252 0.00667
C 19.68721 17.05908 -0.01979
C 20.87535 14.85378 -0.01581
C 20.89057 13.44495 0.01452
C 19.61078 12.75166 0.04892
C 19.78246 11.39663 -0.00111
C 20.85713 10.63928 -0.03557
C 20.84692 9.21301 0.03754
C 19.64984 8.54332 0.01739
C 19.62723 7.10417 0.00755
C 19.61602 15.60078 0.02691
C 22.10141 17.06057 0.01277
C 14.77211 24.13769 -0.0014
C 15.94005 26.25864 -0.02162
C 4.88832 32.59464 0.01572
C 6.07762 31.91674 -0.04848
C 6.11467 30.50735 -0.00892
C 4.87085 29.80504 -0.01362
C 4.96243 28.35609 -0.0008
C 6.2273 27.74281 0.0288
C 4.91934 15.66154 0.00393
C 6.16804 14.93459 0.00895
C 2.43169 0.01564 -0.00095
C 4.86832 12.82376 0.00685
C 6.12037 2.21199 -0.00482
C 6.17247 0.65569 -0.01384
C 4.88981 34.07785 0.03693
C 7.29926 32.69326 0.01745
C 8.54856 31.96014 0.00488
C 8.60661 30.56476 -0.01004
C 7.36791 29.87947 -0.02896
C 7.41526 28.34556 -0.00131
C 4.98702 2.82931 0.02888
C 8.64763 27.70879 -0.01118
C 3.69995 0.71981 0.03007
C 2.39607 2.88872 -0.00494
C 3.68181 30.56696 0.01305
C 2.43465 29.7976 -0.00077
C 2.41852 28.37412 0.03368
C 3.65735 27.71229 -0.02929
C 3.6694 26.16043 -0.00966
C 2.59492 25.6387 -0.03337
C 2.4169 16.9982 0.01227
C 2.53688 15.63246 0.00873
C 3.70361 2.13263 0.00054
C 3.64855 14.92363 -0.00049
C 2.40777 12.90203 -0.01303
C 2.50252 11.40863 -0.01378
C 3.73118 10.55669 0.02635
C 3.64243 9.38144 0.0127
C 2.57687 8.45655 0.01396
C 2.39968 7.02136 0.01849
C 3.74047 4.92245 -0.01142
C 2.38384 4.22868 -0.00562
C 3.71017 13.57094 0.00848
C 14.73098 25.59743 0.00415
C 8.67749 26.23057 -0.014
C 8.65185 2.17241 0.00373
C 13.50903 26.19359 -0.01275
C 12.34897 25.60178 0.00985
C 12.29656 24.19153 -0.02245
C 13.54233 23.47505 -0.00428
C 13.44257 22.01672 0.03101
C 12.24859 21.25954 -0.01536
C 12.27393 19.86954 -0.02689
C 13.60141 19.17693 -0.01046
C 13.51565 27.66381 -0.01111
C 13.50398 17.77513 -0.00891
C 13.55625 0.78146 0.00165
C 12.239 0.08832 -0.02971
C 14.79958 32.64719 0.02894
C 16.0552 31.94765 -0.01789
C 16.015 30.56848 0.00444
C 14.69649 29.72062 -0.00925
C 14.72628 28.34582 0.01877
C 15.96009 27.70371 0.01363
C 12.25048 16.97709 0.02819
C 7.31821 15.56491 0.02147
C 12.29155 28.4276 0.02841
C 13.48703 30.57205 0.00406
C 8.64323 0.69923 -0.00191
C 7.35452 0.01362 0.00438
C 9.82272 32.68761 0.01291
C 11.05404 31.97423 0.00093
C 11.03768 30.53961 0.00057
C 9.83111 29.84559 -0.01634
C 9.88918 28.44755 -0.00334
C 11.07302 27.70957 0.02339
C 12.2517 29.88479 0.00943
C 11.13084 26.25046 0.01641
C 11.09305 23.54829 0.01364
C 11.05786 19.21208 -0.01062
C 11.08551 17.80785 -0.00033
C 9.80346 17.21479 0.03589
C 11.02617 0.73799 -0.02759
C 9.87761 0.03529 0.0402
C 12.23052 32.68816 0.00572
C 13.53568 32.00437 0.03592
C 9.81688 25.61302 -0.00719
C 3.69336 31.93318 0.0276
C 22.09694 15.65923 0.00096
C 23.34489 13.53843 0.01087
C 33.21922 31.95211 -0.01694
C 33.11508 30.52961 0.01428
C 31.91744 29.84637 -0.02142
C 31.97664 28.37418 0.0544
C 33.22528 27.68038 0.00026
C 33.14242 26.34195 0.00682
C 31.93628 25.59565 -0.01779
C 32.02706 24.20363 0.03794
C 32.00635 32.59592 0.01713
C 33.20857 23.47378 0.01927
C 31.91585 21.3082 -0.02383
C 31.96629 19.89096 -0.01429
C 33.17397 19.21958 -0.0136
C 33.0977 17.76054 0.00594
C 31.89984 17.0173 -0.02474
C 31.97077 15.56388 0.00369
C 33.20532 14.92364 0.00455
C 33.14544 13.46377 -0.00644
C 33.19983 22.07579 0.01574
C 31.97504 12.71214 -0.01839
C 29.5229 34.06431 0.00346
C 30.77146 2.14818 0.00716
C 29.57021 21.31028 -0.03039
C 29.54796 19.94098 0.01836
C 30.73257 19.14631 0.03531
C 30.70164 17.74949 -0.00669
C 29.48732 17.0326 0.0101
C 29.45943 15.6716 0.01705
C 30.77951 14.88782 -0.0405
C 30.75402 13.4489 -0.01303
C 30.79691 0.67577 0.00307
C 29.50508 12.81275 -0.01461
C 30.73684 10.68188 -0.00944
C 30.74849 9.21361 -0.03735
C 29.51708 8.50916 -0.00971
C 29.49736 7.08996 0.01518
C 30.7375 6.43798 0.01908
C 30.78578 5.03828 0.07705
C 29.54142 4.18319 0.0103
C 29.56455 2.7658 0.02108
C 29.52673 11.39362 -0.02155
C 30.76478 22.06478 -0.01415
C 31.98642 11.30857 0.00137
C 33.15135 9.25356 0.04381
C 1.27958 19.12103 -0.01678
C 1.19924 17.70478 0.01223
C 34.33551 17.05868 0.00648
C 34.40519 15.60261 0.02114
C 1.18456 14.96132 -0.02957
C 1.20458 13.51085 0.00343
C 0.00952 12.72546 -0.02656
C 0.05359 11.325 -0.02442
C 0.02309 19.911 0.01951
C 1.31698 10.63017 -0.00027
C 34.41495 8.45319 -0.02302
C 0.01986 7.08717 -0.02849
C 1.28928 6.35944 0.02931
C 1.16654 4.93206 0.00628
C 34.4274 4.23406 -0.0345
C 0.00198 2.83142 -0.00931
C 1.21482 2.14459 -0.00939
C 1.26109 0.79081 -0.00468
C 1.20937 9.23299 -0.00583
C 33.24327 10.698 0.00199
C 34.39903 21.32747 -0.02213
C 1.21399 23.37013 0.00723
C 31.95099 8.54638 0.02806
C 32.03829 7.14224 0.01504
C 33.23618 6.37902 -0.00069
C 33.18353 4.92386 0.04926
C 31.96369 4.31917 -0.03838
C 31.98026 2.85701 0.00349
C 33.23041 2.18962 -0.00323
C 33.16689 0.62604 -0.00841
C 1.14236 22.10669 0.02712
C 31.95847 34.02959 0.0001
C 1.28875 31.93369 -0.01404
C 1.14587 30.49471 0.01027
C 34.35098 29.82821 0.01831
C 34.41938 28.34763 -0.01037
C 1.20277 27.68785 -0.00439
C 1.2345 26.1836 -0.00598
C 34.39529 25.65091 -0.05239
C 0.02806 24.22663 0.03076
C 0.02835 32.67055 -0.02927
C 23.32866 14.89265 -0.01527
C 30.69299 23.43412 -0.01854
C 29.446 25.56294 0.03265
C 25.83628 23.4425 -0.01971
C 25.88104 21.95932 -0.02118
C 24.62433 21.26237 0.00733
C 24.51537 19.92775 -0.00178
C 25.79531 19.20944 0.00768
C 25.80601 17.81738 -0.0276
C 24.55431 17.06761 0.03005
C 24.54833 15.63102 -0.04078
C 24.59121 24.1495 -0.01586
C 25.82547 14.94357 0.02117
C 24.61614 12.79546 -0.00498
C 24.57452 11.34158 0.00135
C 25.80162 10.62869 0.03102
C 25.8218 9.24442 0.02555
C 24.57055 8.57473 0.01423
C 24.59283 7.02983 -0.00285
C 25.83312 6.33903 -0.009
C 25.75758 4.95955 -0.01199
C 25.84069 13.53301 0.02737
C 24.63868 4.23274 -0.00229
C 24.5201 25.50275 -0.01107
C 25.78547 27.69487 -0.00225
C 22.14625 12.76363 0.00199
C 22.11224 11.30388 0.01511
C 23.32224 10.66707 -0.00478
C 23.38571 9.20235 -0.01662
C 22.15751 8.49859 -0.01185
C 22.15728 7.11195 0.01126
C 23.36702 6.33334 0.01852
C 23.36209 4.89439 -0.00381
C 25.78939 26.23013 0.00071
C 22.11487 4.23748 0.03046
C 23.38758 2.11046 0.03374
C 23.40171 0.68574 -0.02845
C 22.13345 0.05043 -0.03213
C 24.4986 32.64811 0.02239
C 25.72136 31.91108 0.01153
C 25.80961 30.46386 0.02734
C 24.53972 29.80502 -0.0055
C 24.61335 28.38547 0.01515
C 22.16768 2.83481 0.0296
C 29.41705 24.17183 -0.02049
C 24.52142 2.78123 -0.00938
C 25.84469 0.70946 -0.01154
C 28.32237 10.62262 0.00194
C 28.32817 9.1768 -0.00621
C 27.09861 8.45973 0.02611
C 27.10613 7.0761 0.02198
C 28.28223 6.37076 0.01094
C 28.2991 4.87291 0.00235
C 27.0145 4.23174 0.01495
C 27.05105 2.85739 0.01259
C 27.10215 11.29598 0.04185
C 28.38077 2.09102 0.01799
C 27.03393 34.02968 -0.00416
C 29.53185 32.64279 0.01177
C 30.74085 31.94355 0.04266
C 30.74454 30.50146 0.01324
C 29.5398 29.82551 0.0014
C 29.49102 28.38744 0.00924
C 30.74811 27.69785 0.02326
C 30.76195 26.24474 0.00261
C 28.35404 0.70573 0.01699
C 25.86573 2.17597 -0.0264
C 27.07164 12.81666 0.02316
C 28.30778 14.87661 0.00152
C 24.60481 0.02888 0.00684
C 27.06797 32.66174 -0.01052
C 28.24434 32.00694 -0.01679
C 28.27747 30.54187 0.00367
C 27.03647 29.84028 0.04306
C 27.01744 28.43912 0.00996
C 28.25689 27.69001 0.00195
C 28.30916 26.29175 -0.00802
C 28.25051 13.5263 0.01257
C 27.03859 25.53215 -0.00218
C 28.27857 23.46977 -0.00037
C 28.348 22.00367 -0.0032
C 27.12991 21.25421 0.00622
C 26.99002 19.8399 -0.02815
C 28.30879 19.19517 -0.00942
C 28.30488 17.74969 0.00487
C 27.16836 17.093 0.00826
C 27.02375 15.66265 -0.00294
C 27.05771 24.13989 -0.01654
C 2.4712 32.64878 0.00988
