428
Graphene
C 0.02391 0.0231 0.01295
C 12.34248 24.12697 0.03589
C 13.48409 23.48879 -0.02759
C 13.51825 22.05732 0.0402
C 12.32112 21.28858 0.00572
C 12.33281 19.93621 0.03592
C 13.53839 19.19417 0.00406
C 13.46965 17.71283 0.00943
C 12.24929 17.01809 0.02841
C 12.26699 15.51295 -0.01111
C 13.52677 14.90282 -0.01275
C 12.34723 25.60179 -0.00033
C 13.56155 13.46586 0.00985
C 12.32316 11.35979 -0.00428
C 13.56478 10.63258 0.03101
C 13.48797 9.29496 -0.01536
C 12.3044 8.49129 -0.02689
C 12.30861 7.03112 -0.01046
C 13.49074 6.33975 -0.00891
C 13.59625 4.88663 0.02819
C 12.25349 4.25442 0.00165
C 12.26941 2.88899 -0.02971
C 13.52328 2.0876 0.02894
C 12.2668 12.83744 -0.02245
C 13.45739 26.35038 -0.01062
C 13.54268 27.74782 0.01364
C 12.3268 28.4254 -0.00719
C 11.08557 19.19958 0.00685
C 11.07628 17.76029 0.02888
C 9.81039 17.05759 -0.00482
C 9.85236 15.6123 -0.01384
C 11.08609 14.91757 0.03693
C 11.07007 13.56454 0.01745
C 9.81229 12.79896 0.00488
C 9.80015 11.43736 -0.01004
C 11.07463 10.61926 -0.02896
C 11.09022 9.23016 -0.00131
C 9.88723 8.54683 -0.01118
C 9.91604 7.09458 -0.014
C 11.04749 6.34257 0.02147
C 11.05734 5.00712 0.00373
C 9.85813 4.2417 -0.00191
C 9.78484 2.83001 0.00438
C 11.08609 2.12573 0.01291
C 11.15341 0.72477 0.00093
C 9.85522 0.02432 0.00057
C 12.31415 32.69186 -0.01634
C 13.49755 32.05336 -0.00334
C 13.51546 30.57753 0.02339
C 12.29577 29.77685 0.01641
C 13.52014 0.69189 -0.01789
C 12.31224 0.05012 0.00444
C 14.75772 32.65491 -0.00925
C 15.94851 31.95492 0.01877
C 15.9788 2.1624 0.00228
C 15.99943 0.69013 0.00798
C 14.79255 0.08347 0.00422
C 17.22069 32.59904 0.0351
C 18.46525 31.93483 -0.03113
C 18.45673 30.50925 0.02098
C 17.254 29.77017 0.01848
C 17.16546 28.4 -0.00619
C 18.41908 27.67624 -0.02162
C 18.46337 26.22419 0.00889
C 17.22078 25.53729 -0.00481
C 17.18703 24.17339 0.00979
C 18.40168 23.43146 0.01443
C 18.40133 22.02311 0.03505
C 17.14385 21.34661 -0.02815
C 17.20571 19.9306 -0.04147
C 18.4273 19.20147 -0.05302
C 18.47037 17.71792 0.00213
C 17.23314 17.02414 -0.00066
C 17.23215 15.62913 -0.00289
C 18.48727 14.95362 0.00028
C 18.50564 13.51056 -0.02213
C 17.21968 12.79543 0.03698
C 14.75979 2.78246 -0.00114
C 9.81655 19.85979 0.00895
C 14.76413 4.22989 -0.02696
C 16.02286 6.41727 -0.0108
C 15.9681 30.52064 0.01363
C 14.72265 29.83198 -0.02162
C 14.70871 28.42647 0.00415
C 15.97387 27.68681 -0.0014
C 15.93179 26.27845 0.02162
C 14.75018 25.57866 0.0076
C 14.79317 24.11615 0.01241
C 15.96231 23.39899 -0.01454
C 15.95975 21.95324 0.01945
C 14.70481 21.29535 0.01416
C 14.76578 19.858 0.03542
C 15.97036 19.1489 0.02299
C 16.0246 17.73152 0.00244
C 14.81274 17.05612 -0.01717
C 14.73903 15.67283 0.05265
C 16.00368 14.85638 -0.01952
C 15.95509 13.48262 -0.02813
C 14.73633 12.77624 0.00374
C 14.7638 11.39688 0.00052
C 16.00408 10.59632 -0.03682
C 15.97426 9.24322 0.01965
C 14.71694 8.53636 0.02058
C 14.72077 7.0971 -0.01957
C 15.98597 4.97923 -0.00368
C 17.21744 11.39683 -0.00109
C 9.86999 21.25628 0.00393
C 11.06611 23.47974 -0.0008
C 3.69802 2.14459 -0.00039
C 3.6877 0.71361 0.0064
C 2.41054 0.0481 0.00211
C 4.95061 32.67284 -0.00449
C 6.14712 31.90954 -0.01979
C 6.10609 30.5105 0.02784
C 4.85884 29.84496 -0.01977
C 4.95342 28.3345 -0.00561
C 6.21073 27.71978 0.00208
C 6.13135 26.28006 0.01707
C 2.53134 2.82937 0.02728
C 4.93227 25.56965 0.02769
C 6.10012 23.40865 -0.04999
C 6.12224 22.08757 0.04505
C 4.92391 21.28333 0.03284
C 4.93799 19.84176 -0.04307
C 6.12466 19.17342 0.03189
C 6.19034 17.73887 0.00031
C 4.90497 17.00302 -0.003
C 4.94063 15.61044 0.01402
C 6.05688 14.89269 0.02379
C 6.13054 13.57774 0.00907
C 4.89994 24.17616 -0.03291
C 2.44985 4.27058 0.00245
C 3.7249 4.99351 0.00081
C 3.68681 6.31252 -0.02805
C 3.71612 30.56758 0.00787
C 2.48008 29.87734 0.02426
C 2.47079 28.44296 0.01218
C 3.67572 27.67711 -0.01471
C 3.64128 26.21561 -0.02827
C 2.44718 25.52554 0.01078
C 2.51319 24.13205 -0.00112
C 3.71908 23.3796 0.03345
C 3.7 22.00569 0.00748
C 2.4592 21.35413 0.00662
C 2.41772 19.88754 -0.0154
C 3.73367 19.14808 -0.01299
C 3.75946 17.74647 -0.00407
C 2.50904 17.06984 0.01138
C 2.43535 15.50646 0.03278
C 3.67622 14.87602 -0.00177
C 3.63408 13.49734 0.04421
C 2.39618 12.73003 0.00088
C 2.44888 11.36114 0.00828
C 3.67195 10.69363 -0.02375
C 3.6857 9.26004 0.00558
C 2.49155 8.4621 -0.0059
C 2.44348 7.10229 -0.01386
C 4.90579 12.82137 0.00643
C 4.9372 11.39358 -0.01509
C 6.1328 10.63907 0.03267
C 6.18071 9.23519 0.02374
C 8.64524 13.53238 -0.02929
C 7.37612 12.80015 -0.00966
C 7.32806 11.40319 -0.03337
C 8.6418 10.65636 0.01227
C 8.65153 9.28423 0.00873
C 7.39438 8.55607 -0.00049
C 7.40409 7.14848 0.00848
C 8.5794 6.4862 -0.01303
C 8.59361 5.03378 -0.01378
C 7.39911 4.28523 0.02635
C 7.31807 2.8463 0.0127
C 8.61536 2.17037 0.01396
C 8.64075 0.71309 0.01849
C 7.41269 34.06959 -0.01142
C 9.81002 32.69669 -0.00562
C 11.04233 31.98304 -0.00494
C 11.08819 30.52975 0.00054
C 9.79105 29.80403 0.03007
C 9.79229 28.42756 -0.00095
C 11.05615 27.66728 0.01572
C 11.07256 26.25134 -0.04848
C 9.78103 25.60324 -0.00892
C 9.79391 24.16301 -0.01362
C 8.64788 14.97861 0.03368
C 11.09237 21.97084 0.0288
C 7.36361 15.6541 -0.00077
C 8.54345 17.762 0.0276
C 4.9552 8.52756 0.00402
C 4.89384 7.13959 0.0073
C 6.05717 6.38874 0.0174
C 6.09551 4.96659 0.03828
C 4.89237 4.21285 0.01226
C 4.89743 2.88846 -0.00279
C 6.08705 2.14401 0.01996
C 6.16618 0.75634 -0.03996
C 4.92732 34.04867 0.01465
C 7.37542 32.65496 -0.00074
C 8.60692 31.97937 -0.00518
C 8.66101 30.53808 0.0086
C 7.39765 29.87853 -0.00643
C 7.37091 28.4088 0.017
C 8.59777 27.69381 -0.03113
C 8.58741 26.27554 -0.02566
C 7.31779 25.61095 -0.00094
C 7.41585 24.12581 0.02322
C 8.62254 23.37294 -0.00725
C 8.66841 21.97503 -0.05697
C 7.37053 21.33782 0.01087
C 7.36279 19.91062 -0.01343
C 8.60997 19.18552 0.00988
C 7.35552 17.0419 0.01305
C 18.43735 10.62435 -0.00491
C 18.42863 9.25382 0.03338
C 17.25789 8.56208 -0.0258
C 30.73771 13.42784 -0.01461
C 29.55203 12.73815 -0.02155
C 29.53156 11.36066 -0.00944
C 30.73711 10.6952 -0.03735
C 30.72353 9.17052 -0.00971
C 29.4781 8.54197 0.01518
C 30.80414 6.35554 0.01908
C 30.67544 4.94088 0.07705
C 29.45938 4.26926 0.0103
C 29.4824 2.82862 0.02108
C 30.7206 14.9425 -0.01303
C 30.73533 2.13243 0.00716
C 29.52957 33.99763 0.00346
C 31.98841 32.64651 0.01713
C 33.20315 31.97735 -0.01694
C 33.26952 30.50782 0.01428
C 31.98397 29.74053 -0.02142
C 31.99302 28.39391 0.0544
C 33.25197 27.66972 0.00026
C 33.16329 26.2651 0.00682
C 31.98093 25.53693 -0.01779
C 31.97503 24.15739 0.03794
C 30.72755 0.70538 0.00307
C 29.55266 15.69497 -0.0405
C 29.50429 17.04847 0.01705
C 30.77753 17.79173 0.0101
C 28.25702 14.93942 0.02198
C 28.3099 13.48905 0.01094
C 27.0653 12.75883 0.00235
C 27.12984 11.37999 0.01495
C 28.29366 10.67749 0.01259
C 26.98229 2.75522 0.01799
C 28.27385 2.15797 0.01699
C 28.28795 0.71303 -0.00416
C 27.07279 0.06654 0.01177
C 29.4789 32.56668 0.04266
C 30.71017 31.91045 0.01324
C 30.74139 30.51057 0.0014
C 29.58215 29.80211 0.00924
C 29.45838 28.35001 0.02326
C 30.68646 27.67961 0.00261
C 30.71702 26.20668 0.03265
C 29.479 25.53372 -0.02049
C 29.50295 24.08308 -0.01854
C 30.74873 23.50823 -0.01415
C 30.77895 22.06841 -0.03039
C 29.53014 21.29247 0.01836
C 29.51784 19.85545 0.03531
C 30.70761 19.13703 -0.00669
C 33.15141 23.44265 0.01927
C 33.21794 22.02786 0.01574
C 32.03306 21.26093 -0.02383
C 31.98197 19.86788 -0.01429
C 34.38631 24.19723 0.03076
C 1.2301 23.47897 0.00723
C 1.20698 22.08488 0.02712
C 34.40585 21.31765 -0.02213
C 34.40029 19.88149 0.01951
C 1.22169 19.21355 -0.01678
C 1.25489 17.74455 0.01223
C 0.0134 17.02653 0.00648
C 34.40943 15.58191 0.02114
C 1.20941 14.89862 -0.02957
C 1.20686 13.5044 0.00343
C 34.41158 12.8412 -0.02656
C 34.41709 11.31157 -0.02442
C 1.21953 10.63381 -0.00027
C 1.17264 9.22089 -0.00583
C 34.42572 8.54409 -0.02302
C 0.02421 7.09978 -0.02849
C 1.15247 6.31572 0.02931
C 1.18779 4.94003 0.00628
C 0.01286 4.23582 -0.0345
C 34.4295 2.77446 -0.00931
C 1.22581 2.15326 -0.00939
C 1.26506 0.68422 -0.00468
C 34.43306 25.57429 -0.05239
C 27.08864 15.64458 0.02611
C 1.2188 26.24753 -0.00598
C 0.03829 28.3389 -0.01037
C 33.18513 19.15211 -0.0136
C 33.16293 17.74186 0.00594
C 31.97969 17.03903 -0.02474
C 32.02816 15.58004 0.00369
C 33.2026 14.92021 0.00455
C 33.12921 13.47325 -0.00644
C 31.89989 12.75613 -0.01839
C 31.95866 11.29324 0.00137
C 33.15414 10.65297 0.00199
C 33.22608 9.21618 0.04381
C 32.00833 8.51721 0.02806
C 31.8599 7.11729 0.01504
C 33.13207 6.33823 -0.00069
C 33.21818 4.95711 0.04926
C 31.9824 4.24254 -0.03838
C 32.01618 2.80284 0.00349
C 33.24393 2.06919 -0.00323
C 33.24019 0.68071 -0.00841
C 31.96017 34.07997 0.0001
C 0.01715 32.60091 -0.02927
C 1.19204 31.92369 -0.01404
C 1.20984 30.55627 0.01027
C 0.04791 29.76197 0.01831
C 1.32115 27.64531 -0.00439
C 27.0285 17.01545 -0.00621
C 28.27711 17.73438 0.00194
C 28.29816 19.16621 0.04185
C 19.69179 12.76173 0.00675
C 19.71078 11.36495 -0.00311
C 20.881 10.61628 0.00742
C 20.92383 9.22053 -0.01594
C 19.74203 8.5107 0.0106
C 19.73436 7.11629 -0.01154
C 20.90956 6.43796 -0.01721
C 20.9106 5.0205 -0.02422
C 19.69049 4.17158 0.01277
C 19.6467 2.82822 0.00096
C 20.9073 2.13686 -0.01527
C 20.88292 0.76554 0.01087
C 19.65376 34.07001 0.00199
C 22.12353 32.68348 0.01511
C 23.32394 31.98389 -0.00478
C 23.35491 30.52202 -0.01662
C 22.16763 29.83536 -0.01185
C 22.13482 28.44577 0.01126
C 23.36839 27.64389 0.01852
C 23.3909 26.30415 -0.00381
C 22.18093 25.55925 0.03046
C 22.18981 24.11803 0.0296
C 23.29846 23.37121 0.03374
C 20.93911 13.51253 -0.00865
C 23.34454 21.96523 -0.02845
C 21.0497 14.94655 0.0058
C 19.64892 17.06678 -0.04076
C 17.21647 7.09335 -0.0331
C 18.44556 6.3804 -0.00316
C 18.36392 4.98258 0.02188
C 17.15426 4.28037 -0.01979
C 17.17589 2.85149 0.02691
C 18.40124 2.12169 -0.01581
C 18.46796 0.66789 0.01452
C 17.13504 34.01353 0.04892
C 19.67525 32.66107 -0.00111
C 20.8645 31.95632 -0.03557
C 20.87825 30.49836 0.03754
C 19.64854 29.83493 0.01739
C 19.66298 28.39999 0.00755
C 20.91024 27.67315 -0.0054
C 20.89473 26.274 0.00667
C 19.69321 25.47281 0.00143
C 19.70506 24.12582 -0.017
C 20.91417 23.42568 0.00364
C 20.92559 22.02691 -0.00831
C 19.75704 21.39388 -0.02957
C 19.68313 19.91301 -0.04422
C 20.86243 19.12377 0.00654
C 20.88091 17.72009 -0.00703
C 19.70919 15.66406 -0.00652
C 3.64848 31.98921 0.00267
C 22.13752 21.27303 -0.03213
C 23.40914 19.19008 0.01153
C 25.85444 17.7794 -0.0264
C 24.5817 17.05538 -0.01154
C 24.56354 15.56763 0.00684
C 25.81743 14.92614 -0.01052
C 25.84817 13.4931 -0.01679
C 24.56362 12.76966 0.00367
C 24.53684 11.3412 0.04306
C 25.84079 2.11556 0.00996
C 25.78551 0.71401 0.00195
C 24.60217 0.0047 -0.00802
C 27.0656 32.65192 -0.00218
C 28.26983 32.0014 -0.01654
C 28.33575 30.5581 -0.00037
C 27.0266 29.82242 -0.0032
C 27.06731 28.37242 0.00622
C 28.28569 27.6905 -0.02815
C 28.29281 26.30401 -0.00942
C 27.06433 25.52232 0.00487
C 27.03279 24.08691 0.00826
C 28.35148 23.43488 -0.00294
C 28.26001 22.0564 0.00152
C 27.07692 21.3154 0.01257
C 27.06582 19.91175 0.02316
C 25.83027 19.16851 -0.00938
C 22.15075 19.82971 0.02239
C 24.54962 19.86116 -0.00229
C 25.8806 21.99518 -0.009
C 23.33522 17.71746 0.02734
C 22.06645 17.0533 -0.0055
C 22.13673 15.62802 0.01515
C 23.30923 14.93105 -0.00225
C 23.3607 13.49188 0.00071
C 22.07833 12.69868 -0.01107
C 22.10902 11.33038 -0.01586
C 23.40843 10.73493 -0.01971
C 22.12175 4.30493 -0.02118
C 22.12398 2.77369 0.00733
C 23.39611 2.09712 -0.00178
C 23.35074 0.77965 0.00768
C 22.10757 0.01259 -0.0276
C 24.58328 32.7251 0.03005
C 25.82212 31.92219 -0.04078
C 25.83549 30.50872 0.02117
C 24.60749 29.81595 0.02737
C 24.60819 28.41605 -0.00498
C 25.83495 27.66857 0.00135
C 25.85934 26.28124 0.03102
C 24.58992 25.54157 0.02555
C 24.59823 24.16075 0.01423
C 25.79679 23.40198 -0.00285
C 24.56518 21.33572 -0.01199
C 2.42878 32.63569 0.01913
