444
Graphene
C 34.40827 0.0279 0.01295
C 13.41005 14.99599 0.01291
C 13.4413 13.51139 0.00093
C 12.21163 12.78907 0.00057
C 12.28076 11.4258 -0.01634
C 13.53281 10.60842 -0.00334
C 13.5427 9.21054 0.02339
C 12.33847 8.54529 0.01641
C 12.32016 7.15153 -0.00719
C 13.5052 6.40449 0.01364
C 13.51608 4.9428 -0.01062
C 12.19802 4.27724 -0.00033
C 12.32432 2.88421 0.03589
C 13.56931 2.16425 -0.02759
C 13.58914 0.71551 0.0402
C 12.31789 34.06601 0.00572
C 14.71172 32.54134 0.03592
C 15.98278 31.90598 0.00406
C 15.9618 30.4938 0.00943
C 14.69414 29.82576 0.02841
C 14.74525 28.33956 -0.01111
C 15.99289 27.6535 -0.01275
C 15.94143 26.24211 0.00985
C 14.72508 25.51284 -0.02245
C 12.28075 15.67858 0.00438
C 12.25948 17.12175 -0.00191
C 13.53803 17.73445 0.00373
C 13.52599 19.14042 0.02147
C 9.81679 11.39203 -0.00494
C 11.0893 10.66973 0.00054
C 11.03815 9.24284 0.03007
C 9.71148 8.6084 -0.00095
C 10.92084 6.52794 0.01572
C 10.9822 5.15934 -0.04848
C 9.79685 4.3842 -0.00892
C 9.81759 2.98973 -0.01362
C 11.1112 2.24511 -0.0008
C 11.09953 0.75205 0.0288
C 9.83115 0.07972 0.00393
C 14.7194 24.15532 -0.00428
C 12.32013 32.67384 0.00895
C 13.44916 30.47988 0.02888
C 12.26814 29.83134 -0.00482
C 12.20102 28.41361 -0.01384
C 13.47372 27.74765 0.03693
C 13.52759 26.29435 0.01745
C 12.28041 25.65302 0.00488
C 12.28202 24.11249 -0.01004
C 13.51187 23.39388 -0.02896
C 13.52406 22.03603 -0.00131
C 12.27657 21.31705 -0.01118
C 12.25737 19.8563 -0.014
C 13.46558 31.91788 0.00685
C 16.00476 23.46345 0.03101
C 16.01036 22.03047 -0.01536
C 14.76764 21.33145 -0.02689
C 17.16629 24.12397 0.00052
C 18.46969 23.43132 -0.03682
C 18.44532 21.97354 0.01965
C 17.19963 21.28112 0.02058
C 17.1238 19.88744 -0.01957
C 18.43088 19.10498 -0.0108
C 18.43799 17.67521 -0.00368
C 17.16304 16.97369 -0.02696
C 17.18626 15.58849 -0.00114
C 18.43542 14.87996 0.00228
C 18.42859 13.48022 0.00798
C 17.22567 25.61054 0.00374
C 17.1746 12.8081 0.00422
C 18.40227 10.66751 -0.03113
C 18.4442 9.26615 0.02098
C 17.21884 8.50827 0.01848
C 17.20851 7.09687 -0.00619
C 18.44041 6.39005 -0.02162
C 18.42335 4.97378 0.00889
C 17.2027 4.27535 -0.00481
C 17.21352 2.85303 0.00979
C 18.41749 2.15111 0.01443
C 18.38615 0.68918 0.03505
C 17.18022 34.03892 -0.02815
C 17.1967 11.35782 0.0351
C 9.76942 12.82882 -0.00562
C 18.42998 26.30261 -0.02813
C 17.18685 28.38324 0.05265
C 14.7623 19.93445 -0.01046
C 15.99958 19.13683 -0.00891
C 15.99674 17.70356 0.02819
C 14.7663 17.0281 0.00165
C 14.75834 15.63874 -0.02971
C 15.97076 14.86807 0.02894
C 15.93646 13.46951 -0.01789
C 14.64255 12.77149 0.00444
C 14.7886 11.32798 -0.00925
C 16.01536 10.67373 0.01877
C 16.00445 9.22652 0.01363
C 18.38136 27.70486 -0.01952
C 14.77318 8.52514 -0.02162
C 15.9887 6.35816 -0.0014
C 16.04551 4.95187 0.02162
C 14.78665 4.22382 0.0076
C 14.80141 2.89293 0.01241
C 16.03688 2.14115 -0.01454
C 15.97348 0.68535 0.01945
C 14.78033 33.97243 0.01416
C 17.1262 32.62997 0.03542
C 18.41868 31.92495 0.02299
C 18.44153 30.57154 0.00244
C 17.20354 29.8349 -0.01717
C 14.70127 7.09222 0.00415
C 19.64073 32.64819 -0.04147
C 11.05955 13.53909 -0.01142
C 9.73718 15.61682 0.01396
C 3.66834 0.75309 -0.00407
C 2.43061 0.03009 0.01138
C 5.01147 32.65002 0.03278
C 6.13319 31.96972 -0.00177
C 6.16457 30.52295 0.04421
C 5.00104 29.81302 0.00088
C 5.01141 28.42457 0.00828
C 6.22543 27.73883 -0.02375
C 6.14118 26.29469 0.00558
C 4.84625 25.60147 -0.0059
C 4.96794 24.21764 -0.01386
C 6.13566 23.51669 -0.02805
C 6.14689 22.03808 0.00081
C 4.86686 21.21903 0.00245
C 4.94036 19.84229 0.02728
C 6.14653 19.18555 -0.00039
C 6.12078 17.80235 0.0064
C 4.82079 17.0723 0.00211
C 4.81438 15.69024 -0.00449
C 6.05935 15.01321 -0.01979
C 6.11177 13.59617 0.02784
C 4.98517 12.83056 -0.01977
C 4.9449 11.34706 -0.00561
C 3.63238 2.10739 -0.01299
C 2.38911 2.80766 -0.0154
C 2.44406 4.23577 0.00662
C 3.70732 5.02972 0.00748
C 3.77287 30.51702 -0.03951
C 2.47185 29.88154 -0.00141
C 2.54396 28.49037 -0.00374
C 3.76633 27.72632 -0.0213
C 3.63008 26.29672 0.01116
C 2.46634 25.54356 -0.0005
C 2.4716 24.11628 -0.00018
C 3.72307 23.43028 0.01073
C 3.66626 21.93844 0.01984
C 2.4698 21.2899 0.00535
C 2.37479 19.81899 -0.00198
C 6.24483 10.65233 0.00208
C 3.66243 19.19851 -0.00012
C 2.32081 16.96506 -0.03672
C 2.42759 15.5597 0.01913
C 3.65655 14.85218 0.00267
C 3.75308 13.52743 0.00787
C 2.48324 12.70902 0.02426
C 2.47601 11.32658 0.01218
C 3.6842 10.65985 -0.01471
C 3.80628 9.2595 -0.02827
C 2.55773 8.52674 0.01078
C 2.45803 7.09067 -0.00112
C 3.71309 6.43015 0.03345
C 3.54811 17.68443 -0.04306
C 6.34406 9.24924 0.01707
C 5.10232 8.54096 0.02769
C 4.99291 7.08494 -0.03291
C 8.58166 10.72534 -0.03113
C 8.55992 9.26822 -0.02566
C 8.5091 5.03208 -0.00094
C 7.28293 4.31749 0.02322
C 7.4639 2.8901 -0.00725
C 8.63764 2.14907 -0.05697
C 8.61761 0.75569 0.01087
C 7.40759 0.04834 -0.01343
C 9.85638 32.70754 0.00988
C 11.04939 31.98873 0.0276
C 11.00756 30.57833 0.01305
C 7.40708 11.45041 0.017
C 9.81843 29.86899 -0.00077
C 11.02267 27.75889 -0.02929
C 11.0064 26.37137 -0.00966
C 9.80451 25.54014 -0.03337
C 9.83146 24.16043 0.01227
C 11.01913 23.47263 0.00873
C 11.00295 22.1007 -0.00049
C 9.82326 21.29969 0.00848
C 9.86253 19.90977 -0.01303
C 11.01854 19.23174 -0.01378
C 11.04977 17.75774 0.02635
C 9.83014 17.0687 0.0127
C 9.86835 28.48594 0.03368
C 10.98776 15.0062 0.01849
C 7.32023 12.81615 -0.00643
C 8.54423 14.92777 -0.00518
C 6.1088 6.3491 -0.04999
C 6.11284 5.01602 0.04505
C 4.88612 4.3036 0.03284
C 4.90861 2.85924 -0.04307
C 6.13376 2.16357 0.03189
C 6.15082 0.71222 0.00031
C 4.90885 0.06099 -0.003
C 7.3481 32.75442 0.01402
C 8.62264 32.02507 0.02379
C 8.62361 30.57019 0.00907
C 7.37765 29.80426 0.00643
C 8.56411 13.56135 0.0086
C 7.39982 28.42188 -0.01509
C 8.55275 26.27029 0.02374
C 7.32014 25.55071 0.00402
C 7.3756 24.16499 0.0073
C 8.6211 23.49988 0.0174
C 8.61481 22.05446 0.03828
C 7.42794 21.26782 0.01226
C 7.33406 19.86481 -0.00279
C 8.59938 19.16921 0.01996
C 8.52932 17.73959 -0.03996
C 7.29978 17.0222 0.01465
C 7.28652 15.60625 -0.00074
C 8.65671 27.70112 0.03267
C 20.87927 31.92512 -0.05302
C 20.8428 30.51748 0.00213
C 19.66685 29.79634 -0.00066
C 29.51974 15.57572 0.01705
C 30.75012 14.85013 -0.0405
C 30.72268 13.3822 -0.01303
C 29.45158 12.72532 -0.01461
C 29.41808 11.33486 -0.02155
C 30.70844 10.55702 -0.00944
C 30.81995 9.12849 -0.03735
C 29.53048 8.39114 -0.00971
C 29.4678 7.02468 0.01518
C 30.69376 6.29763 0.01908
C 30.75398 4.88984 0.07705
C 29.50774 4.23555 0.0103
C 29.55088 2.89171 0.02108
C 30.75576 2.14157 0.00716
C 30.78336 0.7505 0.00307
C 29.52611 0.04403 0.00346
C 31.98802 32.66554 0.01713
C 33.25894 31.95917 -0.01694
C 33.27189 30.56238 0.01428
C 31.99339 29.87152 -0.02142
C 32.02186 28.4634 0.0544
C 33.23511 27.73366 0.00026
C 33.17748 26.31244 0.00682
C 29.51469 17.05761 0.0101
C 30.74348 17.67224 -0.00669
C 30.69742 19.13949 0.03531
C 29.47572 19.86062 0.01836
C 27.02999 11.35551 0.04185
C 28.24151 10.56571 0.00194
C 28.32079 9.14575 -0.00621
C 26.99624 8.51088 0.02611
C 27.03286 7.10549 0.02198
C 28.26167 6.33284 0.01094
C 28.26946 4.96374 0.00235
C 27.00945 4.27683 0.01495
C 27.06562 2.9018 0.01259
C 28.32064 2.15417 0.01799
C 28.29004 0.75766 0.01699
C 31.97256 25.59041 -0.01779
C 27.10868 0.07858 -0.00416
C 30.79254 31.98738 0.04266
C 30.74202 30.53044 0.01324
C 29.52727 29.75334 0.0014
C 29.46837 28.37292 0.00924
C 30.79365 27.70594 0.02326
C 30.76531 26.29883 0.00261
C 29.4364 25.64732 0.03265
C 29.46419 24.19662 -0.02049
C 30.69122 23.52672 -0.01854
C 30.58829 22.07521 -0.01415
C 29.40245 21.35917 -0.03039
C 29.45343 32.74878 0.01177
C 31.93484 24.21525 0.03794
C 33.16441 23.44675 0.01927
C 33.07272 22.0048 0.01574
C 34.42266 25.54656 -0.05239
C 0.03359 24.03466 0.03076
C 1.26586 23.41175 0.00723
C 1.17867 21.98851 0.02712
C 34.36126 21.26605 -0.02213
C 34.34026 19.81075 0.01951
C 1.10663 19.0965 -0.01678
C 1.16042 17.71911 0.01223
C 0.00018 16.95662 0.00648
C 34.40761 15.54452 0.02114
C 1.23315 14.84997 -0.02957
C 1.24304 26.25071 -0.00598
C 1.22174 13.46982 0.00343
C 0.03576 11.28405 -0.02442
C 1.23827 10.59073 -0.00027
C 1.32152 9.16836 -0.00583
C 0.05828 8.46152 -0.02302
C 0.04342 7.03933 -0.02849
C 1.2824 6.38536 0.02931
C 1.22843 4.99517 0.00628
C 34.42153 4.27396 -0.0345
C 34.41597 2.87042 -0.00931
C 1.22661 2.14206 -0.00939
C 1.22367 0.73224 -0.00468
C 34.41933 12.69799 -0.02656
C 27.00929 12.73209 0.02316
C 1.30889 27.69931 -0.00439
C 0.02183 29.87189 0.01831
C 31.89335 21.28237 -0.02383
C 31.95668 19.87283 -0.01429
C 33.14778 19.13726 -0.0136
C 33.12786 17.70131 0.00594
C 31.91638 17.00195 -0.02474
C 31.93501 15.55399 0.00369
C 33.18728 14.80698 0.00455
C 33.21497 13.40881 -0.00644
C 31.92436 12.78122 -0.01839
C 32.00035 11.29598 0.00137
C 33.2731 10.5133 0.00199
C 0.06955 28.49329 -0.01037
C 33.23064 9.1567 0.04381
C 31.97519 7.01549 0.01504
C 33.22393 6.31205 -0.00069
C 33.20022 4.91589 0.04926
C 32.00712 4.20982 -0.03838
C 31.96946 2.86672 0.00349
C 33.19307 2.13225 -0.00323
C 33.1664 0.70638 -0.00841
C 31.95801 0.03812 0.0001
C 0.01525 32.68285 -0.02927
C 1.26594 31.96745 -0.01404
C 1.27475 30.51906 0.01027
C 32.06196 8.43771 0.02806
C 28.26315 13.46966 0.01257
C 28.27695 14.85637 0.00152
C 27.08294 15.63469 -0.00294
C 22.09772 32.68468 -0.04422
C 23.33173 32.03742 0.00654
C 23.36707 30.58538 -0.00703
C 22.13117 29.85866 -0.04076
C 22.04399 28.39225 -0.00652
C 23.32909 27.69574 0.0058
C 23.35249 26.30827 -0.00865
C 22.17734 25.54163 0.00675
C 22.23763 24.13521 -0.00311
C 23.41771 23.41162 0.00742
C 23.41512 21.97977 -0.01594
C 19.61334 34.06811 -0.02957
C 22.14703 21.28951 0.0106
C 23.31982 19.18617 -0.01721
C 23.38304 17.78815 -0.02422
C 22.15824 17.12902 0.01277
C 22.15601 15.6803 0.00096
C 23.45557 14.95256 -0.01527
C 23.32921 13.47105 0.01087
C 22.07872 12.76936 0.00199
C 22.09575 11.33248 0.01511
C 23.27063 10.58921 -0.00478
C 23.32179 9.17435 -0.01662
C 22.02497 8.46076 -0.01185
C 22.128 19.84791 -0.01154
C 22.08932 7.04246 0.01126
C 20.88589 0.7105 -0.00831
C 19.60024 2.81959 -0.017
C 19.63454 28.36943 -0.00289
C 20.86591 27.61173 0.00028
C 20.89354 26.2348 -0.02213
C 19.61919 25.59602 0.03698
C 19.7027 24.13772 -0.00109
C 21.00355 23.49678 -0.00491
C 20.82815 22.01898 0.03338
C 19.68058 21.28138 -0.0258
C 19.6922 19.86921 -0.0331
C 20.86367 19.15377 -0.00316
C 20.84167 17.71084 0.02188
C 20.87143 2.16634 0.00364
C 19.66413 16.9686 -0.01979
C 20.90871 14.91038 -0.01581
C 20.79193 13.46343 0.01452
C 19.59088 12.79812 0.04892
C 19.67546 11.44816 -0.00111
C 20.85629 10.60903 -0.03557
C 20.82369 9.22369 0.03754
C 19.64475 8.52782 0.01739
C 19.65384 7.11814 0.00755
C 20.86123 6.34422 -0.0054
C 20.86771 4.93264 0.00667
C 19.64056 4.2261 0.00143
C 19.66074 15.61796 0.02691
C 3.72214 31.88878 -0.02419
C 23.26767 6.3356 0.01852
C 22.14547 4.23314 0.03046
C 24.5314 7.08825 -0.00285
C 25.77732 6.40001 -0.009
C 25.769 4.89861 -0.01199
C 24.54406 4.24219 -0.00229
C 24.6368 2.82592 -0.00938
C 25.7931 2.11541 -0.0264
C 25.88551 0.68446 -0.01154
C 24.57268 34.04717 0.00684
C 27.05778 32.70099 -0.01052
C 28.31878 31.96671 -0.01679
C 28.2541 30.54838 0.00367
C 24.58351 8.53082 0.01423
C 27.02804 29.82788 0.04306
C 28.24238 27.71336 0.00195
C 28.19267 26.32985 -0.00802
C 27.00205 25.58183 -0.00218
C 27.08965 24.14417 -0.01654
C 28.29152 23.46981 -0.00037
C 28.19264 22.10257 -0.0032
C 26.99834 21.30052 0.00622
C 27.09729 19.8451 -0.02815
C 28.30579 19.19036 -0.00942
C 28.31523 17.89439 0.00487
C 27.05655 17.07409 0.00826
C 27.002 28.36332 0.00996
C 23.37817 4.91958 -0.00381
C 25.76075 9.12873 0.02555
C 24.46045 11.33858 0.00135
C 22.10867 2.84584 0.0296
C 23.32445 2.11869 0.03374
C 23.35795 0.71247 -0.02845
C 22.07042 0.02741 -0.03213
C 24.56301 32.70499 0.02239
C 25.88639 32.02719 0.01153
C 25.81399 30.57943 0.02734
C 24.62697 29.94871 -0.0055
C 24.58766 28.48341 0.01515
C 25.79046 27.72307 -0.00225
C 25.78293 26.30728 0.00071
C 25.77029 10.60337 0.03102
C 24.5841 25.55395 -0.01107
C 25.86778 23.42742 -0.01971
C 25.80718 22.0216 -0.02118
C 24.59252 21.34111 0.00733
C 24.68922 19.92491 -0.00178
C 25.86033 19.18607 0.00768
C 25.79822 17.73831 -0.0276
C 24.58269 17.01611 0.03005
C 24.58561 15.61863 -0.04078
C 25.7926 14.9268 0.02117
C 25.71826 13.45146 0.02737
C 24.49716 12.78953 -0.00498
C 24.57821 24.11362 -0.01586
C 2.4879 32.71986 0.02438
