424
Graphene
C 34.42076 34.01997 0.01295
C 12.25019 25.63371 0.00572
C 12.33022 24.22064 0.03592
C 13.52411 23.45193 0.00406
C 13.51271 22.02121 0.00943
C 12.31599 21.37265 0.02841
C 12.29872 19.89587 -0.01111
C 13.47077 19.1335 -0.01275
C 13.53392 17.70155 0.00985
C 12.2926 17.03481 -0.02245
C 12.27482 15.63963 -0.00428
C 13.5123 26.35924 0.0402
C 13.58426 14.93 0.03101
C 12.28858 12.83935 -0.02689
C 12.30751 11.43496 -0.01046
C 13.54296 10.63218 -0.00891
C 13.54443 9.22335 0.02819
C 12.36591 8.46337 0.00165
C 12.33832 7.01052 -0.02971
C 13.56859 6.30329 0.02894
C 13.5467 4.90597 -0.01789
C 12.28722 4.19665 0.00444
C 12.24206 2.78698 -0.00925
C 13.52665 13.51637 -0.01536
C 13.47158 27.76577 -0.02759
C 12.20779 28.4373 0.03589
C 12.18814 29.88282 -0.00033
C 9.90081 19.96052 -0.01384
C 11.10844 19.25178 0.03693
C 11.11694 17.81007 0.01745
C 9.8757 17.11053 0.00488
C 9.86469 15.63506 -0.01004
C 11.0962 14.86156 -0.02896
C 11.05914 13.44196 -0.00131
C 9.81705 12.79699 -0.01118
C 9.85714 11.41948 -0.014
C 11.08924 10.64188 0.02147
C 11.1213 9.17395 0.00373
C 9.87494 8.57896 -0.00191
C 9.879 7.10618 0.00438
C 11.0399 6.3415 0.01291
C 10.98936 4.8963 0.00093
C 9.70622 4.29107 0.00057
C 9.74956 2.94064 -0.01634
C 10.98226 2.18749 -0.00334
C 11.01335 0.76822 0.02339
C 9.75734 0.106 0.01641
C 12.31388 32.70733 -0.00719
C 13.50556 32.01797 0.01364
C 13.44678 30.64886 -0.01062
C 13.50881 2.11208 0.01877
C 9.8756 21.37805 -0.00482
C 13.53968 0.74478 0.01363
C 14.71909 32.68307 0.00415
C 14.72972 2.78883 0.0351
C 15.96526 2.09362 -0.03113
C 15.91863 0.71098 0.02098
C 14.72477 34.04234 0.01848
C 17.18276 32.6366 -0.00619
C 18.37815 31.96993 -0.02162
C 18.37036 30.51197 0.00889
C 17.14179 29.81993 -0.00481
C 17.09241 28.39624 0.00979
C 18.36521 27.6967 0.01443
C 14.76697 4.23231 0.00422
C 18.41004 26.19308 0.03505
C 17.13092 24.12606 -0.04147
C 18.40125 23.45176 -0.05302
C 18.39849 21.98993 0.00213
C 17.17699 21.26844 -0.00066
C 17.16703 19.898 -0.00289
C 18.40132 19.14616 0.00028
C 18.48649 17.73649 -0.02213
C 17.26306 17.04191 0.03698
C 17.22141 15.59533 -0.00109
C 18.44171 14.88964 -0.00491
C 17.17723 25.52299 -0.02815
C 15.9869 4.96328 0.00798
C 16.00203 6.39594 0.00228
C 14.77265 7.05447 -0.00114
C 15.9496 31.92043 -0.0014
C 15.95859 30.50151 0.02162
C 14.68495 29.9029 0.0076
C 14.68424 28.50505 0.01241
C 15.89389 27.73259 -0.01454
C 15.94606 26.33843 0.01945
C 14.73678 25.61949 0.01416
C 14.68797 24.16322 0.03542
C 15.90401 23.41777 0.02299
C 15.93945 21.94911 0.00244
C 14.67746 21.25744 -0.01717
C 14.7132 19.78686 0.05265
C 15.96038 19.16659 -0.01952
C 15.98898 17.77782 -0.02813
C 14.76754 17.01874 0.00374
C 14.78308 15.64242 0.00052
C 16.05756 14.97342 -0.03682
C 16.00489 13.55028 0.01965
C 14.78634 12.75526 0.02058
C 14.73026 11.36226 -0.01957
C 15.98166 10.69137 -0.0108
C 15.98019 9.24725 -0.00368
C 14.7458 8.42854 -0.02696
C 12.30314 34.0796 -0.02162
C 18.39072 13.5163 0.03338
C 11.11148 22.05139 0.02888
C 9.81245 24.18666 0.00895
C 3.52189 2.19869 -0.01979
C 3.63047 0.80465 0.02784
C 2.41758 0.00823 -0.01977
C 4.92834 32.68164 -0.00561
C 6.10004 31.98119 0.00208
C 6.12013 30.57399 0.01707
C 4.95521 29.86309 0.02769
C 4.93272 28.3392 -0.03291
C 6.14852 27.75397 -0.04999
C 6.18312 26.34056 0.04505
C 2.27867 2.88007 -0.00449
C 4.91562 25.60221 0.03284
C 6.15729 23.43063 0.03189
C 6.18099 22.00477 0.00031
C 4.93267 21.33373 -0.003
C 4.95301 19.88487 0.01402
C 6.18758 19.16379 0.02379
C 6.1516 17.72884 0.00907
C 4.93384 16.98466 0.00643
C 4.90176 15.58828 -0.01509
C 6.19454 14.89591 0.03267
C 6.09561 13.53135 0.02374
C 4.92615 24.19246 -0.04307
C 2.384 4.28875 0.00211
C 3.60505 4.99549 0.0064
C 3.59629 6.46653 -0.00039
C 3.70583 30.56466 -0.02827
C 2.50985 29.80606 0.01078
C 2.49 28.32827 -0.00112
C 3.71821 27.63066 0.03345
C 3.70674 26.27767 0.00748
C 2.51534 25.53878 0.00662
C 2.421 24.15743 -0.0154
C 3.72737 23.47032 -0.01299
C 3.69662 22.03747 -0.00407
C 2.39331 21.34319 0.01138
C 2.4756 19.89009 0.03278
C 3.72467 19.20089 -0.00177
C 3.72121 17.8134 0.04421
C 2.4709 17.08665 0.00088
C 2.46402 15.63431 0.00828
C 3.67695 14.92326 -0.02375
C 3.59932 13.4395 0.00558
C 2.30667 12.77106 -0.0059
C 2.4084 11.29916 -0.01386
C 3.58734 10.65469 -0.02805
C 3.60529 9.26036 0.00081
C 2.37307 8.52516 0.00245
C 2.41005 7.17258 0.02728
C 4.87311 12.74921 0.00402
C 11.09942 23.54236 0.00685
C 4.85171 11.33087 0.0073
C 6.14485 9.32315 0.03828
C 8.57969 13.56475 0.00873
C 7.33577 12.81023 -0.00049
C 7.41335 11.35753 0.00848
C 8.72682 10.67519 -0.01303
C 8.64262 9.27499 -0.01378
C 7.3964 8.59724 0.02635
C 7.31718 7.19627 0.0127
C 8.54176 6.41531 0.01396
C 8.4693 5.00936 0.01849
C 7.23113 4.34733 -0.01142
C 8.63576 14.97138 0.01227
C 7.2774 2.94475 -0.00562
C 8.56728 0.83479 0.00054
C 7.33497 0.02838 0.03007
C 9.78485 32.74522 -0.00095
C 10.98598 32.04555 0.01572
C 10.96884 30.62284 -0.04848
C 9.83164 29.89957 -0.00892
C 9.81693 28.45466 -0.01362
C 11.03661 27.7276 -0.0008
C 11.05308 26.30061 0.0288
C 9.85614 25.62959 0.00393
C 8.55827 2.21165 -0.00494
C 7.37358 15.63633 -0.03337
C 7.42844 17.05303 -0.00966
C 8.67323 17.79317 -0.02929
C 4.92279 8.59755 0.01226
C 4.86722 7.1987 -0.00279
C 6.1354 6.47334 0.01996
C 6.00675 5.0694 -0.03996
C 4.85781 4.32721 0.01465
C 4.79262 2.91268 -0.00074
C 6.08434 2.22676 -0.00518
C 6.15199 0.78601 0.0086
C 4.88698 0.03141 -0.00643
C 7.30931 32.73945 0.017
C 8.57564 32.02042 -0.03113
C 8.57799 30.60524 -0.02566
C 7.34719 29.89454 -0.00094
C 7.33189 28.44561 0.02322
C 8.6454 27.69093 -0.00725
C 8.65096 26.29919 -0.05697
C 7.41455 25.59214 0.01087
C 7.41511 24.12207 -0.01343
C 8.56318 23.39718 0.00988
C 8.60213 22.01227 0.0276
C 7.39468 21.32713 0.01305
C 7.40717 19.89418 -0.00077
C 8.70486 19.26726 0.03368
C 6.14875 10.74278 0.0174
C 17.22627 12.80064 -0.0258
C 17.23206 11.35535 -0.0331
C 18.41245 10.65039 -0.00316
C 30.71133 13.50672 -0.02155
C 29.50881 12.76133 -0.00944
C 29.51583 11.44716 -0.03735
C 30.72936 10.65853 -0.00971
C 30.70002 9.15665 0.01518
C 29.43492 8.49183 0.01908
C 29.48888 7.04133 0.07705
C 30.68185 6.28951 0.0103
C 30.71066 4.89014 0.02108
C 29.46567 4.21816 0.00716
C 30.71161 15.00379 -0.01461
C 29.41765 2.83879 0.00307
C 30.68588 0.62132 0.01713
C 29.52122 33.99208 -0.01694
C 31.95713 32.58402 0.01428
C 33.22735 31.89046 -0.02142
C 33.2784 30.44465 0.0544
C 31.99751 29.76512 0.00026
C 32.02625 28.34469 0.00682
C 33.23992 27.57447 -0.01779
C 33.22131 26.13964 0.03794
C 31.95664 25.56046 0.01927
C 30.64192 2.05025 0.00346
C 29.51035 15.77537 -0.01303
C 29.61804 17.19639 -0.0405
C 30.86234 17.87148 0.01705
C 27.05238 15.5253 0.01094
C 28.33005 14.95902 0.00235
C 28.27227 13.508 0.01495
C 27.06401 12.82725 0.01259
C 27.03256 11.3347 0.01799
C 28.26914 10.64913 0.01699
C 28.24586 9.23946 -0.00416
C 27.01981 8.56477 0.01177
C 27.07485 7.10038 0.04266
C 28.21245 6.33857 0.01324
C 28.25527 4.89675 0.0014
C 27.04033 4.26169 0.00924
C 27.03452 2.81714 0.02326
C 28.16737 2.10884 0.00261
C 28.26071 0.66332 0.03265
C 27.02884 34.00233 -0.02049
C 29.56514 32.59266 -0.01854
C 30.77105 31.86082 -0.01415
C 30.81723 30.4804 -0.03039
C 29.54312 29.78301 0.01836
C 29.58374 28.38654 0.03531
C 30.80974 27.67893 -0.00669
C 30.82887 26.31387 0.0101
C 33.18538 23.39057 0.01574
C 26.97132 17.00477 0.02198
C 33.04406 22.05307 -0.02383
C 33.09327 19.21205 -0.0136
C 1.1973 23.43342 0.00723
C 1.07586 22.03861 0.02712
C 34.27656 21.34853 -0.02213
C 34.29809 19.95158 0.01951
C 1.17575 19.259 -0.01678
C 1.28779 17.83813 0.01223
C 0.05544 17.10088 0.00648
C 34.41627 15.67514 0.02114
C 1.19366 14.87916 -0.02957
C 1.1537 13.49898 0.00343
C 34.42301 24.081 0.03076
C 34.38216 12.78878 -0.02656
C 1.16935 10.60267 -0.00027
C 1.11912 9.12729 -0.00583
C 34.32552 8.47918 -0.02302
C 34.36447 7.09831 -0.02849
C 1.15195 6.41193 0.02931
C 1.146 4.94687 0.00628
C 34.35186 4.1886 -0.0345
C 34.33136 2.81599 -0.00931
C 1.11459 2.14215 -0.00939
C 1.21588 0.67426 -0.00468
C 34.38039 11.35905 -0.02442
C 0.00898 25.4711 -0.05239
C 1.26096 26.20712 -0.00598
C 1.24516 27.60378 -0.00439
C 33.19399 17.80113 0.00594
C 31.97346 17.13437 -0.02474
C 31.97206 15.72247 0.00369
C 33.16962 14.96022 0.00455
C 33.18534 13.53142 -0.00644
C 31.9097 12.84128 -0.01839
C 31.9765 11.32554 0.00137
C 33.15773 10.58044 0.00199
C 33.13429 9.1755 0.04381
C 31.93449 8.42166 0.02806
C 31.93005 7.01595 0.01504
C 33.18672 6.32253 -0.00069
C 33.12249 4.88008 0.04926
C 31.9092 4.16115 -0.03838
C 31.90152 2.78839 0.00349
C 33.1511 2.03011 -0.00323
C 33.15192 0.59781 -0.00841
C 31.9573 33.99118 0.0001
C 0.0065 32.62946 -0.02927
C 1.24041 31.93843 -0.01404
C 1.27355 30.46071 0.01027
C 0.0384 29.70661 0.01831
C 0.06762 28.34872 -0.01037
C 31.7777 19.67415 -0.01429
C 28.41035 27.54462 0.02611
C 27.16664 28.36351 -0.00621
C 27.09114 29.80115 0.00194
C 20.93947 14.88799 0.00742
C 20.86373 13.44353 -0.01594
C 19.64789 12.76402 0.0106
C 19.64367 11.35726 -0.01154
C 20.90735 10.64634 -0.01721
C 20.88476 9.19128 -0.02422
C 19.69695 8.5297 0.01277
C 19.73713 7.08481 0.00096
C 21.0012 6.4629 -0.01527
C 20.92981 4.97845 0.01087
C 19.67145 15.59668 -0.00311
C 19.66112 4.24423 0.00199
C 20.89711 2.13045 -0.00478
C 20.88506 0.72839 -0.01662
C 19.63579 0.03687 -0.01185
C 22.11057 32.64585 0.01126
C 23.3055 31.9638 0.01852
C 23.43028 30.56436 -0.00381
C 22.12747 29.85255 0.03046
C 22.12845 28.43613 0.0296
C 23.41639 27.76027 0.03374
C 23.33435 26.365 -0.02845
C 19.65682 2.87232 0.01511
C 19.71361 17.00745 0.00675
C 20.9215 17.70371 -0.00865
C 20.82882 19.14742 0.0058
C 18.44529 9.2125 0.02188
C 17.19277 8.46002 -0.01979
C 17.2202 7.05732 0.02691
C 18.53792 6.35971 -0.01581
C 18.47951 4.99853 0.01452
C 17.20285 4.28046 0.04892
C 17.22377 2.90069 -0.00111
C 18.44695 2.15334 -0.03557
C 18.47227 0.7642 0.03754
C 17.21216 34.06153 0.01739
C 19.61305 32.6971 0.00755
C 20.84588 31.9564 -0.0054
C 20.83148 30.53111 0.00667
C 19.59388 29.77122 0.00143
C 19.61859 28.3467 -0.017
C 20.89993 27.72293 0.00364
C 20.89869 26.23832 -0.00831
C 19.67138 25.53176 -0.02957
C 19.67556 24.12333 -0.04422
C 20.89178 23.43155 0.00654
C 20.88763 21.9171 -0.00703
C 19.66303 21.2838 -0.04076
C 19.5819 19.87965 -0.00652
C 22.11355 25.54382 -0.03213
C 22.07419 24.23222 0.02239
C 23.1495 23.20432 0.01153
C 23.27337 21.93242 0.02734
C 25.7385 26.33781 -0.01154
C 24.57551 25.64923 0.00684
C 25.92066 17.76171 -0.01052
C 24.69129 17.0093 -0.01679
C 24.56675 15.63667 0.00367
C 25.81722 14.90781 0.04306
C 25.7986 13.48694 0.00996
C 24.57033 12.77031 0.00195
C 24.57491 11.35062 -0.00802
C 25.80458 10.67223 -0.00218
C 25.81492 9.25521 -0.01654
C 24.58093 8.48577 -0.00037
C 24.62901 7.10663 -0.0032
C 25.81566 6.40186 0.00622
C 25.83184 4.98334 -0.02815
C 24.60891 4.2343 -0.00942
C 24.54629 2.84638 0.00487
C 25.74352 2.11501 0.00826
C 25.79831 0.70542 -0.00294
C 24.55667 34.05794 0.00152
C 27.06459 32.67965 0.01257
C 28.26086 31.91693 0.02316
C 28.29432 30.55109 0.04185
C 25.91232 27.76635 -0.0264
C 3.72283 31.96234 -0.01471
C 24.7204 28.44223 -0.00938
C 25.86495 30.49335 -0.01199
C 22.12675 21.14526 -0.0055
C 22.12579 19.7785 0.01515
C 23.28709 19.06815 -0.00225
C 23.36941 17.69283 0.00071
C 22.15358 16.97438 -0.01107
C 22.16693 15.60218 -0.01586
C 23.37208 14.92551 -0.01971
C 23.33678 13.48787 -0.02118
C 22.0836 12.84239 0.00733
C 22.1309 11.34417 -0.00178
C 23.32888 10.62143 0.00768
C 23.33451 9.20937 -0.0276
C 22.15227 8.54825 0.03005
C 22.17432 7.12683 -0.04078
C 23.39571 6.40867 0.02117
C 23.36489 4.95825 0.02737
C 22.15532 4.22586 -0.00498
C 22.13638 2.85674 0.00135
C 23.34539 2.16057 0.03102
C 23.32575 0.71969 0.02555
C 22.10289 0.05633 0.01423
C 24.56715 32.635 -0.00285
C 25.81471 31.93937 -0.009
C 24.62511 29.84272 -0.00229
C 2.49525 32.65958 0.01218
