356
Graphene
C 34.3997 34.06581 0.01295
C 13.56791 32.05767 -0.0108
C 13.38591 30.58194 -0.00368
C 12.34509 30.0513 -0.02696
C 13.00669 14.28752 -0.00114
C 12.54362 13.20533 0.00228
C 12.32327 8.51129 0.00798
C 12.45725 7.18756 0.00422
C 13.50719 6.25344 0.0351
C 12.28124 32.67591 -0.01957
C 13.47903 4.81155 -0.03113
C 12.26567 2.79077 0.01848
C 13.5347 1.99173 -0.00619
C 13.55574 0.59028 -0.02162
C 12.26447 0.02688 0.00889
C 14.80811 32.64336 -0.00481
C 15.97831 31.83933 0.00979
C 16.03197 30.47934 0.01443
C 15.86993 4.93166 0.03505
C 12.20873 4.14147 0.02098
C 14.73412 4.13578 -0.02815
C 9.82418 0.00548 0.02058
C 11.0408 2.02321 -0.03682
C 9.90353 32.66398 -0.02162
C 11.09651 31.98166 0.00415
C 10.99341 30.58555 -0.0014
C 9.80625 29.86783 0.02162
C 9.72002 28.3747 0.0076
C 9.9263 15.69144 0.01241
C 11.13489 15.06013 -0.01454
C 11.13898 13.70512 0.01945
C 11.05712 0.69032 0.01965
C 9.96183 12.9343 0.01416
C 11.10282 10.77356 0.02299
C 11.21164 9.37121 0.00244
C 9.93409 8.57249 -0.01717
C 9.93811 7.04528 0.05265
C 11.11461 6.33231 -0.01952
C 11.02083 4.91683 -0.02813
C 9.80334 4.14671 0.00374
C 9.8391 2.82528 0.00052
C 9.85154 11.37844 0.03542
C 14.74192 2.77367 -0.04147
C 16.04646 2.17265 -0.05302
C 16.04525 0.73379 0.00213
C 19.60541 7.20004 0.00667
C 20.93559 6.37529 0.00143
C 20.79786 4.96628 -0.017
C 19.55152 4.34554 0.00364
C 19.62205 2.88119 -0.00831
C 20.84829 2.11467 -0.02957
C 20.87609 0.70005 -0.04422
C 19.63818 33.97459 0.00654
C 20.98468 9.48697 -0.0054
C 22.04915 32.69732 -0.00703
C 23.29363 30.48353 -0.00652
C 22.11556 29.83163 0.0058
C 22.0355 28.38766 -0.00865
C 23.30744 27.6987 0.00675
C 23.29687 26.19457 -0.00311
C 22.22281 25.20754 0.00742
C 23.24898 23.55085 -0.01594
C 23.22985 22.0429 0.0106
C 23.3487 31.91744 -0.04076
C 21.13633 13.50422 0.00755
C 20.84177 14.85863 0.01739
C 19.63809 15.72494 0.03754
C 14.78004 33.95775 -0.00066
C 17.17811 32.57801 -0.00289
C 18.41364 31.7849 0.00028
C 18.54921 30.37881 -0.02213
C 17.10929 29.97873 0.03698
C 18.48419 15.02124 -0.00109
C 18.58405 6.53148 -0.00491
C 18.28959 5.1083 0.03338
C 17.17673 4.34028 -0.0258
C 17.22936 2.89375 -0.0331
C 18.41494 2.1694 -0.00316
C 18.44494 0.69917 0.02188
C 17.23279 34.0125 -0.01979
C 19.58973 32.59232 0.02691
C 20.8414 31.98396 -0.01581
C 20.90746 30.5742 0.01452
C 19.7911 29.74453 0.04892
C 20.81373 27.82671 -0.00111
C 20.61715 17.4987 -0.03557
C 7.37012 0.02609 0.01363
C 22.15693 20.09426 -0.01154
C 8.56529 0.72414 0.01877
C 7.32627 2.90755 0.00444
C 2.40217 7.16665 -0.00562
C 3.64785 6.52106 -0.00494
C 3.6275 5.11799 0.00054
C 2.45274 4.32351 0.03007
C 2.45377 2.86401 -0.00095
C 3.61072 2.16002 0.01572
C 3.70024 0.6902 -0.04848
C 2.47309 0.04953 -0.00892
C 2.49404 8.57169 -0.01142
C 4.89323 32.60711 -0.01362
C 6.18305 30.45506 0.0288
C 4.89457 29.84545 0.00393
C 4.93836 28.39989 0.00895
C 6.15509 27.75452 0.00685
C 6.18478 26.37247 0.02888
C 5.02724 25.62481 -0.00482
C 5.09065 24.11315 -0.01384
C 6.40466 23.3125 0.03693
C 6.15674 31.95087 -0.0008
C 6.24662 21.88138 0.01745
C 3.6561 9.31851 0.01849
C 2.41891 11.35719 0.0127
C 3.67002 30.5912 -0.05697
C 2.45586 29.84316 0.01087
C 2.4242 28.39397 -0.01343
C 3.70701 27.64725 0.00988
C 3.74827 26.2922 0.0276
C 2.46663 25.61075 0.01305
C 2.47447 24.18091 -0.00077
C 3.7506 23.50476 0.03368
C 3.64869 10.6327 0.01396
C 3.74636 22.04653 -0.02929
C 2.37226 19.88814 -0.03337
C 3.62769 19.20245 0.01227
C 3.63054 17.81291 0.00873
C 2.44109 17.05931 -0.00049
C 2.44324 15.64961 0.00848
C 3.75264 14.95666 -0.01303
C 3.67236 13.51868 -0.01378
C 2.43219 12.87414 0.02635
C 2.40084 21.32079 -0.00966
C 4.93754 21.30079 0.00488
C 4.82548 19.9344 -0.01004
C 6.10938 19.23851 -0.02896
C 8.65572 27.86477 0.00406
C 7.39345 25.64225 0.00943
C 7.27871 24.45002 0.02841
C 7.332 20.05137 -0.01111
C 8.65545 17.60416 -0.01275
C 7.37535 17.01876 0.00985
C 7.39386 15.6235 -0.02245
C 8.67354 14.9406 -0.00428
C 7.33511 28.43732 0.03592
C 8.71064 13.57045 0.03101
C 7.42717 11.40448 -0.02689
C 8.65992 10.70132 -0.01046
C 8.68703 9.2316 -0.00891
C 7.38341 8.59023 0.02819
C 7.3447 7.08043 0.00165
C 8.61503 6.3539 -0.02971
C 8.60099 4.92707 0.02894
C 7.31864 4.29223 -0.01789
C 7.44345 12.80178 -0.01536
C 7.39992 29.80004 0.00572
C 8.59251 30.58638 0.0402
C 8.62226 31.98544 -0.02759
C 6.12057 17.81858 -0.00131
C 4.87097 17.0124 -0.01118
C 4.92337 15.60424 -0.014
C 6.15558 14.87781 0.02147
C 6.16088 13.47915 0.00373
C 4.96186 12.80168 -0.00191
C 4.97382 11.32923 0.00438
C 6.18685 10.71104 0.01291
C 6.1273 9.26356 0.00093
C 4.8801 8.59045 0.00057
C 4.86095 7.18539 -0.01634
C 6.12328 6.4346 -0.00334
C 6.0614 5.0147 0.02339
C 4.82884 4.29089 0.01641
C 4.89536 2.8171 -0.00719
C 6.09928 2.14116 0.01364
C 6.13343 0.70937 -0.01062
C 4.89078 33.99782 -0.00033
C 7.33701 32.67806 0.03589
C 8.54404 2.22746 -0.00925
C 23.26414 19.25509 -0.01721
C 23.1422 17.79934 -0.02422
C 21.97043 17.00952 0.01277
C 31.97221 32.76156 0.01713
C 33.25063 31.99871 -0.01694
C 33.18685 30.58996 0.01428
C 31.96629 29.82983 -0.02142
C 32.01245 28.39805 0.0544
C 33.19687 27.67709 0.00026
C 33.21647 26.20629 0.00682
C 31.99752 25.56688 -0.01779
C 29.43755 0.0323 0.00346
C 32.04449 24.13982 0.03794
C 33.12076 22.00212 0.01574
C 31.8554 21.29511 -0.02383
C 31.85094 19.8973 -0.01429
C 33.11816 19.19407 -0.0136
C 33.16431 17.79871 0.00594
C 31.83225 17.0703 -0.02474
C 31.90043 15.61825 0.00369
C 33.17569 14.92976 0.00455
C 33.24483 23.3953 0.01927
C 33.20668 13.53802 -0.00644
C 30.78579 0.72679 0.00307
C 29.5258 2.78777 0.02108
C 30.6391 21.98679 -0.01415
C 29.39375 21.32977 -0.03039
C 29.41374 19.87657 0.01836
C 30.58754 19.20303 0.03531
C 30.67123 17.78903 -0.00669
C 29.40586 17.08766 0.0101
C 29.46279 15.6533 0.01705
C 30.66481 14.88934 -0.0405
C 30.75743 2.15248 0.00716
C 30.75676 13.44013 -0.01303
C 29.45357 11.37762 -0.02155
C 30.72212 10.59428 -0.00944
C 30.73392 9.20601 -0.03735
C 29.52454 8.47753 -0.00971
C 29.47597 6.99889 0.01518
C 30.76366 6.34777 0.01908
C 30.77942 4.94074 0.07705
C 29.51112 4.1973 0.0103
C 29.46791 12.78478 -0.01461
C 31.96263 12.7788 -0.01839
C 32.0243 11.29056 0.00137
C 33.17154 10.63464 0.00199
C 1.19482 19.23119 -0.01678
C 1.19321 17.74526 0.01223
C 34.43041 17.0369 0.00648
C 34.41247 15.66953 0.02114
C 1.23185 14.9619 -0.02957
C 1.18314 13.54127 0.00343
C 34.35346 12.77082 -0.02656
C 34.42338 11.35646 -0.02442
C 34.37075 19.92502 0.01951
C 1.14748 10.65621 -0.00027
C 34.42532 8.50576 -0.02302
C 0.00852 7.09642 -0.02849
C 1.26933 6.43641 0.02931
C 1.17722 5.02934 0.00628
C 34.37867 4.25909 -0.0345
C 0.01174 2.91264 -0.00931
C 1.18607 2.13636 -0.00939
C 1.25308 0.70536 -0.00468
C 1.195 9.21701 -0.00583
C 34.33451 21.3305 -0.02213
C 1.15744 21.97868 0.02712
C 1.23323 23.42629 0.00723
C 33.21589 9.26831 0.04381
C 31.99427 8.4843 0.02806
C 32.00355 7.10837 0.01504
C 33.23591 6.3531 -0.00069
C 33.21131 4.9844 0.04926
C 31.97696 4.22318 -0.03838
C 31.99557 2.87665 0.00349
C 33.1904 2.15974 -0.00323
C 33.23036 0.74099 -0.00841
C 31.97098 0.05976 0.0001
C 0.01347 32.68344 -0.02927
C 1.26953 31.99601 -0.01404
C 1.2385 30.5649 0.01027
C 34.38594 29.80824 0.01831
C 34.36119 28.41639 -0.01037
C 1.22838 27.64326 -0.00439
C 1.2787 26.26101 -0.00598
C 0.04193 25.62229 -0.05239
C 34.4166 24.14683 0.03076
C 30.68711 23.42264 -0.01854
C 29.45877 24.12249 -0.02049
C 29.59541 25.59816 0.03265
C 30.81435 26.38268 0.00261
C 24.60062 25.55909 -0.01107
C 24.57562 24.10107 -0.01586
C 25.74762 23.47758 -0.01971
C 25.71272 22.0889 -0.02118
C 24.47889 21.4366 0.00733
C 24.53177 19.95512 -0.00178
C 25.72725 19.23297 0.00768
C 25.69999 17.81399 -0.0276
C 25.84614 26.23351 0.00071
C 24.41377 17.09794 0.03005
C 25.80528 14.86556 0.02117
C 25.76843 13.457 0.02737
C 24.51967 12.7239 -0.00498
C 24.62236 11.32096 0.00135
C 25.83948 10.58867 0.03102
C 25.83837 9.12514 0.02555
C 24.63887 8.44648 0.01423
C 24.60406 7.0007 -0.00285
C 24.51003 15.59467 -0.04078
C 25.86259 27.66239 -0.00225
C 24.61325 28.32159 0.01515
C 24.5896 29.81694 -0.0055
C 22.06205 15.56692 0.00096
C 23.24621 14.86323 -0.01527
C 23.22786 13.33304 0.01087
C 22.01599 12.51388 0.00199
C 21.9961 11.0471 0.01511
C 23.36044 10.55312 -0.00478
C 23.37728 9.16466 -0.01662
C 22.10636 8.64897 -0.01185
C 22.13333 7.1525 0.01126
C 23.32406 6.41083 0.01852
C 23.30142 4.9474 -0.00381
C 22.05846 4.28563 0.03046
C 22.04986 2.87815 0.0296
C 23.25379 2.16828 0.03374
C 23.33798 0.70991 -0.02845
C 22.12188 34.07616 -0.03213
C 24.52993 32.67894 0.02239
C 25.84852 31.943 0.01153
C 25.86513 30.49074 0.02734
C 25.81459 6.32366 -0.009
C 3.66428 31.95385 -0.00725
C 25.77246 4.88984 -0.01199
C 24.57117 2.81319 -0.00938
C 27.05209 11.4004 0.04185
C 28.25898 10.62234 0.00194
C 28.24447 9.16802 -0.00621
C 27.07168 8.44693 0.02611
C 27.02126 7.01271 0.02198
C 28.28842 6.38208 0.01094
C 28.30064 4.96007 0.00235
C 26.99721 4.25842 0.01495
C 27.01826 12.76882 0.02316
C 27.0156 2.81395 0.01259
C 28.29556 0.72791 0.01699
C 27.0199 0.02404 -0.00416
C 29.41939 32.7347 0.01177
C 30.7465 32.00371 0.04266
C 30.7554 30.54095 0.01324
C 29.50662 29.83029 0.0014
C 29.51364 28.42204 0.00924
C 30.81941 27.72748 0.02326
C 28.24576 2.11516 0.01799
C 28.26159 13.51135 0.01257
C 28.27031 14.91866 0.00152
C 27.01714 15.62816 -0.00294
C 25.75749 2.10434 -0.0264
C 25.78475 0.68797 -0.01154
C 24.53906 34.03292 0.00684
C 27.02516 32.71505 -0.01052
C 28.23032 32.01279 -0.01679
C 28.29157 30.53192 0.00367
C 27.11233 29.83045 0.04306
C 27.09181 28.36363 0.00996
C 28.32769 27.71734 0.00195
C 28.27893 26.3375 -0.00802
C 27.14094 25.6013 -0.00218
C 26.92941 24.11962 -0.01654
C 28.26859 23.44934 -0.00037
C 28.15527 22.07611 -0.0032
C 26.94935 21.36806 0.00622
C 26.98089 19.93905 -0.02815
C 28.15319 19.20863 -0.00942
C 28.19387 17.79546 0.00487
C 26.97687 17.07276 0.00826
C 24.5018 4.23886 -0.00229
C 2.44435 32.7337 0.02322
