350
Graphene
C 0.00567 0.07252 0.01295
C 13.56688 14.94639 0.00798
C 13.5186 13.50605 0.00422
C 12.30131 12.78736 0.0351
C 12.3531 11.35729 -0.03113
C 12.32297 8.44912 0.02098
C 12.28361 7.30772 0.01848
C 12.21543 4.1657 -0.00619
C 12.29879 2.81416 -0.02162
C 13.51305 2.07315 0.00889
C 13.53621 0.55641 -0.00481
C 12.30476 0.06523 0.00979
C 16.14592 19.08922 0.01443
C 16.02418 17.78832 0.03505
C 14.77599 17.09966 -0.02815
C 14.7326 15.64405 -0.04147
C 16.016 14.82179 -0.05302
C 15.89783 13.37672 0.00213
C 12.28895 15.5303 0.00228
C 12.33375 16.95478 -0.00114
C 13.49084 17.65914 -0.02696
C 9.82387 34.06232 -0.00368
C 10.95685 19.11573 0.01241
C 11.06107 17.78709 -0.01454
C 9.80761 17.10624 0.01945
C 9.8299 15.66532 0.01416
C 11.05973 14.9373 0.03542
C 11.0551 13.51918 0.02299
C 9.87834 12.8097 0.00244
C 9.84016 11.39613 -0.01717
C 14.81574 12.84103 -0.00066
C 11.11343 10.69951 0.05265
C 9.8554 8.62073 -0.02813
C 9.81653 7.18486 0.00374
C 11.1165 6.46249 0.00052
C 11.09546 4.9233 -0.03682
C 9.88807 4.21361 0.01965
C 9.87532 2.85004 0.02058
C 11.12623 2.09198 -0.01957
C 11.09494 0.61119 -0.0108
C 11.12619 9.29805 -0.01952
C 14.68887 2.66763 -0.00289
C 15.95082 2.24795 0.00028
C 15.96546 0.51253 -0.02213
C 21.03057 13.52232 0.00364
C 19.73505 2.86843 -0.00831
C 20.94007 2.2119 -0.02957
C 20.879 0.79068 -0.04422
C 19.68035 34.07296 0.00654
C 22.13329 32.58944 -0.00703
C 23.35483 31.94512 -0.04076
C 23.37353 30.53009 -0.00652
C 20.93314 14.87544 -0.017
C 22.0477 29.79336 0.0058
C 23.27856 27.70648 0.00675
C 23.41381 26.27675 -0.00311
C 22.2494 25.43966 0.00742
C 22.16039 24.23899 -0.01594
C 23.34057 23.41512 0.0106
C 23.41617 21.93317 -0.01154
C 22.17442 21.28899 -0.01721
C 22.05832 19.88499 -0.02422
C 22.12182 28.36629 -0.00865
C 9.93836 19.66287 0.0076
C 19.7027 15.61397 0.00143
C 20.8534 17.79813 -0.0054
C 14.75538 0.05391 0.03698
C 18.30474 19.17182 -0.00109
C 18.37246 17.82743 -0.00491
C 17.20961 17.01527 0.03338
C 17.17962 15.64111 -0.0258
C 18.49592 14.83612 -0.0331
C 18.46447 13.47633 -0.00316
C 17.22781 2.80045 0.02188
C 19.66524 17.04208 0.00667
C 18.48695 2.31271 -0.01979
C 17.26431 0.08331 -0.01581
C 19.69004 32.70032 0.01452
C 20.75739 31.85144 0.04892
C 20.94531 30.512 -0.00111
C 20.87924 21.94578 -0.03557
C 19.8154 21.36771 0.03754
C 19.47126 19.94678 0.01739
C 20.81632 19.20345 0.00755
C 18.41011 0.6337 0.02691
C 9.61005 32.66264 0.02162
C 7.34178 0.02979 -0.0014
C 8.6487 0.67829 0.00415
C 2.45856 7.06325 -0.04848
C 3.66373 6.35712 -0.00892
C 3.67917 4.94558 -0.01362
C 2.45776 4.17413 -0.0008
C 2.44138 2.81743 0.0288
C 3.70652 2.15123 0.00393
C 3.70237 0.76266 0.00895
C 2.45012 0.07712 0.00685
C 2.50267 8.47758 0.01572
C 4.89696 32.67635 0.02888
C 6.19476 30.49399 -0.01384
C 4.83146 29.85373 0.03693
C 4.9171 28.40012 0.01745
C 6.12015 27.63042 0.00488
C 6.02162 26.44668 -0.01004
C 4.86028 25.56296 -0.02896
C 4.91449 24.14673 -0.00131
C 6.10237 23.55388 -0.01118
C 6.14161 31.92523 -0.00482
C 6.23116 22.11586 -0.014
C 3.70704 9.22973 -0.00095
C 2.5106 11.34769 0.00054
C 3.65212 30.59966 -0.00077
C 2.47218 29.81028 0.03368
C 2.40616 28.39635 -0.02929
C 3.64164 27.6732 -0.00966
C 3.64093 26.31348 -0.03337
C 2.47835 25.53467 0.01227
C 2.48099 24.10485 0.00873
C 3.69608 23.41323 -0.00049
C 3.78771 10.64181 0.03007
C 3.638 22.00184 0.00848
C 2.34992 19.84369 -0.01378
C 3.59071 19.25778 0.02635
C 3.71335 17.77391 0.0127
C 2.5204 17.03859 0.01396
C 2.46236 15.57311 0.01849
C 3.69731 14.87755 -0.01142
C 3.71431 13.47056 -0.00562
C 2.47591 12.77693 -0.00494
C 2.31349 21.24646 -0.01303
C 23.2807 19.23439 0.01277
C 4.87241 21.32757 0.02147
C 6.12122 19.20155 -0.00191
C 7.42925 19.98717 0.00985
C 8.62349 19.17267 -0.02245
C 8.60678 17.77878 -0.00428
C 7.39499 17.1069 0.03101
C 7.38789 15.70779 -0.01536
C 8.60346 14.92855 -0.02689
C 8.58384 13.41984 -0.01046
C 7.3515 12.75723 -0.00891
C 7.42626 21.314 -0.01275
C 7.38277 11.37233 0.02819
C 8.6039 9.29778 -0.02971
C 7.38116 8.62961 0.02894
C 7.38957 7.13713 -0.01789
C 8.64137 6.39213 0.00444
C 8.69759 4.9611 -0.00925
C 7.41169 4.29131 0.01877
C 7.33578 2.74636 0.01363
C 8.61002 2.1084 -0.02162
C 8.60597 10.67902 0.00165
C 4.86197 19.88016 0.00373
C 7.33526 29.79359 -0.01111
C 7.34665 32.67275 0.00943
C 6.11988 17.81173 0.00438
C 4.97159 17.03799 0.01291
C 4.90887 15.62746 0.00093
C 6.14934 14.96848 0.00057
C 6.18946 13.50672 -0.01634
C 4.91057 12.77861 -0.00334
C 4.97429 11.36952 0.02339
C 6.18403 10.70138 0.01641
C 8.63336 32.03435 0.02841
C 6.11442 9.33449 -0.00719
C 4.92263 7.09554 -0.01062
C 6.1715 6.4605 -0.00033
C 6.1872 5.04576 0.03589
C 4.92966 4.37649 -0.02759
C 4.87454 2.95923 0.0402
C 6.0713 2.18911 0.00572
C 6.13383 0.72053 0.03592
C 4.89613 34.06008 0.00406
C 4.96019 8.56373 0.01364
C 23.37096 17.80928 0.00096
C 22.13972 17.02012 -0.01527
C 22.09807 15.67004 0.01087
C 33.1942 32.01845 -0.01694
C 33.16642 30.56723 0.01428
C 31.92014 29.83698 -0.02142
C 31.89834 28.41116 0.0544
C 33.16805 27.65261 0.00026
C 33.20198 26.25677 0.00682
C 31.91947 25.62577 -0.01779
C 31.95584 24.1573 0.03794
C 32.01545 32.71167 0.01713
C 33.18305 23.41987 0.01927
C 31.91778 21.30206 -0.02383
C 31.94811 19.90531 -0.01429
C 33.19325 19.19423 -0.0136
C 33.15876 17.77543 0.00594
C 31.87799 17.02043 -0.02474
C 31.89431 15.64155 0.00369
C 33.14022 14.8964 0.00455
C 33.20195 13.49493 -0.00644
C 33.17096 22.01532 0.01574
C 32.0276 12.82957 -0.01839
C 29.53864 34.00858 0.00346
C 30.7603 2.09603 0.00716
C 29.52416 21.31796 -0.03039
C 29.52358 19.91832 0.01836
C 30.75591 19.19838 0.03531
C 30.66525 17.76591 -0.00669
C 29.49507 17.04383 0.0101
C 29.48891 15.66567 0.01705
C 30.65934 14.95641 -0.0405
C 30.78929 13.53411 -0.01303
C 30.73233 0.65065 0.00307
C 29.62115 12.7428 -0.01461
C 30.75812 10.70754 -0.00944
C 30.74687 9.21759 -0.03735
C 29.54946 8.53493 -0.00971
C 29.52355 7.11082 0.01518
C 30.73172 6.38754 0.01908
C 30.72669 4.99537 0.07705
C 29.56353 4.29856 0.0103
C 29.5337 2.74192 0.02108
C 29.53143 11.33275 -0.02155
C 30.79326 22.02344 -0.01415
C 31.96909 11.44681 0.00137
C 33.25099 9.15461 0.04381
C 1.1614 19.10985 -0.01678
C 1.25196 17.6878 0.01223
C 34.36049 17.0368 0.00648
C 34.36289 15.58959 0.02114
C 1.18254 14.92317 -0.02957
C 1.194 13.47091 0.00343
C 34.41945 12.79704 -0.02656
C 34.41388 11.30038 -0.02442
C 0.00974 19.89682 0.01951
C 1.2578 10.68845 -0.00027
C 0.09008 8.49926 -0.02302
C 0.03946 7.04726 -0.02849
C 1.23498 6.34285 0.02931
C 1.24799 4.92795 0.00628
C 34.41524 4.24262 -0.0345
C 34.43307 2.81286 -0.00931
C 1.20821 2.13016 -0.00939
C 1.20081 0.77191 -0.00468
C 1.26651 9.31807 -0.00583
C 33.17397 10.62813 0.00199
C 34.41131 21.31407 -0.02213
C 1.20866 23.472 0.00723
C 31.94282 8.53607 0.02806
C 31.98896 7.08569 0.01504
C 33.21645 6.40594 -0.00069
C 33.21881 4.96666 0.04926
C 31.94453 4.27565 -0.03838
C 31.95317 2.82244 0.00349
C 33.21322 2.17793 -0.00323
C 33.2242 0.7922 -0.00841
C 1.19785 21.99695 0.02712
C 31.97504 0.00647 0.0001
C 1.21254 31.94916 -0.01404
C 1.25646 30.53882 0.01027
C 34.39731 29.81601 0.01831
C 34.3631 28.35331 -0.01037
C 1.19801 27.68051 -0.00439
C 1.18882 26.20774 -0.00598
C 34.39992 25.53565 -0.05239
C 34.43256 24.15204 0.03076
C 0.00025 32.73663 -0.02927
C 3.64484 32.00976 0.01305
C 30.76958 23.42855 -0.01854
C 29.45517 25.50958 0.03265
C 25.76694 23.44557 -0.01971
C 25.85764 22.03066 -0.02118
C 24.64411 21.25004 0.00733
C 24.54553 19.90423 -0.00178
C 25.83494 19.21058 0.00768
C 25.8039 17.7828 -0.0276
C 24.57516 17.10726 0.03005
C 24.58035 15.69311 -0.04078
C 24.53893 24.16266 -0.01586
C 25.84451 14.98597 0.02117
C 24.57045 12.76461 -0.00498
C 24.6231 11.34415 0.00135
C 25.79874 10.61978 0.03102
C 25.85285 9.21249 0.02555
C 24.58177 8.5225 0.01423
C 24.56524 7.14713 -0.00285
C 25.85866 6.30404 -0.009
C 25.81746 4.92252 -0.01199
C 25.80231 13.55008 0.02737
C 24.59272 4.24934 -0.00229
C 24.62018 25.53622 -0.01107
C 25.73092 27.64226 -0.00225
C 23.29918 14.91031 0.00199
C 23.41171 13.49743 0.01511
C 22.07789 12.68403 -0.00478
C 22.13543 11.34167 -0.01662
C 23.3233 10.57772 -0.01185
C 23.40595 9.23203 0.01126
C 23.47742 6.42728 0.01852
C 23.21459 5.03351 -0.00381
C 25.82295 26.21846 0.00071
C 22.12755 4.18081 0.03046
C 23.36416 2.09449 0.03374
C 23.37812 0.66929 -0.02845
C 22.15959 34.01668 -0.03213
C 24.5631 32.61303 0.02239
C 25.69174 31.92697 0.01153
C 25.75575 30.52083 0.02734
C 24.54813 29.77226 -0.0055
C 24.52793 28.35879 0.01515
C 22.16311 2.84094 0.0296
C 29.51591 24.13962 -0.02049
C 24.46747 2.85572 -0.00938
C 25.81143 0.63877 -0.01154
C 28.29725 10.65353 0.00194
C 28.29779 9.19918 -0.00621
C 27.0819 8.4289 0.02611
C 27.12229 7.01365 0.02198
C 28.31931 6.35856 0.01094
C 28.28297 4.93371 0.00235
C 27.10349 4.17411 0.01495
C 27.07593 2.74147 0.01259
C 27.04348 11.39888 0.04185
C 28.33118 2.04633 0.01799
C 27.12284 34.01856 -0.00416
C 29.5597 32.60022 0.01177
C 30.72676 31.95851 0.04266
C 30.73184 30.52724 0.01324
C 29.49649 29.82858 0.0014
C 29.53179 28.42252 0.00924
C 30.69885 27.69676 0.02326
C 30.69218 26.26969 0.00261
C 28.37767 0.64854 0.01699
C 25.82539 2.10581 -0.0264
C 27.10833 12.85651 0.02316
C 28.34294 14.94948 0.00152
C 24.62962 34.05775 0.00684
C 27.04549 32.64884 -0.01052
C 28.23342 31.96598 -0.01679
C 28.26454 30.5513 0.00367
C 26.95698 29.84488 0.04306
C 27.01367 28.42412 0.00996
C 28.25968 27.73549 0.00195
C 28.26072 26.28356 -0.00802
C 28.3467 13.5 0.01257
C 27.03878 25.61421 -0.00218
C 28.25546 23.45952 -0.00037
C 28.30062 22.01461 -0.0032
C 27.13201 21.31233 0.00622
C 27.05953 19.89682 -0.02815
C 28.25774 19.12824 -0.00942
C 28.27801 17.75295 0.00487
C 27.05921 17.07599 0.00826
C 27.17177 15.66997 -0.00294
C 27.00341 24.20257 -0.01654
C 2.46154 32.70044 0.0276
