381
Graphene
C 34.37566 0.11373 0.01295
C 12.28264 12.83801 -0.01454
C 12.30537 11.46077 0.01945
C 13.54773 10.69828 0.01416
C 13.5024 9.2309 0.03542
C 12.29891 8.53681 0.02299
C 12.33028 7.10967 0.00244
C 13.53609 6.40431 -0.01717
C 13.58055 5.01933 0.05265
C 12.31294 4.29078 -0.01952
C 12.32028 2.83682 -0.02813
C 13.57401 2.01338 0.00374
C 13.54837 0.48096 0.00052
C 12.26967 33.96804 -0.03682
C 14.75378 32.49465 0.01965
C 16.01072 32.04042 0.02058
C 16.06535 17.5471 -0.01957
C 14.77162 17.09838 -0.0108
C 14.71068 15.68376 -0.00368
C 15.99789 14.87691 -0.02696
C 13.49617 13.49352 0.01241
C 13.49568 15.04929 0.0076
C 12.28434 15.57878 0.02162
C 12.33634 17.06226 -0.0014
C 9.85023 17.11268 -0.01275
C 9.83556 15.7039 0.00985
C 11.04032 14.94215 -0.02245
C 10.96204 13.50522 -0.00428
C 9.72399 12.8169 0.03101
C 9.78212 11.38273 -0.01536
C 11.06709 10.7252 -0.02689
C 11.085 9.28459 -0.01046
C 9.86463 8.51815 -0.00891
C 15.92711 13.49886 -0.00114
C 9.85539 7.11163 0.02819
C 11.10041 5.00843 -0.02971
C 9.90843 4.27012 0.02894
C 9.8515 2.86259 -0.01789
C 11.10734 2.13457 0.00444
C 11.06786 0.67101 -0.00925
C 9.76904 0.16588 0.01877
C 12.14967 32.52304 0.01363
C 13.32066 31.83345 -0.02162
C 13.56257 17.69605 0.00415
C 11.1375 6.42548 0.00165
C 14.75374 12.75941 0.00228
C 14.81605 11.37181 0.00798
C 15.97796 10.63654 0.00422
C 17.17394 7.0951 -0.0331
C 18.36861 6.32733 -0.00316
C 18.33437 4.92738 0.02188
C 17.147 4.27553 -0.01979
C 17.22838 2.76335 0.02691
C 18.44753 2.11841 -0.01581
C 18.45029 0.74002 0.01452
C 17.25775 0.04396 0.04892
C 19.64423 32.64246 -0.00111
C 17.25103 8.45285 -0.0258
C 20.84875 31.95932 -0.03557
C 19.60054 29.97271 0.01739
C 21.05455 27.53532 0.00755
C 20.9249 26.31566 -0.0054
C 20.93515 23.3329 0.00667
C 20.44244 22.16759 0.00143
C 19.75203 21.11889 -0.017
C 19.44267 19.79086 0.00364
C 20.73108 19.06689 -0.00831
C 20.73027 17.67925 -0.02957
C 20.84227 30.5698 0.03754
C 11.12428 17.819 -0.01111
C 18.49559 9.14833 0.03338
C 17.23267 11.29039 -0.00109
C 15.99129 9.17713 0.0351
C 14.73552 8.52788 -0.03113
C 14.77722 7.1524 0.02098
C 15.99908 6.37246 0.01848
C 15.95306 4.93348 -0.00619
C 14.77212 4.20442 -0.02162
C 14.73173 2.75777 0.00889
C 15.9938 2.06014 -0.00481
C 15.99675 0.65977 0.00979
C 18.4494 10.53685 -0.00491
C 14.72181 33.93266 0.01443
C 18.34286 32.01977 -0.02815
C 18.57153 30.53243 -0.04147
C 18.1755 19.01691 -0.05302
C 18.38282 17.63381 0.00213
C 17.20094 16.85041 -0.00066
C 17.20938 15.46168 -0.00289
C 18.50054 14.8292 0.00028
C 18.43531 13.43743 -0.02213
C 17.20897 12.71872 0.03698
C 17.19165 32.73499 0.03505
C 10.91649 19.25157 0.02841
C 9.91758 19.97944 0.00943
C 10.73872 31.94482 0.00406
C 3.65138 4.95682 -0.00725
C 2.42173 4.26121 -0.05697
C 2.35859 2.86657 0.01087
C 3.64235 2.19174 -0.01343
C 3.6102 0.68024 0.00988
C 2.38242 0.04222 0.0276
C 4.87225 32.67752 0.01305
C 6.14078 31.98222 -0.00077
C 6.23277 30.57149 0.03368
C 3.62492 6.47337 0.02322
C 4.988 29.86926 -0.02929
C 6.18979 27.85161 -0.03337
C 6.11727 26.3399 0.01227
C 4.89983 25.56031 0.00873
C 4.85171 24.23177 -0.00049
C 6.10828 23.44923 0.00848
C 6.14967 22.04192 -0.01303
C 4.96358 21.33977 -0.01378
C 4.89076 19.97436 0.02635
C 6.24943 19.27232 0.0127
C 4.90566 28.50426 -0.00966
C 6.14977 17.91138 0.01396
C 2.39932 7.07123 -0.00094
C 3.65548 9.28524 -0.03113
C 3.65548 30.51093 0.02379
C 2.45818 29.88186 0.00907
C 2.40319 28.39082 0.00643
C 3.62299 27.70247 -0.01509
C 3.63227 26.32139 0.03267
C 2.45691 25.62869 0.02374
C 2.40314 24.21065 0.00402
C 3.71504 23.50277 0.0073
C 3.67566 22.07088 0.0174
C 2.47926 8.5602 -0.02566
C 2.50024 21.35463 0.03828
C 3.67125 19.2044 -0.00279
C 3.71626 17.85888 0.01996
C 2.48859 17.09562 -0.03996
C 2.46506 15.74025 0.01465
C 3.65237 14.98378 -0.00074
C 3.65977 13.53086 -0.00518
C 2.41947 12.8418 0.0086
C 2.37047 11.41396 -0.00643
C 3.63013 10.69836 0.017
C 2.46494 19.92132 0.01226
C 19.64399 16.92633 -0.04422
C 4.9508 17.14876 0.01849
C 6.18726 14.92239 -0.00562
C 8.55441 19.27079 0.02147
C 8.70932 17.82163 0.00373
C 7.43277 17.1372 -0.00191
C 7.36298 15.75335 0.00438
C 8.60274 14.92091 0.01291
C 8.55809 13.60759 0.00093
C 7.36574 12.9069 0.00057
C 7.31577 11.44939 -0.01634
C 8.57302 10.7196 -0.00334
C 7.40084 20.05599 -0.014
C 8.611 9.29877 0.02339
C 7.4712 7.11266 -0.00719
C 8.65723 6.41983 0.01364
C 8.64554 5.0025 -0.01062
C 7.43808 4.34045 -0.00033
C 7.38204 2.89982 0.03589
C 8.57768 2.19591 -0.02759
C 8.56552 0.82995 0.0402
C 7.29166 0.08741 0.00572
C 9.70475 32.82977 0.03592
C 7.39518 8.59648 0.01641
C 4.9249 15.65848 -0.01142
C 7.3666 21.43053 -0.01118
C 7.36167 24.17911 -0.02896
C 6.08993 13.5337 -0.00494
C 4.90094 12.82142 0.00054
C 4.91805 11.41848 0.03007
C 6.09605 10.72248 -0.00095
C 6.07422 9.32787 0.01572
C 4.89458 8.53628 -0.04848
C 4.91842 7.09451 -0.00892
C 6.22257 6.41377 -0.01362
C 6.10215 5.00558 -0.0008
C 8.58569 22.05295 -0.00131
C 4.84429 4.28909 0.0288
C 6.11653 2.29279 0.00895
C 6.07806 0.78535 0.00685
C 4.87666 0.03862 0.02888
C 7.26504 32.77378 -0.00482
C 8.51268 32.11657 -0.01384
C 8.68497 30.80008 0.03693
C 7.51627 29.88393 0.01745
C 7.52199 28.45735 0.00488
C 7.30145 25.39821 -0.01004
C 4.89075 2.88775 0.00393
C 3.63713 31.9822 0.01402
C 19.6548 15.52863 0.00654
C 20.87752 13.36686 -0.04076
C 29.39221 2.87066 0.02108
C 30.63211 2.21411 0.00716
C 30.63361 0.74778 0.00307
C 29.47272 0.01893 0.00346
C 31.9608 32.72572 0.01713
C 33.16219 31.95903 -0.01694
C 33.1476 30.51827 0.01428
C 31.90769 29.81151 -0.02142
C 31.94826 28.40276 0.0544
C 33.2107 27.65896 0.00026
C 33.15992 26.24528 0.00682
C 31.906 25.50364 -0.01779
C 31.8695 24.16648 0.03794
C 33.15492 23.44624 0.01927
C 33.12874 21.98857 0.01574
C 31.97135 21.26731 -0.02383
C 31.96915 19.88583 -0.01429
C 33.17493 19.16993 -0.0136
C 33.18633 17.7676 0.00594
C 29.38403 4.33908 0.0103
C 30.62014 4.94823 0.07705
C 30.70813 6.40728 0.01908
C 29.46343 7.09405 0.01518
C 30.67998 30.55805 0.00924
C 29.48467 29.90538 0.02326
C 29.45305 28.49072 0.00261
C 30.65671 27.71386 0.03265
C 30.72394 26.22971 -0.02049
C 29.45784 25.6385 -0.01854
C 29.51022 24.17882 -0.01415
C 30.64885 23.36593 -0.03039
C 30.62124 21.96158 0.01836
C 31.85396 17.17325 -0.02474
C 30.74023 19.30153 0.03531
C 29.50068 16.96543 0.0101
C 29.61388 15.5445 0.01705
C 30.87436 14.86717 -0.0405
C 30.78332 13.48904 -0.01303
C 29.54752 12.80088 -0.01461
C 29.53059 11.36712 -0.02155
C 30.82726 10.73884 -0.00944
C 30.77524 9.22576 -0.03735
C 29.43783 8.48905 -0.00971
C 30.55579 17.90327 -0.00669
C 31.98792 15.75397 0.00369
C 33.20926 15.00766 0.00455
C 33.30432 13.5992 -0.00644
C 34.31341 21.28118 -0.02213
C 34.40177 19.90793 0.01951
C 1.17768 19.24416 -0.01678
C 1.23359 17.81059 0.01223
C 0.01198 17.05806 0.00648
C 0.0428 15.70437 0.02114
C 1.25094 15.03513 -0.02957
C 1.21301 13.52016 0.00343
C 0.02573 12.79809 -0.02656
C 1.21106 22.00179 0.02712
C 34.43205 11.3938 -0.02442
C 1.28842 9.21276 -0.00583
C 0.01246 8.60678 -0.02302
C 34.37781 7.16812 -0.02849
C 1.18661 6.41047 0.02931
C 1.19073 4.97607 0.00628
C 34.39225 4.34485 -0.0345
C 34.34944 2.89882 -0.00931
C 1.11667 2.18373 -0.00939
C 1.14774 0.73216 -0.00468
C 1.21193 10.76462 -0.00027
C 30.66636 32.09185 0.0014
C 1.20596 23.45478 0.00723
C 34.42248 25.57444 -0.05239
C 32.01281 12.7597 -0.01839
C 32.01435 11.40641 0.00137
C 33.20871 10.64589 0.00199
C 33.25147 9.22437 0.04381
C 31.97589 8.52412 0.02806
C 31.9666 7.09238 0.01504
C 33.19961 6.35188 -0.00069
C 33.13766 4.9446 0.04926
C 31.81446 4.2711 -0.03838
C 34.35646 24.1576 0.03076
C 31.84113 2.87091 0.00349
C 33.13219 0.78643 -0.00841
C 31.90366 0.05894 0.0001
C 34.38054 32.73938 -0.02927
C 1.18819 31.93966 -0.01404
C 1.22694 30.50836 0.01027
C 34.4213 29.8458 0.01831
C 0.00458 28.34932 -0.01037
C 1.19195 27.70423 -0.00439
C 1.16713 26.33258 -0.00598
C 33.10343 2.22104 -0.00323
C 29.41799 32.64777 0.01324
C 26.99724 0.00519 0.04266
C 28.28552 0.80529 0.01177
C 22.8416 20.65095 0.0296
C 22.13915 19.42053 0.03374
C 23.0711 18.09771 -0.02845
C 22.08668 17.07796 -0.03213
C 22.08166 15.6342 0.02239
C 23.40509 14.89622 0.01153
C 23.39271 13.34776 0.02734
C 22.17239 12.59039 -0.0055
C 22.17013 11.19859 0.01515
C 23.24933 21.90041 0.03046
C 23.40687 10.41159 -0.00225
C 22.2831 8.13519 -0.01107
C 22.1706 6.64201 -0.01586
C 23.00223 5.18726 -0.01971
C 21.97663 4.28879 -0.02118
C 22.1059 2.81087 0.00733
C 23.2577 2.14294 -0.00178
C 23.342 0.68174 0.00768
C 22.06649 0.00656 -0.0276
C 24.55833 32.66319 0.03005
C 23.48616 8.87338 0.00071
C 25.85166 31.91067 -0.04078
C 23.30596 23.29373 -0.00381
C 22.09605 25.45601 0.01126
C 19.72898 12.63106 -0.00652
C 19.74386 11.24846 0.0058
C 20.95682 10.518 -0.00865
C 20.99532 8.96796 0.00675
C 19.69706 8.40811 -0.00311
C 19.61154 7.02653 0.00742
C 20.89568 6.19467 -0.01594
C 20.70557 4.80277 0.0106
C 19.52633 4.13741 -0.01154
C 22.14136 24.10121 0.01852
C 19.68505 2.793 -0.01721
C 20.80728 0.6495 0.01277
C 19.66786 34.00039 0.00096
C 22.04503 32.66627 -0.01527
C 23.33893 31.98143 0.01087
C 23.30879 30.46884 0.00199
C 22.13285 29.79762 0.01511
C 22.14429 28.40387 -0.00478
C 23.32897 27.68411 -0.01662
C 23.23888 26.15335 -0.01185
C 20.92237 2.0826 -0.02422
C 20.92025 14.81378 -0.00703
C 25.81933 30.52266 0.02117
C 24.51537 28.40864 -0.00498
C 27.06657 28.46147 -0.02815
C 28.20241 27.71088 -0.00942
C 28.24112 26.22352 0.00487
C 27.07251 25.44465 0.00826
C 27.0145 24.01434 -0.00294
C 28.34944 23.40618 0.00152
C 27.26155 15.65075 0.01257
C 28.39081 14.83728 0.02316
C 28.2739 13.41476 0.04185
C 27.02818 29.81329 0.00622
C 27.06099 12.78315 0.00194
C 28.28548 10.64376 0.02611
C 28.3599 9.27631 0.02198
C 27.12671 8.55651 0.01094
C 26.95558 7.13487 0.00235
C 28.17289 6.42912 0.01495
C 28.09729 5.0644 0.01259
C 26.87363 4.43587 0.01799
C 26.862 2.93908 0.01699
C 28.14432 2.2425 -0.00416
C 27.06055 11.32961 -0.00621
C 24.47055 29.79995 0.02737
C 28.24587 30.55699 -0.0032
C 26.9681 32.66295 -0.01654
C 25.80026 27.67849 0.00135
C 25.74407 26.2396 0.03102
C 24.46228 25.58103 0.02555
C 24.54738 24.12494 0.01423
C 25.7202 23.5419 -0.00285
C 24.61086 15.5472 -0.009
C 25.94269 15.04845 -0.01199
C 25.89608 13.58217 -0.00229
C 24.6971 12.73753 -0.00938
C 28.2281 32.00698 -0.00037
C 24.64738 11.24216 -0.0264
C 25.93581 9.16151 0.00684
C 24.95631 8.19815 -0.01052
C 25.59212 6.84601 -0.01679
C 25.59274 5.34693 0.00367
C 24.3941 4.4991 0.04306
C 24.47135 3.00171 0.00996
C 25.65027 2.24234 0.00195
C 25.78117 0.78199 -0.00802
C 24.535 34.07406 -0.00218
C 25.82684 10.65015 -0.01154
C 2.42261 32.69843 -0.003
