429
Graphene
C 34.42485 34.07514 0.01295
C 12.29486 2.96739 0.03589
C 13.57926 2.17519 -0.02759
C 13.47632 0.75431 0.0402
C 12.30756 34.06232 0.00572
C 14.77902 32.65105 0.03592
C 15.98126 31.91668 0.00406
C 15.96542 30.52773 0.00943
C 14.73204 29.71007 0.02841
C 14.78156 28.36307 -0.01111
C 16.00827 27.62908 -0.01275
C 12.22037 4.32108 -0.00033
C 15.94938 26.25595 0.00985
C 14.77909 24.16021 -0.00428
C 16.01456 23.52419 0.03101
C 15.96195 22.02478 -0.01536
C 14.776 21.23351 -0.02689
C 14.7289 19.77685 -0.01046
C 15.96326 19.03882 -0.00891
C 15.93463 17.66356 0.02819
C 14.7468 17.02623 0.00165
C 14.74591 15.58147 -0.02971
C 15.95284 14.90317 0.02894
C 14.74752 25.57626 -0.02245
C 13.51624 5.03018 -0.01062
C 13.50581 6.44589 0.01364
C 12.27316 7.10692 -0.00719
C 13.56561 31.95718 0.00685
C 13.49038 30.56191 0.02888
C 12.26418 29.86486 -0.00482
C 12.2723 28.4892 -0.01384
C 13.45644 27.73478 0.03693
C 13.50578 26.30871 0.01745
C 12.36522 25.64979 0.00488
C 12.40973 24.19009 -0.01004
C 13.58293 23.43129 -0.02896
C 13.56591 21.9553 -0.00131
C 12.25865 21.35735 -0.01118
C 12.30086 19.94176 -0.014
C 13.52055 19.13798 0.02147
C 13.496 17.66451 0.00373
C 12.2465 17.01013 -0.00191
C 12.25859 15.62096 0.00438
C 13.54518 14.91121 0.01291
C 13.54639 13.52773 0.00093
C 12.34634 12.85303 0.00057
C 12.24292 11.45267 -0.01634
C 13.50527 10.69234 -0.00334
C 13.42871 9.30862 0.02339
C 12.21839 8.57233 0.01641
C 16.06965 13.47191 -0.01789
C 14.8357 12.75253 0.00444
C 14.75174 11.41881 -0.00925
C 15.98016 10.62533 0.01877
C 18.45525 14.86093 0.00228
C 18.47685 13.53803 0.00798
C 17.27379 12.71297 0.00422
C 17.20679 11.39011 0.0351
C 18.39891 10.61987 -0.03113
C 18.44421 9.20611 0.02098
C 17.17804 8.52179 0.01848
C 17.17218 7.02579 -0.00619
C 18.4133 6.30307 -0.02162
C 18.45983 4.9135 0.00889
C 17.19259 4.26685 -0.00481
C 17.15841 2.81768 0.00979
C 18.36231 2.1313 0.01443
C 18.39854 0.74305 0.03505
C 17.19863 34.03236 -0.02815
C 19.61364 32.70066 -0.04147
C 20.84605 31.92582 -0.05302
C 20.91449 30.55398 0.00213
C 19.73736 29.80715 -0.00066
C 19.67144 28.37885 -0.00289
C 20.87001 27.69696 0.00028
C 20.91221 26.3023 -0.02213
C 19.71501 25.56107 0.03698
C 17.19717 15.57445 -0.00114
C 12.31243 32.61458 0.00895
C 17.24454 16.96744 -0.02696
C 18.35486 19.16975 -0.0108
C 15.95863 9.2214 0.01363
C 14.68775 8.61727 -0.02162
C 14.76436 7.17411 0.00415
C 15.87762 6.39223 -0.0014
C 15.94364 4.97101 0.02162
C 14.67025 4.30917 0.0076
C 14.73269 2.89482 0.01241
C 15.95555 2.11833 -0.01454
C 15.89362 0.70931 0.01945
C 14.69609 0.02495 0.01416
C 17.19779 32.6631 0.03542
C 18.43024 31.96501 0.02299
C 18.49448 30.54664 0.00244
C 17.19159 29.85632 -0.01717
C 17.21798 28.40506 0.05265
C 18.44611 27.7393 -0.01952
C 18.4727 26.26122 -0.02813
C 17.23562 25.55889 0.00374
C 17.28886 24.1193 0.00052
C 18.43916 23.40858 -0.03682
C 18.41287 21.91409 0.01965
C 17.14088 21.33029 0.02058
C 17.1576 19.8745 -0.01957
C 18.38219 17.76174 -0.00368
C 9.85821 0.03945 0.00393
C 11.09883 0.76062 0.0288
C 11.1467 2.13294 -0.0008
C 4.90807 32.71302 0.02728
C 6.14408 32.03914 -0.00039
C 6.10505 30.58877 0.0064
C 4.84996 29.85369 0.00211
C 4.78928 28.42052 -0.00449
C 6.03612 27.72601 -0.01979
C 6.11326 26.26404 0.02784
C 4.92778 25.55608 -0.01977
C 4.95887 24.0982 -0.00561
C 6.21567 23.40763 0.00208
C 6.1559 21.97598 0.01707
C 4.98752 21.24297 0.02769
C 4.83052 19.95763 -0.03291
C 4.77494 11.4181 -0.04999
C 6.10838 10.87835 0.04505
C 6.1071 9.31729 0.03284
C 4.96454 8.5071 -0.04307
C 4.92347 7.09233 0.03189
C 6.17631 6.3394 0.00031
C 6.12709 4.88052 -0.003
C 4.90242 4.34123 0.01402
C 4.87694 2.84883 0.02379
C 6.12467 2.20562 0.00907
C 2.43522 34.04509 0.00245
C 6.14302 0.80419 0.00643
C 3.70323 0.69367 0.00081
C 2.48382 2.85679 -0.01386
C 3.69201 30.59401 0.00267
C 2.54779 29.78235 0.00787
C 2.43791 28.38026 0.02426
C 3.61554 27.62737 0.01218
C 3.72257 26.20323 -0.01471
C 2.49462 25.47163 -0.02827
C 2.47897 24.13625 0.01078
C 3.74864 23.46003 -0.00112
C 3.6884 22.03162 0.03345
C 2.47107 21.36295 0.00748
C 2.52591 19.86306 0.00662
C 3.79072 19.08703 -0.0154
C 2.44177 16.85386 -0.01299
C 2.38855 15.73635 -0.00407
C 2.34226 12.76659 0.01138
C 2.34017 11.36743 0.03278
C 3.65498 10.70651 -0.00177
C 3.67531 9.17755 0.04421
C 2.42091 8.52161 0.00088
C 2.40448 7.09513 0.00828
C 3.67429 6.44385 -0.02375
C 3.62148 4.98568 0.00558
C 2.43447 4.25293 -0.0059
C 3.69841 2.08412 -0.02805
C 19.70447 24.17169 -0.00109
C 4.98619 0.03945 -0.01509
C 8.5913 31.99008 0.02374
C 9.73909 28.37762 -0.02929
C 11.06154 27.71844 -0.00966
C 11.06195 26.36031 -0.03337
C 9.81669 25.62551 0.01227
C 9.81101 24.20866 0.00873
C 11.06544 23.58607 -0.00049
C 11.10782 22.1305 0.00848
C 9.84297 21.39067 -0.01303
C 9.74996 20.02555 -0.01378
C 10.88328 19.14779 0.02635
C 11.17039 17.77305 0.0127
C 11.08369 14.87915 0.01396
C 10.97643 13.52023 0.01849
C 9.79116 12.79075 -0.01142
C 9.83114 11.43009 -0.00562
C 11.03627 10.73405 -0.00494
C 11.00492 9.26004 0.00054
C 9.75965 8.5151 0.03007
C 9.82556 7.13883 -0.00095
C 11.08836 6.43858 0.01572
C 11.09863 5.00853 -0.04848
C 9.87049 4.32543 -0.00892
C 9.88879 2.87451 -0.01362
C 9.73164 29.81239 0.03368
C 7.38061 32.72907 0.03267
C 11.01922 30.48296 -0.00077
C 9.87937 32.73222 0.0276
C 8.49874 30.54793 0.00402
C 7.27356 29.87893 0.0073
C 7.28488 28.42503 0.0174
C 8.52339 27.76808 0.03828
C 8.53269 26.27761 0.01226
C 7.36837 25.58768 -0.00279
C 7.36347 24.15302 0.01996
C 8.61481 23.4948 -0.03996
C 8.61158 22.08854 0.01465
C 7.48137 21.22724 -0.00074
C 7.59527 19.90561 -0.00518
C 7.37514 11.40887 0.0086
C 8.59764 10.72163 -0.00643
C 8.53049 9.23831 0.017
C 7.32895 8.54024 -0.03113
C 7.3551 7.05008 -0.02566
C 8.57306 6.38503 -0.00094
C 8.60182 5.03047 0.02322
C 7.37618 4.27278 -0.00725
C 7.37506 2.83728 -0.05697
C 8.63776 2.17509 0.01087
C 8.59438 0.79266 -0.01343
C 7.39487 0.0875 0.00988
C 11.03725 31.92497 0.01305
C 3.6595 32.02748 0.01913
C 20.89939 23.41265 -0.00491
C 19.66238 21.30735 -0.0258
C 29.51948 12.8188 -0.01461
C 29.50228 11.36982 -0.02155
C 30.70367 10.62914 -0.00944
C 30.6208 9.22305 -0.03735
C 29.47562 8.46264 -0.00971
C 29.44658 7.10383 0.01518
C 30.68932 6.29052 0.01908
C 30.75054 4.83378 0.07705
C 29.52686 4.26638 0.0103
C 29.51168 2.81643 0.02108
C 30.75096 13.48478 -0.01303
C 30.74662 2.16711 0.00716
C 29.54168 34.04662 0.00346
C 31.99197 32.54794 0.01713
C 33.16719 31.84713 -0.01694
C 33.30826 30.44514 0.01428
C 31.99654 29.75566 -0.02142
C 31.87122 28.362 0.0544
C 33.18711 27.62609 0.00026
C 33.22064 26.26403 0.00682
C 31.98495 25.57967 -0.01779
C 31.99117 24.17298 0.03794
C 30.77062 0.63383 0.00307
C 30.70366 14.93306 -0.0405
C 29.50048 15.65388 0.01705
C 29.52339 17.05643 0.0101
C 27.022 7.06802 0.02198
C 28.26702 6.42967 0.01094
C 28.2762 4.96545 0.00235
C 27.0992 4.2493 0.01495
C 27.04646 2.83181 0.01259
C 28.26988 2.12881 0.01799
C 28.37455 0.74401 0.01699
C 27.11118 0.02226 -0.00416
C 29.47831 32.6062 0.01177
C 30.71498 31.90497 0.04266
C 30.78661 30.48379 0.01324
C 29.48887 29.7733 0.0014
C 29.48865 28.40504 0.00924
C 30.67745 27.6404 0.02326
C 30.70671 26.24077 0.00261
C 29.47698 25.49282 0.03265
C 29.44701 24.15477 -0.02049
C 30.73922 23.45273 -0.01854
C 30.77738 22.05426 -0.01415
C 29.52587 21.29298 -0.03039
C 29.47535 19.88933 0.01836
C 30.70885 19.17821 0.03531
C 30.72324 17.7497 -0.00669
C 33.19981 23.45491 0.01927
C 33.17569 22.06466 0.01574
C 31.94204 21.34175 -0.02383
C 31.89851 19.8573 -0.01429
C 34.42819 24.17915 0.03076
C 1.22203 23.44301 0.00723
C 1.21902 22.05331 0.02712
C 0.04152 21.31429 -0.02213
C 0.00012 19.84764 0.01951
C 1.25925 19.15645 -0.01678
C 1.3033 17.72941 0.01223
C 0.01279 17.04406 0.00648
C 34.34455 15.59074 0.02114
C 1.1886 14.91828 -0.02957
C 1.21516 13.4595 0.00343
C 34.38953 12.80279 -0.02656
C 34.39375 11.33123 -0.02442
C 1.18891 10.62663 -0.00027
C 1.19866 9.23392 -0.00583
C 34.4163 8.46378 -0.02302
C 34.38485 7.08258 -0.02849
C 1.18073 6.39325 0.02931
C 1.19062 4.96082 0.00628
C 0.0118 4.25691 -0.0345
C 0.06841 2.77006 -0.00931
C 1.26613 2.13444 -0.00939
C 1.21921 0.7113 -0.00468
C 0.00932 25.55273 -0.05239
C 27.00459 8.50639 0.02611
C 1.28115 26.22877 -0.00598
C 0.00499 28.27978 -0.01037
C 33.15989 19.20709 -0.0136
C 33.21443 17.75755 0.00594
C 31.9356 17.08193 -0.02474
C 31.90714 15.63037 0.00369
C 33.11386 14.85725 0.00455
C 33.13728 13.42938 -0.00644
C 31.91587 12.73987 -0.01839
C 31.97734 11.28968 0.00137
C 33.16564 10.59143 0.00199
C 33.18904 9.16295 0.04381
C 31.92781 8.44033 0.02806
C 31.90564 7.0243 0.01504
C 33.08951 6.30921 -0.00069
C 33.18823 4.90055 0.04926
C 31.96421 4.17898 -0.03838
C 32.00075 2.75554 0.00349
C 33.24963 2.07336 -0.00323
C 33.2412 0.6842 -0.00841
C 32.00027 34.06868 0.0001
C 34.41767 32.68401 -0.02927
C 1.16176 31.89566 -0.01404
C 1.26653 30.53768 0.01027
C 0.07352 29.71442 0.01831
C 1.23433 27.64184 -0.00439
C 28.2317 9.21618 -0.00621
C 28.28478 10.63798 0.00194
C 27.07911 11.36103 0.04185
C 22.11144 25.54729 0.00675
C 22.1883 24.14671 -0.00311
C 23.38259 23.44372 0.00742
C 23.4199 22.09479 -0.01594
C 22.182 21.35081 0.0106
C 22.12317 19.85934 -0.01154
C 23.36571 19.13923 -0.01721
C 23.3725 17.73635 -0.02422
C 22.06494 17.09139 0.01277
C 22.09179 15.66384 0.00096
C 23.38015 14.90995 -0.01527
C 23.32011 13.54485 0.01087
C 22.05875 12.79796 0.00199
C 22.10687 11.3715 0.01511
C 23.35711 10.71849 -0.00478
C 23.34358 9.27846 -0.01662
C 22.1193 8.55002 -0.01185
C 22.07838 7.16398 0.01126
C 23.35785 6.40243 0.01852
C 23.46799 4.97985 -0.00381
C 22.22381 4.22516 0.03046
C 22.18331 2.83789 0.0296
C 23.36791 2.17456 0.03374
C 23.3425 26.33294 -0.00865
C 23.45625 0.78807 -0.02845
C 23.29285 27.69423 0.0058
C 22.13824 29.86469 -0.04076
C 19.63043 19.8766 -0.0331
C 20.94153 19.16234 -0.00316
C 20.82749 17.76437 0.02188
C 19.58963 17.04121 -0.01979
C 19.66799 15.57765 0.02691
C 20.84884 14.88138 -0.01581
C 20.88283 13.46942 0.01452
C 19.59789 12.74857 0.04892
C 19.60694 11.34465 -0.00111
C 20.8437 10.70626 -0.03557
C 20.85027 9.23655 0.03754
C 19.65067 8.46906 0.01739
C 19.65045 7.0511 0.00755
C 20.89093 6.29396 -0.0054
C 20.98852 4.89817 0.00667
C 19.69592 4.18054 0.00143
C 19.60158 2.80391 -0.017
C 20.86767 2.1463 0.00364
C 20.99608 0.70212 -0.00831
C 19.70838 0.09091 -0.02957
C 22.12248 32.68754 -0.04422
C 23.297 31.94571 0.00654
C 23.35394 30.53007 -0.00703
C 22.09015 28.43114 -0.00652
C 20.96068 22.00145 0.03338
C 22.28861 0.07119 -0.03213
C 25.74793 31.9887 0.01153
C 25.8282 2.03853 -0.0264
C 25.88712 0.69703 -0.01154
C 24.67497 34.00328 0.00684
C 27.0427 32.74838 -0.01052
C 28.18992 31.86446 -0.01679
C 28.26484 30.42323 0.00367
C 26.95647 29.7683 0.04306
C 27.00704 28.34646 0.00996
C 28.22699 27.65746 0.00195
C 28.23853 26.27729 -0.00802
C 27.02061 25.5741 -0.00218
C 27.04826 24.20265 -0.01654
C 28.26997 23.39694 -0.00037
C 28.27549 21.98125 -0.0032
C 27.08655 21.2925 0.00622
C 27.06263 19.88322 -0.02815
C 28.25193 19.18612 -0.00942
C 28.29877 17.79713 0.00487
C 26.98881 17.0866 0.00826
C 27.07631 15.63023 -0.00294
C 28.28613 15.00032 0.00152
C 28.30228 13.50326 0.01257
C 27.09756 12.79294 0.02316
C 24.62457 2.83471 -0.00938
C 24.56212 32.61603 0.02239
C 24.65912 4.17564 -0.00229
C 25.80492 6.38608 -0.009
C 25.82914 30.55681 0.02734
C 24.55127 29.85841 -0.0055
C 24.5532 28.38824 0.01515
C 25.73519 27.63512 -0.00225
C 25.78498 26.25837 0.00071
C 24.53182 25.56692 -0.01107
C 24.58452 24.14257 -0.01586
C 25.84789 23.44544 -0.01971
C 25.9143 22.07615 -0.02118
C 24.63559 21.33274 0.00733
C 24.57429 19.8847 -0.00178
C 25.83842 19.25305 0.00768
C 25.83856 17.75423 -0.0276
C 24.64287 16.99341 0.03005
C 24.63276 15.60675 -0.04078
C 25.8472 14.89116 0.02117
C 25.83448 13.45817 0.02737
C 24.55285 12.79241 -0.00498
C 24.58077 11.34152 0.00135
C 25.84513 10.6688 0.03102
C 25.79903 9.23034 0.02555
C 24.59759 8.57779 0.01423
C 24.61385 7.12922 -0.00285
C 25.89499 4.97348 -0.01199
C 2.40392 32.67549 -0.03672
