397
Graphene
C 34.39215 0.06413 0.01295
C 9.76275 0.16856 -0.01789
C 12.21446 32.79594 0.00444
C 13.42128 32.03742 -0.00925
C 13.37861 30.59287 0.01877
C 12.17151 29.83953 0.01363
C 12.24671 28.39475 -0.02162
C 13.67871 27.74955 0.00415
C 13.44561 26.51432 -0.0014
C 12.35984 25.61384 0.02162
C 10.98873 0.7825 0.02894
C 12.1761 24.21321 0.0076
C 12.20191 19.96795 -0.01454
C 13.61377 17.48988 0.01945
C 12.32785 16.99026 0.01416
C 12.32655 15.48031 0.03542
C 13.53496 14.83934 0.02299
C 13.52449 13.45327 0.00244
C 12.2615 12.82417 -0.01717
C 12.37921 11.40446 0.05265
C 13.47514 10.68096 -0.01952
C 12.23724 21.27046 0.01241
C 10.98621 2.23033 -0.02971
C 9.7736 2.9095 0.00165
C 9.76426 4.26077 0.02819
C 11.02063 26.26573 0.01364
C 9.80587 25.5714 -0.01062
C 9.78718 24.1618 -0.00033
C 11.05114 23.43221 0.03589
C 11.12811 22.01204 -0.02759
C 9.82474 21.29377 0.0402
C 9.78662 19.82618 0.00572
C 11.07635 19.10305 0.03592
C 11.16428 17.63815 0.00406
C 9.89688 17.00449 0.00943
C 9.77632 15.62043 0.02841
C 11.09083 14.86187 -0.01111
C 11.01255 13.49666 -0.01275
C 9.79473 12.81149 0.00985
C 9.90074 11.37933 -0.02245
C 11.10454 10.76804 -0.00428
C 10.99495 9.30467 0.03101
C 9.8305 8.54284 -0.01536
C 9.77267 7.13886 -0.02689
C 10.92814 6.40719 -0.01046
C 10.94039 5.00638 -0.00891
C 13.51033 9.19413 -0.02813
C 12.1861 8.55742 0.00374
C 12.14434 7.13191 0.00052
C 13.51573 6.44039 -0.03682
C 15.93241 2.19178 -0.00066
C 15.93183 0.83055 -0.00289
C 14.71863 0.0966 0.00028
C 17.27121 32.71559 -0.02213
C 18.44502 31.94138 0.03698
C 18.32515 30.43746 -0.00109
C 17.04253 29.85286 -0.00491
C 17.21121 15.63873 0.03338
C 18.4503 15.02348 -0.0258
C 18.4688 13.48809 -0.0331
C 17.23891 12.77232 -0.00316
C 17.17774 11.29489 0.02188
C 18.4401 10.66267 -0.01979
C 18.39341 9.23948 0.02691
C 17.12065 8.52489 -0.01581
C 17.23389 7.05551 0.01452
C 18.50196 6.34051 0.04892
C 18.4997 4.92217 -0.00111
C 17.19098 4.20653 -0.03557
C 17.23325 2.80594 0.03754
C 18.44455 2.09525 0.01739
C 14.74474 2.83674 0.00213
C 11.08327 27.65089 -0.00719
C 14.75951 4.29802 -0.05302
C 15.95604 6.39133 -0.02815
C 13.56649 4.99469 0.01965
C 12.19439 4.34998 0.02058
C 12.21202 2.96068 -0.01957
C 13.47312 2.21343 -0.0108
C 13.44014 0.83563 -0.00368
C 12.26943 0.0675 -0.02696
C 14.73134 32.76058 -0.00114
C 15.96267 32.12251 0.00228
C 15.91434 30.67713 0.00798
C 14.70492 30.00368 0.00422
C 14.83034 28.6006 0.0351
C 14.67022 16.97783 -0.03113
C 14.74262 15.51448 0.02098
C 16.04536 14.8651 0.01848
C 15.99113 13.44741 -0.00619
C 14.67821 12.75302 -0.02162
C 14.76101 11.33869 0.00889
C 15.95639 10.67448 -0.00481
C 15.873 9.2887 0.00979
C 14.76222 8.47465 0.01443
C 14.69765 7.06979 0.03505
C 16.05209 5.01677 -0.04147
C 9.83272 28.44482 0.01641
C 9.74156 29.85645 0.02339
C 10.94146 30.58003 -0.00334
C 2.36699 4.3329 0.03828
C 2.42635 2.89477 0.01226
C 3.65642 2.30387 -0.00279
C 3.57866 0.82938 0.01996
C 2.37574 0.10727 -0.03996
C 4.86789 32.78218 0.01465
C 6.06416 32.05856 -0.00074
C 6.06281 30.64616 -0.00518
C 4.82829 29.89424 0.0086
C 4.93185 28.48475 -0.00643
C 6.12363 27.79702 0.017
C 6.18548 26.43278 -0.03113
C 4.93026 25.62552 -0.02566
C 4.89158 24.16277 -0.00094
C 6.11136 23.4382 0.02322
C 6.07609 22.00771 -0.00725
C 4.91342 21.31863 -0.05697
C 4.98085 19.8932 0.01087
C 6.16866 19.23834 -0.01343
C 6.16472 17.86514 0.00988
C 5.04295 17.03329 0.0276
C 3.58475 5.07054 0.0174
C 4.92891 15.6108 0.01305
C 3.57087 6.43661 0.0073
C 2.35721 8.5963 0.02374
C 3.66843 30.61864 -0.01979
C 2.41455 29.93325 0.02784
C 2.43006 28.50471 -0.01977
C 3.6837 27.78339 -0.00561
C 3.73638 26.34429 0.00208
C 2.4364 25.56091 0.01707
C 2.39685 24.15951 0.02769
C 3.68382 23.42299 -0.03291
C 3.6155 21.94644 -0.04999
C 2.40338 21.22068 0.04505
C 2.45268 19.80626 0.03284
C 3.74841 19.18866 -0.04307
C 3.7795 17.77379 0.03189
C 2.37338 17.06404 0.00031
C 2.39975 15.61342 -0.003
C 3.59779 14.85911 0.01402
C 3.57457 13.50223 0.02379
C 2.37778 12.79526 0.00907
C 2.37695 11.36572 0.00643
C 3.57313 10.72799 -0.01509
C 3.62715 9.29399 0.03267
C 2.37273 7.16047 0.00402
C 18.44639 0.69739 0.00755
C 6.13658 14.94787 -0.00077
C 4.82834 12.78995 -0.02929
C 8.62404 19.19887 0.00895
C 8.69273 17.78023 0.00685
C 7.43506 17.13948 0.02888
C 7.36587 15.69593 -0.00482
C 8.53342 14.87882 -0.01384
C 8.56497 13.53377 0.03693
C 7.3226 12.82533 0.01745
C 7.31024 11.41233 0.00488
C 8.59332 10.72644 -0.01004
C 8.59063 9.28711 -0.02896
C 7.36056 8.5333 -0.00131
C 7.30286 7.14335 -0.01118
C 8.49358 6.44959 -0.014
C 8.56755 5.0666 0.02147
C 7.27391 4.35473 0.00373
C 7.30668 2.95439 -0.00191
C 8.57088 2.25912 0.00438
C 8.49823 0.82069 0.01291
C 7.37212 0.05092 0.00093
C 9.77563 32.79719 0.00057
C 11.04744 32.05411 -0.01634
C 7.33563 19.89791 0.00393
C 6.09022 13.51119 0.03368
C 7.30102 21.30171 0.0288
C 8.53555 23.43051 -0.01362
C 4.89216 11.39656 -0.00966
C 6.06111 10.65805 -0.03337
C 6.12886 9.24721 0.01227
C 4.87994 8.61529 0.00873
C 4.86514 7.19637 -0.00049
C 6.06535 6.46878 0.00848
C 6.07382 5.13652 -0.01303
C 4.87622 4.36955 -0.01378
C 4.89885 2.96519 0.02635
C 6.05808 2.31433 0.0127
C 6.01636 0.84015 0.01396
C 4.81054 0.1605 0.01849
C 7.39233 32.75484 -0.01142
C 8.55696 32.05721 -0.00562
C 8.54744 30.64746 -0.00494
C 7.35487 29.95831 0.00054
C 7.3757 28.51226 0.03007
C 8.57558 27.77283 -0.00095
C 8.54665 26.36695 0.01572
C 7.31631 25.60419 -0.04848
C 7.40465 24.15567 -0.00892
C 8.51138 22.0222 -0.0008
C 3.64552 32.01511 -0.00449
C 17.24108 0.05617 -0.0054
C 20.96164 31.89924 0.00143
C 30.66266 6.39496 0.01908
C 30.67641 4.99274 0.07705
C 29.41364 4.23729 0.0103
C 29.50727 2.78024 0.02108
C 30.77134 2.09456 0.00716
C 30.7455 0.68859 0.00307
C 29.50679 34.06284 0.00346
C 31.92443 32.66434 0.01713
C 33.13395 31.95778 -0.01694
C 29.46573 7.10269 0.01518
C 33.09452 30.51176 0.01428
C 32.0124 28.35437 0.0544
C 33.24138 27.62928 0.00026
C 33.20414 26.16701 0.00682
C 32.00759 25.51422 -0.01779
C 31.97165 24.21052 0.03794
C 33.18773 23.4053 0.01927
C 33.11377 21.96871 0.01574
C 31.9752 21.21725 -0.02383
C 31.8895 19.87454 -0.01429
C 31.92765 29.77712 -0.02142
C 29.40213 8.52634 -0.00971
C 30.63343 9.28252 -0.03735
C 30.6576 10.60619 -0.00944
C 29.46429 32.65562 0.01177
C 30.74149 31.89472 0.04266
C 30.81379 30.52605 0.01324
C 29.61277 29.87073 0.0014
C 29.57868 28.41081 0.00924
C 30.75411 27.6818 0.02326
C 30.75234 26.2963 0.00261
C 29.57738 25.5859 0.03265
C 29.53718 24.06186 -0.02049
C 30.78583 23.39354 -0.01854
C 30.75125 21.9997 -0.01415
C 29.55757 21.27068 -0.03039
C 29.47446 19.8117 0.01836
C 30.70867 19.12418 0.03531
C 30.61572 17.67197 -0.00669
C 29.30237 17.01922 0.0101
C 29.33219 15.60165 0.01705
C 30.62068 14.8935 -0.0405
C 30.67557 13.49942 -0.01303
C 29.39561 12.82541 -0.01461
C 29.41648 11.34811 -0.02155
C 33.04447 19.16585 -0.0136
C 33.08021 17.76672 0.00594
C 31.85077 17.05801 -0.02474
C 31.8782 15.61581 0.00369
C 1.15971 21.94475 0.02712
C 34.35088 21.30339 -0.02213
C 34.32991 19.86813 0.01951
C 1.1423 19.20241 -0.01678
C 1.10835 17.82144 0.01223
C 34.401 17.1058 0.00648
C 34.33389 15.68731 0.02114
C 1.12105 14.92135 -0.02957
C 1.12274 13.54025 0.00343
C 34.2972 12.80631 -0.02656
C 34.30643 11.46285 -0.02442
C 1.11713 10.66648 -0.00027
C 1.15339 9.2406 -0.00583
C 34.30179 8.57744 -0.02302
C 34.4258 7.13824 -0.02849
C 1.16826 6.40775 0.02931
C 1.17503 5.08395 0.00628
C 34.38502 4.31156 -0.0345
C 34.40197 2.89014 -0.00931
C 1.19312 2.17303 -0.00939
C 1.15457 0.75251 -0.00468
C 1.22816 23.3867 0.00723
C 27.05061 34.02776 -0.00416
C 0.02408 24.06931 0.03076
C 1.1924 26.25321 -0.00598
C 33.08947 14.9137 0.00455
C 33.07553 13.52157 -0.00644
C 31.81651 12.81674 -0.01839
C 31.8669 11.40965 0.00137
C 33.06487 10.67246 0.00199
C 33.05492 9.2878 0.04381
C 31.88976 8.55402 0.02806
C 31.80027 7.16985 0.01504
C 33.13234 6.43223 -0.00069
C 33.1361 4.98129 0.04926
C 31.91497 4.31831 -0.03838
C 32.05175 2.92339 0.00349
C 33.22991 2.13843 -0.00323
C 33.19524 0.67278 -0.00841
C 31.92977 0.02469 0.0001
C 34.2977 32.7843 -0.02927
C 1.13398 32.08028 -0.01404
C 1.14455 30.60159 0.01027
C 34.3283 29.80904 0.01831
C 34.39301 28.4466 -0.01037
C 1.19512 27.66981 -0.00439
C 0.03225 25.51108 -0.05239
C 28.27302 0.62773 0.01699
C 28.21652 2.01894 0.01799
C 27.02637 2.76422 0.01259
C 23.37913 14.74561 -0.00478
C 23.36656 13.3794 -0.01662
C 22.08486 12.78884 -0.01185
C 22.16036 11.31737 0.01126
C 23.28587 10.63471 0.01852
C 23.2276 9.23695 -0.00381
C 22.02299 8.482 0.03046
C 22.18505 7.08209 0.0296
C 23.45135 6.41153 0.03374
C 23.35274 4.99229 -0.02845
C 22.14317 4.21938 -0.03213
C 22.13852 2.88125 0.02239
C 23.29975 2.09986 0.01153
C 23.31434 0.63329 0.02734
C 22.13834 0.0301 -0.0055
C 24.63966 32.66987 0.01515
C 25.86692 31.90357 -0.00225
C 25.88073 30.49941 0.00071
C 24.59102 29.79429 -0.01107
C 24.56196 28.21453 -0.01586
C 25.8643 27.60001 -0.01971
C 22.19414 15.54325 0.01511
C 25.94255 26.07662 -0.02118
C 23.24452 27.77551 0.00199
C 22.08288 29.73876 -0.01527
C 20.91392 30.48021 -0.017
C 19.63375 29.85803 0.00364
C 19.62143 15.55172 -0.00831
C 20.87548 15.09297 -0.02957
C 20.93839 13.54973 -0.04422
C 19.75229 12.87438 0.00654
C 19.6644 11.40697 -0.00703
C 20.85205 10.6557 -0.04076
C 20.84447 9.18521 -0.00652
C 19.60833 8.52828 0.0058
C 19.69428 7.14076 -0.00865
C 20.95835 6.34672 0.00675
C 20.87083 4.91887 -0.00311
C 19.66944 4.20977 0.00742
C 19.61902 2.789 -0.01594
C 20.88797 2.12185 0.0106
C 20.86755 0.77351 -0.01154
C 19.65299 0.00822 -0.01721
C 22.07186 32.64529 -0.02422
C 23.39579 31.96202 0.01277
C 23.45573 30.55357 0.00096
C 22.26837 28.39294 0.01087
C 19.72162 32.65298 0.00667
C 25.8075 23.39296 0.00733
C 25.67041 19.10479 0.00768
C 27.10032 25.38212 -0.00218
C 26.98265 24.05483 -0.01654
C 28.29076 23.35852 -0.00037
C 28.34583 22.01356 -0.0032
C 26.97329 21.31008 0.00622
C 26.8991 19.86951 -0.02815
C 28.1336 19.18221 -0.00942
C 28.10075 17.75513 0.00487
C 26.80822 17.01949 0.00826
C 26.92414 15.63151 -0.00294
C 28.16318 14.89658 0.00152
C 28.23198 13.5309 0.01257
C 27.00881 12.71224 0.02316
C 26.99872 11.28974 0.04185
C 28.2211 10.63792 0.00194
C 28.16871 9.24027 -0.00621
C 26.99852 8.47392 0.02611
C 27.05406 7.04763 0.02198
C 28.31055 6.35803 0.01094
C 28.19682 4.91218 0.00235
C 26.91911 4.22036 0.01495
C 28.33416 26.17978 -0.00802
C 25.81416 22.09946 -0.00178
C 28.32871 27.62783 0.00195
C 27.14241 29.74171 0.04306
C 25.54065 17.76831 -0.0276
C 24.37107 16.92364 0.03005
C 24.52791 15.51587 -0.04078
C 25.76977 14.90333 0.02117
C 25.80124 13.50453 0.02737
C 24.56407 12.73841 -0.00498
C 24.50643 11.33035 0.00135
C 25.76527 10.66526 0.03102
C 25.73623 9.19518 0.02555
C 24.48654 8.53503 0.01423
C 24.62495 7.12096 -0.00285
C 25.78621 6.4049 -0.009
C 25.78293 4.97163 -0.01199
C 24.49649 4.20323 -0.00229
C 24.56372 2.73233 -0.00938
C 25.76256 2.07724 -0.0264
C 25.84177 0.64668 -0.01154
C 24.52283 33.99895 0.00684
C 27.08342 32.55578 -0.01052
C 28.34617 31.81596 -0.01679
C 28.3649 30.43738 0.00367
C 27.07137 28.29539 0.00996
C 2.3903 32.79302 0.00211
