443
Graphene
C 34.41662 0.02991 0.01295
C 13.64181 19.15994 0.00093
C 12.23837 17.16624 0.00057
C 12.34923 15.73345 -0.01634
C 13.55346 14.95809 -0.00334
C 13.57595 13.49051 0.02339
C 12.33729 12.8085 0.01641
C 12.25393 11.40027 -0.00719
C 13.46213 10.55748 0.01364
C 13.49673 9.09151 -0.01062
C 12.26188 8.48395 -0.00033
C 12.38719 7.08612 0.03589
C 13.59782 6.38254 -0.02759
C 13.59002 4.93874 0.0402
C 12.37029 4.31447 0.00572
C 12.28745 2.82601 0.03592
C 13.49501 2.053 0.00406
C 13.45456 0.63656 0.00943
C 12.24058 33.95845 0.02841
C 14.81306 32.65094 -0.01111
C 16.01748 31.88498 -0.01275
C 15.96135 30.53925 0.00985
C 14.74631 29.84321 -0.02245
C 14.70787 28.38436 -0.00428
C 12.29974 19.94963 0.01291
C 12.31147 21.39497 0.00438
C 13.58023 22.05682 -0.00191
C 13.56816 23.48857 0.00373
C 11.06645 14.97325 0.00054
C 11.10166 13.53851 0.03007
C 9.86281 12.81881 -0.00095
C 9.88571 11.40544 0.01572
C 11.06626 10.71098 -0.04848
C 10.99996 9.30169 -0.00892
C 9.7963 8.60336 -0.01362
C 9.84451 7.06001 -0.0008
C 11.1088 6.43215 0.0288
C 11.1675 4.98982 0.00393
C 9.93501 4.31344 0.00895
C 15.88528 27.67632 0.03101
C 9.85051 2.86565 0.00685
C 10.99126 0.64587 -0.00482
C 9.74541 0.07431 -0.01384
C 12.29648 32.59616 0.03693
C 13.61283 31.96007 0.01745
C 13.57489 30.54673 0.00488
C 12.33023 29.92821 -0.01004
C 12.25808 28.48324 -0.02896
C 13.43433 27.71523 -0.00131
C 13.47524 26.28641 -0.01118
C 12.30593 25.57632 -0.014
C 12.29103 24.14577 0.02147
C 11.02918 2.13606 0.02888
C 15.91256 26.283 -0.01536
C 14.72526 25.55098 -0.02689
C 14.79466 24.11643 -0.01046
C 17.26466 24.16292 -0.03682
C 18.46572 23.36596 0.01965
C 18.42508 21.98494 0.02058
C 17.21757 21.21862 -0.01957
C 17.18938 19.90065 -0.0108
C 18.30639 19.0366 -0.00368
C 18.40412 17.66737 -0.02696
C 17.27597 15.52299 -0.00114
C 18.44572 14.89375 0.00228
C 18.42002 13.48711 0.00798
C 17.18465 12.78902 0.00422
C 17.18544 25.61872 0.00052
C 17.16919 11.42008 0.0351
C 18.43549 9.30131 0.02098
C 17.24292 8.5267 0.01848
C 17.22712 7.06455 -0.00619
C 18.49429 6.37727 -0.02162
C 18.46829 4.98079 0.00889
C 17.24841 4.30821 -0.00481
C 17.26466 2.90727 0.00979
C 18.40751 2.08292 0.01443
C 18.39183 0.70618 0.03505
C 17.14874 34.07686 -0.02815
C 19.66468 32.66579 -0.04147
C 18.47362 10.74787 -0.03113
C 9.79759 15.65954 -0.00494
C 18.36945 26.31911 0.00374
C 17.12082 28.45427 -0.01952
C 16.02025 23.4459 -0.00891
C 15.95813 22.04232 0.02819
C 14.76378 21.28638 0.00165
C 14.82279 19.80569 -0.02971
C 14.76449 15.58801 0.02894
C 15.96847 14.92027 -0.01789
C 15.93239 13.46243 0.00444
C 14.73703 12.726 -0.00925
C 14.69246 11.28555 0.01877
C 15.95863 10.62921 0.01363
C 16.01888 9.23562 -0.02162
C 18.35887 27.73028 -0.02813
C 14.82019 8.49046 0.00415
C 15.9932 6.39059 0.02162
C 15.96712 5.03006 0.0076
C 14.78473 4.23498 0.01241
C 14.71429 2.82561 -0.01454
C 16.01125 2.13819 0.01945
C 15.92071 0.69744 0.01416
C 14.73017 34.03358 0.03542
C 17.157 32.65829 0.02299
C 18.45024 31.98711 0.00244
C 18.46156 30.51624 -0.01717
C 17.1721 29.86697 0.05265
C 14.7757 7.08193 -0.0014
C 20.91423 31.913 -0.05302
C 9.82853 17.02708 -0.00562
C 10.99112 19.21121 0.01849
C 3.63614 0.72183 0.01138
C 2.41016 0.00444 0.03278
C 4.90189 32.67359 -0.00177
C 6.16976 31.93744 0.04421
C 6.20826 30.51176 0.00088
C 4.95023 29.82221 0.00828
C 5.02937 28.39647 -0.02375
C 6.21298 27.68315 0.00558
C 6.1368 26.26867 -0.0059
C 4.82427 25.64817 -0.01386
C 4.98852 24.20653 -0.02805
C 6.16494 23.46931 0.00081
C 6.13357 22.04261 0.00245
C 4.91743 21.25016 0.02728
C 4.92243 19.78708 -0.00039
C 6.1919 19.15404 0.0064
C 6.11192 17.75558 0.00211
C 4.78619 17.1085 -0.00449
C 4.82641 15.72795 -0.01979
C 6.11341 14.98289 0.02784
C 6.17292 13.55365 -0.01977
C 4.95444 12.76347 -0.00561
C 4.9165 11.32055 0.00208
C 3.66044 2.15697 -0.00407
C 2.43823 2.84594 -0.01299
C 2.43219 4.23056 -0.0154
C 3.64309 4.92956 0.00662
C 3.68863 30.49529 -0.00141
C 2.47059 29.80458 -0.00374
C 2.51075 28.41505 -0.0213
C 3.7499 27.73769 0.01116
C 3.63057 26.36345 -0.0005
C 2.45514 25.56697 -0.00018
C 2.52012 24.12966 0.01073
C 3.7762 23.44373 0.01984
C 3.71708 21.9835 0.00535
C 2.42586 21.24555 -0.00198
C 2.42837 19.76371 -0.00012
C 6.1544 10.64639 0.01707
C 3.61477 19.15118 -0.04306
C 2.38152 17.01594 0.01913
C 2.40896 15.61544 0.00267
C 3.66254 14.88428 0.00787
C 3.74907 13.46229 0.02426
C 2.46985 12.77248 0.01218
C 2.48509 11.41733 -0.01471
C 3.72098 10.66809 -0.02827
C 3.70212 9.2542 0.01078
C 2.47193 8.52702 -0.00112
C 2.46454 7.1019 0.03345
C 3.69541 6.37917 0.00748
C 3.60454 17.76212 -0.03672
C 6.14821 9.23285 0.02769
C 4.91768 8.59261 -0.03291
C 4.92737 7.13661 -0.04999
C 8.57523 10.76905 -0.02566
C 8.55413 9.36152 -0.00094
C 7.40576 8.59745 0.02322
C 7.33884 7.18901 -0.00725
C 8.59804 6.38922 -0.05697
C 8.64686 4.97086 0.01087
C 7.40282 4.27462 -0.01343
C 7.38652 2.8668 0.00988
C 8.62619 2.19594 0.0276
C 8.55056 0.80443 0.01305
C 7.36157 0.05655 -0.00077
C 7.30989 11.4452 -0.03113
C 9.76142 32.67741 0.03368
C 11.02076 30.53533 -0.00966
C 9.80602 29.88009 -0.03337
C 9.79178 28.44341 0.01227
C 10.98802 27.77951 0.00873
C 11.10182 26.36029 -0.00049
C 9.90647 25.58532 0.00848
C 9.78242 24.12602 -0.01303
C 11.04657 23.41044 -0.01378
C 11.06219 22.05108 0.02635
C 9.80799 21.30735 0.0127
C 9.77039 19.90169 0.01396
C 10.98776 31.98208 -0.02929
C 10.9914 17.7578 -0.01142
C 7.36964 12.8089 0.017
C 8.52194 14.87542 0.0086
C 6.14782 6.40975 0.04505
C 6.1643 4.96611 0.03284
C 4.90358 4.25237 -0.04307
C 4.9634 2.8727 0.03189
C 6.163 2.17338 0.00031
C 6.15865 0.7302 -0.003
C 4.94272 34.07579 0.01402
C 7.35483 32.6994 0.02379
C 8.53485 31.99124 0.00907
C 8.57577 30.60141 0.00643
C 7.45149 29.78736 -0.01509
C 8.62695 13.48213 -0.00643
C 7.44985 28.37079 0.03267
C 8.59888 26.24103 0.00402
C 7.35425 25.59296 0.0073
C 7.40935 24.16637 0.0174
C 8.60938 23.44269 0.03828
C 8.55703 22.05521 0.01226
C 7.40879 21.3067 -0.00279
C 7.39282 19.89574 0.01996
C 8.58157 19.12195 -0.03996
C 8.55458 17.72498 0.01465
C 7.3564 17.04692 -0.00074
C 7.32913 15.64902 -0.00518
C 8.63844 27.64246 0.02374
C 3.71357 31.90935 -0.03951
C 20.91058 30.52959 0.00213
C 19.63833 28.35616 -0.00289
C 29.48388 15.63732 0.01705
C 30.69394 14.8961 -0.0405
C 30.70951 13.47663 -0.01303
C 29.50578 12.74987 -0.01461
C 29.4846 11.30779 -0.02155
C 30.71509 10.64152 -0.00944
C 30.81244 9.14042 -0.03735
C 29.59094 8.47407 -0.00971
C 29.48099 7.0319 0.01518
C 30.7202 6.30067 0.01908
C 30.75246 4.92535 0.07705
C 29.5379 4.25472 0.0103
C 29.52553 2.82527 0.02108
C 30.78121 2.16569 0.00716
C 30.78043 0.75734 0.00307
C 29.52656 0.09457 0.00346
C 31.99625 32.65629 0.01713
C 33.24356 32.01875 -0.01694
C 33.19015 30.58097 0.01428
C 31.92721 29.84589 -0.02142
C 32.00431 28.41313 0.0544
C 33.27684 27.71286 0.00026
C 33.20687 26.33131 0.00682
C 29.49684 17.06281 0.0101
C 30.71645 17.72703 -0.00669
C 30.70807 19.157 0.03531
C 29.52689 19.9874 0.01836
C 26.95283 11.27409 0.04185
C 28.24304 10.60327 0.00194
C 28.34343 9.17633 -0.00621
C 27.05903 8.48149 0.02611
C 27.0117 7.08318 0.02198
C 28.18739 6.35079 0.01094
C 28.21165 4.9193 0.00235
C 27.02521 4.20545 0.01495
C 27.01537 2.79885 0.01259
C 28.2821 2.18636 0.01799
C 28.31708 0.79122 0.01699
C 31.973 25.60158 -0.01779
C 27.12764 0.00019 -0.00416
C 30.6696 31.94803 0.04266
C 30.6946 30.5088 0.01324
C 29.47826 29.78964 0.0014
C 29.58595 28.3833 0.00924
C 30.78039 27.69341 0.02326
C 30.74785 26.27464 0.00261
C 29.47566 25.60997 0.03265
C 29.47208 24.23788 -0.02049
C 30.70503 23.48261 -0.01854
C 30.70876 22.07607 -0.01415
C 29.47837 21.35088 -0.03039
C 29.55692 32.71611 0.01177
C 31.96638 24.13344 0.03794
C 33.17692 23.43706 0.01927
C 33.09314 21.99576 0.01574
C 34.40258 25.59095 -0.05239
C 34.42882 24.17331 0.03076
C 1.24428 23.38892 0.00723
C 1.20608 21.92538 0.02712
C 34.36508 21.29206 -0.02213
C 0.00638 19.87107 0.01951
C 1.18355 19.11115 -0.01678
C 1.16125 17.71731 0.01223
C 34.36705 17.01699 0.00648
C 0.0426 15.5751 0.02114
C 1.22717 14.85549 -0.02957
C 1.19487 26.26163 -0.00598
C 1.2157 13.41796 0.00343
C 0.00797 11.28402 -0.02442
C 1.25929 10.60373 -0.00027
C 1.24077 9.22208 -0.00583
C 0.06006 8.44263 -0.02302
C 34.40613 7.0267 -0.02849
C 1.2256 6.38573 0.02931
C 1.22979 4.97506 0.00628
C 0.01991 4.28389 -0.0345
C 34.37712 2.83061 -0.00931
C 1.14015 2.10278 -0.00939
C 1.18318 0.7203 -0.00468
C 0.00932 12.74526 -0.02656
C 27.10384 12.74141 0.02316
C 1.30357 27.68384 -0.00439
C 0.05455 29.84055 0.01831
C 31.83309 21.27005 -0.02383
C 31.93025 19.84692 -0.01429
C 33.18629 19.15262 -0.0136
C 33.20665 17.72232 0.00594
C 31.99409 16.94763 -0.02474
C 32.01764 15.55354 0.00369
C 33.26392 14.85003 0.00455
C 33.1928 13.4101 -0.00644
C 31.97924 12.7191 -0.01839
C 31.96799 11.34435 0.00137
C 33.20966 10.62043 0.00199
C 0.11058 28.36521 -0.01037
C 33.29627 9.15804 0.04381
C 31.98091 7.02135 0.01504
C 33.18051 6.33718 -0.00069
C 33.2489 4.94861 0.04926
C 32.01779 4.25848 -0.03838
C 31.98212 2.81292 0.00349
C 33.1957 2.14029 -0.00323
C 33.21644 0.74104 -0.00841
C 31.98564 34.05515 0.0001
C 0.09214 32.7321 -0.02927
C 1.31405 31.98339 -0.01404
C 1.25652 30.59186 0.01027
C 32.02348 8.47125 0.02806
C 19.70265 29.77131 -0.00066
C 28.2572 13.51291 0.01257
C 27.04898 15.60959 -0.00294
C 23.35447 31.95462 0.00654
C 23.36499 30.61239 -0.00703
C 22.13504 29.82077 -0.04076
C 22.11241 28.39659 -0.00652
C 23.35467 27.73482 0.0058
C 23.33444 26.32843 -0.00865
C 22.11682 25.56969 0.00675
C 22.21021 24.12203 -0.00311
C 23.38538 23.37773 0.00742
C 23.32719 22.00711 -0.01594
C 22.09159 21.28887 0.0106
C 22.13658 19.83382 -0.01154
C 23.38965 19.19848 -0.01721
C 23.45308 17.81236 -0.02422
C 22.12929 17.07362 0.01277
C 22.15888 15.66114 0.00096
C 23.34043 14.88528 -0.01527
C 23.28336 13.50216 0.01087
C 22.05097 12.76 0.00199
C 22.07849 11.34112 0.01511
C 23.31368 10.65176 -0.00478
C 23.36395 9.16897 -0.01662
C 22.08395 8.46943 -0.01185
C 22.1171 32.66531 -0.04422
C 19.63633 34.07684 -0.02957
C 20.8445 0.72817 -0.00831
C 20.87756 2.1086 0.00364
C 20.86353 27.66497 0.00028
C 20.87251 26.24242 -0.02213
C 19.64547 25.50835 0.03698
C 19.72162 24.08044 -0.00109
C 20.98566 23.4123 -0.00491
C 20.92528 21.9946 0.03338
C 19.65973 21.3269 -0.0258
C 19.76032 19.94182 -0.0331
C 20.94899 19.13538 -0.00316
C 20.86757 17.73113 0.02188
C 19.56127 17.02347 -0.01979
C 22.06841 7.07192 0.01126
C 19.67863 15.55846 0.02691
C 20.88223 13.51776 0.01452
C 19.66972 12.83747 0.04892
C 19.68657 11.39097 -0.00111
C 20.89023 10.62075 -0.03557
C 20.8233 9.18708 0.03754
C 19.6085 8.54856 0.01739
C 19.69875 7.13261 0.00755
C 20.85765 6.36538 -0.0054
C 20.9026 4.91111 0.00667
C 19.63187 4.24998 0.00143
C 19.63534 2.84112 -0.017
C 20.86123 14.92256 -0.01581
C 23.35558 6.43025 0.01852
C 23.36397 5.02033 -0.00381
C 22.15814 4.27864 0.03046
C 24.57058 7.03469 -0.00285
C 25.78533 6.36222 -0.009
C 25.80314 4.99424 -0.01199
C 24.62559 4.27375 -0.00229
C 24.57407 2.82241 -0.00938
C 25.85747 2.07744 -0.0264
C 25.85412 0.67228 -0.01154
C 24.64851 0.03195 0.00684
C 27.11382 32.70049 -0.01052
C 28.27974 31.96884 -0.01679
C 28.26944 30.49898 0.00367
C 24.58231 8.42055 0.01423
C 26.98827 29.76577 0.04306
C 28.35099 27.65649 0.00195
C 28.23431 26.25241 -0.00802
C 26.96431 25.57052 -0.00218
C 27.01287 24.18192 -0.01654
C 28.2294 23.45605 -0.00037
C 28.21878 21.96993 -0.0032
C 27.00699 21.25822 0.00622
C 26.97589 19.83883 -0.02815
C 28.29395 19.25055 -0.00942
C 28.28145 17.8046 0.00487
C 27.0637 17.07346 0.00826
C 27.09626 28.37718 0.00996
C 28.24764 14.98766 0.00152
C 25.82894 9.19707 0.02555
C 24.54384 11.42746 0.00135
C 22.15603 2.83214 0.0296
C 23.40463 2.1164 0.03374
C 23.34729 0.71168 -0.02845
C 22.101 0.02885 -0.03213
C 24.60323 32.6306 0.02239
C 25.8227 31.96307 0.01153
C 25.84192 30.56377 0.02734
C 24.56384 29.87311 -0.0055
C 24.58233 28.45671 0.01515
C 25.80337 27.72523 -0.00225
C 25.72896 26.26013 0.00071
C 25.69463 10.61062 0.03102
C 24.50039 25.57444 -0.01107
C 25.82392 23.45669 -0.01971
C 25.85081 22.0452 -0.02118
C 24.65244 21.28657 0.00733
C 24.58399 19.89763 -0.00178
C 25.81416 19.08855 0.00768
C 25.83036 17.65309 -0.0276
C 24.63453 17.02232 0.03005
C 24.60067 15.65303 -0.04078
C 25.84509 14.95202 0.02117
C 25.8878 13.54485 0.02737
C 24.59475 12.84558 -0.00498
C 24.56797 24.1387 -0.01586
C 2.51621 32.68944 -0.02419
