364
Graphene
C 34.34757 0.07199 0.01295
C 15.79394 30.58116 0.00052
C 14.60021 29.76368 -0.03682
C 14.42422 28.34554 0.01965
C 15.74712 27.77558 0.02058
C 15.95358 13.27205 -0.01957
C 14.77096 12.81797 -0.0108
C 14.84961 11.44965 -0.00368
C 16.09583 10.6436 -0.02696
C 15.77822 32.01425 0.00374
C 16.03711 9.22994 -0.00114
C 14.79418 7.07506 0.00798
C 15.93699 6.43937 0.00422
C 15.94341 5.00208 0.0351
C 14.63532 4.26265 -0.03113
C 14.67992 2.89824 0.02098
C 15.94729 2.10609 0.01848
C 15.94387 0.7053 -0.00619
C 14.65677 0.06045 -0.02162
C 14.77159 8.51393 0.00228
C 14.58546 32.72747 -0.02813
C 12.20747 34.03774 -0.01952
C 13.4464 0.65037 0.05265
C 11.03386 2.07831 0.02894
C 10.97846 0.63855 -0.01789
C 9.7842 0.02502 0.00444
C 12.18009 32.64672 -0.00925
C 13.44469 31.91003 0.01877
C 13.42585 30.51966 0.01363
C 12.22491 29.74858 -0.02162
C 12.51659 28.37846 0.00415
C 12.42589 12.78944 -0.0014
C 12.397 11.3599 0.02162
C 13.69645 10.65761 0.0076
C 13.59521 9.30494 0.01241
C 12.33258 8.61589 -0.01454
C 12.30269 7.23546 0.01945
C 13.53605 6.46187 0.01416
C 13.416 5.06784 0.03542
C 12.27211 4.30901 0.02299
C 12.23097 2.85547 0.00244
C 13.45156 2.08525 -0.01717
C 17.08861 32.60696 0.00889
C 18.29142 31.89991 -0.00481
C 18.41606 30.48529 0.00979
C 17.08187 29.91461 0.01443
C 20.81322 27.57128 -0.03557
C 20.68334 26.10191 0.03754
C 19.33738 25.33939 0.01739
C 19.54313 24.04414 0.00755
C 20.61682 23.13734 -0.0054
C 20.91344 21.77122 0.00667
C 20.35978 16.83775 0.00143
C 19.54622 15.72309 -0.017
C 20.77717 14.92704 0.00364
C 21.03419 13.5506 -0.00831
C 19.7499 12.81094 -0.02957
C 19.7969 11.35478 -0.04422
C 21.0251 10.6113 0.00654
C 20.97348 9.17406 -0.00703
C 19.81509 8.48687 -0.04076
C 19.72273 7.12599 -0.00652
C 20.94648 6.33345 0.0058
C 20.91617 4.89615 -0.00865
C 19.69201 4.24536 0.00675
C 19.57847 28.33951 -0.00111
C 9.85835 2.94046 -0.02971
C 19.559 29.73748 0.04892
C 20.7956 31.89947 -0.01581
C 17.0044 28.43961 0.03505
C 18.21693 27.71951 -0.02815
C 18.10348 26.35267 -0.04147
C 18.62227 14.85457 -0.05302
C 18.50331 13.45037 0.00213
C 17.26668 12.75969 -0.00066
C 17.30548 11.30091 -0.00289
C 18.58485 10.59339 0.00028
C 18.5348 9.15507 -0.02213
C 17.25952 8.45339 0.03698
C 17.16016 7.06085 -0.00109
C 18.41759 6.38122 -0.00491
C 18.39215 4.9516 0.03338
C 17.19938 4.21117 -0.0258
C 17.15775 2.78451 -0.0331
C 18.39367 2.09913 -0.00316
C 18.45596 0.60553 0.02188
C 17.24673 34.0236 -0.01979
C 19.58142 32.51039 0.02691
C 20.83572 30.4258 0.01452
C 19.59786 2.85387 -0.00311
C 9.80005 4.38575 0.00165
C 11.04392 6.48565 -0.00891
C 3.69664 6.49598 -0.01303
C 3.64487 5.06674 -0.01378
C 2.41279 4.31655 0.02635
C 2.35325 2.96408 0.0127
C 3.57978 2.20465 0.01396
C 3.60403 0.79588 0.01849
C 2.37797 0.08531 -0.01142
C 4.71787 32.73774 -0.00562
C 2.45316 7.15587 0.00848
C 6.02807 32.00617 -0.00494
C 4.8373 29.89174 0.03007
C 4.90304 28.47812 -0.00095
C 6.13245 27.78341 0.01572
C 6.1815 26.30131 -0.04848
C 4.96348 25.71763 -0.00892
C 4.85359 24.33309 -0.01362
C 4.87606 17.08851 -0.0008
C 5.03689 15.71887 0.0288
C 6.0907 30.62694 0.00054
C 2.36208 8.53662 -0.00049
C 3.63136 9.33347 0.00873
C 3.67795 10.7023 0.01227
C 3.60002 30.65359 0.0086
C 2.30026 29.92861 -0.00643
C 2.31333 28.54375 0.017
C 3.59455 27.7919 -0.03113
C 3.64217 26.4236 -0.02566
C 2.47581 25.61797 -0.00094
C 2.53858 24.06201 0.02322
C 3.87695 23.28973 -0.00725
C 3.68642 21.96578 -0.05697
C 2.39114 21.40203 0.01087
C 2.40461 19.98314 -0.01343
C 3.69902 19.4226 0.00988
C 3.88924 18.02691 0.0276
C 2.55093 17.18106 0.01305
C 2.53595 15.76516 -0.00077
C 3.67538 14.93206 0.03368
C 3.66399 13.48815 -0.02929
C 2.41867 12.82827 -0.00966
C 2.36155 11.39396 -0.03337
C 6.23751 14.99543 0.00393
C 6.17503 13.56325 0.00895
C 4.90814 12.83798 0.00685
C 4.92621 11.39198 0.02888
C 7.41246 7.18806 -0.01062
C 8.59018 6.46727 -0.00033
C 8.5619 5.05286 0.03589
C 7.33766 4.35869 -0.02759
C 7.35948 2.91664 0.0402
C 8.61537 2.2325 0.00572
C 8.54517 0.77148 0.03592
C 7.32401 0.11641 0.00406
C 9.73641 32.70457 0.00943
C 10.97994 31.97245 0.02841
C 11.04697 30.4938 -0.01111
C 9.70826 29.96008 -0.01275
C 9.624 28.56009 0.00985
C 9.69155 12.86517 -0.02245
C 9.9288 11.49413 -0.00428
C 11.16889 10.78392 0.03101
C 11.09392 9.37046 -0.01536
C 9.83722 8.65247 -0.02689
C 9.83948 7.27663 -0.01046
C 7.38282 8.57115 0.01364
C 11.06608 5.05992 0.02819
C 8.62983 9.33202 -0.00719
C 7.38261 11.36087 0.02339
C 6.13238 10.6778 -0.00482
C 6.14974 9.24222 -0.01384
C 4.89175 8.63584 0.03693
C 4.88579 7.1802 0.01745
C 6.09501 6.46662 0.00488
C 6.06071 5.04904 -0.01004
C 4.87467 4.32747 -0.02896
C 4.82447 2.91817 -0.00131
C 6.07598 2.19783 -0.01118
C 6.12976 0.79378 -0.014
C 4.86706 0.08364 0.02147
C 7.2471 32.79399 0.00373
C 8.47794 32.04667 -0.00191
C 8.5162 30.6496 0.00438
C 7.28895 29.91084 0.01291
C 7.30807 28.43512 0.00093
C 8.66186 27.89792 0.00057
C 8.67641 13.35107 -0.01634
C 7.38093 12.76673 -0.00334
C 8.6114 10.77514 0.01641
C 20.79984 2.05131 0.00742
C 20.81428 0.60301 -0.01594
C 19.62655 33.9205 0.0106
C 29.42029 0.03927 0.00346
C 31.81368 32.63188 0.01713
C 33.0504 31.97022 -0.01694
C 33.06709 30.57957 0.01428
C 31.82931 29.85802 -0.02142
C 31.86189 28.42561 0.0544
C 33.05331 27.75933 0.00026
C 33.09262 26.27998 0.00682
C 30.75101 0.73113 0.00307
C 31.87488 25.58334 -0.01779
C 33.15897 23.47691 0.01927
C 33.13669 22.05718 0.01574
C 31.88676 21.39824 -0.02383
C 31.84804 19.9322 -0.01429
C 33.06108 19.23035 -0.0136
C 33.16088 17.82018 0.00594
C 31.92462 17.04272 -0.02474
C 32.04986 15.61074 0.00369
C 31.92693 24.16827 0.03794
C 30.70105 2.18555 0.00716
C 29.49016 2.87671 0.02108
C 29.47188 4.28757 0.0103
C 29.42904 24.16717 -0.02049
C 30.66563 23.48287 -0.01854
C 30.61419 22.06173 -0.01415
C 29.47785 21.24009 -0.03039
C 29.45153 19.78443 0.01836
C 30.63244 19.16843 0.03531
C 30.66532 17.76336 -0.00669
C 29.45711 17.047 0.0101
C 29.55746 15.64967 0.01705
C 30.83263 14.93849 -0.0405
C 30.77073 13.5303 -0.01303
C 29.58406 12.78492 -0.01461
C 29.53152 11.30686 -0.02155
C 30.75204 10.66511 -0.00944
C 30.67647 9.30469 -0.03735
C 29.46242 8.55158 -0.00971
C 29.50148 7.05249 0.01518
C 30.76379 6.43855 0.01908
C 30.77173 4.95451 0.07705
C 33.32933 14.93912 0.00455
C 33.25433 13.55761 -0.00644
C 31.96687 12.89548 -0.01839
C 31.97385 11.37696 0.00137
C 34.31909 19.93747 0.01951
C 1.18601 19.1906 -0.01678
C 1.25434 17.7739 0.01223
C 0.03781 17.10828 0.00648
C 0.06516 15.77312 0.02114
C 1.28324 15.07016 -0.02957
C 1.25061 13.68511 0.00343
C 0.00951 12.88862 -0.02656
C 0.00743 11.52038 -0.02442
C 1.13883 10.66576 -0.00027
C 1.22021 9.25527 -0.00583
C 0.01842 8.558 -0.02302
C 0.06375 7.14436 -0.02849
C 1.209 6.47453 0.02931
C 1.18869 5.05042 0.00628
C 34.39232 4.30979 -0.0345
C 34.32827 2.87345 -0.00931
C 1.17371 2.2594 -0.00939
C 1.1228 0.80634 -0.00468
C 34.31596 21.36584 -0.02213
C 29.36009 25.60308 0.03265
C 1.13644 21.99393 0.02712
C 34.33191 24.14089 0.03076
C 33.19616 10.7519 0.00199
C 33.1833 9.28274 0.04381
C 31.91979 8.59468 0.02806
C 31.96717 7.17246 0.01504
C 33.24729 6.47958 -0.00069
C 33.2578 5.03387 0.04926
C 32.0234 4.28865 -0.03838
C 31.91243 2.8526 0.00349
C 33.0695 2.14582 -0.00323
C 33.1237 0.69245 -0.00841
C 31.94438 34.04538 0.0001
C 34.31537 32.73788 -0.02927
C 1.18389 32.04996 -0.01404
C 1.11744 30.66199 0.01027
C 34.26539 29.93643 0.01831
C 34.25468 28.54196 -0.01037
C 1.12828 27.71135 -0.00439
C 1.21985 26.27421 -0.00598
C 34.37173 25.60594 -0.05239
C 1.26293 23.4726 0.00723
C 30.60455 26.31102 0.00261
C 30.58931 27.71921 0.02326
C 29.30992 28.3903 0.00924
C 23.2432 2.07651 -0.0055
C 23.28831 0.71129 0.01515
C 21.98089 0.0179 -0.00225
C 24.47353 32.67565 0.00071
C 25.74012 31.95084 -0.01107
C 25.74736 30.52987 -0.01586
C 24.47524 29.7986 -0.01971
C 24.40283 28.35004 -0.02118
C 25.62765 27.6445 0.00733
C 25.60209 26.23241 -0.00178
C 24.3842 25.46255 0.00768
C 24.44858 24.08236 -0.0276
C 25.69347 23.37491 0.03005
C 25.74086 21.92468 -0.04078
C 24.63356 21.20729 0.02117
C 25.99951 14.94479 0.02737
C 25.92447 13.56224 -0.00498
C 24.63489 12.86347 0.00135
C 24.64183 11.41082 0.03102
C 22.01735 2.79343 0.02734
C 25.83158 10.6314 0.02555
C 22.0992 4.2404 0.01153
C 23.37754 6.36907 -0.03213
C 22.07396 32.64205 -0.01154
C 23.24486 31.9108 -0.01721
C 23.2141 30.49478 -0.02422
C 22.0495 29.77533 0.01277
C 21.98733 28.38584 0.00096
C 23.21715 27.53125 -0.01527
C 23.18294 26.07509 0.01087
C 21.94022 25.35937 0.00199
C 21.8821 23.9426 0.01511
C 23.28571 23.21237 -0.00478
C 23.35397 21.6595 -0.01662
C 22.02294 21.29192 -0.01185
C 23.40846 13.52436 0.01126
C 22.17415 12.80857 0.01852
C 22.13666 11.36939 -0.00381
C 23.39497 10.66901 0.03046
C 23.34806 9.29578 0.0296
C 22.18974 8.4695 0.03374
C 22.16354 7.07782 -0.02845
C 23.35014 4.94184 0.02239
C 3.56983 32.00986 -0.00518
C 25.80296 9.25401 0.01423
C 24.63575 7.14146 -0.009
C 28.37413 14.93242 0.00152
C 28.35475 13.52899 0.01257
C 27.09559 12.75478 0.02316
C 27.10989 11.35873 0.04185
C 28.26765 10.62572 0.00194
C 28.3256 9.23195 -0.00621
C 27.04872 8.52676 0.02611
C 27.09357 7.00459 0.02198
C 28.28998 6.31213 0.01094
C 28.29955 4.91634 0.00235
C 27.06592 4.18831 0.01495
C 26.94159 2.74489 0.01259
C 28.27744 2.07995 0.01799
C 28.16146 0.70255 0.01699
C 26.97254 34.05727 -0.00416
C 29.40526 32.73157 0.01177
C 30.65 31.88529 0.04266
C 30.61965 30.536 0.01324
C 29.40776 29.79781 0.0014
C 27.20956 15.73302 -0.00294
C 24.5593 8.55629 -0.00285
C 28.06182 17.5317 0.00826
C 26.88518 19.75032 -0.00942
C 25.86838 6.3643 -0.01199
C 25.73929 4.92685 -0.00229
C 24.60936 4.19702 -0.00938
C 24.43282 2.73026 -0.0264
C 25.76061 2.03144 -0.01154
C 25.73857 0.62263 0.00684
C 24.55366 34.02514 -0.01052
C 27.01758 32.6441 -0.01679
C 28.17904 31.97776 0.00367
C 28.19682 30.51381 0.04306
C 26.96643 29.77052 0.00996
C 26.86566 28.40064 0.00195
C 28.11652 27.68833 -0.00802
C 28.07355 26.30539 -0.00218
C 26.83918 25.54445 -0.01654
C 26.90204 24.08836 -0.00037
C 28.2358 23.42693 -0.0032
C 28.22207 21.91104 0.00622
C 26.98271 21.18314 -0.02815
C 27.9623 18.95016 0.00487
C 2.34187 32.75731 -0.00074
