309
Graphene
C 0.02261 0.01655 0.01295
C 12.28754 34.0584 0.02188
C 14.68789 32.67186 -0.01979
C 15.96913 31.93816 0.02691
C 16.07786 30.62947 -0.01581
C 14.9038 11.38942 0.01452
C 15.91201 10.68972 0.04892
C 15.93245 9.15328 -0.00111
C 14.74232 8.43237 -0.03557
C 14.71284 6.9548 0.03754
C 15.98223 6.34646 0.01739
C 16.02587 4.95773 0.00755
C 14.7863 4.24038 -0.0054
C 14.76055 2.77359 0.00667
C 15.97424 2.15528 0.00143
C 15.98367 0.68555 -0.017
C 13.55085 0.61653 -0.00316
C 14.74747 0.02433 0.00364
C 13.55567 2.0551 -0.0331
C 12.39043 4.16694 0.03338
C 11.08191 0.69081 -0.00481
C 9.86534 34.07684 0.00979
C 12.25476 32.50076 0.01443
C 13.56924 32.05453 0.03505
C 12.39707 15.60021 -0.02815
C 13.35114 14.9299 -0.04147
C 13.56365 13.6667 -0.05302
C 12.40165 12.85561 0.00213
C 12.34839 11.38184 -0.00066
C 13.6203 10.7187 -0.00289
C 13.50431 9.27828 0.00028
C 12.25883 8.59736 -0.02213
C 12.27553 7.16214 0.03698
C 13.44788 6.42837 -0.00109
C 13.54011 4.94257 -0.00491
C 12.28245 2.7422 -0.0258
C 17.24557 32.64577 -0.00831
C 18.50355 31.93295 -0.02957
C 18.55601 30.56103 -0.04422
C 20.90648 26.0366 -0.00478
C 19.60281 25.74117 -0.01662
C 20.83784 9.04589 -0.01185
C 19.57449 8.56017 0.01126
C 19.6966 7.04843 0.01852
C 20.89902 6.39207 -0.00381
C 20.94438 4.98792 0.03046
C 19.66565 4.36729 0.0296
C 19.64457 2.93066 0.03374
C 20.82675 2.16603 -0.02845
C 20.88545 0.70916 -0.03213
C 19.64125 34.03121 0.02239
C 22.11978 32.66376 0.01153
C 23.36312 31.95375 0.02734
C 23.35857 30.50062 -0.0055
C 20.91657 27.67274 0.01511
C 19.68874 28.40279 0.00199
C 19.72114 29.8222 0.01087
C 20.93699 30.59361 -0.01527
C 17.20567 29.74029 0.00654
C 17.34387 28.42387 -0.00703
C 18.34238 27.63943 -0.04076
C 18.44782 26.22496 -0.00652
C 18.34312 9.13603 0.0058
C 17.19443 8.46063 -0.00865
C 17.17673 7.03541 0.00675
C 11.04382 2.10265 0.00889
C 18.47256 6.3559 -0.00311
C 17.2285 4.32622 -0.01594
C 17.17734 2.90814 0.0106
C 18.38706 2.20274 -0.01154
C 18.44317 0.75476 -0.01721
C 17.24673 0.0213 -0.02422
C 19.71077 32.68054 0.01277
C 20.96872 32.00801 0.00096
C 18.43381 4.96674 0.00742
C 9.83147 2.84942 -0.02162
C 9.86156 4.27199 -0.00619
C 11.12871 4.94897 0.01848
C 2.49048 2.85147 0.00406
C 3.69006 2.17207 0.00943
C 3.7173 0.70946 0.02841
C 2.4886 0.02503 -0.01111
C 4.8844 32.66797 -0.01275
C 5.99482 31.96124 0.00985
C 4.887 29.90565 -0.02245
C 4.78492 16.96485 -0.00428
C 4.94073 15.64709 0.03101
C 6.14618 14.90163 -0.01536
C 6.19306 13.43089 -0.02689
C 4.91087 12.70745 -0.01046
C 4.86785 11.32687 -0.00891
C 6.13297 10.66491 0.02819
C 6.11537 9.21112 0.00165
C 2.49036 4.26555 0.03592
C 3.71121 5.02011 0.00572
C 3.70496 6.39297 0.0402
C 2.41395 7.10253 -0.02759
C 3.73585 30.5641 0.02147
C 2.45485 29.81714 0.00373
C 2.37498 28.4696 -0.00191
C 2.41044 21.24448 0.00438
C 2.47552 19.86213 0.01291
C 3.5764 19.19374 0.00093
C 3.71762 17.87812 0.00057
C 4.87226 8.50593 -0.02971
C 2.43212 17.05026 -0.01634
C 3.6878 14.92659 0.02339
C 3.73406 13.46929 0.01641
C 2.46195 12.84638 -0.00719
C 2.44249 11.45363 0.01364
C 3.62893 10.65833 -0.01062
C 3.65992 9.2813 -0.00033
C 2.47072 8.52051 0.03589
C 2.44356 15.65248 -0.00334
C 22.10763 29.82539 0.01515
C 4.9015 7.13914 0.02894
C 6.20969 4.9845 0.00444
C 8.67351 2.14508 0.00052
C 8.56913 0.69685 -0.03682
C 7.40868 34.05181 0.01965
C 9.76435 32.59315 0.02058
C 11.01342 32.22155 -0.01957
C 9.8467 15.54082 -0.0108
C 11.0335 14.9868 -0.00368
C 11.13957 13.51025 -0.02696
C 9.90034 12.71345 -0.00114
C 9.82403 11.23131 0.00228
C 11.06954 10.62297 0.00798
C 11.09385 9.20864 0.00422
C 9.74249 8.54527 0.0351
C 9.8262 7.17846 -0.03113
C 11.06292 6.4277 0.02098
C 7.34895 2.75906 0.00374
C 7.43161 4.26806 -0.02813
C 8.64838 5.00373 -0.01952
C 8.56642 6.41333 0.05265
C 4.99053 4.30263 -0.00925
C 4.90713 2.85042 0.01877
C 6.09712 2.09395 0.01363
C 6.18919 0.68365 -0.02162
C 4.94312 0.01933 0.00415
C 7.297 32.53063 -0.0014
C 8.51712 31.99223 0.02162
C 6.15859 6.34964 -0.01789
C 7.33575 15.57342 0.0076
C 8.7104 13.5027 -0.01454
C 7.47207 12.79897 0.01945
C 7.41027 11.31328 0.01416
C 8.56943 10.58727 0.03542
C 8.45203 9.16308 0.02299
C 7.29265 8.47116 0.00244
C 7.37395 7.11278 -0.01717
C 8.6231 15.00273 0.01241
C 3.67175 31.98791 -0.014
C 22.11032 28.42361 -0.00225
C 23.33224 26.25255 -0.01107
C 33.10787 23.47931 0.01927
C 33.24424 22.07019 0.01574
C 31.93646 21.33335 -0.02383
C 31.9383 19.89969 -0.01429
C 33.1691 19.20046 -0.0136
C 33.24027 17.78469 0.00594
C 31.97494 17.05904 -0.02474
C 31.92113 15.66343 0.00369
C 33.16533 14.95105 0.00455
C 33.20072 13.52348 -0.00644
C 31.9997 12.86747 -0.01839
C 31.93717 11.50129 0.00137
C 33.19042 10.76404 0.00199
C 33.19328 9.31675 0.04381
C 31.92177 8.61739 0.02806
C 31.91204 24.1331 0.03794
C 31.94116 7.13148 0.01504
C 31.8964 25.5534 -0.01779
C 33.17943 27.68914 0.00026
C 30.69877 9.23703 -0.03735
C 29.46972 8.59815 -0.00971
C 29.39831 7.1599 0.01518
C 30.65909 6.44304 0.01908
C 30.65958 5.01292 0.07705
C 29.51863 4.24199 0.0103
C 29.49568 2.81106 0.02108
C 30.77535 2.17829 0.00716
C 30.77238 0.76465 0.00307
C 29.47459 0.06783 0.00346
C 31.97011 32.58733 0.01713
C 33.22209 31.92358 -0.01694
C 33.21373 30.53088 0.01428
C 31.95713 29.83539 -0.02142
C 31.968 28.40734 0.0544
C 33.1395 26.29601 0.00682
C 33.14998 6.37403 -0.00069
C 33.20969 4.94417 0.04926
C 31.89679 4.32491 -0.03838
C 0.00821 15.66477 0.02114
C 1.204 14.94093 -0.02957
C 1.24723 13.50978 0.00343
C 0.01195 12.83969 -0.02656
C 0.01076 11.38051 -0.02442
C 1.24522 10.68653 -0.00027
C 1.23063 9.26677 -0.00583
C 34.39629 8.58352 -0.02302
C 34.3587 7.12133 -0.02849
C 1.17827 6.44521 0.02931
C 1.20932 5.00416 0.00628
C 34.42034 4.23236 -0.0345
C 0.07266 2.79234 -0.00931
C 1.24522 2.08307 -0.00939
C 1.24443 0.70305 -0.00468
C 34.41713 17.09311 0.00648
C 1.21214 17.7902 0.01223
C 1.1502 19.13372 -0.01678
C 0.00195 19.87754 0.01951
C 31.96318 2.8835 0.00349
C 33.20697 2.13598 -0.00323
C 33.21491 0.69509 -0.00841
C 31.9606 33.98911 0.0001
C 0.02525 32.7009 -0.02927
C 1.21289 31.92404 -0.01404
C 1.19994 30.5595 0.01027
C 30.7713 10.71134 -0.00944
C 0.01755 29.81772 0.01831
C 1.3214 27.6569 -0.00439
C 1.03458 26.2448 -0.00598
C 34.33917 25.58094 -0.05239
C 34.39342 24.15585 0.03076
C 1.09566 23.42929 0.00723
C 1.39184 22.03049 0.02712
C 0.03067 21.29889 -0.02213
C 0.00329 28.33218 -0.01037
C 29.48221 11.32946 -0.02155
C 29.46148 12.76433 -0.01461
C 30.72466 13.51164 -0.01303
C 25.78441 23.52685 -0.00938
C 25.88438 10.65406 -0.0264
C 25.75353 9.22518 -0.01154
C 24.59844 8.50505 0.00684
C 24.5396 7.11845 -0.01052
C 25.70423 6.43389 -0.01679
C 25.83198 5.03422 0.00367
C 24.54444 4.30485 0.04306
C 24.57377 2.91068 0.00996
C 25.8198 2.16001 0.00195
C 25.86339 0.71663 -0.00802
C 24.57634 0.02342 -0.00218
C 27.01678 32.6086 -0.01654
C 28.27318 31.97341 -0.00037
C 28.25921 30.51483 -0.0032
C 24.79687 24.11976 -0.00229
C 24.5374 25.52915 -0.01199
C 25.84455 26.22083 -0.009
C 25.81679 27.65394 -0.00285
C 22.13986 25.58278 -0.01586
C 23.42637 9.20337 -0.01971
C 22.13544 8.59836 -0.02118
C 22.17224 7.08272 0.00733
C 23.30953 6.41297 -0.00178
C 23.35291 4.94267 0.00768
C 22.09845 4.24597 -0.0276
C 27.04635 29.89118 0.00622
C 22.04794 2.81523 0.03005
C 23.39218 0.76881 0.02117
C 22.13658 0.00959 0.02737
C 24.50525 32.67343 -0.00498
C 25.7549 31.96836 0.00135
C 25.77875 30.59365 0.03102
C 24.61973 29.82555 0.02555
C 24.58812 28.33686 0.01423
C 23.34606 2.21173 -0.04078
C 23.33518 27.66499 0.00071
C 27.03632 28.46354 -0.02815
C 28.28012 26.26698 0.00487
C 29.50155 29.83463 0.0014
C 29.54181 28.41279 0.00924
C 30.74185 27.71807 0.02326
C 30.72787 26.24545 0.00261
C 29.4648 25.53651 0.03265
C 29.44359 24.15824 -0.02049
C 30.66417 23.46111 -0.01854
C 30.78468 22.03282 -0.01415
C 29.43851 21.15969 -0.03039
C 29.50637 19.82436 0.01836
C 30.7038 19.15904 0.03531
C 30.68614 17.75609 -0.00669
C 29.63922 16.80048 0.0101
C 29.38391 15.64816 0.01705
C 30.61221 14.91094 -0.0405
C 30.7232 30.47928 0.01324
C 30.66493 31.92617 0.04266
C 29.51962 32.68039 0.01177
C 27.03525 34.0441 -0.00416
C 27.05948 25.53647 0.00826
C 27.09526 24.07224 -0.00294
C 28.26884 23.31631 0.00152
C 28.35092 21.94806 0.01257
C 28.28749 13.37192 0.02316
C 26.93448 11.25137 0.04185
C 28.25425 10.71475 0.00194
C 28.30173 27.71506 -0.00942
C 28.19953 9.26743 -0.00621
C 27.02254 7.09834 0.02198
C 28.19322 6.35567 0.01094
C 28.2257 4.91226 0.00235
C 27.027 4.24514 0.01495
C 27.05761 2.82976 0.01259
C 28.27955 2.1301 0.01799
C 28.26915 0.73115 0.01699
C 26.99832 8.5252 0.02611
C 2.42581 32.70794 -0.01118
