310
Graphene
C 34.40011 34.06966 0.01295
C 11.10335 2.0127 -0.00316
C 11.09411 0.63574 0.02188
C 9.89462 34.0313 -0.01979
C 12.31988 32.62196 0.02691
C 13.62552 32.15675 -0.01581
C 12.2384 15.59898 0.01452
C 13.45946 14.96255 0.04892
C 13.50636 13.568 -0.00111
C 12.26159 12.82323 -0.03557
C 12.2447 11.4097 0.03754
C 13.48506 10.70378 0.01739
C 13.50787 9.18396 0.00755
C 12.25298 8.46488 -0.0054
C 12.27993 7.07704 0.00667
C 13.47746 6.48677 0.00143
C 9.88599 2.85916 -0.0331
C 13.51899 4.95705 -0.017
C 9.8227 4.30231 -0.0258
C 11.08687 6.34677 -0.00491
C 8.58243 2.12335 0.00889
C 8.61724 0.71268 -0.00481
C 7.31479 34.04379 0.00979
C 9.75163 32.60765 0.01443
C 10.9984 32.00567 0.03505
C 9.58373 17.06125 -0.02815
C 9.88921 15.68175 -0.04147
C 11.06776 14.92625 -0.05302
C 11.05268 13.53058 0.00213
C 9.82915 12.83492 -0.00066
C 9.88617 11.36703 -0.00289
C 11.05129 10.63936 0.00028
C 11.02882 9.20157 -0.02213
C 9.8083 8.40886 0.03698
C 9.79225 7.0481 -0.00109
C 11.12978 5.00404 0.03338
C 12.34645 4.23622 0.00364
C 12.30958 2.81151 -0.00831
C 13.58781 2.04263 -0.02957
C 17.31721 16.8773 0.01511
C 17.10185 15.56032 -0.00478
C 18.35735 14.88575 -0.01662
C 18.43687 13.51293 -0.01185
C 17.26594 12.7625 0.01126
C 17.29987 11.37167 0.01852
C 18.57097 10.52755 -0.00381
C 18.32669 9.17308 0.03046
C 17.18234 8.39939 0.0296
C 17.26448 6.94992 0.03374
C 18.47343 5.14461 -0.02845
C 17.27596 4.45021 -0.03213
C 17.15278 2.97024 0.02239
C 18.08659 2.12852 0.01153
C 18.36653 0.71408 0.02734
C 18.20097 17.60092 0.00199
C 14.81417 34.07273 0.01087
C 16.04089 0.77816 -0.01527
C 15.8899 2.16153 0.00096
C 13.56593 0.6255 -0.04422
C 12.36991 33.99407 0.00654
C 14.78776 32.66659 -0.00703
C 14.74883 15.43607 -0.04076
C 15.91983 14.78943 -0.00652
C 15.96645 13.37997 0.0058
C 14.73994 12.73872 -0.00865
C 7.32786 2.80803 -0.02162
C 14.6843 11.29911 0.00675
C 15.98497 9.16876 0.00742
C 14.70246 8.54122 -0.01594
C 14.71974 7.14112 0.0106
C 16.00028 6.45253 -0.01154
C 15.99475 5.03649 -0.01721
C 14.79328 4.31028 -0.02422
C 14.68891 2.86306 0.01277
C 16.01094 10.61368 -0.00311
C 7.36644 4.2337 -0.00619
C 8.56456 4.98669 0.01848
C 8.57027 6.3159 0.02098
C 3.64356 9.25892 0.03592
C 2.44803 8.55109 0.00406
C 2.39568 7.14839 0.00943
C 3.62923 6.41534 0.02841
C 3.62509 5.00096 -0.01111
C 2.37178 4.26935 -0.01275
C 2.44449 2.77582 0.00985
C 3.6278 2.01932 -0.02245
C 3.71755 0.60573 -0.00428
C 2.50095 34.01326 0.03101
C 4.94309 32.5665 -0.01536
C 6.11517 31.82812 -0.02689
C 6.00899 30.43615 -0.01046
C 4.81224 29.74808 -0.00891
C 4.89511 28.28297 0.02819
C 3.66713 10.636 0.00572
C 2.45728 11.33969 0.0402
C 2.47706 12.80307 -0.02759
C 3.72354 13.47603 0.03589
C 3.62024 30.4966 -0.014
C 2.40168 29.76494 0.02147
C 2.36122 28.35301 0.00373
C 3.6116 27.63592 -0.00191
C 3.60891 26.32744 0.00438
C 2.46605 25.53486 0.01291
C 2.45128 24.13975 0.00093
C 6.13278 27.58786 0.00165
C 3.67501 23.48934 0.00057
C 2.48225 21.37502 -0.00334
C 2.55507 20.01457 0.02339
C 3.77572 19.22313 0.01641
C 3.7347 17.78599 -0.00719
C 2.45524 17.10676 0.01364
C 2.46236 15.66572 -0.01062
C 3.69698 14.92843 -0.00033
C 3.71208 22.01398 -0.01634
C 17.14559 0.0827 -0.0055
C 4.93178 25.56854 -0.02971
C 5.02041 21.46405 -0.01789
C 7.25411 32.60276 0.00374
C 8.57431 31.8971 0.00052
C 8.37325 30.38735 -0.03682
C 7.30982 29.7772 0.01965
C 8.63331 17.73205 0.02058
C 7.324 17.09614 -0.01957
C 7.41885 15.67714 -0.0108
C 8.61913 15.02369 -0.00368
C 8.67226 13.58727 -0.02696
C 7.45183 12.81293 -0.00114
C 7.43398 11.35761 0.00228
C 8.60127 10.62954 0.00798
C 8.63646 9.23076 0.00422
C 7.34431 8.52093 0.0351
C 7.36463 7.10078 -0.03113
C 4.94091 34.03006 -0.02813
C 6.10103 0.63414 -0.01952
C 6.12264 2.13767 0.05265
C 4.91648 2.84454 -0.01717
C 5.05181 20.08224 0.00444
C 6.01753 19.09562 -0.00925
C 6.07708 17.74885 0.01877
C 4.93933 17.027 0.01363
C 4.9319 15.65241 -0.02162
C 6.1653 14.94116 0.00415
C 6.205 13.57786 -0.0014
C 4.81447 24.41592 0.02894
C 4.94342 12.85219 0.02162
C 6.16974 10.62527 0.01241
C 6.14812 9.16834 -0.01454
C 4.86459 8.56081 0.01945
C 4.85556 7.04794 0.01416
C 6.12321 6.3988 0.03542
C 6.11198 4.99011 0.02299
C 4.86777 4.21908 0.00244
C 4.87042 11.40501 0.0076
C 20.83507 19.07914 0.01515
C 20.88309 17.76566 -0.00225
C 19.63936 17.03567 0.00071
C 33.14759 23.44889 0.01927
C 33.16153 22.03406 0.01574
C 31.91905 21.35942 -0.02383
C 31.93776 19.93325 -0.01429
C 33.14201 19.25811 -0.0136
C 33.16657 17.86291 0.00594
C 31.89401 17.09405 -0.02474
C 31.91661 15.72706 0.00369
C 33.18169 15.02208 0.00455
C 33.16543 13.66224 -0.00644
C 31.95261 12.95059 -0.01839
C 31.92802 11.53371 0.00137
C 33.11524 10.85787 0.00199
C 33.13743 9.41492 0.04381
C 31.99574 8.58231 0.02806
C 31.861 24.12378 0.03794
C 31.89332 25.58226 -0.01779
C 33.18337 26.24408 0.00682
C 33.1381 27.64008 0.00026
C 30.72438 19.20891 -0.00944
C 30.65773 17.77441 -0.03735
C 29.48563 17.02476 -0.00971
C 29.45202 15.59719 0.01518
C 30.72209 15.02293 0.01908
C 30.68887 13.5713 0.07705
C 29.56855 12.69368 0.0103
C 32.03149 7.3732 0.01504
C 30.48948 11.14266 0.02108
C 30.81018 0.80152 0.00307
C 29.54356 0.00625 0.00346
C 31.96289 32.67092 0.01713
C 33.13515 31.91998 -0.01694
C 33.11402 30.51149 0.01428
C 31.86431 29.84407 -0.02142
C 31.8078 28.38423 0.0544
C 30.68048 2.10169 0.00716
C 29.46934 19.83246 -0.02155
C 33.12167 6.51683 -0.00069
C 32.07282 4.22369 -0.03838
C 34.37169 15.76104 0.02114
C 1.20384 14.99788 -0.02957
C 1.26455 13.55287 0.00343
C 0.00082 12.96096 -0.02656
C 34.39504 11.50189 -0.02442
C 1.16914 10.7542 -0.00027
C 1.19492 9.28945 -0.00583
C 34.39781 8.61579 -0.02302
C 34.30901 7.18786 -0.02849
C 1.04264 6.44333 0.02931
C 1.14798 5.00223 0.00628
C 34.33374 4.34267 -0.0345
C 34.41615 2.94427 -0.00931
C 1.19328 2.10094 -0.00939
C 1.19332 0.65534 -0.00468
C 34.40243 17.17561 0.00648
C 1.2562 17.79052 0.01223
C 1.27098 19.23981 -0.01678
C 34.40784 19.94613 0.01951
C 31.90462 2.94093 0.00349
C 33.13514 2.1943 -0.00323
C 33.16713 0.7633 -0.00841
C 31.9736 0.00306 0.0001
C 34.39487 32.63123 -0.02927
C 1.25311 31.87748 -0.01404
C 1.18145 30.4944 0.01027
C 33.13067 5.04403 0.04926
C 34.35034 29.85951 0.01831
C 1.0907 27.69816 -0.00439
C 1.18545 26.22078 -0.00598
C 34.3929 25.60041 -0.05239
C 34.40126 24.20587 0.03076
C 1.23271 23.45658 0.00723
C 1.22323 22.08598 0.02712
C 34.39036 21.3703 -0.02213
C 34.34768 28.41665 -0.01037
C 3.63799 31.91986 -0.01118
C 29.48139 21.29453 -0.01461
C 30.69303 23.39696 -0.0405
C 22.09225 15.63238 -0.00229
C 23.31375 14.8098 -0.00938
C 23.09705 13.47834 -0.0264
C 22.05747 33.91835 -0.01154
C 24.67065 32.76967 0.00684
C 25.79544 31.90168 -0.01052
C 25.74778 30.56287 -0.01679
C 24.49414 29.76943 0.00367
C 24.51781 28.37172 0.04306
C 25.69973 27.69314 0.00996
C 25.67537 26.30206 0.00195
C 24.55067 25.49262 -0.00802
C 24.63286 24.08208 -0.00218
C 25.76888 23.37607 -0.01654
C 25.73775 21.96796 -0.00037
C 22.13218 17.06076 -0.01199
C 23.24413 17.77641 -0.009
C 23.18825 19.24081 -0.00285
C 21.89252 19.98926 0.01423
C 19.56913 15.65345 -0.01107
C 20.78776 14.93405 -0.01586
C 21.15753 13.57795 -0.01971
C 19.78218 12.81133 -0.02118
C 19.73031 11.39385 0.00733
C 20.9105 0.29808 -0.00178
C 19.73374 0.69064 0.00768
C 24.4979 21.3055 -0.0032
C 22.73239 32.858 -0.0276
C 23.30686 30.45677 -0.04078
C 23.36844 27.40542 0.02117
C 23.2613 26.15525 0.02737
C 22.25924 24.53917 -0.00498
C 23.3861 23.56019 0.00135
C 23.29534 22.09842 0.03102
C 22.1453 21.38523 0.02555
C 23.65387 31.82984 0.03005
C 30.67675 22.07674 -0.01303
C 24.49133 19.86263 0.00622
C 25.73942 17.61616 -0.00942
C 27.04592 16.94906 0.01324
C 27.00985 15.5294 0.0014
C 28.2925 14.85043 0.00924
C 28.35413 13.39338 0.02326
C 28.22704 0.50657 0.00261
C 27.07519 0.07998 0.03265
C 29.46776 32.7457 -0.02049
C 30.70288 31.94964 -0.01854
C 30.70665 30.55396 -0.01415
C 29.39206 29.81754 -0.03039
C 29.42116 28.43144 0.01836
C 30.67579 27.70881 0.03531
C 30.64084 26.29223 -0.00669
C 29.47061 25.57738 0.0101
C 29.49789 24.18304 0.01705
C 28.20231 17.71918 0.04266
C 28.20943 19.25284 0.01177
C 26.95167 19.90134 -0.00416
C 27.00695 21.31253 0.01699
C 24.50399 17.01572 0.00487
C 24.48604 15.55438 0.00826
C 25.73409 14.73268 -0.00294
C 25.83664 13.38029 0.00152
C 24.51017 0.04925 0.01257
C 26.99544 32.67859 0.02316
C 28.27736 31.95382 0.04185
C 25.73041 19.09867 -0.02815
C 28.18842 30.57067 0.00194
C 26.87652 28.43992 0.02611
C 28.14883 27.64584 0.02198
C 28.15164 26.26641 0.01094
C 26.95233 25.55678 0.00235
C 27.01081 24.11914 0.01495
C 28.18252 23.44023 0.01259
C 28.1709 21.99745 0.01799
C 26.98553 29.88131 -0.00621
C 2.448 32.62494 -0.00131
