342
Graphene
C 34.35578 34.0499 0.01295
C 14.88998 8.50881 0.01848
C 14.69483 7.05292 -0.00619
C 15.94932 6.41229 -0.02162
C 16.04059 5.02681 0.00889
C 14.83058 4.31412 -0.00481
C 14.7951 2.81641 0.00979
C 16.03965 1.99665 0.01443
C 15.82888 0.50648 0.03505
C 14.62874 33.88642 -0.02815
C 17.21244 32.60672 -0.04147
C 18.42242 32.08722 -0.05302
C 18.66374 10.60648 0.00213
C 18.47165 9.23919 -0.00066
C 17.29503 8.61998 -0.00289
C 17.23727 7.08098 0.00028
C 18.42579 6.39479 -0.02213
C 18.45014 4.99639 0.03698
C 15.98887 9.1447 0.02098
C 17.22285 4.20969 -0.00109
C 14.26604 32.4181 -0.03113
C 13.48402 0.65889 0.00422
C 9.78996 8.63334 0.00244
C 9.74644 7.15927 -0.01717
C 11.0496 6.513 0.05265
C 11.12641 5.07545 -0.01952
C 9.8938 4.35787 -0.02813
C 9.92189 2.88927 0.00374
C 11.0974 2.11287 0.00052
C 11.09037 0.74011 -0.03682
C 9.80951 0.02996 0.01965
C 12.3835 32.62152 0.02058
C 12.28956 8.61983 -0.01957
C 12.2428 7.24555 -0.0108
C 13.41819 6.44695 -0.00368
C 13.57027 5.04923 -0.02696
C 12.36306 4.35511 -0.00114
C 12.36203 2.88146 0.00228
C 13.55605 2.08313 0.00798
C 12.28267 0.00157 0.0351
C 17.19424 2.71561 -0.00491
C 18.40856 2.04388 0.03338
C 18.3804 0.64633 -0.0258
C 23.42363 30.48642 -0.00703
C 21.98557 29.82106 -0.04076
C 22.20208 28.47552 -0.00652
C 23.38574 27.71465 0.0058
C 23.36493 26.266 -0.00865
C 22.13907 25.6625 0.00675
C 21.91366 24.31327 -0.00311
C 23.19128 23.50687 0.00742
C 23.24199 21.95544 -0.01594
C 22.03191 21.19237 0.0106
C 22.01789 19.80215 -0.01154
C 23.33969 19.16409 -0.01721
C 23.31697 17.76969 -0.02422
C 22.12139 17.05885 0.01277
C 22.20813 15.72363 0.00096
C 23.32976 14.97179 -0.01527
C 23.31987 13.52958 0.01087
C 23.34857 31.94912 0.00654
C 22.13012 32.59213 -0.04422
C 19.59801 34.03615 -0.02957
C 20.84565 0.63961 -0.00831
C 17.06398 33.94896 -0.0331
C 19.69344 32.62438 -0.00316
C 20.93974 31.88508 0.02188
C 20.87212 30.52058 -0.01979
C 20.78315 23.50541 0.02691
C 20.98209 22.25243 -0.01581
C 20.87802 19.01732 0.01452
C 20.83358 13.51166 0.04892
C 11.10816 9.03884 0.02299
C 19.75751 11.48981 -0.00111
C 20.89974 9.28622 0.03754
C 19.67714 8.47983 0.01739
C 19.63673 7.05121 0.00755
C 20.88558 6.36806 -0.0054
C 20.88054 4.93612 0.00667
C 19.69353 4.14346 0.00143
C 19.66673 2.7093 -0.017
C 20.87794 2.04901 0.00364
C 20.92818 10.71975 -0.03557
C 9.84935 24.34544 0.03542
C 9.80436 29.79891 0.01416
C 11.11701 31.92452 0.01945
C 2.40744 7.09695 0.02888
C 3.5975 6.44033 -0.00482
C 3.67472 4.97102 -0.01384
C 2.50002 4.25365 0.03693
C 2.41894 2.75343 0.01745
C 3.72833 2.14526 0.00488
C 3.71321 0.69611 -0.01004
C 2.4454 34.06142 -0.02896
C 4.91953 32.72553 -0.00131
C 6.18046 31.97158 -0.01118
C 6.15172 30.62172 -0.014
C 4.88303 29.87786 0.02147
C 4.94974 28.45003 0.00373
C 6.15671 27.73643 -0.00191
C 6.11848 26.32475 0.00438
C 4.84502 25.59409 0.01291
C 4.95721 24.16723 0.00093
C 2.43557 8.51611 0.00685
C 3.60743 9.27484 0.00895
C 3.6778 10.67629 0.00393
C 2.44255 11.34082 0.0288
C 3.67244 30.60045 0.00848
C 2.43027 29.91062 -0.01303
C 2.42194 28.4742 -0.01378
C 3.70857 27.71031 0.02635
C 3.63326 26.28655 0.0127
C 2.38251 25.59981 0.01396
C 2.41342 24.15008 0.01849
C 3.74855 23.41652 -0.01142
C 6.12376 23.4422 0.00057
C 3.78197 21.95981 -0.00562
C 2.46912 19.85923 0.00054
C 3.6339 19.13955 0.03007
C 3.71358 17.69041 -0.00095
C 2.46032 17.0201 0.01572
C 2.41263 15.55819 -0.04848
C 3.60041 14.82084 -0.00892
C 3.58451 13.46295 -0.01362
C 2.39897 12.80045 -0.0008
C 2.56991 21.27696 -0.00494
C 22.079 12.83437 0.00199
C 6.30017 22.04874 -0.01634
C 4.85153 19.86774 0.02339
C 8.44131 26.43336 -0.00891
C 7.33139 25.58976 0.02819
C 7.33736 24.21659 0.00165
C 8.73057 23.71768 -0.02971
C 7.39848 11.07527 0.02894
C 8.65453 10.75202 -0.01789
C 8.61224 9.34094 0.00444
C 7.41656 8.59367 -0.00925
C 7.33167 7.20298 0.01877
C 8.54055 6.46908 0.01363
C 8.63922 4.99703 -0.02162
C 7.36718 4.31917 0.00415
C 7.4083 2.8929 -0.0014
C 8.65092 2.22527 0.02162
C 8.63097 0.75572 0.0076
C 7.41105 0.07752 0.01241
C 9.84391 32.65166 -0.01454
C 8.76792 27.87136 -0.01046
C 7.41969 28.37585 -0.02689
C 7.39899 29.86237 -0.01536
C 8.63469 30.55231 0.03101
C 4.77584 16.87201 0.01641
C 4.81687 15.47969 -0.00719
C 6.10792 13.60755 0.01364
C 4.9545 12.86928 -0.01062
C 4.88771 11.40182 -0.00033
C 6.08561 10.70643 0.03589
C 6.13503 9.23126 -0.02759
C 4.86907 8.56254 0.0402
C 5.143 21.21022 -0.00334
C 4.84806 7.10525 0.00572
C 6.16885 5.00245 0.00406
C 4.92892 4.27667 0.00943
C 4.94254 2.90867 0.02841
C 6.14381 2.15396 -0.01111
C 6.16505 0.79478 -0.01275
C 4.96361 0.00574 0.00985
C 7.43726 32.70781 -0.02245
C 8.62678 31.9454 -0.00428
C 6.11956 6.4362 0.03592
C 22.1605 11.41949 0.01511
C 23.34391 10.6448 -0.00478
C 23.35683 9.25266 -0.01662
C 31.99924 29.74829 -0.02142
C 31.98001 28.36107 0.0544
C 33.19359 27.69717 0.00026
C 33.20124 26.21711 0.00682
C 31.94764 25.54016 -0.01779
C 31.92643 24.14223 0.03794
C 33.18086 23.42301 0.01927
C 33.23965 21.99658 0.01574
C 31.96669 21.28686 -0.02383
C 31.98314 19.85984 -0.01429
C 33.24116 19.16766 -0.0136
C 33.1696 17.74446 0.00594
C 31.9299 17.10414 -0.02474
C 31.90385 15.68466 0.00369
C 33.15913 14.93265 0.00455
C 33.20359 13.49721 -0.00644
C 31.94199 12.81338 -0.01839
C 33.20105 30.51705 0.01428
C 33.18034 31.97897 -0.01694
C 31.90464 32.6828 0.01713
C 29.50953 34.05032 0.00346
C 30.69832 19.19128 0.03531
C 30.7479 17.75242 -0.00669
C 29.49515 17.11068 0.0101
C 29.47785 15.69305 0.01705
C 30.73794 14.98474 -0.0405
C 30.71781 13.52007 -0.01303
C 29.45321 12.82838 -0.01461
C 29.48004 11.37745 -0.02155
C 31.958 11.37026 0.00137
C 30.73354 10.65333 -0.00944
C 29.5141 8.49018 -0.00971
C 29.48511 7.05235 0.01518
C 30.69883 6.43774 0.01908
C 30.77607 5.0477 0.07705
C 29.48851 4.21264 0.0103
C 29.50236 2.8039 0.02108
C 30.70132 2.10926 0.00716
C 30.67739 0.72489 0.00307
C 30.72336 9.3165 -0.03735
C 29.48474 19.8949 0.01836
C 33.19063 10.69512 0.00199
C 31.95403 8.54248 0.02806
C 1.23154 17.77038 0.01223
C 34.3991 17.04332 0.00648
C 34.37675 15.6234 0.02114
C 1.20013 14.86833 -0.02957
C 1.20574 13.50542 0.00343
C 34.40866 12.80086 -0.02656
C 34.42992 11.42838 -0.02442
C 1.19887 10.67211 -0.00027
C 1.24812 9.18749 -0.00583
C 34.39244 8.5234 -0.02302
C 0.02438 7.11372 -0.02849
C 1.21591 6.39244 0.02931
C 1.22592 5.02793 0.00628
C 0.01798 4.27619 -0.0345
C 34.43146 2.85672 -0.00931
C 1.1914 2.11027 -0.00939
C 1.20976 0.6639 -0.00468
C 1.21247 19.2028 -0.01678
C 34.42414 19.92583 0.01951
C 0.05214 21.31832 -0.02213
C 1.28721 21.98689 0.02712
C 31.92262 7.18218 0.01504
C 33.20434 6.43943 -0.00069
C 33.23135 4.99567 0.04926
C 31.99906 4.28256 -0.03838
C 31.95948 2.88238 0.00349
C 33.19825 2.14456 -0.00323
C 33.1591 0.7187 -0.00841
C 31.90926 0.06351 0.0001
C 33.14639 9.27884 0.04381
C 34.35062 32.67548 -0.02927
C 1.17663 30.59651 0.01027
C 34.40553 29.84469 0.01831
C 34.392 28.45501 -0.01037
C 1.17039 27.6604 -0.00439
C 1.16556 26.33837 -0.00598
C 34.42104 25.53664 -0.05239
C 34.38805 24.07063 0.03076
C 1.17786 23.36595 0.00723
C 1.14203 31.98356 -0.01404
C 3.68121 31.99744 -0.00049
C 29.46453 21.33769 -0.03039
C 30.71442 23.39733 -0.01854
C 25.76883 19.20407 0.00768
C 25.82434 17.77377 -0.0276
C 24.57059 17.0493 0.03005
C 24.55088 15.61098 -0.04078
C 25.78716 14.95596 0.02117
C 25.7895 13.50703 0.02737
C 24.59048 12.75599 -0.00498
C 24.58376 11.31764 0.00135
C 25.84248 10.69115 0.03102
C 25.79261 9.23054 0.02555
C 24.60121 8.58867 0.01423
C 24.52231 7.1328 -0.00285
C 25.73905 6.40071 -0.009
C 25.7654 4.97425 -0.01199
C 24.54333 4.23741 -0.00229
C 24.57936 2.79658 -0.00938
C 25.74083 2.0952 -0.0264
C 24.58206 19.90149 -0.00178
C 24.5261 21.37107 0.00733
C 25.79756 22.05726 -0.02118
C 25.79803 23.45261 -0.01971
C 22.09092 8.53 -0.01185
C 22.07588 7.14395 0.01126
C 23.26112 6.46382 0.01852
C 23.38471 4.97507 -0.00381
C 22.10133 4.19106 0.03046
C 22.08141 2.78255 0.0296
C 23.32113 2.12123 0.03374
C 23.33539 0.68542 -0.02845
C 25.78352 0.69575 -0.01154
C 22.07395 33.99135 -0.03213
C 25.80643 31.93881 0.01153
C 25.89428 30.50959 0.02734
C 24.71041 29.81507 -0.0055
C 24.68539 28.38597 0.01515
C 25.87984 27.60984 -0.00225
C 25.79752 26.25507 0.00071
C 24.56761 25.56769 -0.01107
C 24.52841 24.15207 -0.01586
C 24.55457 32.65769 0.02239
C 30.64856 21.99784 -0.01415
C 24.53634 33.99859 0.00684
C 28.31981 31.83331 -0.01679
C 26.98619 7.06305 0.02198
C 28.30619 6.35428 0.01094
C 28.2977 4.96401 0.00235
C 26.97408 4.29526 0.01495
C 26.99636 2.87074 0.01259
C 28.30762 2.04548 0.01799
C 28.27923 0.63203 0.01699
C 26.97048 34.07425 -0.00416
C 29.44006 32.59717 0.01177
C 30.72843 31.89965 0.04266
C 30.75017 30.49595 0.01324
C 29.57154 29.75224 0.0014
C 29.5295 28.36734 0.00924
C 30.73975 27.70315 0.02326
C 30.74678 26.31798 0.00261
C 29.53167 25.58465 0.03265
C 29.50367 24.09047 -0.02049
C 27.01094 8.52716 0.02611
C 28.27295 9.26472 -0.00621
C 28.26214 10.6844 0.00194
C 27.05433 11.41863 0.04185
C 28.30559 30.41078 0.00367
C 27.09659 29.75851 0.04306
C 27.08209 28.32643 0.00996
C 28.33499 27.67644 0.00195
C 28.26255 26.27751 -0.00802
C 27.03543 25.53346 -0.00218
C 27.03247 24.07142 -0.01654
C 28.2802 23.38023 -0.00037
C 26.96842 32.61755 -0.01052
C 28.27408 22.0353 -0.0032
C 27.04043 19.92397 -0.02815
C 28.27468 19.19678 -0.00942
C 28.27608 17.77033 0.00487
C 27.05239 17.03251 0.00826
C 27.04943 15.64412 -0.00294
C 28.27155 14.9615 0.00152
C 28.27287 13.57377 0.01257
C 27.0279 12.78648 0.02316
C 27.00967 21.35328 0.00622
C 2.41121 32.61878 0.00873
