309
Graphene
C 0.04128 34.01356 0.01295
C 11.08192 2.11557 0.02188
C 11.10968 0.76592 -0.01979
C 9.96014 0.07539 0.02691
C 12.2963 32.6738 -0.01581
C 13.50552 31.92979 0.01452
C 13.48893 30.49266 0.04892
C 12.13025 29.79253 -0.00111
C 12.1221 28.4144 -0.03557
C 13.4002 27.75881 0.03754
C 13.48423 26.37342 0.01739
C 12.23763 25.71665 0.00755
C 12.3111 24.12027 -0.0054
C 13.49238 9.20415 0.00667
C 12.29678 8.41488 0.00143
C 12.31772 7.09896 -0.017
C 9.90693 2.85435 -0.00316
C 13.60403 6.39598 0.00364
C 9.91973 4.32579 -0.0331
C 11.16347 6.37005 0.03338
C 10.97296 31.9506 -0.00481
C 10.92155 30.57287 0.00979
C 9.64092 29.88945 0.01443
C 9.61216 28.45976 0.03505
C 10.89835 27.67648 -0.02815
C 10.86935 26.23888 -0.04147
C 9.64588 25.50244 -0.05302
C 9.82229 24.12454 0.00213
C 11.17073 23.58642 -0.00066
C 9.86872 12.74126 -0.00289
C 9.96946 11.34719 0.00028
C 11.22249 10.62381 -0.02213
C 11.06693 9.27887 0.03698
C 9.80945 8.53651 -0.00109
C 9.87174 7.1662 -0.00491
C 11.14607 4.98638 -0.0258
C 13.52852 5.01953 -0.00831
C 12.3392 4.31821 -0.02957
C 12.29353 2.80474 -0.04422
C 14.79785 33.99949 -0.00478
C 17.18574 32.62195 -0.01662
C 18.43982 31.93738 -0.01185
C 18.38152 30.5205 0.01126
C 17.16546 29.82261 0.01852
C 17.1635 28.38947 -0.00381
C 18.38545 27.6775 0.03046
C 18.48817 26.15944 0.0296
C 17.22865 25.84668 0.03374
C 17.01187 8.32452 -0.02845
C 17.48598 6.77744 -0.03213
C 18.42007 4.99184 0.02239
C 17.12557 4.31119 0.01153
C 17.2672 2.79197 0.02734
C 18.43207 2.14279 -0.0055
C 16.06832 0.71789 0.01511
C 16.03853 2.10067 0.00199
C 14.80767 2.87302 0.01087
C 14.7328 4.23262 -0.01527
C 13.53288 2.08095 0.00654
C 13.61375 0.6545 -0.00703
C 12.38904 34.05077 -0.04076
C 14.70317 32.5966 -0.00652
C 15.94635 31.90653 0.0058
C 15.94177 30.49948 -0.00865
C 14.70709 29.8188 0.00675
C 9.75378 32.7403 0.00889
C 14.64651 28.45626 -0.00311
C 15.85994 26.23076 -0.01594
C 14.55331 25.47609 0.0106
C 16.15429 9.25856 -0.01154
C 14.70804 8.66623 -0.01721
C 14.83704 7.22734 -0.02422
C 16.05534 6.47547 0.01277
C 15.91734 5.03902 0.00096
C 15.83364 27.7139 0.00742
C 7.63083 33.76382 -0.02162
C 8.68287 0.69717 -0.00619
C 8.69534 2.14683 0.01848
C 2.3977 4.23291 0.00406
C 2.43375 2.86512 0.00943
C 3.73153 2.13154 0.02841
C 3.75666 0.74892 -0.01111
C 2.50414 0.00865 -0.01275
C 4.701 25.54437 0.00985
C 4.86707 24.04594 -0.02245
C 6.11741 23.29928 -0.00428
C 6.14017 21.94804 0.03101
C 4.90591 21.28765 -0.01536
C 4.84935 19.87716 -0.02689
C 6.04649 19.25474 -0.01046
C 6.00508 17.86702 -0.00891
C 4.90275 17.04079 0.02819
C 4.87216 15.62976 0.00165
C 3.69858 4.96561 0.03592
C 3.62902 6.47248 0.00572
C 2.36779 7.18896 0.0402
C 2.41948 8.56954 -0.02759
C 2.34461 25.55292 0.02147
C 2.37198 24.18642 0.00373
C 3.61685 23.47197 -0.00191
C 3.63875 21.99942 0.00438
C 2.44375 21.32437 0.01291
C 2.49538 19.88016 0.00093
C 3.69455 19.09111 0.00057
C 6.18812 15.08323 -0.02971
C 3.69493 17.71693 -0.01634
C 2.45754 15.64012 0.02339
C 3.65849 14.91601 0.01641
C 3.68753 13.50301 -0.00719
C 2.44787 12.77795 0.01364
C 2.42609 11.39546 -0.01062
C 3.7252 10.69408 -0.00033
C 3.67791 9.26142 0.03589
C 2.4114 17.09557 -0.00334
C 18.44795 0.71747 0.01515
C 6.207 13.57772 0.02894
C 4.98448 11.36398 0.00444
C 8.32528 18.51102 0.00052
C 7.42623 17.36974 -0.03682
C 7.49118 15.84715 0.01965
C 8.54128 15.02632 0.02058
C 8.67884 13.65393 -0.01957
C 7.41647 12.87405 -0.0108
C 7.43592 11.41748 -0.00368
C 8.6431 10.68514 -0.02696
C 8.67474 9.237 -0.00114
C 7.42766 8.5446 0.00228
C 7.38877 7.14055 0.00798
C 8.62994 6.33943 0.00422
C 8.6573 5.01321 0.0351
C 7.38687 4.25999 -0.03113
C 7.40713 2.78941 0.02098
C 7.47324 19.74535 0.00374
C 7.42478 21.09802 -0.02813
C 8.52354 22.00175 -0.01952
C 8.56751 23.39911 0.05265
C 6.19459 10.71307 -0.00925
C 6.17426 9.27981 0.01877
C 4.87376 8.58073 0.01363
C 4.7982 7.17948 -0.02162
C 6.11384 6.45366 0.00415
C 6.11105 4.9525 -0.0014
C 4.90198 4.209 0.02162
C 4.96853 12.80412 -0.01789
C 4.9741 2.7418 0.0076
C 6.26491 0.43096 -0.01454
C 4.96523 34.02609 0.01945
C 8.31286 32.60498 0.01416
C 8.39724 27.57928 0.03542
C 8.47055 26.23285 0.02299
C 7.25445 25.47175 0.00244
C 7.33442 24.06048 -0.01717
C 6.26067 1.94353 0.01241
C 3.68093 26.18852 -0.014
C 17.2498 34.05892 -0.00225
C 20.89231 31.9971 -0.01107
C 33.11863 23.37912 0.01927
C 33.11685 21.97174 0.01574
C 31.8951 21.27707 -0.02383
C 31.91953 19.87076 -0.01429
C 33.16683 19.19873 -0.0136
C 33.22183 17.78073 0.00594
C 31.90548 17.02615 -0.02474
C 31.8375 15.68538 0.00369
C 33.13085 14.96806 0.00455
C 33.12585 13.63252 -0.00644
C 31.86731 12.8447 -0.01839
C 32.03162 11.48628 0.00137
C 33.22768 10.83387 0.00199
C 33.15255 9.36779 0.04381
C 32.0322 8.51475 0.02806
C 31.89619 24.12007 0.03794
C 32.05125 7.28512 0.01504
C 31.85131 25.58308 -0.01779
C 33.03981 27.65834 0.00026
C 29.50909 17.13012 -0.03735
C 29.37465 15.79735 -0.00971
C 30.59616 15.01435 0.01518
C 30.67698 13.59277 0.01908
C 30.71584 5.00988 0.07705
C 29.68544 4.40301 0.0103
C 29.52344 2.85473 0.02108
C 30.6906 2.16081 0.00716
C 30.65697 0.77139 0.00307
C 29.50131 0.12135 0.00346
C 32.02557 32.72093 0.01713
C 33.21126 31.95977 -0.01694
C 33.10735 30.53428 0.01428
C 31.93065 29.83209 -0.02142
C 31.81234 28.43278 0.0544
C 33.0649 26.23348 0.00682
C 33.1916 6.50276 -0.00069
C 33.17315 5.00978 0.04926
C 32.0007 4.31177 -0.03838
C 34.32723 15.64862 0.02114
C 1.20465 15.00824 -0.02957
C 1.19947 13.5195 0.00343
C 34.36347 12.92601 -0.02656
C 0.02742 11.51687 -0.02442
C 1.26468 10.70755 -0.00027
C 1.16953 9.32793 -0.00583
C 34.33843 8.59842 -0.02302
C 0.0058 7.19504 -0.02849
C 1.18781 6.43226 0.02931
C 1.14846 5.02376 0.00628
C 34.36386 4.35045 -0.0345
C 34.34648 2.90325 -0.00931
C 1.17973 2.14249 -0.00939
C 1.24211 0.75438 -0.00468
C 34.37371 17.08148 0.00648
C 1.21247 17.80471 0.01223
C 1.23128 19.23595 -0.01678
C 34.41173 19.96266 0.01951
C 31.91937 2.84818 0.00349
C 33.17802 2.24216 -0.00323
C 33.23676 0.70644 -0.00841
C 31.96911 0.06268 0.0001
C 0.11028 32.56738 -0.02927
C 1.39825 31.85565 -0.01404
C 1.16891 30.35234 0.01027
C 30.69921 17.8284 -0.00944
C 34.4061 29.78285 0.01831
C 1.09256 27.73472 -0.00439
C 1.14623 26.32154 -0.00598
C 34.31524 25.53128 -0.05239
C 34.3651 24.153 0.03076
C 1.17672 23.48867 0.00723
C 1.18891 22.0529 0.02712
C 34.39983 21.3587 -0.02213
C 34.3093 28.36119 -0.01037
C 30.69124 19.16949 -0.02155
C 29.37252 19.83621 -0.01461
C 29.46887 21.30071 -0.01303
C 23.20383 23.26889 -0.00938
C 23.48472 21.77463 -0.0264
C 22.20602 2.72083 -0.01154
C 23.363 2.15006 0.00684
C 23.293 0.68597 -0.01052
C 22.07959 0.08786 -0.01679
C 24.5717 32.70877 0.00367
C 25.77607 31.98659 0.04306
C 25.77633 30.52599 0.00996
C 24.52825 29.78412 0.00195
C 24.54864 28.41272 -0.00802
C 25.7498 27.69898 -0.00218
C 25.72479 26.2261 -0.01654
C 24.41624 25.43539 -0.00037
C 24.47964 24.00297 -0.0032
C 22.13759 24.11388 -0.00229
C 22.14766 25.58763 -0.01199
C 23.28229 26.23872 -0.009
C 23.3296 27.71904 -0.00285
C 20.82846 30.57607 -0.01586
C 19.68794 29.79301 -0.01971
C 19.61993 28.35103 -0.02118
C 20.87453 27.67421 0.00733
C 20.86014 26.1564 -0.00178
C 19.67819 25.3951 0.00768
C 19.56013 4.43594 -0.0276
C 25.72997 23.36374 0.00622
C 19.65112 3.0073 0.03005
C 20.87501 0.71852 0.02117
C 19.66454 0.04563 0.02737
C 22.09123 32.64624 -0.00498
C 23.30302 31.96164 0.00135
C 23.27457 30.4898 0.03102
C 22.08162 29.81618 0.02555
C 22.14222 28.43562 0.01423
C 20.84141 2.15176 -0.04078
C 19.65116 32.73961 0.00071
C 25.88722 21.95114 -0.02815
C 25.59489 19.5154 0.00487
C 26.92068 2.81575 0.0014
C 28.24583 2.22399 0.00924
C 28.22962 0.77062 0.02326
C 27.03259 0.0116 0.00261
C 29.49409 32.718 0.03265
C 30.7256 31.98331 -0.02049
C 30.65447 30.51134 -0.01854
C 29.43523 29.89505 -0.01415
C 29.39919 28.39396 -0.03039
C 30.60118 27.68447 0.01836
C 30.5723 26.25914 0.03531
C 29.41614 25.5432 -0.00669
C 29.42492 24.06055 0.0101
C 30.61194 23.39367 0.01705
C 30.64953 22.00073 -0.0405
C 26.87294 17.10777 0.01324
C 28.17619 17.77004 0.04266
C 28.1201 19.22646 0.01177
C 26.98856 19.90211 -0.00416
C 25.95089 17.95347 0.00826
C 25.86984 2.03046 -0.00294
C 25.76929 0.68106 0.00152
C 24.52716 34.04441 0.01257
C 27.01514 32.67039 0.02316
C 28.25527 32.02098 0.04185
C 28.22989 30.5865 0.00194
C 24.62608 21.22202 -0.00942
C 26.99858 29.81078 -0.00621
C 28.17145 27.69239 0.02198
C 28.21345 26.28538 0.01094
C 26.98082 25.54637 0.00235
C 26.87341 24.12831 0.01495
C 28.16144 23.36354 0.01259
C 28.25011 21.97885 0.01799
C 27.08089 21.25669 0.01699
C 26.92634 28.334 0.02611
C 2.56589 32.72934 -0.01118
