298
Graphene
C 34.38951 0.11835 0.01295
C 15.96283 2.16388 0.03754
C 16.07584 0.67237 0.01739
C 14.81377 34.0171 0.00755
C 17.28807 32.59165 -0.0054
C 18.50471 31.90941 0.00667
C 18.38857 30.49501 0.00143
C 14.823 2.8866 -0.03557
C 17.21644 29.823 -0.017
C 18.48402 27.62066 -0.00831
C 18.40894 26.15476 -0.02957
C 17.19642 25.61593 -0.04422
C 18.54676 22.9389 0.00654
C 17.44826 4.21257 -0.00703
C 17.20136 2.72607 -0.04076
C 17.2111 28.2949 0.00364
C 14.95746 4.37215 -0.00111
C 16.25044 4.84126 0.04892
C 15.97829 26.19263 0.01452
C 12.23974 29.96754 -0.00066
C 12.30539 28.53927 -0.00289
C 13.38677 27.86067 0.00028
C 13.67594 5.16998 -0.02213
C 12.35147 4.4518 0.03698
C 12.36214 2.93427 -0.00109
C 13.53712 2.13342 -0.00491
C 13.52705 0.70057 0.03338
C 12.3371 0.07836 -0.0258
C 14.79161 32.58212 -0.0331
C 16.01553 31.87695 -0.00316
C 16.01395 30.48295 0.02188
C 14.77992 29.8459 -0.01979
C 14.65788 28.37748 0.02691
C 15.90216 27.60397 -0.01581
C 18.52141 2.08982 -0.00652
C 13.58803 30.57982 0.00213
C 18.51353 0.70994 0.0058
C 19.74556 32.65185 0.00675
C 22.07176 29.79777 0.03046
C 22.12365 28.3776 0.0296
C 23.33159 27.66832 0.03374
C 23.28983 26.26855 -0.02845
C 22.08905 25.60508 -0.03213
C 22.16276 24.21317 0.02239
C 23.28662 30.46978 -0.00381
C 23.33357 23.3656 0.01153
C 21.90853 21.22393 -0.0055
C 22.016 19.80119 0.01515
C 23.27994 19.06674 -0.00225
C 23.19713 17.59573 0.00071
C 23.39603 14.63637 -0.01107
C 22.19128 2.92828 -0.01586
C 23.21206 21.98908 0.02734
C 23.29439 31.91908 0.01852
C 22.12343 32.68324 0.01126
C 19.73921 0.01719 -0.01185
C 20.91943 31.94505 -0.00311
C 20.89048 30.58004 0.00742
C 19.65028 29.74371 -0.01594
C 19.71265 28.28672 0.0106
C 20.91921 27.61106 -0.01154
C 20.84979 26.19313 -0.01721
C 19.55258 25.4134 -0.02422
C 19.62525 24.05669 0.01277
C 20.8957 23.44786 0.00096
C 20.80567 22.01665 -0.01527
C 19.54482 21.72236 0.01087
C 18.93848 4.25796 0.00199
C 19.5894 3.12854 0.01511
C 20.88709 2.46421 -0.00478
C 20.91975 0.75234 -0.01662
C 17.23012 0.03164 -0.00865
C 13.57523 31.94774 -0.05302
C 12.33435 32.70621 -0.04147
C 9.8552 34.04653 -0.02815
C 2.38906 7.23063 -0.02689
C 3.73361 6.45579 -0.01046
C 3.66271 5.05564 -0.00891
C 2.47039 4.33065 0.02819
C 2.48217 2.89373 0.00165
C 3.70304 2.20801 -0.02971
C 2.26435 8.69257 -0.01536
C 3.6675 0.72291 0.02894
C 4.95959 32.60063 0.00444
C 6.17546 31.85009 -0.00925
C 6.17741 30.44191 0.01877
C 4.89346 29.77585 0.01363
C 4.70354 28.41968 -0.02162
C 5.99307 27.53623 0.00415
C 2.39412 0.07184 -0.01789
C 3.51935 9.37414 0.03101
C 3.51409 10.70787 -0.00428
C 2.23275 11.53176 -0.02245
C 3.69783 30.58041 -0.00719
C 2.42564 29.89813 0.01364
C 2.41516 28.44093 -0.01062
C 3.58791 27.6961 -0.00033
C 3.90183 26.25665 0.03589
C 2.66592 25.50141 -0.02759
C 2.52814 23.99616 0.0402
C 3.23534 22.83265 0.00572
C 2.523 21.57351 0.03592
C 2.30491 20.07963 0.00406
C 2.39199 17.22304 0.00943
C 2.63158 15.87848 0.02841
C 3.67027 14.89793 -0.01111
C 3.60884 13.57184 -0.01275
C 2.23304 12.89422 0.00985
C 5.37735 26.24449 -0.0014
C 4.68257 12.62894 0.02162
C 4.73945 11.44068 0.0076
C 6.14394 9.2308 0.01241
C 7.37724 4.35043 -0.00114
C 7.36538 2.89983 0.00228
C 8.66205 2.1637 0.00798
C 8.59781 0.78788 0.00422
C 7.40631 34.0388 0.0351
C 9.80014 32.6765 -0.03113
C 11.00026 32.03133 0.02098
C 11.00177 30.5792 0.01848
C 9.8477 29.81 -0.00619
C 9.70852 28.31346 -0.02162
C 11.00368 4.95908 0.00889
C 9.7836 4.2795 -0.00481
C 9.88741 2.79514 0.00979
C 11.08186 2.15832 0.01443
C 11.06015 0.7452 0.03505
C 8.59501 5.05055 -0.02696
C 23.43928 2.08096 -0.01971
C 8.72333 6.36578 -0.00368
C 7.25088 8.57639 -0.01957
C 4.85674 8.70526 -0.01454
C 4.94764 7.17771 0.01945
C 6.1872 6.46691 0.01416
C 6.12876 4.98739 0.03542
C 4.9236 4.34023 0.02299
C 4.94821 2.93245 0.00244
C 6.146 2.18804 -0.01717
C 6.2354 0.75535 0.05265
C 4.94844 0.0173 -0.01952
C 7.35952 32.58686 -0.02813
C 8.60951 31.89816 0.00374
C 8.50047 30.42414 0.00052
C 7.3251 29.64504 -0.03682
C 7.27041 28.08901 0.01965
C 8.54265 27.68989 0.02058
C 7.55704 7.23513 -0.0108
C 23.38437 0.59254 -0.02118
C 22.08249 0.06007 0.00733
C 24.6036 32.63117 -0.00178
C 31.97306 24.16368 -0.02383
C 33.17401 23.56765 -0.01429
C 33.13278 22.14331 -0.0136
C 31.89348 21.38186 0.00594
C 31.83587 19.8803 -0.02474
C 33.01559 19.1682 0.00369
C 31.9415 25.63287 0.01574
C 33.09447 17.65611 0.00455
C 32.05205 15.2951 -0.01839
C 33.44622 14.5729 0.00137
C 33.05565 10.82007 0.00199
C 33.10911 9.40795 0.04381
C 32.01802 8.5973 0.02806
C 31.94787 7.07797 0.01504
C 31.89374 16.85054 -0.00644
C 33.23192 26.32755 0.01927
C 33.16965 27.7663 0.03794
C 31.93399 28.44171 -0.01779
C 28.81637 12.1679 0.01518
C 30.77508 9.19292 0.01908
C 29.51847 8.65255 0.07705
C 29.48705 7.25013 0.0103
C 30.65932 6.4183 0.02108
C 30.57933 5.04241 0.00716
C 29.3677 4.31857 0.00307
C 29.40674 2.92262 0.00346
C 30.63796 2.23837 0.01713
C 30.73031 0.81576 -0.01694
C 29.54012 0.08079 0.01428
C 32.02597 32.70745 -0.02142
C 33.20302 32.03061 0.0544
C 33.17216 30.58955 0.00026
C 31.93143 29.85344 0.00682
C 33.20878 6.43276 -0.00069
C 33.13676 4.98593 0.04926
C 31.88911 4.37491 -0.03838
C 31.95227 2.90276 0.00349
C 0.04905 15.64498 0.02114
C 1.30067 15.14653 -0.02957
C 1.15119 13.71415 0.00343
C 34.22741 13.2972 -0.02656
C 34.02005 11.80092 -0.02442
C 0.90648 10.89837 -0.00027
C 1.01624 9.44356 -0.00583
C 34.31153 8.69949 -0.02302
C 34.38523 7.21945 -0.02849
C 1.1849 6.49372 0.02931
C 1.21567 5.03926 0.00628
C 34.40206 4.29604 -0.0345
C 34.36588 2.91799 -0.00931
C 1.18465 2.19132 -0.00939
C 1.19581 0.81069 -0.00468
C 34.38417 16.95607 0.00648
C 30.81478 14.78368 -0.00971
C 1.14445 17.86862 0.01223
C 34.2682 19.90154 0.01951
C 33.15405 2.25434 -0.00323
C 33.16995 0.83111 -0.00841
C 31.98081 0.09928 0.0001
C 0.01464 32.75256 -0.02927
C 1.23475 32.02694 -0.01404
C 1.18382 30.62175 0.01027
C 34.40614 29.84627 0.01831
C 34.42515 28.42469 -0.01037
C 1.16912 27.64828 -0.00439
C 1.32951 26.30875 -0.00598
C 0.02164 25.64935 -0.05239
C 34.36858 24.19184 0.03076
C 1.16816 23.48602 0.00723
C 1.10831 22.1137 0.02712
C 34.3414 21.33989 -0.02213
C 1.16436 19.36559 -0.01678
C 3.7294 31.97794 0.01641
C 29.48879 15.3982 -0.03735
C 30.67465 17.60956 -0.02155
C 25.56305 5.04585 -0.01052
C 24.40743 4.23073 -0.01679
C 24.59863 2.83879 0.00367
C 25.87971 2.13978 0.04306
C 25.76871 0.71278 0.00996
C 24.57389 33.98988 0.00195
C 25.77036 6.46701 0.00684
C 27.07615 32.72082 -0.00802
C 28.24149 30.63132 -0.01654
C 27.00894 29.84671 -0.00037
C 27.04955 28.44829 -0.0032
C 28.27231 27.75253 0.00622
C 28.29483 26.25975 -0.02815
C 27.03691 25.53541 -0.00942
C 28.33857 32.03815 -0.00218
C 25.6968 13.44309 -0.01154
C 25.75132 14.76803 -0.0264
C 24.5522 15.46639 -0.00938
C 25.78449 31.93459 0.00768
C 25.76941 30.50492 -0.0276
C 24.52813 29.77909 0.03005
C 24.55517 28.38262 -0.04078
C 25.78296 27.73535 0.02117
C 25.84705 26.24676 0.02737
C 24.61959 25.52795 -0.00498
C 24.5311 24.13166 0.00135
C 25.77566 23.41312 0.03102
C 25.6845 21.97697 0.02555
C 24.42913 21.26388 0.01423
C 24.46789 19.89856 -0.00285
C 25.6974 19.14269 -0.009
C 25.71962 17.67599 -0.01199
C 24.40287 16.86728 -0.00229
C 27.02742 24.12175 0.00487
C 28.2933 23.40295 0.00826
C 28.18962 21.98683 -0.00294
C 26.91719 21.28271 0.00152
C 27.02708 0.04412 0.02326
C 29.59559 32.71142 0.00261
C 30.80683 32.01323 0.03265
C 30.75675 30.58942 -0.02049
C 29.48568 29.95517 -0.01854
C 29.5208 28.50027 -0.01415
C 30.75119 27.77838 -0.03039
C 30.67061 26.31256 0.01836
C 29.43217 25.53535 0.03531
C 29.54154 24.12237 -0.00669
C 30.7222 23.4516 0.0101
C 30.67668 22.02368 0.01705
C 29.42502 21.31752 -0.0405
C 29.38414 19.86117 -0.01303
C 30.62442 19.09985 -0.01461
C 28.2104 0.73923 0.00924
C 29.38859 16.93113 -0.00944
C 28.25682 2.09596 0.0014
C 26.91101 4.31647 0.04266
C 26.91408 19.86288 0.01257
C 28.19451 19.16353 0.02316
C 28.18291 17.69873 0.04185
C 26.92046 16.94973 0.00194
C 27.03752 15.49469 -0.00621
C 28.24601 14.64905 0.02611
C 28.24983 13.30719 0.02198
C 26.54714 12.45759 0.01094
C 26.9041 11.00488 0.00235
C 28.26745 10.92064 0.01495
C 28.31217 9.39319 0.01259
C 26.98677 8.79528 0.01799
C 26.85281 7.25504 0.01699
C 28.2062 6.48109 -0.00416
C 28.16086 5.00069 0.01177
C 27.02255 2.88502 0.01324
C 2.45949 32.67693 0.02339
