368
Graphene
C 34.34952 0.08408 0.01295
C 12.20336 0.06269 -0.01952
C 14.68678 32.60309 -0.02813
C 15.86129 31.87848 0.00374
C 15.87766 30.46305 0.00052
C 14.65963 29.57678 -0.03682
C 14.62073 28.17655 0.01965
C 15.98942 27.64404 0.02058
C 15.98866 26.23423 -0.01957
C 14.6408 25.50961 -0.0108
C 16.22603 10.57122 -0.00368
C 16.05996 9.16495 -0.02696
C 14.87478 8.52535 -0.00114
C 14.7541 7.08913 0.00228
C 15.9974 6.35869 0.00798
C 16.06403 4.96943 0.00422
C 14.75409 4.34006 0.0351
C 14.63868 2.90112 -0.03113
C 15.94004 2.14207 0.02098
C 15.86304 0.66371 0.01848
C 13.48439 0.68837 0.05265
C 14.66687 34.05981 -0.00619
C 13.48462 2.14983 -0.01717
C 12.3551 4.29485 0.02299
C 11.12319 5.04282 0.02819
C 9.88077 4.36306 0.00165
C 9.80252 2.9569 -0.02971
C 11.04189 2.20762 0.02894
C 10.9818 0.7647 -0.01789
C 9.78318 34.07887 0.00444
C 12.30865 32.71793 -0.00925
C 13.53967 31.88511 0.01877
C 13.4572 30.39421 0.01363
C 12.24443 29.76474 -0.02162
C 12.30265 28.20564 0.00415
C 13.45248 27.43789 -0.0014
C 13.36665 25.99807 0.02162
C 12.10265 25.62184 0.0076
C 13.66697 9.38488 0.01241
C 12.42122 8.62765 -0.01454
C 12.26728 7.14711 0.01945
C 13.46858 6.44322 0.01416
C 13.4954 5.05234 0.03542
C 12.2596 2.87847 0.00244
C 11.06287 6.46177 -0.00891
C 17.11809 32.55354 -0.02162
C 18.42387 30.48551 -0.00481
C 20.21344 23.42555 0.04892
C 21.17602 22.41265 -0.00111
C 20.6926 19.03457 -0.03557
C 20.67046 17.52511 0.03754
C 19.63092 16.40796 0.01739
C 19.5487 15.01435 0.00755
C 21.03311 14.77759 -0.0054
C 21.075 13.41311 0.00667
C 19.73358 12.89036 0.00143
C 19.72774 11.29641 -0.017
C 20.9976 10.60321 0.00364
C 20.99719 9.19754 -0.00831
C 19.76157 8.4517 -0.02957
C 19.65406 7.0866 -0.04422
C 20.87154 6.41151 0.00654
C 20.88068 4.96671 -0.00703
C 19.62322 4.26998 -0.04076
C 19.60264 2.77011 -0.00652
C 20.83235 2.03894 0.0058
C 19.19371 24.24639 0.01452
C 18.34153 31.85928 0.00889
C 19.60168 29.55232 -0.01581
C 20.82641 31.79049 -0.01979
C 17.23279 29.79499 0.00979
C 17.16132 28.40948 0.01443
C 18.53581 28.00665 0.03505
C 18.44894 26.65626 -0.02815
C 17.31923 25.96335 -0.04147
C 18.92095 13.98325 -0.05302
C 17.29222 11.23646 0.00213
C 18.54262 10.6277 -0.00066
C 18.55935 9.10497 -0.00289
C 17.31325 8.41117 0.00028
C 17.21784 7.0439 -0.02213
C 18.48115 6.40263 0.03698
C 18.48278 4.94597 -0.00109
C 17.26712 4.15845 -0.00491
C 17.19093 2.78035 0.03338
C 18.39014 2.06862 -0.0258
C 18.40983 0.62308 -0.0331
C 17.0906 34.06338 -0.00316
C 19.58236 32.59071 0.02188
C 20.91127 30.30025 0.02691
C 20.73983 0.66454 -0.00865
C 9.88769 7.18733 -0.01046
C 11.11743 9.32631 -0.01536
C 3.66303 6.46515 0.01227
C 3.67162 4.99287 0.00873
C 2.45414 4.30113 -0.00049
C 2.46114 2.97825 0.00848
C 3.68961 2.25345 -0.01303
C 3.67909 0.87032 -0.01378
C 2.44828 0.07458 0.02635
C 4.86459 32.8538 0.0127
C 6.11406 31.99238 0.01396
C 6.16409 30.56304 0.01849
C 4.88022 29.91913 -0.01142
C 4.78668 28.48627 -0.00562
C 6.055 27.74729 -0.00494
C 6.06111 26.34289 0.00054
C 4.79617 25.61862 0.03007
C 4.85952 24.19001 -0.00095
C 6.18558 23.46989 0.01572
C 6.24145 22.07836 -0.04848
C 5.05875 21.32594 -0.00892
C 2.50433 7.22912 -0.03337
C 4.96654 19.95051 -0.01362
C 2.53022 8.63687 -0.00966
C 3.75635 10.86819 0.03368
C 3.56629 30.61739 -0.03996
C 2.40147 29.9519 0.01465
C 2.32762 28.51844 -0.00074
C 3.58376 27.83341 -0.00518
C 3.65043 26.37768 0.0086
C 2.4366 25.53102 -0.00643
C 2.46724 24.19416 0.017
C 3.68335 23.45138 -0.03113
C 3.76278 22.02785 -0.02566
C 2.44728 21.44303 -0.00094
C 2.47067 19.97793 0.02322
C 3.67525 19.23338 -0.00725
C 3.76711 17.81817 -0.05697
C 2.41705 17.01675 0.01087
C 2.43413 15.63221 -0.01343
C 3.68551 14.85923 0.00988
C 3.63311 13.44615 0.0276
C 2.40695 12.77787 0.01305
C 2.42378 11.3698 -0.00077
C 3.72634 9.29197 -0.02929
C 9.86508 8.83224 -0.02689
C 4.81375 16.92037 -0.0008
C 4.98752 12.81277 0.00393
C 7.40994 8.63809 0.01641
C 7.3711 7.17759 -0.00719
C 8.6375 6.53461 0.01364
C 8.70899 5.12514 -0.01062
C 7.46414 4.36156 -0.00033
C 7.38617 2.95898 0.03589
C 8.5366 2.1754 -0.02759
C 8.50343 0.71919 0.0402
C 7.27 0.02127 0.00572
C 9.816 32.76629 0.03592
C 11.08348 32.06131 0.00406
C 11.06695 30.61721 0.00943
C 9.89345 29.93299 0.02841
C 9.84308 28.44015 -0.01111
C 11.02887 27.57802 -0.01275
C 10.84985 26.23596 0.00985
C 9.71674 25.60085 -0.02245
C 10.03602 24.15117 -0.00428
C 11.51405 24.15902 0.03101
C 8.59956 9.36036 0.02339
C 4.82812 15.73109 0.0288
C 8.79367 23.69965 -0.00334
C 7.32597 25.55677 0.00057
C 5.1142 11.47518 0.00895
C 6.21699 10.72174 0.00685
C 6.2266 9.32642 0.02888
C 4.9371 8.63131 -0.00482
C 4.90424 7.15429 -0.01384
C 6.09749 6.4462 0.03693
C 6.23305 4.99536 0.01745
C 4.94804 4.35176 0.00488
C 4.84001 2.95176 -0.01004
C 6.15744 2.25107 -0.02896
C 6.11665 0.79362 -0.00131
C 4.89553 0.12409 -0.01118
C 7.32474 32.72187 -0.014
C 8.59189 31.97691 0.02147
C 8.6719 30.57522 0.00373
C 7.39069 29.91716 -0.00191
C 7.38385 28.51115 0.00438
C 8.58675 27.77752 0.01291
C 8.56475 26.3239 0.00093
C 7.44528 24.16501 -0.01634
C 19.59051 33.99019 0.00675
C 21.9748 32.68053 -0.00311
C 23.18249 31.88404 0.00742
C 30.61678 0.72212 0.00307
C 29.42614 34.07114 0.00346
C 31.89391 32.73093 0.01713
C 33.08502 31.98829 -0.01694
C 33.06443 30.56484 0.01428
C 31.83865 29.84711 -0.02142
C 31.8287 28.45418 0.0544
C 33.05511 27.77218 0.00026
C 33.09377 26.26299 0.00682
C 31.86552 25.65825 -0.01779
C 31.87241 24.21001 0.03794
C 33.07128 23.50194 0.01927
C 33.14984 22.04888 0.01574
C 31.96684 21.30972 -0.02383
C 31.96317 19.90928 -0.01429
C 33.20098 19.19683 -0.0136
C 33.22361 17.7991 0.00594
C 31.98207 17.10494 -0.02474
C 32.02604 15.59173 0.00369
C 30.70088 2.10695 0.00716
C 33.19668 14.87264 0.00455
C 29.45641 2.82924 0.02108
C 30.74681 5.00659 0.07705
C 29.38732 25.56639 0.03265
C 29.39793 24.09555 -0.02049
C 30.69348 23.44228 -0.01854
C 30.70767 22.01311 -0.01415
C 29.47408 21.36659 -0.03039
C 29.4342 19.8725 0.01836
C 30.69581 19.20914 0.03531
C 30.67109 17.77602 -0.00669
C 29.40688 17.00987 0.0101
C 29.46204 15.57636 0.01705
C 30.73716 14.92328 -0.0405
C 30.76715 13.52012 -0.01303
C 29.51612 12.75538 -0.01461
C 29.56933 11.32519 -0.02155
C 30.78289 10.61686 -0.00944
C 30.81564 9.24621 -0.03735
C 29.55577 8.4677 -0.00971
C 29.52711 7.11067 0.01518
C 30.75075 6.40691 0.01908
C 29.43929 4.2679 0.0103
C 30.55795 26.35463 0.00261
C 33.21082 13.43299 -0.00644
C 31.94265 11.36759 0.00137
C 0.0031 19.9008 0.01951
C 1.21544 19.22456 -0.01678
C 1.17464 17.79654 0.01223
C 0.03131 17.08365 0.00648
C 34.3891 15.65261 0.02114
C 1.18925 14.91825 -0.02957
C 1.15703 13.52398 0.00343
C 34.36792 12.68791 -0.02656
C 34.40494 11.35486 -0.02442
C 1.22194 10.63054 -0.00027
C 1.25556 9.26599 -0.00583
C 0.03497 8.52826 -0.02302
C 34.39382 7.13963 -0.02849
C 1.18205 6.4357 0.02931
C 1.17654 5.0887 0.00628
C 0.00705 4.33232 -0.0345
C 0.02607 2.85268 -0.00931
C 1.25749 2.21116 -0.00939
C 1.16202 0.74879 -0.00468
C 34.42089 21.37689 -0.02213
C 31.97008 12.82523 -0.01839
C 1.19426 22.12646 0.02712
C 34.28981 24.19537 0.03076
C 33.2337 10.65979 0.00199
C 33.28399 9.27055 0.04381
C 32.05531 8.55055 0.02806
C 32.00897 7.1989 0.01504
C 33.1985 6.42093 -0.00069
C 33.1772 4.94617 0.04926
C 31.9502 4.19884 -0.03838
C 31.9397 2.86796 0.00349
C 33.16413 2.21421 -0.00323
C 33.13794 0.7741 -0.00841
C 31.8902 0.0372 0.0001
C 34.29953 32.73602 -0.02927
C 1.12524 32.0858 -0.01404
C 1.13061 30.63572 0.01027
C 34.32847 29.82409 0.01831
C 34.32217 28.41789 -0.01037
C 1.15526 27.65667 -0.00439
C 1.19341 26.23564 -0.00598
C 34.33928 25.58096 -0.05239
C 1.17873 23.51516 0.00723
C 30.51998 27.72341 0.02326
C 29.29007 28.45851 0.00924
C 29.34511 29.85995 0.0014
C 22.01851 0.06329 0.01153
C 24.39646 32.64783 0.02734
C 25.56179 31.86068 -0.0055
C 25.48546 30.51896 0.01515
C 24.18616 29.73954 -0.00225
C 25.68595 27.57073 0.00071
C 25.56006 26.19798 -0.01107
C 24.59131 24.04189 -0.01586
C 25.80021 23.40811 -0.01971
C 25.84664 21.9437 -0.02118
C 24.60878 21.22108 0.00733
C 24.56016 19.82041 -0.00178
C 25.77512 19.12346 0.00768
C 25.78481 17.71243 -0.0276
C 24.44519 17.02261 0.03005
C 24.56295 15.53445 -0.04078
C 25.87361 14.84313 0.02117
C 25.89155 13.44062 0.02737
C 24.63992 12.78534 -0.00498
C 23.23168 0.67274 0.02239
C 24.5666 11.38043 0.00135
C 23.22015 2.06141 -0.03213
C 22.09576 4.23047 0.03374
C 23.04712 30.40242 -0.01594
C 23.33026 23.33283 0.0106
C 23.3495 21.99271 -0.01154
C 22.00761 21.38779 -0.01721
C 21.97042 19.7556 -0.02422
C 23.26801 19.16461 0.01277
C 23.27057 17.7128 0.00096
C 22.05374 17.02905 -0.01527
C 22.12211 15.52063 0.01087
C 23.38636 14.82079 0.00199
C 23.37489 13.42755 0.01511
C 22.22609 12.63868 -0.00478
C 22.22473 11.20045 -0.01662
C 23.416 10.58823 -0.01185
C 23.40302 9.23066 0.01126
C 22.1466 8.52531 0.01852
C 22.14466 7.0463 -0.00381
C 23.28384 6.34329 0.03046
C 23.28908 4.91792 0.0296
C 22.0859 2.82678 -0.02845
C 25.80066 10.68488 0.03102
C 25.82751 9.17398 0.02555
C 24.60495 8.46983 0.01423
C 27.04341 15.57216 -0.00294
C 28.26546 14.87477 0.00152
C 28.3297 13.47668 0.01257
C 27.05639 12.73858 0.02316
C 27.0675 11.2916 0.04185
C 28.29059 10.51769 0.00194
C 28.30758 9.14462 -0.00621
C 27.10457 8.43993 0.02611
C 26.97413 7.00642 0.02198
C 28.28338 6.3627 0.01094
C 28.23227 4.96122 0.00235
C 26.9375 4.27068 0.01495
C 26.93419 2.77194 0.01259
C 28.20883 2.02479 0.01799
C 28.21273 0.62632 0.01699
C 26.83791 34.05475 -0.00416
C 29.36146 32.61427 0.01177
C 30.64219 32.01964 0.04266
C 30.50627 30.58536 0.01324
C 27.02294 16.96406 0.00826
C 28.24526 17.72358 0.00487
C 28.2118 19.20055 -0.00942
C 26.9378 19.85266 -0.02815
C 24.62428 7.04834 -0.00285
C 25.74954 6.29479 -0.009
C 25.71898 4.92981 -0.01199
C 24.48851 4.24709 -0.00229
C 24.49364 2.83491 -0.00938
C 25.70924 2.05588 -0.0264
C 25.70616 0.64349 -0.01154
C 24.46577 34.02867 0.00684
C 26.78315 32.62659 -0.01052
C 3.62057 32.08241 0.01996
C 28.11414 31.95592 -0.01679
C 26.83109 29.79108 0.04306
C 26.7932 28.36764 0.00996
C 28.09355 27.74661 0.00195
C 28.13254 26.26085 -0.00802
C 26.85626 25.56592 -0.00218
C 26.9091 24.13191 -0.01654
C 28.17143 23.3767 -0.00037
C 28.18876 22.03899 -0.0032
C 26.94208 21.28821 0.00622
C 28.049 30.55303 0.00367
C 2.38285 32.8018 -0.00279
