353
Graphene
C 34.36497 34.06283 0.01295
C 14.99334 16.80853 -0.00114
C 15.57648 15.51763 0.00228
C 15.96896 6.25011 0.00798
C 15.74153 4.97889 0.00422
C 14.62765 4.03761 0.0351
C 14.77717 2.70666 -0.03113
C 16.06931 2.11981 0.02098
C 16.01852 0.6942 0.01848
C 16.07592 17.87137 -0.02696
C 14.74457 0.01777 -0.00619
C 18.36035 31.90848 0.00889
C 18.42015 30.52592 -0.00481
C 17.13528 29.77581 0.00979
C 17.17978 28.36866 0.01443
C 18.38583 27.58508 0.03505
C 18.40286 26.23257 -0.02815
C 17.13909 25.51136 -0.04147
C 17.18108 24.07802 -0.05302
C 17.1681 32.70826 -0.02162
C 18.38901 23.35578 0.00213
C 16.03107 19.12639 -0.00368
C 14.72381 21.3486 -0.01957
C 12.25109 19.72758 0.02162
C 13.66178 18.91867 0.0076
C 13.70437 17.48102 0.01241
C 12.43996 2.97193 -0.01454
C 13.52274 2.09148 0.01945
C 13.5891 0.70996 0.01416
C 12.3215 0.0605 0.03542
C 14.68006 32.67888 0.02299
C 14.74795 19.84491 -0.0108
C 15.9241 31.9305 0.00244
C 14.721 29.81318 0.05265
C 14.79824 28.37937 -0.01952
C 15.93323 27.65887 -0.02813
C 15.96488 26.22373 0.00374
C 14.71451 25.51329 0.00052
C 14.72003 24.15198 -0.03682
C 15.96277 23.39679 0.01965
C 16.00471 21.98993 0.02058
C 15.9263 30.55651 -0.01717
C 12.2286 21.2426 -0.0014
C 18.38416 21.97043 -0.00066
C 17.22733 19.85061 0.00028
C 19.62423 29.77283 -0.017
C 19.61051 28.41609 0.00364
C 20.84909 27.60119 -0.00831
C 20.86695 26.19148 -0.02957
C 19.6367 25.47397 -0.04422
C 19.61964 24.02971 0.00654
C 20.89755 23.35032 -0.00703
C 20.89992 21.98946 -0.04076
C 20.85731 30.47399 0.00143
C 19.65014 21.21217 -0.00652
C 20.94175 19.17136 -0.00865
C 20.89324 17.76642 0.00675
C 19.68486 17.09363 -0.00311
C 19.66295 15.67837 0.00742
C 20.86183 14.92359 -0.01594
C 20.83582 13.56642 0.0106
C 19.63188 12.88859 -0.01154
C 19.64107 11.48516 -0.01721
C 19.71373 19.80713 0.0058
C 17.16178 21.30816 -0.00289
C 20.8835 31.94058 0.00667
C 17.261 0.02777 0.00755
C 18.46566 19.1536 -0.02213
C 18.51659 17.78044 0.03698
C 17.20674 17.09027 -0.00109
C 17.015 15.72825 -0.00491
C 18.3033 15.01632 0.03338
C 18.27498 13.599 -0.0258
C 17.20148 12.72127 -0.0331
C 17.27134 11.52064 -0.00316
C 19.60588 32.59418 -0.0054
C 18.37922 10.71585 0.02188
C 17.18675 8.5835 0.02691
C 17.02941 7.21945 -0.01581
C 18.41056 6.46304 0.01452
C 18.3561 5.02949 0.04892
C 17.14056 4.31926 -0.00111
C 17.24197 2.84333 -0.03557
C 18.52407 2.14908 0.03754
C 18.49781 0.74408 0.01739
C 18.37624 9.26927 -0.01979
C 13.40426 21.95317 0.00415
C 13.45009 23.42467 -0.02162
C 12.27385 24.13815 0.01363
C 4.87799 32.75726 0.03007
C 6.15972 32.05476 -0.00095
C 6.08837 30.63494 0.01572
C 4.91812 29.84116 -0.04848
C 4.94146 28.43544 -0.00892
C 6.15739 27.71165 -0.01362
C 6.14474 26.27952 -0.0008
C 4.88088 25.57425 0.0288
C 2.32464 34.0769 0.00054
C 4.8838 24.16661 0.00393
C 6.07547 22.11131 0.00685
C 4.88132 21.44978 0.02888
C 4.86772 19.9839 -0.00482
C 5.95628 19.15372 -0.01384
C 4.37943 4.36948 0.03693
C 4.73053 3.03829 0.01745
C 5.97376 2.30639 0.00488
C 6.05505 0.85983 -0.01004
C 6.10977 23.47664 0.00895
C 4.81481 0.06213 -0.02896
C 3.555 0.71528 -0.00494
C 2.37989 2.77689 -0.01142
C 3.64772 30.55359 0.00988
C 2.39272 29.85032 0.0276
C 2.37168 28.40689 0.01305
C 3.69819 27.6931 -0.00077
C 3.66349 26.37604 0.03368
C 2.38501 25.62224 -0.02929
C 2.39971 24.21234 -0.00966
C 3.60699 23.51195 -0.03337
C 3.5766 2.22631 -0.00562
C 3.67053 22.13686 0.01227
C 2.3506 19.98146 -0.00049
C 3.56359 19.3073 0.00848
C 3.79261 17.9337 -0.01303
C 2.56344 17.07407 -0.01378
C 2.42477 15.66249 0.02635
C 2.70517 6.61491 0.0127
C 3.34226 5.34805 0.01396
C 2.30636 4.24202 0.01849
C 2.4355 21.37848 0.00873
C 7.37667 32.80556 -0.00131
C 8.63967 32.06244 -0.01118
C 8.51035 30.60378 -0.014
C 9.84682 24.1321 -0.01111
C 11.02826 23.44153 -0.01275
C 11.02179 22.0118 0.00985
C 9.88448 21.29195 -0.02245
C 9.83528 19.69357 -0.00428
C 11.06804 19.17431 0.03101
C 9.80262 2.92638 -0.01536
C 11.107 2.4769 -0.02689
C 9.89781 25.63426 0.02841
C 11.06546 0.86647 -0.01046
C 12.27586 32.66304 0.02819
C 13.5029 31.95716 0.00165
C 13.48352 30.59264 -0.02971
C 12.19792 29.90161 0.02894
C 12.3357 28.49611 -0.01789
C 13.57719 27.77139 0.00444
C 13.56699 26.26819 -0.00925
C 12.3406 25.55695 0.01877
C 9.85276 0.24954 -0.00891
C 11.1291 26.333 0.00943
C 11.12538 27.73961 0.00406
C 9.88077 28.43567 0.03592
C 7.29765 29.95774 0.02147
C 7.39731 28.54072 0.00373
C 8.61272 27.80815 -0.00191
C 8.59989 26.3539 0.00438
C 7.36735 25.63346 0.01291
C 7.35694 24.16099 0.00093
C 8.53133 23.39679 0.00057
C 8.63864 22.00533 -0.01634
C 7.34458 21.37397 -0.00334
C 7.16857 19.76808 0.02339
C 8.48433 19.26431 0.01641
C 7.27722 2.98302 -0.00719
C 8.541 2.3331 0.01364
C 8.56703 0.82586 -0.01062
C 7.33603 0.14828 -0.00033
C 9.81776 32.84053 0.03589
C 11.0555 32.0269 -0.02759
C 11.0291 30.60618 0.0402
C 9.79269 29.82476 0.00572
C 20.73026 10.70061 -0.02422
C 3.65736 31.97145 -0.01343
C 20.8435 9.21045 0.01277
C 19.67172 7.05302 -0.01527
C 30.78368 13.50462 -0.01694
C 29.54912 12.73197 0.01428
C 30.58723 2.08496 -0.02142
C 30.60197 0.70807 0.0544
C 29.48632 34.03935 0.00026
C 31.90599 32.67745 0.00682
C 33.10551 31.94881 -0.01779
C 33.08455 30.5631 0.03794
C 30.74758 14.9587 0.01713
C 31.92506 29.72902 0.01927
C 33.15523 27.74939 -0.02383
C 33.10329 26.29565 -0.01429
C 31.94804 25.58403 -0.0136
C 31.96853 24.13684 0.00594
C 33.18467 23.45197 -0.02474
C 33.21091 21.9778 0.00369
C 31.9502 21.29721 0.00455
C 31.99373 19.81361 -0.00644
C 31.9189 28.35562 0.01574
C 33.21836 19.11361 -0.01839
C 29.55213 15.65928 0.00346
C 30.7611 17.76708 0.00716
C 27.06769 2.56669 -0.03039
C 28.22015 1.99672 0.01836
C 28.25983 0.68489 0.03531
C 27.05096 34.07275 -0.00669
C 29.4562 32.55199 0.0101
C 30.68134 31.89971 0.01705
C 30.66016 30.50979 -0.0405
C 29.37285 29.80115 -0.01303
C 29.52064 17.09418 0.00307
C 29.41865 28.38954 -0.01461
C 30.67417 26.25592 -0.00944
C 29.48273 25.56619 -0.03735
C 29.49975 24.16994 -0.00971
C 30.69347 23.4396 0.01518
C 30.67077 22.10438 0.01908
C 29.49127 21.37648 0.07705
C 29.45647 19.95738 0.0103
C 30.6594 19.20461 0.02108
C 30.64817 27.708 -0.02155
C 26.9661 11.54631 -0.01415
C 33.36925 17.64812 0.00137
C 31.96839 15.69061 0.04381
C 1.21385 19.26093 -0.01678
C 1.21461 17.75992 0.01223
C 0.08385 16.97592 0.00648
C 0.04278 15.55509 0.02114
C 1.29945 14.83908 -0.02957
C 1.16078 13.46375 0.00343
C 34.36082 12.82004 -0.02656
C 0.12406 11.31846 -0.02442
C 34.39144 19.95493 0.01951
C 1.43857 10.85573 -0.00027
C 0.42012 8.38939 -0.02302
C 0.03664 7.04438 -0.02849
C 1.27354 6.33259 0.02931
C 0.98305 4.95777 0.00628
C 34.23462 4.29163 -0.0345
C 34.32094 2.84617 -0.00931
C 1.11558 2.03318 -0.00939
C 1.10473 0.69033 -0.00468
C 1.07873 9.53943 -0.00583
C 32.08338 17.04608 0.00199
C 34.38326 21.31776 -0.02213
C 1.2042 23.43563 0.00723
C 33.20243 14.8829 0.02806
C 33.15866 13.55184 0.01504
C 31.97755 12.8278 -0.00069
C 32.17488 11.36731 0.04926
C 33.26531 10.76676 -0.03838
C 31.83138 2.71408 0.00349
C 33.14167 2.20651 -0.00323
C 33.17194 0.69698 -0.00841
C 1.15011 22.04246 0.02712
C 31.88578 0.0438 0.0001
C 1.19819 31.99783 -0.01404
C 1.21581 30.56342 0.01027
C 34.40209 29.86814 0.01831
C 34.40595 28.45618 -0.01037
C 1.14954 27.72782 -0.00439
C 1.15016 26.30948 -0.00598
C 34.37525 25.55886 -0.05239
C 34.38101 24.12477 0.03076
C 34.37889 32.68689 -0.02927
C 27.13327 12.81621 -0.01854
C 28.34752 13.44244 -0.02049
C 28.31231 14.89735 0.03265
C 22.14015 17.03582 -0.01586
C 22.08886 15.62774 -0.01971
C 23.31106 14.86797 -0.02118
C 23.3714 13.47468 0.00733
C 22.07763 12.77097 -0.00178
C 22.02961 11.38749 0.00768
C 23.31682 10.68284 -0.0276
C 23.32578 9.24366 0.03005
C 23.40759 17.76169 -0.01107
C 22.06351 8.48624 -0.04078
C 23.35283 6.38567 0.02737
C 23.35398 4.96736 -0.00498
C 22.09333 4.29102 0.00135
C 22.12724 2.85501 0.03102
C 23.29073 2.14994 0.02555
C 23.37599 0.68535 0.01423
C 22.18706 34.07375 -0.00285
C 24.55973 32.63429 -0.009
C 22.03094 7.07014 0.02117
C 25.87602 32.02956 -0.01199
C 23.41598 19.17117 0.00071
C 22.12727 21.26875 0.01515
C 20.87435 6.29002 0.01087
C 20.91787 4.92904 0.00199
C 19.6496 4.34407 0.01511
C 19.70828 2.88016 -0.00478
C 20.91638 2.12644 -0.01662
C 20.91862 0.71432 -0.01185
C 19.67838 0.02242 0.01126
C 22.11568 32.67419 0.01852
C 22.1637 19.84644 -0.00225
C 23.35482 31.94268 -0.00381
C 22.03549 29.82865 0.0296
C 22.05509 28.32176 0.03374
C 23.43051 27.66081 -0.02845
C 23.32184 26.25834 -0.03213
C 22.09363 25.54857 0.02239
C 22.1703 24.08492 0.01153
C 23.26173 23.36012 0.02734
C 23.34013 21.95493 -0.0055
C 23.34413 30.46732 0.03046
C 25.81463 30.65688 -0.00229
C 24.61352 29.83512 -0.00938
C 24.53405 28.40276 -0.0264
C 24.56624 34.06119 0.00194
C 27.00861 32.71195 -0.00621
C 28.19866 31.86903 0.02611
C 28.19239 30.49796 0.02198
C 26.98332 29.84078 0.01094
C 26.92024 28.41189 0.00235
C 28.19742 27.65131 0.01495
C 28.20451 26.27289 0.01259
C 25.83039 0.71627 0.04185
C 26.96992 25.59994 0.01799
C 28.23261 23.49344 -0.00416
C 28.20487 22.08421 0.01177
C 27.00117 21.3568 0.04266
C 27.05362 19.93495 0.01324
C 28.35315 19.16765 0.0014
C 28.31404 17.78097 0.00924
C 27.06117 17.09736 0.02326
C 27.02395 15.63465 0.00261
C 26.96982 24.12796 0.01699
C 25.82435 2.11269 0.02316
C 24.58339 2.93554 0.01257
C 24.66568 4.3152 0.00152
C 25.73881 27.64108 -0.01154
C 25.75893 26.23804 0.00684
C 24.54354 25.53405 -0.01052
C 24.53539 24.11395 -0.01679
C 25.7626 23.38097 0.00367
C 25.78321 22.04998 0.04306
C 24.53212 21.33258 0.00996
C 24.60763 19.91158 0.00195
C 25.83891 19.24303 -0.00802
C 25.82078 17.7485 -0.00218
C 24.57164 17.01222 -0.01654
C 24.52111 15.6315 -0.00037
C 25.86719 14.97782 -0.0032
C 25.79122 13.45623 0.00622
C 24.58879 12.77716 -0.02815
C 24.45969 11.29085 -0.00942
C 25.77471 10.70586 0.00487
C 24.50874 8.54238 0.00826
C 24.45963 7.23092 -0.00294
C 19.67377 8.45004 0.00096
C 2.42938 32.60804 0.01087
