336
Graphene
C 34.40295 0.01285 0.01295
C 13.55796 0.67725 -0.00481
C 12.35339 34.07306 0.00979
C 14.79042 32.60395 0.01443
C 16.02606 31.95214 0.03505
C 16.00057 30.48988 -0.02815
C 14.79651 29.83344 -0.04147
C 14.72881 28.43183 -0.05302
C 15.90143 27.65753 0.00213
C 15.9038 26.3069 -0.00066
C 14.74997 25.48065 -0.00289
C 14.79946 23.99475 0.00028
C 16.07059 23.35735 -0.02213
C 16.06079 21.7751 0.03698
C 14.85438 21.35865 -0.00109
C 14.64147 2.89194 -0.00491
C 15.89097 2.23898 0.03338
C 16.04492 0.73241 -0.0258
C 13.5912 2.11289 0.00889
C 14.78343 34.03269 -0.0331
C 12.31021 2.8484 -0.02162
C 13.69907 22.11415 0.01848
C 9.84568 6.9457 -0.02813
C 11.00037 5.06299 0.00374
C 9.81837 4.39013 0.00052
C 9.80595 2.9964 -0.03682
C 10.96956 2.21596 0.01965
C 11.03654 0.75157 0.02058
C 9.81974 0.02684 -0.01957
C 12.27193 32.71251 -0.0108
C 13.49746 32.02354 -0.00368
C 13.59324 30.59568 -0.02696
C 12.38418 29.87564 -0.00114
C 12.28885 28.49649 0.00228
C 13.49059 27.65182 0.00798
C 13.49092 26.2961 0.00422
C 12.30939 25.59947 0.0351
C 12.3645 24.1147 -0.03113
C 13.52262 23.40611 0.02098
C 12.01757 4.13641 -0.00619
C 11.12012 23.64622 -0.01952
C 17.24752 32.70924 -0.00316
C 18.48958 30.46863 -0.01979
C 19.66435 24.10438 0.0058
C 20.90644 23.48477 -0.00865
C 20.97912 22.09735 0.00675
C 19.87829 21.16698 -0.00311
C 20.6686 19.76246 0.00742
C 19.73088 2.86143 -0.01594
C 20.89948 2.1764 0.0106
C 20.91136 0.68107 -0.01154
C 19.62873 34.0042 -0.01721
C 22.05158 32.63396 -0.02422
C 23.37554 31.99505 0.01277
C 23.36715 30.54769 0.00096
C 22.14204 29.86998 -0.01527
C 22.13847 28.34625 0.01087
C 23.36867 27.67856 0.00199
C 23.3787 26.27245 0.01511
C 22.13954 25.60583 -0.00478
C 19.59036 25.57862 -0.00652
C 18.45448 31.87319 0.02188
C 20.88865 26.28069 -0.04076
C 19.62604 28.39389 0.00654
C 17.18902 29.78516 0.02691
C 17.12838 28.28581 -0.01581
C 18.4041 27.67231 0.01452
C 18.39186 26.23421 0.04892
C 17.21075 25.54762 -0.00111
C 17.26681 24.07243 -0.03557
C 18.52933 23.34855 0.03754
C 18.57818 21.86441 0.01739
C 17.34395 21.27925 0.00755
C 17.14082 2.72979 -0.0054
C 18.43967 2.3449 0.00667
C 18.44352 0.80103 0.00143
C 17.2935 0.01039 -0.017
C 19.6056 32.63629 0.00364
C 20.85774 31.90661 -0.00831
C 20.88767 30.46453 -0.02957
C 19.59779 29.72867 -0.04422
C 20.94387 27.67878 -0.00703
C 22.19878 24.21646 -0.01662
C 9.85161 24.05293 0.05265
C 11.08497 26.32549 0.00244
C 2.40991 7.08839 0.00488
C 3.56041 6.30887 -0.01004
C 3.58171 4.93272 -0.02896
C 2.41027 4.18737 -0.00131
C 2.3941 2.78785 -0.01118
C 3.68361 2.09494 -0.014
C 3.69935 0.65915 0.02147
C 2.48195 34.07034 0.00373
C 4.89966 32.69696 -0.00191
C 6.14579 31.97186 0.00438
C 6.17404 30.54721 0.01291
C 4.93025 29.86129 0.00093
C 4.94117 28.43045 0.00057
C 6.16747 27.73012 -0.01634
C 6.13072 26.29205 -0.00334
C 4.8908 25.62076 0.02339
C 4.91546 24.09881 0.01641
C 2.35033 8.50354 0.01745
C 6.18368 23.4313 -0.00719
C 3.5589 9.22797 0.03693
C 2.46411 11.34673 -0.00482
C 3.67613 30.57515 0.01849
C 2.43503 29.90152 -0.01142
C 2.44788 28.50552 -0.00562
C 3.68415 27.75638 -0.00494
C 3.7403 26.29327 0.00054
C 2.41057 25.56811 0.03007
C 2.44811 24.16711 -0.00095
C 3.68458 23.4182 0.01572
C 3.78857 21.93267 -0.04848
C 2.55639 21.29154 -0.00892
C 2.51508 19.76309 -0.01362
C 3.74085 18.89106 -0.0008
C 2.54086 17.26498 0.0288
C 2.53984 15.87711 0.00393
C 3.5618 14.87561 0.00895
C 3.60038 13.57114 0.00685
C 2.47124 12.73496 0.02888
C 3.59819 10.69411 -0.01384
C 9.85537 25.58889 -0.01717
C 6.17835 22.03526 0.01364
C 4.84591 11.25708 -0.00033
C 8.94103 10.50245 0.02894
C 8.39405 9.25519 -0.01789
C 7.24066 8.49033 0.00444
C 7.27947 7.12242 -0.00925
C 8.52787 6.5232 0.01877
C 8.50815 5.06132 0.01363
C 7.35109 4.33456 -0.02162
C 7.40102 2.87906 0.00415
C 8.64926 2.15177 -0.0014
C 8.65093 0.74948 0.02162
C 7.42967 0.07792 0.0076
C 9.86132 32.73179 0.01241
C 11.06788 32.00038 -0.01454
C 11.07885 30.5995 0.01945
C 9.89521 29.89275 0.01416
C 9.82846 28.43293 0.03542
C 11.07057 27.71719 0.02299
C 8.53671 23.48056 -0.02971
C 4.98633 21.46457 -0.01062
C 7.30955 24.25553 0.00165
C 8.62459 26.34286 -0.00891
C 5.90638 10.40287 0.03589
C 6.01073 9.0672 -0.02759
C 4.78315 8.44657 0.0402
C 4.85088 7.0716 0.00572
C 6.06142 6.39652 0.03592
C 6.11971 4.95046 0.00406
C 4.89298 4.21302 0.00943
C 4.88441 2.87226 0.02841
C 6.21595 2.11923 -0.01111
C 6.16143 0.74295 -0.01275
C 4.91542 34.03632 0.00985
C 7.40281 32.74139 -0.02245
C 8.61032 31.96138 -0.00428
C 8.63453 30.51974 0.03101
C 7.41945 29.89361 -0.01536
C 7.39073 28.46783 -0.02689
C 8.57579 27.8416 -0.01046
C 7.37266 25.6455 0.02819
C 23.41462 23.53554 -0.01185
C 23.34679 22.12079 0.01126
C 22.20358 21.39726 0.01852
C 31.91124 28.38158 0.0544
C 33.13495 27.72301 0.00026
C 33.19453 26.29892 0.00682
C 31.93874 25.5199 -0.01779
C 31.95032 24.15149 0.03794
C 33.21985 23.49119 0.01927
C 33.24948 21.99679 0.01574
C 32.01866 21.23696 -0.02383
C 31.90152 19.8438 -0.01429
C 33.21658 19.18886 -0.0136
C 33.16664 17.74218 0.00594
C 31.88827 17.04457 -0.02474
C 31.85974 15.62742 0.00369
C 33.22327 14.93737 0.00455
C 33.26282 13.54236 -0.00644
C 31.94377 12.77603 -0.01839
C 31.9406 11.44657 0.00137
C 31.95433 29.81247 -0.02142
C 33.23379 10.67436 0.00199
C 33.20378 30.5413 0.01428
C 31.99729 32.66839 0.01713
C 29.4949 17.01924 0.0101
C 29.47406 15.5956 0.01705
C 30.6716 14.96181 -0.0405
C 30.74833 13.44923 -0.01303
C 29.54831 12.79412 -0.01461
C 29.47734 11.33991 -0.02155
C 30.70759 10.68829 -0.00944
C 30.70074 9.27885 -0.03735
C 29.45589 8.5175 -0.00971
C 29.5009 7.12305 0.01518
C 30.78151 6.40303 0.01908
C 30.73543 5.01565 0.07705
C 29.45263 4.28127 0.0103
C 29.49251 2.88964 0.02108
C 30.72953 2.11523 0.00716
C 30.67547 0.75326 0.00307
C 29.49738 0.02455 0.00346
C 33.19059 32.00019 -0.01694
C 30.69477 17.68221 -0.00669
C 33.17965 9.23997 0.04381
C 32.01579 7.12234 0.01504
C 1.26701 17.74438 0.01223
C 34.43238 17.10166 0.00648
C 0.02447 15.66563 0.02114
C 1.23482 14.9337 -0.02957
C 1.26685 13.59782 0.00343
C 34.42009 12.83018 -0.02656
C 34.42932 11.37417 -0.02442
C 1.2289 10.63502 -0.00027
C 1.14271 9.27845 -0.00583
C 34.40204 8.5012 -0.02302
C 34.37507 7.11592 -0.02849
C 1.18251 6.36998 0.02931
C 1.2033 4.89878 0.00628
C 34.39493 4.25015 -0.0345
C 34.39867 2.82712 -0.00931
C 1.14618 2.09357 -0.00939
C 1.19552 0.71227 -0.00468
C 1.25983 19.13314 -0.01678
C 31.96073 8.50813 0.02806
C 34.40292 19.87163 0.01951
C 1.29362 22.03428 0.02712
C 33.19649 6.35793 -0.00069
C 33.10421 4.97245 0.04926
C 31.93138 4.2532 -0.03838
C 31.91119 2.88013 0.00349
C 33.15005 2.17136 -0.00323
C 33.20273 0.7564 -0.00841
C 31.96936 0.01134 0.0001
C 0.0086 32.70162 -0.02927
C 1.21105 31.98464 -0.01404
C 1.24773 30.5883 0.01027
C 0.02179 29.84293 0.01831
C 0.03529 28.43392 -0.01037
C 1.24634 27.69875 -0.00439
C 1.17447 26.33201 -0.00598
C 0.00108 25.63125 -0.05239
C 0.02097 24.112 0.03076
C 1.24854 23.39553 0.00723
C 0.01689 21.2564 -0.02213
C 30.68413 19.19139 0.03531
C 29.47876 19.83563 0.01836
C 29.50043 21.23527 -0.03039
C 24.53235 19.9229 0.03005
C 25.83647 19.18746 -0.04078
C 25.7828 17.71321 0.02117
C 24.35565 16.92286 0.02737
C 24.5988 15.60242 -0.00498
C 25.74476 14.89342 0.00135
C 25.87826 13.47665 0.03102
C 25.9505 10.58596 0.02555
C 25.92936 9.26217 0.01423
C 24.51986 7.09169 -0.00285
C 25.76702 6.42231 -0.009
C 25.76791 4.92543 -0.01199
C 24.49226 4.19645 -0.00229
C 24.54006 2.8226 -0.00938
C 25.79932 2.14839 -0.0264
C 25.77987 0.72444 -0.01154
C 24.49007 34.07009 0.00684
C 24.6024 21.3244 -0.0276
C 26.97507 32.66215 -0.01052
C 25.87783 22.03407 0.00768
C 24.62955 24.1498 0.00733
C 22.07188 20.02536 -0.00381
C 23.29547 19.18671 0.03046
C 23.33064 17.84387 0.0296
C 23.36159 4.9261 0.03374
C 22.12383 4.28124 -0.02845
C 22.09308 2.8291 -0.03213
C 23.28284 2.13972 0.02239
C 23.31255 0.68101 0.01153
C 22.12721 34.00824 0.02734
C 24.58556 32.65136 -0.0055
C 25.74865 31.90567 0.01515
C 25.80655 30.48303 -0.00225
C 24.54852 29.79894 0.00071
C 24.56044 28.36438 -0.01107
C 25.84825 27.66679 -0.01586
C 25.87379 26.23706 -0.01971
C 24.60669 25.54926 -0.02118
C 25.85094 23.42299 -0.00178
C 28.20364 31.90301 -0.01679
C 28.20123 30.48914 0.00367
C 27.01067 29.75087 0.04306
C 28.2342 4.98331 0.00235
C 26.98935 4.26643 0.01495
C 27.06342 2.84454 0.01259
C 28.25132 2.1146 0.01799
C 28.2514 0.6537 0.01699
C 27.0358 0.04726 -0.00416
C 29.49896 32.65705 0.01177
C 30.76715 31.98807 0.04266
C 30.7364 30.54209 0.01324
C 29.46825 29.80541 0.0014
C 29.43921 28.37191 0.00924
C 30.76641 27.65657 0.02326
C 30.74547 26.2743 0.00261
C 29.5215 25.46982 0.03265
C 29.57943 24.02879 -0.02049
C 30.76824 23.37015 -0.01854
C 30.68699 21.9482 -0.01415
C 28.27099 6.38782 0.01094
C 27.03831 7.01933 0.02198
C 26.97152 8.49536 0.02611
C 28.22871 9.26976 -0.00621
C 27.07766 28.25428 0.00996
C 28.27274 27.60242 0.00195
C 28.22844 26.16422 -0.00802
C 27.08012 25.5102 -0.00218
C 27.08004 24.09866 -0.01654
C 28.30601 23.36273 -0.00037
C 28.30417 21.98953 -0.0032
C 27.02182 21.29227 0.00622
C 3.76701 31.91973 0.01396
C 27.00658 19.87291 -0.02815
C 28.21504 17.80367 0.00487
C 26.9625 17.04188 0.00826
C 27.02283 15.62255 -0.00294
C 28.21915 14.85358 0.00152
C 28.27167 13.55391 0.01257
C 27.04095 12.81842 0.02316
C 26.95926 11.41862 0.04185
C 28.21658 10.63551 0.00194
C 28.22396 19.19283 -0.00942
C 2.51129 32.62301 0.0127
