413
Graphene
C 34.35746 34.02172 0.01295
C 14.61329 25.69463 -0.02245
C 14.5858 24.25703 -0.00428
C 15.7631 23.43734 0.03101
C 15.86348 21.97191 -0.01536
C 14.48492 21.15719 -0.02689
C 14.6071 19.71668 -0.01046
C 15.88559 19.11531 -0.00891
C 15.90267 17.55042 0.02819
C 14.67554 16.66811 0.00165
C 14.65582 15.19045 -0.02971
C 15.98192 14.738 0.02894
C 16.08816 13.36734 -0.01789
C 14.85036 12.7438 0.00444
C 14.81003 11.36824 -0.00925
C 16.08402 10.5505 0.01877
C 15.94406 9.25541 0.01363
C 14.71682 8.60992 -0.02162
C 14.78352 7.17311 0.00415
C 15.84723 6.45201 -0.0014
C 16.00385 5.03407 0.02162
C 14.76626 4.28313 0.0076
C 15.81937 26.35201 0.00985
C 15.87279 27.68667 -0.01275
C 14.72157 28.43821 -0.01111
C 14.70513 29.88117 0.02841
C 13.41722 26.29426 0.02147
C 12.16296 25.70044 0.00373
C 11.93262 24.32404 -0.00191
C 13.24044 23.59261 0.00438
C 13.50292 22.19848 0.01291
C 13.77546 13.78037 0.00093
C 12.65881 13.05114 0.00057
C 12.31381 11.59828 -0.01634
C 13.49847 10.75579 -0.00334
C 13.49541 9.39112 0.02339
C 14.64969 2.89294 0.01241
C 12.22107 8.70742 0.01641
C 13.44229 6.446 0.01364
C 13.5683 5.07533 -0.01062
C 12.30694 4.26617 -0.00033
C 12.26477 2.91927 0.03589
C 13.48427 2.10834 -0.02759
C 13.45378 0.7384 0.0402
C 12.20175 0.07112 0.00572
C 14.76741 32.77255 0.03592
C 15.9499 31.99059 0.00406
C 15.93606 30.52555 0.00943
C 12.24519 7.22124 -0.00719
C 15.98495 2.19625 -0.01454
C 15.93152 0.71924 0.01945
C 14.68236 0.02049 0.01416
C 18.43391 4.93404 0.00889
C 17.24888 4.23457 -0.00481
C 17.27135 2.80768 0.00979
C 18.4973 2.13588 0.01443
C 18.43654 0.65692 0.03505
C 17.22974 0.01519 -0.02815
C 19.66544 32.65437 -0.04147
C 20.86573 31.87554 -0.05302
C 20.84847 30.53091 0.00213
C 19.67864 29.89562 -0.00066
C 18.39946 6.34136 -0.02162
C 19.62302 28.50458 -0.00289
C 20.73538 26.34992 -0.02213
C 19.56975 25.54313 0.03698
C 19.63694 24.14679 -0.00109
C 20.91363 23.44936 -0.00491
C 20.90236 21.9799 0.03338
C 19.56402 21.29784 -0.0258
C 19.61865 19.85568 -0.0331
C 20.88229 19.16291 -0.00316
C 20.89394 17.72306 0.02188
C 19.64652 17.02826 -0.01979
C 20.78858 27.71201 0.00028
C 13.42002 27.76147 -0.014
C 17.10791 7.03993 -0.00619
C 18.47614 9.18419 0.02098
C 17.18388 32.71685 0.03542
C 18.40428 32.06483 0.02299
C 18.36137 30.62673 0.00244
C 17.1675 29.92385 -0.01717
C 17.11486 28.41404 0.05265
C 18.42192 27.70611 -0.01952
C 18.30672 26.28158 -0.02813
C 17.10824 25.61792 0.00374
C 17.06663 24.12019 0.00052
C 18.29284 23.38716 -0.03682
C 17.1916 8.48594 0.01848
C 18.29452 22.01134 0.01965
C 17.22388 19.86042 -0.01957
C 18.35481 19.10172 -0.0108
C 18.41398 17.66179 -0.00368
C 17.1504 16.96588 -0.02696
C 17.1901 15.55887 -0.00114
C 18.52314 14.83901 0.00228
C 18.55915 13.46972 0.00798
C 17.35756 12.6719 0.00422
C 17.3083 11.26881 0.0351
C 18.45437 10.52355 -0.03113
C 17.13083 21.28949 0.02058
C 12.23398 28.51268 -0.01118
C 12.2386 29.91148 -0.00131
C 13.509 30.59877 -0.02896
C 2.37487 2.88792 0.03284
C 3.61747 2.1563 -0.04307
C 3.66472 0.78737 0.03189
C 2.47127 34.05385 0.00031
C 4.80797 32.70277 -0.003
C 6.06652 32.01385 0.01402
C 6.15637 30.53307 0.02379
C 4.82848 29.82584 0.00907
C 4.83279 28.39244 0.00643
C 6.14789 27.66673 -0.01509
C 2.44837 4.20536 0.04505
C 6.12564 26.30199 0.03267
C 4.94353 24.16996 0.00402
C 6.2499 23.45667 0.0073
C 6.14917 13.40206 0.0174
C 4.9688 12.8042 0.03828
C 4.9256 11.45297 0.01226
C 6.10178 10.67911 -0.00279
C 6.14333 9.32368 0.01996
C 4.81875 8.61418 -0.03996
C 4.80003 7.15714 0.01465
C 6.03505 6.50946 -0.00074
C 4.94506 25.59391 0.02374
C 6.08527 5.1145 -0.00518
C 3.65526 4.99608 -0.04999
C 2.38306 7.05881 0.02769
C 3.61585 30.53216 -0.00177
C 2.4111 29.82935 0.04421
C 2.39659 28.37458 0.00088
C 3.64325 27.67397 0.00828
C 3.65757 26.20525 -0.02375
C 2.462 25.4727 0.00558
C 2.38193 24.07323 -0.0059
C 3.69152 23.41063 -0.01386
C 3.68684 21.99105 -0.02805
C 2.34248 21.34043 0.00081
C 3.51898 6.33995 -0.03291
C 2.35861 19.93902 0.00245
C 3.53297 17.88643 -0.00039
C 2.45687 16.99832 0.0064
C 2.45764 15.56196 0.00211
C 3.72986 14.94265 -0.00449
C 3.75451 13.51166 -0.01979
C 2.40582 12.79189 0.02784
C 2.48528 11.41156 -0.01977
C 3.68541 10.71149 -0.00561
C 3.64573 9.27841 0.00208
C 2.42231 8.64131 0.01707
C 3.47071 19.1654 0.02728
C 19.72936 15.57936 0.02691
C 4.85658 4.28775 0.0086
C 6.06911 2.25682 0.017
C 11.01184 30.59559 -0.01142
C 9.80177 29.93517 -0.00562
C 9.76805 28.51348 -0.00494
C 11.00542 27.92396 0.00054
C 11.03316 26.5202 0.03007
C 9.9068 25.60318 -0.00095
C 10.38313 24.23479 0.01572
C 9.3288 13.02564 -0.04848
C 9.74915 11.76435 -0.00892
C 11.06271 10.90244 -0.01362
C 10.95438 31.97333 0.01849
C 11.0168 9.47692 -0.0008
C 9.82387 7.19273 0.00393
C 11.01165 6.46786 0.00895
C 10.98929 4.99373 0.00685
C 9.74928 4.37306 0.02888
C 9.77572 2.90154 -0.00482
C 11.01695 2.21471 -0.01384
C 11.05071 0.78496 0.03693
C 9.82906 0.02039 0.01745
C 12.25824 32.71869 0.00488
C 13.50641 32.05458 -0.01004
C 9.88772 8.65652 0.0288
C 4.86985 2.85185 -0.00643
C 9.76117 32.73426 0.01396
C 8.52888 0.82459 0.02635
C 6.09665 0.73178 -0.03113
C 4.89067 0.04763 -0.02566
C 7.25766 32.67131 -0.00094
C 8.49895 32.09098 0.02322
C 8.58528 30.63222 -0.00725
C 7.39271 29.8848 -0.05697
C 7.35409 28.39857 0.01087
C 8.58851 27.71988 -0.01343
C 8.67001 26.24686 0.00988
C 7.46625 25.50267 0.0276
C 7.29591 0.11368 0.0127
C 7.38376 24.27399 0.01305
C 7.41454 11.4787 0.03368
C 8.56237 10.71483 -0.02929
C 8.5738 9.33307 -0.00966
C 7.36267 8.57697 -0.03337
C 7.35855 7.1756 0.01227
C 8.53627 6.51069 0.00873
C 8.50276 5.10593 -0.00049
C 7.34596 4.42243 0.00848
C 7.31385 2.93551 -0.01303
C 8.53976 2.24536 -0.01378
C 7.52591 12.88048 -0.00077
C 3.56161 31.98045 0.03278
C 20.9704 14.96878 -0.01581
C 19.74869 12.81077 0.04892
C 30.66396 9.14231 -0.03735
C 29.47849 8.39766 -0.00971
C 29.45548 7.00669 0.01518
C 30.65421 6.32219 0.01908
C 30.74297 4.97167 0.07705
C 29.50342 4.29186 0.0103
C 29.43023 2.83589 0.02108
C 30.74371 2.12694 0.00716
C 30.7008 0.69137 0.00307
C 29.52061 0.01975 0.00346
C 31.96059 32.64145 0.01713
C 33.12904 31.98879 -0.01694
C 33.16371 30.54671 0.01428
C 31.87478 29.84081 -0.02142
C 31.98404 28.4529 0.0544
C 33.14486 27.66086 0.00026
C 33.18916 26.31509 0.00682
C 31.97588 25.58235 -0.01779
C 31.96193 24.09652 0.03794
C 33.1864 23.46945 0.01927
C 33.14233 22.01936 0.01574
C 30.67753 10.53716 -0.00944
C 29.46021 11.25373 -0.02155
C 29.47896 12.71627 -0.01461
C 30.69425 13.40884 -0.01303
C 26.94776 2.84669 0.01259
C 28.22375 2.07995 0.01799
C 28.24049 0.66921 0.01699
C 27.02723 34.00731 -0.00416
C 29.49019 32.73309 0.01177
C 30.71123 31.95471 0.04266
C 30.67948 30.55533 0.01324
C 29.38698 29.70358 0.0014
C 29.45884 28.28765 0.00924
C 30.74852 27.73723 0.02326
C 31.91158 21.34338 -0.02383
C 30.67682 26.2955 0.00261
C 29.48791 24.16576 -0.02049
C 30.77889 23.41259 -0.01854
C 30.71488 21.95507 -0.01415
C 29.50764 21.26818 -0.03039
C 29.49781 19.80045 0.01836
C 30.78046 19.19536 0.03531
C 30.72873 17.71596 -0.00669
C 29.52883 16.96651 0.0101
C 29.48274 15.6001 0.01705
C 30.75289 14.901 -0.0405
C 29.50291 25.59044 0.03265
C 31.94458 19.91532 -0.01429
C 33.22088 19.15013 -0.0136
C 33.23972 17.72003 0.00594
C 1.1182 23.36707 0.00723
C 1.04684 21.9445 0.02712
C 34.35209 21.22362 -0.02213
C 34.39594 19.85526 0.01951
C 1.16555 19.16611 -0.01678
C 1.20247 17.79414 0.01223
C 0.03246 16.96443 0.00648
C 34.41983 15.61094 0.02114
C 1.15662 14.90087 -0.02957
C 1.17952 13.47494 0.00343
C 34.36287 24.1255 0.03076
C 34.42398 12.70912 -0.02656
C 1.21204 10.56976 -0.00027
C 1.19558 9.27213 -0.00583
C 34.41488 8.52034 -0.02302
C 34.31018 7.13012 -0.02849
C 1.14024 6.33579 0.02931
C 1.18481 4.94118 0.00628
C 34.40372 4.22271 -0.0345
C 34.32172 2.82855 -0.00931
C 1.14753 2.1735 -0.00939
C 1.20095 0.81963 -0.00468
C 34.41051 11.33261 -0.02442
C 27.0752 4.20649 0.01495
C 34.37766 25.49631 -0.05239
C 1.16833 27.62615 -0.00439
C 31.98005 17.05865 -0.02474
C 31.97092 15.59226 0.00369
C 33.20333 14.84497 0.00455
C 33.18703 13.43906 -0.00644
C 31.95128 12.65205 -0.01839
C 31.889 11.31697 0.00137
C 33.14781 10.61033 0.00199
C 33.15596 9.20782 0.04381
C 31.90305 8.4985 0.02806
C 31.80304 7.07842 0.01504
C 1.22695 26.20415 -0.00598
C 33.12661 6.32896 -0.00069
C 31.9265 4.23174 -0.03838
C 31.92111 2.86176 0.00349
C 33.16313 2.06647 -0.00323
C 33.14753 0.69797 -0.00841
C 31.9587 34.04542 0.0001
C 34.40945 32.62705 -0.02927
C 1.24755 31.92068 -0.01404
C 1.1895 30.58806 0.01027
C 34.37705 29.89751 0.01831
C 0.03364 28.39682 -0.01037
C 33.20665 4.95408 0.04926
C 28.23175 4.96109 0.00235
C 28.24361 6.36101 0.01094
C 27.04594 7.05982 0.02198
C 23.3561 17.81236 -0.02422
C 22.18331 17.08465 0.01277
C 22.23276 15.63064 0.00096
C 23.42661 14.93975 -0.01527
C 23.38897 13.45514 0.01087
C 22.19805 12.73224 0.00199
C 22.10012 11.36963 0.01511
C 23.30351 10.61162 -0.00478
C 23.38718 9.1971 -0.01662
C 22.14888 8.47392 -0.01185
C 23.38383 19.14737 -0.01721
C 22.12035 7.09489 0.01126
C 23.34211 4.91533 -0.00381
C 22.12344 4.24336 0.03046
C 22.14492 2.77254 0.0296
C 23.30848 2.13888 0.03374
C 23.32721 0.75504 -0.02845
C 22.08658 34.04526 -0.03213
C 24.54753 32.57461 0.02239
C 25.75058 32.02325 0.01153
C 25.78546 30.54235 0.02734
C 24.54127 29.80193 -0.0055
C 23.32062 6.2992 0.01852
C 24.5507 28.39042 0.01515
C 22.16896 19.79725 -0.01154
C 23.38313 22.05453 -0.01594
C 19.67199 11.35279 -0.00111
C 20.85837 10.57276 -0.03557
C 20.91465 9.13335 0.03754
C 19.70897 8.47112 0.01739
C 19.61414 7.0105 0.00755
C 20.82556 6.39209 -0.0054
C 20.80405 4.99181 0.00667
C 19.7282 4.21845 0.00143
C 19.69053 2.76757 -0.017
C 20.92777 2.11254 0.00364
C 22.03554 21.2752 0.0106
C 20.91441 0.67397 -0.00831
C 22.13802 32.57367 -0.04422
C 23.33917 31.83824 0.00654
C 23.36957 30.43041 -0.00703
C 22.0892 29.78406 -0.04076
C 22.03143 28.43695 -0.00652
C 23.27679 27.74422 0.0058
C 23.21521 26.3422 -0.00865
C 22.07164 25.57034 0.00675
C 22.11706 24.10892 -0.00311
C 23.33058 23.4323 0.00742
C 19.72221 0.01227 -0.02957
C 21.02831 13.4783 0.01452
C 25.81752 27.69767 -0.00225
C 24.53749 25.55854 -0.01107
C 28.17872 30.51894 0.00367
C 26.97112 29.90594 0.04306
C 26.95908 28.45148 0.00996
C 28.18733 27.67431 0.00195
C 28.17449 26.28759 -0.00802
C 26.94067 25.53972 -0.00218
C 27.07395 24.18562 -0.01654
C 28.32236 23.47791 -0.00037
C 28.31269 22.00197 -0.0032
C 27.05532 21.35025 0.00622
C 28.30723 31.93899 -0.01679
C 27.08781 19.95219 -0.02815
C 28.24191 17.58766 0.00487
C 26.97442 16.95325 0.00826
C 27.03446 15.54071 -0.00294
C 28.28029 14.91965 0.00152
C 28.26404 13.35019 0.01257
C 27.0413 12.61839 0.02316
C 27.03461 11.26017 0.04185
C 28.25127 10.58333 0.00194
C 28.29382 9.16894 -0.00621
C 27.1023 8.47954 0.02611
C 28.26823 19.10501 -0.00942
C 25.76531 26.31681 0.00071
C 27.01007 32.60136 -0.01052
C 25.76278 0.70945 -0.01154
C 24.53429 24.10039 -0.01586
C 25.79341 23.47723 -0.01971
C 25.82464 22.01154 -0.02118
C 24.55189 21.28958 0.00733
C 24.58685 19.91873 -0.00178
C 25.88614 19.21372 0.00768
C 25.78978 17.74681 -0.0276
C 24.63131 17.04464 0.03005
C 24.62079 15.64718 -0.04078
C 25.80714 14.78213 0.02117
C 24.56246 0.04304 0.00684
C 25.8653 13.44523 0.02737
C 24.58591 11.38034 0.00135
C 25.71978 10.60777 0.03102
C 25.81299 9.15628 0.02555
C 24.58647 8.4499 0.01423
C 24.51114 7.08424 -0.00285
C 25.82125 6.40853 -0.009
C 25.80409 4.9536 -0.01199
C 24.60067 4.25081 -0.00229
C 24.59508 2.80539 -0.00938
C 25.75277 2.1046 -0.0264
C 24.61171 12.71189 -0.00498
C 2.39597 32.72575 0.01138
