369
Graphene
C 34.36051 0.09514 0.01295
C 13.59005 19.32156 -0.01952
C 13.59413 17.79733 -0.02813
C 12.35696 17.06477 0.00374
C 12.2854 15.64311 0.00052
C 13.56116 14.9643 -0.03682
C 13.52717 13.53549 0.01965
C 12.34356 12.85568 0.02058
C 12.36682 11.43848 -0.01957
C 13.63555 10.70941 -0.0108
C 13.54489 9.27169 -0.00368
C 12.31141 8.48387 -0.02696
C 12.30305 7.0627 -0.00114
C 13.4552 6.25045 0.00228
C 13.44663 4.78426 0.00798
C 12.28711 3.97414 0.00422
C 12.2955 2.54501 0.0351
C 13.48018 1.8649 -0.03113
C 13.42382 0.38775 0.02098
C 12.0229 33.93664 0.01848
C 12.39536 20.0298 0.05265
C 16.05328 23.77558 -0.00619
C 12.21797 21.62597 -0.01717
C 9.59589 33.89534 0.02299
C 9.86209 19.86536 0.02819
C 11.09639 19.24054 0.00165
C 11.08224 17.86059 -0.02971
C 9.8876 17.1332 0.02894
C 9.87224 15.75377 -0.01789
C 11.08472 14.96867 0.00444
C 11.09159 13.57889 -0.00925
C 9.936 12.82243 0.01877
C 9.90905 11.45401 0.01363
C 11.13456 10.72469 -0.02162
C 11.08588 9.27354 0.00415
C 9.8407 8.5827 -0.0014
C 9.81635 7.09446 0.02162
C 11.06079 6.32022 0.0076
C 11.05223 4.88665 0.01241
C 9.8003 4.25264 -0.01454
C 9.79163 2.68481 0.01945
C 10.92468 1.81686 0.01416
C 10.87465 0.29493 0.03542
C 13.5469 21.97726 0.00244
C 9.81908 21.32189 -0.00891
C 16.0831 22.3295 -0.02162
C 14.92628 19.97564 -0.00481
C 16.97568 24.47887 0.04892
C 18.23287 23.65721 -0.00111
C 18.59911 22.34606 -0.03557
C 17.34041 21.55173 0.03754
C 17.21946 20.13867 0.01739
C 17.32637 12.70557 0.00755
C 17.24627 11.27668 -0.0054
C 18.42479 10.57598 0.00667
C 18.49611 9.1785 0.00143
C 17.16654 8.37437 -0.017
C 17.17967 7.02125 0.00364
C 18.53117 6.4184 -0.00831
C 18.50527 5.04688 -0.02957
C 17.23202 4.22685 -0.04422
C 17.21462 2.75919 0.00654
C 18.44499 1.97603 -0.00703
C 18.3618 0.56873 -0.04076
C 17.12573 34.00925 -0.00652
C 19.40666 32.36201 0.0058
C 17.96517 25.4981 0.01452
C 14.83018 21.48655 0.00889
C 18.35074 30.3701 -0.01581
C 16.99419 32.55051 -0.01979
C 16.15242 19.23383 0.00979
C 16.06781 17.74103 0.01443
C 14.77987 17.12381 0.03505
C 14.83784 15.66441 -0.02815
C 16.02282 14.93678 -0.04147
C 16.24771 13.60271 -0.05302
C 14.88192 12.8271 0.00213
C 14.81099 11.42776 -0.00066
C 16.01994 10.60671 -0.00289
C 15.98086 9.16142 0.00028
C 14.66502 8.46509 -0.02213
C 14.67956 7.02235 0.03698
C 15.91172 6.27977 -0.00109
C 15.90726 4.79503 -0.00491
C 14.63891 4.10216 0.03338
C 14.66365 2.71182 -0.0258
C 15.88479 2.01917 -0.0331
C 15.8409 0.64346 -0.00316
C 14.77888 33.87451 0.02188
C 18.10368 31.78152 0.02691
C 10.9667 22.15428 -0.01046
C 7.27751 0.17018 -0.02689
C 8.45238 0.75064 -0.01536
C 3.6203 6.49062 -0.03337
C 3.66369 5.00656 0.01227
C 2.47414 4.40373 0.00873
C 2.44796 2.99243 -0.00049
C 3.62304 2.24212 0.00848
C 3.61161 0.73895 -0.01303
C 2.36977 0.05596 -0.01378
C 4.88125 32.79139 0.02635
C 6.25545 32.12503 0.0127
C 6.25737 30.69437 0.01396
C 4.94728 29.95803 0.01849
C 4.87103 28.5108 -0.01142
C 6.13073 27.75008 -0.00562
C 6.14978 26.38215 -0.00494
C 4.8538 25.64061 0.00054
C 4.95516 24.1957 0.03007
C 6.20694 23.57536 -0.00095
C 6.15569 22.09476 0.01572
C 4.85765 21.36737 -0.04848
C 2.42974 7.2623 -0.00966
C 4.91031 20.01289 -0.00892
C 2.50673 8.63139 -0.02929
C 3.666 10.765 -0.00077
C 3.67572 30.59101 0.01996
C 2.41472 29.8869 -0.03996
C 2.35574 28.51221 0.01465
C 3.59313 27.78001 -0.00074
C 3.72957 26.3449 -0.00518
C 2.50594 25.60633 0.0086
C 2.52008 24.19483 -0.00643
C 3.76783 23.53525 0.017
C 3.69914 22.11947 -0.03113
C 2.46532 21.42909 -0.02566
C 2.44465 20.04226 -0.00094
C 3.6386 19.28738 0.02322
C 3.70792 17.85157 -0.00725
C 2.47386 17.03049 -0.05697
C 2.51811 15.66479 0.01087
C 3.74084 14.98269 -0.01343
C 3.66019 13.56289 0.00988
C 2.37787 12.90759 0.0276
C 2.43232 11.3931 0.01305
C 3.75876 9.33748 0.03368
C 6.0943 19.22736 -0.01362
C 6.13969 17.83643 -0.0008
C 4.93408 17.17989 0.0288
C 7.37223 21.36945 0.01641
C 7.38643 19.92049 -0.00719
C 8.60108 19.15346 0.01364
C 8.66305 17.76293 -0.01062
C 7.38325 17.05049 -0.00033
C 7.4285 15.68602 0.03589
C 8.61848 14.95899 -0.02759
C 8.67616 13.47472 0.0402
C 7.3776 12.85019 0.00572
C 7.41876 11.56106 0.03592
C 8.70618 10.80165 0.00406
C 8.62179 9.30104 0.00943
C 7.42049 8.61776 0.02841
C 7.40105 7.15041 -0.01111
C 8.63456 6.36931 -0.01275
C 8.60649 5.00162 0.00985
C 7.38632 4.36346 -0.02245
C 7.3352 2.86786 -0.00428
C 8.56533 2.02854 0.03101
C 8.56147 22.05428 0.02339
C 8.7171 23.40177 -0.00334
C 7.53742 24.23707 -0.01634
C 7.39429 25.65151 0.00057
C 4.89338 15.72877 0.00393
C 6.17861 15.00926 0.00895
C 6.06048 13.6161 0.00685
C 4.90442 12.77909 0.02888
C 4.93688 11.40749 -0.00482
C 6.12347 10.64504 -0.01384
C 6.21394 9.26333 0.03693
C 4.97613 8.5966 0.01745
C 4.89168 7.27054 0.00488
C 20.70521 31.71609 -0.00865
C 6.10688 6.49145 -0.01004
C 4.87443 4.37374 -0.00131
C 4.78567 2.96393 -0.01118
C 6.03886 2.30538 -0.014
C 6.01173 0.83567 0.02147
C 4.77161 0.08457 0.00373
C 7.47697 32.80075 -0.00191
C 8.90553 32.63736 0.00438
C 7.29552 29.84482 0.01291
C 7.28195 28.60016 0.00093
C 6.20771 5.05576 -0.02896
C 3.62605 32.02464 -0.00279
C 20.68322 30.23922 0.00675
C 19.59812 28.24039 0.00742
C 30.66693 0.7324 0.00307
C 29.51034 0.08151 0.00346
C 31.84403 32.73482 0.01713
C 33.13962 32.02072 -0.01694
C 33.1936 30.6018 0.01428
C 31.97148 29.86832 -0.02142
C 31.90466 28.49744 0.0544
C 33.12467 27.70703 0.00026
C 33.14608 26.33064 0.00682
C 31.88401 25.5571 -0.01779
C 31.93982 24.15511 0.03794
C 33.19796 23.50085 0.01927
C 33.16205 22.07317 0.01574
C 31.92434 21.31981 -0.02383
C 31.86851 19.87423 -0.01429
C 33.12473 19.17894 -0.0136
C 33.2114 17.772 0.00594
C 31.97681 17.05994 -0.02474
C 31.99936 15.61352 0.00369
C 30.63021 2.11797 0.00716
C 33.13627 14.89344 0.00455
C 29.45175 2.88687 0.02108
C 30.73559 4.96952 0.07705
C 29.44397 25.47687 0.03265
C 29.48842 24.04297 -0.02049
C 30.79724 23.34591 -0.01854
C 30.73456 21.99007 -0.01415
C 29.53465 21.23726 -0.03039
C 29.48767 19.84563 0.01836
C 30.66561 19.183 0.03531
C 30.66253 17.72515 -0.00669
C 29.41414 16.96434 0.0101
C 29.45056 15.57414 0.01705
C 30.72803 14.94166 -0.0405
C 30.70903 13.47927 -0.01303
C 29.44955 12.80602 -0.01461
C 29.58867 11.37265 -0.02155
C 30.80278 10.68658 -0.00944
C 30.75994 9.2777 -0.03735
C 29.56195 8.48521 -0.00971
C 29.47527 7.07663 0.01518
C 30.71276 6.45445 0.01908
C 29.45368 4.23233 0.0103
C 30.63557 26.26343 0.00261
C 33.11066 13.49641 -0.00644
C 31.95718 11.43089 0.00137
C 34.35256 19.86071 0.01951
C 1.23151 19.22483 -0.01678
C 1.2384 17.7729 0.01223
C 0.02356 17.0613 0.00648
C 34.41921 15.67008 0.02114
C 1.21473 14.94993 -0.02957
C 1.16791 13.56526 0.00343
C 34.33179 12.75335 -0.02656
C 0.00505 11.34856 -0.02442
C 1.20054 10.66696 -0.00027
C 1.22108 9.31556 -0.00583
C 0.01679 8.55402 -0.02302
C 34.37095 7.09617 -0.02849
C 1.13275 6.47852 0.02931
C 1.1959 5.11558 0.00628
C 34.42829 4.31406 -0.0345
C 34.39224 2.85529 -0.00931
C 1.22404 2.16854 -0.00939
C 1.25032 0.80845 -0.00468
C 34.4304 21.33089 -0.02213
C 31.89057 12.79751 -0.01839
C 1.1151 22.10058 0.02712
C 34.40367 24.23235 0.03076
C 33.21728 10.67464 0.00199
C 33.22234 9.23721 0.04381
C 31.98968 8.52321 0.02806
C 31.95206 7.15578 0.01504
C 33.22566 6.3586 -0.00069
C 33.1527 4.96939 0.04926
C 31.92422 4.25962 -0.03838
C 31.85438 2.90451 0.00349
C 33.13342 2.23047 -0.00323
C 33.16134 0.77095 -0.00841
C 31.87516 0.08736 0.0001
C 34.30983 32.76995 -0.02927
C 1.13665 32.05297 -0.01404
C 1.21259 30.55008 0.01027
C 34.34172 29.79184 0.01831
C 34.35575 28.36266 -0.01037
C 1.21743 27.71927 -0.00439
C 1.231 26.2852 -0.00598
C 34.40193 25.63221 -0.05239
C 1.20674 23.57056 0.00723
C 30.66286 27.74209 0.02326
C 29.41588 28.36955 0.00924
C 29.45076 29.82121 0.0014
C 23.50006 9.4805 0.01153
C 22.14475 8.74783 0.02734
C 22.11978 7.22405 -0.0055
C 23.30993 6.4232 0.01515
C 23.35195 4.8902 -0.00225
C 22.04558 4.22824 0.00071
C 22.12312 2.7774 -0.01107
C 23.37026 2.0737 -0.01586
C 23.26888 0.61206 -0.01971
C 21.97527 33.88982 -0.02118
C 24.45723 32.58943 0.00733
C 25.70377 31.8218 -0.00178
C 25.62792 30.45318 0.00768
C 24.42018 29.7507 -0.0276
C 24.48762 28.30769 0.03005
C 25.73451 27.63217 -0.04078
C 25.65114 26.23108 0.02117
C 26.14209 18.42347 0.02737
C 25.47101 12.95297 -0.00498
C 23.44379 11.04743 0.02239
C 24.80935 11.86185 0.00135
C 22.16559 11.44301 -0.03213
C 22.11889 28.07768 0.03374
C 20.77018 27.49319 -0.01594
C 20.38233 26.07724 0.0106
C 19.12674 25.70378 -0.01154
C 19.54339 11.37746 -0.01721
C 20.84931 10.88505 -0.02422
C 20.91004 9.40155 0.01277
C 19.76383 8.58251 0.00096
C 19.70243 7.17092 -0.01527
C 20.89769 6.4042 0.01087
C 20.87207 5.00424 0.00199
C 19.65196 4.30012 0.01511
C 19.67326 2.79083 -0.00478
C 20.90121 2.02982 -0.01662
C 20.78187 0.59293 -0.01185
C 19.55632 33.8714 0.01126
C 21.92556 32.45213 0.01852
C 23.13729 31.85069 -0.00381
C 23.1357 30.38915 0.03046
C 22.02523 29.58944 0.0296
C 23.34598 27.54335 -0.02845
C 25.85976 10.66471 0.03102
C 25.85852 9.27581 0.02555
C 24.59792 8.57418 0.01423
C 27.0649 15.83679 -0.00294
C 28.13303 14.95872 0.00152
C 28.09545 13.50485 0.01257
C 26.89789 12.67946 0.02316
C 27.08361 11.20989 0.04185
C 28.35237 10.58669 0.00194
C 28.3005 9.20902 -0.00621
C 27.04791 8.55883 0.02611
C 26.95162 7.09997 0.02198
C 28.17992 6.38811 0.01094
C 28.26064 5.01007 0.00235
C 26.92281 4.2275 0.01495
C 27.01942 2.81779 0.01259
C 28.24045 2.12744 0.01799
C 28.20355 0.68564 0.01699
C 26.98836 33.9682 -0.00416
C 29.40135 32.76267 0.01177
C 30.64953 31.99824 0.04266
C 30.62159 30.57194 0.01324
C 26.84122 17.31317 0.00826
C 28.31361 17.70516 0.00487
C 28.26771 19.08229 -0.00942
C 26.88885 19.75001 -0.02815
C 24.48655 7.06143 -0.00285
C 25.78063 6.4081 -0.009
C 25.7681 5.00093 -0.01199
C 24.47385 4.25158 -0.00229
C 24.57366 2.79933 -0.00938
C 25.75666 2.04894 -0.0264
C 25.80008 0.66063 -0.01154
C 24.51573 33.98029 0.00684
C 26.89074 32.58055 -0.01052
C 19.25294 29.50022 -0.00311
C 28.19634 31.98052 -0.01679
C 26.95769 29.78521 0.04306
C 27.00181 28.3498 0.00996
C 28.19213 27.56794 0.00195
C 28.12077 26.13395 -0.00802
C 26.82413 25.3348 -0.00218
C 26.96699 23.94348 -0.01654
C 28.1985 23.32661 -0.00037
C 28.19298 21.90707 -0.0032
C 27.03706 21.15497 0.00622
C 28.16035 30.51608 0.00367
C 2.37177 32.63858 0.01226
