420
Graphene
C 0.01657 34.03 0.01295
C 13.53136 27.75143 0.00406
C 13.54062 26.25451 0.00943
C 12.25044 25.60662 0.02841
C 12.32335 24.2104 -0.01111
C 13.52687 23.40524 -0.01275
C 13.47509 21.98601 0.00985
C 12.28024 21.30883 -0.02245
C 12.25895 19.82861 -0.00428
C 13.44831 19.12766 0.03101
C 13.52827 17.67724 -0.01536
C 12.34081 28.44705 0.03592
C 12.28551 17.00368 -0.02689
C 13.49915 14.91706 -0.00891
C 13.52532 13.52289 0.02819
C 12.30176 12.81979 0.00165
C 12.35572 11.38765 -0.02971
C 13.53191 10.58253 0.02894
C 13.54526 9.08766 -0.01789
C 12.21531 8.39109 0.00444
C 12.28632 6.97968 -0.00925
C 13.51352 6.31811 0.01877
C 13.41991 4.99991 0.01363
C 12.31243 15.55764 -0.01046
C 12.26011 4.26873 -0.02162
C 12.29651 29.91329 0.00572
C 13.55114 32.06854 -0.02759
C 9.76547 21.37028 0.00488
C 9.81432 19.93775 -0.01004
C 11.03803 19.14608 -0.02896
C 11.10216 17.782 -0.00131
C 9.80754 17.19514 -0.01118
C 9.83429 15.76058 -0.014
C 11.03724 15.02636 0.02147
C 11.03736 13.53979 0.00373
C 9.86204 12.77397 -0.00191
C 9.92373 11.301 0.00438
C 13.50869 30.63301 0.0402
C 11.13971 10.52851 0.01291
C 9.81233 8.54915 0.00057
C 9.81828 7.0709 -0.01634
C 10.96162 6.35893 -0.00334
C 11.009 4.96945 0.02339
C 9.76622 4.25252 0.01641
C 9.82567 2.83468 -0.00719
C 11.14709 2.12044 0.01364
C 11.02017 0.73822 -0.01062
C 9.81208 0.05621 -0.00033
C 12.34016 32.70357 0.03589
C 11.08915 9.14104 0.00093
C 12.3422 2.91835 0.00415
C 13.5502 2.11146 -0.0014
C 13.5242 0.74824 0.02162
C 15.97609 4.94674 0.02098
C 14.70766 4.24606 0.01848
C 14.781 2.86643 -0.00619
C 15.99996 2.10227 -0.02162
C 15.98142 0.76326 0.00889
C 14.76878 0.03624 -0.00481
C 17.21888 32.62076 0.00979
C 18.41692 31.94008 0.01443
C 18.37005 30.49375 0.03505
C 17.12745 29.79069 -0.02815
C 15.98652 6.37958 -0.03113
C 17.15066 28.373 -0.04147
C 18.4024 26.26581 0.00213
C 17.17743 25.60407 -0.00066
C 17.1335 24.13415 -0.00289
C 18.43821 23.43725 0.00028
C 18.26214 22.10681 -0.02213
C 17.23614 21.26683 0.03698
C 17.27125 19.92581 -0.00109
C 18.46364 19.21863 -0.00491
C 18.63853 17.80903 0.03338
C 17.24374 17.05362 -0.0258
C 18.40957 27.6785 -0.05302
C 14.75291 7.03402 0.0351
C 14.7506 8.45883 0.00422
C 15.98227 9.21403 0.00798
C 12.27952 0.05203 0.0076
C 14.77703 32.72057 0.01241
C 16.00837 31.96006 -0.01454
C 15.92489 30.51094 0.01945
C 14.72722 29.80585 0.01416
C 14.75373 28.45322 0.03542
C 15.9642 27.71005 0.02299
C 15.9247 26.29534 0.00244
C 14.70782 25.59147 -0.01717
C 14.79615 24.16021 0.05265
C 15.94975 23.39536 -0.01952
C 15.95759 21.91412 -0.02813
C 14.65982 21.21855 0.00374
C 14.69853 19.75373 0.00052
C 15.95043 19.16535 -0.03682
C 15.97356 17.7571 0.01965
C 14.83046 17.02303 0.02058
C 14.74534 15.67219 -0.01957
C 15.99476 14.90051 -0.0108
C 16.01073 13.47484 -0.00368
C 14.77811 12.70853 -0.02696
C 14.76142 11.32457 -0.00114
C 16.05274 10.58436 0.00228
C 11.05745 22.02904 0.01745
C 17.20957 15.67948 -0.0331
C 11.10794 23.48 0.03693
C 9.81381 25.58469 -0.00482
C 2.43334 2.89335 -0.00561
C 3.64379 2.13501 0.00208
C 3.68828 0.73952 0.01707
C 2.51139 34.05702 0.02769
C 4.85386 32.6955 -0.03291
C 6.03155 31.96895 -0.04999
C 6.1075 30.56729 0.04505
C 4.92722 29.84071 0.03284
C 5.00514 28.39909 -0.04307
C 6.12881 27.6945 0.03189
C 2.45803 4.24622 -0.01977
C 6.06641 26.20299 0.00031
C 4.88586 24.0721 0.01402
C 6.19688 23.39153 0.02379
C 6.18174 22.01001 0.00907
C 4.90587 21.27694 0.00643
C 4.93918 19.93853 -0.01509
C 6.11116 19.22019 0.03267
C 6.15062 17.74428 0.02374
C 4.86644 17.03499 0.00402
C 4.97356 15.61671 0.0073
C 6.17333 14.97619 0.0174
C 4.86921 25.50938 -0.003
C 6.17501 13.49626 0.03828
C 3.69845 5.07217 0.02784
C 2.37563 7.17215 -0.00449
C 3.65561 30.51081 0.00748
C 2.49621 29.8259 0.00662
C 2.47719 28.34114 -0.0154
C 3.71989 27.67264 -0.01299
C 3.61267 26.24535 -0.00407
C 2.40371 25.49843 0.01138
C 2.39567 24.11567 0.03278
C 3.68156 23.43582 -0.00177
C 3.61962 22.03917 0.04421
C 2.40371 21.39695 0.00088
C 3.6113 6.48979 -0.01979
C 2.45309 19.89971 0.00828
C 3.74107 17.79553 0.00558
C 2.46683 17.04643 -0.0059
C 2.46673 15.62016 -0.01386
C 3.71073 14.79428 -0.02805
C 3.6861 13.44417 0.00081
C 2.35885 12.74199 0.00245
C 2.34867 11.29475 0.02728
C 3.64005 10.62433 -0.00039
C 3.69667 9.17888 0.0064
C 2.41447 8.52858 0.00211
C 3.71995 19.20444 -0.02375
C 4.88758 12.77159 0.01226
C 4.88628 11.25774 -0.00279
C 6.17835 10.69915 0.01996
C 8.60923 14.98989 -0.01303
C 8.66197 13.50472 -0.01378
C 7.39007 12.86401 0.02635
C 7.36878 11.43706 0.0127
C 8.63966 10.71127 0.01396
C 8.64289 9.24211 0.01849
C 7.36317 8.59635 -0.01142
C 7.35399 7.13847 -0.00562
C 8.59141 6.45688 -0.00494
C 8.57912 5.00534 0.00054
C 7.4406 15.65613 0.00848
C 7.39228 4.29096 0.03007
C 8.62128 2.18149 0.01572
C 8.59772 0.80231 -0.04848
C 7.2962 0.01762 -0.00892
C 9.83663 32.78163 -0.01362
C 11.06605 32.02531 -0.0008
C 11.0506 30.56986 0.0288
C 9.82704 29.86949 0.00393
C 9.82345 28.50701 0.00895
C 11.11563 27.80403 0.00685
C 11.02154 26.35721 0.02888
C 7.33318 2.89847 -0.00095
C 7.369 17.13857 -0.00049
C 8.61338 17.81607 0.00873
C 8.62504 19.21617 0.01227
C 6.1789 9.27796 -0.03996
C 4.9834 8.59164 0.01465
C 4.90189 7.12129 -0.00074
C 6.15553 6.41608 -0.00518
C 6.08163 5.01192 0.0086
C 4.87539 4.32763 -0.00643
C 4.90117 2.91762 0.017
C 6.06634 2.15449 -0.03113
C 6.1036 0.76824 -0.02566
C 4.87218 0.02659 -0.00094
C 7.36719 32.71285 0.02322
C 8.58578 32.0125 -0.00725
C 8.55235 30.59441 -0.05697
C 7.34324 29.81071 0.01087
C 7.38305 28.37481 -0.01343
C 8.61628 27.77555 0.00988
C 8.58508 26.2977 0.0276
C 7.35403 25.59128 0.01305
C 7.39268 24.16154 -0.00077
C 8.62132 23.51678 0.03368
C 8.54966 22.04971 -0.02929
C 7.29818 21.29852 -0.00966
C 7.36932 19.93567 -0.03337
C 9.8406 24.23144 -0.01384
C 18.41972 14.93427 -0.00316
C 18.42756 13.54385 0.02188
C 17.21963 12.79245 -0.01979
C 29.46701 11.3164 -0.02155
C 30.67964 10.65005 -0.00944
C 30.78051 9.20648 -0.03735
C 29.5208 8.44239 -0.00971
C 29.57312 7.10413 0.01518
C 30.75353 6.36382 0.01908
C 30.75008 4.91165 0.07705
C 29.53523 4.27175 0.0103
C 29.48545 2.92398 0.02108
C 30.69936 2.08228 0.00716
C 29.54099 12.76652 -0.01461
C 30.65305 0.7492 0.00307
C 31.95472 32.69685 0.01713
C 33.12748 31.95521 -0.01694
C 33.20707 30.46722 0.01428
C 31.98397 29.76984 -0.02142
C 32.01078 28.42405 0.0544
C 33.23645 27.67587 0.00026
C 33.2346 26.25292 0.00682
C 31.97544 25.56088 -0.01779
C 31.95821 24.11574 0.03794
C 33.19782 23.428 0.01927
C 29.41511 0.01604 0.00346
C 33.21775 22.03246 0.01574
C 30.80242 13.45625 -0.01303
C 29.52899 15.59851 0.01705
C 28.31139 5.00207 0.00235
C 27.0211 4.31488 0.01495
C 27.02809 2.92341 0.01259
C 28.2172 2.17005 0.01799
C 28.27514 0.74481 0.01699
C 27.02568 0.01776 -0.00416
C 29.5681 32.66985 0.01177
C 30.73925 31.92381 0.04266
C 30.72746 30.52628 0.01324
C 29.53841 29.86615 0.0014
C 30.76163 14.85553 -0.0405
C 29.4917 28.41031 0.00924
C 30.75667 26.22922 0.00261
C 29.48834 25.5617 0.03265
C 29.36627 24.03942 -0.02049
C 30.71372 23.35208 -0.01854
C 30.66135 21.96276 -0.01415
C 29.45029 21.2401 -0.03039
C 29.44658 19.90438 0.01836
C 30.65919 19.1579 0.03531
C 30.70837 17.69375 -0.00669
C 29.47531 17.05572 0.0101
C 30.75519 27.69527 0.02326
C 31.94276 21.25626 -0.02383
C 31.91393 19.85915 -0.01429
C 33.18499 19.18609 -0.0136
C 1.14348 23.4313 0.00723
C 1.19865 21.98728 0.02712
C 34.40007 21.24548 -0.02213
C 34.41642 19.8806 0.01951
C 1.26696 19.19303 -0.01678
C 1.28945 17.75599 0.01223
C 34.42127 17.16438 0.00648
C 0.04065 15.68851 0.02114
C 1.24865 14.95681 -0.02957
C 1.18259 13.5063 0.00343
C 34.38887 24.15598 0.03076
C 34.36846 12.72978 -0.02656
C 1.09578 10.55833 -0.00027
C 1.18598 9.21796 -0.00583
C 34.40558 8.496 -0.02302
C 34.32879 7.07397 -0.02849
C 1.16216 6.37524 0.02931
C 1.2105 4.98752 0.00628
C 34.35955 4.27089 -0.0345
C 34.4187 2.82541 -0.00931
C 1.20171 2.12326 -0.00939
C 1.23837 0.70754 -0.00468
C 34.38734 11.30902 -0.02442
C 0.01806 25.57166 -0.05239
C 1.20478 26.19818 -0.00598
C 1.32155 27.63235 -0.00439
C 33.1802 17.76163 0.00594
C 31.94189 17.02561 -0.02474
C 31.9924 15.59674 0.00369
C 33.2285 14.90348 0.00455
C 33.2091 13.47069 -0.00644
C 31.99627 12.74512 -0.01839
C 31.91895 11.32393 0.00137
C 33.14408 10.58607 0.00199
C 33.19303 9.20467 0.04381
C 31.94469 8.55918 0.02806
C 31.94641 7.0907 0.01504
C 33.15402 6.34696 -0.00069
C 33.14462 4.92934 0.04926
C 31.90747 4.18229 -0.03838
C 31.93602 2.70604 0.00349
C 33.13051 2.08238 -0.00323
C 33.17429 0.69211 -0.00841
C 31.95759 0.03135 0.0001
C 0.00349 32.63548 -0.02927
C 1.20367 31.89265 -0.01404
C 1.26743 30.47256 0.01027
C 0.01398 29.77664 0.01831
C 0.05945 28.34188 -0.01037
C 28.29299 6.40326 0.01094
C 27.10064 7.04891 0.02198
C 27.06735 8.49396 0.02611
C 28.32794 9.17705 -0.00621
C 20.96839 10.62957 0.0106
C 21.01915 9.22134 -0.01154
C 19.7521 8.48413 -0.01721
C 19.8155 7.12056 -0.02422
C 20.98947 6.37925 0.01277
C 20.94625 4.94624 0.00096
C 19.68344 4.27017 -0.01527
C 19.58514 2.82614 0.01087
C 20.8804 2.1318 0.00199
C 20.90896 0.68945 0.01511
C 19.66786 11.44441 -0.01594
C 19.60068 0.00169 -0.00478
C 23.3588 31.97382 -0.01185
C 23.33752 30.52978 0.01126
C 22.11149 29.84097 0.01852
C 22.11007 28.33399 -0.00381
C 23.29185 27.64621 0.03046
C 23.17581 26.31195 0.0296
C 22.10784 25.70685 0.03374
C 22.07499 15.69305 -0.02845
C 23.4006 15.18478 -0.03213
C 23.35703 13.5138 0.02239
C 22.13842 32.62248 -0.01662
C 19.69449 12.81347 0.00742
C 20.95561 13.52131 -0.00311
C 20.92684 14.8822 0.00675
C 17.2767 11.31183 0.02691
C 18.49491 10.60548 -0.01581
C 18.54892 9.17227 0.01452
C 17.14239 8.45542 0.04892
C 17.25336 7.06697 -0.00111
C 18.41314 6.36461 -0.03557
C 18.45646 4.96985 0.03754
C 17.18648 4.31771 0.01739
C 17.21668 2.92353 0.00755
C 18.45413 2.11439 -0.0054
C 18.396 0.68397 0.00667
C 17.18538 34.03658 0.00143
C 19.71964 32.63697 -0.017
C 20.89909 31.8758 0.00364
C 20.90283 30.46893 -0.00831
C 19.55047 29.80357 -0.02957
C 19.66406 28.40345 -0.04422
C 20.86726 27.69569 0.00654
C 20.86216 26.24071 -0.00703
C 19.59818 25.55109 -0.04076
C 19.5905 24.19303 -0.00652
C 19.64614 16.8971 0.0058
C 19.67132 15.63164 -0.00865
C 22.13455 12.76225 0.01153
C 3.6543 31.99512 0.03345
C 22.18974 11.3573 0.02734
C 23.46956 9.22831 0.01515
C 24.57157 4.28521 -0.01052
C 24.52272 2.83952 -0.01679
C 25.7974 2.15791 0.00367
C 25.80315 0.68196 0.04306
C 24.60471 0.02144 0.00996
C 27.05007 32.67071 0.00195
C 28.2846 31.91897 -0.00802
C 28.25374 30.51514 -0.00218
C 27.04638 29.82481 -0.01654
C 27.01931 28.42166 -0.00037
C 25.82178 5.02612 0.00684
C 28.24753 27.6345 -0.0032
C 26.95333 25.61199 -0.02815
C 28.18628 23.30533 -0.00942
C 28.21943 17.57364 0.00487
C 27.09913 16.98779 0.00826
C 27.01887 15.57927 -0.00294
C 28.27365 14.9531 0.00152
C 28.38689 13.47088 0.01257
C 27.11663 12.7734 0.02316
C 27.08196 11.39121 0.04185
C 28.21079 10.60094 0.00194
C 28.2248 26.16566 0.00622
C 25.82422 6.39334 -0.01154
C 24.57478 7.11312 -0.0264
C 24.68253 8.49871 -0.00938
C 22.27581 8.55598 -0.00225
C 22.20658 7.09934 0.00071
C 23.33691 6.41821 -0.01107
C 23.34999 4.97209 -0.01586
C 22.15706 4.19571 -0.01971
C 22.08962 2.80628 -0.02118
C 23.32759 2.07585 0.00733
C 23.30773 0.67422 -0.00178
C 22.15714 34.07787 0.00768
C 24.63459 32.70452 -0.0276
C 25.78468 31.97701 0.03005
C 25.8332 30.53652 -0.04078
C 24.5514 29.78964 0.02117
C 24.57933 28.40316 0.02737
C 25.72157 27.60999 -0.00498
C 25.88713 26.25062 0.00135
C 24.656 15.64588 0.03102
C 25.82982 14.93668 0.02555
C 25.85894 13.43906 0.01423
C 24.60231 12.80691 -0.00285
C 24.58164 11.45381 -0.009
C 25.78789 10.66926 -0.01199
C 25.86035 9.19248 -0.00229
C 23.42625 10.73243 -0.0055
C 2.43606 32.65543 -0.00112
