274
Graphene
C 34.34323 0.06698 0.01295
C 16.10587 30.41265 0.01087
C 15.98445 31.84723 -0.01527
C 14.78701 32.65797 0.00096
C 12.24396 34.06815 0.01277
C 13.51807 0.69114 -0.02422
C 13.52001 2.15438 -0.01721
C 12.33561 2.96641 -0.01154
C 12.41908 4.38232 0.0106
C 13.71463 4.93955 -0.01594
C 13.63711 6.41851 0.00742
C 12.45676 7.13473 -0.00311
C 12.31442 25.61973 0.00675
C 13.54708 26.15786 -0.00865
C 13.4815 27.71571 0.0058
C 14.72071 29.75991 0.00199
C 12.15941 28.39704 -0.00652
C 13.44992 30.40697 -0.00703
C 13.42879 31.87821 0.00654
C 12.27017 32.62369 -0.04422
C 9.79432 0.06928 -0.02957
C 11.07125 0.78948 -0.00831
C 11.13114 2.24291 0.00364
C 9.80389 2.94912 -0.017
C 9.83447 4.39873 0.00143
C 11.16853 5.02682 0.00667
C 11.14889 6.56836 -0.0054
C 9.90355 7.08103 0.00755
C 9.67637 25.57194 0.01739
C 10.9812 26.10286 0.03754
C 10.97121 27.64249 -0.03557
C 12.22375 29.79429 -0.04076
C 9.70944 28.39554 -0.00111
C 14.71542 28.29923 0.01511
C 15.98207 26.18375 -0.01662
C 19.01064 21.11432 0.00135
C 19.73605 32.76112 -0.00498
C 17.20155 34.038 0.02737
C 18.45114 0.65439 0.02117
C 18.41488 2.09613 -0.04078
C 17.23368 2.76986 0.03005
C 17.33051 4.19974 -0.0276
C 18.58408 4.92492 0.00768
C 18.52212 6.32387 -0.00178
C 17.36054 6.96116 0.00733
C 17.96366 22.33599 -0.02118
C 18.59088 23.59939 -0.01971
C 18.06998 24.7575 -0.01586
C 17.9517 26.07779 -0.01107
C 15.90712 27.51949 -0.00478
C 18.31695 27.49229 0.00071
C 17.3138 29.64048 0.01515
C 18.41892 30.48587 -0.0055
C 18.69685 31.80726 0.02734
C 17.27519 32.58547 0.01153
C 14.71909 34.02879 0.02239
C 15.95791 0.64611 -0.03213
C 15.99171 2.03057 -0.02845
C 14.78037 2.78561 0.03374
C 14.8826 4.20964 0.0296
C 16.11855 4.90716 0.03046
C 16.10392 6.39757 -0.00381
C 14.90619 7.18178 0.01852
C 14.43492 8.49023 0.01126
C 14.86575 25.72498 -0.01185
C 17.13932 28.22852 -0.00225
C 9.79515 29.81123 0.04892
C 10.96965 30.54713 0.01452
C 10.99674 31.97166 -0.01581
C 4.83786 29.8953 -0.0108
C 6.05964 30.63179 -0.01957
C 6.07902 32.0021 0.02058
C 4.87531 32.77192 0.01965
C 2.34764 0.01842 -0.03682
C 3.63027 0.78624 0.00052
C 3.65797 2.20746 0.00374
C 2.34618 2.93576 -0.02813
C 2.39609 4.29657 -0.01952
C 3.65791 4.99667 0.05265
C 3.63662 6.4349 -0.01717
C 2.43295 7.18483 0.00244
C 2.4267 8.63435 0.02299
C 3.6589 9.39539 0.03542
C 4.81583 28.429 -0.00368
C 3.65637 10.69393 0.01416
C 2.35451 12.91374 -0.01454
C 2.30483 15.7263 0.01241
C 2.15643 17.07524 0.0076
C 2.40459 20.07183 0.02162
C 2.33581 21.47356 -0.0014
C 3.48488 22.18075 0.00415
C 3.61418 23.50617 -0.02162
C 2.3347 24.21744 0.01363
C 2.3664 25.63656 0.01877
C 3.58496 26.22087 -0.00925
C 3.55434 27.73684 0.00444
C 2.38058 28.44614 -0.01789
C 2.35656 29.89313 0.02894
C 3.59341 30.55881 -0.02971
C 2.55448 11.53763 0.01945
C 6.10938 27.71746 -0.02696
C 6.08266 26.35158 -0.00114
C 4.81477 25.55932 0.00228
C 9.84824 32.68936 0.02691
C 7.26745 0.00676 -0.01979
C 8.503 0.76496 0.02188
C 8.5835 2.11251 -0.00316
C 7.33998 2.85804 -0.0331
C 7.42749 4.32954 -0.0258
C 8.64465 5.11142 0.03338
C 8.63641 6.57946 -0.00491
C 7.39735 7.22982 -0.00109
C 7.27063 8.6415 0.03698
C 7.16769 24.20789 -0.02213
C 7.2713 25.56106 0.00028
C 8.48888 26.28926 -0.00289
C 8.49681 27.71433 -0.00066
C 7.29334 28.44235 0.00213
C 7.33331 29.88675 -0.05302
C 8.57125 30.56379 -0.04147
C 4.85599 24.09601 0.00798
C 6.02736 23.36362 0.00422
C 6.0924 9.27282 0.0351
C 4.83296 8.63377 -0.03113
C 4.84224 7.26977 0.02098
C 6.17374 6.48226 0.01848
C 19.9471 20.22401 0.03102
C 6.17592 5.07181 -0.00619
C 4.86645 2.94896 0.00889
C 6.08078 2.19455 -0.00481
C 6.04775 0.80355 0.00979
C 4.84321 0.11376 0.01443
C 7.38167 32.69479 0.03505
C 8.62122 31.97681 -0.02815
C 4.93653 4.40058 -0.02162
C 21.00433 19.40268 0.02555
C 20.93523 18.07494 0.01423
C 21.68845 6.31589 -0.00285
C 31.8844 4.36295 -0.03838
C 33.16189 5.10275 0.04926
C 33.15332 6.53335 -0.00069
C 31.86629 7.15419 0.01504
C 31.87468 8.58512 0.02806
C 33.12746 9.31933 0.04381
C 33.09229 10.72557 0.00199
C 31.93533 11.43174 0.00137
C 31.90247 12.86338 -0.01839
C 33.16705 13.55517 -0.00644
C 33.13799 14.91532 0.00455
C 31.88288 15.65191 0.00369
C 31.87227 17.1601 -0.02474
C 33.16137 17.78442 0.00594
C 31.93795 2.95033 0.00349
C 33.17735 19.27185 -0.0136
C 31.93269 21.3315 -0.02383
C 32.91118 22.25945 0.01574
C 33.0749 23.58792 0.01927
C 33.63779 27.01118 0.03794
C 33.04172 30.57255 -0.01779
C 32.93138 32.00287 0.00682
C 31.82574 32.83365 0.00026
C 29.58876 0.04316 0.0544
C 30.68444 0.77436 -0.02142
C 30.65854 2.31263 0.01428
C 29.44051 2.95122 -0.01694
C 29.41956 4.41152 0.01713
C 30.6147 5.0541 0.00346
C 30.61835 6.45372 0.00307
C 31.90119 20.01339 -0.01429
C 33.16699 2.24153 -0.00323
C 33.13896 0.80784 -0.00841
C 31.90316 0.0715 0.0001
C 1.16575 0.82619 -0.00468
C 1.12676 2.20688 -0.00939
C 34.38897 2.90611 -0.00931
C 34.40365 4.36792 -0.0345
C 1.16978 5.08308 0.00628
C 1.14392 6.44184 0.02931
C 34.3284 7.18166 -0.02849
C 34.35776 8.63252 -0.02302
C 1.19306 9.33331 -0.00583
C 1.22933 10.75287 -0.00027
C 34.39714 11.45857 -0.02442
C 34.36191 12.84757 -0.02656
C 1.23458 13.54371 0.00343
C 1.13083 14.97277 -0.02957
C 34.40511 15.70889 0.02114
C 34.37371 17.11027 0.00648
C 1.11385 17.9009 0.01223
C 34.27849 32.74414 -0.02927
C 1.03012 31.92698 -0.01404
C 1.04093 30.48283 0.01027
C 34.1521 29.74376 0.01831
C 34.2265 28.29001 -0.01037
C 1.15378 27.83158 -0.00439
C 29.35569 7.11086 0.00716
C 1.23142 26.42906 -0.00598
C 34.19083 24.37783 0.03076
C 1.13298 23.61308 0.00723
C 1.05001 22.18526 0.02712
C 34.28852 21.46289 -0.02213
C 34.34442 20.02919 0.01951
C 1.20233 19.35604 -0.01678
C 34.36329 25.69346 -0.05239
C 3.52161 32.02463 0.00165
C 29.47212 8.52437 0.02108
C 30.67293 10.69105 0.07705
C 24.17687 7.15809 -0.00621
C 24.39791 8.55295 0.00194
C 25.58675 9.22471 0.04185
C 25.71876 10.66769 0.02316
C 24.63754 11.48498 0.01257
C 24.59935 12.79304 0.00152
C 25.70316 13.48683 -0.00294
C 25.8719 14.89874 0.00826
C 24.56882 15.47553 0.00487
C 24.64506 16.88968 -0.00942
C 25.74827 17.69268 -0.02815
C 22.0003 33.95128 0.00622
C 23.2873 0.38662 -0.0032
C 23.3823 2.01685 -0.00037
C 25.54233 6.41189 0.02611
C 22.17926 2.67687 -0.01654
C 23.35937 4.95862 -0.00802
C 22.97258 6.29868 0.00195
C 23.25716 14.78134 0.00996
C 22.19466 15.63055 0.04306
C 21.90709 17.0712 0.00367
C 23.37557 17.66793 -0.01679
C 23.45505 19.15127 -0.01052
C 22.29365 19.71824 0.00684
C 19.62732 0.01712 -0.01154
C 20.92539 0.6849 -0.0264
C 20.86151 2.07604 -0.00938
C 19.66906 2.82208 -0.00229
C 19.82741 4.22881 -0.01199
C 21.06313 4.94721 -0.009
C 22.18231 4.19071 -0.00218
C 25.71344 5.00056 0.02198
C 24.51292 4.19463 0.01094
C 24.61619 2.82359 0.00235
C 29.45222 11.43596 0.01908
C 29.47897 12.85886 0.01518
C 30.69065 13.57369 -0.00971
C 30.67281 15.01558 -0.03735
C 29.48141 15.77361 -0.00944
C 29.36942 17.14336 -0.02155
C 30.61623 17.8732 -0.01461
C 30.6677 19.26255 -0.01303
C 29.46257 19.75468 -0.0405
C 27.11542 0.12757 0.01705
C 28.32589 0.61703 0.0101
C 28.24876 2.22667 -0.00669
C 27.04781 2.85603 0.03531
C 26.96902 4.27648 0.01836
C 28.15513 4.99361 -0.03039
C 28.10704 6.3479 -0.01415
C 26.81348 7.09621 -0.01854
C 25.77337 2.07156 0.01495
C 25.78389 0.50118 0.01259
C 24.59294 34.01335 0.01799
C 28.20774 19.27019 0.01699
C 28.19623 17.92492 -0.00416
C 26.96766 17.2047 0.01177
C 30.71188 9.31581 0.0103
C 26.9923 15.69916 0.04266
C 28.24221 13.47618 0.0014
C 27.00934 12.76101 0.00924
C 26.97925 11.37651 0.02326
C 28.22709 10.63231 0.00261
C 28.15481 9.20273 0.03265
C 26.87242 8.51344 -0.02049
C 28.22824 14.94457 0.01324
C 2.29187 32.68168 0.02819
