434
Graphene
C 0.05642 0.0461 0.01295
C 12.02428 7.05695 -0.00719
C 13.471 6.28416 0.01364
C 13.41191 4.91682 -0.01062
C 12.1393 4.22597 -0.00033
C 12.19314 2.80346 0.03589
C 13.47659 2.15157 -0.02759
C 13.50529 0.75441 0.0402
C 12.2869 34.05519 0.00572
C 14.83643 32.75483 0.03592
C 16.03273 31.99597 0.00406
C 15.99933 30.52118 0.00943
C 14.84631 29.82065 0.02841
C 14.78598 28.33133 -0.01111
C 15.98532 27.65966 -0.01275
C 15.99014 26.24355 0.00985
C 14.77163 25.68976 -0.02245
C 14.74658 24.27738 -0.00428
C 16.01834 23.49937 0.03101
C 15.87055 22.07348 -0.01536
C 14.73369 21.33776 -0.02689
C 14.68151 19.87993 -0.01046
C 15.87475 19.16337 -0.00891
C 15.93062 17.66516 0.02819
C 12.29348 8.43419 0.01641
C 14.63018 17.0479 0.00165
C 13.38891 9.29668 0.02339
C 12.25329 11.50204 -0.01634
C 10.98385 2.12227 -0.0008
C 11.08602 0.67011 0.0288
C 9.80836 0.13882 0.00393
C 12.28865 32.6185 0.00895
C 13.54001 31.96674 0.00685
C 13.51006 30.56868 0.02888
C 12.27943 29.82235 -0.00482
C 12.27357 28.5073 -0.01384
C 13.54555 27.76784 0.03693
C 13.57137 26.37154 0.01745
C 12.32484 25.65772 0.00488
C 12.28539 24.22777 -0.01004
C 13.52904 23.49769 -0.02896
C 13.45377 22.11801 -0.00131
C 12.28335 21.40324 -0.01118
C 12.24045 19.92676 -0.014
C 13.39421 19.14815 0.02147
C 13.42317 17.7633 0.00373
C 12.16729 17.15689 -0.00191
C 12.30189 15.6047 0.00438
C 13.5728 14.8949 0.01291
C 13.49419 13.55472 0.00093
C 12.2197 12.89338 0.00057
C 13.45132 10.72093 -0.00334
C 9.83976 2.93511 -0.01362
C 14.78188 15.6721 -0.02971
C 15.86988 13.43618 -0.01789
C 18.41918 17.77772 -0.00368
C 17.15595 16.98228 -0.02696
C 17.20653 15.63444 -0.00114
C 18.40409 14.91525 0.00228
C 18.37647 13.5637 0.00798
C 17.11493 12.83576 0.00422
C 17.20367 11.3798 0.0351
C 18.45277 10.67755 -0.03113
C 18.40245 9.33667 0.02098
C 17.15824 8.6314 0.01848
C 17.08978 7.10561 -0.00619
C 18.33074 6.3734 -0.02162
C 18.42594 4.93259 0.00889
C 17.21117 4.26123 -0.00481
C 17.13471 2.85967 0.00979
C 18.35939 2.10787 0.01443
C 18.31893 0.70142 0.03505
C 17.13442 34.04586 -0.02815
C 19.65589 32.63083 -0.04147
C 20.88351 31.88024 -0.05302
C 20.91566 30.51341 0.00213
C 19.72075 29.82814 -0.00066
C 19.63446 28.44199 -0.00289
C 18.43489 19.16996 -0.0108
C 15.93975 14.91058 0.02894
C 17.08894 19.84873 -0.01957
C 18.43062 21.94407 0.01965
C 14.6727 12.75804 0.00444
C 14.73917 11.39678 -0.00925
C 15.89456 10.69943 0.01877
C 15.91332 9.26527 0.01363
C 14.61351 8.54717 -0.02162
C 14.64104 7.14918 0.00415
C 15.90561 6.43324 -0.0014
C 15.92962 5.09265 0.02162
C 14.71343 4.2982 0.0076
C 14.73711 2.91458 0.01241
C 15.96778 2.18905 -0.01454
C 15.92779 0.75201 0.01945
C 14.67204 0.00239 0.01416
C 17.1967 32.60538 0.03542
C 18.38537 31.95437 0.02299
C 18.43642 30.4217 0.00244
C 17.20216 29.75231 -0.01717
C 17.16889 28.31452 0.05265
C 18.38269 27.67787 -0.01952
C 18.4746 26.22662 -0.02813
C 17.21701 25.58493 0.00374
C 17.25033 24.10539 0.00052
C 18.46204 23.38369 -0.03682
C 17.17286 21.23611 0.02058
C 10.86166 4.83477 -0.00892
C 10.77251 6.29474 -0.04848
C 9.64243 7.17888 0.01572
C 3.65882 0.67731 -0.0059
C 2.49389 34.02996 -0.01386
C 4.89494 32.65466 -0.02805
C 6.15271 32.11946 0.00081
C 6.16709 30.71556 0.00245
C 4.9966 29.90916 0.02728
C 4.88221 28.53217 -0.00039
C 6.12393 27.76166 0.0064
C 6.169 26.39708 0.00211
C 4.91591 25.57832 -0.00449
C 4.90276 24.16206 -0.01979
C 6.1821 23.55739 0.02784
C 6.14117 21.95884 -0.01977
C 4.86786 21.31745 -0.00561
C 4.85261 19.95255 0.00208
C 6.0935 19.21029 0.01707
C 6.00498 17.79081 0.02769
C 4.81625 17.09416 -0.03291
C 4.77191 15.64174 -0.04999
C 6.12453 14.96656 0.04505
C 6.02108 13.45097 0.03284
C 4.83581 12.68591 -0.04307
C 4.90524 11.2533 0.03189
C 3.7454 2.0578 0.00558
C 6.04047 10.40096 0.00031
C 2.80491 2.96645 -0.02375
C 4.04757 7.09761 0.00088
C 3.68629 30.50979 -0.00198
C 2.45739 29.8854 -0.00012
C 2.41152 28.49884 -0.04306
C 3.64289 27.76296 -0.03672
C 3.70368 26.27495 0.01913
C 2.47311 25.58215 0.00267
C 2.49135 24.11704 0.00787
C 3.69462 23.34269 0.02426
C 3.69545 21.99654 0.01218
C 2.37399 21.32826 -0.01471
C 2.3465 19.9103 -0.02827
C 3.63146 19.18912 0.01078
C 3.59135 17.87006 -0.00112
C 2.34701 17.03684 0.03345
C 2.34415 15.5895 0.00748
C 3.62392 14.95161 0.00662
C 3.55967 13.48711 -0.0154
C 2.32371 12.80687 -0.01299
C 2.36299 11.34366 -0.00407
C 3.6039 10.58141 0.01138
C 3.62526 9.09544 0.03278
C 2.3059 8.57765 -0.00177
C 2.51998 7.17329 0.04421
C 2.66052 4.3261 0.00828
C 6.02349 8.85759 -0.003
C 4.74821 8.16551 0.01402
C 5.94882 0.86776 0.02379
C 11.06045 32.02523 0.0276
C 10.9963 30.6541 0.01305
C 9.79735 29.92916 -0.00077
C 9.8547 28.49411 0.03368
C 11.0151 27.7504 -0.02929
C 11.09939 26.30069 -0.00966
C 9.86048 25.60729 -0.03337
C 9.86491 24.22821 0.01227
C 11.08075 23.54511 0.00873
C 11.00793 22.08769 -0.00049
C 9.80067 21.42403 0.00848
C 9.76191 19.98542 -0.01303
C 10.98339 19.18137 -0.01378
C 10.95206 17.71175 0.02635
C 9.72673 17.07306 0.0127
C 9.75431 15.69948 0.01396
C 10.98018 14.98215 0.01849
C 11.00821 13.61186 -0.01142
C 9.73917 12.85689 -0.00562
C 9.79116 11.37782 -0.00494
C 11.06962 10.77375 0.00054
C 11.02587 9.27885 0.03007
C 9.74286 8.67773 -0.00095
C 9.75139 32.77199 0.00988
C 7.35356 0.35887 -0.01343
C 8.70437 1.04572 0.01087
C 7.32902 8.44786 -0.05697
C 4.8896 34.07598 0.00907
C 7.31844 32.87254 0.00643
C 8.52268 32.18452 -0.01509
C 8.56482 30.61001 0.03267
C 7.37097 29.99132 0.02374
C 7.40027 28.49581 0.00402
C 8.60957 27.79974 0.0073
C 8.65309 26.36077 0.0174
C 7.33444 25.71762 0.03828
C 7.3663 24.28585 0.01226
C 8.59737 23.5012 -0.00279
C 20.92443 27.65508 0.00028
C 8.64559 22.06437 0.01996
C 7.30055 19.8969 0.01465
C 8.55862 19.18157 -0.00074
C 8.52384 17.74861 -0.00518
C 7.26556 17.13782 0.0086
C 7.21687 15.68029 -0.00643
C 8.49913 14.99526 0.017
C 8.5346 13.57103 -0.03113
C 7.19883 12.79077 -0.02566
C 7.23748 11.23869 -0.00094
C 8.50564 10.63465 0.02322
C 8.49214 9.18392 -0.00725
C 7.25455 21.27133 -0.03996
C 20.93274 26.30638 -0.02213
C 19.67849 25.58467 0.03698
C 19.65203 24.11237 -0.00109
C 30.58968 14.88502 -0.0405
C 30.60012 13.48593 -0.01303
C 29.43216 12.71718 -0.01461
C 29.46288 11.34905 -0.02155
C 30.65007 10.57771 -0.00944
C 30.67925 9.12518 -0.03735
C 29.46738 8.461 -0.00971
C 29.52272 7.04696 0.01518
C 30.70721 6.18935 0.01908
C 30.71814 4.84605 0.07705
C 29.46698 4.1527 0.0103
C 29.51302 2.76837 0.02108
C 30.69977 2.08316 0.00716
C 30.67791 0.7341 0.00307
C 29.43899 0.01541 0.00346
C 31.90192 32.67572 0.01713
C 33.25894 32.02223 -0.01694
C 33.19914 30.60596 0.01428
C 31.99181 29.8443 -0.02142
C 32.01329 28.43351 0.0544
C 33.24029 27.64267 0.00026
C 33.23612 26.27017 0.00682
C 31.95998 25.56048 -0.01779
C 29.42042 15.54452 0.01705
C 31.95958 24.16577 0.03794
C 29.46826 16.98586 0.0101
C 30.68859 19.19554 0.03531
C 28.26026 9.14803 -0.00621
C 27.11211 8.39721 0.02611
C 27.05058 6.92891 0.02198
C 28.27544 6.29885 0.01094
C 28.2417 4.82735 0.00235
C 27.02904 4.19644 0.01495
C 27.02107 2.73862 0.01259
C 28.27606 2.07326 0.01799
C 28.13665 0.68446 0.01699
C 27.01695 0.04672 -0.00416
C 29.53712 32.65999 0.01177
C 30.75158 31.93634 0.04266
C 30.73492 30.52035 0.01324
C 29.54394 29.89614 0.0014
C 29.45379 28.47256 0.00924
C 30.69876 27.72947 0.02326
C 30.72032 26.3024 0.00261
C 29.51426 25.58003 0.03265
C 29.49801 24.17106 -0.02049
C 30.79264 23.46329 -0.01854
C 30.72229 22.0555 -0.01415
C 29.46616 21.44476 -0.03039
C 29.48108 19.94812 0.01836
C 30.69468 17.7263 -0.00669
C 33.19639 23.44533 0.01927
C 33.1077 22.00345 0.01574
C 31.9282 21.27075 -0.02383
C 0.02878 24.16061 0.03076
C 1.25777 23.42625 0.00723
C 1.19517 22.08149 0.02712
C 34.39478 21.35867 -0.02213
C 34.34435 19.89439 0.01951
C 1.19268 19.1454 -0.01678
C 1.1523 17.73621 0.01223
C 34.38765 17.00281 0.00648
C 34.30084 15.6314 0.02114
C 1.07977 14.88893 -0.02957
C 1.1456 13.53336 0.00343
C 34.33325 12.74385 -0.02656
C 34.28412 11.31875 -0.02442
C 1.17203 10.66371 -0.00027
C 1.11817 9.26094 -0.00583
C 34.39801 8.41444 -0.02302
C 0.03418 7.11093 -0.02849
C 1.3528 6.38775 0.02931
C 1.3403 4.99311 0.00628
C 0.06936 4.24152 -0.0345
C 0.11103 2.83071 -0.00931
C 1.42868 2.14961 -0.00939
C 1.29721 0.78608 -0.00468
C 0.00032 25.59086 -0.05239
C 1.23357 26.30564 -0.00598
C 1.18241 27.69409 -0.00439
C 0.00439 28.3879 -0.01037
C 31.91852 19.85999 -0.01429
C 33.16128 19.18659 -0.0136
C 33.1804 17.79918 0.00594
C 31.8936 17.13639 -0.02474
C 31.8687 15.62478 0.00369
C 33.02221 14.90004 0.00455
C 33.06216 13.42742 -0.00644
C 31.96304 12.68707 -0.01839
C 31.89828 11.28651 0.00137
C 33.12718 10.52703 0.00199
C 33.15047 9.13371 0.04381
C 28.25429 10.55386 0.00194
C 31.8911 8.40666 0.02806
C 33.26172 6.33813 -0.00069
C 33.24081 4.92976 0.04926
C 32.00156 4.2122 -0.03838
C 32.05884 2.83844 0.00349
C 33.30604 2.10409 -0.00323
C 33.21952 0.76526 -0.00841
C 31.918 0.07267 0.0001
C 0.05399 32.72611 -0.02927
C 1.18036 31.91725 -0.01404
C 1.21684 30.46454 0.01027
C 34.41824 29.7985 0.01831
C 31.92296 6.94703 0.01504
C 3.70823 31.98104 0.00535
C 27.07038 11.2672 0.04185
C 28.17329 13.45886 0.01257
C 22.12865 28.3273 -0.00652
C 23.40045 27.61328 0.0058
C 23.35441 26.26009 -0.00865
C 22.11839 25.62732 0.00675
C 22.11836 24.13795 -0.00311
C 23.26154 23.42306 0.00742
C 23.3866 22.00546 -0.01594
C 22.17499 21.3261 0.0106
C 22.10612 19.83981 -0.01154
C 23.34534 19.13539 -0.01721
C 23.36034 17.77806 -0.02422
C 22.10962 17.05607 0.01277
C 22.09141 15.56164 0.00096
C 23.31072 14.92141 -0.01527
C 23.2995 13.41225 0.01087
C 22.08121 12.75239 0.00199
C 22.1153 11.37842 0.01511
C 23.35313 10.64988 -0.00478
C 23.28671 9.22411 -0.01662
C 22.03003 8.59317 -0.01185
C 21.99137 7.08211 0.01126
C 23.31271 6.32872 0.01852
C 23.31413 4.94108 -0.00381
C 22.15013 29.79166 -0.04076
C 22.12094 4.24824 0.03046
C 23.35871 30.49559 -0.00703
C 22.0977 32.63626 -0.04422
C 20.91951 23.47101 -0.00491
C 20.86618 22.06937 0.03338
C 19.71729 21.32701 -0.0258
C 19.63843 19.86836 -0.0331
C 20.8918 19.15667 -0.00316
C 20.86057 17.7415 0.02188
C 19.61106 17.02761 -0.01979
C 19.61003 15.65659 0.02691
C 20.86044 14.94892 -0.01581
C 20.86942 13.47891 0.01452
C 19.57149 12.85092 0.04892
C 19.64373 11.36369 -0.00111
C 20.89844 10.59928 -0.03557
C 20.8243 9.23571 0.03754
C 19.52095 8.4624 0.01739
C 19.52267 7.0974 0.00755
C 20.85157 6.44122 -0.0054
C 20.85909 4.97611 0.00667
C 19.66058 4.26235 0.00143
C 19.63386 2.81429 -0.017
C 20.84259 2.16594 0.00364
C 20.75906 0.68815 -0.00831
C 19.57792 0.00144 -0.02957
C 23.32201 31.92814 0.00654
C 22.09952 2.88766 0.0296
C 23.2549 2.12899 0.03374
C 23.20742 0.70773 -0.02845
C 24.51893 4.27323 -0.00229
C 24.58184 2.87905 -0.00938
C 25.71121 2.14789 -0.0264
C 25.7876 0.77734 -0.01154
C 24.51418 0.02568 0.00684
C 26.99492 32.68939 -0.01052
C 28.32723 31.93435 -0.01679
C 28.25377 30.55846 0.00367
C 27.1044 29.81995 0.04306
C 26.97208 28.44254 0.00996
C 28.28628 27.76118 0.00195
C 28.29817 26.31298 -0.00802
C 27.05281 25.68946 -0.00218
C 27.07588 24.23576 -0.01654
C 28.22378 23.45474 -0.00037
C 28.26198 22.02369 -0.0032
C 27.01662 21.38612 0.00622
C 27.00476 19.94508 -0.02815
C 28.20864 19.19285 -0.00942
C 28.2209 17.74543 0.00487
C 27.01205 17.09297 0.00826
C 27.00485 15.70027 -0.00294
C 28.18671 14.87941 0.00152
C 25.82032 4.9342 -0.01199
C 25.78574 6.38173 -0.009
C 24.60645 7.04386 -0.00285
C 24.47457 8.46283 0.01423
C 22.008 0.00782 -0.03213
C 24.5707 32.68544 0.02239
C 25.81211 31.95054 0.01153
C 25.75031 30.47587 0.02734
C 24.54358 29.8401 -0.0055
C 24.53987 28.34928 0.01515
C 25.76973 27.63592 -0.00225
C 25.78071 26.30685 0.00071
C 24.54943 25.50005 -0.01107
C 24.54986 24.09364 -0.01586
C 25.84657 23.44761 -0.01971
C 26.95721 12.76127 0.02316
C 25.81569 22.01257 -0.02118
C 24.54642 19.8878 -0.00178
C 25.74834 19.14868 0.00768
C 25.76721 17.73428 -0.0276
C 24.51419 16.97533 0.03005
C 24.49178 15.62913 -0.04078
C 25.82184 14.99019 0.02117
C 25.79166 13.58923 0.02737
C 24.57807 12.81643 -0.00498
C 24.53981 11.37275 0.00135
C 25.76022 10.63252 0.03102
C 25.76649 9.06328 0.02555
C 24.58832 21.32783 0.00733
C 2.41009 32.58929 0.01984
