388
Graphene
C 0.00889 0.04396 0.01295
C 9.90278 4.25711 -0.02162
C 9.7997 2.90396 0.00415
C 11.04408 2.18171 -0.0014
C 11.08061 0.71151 0.02162
C 9.88485 0.06231 0.0076
C 12.30738 32.67741 0.01241
C 13.46243 31.91378 -0.01454
C 13.4663 30.48066 0.01945
C 12.26509 29.70976 0.01416
C 11.06883 4.94854 0.01363
C 12.35991 28.41217 0.03542
C 13.56965 26.23686 0.00244
C 12.35317 25.53561 -0.01717
C 12.34402 24.13862 0.05265
C 13.52566 23.48772 -0.01952
C 13.53592 21.96306 -0.02813
C 12.283 21.21183 0.00374
C 12.24618 19.82372 0.00052
C 13.55909 19.05969 -0.03682
C 13.47631 17.69494 0.01965
C 13.50921 27.71829 0.02299
C 12.28975 16.99474 0.02058
C 11.01843 6.44129 0.01877
C 9.76083 8.60741 0.00444
C 9.86853 29.88666 0.00572
C 9.86535 28.43554 0.03592
C 11.09145 27.71543 0.00406
C 11.09085 26.28939 0.00943
C 9.80466 25.57824 0.02841
C 9.85603 24.15623 -0.01111
C 11.11321 23.46754 -0.01275
C 11.08919 22.11327 0.00985
C 9.83253 21.30109 -0.02245
C 9.81376 7.20568 -0.00925
C 9.83952 19.81045 -0.00428
C 11.09509 17.73147 -0.01536
C 9.8767 17.07696 -0.02689
C 9.93714 15.60451 -0.01046
C 11.05969 14.84852 -0.00891
C 11.0704 13.4997 0.02819
C 9.85992 12.74499 0.00165
C 9.76841 11.34773 -0.02971
C 11.08764 10.6537 0.02894
C 11.13848 9.24101 -0.01789
C 11.04152 19.16404 0.03101
C 12.31656 15.61652 -0.01957
C 13.47389 15.00301 -0.0108
C 13.5242 13.54049 -0.00368
C 14.75603 19.8098 -0.00109
C 16.00092 19.13347 -0.00491
C 16.01283 17.76456 0.03338
C 14.74546 17.00596 -0.0258
C 14.71238 15.65193 -0.0331
C 15.96334 14.93863 -0.00316
C 16.02928 13.50015 0.02188
C 14.8118 12.8627 -0.01979
C 14.78413 11.34164 0.02691
C 14.78254 21.28355 0.03698
C 15.9823 10.64612 -0.01581
C 14.79348 8.47598 0.04892
C 14.69263 7.07544 -0.00111
C 15.96392 6.35515 -0.03557
C 16.0009 4.89901 0.03754
C 14.79108 4.22776 0.01739
C 14.72858 2.86942 0.00755
C 15.91913 2.11745 -0.0054
C 15.93492 0.71449 0.00667
C 14.66503 0.04834 0.00143
C 15.95816 9.26864 0.01452
C 15.97104 22.02224 -0.02213
C 16.0417 23.39103 0.00028
C 14.78962 24.10955 -0.00289
C 12.32408 12.81456 -0.02696
C 12.30671 11.39442 -0.00114
C 13.58182 10.67149 0.00228
C 13.53192 9.23798 0.00798
C 12.31706 8.46309 0.00422
C 12.25152 7.06287 0.0351
C 13.51285 6.37661 -0.03113
C 13.58593 4.97554 0.02098
C 12.2809 4.27667 0.01848
C 12.24459 2.85795 -0.00619
C 13.46826 2.15249 -0.02162
C 13.4875 0.7159 0.00889
C 12.25029 34.07659 -0.00481
C 14.75397 32.67406 0.00979
C 16.01272 31.92864 0.01443
C 15.9423 30.51771 0.03505
C 14.7252 29.76512 -0.02815
C 14.72348 28.36795 -0.04147
C 15.9975 27.65816 -0.05302
C 15.94778 26.24618 0.00213
C 14.79014 25.51557 -0.00066
C 11.12168 30.53318 0.0402
C 17.185 32.72156 -0.017
C 11.09532 31.92111 -0.02759
C 7.34025 0.05428 -0.00033
C 3.66707 4.99872 0.0086
C 2.47681 4.30974 -0.00643
C 2.48739 2.78971 0.017
C 3.66788 2.14393 -0.03113
C 3.64171 0.73484 -0.02566
C 2.43906 34.07335 -0.00094
C 4.93823 32.66937 0.02322
C 6.14648 32.01698 -0.00725
C 6.17098 30.49205 -0.05697
C 3.68354 6.43346 -0.00518
C 4.94586 29.82674 0.01087
C 6.17334 27.72387 0.00988
C 6.0685 26.36273 0.0276
C 4.92458 25.59473 0.01305
C 4.9043 24.14322 -0.00077
C 6.09776 23.42262 0.03368
C 6.10857 22.05385 -0.02929
C 4.95711 21.25639 -0.00966
C 4.96837 19.88742 -0.03337
C 6.13038 19.17604 0.01227
C 4.98991 28.38824 -0.01343
C 6.17347 17.74137 0.00873
C 2.37837 7.06984 -0.00074
C 3.66363 9.33026 -0.03996
C 3.69707 30.52863 0.04505
C 2.50056 29.79067 0.03284
C 2.4337 28.39604 -0.04307
C 3.74957 27.67103 0.03189
C 3.66253 26.22668 0.00031
C 2.4943 25.52302 -0.003
C 2.34231 24.10986 0.01402
C 3.63667 23.53934 0.02379
C 3.65871 22.08896 0.00907
C 2.41644 8.53055 0.01465
C 2.48695 21.37557 0.00643
C 3.69059 19.11849 0.03267
C 3.76112 17.75006 0.02374
C 2.50182 17.0966 0.00402
C 2.47173 15.68162 0.0073
C 3.66142 14.89352 0.0174
C 3.64115 13.42763 0.03828
C 2.40798 12.75777 0.01226
C 2.49408 11.34148 -0.00279
C 3.6892 10.66012 0.01996
C 2.48797 19.91615 -0.01509
C 4.95961 17.10499 -0.00049
C 4.88023 15.63192 0.00848
C 6.16762 14.8987 -0.01303
C 7.4372 21.29983 0.00488
C 7.3913 19.93092 -0.01004
C 8.54348 19.0681 -0.02896
C 8.58048 17.7072 -0.00131
C 7.33982 17.05213 -0.01118
C 7.35095 15.56757 -0.014
C 8.62998 14.92338 0.02147
C 8.60326 13.53063 0.00373
C 7.35834 12.8303 -0.00191
C 8.64614 21.95926 0.01745
C 7.34339 11.42148 0.00438
C 8.5766 9.28663 0.00093
C 7.41922 8.5504 0.00057
C 7.37074 7.08497 -0.01634
C 8.61896 6.41397 -0.00334
C 8.672 5.01668 0.02339
C 7.38534 4.28714 0.01641
C 7.33587 2.9005 -0.00719
C 8.63862 2.15394 0.01364
C 8.62623 0.76609 -0.01062
C 8.59696 10.69539 0.01291
C 8.6317 23.46808 0.03693
C 7.32809 24.24325 -0.01384
C 7.30004 25.61892 -0.00482
C 6.1615 13.50989 -0.01378
C 4.84348 12.80154 0.02635
C 4.9432 11.39298 0.0127
C 6.17981 10.65896 0.01396
C 6.1817 9.21161 0.01849
C 4.88582 8.58474 -0.01142
C 4.90028 7.17511 -0.00562
C 6.1565 6.40519 -0.00494
C 6.07655 4.95737 0.00054
C 4.86932 4.28767 0.03007
C 4.90655 2.81352 -0.00095
C 6.17444 2.1256 0.01572
C 6.08064 0.76992 -0.04848
C 4.85216 0.01807 -0.00892
C 7.42875 32.74321 -0.01362
C 8.61336 31.91187 -0.0008
C 8.59456 30.55942 0.0288
C 7.3346 29.81448 0.00393
C 7.38499 28.42376 0.00895
C 8.57875 27.74129 0.00685
C 8.50078 26.29447 0.02888
C 9.79003 32.666 0.03589
C 18.41575 31.90878 0.00364
C 18.44464 30.58364 -0.00831
C 17.15479 29.83727 -0.02957
C 30.73683 6.44551 0.07705
C 30.7529 4.9538 0.0103
C 29.50912 4.23121 0.02108
C 29.49827 2.8461 0.00716
C 30.7836 2.13181 0.00307
C 30.76263 0.74397 0.00346
C 29.4928 34.05454 0.01713
C 31.97844 32.66313 -0.01694
C 33.18902 31.93281 0.01428
C 29.43781 7.16482 0.01908
C 33.26045 30.52048 -0.02142
C 31.9902 28.33165 0.00026
C 33.2507 27.64512 0.00682
C 33.2124 26.29221 -0.01779
C 31.98114 25.57109 0.03794
C 31.98708 24.12755 0.01927
C 33.20178 23.4239 0.01574
C 33.17466 22.00135 -0.02383
C 31.96496 21.26676 -0.01429
C 32.06025 20.07722 -0.0136
C 31.99335 29.72733 0.0544
C 33.20792 19.11934 0.00594
C 29.52127 8.5706 0.01518
C 30.72957 10.70869 -0.03735
C 27.09511 7.05362 0.01324
C 28.24422 6.3857 0.0014
C 28.32539 4.9146 0.00924
C 27.00378 4.21029 0.02326
C 27.00892 2.83642 0.00261
C 28.23815 2.09377 0.03265
C 28.22795 0.73774 -0.02049
C 27.00531 0.00369 -0.01854
C 29.5322 32.58999 -0.01415
C 30.77313 9.23868 -0.00971
C 30.7447 31.98014 -0.03039
C 29.58241 29.77348 0.03531
C 29.5046 28.30732 -0.00669
C 30.76856 27.67526 0.0101
C 30.7933 26.24046 0.01705
C 29.46636 25.53555 -0.0405
C 29.61674 24.09268 -0.01303
C 30.69007 23.51056 -0.01461
C 30.73256 13.50801 -0.02155
C 29.477 11.41276 -0.00944
C 30.7491 30.52829 0.01836
C 33.2884 17.79883 -0.02474
C 31.95478 15.62592 0.00369
C 33.19414 14.91674 0.00455
C 34.43007 21.2902 -0.02213
C 0.06937 19.92791 0.01951
C 1.25867 19.16139 -0.01678
C 1.22766 17.70435 0.01223
C 34.40714 17.07793 0.00648
C 0.0219 15.63054 0.02114
C 1.25585 14.98269 -0.02957
C 1.17817 13.40169 0.00343
C 34.39265 12.7562 -0.02656
C 1.20787 22.02433 0.02712
C 0.04771 11.34035 -0.02442
C 1.1397 9.18979 -0.00583
C 34.34433 8.53172 -0.02302
C 34.4024 7.05821 -0.02849
C 1.17712 6.36588 0.02931
C 1.21824 4.90116 0.00628
C 34.41909 4.31647 -0.0345
C 0.01001 2.87961 -0.00931
C 1.23755 2.13022 -0.00939
C 1.22488 0.70686 -0.00468
C 1.17135 10.60993 -0.00027
C 1.12665 23.44312 0.00723
C 34.41313 24.17683 0.03076
C 0.0436 25.5218 -0.05239
C 33.20706 13.46719 -0.00644
C 31.90543 12.84877 -0.01839
C 31.97439 11.40766 0.00137
C 33.17746 10.72639 0.00199
C 33.15303 9.26169 0.04381
C 31.92804 8.54038 0.02806
C 31.9768 7.13719 0.01504
C 33.20255 6.39199 -0.00069
C 33.21147 4.98062 0.04926
C 31.94533 4.24037 -0.03838
C 31.95722 2.82511 0.00349
C 33.18813 2.1655 -0.00323
C 33.18806 0.79148 -0.00841
C 31.98174 34.02794 0.0001
C 34.4215 32.64266 -0.02927
C 1.18382 31.93799 -0.01404
C 1.23855 30.55189 0.01027
C 0.06106 29.81541 0.01831
C 34.36587 28.32529 -0.01037
C 1.1764 27.6882 -0.00439
C 1.2587 26.26865 -0.00598
C 27.0336 8.44297 0.04266
C 28.23363 9.25633 0.01177
C 28.39221 10.62972 -0.00416
C 27.08287 25.55803 0.01699
C 17.22997 0.02729 0.01852
C 19.65916 32.63761 -0.00381
C 20.90974 31.8617 0.03046
C 20.88582 30.47821 0.0296
C 19.64058 29.80387 0.03374
C 19.68874 28.38759 -0.02845
C 20.98996 27.71779 -0.03213
C 20.89709 26.29034 0.02239
C 19.61863 25.5214 0.01153
C 18.37441 0.68115 0.01126
C 19.67549 24.08792 0.02734
C 19.62873 11.38485 0.01515
C 20.94041 10.66899 -0.00225
C 20.9211 9.22808 0.00071
C 19.56019 8.51655 -0.01107
C 19.61374 7.0399 -0.01586
C 20.93085 6.3843 -0.01971
C 20.89658 4.96172 -0.02118
C 19.69729 4.18944 0.00733
C 19.68648 2.79178 -0.00178
C 19.70346 12.74664 -0.0055
C 18.43064 2.10666 -0.01185
C 17.2271 2.75622 -0.01662
C 17.18027 4.20361 -0.00478
C 17.20134 28.43784 -0.04422
C 18.49809 27.62123 0.00654
C 18.51774 26.22613 -0.00703
C 17.18231 25.51198 -0.04076
C 17.22147 24.12724 -0.00652
C 18.49566 23.38721 0.0058
C 18.43811 21.99415 -0.00865
C 17.3122 21.27661 0.00675
C 17.1281 19.85786 -0.00311
C 17.19908 17.06098 0.00742
C 17.31746 15.62707 -0.01594
C 18.52377 14.91942 0.0106
C 18.53048 13.55093 -0.01154
C 17.22513 12.81217 -0.01721
C 17.25755 11.28482 -0.02422
C 18.41925 10.64558 0.01277
C 18.44989 9.25076 0.00096
C 17.16853 8.57655 -0.01527
C 17.16399 7.10223 0.01087
C 18.42394 6.39666 0.00199
C 18.40334 4.98309 0.01511
C 20.90988 2.12178 0.00768
C 3.72361 31.95875 -0.04999
C 20.88731 0.76162 -0.0276
C 22.12896 32.60987 -0.04078
C 25.86042 26.28885 -0.0032
C 24.6587 25.59411 0.00622
C 25.91555 10.56314 -0.02815
C 25.76223 9.20139 -0.00942
C 24.60233 8.50623 0.00487
C 24.58405 7.07345 0.00826
C 25.94526 6.41325 -0.00294
C 25.8155 5.01684 0.00152
C 24.5859 4.24126 0.01257
C 25.83191 27.70572 -0.00037
C 24.50624 2.85101 0.02316
C 25.73416 0.72643 0.00194
C 24.5256 34.07082 -0.00621
C 27.02479 32.65979 0.02611
C 28.31354 31.89133 0.02198
C 28.20706 30.47213 0.01094
C 27.03735 29.80272 0.00235
C 27.00797 28.4175 0.01495
C 28.22367 27.65461 0.01259
C 28.23316 26.28531 0.01799
C 25.77316 2.13537 0.04185
C 24.59455 28.37853 -0.01654
C 24.58503 29.82518 -0.00218
C 25.84546 30.44858 -0.00802
C 23.37538 31.9458 0.02117
C 23.37094 30.53301 0.02737
C 22.15075 29.84047 -0.00498
C 22.2531 28.48992 0.00135
C 23.37532 27.70651 0.03102
C 23.31457 26.13241 0.02555
C 22.07288 25.54401 0.01423
C 22.19997 11.34997 -0.00285
C 23.23572 10.69311 -0.009
C 23.38238 9.23376 -0.01199
C 22.19037 8.57856 -0.00229
C 22.15604 7.14452 -0.00938
C 23.35526 6.39398 -0.0264
C 23.33102 4.91624 -0.01154
C 22.13225 4.28214 0.00684
C 22.1358 2.84943 -0.01052
C 23.29128 2.10293 -0.01679
C 23.32831 0.6728 0.00367
C 22.10679 34.04751 0.04306
C 24.56341 32.65709 0.00996
C 25.83165 31.94335 0.00195
C 19.71015 34.04477 0.03005
C 2.44749 32.71942 -0.03291
