383
Graphene
C 34.39978 0.08112 0.01295
C 13.45202 19.25082 0.0076
C 13.51701 17.79331 0.01241
C 12.27917 17.07165 -0.01454
C 12.33013 15.72615 0.01945
C 13.5353 14.99059 0.01416
C 13.66932 13.6503 0.03542
C 13.58428 0.53659 0.02299
C 12.27644 0.03304 0.00244
C 14.78343 32.62266 -0.01717
C 12.28394 19.97097 0.02162
C 16.04027 31.95692 0.05265
C 14.82798 29.79955 -0.02813
C 14.76913 28.38711 0.00374
C 15.96661 27.62935 0.00052
C 16.01954 26.13401 -0.03682
C 14.75925 25.51573 0.01965
C 14.77344 24.11725 0.02058
C 16.02629 23.31711 -0.01957
C 15.91321 21.9237 -0.0108
C 14.72227 21.33853 -0.00368
C 16.01946 30.51598 -0.01952
C 14.70201 19.93204 -0.02696
C 12.2945 21.35586 -0.0014
C 13.5138 23.43202 -0.02162
C 9.85157 21.42483 0.02841
C 9.93444 19.93453 -0.01111
C 11.09268 19.23236 -0.01275
C 11.00223 17.76269 0.00985
C 9.8503 16.98092 -0.02245
C 9.83296 15.59202 -0.00428
C 11.1402 14.99819 0.03101
C 10.99263 13.67923 -0.01536
C 9.83089 12.92991 -0.02689
C 13.49597 22.00495 0.00415
C 10.99782 0.49364 -0.01046
C 12.33622 32.60746 0.02819
C 13.54612 31.82387 0.00165
C 13.55622 30.44409 -0.02971
C 12.36719 29.78243 0.02894
C 12.32372 28.35724 -0.01789
C 13.52642 27.65333 0.00444
C 13.59935 26.24909 -0.00925
C 12.27159 25.63842 0.01877
C 12.2276 24.21551 0.01363
C 9.67246 0.25458 -0.00891
C 11.06308 22.09663 0.00943
C 15.95372 19.1192 -0.00114
C 14.75058 17.08223 0.00798
C 18.4648 14.88968 -0.0258
C 18.46283 13.41576 -0.0331
C 17.18654 12.70623 -0.00316
C 17.12372 11.35729 0.02188
C 18.3875 10.5946 -0.01979
C 18.46203 9.26539 0.02691
C 18.55589 2.17579 -0.01581
C 18.53807 0.71822 0.01452
C 17.31581 0.05981 0.04892
C 17.2056 15.63701 0.03338
C 19.72391 32.64969 -0.00111
C 20.83374 30.54113 0.03754
C 19.64926 29.78664 0.01739
C 19.67041 28.34406 0.00755
C 20.85645 27.63446 -0.0054
C 20.93335 26.16803 0.00667
C 19.66853 25.71865 0.00143
C 19.57017 19.88176 -0.017
C 20.74094 19.23667 0.00364
C 20.94651 17.8228 -0.00831
C 20.85092 31.8842 -0.03557
C 15.99069 17.77979 0.00228
C 17.19954 17.07085 -0.00491
C 18.39006 19.19604 0.03698
C 14.75793 15.71847 0.00422
C 16.01749 14.9249 0.0351
C 15.98933 13.4995 -0.03113
C 14.80983 12.96176 0.02098
C 16.11672 1.98218 0.01848
C 15.97468 0.64262 -0.00619
C 14.73549 33.94454 -0.02162
C 17.24895 32.71347 0.00889
C 18.47392 31.93264 -0.00481
C 18.45192 17.75774 -0.00109
C 18.43237 30.47941 0.00979
C 17.21714 28.40424 0.03505
C 18.47689 27.63363 -0.02815
C 18.40416 26.18298 -0.04147
C 17.15088 25.45941 -0.05302
C 17.22763 24.0249 0.00213
C 18.31747 23.26392 -0.00066
C 18.40044 21.94041 -0.00289
C 17.21453 21.21064 0.00028
C 17.2133 19.81215 -0.02213
C 17.22496 29.86558 0.01443
C 19.63775 17.03953 -0.02957
C 11.04557 23.48327 0.00406
C 9.815 25.63903 0.00572
C 3.61918 5.02271 -0.00094
C 2.38537 4.30947 0.02322
C 2.42947 2.86599 -0.00725
C 3.6788 2.21137 -0.05697
C 3.66529 0.70148 0.01087
C 2.3865 0.09997 -0.01343
C 4.8578 32.67878 0.00988
C 6.09304 32.0081 0.0276
C 6.17012 30.57212 0.01305
C 3.53983 6.44843 -0.02566
C 4.89474 29.9041 -0.00077
C 6.08492 27.8291 -0.02929
C 6.09433 26.3892 -0.00966
C 4.91013 25.57096 -0.03337
C 4.84316 24.15457 0.01227
C 6.08596 23.47255 0.00873
C 6.12156 22.02189 -0.00049
C 4.88197 21.25089 0.00848
C 5.02061 19.92071 -0.01303
C 6.28099 19.23346 -0.01378
C 4.85272 28.53348 0.03368
C 6.19982 17.75374 0.02635
C 2.32432 7.06709 -0.03113
C 3.71576 9.15512 -0.00643
C 3.66891 30.56572 -0.003
C 2.43395 29.84393 0.01402
C 2.43249 28.45348 0.02379
C 3.66582 27.71622 0.00907
C 3.62805 26.26913 0.00643
C 2.38021 25.58747 -0.01509
C 2.36581 24.11699 0.03267
C 3.6401 23.48794 0.02374
C 3.6431 21.94476 0.00402
C 2.4072 8.46285 0.017
C 2.40007 21.23942 0.0073
C 3.73885 19.19437 0.03828
C 3.82008 17.83296 0.01226
C 2.50306 17.10497 -0.00279
C 2.47459 15.62627 0.01996
C 3.65541 14.93824 -0.03996
C 3.65669 13.54132 0.01465
C 2.48371 12.79047 -0.00074
C 2.41044 11.32743 -0.00518
C 3.63552 10.62086 0.0086
C 2.49342 19.87355 0.0174
C 9.81818 24.21974 0.03592
C 4.97454 17.10722 0.0127
C 6.04576 14.89852 0.01849
C 7.39119 21.37642 -0.01118
C 7.50796 19.93257 -0.014
C 8.75535 19.14088 0.02147
C 8.68404 17.76169 0.00373
C 7.38494 17.00868 -0.00191
C 7.36246 15.50545 0.00438
C 8.60499 14.87662 0.01291
C 8.60529 13.41238 0.00093
C 7.31058 12.70373 0.00057
C 8.62702 22.10545 -0.00131
C 7.41847 11.4143 -0.01634
C 8.47599 0.912 0.02339
C 7.3176 0.11642 0.01641
C 9.78471 32.75125 -0.00719
C 11.04713 31.97832 0.01364
C 11.14878 30.54119 -0.01062
C 9.79197 29.85249 -0.00033
C 9.80292 28.46247 0.03589
C 11.06347 27.69138 -0.02759
C 11.04645 26.36604 0.0402
C 7.34663 2.90226 -0.00334
C 4.87216 15.67766 0.01396
C 8.58198 23.50683 -0.02896
C 7.37101 25.59995 0.00488
C 6.10063 13.49054 -0.01142
C 4.84511 12.80388 -0.00562
C 4.95518 11.37358 -0.00494
C 6.25949 10.59386 0.00054
C 6.05772 9.26057 0.03007
C 4.98545 8.43581 -0.00095
C 4.89282 6.92764 0.01572
C 5.96227 5.30092 -0.04848
C 4.87952 4.36535 -0.00892
C 7.32036 24.19258 -0.01004
C 4.95496 2.90355 -0.01362
C 6.0905 0.80866 0.0288
C 4.8732 0.03295 0.00393
C 7.3441 32.75052 0.00895
C 8.57494 32.09031 0.00685
C 8.6142 30.61806 0.02888
C 7.42066 29.97552 -0.00482
C 7.34619 28.47549 -0.01384
C 8.61284 27.76471 0.03693
C 8.58853 26.31223 0.01745
C 6.17357 2.19139 -0.0008
C 3.60936 32.04838 0.00031
C 19.67393 15.56373 -0.04422
C 20.94467 13.40205 -0.00703
C 29.40606 4.22313 0.0103
C 29.44253 2.87148 0.02108
C 30.6499 2.13812 0.00716
C 30.65713 0.78159 0.00307
C 29.47534 0.03405 0.00346
C 31.96688 32.65585 0.01713
C 33.21605 32.00477 -0.01694
C 33.20412 30.53515 0.01428
C 31.9895 29.8845 -0.02142
C 30.68073 4.97252 0.07705
C 31.86014 28.46959 0.0544
C 33.1697 26.25815 0.00682
C 31.93547 25.51346 -0.01779
C 31.91995 24.14398 0.03794
C 33.17095 23.48573 0.01927
C 33.13722 21.9956 0.01574
C 31.91821 21.3013 -0.02383
C 31.9666 19.88403 -0.01429
C 33.21343 19.15843 -0.0136
C 33.25824 17.75184 0.00594
C 33.09844 27.71415 0.00026
C 32.00337 17.02908 -0.02474
C 30.66707 6.45242 0.01908
C 29.46608 8.47996 -0.00971
C 29.56873 29.87368 0.0014
C 29.46154 28.43548 0.00924
C 30.66186 27.7023 0.02326
C 30.7238 26.19946 0.00261
C 29.43088 25.54735 0.03265
C 29.43531 24.08685 -0.02049
C 30.71592 23.3741 -0.01854
C 30.63549 21.97983 -0.01415
C 29.44393 21.26306 -0.03039
C 29.43991 7.0631 0.01518
C 29.48818 19.88915 0.01836
C 30.80654 17.76164 -0.00669
C 29.60552 17.02839 0.0101
C 29.54108 15.61826 0.01705
C 30.79172 14.8929 -0.0405
C 30.80364 13.39901 -0.01303
C 29.53539 12.75854 -0.01461
C 29.57729 11.33419 -0.02155
C 30.78038 10.6497 -0.00944
C 30.71237 9.27016 -0.03735
C 30.76521 19.20441 0.03531
C 30.75688 30.60107 0.01324
C 31.97193 15.6152 0.00369
C 33.20728 13.51507 -0.00644
C 34.37261 21.25816 -0.02213
C 34.39647 19.85092 0.01951
C 1.27621 19.2083 -0.01678
C 1.3006 17.73343 0.01223
C 0.09295 17.06318 0.00648
C 0.04601 15.6988 0.02114
C 1.25817 14.91887 -0.02957
C 1.27198 13.53454 0.00343
C 0.0076 12.80316 -0.02656
C 1.16709 21.9879 0.02712
C 0.04224 11.4573 -0.02442
C 1.18494 9.18033 -0.00583
C 34.35778 8.48987 -0.02302
C 34.38725 7.11936 -0.02849
C 1.12532 6.35201 0.02931
C 1.11398 4.98452 0.00628
C 34.31804 4.2357 -0.0345
C 34.31971 2.86734 -0.00931
C 1.16232 2.19207 -0.00939
C 1.17858 0.80877 -0.00468
C 1.18587 10.647 -0.00027
C 33.22124 14.97456 0.00455
C 1.18922 23.39044 0.00723
C 0.00068 25.60305 -0.05239
C 32.03173 12.75102 -0.01839
C 31.99156 11.3729 0.00137
C 33.25454 10.68753 0.00199
C 33.21488 9.24022 0.04381
C 31.98446 8.51617 0.02806
C 31.87203 7.12141 0.01504
C 33.13889 6.4093 -0.00069
C 33.12147 4.99943 0.04926
C 31.90673 4.20608 -0.03838
C 34.41124 24.15824 0.03076
C 31.90469 2.83764 0.00349
C 33.13162 0.69581 -0.00841
C 31.91158 0.018 0.0001
C 34.41515 32.73463 -0.02927
C 1.15926 31.94142 -0.01404
C 1.20829 30.57727 0.01027
C 34.40501 29.82549 0.01831
C 34.42303 28.43243 -0.01037
C 1.19418 27.67897 -0.00439
C 1.17168 26.30535 -0.00598
C 33.14793 2.12127 -0.00323
C 20.89523 14.85941 0.00654
C 30.79129 31.98752 0.04266
C 26.97107 34.07536 -0.00416
C 22.113 8.65951 0.03046
C 23.3599 6.25201 0.0296
C 23.45076 4.93489 0.03374
C 22.09269 2.84604 -0.02845
C 23.32454 2.0981 -0.03213
C 23.34633 0.71875 0.02239
C 22.16125 34.02009 0.01153
C 24.61165 32.66139 0.02734
C 25.8145 31.92981 -0.0055
C 23.34942 9.11421 -0.00381
C 25.80804 30.50002 0.01515
C 24.52816 28.34665 0.00071
C 25.74283 27.60028 -0.01107
C 25.71384 26.2013 -0.01586
C 24.46671 25.53027 -0.01971
C 25.81092 23.31255 -0.02118
C 25.86908 21.98961 0.00733
C 24.51849 19.94694 -0.00178
C 25.7441 19.25809 0.00768
C 25.82398 17.7703 -0.0276
C 24.58616 29.76448 -0.00225
C 24.53959 17.10953 0.03005
C 23.3838 10.56511 0.01852
C 22.13795 12.72402 -0.01185
C 19.72296 12.6971 -0.04076
C 19.64549 11.30908 -0.00652
C 20.90302 10.59103 0.0058
C 20.84279 9.13815 -0.00865
C 21.09544 2.01724 0.00675
C 20.91077 0.67263 -0.00311
C 19.77924 34.0638 0.00742
C 22.13635 32.58421 -0.01594
C 23.3718 31.96583 0.0106
C 22.18124 11.27121 0.01126
C 23.33767 30.5353 -0.01154
C 22.04301 28.39348 -0.02422
C 23.21767 27.63644 0.01277
C 23.41767 26.34251 0.00096
C 23.43267 19.18898 -0.01527
C 23.30993 17.73512 0.01087
C 22.09119 17.07556 0.00199
C 22.03914 15.697 0.01511
C 23.37195 14.92143 -0.00478
C 23.34376 13.43364 -0.01662
C 22.11277 29.76758 -0.01721
C 29.50692 32.70637 0.01177
C 24.60807 15.60812 -0.04078
C 25.81271 13.49953 0.02737
C 26.95556 21.20319 0.00622
C 26.93068 19.81093 -0.02815
C 28.25962 19.16041 -0.00942
C 28.37695 17.79692 0.00487
C 27.10952 17.01162 0.00826
C 27.11935 15.62684 -0.00294
C 28.33895 14.92631 0.00152
C 28.42191 13.55094 0.01257
C 27.01485 12.83309 0.02316
C 28.1762 21.9456 -0.0032
C 27.00717 11.38186 0.04185
C 28.3363 9.18966 -0.00621
C 27.07759 8.55283 0.02611
C 26.99863 7.13181 0.02198
C 28.26654 6.37666 0.01094
C 28.25035 4.97815 0.00235
C 27.00487 4.23617 0.01495
C 27.00389 2.80258 0.01259
C 28.18376 2.07957 0.01799
C 28.2127 0.68648 0.01699
C 28.3166 10.63337 0.00194
C 25.89961 14.93869 0.02117
C 28.19063 23.36568 -0.00037
C 27.00421 25.4874 -0.00218
C 24.6162 12.71401 -0.00498
C 24.67098 11.29899 0.00135
C 25.93162 10.62849 0.03102
C 25.85896 9.26511 0.02555
C 24.58919 8.44233 0.01423
C 24.53989 7.02154 -0.00285
C 25.76674 6.42806 -0.009
C 25.75628 4.90892 -0.01199
C 24.58484 4.20933 -0.00229
C 26.98016 24.1334 -0.01654
C 24.60125 2.83605 -0.00938
C 25.77759 0.66963 -0.01154
C 24.55603 34.04752 0.00684
C 27.00136 32.64125 -0.01052
C 28.2878 31.91217 -0.01679
C 28.24875 30.51816 0.00367
C 27.04569 29.7692 0.04306
C 26.95507 28.39758 0.00996
C 28.23065 27.675 0.00195
C 28.22249 26.24425 -0.00802
C 25.75912 2.07838 -0.0264
C 2.31505 32.77277 0.03189
