238
Graphene
C 0.01222 0.02422 0.01295
C 13.57717 0.68746 -0.01586
C 13.52976 2.19084 -0.01107
C 13.52641 22.06439 0.00071
C 13.53335 23.42484 -0.00225
C 12.32369 24.18636 0.01515
C 12.3001 25.57414 -0.0055
C 13.44295 26.21015 0.02734
C 13.53162 27.66335 0.01153
C 12.27263 28.33019 0.02239
C 12.28852 29.78947 -0.03213
C 13.5646 30.5459 -0.02845
C 13.55153 31.90042 0.03374
C 12.33263 32.6416 0.0296
C 9.87813 34.06319 0.03046
C 11.05399 0.76039 -0.00381
C 9.8815 21.26836 0.01852
C 11.0734 21.90315 0.01126
C 11.01725 23.37889 -0.01185
C 9.87009 24.07269 -0.01662
C 9.78769 25.53802 -0.00478
C 11.02439 26.29052 0.01511
C 11.07658 27.63797 0.00199
C 9.81994 28.42104 0.01087
C 9.75343 29.86578 -0.01527
C 11.06097 30.54046 0.00096
C 12.31557 0.02838 -0.01971
C 14.7578 32.6692 -0.02118
C 15.98087 31.9512 0.00733
C 15.9659 30.52894 -0.00178
C 22.15765 19.87236 -0.00802
C 23.39434 31.98042 0.00195
C 22.14112 32.7271 0.00996
C 19.67571 0.03732 0.04306
C 20.90245 0.77151 0.00367
C 20.96913 17.66889 -0.01679
C 20.89667 19.12939 -0.01052
C 19.70554 19.90247 0.00684
C 21.00408 31.97048 -0.01154
C 19.65507 32.58858 -0.0264
C 17.2191 0.04264 -0.00938
C 18.4513 0.69683 -0.00229
C 11.01036 31.92193 0.01277
C 18.48533 2.09491 -0.01199
C 17.31281 4.23854 -0.00285
C 18.43589 31.99318 0.01423
C 17.22932 32.65481 0.02555
C 14.73505 0.07483 0.03102
C 15.97593 0.75217 0.00135
C 15.98771 2.10792 -0.00498
C 14.73664 2.78403 0.02737
C 14.73857 21.39431 0.02117
C 15.93378 21.93884 -0.04078
C 14.70491 24.17569 0.03005
C 14.72533 28.44773 -0.0276
C 14.76556 29.78885 0.00768
C 17.29157 2.91147 -0.009
C 9.8219 32.61563 -0.02422
C 7.39639 0.0128 -0.01721
C 8.61102 0.70894 -0.01154
C 2.46928 34.05359 -0.00316
C 3.63743 0.70395 -0.0331
C 3.68104 2.11786 -0.0258
C 2.46259 2.78263 0.03338
C 2.48284 4.21182 -0.00491
C 3.65977 4.95157 -0.00109
C 2.40251 7.13526 0.03698
C 2.43631 8.48356 -0.02213
C 2.42608 11.45149 0.00028
C 2.44008 12.78997 -0.00289
C 3.64758 14.91113 -0.00066
C 2.48898 15.57858 0.00213
C 4.92833 32.66026 0.02188
C 2.48211 17.08475 -0.05302
C 3.69249 19.18972 -0.02815
C 2.48995 19.89222 0.03505
C 2.45977 21.32135 0.01443
C 3.68939 21.97147 0.00979
C 3.64778 23.4133 -0.00481
C 2.44237 24.15115 0.00889
C 2.49793 25.59862 -0.02162
C 3.67221 26.27381 -0.00619
C 3.66355 27.68775 0.01848
C 2.41641 28.39804 0.02098
C 2.44356 29.78502 -0.03113
C 3.64102 30.51507 0.0351
C 3.69286 17.79568 -0.04147
C 23.40264 19.17521 -0.00218
C 6.14136 31.94303 -0.01979
C 4.91885 29.77078 -0.01581
C 7.33519 21.26147 0.0106
C 8.62896 21.92657 -0.01594
C 8.57549 23.40203 0.00742
C 7.39641 24.12104 -0.00311
C 7.43487 25.57495 0.00675
C 8.58107 26.31063 -0.00865
C 8.63803 27.65138 0.0058
C 7.37999 28.41466 -0.00652
C 7.37067 29.82632 -0.04076
C 8.5983 30.55894 -0.00703
C 8.60828 31.91329 0.00654
C 7.36118 32.68557 -0.04422
C 6.12638 30.56624 0.02691
C 4.89265 0.01198 -0.02957
C 6.12008 2.18743 0.00364
C 4.94176 2.86977 -0.017
C 6.17648 19.1183 0.00143
C 4.93911 19.90992 0.00667
C 4.93924 21.31135 -0.0054
C 6.16072 22.0104 0.00755
C 6.1032 23.47928 0.01739
C 4.94385 24.16323 0.03754
C 4.90787 25.52769 -0.03557
C 6.14352 26.26439 -0.00111
C 6.12483 27.70747 0.04892
C 4.95222 28.34711 0.01452
C 6.21326 0.75149 -0.00831
C 23.35471 17.75223 -0.01654
C 22.20574 17.00353 -0.00037
C 22.1829 15.61786 -0.0032
C 34.37766 32.63997 -0.02927
C 31.94921 0.07977 0.0001
C 33.2034 0.70068 -0.00841
C 33.23672 2.09573 -0.00323
C 31.94066 2.88958 0.00349
C 32.04112 4.24591 -0.03838
C 33.15811 4.94531 0.04926
C 33.26172 6.37497 -0.00069
C 33.10738 9.20116 0.01504
C 33.16883 10.70367 0.02806
C 31.92352 11.40365 0.04381
C 31.92493 12.76958 0.00199
C 1.25351 31.98872 -0.01404
C 33.20159 13.39787 0.00137
C 32.03024 15.61643 -0.00644
C 32.01055 17.06513 0.00455
C 33.22057 17.764 0.00369
C 33.19135 19.17824 -0.02474
C 31.92567 19.84301 0.00594
C 31.95927 21.29197 -0.0136
C 33.23749 22.01823 -0.01429
C 33.23108 23.40666 -0.02383
C 31.99192 24.15117 0.01574
C 31.99217 25.60133 0.01927
C 33.17727 26.28463 0.03794
C 33.2478 27.6815 -0.01779
C 33.2479 14.89517 -0.01839
C 31.99531 28.44251 0.00682
C 1.19745 30.4295 0.01027
C 34.42239 28.38924 -0.01037
C 1.20482 0.72285 -0.00468
C 1.19898 2.08093 -0.00939
C 0.005 2.81785 -0.00931
C 34.4274 4.25564 -0.0345
C 1.1958 4.96637 0.00628
C 1.25075 6.31421 0.02931
C 34.40564 7.12755 -0.02849
C 34.40402 8.54836 -0.02302
C 1.26631 9.25311 -0.00583
C 1.21813 10.66146 -0.00027
C 0.002 11.37426 -0.02442
C 0.03028 12.78925 -0.02656
C 34.42376 29.81112 0.01831
C 1.20442 13.53797 0.00343
C 0.03057 15.59879 0.02114
C 0.01656 17.05941 0.00648
C 1.22041 17.77741 0.01223
C 1.26626 19.22293 -0.01678
C 34.39048 19.95934 0.01951
C 34.40717 21.33683 -0.02213
C 1.2301 22.03836 0.02712
C 1.16506 23.44644 0.00723
C 0.00256 24.18986 0.03076
C 0.01317 25.57192 -0.05239
C 1.2537 26.25454 -0.00598
C 1.20394 27.70457 -0.00439
C 1.19241 14.9516 -0.02957
C 3.68279 31.97272 0.00422
C 31.93799 29.82086 0.00026
C 33.17138 31.97009 -0.02142
C 27.05198 19.83359 0.00924
C 27.07754 21.26861 0.0014
C 28.23422 22.05105 0.01324
C 28.27921 23.43578 0.04266
C 27.05271 24.19829 0.01177
C 27.08989 25.50628 -0.00416
C 28.25891 26.27961 0.01699
C 28.23489 27.67628 0.01799
C 27.0851 28.41069 0.01259
C 27.00075 29.836 0.01495
C 28.21526 30.52963 0.00235
C 28.25492 31.94935 0.01094
C 28.27271 19.09997 0.02326
C 27.05914 32.70764 0.02198
C 24.53574 15.64149 -0.00621
C 24.60781 17.06361 0.00194
C 25.83497 17.71267 0.04185
C 25.8123 19.14374 0.02316
C 24.60136 19.92241 0.01257
C 24.63878 21.27452 0.00152
C 25.81708 22.07791 -0.00294
C 25.80843 23.40842 0.00826
C 25.80281 30.54294 0.00487
C 25.81391 31.92771 -0.00942
C 24.54519 32.70493 -0.02815
C 22.14012 0.02091 0.00622
C 24.61397 34.04239 0.02611
C 33.26174 30.50362 0.0544
C 28.25468 17.74937 0.00261
C 27.07179 15.57832 -0.02049
C 31.98827 32.66286 0.01428
C 29.49483 34.07561 -0.01694
C 30.71697 0.69969 0.01713
C 30.73225 2.13193 0.00346
C 30.79397 13.53088 0.00307
C 30.75331 14.82427 0.00716
C 29.5564 15.59116 0.02108
C 29.50852 17.04836 0.0103
C 30.74464 17.78573 0.07705
C 30.748 19.13951 0.01908
C 29.47599 19.88714 0.01518
C 29.54492 21.26145 -0.00971
C 27.00604 16.96522 0.03265
C 30.71448 22.04878 -0.03735
C 29.49895 24.12033 -0.02155
C 29.47145 25.59423 -0.01461
C 30.7382 26.27736 -0.01303
C 30.78041 27.64769 -0.0405
C 29.54825 28.38376 0.01705
C 29.50312 29.84448 0.0101
C 30.79944 30.50294 -0.00669
C 30.74191 31.87293 0.03531
C 29.52565 32.64747 0.01836
C 27.15944 0.00553 -0.03039
C 28.22088 0.69706 -0.01415
C 28.27713 14.9241 -0.01854
C 30.75238 23.43691 -0.00944
C 2.43664 32.67376 0.00798
