380
Graphene
C 0.01074 0.03612 0.01295
C 16.03593 27.67985 -0.01454
C 15.93864 26.32899 0.01945
C 14.73942 25.59004 0.01416
C 14.798 24.14322 0.03542
C 16.00202 23.45087 0.02299
C 16.05006 22.063 0.00244
C 15.92816 19.09872 -0.01717
C 15.96193 17.73785 0.05265
C 14.67197 16.87457 -0.01952
C 14.76542 15.53067 -0.02813
C 16.02884 14.92735 0.00374
C 16.02077 13.45391 0.00052
C 14.84117 12.76407 -0.03682
C 14.78506 11.37143 0.01965
C 15.96514 10.71151 0.02058
C 15.97704 9.19474 -0.01957
C 14.7593 8.43722 -0.0108
C 14.7107 7.04183 -0.00368
C 16.05347 6.31017 -0.02696
C 14.70824 28.37074 0.01241
C 14.73111 29.85741 0.0076
C 15.99342 30.48779 0.02162
C 15.95035 31.99848 -0.0014
C 13.43567 32.02165 -0.01275
C 13.55106 30.60355 0.00985
C 12.33697 29.84975 -0.02245
C 12.31708 28.42668 -0.00428
C 13.51802 27.7031 0.03101
C 13.47887 26.27355 -0.01536
C 12.29544 25.55651 -0.02689
C 13.62474 17.81447 -0.01046
C 13.58289 10.72141 -0.00891
C 15.96191 4.95544 -0.00114
C 13.52805 9.3344 0.02819
C 12.3162 7.03728 -0.02971
C 13.53822 6.38252 0.02894
C 13.5599 4.99737 -0.01789
C 12.38754 4.24703 0.00444
C 12.26392 2.7826 -0.00925
C 13.51321 2.14923 0.01877
C 13.54014 0.66652 0.01363
C 12.23419 34.06491 -0.02162
C 14.76237 32.65676 0.00415
C 12.3804 8.54799 0.00165
C 14.74917 4.29599 0.00228
C 14.74399 2.89243 0.00798
C 15.95389 2.22816 0.00422
C 18.41473 9.23995 -0.0331
C 17.1805 8.44458 -0.00316
C 17.22377 7.05303 0.02188
C 18.46762 6.4475 -0.01979
C 18.45103 4.94989 0.02691
C 17.18726 4.27805 -0.01581
C 17.19134 2.88063 0.01452
C 18.45448 2.11513 0.04892
C 18.5096 0.7697 -0.00111
C 18.44446 10.60406 -0.0258
C 17.25406 0.01422 -0.03557
C 20.9082 31.92819 0.01739
C 20.94524 30.46924 0.00755
C 19.62345 29.8143 -0.0054
C 19.64489 28.36824 0.00667
C 20.93242 27.61761 0.00143
C 20.955 26.24833 -0.017
C 19.69334 25.59411 0.00364
C 19.60533 24.15899 -0.00831
C 19.6083 19.90481 -0.02957
C 19.62148 32.70962 0.03754
C 12.25697 32.70625 -0.01111
C 17.19349 11.35921 0.03338
C 18.48804 13.41843 -0.00109
C 15.99813 0.71447 0.0351
C 14.78081 0.01709 -0.03113
C 17.22528 32.6915 0.02098
C 18.49689 31.9758 0.01848
C 18.44965 30.53985 -0.00619
C 17.22427 29.78047 -0.02162
C 17.18123 28.37576 0.00889
C 18.42448 27.69257 -0.00481
C 18.47319 26.32151 0.00979
C 17.19146 12.74969 -0.00491
C 17.17079 25.57439 0.01443
C 18.4309 23.44068 -0.02815
C 18.41723 21.99471 -0.04147
C 17.15903 21.30277 -0.05302
C 17.17279 19.88952 0.00213
C 18.50659 19.16459 -0.00066
C 18.42402 17.72326 -0.00289
C 17.22216 16.96271 0.00028
C 17.19724 15.58945 -0.02213
C 18.45265 14.85374 0.03698
C 17.18327 24.163 0.03505
C 20.98102 17.69996 -0.04422
C 9.89657 0.02321 0.02841
C 11.01 2.19118 0.00406
C 2.48631 2.77778 -0.05697
C 3.67333 2.12892 0.01087
C 3.67659 0.73243 -0.01343
C 2.46841 0.05856 0.00988
C 4.91375 32.60583 0.0276
C 6.09573 31.97973 0.01305
C 6.10064 30.57367 -0.00077
C 4.87891 29.82938 0.03368
C 4.91149 28.41422 -0.02929
C 6.15012 27.74775 -0.00966
C 6.16387 26.24008 -0.03337
C 4.94672 25.59704 0.01227
C 4.94064 24.16566 0.00873
C 6.15827 23.46006 -0.00049
C 6.07585 22.10645 0.00848
C 4.93891 21.31536 -0.01303
C 4.91834 19.89582 -0.01378
C 6.10034 9.19061 0.02635
C 4.87022 8.56748 0.0127
C 2.5138 4.19141 -0.00725
C 3.74738 4.97625 0.02322
C 3.66426 6.34865 -0.00094
C 2.51868 7.06201 -0.02566
C 3.68334 30.53523 0.00907
C 2.38673 29.81997 0.00643
C 2.42048 28.47653 -0.01509
C 3.69359 27.70982 0.03267
C 3.73128 26.259 0.02374
C 2.47041 25.58269 0.00402
C 2.52294 24.14081 0.0073
C 3.68176 23.38473 0.0174
C 3.74294 21.9912 0.03828
C 4.82613 7.04904 0.01396
C 2.42748 21.39904 0.01226
C 3.67211 19.21578 0.01996
C 3.64861 17.80182 -0.03996
C 2.53802 17.0633 0.01465
C 2.44805 15.52338 -0.00074
C 2.49847 12.82728 -0.00518
C 2.54621 11.44706 0.0086
C 3.67758 10.66561 -0.00643
C 3.66601 9.25463 0.017
C 2.41671 8.4618 -0.03113
C 2.44008 19.904 -0.00279
C 6.16902 6.39138 0.01849
C 6.17204 4.93664 -0.01142
C 4.93913 4.28825 -0.00562
C 8.59824 2.20422 0.02147
C 8.58179 0.73942 0.00373
C 7.42107 0.00129 -0.00191
C 9.88473 32.67669 0.00438
C 11.10261 31.97243 0.01291
C 11.03008 30.42198 0.00093
C 9.82549 29.79804 0.00057
C 9.79243 28.40848 -0.01634
C 11.01307 27.65892 -0.00334
C 7.38178 2.84523 -0.014
C 11.06207 26.28978 0.02339
C 9.82191 24.20671 -0.00719
C 9.82737 19.84036 0.01364
C 11.08191 9.2848 -0.01062
C 9.83362 8.60453 -0.00033
C 9.86807 7.12767 0.03589
C 11.05271 6.38474 -0.02759
C 11.09206 4.96014 0.0402
C 9.86774 4.32834 0.00572
C 9.81575 2.87031 0.03592
C 9.79251 25.61686 0.01641
C 11.10585 0.7157 0.00943
C 7.40229 4.31718 -0.01118
C 8.58907 6.4581 -0.02896
C 4.94322 2.89603 -0.00494
C 6.10565 2.2069 0.00054
C 6.13145 0.76151 0.03007
C 4.93297 0.01389 -0.00095
C 7.3027 32.67777 0.01572
C 8.60976 31.99013 -0.04848
C 8.61576 30.52576 -0.00892
C 7.38248 29.83087 -0.01362
C 7.34997 28.45282 -0.0008
C 8.58526 5.0528 -0.00131
C 8.61049 27.72335 0.0288
C 7.31032 25.56196 0.00895
C 7.33398 24.18886 0.00685
C 8.64647 23.38488 0.02888
C 8.62303 21.94171 -0.00482
C 7.30606 21.34804 -0.01384
C 7.34375 19.92577 0.03693
C 8.65401 9.27483 0.01745
C 7.39473 8.52357 0.00488
C 7.36167 7.13356 -0.01004
C 8.54087 26.28237 0.00393
C 19.69555 17.06022 0.00654
C 19.64641 15.66193 -0.00703
C 20.81404 14.901 -0.04076
C 29.44868 2.82903 0.02108
C 30.70175 2.08292 0.00716
C 30.74718 0.73496 0.00307
C 29.43263 34.06243 0.00346
C 31.99516 32.70418 0.01713
C 33.20049 31.9202 -0.01694
C 33.18481 30.5282 0.01428
C 31.9653 29.84318 -0.02142
C 32.02125 28.39584 0.0544
C 33.24481 27.75515 0.00026
C 33.18229 26.27058 0.00682
C 31.95972 25.55882 -0.01779
C 31.95364 24.14011 0.03794
C 33.1406 23.49288 0.01927
C 33.24936 22.01956 0.01574
C 32.00104 21.25361 -0.02383
C 32.0201 19.85129 -0.01429
C 33.20516 19.19904 -0.0136
C 33.1872 17.78271 0.00594
C 29.52214 4.26836 0.0103
C 30.71933 4.97591 0.07705
C 30.73392 6.37646 0.01908
C 29.53226 7.14893 0.01518
C 29.5829 28.43849 0.00924
C 30.76603 27.60081 0.02326
C 30.76674 26.20386 0.00261
C 29.52488 25.5557 0.03265
C 29.48774 24.16226 -0.02049
C 30.74853 23.38625 -0.01854
C 30.71342 22.03117 -0.01415
C 29.56287 21.2345 -0.03039
C 29.46432 19.81832 0.01836
C 31.9429 17.05856 -0.02474
C 30.71711 19.11598 0.03531
C 29.45671 17.06987 0.0101
C 29.50463 15.62824 0.01705
C 30.7731 14.8489 -0.0405
C 30.78105 13.4813 -0.01303
C 29.52724 12.81332 -0.01461
C 29.57861 11.34218 -0.02155
C 30.73429 10.57779 -0.00944
C 30.7625 9.19094 -0.03735
C 29.55996 8.51447 -0.00971
C 30.68527 17.73256 -0.00669
C 32.00674 15.59614 0.00369
C 33.2141 14.90077 0.00455
C 33.18733 13.47462 -0.00644
C 0.03451 21.37358 -0.02213
C 34.42249 19.90415 0.01951
C 1.24542 19.22888 -0.01678
C 1.18074 17.78601 0.01223
C 34.42188 17.04142 0.00648
C 34.43153 15.60559 0.02114
C 1.28172 14.95551 -0.02957
C 1.29334 13.47274 0.00343
C 34.40858 12.73358 -0.02656
C 1.228 22.08258 0.02712
C 34.41644 11.35079 -0.02442
C 1.25958 9.28321 -0.00583
C 34.37772 8.44584 -0.02302
C 34.38051 7.0661 -0.02849
C 1.21918 6.36681 0.02931
C 1.3039 4.93787 0.00628
C 34.36389 4.21521 -0.0345
C 34.36611 2.82367 -0.00931
C 1.21268 2.08808 -0.00939
C 1.1995 0.72456 -0.00468
C 1.21455 10.60548 -0.00027
C 29.52553 29.88931 0.0014
C 1.23327 23.50367 0.00723
C 34.42129 25.56806 -0.05239
C 31.97889 12.74706 -0.01839
C 31.90954 11.32027 0.00137
C 33.11897 10.67047 0.00199
C 33.20145 9.24259 0.04381
C 32.00886 8.4854 0.02806
C 31.97225 7.08821 0.01504
C 33.14987 6.43436 -0.00069
C 33.20641 5.00884 0.04926
C 31.95951 4.34196 -0.03838
C 34.39613 24.18237 0.03076
C 31.92474 2.84045 0.00349
C 33.20625 0.74546 -0.00841
C 31.99054 0.00455 0.0001
C 0.01243 32.66947 -0.02927
C 1.20246 31.92 -0.01404
C 1.1936 30.52854 0.01027
C 34.41681 29.85641 0.01831
C 34.42601 28.47573 -0.01037
C 1.23343 27.64497 -0.00439
C 1.24491 26.22359 -0.00598
C 33.12441 2.12205 -0.00323
C 30.75744 30.55422 0.01324
C 30.77599 31.95462 0.04266
C 29.44036 32.58979 0.01177
C 23.3219 13.48465 0.0296
C 22.16686 12.76413 0.03374
C 22.11765 11.30101 -0.02845
C 23.34151 10.67392 -0.03213
C 23.41619 9.17972 0.02239
C 22.16422 8.51042 0.01153
C 22.17762 7.10821 0.02734
C 23.3329 6.36189 -0.0055
C 23.38636 4.89815 0.01515
C 23.36068 14.88067 0.03046
C 22.10346 4.24886 -0.00225
C 23.35301 2.14124 -0.01107
C 23.4024 0.69798 -0.01586
C 22.12159 0.02403 -0.01971
C 24.49894 32.67358 -0.02118
C 25.7325 31.91982 0.00733
C 25.81394 30.45942 -0.00178
C 24.55685 29.81587 0.00768
C 24.63826 28.39485 -0.0276
C 25.84984 27.67396 0.03005
C 22.02374 2.85237 0.00071
C 25.75358 26.16641 -0.04078
C 22.15448 15.59752 -0.00381
C 23.40232 26.25954 0.01126
C 20.9563 13.43819 -0.00652
C 19.74029 12.71541 0.0058
C 19.7207 11.33173 -0.00865
C 20.8927 10.63129 0.00675
C 20.93418 9.14997 -0.00311
C 19.63477 8.47285 0.00742
C 19.6815 7.1152 -0.01594
C 20.95911 6.32179 0.0106
C 20.97367 4.9208 -0.01154
C 22.03278 16.99493 0.01852
C 19.66854 4.23719 -0.01721
C 20.89765 2.12003 0.01277
C 20.91838 0.689 0.00096
C 19.71476 0.016 -0.01527
C 22.10305 32.64915 0.01087
C 23.3473 31.95031 0.00199
C 23.40303 30.53342 0.01511
C 22.19275 29.82785 -0.00478
C 22.1667 28.44764 -0.01662
C 23.37591 27.69222 -0.01185
C 19.70794 2.75428 -0.02422
C 3.65107 31.97502 0.02379
C 25.79034 17.74271 0.02117
C 24.55672 15.70765 -0.00498
C 28.26493 22.04913 -0.02815
C 28.29115 19.18286 -0.00942
C 28.22223 17.80052 0.00487
C 27.02723 17.05012 0.00826
C 27.07293 15.64667 -0.00294
C 28.27064 14.98108 0.00152
C 28.27148 13.45944 0.01257
C 27.07734 12.82992 0.02316
C 27.0892 11.36116 0.04185
C 28.34939 23.31815 0.00622
C 28.23289 10.61662 0.00194
C 27.07855 8.54475 0.02611
C 27.06828 7.08305 0.02198
C 28.4292 6.42811 0.01094
C 28.25901 5.00557 0.00235
C 27.05821 4.26056 0.01495
C 27.03571 2.81 0.01259
C 28.18512 2.14016 0.01799
C 28.19654 0.7193 0.01699
C 27.01215 34.06282 -0.00416
C 28.26536 9.22475 -0.00621
C 24.71125 17.05238 0.02737
C 26.89407 25.5339 -0.0032
C 28.28496 27.69959 -0.01654
C 25.7868 14.94176 0.00135
C 25.77042 13.46155 0.03102
C 24.55268 12.79815 0.02555
C 24.58458 11.3598 0.01423
C 25.82127 10.63426 -0.00285
C 25.82007 9.22566 -0.009
C 24.61618 8.44178 -0.01199
C 24.61114 7.06721 -0.00229
C 25.81788 6.38833 -0.00938
C 28.26903 26.24743 -0.00037
C 25.92002 5.05408 -0.0264
C 24.59562 2.83176 0.00684
C 25.77668 2.05357 -0.01052
C 25.79996 0.66211 -0.01679
C 24.59881 0.02274 0.00367
C 26.97863 32.67186 0.04306
C 28.25445 31.92628 0.00996
C 28.34112 30.57051 0.00195
C 27.10003 29.84577 -0.00802
C 27.05016 28.42124 -0.00218
C 24.58653 4.21493 -0.01154
C 2.43594 32.71998 0.01402
