362
Graphene
C 34.37869 0.025 0.01295
C 15.92639 2.06449 0.01965
C 15.91779 0.76103 0.02058
C 14.7385 0.00541 -0.01957
C 17.17143 32.67457 -0.0108
C 18.39748 32.00013 -0.00368
C 18.62636 30.59873 -0.02696
C 18.05538 19.02461 -0.00114
C 18.39383 17.63286 0.00228
C 14.68703 2.82702 -0.03682
C 17.12434 17.00407 0.00798
C 18.28798 14.97409 0.0351
C 18.43576 13.52364 -0.03113
C 17.19075 12.68964 0.02098
C 17.27841 11.33983 0.01848
C 18.49779 10.56329 -0.00619
C 18.36631 9.14802 -0.02162
C 17.09859 8.50736 0.00889
C 17.13556 7.12445 -0.00481
C 17.08392 15.62006 0.00422
C 14.70543 4.34967 0.00052
C 15.95733 5.02299 0.00374
C 15.9806 6.44604 -0.02813
C 13.43117 5.0129 0.00444
C 12.26093 4.24219 -0.00925
C 12.22606 2.86355 0.01877
C 13.44556 2.08413 0.01363
C 13.48798 0.68471 -0.02162
C 12.30135 34.0132 0.00415
C 14.77737 32.68548 -0.0014
C 15.97218 31.87143 0.02162
C 15.96181 30.58583 0.0076
C 16.78889 19.18703 0.01241
C 16.12363 17.97835 -0.01454
C 14.76382 16.97264 0.01945
C 14.77762 15.60312 0.01416
C 15.89647 14.7043 0.03542
C 15.95913 13.30702 0.02299
C 16.04567 10.67157 0.00244
C 15.83791 9.26801 -0.01717
C 14.64821 8.50953 0.05265
C 14.72913 7.12724 -0.01952
C 18.37833 6.39355 0.00979
C 13.47006 6.37539 -0.01789
C 18.37634 4.85254 0.01443
C 17.18078 2.73462 -0.02815
C 19.56812 8.42067 0.01739
C 19.73345 6.97667 0.00755
C 20.98064 6.34328 -0.0054
C 20.88657 4.89505 0.00667
C 19.64164 4.22579 0.00143
C 19.68917 2.81861 -0.017
C 20.95544 2.09199 0.00364
C 21.00943 0.66545 -0.00831
C 20.79522 9.15094 0.03754
C 19.79545 34.04996 -0.02957
C 23.40712 31.91877 0.00654
C 23.46887 30.5787 -0.00703
C 22.17656 29.886 -0.04076
C 22.09111 28.41593 -0.00652
C 23.34486 27.73621 0.0058
C 23.26906 26.3053 -0.00865
C 22.0484 25.57156 0.00675
C 22.04373 24.08613 -0.00311
C 22.17478 32.61038 -0.04422
C 20.91328 10.57855 -0.03557
C 19.67729 11.30251 -0.00111
C 19.7083 12.73636 0.04892
C 18.45111 2.12711 -0.04147
C 18.51236 0.66169 -0.05302
C 17.17388 0.01558 0.00213
C 19.68401 32.67977 -0.00066
C 20.88441 31.95515 -0.00289
C 20.9393 30.62663 0.00028
C 19.66662 29.9115 -0.02213
C 20.95946 27.6856 0.03698
C 20.83015 26.41283 -0.00109
C 20.82639 23.36044 -0.00491
C 20.58941 21.94441 0.03338
C 19.50253 21.08666 -0.0258
C 19.27235 19.81488 -0.0331
C 20.58918 19.13863 -0.00316
C 20.77473 17.75468 0.02188
C 19.56818 17.02368 -0.01979
C 19.56789 15.58037 0.02691
C 20.85346 14.86454 -0.01581
C 20.88638 13.46222 0.01452
C 17.20879 4.16879 0.03505
C 12.20887 7.04414 0.02894
C 13.62035 17.98026 -0.02971
C 12.5779 18.75242 0.00165
C 3.66914 6.51942 0.02635
C 3.68531 5.08648 0.0127
C 2.51064 4.37028 0.01396
C 2.46856 2.96788 0.01849
C 3.63373 2.28434 -0.01142
C 3.65156 0.82501 -0.00562
C 2.45844 0.07088 -0.00494
C 4.80294 32.71987 0.00054
C 2.49812 7.19648 -0.01378
C 6.08804 32.04429 0.03007
C 4.92247 29.75864 0.01572
C 4.93287 28.37325 -0.04848
C 4.98323 25.61543 -0.00892
C 5.28886 24.23096 -0.01362
C 6.31945 23.38586 -0.0008
C 6.19127 21.85877 0.0288
C 5.01946 21.17004 0.00393
C 4.99695 19.79777 0.00895
C 6.03648 30.63967 -0.00095
C 2.49198 8.62152 -0.01303
C 3.75923 9.36652 0.00848
C 3.59712 10.78783 -0.00049
C 3.71512 30.53475 0.017
C 2.44613 29.90013 -0.03113
C 2.3914 28.47818 -0.02566
C 3.64591 27.68702 -0.00094
C 3.68666 26.29241 0.02322
C 2.44587 25.59104 -0.00725
C 2.59168 24.13759 -0.05697
C 3.86268 23.42442 0.01087
C 3.7706 22.04594 -0.01343
C 2.54267 21.3019 0.00988
C 2.49437 19.83684 0.0276
C 3.70811 19.17834 0.01305
C 3.71736 17.74897 -0.00077
C 2.44698 16.99199 0.03368
C 2.46898 15.58938 -0.02929
C 3.61806 14.88898 -0.00966
C 3.54619 13.49891 -0.03337
C 2.40431 12.80375 0.01227
C 2.35598 11.30713 0.00873
C 6.30418 19.18203 0.00685
C 6.16083 17.75318 0.02888
C 4.93929 17.09397 -0.00482
C 4.93524 8.61802 -0.01384
C 8.62165 0.77124 0.03589
C 7.40132 0.06586 -0.02759
C 9.84696 32.77271 0.0402
C 11.04624 31.91676 0.00572
C 11.11274 30.36328 0.03592
C 9.55727 21.53068 0.00406
C 9.9068 20.25052 0.00943
C 11.01127 6.43524 0.02841
C 11.10328 5.00953 -0.01111
C 9.87709 4.26375 -0.01275
C 9.76499 2.93467 0.00985
C 10.96616 2.24342 -0.02245
C 11.07469 0.72414 -0.00428
C 9.84039 0.08572 0.03101
C 12.31038 32.59476 -0.01536
C 13.59976 31.87329 -0.02689
C 13.7535 30.4764 -0.01046
C 12.32565 30.21232 -0.00891
C 12.22851 20.03493 0.02819
C 8.58855 2.21215 -0.00033
C 23.23906 23.38055 0.00742
C 7.3664 2.90533 -0.01062
C 8.61063 5.0197 -0.00719
C 4.90279 7.24594 0.03693
C 6.15876 6.46467 0.01745
C 6.13686 5.06047 0.00488
C 4.92804 4.42569 -0.01004
C 4.90939 3.001 -0.02896
C 6.20551 2.19971 -0.00131
C 6.17205 0.78079 -0.01118
C 4.87448 0.0662 -0.014
C 7.37923 32.71287 0.02147
C 8.61071 32.05008 0.00373
C 8.45607 30.56783 -0.00191
C 7.29935 29.92734 0.00438
C 7.74547 23.55262 0.01291
C 8.37504 22.33893 0.00093
C 7.4015 21.26772 0.00057
C 7.57192 19.89651 -0.01634
C 8.92945 19.3466 -0.00334
C 7.43239 7.08021 0.02339
C 8.49728 6.41136 0.01641
C 7.3311 4.37479 0.01364
C 23.17214 22.01121 -0.01594
C 21.95633 21.27261 0.0106
C 21.898 19.84229 -0.01154
C 29.50708 0.02134 0.00346
C 31.99293 32.72135 0.01713
C 33.14032 31.95854 -0.01694
C 33.17982 30.58006 0.01428
C 31.93027 29.89634 -0.02142
C 31.86907 28.48784 0.0544
C 33.10578 27.71671 0.00026
C 33.13499 26.28962 0.00682
C 30.76157 0.71865 0.00307
C 31.84819 25.64474 -0.01779
C 33.08987 23.44619 0.01927
C 33.12266 22.03679 0.01574
C 31.88458 21.31441 -0.02383
C 31.95674 19.9175 -0.01429
C 33.24502 19.20609 -0.0136
C 33.21389 17.76252 0.00594
C 31.9864 16.98096 -0.02474
C 31.91726 15.62474 0.00369
C 31.86177 24.17424 0.03794
C 30.77104 2.16446 0.00716
C 29.54916 2.86643 0.02108
C 29.51204 4.29473 0.0103
C 29.42282 24.20033 -0.02049
C 30.68327 23.46571 -0.01854
C 30.72674 21.98271 -0.01415
C 29.44111 21.35321 -0.03039
C 29.44681 19.92886 0.01836
C 30.7311 19.19854 0.03531
C 30.71246 17.72714 -0.00669
C 29.47386 17.02787 0.0101
C 29.48899 15.63788 0.01705
C 30.67696 14.88026 -0.0405
C 30.70913 13.48452 -0.01303
C 29.41077 12.74932 -0.01461
C 29.44485 11.33023 -0.02155
C 30.68934 10.64371 -0.00944
C 30.75901 9.11911 -0.03735
C 29.52342 8.49687 -0.00971
C 29.46396 7.04152 0.01518
C 30.75602 6.35922 0.01908
C 30.76358 4.95487 0.07705
C 33.13296 14.932 0.00455
C 33.15001 13.54672 -0.00644
C 32.02072 12.75373 -0.01839
C 31.90805 11.35753 0.00137
C 0.0411 19.90836 0.01951
C 1.23718 19.21938 -0.01678
C 1.18629 17.82002 0.01223
C 34.41116 17.09773 0.00648
C 34.38908 15.65394 0.02114
C 1.18258 14.91595 -0.02957
C 1.19413 13.54683 0.00343
C 34.4132 12.88055 -0.02656
C 34.35418 11.39187 -0.02442
C 1.12539 10.5735 -0.00027
C 1.25778 9.23579 -0.00583
C 0.0211 8.53967 -0.02302
C 34.34404 7.11775 -0.02849
C 1.21424 6.4866 0.02931
C 1.28853 5.01009 0.00628
C 0.00431 4.35687 -0.0345
C 34.37233 2.86936 -0.00931
C 1.19333 2.20648 -0.00939
C 1.15811 0.74815 -0.00468
C 0.00776 21.36113 -0.02213
C 29.45248 25.56793 0.03265
C 1.29449 21.99339 0.02712
C 34.40036 24.12086 0.03076
C 33.12694 10.65746 0.00199
C 33.2172 9.24122 0.04381
C 31.98742 8.52171 0.02806
C 31.98734 7.06646 0.01504
C 33.15712 6.34715 -0.00069
C 33.23996 5.01915 0.04926
C 32.04115 4.3331 -0.03838
C 31.98974 2.85502 0.00349
C 33.16082 2.18001 -0.00323
C 33.24374 0.78569 -0.00841
C 32.01032 0.03919 0.0001
C 34.37844 32.70963 -0.02927
C 1.22817 32.00547 -0.01404
C 1.22144 30.64898 0.01027
C 34.40076 29.93521 0.01831
C 34.27519 28.51591 -0.01037
C 1.09833 27.83532 -0.00439
C 1.17185 26.33726 -0.00598
C 34.38481 25.5815 -0.05239
C 1.30842 23.46843 0.00723
C 3.6647 31.99584 -0.00643
C 30.67454 26.31067 0.00261
C 29.47477 28.48989 0.00924
C 24.57354 28.36484 0.01515
C 25.76128 27.72769 -0.00225
C 25.68974 26.25409 0.00071
C 24.44164 25.50118 -0.01107
C 24.48837 24.06593 -0.01586
C 25.77625 23.3921 -0.01971
C 25.71157 21.98245 -0.02118
C 24.47129 21.19813 0.00733
C 24.56376 29.73403 -0.0055
C 24.49989 19.82371 -0.00178
C 25.79932 17.67739 -0.0276
C 24.54172 16.96093 0.03005
C 24.56604 15.57264 -0.04078
C 25.74384 14.76175 0.02117
C 25.83549 13.36699 0.02737
C 24.58989 12.7059 -0.00498
C 24.51226 11.28467 0.00135
C 25.78472 10.59009 0.03102
C 25.78347 19.09294 0.00768
C 25.8389 30.49291 0.02734
C 25.77305 31.914 0.01153
C 24.58344 32.70007 0.02239
C 23.18211 19.21234 -0.01721
C 23.29815 17.7812 -0.02422
C 22.05936 16.99406 0.01277
C 22.15122 15.58961 0.00096
C 23.34786 14.85649 -0.01527
C 23.37153 13.50209 0.01087
C 22.18762 12.77673 0.00199
C 22.15891 11.3056 0.01511
C 23.29 10.57909 -0.00478
C 23.27412 9.17258 -0.01662
C 22.0704 8.44408 -0.01185
C 22.20505 7.05024 0.01126
C 23.42386 6.362 0.01852
C 23.34497 4.96447 -0.00381
C 22.07594 4.28082 0.03046
C 22.17419 2.83875 0.0296
C 23.40007 2.14601 0.03374
C 23.36731 0.71222 -0.02845
C 22.20064 34.02997 -0.03213
C 25.78331 9.20516 0.02555
C 24.52362 8.51065 0.01423
C 24.57847 7.09941 -0.00285
C 25.82684 6.34094 -0.009
C 28.24869 14.92238 0.00152
C 28.14027 13.47193 0.01257
C 26.99697 12.74863 0.02316
C 27.00363 11.2953 0.04185
C 28.26963 10.6189 0.00194
C 28.3005 9.19892 -0.00621
C 27.00316 8.4871 0.02611
C 27.02082 7.02759 0.02198
C 28.21065 6.35365 0.01094
C 28.25552 4.94488 0.00235
C 27.02729 4.30847 0.01495
C 27.04211 2.83835 0.01259
C 28.31242 2.1567 0.01799
C 28.31083 0.70017 0.01699
C 27.12214 0.01435 -0.00416
C 29.52476 32.71295 0.01177
C 30.66398 32.00458 0.04266
C 30.71085 30.5784 0.01324
C 29.4658 29.91608 0.0014
C 26.98547 15.55629 -0.00294
C 30.69426 27.77387 0.02326
C 26.98693 17.01841 0.00826
C 28.2246 19.13558 -0.00942
C 25.73265 4.92759 -0.01199
C 24.58648 4.22424 -0.00229
C 24.50836 2.84232 -0.00938
C 25.81015 2.16449 -0.0264
C 25.81299 0.71402 -0.01154
C 24.6458 0.08007 0.00684
C 27.05966 32.712 -0.01052
C 28.30786 31.99299 -0.01679
C 28.21461 30.59259 0.00367
C 27.03865 29.80402 0.04306
C 26.99175 28.40005 0.00996
C 28.21538 27.67989 0.00195
C 28.19898 26.24568 -0.00802
C 26.94283 25.54631 -0.00218
C 26.9438 24.13107 -0.01654
C 28.16115 23.50673 -0.00037
C 28.18281 22.05242 -0.0032
C 26.97168 21.33378 0.00622
C 26.97947 19.81387 -0.02815
C 28.22989 17.73607 0.00487
C 2.42574 32.72987 0.0086
