388
Graphene
C 34.3581 0.00571 0.01295
C 9.82851 4.33617 -0.02162
C 9.8794 2.90057 0.00415
C 11.17176 2.15285 -0.0014
C 11.12408 0.75206 0.02162
C 9.83548 0.02743 0.0076
C 12.3157 32.61903 0.01241
C 13.4949 31.83208 -0.01454
C 12.32788 29.72983 0.01945
C 12.03845 21.14312 0.01416
C 11.04732 5.12394 0.01363
C 12.41431 19.88137 0.03542
C 13.53885 17.6857 0.00244
C 12.3289 17.0503 -0.01717
C 12.29611 15.58906 0.05265
C 13.5094 14.84588 -0.01952
C 13.46705 13.4728 -0.02813
C 12.29237 12.72628 0.00374
C 12.28112 11.29987 0.00052
C 13.52975 10.56344 -0.03682
C 13.5656 9.15048 0.01965
C 13.65968 19.1039 0.02299
C 12.26774 8.50127 0.02058
C 10.99775 6.48615 0.01877
C 9.77791 8.57769 0.00444
C 9.8492 29.83475 0.00572
C 9.86287 28.48773 0.03592
C 11.05993 27.7868 0.00406
C 10.91641 26.39593 0.00943
C 9.81707 25.67859 0.02841
C 9.84612 24.23258 -0.01111
C 11.09415 23.62012 -0.01275
C 11.18518 22.19244 0.00985
C 9.91278 21.26183 -0.02245
C 9.78466 7.17614 -0.00925
C 9.8738 19.84922 -0.00428
C 11.15062 17.72046 -0.01536
C 9.89479 16.97743 -0.02689
C 9.85956 15.62341 -0.01046
C 11.08526 14.86043 -0.00891
C 11.05839 13.38627 0.02819
C 9.79807 12.74569 0.00165
C 9.83864 11.36184 -0.02971
C 11.05202 10.63483 0.02894
C 10.99943 9.28285 -0.01789
C 11.18253 19.14623 0.03101
C 12.22721 7.12666 -0.01957
C 13.51106 6.39305 -0.0108
C 13.54687 4.96739 -0.00368
C 18.39082 17.53634 -0.00109
C 17.10517 17.10595 -0.00491
C 17.08911 15.58666 0.03338
C 18.37695 14.92366 -0.0258
C 18.41818 13.43709 -0.0331
C 17.1626 12.79163 -0.00316
C 17.24059 11.36017 0.02188
C 18.47945 10.6108 -0.01979
C 18.42616 9.24526 0.02691
C 17.36475 32.615 0.03698
C 17.17905 8.49683 -0.01581
C 18.39401 6.3206 0.04892
C 18.46183 4.92997 -0.00111
C 17.17639 4.16483 -0.03557
C 17.24109 2.78802 0.03754
C 18.50087 2.10242 0.01739
C 18.48432 0.68195 0.00755
C 17.26605 34.01991 -0.0054
C 19.58411 32.7268 0.00667
C 20.8791 17.89928 0.00143
C 17.18214 7.03529 0.01452
C 14.73528 33.95423 -0.02213
C 15.94245 0.60168 0.00028
C 15.95533 2.05002 -0.00289
C 12.26307 4.32597 -0.02696
C 12.33343 2.90012 -0.00114
C 13.54244 2.14944 0.00228
C 13.5699 0.66371 0.00798
C 12.32096 0.01953 0.00422
C 14.5514 32.6643 0.0351
C 15.8791 17.83089 -0.03113
C 14.72843 17.05657 0.02098
C 14.75724 15.62099 0.01848
C 15.95487 14.88276 -0.00619
C 15.92107 13.44832 -0.02162
C 14.70594 12.70791 0.00889
C 14.75745 11.26414 -0.00481
C 16.01966 10.60612 0.00979
C 16.00575 9.23599 0.01443
C 14.79927 8.48047 0.03505
C 14.77784 7.07863 -0.02815
C 15.9939 6.33084 -0.04147
C 15.9558 4.93001 -0.05302
C 14.72971 4.24305 0.00213
C 14.76094 2.8317 -0.00066
C 11.11118 30.55393 0.0402
C 19.67994 17.18542 -0.017
C 11.08671 31.9966 -0.02759
C 7.39145 0.068 -0.00033
C 3.63551 5.02926 0.0086
C 2.40058 4.26413 -0.00643
C 2.3942 2.874 0.017
C 3.66415 2.15125 -0.03113
C 3.62854 0.74152 -0.02566
C 2.34871 0.03817 -0.00094
C 4.86527 32.75695 0.02322
C 6.18957 32.01269 -0.00725
C 6.15632 30.65496 -0.05697
C 3.61927 6.48484 -0.00518
C 4.92539 29.90491 0.01087
C 6.11805 27.74933 0.00988
C 6.09253 26.32114 0.0276
C 4.87262 25.594 0.01305
C 4.8249 24.18414 -0.00077
C 6.13399 23.51369 0.03368
C 6.19368 22.01098 -0.02929
C 4.89639 21.38005 -0.00966
C 4.95271 19.95222 -0.03337
C 6.20771 19.16708 0.01227
C 4.90118 28.43903 -0.01343
C 6.15216 17.76947 0.00873
C 2.39359 7.17099 -0.00074
C 3.57174 9.22352 -0.03996
C 3.72066 30.58048 0.04505
C 2.48378 29.84359 0.03284
C 2.50641 28.41167 -0.04307
C 3.66475 27.69988 0.03189
C 3.66156 26.29744 0.00031
C 2.4229 25.58921 -0.003
C 2.40794 24.12594 0.01402
C 3.65489 23.42126 0.02379
C 3.69207 22.03539 0.00907
C 2.34628 8.52634 0.01465
C 2.47305 21.2952 0.00643
C 3.76291 19.22853 0.03267
C 3.6683 17.80696 0.02374
C 2.49201 17.04592 0.00402
C 2.44005 15.59919 0.0073
C 3.66015 14.95749 0.0174
C 3.58299 13.51443 0.03828
C 2.37965 12.73098 0.01226
C 2.36665 11.3361 -0.00279
C 3.68384 10.64092 0.01996
C 2.49742 19.95485 -0.01509
C 4.86947 17.01035 -0.00049
C 4.89521 15.59836 0.00848
C 6.10868 14.90228 -0.01303
C 7.39514 21.33633 0.00488
C 7.44734 19.83061 -0.01004
C 8.68129 19.108 -0.02896
C 8.67054 17.66198 -0.00131
C 7.38346 16.9707 -0.01118
C 7.38102 15.57759 -0.014
C 8.62804 14.90584 0.02147
C 8.60395 13.49694 0.00373
C 7.3415 12.86058 -0.00191
C 8.64547 22.12096 0.01745
C 7.34188 11.43856 0.00438
C 8.55428 9.30413 0.00093
C 7.30769 8.53117 0.00057
C 7.33797 7.15623 -0.01634
C 8.6091 6.45742 -0.00334
C 8.54147 5.03292 0.02339
C 7.33849 4.35935 0.01641
C 7.38761 2.91865 -0.00719
C 8.60553 2.21654 0.01364
C 8.59894 0.81751 -0.01062
C 8.51401 10.73669 0.01291
C 8.57676 23.54109 0.03693
C 7.32357 24.15809 -0.01384
C 7.38102 25.63501 -0.00482
C 6.04432 13.519 -0.01378
C 4.87018 12.76042 0.02635
C 4.89257 11.39263 0.0127
C 6.10079 10.68678 0.01396
C 6.08075 9.3296 0.01849
C 4.87115 8.59646 -0.01142
C 4.82679 7.17575 -0.00562
C 6.06193 6.47924 -0.00494
C 6.12536 5.08761 0.00054
C 4.86351 4.34211 0.03007
C 4.86759 2.91316 -0.00095
C 6.07755 2.22753 0.01572
C 6.13492 0.78065 -0.04848
C 4.92818 0.07021 -0.00892
C 7.38981 32.73123 -0.01362
C 8.63765 32.05266 -0.0008
C 8.64406 30.5479 0.0288
C 7.39581 29.9007 0.00393
C 7.42817 28.43666 0.00895
C 8.69111 27.78643 0.00685
C 8.63388 26.35573 0.02888
C 9.88091 32.75348 0.03589
C 19.60503 15.68234 0.00364
C 20.86268 14.89812 -0.00831
C 20.87 13.47836 -0.02957
C 30.70533 5.01114 0.07705
C 29.45975 4.25717 0.0103
C 29.49591 2.87085 0.02108
C 30.7002 2.11595 0.00716
C 30.74115 0.70303 0.00307
C 29.52323 34.03756 0.00346
C 31.90303 32.61315 0.01713
C 33.1966 31.89511 -0.01694
C 33.21279 30.43419 0.01428
C 30.68624 6.42431 0.01908
C 31.94909 29.69347 -0.02142
C 33.18904 27.61088 0.00026
C 33.18947 26.17217 0.00682
C 31.97854 25.46035 -0.01779
C 31.89546 24.1359 0.03794
C 33.10146 23.43906 0.01927
C 33.19064 22.04114 0.01574
C 32.01326 21.28769 -0.02383
C 32.02828 19.84451 -0.01429
C 33.27854 19.19185 -0.0136
C 31.94433 28.30076 0.0544
C 33.24049 17.79612 0.00594
C 29.42562 7.14482 0.01518
C 30.64605 9.37109 -0.03735
C 30.72816 30.44283 0.01324
C 29.51181 29.72154 0.0014
C 29.36793 28.30433 0.00924
C 30.67159 27.63514 0.02326
C 30.74794 26.23228 0.00261
C 29.4691 25.56189 0.03265
C 29.53104 24.09241 -0.02049
C 30.72643 23.40892 -0.01854
C 30.67856 22.01347 -0.01415
C 29.37244 8.59164 -0.00971
C 29.53599 21.25906 -0.03039
C 30.7541 19.1856 0.03531
C 30.80226 17.7841 -0.00669
C 29.54998 17.04785 0.0101
C 29.5454 15.61943 0.01705
C 30.7791 14.95191 -0.0405
C 30.67745 13.52208 -0.01303
C 29.4074 12.81517 -0.01461
C 29.43169 11.39791 -0.02155
C 30.67644 10.71731 -0.00944
C 29.57348 19.84128 0.01836
C 32.02024 17.08188 -0.02474
C 32.00202 15.60117 0.00369
C 33.2103 14.98242 0.00455
C 0.0017 21.32662 -0.02213
C 0.05128 19.91131 0.01951
C 1.33289 19.24762 -0.01678
C 1.29255 17.82729 0.01223
C 0.10348 17.08492 0.00648
C 34.42961 15.64797 0.02114
C 1.21149 14.89118 -0.02957
C 1.18933 13.56313 0.00343
C 34.37504 12.80553 -0.02656
C 1.23935 22.00444 0.02712
C 34.42192 11.38147 -0.02442
C 1.12554 9.16764 -0.00583
C 34.30772 8.50878 -0.02302
C 34.32367 7.10154 -0.02849
C 1.1852 6.44548 0.02931
C 1.19627 5.01946 0.00628
C 34.40324 4.28735 -0.0345
C 34.39451 2.89295 -0.00931
C 1.17343 2.19096 -0.00939
C 1.16255 0.75891 -0.00468
C 1.2168 10.59547 -0.00027
C 1.21379 23.41343 0.00723
C 34.36842 24.07538 0.03076
C 0.00741 25.5268 -0.05239
C 33.19877 13.59073 -0.00644
C 31.92215 12.88803 -0.01839
C 31.94402 11.41357 0.00137
C 33.15817 10.68351 0.00199
C 33.11669 9.29419 0.04381
C 31.91855 8.60801 0.02806
C 31.87468 7.17336 0.01504
C 33.08913 6.41749 -0.00069
C 33.1192 4.99388 0.04926
C 31.90509 4.31343 -0.03838
C 31.947 2.94077 0.00349
C 33.16292 2.18441 -0.00323
C 33.17207 0.71906 -0.00841
C 31.9833 0.02947 0.0001
C 34.36959 32.69309 -0.02927
C 1.18925 31.97162 -0.01404
C 1.24006 30.49899 0.01027
C 34.41696 29.76148 0.01831
C 0.01217 28.38305 -0.01037
C 1.30731 27.66935 -0.00439
C 1.21347 26.27823 -0.00598
C 30.7248 31.87513 0.04266
C 29.46415 32.62216 0.01177
C 27.01482 0.04127 -0.00416
C 28.26848 0.70907 0.01699
C 23.3122 9.21377 0.01852
C 22.15242 8.48266 -0.00381
C 22.13163 7.07124 0.03046
C 23.35106 6.35309 0.0296
C 23.39441 4.9217 0.03374
C 22.15969 4.28362 -0.02845
C 22.18501 2.85701 -0.03213
C 23.37984 2.14015 0.02239
C 23.44725 0.68631 0.01153
C 23.42886 10.61523 0.01126
C 22.12815 0.00213 0.02734
C 25.79115 31.91047 0.01515
C 25.87087 30.48544 -0.00225
C 24.64672 29.84296 0.00071
C 25.71578 27.63683 -0.01107
C 25.77792 26.24946 -0.01586
C 25.86543 23.37932 -0.01971
C 25.83805 22.04961 -0.02118
C 24.88605 21.18606 0.00733
C 24.53399 19.87904 -0.00178
C 24.46634 32.58252 -0.0055
C 22.16285 11.34066 -0.01185
C 22.03899 12.79352 -0.01662
C 23.2855 13.51864 -0.00478
C 19.66693 12.73818 -0.04422
C 19.67954 11.35726 0.00654
C 20.91705 10.56277 -0.00703
C 20.91207 9.13711 -0.04076
C 19.70587 8.44868 -0.00652
C 19.65162 6.99747 0.0058
C 20.89089 6.32168 -0.00865
C 20.88112 4.92115 0.00675
C 19.65067 4.21062 -0.00311
C 19.72206 2.82021 0.00742
C 20.96356 2.15529 -0.01594
C 20.96235 0.74417 0.0106
C 19.73921 0.03491 -0.01154
C 22.02995 32.59147 -0.01721
C 23.19997 31.82681 -0.02422
C 23.49826 30.44166 0.01277
C 23.3456 19.09072 0.00096
C 23.3451 17.75719 -0.01527
C 22.07038 17.15896 0.01087
C 22.07069 15.67532 0.00199
C 23.35756 14.94203 0.01511
C 25.83798 19.12373 0.00768
C 3.65842 32.0026 -0.04999
C 25.84601 17.71854 -0.0276
C 24.62289 15.64577 -0.04078
C 28.30123 22.00412 -0.0032
C 27.03902 21.31835 0.00622
C 27.091 19.89789 -0.02815
C 28.36833 19.19738 -0.00942
C 28.36096 17.75948 0.00487
C 27.08203 17.03548 0.00826
C 27.06346 15.63201 -0.00294
C 28.28359 14.88905 0.00152
C 28.27541 13.52422 0.01257
C 28.29154 23.43334 -0.00037
C 26.99091 12.81537 0.02316
C 28.21365 10.65723 0.00194
C 28.19813 9.25723 -0.00621
C 27.00824 8.5105 0.02611
C 26.97203 7.10424 0.02198
C 28.247 6.39476 0.01094
C 28.28514 4.94878 0.00235
C 26.99488 4.24751 0.01495
C 27.0139 2.83068 0.01259
C 28.26341 2.13016 0.01799
C 27.01476 11.37336 0.04185
C 27.00359 24.09468 -0.01654
C 26.8495 25.50542 -0.00218
C 28.10714 26.23038 -0.00802
C 25.84279 14.97131 0.02117
C 25.78713 13.53104 0.02737
C 24.53229 12.79846 -0.00498
C 24.54093 11.33548 0.00135
C 25.77495 10.63972 0.03102
C 25.79046 9.23019 0.02555
C 24.53799 8.54459 0.01423
C 24.53507 7.0557 -0.00285
C 25.74361 6.41172 -0.009
C 25.82795 4.97022 -0.01199
C 24.58396 4.22939 -0.00229
C 24.61108 2.75295 -0.00938
C 25.78637 2.07148 -0.0264
C 25.81443 0.68138 -0.01154
C 24.547 33.97841 0.00684
C 26.9892 32.63206 -0.01052
C 28.28755 31.88995 -0.01679
C 28.23904 30.44842 0.00367
C 27.02356 29.68861 0.04306
C 26.89912 28.24812 0.00996
C 28.10583 27.60441 0.00195
C 24.53834 17.02008 0.03005
C 2.42438 32.63721 -0.03291
