442
Graphene
C 34.38556 34.0746 0.01295
C 12.24491 17.15854 0.00057
C 12.28523 15.63371 -0.01634
C 13.45384 14.93278 -0.00334
C 13.57034 13.55312 0.02339
C 12.32051 12.84443 0.01641
C 12.29127 11.45378 -0.00719
C 13.46039 10.57073 0.01364
C 13.38824 9.09393 -0.01062
C 12.20919 8.47121 -0.00033
C 12.3485 6.9956 0.03589
C 13.57424 6.32375 -0.02759
C 13.61274 4.941 0.0402
C 12.37678 4.24975 0.00572
C 12.25936 2.81802 0.03592
C 13.5483 2.05445 0.00406
C 13.53247 0.6826 0.00943
C 12.31361 34.00321 0.02841
C 14.86582 32.61166 -0.01111
C 15.95081 31.86699 -0.01275
C 15.92093 30.44232 0.00985
C 14.6722 29.86533 -0.02245
C 14.73823 24.0464 -0.00428
C 15.99974 23.43993 0.03101
C 13.53481 17.8462 0.00093
C 13.58776 19.25652 0.01291
C 12.27893 19.98588 0.00438
C 12.26729 21.35592 -0.00191
C 11.02904 14.96549 0.03007
C 11.11589 13.55986 -0.00095
C 9.90096 12.82638 0.01572
C 9.88313 11.42922 -0.04848
C 11.09301 10.73893 -0.00892
C 11.08143 9.29274 -0.01362
C 9.84829 8.52184 -0.0008
C 9.83486 7.1431 0.0288
C 11.08563 6.35041 0.00393
C 11.15704 4.9322 0.00895
C 9.87752 4.29216 0.00685
C 16.01634 22.03649 -0.01536
C 9.8875 2.85434 0.02888
C 11.02331 0.62866 -0.01384
C 9.73863 0.01884 0.03693
C 12.26447 32.56199 0.01745
C 13.51575 31.944 0.00488
C 13.51537 30.57301 -0.01004
C 12.24796 29.97229 -0.02896
C 12.16666 28.58732 -0.00131
C 12.24324 25.52611 -0.01118
C 12.29995 24.17326 -0.014
C 13.51005 23.47735 0.02147
C 13.52644 22.00923 0.00373
C 11.07087 2.0555 -0.00482
C 9.86287 15.66609 0.00054
C 14.76906 21.31258 -0.02689
C 16.00831 19.18676 -0.00891
C 18.44578 21.99592 0.01965
C 17.26303 21.33215 0.02058
C 17.29558 19.82903 -0.01957
C 18.5004 19.08532 -0.0108
C 18.38837 17.70014 -0.00368
C 17.17704 17.02399 -0.02696
C 17.20233 15.59864 -0.00114
C 18.42148 14.84249 0.00228
C 18.44835 13.44779 0.00798
C 17.23043 12.73725 0.00422
C 17.1198 11.39547 0.0351
C 18.40414 10.74032 -0.03113
C 18.40812 9.29585 0.02098
C 17.16656 8.53991 0.01848
C 17.23545 7.11824 -0.00619
C 18.451 6.38544 -0.02162
C 18.45104 4.96062 0.00889
C 17.23166 4.31578 -0.00481
C 17.2307 2.90071 0.00979
C 18.39756 2.12866 0.01443
C 18.4418 0.73518 0.03505
C 17.20799 0.04953 -0.02815
C 19.5695 32.65279 -0.04147
C 18.45129 23.47554 -0.03682
C 17.18836 24.17872 0.00052
C 17.15922 25.5876 0.00374
C 18.38904 26.21593 -0.02813
C 15.92495 17.74309 0.02819
C 14.65225 17.09519 0.00165
C 14.71304 15.66952 -0.02971
C 15.91583 14.91371 0.02894
C 15.94847 13.48683 -0.01789
C 14.79131 12.72107 0.00444
C 14.67671 11.28051 -0.00925
C 15.92128 10.58434 0.01877
C 15.86312 9.20247 0.01363
C 14.67504 8.52836 -0.02162
C 14.7486 7.14974 0.00415
C 14.80211 19.89755 -0.01046
C 16.01107 6.41503 -0.0014
C 14.82699 4.28997 0.0076
C 14.76245 2.84456 0.01241
C 15.97681 2.18999 -0.01454
C 15.9863 0.6827 0.01945
C 14.77264 34.05396 0.01416
C 17.17394 32.64001 0.03542
C 18.35337 31.95638 0.02299
C 18.37806 30.56057 0.00244
C 17.1246 29.80478 -0.01717
C 17.31354 28.43322 0.05265
C 18.42668 27.69154 -0.01952
C 15.9978 5.02309 0.02162
C 9.90904 17.08808 -0.00494
C 11.10143 17.86678 -0.00562
C 11.06848 19.24151 -0.01142
C 3.64682 0.73429 0.03278
C 2.46893 0.01534 -0.00177
C 4.88965 32.66844 0.04421
C 6.11364 31.97345 0.00088
C 6.10098 30.60217 0.00828
C 4.93365 29.71864 -0.02375
C 5.00266 28.37578 0.00558
C 6.19578 27.64082 -0.0059
C 6.12789 26.26853 -0.01386
C 4.91804 25.6607 -0.02805
C 4.92714 24.15557 0.00081
C 6.14375 23.48367 0.00245
C 6.13625 22.04486 0.02728
C 5.01796 21.24334 -0.00039
C 4.90938 19.84583 0.0064
C 6.17135 19.10643 0.00211
C 6.11726 17.68992 -0.00449
C 4.88366 17.11413 -0.01979
C 4.86261 15.62932 0.02784
C 6.13209 14.96854 -0.01977
C 6.15282 13.57378 -0.00561
C 4.88453 12.77423 0.00208
C 4.90242 11.3925 0.01707
C 3.67172 2.17422 0.01138
C 2.49354 2.89383 -0.00407
C 2.45918 4.31033 -0.01299
C 3.72753 5.01834 -0.0154
C 3.73919 30.43063 -0.00374
C 2.46664 29.7785 -0.0213
C 2.42139 28.33062 0.01116
C 3.71298 27.71887 -0.0005
C 3.67784 26.30158 -0.00018
C 2.43431 25.58746 0.01073
C 2.47863 24.20636 0.01984
C 3.66534 23.48107 0.00535
C 3.7241 22.02885 -0.00198
C 2.481 21.24651 -0.00012
C 2.40656 19.92159 -0.04306
C 6.12807 10.67917 0.02769
C 3.68016 19.15235 -0.03672
C 2.40776 17.02027 0.00267
C 2.40607 15.56311 0.00787
C 3.67221 14.91796 0.02426
C 3.68195 13.49854 0.01218
C 2.43071 12.84356 -0.01471
C 2.47695 11.34237 -0.02827
C 3.67289 10.63429 0.01078
C 3.70395 9.2262 -0.00112
C 2.49508 8.52515 0.03345
C 2.45254 7.09752 0.00748
C 3.69794 6.43471 0.00662
C 3.57502 17.73403 0.01913
C 6.11446 9.28114 -0.03291
C 4.90498 8.5928 -0.04999
C 4.90826 7.15988 0.04505
C 8.66611 10.74441 -0.00094
C 8.58267 9.33878 0.02322
C 7.35371 8.64825 -0.00725
C 7.34764 7.18401 -0.05697
C 8.56753 6.41661 0.01087
C 8.65002 5.02315 -0.01343
C 7.3513 4.28705 0.00988
C 7.41165 2.88469 0.0276
C 8.62199 2.20557 0.01305
C 8.56339 0.73982 -0.00077
C 7.37083 0.01746 0.03368
C 7.34791 11.3577 -0.02566
C 9.66994 32.7011 -0.02929
C 10.97883 30.57148 -0.03337
C 9.77281 29.84457 0.01227
C 9.78293 28.4335 0.00873
C 11.12353 27.7817 -0.00049
C 11.19279 26.38658 0.00848
C 9.88213 25.53687 -0.01303
C 9.82354 24.16817 -0.01378
C 11.04889 23.38647 0.02635
C 11.06365 22.02633 0.0127
C 9.79789 21.36334 0.01396
C 9.80221 19.938 0.01849
C 10.95346 31.99779 -0.00966
C 20.77575 31.85022 -0.05302
C 7.37541 12.84714 -0.03113
C 8.60235 14.89649 -0.00643
C 6.15749 6.47146 0.03284
C 6.10985 5.00566 -0.04307
C 4.91962 4.30792 0.03189
C 4.95843 2.86249 0.00031
C 6.20037 2.16732 -0.003
C 6.15005 0.79538 0.01402
C 4.92185 0.01289 0.02379
C 7.29286 32.7018 0.00907
C 8.47334 31.9313 0.00643
C 8.57154 30.53239 -0.01509
C 7.39461 29.80289 0.03267
C 8.61549 13.48401 0.017
C 7.41824 28.40813 0.02374
C 8.64737 26.30963 0.0073
C 7.43693 25.57915 0.0174
C 7.41047 24.18276 0.03828
C 8.58637 23.45927 0.01226
C 8.60785 22.02254 -0.00279
C 7.36814 21.28445 0.01996
C 7.37109 19.82693 -0.03996
C 8.57695 19.1607 0.01465
C 8.67836 17.78854 -0.00074
C 7.40494 17.01211 -0.00518
C 7.33004 15.59517 0.0086
C 8.63614 27.669 0.00402
C 20.81594 30.50806 0.00213
C 19.62368 29.77714 -0.00066
C 19.60231 28.40102 -0.00289
C 29.51604 15.61808 0.01705
C 30.72008 14.84862 -0.0405
C 30.7024 13.47386 -0.01303
C 29.47218 12.73363 -0.01461
C 29.45739 11.30782 -0.02155
C 30.70253 10.64567 -0.00944
C 30.74956 9.15606 -0.03735
C 29.53593 8.45328 -0.00971
C 29.52581 7.06448 0.01518
C 30.80951 6.36096 0.01908
C 30.75836 4.87713 0.07705
C 29.49889 4.22952 0.0103
C 29.50779 2.79484 0.02108
C 30.73663 2.13888 0.00716
C 30.71091 0.73986 0.00307
C 29.51151 0.06725 0.00346
C 31.99391 32.68288 0.01713
C 33.26108 32.03352 -0.01694
C 33.20234 30.57277 0.01428
C 31.95831 29.85969 -0.02142
C 31.94986 28.43309 0.0544
C 33.21525 27.7667 0.00026
C 33.22048 26.33048 0.00682
C 29.48397 16.99569 0.0101
C 30.73832 17.71924 -0.00669
C 30.63035 19.13113 0.03531
C 29.42851 19.91811 0.01836
C 27.02147 11.28694 0.04185
C 28.25736 10.61694 0.00194
C 28.26353 9.15089 -0.00621
C 26.99553 8.48815 0.02611
C 27.01952 7.08086 0.02198
C 28.31517 6.37446 0.01094
C 28.26874 4.8928 0.00235
C 27.0305 4.21043 0.01495
C 27.03783 2.76425 0.01259
C 28.24639 2.15716 0.01799
C 28.26933 0.68567 0.01699
C 32.04849 25.60986 -0.01779
C 27.06827 0.03677 -0.00416
C 30.73035 31.98957 0.04266
C 30.68599 30.54117 0.01324
C 29.46402 29.80083 0.0014
C 29.47654 28.36991 0.00924
C 30.7166 27.71894 0.02326
C 30.7816 26.26232 0.00261
C 29.54227 25.58366 0.03265
C 29.45682 24.22705 -0.02049
C 30.74638 23.48925 -0.01854
C 30.7237 22.06324 -0.01415
C 29.44585 21.33358 -0.03039
C 29.54853 32.69918 0.01177
C 32.0024 24.19208 0.03794
C 33.17918 23.42005 0.01927
C 33.21103 22.0109 0.01574
C 34.41111 25.56838 -0.05239
C 34.39511 24.15898 0.03076
C 1.2058 23.4353 0.00723
C 1.2519 22.02296 0.02712
C 34.42402 21.24805 -0.02213
C 34.30282 19.79002 0.01951
C 1.08547 19.08709 -0.01678
C 1.12455 17.70715 0.01223
C 34.41106 17.02518 0.00648
C 0.01665 15.56119 0.02114
C 1.18941 14.86269 -0.02957
C 1.17924 26.29986 -0.00598
C 1.19889 13.43441 0.00343
C 34.41731 11.26341 -0.02442
C 1.257 10.59319 -0.00027
C 1.24784 9.18266 -0.00583
C 0.0938 8.41633 -0.02302
C 0.01117 7.02789 -0.02849
C 1.25566 6.34988 0.02931
C 1.21251 4.95863 0.00628
C 34.40645 4.22261 -0.0345
C 0.03548 2.85512 -0.00931
C 1.30908 2.1244 -0.00939
C 1.24051 0.74218 -0.00468
C 0.01213 12.70557 -0.02656
C 27.09372 12.81162 0.02316
C 1.21761 27.69975 -0.00439
C 0.04191 29.9113 0.01831
C 31.87118 21.31743 -0.02383
C 31.88457 19.86429 -0.01429
C 33.05644 19.13811 -0.0136
C 33.13187 17.6707 0.00594
C 31.96443 16.9217 -0.02474
C 31.97658 15.54906 0.00369
C 33.20858 14.82269 0.00455
C 33.12396 13.39341 -0.00644
C 31.94768 12.69227 -0.01839
C 31.95473 11.33304 0.00137
C 33.2658 10.54049 0.00199
C 0.01872 28.43497 -0.01037
C 33.24934 9.1532 0.04381
C 32.00049 7.0454 0.01504
C 33.27174 6.30032 -0.00069
C 33.20389 4.89349 0.04926
C 31.97714 4.18834 -0.03838
C 32.01335 2.79842 0.00349
C 33.24973 2.12159 -0.00323
C 33.21087 0.76238 -0.00841
C 31.94026 0.04688 0.0001
C 0.05595 32.69552 -0.02927
C 1.26911 31.94716 -0.01404
C 1.2764 30.54088 0.01027
C 32.02876 8.43133 0.02806
C 3.68808 31.86038 -0.00141
C 28.25941 13.49019 0.01257
C 27.07716 15.69331 -0.00294
C 23.28255 31.97739 0.00654
C 23.36666 30.65351 -0.00703
C 22.08847 29.85201 -0.04076
C 22.10306 28.41348 -0.00652
C 23.33557 27.7598 0.0058
C 23.297 26.32507 -0.00865
C 22.09359 25.55988 0.00675
C 22.13392 24.14663 -0.00311
C 23.37484 23.46746 0.00742
C 23.40574 22.11445 -0.01594
C 22.22408 21.3092 0.0106
C 22.25471 19.89267 -0.01154
C 23.37277 19.15669 -0.01721
C 23.52148 17.79782 -0.02422
C 22.13017 17.06805 0.01277
C 22.152 15.6455 0.00096
C 23.32356 14.86811 -0.01527
C 23.34026 13.46721 0.01087
C 22.07006 12.83201 0.00199
C 22.09955 11.41926 0.01511
C 23.28766 10.68428 -0.00478
C 23.35015 9.22783 -0.01662
C 22.10143 8.46382 -0.01185
C 22.0304 32.65572 -0.04422
C 19.63582 34.07088 -0.02957
C 20.88928 0.69009 -0.00831
C 20.91773 2.13833 0.00364
C 20.89866 27.68591 0.00028
C 20.85283 26.30621 -0.02213
C 19.65982 25.54338 0.03698
C 19.71741 24.12611 -0.00109
C 20.94296 23.39638 -0.00491
C 20.98561 21.89017 0.03338
C 19.70058 21.29469 -0.0258
C 19.68431 19.87487 -0.0331
C 20.87578 19.12551 -0.00316
C 20.96325 17.77436 0.02188
C 19.70132 17.05644 -0.01979
C 22.14066 7.05645 0.01126
C 19.61923 15.54468 0.02691
C 20.83133 13.53225 0.01452
C 19.65444 12.77338 0.04892
C 19.62457 11.32045 -0.00111
C 20.85996 10.60467 -0.03557
C 20.86564 9.1607 0.03754
C 19.59635 8.59405 0.01739
C 19.67927 7.08176 0.00755
C 20.85984 6.36734 -0.0054
C 20.84777 4.97477 0.00667
C 19.65612 4.23211 0.00143
C 19.66334 2.83529 -0.017
C 20.86586 14.96042 -0.01581
C 23.42736 6.40167 0.01852
C 23.38181 5.01972 -0.00381
C 22.10432 4.30813 0.03046
C 24.60659 7.1089 -0.00285
C 25.88905 6.38211 -0.009
C 25.82261 4.99675 -0.01199
C 24.61995 4.23551 -0.00229
C 24.59281 2.79253 -0.00938
C 25.79994 2.09749 -0.0264
C 25.87736 0.72566 -0.01154
C 24.61087 34.01997 0.00684
C 27.04943 32.70069 -0.01052
C 28.22925 32.02345 -0.01679
C 28.20845 30.51966 0.00367
C 24.58268 8.56827 0.01423
C 27.03641 29.71893 0.04306
C 28.29917 27.63359 0.00195
C 28.19889 26.23544 -0.00802
C 26.97182 25.58211 -0.00218
C 27.00039 24.15053 -0.01654
C 28.2082 23.49196 -0.00037
C 28.22082 21.99301 -0.0032
C 27.00779 21.24875 0.00622
C 27.02276 19.88834 -0.02815
C 28.25409 19.20153 -0.00942
C 28.32888 17.77798 0.00487
C 27.07362 17.09321 0.00826
C 27.01595 28.31762 0.00996
C 28.22105 14.91264 0.00152
C 25.80754 9.23239 0.02555
C 24.55127 11.33874 0.00135
C 22.12357 2.85778 0.0296
C 23.3711 2.16663 0.03374
C 23.40989 0.68758 -0.02845
C 22.08566 6e-05 -0.03213
C 24.58152 32.6048 0.02239
C 25.80135 31.94943 0.01153
C 25.88081 30.48403 0.02734
C 24.59315 29.90943 -0.0055
C 24.53675 28.43846 0.01515
C 25.75068 27.67864 -0.00225
C 25.76638 26.2345 0.00071
C 25.80432 10.71199 0.03102
C 24.58317 25.61658 -0.01107
C 25.8135 23.44088 -0.01971
C 25.89696 22.03345 -0.02118
C 24.63689 21.30964 0.00733
C 24.58843 19.9759 -0.00178
C 25.72566 19.10889 0.00768
C 25.81322 17.72152 -0.0276
C 24.60356 17.01494 0.03005
C 24.58445 15.56829 -0.04078
C 25.88244 14.95092 0.02117
C 25.87999 13.52889 0.02737
C 24.6174 12.75883 -0.00498
C 24.54902 24.19706 -0.01586
C 2.55678 32.62827 -0.03951
