368
Graphene
C 34.3996 0.07002 0.01295
C 11.01424 10.72669 -0.01952
C 11.02574 9.2538 -0.02813
C 9.74503 8.58582 0.00374
C 9.7995 7.11754 0.00052
C 10.96682 6.33737 -0.03682
C 11.02225 5.00417 0.01965
C 9.80179 4.34115 0.02058
C 9.78427 2.86696 -0.01957
C 10.9445 2.21383 -0.0108
C 10.97678 0.78494 -0.00368
C 9.81301 0.05924 -0.02696
C 12.21084 32.67957 -0.00114
C 13.52364 31.82043 0.00228
C 13.51518 30.50811 0.00798
C 12.30997 29.7943 0.00422
C 12.27669 28.42524 0.0351
C 13.53137 27.64901 -0.03113
C 13.60483 26.24259 0.02098
C 12.29931 25.64519 0.01848
C 9.78952 11.37079 0.05265
C 12.35455 24.15087 -0.00619
C 9.7729 12.79969 -0.01717
C 10.99995 14.93285 0.02299
C 8.62203 0.75539 0.02819
C 7.33222 34.068 0.00165
C 9.77816 32.69703 -0.02971
C 10.97693 31.93038 0.02894
C 10.99437 30.54883 -0.01789
C 9.83711 29.84919 0.00444
C 9.8352 28.51331 -0.00925
C 11.00307 27.69891 0.01877
C 11.05297 26.23708 0.01363
C 9.82584 25.61335 -0.02162
C 9.86762 24.06492 0.00415
C 11.1105 23.4651 -0.0014
C 11.09652 22.01049 0.02162
C 9.86396 21.30901 0.0076
C 9.86536 19.80589 0.01241
C 11.10197 19.17334 -0.01454
C 11.09157 17.70652 0.01945
C 9.85255 17.07601 0.01416
C 9.8867 15.7436 0.03542
C 11.03107 13.49075 0.00244
C 8.4784 2.16215 -0.00891
C 13.55725 23.34656 -0.02162
C 12.32441 21.27181 -0.00481
C 14.76447 29.75199 0.04892
C 14.75533 28.31676 -0.00111
C 16.01509 27.61825 -0.03557
C 15.93112 26.18744 0.03754
C 14.72109 25.52339 0.01739
C 14.80534 24.11899 0.00755
C 16.02732 23.34104 -0.0054
C 16.07574 21.90185 0.00667
C 14.83586 21.22899 0.00143
C 14.94831 19.71447 -0.017
C 16.1939 19.04133 0.00364
C 16.07544 17.66846 -0.00831
C 14.8475 16.95641 -0.02957
C 14.74451 15.60873 -0.04422
C 16.03861 14.88513 0.00654
C 15.99061 13.45199 -0.00703
C 14.65347 12.77052 -0.04076
C 14.65188 11.33387 -0.00652
C 15.87931 10.58828 0.0058
C 15.96834 30.46897 0.01452
C 13.57782 21.91413 0.00889
C 15.96108 31.8042 -0.01581
C 12.11726 0.0345 -0.01979
C 12.348 19.87363 0.00979
C 13.58761 19.09514 0.01443
C 13.58324 17.64002 0.03505
C 12.27603 16.99751 -0.02815
C 12.26904 15.57887 -0.04147
C 13.52702 14.8575 -0.05302
C 13.43573 13.46989 0.00213
C 12.23697 12.7775 -0.00066
C 12.25563 11.34998 -0.00289
C 13.43988 10.69019 0.00028
C 13.44777 9.26775 -0.02213
C 12.21959 8.49487 0.03698
C 12.16193 7.12388 -0.00109
C 13.42509 6.37829 -0.00491
C 13.48327 4.99407 0.03338
C 12.27876 4.32083 -0.0258
C 12.17802 2.88372 -0.0331
C 13.51724 2.13838 -0.00316
C 13.43303 0.71209 0.02188
C 14.74454 32.53481 0.02691
C 15.85934 9.24666 -0.00865
C 7.34568 2.86896 -0.01046
C 8.56179 5.05905 -0.01536
C 3.61911 6.52121 0.01227
C 3.59879 5.11135 0.00873
C 2.40518 4.35003 -0.00049
C 2.37731 2.87333 0.00848
C 3.598 2.18452 -0.01303
C 3.63023 0.79907 -0.01378
C 2.43192 0.11202 0.02635
C 4.9197 32.71233 0.0127
C 6.1436 32.00534 0.01396
C 6.18623 30.60374 0.01849
C 4.96477 29.87272 -0.01142
C 4.92298 28.47439 -0.00562
C 6.16348 27.76502 -0.00494
C 6.16145 26.31738 0.00054
C 4.93188 25.60284 0.03007
C 4.93502 24.18293 -0.00095
C 6.18809 23.43659 0.01572
C 6.21388 22.00151 -0.04848
C 4.89305 21.327 -0.00892
C 2.39964 7.21744 -0.03337
C 4.9297 19.93397 -0.01362
C 2.4116 8.60538 -0.00966
C 3.56081 10.75314 0.03368
C 3.70494 30.59011 -0.03996
C 2.43958 29.94467 0.01465
C 2.39069 28.50156 -0.00074
C 3.66022 27.73488 -0.00518
C 3.69722 26.37712 0.0086
C 2.54239 25.56063 -0.00643
C 2.40055 24.09544 0.017
C 3.61164 23.43822 -0.03113
C 3.72142 22.00541 -0.02566
C 2.42222 21.30006 -0.00094
C 2.33284 19.86463 0.02322
C 3.58284 19.21182 -0.00725
C 3.63197 17.79711 -0.05697
C 2.3905 17.02709 0.01087
C 2.44729 15.67728 -0.01343
C 3.7178 14.98153 0.00988
C 3.66354 13.4729 0.0276
C 2.37955 12.86357 0.01305
C 2.34657 11.37133 -0.00077
C 3.60685 9.34508 -0.02929
C 7.32436 4.30436 -0.02689
C 6.09801 19.19871 -0.0008
C 4.83865 17.12176 0.00393
C 7.43965 25.63481 0.01641
C 7.33411 24.21465 -0.00719
C 8.57346 23.51282 0.01364
C 8.63455 22.02789 -0.01062
C 7.4157 21.31989 -0.00033
C 7.39857 19.88712 0.03589
C 8.62753 19.11318 -0.02759
C 8.58979 17.71752 0.0402
C 7.35691 17.06456 0.00572
C 7.38756 15.62938 0.03592
C 8.6174 14.99801 0.00406
C 8.58501 13.56889 0.00943
C 7.35512 12.81972 0.02841
C 7.35459 11.38535 -0.01111
C 8.53582 10.7196 -0.01275
C 8.55412 9.32039 0.00985
C 7.35739 8.61075 -0.02245
C 7.33132 7.12791 -0.00428
C 8.55092 6.43314 0.03101
C 8.62776 26.35281 0.02339
C 6.11514 17.83651 0.0288
C 8.65166 27.75646 -0.00334
C 7.39149 29.89126 0.00057
C 4.91867 15.72568 0.00895
C 6.1427 14.93561 0.00685
C 6.08426 13.57274 0.02888
C 4.9129 12.80066 -0.00482
C 4.8339 11.37598 -0.01384
C 6.06002 10.698 0.03693
C 6.07865 9.23964 0.01745
C 4.87424 8.56984 0.00488
C 4.88049 7.14698 -0.01004
C 6.09901 6.47295 -0.02896
C 6.08412 5.07039 -0.00131
C 4.87533 4.38022 -0.01118
C 4.82506 2.93656 -0.014
C 6.10275 2.19388 0.02147
C 6.12581 0.75982 0.00373
C 4.85603 0.0433 -0.00191
C 7.36042 32.69088 0.00438
C 8.59227 31.9274 0.01291
C 8.63024 30.58379 0.00093
C 7.41174 28.45356 -0.01634
C 14.66697 8.46088 0.00675
C 14.67698 7.0593 -0.00311
C 15.93372 6.41203 0.00742
C 29.43515 24.06414 0.00307
C 30.70257 23.45105 0.00346
C 30.80754 22.02094 0.01713
C 29.64851 21.26935 -0.01694
C 30.89996 5.3517 0.01428
C 29.52805 4.62974 -0.02142
C 29.47443 3.15199 0.0544
C 30.64912 2.2074 0.00026
C 30.66088 0.8094 0.00682
C 29.5134 0.11557 -0.01779
C 31.96827 32.71786 0.03794
C 33.16963 32.01109 0.01927
C 33.25593 30.57632 0.01574
C 32.04944 29.83745 -0.02383
C 31.94688 28.45374 -0.01429
C 33.17935 27.71913 -0.0136
C 33.28073 26.31131 0.00594
C 32.01427 25.55891 -0.02474
C 31.94055 24.19447 0.00369
C 29.52375 25.53219 0.00716
C 33.20939 23.49831 0.00455
C 30.70254 26.28135 0.02108
C 29.4355 28.45038 0.07705
C 27.05449 29.77737 0.03265
C 27.00414 28.39613 -0.02049
C 28.27538 27.65923 -0.01854
C 28.31363 26.2208 -0.01415
C 27.02791 25.50008 -0.03039
C 27.0618 24.14409 0.01836
C 28.28101 23.32833 0.03531
C 28.35885 21.82333 -0.00669
C 27.04987 21.27665 0.0101
C 28.18616 4.97206 0.01705
C 27.01041 4.28765 -0.0405
C 26.94835 2.86518 -0.01303
C 28.35406 2.33884 -0.01461
C 28.23581 0.82409 -0.02155
C 27.02239 0.05507 -0.00944
C 29.48175 32.67225 -0.03735
C 30.76468 31.98046 -0.00971
C 30.80737 30.51845 0.01518
C 29.49872 29.85631 0.01908
C 30.72352 27.74835 0.0103
C 28.27124 30.55847 0.00261
C 33.22006 22.02478 -0.00644
C 31.7795 19.98672 0.00137
C 34.2806 19.87014 0.01951
C 1.00307 19.08692 -0.01678
C 1.12496 17.7199 0.01223
C 34.15962 16.90139 0.00648
C 34.29944 15.4447 0.02114
C 1.2031 14.96145 -0.02957
C 1.15687 13.55269 0.00343
C 0.07688 12.79 -0.02656
C 0.11411 11.52214 -0.02442
C 1.17635 10.64089 -0.00027
C 1.15544 9.22928 -0.00583
C 34.19154 8.54211 -0.02302
C 34.29169 7.088 -0.02849
C 1.13498 6.49929 0.02931
C 1.13199 5.06372 0.00628
C 34.3813 4.31928 -0.0345
C 34.38724 2.85863 -0.00931
C 1.18465 2.1066 -0.00939
C 1.19915 0.74396 -0.00468
C 34.43267 21.28747 -0.02213
C 32.00345 21.29824 -0.01839
C 1.22711 22.00786 0.02712
C 34.38364 24.18664 0.03076
C 32.95606 19.14001 0.00199
C 32.99603 17.69373 0.04381
C 32.90128 9.0578 0.02806
C 31.78429 6.72456 0.01504
C 33.08305 6.34573 -0.00069
C 33.22653 4.92638 0.04926
C 31.94204 4.40634 -0.03838
C 31.87333 2.86417 0.00349
C 33.15459 2.23353 -0.00323
C 33.15668 0.83795 -0.00841
C 31.90768 0.14464 0.0001
C 34.37017 32.7342 -0.02927
C 1.14711 32.04818 -0.01404
C 1.15278 30.63389 0.01027
C 0.02857 29.88801 0.01831
C 34.39232 28.45927 -0.01037
C 1.20841 27.6985 -0.00439
C 1.26171 26.25763 -0.00598
C 0.04085 25.50038 -0.05239
C 1.13457 23.44957 0.00723
C 28.2113 32.01307 0.02326
C 26.94872 32.66423 0.00924
C 24.45476 0.0727 0.0014
C 17.19969 12.4806 0.01153
C 17.25256 11.11262 0.02734
C 18.15979 9.6561 -0.0055
C 17.18279 8.62226 0.01515
C 17.19509 7.15707 -0.00225
C 18.36903 6.38718 0.00071
C 18.26828 4.97886 -0.01107
C 17.07183 4.18828 -0.01586
C 17.12683 2.76905 -0.01971
C 18.37193 2.09774 -0.02118
C 18.29719 0.69196 0.00733
C 17.108 34.02832 -0.00178
C 19.68861 32.59535 0.00768
C 20.89004 31.90013 -0.0276
C 20.8298 30.46803 0.03005
C 19.62317 29.73257 -0.04078
C 19.63119 28.28527 0.02117
C 20.87112 27.63944 0.02737
C 20.89633 26.21326 -0.00498
C 17.32036 15.40447 0.02239
C 19.63638 25.54466 0.00135
C 17.39851 16.92917 -0.03213
C 18.77543 19.03173 0.03374
C 15.86272 5.00724 -0.01594
C 14.62658 4.28598 0.0106
C 14.68628 2.87949 -0.01154
C 15.86239 2.14075 -0.01721
C 15.87833 0.71437 -0.02422
C 14.66264 34.00091 0.01277
C 17.16976 32.54152 0.00096
C 18.442 31.86438 -0.01527
C 18.39779 30.45084 0.01087
C 17.1786 29.73364 0.00199
C 17.21003 28.30691 0.01511
C 18.37719 27.58451 -0.00478
C 18.40105 26.21865 -0.01662
C 17.23558 25.45703 -0.01185
C 17.22579 24.08974 0.01126
C 18.48203 23.33759 0.01852
C 18.52018 21.91184 -0.00381
C 17.34135 21.21319 0.03046
C 17.40985 19.758 0.0296
C 18.50775 17.74581 -0.02845
C 19.63698 24.1517 0.03102
C 20.92441 23.47034 0.02555
C 20.97002 21.97114 0.01423
C 23.17991 2.21025 -0.00294
C 23.2453 0.80444 0.00152
C 22.06549 34.05774 0.01257
C 24.47921 32.69242 0.02316
C 25.72036 31.97311 0.04185
C 25.7857 30.54719 0.00194
C 24.58221 29.85445 -0.00621
C 24.56738 28.42753 0.02611
C 25.81574 27.65794 0.02198
C 25.82474 26.2667 0.01094
C 24.62726 25.51936 0.00235
C 24.60741 24.08323 0.01495
C 25.81656 23.45017 0.01259
C 25.79243 21.95859 0.01799
C 24.62916 21.22479 0.01699
C 24.49236 4.21558 -0.00416
C 24.47409 2.79071 0.01177
C 25.66799 2.15666 0.04266
C 25.72902 0.64639 0.01324
C 22.02116 2.99709 0.00826
C 21.92733 4.44169 0.00487
C 23.32633 4.80461 -0.00942
C 22.07894 21.25884 -0.02815
C 19.72562 21.30684 -0.00285
C 20.04525 19.91612 -0.009
C 19.73615 6.84259 -0.01199
C 20.52475 5.2006 -0.00229
C 19.47552 4.2357 -0.00938
C 19.64705 2.79529 -0.0264
C 20.82042 2.05359 -0.01154
C 20.86805 0.6604 0.00684
C 19.55824 0.01754 -0.01052
C 3.68812 32.01454 0.01996
C 22.07745 32.66756 -0.01679
C 23.24773 30.56118 0.04306
C 22.06266 29.80388 0.00996
C 22.16957 28.38003 0.00195
C 23.41943 27.61601 -0.00802
C 23.36947 26.20267 -0.00218
C 22.14683 25.53317 -0.01654
C 22.1933 24.1114 -0.00037
C 23.36088 23.26774 -0.0032
C 23.36347 21.88383 0.00622
C 23.25926 31.95331 0.00367
C 2.4521 32.69576 -0.00279
