301
Graphene
C 0.00761 0.03984 0.01295
C 13.58805 4.91777 -0.00111
C 12.2883 4.33389 -0.03557
C 12.29877 2.88646 0.03754
C 13.55919 2.11506 0.01739
C 13.61502 0.73471 0.00755
C 12.33633 0.02109 -0.0054
C 13.47345 6.34405 0.04892
C 14.71675 32.64249 0.00667
C 15.98957 30.39676 -0.017
C 14.74852 29.76418 0.00364
C 14.71784 28.39393 -0.00831
C 16.04133 10.58531 -0.02957
C 16.04853 9.24188 -0.04422
C 14.75395 8.49283 0.00654
C 15.931 32.01985 0.00143
C 12.28501 7.02758 0.01452
C 12.29447 8.4689 -0.01581
C 13.48117 9.17243 0.02691
C 9.93028 8.47725 -0.05302
C 9.80045 7.06426 0.00213
C 11.0307 6.42527 -0.00066
C 11.06082 4.94911 -0.00289
C 9.76872 4.32109 0.00028
C 9.74053 2.91789 -0.02213
C 11.09597 2.17418 0.03698
C 11.11749 0.75179 -0.00109
C 9.88685 0.01177 -0.00491
C 12.321 32.66659 0.03338
C 13.48648 31.95209 -0.0258
C 13.54245 30.53545 -0.0331
C 12.3387 29.86035 -0.00316
C 12.33624 28.47485 0.02188
C 13.61714 27.81524 -0.01979
C 14.73461 7.162 -0.00703
C 15.98456 6.32329 -0.04076
C 16.00966 4.92821 -0.00652
C 14.82136 4.26845 0.0058
C 20.97309 30.45524 0.01852
C 19.64166 29.73182 -0.00381
C 19.63237 7.10733 0.03046
C 20.91829 6.37327 0.0296
C 20.8269 4.92368 0.03374
C 19.65184 4.24147 -0.02845
C 19.74261 2.85369 -0.03213
C 20.89976 2.12098 0.02239
C 20.90396 0.75082 0.01153
C 19.67507 0.09767 0.02734
C 22.1146 32.68726 -0.0055
C 23.32793 31.89603 0.01515
C 23.37028 30.48296 -0.00225
C 22.18161 29.9301 0.00071
C 22.13874 7.01148 -0.01107
C 20.85974 31.97125 0.01126
C 11.07816 9.24744 -0.04147
C 19.67517 32.62796 -0.01185
C 18.47318 0.77621 -0.00478
C 14.78867 2.79782 -0.00865
C 16.00372 2.12254 0.00675
C 16.0203 0.68993 -0.00311
C 14.79331 34.03607 0.00742
C 17.15813 32.67012 -0.01594
C 18.42166 31.92178 0.0106
C 18.47529 30.39451 -0.01154
C 17.22099 29.77997 -0.01721
C 17.19789 8.5375 -0.02422
C 17.14771 7.12066 0.01277
C 18.40599 6.43226 0.00096
C 18.37328 4.99398 -0.01527
C 17.20713 4.28705 0.01087
C 17.22043 2.85205 0.00199
C 18.50727 2.12988 0.01511
C 17.24512 34.07121 -0.01662
C 11.05406 26.33188 -0.02815
C 11.08429 27.71575 0.03505
C 9.84796 28.41883 0.01443
C 2.45937 8.52275 -0.00428
C 2.43744 7.05346 0.03101
C 3.6557 6.36709 -0.01536
C 3.72919 4.96402 -0.02689
C 2.50791 4.26901 -0.01046
C 2.43839 2.86719 -0.00891
C 3.65753 2.15274 0.02819
C 3.62838 0.72894 0.00165
C 2.44093 34.05985 -0.02971
C 4.84225 32.67797 0.02894
C 6.15328 31.97136 -0.01789
C 6.20103 30.51745 0.00444
C 4.89692 29.79924 -0.00925
C 4.90963 28.34585 0.01877
C 6.09066 27.62036 0.01363
C 3.68617 9.2191 -0.02245
C 6.07927 26.21009 -0.02162
C 3.67888 10.62374 0.00985
C 2.48786 12.8488 -0.01111
C 3.65019 30.58614 -0.00334
C 2.48123 29.79417 0.02339
C 2.43953 28.40835 0.01641
C 3.65046 27.72228 -0.00719
C 3.68882 26.33443 0.01364
C 2.48194 25.50475 -0.01062
C 2.40947 24.17789 -0.00033
C 3.67643 23.43283 0.03589
C 3.61291 22.05544 -0.02759
C 2.49288 21.28799 0.0402
C 2.40422 19.94878 0.00572
C 2.43737 16.99149 0.03592
C 2.50946 15.67182 0.00406
C 3.66483 14.93338 0.00943
C 3.75566 13.53606 0.02841
C 2.37707 11.4314 -0.01275
C 23.38069 6.47634 -0.01586
C 4.89026 25.53076 0.00415
C 4.85515 12.72967 0.02162
C 7.40379 25.69759 -0.00368
C 8.67617 9.09013 -0.02696
C 7.45132 8.54389 -0.00114
C 7.35136 7.06048 0.00228
C 8.64396 6.35877 0.00798
C 8.62023 4.93755 0.00422
C 7.31999 4.25544 0.0351
C 7.35362 2.91655 -0.03113
C 8.60121 2.13793 0.02098
C 8.64707 0.69302 0.01848
C 7.36093 0.01559 -0.00619
C 9.89593 32.63966 -0.02162
C 11.0402 31.89747 0.00889
C 11.08734 30.5066 -0.00481
C 9.76092 29.77562 0.00979
C 8.49367 26.33554 -0.0108
C 4.8221 24.21201 -0.0014
C 8.61508 27.69986 -0.01957
C 7.43053 29.85743 0.01965
C 4.96587 11.28028 0.0076
C 6.21721 10.63236 0.01241
C 6.20477 9.30037 -0.01454
C 4.92621 8.57073 0.01945
C 4.87512 7.08751 0.01416
C 6.0908 6.34043 0.03542
C 6.11497 4.93638 0.02299
C 4.96978 4.24887 0.00244
C 4.93577 2.79892 -0.01717
C 6.14224 2.16225 0.05265
C 6.14985 0.77371 -0.01952
C 4.85103 0.01887 -0.02813
C 7.43552 32.662 0.00374
C 8.70929 31.97287 0.00052
C 8.61443 30.57676 -0.03682
C 7.32179 28.28494 0.02058
C 3.63413 31.94642 -0.01634
C 23.29926 4.97123 -0.01971
C 22.10518 2.78161 0.00733
C 31.97105 21.32907 -0.02383
C 31.95765 19.92325 -0.01429
C 33.17984 19.19379 -0.0136
C 33.21256 17.71479 0.00594
C 31.96455 17.05264 -0.02474
C 31.968 15.65425 0.00369
C 33.23832 22.04968 0.01574
C 33.1813 14.89483 0.00455
C 31.98575 12.78691 -0.01839
C 31.9978 11.40846 0.00137
C 33.1834 10.675 0.00199
C 33.17783 9.2715 0.04381
C 31.99506 8.54004 0.02806
C 31.9952 7.13417 0.01504
C 33.18429 13.49706 -0.00644
C 33.22219 23.49255 0.01927
C 31.9443 24.24073 0.03794
C 31.96879 25.63205 -0.01779
C 29.5297 7.12776 0.01518
C 30.68035 6.4073 0.01908
C 30.7369 5.01506 0.07705
C 29.54909 4.25896 0.0103
C 29.51635 2.80142 0.02108
C 30.72651 2.18674 0.00716
C 30.71019 0.77021 0.00307
C 29.52549 0.00557 0.00346
C 31.91823 32.6757 0.01713
C 33.12392 31.99024 -0.01694
C 33.20539 30.50762 0.01428
C 31.98444 29.82342 -0.02142
C 31.9123 28.45308 0.0544
C 33.17189 27.73725 0.00026
C 33.25216 26.36783 0.00682
C 33.2028 6.34829 -0.00069
C 33.19705 4.9756 0.04926
C 31.91323 4.28007 -0.03838
C 31.97047 2.83572 0.00349
C 34.38341 15.66799 0.02114
C 1.09419 14.91891 -0.02957
C 1.16332 13.48548 0.00343
C 34.39485 12.75693 -0.02656
C 34.41397 11.37047 -0.02442
C 1.15847 10.67986 -0.00027
C 1.21976 9.29476 -0.00583
C 34.41987 8.50316 -0.02302
C 34.41388 7.09072 -0.02849
C 1.21719 6.41402 0.02931
C 1.2884 4.97284 0.00628
C 0.02443 4.31109 -0.0345
C 34.41846 2.82348 -0.00931
C 1.22457 2.13864 -0.00939
C 1.21606 0.72659 -0.00468
C 34.3643 17.09306 0.00648
C 29.55845 8.52514 -0.00971
C 1.2398 17.71092 0.01223
C 0.03725 19.84807 0.01951
C 33.18891 2.16187 -0.00323
C 33.20037 0.74618 -0.00841
C 31.96788 0.00404 0.0001
C 34.39849 32.66947 -0.02927
C 1.19148 31.92953 -0.01404
C 1.22353 30.56869 0.01027
C 0.06325 29.8619 0.01831
C 0.02062 28.30746 -0.01037
C 1.27671 27.66967 -0.00439
C 1.26049 26.26507 -0.00598
C 34.42971 25.61651 -0.05239
C 0.00027 24.13165 0.03076
C 1.17449 23.436 0.00723
C 1.25075 21.96962 0.02712
C 34.4143 21.24248 -0.02213
C 1.22377 19.18013 -0.01678
C 30.72137 9.19299 -0.03735
C 30.69588 10.70365 -0.00944
C 29.48532 11.40223 -0.02155
C 24.61995 34.06379 0.00684
C 27.07535 32.61761 -0.01052
C 28.28328 31.9785 -0.01679
C 28.35123 30.50612 0.00367
C 27.0391 29.74308 0.04306
C 27.09069 28.39938 0.00996
C 28.32102 27.64587 0.00195
C 28.27068 26.25312 -0.00802
C 27.01492 25.52689 -0.00218
C 27.06658 24.1618 -0.01654
C 28.23099 23.47408 -0.00037
C 28.29157 22.0825 -0.0032
C 27.06777 21.22366 0.00622
C 27.10923 20.04286 -0.02815
C 28.21553 19.17599 -0.00942
C 25.82279 0.71845 -0.01154
C 28.28569 17.74135 0.00487
C 25.88793 2.18136 -0.0264
C 24.63016 4.27105 -0.00229
C 23.32543 2.10922 -0.00178
C 23.37324 0.71935 0.00768
C 22.12558 0.01287 -0.0276
C 24.61559 32.6948 0.03005
C 25.77312 31.86946 -0.04078
C 25.79457 30.46833 0.02117
C 24.55935 29.79856 0.02737
C 24.71288 28.47673 -0.00498
C 25.71255 27.60387 0.00135
C 25.77433 26.27907 0.03102
C 25.78662 17.66034 0.02555
C 25.78904 9.22346 0.01423
C 24.62535 7.01162 -0.00285
C 25.8305 6.46268 -0.009
C 25.82364 5.03051 -0.01199
C 24.57723 2.84246 -0.00938
C 22.11541 4.24225 -0.02118
C 26.95784 16.98354 0.00826
C 28.1854 14.9333 0.00152
C 30.74912 27.69457 0.02326
C 30.77564 26.21684 0.00261
C 29.50261 25.53834 0.03265
C 29.46608 24.19764 -0.02049
C 30.74575 23.49872 -0.01854
C 30.76572 22.09666 -0.01415
C 29.48192 21.32649 -0.03039
C 29.47264 19.89219 0.01836
C 30.74189 19.20866 0.03531
C 30.74961 17.77545 -0.00669
C 29.52514 17.03209 0.0101
C 29.48166 15.58543 0.01705
C 30.71989 14.90407 -0.0405
C 30.73298 13.52486 -0.01303
C 29.50044 12.8663 -0.01461
C 29.53981 28.32628 0.00924
C 27.03101 15.57319 -0.00294
C 29.46727 29.78684 0.0014
C 30.70901 31.96187 0.04266
C 28.2661 13.49629 0.01257
C 26.96224 12.59576 0.02316
C 27.02603 11.40313 0.04185
C 28.29304 10.64275 0.00194
C 28.29415 9.18131 -0.00621
C 26.96871 8.55687 0.02611
C 27.1149 7.06075 0.02198
C 28.30673 6.38894 0.01094
C 28.31741 4.96748 0.00235
C 27.05149 4.24362 0.01495
C 27.09316 2.7793 0.01259
C 28.27839 2.09042 0.01799
C 28.26079 0.67821 0.01699
C 27.04895 34.04837 -0.00416
C 29.58811 32.63672 0.01177
C 30.73382 30.54916 0.01324
C 2.36538 32.67362 0.00057
