413
Graphene
C 34.41404 34.02246 0.01295
C 16.0444 30.58809 -0.02245
C 14.71549 29.9147 -0.00428
C 14.79396 28.43777 0.03101
C 15.98354 27.63365 -0.01536
C 15.9353 26.28202 -0.02689
C 14.69784 25.58358 -0.01046
C 14.73809 24.11408 -0.00891
C 15.96663 23.46879 0.02819
C 15.93899 21.95462 0.00165
C 14.75885 21.24749 -0.02971
C 14.72873 19.84721 0.02894
C 15.99198 19.11694 -0.01789
C 16.02217 17.70694 0.00444
C 14.75769 16.97723 -0.00925
C 14.69079 15.66705 0.01877
C 16.04129 14.86346 0.01363
C 16.02658 13.44621 -0.02162
C 14.75437 12.80828 0.00415
C 14.76839 11.34131 -0.0014
C 15.95485 10.56228 0.02162
C 15.97074 9.16293 0.0076
C 15.94586 32.02171 0.00985
C 14.56628 32.80814 -0.01275
C 12.15158 0.26086 -0.01111
C 13.44272 0.9474 0.02841
C 13.5147 30.66628 0.02147
C 12.3083 29.92576 0.00373
C 12.33066 28.51338 -0.00191
C 13.53746 27.77981 0.00438
C 13.52377 26.33882 0.01291
C 12.28708 25.66901 0.00093
C 12.25952 24.26022 0.00057
C 13.52999 23.43831 -0.01634
C 13.52498 22.04152 -0.00334
C 12.26079 21.33016 0.02339
C 14.75628 8.41624 0.01241
C 12.18767 19.98222 0.01641
C 13.53355 17.74167 0.01364
C 12.20203 17.10558 -0.01062
C 12.23339 15.75787 -0.00033
C 13.47439 14.9063 0.03589
C 13.46187 13.51665 -0.02759
C 12.25774 12.82995 0.0402
C 12.24716 11.36818 0.00572
C 13.44148 10.70174 0.03592
C 13.4662 9.23976 0.00406
C 12.22495 8.6807 0.00943
C 13.4047 19.17708 -0.00719
C 14.62369 7.01812 -0.01454
C 15.80353 6.23682 0.01945
C 15.97559 4.88598 0.01416
C 18.45798 9.18996 0.00889
C 17.19376 8.41532 -0.00481
C 17.05731 6.99745 0.00979
C 18.36558 6.33644 0.01443
C 18.48733 4.9948 0.03505
C 17.1876 4.18696 -0.02815
C 17.20306 2.81175 -0.04147
C 18.38622 2.11358 -0.05302
C 18.4343 0.6742 0.00213
C 17.07257 0.00083 -0.00066
C 18.43701 10.62592 -0.02162
C 19.63646 32.65598 -0.00289
C 20.98374 30.50663 -0.02213
C 19.74767 29.83042 0.03698
C 19.66867 28.34169 -0.00109
C 20.87406 27.63895 -0.00491
C 20.76156 26.26377 0.03338
C 19.57603 25.51678 -0.0258
C 19.58201 24.08373 -0.0331
C 20.86055 23.35926 -0.00316
C 20.91817 21.97422 0.02188
C 19.74965 21.24145 -0.01979
C 20.86711 31.97103 0.00028
C 13.41641 32.13135 -0.014
C 17.24235 11.33989 -0.00619
C 18.43195 13.37643 0.02098
C 14.58333 2.74987 0.03542
C 15.8791 2.14608 0.02299
C 15.89443 0.74038 0.00244
C 14.57324 0.07794 -0.01717
C 17.15746 32.68157 0.05265
C 18.39492 31.95426 -0.01952
C 18.54395 30.52767 -0.02813
C 17.23717 29.8583 0.00374
C 17.16069 28.44148 0.00052
C 18.46347 27.70177 -0.03682
C 17.19504 12.73026 0.01848
C 18.40552 26.20178 0.01965
C 17.1734 24.13928 -0.01957
C 18.39716 23.38304 -0.0108
C 18.44693 21.95214 -0.00368
C 17.25012 21.27618 -0.02696
C 17.28928 19.84463 -0.00114
C 18.49428 19.17121 0.00228
C 18.50152 17.66586 0.00798
C 17.24295 16.96698 0.00422
C 17.20995 15.54111 0.0351
C 18.4473 14.86751 -0.03113
C 17.13858 25.50426 0.02058
C 12.21393 32.89711 -0.01118
C 9.91629 0.02773 -0.00131
C 9.71082 8.45689 -0.02896
C 4.84612 32.73125 0.03284
C 6.09838 32.07128 -0.04307
C 6.15806 30.55518 0.03189
C 4.96948 29.89964 0.00031
C 4.95088 28.46303 -0.003
C 6.16247 27.688 0.01402
C 6.08568 26.19511 0.02379
C 4.82797 25.52264 0.00907
C 4.83228 24.00123 0.00643
C 6.12435 23.42009 -0.01509
C 2.38229 0.11536 0.04505
C 4.82022 15.57902 0.03267
C 6.17807 13.60679 0.00402
C 4.90231 12.81177 0.0073
C 4.89218 11.37822 0.0174
C 6.12768 10.71898 0.03828
C 6.09272 9.2434 0.01226
C 4.8679 8.59382 -0.00279
C 4.87734 7.0948 0.01996
C 6.10288 6.3687 -0.03996
C 6.10426 4.9875 0.01465
C 4.88613 4.28176 -0.00074
C 6.11667 15.10142 0.02374
C 4.8955 2.82263 -0.00518
C 3.5903 0.71459 -0.04999
C 2.35081 2.82211 0.02769
C 3.70841 30.56603 -0.00177
C 2.45182 29.81047 0.04421
C 2.4235 28.42663 0.00088
C 3.6396 27.71326 0.00828
C 3.66236 26.3176 -0.02375
C 2.37216 25.68079 0.00558
C 2.33717 24.17968 -0.0059
C 3.48575 23.406 -0.01386
C 2.28752 21.05985 -0.02805
C 2.51346 17.01102 0.00081
C 3.65909 2.11188 -0.03291
C 2.39554 15.58817 0.00245
C 3.66759 13.43705 -0.00039
C 2.47508 12.78779 0.0064
C 2.46949 11.35996 0.00211
C 3.71502 10.62 -0.00449
C 3.69867 9.23809 -0.01979
C 2.48477 8.56483 0.02784
C 2.43432 7.08089 -0.01977
C 3.65011 6.38946 -0.00561
C 3.60559 4.99555 0.00208
C 2.39985 4.17649 0.01707
C 3.64626 14.82322 0.02728
C 19.76267 19.83338 0.02691
C 6.16693 2.27135 0.0086
C 4.916 0.02145 0.017
C 11.09169 32.0705 -0.01142
C 11.07515 30.65944 -0.00562
C 9.85554 29.96058 -0.00494
C 9.83564 28.53509 0.00054
C 11.05899 27.81628 0.03007
C 11.04653 26.39723 -0.00095
C 9.7866 25.64303 0.01572
C 9.77119 24.25654 -0.04848
C 11.07695 23.57133 -0.00892
C 11.06437 22.22949 -0.01362
C 9.86119 32.74895 0.01849
C 9.84046 21.51632 -0.0008
C 10.91016 19.30989 0.00393
C 11.01218 17.85562 0.00895
C 9.82411 17.12141 0.00685
C 9.83982 15.68773 0.02888
C 11.0383 15.02704 -0.00482
C 11.02149 13.58358 -0.01384
C 9.77915 12.85531 0.03693
C 9.87521 11.44529 0.01745
C 10.9727 10.61272 0.00488
C 10.96463 9.17085 -0.01004
C 9.77911 20.15613 0.0288
C 6.15677 0.82106 -0.00643
C 7.47229 0.00604 0.01396
C 8.59443 2.19909 0.02635
C 7.3758 32.73962 -0.03113
C 8.61674 31.98036 -0.02566
C 8.615 30.64112 -0.00094
C 7.36804 29.87812 0.02322
C 7.41396 28.5006 -0.00725
C 8.61968 27.7907 -0.05697
C 8.5845 26.32067 0.01087
C 7.42465 25.46231 -0.01343
C 7.38134 24.02801 0.00988
C 8.70058 23.42273 0.0276
C 8.73751 0.78686 0.0127
C 7.45769 15.75773 0.01305
C 8.50348 13.59799 0.03368
C 7.36554 12.93591 -0.02929
C 7.39007 11.41681 -0.00966
C 8.64934 10.71634 -0.03337
C 8.63728 9.26185 0.01227
C 7.4219 8.48935 0.00873
C 7.3968 7.06612 -0.00049
C 8.53111 6.28889 0.00848
C 7.42283 4.47074 -0.01303
C 7.47936 3.04659 -0.01378
C 8.57902 15.06541 -0.00077
C 3.6354 31.94723 0.03278
C 21.0165 19.13285 -0.01581
C 19.7956 17.00983 0.04892
C 30.73431 9.14962 -0.03735
C 29.49092 8.45625 -0.00971
C 29.47699 7.04497 0.01518
C 30.71119 6.36697 0.01908
C 30.67835 4.91298 0.07705
C 29.45853 4.22511 0.0103
C 29.49373 2.83059 0.02108
C 30.69698 2.09032 0.00716
C 30.75971 0.69345 0.00307
C 29.46842 0.00335 0.00346
C 31.92418 32.68092 0.01713
C 33.18649 31.90595 -0.01694
C 33.12802 30.55064 0.01428
C 31.93284 29.87443 -0.02142
C 31.91908 28.44391 0.0544
C 33.16588 27.75049 0.00026
C 33.18848 26.25616 0.00682
C 31.93338 25.5763 -0.01779
C 31.93554 24.16032 0.03794
C 33.16026 23.41574 0.01927
C 33.14009 22.03043 0.01574
C 30.70437 10.59155 -0.00944
C 29.49478 11.27473 -0.02155
C 29.46503 12.64774 -0.01461
C 30.7084 13.42555 -0.01303
C 27.07799 2.83446 0.01259
C 28.23713 2.17433 0.01799
C 28.25457 0.74117 0.01699
C 27.03241 34.04851 -0.00416
C 29.50936 32.65203 0.01177
C 30.69862 31.97573 0.04266
C 30.63753 30.52693 0.01324
C 29.43929 29.90221 0.0014
C 29.45579 28.45569 0.00924
C 30.73374 27.69875 0.02326
C 31.96402 21.25937 -0.02383
C 30.7678 26.29141 0.00261
C 29.56309 24.13769 -0.02049
C 30.70494 23.36917 -0.01854
C 30.72597 21.98662 -0.01415
C 29.50193 21.26428 -0.03039
C 29.49923 19.86555 0.01836
C 30.7097 19.09777 0.03531
C 30.73982 17.72925 -0.00669
C 29.49551 17.02553 0.0101
C 29.52999 15.54757 0.01705
C 30.65785 14.79692 -0.0405
C 29.42342 25.55553 0.03265
C 31.95813 19.82901 -0.01429
C 33.11132 19.10828 -0.0136
C 33.20212 17.68174 0.00594
C 1.13578 23.3933 0.00723
C 1.1556 21.92534 0.02712
C 34.26922 21.31363 -0.02213
C 34.32793 19.84245 0.01951
C 1.16169 19.31936 -0.01678
C 1.24991 17.83902 0.01223
C 0.00495 17.08799 0.00648
C 34.36983 15.61311 0.02114
C 1.13262 14.8972 -0.02957
C 1.22557 13.48712 0.00343
C 34.42445 24.13835 0.03076
C 0.02241 12.81103 -0.02656
C 1.27018 10.67998 -0.00027
C 1.20775 9.20041 -0.00583
C 34.41408 8.49325 -0.02302
C 34.40468 7.05798 -0.02849
C 1.26166 6.44294 0.02931
C 1.22707 4.95406 0.00628
C 34.40109 4.24499 -0.0345
C 34.39035 2.77882 -0.00931
C 1.1266 2.08931 -0.00939
C 1.15913 0.58101 -0.00468
C 0.04459 11.31419 -0.02442
C 27.03228 4.26202 0.01495
C 0.01181 25.60017 -0.05239
C 1.23306 27.72955 -0.00439
C 31.94937 16.9508 -0.02474
C 31.8813 15.5842 0.00369
C 33.152 14.93816 0.00455
C 33.22118 13.4679 -0.00644
C 31.98078 12.7855 -0.01839
C 31.95812 11.26903 0.00137
C 33.20523 10.62109 0.00199
C 33.23902 9.21172 0.04381
C 31.98115 8.50169 0.02806
C 31.96247 7.084 0.01504
C 1.17157 26.32372 -0.00598
C 33.09498 6.38623 -0.00069
C 31.94491 4.27317 -0.03838
C 31.96174 2.79693 0.00349
C 33.14357 2.13254 -0.00323
C 33.16925 0.67498 -0.00841
C 31.9269 34.07869 0.0001
C 34.38654 32.59906 -0.02927
C 1.13574 31.96225 -0.01404
C 1.2102 30.46775 0.01027
C 34.41498 29.75728 0.01831
C 34.33092 28.3791 -0.01037
C 33.11362 4.93258 0.04926
C 28.29005 4.94639 0.00235
C 28.22951 6.34376 0.01094
C 27.00499 7.07322 0.02198
C 23.49512 19.18624 -0.02422
C 23.49658 17.79144 0.01277
C 22.18751 17.09885 0.00096
C 22.15755 15.57715 -0.01527
C 23.37864 14.87448 0.01087
C 23.38734 13.47647 0.00199
C 22.18678 12.73305 0.01511
C 22.15024 11.34749 -0.00478
C 23.3331 10.64057 -0.01662
C 23.3844 9.19036 -0.01185
C 22.18552 19.91461 -0.01721
C 22.08596 8.47159 0.01126
C 23.34834 6.34743 -0.00381
C 23.32273 4.9512 0.03046
C 22.14233 4.25245 0.0296
C 22.096 2.81135 0.03374
C 23.3662 2.08874 -0.02845
C 23.29347 0.67691 -0.03213
C 22.14096 33.96208 0.02239
C 24.57658 32.63808 0.01153
C 25.72432 31.92553 0.02734
C 25.74833 30.51939 -0.0055
C 22.05234 7.1104 0.01852
C 24.5581 29.68128 0.01515
C 22.09077 21.30002 -0.01154
C 23.38183 23.44687 -0.01594
C 19.65638 15.56948 -0.00111
C 20.92358 14.88223 -0.03557
C 20.87386 13.46305 0.03754
C 19.65274 12.68235 0.01739
C 19.6553 11.37887 0.00755
C 20.88565 10.67581 -0.0054
C 20.93416 9.22506 0.00667
C 19.59568 8.49539 0.00143
C 19.66016 7.12386 -0.017
C 20.82061 6.34111 0.00364
C 23.42982 22.02513 0.0106
C 20.91825 4.98387 -0.00831
C 19.612 2.83213 -0.04422
C 20.83963 2.08084 0.00654
C 20.9387 0.66963 -0.00703
C 19.66389 0.02796 -0.04076
C 22.10607 32.57226 -0.00652
C 23.35027 31.8924 0.0058
C 23.31542 30.44145 -0.00865
C 23.1964 26.28057 0.00675
C 22.08915 25.58425 -0.00311
C 22.07639 24.13075 0.00742
C 19.66055 4.22952 -0.02957
C 20.947 17.80119 0.01452
C 25.77728 27.82528 -0.00225
C 24.49225 25.67408 -0.01107
C 28.2532 30.58247 0.00367
C 27.05327 29.85334 0.04306
C 27.02962 28.48614 0.00996
C 28.22847 27.72066 0.00195
C 28.18997 26.26319 -0.00802
C 26.98144 25.6573 -0.00218
C 27.00666 24.18016 -0.01654
C 28.26252 23.47543 -0.00037
C 28.33959 22.09876 -0.0032
C 27.1312 21.3756 0.00622
C 28.25932 31.96884 -0.01679
C 27.10404 19.86465 -0.02815
C 28.25625 17.72323 0.00487
C 27.02694 17.01748 0.00826
C 27.0505 15.57414 -0.00294
C 28.24487 14.79154 0.00152
C 28.20084 13.43947 0.01257
C 26.99736 12.75277 0.02316
C 27.0242 11.30658 0.04185
C 28.24183 10.56457 0.00194
C 28.27918 9.15414 -0.00621
C 27.02005 8.49121 0.02611
C 28.27351 19.08687 -0.00942
C 25.68685 26.39093 0.00071
C 27.04702 32.64671 -0.01052
C 25.77455 0.67905 -0.01154
C 24.56727 24.23918 -0.01586
C 25.80555 23.45393 -0.01971
C 25.80365 22.06475 -0.02118
C 24.58616 21.38984 0.00733
C 24.66504 19.90784 -0.00178
C 25.87177 19.15465 0.00768
C 25.8711 17.76606 -0.0276
C 24.6304 17.0493 0.03005
C 24.69546 15.56706 -0.04078
C 25.88439 14.89736 0.02117
C 24.51337 34.03969 0.00684
C 25.81557 13.41193 0.02737
C 24.61509 11.29167 0.00135
C 25.89871 10.57981 0.03102
C 25.84299 9.18382 0.02555
C 24.58779 8.46321 0.01423
C 24.56277 6.9988 -0.00285
C 25.77033 6.34086 -0.009
C 25.86327 4.96458 -0.01199
C 24.57393 4.26101 -0.00229
C 24.54712 2.86453 -0.00938
C 25.84561 2.1127 -0.0264
C 24.63501 12.78991 -0.00498
C 2.36633 32.69093 0.01138
