363
Graphene
C 34.36078 0.02181 0.01295
C 13.55444 31.91588 -0.03682
C 12.3404 20.06223 0.01965
C 13.83134 17.79515 0.02058
C 12.51257 17.27014 -0.01957
C 12.35003 15.78933 -0.0108
C 13.54308 15.02559 -0.00368
C 13.56214 13.62141 -0.02696
C 12.31571 12.89625 -0.00114
C 12.38589 32.56408 0.00052
C 12.37645 11.53461 0.00228
C 13.46896 9.2711 0.00422
C 12.33024 8.48456 0.0351
C 12.27777 7.06896 -0.03113
C 13.48346 6.39619 0.02098
C 13.49965 4.86459 0.01848
C 12.27546 4.13883 -0.00619
C 12.25055 2.70682 -0.02162
C 13.51031 2.05983 0.00889
C 13.56224 10.76808 0.00798
C 9.8228 34.00989 0.00374
C 11.06201 0.55307 -0.02813
C 11.07324 2.00834 -0.01952
C 9.57693 24.42393 -0.01789
C 9.85014 21.31121 0.00444
C 9.8619 19.98109 -0.00925
C 11.18404 19.34097 0.01877
C 11.22522 17.87982 0.01363
C 10.00359 17.20314 -0.02162
C 9.99303 15.77545 0.00415
C 11.12588 15.04277 -0.0014
C 11.06059 13.58396 0.02162
C 9.94559 12.78422 0.0076
C 9.92512 11.47383 0.01241
C 11.16427 10.73201 -0.01454
C 11.11261 9.27777 0.01945
C 9.91006 8.58271 0.01416
C 9.84679 7.10622 0.03542
C 11.06482 6.39909 0.02299
C 11.09987 4.9485 0.00244
C 9.85949 4.17018 -0.01717
C 9.85323 2.75909 0.05265
C 13.57309 0.68575 -0.00481
C 12.305 34.00034 0.00979
C 14.68699 32.59871 0.01443
C 15.04368 17.17012 0.03505
C 18.47013 9.25985 0.03754
C 17.25007 8.43523 0.01739
C 17.25909 6.9897 0.00755
C 18.53595 6.35165 -0.0054
C 18.41273 4.95452 0.00667
C 17.22072 4.18976 0.00143
C 17.20873 2.84844 -0.017
C 18.41994 1.99434 0.00364
C 18.38634 0.5521 -0.00831
C 17.15702 34.03039 -0.02957
C 20.39352 17.02941 -0.04422
C 19.86039 15.68143 0.00654
C 20.91039 14.72783 -0.00703
C 20.93799 13.33194 -0.04076
C 19.60987 12.76884 -0.00652
C 19.67913 11.28097 0.0058
C 20.91595 10.59568 -0.00865
C 20.98538 9.17167 0.00675
C 19.73775 8.48878 -0.00311
C 18.39422 10.65685 -0.03557
C 9.60197 25.62041 0.02894
C 17.28247 11.42651 -0.00111
C 18.46487 13.5927 0.01452
C 14.79676 15.7237 -0.02815
C 15.94657 14.92008 -0.04147
C 16.00536 13.53192 -0.05302
C 14.78003 12.84401 0.00213
C 14.83023 11.40105 -0.00066
C 16.04437 10.66842 -0.00289
C 15.93698 9.29896 0.00028
C 14.73799 8.54598 -0.02213
C 14.6914 7.11734 0.03698
C 15.93391 6.317 -0.00109
C 15.97811 4.87165 -0.00491
C 14.66111 4.21801 0.03338
C 14.6634 2.79542 -0.0258
C 15.98414 2.12882 -0.0331
C 16.01661 0.60213 -0.00316
C 14.74232 33.97712 0.02188
C 16.38401 17.15154 -0.01979
C 17.11367 15.90056 0.02691
C 18.44919 15.15011 -0.01581
C 17.28453 12.84313 0.04892
C 19.77011 7.08736 0.00742
C 9.66958 28.39935 -0.02971
C 10.96051 30.42178 0.02819
C 3.75193 5.09157 -0.01378
C 2.4633 4.38828 0.02635
C 2.32841 3.03056 0.0127
C 3.57181 2.21314 0.01396
C 3.52434 0.83488 0.01849
C 2.34375 0.08744 -0.01142
C 4.81445 32.71185 -0.00562
C 6.01366 31.99768 -0.00494
C 3.72857 6.54933 -0.01303
C 6.0632 30.65489 0.00054
C 4.7414 28.49138 -0.00095
C 5.93162 27.76369 0.01572
C 5.99302 26.3268 -0.04848
C 4.78328 25.64092 -0.00892
C 4.8134 24.28271 -0.01362
C 6.07025 23.47982 -0.0008
C 6.09001 22.03575 0.0288
C 4.89858 21.26585 0.00393
C 4.84952 29.89308 0.03007
C 2.48869 7.22129 0.00848
C 2.4611 8.69292 -0.00049
C 3.75259 9.33244 0.00873
C 3.59918 30.57599 -0.00643
C 2.34491 29.93543 0.017
C 2.25462 28.50761 -0.03113
C 3.47944 27.81513 -0.02566
C 3.53069 26.40775 -0.00094
C 2.42791 25.61574 0.02322
C 2.45882 24.19344 -0.00725
C 3.66527 23.40747 -0.05697
C 3.65393 21.99888 0.01087
C 2.41074 21.3788 -0.01343
C 2.51447 19.88872 0.00988
C 3.71762 19.12403 0.0276
C 3.73332 17.72909 0.01305
C 2.4538 17.12879 -0.00077
C 2.57294 15.73191 0.03368
C 3.78611 15.22653 -0.02929
C 2.46072 12.82327 -0.00966
C 2.48608 11.48474 -0.03337
C 3.73287 10.76261 0.01227
C 4.97021 19.84899 0.00895
C 6.1014 18.98837 0.00685
C 6.12646 17.51543 0.02888
C 4.69502 16.67345 -0.00482
C 7.34177 21.27167 -0.00033
C 7.35491 19.84183 0.03589
C 8.56516 19.20268 -0.02759
C 8.68122 17.77034 0.0402
C 7.50548 17.07254 0.00572
C 7.54433 11.41482 0.03592
C 8.7029 10.66312 0.00406
C 8.70237 9.27305 0.00943
C 7.45579 8.61185 0.02841
C 7.31464 7.20727 -0.01111
C 8.56682 6.4616 -0.01275
C 8.62763 5.08977 0.00985
C 7.36597 4.29794 -0.02245
C 7.40715 2.8208 -0.00428
C 8.64671 2.0828 0.03101
C 8.61132 0.60948 -0.01536
C 7.34933 34.01169 -0.02689
C 9.7845 32.55496 -0.01046
C 10.97255 31.81651 -0.00891
C 8.58409 21.98851 -0.01062
C 9.77301 29.75178 0.00165
C 8.51274 23.45654 0.01364
C 7.15598 25.58175 0.01641
C 4.9597 11.44795 -0.01384
C 6.24909 10.90748 0.03693
C 6.30728 9.42863 0.01745
C 5.10808 8.69693 0.00488
C 4.95714 7.29075 -0.01004
C 6.14116 6.44598 -0.02896
C 6.12244 5.01917 -0.00131
C 4.85951 4.29112 -0.01118
C 4.83934 2.86717 -0.014
C 6.07124 2.16252 0.02147
C 6.1125 0.72905 0.00373
C 4.88566 0.07751 -0.00191
C 7.2939 32.62198 0.00438
C 8.5397 31.876 0.01291
C 8.60282 30.53202 0.00093
C 7.29123 29.92867 0.00057
C 7.19472 28.48363 -0.01634
C 8.40818 27.73649 -0.00334
C 8.4177 26.34034 0.02339
C 7.26774 24.19664 -0.00719
C 3.57438 32.03683 0.0086
C 20.88593 6.26936 -0.01594
C 19.63365 4.15217 -0.01154
C 29.45788 0.0624 0.00346
C 31.80241 32.60795 0.01713
C 33.05834 32.02756 -0.01694
C 33.01242 30.58623 0.01428
C 31.81384 29.848 -0.02142
C 31.7507 28.45627 0.0544
C 33.04511 27.71169 0.00026
C 33.08998 26.30537 0.00682
C 30.72353 0.72783 0.00307
C 31.84517 25.61504 -0.01779
C 33.11074 23.44454 0.01927
C 33.13298 22.09841 0.01574
C 31.87526 21.37568 -0.02383
C 31.95831 20.00788 -0.01429
C 33.14545 19.23275 -0.0136
C 33.1036 17.77738 0.00594
C 31.88776 17.06817 -0.02474
C 31.92288 15.65981 0.00369
C 31.8727 24.14409 0.03794
C 30.73266 2.14396 0.00716
C 29.57242 2.87872 0.02108
C 29.57285 4.235 0.0103
C 29.36449 24.13597 -0.02049
C 30.68081 23.50051 -0.01854
C 30.65918 22.11245 -0.01415
C 29.50112 21.3189 -0.03039
C 29.51942 19.84499 0.01836
C 30.7537 19.19331 0.03531
C 30.72064 17.74465 -0.00669
C 29.45655 17.08141 0.0101
C 29.44232 15.66045 0.01705
C 30.62977 14.90528 -0.0405
C 30.64674 13.50311 -0.01303
C 29.38104 12.77327 -0.01461
C 29.49339 11.34827 -0.02155
C 30.74207 10.65433 -0.00944
C 30.7698 9.24977 -0.03735
C 29.57857 8.41124 -0.00971
C 29.4969 7.04811 0.01518
C 30.76569 6.43322 0.01908
C 30.81219 4.98037 0.07705
C 33.17757 14.95106 0.00455
C 33.19179 13.51365 -0.00644
C 31.94166 12.77583 -0.01839
C 31.96248 11.44407 0.00137
C 34.35976 19.90893 0.01951
C 1.29006 19.18746 -0.01678
C 1.19251 17.79918 0.01223
C 34.36408 17.17135 0.00648
C 34.39564 15.63464 0.02114
C 1.26504 15.03903 -0.02957
C 1.32183 13.66489 0.00343
C 0.00072 12.87535 -0.02656
C 34.3883 11.3702 -0.02442
C 1.18985 10.67373 -0.00027
C 1.21177 9.27222 -0.00583
C 0.0512 8.61147 -0.02302
C 34.41305 7.15561 -0.02849
C 1.29731 6.43503 0.02931
C 1.24195 5.0254 0.00628
C 34.43225 4.26919 -0.0345
C 34.31367 2.83178 -0.00931
C 1.14058 2.26485 -0.00939
C 1.15663 0.86402 -0.00468
C 34.42176 21.3514 -0.02213
C 29.36015 25.56655 0.03265
C 1.19752 22.00743 0.02712
C 34.4292 24.15955 0.03076
C 33.20436 10.66129 0.00199
C 33.25648 9.27907 0.04381
C 31.97847 8.50816 0.02806
C 31.97398 7.1435 0.01504
C 33.24018 6.44693 -0.00069
C 33.22723 5.07134 0.04926
C 32.00966 4.30247 -0.03838
C 31.95319 2.94693 0.00349
C 33.1575 2.0936 -0.00323
C 33.14159 0.68488 -0.00841
C 31.91649 34.07532 0.0001
C 34.30159 32.69737 -0.02927
C 1.13847 32.04961 -0.01404
C 1.19572 30.60965 0.01027
C 34.26137 29.89239 0.01831
C 34.2453 28.52958 -0.01037
C 1.08883 27.782 -0.00439
C 1.2073 26.27926 -0.00598
C 34.32906 25.53361 -0.05239
C 1.21472 23.43843 0.00723
C 20.86558 4.84088 0.0106
C 30.61081 26.30292 0.00261
C 29.28621 28.40609 0.00924
C 23.23012 0.69854 0.01515
C 22.07191 33.89028 -0.00225
C 24.59805 32.73356 0.00071
C 25.76605 31.94424 -0.01107
C 25.39546 30.5162 -0.01586
C 23.96562 30.63494 -0.01971
C 25.88797 27.10541 -0.02118
C 25.91968 22.31226 0.00733
C 23.33908 2.11993 -0.0055
C 24.53657 19.73606 -0.00178
C 25.70763 17.72612 -0.0276
C 24.41374 17.07268 0.03005
C 24.49615 15.56843 -0.04078
C 25.79497 14.88793 0.02117
C 25.82309 13.47888 0.02737
C 24.56292 12.6413 -0.00498
C 24.54036 11.22399 0.00135
C 25.83849 10.56891 0.03102
C 25.77432 19.22291 0.00768
C 22.13203 2.82093 0.02734
C 22.10022 4.23619 0.01153
C 23.38307 4.91515 0.02239
C 19.6527 2.775 -0.01721
C 20.90387 2.14369 -0.02422
C 20.78964 0.6619 0.01277
C 19.57581 34.00075 0.00096
C 22.34462 32.48783 -0.01527
C 23.38052 31.63994 0.01087
C 23.35154 19.04901 0.00199
C 23.09241 17.75891 0.01511
C 22.14616 16.84765 -0.00478
C 22.09737 15.45676 -0.01662
C 23.32155 14.79566 -0.01185
C 23.39357 13.45271 0.01126
C 22.16465 12.66434 0.01852
C 22.17208 11.2651 -0.00381
C 23.31548 10.5299 0.03046
C 23.33455 9.11144 0.0296
C 22.13111 8.39145 0.03374
C 22.10325 7.00438 -0.02845
C 23.29863 6.36843 -0.03213
C 25.85228 9.16006 0.02555
C 24.62659 8.44767 0.01423
C 24.54427 7.12706 -0.00285
C 25.75237 6.36601 -0.009
C 28.23677 14.95503 0.00152
C 28.24045 13.50553 0.01257
C 27.042 12.71056 0.02316
C 27.03708 11.30644 0.04185
C 28.24235 10.64322 0.00194
C 28.31493 9.2057 -0.00621
C 27.05987 8.39904 0.02611
C 27.057 6.96881 0.02198
C 28.27659 6.31504 0.01094
C 28.2677 4.91352 0.00235
C 26.99187 4.17299 0.01495
C 27.05102 2.8158 0.01259
C 28.31796 2.10238 0.01799
C 28.17455 0.68548 0.01699
C 26.9672 34.04893 -0.00416
C 29.41754 32.73831 0.01177
C 30.60349 31.89625 0.04266
C 30.52381 30.47591 0.01324
C 29.31068 29.81047 0.0014
C 26.98689 15.57749 -0.00294
C 30.55461 27.70965 0.02326
C 26.94768 17.00974 0.00826
C 28.16671 19.09171 -0.00942
C 25.7789 4.92644 -0.01199
C 24.54544 4.15181 -0.00229
C 24.60681 2.75139 -0.00938
C 25.75179 2.06543 -0.0264
C 25.80587 0.71372 -0.01154
C 24.42065 34.07601 0.00684
C 26.97751 32.66842 -0.01052
C 28.17686 31.95712 -0.01679
C 28.02868 30.51342 0.00367
C 26.65647 29.72607 0.04306
C 26.75325 28.22694 0.00996
C 28.1519 27.64278 0.00195
C 28.09055 26.19107 -0.00802
C 26.74505 25.57087 -0.00218
C 26.85051 24.18582 -0.01654
C 28.11979 23.40532 -0.00037
C 28.17272 21.92681 -0.0032
C 26.88073 21.33852 0.00622
C 27.02135 19.8992 -0.02815
C 28.1696 17.68325 0.00487
C 2.34332 32.72993 -0.00518
