366
Graphene
C 0.01477 0.09622 0.01295
C 14.54312 21.42958 0.00374
C 15.06223 9.57572 0.00052
C 15.64511 8.42189 -0.03682
C 14.7232 7.4144 0.01965
C 16.05617 4.4412 0.02058
C 14.75677 3.99722 -0.01957
C 14.73845 2.59102 -0.0108
C 16.03861 2.0163 -0.00368
C 15.84255 22.13059 -0.02813
C 16.03806 0.66952 -0.02696
C 17.28741 32.72656 0.00228
C 18.33362 31.86761 0.00798
C 18.30159 30.55458 0.00422
C 17.04286 29.88634 0.0351
C 16.72284 28.53122 -0.03113
C 18.15856 27.79836 0.02098
C 18.185 26.36772 0.01848
C 16.97561 25.72209 -0.00619
C 14.84697 33.98563 -0.00114
C 15.82634 23.47462 -0.01952
C 14.57322 24.09432 0.05265
C 14.63443 25.52305 -0.01717
C 11.15697 0.48661 -0.02971
C 9.82828 0.00633 0.02894
C 12.65494 28.52025 -0.01789
C 13.78125 27.70097 0.00444
C 13.46459 26.24853 -0.00925
C 12.25435 25.59098 0.01877
C 12.20925 24.13154 0.01363
C 13.33874 23.35363 -0.02162
C 13.26023 22.02331 0.00415
C 12.37849 7.02868 -0.0014
C 13.68052 6.49548 0.02162
C 13.66472 4.82317 0.0076
C 12.39839 4.17998 0.01241
C 12.32523 2.73456 -0.01454
C 13.46596 1.85544 0.01945
C 13.52316 0.3706 0.01416
C 12.06417 33.51949 0.03542
C 15.40512 27.75696 0.02299
C 15.73582 26.37428 0.00244
C 17.11401 24.24981 -0.02162
C 18.23497 23.46731 0.00889
C 18.24971 21.98195 -0.00481
C 17.02907 21.26857 0.00979
C 20.86869 19.16802 -0.00111
C 20.85951 17.65018 -0.03557
C 19.60608 16.9594 0.03754
C 19.62533 15.53678 0.01739
C 20.87092 14.82641 0.00755
C 20.85202 13.32776 -0.0054
C 19.5756 12.64861 0.00667
C 19.74905 10.84681 0.00143
C 20.96611 10.32492 -0.017
C 19.71315 2.947 0.00364
C 20.96183 2.17832 -0.00831
C 20.93311 0.79598 -0.02957
C 19.70411 0.02965 -0.04422
C 22.14859 32.57405 0.00654
C 23.43857 31.9193 -0.00703
C 23.37946 30.50475 -0.04076
C 22.0851 29.79315 -0.00652
C 21.99382 28.30757 0.0058
C 23.23659 27.56568 -0.00865
C 19.55644 19.80033 0.04892
C 11.15021 2.00767 0.00165
C 19.48611 21.2584 0.01452
C 20.76861 23.391 0.02691
C 17.01053 19.8354 0.01443
C 18.25059 19.09215 0.03505
C 18.24441 17.66109 -0.02815
C 18.48297 14.61872 -0.04147
C 18.53172 13.46685 -0.05302
C 18.38069 10.91283 0.00213
C 17.05555 2.99132 -0.00066
C 18.44601 2.36691 -0.00289
C 18.43169 0.76045 0.00028
C 17.23207 0.02908 -0.02213
C 19.57485 32.65938 0.03698
C 20.84328 31.90507 -0.00109
C 20.78744 30.5309 -0.00491
C 19.53112 29.84063 0.03338
C 19.48079 28.42073 -0.0258
C 20.69102 27.62777 -0.0331
C 20.70175 26.24879 -0.00316
C 19.40249 25.55858 0.02188
C 19.49821 24.12726 -0.01979
C 20.7123 21.95424 -0.01581
C 9.96301 2.80437 0.02819
C 10.0038 4.20995 -0.00891
C 11.22224 4.86003 -0.01046
C 3.68703 6.47713 -0.00049
C 3.62191 5.10142 0.00848
C 2.43091 4.33032 -0.01303
C 2.41204 2.96283 -0.01378
C 3.64362 2.22528 0.02635
C 3.65732 0.80739 0.0127
C 2.40197 0.08649 0.01396
C 4.95884 32.64909 0.01849
C 6.19236 32.05845 -0.01142
C 6.13939 30.57064 -0.00562
C 4.91496 29.9221 -0.00494
C 4.9365 28.54442 0.00054
C 6.17017 27.80476 0.03007
C 6.15647 26.35634 -0.00095
C 4.8415 25.68115 0.01572
C 4.80459 24.21743 -0.04848
C 6.07385 23.53161 -0.00892
C 6.11988 22.05345 -0.01362
C 4.9909 21.30428 -0.0008
C 2.5126 7.2396 0.00873
C 4.94238 19.87651 0.0288
C 2.48456 8.68027 0.01227
C 3.69838 10.92819 -0.00966
C 3.57453 30.58656 -0.00074
C 2.32809 29.95425 -0.00518
C 2.38749 28.51668 0.0086
C 3.57344 27.88058 -0.00643
C 3.57979 26.49669 0.017
C 2.40118 25.61729 -0.03113
C 2.41526 24.1306 -0.02566
C 3.59429 23.46781 -0.00094
C 3.56271 22.05414 0.02322
C 2.42455 21.33163 -0.00725
C 2.4563 19.8934 -0.05697
C 3.76262 19.18321 0.01087
C 3.7457 17.66407 -0.01343
C 2.5125 16.9928 0.00988
C 2.47911 15.57257 0.0276
C 3.65415 14.70459 0.01305
C 3.73994 13.32743 -0.00077
C 2.37919 12.8145 0.03368
C 2.33359 11.45369 -0.02929
C 3.73791 9.43617 -0.03337
C 23.17336 26.16053 0.00675
C 4.73858 11.87652 0.00393
C 4.93361 8.68796 0.00685
C 8.6545 5.00144 0.01364
C 7.39731 4.22782 -0.01062
C 7.41124 2.78599 -0.00033
C 8.65744 2.16847 0.03589
C 8.64708 0.75766 -0.02759
C 7.45383 0.00363 0.0402
C 9.89398 32.75055 0.00572
C 11.34339 32.2615 0.03592
C 11.31413 30.80774 0.00406
C 10.04583 29.96021 0.00943
C 9.99152 28.62464 0.02841
C 11.31823 27.91876 -0.01111
C 11.07662 26.50316 -0.01275
C 9.80523 25.75402 0.00985
C 9.75605 24.30632 -0.02245
C 10.94145 23.45417 -0.00428
C 10.73978 22.0435 0.03101
C 9.84856 7.24194 -0.01536
C 11.13988 6.50398 -0.02689
C 8.63403 6.41228 -0.00719
C 6.22344 9.15977 0.00895
C 7.41885 7.21445 0.01641
C 7.46166 21.48759 -0.00334
C 4.89775 7.1888 0.02888
C 6.14199 6.52804 -0.00482
C 6.13813 5.01223 -0.01384
C 4.86253 4.3453 0.03693
C 4.87506 2.9063 0.01745
C 6.13646 2.16819 0.00488
C 6.13596 0.72554 -0.01004
C 4.90395 0.02 -0.02896
C 7.43719 32.6899 -0.00131
C 8.71292 31.99447 -0.01118
C 8.72934 30.57848 -0.014
C 7.40072 29.86794 0.02147
C 7.41521 28.49521 0.00373
C 8.64538 27.84236 -0.00191
C 8.63496 26.43032 0.00438
C 7.37441 25.64538 0.01291
C 7.34698 24.28509 0.00093
C 8.57063 23.50915 0.00057
C 8.65399 22.08798 -0.01634
C 7.26863 8.60121 0.02339
C 21.93292 25.48218 -0.00311
C 22.01831 24.04002 0.00742
C 23.27355 23.33681 -0.01594
C 30.71999 0.71674 0.00307
C 29.49756 34.02556 0.00346
C 31.92424 32.7244 0.01713
C 33.09594 32.02884 -0.01694
C 33.08761 30.57391 0.01428
C 31.83027 29.89063 -0.02142
C 31.91597 28.46235 0.0544
C 33.1127 27.72313 0.00026
C 33.07819 26.29992 0.00682
C 31.87197 25.595 -0.01779
C 31.86594 24.21744 0.03794
C 33.10222 23.50472 0.01927
C 33.09748 22.06013 0.01574
C 31.91783 21.36031 -0.02383
C 31.94297 19.90842 -0.01429
C 33.17361 19.20336 -0.0136
C 33.11228 17.80724 0.00594
C 31.91556 17.06889 -0.02474
C 31.97708 15.5912 0.00369
C 30.75961 2.10834 0.00716
C 33.23579 14.89496 0.00455
C 29.57409 2.88667 0.02108
C 30.73013 4.99753 0.07705
C 29.35437 25.55036 0.03265
C 29.38414 24.04686 -0.02049
C 30.67714 23.4486 -0.01854
C 30.64709 22.02221 -0.01415
C 29.46142 21.29121 -0.03039
C 29.45513 19.86611 0.01836
C 30.64299 19.12673 0.03531
C 30.67042 17.74027 -0.00669
C 29.43159 17.07557 0.0101
C 29.42307 15.64296 0.01705
C 30.66986 14.95247 -0.0405
C 30.69206 13.5393 -0.01303
C 29.53363 12.81011 -0.01461
C 29.5058 11.38064 -0.02155
C 30.7673 10.65307 -0.00944
C 30.78057 9.31668 -0.03735
C 29.64146 8.51366 -0.00971
C 29.66342 7.08539 0.01518
C 30.82896 6.45389 0.01908
C 29.43372 4.28328 0.0103
C 30.56593 26.28824 0.00261
C 33.18436 13.52365 -0.00644
C 31.97372 11.39291 0.00137
C 34.41622 19.92012 0.01951
C 1.29207 19.24245 -0.01678
C 1.25199 17.86579 0.01223
C 34.42089 17.1483 0.00648
C 0.00127 15.74344 0.02114
C 1.2141 14.94635 -0.02957
C 1.18155 13.50492 0.00343
C 34.41164 12.70542 -0.02656
C 34.4109 11.35943 -0.02442
C 1.13388 10.71661 -0.00027
C 1.24187 9.2796 -0.00583
C 0.0621 8.56663 -0.02302
C 0.0695 7.17273 -0.02849
C 1.23214 6.48268 0.02931
C 1.19529 5.0655 0.00628
C 34.42343 4.34659 -0.0345
C 34.39751 2.91453 -0.00931
C 1.25824 2.23593 -0.00939
C 1.20927 0.85218 -0.00468
C 34.42649 21.31377 -0.02213
C 31.90996 12.86943 -0.01839
C 1.19985 22.03616 0.02712
C 34.35298 24.12559 0.03076
C 33.1661 10.64166 0.00199
C 33.30176 9.293 0.04381
C 32.06382 8.58019 0.02806
C 32.00164 7.13581 0.01504
C 33.28374 6.4863 -0.00069
C 33.1553 5.01238 0.04926
C 31.92985 4.24317 -0.03838
C 31.99316 2.82982 0.00349
C 33.17248 2.1325 -0.00323
C 33.17955 0.74504 -0.00841
C 31.94475 0.05207 0.0001
C 34.33243 32.7308 -0.02927
C 1.15201 32.10972 -0.01404
C 1.12488 30.66754 0.01027
C 34.33822 29.88199 0.01831
C 34.39859 28.41804 -0.01037
C 1.13742 27.70771 -0.00439
C 1.14254 26.33676 -0.00598
C 34.35162 25.55498 -0.05239
C 1.19688 23.43236 0.00723
C 3.65062 31.97611 0.01465
C 30.68263 27.69402 0.02326
C 29.42876 29.86642 0.0014
C 25.74433 30.49925 0.02734
C 24.59249 29.77564 -0.0055
C 24.47724 28.30194 0.01515
C 25.70023 27.55743 -0.00225
C 25.63845 26.23766 0.00071
C 24.41009 25.5115 -0.01107
C 24.50599 24.1326 -0.01586
C 25.70115 23.39968 -0.01971
C 25.69269 21.98226 -0.02118
C 24.55747 21.23368 0.00733
C 24.54264 19.72915 -0.00178
C 25.73338 19.1158 0.00768
C 25.75204 17.76506 -0.0276
C 24.51639 17.02589 0.03005
C 24.46151 15.58628 -0.04078
C 25.74725 14.90799 0.02117
C 25.80878 13.35976 0.02737
C 24.54914 12.68607 -0.00498
C 24.52381 11.29836 0.00135
C 25.78585 31.90021 0.01153
C 25.79551 10.68812 0.03102
C 24.62543 32.7253 0.02239
C 23.38029 0.69467 -0.02845
C 23.23294 21.90135 0.0106
C 21.98659 21.27113 -0.01154
C 22.08493 19.88024 -0.01721
C 23.26039 19.115 -0.02422
C 23.33963 17.68747 0.01277
C 22.09394 16.986 0.00096
C 22.05393 15.56674 -0.01527
C 23.36429 14.81155 0.01087
C 23.37344 13.42812 0.00199
C 22.03514 12.65723 0.01511
C 22.08837 11.172 -0.00478
C 23.27772 10.46992 -0.01662
C 23.36555 9.06029 -0.01185
C 22.59857 7.88066 0.01126
C 23.28411 6.56219 0.01852
C 23.11456 5.17727 -0.00381
C 22.07273 4.30383 0.03046
C 22.16911 2.80949 0.0296
C 23.29775 2.15501 0.03374
C 22.15239 33.98332 -0.03213
C 29.41239 28.38365 0.00924
C 25.89217 9.25115 0.02555
C 24.66495 7.11588 -0.00285
C 27.01315 15.6135 -0.00294
C 28.2402 14.89757 0.00152
C 28.29939 13.48554 0.01257
C 27.0563 12.67384 0.02316
C 27.0223 11.34012 0.04185
C 28.24644 10.59786 0.00194
C 28.34198 9.15614 -0.00621
C 27.11957 8.4711 0.02611
C 27.05644 7.07324 0.02198
C 28.35268 6.40474 0.01094
C 28.26388 4.92769 0.00235
C 26.97022 4.27159 0.01495
C 27.00298 2.84609 0.01259
C 28.27409 2.10442 0.01799
C 28.27902 0.67758 0.01699
C 27.00759 0.02788 -0.00416
C 29.49586 32.62054 0.01177
C 30.79642 31.91614 0.04266
C 30.62612 30.6291 0.01324
C 26.96257 16.99374 0.00826
C 24.69268 8.57124 0.01423
C 28.15912 17.71821 0.00487
C 27.02304 19.90702 -0.02815
C 25.78019 6.44081 -0.009
C 25.78508 4.95486 -0.01199
C 24.36457 4.32333 -0.00229
C 24.56947 2.90003 -0.00938
C 25.70797 2.17835 -0.0264
C 25.79941 0.7647 -0.01154
C 24.60594 34.0609 0.00684
C 26.93198 32.65198 -0.01052
C 28.30999 31.94633 -0.01679
C 28.18577 30.50713 0.00367
C 27.02338 29.8469 0.04306
C 26.9441 28.34698 0.00996
C 28.19366 27.67056 0.00195
C 28.13095 26.17897 -0.00802
C 26.94708 25.48611 -0.00218
C 26.95407 24.05703 -0.01654
C 28.17974 23.30359 -0.00037
C 28.20663 21.94169 -0.0032
C 26.96473 21.27777 0.00622
C 28.16941 19.19222 -0.00942
C 2.40029 32.72927 -0.03996
