419
Graphene
C 34.34155 34.02408 0.01295
C 13.47333 27.79409 0.00943
C 13.48703 26.34961 0.02841
C 12.28135 25.6322 -0.01111
C 12.21269 24.11788 -0.01275
C 13.35723 23.40804 0.00985
C 13.50749 22.02955 -0.02245
C 12.25081 21.34573 -0.00428
C 12.30713 19.90455 0.03101
C 13.58139 19.21348 -0.01536
C 13.54673 17.76135 -0.02689
C 12.27512 28.52877 0.00406
C 12.27214 17.0818 -0.01046
C 13.55223 14.85461 0.02819
C 13.51876 13.40582 0.00165
C 12.3125 12.70222 -0.02971
C 12.3207 11.29779 0.02894
C 13.56976 10.57329 -0.01789
C 13.55139 9.23415 0.00444
C 12.31281 8.53768 -0.00925
C 12.29498 7.05743 0.01877
C 13.49918 6.32443 0.01363
C 13.57563 4.90627 -0.02162
C 12.24114 15.66856 -0.00891
C 12.29499 4.19602 0.00415
C 12.25399 29.94561 0.03592
C 13.48456 32.00804 0.0402
C 9.91021 21.37703 -0.01004
C 9.84249 19.95764 -0.02896
C 11.02696 19.22628 -0.00131
C 11.03775 17.7952 -0.01118
C 9.85049 17.04393 -0.014
C 9.9115 15.55589 0.02147
C 11.1015 14.86088 0.00373
C 11.15689 13.41264 -0.00191
C 9.84932 12.82712 0.00438
C 9.83568 11.46664 0.01291
C 13.49677 30.62785 0.00572
C 10.99547 10.70574 0.00093
C 9.81872 8.51615 -0.01634
C 9.77958 7.05243 -0.00334
C 11.02878 6.34565 0.02339
C 11.02374 4.95738 0.01641
C 9.75248 4.29205 -0.00719
C 9.73333 2.90203 0.01364
C 10.94384 2.14895 -0.01062
C 11.05022 0.81792 -0.00033
C 9.86514 0.04038 0.03589
C 12.25269 32.76597 -0.02759
C 11.0913 9.25695 0.00057
C 12.18572 2.84479 -0.0014
C 13.52106 2.12143 0.02162
C 13.53984 0.74833 0.0076
C 16.01556 4.95687 0.01848
C 14.8466 4.21968 -0.00619
C 14.80691 2.88388 -0.02162
C 15.97477 2.18784 0.00889
C 15.97733 0.76537 -0.00481
C 14.75206 34.06059 0.00979
C 17.14695 32.69944 0.01443
C 18.33324 31.94061 0.03505
C 18.46708 30.52604 -0.02815
C 17.17927 29.82571 -0.04147
C 15.92881 6.36132 0.02098
C 17.12088 28.39696 -0.05302
C 18.36091 26.23256 -0.00066
C 17.12005 25.51358 -0.00289
C 17.15912 24.09365 0.00028
C 18.46424 23.42937 -0.02213
C 18.33324 22.00292 0.03698
C 17.16592 21.2733 -0.00109
C 17.22293 19.8369 -0.00491
C 18.44983 19.18512 0.03338
C 18.49479 17.80029 -0.0258
C 17.33429 17.03329 -0.0331
C 18.328 27.68779 0.00213
C 14.72941 7.07168 -0.03113
C 14.74035 8.47728 0.0351
C 16.04828 9.11588 0.00422
C 12.30348 0.08569 0.01241
C 14.70312 32.67481 -0.01454
C 15.94636 32.03444 0.01945
C 15.93743 30.56108 0.01416
C 14.71409 29.84579 0.03542
C 14.63484 28.42318 0.02299
C 15.87522 27.73632 0.00244
C 15.88272 26.25672 -0.01717
C 14.65083 25.57346 0.05265
C 14.65579 24.14488 -0.01952
C 15.92001 23.44195 -0.02813
C 15.9699 22.05544 0.00374
C 14.76411 21.37231 0.00052
C 14.76841 19.85165 -0.03682
C 16.04704 19.09162 0.01965
C 16.03372 17.72274 0.02058
C 14.75259 17.05353 -0.01957
C 14.80259 15.55327 -0.0108
C 16.03628 14.81293 -0.00368
C 15.99919 13.4801 -0.02696
C 14.78676 12.77745 -0.00114
C 14.76774 11.3154 0.00228
C 15.94673 10.588 0.00798
C 11.02108 22.07806 0.00488
C 17.31445 15.5285 -0.00316
C 11.02168 23.50698 0.01745
C 9.88556 25.70819 -0.01384
C 2.38951 2.8986 0.00208
C 3.61732 2.19432 0.01707
C 3.55874 0.77117 0.02769
C 2.33189 0.00033 -0.03291
C 4.83569 32.72164 -0.04999
C 6.12316 32.00575 0.04505
C 6.16329 30.55338 0.03284
C 4.87773 29.82121 -0.04307
C 4.86635 28.3954 0.03189
C 6.1352 27.78557 0.00031
C 2.34579 4.30613 -0.00561
C 6.14655 26.30219 -0.003
C 4.85436 24.17237 0.02379
C 6.07208 23.47931 0.00907
C 6.07569 22.10939 0.00643
C 4.88147 21.33975 -0.01509
C 4.86456 19.90806 0.03267
C 6.13031 19.17669 0.02374
C 6.14433 17.80231 0.00402
C 4.93404 17.09795 0.0073
C 4.92832 15.63951 0.0174
C 6.14824 14.91019 0.03828
C 4.95877 25.56574 0.01402
C 6.1381 13.52453 0.01226
C 3.61218 5.02681 -0.01977
C 2.44525 7.09959 -0.01979
C 3.66772 30.55575 0.00662
C 2.46183 29.80069 -0.0154
C 2.48155 28.37315 -0.01299
C 3.68833 27.65262 -0.00407
C 3.71984 26.24484 0.01138
C 2.48257 25.57813 0.03278
C 2.39098 24.11869 -0.00177
C 3.6317 23.38967 0.04421
C 3.63436 22.00946 0.00088
C 2.44331 21.25804 0.00828
C 3.6777 6.39677 0.02784
C 2.44313 19.8375 -0.02375
C 3.70008 17.72616 -0.0059
C 2.46837 17.0164 -0.01386
C 2.45676 15.64041 -0.02805
C 3.64043 14.97258 0.00081
C 3.60426 13.46685 0.00245
C 2.45667 12.75562 0.02728
C 2.47589 11.37144 -0.00039
C 3.6857 10.73153 0.0064
C 3.58046 9.27475 0.00211
C 2.37475 8.49922 -0.00449
C 3.6159 19.19264 0.00558
C 4.91786 12.82794 -0.00279
C 4.93213 11.4119 0.01996
C 6.18303 10.71427 -0.03996
C 8.58951 14.96509 -0.01378
C 8.63696 13.53589 0.02635
C 7.40403 12.75903 0.0127
C 7.44915 11.36084 0.01396
C 8.60301 10.67311 0.01849
C 8.56205 9.25766 -0.01142
C 7.39715 8.58961 -0.00562
C 7.32198 7.15904 -0.00494
C 8.52476 6.41183 0.00054
C 8.54444 5.00899 0.03007
C 7.32068 15.64835 -0.01303
C 7.29259 4.37943 -0.00095
C 8.55122 2.16157 -0.04848
C 8.55152 0.77236 -0.00892
C 7.33209 0.11575 -0.01362
C 9.79318 32.65836 -0.0008
C 11.01779 32.07097 0.0288
C 11.00912 30.69338 0.00393
C 9.83267 29.94692 0.00895
C 9.78401 28.44762 0.00685
C 10.99977 27.76722 0.02888
C 11.0583 26.32528 -0.00482
C 7.34025 2.91563 0.01572
C 7.36114 17.09806 0.00848
C 8.53998 17.81365 -0.00049
C 8.50799 19.23344 0.00873
C 6.08402 9.24517 0.01465
C 4.8235 8.59933 -0.00074
C 4.82812 7.15782 -0.00518
C 6.0367 6.51378 0.0086
C 6.04242 5.10711 -0.00643
C 4.82133 4.28399 0.017
C 4.87377 2.94973 -0.03113
C 6.08149 2.19093 -0.02566
C 6.13879 0.8141 -0.00094
C 4.82864 0.08133 0.02322
C 7.33417 32.88187 -0.00725
C 8.52405 32.03133 -0.05697
C 8.59689 30.60675 0.01087
C 7.35723 29.91542 -0.01343
C 7.3416 28.51021 0.00988
C 8.56618 27.76706 0.0276
C 8.60169 26.34706 0.01305
C 7.35862 25.58271 -0.00077
C 7.33921 24.14733 0.03368
C 8.56715 23.48282 -0.02929
C 8.63567 22.05658 -0.00966
C 7.39868 21.39326 -0.03337
C 7.37278 19.96589 0.01227
C 9.81423 24.19422 0.03693
C 3.64365 31.98187 0.00748
C 18.51491 14.80404 0.02188
C 17.26751 12.68931 0.02691
C 29.55698 11.2654 -0.02155
C 30.83349 10.64806 -0.00944
C 30.77583 9.10398 -0.03735
C 29.46556 8.49959 -0.00971
C 29.50155 7.0745 0.01518
C 30.67156 6.32197 0.01908
C 30.69315 4.95374 0.07705
C 29.47687 4.22878 0.0103
C 29.43548 2.73192 0.02108
C 30.67777 2.10024 0.00716
C 29.42725 12.68534 -0.01461
C 30.67114 0.66065 0.00307
C 31.97766 32.57421 0.01713
C 33.172 31.87425 -0.01694
C 33.17981 30.51831 0.01428
C 31.99295 29.78475 -0.02142
C 31.95689 28.27641 0.0544
C 33.1682 27.58637 0.00026
C 33.1123 26.19962 0.00682
C 31.86442 25.55456 -0.01779
C 31.87266 24.02205 0.03794
C 33.06784 23.34841 0.01927
C 29.4585 34.05544 0.00346
C 33.12644 21.97252 0.01574
C 30.61073 13.55224 -0.01303
C 30.83611 18.87793 0.01705
C 28.21838 9.17194 0.00235
C 27.0 8.49995 0.01495
C 27.05731 7.0733 0.01259
C 28.23562 6.35588 0.01799
C 28.22979 4.95833 0.01699
C 26.97646 4.29615 -0.00416
C 27.0164 2.92903 0.01177
C 28.14446 2.16823 0.04266
C 28.22987 0.73931 0.01324
C 26.95795 0.01998 0.0014
C 30.79418 14.96186 -0.0405
C 29.48675 32.63333 0.00924
C 30.7764 30.47184 0.00261
C 29.45597 29.71944 0.03265
C 29.49259 28.34705 -0.02049
C 30.72254 27.65433 -0.01854
C 30.65945 26.23818 -0.01415
C 29.35375 25.40056 -0.03039
C 29.45051 24.01898 0.01836
C 30.71397 23.29254 0.03531
C 30.73164 21.89626 -0.00669
C 29.45148 21.27217 0.0101
C 30.70582 31.94864 0.02326
C 31.90836 21.19913 -0.02383
C 31.88016 19.75587 -0.01429
C 33.23051 19.17533 -0.0136
C 1.17354 23.37965 0.00723
C 1.18997 21.98796 0.02712
C 34.39119 21.35483 -0.02213
C 34.42695 19.91913 0.01951
C 1.17041 19.17771 -0.01678
C 1.25902 17.74851 0.01223
C 0.05068 17.00348 0.00648
C 34.42993 15.55584 0.02114
C 1.19173 14.83534 -0.02957
C 1.24071 13.44479 0.00343
C 34.38082 24.04049 0.03076
C 34.39468 12.89181 -0.02656
C 1.19028 10.63463 -0.00027
C 1.15619 9.20026 -0.00583
C 34.33467 8.45413 -0.02302
C 34.36232 7.05364 -0.02849
C 1.21256 6.41929 0.02931
C 1.15314 4.95999 0.00628
C 34.37079 4.2242 -0.0345
C 34.36804 2.83328 -0.00931
C 1.13309 2.14066 -0.00939
C 1.10545 0.74566 -0.00468
C 34.39521 11.38465 -0.02442
C 34.35178 25.46017 -0.05239
C 1.20539 26.2643 -0.00598
C 1.17211 27.76649 -0.00439
C 33.23948 17.73377 0.00594
C 31.89714 17.33143 -0.02474
C 31.9077 15.85721 0.00369
C 33.14136 15.01942 0.00455
C 33.10617 13.61296 -0.00644
C 31.9209 12.81924 -0.01839
C 31.98733 11.42663 0.00137
C 33.17075 10.67083 0.00199
C 33.15224 9.16658 0.04381
C 31.94315 8.41037 0.02806
C 31.96092 6.98426 0.01504
C 33.15377 6.29359 -0.00069
C 33.19288 4.90765 0.04926
C 31.94835 4.27656 -0.03838
C 31.90579 2.83336 0.00349
C 33.18727 2.10261 -0.00323
C 33.15719 0.70178 -0.00841
C 31.86016 33.93585 0.0001
C 34.37651 32.60976 -0.02927
C 1.18095 31.94536 -0.01404
C 1.15538 30.54335 0.01027
C 34.41415 29.83627 0.01831
C 34.35457 28.34202 -0.01037
C 28.25762 10.58495 0.01094
C 18.5469 13.41592 -0.01979
C 27.10158 11.3584 0.02198
C 28.25481 23.28156 -0.00621
C 20.90515 17.8858 0.0106
C 19.78304 17.01782 -0.01154
C 19.84112 15.53196 -0.01721
C 21.01001 14.80728 -0.02422
C 21.17632 13.51207 0.01277
C 19.85719 12.75642 0.00096
C 19.69412 11.35401 -0.01527
C 20.85886 10.67743 0.01087
C 20.91909 9.25315 0.00199
C 19.68496 8.48804 0.01511
C 20.83011 19.23678 -0.01594
C 19.67388 7.07942 -0.00478
C 20.9337 5.02311 -0.01185
C 19.69158 4.3253 0.01126
C 19.64418 2.87146 0.01852
C 20.88113 2.12392 -0.00381
C 20.85689 0.73273 0.03046
C 19.62923 34.03492 0.0296
C 22.0978 32.70932 0.03374
C 23.24939 31.92254 -0.02845
C 23.31688 30.51129 -0.03213
C 22.02188 29.83036 0.02239
C 20.90184 6.3845 -0.01662
C 22.04969 28.46588 0.01153
C 19.59969 19.92503 0.00742
C 20.80971 22.15194 0.00675
C 17.21431 11.33636 -0.01581
C 18.44378 10.65182 0.01452
C 18.54801 9.29492 0.04892
C 17.25641 8.5283 -0.00111
C 17.17516 7.11832 -0.03557
C 18.35258 6.37127 0.03754
C 18.42682 4.95869 0.01739
C 17.2244 4.21648 0.00755
C 17.20493 2.86341 -0.0054
C 18.43044 2.10679 0.00667
C 19.63181 21.37908 -0.00311
C 18.46265 0.77169 0.00143
C 19.55931 32.53918 0.00364
C 20.79886 31.94558 -0.00831
C 20.84724 30.55816 -0.02957
C 19.64893 29.80534 -0.04422
C 19.58261 28.32023 0.00654
C 20.81647 27.69487 -0.00703
C 20.87684 26.27154 -0.04076
C 19.60213 25.52966 -0.00652
C 19.63045 24.15326 0.0058
C 20.84341 23.55175 -0.00865
C 17.23081 0.07464 -0.017
C 23.33432 27.69102 0.02734
C 23.32373 26.29639 -0.0055
C 22.10418 25.64445 0.01515
C 24.34366 12.87141 -0.01052
C 24.58494 11.44667 -0.01679
C 25.89437 10.68251 0.00367
C 25.80608 9.28403 0.04306
C 24.66891 8.55876 0.00996
C 24.65371 7.1529 0.00195
C 25.87148 6.32482 -0.00802
C 25.82916 4.92297 -0.00218
C 24.62337 4.22882 -0.01654
C 24.634 2.86007 -0.00037
C 25.76681 23.40178 0.00684
C 25.80303 2.12232 -0.0032
C 24.50829 0.03718 -0.02815
C 26.97251 32.6683 -0.00942
C 28.25728 31.98303 0.00487
C 28.20668 30.46651 0.00826
C 26.97664 29.82473 -0.00294
C 27.02912 28.40889 0.00152
C 28.30424 27.56782 0.01257
C 28.25655 26.18473 0.02316
C 26.99832 25.49434 0.04185
C 27.02058 24.03561 0.00194
C 25.74147 0.70317 0.00622
C 24.53755 24.17389 -0.01154
C 24.53248 25.59283 -0.0264
C 25.76914 26.21352 -0.00938
C 21.98457 24.29748 -0.00225
C 23.23662 23.49411 0.00071
C 23.20376 22.12785 -0.01107
C 22.05354 21.46174 -0.01586
C 22.44935 12.74642 -0.01971
C 22.22535 11.39368 -0.02118
C 23.43534 10.61989 0.00733
C 23.43639 9.31902 -0.00178
C 22.21531 8.56389 0.00768
C 22.11823 7.11338 -0.0276
C 23.36665 6.3819 0.03005
C 23.35957 4.95841 -0.04078
C 22.12931 4.22973 0.02117
C 22.11317 2.83582 0.02737
C 23.33862 2.13472 -0.00498
C 23.30431 0.76287 0.00135
C 22.09266 0.09458 0.03102
C 24.52706 32.65005 0.02555
C 25.78838 31.98909 0.01423
C 25.74636 30.58273 -0.00285
C 24.54568 29.83685 -0.009
C 24.50587 28.4284 -0.01199
C 25.81221 27.65557 -0.00229
C 28.31279 21.85372 0.02611
C 2.39569 32.642 0.03345
