371
Graphene
C 34.3424 34.04984 0.01295
C 11.08839 9.22562 -0.01717
C 9.84385 8.5329 0.05265
C 9.74522 7.11062 -0.01952
C 10.90463 6.33864 -0.02813
C 9.97985 4.56229 0.00374
C 9.95206 3.0784 0.00052
C 10.76058 2.002 -0.03682
C 11.091 0.6796 0.01965
C 9.79035 34.03766 0.02058
C 12.21737 32.61032 -0.01957
C 13.49292 31.92793 -0.0108
C 13.60401 30.50307 -0.00368
C 12.35013 29.82259 -0.02696
C 12.40105 28.39374 -0.00114
C 13.54836 27.7089 0.00228
C 13.54325 26.25481 0.00798
C 12.27128 25.59581 0.00422
C 12.18576 24.24687 0.0351
C 13.47785 23.46234 -0.03113
C 11.0527 10.67997 0.00244
C 13.41785 22.08696 0.02098
C 9.85587 11.30788 0.02299
C 11.08981 13.49501 0.01416
C 7.31245 0.0758 -0.01046
C 9.81504 32.72285 -0.00891
C 11.02504 31.95734 0.02819
C 11.04459 30.54821 0.00165
C 9.80789 29.86501 -0.02971
C 9.85518 28.43304 0.02894
C 11.13029 27.70734 -0.01789
C 11.06403 26.31295 0.00444
C 9.8374 25.60407 -0.00925
C 9.8221 24.14865 0.01877
C 11.07528 23.53119 0.01363
C 11.04445 21.97759 -0.02162
C 9.84121 21.25493 0.00415
C 9.84228 19.85244 -0.0014
C 11.15285 19.1508 0.02162
C 11.06223 17.72868 0.0076
C 9.82347 17.07038 0.01241
C 9.89066 15.53765 -0.01454
C 11.09597 14.84485 0.01945
C 9.88678 12.75457 0.03542
C 12.33149 21.27493 0.01848
C 12.37725 19.83086 -0.00619
C 13.69998 19.08547 -0.02162
C 14.78716 20.00236 0.01452
C 14.6316 11.38291 0.04892
C 15.56648 10.48156 -0.00111
C 16.13406 9.17429 -0.03557
C 14.80432 8.65004 0.03754
C 15.76016 0.71478 0.01739
C 14.48485 34.05598 0.00755
C 17.16153 32.67495 -0.0054
C 18.39569 31.87938 0.00667
C 18.40971 30.4849 0.00143
C 17.18221 29.68959 -0.017
C 17.23452 28.3428 0.00364
C 18.44508 27.61244 -0.00831
C 18.42388 26.14957 -0.02957
C 17.17473 25.44547 -0.04422
C 17.2102 24.04924 0.00654
C 18.42622 23.33265 -0.00703
C 18.33694 21.91827 -0.04076
C 17.20193 21.54013 -0.00652
C 14.66559 21.3179 -0.01581
C 15.8621 22.05131 0.02691
C 15.95433 23.449 -0.01979
C 14.73976 24.18643 0.02188
C 13.50379 17.70395 0.00889
C 12.28604 17.04421 -0.00481
C 12.27707 15.64834 0.00979
C 13.57502 14.81392 0.01443
C 13.43608 13.52348 0.03505
C 12.27566 12.69741 -0.02815
C 12.24876 11.36971 -0.04147
C 13.43056 10.68197 -0.05302
C 13.50256 9.22934 0.00213
C 8.56842 0.83737 -0.02689
C 12.28763 8.46775 -0.00066
C 12.41981 34.02801 0.00028
C 14.65982 32.61023 -0.02213
C 15.93129 31.99582 0.03698
C 16.0417 30.52946 -0.00109
C 14.81272 29.80596 -0.00491
C 14.77175 28.36674 0.03338
C 16.05576 27.61274 -0.0258
C 16.04248 26.20289 -0.0331
C 14.79392 25.53568 -0.00316
C 12.09773 6.9278 -0.00289
C 18.66267 8.69722 0.0058
C 8.64982 2.27004 -0.01536
C 7.41784 4.31748 -0.00428
C 3.72162 6.4156 -0.02929
C 3.66041 4.99074 -0.00966
C 2.40647 4.2502 -0.03337
C 2.38005 2.88148 0.01227
C 3.61321 2.13453 0.00873
C 3.59557 0.76053 -0.00049
C 2.35373 0.02252 0.00848
C 4.84746 32.76851 -0.01303
C 6.08505 32.0554 -0.01378
C 6.14335 30.58317 0.02635
C 4.93803 29.85668 0.0127
C 4.92406 28.47055 0.01396
C 6.1524 27.73907 0.01849
C 6.1762 26.39011 -0.01142
C 4.91405 25.60157 -0.00562
C 4.8777 24.16444 -0.00494
C 6.07627 23.51702 0.00054
C 6.15803 22.04064 0.03007
C 4.91131 21.32214 -0.00095
C 2.44453 7.22371 0.03368
C 4.97359 19.96141 0.01572
C 2.50022 8.60756 -0.00077
C 3.64194 10.67195 0.0276
C 3.61393 30.55187 0.01226
C 2.40532 29.91709 -0.00279
C 2.44177 28.49274 0.01996
C 3.66066 27.72053 -0.03996
C 3.62662 26.3644 0.01465
C 2.40514 25.61603 -0.00074
C 2.48187 24.20872 -0.00518
C 3.65392 23.51273 0.0086
C 3.71133 22.05662 -0.00643
C 2.4079 21.32378 0.017
C 2.48494 19.90061 -0.03113
C 3.6784 19.18482 -0.02566
C 3.69295 17.83069 -0.00094
C 2.39339 17.08631 0.02322
C 2.42226 15.64898 -0.00725
C 3.67384 15.05641 -0.05697
C 3.6288 13.54888 0.01087
C 2.47773 12.8456 -0.01343
C 2.44969 11.43264 0.00988
C 3.68833 9.30345 0.01305
C 6.20252 19.20953 -0.04848
C 6.15678 17.7742 -0.00892
C 4.9589 17.04646 -0.01362
C 7.39876 24.23117 -0.00334
C 8.60043 23.45196 0.02339
C 8.62795 22.00763 0.01641
C 7.41527 21.31711 -0.00719
C 7.38793 19.91045 0.01364
C 8.61217 19.18425 -0.01062
C 8.59089 17.74345 -0.00033
C 7.3458 17.12776 0.03589
C 7.32698 15.61185 -0.02759
C 8.59702 14.92143 0.0402
C 8.62514 13.51118 0.00572
C 7.37367 12.81279 0.03592
C 7.3608 11.41768 0.00406
C 8.57729 10.65433 0.00943
C 8.60876 9.21961 0.02841
C 7.37565 8.55762 -0.01111
C 7.35195 7.22873 -0.01275
C 8.51957 6.47541 0.00985
C 8.63551 5.07166 -0.02245
C 7.38397 25.65659 -0.01634
C 8.6418 26.35153 0.00057
C 8.62183 27.79094 0.00093
C 7.33498 28.48255 0.01291
C 4.86253 15.67935 -0.0008
C 6.18885 14.94128 0.0288
C 6.17348 13.5717 0.00393
C 4.86701 12.83904 0.00895
C 4.88139 11.35393 0.00685
C 6.12257 10.71499 0.02888
C 6.12831 9.2796 -0.00482
C 4.93183 8.57992 -0.01384
C 4.85259 7.14404 0.03693
C 7.41276 2.93252 0.03101
C 6.15347 6.45084 0.01745
C 4.93666 4.28254 -0.01004
C 4.81623 2.92027 -0.02896
C 6.1035 2.2416 -0.00131
C 6.14269 0.77505 -0.01118
C 4.8021 0.06717 -0.014
C 7.31771 32.71642 0.02147
C 8.52565 31.96375 0.00373
C 8.58757 30.56543 -0.00191
C 7.34437 29.88872 0.00438
C 6.14817 5.04155 0.00488
C 3.64954 32.02557 0.03828
C 17.35134 8.47563 -0.00865
C 18.59282 6.27325 -0.00311
C 30.69502 2.18272 0.00716
C 30.6908 0.7265 0.00307
C 29.40447 0.03889 0.00346
C 31.93141 32.71754 0.01713
C 33.12685 31.95978 -0.01694
C 33.11019 30.52269 0.01428
C 31.94054 29.85622 -0.02142
C 31.94163 28.40414 0.0544
C 33.17458 27.79432 0.00026
C 33.22777 26.31325 0.00682
C 31.99788 25.6083 -0.01779
C 31.97449 24.19666 0.03794
C 33.25852 23.44073 0.01927
C 33.25964 22.06944 0.01574
C 32.00627 21.31777 -0.02383
C 31.99522 19.90688 -0.01429
C 33.17685 19.15578 -0.0136
C 33.15071 17.75541 0.00594
C 32.01017 16.97411 -0.02474
C 29.49836 2.89891 0.02108
C 31.87492 15.56009 0.00369
C 29.50189 4.3329 0.0103
C 30.65552 6.41947 0.01908
C 30.79585 26.36893 0.00261
C 29.50509 25.66347 0.03265
C 29.55461 24.16525 -0.02049
C 30.72411 23.42261 -0.01854
C 30.79474 22.03041 -0.01415
C 29.53128 21.2943 -0.03039
C 29.56153 19.88374 0.01836
C 30.76702 19.11775 0.03531
C 30.77316 17.68461 -0.00669
C 29.53629 16.9645 0.0101
C 29.45033 15.58262 0.01705
C 30.71364 14.81156 -0.0405
C 30.68293 13.40422 -0.01303
C 29.40125 12.70052 -0.01461
C 29.30625 11.20103 -0.02155
C 30.64502 10.67987 -0.00944
C 30.77672 9.24196 -0.03735
C 29.58207 8.54156 -0.00971
C 29.33649 7.18586 0.01518
C 30.75745 4.98762 0.07705
C 33.17079 14.97995 0.00455
C 33.20931 13.48721 -0.00644
C 31.94847 12.78971 -0.01839
C 34.39344 19.94116 0.01951
C 1.1187 19.24565 -0.01678
C 1.19838 17.77766 0.01223
C 0.0007 17.01388 0.00648
C 34.40378 15.6374 0.02114
C 1.24897 14.98178 -0.02957
C 1.19448 13.50992 0.00343
C 0.01942 12.77851 -0.02656
C 0.07043 11.36594 -0.02442
C 1.29305 10.66225 -0.00027
C 1.214 9.2398 -0.00583
C 0.01947 8.55663 -0.02302
C 34.42647 7.09247 -0.02849
C 1.2042 6.41283 0.02931
C 1.16895 4.99623 0.00628
C 34.36381 4.2052 -0.0345
C 34.34722 2.84027 -0.00931
C 1.13456 2.11439 -0.00939
C 1.10784 0.72676 -0.00468
C 34.41395 21.3393 -0.02213
C 1.26754 22.05069 0.02712
C 1.23327 23.41574 0.00723
C 0.00787 24.15763 0.03076
C 31.95097 11.28414 0.00137
C 33.24099 10.71361 0.00199
C 33.21705 9.25028 0.04381
C 32.0485 8.54555 0.02806
C 31.92333 7.10473 0.01504
C 33.16407 6.40218 -0.00069
C 33.19257 4.99756 0.04926
C 31.97532 4.27982 -0.03838
C 31.91218 2.91605 0.00349
C 30.77923 27.74307 0.02326
C 33.11717 2.11795 -0.00323
C 31.93487 0.05442 0.0001
C 34.36477 32.61042 -0.02927
C 1.18925 31.94714 -0.01404
C 1.13678 30.57831 0.01027
C 34.33042 29.86324 0.01831
C 34.33818 28.45879 -0.01037
C 1.20165 27.74647 -0.00439
C 1.21768 26.30919 -0.00598
C 0.02009 25.61053 -0.05239
C 33.0965 0.7289 -0.00841
C 17.50636 7.13309 0.00675
C 29.50477 28.39453 0.00924
C 30.70794 30.6152 0.01324
C 23.37115 31.92452 0.02239
C 23.38092 30.51973 0.01153
C 22.12199 29.72947 0.02734
C 22.12089 28.32147 -0.0055
C 23.4089 27.66634 0.01515
C 23.30857 26.22154 -0.00225
C 22.12147 25.46955 0.00071
C 22.05028 24.01182 -0.01107
C 23.28789 23.33336 -0.01586
C 23.34765 21.95797 -0.01971
C 22.03432 21.20748 -0.02118
C 23.23745 4.9573 0.00733
C 21.98138 4.31022 -0.00178
C 22.03414 2.87445 0.00768
C 23.35018 2.14014 -0.0276
C 23.37877 0.66369 0.03005
C 22.08992 33.93694 -0.04078
C 24.54753 32.61755 0.02117
C 25.81564 31.92786 0.02737
C 22.11756 32.57499 -0.03213
C 25.75891 30.52138 -0.00498
C 19.56502 34.06719 -0.02845
C 20.91422 2.05965 0.0296
C 18.48125 4.87425 0.00742
C 18.39057 2.07452 -0.01594
C 18.32293 0.68385 0.0106
C 16.99344 0.02231 -0.01154
C 19.57371 32.60337 -0.01721
C 20.89817 31.8771 -0.02422
C 20.92809 30.45137 0.01277
C 19.64798 29.76636 0.00096
C 19.66789 28.34378 -0.01527
C 20.91755 27.59054 0.01087
C 20.88534 26.17531 0.00199
C 19.63887 25.41276 0.01511
C 19.59314 24.05492 -0.00478
C 20.76707 23.34389 -0.01662
C 21.06573 21.88503 -0.01185
C 20.06593 6.41274 0.01126
C 20.67418 5.09222 0.01852
C 19.65799 4.14194 -0.00381
C 19.63119 2.75687 0.03046
C 20.88125 0.63917 0.03374
C 24.60095 29.77444 0.00135
C 24.5669 28.29649 0.03102
C 25.80064 27.62268 0.02555
C 28.27546 23.43898 0.00826
C 28.23842 22.00452 -0.00294
C 27.01993 21.21409 0.00152
C 26.95327 19.83104 0.01257
C 28.26431 19.18556 0.02316
C 28.33441 17.83254 0.04185
C 27.13456 17.08497 0.00194
C 26.91672 15.72139 -0.00621
C 28.13274 14.88207 0.02611
C 28.34158 13.5769 0.02198
C 28.15167 6.39239 0.01094
C 28.26816 4.95808 0.00235
C 27.07171 4.21669 0.01495
C 26.99379 2.8405 0.01259
C 28.25383 2.1159 0.01799
C 28.22652 0.76144 0.01699
C 27.01061 0.02225 -0.00416
C 29.47701 32.67598 0.01177
C 30.67098 31.97634 0.04266
C 27.06346 24.1578 0.00487
C 26.99982 25.5455 -0.00942
C 28.30706 26.31522 -0.02815
C 28.22048 27.73055 0.00622
C 25.83596 26.26064 0.01423
C 24.61504 25.53482 -0.00285
C 24.53569 24.12643 -0.009
C 25.84992 23.42268 -0.01199
C 25.84041 22.02102 -0.00229
C 24.66895 21.36514 -0.00938
C 24.52761 19.89132 -0.0264
C 25.67989 19.14355 -0.01154
C 25.82531 17.73603 0.00684
C 29.44549 29.84192 0.0014
C 25.85718 4.99312 -0.01052
C 24.55451 2.87875 0.00367
C 25.78272 2.09154 0.04306
C 25.78125 0.67329 0.00996
C 24.60943 34.0133 0.00195
C 26.96343 32.67999 -0.00802
C 28.18584 32.03117 -0.00218
C 28.24459 30.54219 -0.01654
C 27.05109 29.76608 -0.00037
C 27.09122 28.41265 -0.0032
C 24.60422 4.36172 -0.01679
C 2.3014 32.7085 0.0174
