364
Graphene
C 34.42323 0.03026 0.01295
C 9.83464 11.29247 0.00052
C 11.04853 10.65563 -0.03682
C 11.03851 9.29042 0.01965
C 9.85789 8.57232 0.02058
C 9.92348 7.11862 -0.01957
C 11.06853 6.37095 -0.0108
C 10.99248 4.92884 -0.00368
C 9.78241 4.22677 -0.02696
C 9.76137 12.66526 0.00374
C 9.84417 2.78204 -0.00114
C 11.10977 0.70446 0.00798
C 9.87376 0.00419 0.00422
C 12.34774 32.64548 0.0351
C 13.59928 31.98501 -0.03113
C 13.50766 30.54883 0.02098
C 12.30789 29.80029 0.01848
C 12.28896 28.35525 -0.00619
C 13.47742 27.58968 -0.02162
C 11.1495 2.07793 0.00228
C 10.98466 13.43104 -0.02813
C 11.08467 14.91395 -0.01952
C 9.79663 15.54983 0.05265
C 8.54616 2.22622 0.02894
C 8.5359 0.79267 -0.01789
C 7.35569 0.06675 0.00444
C 9.86507 32.69093 -0.00925
C 11.12214 31.95661 0.01877
C 11.07952 30.5234 0.01363
C 9.82773 29.86214 -0.02162
C 9.87249 28.4207 0.00415
C 11.05609 27.73229 -0.0014
C 11.05635 26.3391 0.02162
C 9.81792 25.66839 0.0076
C 9.85676 24.18437 0.01241
C 11.10783 23.43367 -0.01454
C 11.09441 21.97928 0.01945
C 9.88462 21.2697 0.01416
C 9.91699 19.8831 0.03542
C 11.05948 19.13383 0.02299
C 11.05703 17.73072 0.00244
C 9.87601 16.96442 -0.01717
C 13.46642 26.22235 0.00889
C 12.28361 25.54119 -0.00481
C 12.35996 24.1494 0.00979
C 13.53928 23.43029 0.01443
C 15.99869 32.03135 -0.03557
C 15.90648 30.59207 0.03754
C 14.71135 29.8469 0.01739
C 14.72261 28.34051 0.00755
C 16.0636 27.63627 -0.0054
C 15.90289 26.27644 0.00667
C 14.75307 25.59007 0.00143
C 14.77565 24.17954 -0.017
C 15.92988 23.31735 0.00364
C 16.01577 22.1932 -0.00831
C 14.84865 21.36974 -0.02957
C 14.82971 19.8757 -0.04422
C 15.9778 19.14803 0.00654
C 16.14311 17.78787 -0.00703
C 14.76822 17.01017 -0.04076
C 14.73239 15.57419 -0.00652
C 15.97323 14.83899 0.0058
C 16.0331 13.40216 -0.00865
C 14.76859 12.6723 0.00675
C 14.75559 32.67013 -0.00111
C 7.31575 2.87098 -0.02971
C 12.30076 34.05711 0.04892
C 13.44921 2.10121 -0.01581
C 13.54052 22.08821 0.03505
C 12.31452 21.2955 -0.02815
C 12.32053 19.82931 -0.04147
C 13.57589 19.13931 -0.05302
C 13.58211 17.77009 0.00213
C 12.33595 17.08823 -0.00066
C 12.34291 15.63301 -0.00289
C 13.50125 14.88054 0.00028
C 13.53001 13.42359 -0.02213
C 12.25978 12.72938 0.03698
C 12.30783 11.3937 -0.00109
C 13.53209 10.65382 -0.00491
C 13.49362 9.24113 0.03338
C 12.21501 8.54981 -0.0258
C 12.26091 7.15147 -0.0331
C 13.51868 6.39153 -0.00316
C 13.44206 5.00432 0.02188
C 12.21349 4.28874 -0.01979
C 12.28124 2.84214 0.02691
C 13.48725 0.68486 0.01452
C 14.79195 11.2608 -0.00311
C 7.29555 4.26932 0.00165
C 8.64534 6.37949 -0.00891
C 3.64101 6.37253 -0.01303
C 3.7385 4.94969 -0.01378
C 2.50134 4.32613 0.02635
C 2.4888 2.88386 0.0127
C 3.72377 2.1573 0.01396
C 3.65105 0.70646 0.01849
C 2.4163 34.05799 -0.01142
C 4.93971 32.74983 -0.00562
C 2.43132 7.04963 0.00848
C 6.12163 32.06459 -0.00494
C 4.85527 29.86329 0.03007
C 4.86396 28.42759 -0.00095
C 6.17076 27.73261 0.01572
C 6.16878 26.32417 -0.04848
C 4.95832 25.55617 -0.00892
C 4.93894 24.14898 -0.01362
C 6.13992 23.41314 -0.0008
C 6.12746 22.04749 0.0288
C 6.03402 30.60908 0.00054
C 2.46823 8.53399 -0.00049
C 3.63865 9.2266 0.00873
C 3.65026 10.68027 0.01227
C 3.62559 30.52639 0.0086
C 2.47637 29.81029 -0.00643
C 2.52632 28.36226 0.017
C 3.68786 27.64804 -0.03113
C 3.75046 26.20996 -0.02566
C 2.48521 25.55359 -0.00094
C 2.40938 24.20149 0.02322
C 3.6195 23.54692 -0.00725
C 3.72112 22.02598 -0.05697
C 2.48912 21.32254 0.01087
C 2.48156 19.92137 -0.01343
C 3.748 19.16003 0.00988
C 3.72012 17.7119 0.0276
C 2.46546 16.98248 0.01305
C 2.40067 15.58639 -0.00077
C 3.64304 14.99138 0.03368
C 3.62144 13.6143 -0.02929
C 2.4346 12.82706 -0.00966
C 2.48081 11.42907 -0.03337
C 4.92319 21.26413 0.00393
C 4.96291 19.86066 0.00895
C 6.20702 19.22361 0.00685
C 6.16919 17.83982 0.02888
C 8.53032 26.24187 -0.01062
C 7.33049 25.54026 -0.00033
C 7.38488 24.11458 0.03589
C 8.64458 23.45163 -0.02759
C 8.63693 21.99593 0.0402
C 7.39323 21.39578 0.00572
C 7.41505 19.95429 0.03592
C 8.61322 19.19391 0.00406
C 8.69952 17.76274 0.00943
C 7.46285 17.04947 0.02841
C 7.41297 15.65004 -0.01111
C 8.56808 14.76547 -0.01275
C 8.54443 13.37834 0.00985
C 7.29051 12.7765 -0.02245
C 7.33879 11.34169 -0.00428
C 8.57675 10.61859 0.03101
C 8.60941 9.25012 -0.01536
C 7.37196 8.5509 -0.02689
C 7.41177 7.02809 -0.01046
C 8.60647 27.72657 0.01364
C 8.56254 4.96191 0.02819
C 7.3371 28.48773 -0.00719
C 8.56708 30.53459 0.02339
C 4.93936 17.0766 -0.00482
C 4.96425 15.7055 -0.01384
C 6.13492 14.9599 0.03693
C 6.11524 13.56593 0.01745
C 4.91415 12.81904 0.00488
C 4.90973 11.41633 -0.01004
C 6.09371 10.68917 -0.02896
C 6.15056 9.30173 -0.00131
C 4.91082 8.65345 -0.01118
C 4.91235 7.18827 -0.014
C 6.15819 6.43793 0.02147
C 6.09807 5.01637 0.00373
C 4.91716 4.25607 -0.00191
C 4.90713 2.8537 0.00438
C 6.17376 2.12214 0.01291
C 6.09031 0.74638 0.00093
C 4.87868 0.08389 0.00057
C 7.37511 32.68431 -0.01634
C 8.55329 31.96091 -0.00334
C 7.3045 29.89368 0.01641
C 15.96562 10.54555 0.00742
C 15.97916 9.20499 -0.01594
C 14.69502 8.56592 0.0106
C 29.51212 4.27484 0.00346
C 29.58794 2.86366 0.01713
C 30.74933 2.09124 -0.01694
C 30.7139 0.68428 0.01428
C 29.45037 0.00227 -0.02142
C 31.98543 32.71473 0.0544
C 33.18216 31.95471 0.00026
C 33.10272 30.53319 0.00682
C 30.67774 4.98939 0.00307
C 31.9066 29.71486 -0.01779
C 33.14935 27.70557 0.01927
C 33.1588 26.28692 0.01574
C 33.20582 23.2791 -0.02383
C 33.23966 22.14905 -0.01429
C 33.27361 19.19719 -0.0136
C 33.14291 17.832 0.00594
C 32.07357 16.99079 -0.02474
C 31.9891 15.70103 0.00369
C 31.98774 28.35021 0.03794
C 30.66037 6.39896 0.00716
C 29.46893 7.1133 0.02108
C 29.45052 8.59515 0.0103
C 27.13159 7.12331 -0.02049
C 28.33667 6.32648 -0.01854
C 28.33121 4.92905 -0.01415
C 27.06959 4.26099 -0.03039
C 27.05802 2.87098 0.01836
C 28.32685 2.15136 0.03531
C 28.23397 0.71806 -0.00669
C 27.04106 0.03074 0.0101
C 29.50681 32.65403 0.01705
C 30.74817 31.96562 -0.0405
C 30.71589 30.4129 -0.01303
C 29.41288 29.89508 -0.01461
C 29.42395 15.53208 -0.02155
C 30.74819 15.02631 -0.00944
C 30.69928 13.42455 -0.03735
C 29.48214 12.77913 -0.00971
C 29.49664 11.32181 0.01518
C 30.71495 10.5736 0.01908
C 30.68417 9.20136 0.07705
C 33.18388 14.89253 0.00455
C 33.13088 13.48327 -0.00644
C 31.9615 12.73663 -0.01839
C 31.94814 11.32459 0.00137
C 0.00965 19.88576 0.01951
C 1.24141 19.16681 -0.01678
C 1.2892 17.74312 0.01223
C 0.01843 16.99431 0.00648
C 0.00848 15.55459 0.02114
C 1.20212 14.84914 -0.02957
C 1.18904 13.44531 0.00343
C 34.4008 12.79277 -0.02656
C 34.39393 11.33626 -0.02442
C 1.2212 10.69588 -0.00027
C 1.25477 9.32297 -0.00583
C 0.0194 8.58043 -0.02302
C 34.41305 7.1717 -0.02849
C 1.19213 6.41141 0.02931
C 1.24248 4.98763 0.00628
C 0.00878 4.28269 -0.0345
C 0.06973 2.86187 -0.00931
C 1.2711 2.1215 -0.00939
C 1.21593 0.69646 -0.00468
C 34.42425 21.35259 -0.02213
C 27.05834 8.49652 0.03265
C 1.26969 22.10174 0.02712
C 34.35428 24.15604 0.03076
C 33.16632 10.62827 0.00199
C 33.21694 9.20474 0.04381
C 31.95407 8.51623 0.02806
C 31.91666 7.05317 0.01504
C 33.13141 6.38959 -0.00069
C 33.1626 4.9348 0.04926
C 31.90385 4.24343 -0.03838
C 31.95678 2.76913 0.00349
C 33.2461 2.21811 -0.00323
C 33.2215 0.80999 -0.00841
C 31.98769 0.02943 0.0001
C 34.4215 32.68041 -0.02927
C 1.18361 31.92031 -0.01404
C 1.16279 30.52708 0.01027
C 34.37925 29.84418 0.01831
C 0.05786 28.35943 -0.01037
C 1.28052 27.74498 -0.00439
C 1.20846 26.30089 -0.00598
C 34.37479 25.57657 -0.05239
C 1.14777 23.46778 0.00723
C 28.22544 9.25942 0.00261
C 28.23435 10.67682 0.02326
C 27.04952 11.40717 0.00924
C 18.459 6.37041 -0.0055
C 18.43375 4.92634 0.01515
C 17.15514 4.25267 -0.00225
C 17.16167 2.79337 0.00071
C 18.40923 2.20081 -0.01107
C 18.40615 0.76678 -0.01586
C 17.21973 34.04215 -0.01971
C 19.61418 32.61492 -0.02118
C 20.91164 31.91583 0.00733
C 20.76314 30.5622 -0.00178
C 19.77738 29.94407 0.00768
C 19.68781 15.42523 -0.0276
C 20.69354 14.9052 0.03005
C 20.96743 13.53948 -0.04078
C 19.67041 12.75244 0.02117
C 19.62746 11.32745 0.02737
C 20.84082 10.60105 -0.00498
C 20.91589 9.20556 0.00135
C 19.69944 8.53045 0.03102
C 17.25127 7.0835 0.02734
C 19.7579 7.05282 0.02555
C 17.20438 8.4648 0.01153
C 18.40428 10.67791 -0.03213
C 14.7376 7.09739 -0.01154
C 15.97792 6.37223 -0.01721
C 15.93169 4.95777 -0.02422
C 14.62379 4.2543 0.01277
C 14.69075 2.83309 0.00096
C 15.93528 2.0671 -0.01527
C 15.97096 0.69278 0.01087
C 14.74301 0.01538 0.00199
C 17.21102 32.67547 0.01511
C 18.35846 31.88401 -0.00478
C 18.39843 30.42731 -0.01662
C 17.16574 29.73755 -0.01185
C 17.20886 28.40935 0.01126
C 17.23632 16.89767 0.01852
C 17.24592 15.54747 -0.00381
C 18.46213 14.87697 0.03046
C 18.42368 13.44163 0.0296
C 17.24433 12.69563 0.03374
C 17.1564 11.29186 -0.02845
C 18.44712 9.17973 0.02239
C 3.71065 31.951 -0.00518
C 20.97894 6.28901 0.01423
C 19.64812 4.19261 -0.009
C 24.61234 12.8696 0.00152
C 24.57462 11.31797 0.01257
C 25.85504 10.65049 0.02316
C 25.83227 9.21465 0.04185
C 24.54884 8.53453 0.00194
C 24.59331 7.09165 -0.00621
C 25.87471 6.39468 0.02611
C 25.917 5.01624 0.02198
C 24.63786 4.33254 0.01094
C 24.59911 2.88235 0.00235
C 25.86302 2.11102 0.01495
C 25.8182 0.65813 0.01259
C 24.60227 0.01569 0.01799
C 27.01999 32.71841 0.01699
C 28.20348 31.93894 -0.00416
C 28.46141 30.51651 0.01177
C 28.41056 15.00314 0.04266
C 28.24741 13.53014 0.01324
C 27.01192 12.84487 0.0014
C 25.83641 13.57592 -0.00294
C 20.8747 4.91498 -0.00285
C 25.86274 32.10793 0.00826
C 22.20941 0.06826 -0.00942
C 19.62281 2.83106 -0.01199
C 20.90059 2.05693 -0.00229
C 20.90107 0.66639 -0.00938
C 19.67947 34.06591 -0.0264
C 22.22203 32.72127 -0.01154
C 23.38119 32.00428 0.00684
C 23.36349 13.4082 -0.01052
C 22.1052 12.80819 -0.01679
C 22.07477 11.36037 0.00367
C 23.25453 10.6712 0.04306
C 23.30074 9.25173 0.00996
C 22.10259 8.49994 0.00195
C 22.1366 7.07387 -0.00802
C 23.32357 6.32686 -0.00218
C 23.36194 4.95207 -0.01654
C 22.11475 4.24267 -0.00037
C 22.03704 2.80147 -0.0032
C 23.34392 2.17726 0.00622
C 23.40538 0.76302 -0.02815
C 24.60881 32.54171 0.00487
C 2.46046 32.65284 -0.00074
