337
Graphene
C 34.37788 0.01829 0.01295
C 9.87777 19.88434 -0.00481
C 11.00874 19.17386 0.00979
C 11.06592 17.6986 0.01443
C 9.82014 17.01598 0.03505
C 9.80484 15.6173 -0.02815
C 11.03625 14.89285 -0.04147
C 11.07003 13.41464 -0.05302
C 9.86913 12.8094 0.00213
C 9.89663 11.32137 -0.00066
C 11.12878 10.56312 -0.00289
C 11.19872 9.16988 0.00028
C 9.85564 8.58491 -0.02213
C 9.85295 7.12781 0.03698
C 11.14186 6.34599 -0.00109
C 11.03893 4.97979 -0.00491
C 9.87755 4.36281 0.03338
C 9.78612 2.96509 -0.0258
C 9.82466 21.32182 0.00889
C 11.06096 2.214 -0.0331
C 11.05641 22.07756 -0.02162
C 9.74118 24.15465 0.01848
C 7.35622 8.48947 -0.02813
C 7.41705 7.0994 0.00374
C 8.63552 6.4164 0.00052
C 8.64361 5.00621 -0.03682
C 7.40898 4.30785 0.01965
C 7.38062 2.91648 0.02058
C 8.65569 2.21477 -0.01957
C 8.65493 0.77807 -0.0108
C 7.43139 0.05434 -0.00368
C 9.83375 32.72558 -0.02696
C 11.0168 31.91871 -0.00114
C 10.99886 30.49604 0.00228
C 9.77743 29.93651 0.00798
C 9.8216 28.38277 0.00422
C 11.03632 27.76649 0.0351
C 11.02411 26.35342 -0.03113
C 9.82944 25.51588 0.02098
C 11.04188 23.45863 -0.00619
C 8.55324 9.31828 -0.01952
C 11.11908 0.7903 -0.00316
C 12.21164 32.57494 -0.01979
C 13.69344 9.08183 0.0058
C 12.4751 8.37799 -0.00865
C 12.40986 6.78871 0.00675
C 13.45191 5.04641 -0.00311
C 12.23009 4.21708 0.00742
C 12.31671 2.79552 -0.01594
C 13.61001 2.20276 0.0106
C 13.53716 0.79339 -0.01154
C 12.30879 0.04743 -0.01721
C 14.77778 32.66154 -0.02422
C 15.97617 31.97755 0.01277
C 15.98663 30.56146 0.00096
C 14.73114 29.818 -0.01527
C 14.72575 28.51105 0.01087
C 15.9386 27.76654 0.00199
C 16.00096 26.38624 0.01511
C 14.75316 25.61896 -0.00478
C 13.52942 10.51166 -0.00652
C 9.85936 0.03049 0.02188
C 12.32781 11.24342 -0.04076
C 13.49182 13.43484 0.00654
C 13.56096 31.90684 0.02691
C 13.53231 30.59748 -0.01581
C 12.25041 29.87768 0.01452
C 12.29176 28.45517 0.04892
C 13.43463 27.72676 -0.00111
C 13.47545 26.32567 -0.03557
C 12.20684 25.63195 0.03754
C 12.28607 24.2127 0.01739
C 13.49684 23.48614 0.00755
C 13.44482 22.07188 -0.0054
C 12.29632 21.30305 0.00667
C 12.25627 19.87946 0.00143
C 13.52521 19.24942 -0.017
C 13.56786 17.75546 0.00364
C 12.33356 17.0274 -0.00831
C 12.2039 15.60286 -0.02957
C 13.42617 14.90282 -0.04422
C 12.29711 12.69326 -0.00703
C 8.6554 10.71238 0.05265
C 7.37507 11.32005 -0.01717
C 7.3656 12.72452 0.00244
C 2.46184 8.5142 0.01745
C 2.40967 7.08126 0.00488
C 3.64924 6.3647 -0.01004
C 3.67042 4.98108 -0.02896
C 2.49338 4.23982 -0.00131
C 2.45635 2.91654 -0.01118
C 3.70173 2.19243 -0.014
C 3.67751 0.79326 0.02147
C 2.50483 0.09012 0.00373
C 4.95107 32.68525 -0.00191
C 6.10977 32.05898 0.00438
C 6.20324 30.56545 0.01291
C 4.90314 29.89355 0.00093
C 4.9065 28.48107 0.00057
C 6.15214 27.73874 -0.01634
C 6.1042 26.24948 -0.00334
C 4.91081 25.53518 0.02339
C 3.67743 9.22871 0.03693
C 4.9414 24.13036 0.01641
C 3.63103 10.67999 -0.01384
C 2.40482 12.78728 0.02888
C 3.7226 30.56746 0.01396
C 2.46132 29.92859 0.01849
C 2.41596 28.47803 -0.01142
C 3.68663 27.71464 -0.00562
C 3.64007 26.31522 -0.00494
C 2.44121 25.60486 0.00054
C 2.40128 24.10335 0.03007
C 3.64698 23.41866 -0.00095
C 3.58568 22.00503 0.01572
C 2.41279 21.20911 -0.04848
C 2.39759 19.85533 -0.00892
C 3.63761 19.16281 -0.01362
C 3.67067 17.73119 -0.0008
C 2.41769 16.99177 0.0288
C 2.537 15.5585 0.00393
C 3.76298 14.88449 0.00895
C 3.63768 13.41486 0.00685
C 2.37514 11.29893 -0.00482
C 6.13674 23.44119 -0.00719
C 6.15301 22.01742 0.01364
C 4.8453 21.27861 -0.01062
C 8.59106 30.6025 0.02894
C 7.34055 29.73944 -0.01789
C 7.38366 28.40906 0.00444
C 8.59828 27.68932 -0.00925
C 8.53618 26.25821 0.01877
C 7.31902 25.63745 0.01363
C 7.31126 24.11222 -0.02162
C 8.55391 23.4105 0.00415
C 8.53019 21.98652 -0.0014
C 7.26129 21.26416 0.02162
C 7.34021 19.86935 0.0076
C 8.57448 19.15893 0.01241
C 8.55262 17.78356 -0.01454
C 7.42865 17.02233 0.01945
C 7.38271 15.55241 0.01416
C 8.57789 14.85992 0.03542
C 8.62434 13.47713 0.02299
C 8.53699 32.00145 -0.02971
C 7.33677 32.73704 0.00165
C 4.97214 0.04095 0.02819
C 6.17435 0.77318 -0.00891
C 4.88369 19.79129 -0.00033
C 6.14743 19.11356 0.03589
C 6.11779 17.75419 -0.02759
C 4.83676 16.99195 0.0402
C 4.93447 15.60848 0.00572
C 6.14132 14.93485 0.03592
C 6.10817 13.51106 0.00406
C 4.901 12.7621 0.00943
C 14.72672 24.22502 -0.01662
C 4.8408 11.39884 0.02841
C 6.10471 9.23204 -0.01275
C 4.87712 8.5148 0.00985
C 4.81667 7.09494 -0.02245
C 6.16082 6.4972 -0.00428
C 6.10775 5.03676 0.03101
C 4.88152 4.3012 -0.01536
C 4.96938 2.85704 -0.02689
C 6.15867 2.18592 -0.01046
C 6.09066 10.74333 -0.01111
C 3.72597 32.00552 0.0127
C 15.9794 23.49363 -0.01185
C 14.68795 21.32486 0.01852
C 30.66756 0.75272 0.0544
C 29.43548 34.03009 0.00026
C 31.90743 32.78752 0.00682
C 33.15867 32.05948 -0.01779
C 33.18264 30.61844 0.03794
C 31.95446 29.93509 0.01927
C 31.95774 28.51082 0.01574
C 33.18776 27.73491 -0.02383
C 33.25171 26.34347 -0.01429
C 32.01088 25.68682 -0.0136
C 32.02407 24.21887 0.00594
C 33.17224 23.37618 -0.02474
C 33.14172 22.04882 0.00369
C 31.80176 21.37997 0.00455
C 32.08569 20.02905 -0.00644
C 33.15607 19.10398 -0.01839
C 33.07936 17.65243 0.00137
C 30.52508 2.16691 -0.02142
C 33.31862 10.51534 0.00199
C 29.25185 2.8822 0.01428
C 30.63395 4.94329 0.01713
C 28.22711 0.61391 0.0101
C 26.92197 34.06809 0.01705
C 29.43662 32.6418 -0.0405
C 30.65831 32.00097 -0.01303
C 30.75767 30.60575 -0.01461
C 29.55492 29.82845 -0.02155
C 29.53315 28.44345 -0.00944
C 30.76775 27.73519 -0.03735
C 30.79006 26.32472 -0.00971
C 29.51945 25.61301 0.01518
C 29.52162 24.17776 0.01908
C 30.76032 23.52458 0.07705
C 30.54447 22.11746 0.0103
C 30.66911 9.21427 0.02108
C 29.80976 8.23185 0.00716
C 29.29768 6.85507 0.00307
C 30.7333 6.3577 0.00346
C 29.33264 4.37915 -0.01694
C 28.01441 2.07704 -0.00669
C 33.09877 9.22691 0.04381
C 31.89593 7.13856 0.01504
C 1.13166 17.66413 0.01223
C 34.35605 16.98356 0.00648
C 0.03355 15.51205 0.02114
C 1.3265 14.92447 -0.02957
C 1.23537 13.48576 0.00343
C 0.022 12.9154 -0.02656
C 34.31567 11.45519 -0.02442
C 1.1233 10.68518 -0.00027
C 1.17283 9.26722 -0.00583
C 0.00904 8.49878 -0.02302
C 34.40089 7.05696 -0.02849
C 1.19204 6.38434 0.02931
C 1.22864 4.93129 0.00628
C 34.37162 4.27739 -0.0345
C 34.3662 2.84325 -0.00931
C 1.23206 2.14417 -0.00939
C 1.20559 0.76198 -0.00468
C 1.10096 19.16989 -0.01678
C 31.94474 8.50062 0.02806
C 34.3868 19.90742 0.01951
C 1.211 22.00618 0.02712
C 33.1642 6.39166 -0.00069
C 33.15851 4.9627 0.04926
C 31.89245 4.27633 -0.03838
C 31.84742 2.83409 0.00349
C 33.10107 2.13525 -0.00323
C 33.1176 0.74452 -0.00841
C 31.85064 0.07384 0.0001
C 0.03272 32.6884 -0.02927
C 1.25135 32.01223 -0.01404
C 1.202 30.60184 0.01027
C 34.37942 29.92028 0.01831
C 34.34779 28.52745 -0.01037
C 1.15163 27.84005 -0.00439
C 1.20714 26.34422 -0.00598
C 0.0399 25.59507 -0.05239
C 34.39958 24.13963 0.03076
C 1.17774 23.44226 0.00723
C 34.37241 21.30872 -0.02213
C 26.58403 2.47181 0.03531
C 28.20326 5.23723 0.01836
C 28.47112 23.38875 -0.03039
C 17.22553 25.59378 0.03005
C 17.20554 24.18532 -0.04078
C 18.39436 23.33944 0.02117
C 18.44038 22.00035 0.02737
C 17.23635 21.23973 -0.00498
C 17.25078 19.92931 0.00135
C 18.50284 19.0773 0.03102
C 18.30861 17.67022 0.02555
C 17.08829 17.04468 0.01423
C 17.16203 15.61465 -0.00285
C 18.25353 14.86237 -0.009
C 18.56312 0.60598 -0.01199
C 17.21406 0.01729 -0.00229
C 19.69126 32.65147 -0.00938
C 20.87715 31.9243 -0.0264
C 20.86853 30.52293 -0.01154
C 19.68299 29.80003 0.00684
C 18.51063 26.27087 -0.0276
C 19.66113 28.35019 -0.01052
C 18.48943 27.65861 0.00768
C 17.2653 29.79519 0.00733
C 14.73825 19.90902 -0.00381
C 15.97545 19.19713 0.03046
C 15.86772 17.75525 0.0296
C 14.70078 17.00363 0.03374
C 14.59867 15.59743 -0.02845
C 15.94232 14.90175 -0.03213
C 16.01333 13.54686 0.02239
C 14.78017 12.76674 0.01153
C 14.69304 11.4515 0.02734
C 14.51751 4.35518 -0.0055
C 14.87402 2.93149 0.01515
C 15.8342 2.03011 -0.00225
C 15.91458 0.66078 0.00071
C 14.64432 34.05387 -0.01107
C 17.22697 32.73989 -0.01586
C 18.50575 31.97349 -0.01971
C 18.48736 30.5835 -0.02118
C 17.25485 28.41982 -0.00178
C 20.88859 27.67886 -0.01679
C 20.89825 26.29159 0.00367
C 19.70356 25.57546 0.04306
C 24.56517 28.28888 0.00235
C 25.85402 27.58894 0.01495
C 25.8896 26.10708 0.01259
C 24.58205 25.48643 0.01799
C 24.56509 24.01267 0.01699
C 25.83155 23.43756 -0.00416
C 25.93678 0.93957 0.01177
C 24.58948 0.20947 0.04266
C 26.98532 32.66145 0.01324
C 28.18894 31.90946 0.0014
C 28.22512 30.50098 0.00924
C 26.98077 29.80822 0.02326
C 27.07228 28.40062 0.00261
C 28.26772 27.6634 0.03265
C 28.25714 26.18118 -0.02049
C 27.07782 25.40714 -0.01854
C 27.18851 23.86419 -0.01415
C 24.54236 29.80632 0.01094
C 25.81362 30.49884 0.02198
C 25.68499 31.98521 0.02611
C 24.56158 32.84067 -0.00621
C 19.61242 24.10985 0.00996
C 20.84461 23.4206 0.00195
C 20.97283 22.01349 -0.00802
C 19.69545 21.27838 -0.00218
C 19.59568 19.9025 -0.01654
C 19.57793 0.02922 -0.00037
C 22.07518 32.65232 -0.0032
C 23.34179 32.058 0.00622
C 15.94957 21.98863 0.01126
C 23.33093 30.56708 -0.02815
C 22.18587 28.39905 0.00487
C 23.37882 27.66596 0.00826
C 23.36063 26.21428 -0.00294
C 22.07396 25.54739 0.00152
C 22.08392 24.16145 0.01257
C 23.3503 23.36513 0.02316
C 23.16037 0.69357 0.04185
C 22.15018 0.10628 0.00194
C 22.12818 29.79315 -0.00942
C 2.4979 32.78687 0.02635
