418
Graphene
C 34.36127 33.97941 0.01295
C 14.63939 29.97043 0.02841
C 14.68427 28.39486 -0.01111
C 15.87167 27.67877 -0.01275
C 15.85122 26.30606 0.00985
C 14.68049 25.55877 -0.02245
C 14.75733 24.20332 -0.00428
C 16.03167 23.5326 0.03101
C 16.01936 22.0721 -0.01536
C 14.74655 21.42047 -0.02689
C 14.74583 19.9109 -0.01046
C 15.82507 30.62601 0.00943
C 15.90016 19.19144 -0.00891
C 14.73896 17.00669 0.00165
C 14.82828 15.55329 -0.02971
C 16.05491 14.8219 0.02894
C 15.92967 13.48153 -0.01789
C 14.73246 12.81314 0.00444
C 14.83408 11.34708 -0.00925
C 16.00101 10.65342 0.01877
C 15.92309 9.18774 0.01363
C 14.69256 8.43945 -0.02162
C 14.75818 7.11738 0.00415
C 16.00286 17.69076 0.02819
C 16.05252 6.34126 -0.0014
C 15.90877 32.02192 0.00406
C 12.26954 0.09663 0.00572
C 13.55621 23.523 -0.02896
C 13.59187 22.13599 -0.00131
C 12.24136 21.58261 -0.01118
C 12.08839 20.20046 -0.014
C 13.39313 19.36646 0.02147
C 13.4427 17.83671 0.00373
C 12.19864 17.11255 -0.00191
C 12.25684 15.60667 0.00438
C 13.61636 14.92636 0.01291
C 13.53438 13.53063 0.00093
C 14.71158 32.77491 0.03592
C 12.23806 12.80798 0.00057
C 13.47426 10.67376 -0.00334
C 13.50577 9.18817 0.02339
C 12.19574 8.63174 0.01641
C 12.20905 7.23362 -0.00719
C 13.43501 6.49602 0.01364
C 13.36825 5.06874 -0.01062
C 12.22393 4.28693 -0.00033
C 12.25746 2.88954 0.03589
C 13.52222 2.16501 -0.02759
C 13.50719 0.81426 0.0402
C 12.23691 11.40931 -0.01634
C 12.2309 23.97879 -0.01004
C 15.90948 4.96505 0.02162
C 14.71372 2.95825 0.01241
C 17.21079 8.49875 0.01848
C 17.24777 7.04841 -0.00619
C 18.47253 6.35016 -0.02162
C 18.4147 4.88021 0.00889
C 17.21001 4.32523 -0.00481
C 17.18127 2.91605 0.00979
C 18.43469 2.22465 0.01443
C 18.34349 0.84184 0.03505
C 17.18766 0.06556 -0.02815
C 19.68391 32.74057 -0.04147
C 18.47999 9.28397 0.02098
C 20.87658 32.00429 -0.05302
C 19.6421 29.81427 -0.00066
C 19.6323 28.38068 -0.00289
C 20.80149 27.66065 0.00028
C 20.81243 26.26441 -0.02213
C 19.52296 25.60168 0.03698
C 19.65463 24.1646 -0.00109
C 20.86117 23.43752 -0.00491
C 20.87922 22.03813 0.03338
C 19.68983 21.32591 -0.0258
C 19.64547 19.90187 -0.0331
C 20.83648 30.58049 0.00213
C 14.67099 4.32359 0.0076
C 18.48263 10.64885 -0.03113
C 17.19034 12.72501 0.00422
C 15.9541 2.26273 -0.01454
C 15.91058 0.82003 0.01945
C 14.75325 0.13902 0.01416
C 17.17466 32.71941 0.03542
C 18.42039 32.00777 0.02299
C 18.32224 30.55347 0.00244
C 17.05986 29.89256 -0.01717
C 17.06678 28.43347 0.05265
C 18.29901 27.71673 -0.01952
C 18.28046 26.31286 -0.02813
C 17.30132 11.35401 0.0351
C 17.11471 25.66375 0.00374
C 18.37452 23.4155 -0.03682
C 18.46079 21.95988 0.01965
C 17.20451 21.28228 0.02058
C 17.15416 19.85453 -0.01957
C 18.45756 19.06114 -0.0108
C 18.42543 17.62566 -0.00368
C 17.23389 16.92208 -0.02696
C 17.26383 15.54391 -0.00114
C 18.48294 14.79709 0.00228
C 18.46493 13.44509 0.00798
C 17.19893 24.2085 0.00052
C 12.23544 25.41961 0.00488
C 13.49165 26.24935 0.01745
C 13.42219 27.6787 0.03693
C 4.91423 29.84219 0.01707
C 4.92103 28.39238 0.02769
C 6.11253 27.69304 -0.03291
C 4.80235 15.81096 -0.04999
C 6.12246 15.21795 0.04505
C 6.09861 13.79594 0.03284
C 4.94325 12.91051 -0.04307
C 4.95431 11.53353 0.03189
C 6.12614 10.75909 0.00031
C 6.04274 9.34844 -0.003
C 6.05799 30.69011 0.00208
C 4.87006 8.59759 0.01402
C 6.07373 6.43839 0.00907
C 6.00382 5.05827 0.00643
C 4.84489 4.2733 -0.01509
C 4.88702 2.84676 0.03267
C 6.10813 2.07784 0.02374
C 6.06082 0.67429 0.00402
C 4.80007 34.02441 0.0073
C 7.29258 32.6904 0.0174
C 8.57784 32.02637 0.03828
C 8.65346 30.54813 0.01226
C 4.79753 7.20449 0.02379
C 7.41675 29.88467 -0.00279
C 6.02745 32.01159 -0.00561
C 2.35961 34.07878 0.02784
C 3.67439 30.5005 -0.0154
C 2.44711 29.74737 -0.01299
C 2.38835 28.41876 -0.00407
C 3.60383 27.64812 0.01138
C 3.68449 26.30373 0.03278
C 2.47369 25.47623 -0.00177
C 2.54209 16.99973 0.04421
C 2.35104 15.6475 0.00088
C 3.66579 15.03977 0.00828
C 3.64508 13.5469 -0.02375
C 4.83684 32.65808 -0.01977
C 2.43816 12.74164 0.00558
C 3.69719 10.67608 -0.01386
C 3.70095 9.26558 -0.02805
C 2.38802 8.55565 0.00081
C 2.28336 7.1494 0.00245
C 3.56549 6.40049 0.02728
C 3.60365 4.99685 -0.00039
C 2.37418 4.19453 0.0064
C 2.39831 2.77697 0.00211
C 3.60827 2.18381 -0.00449
C 3.57237 0.69377 -0.01979
C 2.45085 11.35804 -0.0059
C 7.33568 28.42082 0.01996
C 8.49188 27.77336 -0.03996
C 8.61413 26.30773 0.01465
C 9.81041 17.02766 0.02635
C 9.88828 15.67642 0.0127
C 11.07022 14.92005 0.01396
C 11.08227 13.47104 0.01849
C 9.84044 12.78678 -0.01142
C 9.82403 11.48796 -0.00562
C 10.99021 10.70909 -0.00494
C 10.94804 9.34221 0.00054
C 9.70727 8.55991 0.03007
C 9.73138 7.13285 -0.00095
C 10.9199 17.83886 -0.01378
C 10.97356 6.40379 0.01572
C 9.69551 4.35258 -0.00892
C 9.71834 2.93565 -0.01362
C 11.04265 2.21859 -0.0008
C 11.01216 0.81418 0.0288
C 9.78216 0.18772 0.00393
C 12.20469 32.78253 0.00895
C 13.45232 32.0766 0.00685
C 13.45585 30.62762 0.02888
C 12.24693 29.89156 -0.00482
C 12.32443 28.43117 -0.01384
C 10.98939 5.03125 -0.04848
C 11.14847 19.27571 -0.01303
C 11.55815 22.71403 0.00848
C 9.78025 25.67837 -0.00049
C 7.52171 15.81599 -0.00074
C 8.59855 15.00826 -0.00518
C 8.58359 13.57618 0.0086
C 7.29353 12.97242 -0.00643
C 7.35112 11.5107 0.017
C 8.53913 10.81706 -0.03113
C 8.45855 9.32839 -0.02566
C 7.24685 8.6355 -0.00094
C 7.29774 7.16933 0.02322
C 8.5233 6.47113 -0.00725
C 8.41903 4.92805 -0.05697
C 7.30198 4.31129 0.01087
C 7.29492 2.89028 -0.01343
C 8.55841 2.23639 0.00988
C 8.5601 0.76314 0.0276
C 7.32936 34.06471 0.01305
C 9.80119 32.83137 -0.00077
C 10.99359 32.05158 0.03368
C 11.0413 30.66011 -0.02929
C 9.85366 29.84541 -0.00966
C 9.84771 28.4089 -0.03337
C 11.08535 27.70217 0.01227
C 10.92932 26.23601 0.00873
C 20.92971 19.13594 -0.00316
C 20.86538 17.69287 0.02188
C 19.71955 16.95607 -0.01979
C 19.72649 15.55047 0.02691
C 29.57958 11.35255 -0.02155
C 30.758 10.59459 -0.00944
C 30.82708 9.21444 -0.03735
C 29.61292 8.54574 -0.00971
C 29.50361 7.12802 0.01518
C 30.74362 6.41837 0.01908
C 30.71158 5.00895 0.07705
C 29.51047 4.27642 0.0103
C 29.47086 2.89997 0.02108
C 30.66504 2.16506 0.00716
C 29.50771 12.71831 -0.01461
C 30.59062 0.70728 0.00307
C 31.94849 32.60956 0.01713
C 33.18303 31.85168 -0.01694
C 33.22022 30.46788 0.01428
C 31.96247 29.76957 -0.02142
C 31.96936 28.34754 0.0544
C 33.20984 27.60735 0.00026
C 33.11312 26.2264 0.00682
C 31.97034 25.51315 -0.01779
C 31.89893 24.05253 0.03794
C 33.18857 23.33726 0.01927
C 29.42905 34.02666 0.00346
C 33.05401 21.89872 0.01574
C 30.68541 13.48406 -0.01303
C 29.44794 15.59872 0.01705
C 28.28794 4.90576 0.00235
C 27.0262 4.26147 0.01495
C 26.99646 2.82157 0.01259
C 28.26133 2.13554 0.01799
C 28.16781 0.64683 0.01699
C 27.01287 34.04522 -0.00416
C 29.528 32.62391 0.01177
C 30.70441 31.90031 0.04266
C 30.6902 30.50337 0.01324
C 29.51361 29.82668 0.0014
C 30.6738 14.94126 -0.0405
C 29.4995 28.33971 0.00924
C 30.78611 26.25899 0.00261
C 29.51531 25.47623 0.03265
C 29.50417 24.12715 -0.02049
C 30.72723 23.30209 -0.01854
C 30.70705 21.9132 -0.01415
C 29.40271 21.2566 -0.03039
C 29.45976 19.88544 0.01836
C 30.64332 19.12672 0.03531
C 30.673 17.72391 -0.00669
C 29.48585 16.95951 0.0101
C 30.73062 27.708 0.02326
C 31.88576 21.23613 -0.02383
C 31.83726 19.81947 -0.01429
C 33.11929 19.04782 -0.0136
C 1.17381 23.31801 0.00723
C 1.10618 21.91934 0.02712
C 34.32499 21.25268 -0.02213
C 34.37791 19.81594 0.01951
C 1.15564 19.20585 -0.01678
C 1.29275 17.79306 0.01223
C 0.01053 16.97275 0.00648
C 34.36953 15.61052 0.02114
C 1.09347 14.83172 -0.02957
C 1.19632 13.45017 0.00343
C 34.42462 24.0468 0.03076
C 34.37485 12.78443 -0.02656
C 1.19281 10.6654 -0.00027
C 1.18795 9.258 -0.00583
C 0.03238 8.48463 -0.02302
C 34.41672 7.06486 -0.02849
C 1.17282 6.37193 0.02931
C 1.20513 4.90968 0.00628
C 34.41343 4.20139 -0.0345
C 34.42809 2.72625 -0.00931
C 1.22428 2.06402 -0.00939
C 1.0816 0.69338 -0.00468
C 34.33677 11.38384 -0.02442
C 34.40249 25.54614 -0.05239
C 1.28271 26.25184 -0.00598
C 1.16377 27.6721 -0.00439
C 33.23705 17.65233 0.00594
C 31.9988 16.99634 -0.02474
C 31.90825 15.67128 0.00369
C 33.16003 14.96233 0.00455
C 33.14466 13.53148 -0.00644
C 31.9714 12.79521 -0.01839
C 31.91767 11.39849 0.00137
C 33.1947 10.63388 0.00199
C 33.27566 9.20806 0.04381
C 31.99672 8.50115 0.02806
C 31.9368 7.12094 0.01504
C 33.21498 6.39459 -0.00069
C 33.26939 5.00748 0.04926
C 32.00545 4.29905 -0.03838
C 31.9626 2.9235 0.00349
C 33.20879 2.06568 -0.00323
C 33.12629 0.6812 -0.00841
C 31.91635 34.00509 0.0001
C 0.07816 32.52027 -0.02927
C 1.31385 31.8818 -0.01404
C 1.24385 30.41545 0.01027
C 34.42098 29.71122 0.01831
C 34.37001 28.34653 -0.01037
C 28.26483 6.41842 0.01094
C 3.70519 31.89749 0.00662
C 27.0752 7.05621 0.02198
C 28.352 9.25244 -0.00621
C 22.07071 21.37847 0.0106
C 22.11201 19.84787 -0.01154
C 23.31476 19.19427 -0.01721
C 23.30439 17.72583 -0.02422
C 22.13989 16.99898 0.01277
C 22.10619 15.58438 0.00096
C 23.31973 14.87968 -0.01527
C 23.27574 13.4544 0.01087
C 22.08287 12.6993 0.00199
C 22.21002 11.31721 0.01511
C 23.28628 22.01956 -0.01594
C 23.3973 10.65484 -0.00478
C 22.07845 8.54811 -0.01185
C 22.16129 7.12523 0.01126
C 23.41655 6.37871 0.01852
C 23.39188 5.06351 -0.00381
C 22.18423 4.27112 0.03046
C 22.13492 2.84109 0.0296
C 23.34627 2.117 0.03374
C 23.36118 0.71717 -0.02845
C 22.0902 34.02431 -0.03213
C 24.56789 32.68258 0.02239
C 23.36187 9.29062 -0.01662
C 25.71827 31.96977 0.01153
C 23.25918 23.39726 0.00742
C 22.02543 25.55153 0.00675
C 20.91842 14.83843 -0.01581
C 20.88631 13.45782 0.01452
C 19.66126 12.7413 0.04892
C 19.72526 11.31893 -0.00111
C 20.88277 10.55516 -0.03557
C 20.91378 9.22036 0.03754
C 19.5742 8.50632 0.01739
C 19.69697 7.11368 0.00755
C 20.89158 6.41312 -0.0054
C 20.8957 4.97037 0.00667
C 22.08657 24.07473 -0.00311
C 19.75709 4.26005 0.00143
C 20.93305 2.14754 0.00364
C 20.91279 0.7351 -0.00831
C 19.61403 0.14002 -0.02957
C 22.16257 32.62135 -0.04422
C 23.31647 31.93588 0.00654
C 23.32608 30.53208 -0.00703
C 22.04337 29.86793 -0.04076
C 22.00567 28.37998 -0.00652
C 23.3236 27.72922 0.0058
C 23.36104 26.30175 -0.00865
C 19.67913 2.88437 -0.017
C 25.74285 30.60673 0.02734
C 24.54082 29.85826 -0.0055
C 24.60886 28.4604 0.01515
C 26.98527 32.71982 -0.01052
C 28.20189 31.97897 -0.01679
C 28.22421 30.57233 0.00367
C 27.00028 29.83977 0.04306
C 27.00061 28.45013 0.00996
C 28.25552 27.66607 0.00195
C 28.2329 26.20609 -0.00802
C 26.90171 25.56589 -0.00218
C 26.97864 24.15378 -0.01654
C 28.17831 23.42817 -0.00037
C 24.59588 0.05472 0.00684
C 28.21285 21.99138 -0.0032
C 27.0481 19.81781 -0.02815
C 28.22859 19.09913 -0.00942
C 28.25699 17.68302 0.00487
C 26.99774 17.01142 0.00826
C 27.0629 15.59168 -0.00294
C 28.28708 14.83593 0.00152
C 28.29196 13.40133 0.01257
C 27.06729 12.70538 0.02316
C 27.07258 11.22822 0.04185
C 28.30003 10.58563 0.00194
C 27.03241 21.27174 0.00622
C 25.77302 0.76922 -0.01154
C 25.77728 2.18048 -0.0264
C 24.53535 2.87865 -0.00938
C 25.81535 27.71386 -0.00225
C 25.76627 26.30116 0.00071
C 24.52112 25.5622 -0.01107
C 24.54817 24.0883 -0.01586
C 25.78897 23.41637 -0.01971
C 25.79981 21.94459 -0.02118
C 24.56392 21.26556 0.00733
C 24.61523 19.89283 -0.00178
C 25.8656 19.18795 0.00768
C 25.72911 17.74663 -0.0276
C 24.59283 17.00013 0.03005
C 24.60441 15.5527 -0.04078
C 25.80798 14.88897 0.02117
C 25.88727 13.43093 0.02737
C 24.55788 12.72814 -0.00498
C 24.63731 11.36451 0.00135
C 25.84541 10.66811 0.03102
C 25.87918 9.24081 0.02555
C 24.59547 8.53068 0.01423
C 24.68005 7.18072 -0.00285
C 25.82104 6.40159 -0.009
C 25.8355 4.95797 -0.01199
C 24.60226 4.32154 -0.00229
C 27.10988 8.48778 0.02611
C 2.51466 32.62771 0.00748
