378
Graphene
C 34.31663 0.04848 0.01295
C 10.88457 2.25111 0.01416
C 11.01602 0.76735 0.03542
C 9.7964 0.08641 0.02299
C 12.24611 32.75488 0.00244
C 13.51894 31.96074 -0.01717
C 13.5086 30.54487 0.05265
C 12.33728 29.91359 -0.01952
C 12.35762 28.44902 -0.02813
C 13.59161 27.81684 0.00374
C 13.56728 26.33379 0.00052
C 12.25859 25.60463 -0.03682
C 12.28688 24.15039 0.01965
C 13.53341 23.40349 0.02058
C 13.54539 21.98193 -0.01957
C 12.36785 21.21153 -0.0108
C 12.26309 19.79577 -0.00368
C 13.66541 19.12546 -0.02696
C 13.44395 17.78444 -0.00114
C 12.38207 16.91922 0.00228
C 9.75378 3.00868 0.01945
C 9.74631 4.34081 -0.01454
C 10.95091 5.16403 0.01241
C 11.04362 6.54643 0.0076
C 11.04451 32.02624 -0.02245
C 11.02832 30.58581 -0.00428
C 9.83694 29.89074 0.03101
C 9.82035 28.52225 -0.01536
C 11.0631 27.81022 -0.02689
C 11.05965 26.36816 -0.01046
C 9.8531 25.59495 -0.00891
C 9.90141 24.09224 0.02819
C 11.10783 23.33915 0.00165
C 12.36863 7.09295 0.00798
C 11.10495 21.92299 -0.02971
C 9.87928 19.79726 -0.01789
C 11.03128 19.05847 0.00444
C 11.17945 17.67182 -0.00925
C 9.90192 16.97395 0.01877
C 9.89295 15.54808 0.01363
C 9.75281 12.731 -0.02162
C 9.74105 11.37525 0.00415
C 9.87793 8.59155 -0.0014
C 9.74167 7.25163 0.02162
C 9.84942 21.15745 0.02894
C 9.7521 32.77321 0.00985
C 13.52948 6.48675 0.00422
C 12.31115 4.30384 -0.03113
C 14.65622 0.00184 0.02188
C 17.13216 32.63603 -0.01979
C 18.39945 31.92983 0.02691
C 18.39041 30.43757 -0.01581
C 17.19412 29.80528 0.01452
C 17.25019 28.31845 0.04892
C 18.46924 27.5774 -0.00111
C 18.47546 26.22285 -0.03557
C 17.18393 25.43735 0.03754
C 17.25294 24.06438 0.01739
C 18.53522 23.38411 0.00755
C 18.41342 21.90733 -0.0054
C 17.20643 21.13121 0.00667
C 17.18726 19.70378 0.00143
C 18.40264 19.01171 -0.017
C 18.48275 17.62226 0.00364
C 18.38371 6.4482 -0.00831
C 18.38698 4.96887 -0.02957
C 17.15791 4.33663 -0.04422
C 15.93557 0.65432 -0.00316
C 15.9038 2.06409 -0.0331
C 14.73438 2.91313 -0.0258
C 14.75893 4.30908 0.03338
C 12.23349 2.89954 0.02098
C 13.48976 2.23305 0.01848
C 13.46274 0.79858 -0.00619
C 12.24701 0.10416 -0.02162
C 14.69326 32.71418 0.00889
C 15.93292 31.96863 -0.00481
C 16.01249 30.58958 0.00979
C 14.79856 29.88442 0.01443
C 14.77961 28.4703 0.03505
C 13.54968 5.07938 0.0351
C 16.01216 27.68461 -0.02815
C 14.75931 25.55408 -0.05302
C 14.74432 24.12536 0.00213
C 15.98331 23.34547 -0.00066
C 16.10181 21.8825 -0.00289
C 14.81022 21.25542 0.00028
C 14.79098 19.85207 -0.02213
C 15.97175 19.02628 0.03698
C 15.88337 6.5961 -0.00109
C 15.91348 5.18158 -0.00491
C 15.95317 26.2359 -0.04147
C 7.3539 0.14713 -0.01275
C 8.58923 0.82402 -0.01111
C 8.51739 2.26518 0.02841
C 3.60333 5.00551 -0.01343
C 2.36093 4.36593 0.00988
C 2.40931 2.88691 0.0276
C 3.61203 2.17073 0.01305
C 3.59133 0.70042 -0.00077
C 2.37668 0.07849 0.03368
C 4.88025 32.69933 -0.02929
C 6.16644 32.01369 -0.00966
C 6.06823 30.61648 -0.03337
C 4.85126 29.91249 0.01227
C 4.91596 28.46541 0.00873
C 6.12524 27.78797 -0.00049
C 6.09835 26.32361 0.00848
C 4.88946 25.5084 -0.01303
C 4.9516 24.1404 -0.01378
C 6.21155 23.40194 0.02635
C 6.16716 22.01929 0.0127
C 4.91912 21.39931 0.01396
C 4.87284 19.92183 0.01849
C 3.65224 6.43739 0.01087
C 2.3633 7.22411 -0.05697
C 2.35925 8.60203 -0.00725
C 3.6286 9.29599 0.02322
C 3.6193 30.63851 -0.01509
C 2.4616 29.84274 0.03267
C 2.47403 28.46055 0.02374
C 3.7209 27.66663 0.00402
C 3.68354 26.24887 0.0073
C 2.40068 25.59334 0.0174
C 2.44175 24.18262 0.03828
C 3.68957 23.57428 0.01226
C 3.6916 22.14288 -0.00279
C 6.13759 19.25689 -0.01142
C 2.43245 21.3241 0.01996
C 3.60037 19.22989 0.01465
C 3.66123 17.83252 -0.00074
C 2.35948 17.11521 -0.00518
C 2.34831 15.64226 0.0086
C 3.67209 15.0383 -0.00643
C 3.56394 13.62165 0.017
C 2.38711 12.90919 -0.03113
C 2.40557 11.47577 -0.02566
C 3.659 10.72902 -0.00094
C 2.4047 19.98529 -0.03996
C 6.21259 17.85502 -0.00562
C 4.91007 17.12811 -0.00494
C 4.97698 15.6712 0.00054
C 8.59311 23.44348 -0.00191
C 8.62875 21.97297 0.00438
C 7.45349 21.2586 0.01291
C 7.41087 19.8749 0.00093
C 8.60689 19.22084 0.00057
C 8.63644 17.78108 -0.01634
C 7.40194 17.17463 -0.00334
C 7.3788 15.69961 0.02339
C 8.60327 14.92765 0.01641
C 7.35997 24.22351 0.00373
C 8.61258 13.50957 -0.00719
C 7.35222 11.37298 -0.01062
C 8.58307 10.60631 -0.00033
C 8.59189 9.25427 0.03589
C 7.30086 8.51056 -0.02759
C 7.29167 7.10382 0.0402
C 8.53809 6.45996 0.00572
C 8.57424 5.07808 0.03592
C 7.30836 4.38738 0.00406
C 7.24737 2.93169 0.00943
C 7.33596 12.83939 0.01364
C 17.09667 2.81241 0.00654
C 7.32131 25.62132 0.02147
C 8.61421 27.76628 -0.01118
C 6.20439 14.95278 0.03007
C 6.05677 13.58817 -0.00095
C 4.85706 12.84527 0.01572
C 4.96249 11.39327 -0.04848
C 6.11401 10.66562 -0.00892
C 6.1161 9.24915 -0.01362
C 4.79944 8.54834 -0.0008
C 4.79864 7.20764 0.0288
C 6.01119 6.49261 0.00393
C 8.62868 26.31665 -0.014
C 6.05038 5.01079 0.00895
C 4.79693 2.86868 0.02888
C 6.09928 2.20375 -0.00482
C 6.04933 0.72943 -0.01384
C 4.80662 0.09336 0.03693
C 7.36618 32.78717 0.01745
C 8.66487 32.07273 0.00488
C 8.61774 30.64461 -0.01004
C 7.25941 29.88463 -0.02896
C 7.3266 28.5242 -0.00131
C 4.81228 4.28752 0.00685
C 18.45087 2.13459 -0.00703
C 18.41179 0.66215 -0.04076
C 17.16489 33.97529 -0.00652
C 30.69944 10.65684 0.02108
C 30.64552 9.22998 0.00716
C 29.40741 8.52595 0.00307
C 29.34345 7.07571 0.00346
C 30.73368 6.41632 0.01713
C 30.63208 4.95611 -0.01694
C 29.5084 4.29875 0.01428
C 29.43388 2.94545 -0.02142
C 30.69031 2.11214 0.0544
C 30.65549 0.67609 0.00026
C 29.49131 34.00461 0.00682
C 31.91592 32.71356 -0.01779
C 33.17219 31.91355 0.03794
C 33.12012 30.47931 0.01927
C 31.95508 29.74736 0.01574
C 31.94785 28.35279 -0.02383
C 33.17972 27.6116 -0.01429
C 33.20055 26.27463 -0.0136
C 32.23895 25.25115 0.00594
C 29.39192 11.32468 0.0103
C 29.37241 12.83341 0.07705
C 30.63284 13.50645 0.01908
C 30.76386 14.84307 0.01518
C 26.96895 12.75272 0.00924
C 26.88395 11.30824 0.02326
C 28.20078 10.63488 0.00261
C 28.18623 9.18788 0.03265
C 26.90773 8.52616 -0.02049
C 26.91461 7.01399 -0.01854
C 28.08735 6.28201 -0.01415
C 26.99645 4.44368 -0.03039
C 27.01225 3.0418 0.01836
C 32.83563 24.15615 -0.02474
C 28.29461 2.18804 0.03531
C 27.05211 0.07735 0.0101
C 29.52443 32.61714 0.01705
C 30.67427 31.93463 -0.0405
C 30.72536 30.55823 -0.01303
C 29.54266 29.71532 -0.01461
C 29.54043 28.24206 -0.02155
C 30.79437 27.50797 -0.00944
C 30.85323 25.97337 -0.03735
C 29.58829 25.54765 -0.00971
C 28.25189 0.78307 -0.00669
C 31.88529 15.56735 0.00369
C 33.04386 14.93707 0.00455
C 33.07225 13.51017 -0.00644
C 34.41789 21.37234 -0.02213
C 34.33933 20.03304 0.01951
C 1.1136 19.36145 -0.01678
C 1.06855 17.89255 0.01223
C 34.33739 17.14426 0.00648
C 34.32666 15.69102 0.02114
C 1.16621 14.9539 -0.02957
C 1.13925 13.5318 0.00343
C 34.34276 12.87847 -0.02656
C 1.1649 22.10318 0.02712
C 34.3826 11.40539 -0.02442
C 1.18025 9.3196 -0.00583
C 34.34645 8.53012 -0.02302
C 34.34544 7.17539 -0.02849
C 1.18638 6.47244 0.02931
C 1.18069 5.05339 0.00628
C 34.3337 4.35343 -0.0345
C 34.42631 2.91639 -0.00931
C 1.18973 2.12938 -0.00939
C 1.14906 0.76409 -0.00468
C 1.19618 10.76372 -0.00027
C 28.11831 13.57647 0.0014
C 1.07069 23.46352 0.00723
C 0.04713 25.65591 -0.05239
C 31.91551 12.7836 -0.01839
C 31.96039 11.37944 0.00137
C 33.23392 10.72094 0.00199
C 33.1686 9.26788 0.04381
C 31.88396 8.51477 0.02806
C 31.90757 7.10795 0.01504
C 33.12733 6.38527 -0.00069
C 33.18846 5.02178 0.04926
C 31.95561 4.25998 -0.03838
C 34.29288 24.29692 0.03076
C 32.00482 2.8041 0.00349
C 33.1613 0.78435 -0.00841
C 31.95389 0.0518 0.0001
C 34.37689 32.69526 -0.02927
C 1.1677 32.01413 -0.01404
C 1.2227 30.5914 0.01027
C 34.39199 29.84891 0.01831
C 34.41447 28.41759 -0.01037
C 1.186 27.71336 -0.00439
C 1.23534 26.39836 -0.00598
C 33.2158 2.13238 -0.00323
C 3.67366 32.06258 0.00643
C 27.57007 15.00594 0.01324
C 28.33473 26.07617 0.01177
C 20.86007 2.09466 0.03374
C 20.85499 0.72197 -0.02845
C 19.61769 33.99086 -0.03213
C 22.08777 32.62959 0.02239
C 23.36001 31.80038 0.01153
C 23.34723 30.42563 0.02734
C 22.10815 29.75175 -0.0055
C 22.11323 28.36689 0.01515
C 23.42597 27.71098 -0.00225
C 23.36584 26.2281 0.00071
C 22.17763 25.39065 -0.01107
C 22.26202 23.9476 -0.01586
C 23.5697 23.20584 -0.01971
C 23.36881 21.75977 -0.02118
C 22.08455 21.14821 0.00733
C 22.05654 19.76501 -0.00178
C 23.33399 19.17791 0.00768
C 23.47379 17.71049 -0.0276
C 22.12757 16.90886 0.03005
C 19.64696 2.78698 0.0296
C 19.58056 4.18541 0.03046
C 20.82866 5.01201 -0.00381
C 20.8484 6.44865 0.01852
C 19.67488 32.59174 0.0058
C 20.84244 31.87651 -0.00865
C 20.86136 30.47906 0.00675
C 19.62322 29.78754 -0.00311
C 19.67805 28.31291 0.00742
C 20.95485 27.56941 -0.01594
C 20.91456 26.1472 0.0106
C 19.72099 25.49244 -0.01154
C 19.79477 24.05069 -0.01721
C 22.30461 15.56989 -0.04078
C 20.99772 23.34114 -0.02422
C 19.63343 21.22865 0.00096
C 19.64355 19.72287 -0.01527
C 20.80712 18.97755 0.01087
C 20.83418 17.59461 0.00199
C 19.69515 16.93962 0.01511
C 21.32888 14.24249 -0.00478
C 20.88392 10.61589 -0.01662
C 20.83484 9.23691 -0.01185
C 19.55742 6.90925 0.01126
C 20.84021 21.89048 0.01277
C 23.62936 14.96799 0.02117
C 23.35864 13.61665 0.02737
C 21.95141 13.16575 -0.00498
C 25.72887 13.50228 -0.02815
C 24.51261 12.76804 -0.00942
C 24.4535 11.39593 0.00487
C 25.61592 10.64258 0.00826
C 25.70943 9.18329 -0.00294
C 24.42082 8.56235 0.00152
C 24.41875 7.13056 0.01257
C 25.67223 6.39685 0.02316
C 25.69904 5.02237 0.04185
C 26.17704 14.77968 0.00622
C 24.49271 4.19498 0.00194
C 25.73023 2.15742 0.02611
C 25.81552 0.72756 0.02198
C 24.57517 34.05826 0.01094
C 27.12312 32.70207 0.00235
C 28.18557 31.89943 0.01495
C 28.34565 30.46236 0.01259
C 27.07884 29.74441 0.01799
C 27.03236 28.32222 0.01699
C 28.33184 27.56547 -0.00416
C 24.55551 2.78548 -0.00621
C 27.01479 25.44611 0.04266
C 24.91092 15.65759 -0.0032
C 24.79813 24.13485 -0.01654
C 21.79133 11.61149 0.00135
C 23.11914 10.78968 0.03102
C 23.26787 9.37624 0.02555
C 21.98211 8.61958 0.01423
C 22.06362 7.07004 -0.00285
C 23.29997 6.38178 -0.009
C 23.31233 4.96991 -0.01199
C 22.04592 4.25552 -0.00229
C 22.04105 2.82405 -0.00938
C 24.61799 16.94084 -0.00037
C 23.32865 2.09698 -0.0264
C 22.1136 0.06884 0.00684
C 24.57028 32.64559 -0.01052
C 25.88156 31.94771 -0.01679
C 25.87885 30.50939 0.00367
C 24.67541 29.80416 0.04306
C 24.65914 28.41306 0.00996
C 25.90117 27.66211 0.00195
C 25.81805 26.27585 -0.00802
C 24.60691 25.45645 -0.00218
C 23.36886 0.668 -0.01154
C 2.39048 32.68513 0.00907
