370
Graphene
C 34.34631 0.06452 0.01295
C 10.9941 9.19129 0.05265
C 9.82607 8.53154 -0.01952
C 9.78321 7.10509 -0.02813
C 10.95413 6.39102 0.00374
C 10.96006 4.91572 0.00052
C 9.75213 4.28714 -0.03682
C 9.76377 2.92662 0.01965
C 11.01739 2.17831 0.02058
C 11.00328 0.84781 -0.01957
C 9.7519 0.12096 -0.0108
C 12.22099 32.62533 -0.00368
C 13.48087 31.82678 -0.02696
C 13.60063 30.43648 -0.00114
C 12.31049 29.81906 0.00228
C 12.30502 28.35794 0.00798
C 13.52903 27.72622 0.00422
C 13.49121 26.30347 0.0351
C 12.2408 25.56902 -0.03113
C 12.29336 24.18754 0.02098
C 10.98434 10.63603 -0.01717
C 13.55328 23.32265 0.01848
C 9.76993 11.46791 0.00244
C 11.09048 13.48189 0.03542
C 7.39732 0.01038 -0.00891
C 9.7262 32.73433 0.02819
C 10.95049 32.01693 0.00165
C 11.0554 30.5619 -0.02971
C 9.8104 29.76998 0.02894
C 9.84028 28.41149 -0.01789
C 11.03084 27.71962 0.00444
C 11.04096 26.30567 -0.00925
C 9.86087 25.5548 0.01877
C 9.82497 24.15472 0.01363
C 11.13225 23.39619 -0.02162
C 11.13861 22.04101 0.00415
C 9.87638 21.37569 -0.0014
C 9.84647 19.86669 0.02162
C 11.09535 19.19005 0.0076
C 11.13936 17.78845 0.01241
C 9.89716 17.03608 -0.01454
C 9.86772 15.71828 0.01945
C 11.15323 14.92687 0.01416
C 9.76411 12.89534 0.02299
C 8.50317 0.72854 -0.01046
C 13.56301 21.93284 -0.00619
C 12.38593 19.81252 0.00889
C 14.86743 28.36197 0.01452
C 16.13868 27.46799 0.04892
C 16.03823 26.07553 -0.00111
C 14.65981 25.46794 -0.03557
C 14.72336 24.04913 0.03754
C 15.90432 23.44416 0.01739
C 15.99157 22.1715 0.00755
C 14.90638 21.18775 -0.0054
C 14.98169 19.78757 0.00667
C 16.18577 19.00462 0.00143
C 15.95922 17.57694 -0.017
C 14.74542 16.88518 0.00364
C 14.79119 15.52514 -0.00831
C 16.02746 14.92454 -0.02957
C 16.08025 13.43488 -0.04422
C 14.80657 12.72311 0.00654
C 14.73408 11.2901 -0.00703
C 15.92275 10.55037 -0.04076
C 15.9183 9.11423 -0.00652
C 14.83351 29.7928 -0.01581
C 12.38654 21.22331 -0.02162
C 16.055 30.45063 0.02691
C 14.73341 32.5098 0.02188
C 13.66623 19.09144 -0.00481
C 13.53118 17.67159 0.00979
C 12.30849 16.97533 0.01443
C 12.35358 15.54657 0.03505
C 13.5803 14.87032 -0.02815
C 13.53867 13.45996 -0.04147
C 12.26494 12.72949 -0.05302
C 12.23703 11.26711 0.00213
C 13.53156 10.59504 -0.00066
C 13.46084 9.16822 -0.00289
C 12.19372 8.46304 0.00028
C 12.16983 7.08276 -0.02213
C 13.3867 6.38541 0.03698
C 13.39732 4.9585 -0.00109
C 12.23735 4.21633 -0.00491
C 12.30855 2.80731 0.03338
C 13.48637 2.07402 -0.0258
C 13.37994 0.68003 -0.0331
C 12.19048 0.04125 -0.00316
C 15.9733 31.88084 -0.01979
C 8.57002 2.11702 -0.02689
C 7.28977 2.88246 -0.01536
C 7.29641 4.30551 0.03101
C 3.61796 6.49793 -0.00966
C 3.67058 4.9893 -0.03337
C 2.45239 4.35139 0.01227
C 2.41733 3.01066 0.00873
C 3.64694 2.24555 -0.00049
C 3.57876 0.76421 0.00848
C 2.31492 0.02038 -0.01303
C 4.82161 32.7555 -0.01378
C 6.07814 31.9586 0.02635
C 6.09296 30.57807 0.0127
C 4.85665 29.9028 0.01396
C 4.81547 28.51672 0.01849
C 6.09876 27.76914 -0.01142
C 6.07004 26.40218 -0.00562
C 4.81749 25.59256 -0.00494
C 4.88584 24.16692 0.00054
C 6.13336 23.49158 0.03007
C 6.24014 22.04463 -0.00095
C 4.93665 21.33766 0.01572
C 2.44383 7.23391 -0.02929
C 4.92204 19.99129 -0.04848
C 2.48621 8.63829 0.03368
C 3.61837 10.77371 0.01305
C 3.56634 30.63203 -0.00279
C 2.42905 29.89329 0.01996
C 2.31806 28.51003 -0.03996
C 3.62646 27.78306 0.01465
C 3.65794 26.37848 -0.00074
C 2.44392 25.5905 -0.00518
C 2.47404 24.23571 0.0086
C 3.68842 23.48665 -0.00643
C 3.71886 22.07986 0.017
C 2.41603 21.43696 -0.03113
C 2.42863 20.00195 -0.02566
C 3.65396 19.28047 -0.00094
C 3.66282 17.84074 0.02322
C 2.44252 17.06575 -0.00725
C 2.42838 15.68872 -0.05697
C 3.70751 15.0151 0.01087
C 3.63271 13.53245 -0.01343
C 2.34583 12.96159 0.00988
C 2.38974 11.4133 0.0276
C 3.69473 9.30709 -0.00077
C 6.14266 19.24298 -0.00892
C 6.15495 17.8012 -0.01362
C 4.91303 17.16396 -0.0008
C 7.35836 24.22214 0.02339
C 8.53082 23.48608 0.01641
C 8.62841 22.09579 -0.00719
C 7.40172 21.31837 0.01364
C 7.42029 19.87562 -0.01062
C 8.67042 19.10345 -0.00033
C 8.64213 17.73111 0.03589
C 7.35331 17.06902 -0.02759
C 7.38221 15.6259 0.0402
C 8.66709 15.0812 0.00572
C 8.57914 13.61766 0.03592
C 7.40578 12.84512 0.00406
C 7.39845 11.47111 0.00943
C 8.57233 10.76395 0.02841
C 8.54894 9.21599 -0.01111
C 7.32158 8.53433 -0.01275
C 7.31006 7.1713 0.00985
C 8.56382 6.41063 -0.02245
C 8.50866 4.96501 -0.00428
C 7.41848 25.63222 -0.00334
C 8.6492 26.34317 -0.01634
C 8.62875 27.69926 0.00057
C 7.3691 28.43658 0.00093
C 4.89805 15.68919 0.0288
C 6.14673 14.96107 0.00393
C 6.05289 13.54801 0.00895
C 4.87961 12.76266 0.00685
C 4.87656 11.36223 0.02888
C 6.10174 10.71778 -0.00482
C 6.1207 9.21154 -0.01384
C 4.9263 8.57715 0.03693
C 4.8596 7.16469 0.01745
C 14.74028 8.52253 0.0058
C 6.07509 6.48685 0.00488
C 4.88697 4.30998 -0.02896
C 4.84307 2.91841 -0.00131
C 6.09088 2.1715 -0.01118
C 6.07696 0.7754 -0.014
C 4.81783 0.05236 0.02147
C 7.34816 32.69733 0.00373
C 8.57146 31.96576 -0.00191
C 8.5949 30.5627 0.00438
C 7.2647 29.88256 0.01291
C 6.11254 5.0213 -0.01004
C 14.61476 7.09314 -0.00865
C 15.84064 6.29225 0.00675
C 15.8395 4.915 -0.00311
C 30.73291 2.13501 0.00716
C 30.73167 0.76074 0.00307
C 29.43429 0.05365 0.00346
C 31.9165 32.64761 0.01713
C 33.17275 31.9922 -0.01694
C 33.177 30.57181 0.01428
C 31.95156 29.87169 -0.02142
C 31.90207 28.4284 0.0544
C 33.0881 27.71693 0.00026
C 33.11542 26.29478 0.00682
C 32.05275 25.47018 -0.01779
C 32.10208 24.28042 0.03794
C 33.18139 23.45691 0.01927
C 33.1383 22.06629 0.01574
C 31.92105 21.41364 -0.02383
C 31.83989 20.04499 -0.01429
C 33.1762 19.18771 -0.0136
C 33.16608 17.78715 0.00594
C 31.91395 17.08505 -0.02474
C 29.48733 2.87955 0.02108
C 31.93238 15.7328 0.00369
C 29.44117 4.34528 0.0103
C 30.73343 6.4033 0.01908
C 28.25113 2.11722 0.00261
C 28.21876 0.71968 0.03265
C 26.9701 0.03218 -0.02049
C 29.45179 32.72191 -0.01854
C 30.71968 31.9656 -0.01415
C 30.67393 30.51629 -0.03039
C 29.38251 29.93815 0.01836
C 30.70699 19.21029 0.03531
C 30.53975 17.83676 -0.00669
C 29.41393 17.06027 0.0101
C 29.40081 15.73133 0.01705
C 30.75316 14.97976 -0.0405
C 30.64594 13.55127 -0.01303
C 29.46156 12.77814 -0.01461
C 29.52273 11.33266 -0.02155
C 30.75231 10.70386 -0.00944
C 30.81658 9.26721 -0.03735
C 29.53986 8.53902 -0.00971
C 29.49777 7.17885 0.01518
C 30.74037 5.0255 0.07705
C 33.15741 14.88455 0.00455
C 33.09956 13.51863 -0.00644
C 31.91573 12.87939 -0.01839
C 34.40067 19.85271 0.01951
C 1.21199 19.19643 -0.01678
C 1.20476 17.78957 0.01223
C 34.38962 17.10821 0.00648
C 34.36756 15.68452 0.02114
C 1.15278 14.99682 -0.02957
C 1.07008 13.58053 0.00343
C 34.34264 12.77508 -0.02656
C 34.37337 11.39976 -0.02442
C 1.21292 10.65428 -0.00027
C 1.22346 9.32801 -0.00583
C 0.01528 8.57099 -0.02302
C 34.40322 7.11728 -0.02849
C 1.14957 6.46024 0.02931
C 1.22966 5.09544 0.00628
C 0.01839 4.2977 -0.0345
C 34.4097 2.88438 -0.00931
C 1.19019 2.15887 -0.00939
C 1.17174 0.81628 -0.00468
C 0.01301 21.3277 -0.02213
C 1.16808 22.07626 0.02712
C 1.16782 23.52476 0.00723
C 0.0265 24.2543 0.03076
C 32.00537 11.44692 0.00137
C 33.20503 10.67009 0.00199
C 33.21888 9.27086 0.04381
C 32.00405 8.53414 0.02806
C 31.93892 7.05285 0.01504
C 33.22081 6.39719 -0.00069
C 33.20195 5.01362 0.04926
C 32.00996 4.30221 -0.03838
C 31.96482 2.9131 0.00349
C 27.04427 2.85778 0.02326
C 33.1506 2.17754 -0.00323
C 31.8666 0.06936 0.0001
C 34.31928 32.72627 -0.02927
C 1.18631 32.02511 -0.01404
C 1.15461 30.6165 0.01027
C 34.35495 29.81503 0.01831
C 34.34037 28.43746 -0.01037
C 1.19921 27.74312 -0.00439
C 1.22616 26.30559 -0.00598
C 34.4185 25.64231 -0.05239
C 33.10612 0.73194 -0.00841
C 3.68303 32.02736 0.01226
C 27.01797 4.28289 0.00924
C 28.24732 6.44748 0.01324
C 18.37441 4.85824 0.02239
C 17.19711 4.17613 0.01153
C 17.09455 2.85848 0.02734
C 18.32855 2.14963 -0.0055
C 18.32924 0.74482 0.01515
C 17.12798 34.02531 -0.00225
C 19.62706 32.63703 0.00071
C 20.74622 31.83296 -0.01107
C 19.24452 17.18337 -0.01586
C 19.57749 15.89377 -0.01971
C 19.77983 12.59316 -0.02118
C 19.67057 11.24215 0.00733
C 20.93345 10.59812 -0.00178
C 20.87321 9.18686 0.00768
C 19.6422 8.45866 -0.0276
C 19.61301 7.03195 0.03005
C 20.91613 6.34048 -0.04078
C 20.90935 4.9866 0.02117
C 19.58894 4.17039 0.02737
C 18.3349 6.30252 -0.03213
C 19.55229 2.75421 -0.00498
C 17.20592 7.07842 -0.02845
C 18.39868 9.1666 0.0296
C 14.58965 4.27895 0.00742
C 14.71847 2.79305 -0.01594
C 15.89467 2.15522 0.0106
C 15.85298 0.67302 -0.01154
C 14.75842 33.97532 -0.01721
C 17.1852 32.62819 -0.02422
C 18.39125 31.97222 0.01277
C 18.55676 30.61192 0.00096
C 17.41367 29.79573 -0.01527
C 17.21693 28.39495 0.01087
C 17.69714 19.14308 0.00199
C 18.27879 18.00015 0.01511
C 17.18398 16.97519 -0.00478
C 17.30376 15.59515 -0.01662
C 18.55125 14.87355 -0.01185
C 18.48176 13.46063 0.01126
C 17.19273 12.74796 0.01852
C 17.15525 11.28086 -0.00381
C 18.39258 10.56613 0.03046
C 17.11019 8.44801 0.03374
C 20.8523 2.10201 0.00135
C 20.83034 0.63894 0.03102
C 19.58225 34.07731 0.02555
C 25.86356 6.35013 0.00826
C 25.77731 4.95331 -0.00294
C 24.51203 4.26123 0.00152
C 24.50318 2.78885 0.01257
C 25.73246 2.12147 0.02316
C 25.73204 0.79791 0.04185
C 24.51729 0.01329 0.00194
C 26.9207 32.70482 -0.00621
C 28.17713 31.95126 0.02611
C 28.23986 30.61428 0.02198
C 26.96481 15.50696 0.01094
C 28.23605 14.86796 0.00235
C 28.15588 13.41919 0.01495
C 26.8819 12.70392 0.01259
C 27.08905 11.28997 0.01799
C 28.25435 10.66553 0.01699
C 28.27679 9.225 -0.00416
C 27.00006 8.51814 0.01177
C 27.00787 7.1167 0.04266
C 24.62281 7.07637 0.00487
C 24.5205 8.49458 -0.00942
C 25.84184 9.26181 -0.02815
C 25.68946 10.58283 0.00622
C 21.98914 32.53841 0.01423
C 23.21409 32.00843 -0.00285
C 22.03167 11.23711 -0.009
C 23.28494 10.58446 -0.01199
C 23.29245 9.19599 -0.00229
C 22.16308 8.48321 -0.00938
C 22.08517 7.05498 -0.0264
C 23.25854 6.3766 -0.01154
C 23.35078 4.99792 0.00684
C 28.25685 5.00701 0.0014
C 22.12566 4.23182 -0.01052
C 23.35035 2.03534 0.00367
C 23.29416 0.58172 0.04306
C 22.03319 33.99529 0.00996
C 24.51508 32.59084 0.00195
C 25.75143 31.92238 -0.00802
C 25.87096 14.88487 -0.00218
C 25.63133 13.50124 -0.01654
C 24.42169 12.78505 -0.00037
C 24.45302 11.35892 -0.0032
C 22.10119 2.76039 -0.01679
C 2.39788 32.6828 0.03828
