422
Graphene
C 34.32212 33.96802 0.01295
C 14.66257 32.68407 0.03592
C 16.01425 31.93483 0.00406
C 15.99584 30.53622 0.00943
C 14.73835 29.93321 0.02841
C 14.74928 28.40548 -0.01111
C 15.90218 27.60847 -0.01275
C 15.92616 26.17723 0.00985
C 14.71229 25.4806 -0.02245
C 14.76703 24.09822 -0.00428
C 16.02638 23.3797 0.03101
C 12.24793 0.1043 0.00572
C 15.99148 21.97768 -0.01536
C 14.73107 19.93372 -0.01046
C 15.94315 19.18961 -0.00891
C 15.96269 17.66415 0.02819
C 14.75819 16.93855 0.00165
C 14.77343 15.52448 -0.02971
C 16.02661 14.7666 0.02894
C 15.96703 13.37747 -0.01789
C 14.74634 12.69634 0.00444
C 14.69869 11.27127 -0.00925
C 15.90606 10.67619 0.01877
C 14.79776 21.26022 -0.02689
C 16.00776 9.26426 0.01363
C 13.54077 0.7955 0.0402
C 12.2778 2.94472 0.03589
C 13.54247 26.31813 0.01745
C 12.42196 25.56763 0.00488
C 12.31651 24.15339 -0.01004
C 13.50377 23.42114 -0.02896
C 13.48702 22.01184 -0.00131
C 12.15082 21.4102 -0.01118
C 12.27226 20.03708 -0.014
C 13.53316 19.1574 0.02147
C 13.58823 17.79971 0.00373
C 12.38186 17.03159 -0.00191
C 13.52006 2.23935 -0.02759
C 12.33668 15.5984 0.00438
C 13.52843 13.413 0.00093
C 12.21421 12.72751 0.00057
C 12.2211 11.39033 -0.01634
C 13.51497 10.6367 -0.00334
C 13.49982 9.25107 0.02339
C 12.21994 8.57857 0.01641
C 12.31203 7.1608 -0.00719
C 13.53848 6.4696 0.01364
C 13.54967 5.04928 -0.01062
C 12.31605 4.34456 -0.00033
C 13.5089 14.83169 0.01291
C 14.7777 8.52626 -0.02162
C 14.79294 7.12351 0.00415
C 16.06296 6.39778 -0.0014
C 18.43693 10.67647 -0.03113
C 18.35521 9.29451 0.02098
C 17.13992 8.56317 0.01848
C 17.20319 7.09751 -0.00619
C 18.41527 6.3776 -0.02162
C 18.40138 4.93259 0.00889
C 17.16532 4.22512 -0.00481
C 17.1203 2.82855 0.00979
C 18.38239 2.0995 0.01443
C 18.36855 0.67005 0.03505
C 17.17243 11.3074 0.0351
C 17.13633 0.03538 -0.02815
C 20.90403 31.95783 -0.05302
C 20.90722 30.53168 0.00213
C 19.61628 29.85071 -0.00066
C 19.62537 28.39711 -0.00289
C 20.83531 27.66841 0.00028
C 20.92628 26.30539 -0.02213
C 19.6974 25.60691 0.03698
C 19.73881 24.14321 -0.00109
C 21.01173 23.47098 -0.00491
C 20.90782 22.06167 0.03338
C 19.59937 32.65282 -0.04147
C 17.24954 12.69996 0.00422
C 18.50741 13.44088 0.00798
C 18.37018 14.85515 0.00228
C 16.01852 5.00049 0.02162
C 14.71902 4.35909 0.0076
C 14.74495 2.9922 0.01241
C 15.95377 2.16518 -0.01454
C 15.96416 0.71823 0.01945
C 14.74101 0.02316 0.01416
C 17.20647 32.69921 0.03542
C 18.39069 31.98403 0.02299
C 18.35341 30.57922 0.00244
C 17.19324 29.834 -0.01717
C 17.17636 28.38488 0.05265
C 18.40811 27.63037 -0.01952
C 18.40357 26.19687 -0.02813
C 17.19291 25.52384 0.00374
C 17.17273 24.11081 0.00052
C 18.4682 23.4707 -0.03682
C 18.45029 22.02447 0.01965
C 17.24125 21.31031 0.02058
C 17.22425 19.90124 -0.01957
C 18.49591 19.18682 -0.0108
C 18.39621 17.74319 -0.00368
C 17.15859 17.0491 -0.02696
C 17.17687 15.54769 -0.00114
C 13.57021 27.79279 0.03693
C 12.30662 28.49927 -0.01384
C 12.28067 29.92269 -0.00482
C 13.51795 30.54553 0.02888
C 4.96395 29.824 -0.01977
C 6.25125 19.23419 -0.00561
C 6.1702 17.8453 0.00208
C 4.89781 17.10267 0.01707
C 4.93415 15.68751 0.02769
C 6.09742 14.93238 -0.03291
C 6.07896 13.58861 -0.04999
C 4.93696 12.80816 0.04505
C 4.89701 11.33463 0.03284
C 6.02472 10.65853 -0.04307
C 6.15076 30.43354 0.02784
C 6.07198 9.18561 0.03189
C 4.83459 6.99662 -0.003
C 6.12178 6.35967 0.01402
C 6.10116 4.96467 0.02379
C 4.79217 4.21684 0.00907
C 4.90281 2.87892 0.00643
C 6.12053 2.19031 -0.01509
C 6.15254 0.71235 0.03267
C 4.85324 0.08273 0.02374
C 7.38892 32.66393 0.00402
C 8.55395 31.90222 0.0073
C 4.93181 8.45592 0.00031
C 6.07922 31.94144 -0.01979
C 4.86033 32.68233 -0.00449
C 2.43382 34.06415 0.00211
C 3.76829 30.43661 -0.00112
C 2.5823 29.78793 0.03345
C 2.60053 28.3205 0.00748
C 2.584 21.3537 0.00662
C 2.67399 20.01098 -0.0154
C 3.64482 19.11018 -0.01299
C 3.64971 17.7557 -0.00407
C 2.37136 17.06732 0.01138
C 2.40619 15.65438 0.03278
C 3.64924 14.9758 -0.00177
C 3.66739 13.54527 0.04421
C 2.4269 12.77445 0.00088
C 2.50329 11.39724 0.00828
C 3.62451 10.68004 -0.02375
C 3.61507 9.16647 0.00558
C 2.366 8.46075 -0.0059
C 2.44408 7.14984 -0.01386
C 3.58039 6.34466 -0.02805
C 3.54285 4.89985 0.00081
C 2.33513 4.20504 0.00245
C 2.3693 2.75747 0.02728
C 3.67422 2.14671 -0.00039
C 3.66074 0.74056 0.0064
C 8.70569 30.50129 0.0174
C 19.70512 21.37223 -0.0258
C 7.46285 29.93035 0.03828
C 8.62234 17.80654 -0.00279
C 9.66369 19.99701 0.00848
C 11.04696 19.25308 -0.01303
C 11.11957 17.7565 -0.01378
C 9.92311 17.06161 0.02635
C 9.87839 15.67172 0.0127
C 11.03324 14.98803 0.01396
C 11.04634 13.55171 0.01849
C 9.81771 12.88523 -0.01142
C 9.72174 11.42916 -0.00562
C 11.00721 10.65674 -0.00494
C 9.79753 21.3278 -0.00049
C 11.07077 9.31108 0.00054
C 9.86402 7.12639 -0.00095
C 11.03691 6.44616 0.01572
C 11.05656 5.0695 -0.04848
C 9.84239 4.37199 -0.00892
C 9.86313 2.8905 -0.01362
C 11.11373 2.19857 -0.0008
C 11.03896 0.7883 0.0288
C 9.85248 0.07822 0.00393
C 12.30146 32.767 0.00895
C 13.45639 32.0286 0.00685
C 9.84172 8.58153 0.03007
C 10.84648 22.23541 0.00873
C 11.01889 23.66086 0.01227
C 11.23473 26.2729 -0.03337
C 7.41996 17.10502 0.01996
C 7.33007 15.65716 -0.03996
C 8.64258 14.9489 0.01465
C 8.53073 13.53464 -0.00074
C 7.31036 12.77788 -0.00518
C 7.35277 11.35547 0.0086
C 8.58044 10.6864 -0.00643
C 8.59894 9.30889 0.017
C 7.33525 8.4817 -0.03113
C 7.3697 7.09618 -0.02566
C 8.56252 6.41204 -0.00094
C 8.51577 5.03642 0.02322
C 7.34306 4.2702 -0.00725
C 7.36068 2.89267 -0.05697
C 8.58848 2.19979 0.01087
C 8.57128 0.71467 -0.01343
C 7.38343 0.02861 0.00988
C 9.77107 32.70296 0.0276
C 11.06933 32.03225 0.01305
C 11.08323 30.56448 -0.00077
C 9.8831 29.76952 0.03368
C 9.86414 28.39481 -0.02929
C 10.9767 27.66428 -0.00966
C 8.46045 19.16699 0.01226
C 19.68467 19.92977 -0.0331
C 20.84995 19.17097 -0.00316
C 20.83175 17.72704 0.02188
C 29.54823 11.39133 -0.02155
C 30.77028 10.62841 -0.00944
C 30.72646 9.28172 -0.03735
C 29.54001 8.54408 -0.00971
C 29.53005 7.11152 0.01518
C 30.73452 6.33419 0.01908
C 30.73566 4.89766 0.07705
C 29.50902 4.27235 0.0103
C 29.51596 2.85171 0.02108
C 30.65428 2.12417 0.00716
C 29.50425 12.81415 -0.01461
C 30.70549 0.66629 0.00307
C 31.90412 32.6092 0.01713
C 33.21626 31.88242 -0.01694
C 33.2288 30.48747 0.01428
C 31.98445 29.7681 -0.02142
C 31.94199 28.31431 0.0544
C 33.24681 27.59115 0.00026
C 33.1538 26.21124 0.00682
C 31.99388 25.51919 -0.01779
C 31.96603 24.02662 0.03794
C 33.18759 23.35544 0.01927
C 29.50745 0.00831 0.00346
C 30.69407 13.4746 -0.01303
C 30.6833 14.88147 -0.0405
C 29.49435 15.62695 0.01705
C 28.28258 6.41212 0.01094
C 28.33375 5.02402 0.00235
C 27.02924 4.26267 0.01495
C 27.06076 2.8626 0.01259
C 28.27116 2.13714 0.01799
C 28.24803 0.76767 0.01699
C 27.01546 0.03435 -0.00416
C 29.41968 32.67072 0.01177
C 30.73403 31.91124 0.04266
C 30.78008 30.48174 0.01324
C 29.53381 29.80836 0.0014
C 29.49894 28.35982 0.00924
C 30.74974 27.65468 0.02326
C 30.76713 26.18741 0.00261
C 29.46905 25.53538 0.03265
C 29.44886 24.06719 -0.02049
C 30.76214 23.35221 -0.01854
C 30.67082 21.88723 -0.01415
C 29.42534 21.23984 -0.03039
C 29.4567 19.81387 0.01836
C 30.67666 19.17115 0.03531
C 30.77485 17.67012 -0.00669
C 29.52442 17.02827 0.0101
C 33.16334 21.95193 0.01574
C 27.05413 7.16747 0.02198
C 31.93886 21.2417 -0.02383
C 33.19335 19.16269 -0.0136
C 1.27149 23.45039 0.00723
C 1.34081 22.13338 0.02712
C 0.01211 21.36323 -0.02213
C 0.00806 19.89665 0.01951
C 1.2325 19.23346 -0.01678
C 1.19274 17.78771 0.01223
C 0.02766 17.05592 0.00648
C 34.42909 15.65373 0.02114
C 1.18706 14.90221 -0.02957
C 1.18542 13.54144 0.00343
C 34.43198 24.04502 0.03076
C 0.00476 12.78936 -0.02656
C 1.27512 10.66544 -0.00027
C 1.23004 9.19056 -0.00583
C 34.42119 8.44838 -0.02302
C 34.37292 7.12237 -0.02849
C 1.13756 6.35971 0.02931
C 1.13575 4.92016 0.00628
C 34.32412 4.17175 -0.0345
C 34.30273 2.80182 -0.00931
C 1.1465 2.10473 -0.00939
C 1.15852 0.62825 -0.00468
C 0.01008 11.37508 -0.02442
C 34.40527 25.4919 -0.05239
C 1.12557 26.23345 -0.00598
C 1.42688 27.58379 -0.00439
C 33.17364 17.76749 0.00594
C 31.96178 17.00953 -0.02474
C 31.94583 15.57991 0.00369
C 33.15549 14.92014 0.00455
C 33.18045 13.46322 -0.00644
C 31.93655 12.77441 -0.01839
C 31.97881 11.34951 0.00137
C 33.18158 10.66552 0.00199
C 33.17997 9.2163 0.04381
C 32.01715 8.50387 0.02806
C 31.98325 7.1039 0.01504
C 33.17393 6.42038 -0.00069
C 33.14687 4.94513 0.04926
C 31.91125 4.19484 -0.03838
C 31.90188 2.82942 0.00349
C 33.2002 2.04903 -0.00323
C 33.14211 0.66422 -0.00841
C 31.86148 34.04436 0.0001
C 34.41544 32.56709 -0.02927
C 1.2223 31.8865 -0.01404
C 1.29378 30.44967 0.01027
C 0.01961 29.75989 0.01831
C 0.12888 28.34161 -0.01037
C 31.89868 19.89043 -0.01429
C 3.71041 31.93818 0.01078
C 27.1151 8.56046 0.02611
C 28.2511 10.67082 0.00194
C 23.28343 22.0156 -0.01594
C 22.11808 21.30284 0.0106
C 22.11325 19.83854 -0.01154
C 23.32562 19.12834 -0.01721
C 23.31618 17.7385 -0.02422
C 22.07898 17.05022 0.01277
C 22.14413 15.63879 0.00096
C 23.37941 14.90267 -0.01527
C 23.44061 13.48279 0.01087
C 22.23455 12.74041 0.00199
C 23.37138 23.40886 0.00742
C 22.19505 11.31753 0.01511
C 23.30843 9.20465 -0.01662
C 22.00947 8.54097 -0.01185
C 22.02692 7.10239 0.01126
C 23.32848 6.45611 0.01852
C 23.3934 5.04945 -0.00381
C 22.06563 4.27445 0.03046
C 22.12115 2.84576 0.0296
C 23.33244 2.21651 0.03374
C 23.34981 0.77073 -0.02845
C 22.10886 0.04851 -0.03213
C 23.39338 10.57855 -0.00478
C 22.19008 24.18365 -0.00311
C 22.16091 25.63364 0.00675
C 23.40964 26.21987 -0.00865
C 19.64515 17.01407 -0.01979
C 19.58759 15.55985 0.02691
C 20.93415 14.9429 -0.01581
C 20.92789 13.45527 0.01452
C 19.7947 12.77416 0.04892
C 19.70038 11.4266 -0.00111
C 20.87653 10.67188 -0.03557
C 20.84353 9.25219 0.03754
C 19.58857 8.4966 0.01739
C 19.63836 7.09145 0.00755
C 20.84956 6.37593 -0.0054
C 20.79066 4.98659 0.00667
C 19.66434 4.23895 0.00143
C 19.56808 2.79251 -0.017
C 20.83175 2.16979 0.00364
C 20.85821 0.76496 -0.00831
C 19.62157 0.00178 -0.02957
C 22.13033 32.72489 -0.04422
C 23.30724 31.9508 0.00654
C 23.30814 30.48659 -0.00703
C 22.09295 29.81896 -0.04076
C 22.06103 28.33515 -0.00652
C 23.40061 27.61633 0.0058
C 24.53841 32.61215 0.02239
C 28.27693 9.16252 -0.00621
C 25.83554 31.96344 0.01153
C 24.62233 29.87531 -0.0055
C 24.53877 34.02716 0.00684
C 26.99592 32.70116 -0.01052
C 28.28454 31.97952 -0.01679
C 28.26605 30.59779 0.00367
C 27.05752 29.83626 0.04306
C 27.07451 28.41637 0.00996
C 28.33571 27.69142 0.00195
C 28.26907 26.3169 -0.00802
C 27.06111 25.49731 -0.00218
C 27.06376 24.08305 -0.01654
C 25.82067 0.72332 -0.01154
C 28.29073 23.38387 -0.00037
C 27.02056 21.22957 0.00622
C 27.00924 19.80814 -0.02815
C 28.22219 19.17994 -0.00942
C 28.29283 17.79782 0.00487
C 27.05639 17.05562 0.00826
C 27.03297 15.67674 -0.00294
C 28.30022 14.9497 0.00152
C 28.31394 13.57662 0.01257
C 27.03557 12.83633 0.02316
C 27.1109 11.41875 0.04185
C 28.21835 21.96244 -0.0032
C 25.8043 2.15215 -0.0264
C 24.57525 2.87965 -0.00938
C 24.59025 4.27362 -0.00229
C 24.61702 28.3937 0.01515
C 25.87691 27.66018 -0.00225
C 25.84898 26.28603 0.00071
C 24.67868 25.51925 -0.01107
C 24.70096 24.06941 -0.01586
C 25.84444 23.36471 -0.01971
C 25.87116 21.9443 -0.02118
C 24.6104 21.32547 0.00733
C 24.57502 19.85606 -0.00178
C 25.75925 19.11166 0.00768
C 25.75986 17.72883 -0.0276
C 24.58332 17.04834 0.03005
C 24.58572 15.58178 -0.04078
C 25.82074 14.9422 0.02117
C 25.82849 13.49689 0.02737
C 24.67536 12.80702 -0.00498
C 24.5844 11.30833 0.00135
C 25.89159 10.67279 0.03102
C 25.89184 9.2916 0.02555
C 24.65499 8.51202 0.01423
C 24.65031 7.11766 -0.00285
C 25.85996 6.48061 -0.009
C 25.85022 4.99262 -0.01199
C 25.81329 30.55054 0.02734
C 2.42476 32.64606 -0.02827
