302
Graphene
C 34.38711 0.03033 0.01295
C 14.71646 4.43565 0.04892
C 14.76757 2.92617 -0.00111
C 15.98981 2.21237 -0.03557
C 15.96228 0.78546 0.03754
C 14.70411 34.07546 0.01739
C 17.20043 32.73395 0.00755
C 15.92552 17.83302 0.01452
C 18.38526 31.98334 -0.0054
C 17.05106 19.16176 0.00143
C 18.38596 19.40858 -0.017
C 17.37481 4.22707 0.00364
C 17.26369 2.91784 -0.00831
C 18.51371 2.07027 -0.02957
C 18.46602 0.7012 -0.04422
C 18.48 30.55621 0.00667
C 16.00803 32.01587 -0.01581
C 14.87128 32.58828 0.02691
C 12.23442 0.06053 -0.01979
C 11.17051 6.35094 -0.04147
C 11.04935 4.88019 -0.05302
C 9.79155 4.2254 0.00213
C 9.76933 2.86549 -0.00066
C 11.04348 2.21651 -0.00289
C 10.99174 0.72256 0.00028
C 9.73156 0.18919 -0.02213
C 12.43716 17.01853 0.03698
C 12.27749 15.77696 -0.00109
C 12.37297 7.03018 -0.00491
C 13.63737 4.95966 0.03338
C 12.28777 4.31682 -0.0258
C 12.28719 2.92637 -0.0331
C 13.53202 2.1816 -0.00316
C 13.47043 0.71861 0.02188
C 17.25394 34.07238 0.00654
C 19.6658 32.63293 -0.00703
C 20.89019 31.92878 -0.04076
C 20.90452 30.45599 -0.00652
C 23.23845 19.1012 0.01126
C 23.38443 17.61996 0.01852
C 22.09205 17.1465 -0.00381
C 23.52575 6.29101 0.03046
C 23.17399 5.00284 0.0296
C 22.04775 4.16789 0.03374
C 22.17528 2.84548 -0.02845
C 23.45902 2.15725 -0.03213
C 23.36247 0.7416 0.02239
C 22.06788 0.12297 0.01153
C 24.60662 32.7098 0.02734
C 25.82647 31.9346 -0.0055
C 25.86727 30.46925 0.01515
C 24.58923 29.81955 -0.00225
C 24.62356 28.40249 0.00071
C 22.13031 19.76228 -0.01185
C 9.94623 7.16548 -0.02815
C 23.37314 26.32487 -0.01662
C 22.21683 28.35745 0.01511
C 19.53275 29.79178 0.0058
C 19.84982 28.4395 -0.00865
C 20.97555 27.79581 0.00675
C 19.58184 19.57891 -0.00311
C 20.88275 19.13614 0.00742
C 20.93371 17.72342 -0.01594
C 19.78742 4.1809 0.0106
C 19.74372 2.82752 -0.01154
C 20.98649 2.10435 -0.01721
C 20.83939 0.78727 -0.02422
C 19.67739 33.98157 0.01277
C 22.10611 32.83675 0.00096
C 23.2798 32.04996 -0.01527
C 23.35972 30.63992 0.01087
C 22.16638 29.84601 0.00199
C 23.39601 27.6494 -0.00478
C 9.89069 8.60026 0.03505
C 10.97545 9.37973 0.01443
C 11.06397 10.62505 0.00979
C 2.50801 7.06747 -0.02245
C 3.73114 6.35061 -0.00428
C 3.66103 4.93207 0.03101
C 2.43099 4.29303 -0.01536
C 2.45024 2.86138 -0.02689
C 3.66364 2.09758 -0.01046
C 3.59456 0.71683 -0.00891
C 2.34972 0.06185 0.02819
C 4.8792 32.6529 0.00165
C 6.16826 32.11531 -0.02971
C 4.80579 19.92101 0.02894
C 6.15425 17.63928 -0.01789
C 4.92488 17.05434 0.00444
C 4.9242 15.62398 -0.00925
C 6.15937 14.85608 0.01877
C 2.49542 8.52287 0.00985
C 6.13507 13.44671 0.01363
C 3.69026 9.2266 -0.01275
C 2.39567 11.43425 0.02841
C 3.56822 30.6926 -0.01634
C 2.62017 29.74545 -0.00334
C 2.40875 28.42391 0.02339
C 2.37374 25.51594 0.01641
C 2.39218 24.25162 -0.00719
C 3.71538 21.81526 0.01364
C 2.41974 21.30958 -0.01062
C 2.39175 19.90486 -0.00033
C 3.6911 19.23082 0.03589
C 3.69662 17.76425 -0.02759
C 2.50076 16.9821 0.0402
C 2.40215 15.61887 0.00572
C 3.68025 14.8751 0.03592
C 3.69083 13.51543 0.00406
C 2.48262 12.85272 0.00943
C 3.6752 10.66835 -0.01111
C 25.80094 27.68496 -0.01107
C 4.87044 12.81029 -0.02162
C 6.02353 10.57916 -0.0014
C 7.42045 8.46281 -0.0108
C 7.42243 7.09801 -0.00368
C 8.67155 6.41739 -0.02696
C 8.63169 5.00874 -0.00114
C 7.35333 4.256 0.00228
C 7.36645 2.85122 0.00798
C 8.61591 2.1535 0.00422
C 8.58446 0.71971 0.0351
C 7.45149 0.00278 -0.03113
C 9.94408 16.98743 0.02098
C 9.88977 15.65983 0.01848
C 11.28818 14.77471 -0.00619
C 11.02265 13.50764 -0.02162
C 9.85554 12.67917 0.00889
C 9.8516 11.33649 -0.00481
C 8.60079 9.22699 -0.01957
C 4.86942 11.35895 0.00415
C 8.51078 10.66361 0.02058
C 7.34743 12.74422 -0.03682
C 6.13811 9.21217 0.02162
C 4.89627 8.52597 0.0076
C 4.93085 7.10188 0.01241
C 6.1737 6.40708 -0.01454
C 6.13242 4.92977 0.01945
C 4.9006 4.18326 0.01416
C 4.94376 2.76936 0.03542
C 6.12393 2.10665 0.02299
C 6.17542 0.69911 0.00244
C 4.89912 34.07928 -0.01717
C 7.1805 32.72681 0.05265
C 7.2728 16.98062 -0.01952
C 7.4262 15.61182 -0.02813
C 8.63759 14.94818 0.00374
C 8.68443 13.5062 0.00052
C 7.25952 11.34188 0.01965
C 25.75026 26.28508 -0.01586
C 24.4242 25.41949 -0.01971
C 24.52539 24.02889 -0.02118
C 33.14395 22.10723 0.01574
C 31.92077 21.34286 -0.02383
C 31.98421 19.89335 -0.01429
C 33.19303 19.21159 -0.0136
C 33.25596 17.73022 0.00594
C 31.96564 17.05381 -0.02474
C 31.93523 15.68228 0.00369
C 33.13303 14.91473 0.00455
C 33.1884 13.51499 -0.00644
C 31.99666 12.77233 -0.01839
C 31.90736 11.42055 0.00137
C 33.16959 10.66622 0.00199
C 33.21419 9.2837 0.04381
C 31.9236 8.62072 0.02806
C 31.94537 7.19345 0.01504
C 33.14828 23.48945 0.01927
C 33.19221 6.45655 -0.00069
C 31.93769 24.18729 0.03794
C 33.21683 26.24102 0.00682
C 29.5061 8.4966 -0.00971
C 29.48965 7.06274 0.01518
C 30.744 6.39389 0.01908
C 30.75863 4.97824 0.07705
C 29.55412 4.29605 0.0103
C 29.49299 2.86536 0.02108
C 30.68672 2.1736 0.00716
C 30.69746 0.74533 0.00307
C 29.50819 34.06733 0.00346
C 31.95269 32.63811 0.01713
C 33.18076 31.96952 -0.01694
C 33.19885 30.51684 0.01428
C 31.94675 29.89292 -0.02142
C 32.02138 28.43 0.0544
C 33.25985 27.67773 0.00026
C 31.94941 25.63646 -0.01779
C 30.68038 9.2167 -0.03735
C 33.18697 5.02822 0.04926
C 31.95701 2.80217 0.00349
C 34.3928 15.61825 0.02114
C 1.14964 14.878 -0.02957
C 1.22495 13.48905 0.00343
C 34.38859 12.7848 -0.02656
C 34.39771 11.38639 -0.02442
C 1.19435 10.64978 -0.00027
C 1.25196 9.28273 -0.00583
C 0.03708 8.54198 -0.02302
C 34.42589 7.12524 -0.02849
C 1.23497 6.45099 0.02931
C 1.21407 4.9993 0.00628
C 34.42401 4.3322 -0.0345
C 34.39927 2.86998 -0.00931
C 1.20309 2.19923 -0.00939
C 1.16888 0.78007 -0.00468
C 34.43068 17.06185 0.00648
C 31.98696 4.28769 -0.03838
C 1.23304 17.75475 0.01223
C 34.40368 19.87042 0.01951
C 33.18136 2.14892 -0.00323
C 33.16079 0.74975 -0.00841
C 31.91833 34.04141 0.0001
C 34.40316 32.71343 -0.02927
C 1.17627 31.94121 -0.01404
C 1.24427 30.52623 0.01027
C 0.04389 29.81125 0.01831
C 0.02549 28.33948 -0.01037
C 1.27523 27.71708 -0.00439
C 1.25697 26.28891 -0.00598
C 0.03064 25.56327 -0.05239
C 0.08266 24.12437 0.03076
C 1.3146 23.40996 0.00723
C 1.19853 22.02761 0.02712
C 34.38202 21.31872 -0.02213
C 1.18748 19.16795 -0.01678
C 3.58748 32.0419 0.00057
C 30.65317 10.6713 -0.00944
C 29.51391 12.72903 -0.01461
C 25.82415 0.69627 -0.01154
C 24.62426 0.02431 0.00684
C 27.06648 32.63615 -0.01052
C 28.29781 31.91565 -0.01679
C 28.33868 30.40428 0.00367
C 27.06565 29.74883 0.04306
C 27.10727 28.37493 0.00996
C 28.30218 27.6814 0.00195
C 28.2551 26.28602 -0.00802
C 27.01502 25.61712 -0.00218
C 27.0311 24.20479 -0.01654
C 28.27001 23.55877 -0.00037
C 28.24107 22.04362 -0.0032
C 27.07422 21.3294 0.00622
C 27.03742 19.93923 -0.02815
C 25.8557 2.08047 -0.0264
C 28.28392 19.22051 -0.00942
C 24.61548 2.82976 -0.00938
C 25.77072 4.99526 -0.01199
C 25.80091 23.51398 0.00733
C 25.79823 22.12929 -0.00178
C 24.64796 21.31429 0.00768
C 24.5848 19.90845 -0.0276
C 25.81544 19.17098 0.03005
C 25.80322 17.77507 -0.04078
C 24.58288 16.92252 0.02117
C 24.48017 15.60904 0.02737
C 25.58332 14.76678 -0.00498
C 25.86341 13.44217 0.00135
C 25.7932 10.61346 0.03102
C 25.81162 9.25542 0.02555
C 24.57137 8.56376 0.01423
C 24.45345 7.21173 -0.00285
C 25.85017 6.37596 -0.009
C 24.5889 4.20033 -0.00229
C 29.43932 11.31613 -0.02155
C 28.21258 17.80575 0.00487
C 26.97793 15.58956 -0.00294
C 29.55328 28.3697 0.00924
C 30.82357 27.74517 0.02326
C 30.7647 26.31213 0.00261
C 29.48506 25.65577 0.03265
C 29.48104 24.25866 -0.02049
C 30.7067 23.49651 -0.01854
C 30.74273 22.07168 -0.01415
C 29.49085 21.32644 -0.03039
C 29.5649 19.95147 0.01836
C 30.76987 19.17093 0.03531
C 30.67289 17.75037 -0.00669
C 29.40453 17.04765 0.0101
C 29.42526 15.61315 0.01705
C 30.68996 14.9427 -0.0405
C 30.74171 13.49852 -0.01303
C 29.55131 29.74174 0.0014
C 26.99722 17.07065 0.00826
C 30.67359 30.51296 0.01324
C 29.4741 32.67631 0.01177
C 28.20979 14.89258 0.00152
C 28.24793 13.41657 0.01257
C 27.00922 12.717 0.02316
C 26.96369 11.32355 0.04185
C 28.21393 10.58142 0.00194
C 28.22434 9.22866 -0.00621
C 27.06459 8.48243 0.02611
C 27.07199 7.07446 0.02198
C 28.28823 6.35547 0.01094
C 28.21672 4.95632 0.00235
C 27.03154 4.20463 0.01495
C 27.05315 2.78318 0.01259
C 28.2752 2.1418 0.01799
C 28.25532 0.75408 0.01699
C 27.1028 34.04225 -0.00416
C 30.7119 31.94168 0.04266
C 2.33847 32.7609 0.00093
