386
Graphene
C 34.39174 0.07378 0.01295
C 14.69309 25.68861 -0.0014
C 14.75315 24.35366 0.02162
C 15.97088 23.55898 0.0076
C 15.81779 22.08552 0.01241
C 15.97977 9.21965 -0.01454
C 14.95125 8.48784 0.01945
C 14.74516 7.01429 0.01416
C 15.9713 6.4004 0.03542
C 15.86525 4.94756 0.02299
C 15.99388 26.27076 0.00415
C 14.73688 4.23473 0.00244
C 15.9786 2.08109 0.05265
C 16.00086 0.62977 -0.01952
C 14.73513 0.03004 -0.02813
C 17.19504 32.6004 0.00374
C 18.51277 31.87171 0.00052
C 18.45264 30.41667 -0.03682
C 17.1974 29.81031 0.01965
C 17.21245 28.41725 0.02058
C 18.38951 27.69331 -0.01957
C 14.7362 2.81089 -0.01717
C 18.40353 26.28385 -0.0108
C 16.03926 27.69579 -0.02162
C 14.6872 29.8272 0.01877
C 13.53244 32.00601 0.00406
C 13.50063 30.58483 0.00943
C 12.257 29.85659 0.02841
C 12.21391 28.52573 -0.01111
C 13.44571 27.79688 -0.01275
C 13.4574 26.37796 0.00985
C 12.26899 25.56433 -0.02245
C 12.31658 24.12058 -0.00428
C 13.59275 23.5425 0.03101
C 14.76198 28.46158 0.01363
C 12.40534 7.08676 -0.01536
C 13.55154 4.8989 -0.01046
C 12.32041 4.30536 -0.00891
C 12.26564 2.8011 0.02819
C 13.4623 2.09365 0.00165
C 13.48879 0.68986 -0.02971
C 12.28963 0.05638 0.02894
C 14.72107 32.64331 -0.01789
C 16.01228 31.91477 0.00444
C 15.99959 30.51885 -0.00925
C 13.49824 6.36542 -0.02689
C 12.32211 32.68556 0.03592
C 17.17517 25.60283 -0.00368
C 18.3964 23.36851 -0.00114
C 20.81699 23.39483 -0.00491
C 20.89949 21.99115 0.03338
C 19.64916 21.37161 -0.0258
C 19.77594 19.89078 -0.0331
C 21.02581 19.18946 -0.00316
C 20.98376 17.82767 0.02188
C 19.80235 17.09507 -0.01979
C 19.83149 15.77964 0.02691
C 20.97816 14.91545 -0.01581
C 19.59907 24.1165 -0.00109
C 20.95007 13.4696 0.01452
C 19.5073 11.41451 -0.00111
C 20.76374 10.68344 -0.03557
C 20.86181 9.22702 0.03754
C 19.72947 8.43855 0.01739
C 19.61243 7.03747 0.00755
C 20.78526 6.37545 -0.0054
C 20.8022 4.92425 0.00667
C 19.58948 4.18791 0.00143
C 19.64783 2.77222 -0.017
C 19.69984 12.88695 0.04892
C 17.2465 24.14628 -0.02696
C 19.65846 25.46043 0.03698
C 20.87234 27.54106 0.00028
C 18.37379 21.99337 0.00228
C 17.04155 21.40711 0.00798
C 17.42165 19.92453 0.00422
C 18.52423 19.26403 0.0351
C 18.48726 10.51277 -0.03113
C 18.43398 9.15113 0.02098
C 17.20665 8.51891 0.01848
C 17.20751 7.13437 -0.00619
C 18.36892 6.32185 -0.02162
C 20.88347 26.14221 -0.02213
C 18.34564 4.9343 0.00889
C 17.23422 2.8746 0.00979
C 18.37851 2.06877 0.01443
C 18.36998 0.62313 0.03505
C 17.15622 33.9764 -0.02815
C 19.63425 32.55498 -0.04147
C 20.83252 31.83151 -0.05302
C 20.83377 30.4621 0.00213
C 19.69042 29.70809 -0.00066
C 19.64893 28.29875 -0.00289
C 17.12516 4.27524 -0.00481
C 9.84647 0.08676 0.00572
C 11.00477 0.73166 0.0402
C 11.0463 2.1031 -0.02759
C 3.62814 5.01877 0.017
C 2.42136 4.31922 -0.03113
C 2.39392 2.88435 -0.02566
C 3.65151 2.18271 -0.00094
C 3.62977 0.87424 0.02322
C 2.41065 0.0909 -0.00725
C 4.81624 32.68924 -0.05697
C 6.07732 32.01917 0.01087
C 6.04363 30.5766 -0.01343
C 3.64757 6.46278 -0.00643
C 4.8241 29.81658 0.00988
C 6.14803 27.74177 0.01305
C 6.1031 26.31157 -0.00077
C 4.83474 25.58819 0.03368
C 4.85568 24.16735 -0.02929
C 6.11986 23.50706 -0.00966
C 6.06201 22.10723 -0.03337
C 4.87334 21.33588 0.01227
C 4.90636 19.85637 0.00873
C 4.83992 16.59068 -0.00049
C 4.86843 28.34855 0.0276
C 4.87722 12.9275 0.00848
C 2.38775 7.13719 0.0086
C 3.64675 9.29464 -0.00074
C 3.60038 30.60952 -0.04307
C 2.42985 29.88908 0.03189
C 2.44679 28.40311 0.00031
C 3.66513 27.65966 -0.003
C 3.67037 26.27601 0.01402
C 2.45285 25.5762 0.02379
C 2.44311 24.14347 0.00907
C 3.59445 23.3741 0.00643
C 3.63904 22.01883 -0.01509
C 2.44448 8.58332 -0.00518
C 2.46733 21.25732 0.03267
C 3.74735 19.17988 0.00402
C 3.80919 17.58764 0.0073
C 2.52257 17.04083 0.0174
C 2.54715 15.62285 0.03828
C 3.80362 15.24516 0.01226
C 3.76096 13.7113 -0.00279
C 2.56504 12.93915 0.01996
C 2.49625 11.48192 -0.03996
C 3.67233 10.71848 0.01465
C 2.49892 19.8187 0.02374
C 4.89064 11.53403 -0.01303
C 6.10872 10.76739 -0.01378
C 6.1401 9.33298 0.02635
C 7.4204 4.31567 -0.02896
C 7.39395 2.92137 -0.00131
C 8.5884 2.31112 -0.01118
C 8.61968 0.73435 -0.014
C 7.40873 0.06613 0.02147
C 9.78861 32.69108 0.00373
C 11.01446 31.97054 -0.00191
C 10.97953 30.63575 0.00438
C 9.78033 29.93339 0.01291
C 8.63663 5.03638 -0.01004
C 9.80733 28.45449 0.00093
C 11.01704 26.32295 -0.01634
C 9.8097 25.70099 -0.00334
C 9.82203 24.28821 0.02339
C 10.9818 23.59917 0.01641
C 9.71454 7.2425 -0.00719
C 11.10655 6.52714 0.01364
C 11.0768 5.10619 -0.01062
C 9.86663 4.38629 -0.00033
C 9.8751 2.88814 0.03589
C 11.01779 27.75426 0.00057
C 8.60509 6.45497 0.00488
C 7.33284 7.1609 0.01745
C 7.35832 8.52929 0.03693
C 4.9018 8.55547 0.0127
C 4.8977 7.16412 0.01396
C 6.05142 6.43181 0.01849
C 6.16846 5.08336 -0.01142
C 4.97829 4.3859 -0.00562
C 4.94129 2.90664 -0.00494
C 6.1468 2.14727 0.00054
C 6.14755 0.75458 0.03007
C 4.84876 0.10904 -0.00095
C 7.37354 32.73688 0.01572
C 8.54778 32.03175 -0.04848
C 8.46993 30.57069 -0.00892
C 7.30352 29.83624 -0.01362
C 7.34276 28.4546 -0.0008
C 8.58674 27.72007 0.0288
C 8.60144 26.29738 0.00393
C 7.31177 25.57344 0.00895
C 7.34084 24.21067 0.00685
C 8.56524 23.56761 0.02888
C 8.47576 22.10334 -0.00482
C 7.31245 21.58703 -0.01384
C 20.85994 2.03623 0.00364
C 20.87408 0.63616 -0.00831
C 19.64994 33.96896 -0.02957
C 22.06569 32.58618 -0.04422
C 30.57663 5.00252 0.07705
C 29.46314 4.32052 0.0103
C 29.46024 2.82561 0.02108
C 30.72742 2.15122 0.00716
C 30.71647 0.732 0.00307
C 29.45865 0.01181 0.00346
C 31.9493 32.68592 0.01713
C 33.13406 31.97279 -0.01694
C 33.17531 30.55429 0.01428
C 30.625 6.36417 0.01908
C 31.92719 29.8622 -0.02142
C 33.10734 27.68396 0.00026
C 33.15862 26.23259 0.00682
C 31.91099 25.58089 -0.01779
C 31.90861 24.17801 0.03794
C 33.08362 23.40263 0.01927
C 33.15805 21.95807 0.01574
C 31.87526 21.28901 -0.02383
C 31.99624 19.90897 -0.01429
C 33.24967 19.21383 -0.0136
C 31.89601 28.44118 0.0544
C 33.25092 17.70955 0.00594
C 29.45594 7.09326 0.01518
C 30.68227 9.14294 -0.03735
C 30.74786 30.50616 0.01324
C 29.45934 29.83881 0.0014
C 29.42639 28.48472 0.00924
C 30.65394 27.76005 0.02326
C 30.66841 26.34085 0.00261
C 29.45634 25.61323 0.03265
C 29.49274 24.19094 -0.02049
C 30.63654 23.47132 -0.01854
C 30.69006 22.01517 -0.01415
C 29.45887 8.48519 -0.00971
C 29.48112 21.2525 -0.03039
C 30.81429 19.20257 0.03531
C 30.81514 17.78058 -0.00669
C 29.5558 17.07499 0.0101
C 29.51086 15.68481 0.01705
C 30.75842 14.9162 -0.0405
C 30.68481 13.44293 -0.01303
C 29.47822 12.73597 -0.01461
C 29.50444 11.33214 -0.02155
C 30.69871 10.64267 -0.00944
C 29.53702 19.89746 0.01836
C 32.01804 17.01619 -0.02474
C 32.03638 15.65557 0.00369
C 33.26074 15.01198 0.00455
C 34.39663 21.27585 -0.02213
C 0.05537 19.92425 0.01951
C 1.26893 19.18569 -0.01678
C 1.34612 17.76861 0.01223
C 0.02902 17.03542 0.00648
C 0.04388 15.64144 0.02114
C 1.26856 14.89276 -0.02957
C 1.34992 13.48831 0.00343
C 0.04388 12.79188 -0.02656
C 1.218 21.94138 0.02712
C 34.37102 11.37725 -0.02442
C 1.22295 9.2743 -0.00583
C 34.30651 8.46978 -0.02302
C 34.28639 7.09924 -0.02849
C 1.19836 6.43037 0.02931
C 1.2111 4.99921 0.00628
C 34.39692 4.34318 -0.0345
C 34.40672 2.9318 -0.00931
C 1.16024 2.1712 -0.00939
C 1.17934 0.73408 -0.00468
C 1.21305 10.71707 -0.00027
C 1.17761 23.38118 0.00723
C 34.34775 24.1295 0.03076
C 34.39192 25.57564 -0.05239
C 33.26867 13.48413 -0.00644
C 32.03266 12.72213 -0.01839
C 31.97917 11.29845 0.00137
C 33.21447 10.62957 0.00199
C 33.11696 9.18107 0.04381
C 31.84384 8.50788 0.02806
C 31.86854 7.06829 0.01504
C 33.10123 6.42655 -0.00069
C 33.16542 4.99609 0.04926
C 31.88694 4.32132 -0.03838
C 31.96162 2.81657 0.00349
C 33.18333 2.18002 -0.00323
C 33.16473 0.77361 -0.00841
C 31.91544 0.01802 0.0001
C 34.35184 32.73963 -0.02927
C 1.1329 32.00789 -0.01404
C 1.13281 30.58461 0.01027
C 34.41097 29.87745 0.01831
C 34.33921 28.37816 -0.01037
C 1.13185 27.73333 -0.00439
C 1.15062 26.31567 -0.00598
C 30.65935 31.94267 0.04266
C 3.59329 31.97137 0.03284
C 29.44365 32.65631 0.01177
C 28.23343 0.74574 0.01699
C 23.31484 6.27918 0.01852
C 23.25844 4.92786 -0.00381
C 22.01464 4.23553 0.03046
C 22.04698 2.80675 0.0296
C 23.21196 2.09144 0.03374
C 23.2091 0.67088 -0.02845
C 22.11556 34.00161 -0.03213
C 24.55023 32.56001 0.02239
C 25.77861 31.94874 0.01153
C 22.02399 7.0486 0.01126
C 25.79549 30.50071 0.02734
C 24.55077 28.34105 0.01515
C 25.7747 27.68969 -0.00225
C 25.7468 26.1828 0.00071
C 24.50225 25.45503 -0.01107
C 24.53358 24.03849 -0.01586
C 25.83801 23.39598 -0.01971
C 25.84279 22.00586 -0.02118
C 24.6205 21.26559 0.00733
C 24.61857 19.85904 -0.00178
C 24.59684 29.751 -0.0055
C 25.88515 19.1542 0.00768
C 22.05284 8.48464 -0.01185
C 23.31856 10.63558 -0.00478
C 23.23471 31.8343 0.00654
C 23.26575 30.48588 -0.00703
C 22.05859 29.7116 -0.04076
C 22.12352 28.30066 -0.00652
C 23.30764 27.65019 0.0058
C 23.32252 26.25527 -0.00865
C 22.1233 25.46958 0.00675
C 22.14105 24.04312 -0.00311
C 23.34934 23.33781 0.00742
C 23.24238 9.23315 -0.01662
C 23.34324 21.99697 -0.01594
C 22.24302 19.88502 -0.01154
C 23.44205 19.13761 -0.01721
C 23.4913 17.72608 -0.02422
C 22.17794 17.08216 0.01277
C 22.21185 15.58499 0.00096
C 23.35031 14.84971 -0.01527
C 23.34364 13.50543 0.01087
C 22.1127 12.72048 0.00199
C 22.02277 11.2776 0.01511
C 22.11101 21.30505 0.0106
C 25.94907 17.70564 -0.0276
C 24.73227 16.99917 0.03005
C 24.67449 15.59228 -0.04078
C 28.24659 21.97937 -0.0032
C 27.05847 21.27787 0.00622
C 27.04704 19.89464 -0.02815
C 28.31703 19.18528 -0.00942
C 28.35412 17.76521 0.00487
C 27.1643 16.98563 0.00826
C 27.15141 15.57579 -0.00294
C 28.35837 14.89945 0.00152
C 28.30916 13.48874 0.01257
C 28.29742 23.4544 -0.00037
C 26.99976 12.74152 0.02316
C 28.30055 10.65609 0.00194
C 28.17119 9.21891 -0.00621
C 26.96009 8.472 0.02611
C 26.93846 7.07157 0.02198
C 28.18743 6.40023 0.01094
C 28.2034 4.96897 0.00235
C 26.95371 4.18704 0.01495
C 26.91243 2.79258 0.01259
C 28.20143 2.19487 0.01799
C 26.96569 11.28861 0.04185
C 27.06963 24.14514 -0.01654
C 26.9939 25.5397 -0.00218
C 28.2734 26.26918 -0.00802
C 25.89202 14.91327 0.02117
C 25.79226 13.45562 0.02737
C 24.59611 12.78951 -0.00498
C 24.59479 11.34381 0.00135
C 25.77337 10.56244 0.03102
C 25.84347 9.20382 0.02555
C 24.45383 8.52296 0.01423
C 24.43782 7.04535 -0.00285
C 25.73524 6.31951 -0.009
C 25.71683 4.95382 -0.01199
C 24.48596 4.23511 -0.00229
C 24.41318 2.79477 -0.00938
C 25.76048 2.07834 -0.0264
C 25.71278 0.65048 -0.01154
C 24.47817 34.06181 0.00684
C 27.0378 32.61591 -0.01052
C 28.20427 31.97101 -0.01679
C 28.30135 30.53491 0.00367
C 26.99605 29.76108 0.04306
C 27.06837 28.3524 0.00996
C 28.29035 27.67082 0.00195
C 26.98303 34.03495 -0.00416
C 2.38766 32.71479 0.04505
