369
Graphene
C 34.40673 0.07668 0.01295
C 13.62896 19.32054 -0.01952
C 13.58384 17.84148 -0.02813
C 12.33507 17.08109 0.00374
C 12.31706 15.66896 0.00052
C 13.54822 14.92067 -0.03682
C 13.57509 13.561 0.01965
C 12.33952 12.86043 0.02058
C 12.34937 11.38019 -0.01957
C 13.59462 10.74824 -0.0108
C 13.50911 9.29753 -0.00368
C 12.25799 8.53348 -0.02696
C 12.26963 7.07062 -0.00114
C 13.48644 6.21429 0.00228
C 13.46695 4.85471 0.00798
C 12.31141 4.05539 0.00422
C 12.25605 2.51753 0.0351
C 13.54079 1.86997 -0.03113
C 13.39193 0.39158 0.02098
C 12.09981 33.89918 0.01848
C 12.37303 20.03177 0.05265
C 16.09692 23.78284 -0.00619
C 12.23614 21.58471 -0.01717
C 9.48766 33.74474 0.02299
C 9.85828 19.82545 0.02819
C 11.08943 19.22516 0.00165
C 11.09204 17.81357 -0.02971
C 9.84677 17.15473 0.02894
C 9.8784 15.73172 -0.01789
C 11.10386 14.94224 0.00444
C 11.07651 13.54512 -0.00925
C 9.94048 12.78953 0.01877
C 9.92785 11.43599 0.01363
C 11.12165 10.69866 -0.02162
C 11.09687 9.20596 0.00415
C 9.82678 8.55368 -0.0014
C 9.81614 7.07857 0.02162
C 11.052 6.31915 0.0076
C 11.02934 4.89847 0.01241
C 9.86505 4.26272 -0.01454
C 9.77537 2.75516 0.01945
C 10.9256 1.83442 0.01416
C 10.81883 0.34791 0.03542
C 13.54862 21.94088 0.00244
C 9.74812 21.27803 -0.00891
C 16.05577 22.28686 -0.02162
C 14.90663 19.90581 -0.00481
C 17.07262 24.65785 0.04892
C 18.23005 23.54271 -0.00111
C 18.59467 22.30552 -0.03557
C 17.31729 21.52051 0.03754
C 17.18658 20.13278 0.01739
C 17.31672 12.72035 0.00755
C 17.2044 11.30092 -0.0054
C 18.44497 10.5501 0.00667
C 18.47537 9.14517 0.00143
C 17.17394 8.39764 -0.017
C 17.23275 6.98282 0.00364
C 18.53207 6.39095 -0.00831
C 18.49074 4.95258 -0.02957
C 17.22152 4.20152 -0.04422
C 17.2108 2.75312 0.00654
C 18.41678 2.04246 -0.00703
C 18.39444 0.62326 -0.04076
C 17.14895 34.01291 -0.00652
C 19.49824 32.41602 0.0058
C 17.91884 25.57225 0.01452
C 14.85262 21.41017 0.00889
C 18.32547 30.37279 -0.01581
C 16.94692 32.64952 -0.01979
C 16.15705 19.287 0.00979
C 16.03988 17.66074 0.01443
C 14.76986 17.0765 0.03505
C 14.81948 15.64512 -0.02815
C 16.00434 14.97676 -0.04147
C 16.17985 13.56641 -0.05302
C 14.91269 12.87047 0.00213
C 14.84287 11.40012 -0.00066
C 15.99415 10.61114 -0.00289
C 15.93925 9.19018 0.00028
C 14.64414 8.4808 -0.02213
C 14.74743 7.02106 0.03698
C 15.96599 6.27164 -0.00109
C 15.95468 4.79761 -0.00491
C 14.67133 4.14602 0.03338
C 14.69769 2.72533 -0.0258
C 15.91385 2.11806 -0.0331
C 15.86695 0.63075 -0.00316
C 14.80006 33.8863 0.02188
C 18.17706 31.77659 0.02691
C 10.95615 22.1686 -0.01046
C 7.24041 0.17634 -0.02689
C 8.51659 0.74586 -0.01536
C 3.64722 6.45526 -0.03337
C 3.6538 5.04271 0.01227
C 2.44221 4.3353 0.00873
C 2.45405 3.01162 -0.00049
C 3.65532 2.2111 0.00848
C 3.60937 0.77248 -0.01303
C 2.38502 0.01806 -0.01378
C 4.84947 32.74656 0.02635
C 6.21284 32.09317 0.0127
C 6.20485 30.68142 0.01396
C 4.94523 29.88534 0.01849
C 4.8481 28.45013 -0.01142
C 6.16186 27.73458 -0.00562
C 6.14785 26.37327 -0.00494
C 4.84065 25.59579 0.00054
C 5.00195 24.21391 0.03007
C 6.21923 23.59354 -0.00095
C 6.17311 22.08359 0.01572
C 4.8968 21.40881 -0.04848
C 2.41017 7.21442 -0.00966
C 4.91806 20.00074 -0.00892
C 2.5027 8.64844 -0.02929
C 3.68811 10.77852 -0.00077
C 3.66573 30.57457 0.01996
C 2.45298 29.93704 -0.03996
C 2.34017 28.50615 0.01465
C 3.62562 27.75266 -0.00074
C 3.70225 26.39916 -0.00518
C 2.48829 25.6038 0.0086
C 2.4881 24.21423 -0.00643
C 3.73209 23.47827 0.017
C 3.74448 22.10788 -0.03113
C 2.4491 21.44759 -0.02566
C 2.46279 20.01773 -0.00094
C 3.60344 19.27239 0.02322
C 3.71847 17.8629 -0.00725
C 2.45283 17.04576 -0.05697
C 2.47638 15.62859 0.01087
C 3.75664 15.00933 -0.01343
C 3.7015 13.54565 0.00988
C 2.3999 12.93905 0.0276
C 2.40043 11.41256 0.01305
C 3.73589 9.33318 0.03368
C 6.12648 19.20688 -0.01362
C 6.14965 17.8106 -0.0008
C 4.91518 17.13347 0.0288
C 7.30442 21.33604 0.01641
C 7.34527 19.87149 -0.00719
C 8.60485 19.17082 0.01364
C 8.61219 17.77613 -0.01062
C 7.36752 17.08201 -0.00033
C 7.41677 15.70689 0.03589
C 8.63816 14.95203 -0.02759
C 8.67754 13.5246 0.0402
C 7.37716 12.90312 0.00572
C 7.40718 11.50345 0.03592
C 8.66666 10.79885 0.00406
C 8.61883 9.29313 0.00943
C 7.39756 8.57469 0.02841
C 7.41445 7.15855 -0.01111
C 8.61488 6.41065 -0.01275
C 8.65333 5.00262 0.00985
C 7.37446 4.37636 -0.02245
C 7.35958 2.83396 -0.00428
C 8.57254 2.08347 0.03101
C 8.61188 22.02701 0.02339
C 8.69694 23.43326 -0.00334
C 7.53797 24.26998 -0.01634
C 7.40122 25.65677 0.00057
C 4.9439 15.70879 0.00393
C 6.14448 14.99084 0.00895
C 6.07821 13.6341 0.00685
C 4.92398 12.77391 0.02888
C 4.92404 11.39835 -0.00482
C 6.11363 10.69676 -0.01384
C 6.18472 9.26682 0.03693
C 4.97787 8.61723 0.01745
C 4.89002 7.18147 0.00488
C 20.66884 31.71639 -0.00865
C 6.12407 6.50906 -0.01004
C 4.86937 4.36187 -0.00131
C 4.80901 2.95206 -0.01118
C 6.05876 2.2999 -0.014
C 6.04226 0.84499 0.02147
C 4.74717 0.06077 0.00373
C 7.4984 32.7767 -0.00191
C 8.9171 32.65433 0.00438
C 7.29499 29.89129 0.01291
C 7.33754 28.51854 0.00093
C 6.19159 5.05433 -0.02896
C 3.69309 31.97997 -0.00279
C 20.69455 30.23572 0.00675
C 19.58823 28.15009 0.00742
C 30.66942 0.7745 0.00307
C 29.47519 0.05548 0.00346
C 31.86986 32.71819 0.01713
C 33.13728 32.00332 -0.01694
C 33.2349 30.61802 0.01428
C 31.9924 29.87234 -0.02142
C 31.91812 28.50576 0.0544
C 33.08663 27.71303 0.00026
C 33.16551 26.36554 0.00682
C 31.85087 25.57642 -0.01779
C 32.0005 24.12996 0.03794
C 33.19401 23.47397 0.01927
C 33.15877 22.07181 0.01574
C 31.93328 21.37116 -0.02383
C 31.91026 19.87466 -0.01429
C 33.16523 19.1948 -0.0136
C 33.18652 17.7141 0.00594
C 31.93924 17.0608 -0.02474
C 31.96019 15.63877 0.00369
C 30.65438 2.16907 0.00716
C 33.14092 14.93109 0.00455
C 29.40748 2.85517 0.02108
C 30.73811 4.98782 0.07705
C 29.40274 25.48544 0.03265
C 29.48015 24.08794 -0.02049
C 30.82384 23.36075 -0.01854
C 30.76219 21.97195 -0.01415
C 29.52471 21.24365 -0.03039
C 29.44527 19.83456 0.01836
C 30.69773 19.16043 0.03531
C 30.66145 17.72428 -0.00669
C 29.47197 16.98013 0.0101
C 29.53273 15.58674 0.01705
C 30.70634 14.92811 -0.0405
C 30.70681 13.46584 -0.01303
C 29.43706 12.76952 -0.01461
C 29.62395 11.42884 -0.02155
C 30.77237 10.64399 -0.00944
C 30.74784 9.25953 -0.03735
C 29.54877 8.46079 -0.00971
C 29.49998 7.07286 0.01518
C 30.74994 6.43652 0.01908
C 29.46872 4.26184 0.0103
C 30.61835 26.29952 0.00261
C 33.12783 13.44953 -0.00644
C 31.95778 11.44281 0.00137
C 34.39111 19.85934 0.01951
C 1.20763 19.19137 -0.01678
C 1.24671 17.77762 0.01223
C 34.40374 17.06127 0.00648
C 34.39493 15.61363 0.02114
C 1.1676 14.93163 -0.02957
C 1.09005 13.48767 0.00343
C 34.41587 12.7557 -0.02656
C 34.40176 11.33767 -0.02442
C 1.21563 10.67444 -0.00027
C 1.19496 9.29775 -0.00583
C 0.00214 8.52509 -0.02302
C 34.35938 7.1091 -0.02849
C 1.17241 6.48362 0.02931
C 1.24153 5.11511 0.00628
C 0.03713 4.339 -0.0345
C 34.4061 2.91108 -0.00931
C 1.21824 2.13494 -0.00939
C 1.26076 0.7934 -0.00468
C 34.41159 21.34323 -0.02213
C 31.94786 12.78744 -0.01839
C 1.16745 22.06042 0.02712
C 34.40667 24.23295 0.03076
C 33.26057 10.65448 0.00199
C 33.21524 9.28288 0.04381
C 31.97414 8.54426 0.02806
C 31.98944 7.12852 0.01504
C 33.19868 6.34799 -0.00069
C 33.17796 4.95832 0.04926
C 31.9441 4.25461 -0.03838
C 31.84846 2.85681 0.00349
C 33.12636 2.20965 -0.00323
C 33.18784 0.79308 -0.00841
C 31.91448 0.02078 0.0001
C 34.35333 32.77734 -0.02927
C 1.13285 32.04039 -0.01404
C 1.19718 30.54169 0.01027
C 34.38437 29.83048 0.01831
C 34.36238 28.36923 -0.01037
C 1.17395 27.72174 -0.00439
C 1.27087 26.32488 -0.00598
C 34.42287 25.59156 -0.05239
C 1.18541 23.5049 0.00723
C 30.6785 27.74634 0.02326
C 29.41613 28.36068 0.00924
C 29.42423 29.79901 0.0014
C 23.47318 9.44679 0.01153
C 22.22356 8.74753 0.02734
C 22.09987 7.1568 -0.0055
C 23.29875 6.39599 0.01515
C 23.32807 4.95443 -0.00225
C 22.08448 4.20215 0.00071
C 22.14023 2.79072 -0.01107
C 23.37892 2.07514 -0.01586
C 23.2941 0.61644 -0.01971
C 22.0042 33.90631 -0.02118
C 24.52214 32.61121 0.00733
C 25.73766 31.81381 -0.00178
C 25.64869 30.45069 0.00768
C 24.45013 29.75511 -0.0276
C 24.49643 28.38008 0.03005
C 25.78816 27.59319 -0.04078
C 25.65685 26.20531 0.02117
C 26.05131 18.55042 0.02737
C 25.57076 13.09376 -0.00498
C 23.44387 10.96107 0.02239
C 24.82637 11.80472 0.00135
C 22.16786 11.42769 -0.03213
C 22.07707 28.17699 0.03374
C 20.73946 27.55655 -0.01594
C 20.43934 26.07085 0.0106
C 19.21108 25.6521 -0.01154
C 19.48247 11.38003 -0.01721
C 20.90392 10.87029 -0.02422
C 20.90884 9.38327 0.01277
C 19.77531 8.54408 0.00096
C 19.7448 7.18236 -0.01527
C 20.85865 6.41605 0.01087
C 20.84735 5.00303 0.00199
C 19.67627 4.30517 0.01511
C 19.60056 2.8184 -0.00478
C 20.90121 2.0082 -0.01662
C 20.7606 0.57013 -0.01185
C 19.55903 33.88417 0.01126
C 21.96103 32.44992 0.01852
C 23.21443 31.84698 -0.00381
C 23.17432 30.40453 0.03046
C 21.99073 29.61047 0.0296
C 23.36717 27.55056 -0.02845
C 25.80034 10.67898 0.03102
C 25.80852 9.29608 0.02555
C 24.63192 8.5554 0.01423
C 27.07072 15.82573 -0.00294
C 28.15442 14.97157 0.00152
C 28.17103 13.44091 0.01257
C 26.93179 12.70156 0.02316
C 27.08966 11.24972 0.04185
C 28.36499 10.6241 0.00194
C 28.27329 9.24299 -0.00621
C 27.03273 8.49847 0.02611
C 26.95114 7.08388 0.02198
C 28.20793 6.3501 0.01094
C 28.24025 4.93213 0.00235
C 26.97297 4.21015 0.01495
C 26.99843 2.81817 0.01259
C 28.20901 2.14142 0.01799
C 28.1823 0.71699 0.01699
C 27.03481 33.96918 -0.00416
C 29.42215 32.75793 0.01177
C 30.61984 31.9912 0.04266
C 30.64943 30.57808 0.01324
C 26.92207 17.17207 0.00826
C 28.26429 17.67506 0.00487
C 28.25957 19.06514 -0.00942
C 26.91649 19.77092 -0.02815
C 24.50677 7.15827 -0.00285
C 25.77928 6.40117 -0.009
C 25.77331 5.01035 -0.01199
C 24.54616 4.261 -0.00229
C 24.59451 2.79146 -0.00938
C 25.79493 2.09499 -0.0264
C 25.77348 0.66678 -0.01154
C 24.51374 34.01925 0.00684
C 26.93094 32.63316 -0.01052
C 19.36909 29.5252 -0.00311
C 28.21568 31.99612 -0.01679
C 26.98183 29.78528 0.04306
C 27.01202 28.35597 0.00996
C 28.2116 27.54738 0.00195
C 28.14303 26.12763 -0.00802
C 26.8667 25.35726 -0.00218
C 27.02953 23.91952 -0.01654
C 28.20279 23.35804 -0.00037
C 28.23197 21.87078 -0.0032
C 27.05584 21.25187 0.00622
C 28.17661 30.60143 0.00367
C 2.33301 32.69446 0.01226
