428
Graphene
C 0.0651 34.03726 0.01295
C 12.30384 2.91354 0.03589
C 13.5537 2.18643 -0.02759
C 13.47807 0.7656 0.0402
C 12.33485 34.06307 0.00572
C 14.79969 32.68393 0.03592
C 15.99035 31.93598 0.00406
C 15.94665 30.52041 0.00943
C 14.72018 29.70534 0.02841
C 14.77407 28.33192 -0.01111
C 15.99907 27.61722 -0.01275
C 12.31044 4.2918 -0.00033
C 15.97194 26.25951 0.00985
C 14.79053 24.14057 -0.00428
C 16.02373 23.49435 0.03101
C 15.96266 22.04808 -0.01536
C 14.78181 21.24826 -0.02689
C 14.72691 19.75452 -0.01046
C 15.93959 19.05158 -0.00891
C 15.97236 17.64905 0.02819
C 14.73161 17.03532 0.00165
C 14.72603 15.61311 -0.02971
C 15.95813 14.8923 0.02894
C 14.73379 25.59978 -0.02245
C 13.49049 5.03838 -0.01062
C 13.51209 6.45301 0.01364
C 12.2437 7.08574 -0.00719
C 13.56143 31.9615 0.00685
C 13.50626 30.5796 0.02888
C 12.29167 29.84358 -0.00482
C 12.31708 28.461 -0.01384
C 13.47767 27.7148 0.03693
C 13.49357 26.34323 0.01745
C 12.2662 25.66138 0.00488
C 12.33223 24.21581 -0.01004
C 13.56201 23.41268 -0.02896
C 13.57676 21.96258 -0.00131
C 12.3292 21.34588 -0.01118
C 12.38087 19.90646 -0.014
C 13.54323 19.1296 0.02147
C 13.48129 17.70331 0.00373
C 12.23486 17.01734 -0.00191
C 12.2154 15.62888 0.00438
C 13.5654 14.90013 0.01291
C 13.57438 13.53228 0.00093
C 12.36191 12.86468 0.00057
C 12.2457 11.44305 -0.01634
C 13.48071 10.72555 -0.00334
C 13.46437 9.30256 0.02339
C 12.27653 8.52719 0.01641
C 16.03458 13.45969 -0.01789
C 14.82954 12.77294 0.00444
C 14.75509 11.40991 -0.00925
C 15.96535 10.62738 0.01877
C 18.43806 14.87299 0.00228
C 18.46144 13.531 0.00798
C 17.27705 12.75335 0.00422
C 17.21356 11.37817 0.0351
C 18.43896 10.62994 -0.03113
C 18.43663 9.2207 0.02098
C 17.20306 8.51455 0.01848
C 17.15506 7.03691 -0.00619
C 18.42026 6.31029 -0.02162
C 18.47445 4.8767 0.00889
C 17.21085 4.25237 -0.00481
C 17.1766 2.84576 0.00979
C 18.368 2.12004 0.01443
C 18.40334 0.77196 0.03505
C 17.17803 34.06204 -0.02815
C 19.64499 32.73658 -0.04147
C 20.873 31.94922 -0.05302
C 20.89409 30.5658 0.00213
C 19.73161 29.80655 -0.00066
C 19.70624 28.37563 -0.00289
C 20.94597 27.74161 0.00028
C 20.94377 26.31579 -0.02213
C 19.70701 25.60396 0.03698
C 17.19184 15.55666 -0.00114
C 12.27561 32.6241 0.00895
C 17.24901 16.98544 -0.02696
C 18.4386 19.20586 -0.0108
C 15.95268 9.20936 0.01363
C 14.69354 8.60694 -0.02162
C 14.76698 7.15434 0.00415
C 15.88493 6.39251 -0.0014
C 15.92641 4.97075 0.02162
C 14.69192 4.31694 0.0076
C 14.75908 2.85941 0.01241
C 15.95324 2.11125 -0.01454
C 15.90562 0.67126 0.01945
C 14.69364 0.01919 0.01416
C 17.22122 32.65026 0.03542
C 18.41605 31.95659 0.02299
C 18.49912 30.54212 0.00244
C 17.22483 29.85197 -0.01717
C 17.2019 28.4448 0.05265
C 18.4683 27.70828 -0.01952
C 18.44712 26.26292 -0.02813
C 17.20631 25.56064 0.00374
C 17.28309 24.14626 0.00052
C 18.42553 23.42193 -0.03682
C 18.42009 21.97687 0.01965
C 17.13803 21.35669 0.02058
C 17.17598 19.88082 -0.01957
C 18.37886 17.78927 -0.00368
C 19.69755 24.21245 -0.00109
C 9.82486 34.04299 0.00393
C 11.07514 2.1303 -0.0008
C 6.23066 30.53804 -0.00039
C 4.95782 29.88742 0.0064
C 4.86001 28.44648 0.00211
C 6.08899 27.73065 -0.00449
C 6.0779 26.28861 -0.01979
C 4.86413 25.54343 0.02784
C 4.92966 24.10704 -0.01977
C 6.15375 23.43811 -0.00561
C 6.20757 21.87196 0.00208
C 4.89886 21.31067 0.01707
C 6.19198 31.96386 0.02728
C 4.90369 12.72901 0.02769
C 6.09733 10.7354 -0.04999
C 6.078 9.28489 0.04505
C 4.92811 8.51488 0.03284
C 4.92477 7.10336 -0.04307
C 6.16785 6.36299 0.03189
C 6.17603 4.92176 0.00031
C 4.91154 4.23436 -0.003
C 4.88164 2.84788 0.01402
C 6.12932 2.14136 0.02379
C 6.109 0.70173 0.00907
C 4.87145 11.40019 -0.03291
C 4.9334 32.68838 0.00245
C 2.46769 34.0303 0.00081
C 3.72521 0.69661 -0.02805
C 3.71884 30.56178 0.00787
C 2.51369 29.91648 0.02426
C 2.4838 28.44873 0.01218
C 3.6511 27.70296 -0.01471
C 3.63622 26.23594 -0.02827
C 2.41253 25.4879 0.01078
C 2.48652 24.11431 -0.00112
C 3.69166 23.42907 0.03345
C 3.71153 22.00713 0.00748
C 2.42635 21.39805 0.00662
C 2.37756 20.04626 -0.0154
C 3.8884 13.40386 -0.01299
C 2.5453 12.84838 -0.00407
C 2.49615 11.36337 0.01138
C 3.629 10.59352 0.03278
C 3.6474 9.11341 -0.00177
C 2.33802 8.42841 0.04421
C 2.33859 7.03219 0.00088
C 3.63831 6.40464 0.00828
C 3.66783 4.94911 -0.02375
C 2.42118 4.26907 0.00558
C 2.47907 2.81775 -0.0059
C 3.68782 2.09821 -0.01386
C 4.94619 34.06853 0.00643
C 7.42591 32.7091 -0.01509
C 8.56834 31.96841 0.03267
C 8.62413 30.52699 0.02374
C 9.81045 28.49653 -0.02929
C 11.05029 27.74257 -0.00966
C 11.03931 26.33592 -0.03337
C 9.80355 25.61927 0.01227
C 9.78617 24.16186 0.00873
C 11.07012 23.53202 -0.00049
C 11.15219 22.09687 0.00848
C 9.82177 21.43139 -0.01303
C 9.86194 20.06395 -0.01378
C 10.95933 19.18554 0.02635
C 11.03825 17.72241 0.0127
C 11.05778 14.9321 0.01396
C 11.08859 13.5371 0.01849
C 9.82705 12.8488 -0.01142
C 9.84567 11.44799 -0.00562
C 11.05721 10.73329 -0.00494
C 11.02331 9.25284 0.00054
C 9.78485 8.56863 0.03007
C 9.74004 7.1404 -0.00095
C 11.07533 6.36892 0.01572
C 11.10974 4.97955 -0.04848
C 9.81587 4.31383 -0.00892
C 9.83583 2.90378 -0.01362
C 9.88467 29.86444 0.03368
C 11.0835 0.68678 0.0288
C 11.11318 30.5853 -0.00077
C 9.80661 32.62233 0.0276
C 7.37902 29.86399 0.00402
C 7.32194 28.44415 0.0073
C 8.5449 27.70717 0.0174
C 8.5479 26.28281 0.03828
C 7.29182 25.58046 0.01226
C 7.37757 24.07569 -0.00279
C 8.56778 23.50732 0.01996
C 8.56791 22.10784 -0.03996
C 7.48417 21.28506 0.01465
C 8.55826 13.36887 -0.00074
C 7.47379 12.83684 -0.00518
C 7.32613 11.41667 0.0086
C 8.61374 10.7138 -0.00643
C 8.55673 9.23538 0.017
C 7.30194 8.5801 -0.03113
C 7.28115 7.1499 -0.02566
C 8.53583 6.42735 -0.00094
C 8.58619 5.05325 0.02322
C 7.41195 4.22584 -0.00725
C 7.355 2.77416 -0.05697
C 8.62286 2.114 0.01087
C 8.62672 0.74236 -0.01343
C 7.39479 0.0747 0.00988
C 11.01104 31.97508 0.01305
C 20.91989 23.49768 -0.00491
C 20.96754 22.03578 0.03338
C 19.67022 21.3272 -0.0258
C 29.51323 12.72387 -0.01461
C 29.51609 11.29624 -0.02155
C 30.73895 10.6388 -0.00944
C 30.74658 9.17694 -0.03735
C 29.52942 8.50314 -0.00971
C 29.4886 7.06273 0.01518
C 30.66572 6.29348 0.01908
C 30.7121 4.87788 0.07705
C 29.47951 4.23623 0.0103
C 29.45825 2.79511 0.02108
C 30.66771 13.53009 -0.01303
C 30.73194 2.14754 0.00716
C 29.52044 0.02852 0.00346
C 31.97841 32.62481 0.01713
C 33.22295 31.91792 -0.01694
C 33.2604 30.46663 0.01428
C 31.98944 29.76159 -0.02142
C 31.97967 28.30883 0.0544
C 33.2493 27.62695 0.00026
C 33.18449 26.25451 0.00682
C 31.918 25.57447 -0.01779
C 31.91071 24.13187 0.03794
C 30.71902 0.721 0.00307
C 30.72519 14.97146 -0.0405
C 29.5281 15.69067 0.01705
C 29.49792 17.04234 0.0101
C 27.07227 7.13164 0.02198
C 28.22209 6.42571 0.01094
C 28.26616 5.01865 0.00235
C 27.06219 4.30354 0.01495
C 27.08923 2.8621 0.01259
C 28.26917 2.09991 0.01799
C 28.29314 0.67288 0.01699
C 27.03958 0.04939 -0.00416
C 29.58133 32.6098 0.01177
C 30.70727 31.87743 0.04266
C 30.71853 30.41635 0.01324
C 29.46126 29.78275 0.0014
C 29.50888 28.3999 0.00924
C 30.71264 27.64422 0.02326
C 30.69091 26.19936 0.00261
C 29.4721 25.52004 0.03265
C 29.51542 24.14244 -0.02049
C 30.73272 23.44508 -0.01854
C 30.80876 21.98085 -0.01415
C 29.49267 21.34412 -0.03039
C 29.53996 19.94636 0.01836
C 30.75426 19.14761 0.03531
C 30.74804 17.75776 -0.00669
C 33.13575 23.48345 0.01927
C 33.17895 22.0576 0.01574
C 31.98136 21.276 -0.02383
C 31.96394 19.83652 -0.01429
C 34.3858 24.18804 0.03076
C 1.20313 23.51632 0.00723
C 1.20922 22.0936 0.02712
C 34.43315 21.34565 -0.02213
C 34.38296 19.89511 0.01951
C 1.25705 19.13666 -0.01678
C 1.18675 17.75354 0.01223
C 0.01465 17.06106 0.00648
C 0.02039 15.60136 0.02114
C 1.15919 14.89694 -0.02957
C 1.26479 13.51807 0.00343
C 34.36426 12.86242 -0.02656
C 34.42972 11.33361 -0.02442
C 1.23497 10.63468 -0.00027
C 1.17069 9.25959 -0.00583
C 34.42055 8.49611 -0.02302
C 34.35701 7.07175 -0.02849
C 1.131 6.32302 0.02931
C 1.18104 4.89808 0.00628
C 34.40094 4.20499 -0.0345
C 34.43152 2.78818 -0.00931
C 1.22883 2.07551 -0.00939
C 1.24969 0.71855 -0.00468
C 34.38145 25.57093 -0.05239
C 27.02213 8.51283 0.02611
C 1.22789 26.21908 -0.00598
C 0.11211 28.25091 -0.01037
C 33.1758 19.12957 -0.0136
C 33.20562 17.72765 0.00594
C 31.9633 17.00048 -0.02474
C 31.99985 15.66967 0.00369
C 33.18895 14.87455 0.00455
C 33.05509 13.48563 -0.00644
C 31.86186 12.73141 -0.01839
C 31.94541 11.36052 0.00137
C 33.21456 10.6201 0.00199
C 33.22427 9.20989 0.04381
C 31.94571 8.56097 0.02806
C 31.9162 7.07297 0.01504
C 33.11447 6.36594 -0.00069
C 33.19077 4.92155 0.04926
C 31.96918 4.18215 -0.03838
C 32.01297 2.73263 0.00349
C 33.25014 2.04153 -0.00323
C 33.25058 0.66186 -0.00841
C 31.9617 34.04406 0.0001
C 0.00365 32.65718 -0.02927
C 1.19259 31.9012 -0.01404
C 1.23931 30.52294 0.01027
C 0.08743 29.72934 0.01831
C 1.33029 27.6687 -0.00439
C 28.30351 9.19059 -0.00621
C 28.30512 10.61155 0.00194
C 27.10031 11.40023 0.04185
C 22.16884 25.57465 0.00675
C 22.15363 24.12514 -0.00311
C 23.34275 23.38759 0.00742
C 23.35992 22.01167 -0.01594
C 22.15239 21.33518 0.0106
C 22.19072 19.87655 -0.01154
C 23.39993 19.19251 -0.01721
C 23.3565 17.78697 -0.02422
C 22.09601 17.03202 0.01277
C 22.12595 15.59604 0.00096
C 23.37179 14.93082 -0.01527
C 23.34063 13.54693 0.01087
C 22.11894 12.80991 0.00199
C 22.10304 11.38232 0.01511
C 23.34047 10.67583 -0.00478
C 23.38799 9.27632 -0.01662
C 22.14147 8.55665 -0.01185
C 22.09448 7.14743 0.01126
C 23.36442 6.44698 0.01852
C 23.35213 4.97686 -0.00381
C 22.17278 4.27766 0.03046
C 22.14062 2.83212 0.0296
C 23.37368 2.04708 0.03374
C 23.42205 26.30707 -0.00865
C 23.33593 0.63006 -0.02845
C 23.43212 27.71242 0.0058
C 22.09925 29.83333 -0.04076
C 19.72864 19.94246 -0.0331
C 20.96425 19.1387 -0.00316
C 20.83499 17.73075 0.02188
C 19.55918 17.06733 -0.01979
C 19.60567 15.60496 0.02691
C 20.81748 14.8674 -0.01581
C 20.83413 13.43918 0.01452
C 19.63004 12.74531 0.04892
C 19.60533 11.31674 -0.00111
C 20.88749 10.65483 -0.03557
C 20.85147 9.21888 0.03754
C 19.64113 8.51008 0.01739
C 19.65142 7.08882 0.00755
C 20.87241 6.40953 -0.0054
C 20.93581 4.9163 0.00667
C 19.69552 4.20429 0.00143
C 19.68021 2.75676 -0.017
C 20.94725 2.09685 0.00364
C 20.96543 0.74578 -0.00831
C 19.67536 0.09174 -0.02957
C 22.11785 32.6145 -0.04422
C 23.33549 31.86749 0.00654
C 23.30823 30.54305 -0.00703
C 22.18463 28.43202 -0.00652
C 3.66187 32.01201 0.00267
C 22.12786 34.05658 -0.03213
C 25.84172 31.93369 0.01153
C 25.87332 2.15777 -0.0264
C 25.76797 0.70411 -0.01154
C 24.59182 34.00668 0.00684
C 27.11448 32.7374 -0.01052
C 28.26044 31.97048 -0.01679
C 28.2374 30.4909 0.00367
C 26.95683 29.75242 0.04306
C 27.03377 28.35812 0.00996
C 28.29438 27.67506 0.00195
C 28.28805 26.24647 -0.00802
C 27.05292 25.59574 -0.00218
C 27.06677 24.18926 -0.01654
C 28.24022 23.46156 -0.00037
C 28.24853 22.01182 -0.0032
C 27.04929 21.32997 0.00622
C 27.0609 19.92875 -0.02815
C 28.29359 19.20106 -0.00942
C 28.27923 17.77588 0.00487
C 27.05074 17.04727 0.00826
C 27.06373 15.6085 -0.00294
C 28.34003 14.94653 0.00152
C 28.2953 13.48617 0.01257
C 27.11696 12.82735 0.02316
C 24.5305 2.76712 -0.00938
C 24.59044 32.50552 0.02239
C 24.59151 4.20797 -0.00229
C 25.81938 6.40687 -0.009
C 25.81212 30.54936 0.02734
C 24.54715 29.85287 -0.0055
C 24.66618 28.47917 0.01515
C 25.8279 27.66683 -0.00225
C 25.80982 26.21004 0.00071
C 24.56362 25.52279 -0.01107
C 24.52256 24.08635 -0.01586
C 25.81785 23.47649 -0.01971
C 25.84374 22.0437 -0.02118
C 24.63333 21.27959 0.00733
C 24.61914 19.88137 -0.00178
C 25.89205 19.19312 0.00768
C 25.80762 17.76723 -0.0276
C 24.56872 17.08141 0.03005
C 24.65171 15.66321 -0.04078
C 25.87671 14.89312 0.02117
C 25.82538 13.47962 0.02737
C 24.55382 12.76683 -0.00498
C 24.60006 11.34599 0.00135
C 25.85666 10.66911 0.03102
C 25.86522 9.27756 0.02555
C 24.57891 8.50649 0.01423
C 24.57971 7.10622 -0.00285
C 25.77535 4.99512 -0.01199
C 2.39716 32.64339 0.01913
