365
Graphene
C 34.38156 0.01635 0.01295
C 11.01108 10.61209 0.00052
C 11.04662 9.23387 -0.03682
C 9.79684 8.51818 0.01965
C 9.76916 7.05982 0.02058
C 11.00808 6.42728 -0.01957
C 10.98158 4.96467 -0.0108
C 9.75741 4.25842 -0.00368
C 9.84721 2.81029 -0.02696
C 9.77637 11.31396 0.00374
C 11.04714 2.10739 -0.00114
C 9.76998 0.00898 0.00798
C 12.26058 32.69369 0.00422
C 13.53926 31.99635 0.0351
C 13.54874 30.52063 -0.03113
C 12.29831 29.87213 0.02098
C 12.32399 28.44331 0.01848
C 13.50105 27.71938 -0.00619
C 13.45188 26.30134 -0.02162
C 11.03527 0.72299 0.00228
C 9.80613 12.745 -0.02813
C 11.02004 13.42926 -0.01952
C 11.12241 14.85056 0.05265
C 8.56576 0.68917 0.02894
C 7.33899 0.02395 -0.01789
C 9.82041 32.68738 0.00444
C 11.05298 31.97501 -0.00925
C 11.04282 30.56704 0.01877
C 9.79234 29.9036 0.01363
C 9.80915 28.44294 -0.02162
C 11.0176 27.77534 0.00415
C 11.02259 26.30857 -0.0014
C 9.76719 25.59616 0.02162
C 9.87398 24.15863 0.0076
C 11.05636 23.48776 0.01241
C 11.0844 22.03 -0.01454
C 9.8775 21.30558 0.01945
C 9.92415 19.87596 0.01416
C 11.14088 19.14128 0.03542
C 11.18402 17.69437 0.02299
C 9.86712 16.98299 0.00244
C 9.84866 15.57903 -0.01717
C 12.26264 25.55256 0.00889
C 12.26908 24.11284 -0.00481
C 13.5062 23.43074 0.00979
C 13.59763 22.03939 0.01443
C 15.90364 30.47639 -0.03557
C 14.73066 29.74748 0.03754
C 14.73464 28.32119 0.01739
C 15.88689 27.65567 0.00755
C 15.93675 26.25115 -0.0054
C 14.68543 25.53636 0.00667
C 14.76383 24.03247 0.00143
C 16.01429 23.31309 -0.017
C 16.04573 21.9398 0.00364
C 14.84236 21.24633 -0.00831
C 14.83981 19.83498 -0.02957
C 16.08828 19.08635 -0.04422
C 14.83744 17.12275 0.00654
C 14.78393 15.66476 -0.00703
C 14.89405 11.142 -0.04076
C 15.81291 9.40158 -0.00652
C 14.65795 8.50448 0.0058
C 14.74716 7.11669 -0.00865
C 15.97296 6.4266 0.00675
C 15.94465 31.99429 -0.00111
C 8.58685 2.15218 -0.02971
C 14.73157 32.70863 0.04892
C 13.56667 0.72864 -0.01581
C 12.33925 21.31062 0.03505
C 12.38985 19.88571 -0.02815
C 13.6452 19.21186 -0.04147
C 13.55134 17.82618 -0.05302
C 12.4067 16.98843 0.00213
C 12.41701 15.51186 -0.00066
C 13.73534 14.73267 -0.00289
C 13.52632 13.38995 0.00028
C 12.26672 12.7513 -0.02213
C 12.28834 11.37338 0.03698
C 13.5383 10.61484 -0.00109
C 13.49925 9.24806 -0.00491
C 12.29568 8.55486 0.03338
C 12.34295 7.11008 -0.0258
C 13.53938 6.37757 -0.0331
C 13.4858 5.00102 -0.00316
C 12.26036 4.2607 0.02188
C 12.27459 2.83854 -0.01979
C 13.44983 2.20768 0.02691
C 12.33976 0.00946 0.01452
C 7.31293 2.88736 0.00165
C 7.32614 4.28468 0.02819
C 8.586 4.94316 -0.00891
C 3.65989 6.49542 0.00848
C 3.68502 5.03739 -0.01303
C 2.42686 4.32788 -0.01378
C 2.43245 2.83547 0.02635
C 3.63152 2.12929 0.0127
C 3.60674 0.70219 0.01396
C 2.40236 34.06366 0.01849
C 4.87722 32.66943 -0.01142
C 6.08933 32.02731 -0.00562
C 6.16051 30.57928 -0.00494
C 4.95016 29.84237 0.00054
C 4.90178 28.33506 0.03007
C 6.16127 27.62721 -0.00095
C 6.13807 26.27002 0.01572
C 4.88461 25.56594 -0.04848
C 4.92768 24.19731 -0.00892
C 6.1038 23.42384 -0.01362
C 6.10646 22.00261 -0.0008
C 4.84577 21.33493 0.0288
C 2.44204 7.18458 -0.00049
C 4.94246 19.92825 0.00393
C 2.45641 8.61336 0.00873
C 3.65409 10.7431 -0.03337
C 3.6699 30.54022 -0.00518
C 2.47008 29.83014 0.0086
C 2.4652 28.39873 -0.00643
C 3.65525 27.71692 0.017
C 3.63912 26.27938 -0.03113
C 2.37466 25.57394 -0.02566
C 2.34588 24.19145 -0.00094
C 3.5858 23.51507 0.02322
C 3.64633 22.05831 -0.00725
C 2.45028 21.30283 -0.05697
C 2.441 19.84259 0.01087
C 3.66714 19.17389 -0.01343
C 3.73387 17.78414 0.00988
C 2.45625 17.03546 0.0276
C 2.47514 15.58785 0.01305
C 3.70426 14.95381 -0.00077
C 3.63229 13.5769 0.03368
C 2.43113 12.86525 -0.02929
C 2.45905 11.43765 -0.00966
C 3.6673 9.28228 0.01227
C 15.99015 4.98821 -0.00311
C 6.19706 19.22093 0.00895
C 4.9633 17.09449 0.02888
C 7.39518 25.56411 -0.01062
C 7.38022 24.13285 -0.00033
C 8.66594 23.51771 0.03589
C 8.66884 22.04247 -0.02759
C 7.41218 21.35481 0.0402
C 7.43567 19.89528 0.00572
C 8.66825 19.20108 0.03592
C 8.65087 17.76736 0.00406
C 7.4055 17.05656 0.00943
C 7.43459 15.67457 0.02841
C 8.59768 14.79068 -0.01111
C 8.57524 13.44297 -0.01275
C 7.30122 12.78508 0.00985
C 7.31746 11.32256 -0.02245
C 8.54251 10.66203 -0.00428
C 8.55455 9.21853 0.03101
C 7.31349 8.49876 -0.01536
C 7.34443 7.12764 -0.02689
C 8.5767 6.39935 -0.01046
C 8.53255 26.31978 0.01364
C 6.20466 17.81989 0.00685
C 8.61367 27.72622 -0.00719
C 7.35689 29.86367 0.02339
C 4.92663 15.73691 -0.00482
C 6.14442 14.97797 -0.01384
C 6.11 13.59608 0.03693
C 4.86187 12.8968 0.01745
C 4.90509 11.46253 0.00488
C 6.09438 10.66285 -0.01004
C 6.09604 9.24459 -0.02896
C 4.85543 8.57156 -0.00131
C 4.9438 7.13809 -0.01118
C 6.09985 6.46414 -0.014
C 6.10325 5.00963 0.02147
C 4.89925 4.30651 0.00373
C 4.80823 2.885 -0.00191
C 6.08339 2.13838 0.00438
C 6.08612 0.7093 0.01291
C 4.85632 34.06459 0.00093
C 7.37798 32.71497 0.00057
C 8.60772 32.02022 -0.01634
C 8.58439 30.59698 -0.00334
C 7.34528 28.44499 0.01641
C 3.62393 31.95526 -0.00074
C 14.74068 4.29327 0.00742
C 15.93456 2.16452 0.0106
C 29.52981 0.05249 0.00346
C 31.94548 32.678 0.01713
C 33.233 31.96522 -0.01694
C 33.2318 30.52392 0.01428
C 31.964 29.8655 -0.02142
C 31.92404 28.43934 0.0544
C 33.15649 27.75731 0.00026
C 33.13726 26.28864 0.00682
C 30.72579 0.7444 0.00307
C 31.89986 25.6355 -0.01779
C 33.17423 23.51388 0.01927
C 33.17725 22.05187 0.01574
C 31.93527 21.32507 -0.02383
C 32.01948 19.90719 -0.01429
C 33.24079 19.15482 -0.0136
C 33.156 17.73955 0.00594
C 31.94369 16.97939 -0.02474
C 31.96744 15.59461 0.00369
C 31.91386 24.2218 0.03794
C 30.74428 2.13317 0.00716
C 29.53397 2.88882 0.02108
C 29.52214 4.23248 0.0103
C 30.72689 30.58405 -0.02049
C 29.5472 29.88354 -0.01854
C 29.46486 28.45421 -0.01415
C 30.72577 27.70233 -0.03039
C 30.6889 26.28184 0.01836
C 29.45824 25.61231 0.03531
C 29.47712 24.15788 -0.00669
C 30.66031 23.44222 0.0101
C 30.65514 22.01827 0.01705
C 29.55463 21.33673 -0.0405
C 29.52588 19.96375 -0.01303
C 30.69569 19.17632 -0.01461
C 30.90808 17.83733 -0.02155
C 30.75279 10.5831 -0.00944
C 30.65204 9.27136 -0.03735
C 29.56594 8.38736 -0.00971
C 29.28367 6.98213 0.01518
C 30.65358 6.39106 0.01908
C 30.72058 4.96178 0.07705
C 33.13886 14.95311 0.00455
C 33.21489 13.54363 -0.00644
C 32.04902 12.76987 -0.01839
C 31.95168 11.36364 0.00137
C 34.43208 19.90328 0.01951
C 1.20806 19.20864 -0.01678
C 1.27177 17.76464 0.01223
C 34.42804 17.04427 0.00648
C 34.36364 15.61674 0.02114
C 1.16248 14.89632 -0.02957
C 1.16177 13.51126 0.00343
C 34.4106 12.79063 -0.02656
C 0.00415 11.40427 -0.02442
C 1.24092 10.72598 -0.00027
C 1.18805 9.21548 -0.00583
C 34.37222 8.50155 -0.02302
C 34.38796 7.12546 -0.02849
C 1.20586 6.44709 0.02931
C 1.22153 5.0471 0.00628
C 0.01851 4.32853 -0.0345
C 34.42598 2.93112 -0.00931
C 1.23666 2.15639 -0.00939
C 1.19921 0.67443 -0.00468
C 0.0011 21.32404 -0.02213
C 30.74335 32.04415 0.03265
C 1.20359 22.05245 0.02712
C 34.36518 24.18808 0.03076
C 33.2133 10.66081 0.00199
C 33.11183 9.23981 0.04381
C 31.9303 8.51219 0.02806
C 31.87671 7.11337 0.01504
C 33.15623 6.43016 -0.00069
C 33.18984 5.01934 0.04926
C 31.98844 4.23772 -0.03838
C 31.95648 2.87693 0.00349
C 33.16798 2.15682 -0.00323
C 33.19311 0.74479 -0.00841
C 31.99563 0.10792 0.0001
C 34.42658 32.64632 -0.02927
C 1.24977 31.93754 -0.01404
C 1.2052 30.468 0.01027
C 34.41492 29.80635 0.01831
C 34.40227 28.49029 -0.01037
C 1.19262 27.72468 -0.00439
C 1.16673 26.33346 -0.00598
C 34.35317 25.60986 -0.05239
C 1.17027 23.46693 0.00723
C 29.49372 32.71022 0.00261
C 27.04611 0.022 0.02326
C 28.27576 0.72239 0.00924
C 20.78942 31.85844 -0.0055
C 20.88063 30.4759 0.01515
C 19.62739 29.76521 -0.00225
C 19.58161 28.3357 0.00071
C 20.88165 27.59244 -0.01107
C 20.78967 26.21617 -0.01586
C 19.5843 25.55324 -0.01971
C 19.56016 24.09818 -0.02118
C 20.77972 23.438 0.00733
C 20.87462 4.88725 -0.00178
C 19.6871 4.17273 0.00768
C 19.67611 2.7691 -0.0276
C 20.90129 2.0771 0.03005
C 20.8802 0.6155 -0.04078
C 19.65046 34.02466 0.02117
C 22.05103 32.6062 0.02737
C 23.31607 31.89808 -0.00498
C 23.31478 30.4648 0.00135
C 22.09658 29.79637 0.03102
C 19.60666 32.54682 0.02734
C 22.06808 28.38325 0.02555
C 17.13222 34.02247 0.01153
C 18.41959 1.99206 -0.03213
C 15.93075 0.75352 -0.01154
C 14.7401 0.03613 -0.01721
C 17.15957 32.59097 -0.02422
C 18.4295 31.93237 0.01277
C 18.38575 30.4935 0.00096
C 17.14161 29.84659 -0.01527
C 17.13911 28.36992 0.01087
C 18.3349 27.62703 0.00199
C 18.37195 26.23144 0.01511
C 17.1641 25.51152 -0.00478
C 17.21389 24.03359 -0.01662
C 18.42792 23.28761 -0.01185
C 18.40046 21.90003 0.01126
C 17.1865 21.23412 0.01852
C 17.27428 6.97015 -0.00381
C 18.32275 6.31578 0.03046
C 18.53647 4.89729 0.0296
C 17.21324 4.2484 0.03374
C 17.24269 2.81177 -0.02845
C 18.40324 0.64062 0.02239
C 14.69767 2.86913 -0.01594
C 23.30319 27.6885 0.01423
C 21.97701 25.44901 -0.009
C 25.80004 0.69504 0.00152
C 24.54206 0.00706 0.01257
C 27.01948 32.6849 0.02316
C 28.30738 31.9991 0.04185
C 28.30173 30.57653 0.00194
C 27.04934 29.81684 -0.00621
C 26.98444 28.3944 0.02611
C 28.21827 27.67735 0.02198
C 28.25356 26.27618 0.01094
C 27.03781 25.56697 0.00235
C 26.99072 24.12754 0.01495
C 28.23762 23.38521 0.01259
C 28.30863 21.89844 0.01799
C 26.98448 21.50936 0.01699
C 28.00584 6.33249 -0.00416
C 28.26833 4.92769 0.01177
C 27.12557 4.21238 0.04266
C 27.07139 2.84725 0.01324
C 28.30898 2.1672 0.0014
C 25.78624 2.13703 -0.00294
C 23.23549 26.19375 -0.00285
C 24.62114 2.85636 0.00826
C 26.02252 5.00007 -0.00942
C 22.04501 23.98523 -0.01199
C 23.2873 23.47349 -0.00229
C 23.44299 4.98201 -0.00938
C 22.12394 4.36205 -0.0264
C 22.16805 2.8745 -0.01154
C 23.35363 2.21082 0.00684
C 23.31541 0.70867 -0.01052
C 22.16217 34.0593 -0.01679
C 24.53065 32.60642 0.00367
C 25.87051 31.93687 0.04306
C 25.82278 30.509 0.00996
C 24.6023 29.77684 0.00195
C 24.60441 28.36891 -0.00802
C 25.82855 27.67177 -0.00218
C 25.82253 26.30039 -0.01654
C 24.57455 25.56083 -0.00037
C 24.53922 24.19195 -0.0032
C 25.73175 23.47939 0.00622
C 25.92808 22.04054 -0.02815
C 24.71444 4.28043 0.00487
C 2.44634 32.62831 0.01465
