363
Graphene
C 0.00991 0.03167 0.01295
C 9.88712 2.79962 -0.03682
C 11.04076 2.1876 0.01965
C 11.05718 0.74337 0.02058
C 9.86647 34.04357 -0.01957
C 12.35902 32.70718 -0.0108
C 13.55642 31.96563 -0.00368
C 13.4702 30.48398 -0.02696
C 12.24913 29.80174 -0.00114
C 9.79512 4.14287 0.00052
C 12.28274 28.37774 0.00228
C 13.54819 26.32147 0.00422
C 12.369 25.48761 0.0351
C 12.3214 24.09986 -0.03113
C 12.32549 21.27536 0.02098
C 12.30939 19.97031 0.01848
C 13.52494 19.12462 -0.00619
C 13.55046 17.69624 -0.02162
C 12.21626 17.00468 0.00889
C 13.59292 27.61824 0.00798
C 11.00827 4.92954 0.00374
C 11.03453 6.40745 -0.02813
C 9.82793 7.02938 -0.01952
C 11.03153 27.75242 -0.01789
C 10.97805 26.34109 0.00444
C 9.8513 25.59635 -0.00925
C 9.86905 24.16716 0.01877
C 11.10576 23.43844 0.01363
C 11.09706 22.00542 -0.02162
C 9.8192 21.31895 0.00415
C 9.86366 19.88639 -0.0014
C 11.09471 19.19765 0.02162
C 11.0741 17.83708 0.0076
C 9.80281 17.05575 0.01241
C 9.82718 15.6849 -0.01454
C 11.07062 14.8561 0.01945
C 11.08131 13.48424 0.01416
C 9.86289 12.80617 0.03542
C 9.93403 11.34587 0.02299
C 11.06229 10.5852 0.00244
C 11.06329 9.23866 -0.01717
C 9.8671 8.46425 0.05265
C 12.2139 15.60563 -0.00481
C 13.52202 14.90858 0.00979
C 13.60657 13.49997 0.01443
C 12.29344 12.80814 0.03505
C 14.7916 11.38855 0.03754
C 15.95175 10.73057 0.01739
C 15.95717 9.25717 0.00755
C 14.73709 8.45253 -0.0054
C 14.762 7.05983 0.00667
C 15.99416 6.43027 0.00143
C 15.98516 4.95309 -0.017
C 14.7413 4.28168 0.00364
C 14.73661 2.87092 -0.00831
C 15.99942 2.12137 -0.02957
C 16.04676 0.77767 -0.04422
C 14.77126 34.05583 0.00654
C 17.23007 32.6394 -0.00703
C 18.46271 31.93346 -0.04076
C 18.49496 30.47604 -0.00652
C 17.1585 29.83844 0.0058
C 17.20366 28.34676 -0.00865
C 18.47982 27.654 0.00675
C 17.20866 15.566 -0.00311
C 14.7509 12.81511 -0.03557
C 9.78764 28.41193 0.02894
C 15.98021 13.47796 -0.00111
C 14.68435 15.67899 0.01452
C 12.28459 11.39314 -0.02815
C 13.5197 10.68183 -0.04147
C 13.56209 9.20378 -0.05302
C 12.31324 8.5189 0.00213
C 12.29565 7.1163 -0.00066
C 13.5289 6.42814 -0.00289
C 13.58024 5.01014 0.00028
C 12.31935 4.26986 -0.02213
C 12.30971 2.7965 0.03698
C 13.50133 2.08114 -0.00109
C 13.5175 0.68253 -0.00491
C 12.33088 0.02151 0.03338
C 14.7363 32.67072 -0.0258
C 15.94436 31.96439 -0.0331
C 15.92415 30.54963 -0.00316
C 14.73892 29.801 0.02188
C 14.71845 28.39056 -0.01979
C 15.97065 27.75668 0.02691
C 14.80394 17.01299 -0.01581
C 15.96877 14.90566 0.04892
C 17.19117 12.70097 0.00742
C 9.78861 29.81818 -0.02971
C 11.11413 31.92851 0.02819
C 3.64598 0.70453 -0.01378
C 2.49263 34.05083 0.02635
C 4.9713 32.70113 0.0127
C 6.12636 32.01378 0.01396
C 6.18595 30.4989 0.01849
C 4.90262 29.83211 -0.01142
C 4.90072 28.4069 -0.00562
C 6.15293 27.73149 -0.00494
C 3.71763 2.08775 -0.01303
C 6.12096 26.28953 0.00054
C 4.87071 24.17658 -0.00095
C 6.10413 23.4356 0.01572
C 6.13269 22.02817 -0.04848
C 4.90032 21.35774 -0.00892
C 4.91321 19.82598 -0.01362
C 6.15803 19.21021 -0.0008
C 6.17987 17.80622 0.0288
C 6.13438 13.52483 0.00393
C 4.86521 25.61845 0.03007
C 2.50079 2.85949 0.00848
C 2.45808 4.24007 -0.00049
C 3.66628 4.98333 0.00873
C 3.65856 30.56636 -0.00643
C 2.50258 29.77487 0.017
C 2.52139 28.42462 -0.03113
C 3.67591 27.67121 -0.02566
C 3.74409 26.24429 -0.00094
C 2.45709 25.53196 0.02322
C 2.38673 24.11278 -0.00725
C 3.65743 23.52716 -0.05697
C 3.69362 22.03411 0.01087
C 2.4979 21.2895 -0.01343
C 2.42843 19.85855 0.00988
C 3.73781 19.19313 0.0276
C 2.3939 12.77038 0.01305
C 2.49911 11.36824 -0.00077
C 3.60673 10.60495 0.03368
C 3.67329 9.30277 -0.02929
C 2.41837 8.57092 -0.00966
C 2.42394 7.11458 -0.03337
C 3.72316 6.44786 0.01227
C 4.94614 12.72192 0.00895
C 4.95505 11.38391 0.00685
C 6.18374 10.70043 0.02888
C 6.14296 9.26049 -0.00482
C 8.58744 17.76362 -0.00033
C 7.28794 16.95656 0.03589
C 7.37502 15.55577 -0.02759
C 8.63064 14.91832 0.0402
C 8.61999 13.45046 0.00572
C 7.35813 12.84032 0.03592
C 7.38007 11.43792 0.00406
C 8.57562 10.66509 0.00943
C 8.67119 9.21887 0.02841
C 7.43881 8.53858 -0.01111
C 7.40534 7.14475 -0.01275
C 8.55974 6.28366 0.00985
C 8.57029 4.92966 -0.02245
C 7.3097 4.28805 -0.00428
C 7.32338 2.79436 0.03101
C 8.6098 2.11826 -0.01536
C 8.60117 0.73704 -0.02689
C 7.36374 0.03796 -0.01046
C 9.89354 32.59401 -0.00891
C 8.59398 19.22065 -0.01062
C 11.05115 30.54956 0.00165
C 7.41137 19.9352 0.01364
C 8.58508 22.01892 0.01641
C 4.93304 8.52383 -0.01384
C 4.96065 7.13263 0.03693
C 6.14639 6.40895 0.01745
C 6.09245 5.01736 0.00488
C 4.94145 4.27213 -0.01004
C 4.92742 2.90251 -0.02896
C 6.13366 2.17202 -0.00131
C 6.18093 0.77027 -0.01118
C 4.88027 0.09451 -0.014
C 7.35751 32.71567 0.02147
C 8.62873 31.98272 0.00373
C 8.55316 30.55316 -0.00191
C 7.39687 29.85797 0.00438
C 7.39556 28.39258 0.01291
C 8.61981 27.67218 0.00093
C 8.58023 26.31692 0.00057
C 7.35242 25.62265 -0.01634
C 7.3894 24.17128 -0.00334
C 8.55836 23.44379 0.02339
C 7.34037 21.36526 -0.00719
C 3.70782 31.92746 0.0086
C 17.28278 11.33435 -0.01594
C 18.41605 9.29748 -0.01154
C 30.70869 2.14627 0.00346
C 30.78063 0.76416 0.01713
C 29.52307 34.0397 -0.01694
C 31.9593 32.67223 0.01428
C 33.15444 31.93497 -0.02142
C 33.22638 30.51946 0.0544
C 31.95518 29.86433 0.00026
C 31.87268 28.40004 0.00682
C 29.46455 2.83512 0.00307
C 33.1565 27.63688 -0.01779
C 31.99632 25.59208 0.01927
C 31.94708 24.13956 0.01574
C 33.22697 23.47863 -0.02383
C 33.2172 21.98975 -0.01429
C 31.96467 21.30593 -0.0136
C 31.96191 19.90569 0.00594
C 33.23199 19.18262 -0.02474
C 33.24397 17.79013 0.00369
C 33.18463 26.26432 0.03794
C 29.50804 4.25284 0.00716
C 30.7199 4.97842 0.02108
C 30.66966 6.44988 0.0103
C 30.799 26.24423 -0.02049
C 29.52541 25.51224 -0.01854
C 29.57326 24.11794 -0.01415
C 30.74539 23.455 -0.03039
C 30.73993 22.03548 0.01836
C 29.52999 21.2919 0.03531
C 29.50105 19.86103 -0.00669
C 30.73096 19.15015 0.0101
C 30.7518 17.78296 0.01705
C 29.54968 17.07621 -0.0405
C 29.54016 15.53819 -0.01303
C 30.76603 14.88048 -0.01461
C 30.74801 13.51273 -0.02155
C 29.52901 12.74843 -0.00944
C 29.52515 11.39314 -0.03735
C 30.66969 10.65524 -0.00971
C 30.78394 9.18605 0.01518
C 29.47934 8.49894 0.01908
C 29.45882 7.13711 0.07705
C 31.95587 17.0088 0.00455
C 31.94002 15.65108 -0.00644
C 33.20013 14.90833 -0.01839
C 33.20055 13.40875 0.00137
C 1.26881 22.00678 0.01951
C 0.01434 21.34256 -0.01678
C 0.08804 19.84742 0.01223
C 1.20136 19.05766 0.00648
C 0.01783 17.01752 0.02114
C 0.04826 15.60287 -0.02957
C 1.21075 13.47738 0.00343
C 0.01355 12.7634 -0.02656
C 34.42973 11.36677 -0.02442
C 1.20782 10.68625 -0.00027
C 1.24317 9.31732 -0.00583
C 34.4067 8.53669 -0.02302
C 0.02964 7.16139 -0.02849
C 1.17671 6.40484 0.02931
C 1.22715 4.95481 0.00628
C 34.42944 4.2395 -0.0345
C 0.06249 2.86835 -0.00931
C 1.28448 2.12177 -0.00939
C 1.22548 0.66224 -0.00468
C 1.21082 23.46211 -0.02213
C 30.7241 27.67849 0.03265
C 0.03204 24.23153 0.02712
C 1.18806 26.20627 0.03076
C 31.92819 12.74072 0.00199
C 31.94232 11.3471 0.04381
C 33.25417 10.64617 0.02806
C 33.13096 9.2025 0.01504
C 31.91509 8.52326 -0.00069
C 31.94395 7.05414 0.04926
C 33.17018 6.39448 -0.03838
C 33.19579 4.91821 0.00349
C 31.96798 4.32743 -0.00323
C 31.97723 2.87836 -0.00841
C 33.21241 2.1283 0.0001
C 33.20244 0.69879 -0.02927
C 31.92518 34.05751 -0.01404
C 34.36841 32.67587 0.01027
C 1.22892 31.97389 0.01831
C 1.27168 30.48464 -0.01037
C 0.01863 29.80801 -0.00439
C 34.39174 28.42767 -0.00598
C 1.24339 27.73025 -0.05239
C 34.41084 25.63767 0.00723
C 18.41895 10.63984 0.0106
C 29.47201 28.38605 0.00261
C 30.74688 30.56973 0.00924
C 19.67675 34.07853 0.01515
C 22.1292 32.6817 -0.00225
C 23.33139 31.92684 0.00071
C 23.33812 30.52752 -0.01107
C 22.11913 29.8411 -0.01586
C 22.11162 28.46835 -0.01971
C 23.35797 27.62318 -0.02118
C 23.35325 26.26118 0.00733
C 20.83985 0.68924 -0.0055
C 22.10776 7.08074 -0.00178
C 23.38581 4.98158 -0.0276
C 22.06548 4.18824 0.03005
C 22.0735 2.81861 -0.04078
C 23.36511 2.14094 0.02117
C 23.35386 0.67837 0.02737
C 22.10504 0.03655 -0.00498
C 24.61988 32.62194 0.00135
C 25.8376 31.92555 0.03102
C 23.39806 6.45683 0.00768
C 20.86277 2.08973 0.02734
C 19.68605 2.78711 0.01153
C 19.65001 4.24291 0.02239
C 17.15653 8.50954 -0.01721
C 17.22338 7.10213 -0.02422
C 18.47971 6.3526 0.01277
C 18.41096 4.99542 0.00096
C 17.12734 4.23874 -0.01527
C 17.1636 2.81041 0.01087
C 18.44913 2.05799 0.00199
C 18.40645 0.70729 0.01511
C 17.24612 34.05298 -0.00478
C 19.69137 32.66319 -0.01662
C 20.80366 31.94766 -0.01185
C 20.84024 30.45938 0.01126
C 19.70093 29.78748 0.01852
C 19.68488 28.32357 -0.00381
C 20.97333 27.64202 0.03046
C 19.722 8.45183 0.0296
C 19.71345 7.07892 0.03374
C 20.90462 6.38698 -0.02845
C 20.92103 4.89759 -0.03213
C 25.77498 30.49074 0.02555
C 24.55877 29.8332 0.01423
C 24.65603 28.32316 -0.00285
C 25.92 27.64425 -0.009
C 27.03688 24.1049 0.00152
C 28.28265 23.41967 0.01257
C 28.29658 22.00602 0.02316
C 27.06199 21.26652 0.04185
C 27.07822 19.87693 0.00194
C 28.2571 19.14842 -0.00621
C 28.32189 17.80056 0.02611
C 28.29291 9.18303 0.02198
C 27.20598 8.55749 0.01094
C 27.08258 7.15153 0.00235
C 28.2895 6.43011 0.01495
C 28.31728 4.89137 0.01259
C 27.037 4.26748 0.01799
C 27.07157 2.86076 0.01699
C 28.24908 2.18464 -0.00416
C 28.2534 0.709 0.01177
C 27.05542 0.00915 0.04266
C 29.4856 32.68691 0.01324
C 30.7342 31.93758 0.0014
C 27.0909 25.56216 -0.00294
C 29.48935 29.87234 0.02326
C 28.28392 26.22336 0.00826
C 27.08791 28.44987 -0.00942
C 25.87724 26.26849 -0.01199
C 24.60488 25.52682 -0.00229
C 24.55159 24.11448 -0.00938
C 25.83291 23.47191 -0.0264
C 25.81493 21.99087 -0.01154
C 24.77771 21.3568 0.00684
C 25.79637 19.1968 -0.01052
C 24.62601 7.06447 -0.01679
C 25.83787 6.38737 0.00367
C 25.73533 4.97996 0.04306
C 24.51697 4.28406 0.00996
C 24.53779 2.84294 0.00195
C 25.79267 2.13296 -0.00802
C 25.85565 0.68325 -0.00218
C 24.51578 34.03742 -0.01654
C 27.05442 32.65198 -0.00037
C 28.24371 31.96721 -0.0032
C 28.24468 30.50276 0.00622
C 27.00717 29.83726 -0.02815
C 28.26559 27.6833 0.00487
C 2.47528 32.63653 -0.00518
