421
Graphene
C 34.37675 34.04072 0.01295
C 15.8831 32.09993 0.00406
C 15.95219 30.54791 0.00943
C 14.74217 29.84244 0.02841
C 14.65416 28.37463 -0.01111
C 15.94192 27.73941 -0.01275
C 15.90233 26.31949 0.00985
C 14.7546 25.59043 -0.02245
C 14.77363 24.13304 -0.00428
C 16.05007 23.5183 0.03101
C 15.95317 22.06822 -0.01536
C 14.69207 32.75577 0.03592
C 14.70534 21.37616 -0.02689
C 15.94389 19.14202 -0.00891
C 15.97925 17.71708 0.02819
C 14.77843 16.97813 0.00165
C 14.72338 15.59697 -0.02971
C 15.97896 14.93789 0.02894
C 15.98655 13.50717 -0.01789
C 14.69275 12.84657 0.00444
C 14.69068 11.4754 -0.00925
C 15.89718 10.63103 0.01877
C 15.94345 9.23001 0.01363
C 14.7986 19.90289 -0.01046
C 14.77711 8.55077 -0.02162
C 12.21784 0.08936 0.00572
C 13.39864 2.19134 -0.02759
C 12.25475 25.62589 0.00488
C 12.30866 24.22778 -0.01004
C 13.5319 23.47581 -0.02896
C 13.43319 22.07724 -0.00131
C 12.25174 21.22259 -0.01118
C 12.32661 19.79558 -0.014
C 13.58385 19.14957 0.02147
C 13.51334 17.68078 0.00373
C 12.2259 17.0496 -0.00191
C 12.10194 15.55362 0.00438
C 13.49735 0.77223 0.0402
C 13.3812 14.85017 0.01291
C 12.27581 12.69986 0.00057
C 12.27627 11.31515 -0.01634
C 13.53169 10.70497 -0.00334
C 13.53939 9.32102 0.02339
C 12.21093 8.63804 0.01641
C 12.19031 7.15444 -0.00719
C 13.42122 6.41264 0.01364
C 13.45395 5.01722 -0.01062
C 12.21125 4.28093 -0.00033
C 12.23904 2.93693 0.03589
C 13.46059 13.48293 0.00093
C 14.67755 7.13413 0.00415
C 15.93399 6.43112 -0.0014
C 15.9338 5.02067 0.02162
C 18.5046 9.14838 0.02098
C 17.24511 8.48877 0.01848
C 17.19882 7.04413 -0.00619
C 18.47501 6.40465 -0.02162
C 18.43473 5.0346 0.00889
C 17.20543 4.30385 -0.00481
C 17.17962 2.8812 0.00979
C 18.40214 2.24214 0.01443
C 18.42486 0.74843 0.03505
C 17.16778 0.02228 -0.02815
C 18.37698 10.62791 -0.03113
C 19.55142 32.71739 -0.04147
C 20.79267 30.50853 0.00213
C 19.62184 29.77502 -0.00066
C 19.68177 28.39933 -0.00289
C 20.93613 27.62064 0.00028
C 20.89584 26.24599 -0.02213
C 19.67782 25.5898 0.03698
C 19.6381 24.17882 -0.00109
C 20.89665 23.45817 -0.00491
C 20.84909 21.98578 0.03338
C 19.60119 21.20758 -0.0258
C 20.75444 31.97539 -0.05302
C 17.16058 11.3258 0.0351
C 17.19319 12.81001 0.00422
C 18.48396 13.53671 0.00798
C 14.64228 4.3283 0.0076
C 14.66315 2.941 0.01241
C 15.97269 2.18421 -0.01454
C 15.96548 0.79377 0.01945
C 14.75349 0.06938 0.01416
C 17.1248 32.71068 0.03542
C 18.39089 31.90526 0.02299
C 18.36388 30.44622 0.00244
C 17.08842 29.84936 -0.01717
C 17.18807 28.41006 0.05265
C 18.44285 27.76531 -0.01952
C 18.47705 26.3207 -0.02813
C 17.24576 25.64955 0.00374
C 17.28904 24.16165 0.00052
C 18.46133 23.39665 -0.03682
C 18.35798 21.94717 0.01965
C 17.21507 21.24163 0.02058
C 17.17095 19.91342 -0.01957
C 18.42987 19.12397 -0.0108
C 18.47018 17.70366 -0.00368
C 17.22222 16.96547 -0.02696
C 17.19412 15.6451 -0.00114
C 18.38237 14.86397 0.00228
C 13.50855 26.26269 0.01745
C 13.47517 27.69189 0.03693
C 12.24848 28.38708 -0.01384
C 12.26913 29.79787 -0.00482
C 4.91699 28.52505 -0.00561
C 6.16564 27.79357 0.00208
C 6.11479 26.34881 0.01707
C 4.9263 25.61994 0.02769
C 4.96795 24.13494 -0.03291
C 5.97476 13.5919 -0.04999
C 4.73167 13.1868 0.04505
C 4.84971 11.54623 0.03284
C 6.09912 10.93296 -0.04307
C 5.99351 9.5065 0.03189
C 4.82802 29.84039 -0.01977
C 4.85519 8.63608 0.00031
C 5.99622 6.44515 0.01402
C 6.04782 5.00303 0.02379
C 4.84311 4.23996 0.00907
C 4.79636 2.7769 0.00643
C 6.02144 2.17441 -0.01509
C 6.04019 0.78345 0.03267
C 4.8519 34.06141 0.02374
C 7.38179 32.76189 0.00402
C 8.65675 32.11045 0.0073
C 8.62097 30.73376 0.0174
C 4.90125 7.15998 -0.003
C 6.19117 30.53718 0.02784
C 6.16451 31.97535 -0.01979
C 4.94632 32.63546 -0.00449
C 3.63266 30.56175 0.03345
C 2.45388 29.89043 0.00748
C 2.45156 28.43781 0.00662
C 3.67456 27.80777 -0.0154
C 3.67881 26.33258 -0.01299
C 2.43454 25.58152 -0.00407
C 2.47067 24.03038 0.01138
C 3.78064 23.55976 0.03278
C 2.84178 14.89811 -0.00177
C 3.4357 13.79655 0.04421
C 2.39764 12.71521 0.00088
C 2.45595 11.33666 0.00828
C 3.70136 10.7185 -0.02375
C 3.56749 9.25617 0.00558
C 2.26819 8.52509 -0.0059
C 2.44363 7.02162 -0.01386
C 3.6422 6.38245 -0.02805
C 3.67122 4.9939 0.00081
C 2.44201 4.20887 0.00245
C 2.34313 2.88474 0.02728
C 3.52463 2.09494 -0.00039
C 3.61041 0.61516 0.0064
C 2.43877 34.06494 0.00211
C 7.39989 29.9717 0.03828
C 19.6683 19.77522 -0.0331
C 7.45898 28.48665 0.01226
C 8.5682 26.32406 0.01996
C 10.99217 21.93872 -0.01303
C 11.06076 19.01855 -0.01378
C 11.07896 17.82661 0.02635
C 9.39684 14.90991 0.0127
C 10.86898 14.87505 0.01396
C 11.03016 13.47058 0.01849
C 9.82746 12.8102 -0.01142
C 9.73481 11.46639 -0.00562
C 10.99766 10.703 -0.00494
C 10.99664 9.28338 0.00054
C 11.07086 23.40392 0.00848
C 9.66633 8.55297 0.03007
C 10.95825 6.52026 0.01572
C 11.02695 5.03058 -0.04848
C 9.80655 4.36392 -0.00892
C 9.76591 2.90972 -0.01362
C 11.05235 2.21559 -0.0008
C 11.04255 0.78975 0.0288
C 9.82948 0.13319 0.00393
C 12.29004 32.78081 0.00895
C 13.53267 32.03141 0.00685
C 13.47111 30.56929 0.02888
C 9.66783 7.16362 -0.00095
C 9.89592 24.16852 -0.00049
C 9.84825 25.68007 0.00873
C 11.01106 26.30928 0.01227
C 7.32059 25.71449 -0.03996
C 7.37937 24.24958 0.01465
C 8.51419 23.68625 -0.00074
C 8.7491 13.85237 -0.00518
C 7.37408 13.22882 0.0086
C 7.35315 11.67828 -0.00643
C 8.491 10.76915 0.017
C 8.43986 9.33521 -0.03113
C 7.20921 8.61963 -0.02566
C 7.24565 7.23133 -0.00094
C 8.43316 6.44356 0.02322
C 8.52605 5.04832 -0.00725
C 7.34346 4.30344 -0.05697
C 7.35754 2.91548 0.01087
C 8.53885 2.23643 -0.01343
C 8.5982 0.79456 0.00988
C 7.33515 0.13463 0.0276
C 9.83735 32.79921 0.01305
C 11.08388 32.03971 -0.00077
C 11.12086 30.58305 0.03368
C 9.835 29.98633 -0.02929
C 9.87245 28.57747 -0.00966
C 11.0114 27.78776 -0.03337
C 8.60068 27.76013 -0.00279
C 3.70597 31.9956 -0.00112
C 20.89271 19.15094 -0.00316
C 19.64818 17.04228 -0.01979
C 29.59986 11.36082 -0.02155
C 30.81065 10.63755 -0.00944
C 30.66597 9.24415 -0.03735
C 29.46407 8.53056 -0.00971
C 29.44188 7.06792 0.01518
C 30.66886 6.388 0.01908
C 30.66678 4.98795 0.07705
C 29.41671 4.32847 0.0103
C 29.47229 2.86516 0.02108
C 30.62893 2.0576 0.00716
C 29.51852 12.75577 -0.01461
C 30.75931 0.63235 0.00307
C 31.89938 32.59804 0.01713
C 33.18762 31.87273 -0.01694
C 33.23061 30.4751 0.01428
C 31.95558 29.7959 -0.02142
C 31.99713 28.32365 0.0544
C 33.27008 27.56861 0.00026
C 33.2282 26.17209 0.00682
C 32.01269 25.55596 -0.01779
C 31.9085 24.0863 0.03794
C 33.10919 23.41223 0.01927
C 29.52 0.02153 0.00346
C 33.15195 22.01589 0.01574
C 30.69966 13.45409 -0.01303
C 29.52265 15.57837 0.01705
C 28.19658 4.96631 0.00235
C 26.96364 4.21155 0.01495
C 26.90191 2.83115 0.01259
C 28.14334 2.08094 0.01799
C 28.20688 0.72381 0.01699
C 26.98659 0.03783 -0.00416
C 29.45881 32.63001 0.01177
C 30.74563 31.83326 0.04266
C 30.71195 30.49457 0.01324
C 29.50677 29.77344 0.0014
C 30.75327 14.95567 -0.0405
C 29.52684 28.37554 0.00924
C 30.74444 26.24179 0.00261
C 29.53774 25.4763 0.03265
C 29.52374 24.07056 -0.02049
C 30.686 23.40371 -0.01854
C 30.65405 22.02044 -0.01415
C 29.49039 21.25722 -0.03039
C 29.53405 19.83108 0.01836
C 30.7504 19.09065 0.03531
C 30.65148 17.69672 -0.00669
C 29.48945 16.94607 0.0101
C 30.77937 27.59927 0.02326
C 31.89803 21.28358 -0.02383
C 31.92722 19.79844 -0.01429
C 33.20253 19.09201 -0.0136
C 1.19473 23.28515 0.00723
C 1.20698 21.91253 0.02712
C 34.42772 21.25623 -0.02213
C 34.41631 19.81146 0.01951
C 1.13531 19.0856 -0.01678
C 1.13245 17.77419 0.01223
C 0.08391 16.97787 0.00648
C 0.1207 15.58445 0.02114
C 1.33889 14.78589 -0.02957
C 1.16768 13.39652 0.00343
C 34.36023 24.0284 0.03076
C 34.29527 12.7562 -0.02656
C 1.18171 10.70677 -0.00027
C 1.13525 9.22096 -0.00583
C 34.30753 8.50584 -0.02302
C 34.37437 7.02707 -0.02849
C 1.13429 6.34308 0.02931
C 1.15504 4.90154 0.00628
C 34.39248 4.15283 -0.0345
C 34.29449 2.73312 -0.00931
C 1.05037 2.10308 -0.00939
C 1.20785 0.73496 -0.00468
C 34.36737 11.36219 -0.02442
C 0.0183 25.42975 -0.05239
C 1.21579 26.27609 -0.00598
C 1.2608 27.66217 -0.00439
C 33.15533 17.7138 0.00594
C 31.8858 17.12093 -0.02474
C 31.9628 15.6375 0.00369
C 33.21315 14.92824 0.00455
C 33.11817 13.54466 -0.00644
C 31.92474 12.81771 -0.01839
C 31.99847 11.40172 0.00137
C 33.12494 10.64158 0.00199
C 33.0428 9.29371 0.04381
C 31.91999 8.46581 0.02806
C 31.92952 7.12064 0.01504
C 33.15809 6.3605 -0.00069
C 33.07757 4.97704 0.04926
C 31.87615 4.23152 -0.03838
C 31.86337 2.86014 0.00349
C 33.09947 2.0941 -0.00323
C 33.18721 0.66105 -0.00841
C 31.99458 34.03556 0.0001
C 34.36566 32.60599 -0.02927
C 1.20543 31.86215 -0.01404
C 1.23546 30.49161 0.01027
C 34.41674 29.75693 0.01831
C 0.01484 28.36746 -0.01037
C 28.21167 6.42963 0.01094
C 26.99973 7.1297 0.02198
C 27.03806 8.58591 0.02611
C 28.30751 9.28747 -0.00621
C 22.09395 21.30032 0.0106
C 22.09884 19.85573 -0.01154
C 23.35375 19.20362 -0.01721
C 23.36207 17.76303 -0.02422
C 22.14374 17.01151 0.01277
C 22.11729 15.54213 0.00096
C 23.34565 14.88341 -0.01527
C 23.37178 13.42769 0.01087
C 22.1566 12.68109 0.00199
C 22.09162 11.34468 0.01511
C 23.35907 21.96805 -0.01594
C 23.3363 10.64409 -0.00478
C 22.06446 8.48395 -0.01185
C 22.05692 7.11006 0.01126
C 23.33914 6.47228 0.01852
C 23.30771 4.99229 -0.00381
C 22.07134 4.21436 0.03046
C 22.10286 2.82066 0.0296
C 23.28852 2.09683 0.03374
C 23.33378 0.6644 -0.02845
C 22.04027 34.05186 -0.03213
C 24.48064 32.64975 0.02239
C 23.39884 9.22744 -0.01662
C 23.36685 23.45103 0.00742
C 22.11907 24.09334 -0.00311
C 22.09492 25.58247 0.00675
C 19.58128 15.63741 0.02691
C 20.92618 14.89134 -0.01581
C 20.94603 13.40586 0.01452
C 19.62466 12.82858 0.04892
C 19.52341 11.40468 -0.00111
C 20.81867 10.57615 -0.03557
C 20.86799 9.2404 0.03754
C 19.6858 8.50199 0.01739
C 19.73994 7.08638 0.00755
C 20.89324 6.37529 -0.0054
C 20.89778 4.96735 0.00667
C 19.71472 4.34403 0.00143
C 19.60709 2.94316 -0.017
C 20.88132 2.18919 0.00364
C 20.86724 0.70548 -0.00831
C 19.65407 0.04246 -0.02957
C 22.07879 32.66191 -0.04422
C 23.34386 31.94977 0.00654
C 23.31268 30.55619 -0.00703
C 22.06765 29.83681 -0.04076
C 22.1278 28.39387 -0.00652
C 23.35144 27.72942 0.0058
C 23.33214 26.278 -0.00865
C 25.74828 31.99909 0.01153
C 20.90126 17.70114 0.02188
C 25.77509 30.51629 0.02734
C 24.56327 28.42065 0.01515
C 26.97998 32.73311 -0.01052
C 28.3027 31.941 -0.01679
C 28.23132 30.45357 0.00367
C 27.08342 29.74778 0.04306
C 27.0179 28.39115 0.00996
C 28.30516 27.66018 0.00195
C 28.28233 26.20237 -0.00802
C 27.09088 25.50954 -0.00218
C 27.08112 24.11895 -0.01654
C 28.33452 23.35266 -0.00037
C 24.50895 34.03803 0.00684
C 28.25082 21.97979 -0.0032
C 27.05029 19.84145 -0.02815
C 28.31554 19.18459 -0.00942
C 28.30789 17.65988 0.00487
C 27.03533 16.96665 0.00826
C 27.01148 15.59064 -0.00294
C 28.26527 14.84594 0.00152
C 28.29278 13.4582 0.01257
C 27.02951 12.7474 0.02316
C 27.01226 11.40576 0.04185
C 28.23593 10.69032 0.00194
C 27.0464 21.25865 0.00622
C 25.76316 0.83088 -0.01154
C 25.65651 2.23942 -0.0264
C 24.45465 2.93167 -0.00938
C 25.78833 27.64378 -0.00225
C 25.82042 26.29713 0.00071
C 24.5948 25.60493 -0.01107
C 24.52962 24.21573 -0.01586
C 25.78092 23.50338 -0.01971
C 25.86179 21.99543 -0.02118
C 24.55202 21.3463 0.00733
C 24.58974 19.89607 -0.00178
C 25.77695 19.13083 0.00768
C 25.82142 17.68208 -0.0276
C 24.54751 17.00867 0.03005
C 24.52408 15.59811 -0.04078
C 25.78157 14.92005 0.02117
C 25.83148 13.45346 0.02737
C 24.58728 12.74742 -0.00498
C 24.51452 11.36631 0.00135
C 25.7483 10.6951 0.03102
C 25.71957 9.19875 0.02555
C 24.58999 8.48036 0.01423
C 24.64805 7.06607 -0.00285
C 25.79884 6.33348 -0.009
C 25.78095 4.93187 -0.01199
C 24.44339 4.33899 -0.00229
C 24.61925 29.86684 -0.0055
C 2.41619 32.62415 0.01078
