413
Graphene
C 34.3653 33.99032 0.01295
C 15.95619 30.65 -0.02245
C 14.80334 29.95593 -0.00428
C 14.71101 28.52786 0.03101
C 15.96296 27.75579 -0.01536
C 15.89955 26.23075 -0.02689
C 14.61962 25.58086 -0.01046
C 14.71015 24.20627 -0.00891
C 15.98453 23.43691 0.02819
C 16.05765 22.01663 0.00165
C 14.74898 21.30227 -0.02971
C 14.67057 19.85238 0.02894
C 15.95069 19.09181 -0.01789
C 15.90255 17.67808 0.00444
C 14.66512 17.10106 -0.00925
C 14.74155 15.55086 0.01877
C 15.95259 14.9163 0.01363
C 16.00837 13.50515 -0.02162
C 14.76668 12.78484 0.00415
C 14.71956 11.39162 -0.0014
C 15.96845 10.61999 0.02162
C 15.99314 9.16294 0.0076
C 15.8639 32.04879 0.00985
C 14.65029 32.77657 -0.01275
C 12.12256 0.25237 -0.01111
C 13.41629 1.06787 0.02841
C 13.47942 30.65287 0.02147
C 12.28626 29.95618 0.00373
C 12.3027 28.52005 -0.00191
C 13.49588 27.77381 0.00438
C 13.37719 26.34379 0.01291
C 12.18828 25.65277 0.00093
C 12.39148 24.22723 0.00057
C 13.51611 23.44193 -0.01634
C 13.49358 22.01104 -0.00334
C 12.23641 21.43668 0.02339
C 14.67575 8.45553 0.01241
C 12.16905 19.95425 0.01641
C 13.42165 17.81767 0.01364
C 12.22304 17.13967 -0.01062
C 12.27794 15.67982 -0.00033
C 13.45432 15.01678 0.03589
C 13.46674 13.54615 -0.02759
C 12.19086 12.80847 0.0402
C 12.17186 11.4244 0.00572
C 13.49676 10.74479 0.03592
C 13.39777 9.28095 0.00406
C 12.26289 8.41589 0.00943
C 13.3968 19.22999 -0.00719
C 14.60351 7.04539 -0.01454
C 15.73971 6.2104 0.01945
C 15.85037 4.82124 0.01416
C 18.35607 9.13492 0.00889
C 17.17067 8.37897 -0.00481
C 17.10881 6.93419 0.00979
C 18.33804 6.30048 0.01443
C 18.39101 4.85138 0.03505
C 17.07613 4.22864 -0.02815
C 17.03991 2.76673 -0.04147
C 18.37048 2.10174 -0.05302
C 18.39673 0.72854 0.00213
C 17.20336 0.04927 -0.00066
C 18.36398 10.58434 -0.02162
C 19.68835 32.71663 -0.00289
C 20.97822 30.55043 -0.02213
C 19.83496 29.72217 0.03698
C 19.81003 28.35254 -0.00109
C 20.90587 27.5112 -0.00491
C 20.87826 26.1374 0.03338
C 19.55901 25.50688 -0.0258
C 19.63259 24.09562 -0.0331
C 20.88485 23.4257 -0.00316
C 20.83184 21.99768 0.02188
C 19.63796 21.22271 -0.01979
C 20.88774 31.85914 0.00028
C 13.4142 32.03737 -0.014
C 17.1151 11.28611 -0.00619
C 18.46852 13.42828 0.02098
C 14.59888 2.74974 0.03542
C 15.76361 2.13458 0.02299
C 15.89093 0.68945 0.00244
C 14.57782 0.19389 -0.01717
C 17.11524 32.7072 0.05265
C 18.50533 31.98049 -0.01952
C 18.47253 30.55411 -0.02813
C 17.20029 29.87604 0.00374
C 17.21656 28.42254 0.00052
C 18.38867 27.68281 -0.03682
C 17.25641 12.71064 0.01848
C 18.34865 26.34497 0.01965
C 17.23128 24.19081 -0.01957
C 18.40112 23.35393 -0.0108
C 18.47018 21.91898 -0.00368
C 17.20482 21.2523 -0.02696
C 17.15562 19.85054 -0.00114
C 18.48659 19.1032 0.00228
C 18.4946 17.69725 0.00798
C 17.20731 17.00832 0.00422
C 17.2771 15.62072 0.0351
C 18.51161 14.81388 -0.03113
C 17.17589 25.66588 0.02058
C 12.25912 32.86018 -0.01118
C 10.0331 0.13155 -0.00131
C 9.76162 8.44877 -0.02896
C 4.89914 32.7791 0.03284
C 6.12496 32.10941 -0.04307
C 6.12107 30.72738 0.03189
C 4.87267 29.8534 0.00031
C 4.95 28.32694 -0.003
C 6.18905 27.58988 0.01402
C 6.16673 26.12518 0.02379
C 4.83569 25.55868 0.00907
C 4.906 23.98508 0.00643
C 6.15674 23.44791 -0.01509
C 2.48267 34.01137 0.04505
C 4.71197 15.73105 0.03267
C 6.04902 13.70301 0.00402
C 4.90694 12.8815 0.0073
C 4.92533 11.41438 0.0174
C 6.14843 10.68766 0.03828
C 6.16839 9.28096 0.01226
C 4.95013 8.51384 -0.00279
C 4.88352 7.15932 0.01996
C 6.00661 6.39187 -0.03996
C 6.11933 4.95586 0.01465
C 4.85142 4.2541 -0.00074
C 6.10043 15.18152 0.02374
C 4.86604 2.90995 -0.00518
C 3.7086 0.80033 -0.04999
C 2.37865 2.77596 0.02769
C 3.61324 30.55664 -0.00177
C 2.4102 29.8742 0.04421
C 2.42739 28.42743 0.00088
C 3.69883 27.73627 0.00828
C 3.57258 26.27078 -0.02375
C 2.39325 25.52272 0.00558
C 2.33492 24.05017 -0.0059
C 3.54737 23.43283 -0.01386
C 2.15374 20.96464 -0.02805
C 2.56745 17.01224 0.00081
C 3.60707 2.19884 -0.03291
C 2.3558 15.62595 0.00245
C 3.65046 13.50971 -0.00039
C 2.3977 12.70203 0.0064
C 2.46602 11.27835 0.00211
C 3.71062 10.65348 -0.00449
C 3.6678 9.20662 -0.01979
C 2.41436 8.52324 0.02784
C 2.44182 7.17113 -0.01977
C 3.61797 6.41638 -0.00561
C 3.6388 4.94178 0.00208
C 2.4107 4.25355 0.01707
C 3.58573 14.94879 0.02728
C 19.74193 19.80436 0.02691
C 6.15755 2.25638 0.0086
C 4.93735 0.15894 0.017
C 11.06172 32.06457 -0.01142
C 11.07102 30.68733 -0.00562
C 9.82615 29.98039 -0.00494
C 9.86237 28.54553 0.00054
C 11.11642 27.8219 0.03007
C 11.01488 26.40203 -0.00095
C 9.81341 25.74512 0.01572
C 9.85513 24.25892 -0.04848
C 11.12123 23.64184 -0.00892
C 11.03763 22.10841 -0.01362
C 9.88931 32.8041 0.01849
C 9.63228 21.57265 -0.0008
C 10.94195 19.3171 0.00393
C 10.88884 17.87487 0.00895
C 9.71248 17.11403 0.00685
C 9.8413 15.7804 0.02888
C 11.09248 15.00197 -0.00482
C 11.06241 13.56534 -0.01384
C 9.80593 12.84472 0.03693
C 9.72992 11.37996 0.01745
C 11.02081 10.66928 0.00488
C 10.98671 9.0731 -0.01004
C 9.90369 20.27938 0.0288
C 6.29227 0.82727 -0.00643
C 7.49766 0.15896 0.01396
C 8.62796 2.33174 0.02635
C 7.40106 32.74009 -0.03113
C 8.63521 32.0892 -0.02566
C 8.57506 30.57002 -0.00094
C 7.34123 29.87672 0.02322
C 7.31288 28.39869 -0.00725
C 8.61545 27.83948 -0.05697
C 8.57627 26.40368 0.01087
C 7.39678 25.52037 -0.01343
C 7.46538 23.90638 0.00988
C 8.79462 23.29669 0.0276
C 8.78443 0.8991 0.0127
C 7.39668 15.74563 0.01305
C 8.67274 13.61773 0.03368
C 7.33898 12.92114 -0.02929
C 7.33924 11.44197 -0.00966
C 8.52952 10.71676 -0.03337
C 8.59786 9.24918 0.01227
C 7.2854 8.5337 0.00873
C 7.36768 7.05471 -0.00049
C 8.41856 6.1803 0.00848
C 7.44877 4.59468 -0.01303
C 7.42604 3.06197 -0.01378
C 8.6519 15.01856 -0.00077
C 3.59633 32.01012 0.03278
C 20.9841 19.16412 -0.01581
C 19.72174 16.98174 0.04892
C 30.70297 9.14197 -0.03735
C 29.50657 8.40911 -0.00971
C 29.44384 7.0123 0.01518
C 30.66716 6.3247 0.01908
C 30.73442 4.97457 0.07705
C 29.49448 4.29348 0.0103
C 29.42379 2.82961 0.02108
C 30.72896 2.12851 0.00716
C 30.66531 0.70174 0.00307
C 29.49327 0.04323 0.00346
C 31.93214 32.64553 0.01713
C 33.07547 31.9752 -0.01694
C 33.15518 30.53723 0.01428
C 31.86728 29.83836 -0.02142
C 31.98893 28.45854 0.0544
C 33.13065 27.6635 0.00026
C 33.17316 26.32144 0.00682
C 31.94846 25.59162 -0.01779
C 31.92244 24.11183 0.03794
C 33.12564 23.48979 0.01927
C 33.07549 22.04734 0.01574
C 30.71325 10.5442 -0.00944
C 29.48425 11.25038 -0.02155
C 29.47731 12.70714 -0.01461
C 30.68904 13.40723 -0.01303
C 26.91966 2.84132 0.01259
C 28.19141 2.0741 0.01799
C 28.19632 0.63549 0.01699
C 26.98137 33.97908 -0.00416
C 29.47299 32.74554 0.01177
C 30.69695 31.96398 0.04266
C 30.67083 30.55008 0.01324
C 29.41551 29.71818 0.0014
C 29.47357 28.30492 0.00924
C 30.75636 27.7401 0.02326
C 31.87683 21.33952 -0.02383
C 30.65165 26.29906 0.00261
C 29.46807 24.19452 -0.02049
C 30.75486 23.42276 -0.01854
C 30.69668 21.96714 -0.01415
C 29.49926 21.28634 -0.03039
C 29.48532 19.80245 0.01836
C 30.7449 19.18087 0.03531
C 30.71454 17.70627 -0.00669
C 29.52516 16.95799 0.0101
C 29.47378 15.59216 0.01705
C 30.7353 14.89481 -0.0405
C 29.46147 25.6083 0.03265
C 31.90108 19.92063 -0.01429
C 33.2162 19.16715 -0.0136
C 33.22264 17.76595 0.00594
C 1.08745 23.26823 0.00723
C 1.07168 21.78197 0.02712
C 34.24615 21.22973 -0.02213
C 34.3802 19.90037 0.01951
C 1.28876 19.4121 -0.01678
C 1.33585 17.94528 0.01223
C 0.07841 17.09546 0.00648
C 34.39373 15.65961 0.02114
C 1.14249 14.90417 -0.02957
C 1.21338 13.48978 0.00343
C 34.33585 24.11082 0.03076
C 0.04183 12.70129 -0.02656
C 1.16177 10.5579 -0.00027
C 1.22993 9.22801 -0.00583
C 0.0213 8.4972 -0.02302
C 34.41981 7.10211 -0.02849
C 1.19179 6.33688 0.02931
C 1.21713 4.96579 0.00628
C 0.01629 4.25407 -0.0345
C 34.33332 2.85309 -0.00931
C 1.14533 2.07143 -0.00939
C 1.19933 0.74755 -0.00468
C 34.40089 11.33879 -0.02442
C 27.06999 4.20084 0.01495
C 34.3335 25.51001 -0.05239
C 1.13481 27.70152 -0.00439
C 31.96679 17.05879 -0.02474
C 31.93004 15.60358 0.00369
C 33.15481 14.86902 0.00455
C 33.21679 13.45433 -0.00644
C 31.98123 12.65534 -0.01839
C 31.92937 11.31542 0.00137
C 33.21301 10.60026 0.00199
C 33.19954 9.20295 0.04381
C 31.95297 8.52136 0.02806
C 31.88195 7.07933 0.01504
C 1.1693 26.26503 -0.00598
C 33.21867 6.35131 -0.00069
C 31.93063 4.24 -0.03838
C 31.89454 2.87037 0.00349
C 33.13472 2.06844 -0.00323
C 33.13489 0.6826 -0.00841
C 31.92699 34.04087 0.0001
C 34.35295 32.59931 -0.02927
C 1.23862 31.92479 -0.01404
C 1.19702 30.59785 0.01027
C 34.37407 29.90389 0.01831
C 34.42754 28.42483 -0.01037
C 33.25466 4.97857 0.04926
C 28.22249 4.95505 0.00235
C 28.21335 6.35593 0.01094
C 27.03483 7.07292 0.02198
C 23.45314 19.20623 -0.02422
C 23.40757 17.76053 0.01277
C 22.26961 17.02023 0.00096
C 22.20089 15.59515 -0.01527
C 23.38494 14.85538 0.01087
C 23.36957 13.43616 0.00199
C 22.11407 12.78766 0.01511
C 22.09182 11.35622 -0.00478
C 23.37053 10.58969 -0.01662
C 23.34857 9.20611 -0.01185
C 22.24064 19.86114 -0.01721
C 22.17922 8.52746 0.01126
C 23.24842 6.35871 -0.00381
C 23.40897 4.91873 0.03046
C 22.11581 4.18704 0.0296
C 22.09434 2.77773 0.03374
C 23.26418 2.11203 -0.02845
C 23.31839 0.6765 -0.03213
C 22.09368 33.98406 0.02239
C 24.48434 32.62843 0.01153
C 25.79952 31.94391 0.02734
C 25.6752 30.53836 -0.0055
C 22.09149 7.04632 0.01852
C 24.47748 29.64166 0.01515
C 22.1599 21.31233 -0.01154
C 23.34105 23.43203 -0.01594
C 19.74613 15.57467 -0.00111
C 20.9307 14.88868 -0.03557
C 20.89268 13.48002 0.03754
C 19.68348 12.7784 0.01739
C 19.62341 11.26061 0.00755
C 20.88234 10.63826 -0.0054
C 20.89228 9.21788 0.00667
C 19.7195 8.48091 0.00143
C 19.51217 7.00197 -0.017
C 20.83346 6.39938 0.00364
C 23.28877 22.02751 0.0106
C 20.88683 4.92016 -0.00831
C 19.61369 2.78791 -0.04422
C 20.84139 2.06617 0.00654
C 20.86284 0.65205 -0.00703
C 19.64121 0.02509 -0.04076
C 22.17241 32.55784 -0.00652
C 23.3657 31.78294 0.0058
C 23.3094 30.3616 -0.00865
C 23.21911 26.4396 0.00675
C 22.04552 25.4909 -0.00311
C 22.15185 24.05624 0.00742
C 19.69976 4.23953 -0.02957
C 21.04098 17.67271 0.01452
C 25.70771 27.99527 -0.00225
C 24.40182 25.69436 -0.01107
C 28.19681 30.56021 0.00367
C 26.93998 29.97904 0.04306
C 26.96475 28.52323 0.00996
C 28.17866 27.69826 0.00195
C 28.16455 26.33911 -0.00802
C 26.86488 25.67765 -0.00218
C 27.01627 24.25752 -0.01654
C 28.27186 23.54037 -0.00037
C 28.28246 22.04551 -0.0032
C 27.03922 21.39738 0.00622
C 28.25235 31.97195 -0.01679
C 27.08452 19.95764 -0.02815
C 28.24469 17.56966 0.00487
C 27.00452 16.94186 0.00826
C 27.04874 15.54807 -0.00294
C 28.28808 14.90849 0.00152
C 28.25192 13.34474 0.01257
C 27.03227 12.63245 0.02316
C 27.075 11.27933 0.04185
C 28.28436 10.58328 0.00194
C 28.29368 9.17275 -0.00621
C 27.09144 8.46469 0.02611
C 28.27363 19.0815 -0.00942
C 25.70349 26.52157 0.00071
C 26.98256 32.56451 -0.01052
C 25.75176 0.68033 -0.01154
C 24.51765 24.17959 -0.01586
C 25.77127 23.5096 -0.01971
C 25.82128 22.06651 -0.02118
C 24.60501 21.29555 0.00733
C 24.64929 19.97372 -0.00178
C 25.87368 19.26651 0.00768
C 25.83029 17.76511 -0.0276
C 24.67942 17.00113 0.03005
C 24.58168 15.62559 -0.04078
C 25.81297 14.7916 0.02117
C 24.51626 0.00882 0.00684
C 25.85182 13.46195 0.02737
C 24.56909 11.34013 0.00135
C 25.75428 10.58305 0.03102
C 25.8121 9.15037 0.02555
C 24.55365 8.45061 0.01423
C 24.51369 7.08379 -0.00285
C 25.83148 6.37277 -0.009
C 25.81218 4.9227 -0.01199
C 24.62443 4.19847 -0.00229
C 24.52158 2.78024 -0.00938
C 25.69996 2.13034 -0.0264
C 24.57447 12.72231 -0.00498
C 2.43083 32.67392 0.01138
