345
Graphene
C 0.01398 0.01524 0.01295
C 9.86199 2.81338 0.02098
C 11.04937 2.14055 0.01848
C 11.07526 0.73927 -0.00619
C 9.84612 0.00755 -0.02162
C 12.31385 32.69304 0.00889
C 13.51671 31.98035 -0.00481
C 13.47893 17.71865 0.00979
C 12.29434 17.05543 0.01443
C 12.26849 15.54355 0.03505
C 13.51875 14.89371 -0.02815
C 13.57376 13.52601 -0.04147
C 12.30923 12.78869 -0.05302
C 12.30598 11.33971 0.00213
C 13.54097 10.62837 -0.00066
C 13.51351 9.2744 -0.00289
C 12.3485 8.5051 0.00028
C 12.31611 7.06068 -0.02213
C 9.79632 4.2157 -0.03113
C 11.10553 4.91259 0.0351
C 11.00519 6.40625 0.00422
C 9.8203 7.11202 0.00798
C 8.5982 2.10699 0.03542
C 8.63609 0.7323 0.02299
C 7.35133 0.02055 0.00244
C 9.86104 32.68122 -0.01717
C 11.09661 31.94157 0.05265
C 9.82834 29.80586 -0.01952
C 9.8451 19.86289 -0.02813
C 11.05547 19.16926 0.00374
C 13.52911 6.39322 0.03698
C 11.06239 17.75291 0.00052
C 9.85293 15.66542 0.01965
C 11.06075 14.8845 0.02058
C 11.04502 13.525 -0.01957
C 9.84835 12.75355 -0.0108
C 9.85808 11.35562 -0.00368
C 11.08678 10.63304 -0.02696
C 11.11278 9.21585 -0.00114
C 9.8263 8.51002 0.00228
C 9.85947 17.07578 -0.03682
C 7.37583 2.85129 0.01416
C 13.48919 4.91474 -0.00109
C 12.28428 2.82502 0.03338
C 14.79725 0.03414 0.00654
C 17.19898 32.63592 -0.00703
C 18.47824 31.94816 -0.04076
C 18.46743 30.59592 -0.00652
C 18.44668 19.17095 0.0058
C 18.43184 17.71075 -0.00865
C 17.23613 17.02817 0.00675
C 17.2093 15.64672 -0.00311
C 18.45405 14.88662 0.00742
C 18.45516 13.45389 -0.01594
C 17.22834 12.77038 0.0106
C 17.21303 11.36437 -0.01154
C 17.22915 8.54064 -0.01721
C 17.18352 7.09515 -0.02422
C 17.22743 4.24189 0.01277
C 17.1895 2.81043 0.00096
C 18.45256 2.11736 -0.01527
C 15.95761 0.72761 -0.04422
C 15.97816 2.13412 -0.02957
C 14.78702 2.82583 -0.00831
C 14.77792 4.28153 0.00364
C 13.53352 2.15071 -0.0258
C 13.49668 0.69035 -0.0331
C 12.24848 0.0342 -0.00316
C 14.72137 32.67865 0.02188
C 16.00804 31.96115 -0.01979
C 15.98827 17.79084 0.02691
C 14.78205 17.03284 -0.01581
C 14.76602 15.61824 0.01452
C 12.29721 4.24163 -0.00491
C 15.99304 14.90847 0.04892
C 14.76815 12.76843 -0.03557
C 14.7813 11.37079 0.03754
C 16.00669 10.61327 0.01739
C 15.95797 9.20784 0.00755
C 14.76922 8.50754 -0.0054
C 14.77168 7.12216 0.00667
C 15.98829 6.37316 0.00143
C 15.97852 4.96623 -0.017
C 15.99056 13.51038 -0.00111
C 7.36482 4.26581 0.01945
C 8.58944 4.94269 -0.01454
C 8.60289 6.39681 0.01241
C 2.4917 7.11313 0.00393
C 3.68331 6.39433 0.00895
C 3.68259 4.95907 0.00685
C 2.44589 4.22949 0.02888
C 2.46581 2.83161 -0.00482
C 3.64825 2.09293 -0.01384
C 3.71271 0.69636 0.03693
C 2.47798 34.06489 0.01745
C 4.88107 32.70031 0.00488
C 6.11995 31.93948 -0.01004
C 6.12212 30.56876 -0.02896
C 4.91734 29.85236 -0.00131
C 4.94265 28.40007 -0.01118
C 6.13986 27.66108 -0.014
C 6.13345 26.28305 0.02147
C 4.90837 25.58215 0.00373
C 4.90867 24.1689 -0.00191
C 2.46969 8.52377 0.0288
C 3.67469 9.28945 -0.0008
C 3.67422 10.62877 -0.01362
C 2.47608 11.36518 -0.00892
C 3.7002 30.54311 0.01227
C 2.50017 29.85382 0.00873
C 2.43673 28.42341 -0.00049
C 3.69131 27.69775 0.00848
C 3.71379 26.2621 -0.01303
C 2.45255 25.59223 -0.01378
C 2.45723 24.14962 0.02635
C 3.71624 23.41778 0.0127
C 6.21868 23.43766 0.00438
C 3.67907 21.99393 0.01396
C 2.53013 19.88024 -0.01142
C 3.68439 19.14561 -0.00562
C 3.66184 17.7025 -0.00494
C 2.45971 17.07961 0.00054
C 2.46011 15.60215 0.03007
C 3.71416 14.8828 -0.00095
C 3.64979 13.51373 0.01572
C 2.45309 12.76675 -0.04848
C 2.45264 21.30703 0.01849
C 6.15341 22.01288 0.01291
C 4.89584 21.27781 0.00093
C 4.91621 19.91023 0.00057
C 7.34038 29.81939 -0.01536
C 7.35638 28.40183 -0.02689
C 7.42138 25.5988 -0.01046
C 7.42003 24.10591 -0.00891
C 7.4156 21.29749 0.02819
C 7.39728 19.92156 0.00165
C 8.6093 19.20798 -0.02971
C 8.59933 17.74276 0.02894
C 8.58787 30.50639 0.03101
C 7.36252 17.05113 -0.01789
C 8.61949 14.91517 -0.00925
C 8.61298 13.47292 0.01877
C 7.39686 12.79315 0.01363
C 7.38544 11.36967 -0.02162
C 8.56006 10.65945 0.00415
C 8.64979 9.23418 -0.0014
C 7.41984 8.5267 0.02162
C 7.39335 7.10129 0.0076
C 7.35249 15.56278 0.00444
C 18.4535 0.66896 0.01087
C 8.56819 31.97747 -0.00428
C 4.89848 34.05559 0.00985
C 6.15327 19.18974 -0.01634
C 6.1655 17.77707 -0.00334
C 4.91934 17.07244 0.02339
C 4.94699 15.61033 0.01641
C 6.17026 14.93654 -0.00719
C 6.13714 13.52297 0.01364
C 4.95209 12.8371 -0.01062
C 4.9025 11.36003 -0.00033
C 7.37893 32.67395 -0.02245
C 6.15171 10.66672 0.03589
C 4.91989 8.53368 0.0402
C 4.88826 7.11719 0.00572
C 6.14255 6.4108 0.03592
C 6.14242 5.00721 0.00406
C 4.90513 4.26211 0.00943
C 4.92241 2.8816 0.02841
C 6.11684 2.16389 -0.01111
C 6.14206 0.77147 -0.01275
C 6.15541 9.22327 -0.02759
C 3.63644 31.94555 -0.03337
C 17.22829 0.00084 0.00199
C 20.91692 31.94137 -0.00478
C 31.99424 29.7936 -0.02142
C 31.98706 28.41571 0.0544
C 33.19388 27.72831 0.00026
C 33.19809 26.27528 0.00682
C 31.93915 25.54378 -0.01779
C 31.95896 24.17265 0.03794
C 33.22118 23.40071 0.01927
C 33.22704 21.98378 0.01574
C 31.98179 21.33404 -0.02383
C 31.96231 19.89645 -0.01429
C 33.23186 19.2068 -0.0136
C 33.19013 17.73482 0.00594
C 31.97489 17.06213 -0.02474
C 31.9705 15.58674 0.00369
C 33.22361 14.88593 0.00455
C 33.2179 13.4927 -0.00644
C 31.91514 12.78734 -0.01839
C 33.18731 30.52878 0.01428
C 33.19569 31.91962 -0.01694
C 31.95118 32.67658 0.01713
C 29.49163 34.05593 0.00346
C 29.51207 25.56901 0.03531
C 29.52954 24.10271 -0.00669
C 30.72778 23.42621 0.0101
C 30.74631 22.01365 0.01705
C 29.57046 21.3103 -0.0405
C 29.52855 19.90673 -0.01303
C 30.72296 19.17488 -0.01461
C 30.75594 17.75505 -0.02155
C 31.95209 11.33071 0.00137
C 29.49709 17.04479 -0.00944
C 30.75315 14.90687 -0.00971
C 30.75838 13.46234 0.01518
C 29.54468 12.79236 0.01908
C 30.74904 10.67385 0.07705
C 30.71472 4.96306 0.0103
C 29.5261 2.8574 0.02108
C 30.73584 2.10813 0.00716
C 30.74604 0.6846 0.00307
C 29.50588 15.6723 -0.03735
C 30.77305 26.27224 0.01836
C 33.18739 10.60252 0.00199
C 32.00516 8.47647 0.02806
C 1.23106 17.74697 0.01223
C 34.43292 17.02761 0.00648
C 34.42364 15.58652 0.02114
C 1.20179 14.91334 -0.02957
C 1.25592 13.47788 0.00343
C 34.4162 12.72528 -0.02656
C 34.39487 11.38404 -0.02442
C 1.20303 10.6698 -0.00027
C 1.21482 9.23808 -0.00583
C 34.41558 8.52685 -0.02302
C 0.00057 7.07343 -0.02849
C 1.23065 6.35941 0.02931
C 1.21942 4.96807 0.00628
C 0.0334 4.21874 -0.0345
C 0.00778 2.7919 -0.00931
C 1.26324 2.14732 -0.00939
C 1.27868 0.69423 -0.00468
C 1.23133 19.18205 -0.01678
C 0.00264 19.87652 0.01951
C 34.42342 21.30276 -0.02213
C 1.19955 22.03109 0.02712
C 31.96439 7.16448 0.01504
C 33.18819 6.39661 -0.00069
C 33.22526 4.99743 0.04926
C 31.95409 4.27635 -0.03838
C 31.9834 2.87332 0.00349
C 33.19396 2.11038 -0.00323
C 33.22277 0.70741 -0.00841
C 31.99581 0.00074 0.0001
C 33.16127 9.21815 0.04381
C 34.42474 32.6695 -0.02927
C 1.23822 30.52942 0.01027
C 0.00308 29.84341 0.01831
C 34.41747 28.38553 -0.01037
C 1.21274 27.6459 -0.00439
C 1.23785 26.2707 -0.00598
C 0.03039 25.58894 -0.05239
C 34.39043 24.13098 0.03076
C 1.201 23.45633 0.00723
C 1.22379 31.94639 -0.01404
C 30.76587 27.70866 -0.03039
C 29.50205 28.39451 -0.01415
C 29.51973 29.86413 -0.01854
C 22.13687 28.38737 -0.00178
C 23.3357 27.68745 0.00768
C 23.36781 26.29231 -0.0276
C 22.10614 25.55694 0.03005
C 22.07125 24.12809 -0.04078
C 23.34858 23.45405 0.02117
C 23.40361 22.00166 0.02737
C 22.17857 21.32716 -0.00498
C 22.11933 19.92342 0.00135
C 23.37292 19.17137 0.03102
C 23.3398 17.75267 0.02555
C 22.12295 17.05902 0.01423
C 22.13061 15.59298 -0.00285
C 23.36582 14.93598 -0.009
C 23.39068 0.67715 -0.01199
C 22.11562 0.0294 -0.00229
C 24.61397 32.66497 -0.00938
C 22.10044 29.82534 0.00733
C 23.33835 30.53033 -0.02118
C 23.35762 32.00611 -0.01971
C 22.1464 32.62575 -0.01586
C 20.88978 30.51788 -0.01662
C 19.62947 29.80116 -0.01185
C 19.71459 28.38949 0.01126
C 20.90671 27.66212 0.01852
C 20.88364 26.21908 -0.00381
C 20.89255 23.41189 0.03046
C 20.92603 22.01432 0.0296
C 19.66146 21.25236 0.03374
C 25.79421 31.97211 -0.0264
C 19.69013 19.84911 -0.02845
C 20.91926 17.8001 0.02239
C 19.72349 17.04582 0.01153
C 19.62589 15.58499 0.02734
C 20.90223 14.87365 -0.0055
C 19.67262 2.83153 0.01515
C 20.85923 2.13566 -0.00225
C 20.88862 0.74798 0.00071
C 19.69634 34.04805 -0.01107
C 20.90062 19.17671 -0.03213
C 25.81686 30.54621 -0.01154
C 24.54786 29.81156 0.00684
C 24.58629 28.33043 -0.01052
C 27.04883 25.58146 0.02611
C 27.07302 24.13055 0.02198
C 28.32132 23.4152 0.01094
C 28.2487 22.01603 0.00235
C 27.00875 21.26229 0.01495
C 27.06667 19.88792 0.01259
C 28.29161 19.14959 0.01799
C 28.29533 17.7171 0.01699
C 28.30569 26.26057 -0.00621
C 27.07691 17.02359 -0.00416
C 28.30254 14.89256 0.04266
C 28.30009 13.4542 0.01324
C 28.2781 2.1078 0.0014
C 28.27398 0.70864 0.00924
C 27.10125 34.02843 0.02326
C 29.52834 32.63216 0.00261
C 30.72404 31.90531 0.03265
C 30.74125 30.46652 -0.02049
C 27.02598 15.61855 0.01177
C 19.66283 32.63791 0.01511
C 28.31324 27.69626 0.00194
C 27.02127 29.79455 0.02316
C 25.86443 27.68628 -0.01679
C 25.8362 26.28089 0.00367
C 24.64778 25.58637 0.04306
C 24.59647 24.16219 0.00996
C 25.83014 23.45039 0.00195
C 25.84876 21.98491 -0.00802
C 24.59833 21.33133 -0.00218
C 24.60301 19.89469 -0.01654
C 27.05348 28.41663 0.04185
C 25.8101 19.15324 -0.00037
C 24.58571 17.04924 0.00622
C 24.5827 15.6035 -0.02815
C 25.82747 14.89517 -0.00942
C 25.83617 0.70177 0.00487
C 24.57291 0.03325 0.00826
C 27.0402 32.6529 -0.00294
C 28.29533 31.96276 0.00152
C 28.31659 30.54274 0.01257
C 25.87597 17.75068 -0.0032
C 2.42839 32.65222 -0.00966
