392
Graphene
C 34.41902 0.02607 0.01295
C 11.084 2.15387 0.01877
C 11.05124 0.70229 0.01363
C 9.80177 0.08298 -0.02162
C 12.36308 32.66671 0.00415
C 13.52198 31.93719 -0.0014
C 13.48986 30.52408 0.02162
C 12.24935 29.83424 0.0076
C 12.28863 28.37086 0.01241
C 13.47137 27.67846 -0.01454
C 9.91472 2.82663 -0.00925
C 13.51003 26.16473 0.01945
C 12.36667 24.13752 0.03542
C 13.57931 23.38978 0.02299
C 13.57718 21.994 0.00244
C 12.34288 21.33027 -0.01717
C 12.29651 19.93164 0.05265
C 13.5395 19.10569 -0.01952
C 13.5395 17.65871 -0.02813
C 12.25787 16.94132 0.00374
C 12.34898 15.52624 0.00052
C 12.32525 25.51108 0.01416
C 9.84003 4.25449 0.00444
C 11.01744 5.01534 -0.01789
C 11.01173 6.45349 0.02894
C 9.78693 28.50426 0.03589
C 10.99511 27.75498 -0.02759
C 11.04574 26.30686 0.0402
C 9.81396 25.63755 0.00572
C 9.86576 24.17167 0.03592
C 11.10315 23.48713 0.00406
C 11.08131 22.09701 0.00943
C 9.81479 21.37112 0.02841
C 9.79097 19.97845 -0.01111
C 11.04967 19.1599 -0.01275
C 11.10052 17.72709 0.00985
C 9.85171 17.05203 -0.02245
C 9.896 15.59951 -0.00428
C 11.04188 14.83354 0.03101
C 11.04596 13.49088 -0.01536
C 9.79709 12.78758 -0.02689
C 9.81004 11.37305 -0.01046
C 11.03113 10.59936 -0.00891
C 11.13263 9.22001 0.02819
C 9.84528 8.5953 0.00165
C 9.79735 7.21831 -0.02971
C 13.50168 14.88044 -0.03682
C 9.7653 29.90863 -0.00033
C 13.49762 13.48951 0.01965
C 12.27693 11.33552 -0.01957
C 16.02895 17.74891 -0.02213
C 14.77418 17.01495 0.03698
C 14.75563 15.70779 -0.00109
C 16.01048 14.97031 -0.00491
C 16.01703 13.54054 0.03338
C 14.74998 12.84768 -0.0258
C 14.79247 11.39806 -0.0331
C 16.02295 10.66056 -0.00316
C 15.99546 9.236 0.02188
C 16.0279 19.12971 0.00028
C 14.77434 8.53408 -0.01979
C 15.9326 6.33475 -0.01581
C 16.00615 4.88778 0.01452
C 14.76206 4.20772 0.04892
C 14.70545 2.77617 -0.00111
C 16.01653 2.1092 -0.03557
C 15.9088 0.7181 0.03754
C 14.65283 0.05111 0.01739
C 17.17122 32.6928 0.00755
C 18.35627 31.97139 -0.0054
C 14.68618 7.04174 0.02691
C 14.799 19.78104 -0.00289
C 14.83154 21.23806 -0.00066
C 16.0142 22.0366 0.00213
C 13.57138 10.68302 -0.0108
C 13.60002 9.24461 -0.00368
C 12.40133 8.52514 -0.02696
C 12.25264 7.08738 -0.00114
C 13.49607 6.33169 0.00228
C 13.57163 4.93979 0.00798
C 12.28931 4.29108 0.00422
C 12.29547 2.92679 0.0351
C 13.49052 2.16 -0.03113
C 13.4367 0.7368 0.02098
C 12.23007 0.01343 0.01848
C 14.74877 32.71175 -0.00619
C 15.92329 31.94321 -0.02162
C 15.9333 30.5322 0.00889
C 14.75693 29.75361 -0.00481
C 14.69463 28.32836 0.00979
C 15.94684 27.62459 0.01443
C 15.96267 26.24581 0.03505
C 14.7927 25.50895 -0.02815
C 14.81226 24.09053 -0.04147
C 16.07015 23.42627 -0.05302
C 12.27413 12.77303 0.02058
C 18.42384 30.55397 0.00667
C 11.01194 30.52557 -0.01062
C 9.83129 32.69637 -0.00719
C 2.47002 4.26397 0.01465
C 2.41896 2.87085 -0.00074
C 3.66268 2.12272 -0.00518
C 3.64045 0.72623 0.0086
C 2.44739 0.01265 -0.00643
C 4.92808 32.69811 0.017
C 6.13497 31.97329 -0.03113
C 6.13888 30.55963 -0.02566
C 4.961 29.79621 -0.00094
C 3.6867 4.9977 -0.03996
C 4.91355 28.41897 0.02322
C 6.12742 26.28267 -0.05697
C 4.91259 25.52527 0.01087
C 4.84688 24.17314 -0.01343
C 6.05783 23.43058 0.00988
C 6.14456 21.99135 0.0276
C 4.91524 21.31887 0.01305
C 4.97159 19.8683 -0.00077
C 6.13908 19.06906 0.03368
C 6.07166 17.70955 -0.02929
C 6.08988 27.78469 -0.00725
C 3.61951 6.44524 0.01996
C 2.44209 7.14137 -0.00279
C 2.42983 8.65623 0.01226
C 3.69552 30.52991 0.01707
C 2.47453 29.77785 0.02769
C 2.43111 28.42872 -0.03291
C 3.7072 27.62868 -0.04999
C 3.6392 26.20985 0.04505
C 2.45123 25.59172 0.03284
C 2.38495 24.12576 -0.04307
C 3.63909 23.50356 0.03189
C 3.67174 22.05044 0.00031
C 2.41566 21.29377 -0.003
C 2.51173 19.89751 0.01402
C 3.75703 19.22459 0.02379
C 3.70669 17.78628 0.00907
C 2.48721 17.12181 0.00643
C 2.44035 15.63621 -0.01509
C 3.65316 14.90894 0.03267
C 3.72172 13.4495 0.02374
C 2.44607 12.72207 0.00402
C 2.44508 11.33918 0.0073
C 3.7336 10.71523 0.0174
C 3.68099 9.33209 0.03828
C 4.92372 17.0297 -0.00966
C 11.10379 31.95416 0.01364
C 4.89132 15.63585 -0.03337
C 6.17966 13.51548 0.00873
C 7.34768 19.85594 -0.01384
C 8.54326 19.135 0.03693
C 8.58254 17.70841 0.01745
C 7.39493 17.00549 0.00488
C 7.41603 15.60581 -0.01004
C 8.64034 14.9331 -0.02896
C 8.60394 13.52636 -0.00131
C 7.38081 12.8529 -0.01118
C 7.4247 11.37698 -0.014
C 7.31761 21.28532 -0.00482
C 8.60727 10.71859 0.02147
C 7.35509 8.54915 -0.00191
C 7.3277 7.13543 0.00438
C 8.63686 6.42152 0.01291
C 8.5875 5.00204 0.00093
C 7.33603 4.34527 0.00057
C 7.36123 2.9132 -0.01634
C 8.61003 2.17767 -0.00334
C 8.61644 0.78816 0.02339
C 7.39327 0.0334 0.01641
C 8.61326 9.29162 0.00373
C 8.54403 22.1021 0.02888
C 8.53799 23.49244 0.00685
C 7.28119 24.11912 0.00895
C 5.00594 12.83197 -0.00049
C 4.97378 11.42918 0.00848
C 6.13722 10.68876 -0.01303
C 6.12272 9.22022 -0.01378
C 4.87829 8.6082 0.02635
C 4.81627 7.16801 0.0127
C 6.10061 6.46992 0.01396
C 6.07241 4.98097 0.01849
C 4.87833 4.25751 -0.01142
C 4.90035 2.87905 -0.00562
C 6.18936 2.21004 -0.00494
C 6.18676 0.8034 0.00054
C 4.90749 0.08341 0.03007
C 7.37851 32.74678 -0.00095
C 8.63152 31.95634 0.01572
C 8.56959 30.60501 -0.04848
C 7.32872 29.84405 -0.00892
C 7.33638 28.42633 -0.01362
C 8.54692 27.70033 -0.0008
C 8.50233 26.28019 0.0288
C 7.26085 25.55084 0.00393
C 6.16781 14.94106 0.01227
C 17.21245 29.8316 0.00143
C 17.15636 28.38543 -0.017
C 18.34926 27.63244 0.00364
C 29.5016 25.58548 0.07705
C 29.57092 24.18687 0.0103
C 30.77613 23.48487 0.02108
C 30.73845 22.06305 0.00716
C 29.55131 21.32769 0.00307
C 29.485 19.88853 0.00346
C 30.6975 19.17433 0.01713
C 30.83272 17.73335 -0.01694
C 30.72832 4.91641 0.01428
C 30.75542 26.25173 0.01908
C 29.74281 4.22707 -0.02142
C 30.74472 2.16065 0.00026
C 30.7348 0.7534 0.00682
C 29.5095 0.0317 -0.01779
C 31.99782 32.69172 0.03794
C 33.20532 32.01889 0.01927
C 33.22721 30.56788 0.01574
C 31.9261 29.81206 -0.02383
C 32.00744 28.39112 -0.01429
C 33.2155 27.65661 -0.0136
C 29.47485 2.90514 0.0544
C 30.74487 27.66361 0.01518
C 29.47924 28.40741 -0.00971
C 29.46833 29.75068 -0.03735
C 28.26171 31.91733 0.04266
C 28.21159 30.47198 0.01324
C 26.9545 29.76849 0.0014
C 26.92821 28.3958 0.00924
C 28.18917 27.69237 0.02326
C 28.26089 26.26589 0.00261
C 27.04493 25.54212 0.03265
C 27.04574 24.13185 -0.02049
C 28.34059 23.40119 -0.01854
C 28.30951 21.97548 -0.01415
C 27.03234 21.25261 -0.03039
C 27.07812 19.73449 0.01836
C 28.35266 19.11352 0.03531
C 26.9174 4.1797 -0.00669
C 27.10627 2.81433 0.0101
C 28.32127 2.16623 0.01705
C 28.26954 0.74892 -0.0405
C 27.0493 34.07305 -0.01303
C 29.55072 32.65852 -0.01461
C 30.73251 31.98789 -0.02155
C 30.71328 30.60204 -0.00944
C 33.26932 26.27753 0.00594
C 27.12129 32.66035 0.01177
C 32.00935 25.55118 -0.02474
C 33.21033 23.50099 0.00455
C 34.37449 21.33941 -0.02213
C 34.40193 19.88359 0.01951
C 1.18807 19.19011 -0.01678
C 1.19851 17.77061 0.01223
C 34.39502 17.03772 0.00648
C 34.29259 15.48284 0.02114
C 1.21051 14.87003 -0.02957
C 1.24005 13.44329 0.00343
C 34.4234 12.63278 -0.02656
C 1.18238 22.01276 0.02712
C 0.04428 11.37876 -0.02442
C 1.16274 9.21636 -0.00583
C 0.04161 8.53901 -0.02302
C 34.27182 7.15141 -0.02849
C 1.19493 6.47642 0.02931
C 1.22843 5.01457 0.00628
C 34.41481 4.25667 -0.0345
C 34.35791 2.82266 -0.00931
C 1.16869 2.13034 -0.00939
C 1.17566 0.75228 -0.00468
C 1.21238 10.58295 -0.00027
C 1.14591 23.46066 0.00723
C 0.01083 24.20135 0.03076
C 0.00263 25.58041 -0.05239
C 33.14359 22.02332 -0.00644
C 31.95639 21.33375 -0.01839
C 31.93032 19.91855 0.00137
C 33.1805 19.20357 0.00199
C 33.20064 17.71095 0.04381
C 31.83832 17.17212 0.02806
C 33.09822 14.84723 0.01504
C 33.19022 6.36312 -0.00069
C 33.22827 5.0207 0.04926
C 31.98855 4.34931 -0.03838
C 31.96539 2.82829 0.00349
C 33.1506 2.08262 -0.00323
C 33.1846 0.70253 -0.00841
C 31.91364 0.00211 0.0001
C 34.43099 32.69736 -0.02927
C 1.20643 31.91445 -0.01404
C 1.20432 30.48334 0.01027
C 34.42149 29.77812 0.01831
C 0.01585 28.35721 -0.01037
C 1.27532 27.71216 -0.00439
C 1.19021 26.29826 -0.00598
C 32.02215 24.199 0.00369
C 24.62072 34.00641 -0.00416
C 25.80781 0.68976 0.01699
C 25.88084 2.09544 0.01799
C 17.20058 0.05554 -0.01185
C 19.64163 32.68127 0.01126
C 20.93642 31.97619 0.01852
C 20.90398 30.55533 -0.00381
C 19.67737 29.83266 0.03046
C 19.58774 28.39125 0.0296
C 20.81789 27.66122 0.03374
C 20.85252 26.23573 -0.02845
C 19.63553 25.54173 -0.03213
C 18.51825 0.70231 -0.01662
C 19.63881 24.09127 0.02239
C 20.81012 21.99828 0.02734
C 19.60607 21.25284 -0.0055
C 19.72451 19.80119 0.01515
C 20.99307 19.13729 -0.00225
C 21.04705 17.62566 0.00071
C 19.77865 17.01819 -0.01107
C 19.75165 15.53255 -0.01586
C 20.95739 14.91252 -0.01971
C 19.69363 12.55327 -0.02118
C 20.82433 23.40842 0.01153
C 18.49575 2.06682 -0.00478
C 17.25886 2.80744 0.01511
C 17.26028 4.2554 0.00199
C 18.37603 26.25034 -0.00831
C 17.18777 25.53266 -0.02957
C 17.29321 24.13272 -0.04422
C 18.49535 23.41182 0.00654
C 18.40958 22.02657 -0.00703
C 17.20011 21.32823 -0.04076
C 17.24095 19.85812 -0.00652
C 18.50646 19.15648 0.0058
C 18.59279 17.74568 -0.00865
C 17.28823 17.04629 0.00675
C 17.28135 15.60791 -0.00311
C 18.46642 14.85706 0.00742
C 18.51792 13.44535 -0.01594
C 17.19142 12.8596 0.0106
C 17.18044 11.38124 -0.01154
C 18.39016 10.6513 -0.01721
C 18.43032 9.25497 -0.02422
C 17.22072 8.52888 0.01277
C 17.20169 7.13586 0.00096
C 18.48965 6.4632 -0.01527
C 18.43202 5.04044 0.01087
C 19.64309 11.28582 0.00733
C 20.90307 9.36737 -0.00178
C 19.80936 8.60224 0.00768
C 19.7485 7.10417 -0.0276
C 22.12671 4.25934 -0.01654
C 22.14512 2.81685 -0.00037
C 23.3336 2.13195 -0.0032
C 22.39015 0.09547 0.00622
C 24.53079 32.69553 -0.02815
C 25.80889 31.95482 -0.00942
C 25.72607 30.52065 0.00487
C 24.52322 29.8038 0.00826
C 24.47705 28.37349 -0.00294
C 25.69362 27.67868 0.00152
C 25.78127 26.19346 0.01257
C 24.55613 25.5034 0.02316
C 24.56146 24.10789 0.04185
C 25.77523 23.3985 0.00194
C 25.81452 21.95231 -0.00621
C 24.5673 21.28786 0.02611
C 24.58398 19.86802 0.02198
C 25.74406 19.23664 0.01094
C 25.82979 4.80401 0.00235
C 24.53836 4.44534 0.01495
C 24.574 2.59219 0.01259
C 23.2477 4.96016 -0.00218
C 3.68217 31.96377 0.00208
C 22.13447 7.02759 -0.00802
C 23.31724 17.77418 0.00996
C 20.98985 6.32525 0.03005
C 20.86332 4.92443 -0.04078
C 19.62262 4.28596 0.02117
C 19.6247 2.83321 0.02737
C 20.85698 2.13909 -0.00498
C 21.09429 0.73909 0.00135
C 19.76758 34.0759 0.03102
C 22.23428 32.77958 0.02555
C 23.33836 31.89955 0.01423
C 23.28695 30.57396 -0.00285
C 22.10505 29.75549 -0.009
C 21.99899 28.39106 -0.01199
C 23.28292 27.60996 -0.00229
C 23.32392 26.19407 -0.00938
C 22.12234 25.46735 -0.0264
C 22.06165 24.04508 -0.01154
C 23.29583 23.36203 0.00684
C 23.33505 22.03377 -0.01052
C 22.01597 21.38294 -0.01679
C 22.11221 19.92658 0.00367
C 23.35551 19.20952 0.04306
C 22.35564 17.11081 0.00195
C 2.41769 32.63777 -0.00561
