365
Graphene
C 34.38223 0.0194 0.01295
C 11.02564 8.93808 0.00052
C 9.75806 8.54345 -0.03682
C 11.01379 0.74435 0.01965
C 9.8018 0.07348 0.02058
C 12.32259 32.77829 -0.01957
C 13.49359 31.88454 -0.0108
C 13.50661 30.5128 -0.00368
C 12.29677 29.77971 -0.02696
C 11.02401 10.56689 0.00374
C 12.33661 28.36101 -0.00114
C 13.58806 26.12016 0.00798
C 12.43213 25.52247 0.00422
C 12.4006 24.12445 0.0351
C 13.59202 23.42015 -0.03113
C 13.36318 22.05581 0.02098
C 12.27242 21.28957 0.01848
C 12.2734 19.91192 -0.00619
C 13.53464 19.11276 -0.02162
C 13.70705 27.5576 0.00228
C 9.82225 11.30712 -0.02813
C 9.78757 12.68457 -0.01952
C 11.02883 13.46597 0.05265
C 7.29135 34.07977 0.02894
C 9.85423 32.65964 -0.01789
C 11.09174 32.06338 0.00444
C 11.06115 30.6229 -0.00925
C 9.82525 29.91322 0.01877
C 9.80042 28.46783 0.01363
C 11.1011 27.67009 -0.02162
C 11.15895 26.26734 0.00415
C 9.83601 25.65272 -0.0014
C 9.85312 24.18403 0.02162
C 11.12926 23.51684 0.0076
C 11.08669 21.99574 0.01241
C 9.85979 21.3045 -0.01454
C 9.84159 19.81593 0.01945
C 11.06365 19.06208 0.01416
C 11.05373 17.67044 0.03542
C 9.9145 17.02814 0.02299
C 9.83951 15.48643 0.00244
C 11.07799 14.87273 -0.01717
C 13.54419 17.68944 0.00889
C 12.30465 16.97968 -0.00481
C 12.25764 15.56972 0.00979
C 13.54052 14.92608 0.01443
C 14.54597 2.78846 -0.03557
C 15.92716 2.2295 0.03754
C 16.01046 0.68699 0.01739
C 14.82511 34.04128 0.00755
C 17.16544 32.61087 -0.0054
C 18.43218 31.85386 0.00667
C 18.33226 30.55329 0.00143
C 16.98768 17.1079 -0.017
C 17.23392 15.72448 0.00364
C 18.44958 15.03536 -0.00831
C 18.46572 13.50193 -0.02957
C 17.29093 12.78973 -0.04422
C 17.19729 11.33012 0.00654
C 18.39755 10.60521 -0.00703
C 18.27952 9.24105 -0.04076
C 17.23314 2.82171 -0.00652
C 18.39285 2.04837 0.0058
C 18.48029 0.64532 -0.00865
C 17.17229 34.02966 0.00675
C 16.00377 9.3013 -0.00111
C 8.57027 0.6382 -0.02971
C 15.96794 10.70466 0.04892
C 14.74758 12.8223 -0.01581
C 13.46616 13.50278 0.03505
C 12.27918 12.69428 -0.02815
C 12.23267 11.24534 -0.04147
C 13.56846 10.64756 -0.05302
C 13.57041 9.32245 0.00213
C 12.39694 8.59072 -0.00066
C 13.70132 0.83866 -0.00289
C 12.35031 0.28336 0.00028
C 14.75302 32.57214 -0.02213
C 15.99178 31.89568 0.03698
C 16.14606 30.49321 -0.00109
C 14.84946 29.80082 -0.00491
C 14.68034 28.49968 0.03338
C 14.60124 19.84375 -0.0258
C 15.83351 17.77752 -0.0331
C 14.68182 17.06337 -0.00316
C 14.78126 15.65903 0.02188
C 15.99447 14.9624 -0.01979
C 15.96377 13.50138 0.02691
C 14.71088 11.45495 0.01452
C 8.5543 2.03602 0.00165
C 7.53023 2.92661 0.02819
C 7.30326 4.29897 -0.00891
C 3.70065 6.46677 0.00848
C 3.71624 5.00246 -0.01303
C 2.4533 4.27453 -0.01378
C 2.4885 2.81521 0.02635
C 3.65026 2.18633 0.0127
C 3.61733 0.72315 0.01396
C 2.41887 33.98142 0.01849
C 4.90838 32.67949 -0.01142
C 6.11487 32.0291 -0.00562
C 6.165 30.50913 -0.00494
C 4.96498 29.79284 0.00054
C 4.94362 28.39039 0.03007
C 6.14734 27.72896 -0.00095
C 6.1467 26.24975 0.01572
C 4.92378 25.60032 -0.04848
C 4.92685 24.13482 -0.00892
C 6.14533 23.42732 -0.01362
C 6.11621 22.03979 -0.0008
C 4.90044 21.29515 0.0288
C 2.4051 7.12281 -0.00049
C 4.88688 19.90858 0.00393
C 2.44576 8.58121 0.00873
C 3.71097 10.70954 -0.03337
C 3.69917 30.54964 -0.00518
C 2.45293 29.81082 0.0086
C 2.51741 28.41557 -0.00643
C 3.65749 27.64164 0.017
C 3.67145 26.22369 -0.03113
C 2.40293 25.64544 -0.02566
C 2.37949 24.12505 -0.00094
C 3.62147 23.52419 0.02322
C 3.58338 22.12683 -0.00725
C 2.45971 21.26576 -0.05697
C 2.46852 19.84032 0.01087
C 3.72038 19.12682 -0.01343
C 3.64979 17.70996 0.00988
C 2.48097 17.06068 0.0276
C 2.39775 15.54957 0.01305
C 3.68678 14.97211 -0.00077
C 3.69935 13.60041 0.03368
C 2.45993 12.77956 -0.02929
C 2.45118 11.47127 -0.00966
C 3.62968 9.29681 0.01227
C 19.65015 32.61269 -0.00311
C 6.16014 19.2296 0.00895
C 4.99818 17.10367 0.02888
C 7.36753 25.55138 -0.01062
C 7.43576 24.11692 -0.00033
C 8.67619 23.44725 0.03589
C 8.6725 22.06654 -0.02759
C 7.39925 21.38442 0.0402
C 7.36977 19.93604 0.00572
C 8.65082 19.17971 0.03592
C 8.65795 17.77279 0.00406
C 7.44166 17.08437 0.00943
C 7.40765 15.61985 0.02841
C 8.61225 14.87684 -0.01111
C 8.51421 13.3822 -0.01275
C 7.27011 12.74177 0.00985
C 7.33179 11.42351 -0.02245
C 8.50072 10.68606 -0.00428
C 8.49946 9.27376 0.03101
C 7.34056 8.5439 -0.01536
C 7.37279 7.13844 -0.02689
C 8.67049 6.48476 -0.01046
C 8.55801 26.25815 0.01364
C 6.23061 17.80839 0.00685
C 8.60086 27.7067 -0.00719
C 7.34414 29.79547 0.02339
C 4.88826 15.69483 -0.00482
C 6.16149 15.01134 -0.01384
C 6.13969 13.57836 0.03693
C 4.8544 12.90794 0.01745
C 4.88991 11.43239 0.00488
C 6.07961 10.68574 -0.01004
C 6.12015 9.26561 -0.02896
C 4.92828 8.57975 -0.00131
C 4.89472 7.18303 -0.01118
C 6.09176 6.4361 -0.014
C 6.19895 5.0055 0.02147
C 4.91918 4.21351 0.00373
C 4.90328 2.84945 -0.00191
C 6.15383 2.19486 0.00438
C 6.09529 0.75814 0.01291
C 4.86917 0.02841 0.00093
C 7.2712 32.73225 0.00057
C 8.55272 32.00025 -0.01634
C 8.57304 30.53303 -0.00334
C 7.35918 28.41973 0.01641
C 3.73101 31.92823 -0.00074
C 20.91564 32.05771 0.00742
C 20.97684 14.90594 0.0106
C 29.42573 0.02126 0.00346
C 31.92069 32.64716 0.01713
C 33.1799 31.88774 -0.01694
C 33.27729 30.50827 0.01428
C 31.9523 29.86803 -0.02142
C 31.88061 28.45701 0.0544
C 33.1268 27.74205 0.00026
C 33.15347 26.338 0.00682
C 30.77192 0.75257 0.00307
C 31.90754 25.59997 -0.01779
C 33.15985 23.50102 0.01927
C 33.12881 22.02023 0.01574
C 31.95343 21.2902 -0.02383
C 31.98378 19.85723 -0.01429
C 33.25929 19.18356 -0.0136
C 33.21736 17.78909 0.00594
C 31.96577 17.04575 -0.02474
C 31.93872 15.66015 0.00369
C 31.91571 24.21169 0.03794
C 30.71174 2.12241 0.00716
C 29.52518 2.83074 0.02108
C 29.51941 4.24612 0.0103
C 29.48996 24.20388 -0.02049
C 30.70255 23.43891 -0.01854
C 30.73821 21.94961 -0.01415
C 29.4479 21.30089 -0.03039
C 29.52658 19.95591 0.01836
C 30.7601 19.20126 0.03531
C 30.75344 17.7884 -0.00669
C 29.5471 17.03272 0.0101
C 29.55161 15.58178 0.01705
C 30.75922 14.88929 -0.0405
C 30.81072 13.40505 -0.01303
C 29.54731 12.77382 -0.01461
C 29.52561 11.37201 -0.02155
C 30.69964 10.67438 -0.00944
C 30.75136 9.1842 -0.03735
C 29.48513 8.45602 -0.00971
C 29.46853 7.05847 0.01518
C 30.67757 6.32723 0.01908
C 30.77426 4.98736 0.07705
C 33.17519 14.91497 0.00455
C 33.1828 13.50646 -0.00644
C 32.03175 12.71539 -0.01839
C 31.96988 11.27098 0.00137
C 0.04662 19.86666 0.01951
C 1.21922 19.15821 -0.01678
C 1.21695 17.79605 0.01223
C 34.42587 17.01197 0.00648
C 34.37638 15.60643 0.02114
C 1.22637 14.8631 -0.02957
C 1.22769 13.49001 0.00343
C 34.41725 12.82494 -0.02656
C 0.00029 11.40428 -0.02442
C 1.19393 10.65904 -0.00027
C 1.25647 9.30498 -0.00583
C 0.00804 8.51827 -0.02302
C 34.40543 7.11652 -0.02849
C 1.18821 6.46183 0.02931
C 1.30027 5.06023 0.00628
C 0.01296 4.29745 -0.0345
C 34.43185 2.91361 -0.00931
C 1.25017 2.1824 -0.00939
C 1.21651 0.66252 -0.00468
C 34.39337 21.31913 -0.02213
C 29.45932 25.55773 0.03265
C 1.23368 22.05711 0.02712
C 34.36137 24.22098 0.03076
C 33.25762 10.60762 0.00199
C 33.17651 9.21446 0.04381
C 31.98674 8.52758 0.02806
C 31.90417 7.05708 0.01504
C 33.12708 6.41678 -0.00069
C 33.20357 4.95675 0.04926
C 31.95465 4.28435 -0.03838
C 31.92502 2.78901 0.00349
C 33.20127 2.16138 -0.00323
C 33.19277 0.77803 -0.00841
C 31.9907 34.05498 0.0001
C 34.39497 32.70659 -0.02927
C 1.20139 31.92745 -0.01404
C 1.24214 30.49832 0.01027
C 34.4289 29.82555 0.01831
C 34.33514 28.40504 -0.01037
C 1.22072 27.74391 -0.00439
C 1.13104 26.36546 -0.00598
C 34.35063 25.59121 -0.05239
C 1.15528 23.42556 0.00723
C 30.74556 26.3743 0.00261
C 30.65636 27.74777 0.02326
C 29.43309 28.47342 0.00924
C 23.28732 9.15565 -0.0055
C 22.07369 8.48072 0.01515
C 22.12977 7.0605 -0.00225
C 23.38713 6.4259 0.00071
C 23.31067 4.96351 -0.01107
C 22.0052 4.27721 -0.01586
C 22.0821 2.82705 -0.01971
C 23.3971 2.16285 -0.02118
C 23.33455 0.72451 0.00733
C 22.14262 34.04814 -0.00178
C 24.48439 32.60925 0.00768
C 25.68579 31.88703 -0.0276
C 25.71768 30.45196 0.03005
C 24.62665 29.78047 -0.04078
C 25.87115 17.74033 0.02117
C 24.79001 16.9545 0.02737
C 24.56228 15.61428 -0.00498
C 25.80117 14.85024 0.00135
C 25.83889 13.46382 0.03102
C 23.28471 10.58616 0.02734
C 24.59417 12.75486 0.02555
C 22.05685 11.20323 0.01153
C 23.39121 13.46118 -0.03213
C 20.98104 13.3945 -0.01154
C 19.73654 12.77499 -0.01721
C 19.64565 11.38302 -0.02422
C 20.78192 10.59934 0.01277
C 20.80742 9.20859 0.00096
C 19.51367 8.36073 -0.01527
C 19.75481 7.07285 0.01087
C 20.85238 6.29997 0.00199
C 20.77134 4.85686 0.01511
C 19.52844 4.15989 -0.00478
C 19.61983 2.71755 -0.01662
C 20.88988 2.04927 -0.01185
C 20.97068 0.69363 0.01126
C 19.73082 0.02033 0.01852
C 22.08788 32.6095 -0.00381
C 23.24728 31.73465 0.03046
C 23.45835 30.45398 0.0296
C 22.17571 15.57714 0.03374
C 23.37295 14.91087 -0.02845
C 22.16384 12.65581 0.02239
C 19.6611 15.60319 -0.01594
C 24.56627 11.32079 0.01423
C 25.83471 9.25272 -0.009
C 28.35895 14.92808 0.00152
C 28.34927 13.53226 0.01257
C 27.04909 12.79741 0.02316
C 27.09131 11.40013 0.04185
C 28.3089 10.66286 0.00194
C 28.35385 9.26215 -0.00621
C 27.09737 8.57763 0.02611
C 27.06826 7.14557 0.02198
C 28.22895 6.32636 0.01094
C 28.33433 5.00213 0.00235
C 27.15055 4.23892 0.01495
C 26.97461 2.85068 0.01259
C 28.24074 2.15232 0.01799
C 28.2457 0.80436 0.01699
C 26.9203 0.021 -0.00416
C 29.46594 32.68326 0.01177
C 30.68346 32.0023 0.04266
C 30.70888 30.57835 0.01324
C 29.52274 29.81844 0.0014
C 27.11365 15.6479 -0.00294
C 25.78423 10.60193 -0.00285
C 27.03776 17.07174 0.00826
C 28.26906 19.22468 -0.00942
C 24.63037 8.5269 -0.01199
C 24.59258 7.07374 -0.00229
C 25.90533 6.47707 -0.00938
C 25.82997 5.00476 -0.0264
C 24.60262 4.32677 -0.01154
C 24.55573 2.91967 0.00684
C 25.73432 2.17107 -0.01052
C 25.71663 0.71004 -0.01679
C 24.50849 34.0001 0.00367
C 26.93372 32.65896 0.04306
C 28.20496 31.94826 0.00996
C 28.18456 30.55215 0.00195
C 27.00943 29.79741 -0.00802
C 27.04803 28.40614 -0.00218
C 28.13819 27.56455 -0.01654
C 28.26512 26.23415 -0.00037
C 28.27615 23.3844 -0.0032
C 28.33567 22.0855 0.00622
C 27.10682 19.79817 -0.02815
C 28.30485 17.74072 0.00487
C 2.43345 32.62801 0.01465
