344
Graphene
C 34.38536 34.04866 0.01295
C 9.88045 8.60347 0.02098
C 9.79283 7.16873 0.01848
C 10.94148 6.46172 -0.00619
C 11.19647 5.19968 -0.02162
C 9.84758 4.38462 0.00889
C 9.82201 2.94057 -0.00481
C 10.99259 2.07648 0.00979
C 11.0128 0.68279 0.01443
C 9.7287 34.0562 0.03505
C 12.34882 32.70341 -0.02815
C 13.5643 31.96214 -0.04147
C 13.53585 30.57929 -0.05302
C 12.29313 29.84901 0.00213
C 12.34651 28.4503 -0.00066
C 13.57083 27.63143 -0.00289
C 13.56827 26.23408 0.00028
C 12.29466 25.51399 -0.02213
C 11.08227 19.09307 -0.03113
C 9.81542 19.7853 0.0351
C 9.77436 21.18555 0.00422
C 11.0469 21.86369 0.00798
C 7.2685 7.17658 0.03542
C 8.57358 6.48608 0.02299
C 8.6687 5.04274 0.00244
C 7.39211 4.36787 -0.01717
C 7.38483 2.92508 0.05265
C 8.5926 2.19307 -0.01952
C 8.52533 0.76946 -0.02813
C 7.33978 0.03327 0.00374
C 12.28185 24.08614 0.03698
C 9.79842 32.62838 0.00052
C 11.12748 30.56215 0.01965
C 9.89158 29.82345 0.02058
C 9.89841 28.41427 -0.01957
C 11.12331 27.73614 -0.0108
C 11.12559 26.25246 -0.00368
C 9.86702 25.54502 -0.02696
C 9.83578 24.11786 -0.00114
C 11.03162 23.35133 0.00228
C 11.14301 31.96327 -0.03682
C 7.36561 8.62078 0.01416
C 13.52298 23.35273 -0.00109
C 12.23427 21.27595 0.03338
C 14.7015 0.07977 0.00654
C 17.27275 32.76121 -0.00703
C 18.46731 31.96305 -0.04076
C 18.4202 30.51933 -0.00652
C 17.16297 29.77967 0.0058
C 17.18561 28.42339 -0.00865
C 18.42985 27.71157 0.00675
C 18.39412 26.25975 -0.00311
C 17.1817 25.57558 0.00742
C 17.22725 24.12338 -0.01594
C 18.454 23.43393 0.0106
C 18.36153 22.0418 -0.01154
C 17.15126 21.2955 -0.01721
C 17.08404 19.94999 -0.02422
C 18.53537 0.63435 0.01277
C 17.30944 0.08148 0.00096
C 19.68014 32.68469 -0.01527
C 16.0949 0.73813 -0.04422
C 15.80349 2.0871 -0.02957
C 14.72217 2.65844 -0.00831
C 14.88976 19.87394 0.00364
C 12.21301 19.95717 -0.0258
C 12.13746 4.18339 -0.0331
C 12.17134 2.81734 -0.00316
C 13.40013 2.15891 0.02188
C 13.49337 0.74603 -0.01979
C 12.28482 0.05473 0.02691
C 14.77925 32.70493 -0.01581
C 16.07141 32.03768 0.01452
C 13.48283 21.95095 -0.00491
C 16.00081 30.54643 0.04892
C 14.78366 28.33297 -0.03557
C 16.01003 27.65969 0.03754
C 15.93878 26.24792 0.01739
C 14.71062 25.51728 0.00755
C 14.74545 24.10875 -0.0054
C 15.9179 23.38644 0.00667
C 15.96504 21.95687 0.00143
C 14.73845 21.22393 -0.017
C 14.80687 29.84117 -0.00111
C 20.91623 31.86599 0.01087
C 8.73876 9.2905 0.01945
C 7.50343 11.42268 0.01241
C 2.45431 7.10979 0.00895
C 3.67219 6.40523 0.00685
C 3.6996 4.93858 0.02888
C 2.46276 4.23335 -0.00482
C 2.43554 2.7658 -0.01384
C 3.74612 2.19741 0.03693
C 3.70075 0.75447 0.01745
C 2.44356 34.06892 0.00488
C 4.92883 32.70765 -0.01004
C 6.14302 31.99662 -0.02896
C 6.12643 30.56776 -0.00131
C 4.8833 29.80505 -0.01118
C 4.8538 28.41778 -0.014
C 6.10896 27.72546 0.02147
C 6.1342 26.26232 0.00373
C 4.88756 25.554 -0.00191
C 4.92051 24.10665 0.00438
C 2.43386 8.5052 0.00393
C 3.65304 9.21522 0.0288
C 3.7106 10.74182 -0.0008
C 2.47206 11.36653 -0.01362
C 3.61633 30.59854 0.00873
C 2.36586 29.86532 -0.00049
C 2.43256 28.45548 0.00848
C 3.64074 27.70851 -0.01303
C 3.5841 26.32734 -0.01378
C 2.38449 25.53741 0.02635
C 2.42834 24.10539 0.0127
C 3.6075 23.41457 0.01396
C 6.10117 23.43647 0.01291
C 3.58612 22.02675 0.01849
C 2.37374 19.85189 -0.00562
C 3.64178 19.15901 -0.00494
C 3.72104 17.76374 0.00054
C 2.47066 17.00881 0.03007
C 2.4448 15.60825 -0.00095
C 3.66587 14.95916 0.01572
C 3.72942 13.53729 -0.04848
C 2.49308 12.7869 -0.00892
C 2.42509 21.23952 -0.01142
C 8.56833 10.59806 -0.01454
C 6.11974 22.04717 0.00093
C 4.91074 19.87142 -0.01634
C 7.35115 29.75634 -0.02689
C 7.37842 28.41588 -0.01046
C 8.65067 27.73001 -0.00891
C 8.65683 26.38358 0.02819
C 7.3946 25.58614 0.00165
C 7.40351 24.11697 -0.02971
C 8.62087 23.35049 0.02894
C 8.55996 21.94633 -0.01789
C 7.31823 21.26232 0.00444
C 7.35277 19.80477 -0.00925
C 8.58539 19.10398 0.01877
C 8.65469 17.71733 0.01363
C 7.38485 17.08488 -0.02162
C 7.35559 15.75587 0.00415
C 8.40483 14.80905 -0.0014
C 8.68143 13.5498 0.02162
C 7.50544 12.7946 0.0076
C 8.55934 30.52097 -0.01536
C 8.54437 31.97795 0.03101
C 7.31673 32.75437 -0.00428
C 4.95838 0.08472 -0.02245
C 6.17535 19.13961 -0.00334
C 6.0814 17.74448 0.02339
C 4.88901 17.01079 0.01641
C 4.97383 15.59348 -0.00719
C 6.19042 14.96471 0.01364
C 6.31781 13.5154 -0.01062
C 5.01065 12.80847 -0.00033
C 4.95299 11.40372 0.03589
C 4.84268 21.267 0.00057
C 6.22562 10.71356 -0.02759
C 4.86321 8.50251 0.00572
C 4.87154 7.1063 0.03592
C 6.09326 6.42538 0.00406
C 6.09912 4.99208 0.00943
C 4.89421 4.30998 0.02841
C 4.94553 2.87282 -0.01111
C 6.15198 2.23456 -0.01275
C 6.17435 0.78611 0.00985
C 6.18559 9.2966 0.0402
C 20.90925 30.46444 0.00199
C 19.62212 29.82288 0.01511
C 19.64196 28.40059 -0.00478
C 31.92711 29.78542 -0.02142
C 31.90557 28.3863 0.0544
C 33.15216 27.71527 0.00026
C 33.21682 26.2708 0.00682
C 31.98908 25.5353 -0.01779
C 31.93732 24.12063 0.03794
C 33.15988 23.37848 0.01927
C 33.15899 22.01604 0.01574
C 31.94488 21.29249 -0.02383
C 31.95408 19.87485 -0.01429
C 33.20342 19.17982 -0.0136
C 33.16759 17.79655 0.00594
C 31.96224 17.1387 -0.02474
C 31.98446 15.65959 0.00369
C 33.21297 14.94477 0.00455
C 33.21983 13.53233 -0.00644
C 31.98091 12.82498 -0.01839
C 33.20168 30.51401 0.01428
C 33.18557 31.95625 -0.01694
C 31.90961 32.67496 0.01713
C 29.60866 0.05053 0.00346
C 30.68142 19.19271 0.03531
C 30.75972 17.77367 -0.00669
C 29.50358 17.09097 0.0101
C 29.47406 15.6422 0.01705
C 30.74491 14.94142 -0.0405
C 30.77388 13.48111 -0.01303
C 29.51593 12.78573 -0.01461
C 29.49095 11.38616 -0.02155
C 31.91732 11.35677 0.00137
C 30.69561 10.65841 -0.00944
C 29.51424 8.40626 -0.00971
C 29.50773 7.03321 0.01518
C 30.75844 6.42274 0.01908
C 30.7343 4.9549 0.07705
C 29.46588 4.21639 0.0103
C 29.43837 2.85575 0.02108
C 30.73921 2.17739 0.00716
C 30.78604 0.78096 0.00307
C 30.69755 9.27689 -0.03735
C 29.45345 19.88452 0.01836
C 33.13099 10.62397 0.00199
C 31.93294 8.52171 0.02806
C 1.22297 17.75401 0.01223
C 34.42463 17.05567 0.00648
C 0.00087 15.64612 0.02114
C 1.21004 14.93734 -0.02957
C 1.23652 13.52098 0.00343
C 34.39998 12.77234 -0.02656
C 0.01199 11.37132 -0.02442
C 1.30218 10.65433 -0.00027
C 1.25335 9.20163 -0.00583
C 0.01357 8.52631 -0.02302
C 0.05836 7.12584 -0.02849
C 1.22069 6.41534 0.02931
C 1.25797 4.96782 0.00628
C 0.04451 4.25151 -0.0345
C 34.41775 2.87922 -0.00931
C 1.21043 2.09408 -0.00939
C 1.24204 0.59455 -0.00468
C 1.2034 19.21528 -0.01678
C 34.42286 19.88443 0.01951
C 34.37599 21.28797 -0.02213
C 1.18373 21.95896 0.02712
C 31.98906 7.1094 0.01504
C 33.27876 6.38773 -0.00069
C 33.27068 4.99115 0.04926
C 32.02062 4.2452 -0.03838
C 32.02919 2.883 0.00349
C 33.22629 2.1503 -0.00323
C 33.21141 0.73749 -0.00841
C 31.98058 0.04758 0.0001
C 33.11295 9.23111 0.04381
C 34.37143 32.65214 -0.02927
C 1.1802 30.60254 0.01027
C 34.3845 29.85412 0.01831
C 34.3659 28.4752 -0.01037
C 1.21101 27.76214 -0.00439
C 1.17693 26.32755 -0.00598
C 34.38281 25.55451 -0.05239
C 34.31781 24.10215 0.03076
C 1.19871 23.38744 0.00723
C 1.2147 32.0442 -0.01404
C 29.44485 21.33143 -0.03039
C 30.63542 21.97438 -0.01415
C 30.68923 23.40702 -0.01854
C 22.2086 19.95069 -0.00178
C 23.34584 19.3541 0.00768
C 23.52516 2.07621 -0.0276
C 23.38416 0.65472 0.03005
C 22.14977 34.06542 -0.04078
C 24.63962 32.59258 0.02117
C 25.87305 31.8958 0.02737
C 25.86833 30.54798 -0.00498
C 24.61717 29.85148 0.00135
C 24.60375 28.39699 0.03102
C 25.77684 27.71273 0.02555
C 25.79595 26.33254 0.01423
C 24.61264 25.56683 -0.00285
C 24.53189 24.19666 -0.009
C 25.76991 23.44092 -0.01199
C 25.69545 22.06935 -0.00229
C 24.53876 21.3135 -0.00938
C 22.02448 21.38507 0.00733
C 23.27305 22.00614 -0.02118
C 23.32374 23.43267 -0.01971
C 22.07231 24.08351 -0.01586
C 20.82069 27.70959 -0.01662
C 20.82975 26.30247 -0.01185
C 19.67912 25.52853 0.01126
C 19.63871 24.14431 0.01852
C 20.81483 23.39595 -0.00381
C 20.80082 22.02488 0.03046
C 19.60431 21.21668 0.0296
C 21.05073 2.16163 0.03374
C 24.629 19.93789 -0.0264
C 20.97206 0.73353 -0.02845
C 22.14176 32.69693 0.02239
C 23.40694 31.93225 0.01153
C 23.3343 30.48875 0.02734
C 22.15171 29.77126 -0.0055
C 22.11271 28.3901 0.01515
C 23.35678 27.68643 -0.00225
C 23.34099 26.31605 0.00071
C 22.07715 25.53373 -0.01107
C 19.7176 34.07358 -0.03213
C 25.828 19.17035 -0.01154
C 25.7444 17.77731 0.00684
C 25.51811 2.04805 -0.01052
C 28.15534 9.0758 0.02611
C 27.12665 7.15913 0.02198
C 28.24998 6.41409 0.01094
C 28.11051 4.95303 0.00235
C 27.00644 4.23268 0.01495
C 26.70955 2.91827 0.01259
C 28.09951 2.17336 0.01799
C 28.2716 0.75157 0.01699
C 28.51138 10.43139 -0.00621
C 27.02935 0.00311 -0.00416
C 30.78525 31.91757 0.04266
C 30.69693 30.51903 0.01324
C 29.53389 29.78771 0.0014
C 29.518 28.36879 0.00924
C 30.73884 27.6208 0.02326
C 30.73368 26.26723 0.00261
C 29.52552 25.57447 0.03265
C 29.48446 24.12933 -0.02049
C 29.5544 32.70755 0.01177
C 3.70173 31.97999 0.01227
C 28.30909 13.46195 0.00194
C 27.36434 15.86406 0.02316
C 25.80236 0.63568 -0.01679
C 24.56831 33.98714 0.00367
C 27.1011 32.63043 0.04306
C 28.34515 31.93683 0.00996
C 28.34073 30.49275 0.00195
C 27.10033 29.82913 -0.00802
C 27.06274 28.47135 -0.00218
C 28.31085 27.63884 -0.01654
C 28.20183 14.82917 0.04185
C 28.31049 26.17315 -0.00037
C 26.97858 24.21573 0.00622
C 28.24517 23.47795 -0.02815
C 28.24948 22.08411 -0.00942
C 27.01238 21.32781 0.00487
C 26.98028 19.88167 0.00826
C 28.21092 19.15314 -0.00294
C 28.28702 17.77369 0.00152
C 26.81163 17.03438 0.01257
C 27.02334 25.63043 -0.0032
C 2.44203 32.64518 -0.03337
