354
Graphene
C 34.43307 0.02604 0.01295
C 11.08349 14.91957 -0.02696
C 11.05904 13.49829 -0.00114
C 9.85557 12.76637 0.00228
C 9.84654 11.37675 0.00798
C 11.15515 10.67148 0.00422
C 11.01529 9.28346 0.0351
C 9.76969 8.51083 -0.03113
C 9.82434 7.0525 0.02098
C 9.87429 15.55 -0.00368
C 11.06423 6.35729 0.01848
C 9.872 4.24583 -0.02162
C 9.88494 2.84053 0.00889
C 11.11919 2.11156 -0.00481
C 11.08687 0.76547 0.00979
C 9.82681 0.06131 0.01443
C 12.31219 32.69425 0.03505
C 13.4912 31.88779 -0.02815
C 13.43143 30.44301 -0.04147
C 11.10184 4.93535 -0.00619
C 12.23862 29.73734 -0.05302
C 9.80897 17.01107 -0.0108
C 11.06666 19.18212 0.02058
C 7.2939 4.32175 -0.0014
C 7.3101 2.91746 0.02162
C 8.58914 2.2477 0.0076
C 8.59668 0.80579 0.01241
C 7.36384 0.07181 -0.01454
C 9.82329 32.74425 0.01945
C 11.06605 31.97026 0.01416
C 11.06782 30.57811 0.03542
C 11.06219 17.73418 -0.01957
C 9.78182 29.88824 0.02299
C 11.05522 27.7078 -0.01717
C 11.04367 26.29994 0.05265
C 9.90147 25.51152 -0.01952
C 9.86095 24.065 -0.02813
C 11.0906 23.41346 0.00374
C 11.17747 21.99516 0.00052
C 9.80021 21.27037 -0.03682
C 9.84081 19.85584 0.01965
C 9.81709 28.41779 0.00244
C 8.61887 4.96725 0.00415
C 12.31539 28.37204 0.00213
C 13.61733 26.23562 -0.00289
C 13.48588 2.16457 0.00143
C 13.52257 0.75778 -0.017
C 12.31555 0.01365 0.00364
C 14.69348 32.56325 -0.00831
C 15.9589 31.89302 -0.02957
C 15.99141 30.46255 -0.04422
C 14.71906 29.79896 0.00654
C 14.76787 28.43394 -0.00703
C 12.29655 2.85844 0.00667
C 15.94784 27.68122 -0.04076
C 14.81617 25.57827 0.0058
C 14.89632 24.13341 -0.00865
C 15.97361 23.39486 0.00675
C 14.75579 21.20966 -0.00311
C 14.7612 20.02404 0.00742
C 14.7545 17.0225 -0.01594
C 14.72522 15.59395 0.0106
C 15.88972 14.84137 -0.01154
C 15.95125 26.23111 -0.00652
C 13.57213 27.66387 -0.00066
C 12.35132 4.26503 -0.0054
C 13.50899 6.38541 0.01739
C 12.24693 25.63694 0.00028
C 12.24574 24.22256 -0.02213
C 13.49929 23.46959 0.03698
C 13.56135 22.09047 -0.00109
C 12.35582 21.25524 -0.00491
C 12.34903 19.81755 0.03338
C 13.59351 19.16802 -0.0258
C 13.59976 17.7627 -0.0331
C 13.58952 4.9595 0.00755
C 12.33124 17.02405 -0.00316
C 13.42264 14.88074 -0.01979
C 13.4593 13.45383 0.02691
C 12.2437 12.79574 -0.01581
C 12.33362 11.41038 0.01452
C 13.5109 10.66417 0.04892
C 13.47623 9.18724 -0.00111
C 12.26604 8.54245 -0.03557
C 12.23476 7.06628 0.03754
C 12.30109 15.62874 0.02188
C 8.58751 6.38027 -0.02162
C 7.38763 7.12937 0.01363
C 7.32079 8.52724 0.01877
C 2.39559 7.01542 0.00054
C 3.67147 6.38093 0.03007
C 3.61297 4.98591 -0.00095
C 2.45382 4.20001 0.01572
C 2.54496 2.85743 -0.04848
C 3.73121 2.2135 -0.00892
C 3.69286 0.77393 -0.01362
C 2.4565 34.06301 -0.0008
C 2.46326 8.51592 -0.00494
C 4.85303 32.71304 0.0288
C 6.15341 30.57456 0.00895
C 4.94193 29.82472 0.00685
C 4.84438 28.43116 0.02888
C 6.08553 27.68813 -0.00482
C 6.14365 26.33087 -0.01384
C 4.91746 25.56876 0.03693
C 4.96342 24.17315 0.01745
C 6.19235 23.44595 0.00488
C 6.12711 32.00262 0.00393
C 6.1494 22.01394 -0.01004
C 3.71233 9.24721 -0.00562
C 2.38654 11.32194 0.01849
C 3.6859 30.55799 -0.01343
C 2.45976 29.82069 0.00988
C 2.44472 28.40724 0.0276
C 3.63134 27.69882 0.01305
C 3.73597 26.27224 -0.00077
C 2.50944 25.54972 0.03368
C 2.46389 24.16478 -0.02929
C 3.72961 23.42062 -0.00966
C 3.67424 10.67479 -0.01142
C 3.65511 22.05846 -0.03337
C 2.39648 19.96213 0.00873
C 3.6731 19.24458 -0.00049
C 3.68894 17.79578 0.00848
C 2.41987 17.06741 -0.01303
C 2.46952 15.58737 -0.01378
C 3.69492 14.87726 0.02635
C 3.68334 13.42995 0.0127
C 2.42085 12.78068 0.01396
C 2.36028 21.40877 0.01227
C 4.84442 21.32469 -0.02896
C 4.91995 19.91002 -0.00131
C 6.16071 19.21131 -0.01118
C 8.64615 27.61912 0.02841
C 8.69143 26.21986 -0.01111
C 7.38091 25.59667 -0.01275
C 7.3723 24.20428 0.00985
C 8.56732 23.39866 -0.02245
C 8.56256 21.94118 -0.00428
C 7.32116 21.26915 0.03101
C 7.42739 19.90067 -0.01536
C 7.37516 28.3614 0.00943
C 8.63959 19.18672 -0.02689
C 7.33802 17.04018 -0.00891
C 7.39492 15.66592 0.02819
C 8.62008 14.86993 0.00165
C 8.64428 13.481 -0.02971
C 7.42407 12.80144 0.02894
C 7.38294 11.28085 -0.01789
C 8.59599 10.62239 0.00444
C 8.54259 9.19936 -0.00925
C 8.5892 17.73781 -0.01046
C 7.38783 29.80743 0.00406
C 8.61575 30.5572 0.03592
C 8.6187 32.01516 0.00572
C 6.1818 17.74753 -0.014
C 4.93892 17.04705 0.02147
C 4.90148 15.63562 0.00373
C 6.15663 14.92992 -0.00191
C 6.15512 13.53195 0.00438
C 4.98679 12.78917 0.01291
C 4.92228 11.39847 0.00093
C 6.10994 10.66859 0.00057
C 6.12523 9.24005 -0.01634
C 4.91379 8.54654 -0.00334
C 4.91729 7.12114 0.02339
C 6.17056 6.46965 0.01641
C 6.10277 5.10692 -0.00719
C 4.93809 4.37485 0.01364
C 4.92033 2.92946 -0.01062
C 6.11379 2.1833 -0.00033
C 6.1287 0.74739 0.03589
C 4.85217 0.0629 -0.02759
C 7.3833 32.70928 0.0402
C 16.08709 13.51062 -0.01721
C 14.72734 12.81325 -0.02422
C 14.71305 11.4313 0.01277
C 15.97351 10.69975 0.00096
C 29.42894 2.87363 0.01713
C 30.62267 2.1325 -0.01694
C 30.76737 0.71093 0.01428
C 29.56449 34.05414 -0.02142
C 31.92041 32.72664 0.0544
C 33.1045 31.98728 0.00026
C 33.21658 30.57942 0.00682
C 31.99609 29.8317 -0.01779
C 29.49085 4.29647 0.00346
C 31.95562 28.35067 0.03794
C 33.21791 26.27645 0.01574
C 31.81867 25.57041 -0.02383
C 31.85263 24.19231 -0.01429
C 32.99368 23.37666 -0.0136
C 33.14163 21.93484 0.00594
C 33.28673 19.06619 -0.02474
C 33.14491 17.94606 0.00369
C 33.2281 14.91058 0.00455
C 33.16157 27.65426 0.01927
C 33.08616 13.53431 -0.00644
C 30.73715 5.01071 0.00307
C 29.52352 7.13417 0.02108
C 28.30716 6.41603 -0.01415
C 28.25929 4.99228 -0.03039
C 27.09936 4.26528 0.01836
C 27.00678 2.87039 0.03531
C 28.18651 2.1455 -0.00669
C 28.33793 0.69244 0.0101
C 27.09514 34.06834 0.01705
C 29.50115 32.61724 -0.0405
C 30.72085 6.409 0.00716
C 30.77775 31.97709 -0.01303
C 29.51619 29.84941 -0.02155
C 29.53678 28.44515 -0.00944
C 30.70958 27.66183 -0.03735
C 30.72427 26.35566 -0.00971
C 29.45985 11.29691 0.01518
C 30.72335 10.56922 0.01908
C 30.77647 9.15606 0.07705
C 29.54141 8.56497 0.0103
C 30.78938 30.54325 -0.01461
C 32.04185 12.66603 -0.01839
C 31.93278 11.35809 0.00137
C 33.25192 10.67473 0.00199
C 1.20638 19.16117 -0.01678
C 1.16818 17.75011 0.01223
C 34.31131 17.07705 0.00648
C 34.39627 15.6195 0.02114
C 1.23806 14.91743 -0.02957
C 1.19652 13.48188 0.00343
C 0.01298 12.79655 -0.02656
C 0.01404 11.32863 -0.02442
C 0.01335 19.90558 0.01951
C 1.22502 10.63054 -0.00027
C 0.0759 8.5332 -0.02302
C 0.00959 7.11539 -0.02849
C 1.21324 6.33587 0.02931
C 1.1945 4.93131 0.00628
C 34.39884 4.27826 -0.0345
C 34.37852 2.84768 -0.00931
C 1.21071 2.16503 -0.00939
C 1.2086 0.75642 -0.00468
C 1.26077 9.23428 -0.00583
C 34.37119 21.34018 -0.02213
C 1.16326 22.06426 0.02712
C 1.20602 23.43676 0.00723
C 33.2993 9.21503 0.04381
C 32.02738 8.50491 0.02806
C 31.98361 7.06574 0.01504
C 33.20586 6.42053 -0.00069
C 33.22879 5.02673 0.04926
C 31.98613 4.31236 -0.03838
C 31.89831 2.77667 0.00349
C 33.14737 2.10574 -0.00323
C 33.24525 0.73521 -0.00841
C 32.0029 0.0194 0.0001
C 34.35341 32.68422 -0.02927
C 1.11249 31.91671 -0.01404
C 1.17483 30.50601 0.01027
C 34.40471 29.80814 0.01831
C 34.37479 28.34036 -0.01037
C 1.19235 27.77248 -0.00439
C 1.26288 26.33064 -0.00598
C 0.04145 25.53861 -0.05239
C 34.42138 24.14026 0.03076
C 27.00453 7.06068 -0.01854
C 3.61489 31.96232 0.01087
C 26.97146 8.5855 -0.02049
C 28.56813 10.60433 0.00261
C 17.19854 8.58286 -0.01107
C 17.17806 7.16331 -0.01586
C 18.40712 6.43978 -0.01971
C 18.43881 5.04787 -0.02118
C 17.19321 4.26861 0.00733
C 17.14355 2.87751 -0.00178
C 18.43835 2.19639 0.00768
C 18.418 0.72413 -0.0276
C 18.48355 9.23334 0.00071
C 17.22358 34.06052 0.03005
C 20.87027 31.94759 0.02117
C 20.87539 30.54238 0.02737
C 19.61386 29.8736 -0.00498
C 19.7485 28.34311 0.00135
C 21.05993 27.78228 0.03102
C 20.6694 10.64906 0.02555
C 20.93015 9.27293 0.01423
C 19.6969 8.52232 -0.00285
C 19.57585 32.61409 -0.04078
C 19.66961 7.12224 -0.009
C 18.55014 10.60423 -0.00225
C 17.1106 12.67308 -0.0055
C 15.97137 9.23162 -0.01527
C 14.73585 8.49576 0.01087
C 14.75993 7.06758 0.00199
C 16.00702 6.38598 0.01511
C 15.94513 4.95335 -0.00478
C 14.77939 4.19007 -0.01662
C 14.74956 2.78642 -0.01185
C 15.90806 2.06631 0.01126
C 17.29577 11.3367 0.01515
C 15.97939 0.65459 0.01852
C 17.12792 32.66997 0.03046
C 18.26873 31.89401 0.0296
C 18.3501 30.50947 0.03374
C 17.17534 29.74635 -0.02845
C 17.19578 28.35062 -0.03213
C 18.49772 27.57529 0.02239
C 18.2944 26.19062 0.01153
C 17.29544 25.61666 0.02734
C 14.7017 34.03777 -0.00381
C 20.8467 6.37428 -0.01199
C 21.01613 4.92666 -0.00229
C 19.66122 4.29675 -0.00938
C 24.77237 28.30091 0.04185
C 25.83692 27.76388 0.00194
C 25.83058 9.18501 -0.00621
C 24.63497 8.5171 0.02611
C 24.58031 7.05613 0.02198
C 25.76892 6.35758 0.01094
C 25.88026 4.93172 0.00235
C 24.70806 4.21483 0.01495
C 24.55563 29.73949 0.02316
C 24.58948 2.78784 0.01259
C 25.85943 0.71736 0.01699
C 24.60682 0.0148 -0.00416
C 27.10748 32.62672 0.01177
C 28.29206 31.9648 0.04266
C 28.32998 30.5292 0.01324
C 27.13165 29.78286 0.0014
C 27.17604 28.28991 0.00924
C 28.3641 27.75956 0.02326
C 25.80453 2.13777 0.01799
C 25.82867 30.38609 0.01257
C 25.84317 31.91428 0.00152
C 24.66289 32.64919 -0.00294
C 19.64854 2.8825 -0.0264
C 20.81606 2.16917 -0.01154
C 20.83154 0.74481 0.00684
C 19.61524 0.02342 -0.01052
C 22.04468 32.68661 -0.01679
C 23.41507 31.99666 0.00367
C 23.34029 30.56735 0.04306
C 22.18199 29.8229 0.00996
C 22.01246 28.40422 0.00195
C 23.4288 9.151 -0.00802
C 22.23225 8.52016 -0.00218
C 22.12448 7.06801 -0.01654
C 23.33206 6.39468 -0.00037
C 23.4929 4.97175 -0.0032
C 22.24243 4.2727 0.00622
C 22.13718 2.89397 -0.02815
C 23.34047 2.09826 -0.00942
C 23.337 0.67752 0.00487
C 22.05763 34.07641 0.00826
C 28.2019 9.27749 0.03265
C 2.358 32.65033 -0.05697
