421
Graphene
C 34.29115 34.04975 0.01295
C 13.45234 26.3386 0.00406
C 12.26672 25.65546 0.00943
C 12.29823 24.22005 0.02841
C 13.53751 23.50265 -0.01111
C 13.51947 21.96694 -0.01275
C 12.26815 21.31645 0.00985
C 12.31225 19.91055 -0.02245
C 13.44473 19.01592 -0.00428
C 13.48066 17.68212 0.03101
C 12.24647 16.99781 -0.01536
C 13.51274 27.70097 0.03592
C 12.30039 15.6407 -0.02689
C 13.5195 13.56711 -0.00891
C 12.29104 12.8947 0.02819
C 12.35538 11.33699 0.00165
C 13.65636 10.49367 -0.02971
C 13.4697 9.15891 0.02894
C 12.45845 8.25089 -0.01789
C 12.37091 6.82242 0.00444
C 13.42209 5.08701 -0.00925
C 12.24581 4.27614 0.01877
C 12.31252 2.93588 0.01363
C 13.57807 14.8909 -0.01046
C 13.63347 2.19407 -0.02162
C 12.30079 28.45137 0.00572
C 13.49123 30.65142 -0.02759
C 9.85916 19.96977 0.00488
C 11.03879 19.18381 -0.01004
C 11.09346 17.73567 -0.02896
C 9.86132 17.08732 -0.00131
C 9.81092 15.67447 -0.01118
C 11.07597 14.92379 -0.014
C 11.10126 13.572 0.02147
C 9.85753 12.78364 0.00373
C 9.85178 11.384 -0.00191
C 11.116 10.62174 0.00438
C 12.29728 29.88484 0.0402
C 11.06843 9.12638 0.01291
C 9.85298 7.11995 0.00057
C 11.08534 6.30194 -0.01634
C 10.93046 4.95838 -0.00334
C 9.82307 4.24131 0.02339
C 9.84375 2.80424 0.01641
C 11.03902 2.15093 -0.00719
C 11.04604 0.75861 0.01364
C 9.79607 0.00977 -0.01062
C 12.28408 32.74189 -0.00033
C 13.47356 32.03185 0.03589
C 9.84192 8.52526 0.00093
C 13.54951 0.79591 0.00415
C 12.27479 0.09342 -0.0014
C 14.71256 32.65406 0.02162
C 17.23309 29.82866 0.02098
C 17.1713 28.40108 0.01848
C 18.4193 27.76671 -0.00619
C 18.43264 26.25184 -0.02162
C 17.24745 25.5901 0.00889
C 17.2848 24.09976 -0.00481
C 18.50925 23.37865 0.00979
C 18.41019 21.98146 0.01443
C 17.21231 21.24328 0.03505
C 17.20053 19.84632 -0.02815
C 18.46543 30.52191 -0.03113
C 18.42778 19.19277 -0.04147
C 17.18191 17.0713 0.00213
C 17.16193 15.71956 -0.00066
C 18.3392 14.96167 -0.00289
C 18.32886 13.50948 0.00028
C 17.12704 12.75653 -0.02213
C 17.05433 11.40968 0.03698
C 18.39877 0.62181 -0.00109
C 17.21973 34.0579 -0.00491
C 19.67836 32.66318 0.03338
C 20.89486 31.97057 -0.0258
C 18.34145 17.75374 -0.05302
C 18.48178 31.89812 0.0351
C 17.22851 32.60786 0.00422
C 14.76675 34.05862 0.00798
C 15.97898 31.94174 0.0076
C 15.94251 30.53877 0.01241
C 14.75657 29.91965 -0.01454
C 14.76424 28.45927 0.01945
C 15.97182 27.67359 0.01416
C 15.96585 26.26883 0.03542
C 14.76196 25.55041 0.02299
C 14.79401 24.13889 0.00244
C 15.98434 23.40114 -0.01717
C 15.94498 21.97595 0.05265
C 14.729 21.24171 -0.01952
C 14.67337 19.76346 -0.02813
C 15.9026 19.14736 0.00374
C 15.96804 17.75534 0.00052
C 14.69812 17.00741 -0.03682
C 14.7022 15.59758 0.01965
C 15.98366 14.88981 0.02058
C 15.92489 13.55156 -0.01957
C 14.76798 12.76178 -0.0108
C 14.79002 11.37976 -0.00368
C 14.77199 2.79779 -0.02696
C 15.83243 2.07777 -0.00114
C 15.99036 0.65723 0.00228
C 9.78735 21.39527 0.01745
C 11.04774 22.07653 0.03693
C 11.0576 23.50181 -0.01384
C 9.81219 24.16515 -0.00482
C 3.67069 2.18962 -0.00561
C 3.64857 0.69955 0.00208
C 2.41399 34.06109 0.01707
C 4.81882 32.73729 0.02769
C 6.09362 31.98475 -0.03291
C 6.10347 30.58663 -0.04999
C 4.94023 29.88183 0.04505
C 4.95276 28.44366 0.03284
C 6.15478 27.65693 -0.04307
C 6.1017 26.28347 0.03189
C 2.48582 2.89072 -0.01977
C 4.87611 25.49411 0.00031
C 6.11187 23.38711 0.01402
C 6.17229 21.97441 0.02379
C 4.96767 21.37597 0.00907
C 4.92683 19.88935 0.00643
C 6.15937 19.21557 -0.01509
C 6.0961 17.84414 0.03267
C 4.93217 17.05914 0.02374
C 4.89027 15.63694 0.00402
C 6.17482 14.89964 0.0073
C 6.16433 13.43754 0.0174
C 4.9063 24.05915 -0.003
C 2.45907 4.27305 0.02784
C 3.62913 5.09237 -0.01979
C 3.60808 6.50881 -0.00449
C 3.70027 30.54541 0.03345
C 2.55593 29.84505 0.00748
C 2.46736 28.35526 0.00662
C 3.7012 27.66307 -0.0154
C 3.67249 26.24263 -0.01299
C 2.43471 25.50986 -0.00407
C 2.37239 24.12892 0.01138
C 3.55787 23.39226 0.03278
C 3.63055 22.00345 -0.00177
C 2.46018 21.36203 0.04421
C 2.41046 19.92653 0.00088
C 3.66215 19.2348 0.00828
C 3.74005 17.82036 -0.02375
C 2.46757 17.07904 0.00558
C 2.49825 15.61987 -0.0059
C 3.738 14.82186 -0.01386
C 3.73821 13.45291 -0.02805
C 2.40584 12.74285 0.00081
C 2.33583 11.28018 0.00245
C 3.59065 10.62874 0.02728
C 3.691 9.15578 -0.00039
C 2.42574 8.51086 0.0064
C 2.36053 7.12339 0.00211
C 4.93059 12.7451 0.03828
C 20.94604 30.55432 -0.0331
C 4.84646 11.25468 0.01226
C 6.17765 9.24787 0.01996
C 8.60346 13.60192 -0.01303
C 7.41508 12.79818 -0.01378
C 7.39952 11.36877 0.02635
C 8.64081 10.68277 0.0127
C 8.65801 9.23572 0.01396
C 7.3657 8.57394 0.01849
C 7.31802 7.1196 -0.01142
C 8.56428 6.44759 -0.00562
C 8.54806 5.03576 -0.00494
C 7.3759 4.31526 0.00054
C 8.58774 15.01562 0.00848
C 7.34817 2.91726 0.03007
C 8.64935 0.71805 0.01572
C 7.33662 0.00156 -0.04848
C 9.81724 32.72539 -0.00892
C 11.07426 32.05517 -0.01362
C 11.09595 30.56547 -0.0008
C 9.83003 29.8876 0.0288
C 9.79625 28.50499 0.00393
C 11.07866 27.7914 0.00895
C 11.01176 26.34288 0.00685
C 9.78464 25.64776 0.02888
C 8.59886 2.17044 -0.00095
C 7.35332 15.65483 -0.00049
C 7.38776 17.11112 0.00873
C 8.64001 17.73134 0.01227
C 4.95017 8.56303 -0.03996
C 4.87705 7.11199 0.01465
C 6.13958 6.44108 -0.00074
C 6.04666 5.02696 -0.00518
C 4.80144 4.3169 0.0086
C 4.91183 2.90695 -0.00643
C 6.1203 2.17773 0.017
C 6.1253 0.80265 -0.03113
C 4.8578 0.00681 -0.02566
C 7.35778 32.71149 -0.00094
C 8.56499 32.00277 0.02322
C 8.56108 30.64562 -0.00725
C 7.35207 29.84748 -0.05697
C 7.35729 28.37876 0.01087
C 8.57026 27.77088 -0.01343
C 8.59048 26.31315 0.00988
C 7.41936 25.59035 0.0276
C 7.37686 24.16434 0.01305
C 8.59241 23.50299 -0.00077
C 8.57183 22.06023 0.03368
C 7.34114 21.26516 -0.02929
C 7.42958 19.86756 -0.00966
C 8.66826 19.21445 -0.03337
C 6.20651 10.65267 -0.00279
C 3.67375 31.9744 -0.00112
C 19.73402 29.80252 -0.00316
C 20.95401 27.63552 -0.01979
C 29.4561 11.38259 -0.02155
C 30.69089 10.66961 -0.00944
C 30.68443 9.23418 -0.03735
C 29.53537 8.54257 -0.00971
C 29.48312 7.10715 0.01518
C 30.69232 6.36385 0.01908
C 30.70967 4.9367 0.07705
C 29.50771 4.29203 0.0103
C 29.54663 2.79903 0.02108
C 30.73024 2.14271 0.00716
C 29.50916 12.81366 -0.01461
C 30.65978 0.69225 0.00307
C 31.94131 32.6143 0.01713
C 33.21918 31.91549 -0.01694
C 33.2314 30.50747 0.01428
C 31.98636 29.79909 -0.02142
C 31.98806 28.33589 0.0544
C 33.27259 27.61485 0.00026
C 33.20961 26.25991 0.00682
C 32.01229 25.5505 -0.01779
C 32.04534 24.02311 0.03794
C 33.24667 23.38114 0.01927
C 29.46699 0.04146 0.00346
C 33.23973 21.96145 0.01574
C 30.71516 13.4813 -0.01303
C 29.52159 15.69284 0.01705
C 28.30016 4.95379 0.00235
C 27.08206 4.34258 0.01495
C 27.03023 2.87122 0.01259
C 28.27901 2.12378 0.01799
C 28.19986 0.71539 0.01699
C 27.05373 34.01574 -0.00416
C 29.5132 32.63575 0.01177
C 30.7128 31.87137 0.04266
C 30.78056 30.50811 0.01324
C 29.51486 29.87448 0.0014
C 30.70371 14.9311 -0.0405
C 29.56506 28.46307 0.00924
C 30.76034 26.2223 0.00261
C 29.48814 25.53675 0.03265
C 29.53177 24.11545 -0.02049
C 30.73449 23.3549 -0.01854
C 30.71603 21.95199 -0.01415
C 29.40038 21.22244 -0.03039
C 29.42749 19.85607 0.01836
C 30.72454 19.12333 0.03531
C 30.75459 17.75945 -0.00669
C 29.48974 17.04078 0.0101
C 30.75515 27.64275 0.02326
C 31.92574 21.24826 -0.02383
C 31.90877 19.83345 -0.01429
C 33.17272 19.13934 -0.0136
C 1.20077 23.38154 0.00723
C 1.24461 21.97751 0.02712
C 0.02414 21.27287 -0.02213
C 34.36951 19.82159 0.01951
C 1.23666 19.16397 -0.01678
C 1.27503 17.78951 0.01223
C 0.05848 17.07355 0.00648
C 0.0051 15.65738 0.02114
C 1.27069 14.97657 -0.02957
C 1.2054 13.51741 0.00343
C 34.42008 24.13088 0.03076
C 34.43123 12.77508 -0.02656
C 1.13303 10.61245 -0.00027
C 1.20044 9.22385 -0.00583
C 34.42917 8.49919 -0.02302
C 34.34807 7.03355 -0.02849
C 1.13195 6.42483 0.02931
C 1.13824 4.9717 0.00628
C 34.39094 4.23484 -0.0345
C 0.04088 2.78602 -0.00931
C 1.25472 2.12603 -0.00939
C 1.22497 0.74702 -0.00468
C 34.41485 11.34176 -0.02442
C 0.00705 25.52061 -0.05239
C 1.24752 26.25789 -0.00598
C 1.30064 27.62992 -0.00439
C 33.18903 17.75405 0.00594
C 31.99398 17.00282 -0.02474
C 31.95572 15.5762 0.00369
C 33.2141 14.86173 0.00455
C 33.16856 13.45613 -0.00644
C 31.95919 12.75953 -0.01839
C 31.94412 11.36469 0.00137
C 33.16018 10.64584 0.00199
C 33.17637 9.27344 0.04381
C 31.98249 8.55525 0.02806
C 31.95748 7.14365 0.01504
C 33.13692 6.39342 -0.00069
C 33.07923 4.98576 0.04926
C 31.92526 4.2127 -0.03838
C 31.97134 2.81469 0.00349
C 33.20841 2.09795 -0.00323
C 33.09857 0.67207 -0.00841
C 31.84277 34.0501 0.0001
C 34.42051 32.64591 -0.02927
C 1.25942 31.88642 -0.01404
C 1.29661 30.47972 0.01027
C 0.0427 29.8136 0.01831
C 0.03452 28.37207 -0.01037
C 28.30945 6.39936 0.01094
C 27.03664 7.08658 0.02198
C 27.07452 8.45423 0.02611
C 28.29405 9.14504 -0.00621
C 22.24895 24.10488 0.0106
C 23.43569 23.32191 -0.01154
C 23.476 21.91207 -0.01721
C 22.21844 21.23895 -0.02422
C 22.12473 19.82128 0.01277
C 23.34141 19.14783 0.00096
C 23.27521 17.70736 -0.01527
C 22.04272 17.06282 0.01087
C 22.07659 15.62008 0.00199
C 23.3649 14.99254 0.01511
C 22.19296 25.4916 -0.01594
C 23.35612 13.53197 -0.00478
C 22.14699 11.35198 -0.01185
C 23.32901 10.68426 0.01126
C 23.34641 9.23672 0.01852
C 23.49773 6.38905 -0.00381
C 23.41826 5.04944 0.03046
C 22.07488 2.72275 0.0296
C 23.33877 2.25568 0.03374
C 23.33522 0.80821 -0.02845
C 22.07998 0.06717 -0.03213
C 24.54083 32.64739 0.02239
C 22.16366 12.78339 -0.01662
C 23.44387 26.32773 0.00742
C 23.3939 27.67117 -0.00311
C 22.11883 28.39552 0.00675
C 20.93038 26.19256 0.02691
C 19.75568 25.55936 -0.01581
C 19.69681 24.1094 0.01452
C 21.01452 23.48451 0.04892
C 20.90783 21.99611 -0.00111
C 19.78423 21.30321 -0.03557
C 19.69103 19.90898 0.03754
C 20.85831 19.1624 0.01739
C 20.83745 17.72686 0.00755
C 19.6048 16.99645 -0.0054
C 19.58773 15.61619 0.00667
C 20.82186 14.91016 0.00143
C 20.76739 13.49605 -0.017
C 19.50756 12.78612 0.00364
C 19.66645 11.41368 -0.00831
C 20.87849 10.82506 -0.02957
C 20.9444 2.09893 -0.04422
C 20.8571 0.73432 0.00654
C 19.66273 0.01439 -0.00703
C 22.14019 32.68791 -0.04076
C 23.36918 31.90237 -0.00652
C 23.40854 30.56027 0.0058
C 22.13199 29.83929 -0.00865
C 25.81449 32.01062 0.01153
C 19.72362 28.3836 0.02188
C 25.8172 30.54138 0.02734
C 24.6341 28.45469 0.01515
C 27.07023 32.68473 -0.01052
C 28.29369 31.98006 -0.01679
C 28.25845 30.52759 0.00367
C 27.10205 29.8176 0.04306
C 27.09077 28.45492 0.00996
C 28.33982 27.74625 0.00195
C 28.2452 26.29949 -0.00802
C 27.04714 25.54764 -0.00218
C 27.03218 24.14046 -0.01654
C 28.26042 23.41397 -0.00037
C 24.55969 0.03271 0.00684
C 28.2009 22.02938 -0.0032
C 26.99455 19.89902 -0.02815
C 28.17722 19.16412 -0.00942
C 28.23974 17.74272 0.00487
C 26.98346 16.99496 0.00826
C 26.99244 15.592 -0.00294
C 28.28984 14.9349 0.00152
C 28.22702 13.50141 0.01257
C 27.0708 12.77556 0.02316
C 27.02668 11.35773 0.04185
C 28.23223 10.59704 0.00194
C 26.98292 21.2431 0.00622
C 25.83566 0.67477 -0.01154
C 25.92234 2.10971 -0.0264
C 24.59036 2.8054 -0.00938
C 25.89202 27.70672 -0.00225
C 25.84578 26.31715 0.00071
C 24.65675 25.55293 -0.01107
C 24.6708 24.12056 -0.01586
C 25.81176 23.37041 -0.01971
C 25.82702 21.93275 -0.02118
C 24.5638 21.20563 0.00733
C 24.55927 19.85425 -0.00178
C 25.79944 19.13062 0.00768
C 25.77813 17.72418 -0.0276
C 24.58985 16.99884 0.03005
C 24.62167 15.63728 -0.04078
C 25.84677 14.89626 0.02117
C 25.79162 13.43368 0.02737
C 24.54939 12.7233 -0.00498
C 24.59836 11.28869 0.00135
C 25.84809 10.67413 0.03102
C 25.80719 9.17446 0.02555
C 24.54508 8.52833 0.01423
C 24.55734 7.19909 -0.00285
C 25.78156 6.3842 -0.009
C 25.76138 5.03628 -0.01199
C 24.57847 4.25539 -0.00229
C 24.67988 29.87992 -0.0055
C 2.44717 32.65621 0.01078
