400
Graphene
C 0.00626 0.01408 0.01295
C 13.52013 27.73881 0.00165
C 13.55182 26.23691 -0.02971
C 12.29439 25.58045 0.02894
C 12.31201 24.21354 -0.01789
C 13.50219 23.34488 0.00444
C 13.46147 21.85338 -0.00925
C 12.26398 21.28702 0.01877
C 12.38215 11.25837 0.01363
C 13.55854 10.40389 -0.02162
C 13.55137 9.02379 0.00415
C 12.31414 8.34563 -0.0014
C 12.31562 7.00997 0.02162
C 13.59208 6.42415 0.0076
C 13.64444 5.08202 0.01241
C 12.39805 4.2298 -0.01454
C 12.30782 2.87298 0.01945
C 13.49155 2.08304 0.01416
C 13.58156 0.60591 0.03542
C 12.29142 34.0451 0.02299
C 14.7753 32.68392 0.00244
C 15.94412 31.9396 -0.01717
C 12.32063 28.48092 0.02819
C 15.91048 30.52838 0.05265
C 12.24048 29.79572 -0.00891
C 13.47357 31.92736 -0.02689
C 11.05572 26.30966 0.02339
C 9.79642 25.62873 0.01641
C 9.86315 24.18915 -0.00719
C 11.10973 23.47967 0.01364
C 11.08258 22.09825 -0.01062
C 9.80463 21.40363 -0.00033
C 9.73468 19.99453 0.03589
C 9.77779 12.74585 -0.02759
C 9.85138 11.34799 0.0402
C 11.06436 10.63927 0.00572
C 11.13304 9.17641 0.03592
C 9.88627 8.52952 0.00406
C 9.85321 7.11011 0.00943
C 11.11651 6.42075 0.02841
C 11.07683 4.9243 -0.01111
C 9.83808 4.28202 -0.01275
C 9.92974 2.81752 0.00985
C 11.11729 2.12159 -0.02245
C 11.04506 0.71067 -0.00428
C 9.82254 0.09784 0.03101
C 12.21426 32.56239 -0.01536
C 13.46553 30.5048 -0.01046
C 11.10056 27.70641 -0.00334
C 14.677 29.90523 -0.01952
C 15.98355 27.65123 0.00374
C 18.29917 19.05815 -0.05302
C 18.52232 17.77119 0.00213
C 18.52087 15.06264 -0.00066
C 18.35048 13.65197 -0.00289
C 17.42126 12.59266 0.00028
C 17.13439 2.90173 -0.02213
C 18.42765 2.28366 0.03698
C 18.44821 0.73566 -0.00109
C 17.21806 0.02476 -0.00491
C 19.58318 32.64615 0.03338
C 20.89236 31.91895 -0.0258
C 20.86871 30.50643 -0.0331
C 19.63648 29.77514 -0.00316
C 19.67222 28.34478 0.02188
C 20.97334 27.66034 -0.01979
C 20.92918 26.30497 0.02691
C 19.67584 25.61604 -0.01581
C 19.70205 24.1687 0.01452
C 20.92456 23.51278 0.04892
C 20.90216 22.09622 -0.00111
C 19.64686 21.34621 -0.03557
C 17.24653 20.00834 -0.04147
C 14.73698 28.44627 -0.02813
C 17.26486 21.34082 -0.02815
C 18.43512 23.45522 0.01443
C 15.9435 26.20577 0.00052
C 14.75155 25.56656 -0.03682
C 14.77992 24.1394 0.01965
C 16.03319 23.48613 0.02058
C 15.97173 22.05295 -0.01957
C 14.81704 21.38339 -0.0108
C 14.40932 11.52385 -0.00368
C 14.71056 4.08839 -0.02696
C 14.73188 2.73071 -0.00114
C 16.06966 2.15909 0.00228
C 16.04104 0.70889 0.00798
C 14.80955 0.04218 0.00422
C 17.18518 32.63607 0.0351
C 18.39057 31.92233 -0.03113
C 18.42903 30.4325 0.02098
C 17.09789 29.77349 0.01848
C 17.22512 28.38321 -0.00619
C 18.40845 27.6986 -0.02162
C 18.38655 26.27882 0.00889
C 17.23973 25.52899 -0.00481
C 17.217 24.18902 0.00979
C 18.5011 22.05346 0.03505
C 19.62844 19.87692 0.03754
C 9.79936 28.37669 -0.01634
C 10.89127 30.57398 0.00093
C 2.40588 4.29497 0.00402
C 2.44976 2.87987 0.0073
C 3.72117 2.23599 0.0174
C 3.6301 0.79203 0.03828
C 2.41072 0.04862 0.01226
C 4.89418 32.66388 -0.00279
C 6.19567 31.98158 0.01996
C 6.08216 30.58677 -0.03996
C 4.91522 29.89416 0.01465
C 4.8815 28.4264 -0.00074
C 6.02756 27.6912 -0.00518
C 6.03369 26.3011 0.0086
C 4.85398 25.5746 -0.00643
C 4.92588 24.12176 0.017
C 6.11114 23.46369 -0.03113
C 6.1658 21.98082 -0.02566
C 4.99483 21.25491 -0.00094
C 4.86696 19.85837 0.02322
C 6.20084 19.16534 -0.00725
C 6.12163 17.77267 -0.05697
C 4.82995 17.01123 0.01087
C 3.62538 5.04179 0.02374
C 4.93223 15.66013 -0.01343
C 3.71636 6.40266 0.03267
C 2.40276 8.57528 0.00643
C 3.6409 30.51163 0.0064
C 2.36885 29.81014 0.00211
C 2.3716 28.43968 -0.00449
C 3.61132 27.74409 -0.01979
C 3.67941 26.36072 0.02784
C 2.46303 25.59158 -0.01977
C 2.4424 24.13229 -0.00561
C 3.68774 23.44481 0.00208
C 3.70304 21.94824 0.01707
C 2.45212 21.28134 0.02769
C 2.41861 19.84014 -0.03291
C 3.6491 19.21283 -0.04999
C 3.5909 17.80433 0.04505
C 2.35538 17.01244 0.03284
C 2.42421 15.63016 -0.04307
C 3.68732 14.98093 0.03189
C 3.66707 13.54217 0.00031
C 2.41544 12.75823 -0.003
C 2.47182 11.36764 0.01402
C 3.6516 10.72173 0.02379
C 3.62632 9.28109 0.00907
C 2.47623 7.14318 -0.01509
C 9.67432 29.86075 0.00057
C 6.16023 14.91891 0.00988
C 4.91794 12.81417 0.01305
C 8.82208 19.12958 -0.0008
C 8.50731 17.6807 0.0288
C 7.30628 17.01274 0.00393
C 7.33206 15.61542 0.00895
C 8.49122 15.02204 0.00685
C 8.6912 13.59021 0.02888
C 7.42139 12.81422 -0.00482
C 7.35175 11.40049 -0.01384
C 8.62513 10.71949 0.03693
C 8.6446 9.27652 0.01745
C 7.35655 8.60821 0.00488
C 7.41042 7.15734 -0.01004
C 8.72366 6.40348 -0.02896
C 8.60104 5.02646 -0.00131
C 7.35045 4.35822 -0.01118
C 7.3365 2.9884 -0.014
C 8.55834 2.21279 0.02147
C 8.61685 0.78657 0.00373
C 7.36502 0.0638 -0.00191
C 9.78702 32.73944 0.00438
C 11.00828 31.91854 0.01291
C 7.48174 19.82411 -0.01362
C 6.12589 13.53816 0.0276
C 7.4574 21.31871 -0.00892
C 8.63718 23.48362 0.01572
C 4.92447 11.39217 -0.00077
C 6.1249 10.74698 0.03368
C 6.16451 9.30218 -0.02929
C 4.93744 8.54056 -0.00966
C 4.91615 7.15382 -0.03337
C 6.14485 6.47796 0.01227
C 6.14243 5.05707 0.00873
C 4.87941 4.31599 -0.00049
C 4.88232 2.898 0.00848
C 6.12673 2.22401 -0.01303
C 6.06118 0.72346 -0.01378
C 4.88473 34.03982 0.02635
C 7.36077 32.76877 0.0127
C 8.54756 31.97989 0.01396
C 8.51871 30.55162 0.01849
C 7.29853 29.81434 -0.01142
C 7.28656 28.43932 -0.00562
C 8.55804 27.67556 -0.00494
C 8.61639 26.32304 0.00054
C 7.30681 25.5814 0.03007
C 7.3721 24.20056 -0.00095
C 8.63026 22.09852 -0.04848
C 20.9107 19.17702 0.01739
C 20.95225 17.78482 0.00755
C 19.74537 17.04865 -0.0054
C 29.42837 7.01169 0.01518
C 30.69338 6.38301 0.01908
C 30.66645 4.96937 0.07705
C 29.46353 4.18169 0.0103
C 29.56162 2.84376 0.02108
C 30.7663 2.06192 0.00716
C 30.75987 0.67508 0.00307
C 29.58075 34.04233 0.00346
C 32.04543 32.58375 0.01713
C 33.29917 31.91123 -0.01694
C 33.26474 30.51757 0.01428
C 32.02701 29.81653 -0.02142
C 31.96306 28.35121 0.0544
C 33.11525 27.61562 0.00026
C 33.22353 26.28382 0.00682
C 31.99991 25.538 -0.01779
C 31.97785 24.11319 0.03794
C 33.22734 23.37471 0.01927
C 33.18679 22.03955 0.01574
C 31.99516 21.32 -0.02383
C 31.9566 19.93689 -0.01429
C 29.47293 8.44725 -0.00971
C 33.24575 19.18361 -0.0136
C 30.65027 9.26031 -0.03735
C 29.50314 11.39602 -0.02155
C 27.11943 0.04509 -0.00416
C 29.50939 32.70633 0.01177
C 30.80398 31.93336 0.04266
C 30.77825 30.51708 0.01324
C 29.55451 29.76926 0.0014
C 29.50779 28.39565 0.00924
C 30.74965 27.60817 0.02326
C 30.71554 26.22258 0.00261
C 29.44656 25.61044 0.03265
C 29.42291 24.18197 -0.02049
C 30.71891 23.46161 -0.01854
C 30.69663 22.02624 -0.01415
C 29.43543 21.30848 -0.03039
C 29.49526 19.92671 0.01836
C 30.68992 19.21139 0.03531
C 30.73106 17.78516 -0.00669
C 29.46837 17.08085 0.0101
C 29.44928 15.63574 0.01705
C 30.66155 14.89574 -0.0405
C 30.67656 13.48894 -0.01303
C 29.48201 12.82677 -0.01461
C 30.66717 10.64655 -0.00944
C 28.34272 0.7102 0.01699
C 33.14266 17.75385 0.00594
C 31.94281 15.71729 0.00369
C 1.26636 22.03673 0.02712
C 0.01135 21.33533 -0.02213
C 0.00304 19.88739 0.01951
C 1.27553 19.15958 -0.01678
C 1.17913 17.68667 0.01223
C 34.36068 17.02996 0.00648
C 34.38257 15.61039 0.02114
C 1.21858 14.9646 -0.02957
C 1.1874 13.48588 0.00343
C 34.39674 12.73594 -0.02656
C 34.41295 11.35327 -0.02442
C 1.21307 10.64651 -0.00027
C 1.22129 9.22076 -0.00583
C 34.41367 8.45829 -0.02302
C 0.01286 7.05233 -0.02849
C 1.24546 6.46916 0.02931
C 1.14731 5.05242 0.00628
C 34.37204 4.29946 -0.0345
C 34.35679 2.92204 -0.00931
C 1.18224 2.2033 -0.00939
C 1.18503 0.80778 -0.00468
C 1.2715 23.44143 0.00723
C 31.93578 17.08507 -0.02474
C 34.433 24.08694 0.03076
C 1.21129 26.21837 -0.00598
C 33.1587 14.9289 0.00455
C 33.18241 13.4957 -0.00644
C 31.93715 12.78523 -0.01839
C 31.93408 11.31978 0.00137
C 33.15269 10.68762 0.00199
C 33.09355 9.24976 0.04381
C 31.90563 8.49413 0.02806
C 31.9278 7.06741 0.01504
C 33.1554 6.37231 -0.00069
C 33.11147 5.01224 0.04926
C 31.87202 4.20946 -0.03838
C 31.95656 2.80977 0.00349
C 33.21352 2.17061 -0.00323
C 33.23547 0.70421 -0.00841
C 32.01223 34.06763 0.0001
C 0.04448 32.68071 -0.02927
C 1.24672 31.93698 -0.01404
C 1.2296 30.51673 0.01027
C 34.41907 29.81014 0.01831
C 34.37042 28.39054 -0.01037
C 1.15897 27.6231 -0.00439
C 34.43284 25.51302 -0.05239
C 28.31439 2.14149 0.01799
C 27.10893 2.77996 0.01259
C 26.98506 4.20432 0.01495
C 23.39191 14.86011 0.00199
C 23.32355 13.45842 0.01511
C 22.11032 12.74881 -0.00478
C 22.20952 11.39637 -0.01662
C 23.25107 10.55624 -0.01185
C 23.3133 9.14282 0.01126
C 23.42396 6.4398 0.01852
C 23.1728 5.0188 -0.00381
C 22.17001 4.0933 0.03046
C 22.25397 2.74149 0.0296
C 23.4621 2.06736 0.03374
C 23.45651 0.64167 -0.02845
C 22.19979 0.00381 -0.03213
C 24.53223 32.6221 0.02239
C 25.88478 31.94168 0.01153
C 25.86683 30.50395 0.02734
C 24.58026 29.85135 -0.0055
C 24.57902 28.41794 0.01515
C 25.85821 27.67295 -0.00225
C 25.77061 26.2576 0.00071
C 24.51605 25.56471 -0.01107
C 22.17486 15.66204 0.01087
C 24.55022 24.12755 -0.01586
C 22.27048 17.13668 -0.01527
C 23.39609 19.25548 0.01277
C 19.69292 15.70652 0.00667
C 20.90824 14.97316 0.00143
C 20.88463 13.51672 -0.017
C 19.59824 12.99085 0.00364
C 19.76306 2.63496 -0.00831
C 21.01483 2.02708 -0.02957
C 20.91998 0.63275 -0.04422
C 19.68296 34.01515 0.00654
C 22.09378 32.66451 -0.00703
C 23.28953 31.91154 -0.04076
C 23.389 30.52702 -0.00652
C 22.11529 29.85896 0.0058
C 22.11715 28.43148 -0.00865
C 23.40395 27.67799 0.00675
C 23.34088 26.34243 -0.00311
C 22.12487 25.58181 0.00742
C 22.13274 24.20096 -0.01594
C 23.33438 23.4474 0.0106
C 23.39889 22.02649 -0.01154
C 22.05954 21.29523 -0.01721
C 22.12369 19.93819 -0.02422
C 23.34529 17.77567 0.00096
C 25.80902 23.39131 -0.01971
C 25.79165 22.00921 -0.02118
C 24.58375 21.33258 0.00733
C 28.2038 26.26364 -0.00802
C 27.01162 25.49714 -0.00218
C 27.03857 24.09467 -0.01654
C 28.23123 23.41982 -0.00037
C 28.15381 22.02193 -0.0032
C 27.01349 21.31392 0.00622
C 27.01164 19.83254 -0.02815
C 28.27089 19.1939 -0.00942
C 28.25243 17.77822 0.00487
C 27.03468 16.9846 0.00826
C 26.99976 15.57131 -0.00294
C 28.23033 14.90317 0.00152
C 28.27402 13.4956 0.01257
C 27.00753 12.7761 0.02316
C 27.04719 11.35373 0.04185
C 28.27632 10.63076 0.00194
C 28.28147 9.21004 -0.00621
C 26.99233 8.51953 0.02611
C 26.97889 7.13869 0.02198
C 28.18743 6.38951 0.01094
C 28.18892 4.94284 0.00235
C 28.23029 27.66355 0.00195
C 27.05971 28.40154 0.00996
C 27.12437 29.84075 0.04306
C 28.28913 30.48623 0.00367
C 24.60157 19.86768 -0.00178
C 25.76685 19.1292 0.00768
C 25.83364 17.74092 -0.0276
C 24.57957 16.98251 0.03005
C 24.55374 15.52787 -0.04078
C 25.79656 14.82444 0.02117
C 25.78987 13.403 0.02737
C 24.54066 12.67609 -0.00498
C 24.54942 11.27295 0.00135
C 25.83678 10.67507 0.03102
C 3.69574 31.93306 -0.00039
C 25.81371 9.24183 0.02555
C 24.49093 7.14569 -0.00285
C 25.80143 6.48536 -0.009
C 25.76646 5.05029 -0.01199
C 24.52032 4.24852 -0.00229
C 24.68403 2.78264 -0.00938
C 25.85669 2.11203 -0.0264
C 25.88743 0.73954 -0.01154
C 24.58578 33.9595 0.00684
C 27.05435 32.63691 -0.01052
C 28.30015 31.9397 -0.01679
C 24.51223 8.58018 0.01423
C 2.48249 32.69567 0.02728
