401
Graphene
C 0.00706 0.00243 0.01295
C 12.22412 29.82343 0.00165
C 12.29706 28.4175 -0.02971
C 13.56081 27.68479 0.02894
C 13.5177 26.29312 -0.01789
C 12.28579 25.59819 0.00444
C 12.25782 24.15526 -0.00925
C 13.48072 23.4103 0.01877
C 13.52554 22.02829 0.01363
C 12.26828 21.27646 -0.02162
C 12.22972 19.90461 0.00415
C 13.5231 19.15441 -0.0014
C 13.54663 17.68897 0.02162
C 12.24029 17.08484 0.0076
C 12.30711 15.65108 0.01241
C 13.56349 14.81305 -0.01454
C 13.58318 13.47849 0.01945
C 12.39975 12.64911 0.01416
C 13.34043 0.79119 0.03542
C 12.27485 34.02149 0.02299
C 14.61456 32.66866 0.00244
C 15.85901 31.99249 -0.01717
C 13.46544 30.51144 0.02819
C 15.97627 30.54987 0.05265
C 13.44646 31.92452 -0.00891
C 9.77306 0.07123 -0.02689
C 9.8419 25.6264 0.02339
C 9.83128 24.20365 0.01641
C 11.06995 23.44818 -0.00719
C 11.04024 22.05729 0.01364
C 9.87967 21.31156 -0.01062
C 9.85275 19.84293 -0.00033
C 11.05353 19.16557 0.03589
C 11.01084 17.69841 -0.02759
C 9.83862 17.01945 0.0402
C 9.85083 15.55958 0.00572
C 11.09675 14.88384 0.03592
C 11.17654 13.36421 0.00406
C 9.87133 12.74778 0.00943
C 9.91054 11.39027 0.02841
C 11.26199 10.71062 -0.01111
C 9.76351 8.55897 -0.01275
C 9.71154 7.22804 0.00985
C 9.8703 4.3603 -0.02245
C 10.09589 3.02948 -0.00428
C 11.22024 2.21666 0.03101
C 10.96982 0.75604 -0.01536
C 12.15832 32.62795 -0.01046
C 11.06987 26.29702 -0.00334
C 14.70228 29.87197 -0.01952
C 15.96701 27.67238 0.00374
C 18.43558 22.08191 -0.05302
C 17.18813 21.32844 0.00213
C 17.24072 19.94593 -0.00066
C 18.47179 19.23485 -0.00289
C 18.49477 17.78114 0.00028
C 17.235 17.03663 -0.02213
C 17.24421 15.6355 0.03698
C 18.49218 14.94519 -0.00109
C 18.54555 13.58809 -0.00491
C 18.46643 0.5966 0.03338
C 17.1688 0.05835 -0.0258
C 19.67182 32.65216 -0.0331
C 20.8632 31.92624 -0.00316
C 20.94984 30.47843 0.02188
C 19.69983 29.79978 -0.01979
C 19.66446 28.39173 0.02691
C 20.91096 27.72733 -0.01581
C 20.87662 26.32083 0.01452
C 19.67405 25.57581 0.04892
C 19.64086 24.17979 -0.00111
C 20.93519 23.51138 -0.03557
C 18.40658 23.46169 -0.04147
C 14.74449 28.49776 -0.02813
C 17.19029 24.17055 -0.02815
C 18.46398 26.35072 0.01443
C 15.95088 26.24739 0.00052
C 14.76432 25.55457 -0.03682
C 14.7401 24.10647 0.01965
C 15.96853 23.41207 0.02058
C 15.94898 22.05733 -0.01957
C 14.72244 21.30887 -0.0108
C 14.7376 19.86896 -0.00368
C 16.01765 19.21075 -0.02696
C 16.0162 17.76824 -0.00114
C 14.80142 17.03083 0.00228
C 14.84863 15.51297 0.00798
C 16.02271 14.87218 0.00422
C 15.76119 13.41944 0.0351
C 15.9294 0.47348 -0.03113
C 14.61747 0.01235 0.02098
C 17.09929 32.67857 0.01848
C 18.40472 32.00585 -0.00619
C 18.36312 30.54899 -0.02162
C 17.15722 29.80463 0.00889
C 17.14767 28.41638 -0.00481
C 18.40461 27.71189 0.00979
C 17.18428 25.561 0.03505
C 11.04318 27.73073 -0.01634
C 9.75417 28.50979 0.00057
C 9.7889 29.92172 0.00093
C 2.3976 4.31774 0.02374
C 2.42471 2.89302 0.00402
C 3.61746 2.18998 0.0073
C 3.63252 0.75663 0.0174
C 2.41683 0.02231 0.03828
C 4.89496 32.60118 0.01226
C 6.10299 32.06711 -0.00279
C 6.1489 30.57178 0.01996
C 4.91842 29.82637 -0.03996
C 4.86561 28.40812 0.01465
C 6.03796 27.69429 -0.00074
C 6.02362 26.28113 -0.00518
C 4.88464 25.59045 0.0086
C 4.9678 24.18439 -0.00643
C 6.15931 23.45542 0.017
C 6.20618 21.98788 -0.03113
C 4.93894 21.23715 -0.02566
C 4.86645 19.84489 -0.00094
C 6.12884 19.2041 0.02322
C 6.09002 17.68839 -0.00725
C 4.82759 17.04853 -0.05697
C 3.63359 5.00365 0.03267
C 4.90259 15.64808 0.01087
C 3.65988 6.4532 -0.01509
C 2.41219 8.57065 0.00907
C 3.60562 30.54686 -0.00039
C 2.40393 29.85752 0.0064
C 2.37416 28.39228 0.00211
C 3.66853 27.73888 -0.00449
C 3.66319 26.30153 -0.01979
C 2.45349 25.58665 0.02784
C 2.48428 24.18273 -0.01977
C 3.73974 23.40595 -0.00561
C 3.73684 22.00373 0.00208
C 2.47268 21.21946 0.01707
C 2.36569 19.8301 0.02769
C 3.63604 19.18623 -0.03291
C 3.63394 17.77225 -0.04999
C 2.37848 17.12107 0.04505
C 2.40439 15.65935 0.03284
C 3.62287 14.93096 -0.04307
C 3.63726 13.49117 0.03189
C 2.41407 12.77744 0.00031
C 2.41383 11.40838 -0.003
C 3.60551 10.69189 0.01402
C 3.59288 9.29667 0.02379
C 2.47945 7.16458 0.00643
C 6.12438 14.88158 -0.01343
C 6.17657 13.51293 0.00988
C 4.90641 12.77304 0.0276
C 8.58192 17.70841 -0.0008
C 7.34177 16.97383 0.0288
C 7.39886 15.55239 0.00393
C 8.652 14.88122 0.00895
C 8.65253 13.48309 0.00685
C 7.42176 12.73073 0.02888
C 7.35643 11.32762 -0.00482
C 8.62727 10.65776 -0.01384
C 8.62579 9.29237 0.03693
C 7.40438 8.56165 0.01745
C 7.34506 7.16998 0.00488
C 8.52595 6.32733 -0.01004
C 8.55086 4.9737 -0.02896
C 7.34389 4.30306 -0.00131
C 7.4515 2.91975 -0.01118
C 8.77223 2.31802 -0.014
C 8.64557 0.87769 0.02147
C 7.38982 0.17084 0.00373
C 9.72198 32.76377 -0.00191
C 10.94095 31.9423 0.00438
C 10.93722 30.58174 0.01291
C 8.63028 19.13525 -0.01362
C 7.46469 19.89747 -0.00892
C 7.42288 21.32062 -0.04848
C 8.62653 22.09663 0.01572
C 4.87044 11.33631 0.01305
C 6.12061 10.67729 -0.00077
C 6.17055 9.27424 0.03368
C 4.92808 8.59189 -0.02929
C 4.94834 7.16831 -0.00966
C 6.1278 6.44984 -0.03337
C 6.07846 5.0552 0.01227
C 4.87774 4.33953 0.00873
C 4.84192 2.93317 -0.00049
C 6.11353 2.22277 0.00848
C 20.87506 22.11061 0.03754
C 6.14564 0.81729 -0.01303
C 7.39908 32.75204 0.02635
C 8.55027 32.06382 0.0127
C 8.52945 30.61239 0.01396
C 7.34849 29.87657 0.01849
C 7.28083 28.42165 -0.01142
C 8.51839 27.73986 -0.00562
C 8.58331 26.26925 -0.00494
C 7.34094 25.6471 0.00054
C 7.36749 24.19708 0.03007
C 8.6299 23.45856 -0.00095
C 4.87479 0.07846 -0.01378
C 3.65577 31.9722 0.02728
C 19.70021 21.30278 0.01739
C 20.91268 19.23604 -0.0054
C 29.4479 7.10536 0.01518
C 30.66835 6.39496 0.01908
C 30.68956 4.97295 0.07705
C 29.45869 4.26087 0.0103
C 29.47513 2.89092 0.02108
C 30.72315 2.13662 0.00716
C 30.80837 0.7123 0.00307
C 29.55752 0.03304 0.00346
C 32.02668 32.64243 0.01713
C 33.26943 31.95122 -0.01694
C 33.2721 30.50394 0.01428
C 32.02551 29.75918 -0.02142
C 31.95942 28.34399 0.0544
C 33.14784 27.64193 0.00026
C 33.17439 26.22444 0.00682
C 31.97034 25.5062 -0.01779
C 31.96413 24.13147 0.03794
C 33.22731 23.37018 0.01927
C 33.16592 21.9856 0.01574
C 31.96787 21.2783 -0.02383
C 31.91188 19.8647 -0.01429
C 29.45691 8.54561 -0.00971
C 33.17032 19.13525 -0.0136
C 30.74387 9.30425 -0.03735
C 29.4958 11.35341 -0.02155
C 27.05482 0.03223 -0.00416
C 29.51654 32.71444 0.01177
C 30.80394 31.96886 0.04266
C 30.83599 30.54637 0.01324
C 29.572 29.80454 0.0014
C 29.5058 28.38864 0.00924
C 30.71989 27.64105 0.02326
C 30.73602 26.29229 0.00261
C 29.51264 25.59627 0.03265
C 29.46157 24.1429 -0.02049
C 30.70355 23.40186 -0.01854
C 30.65481 22.00031 -0.01415
C 29.4699 21.31523 -0.03039
C 29.40933 19.8857 0.01836
C 30.62751 19.17552 0.03531
C 30.67166 17.74412 -0.00669
C 29.41492 17.04193 0.0101
C 29.405 15.6148 0.01705
C 30.67055 14.9137 -0.0405
C 30.73946 13.46004 -0.01303
C 29.49403 12.86056 -0.01461
C 30.74374 10.65273 -0.00944
C 28.32371 0.75543 0.01699
C 33.07995 17.67281 0.00594
C 31.87188 15.56284 0.00369
C 1.26496 21.97667 0.02712
C 34.42296 21.26346 -0.02213
C 34.38587 19.83204 0.01951
C 1.16659 19.13909 -0.01678
C 1.13475 17.73266 0.01223
C 34.3773 17.03071 0.00648
C 34.42331 15.60963 0.02114
C 1.2053 14.88834 -0.02957
C 1.17826 13.47348 0.00343
C 34.36065 12.79255 -0.02656
C 34.41249 11.42085 -0.02442
C 1.2196 10.6755 -0.00027
C 1.16944 9.20012 -0.00583
C 34.38709 8.50583 -0.02302
C 34.39267 7.11602 -0.02849
C 1.20288 6.46472 0.02931
C 1.17267 5.0886 0.00628
C 34.38057 4.30871 -0.0345
C 34.40171 2.92039 -0.00931
C 1.19708 2.20412 -0.00939
C 1.22374 0.71942 -0.00468
C 1.30494 23.38986 0.00723
C 31.87822 17.03722 -0.02474
C 0.00805 24.05973 0.03076
C 1.22351 26.20486 -0.00598
C 33.16906 14.92388 0.00455
C 33.17879 13.49118 -0.00644
C 31.95007 12.80305 -0.01839
C 31.92501 11.31799 0.00137
C 33.17167 10.67795 0.00199
C 33.17371 9.22709 0.04381
C 31.98519 8.504 0.02806
C 31.87709 7.12796 0.01504
C 33.14401 6.41244 -0.00069
C 33.12002 5.01718 0.04926
C 31.91044 4.23994 -0.03838
C 31.93363 2.84599 0.00349
C 33.18539 2.18743 -0.00323
C 33.22707 0.72613 -0.00841
C 32.03337 0.01608 0.0001
C 0.06815 32.61033 -0.02927
C 1.25804 31.9358 -0.01404
C 1.19545 30.48872 0.01027
C 34.41987 29.75093 0.01831
C 34.37173 28.37364 -0.01037
C 1.2102 27.62028 -0.00439
C 34.42313 25.48848 -0.05239
C 28.31138 2.13373 0.01799
C 27.09812 2.85105 0.01259
C 27.00787 4.26945 0.01495
C 22.15396 15.59579 0.00199
C 23.38073 14.87087 0.01511
C 23.36732 13.40481 -0.00478
C 22.12233 12.68362 -0.01662
C 21.9929 11.32801 -0.01185
C 23.03908 10.48532 0.01126
C 23.48182 9.28217 0.01852
C 23.42009 6.20262 -0.00381
C 23.44057 4.89165 0.03046
C 22.13357 2.67749 0.0296
C 23.43909 2.08903 0.03374
C 23.40136 0.69691 -0.02845
C 22.12142 0.08671 -0.03213
C 24.58198 32.6265 0.02239
C 25.89971 31.99898 0.01153
C 25.87906 30.55523 0.02734
C 24.67916 29.88056 -0.0055
C 24.62638 28.40736 0.01515
C 25.86592 27.67702 -0.00225
C 25.8207 26.24461 0.00071
C 24.53794 25.55641 -0.01107
C 22.14898 17.03812 0.01087
C 24.59476 24.15259 -0.01586
C 23.36341 17.7414 -0.01527
C 22.13053 19.88675 0.01277
C 20.90872 17.8279 0.00667
C 19.71453 17.06394 0.00143
C 19.71367 15.62359 -0.017
C 20.93848 14.91188 0.00364
C 20.93595 13.43087 -0.00831
C 19.64947 12.88914 -0.02957
C 20.95788 2.14718 -0.04422
C 20.86007 0.81339 0.00654
C 19.65426 34.03485 -0.00703
C 22.08963 32.69316 -0.04076
C 23.36717 31.93876 -0.00652
C 23.41828 30.4896 0.0058
C 22.19576 29.79443 -0.00865
C 22.13285 28.37819 0.00675
C 23.32642 27.68213 -0.00311
C 23.28914 26.26909 0.00742
C 22.11442 25.61059 -0.01594
C 22.1057 24.25041 0.0106
C 23.37466 23.50772 -0.01154
C 23.34827 21.98586 -0.01721
C 22.12147 21.3616 -0.02422
C 23.32082 19.15418 0.00096
C 25.76974 23.4237 -0.01971
C 25.82619 22.01888 -0.02118
C 24.58468 21.3337 0.00733
C 28.24611 26.23938 -0.00802
C 27.04125 25.47025 -0.00218
C 26.96552 24.07051 -0.01654
C 28.24537 23.42152 -0.00037
C 28.23999 22.05634 -0.0032
C 27.00531 21.2793 0.00622
C 26.96659 19.86578 -0.02815
C 28.20404 19.18681 -0.00942
C 28.25115 17.78825 0.00487
C 27.03638 16.98588 0.00826
C 27.03439 15.58877 -0.00294
C 28.23911 14.90927 0.00152
C 28.28427 13.53487 0.01257
C 27.01247 12.82206 0.02316
C 27.02251 11.38646 0.04185
C 28.24409 10.62732 0.00194
C 28.25015 9.23881 -0.00621
C 27.0513 8.51885 0.02611
C 27.01324 7.12392 0.02198
C 28.23359 6.3581 0.01094
C 28.25838 4.96519 0.00235
C 28.2999 27.65347 0.00195
C 27.11089 28.3717 0.00996
C 27.1415 29.85198 0.04306
C 28.37123 30.51401 0.00367
C 24.59487 19.87002 -0.00178
C 25.73688 19.11222 0.00768
C 25.78742 17.74481 -0.0276
C 24.60187 16.99469 0.03005
C 24.62548 15.52956 -0.04078
C 25.83399 14.85963 0.02117
C 25.7658 13.39689 0.02737
C 24.54153 12.63248 -0.00498
C 24.42298 11.18687 0.00135
C 25.76146 10.56759 0.03102
C 19.67662 19.93136 0.00755
C 25.82196 9.16827 0.02555
C 24.52441 7.10962 -0.00285
C 25.74637 6.43638 -0.009
C 25.78163 4.94776 -0.01199
C 24.56227 4.14525 -0.00229
C 24.6745 2.74092 -0.00938
C 25.83862 2.08402 -0.0264
C 25.83764 0.68014 -0.01154
C 24.56492 33.97503 0.00684
C 27.10117 32.67278 -0.01052
C 28.3648 31.93967 -0.01679
C 24.60609 8.53248 0.01423
C 2.42974 32.66673 0.00245
