436
Graphene
C 0.00357 34.031 0.01295
C 13.44663 22.08271 0.02339
C 12.28758 21.31772 0.01641
C 12.2541 19.92058 -0.00719
C 13.50746 19.17235 0.01364
C 13.46402 17.72183 -0.01062
C 12.23062 17.08343 -0.00033
C 12.26011 15.6718 0.03589
C 13.50952 14.92412 -0.02759
C 13.53351 13.49397 0.0402
C 12.28301 12.90585 0.00572
C 12.32983 11.45924 0.03592
C 13.5324 10.67122 0.00406
C 13.49284 9.16869 0.00943
C 12.27255 8.46962 0.02841
C 12.26074 7.05439 -0.01111
C 13.5082 6.42465 -0.01275
C 13.52819 5.04382 0.00985
C 12.28766 4.3457 -0.02245
C 12.19707 2.94417 -0.00428
C 13.54344 2.17354 0.03101
C 13.46363 0.6891 -0.01536
C 12.19981 0.02803 -0.02689
C 14.68036 32.59569 -0.01046
C 13.53697 23.47236 -0.00334
C 15.91497 31.9786 -0.00891
C 12.24335 24.17625 -0.01634
C 13.5154 26.39342 0.00093
C 9.70834 17.08928 -0.00892
C 9.90827 15.67887 -0.01362
C 11.03276 14.86154 -0.0008
C 11.0552 13.52071 0.0288
C 9.87639 12.77962 0.00393
C 9.80065 11.38747 0.00895
C 11.13386 10.64675 0.00685
C 11.05971 9.22311 0.02888
C 9.77192 8.58919 -0.00482
C 9.83185 7.15995 -0.01384
C 10.96852 6.43394 0.03693
C 10.99346 5.03174 0.01745
C 9.81912 4.24556 0.00488
C 9.76892 2.92242 -0.01004
C 11.00667 2.19498 -0.02896
C 10.9448 0.76268 -0.00131
C 9.71169 34.07745 -0.01118
C 12.28834 32.65794 -0.014
C 13.46565 31.94121 0.02147
C 13.54013 30.52419 0.00373
C 12.26987 29.88981 -0.00191
C 12.26482 28.5221 0.00438
C 13.49715 27.77507 0.01291
C 12.28471 25.67408 0.00057
C 15.92068 30.56509 0.02819
C 14.72568 29.78181 0.00165
C 14.73371 28.35341 -0.02971
C 18.39926 31.94003 -0.0108
C 18.34211 30.51188 -0.00368
C 17.14548 29.87284 -0.02696
C 17.14514 28.38967 -0.00114
C 18.41852 27.68018 0.00228
C 18.42697 26.2721 0.00798
C 17.20389 25.55711 0.00422
C 17.21054 24.19452 0.0351
C 18.47056 23.42901 -0.03113
C 18.31039 22.0189 0.02098
C 17.16108 21.28715 0.01848
C 17.18899 19.88562 -0.00619
C 18.4726 19.16692 -0.02162
C 18.45702 17.74531 0.00889
C 17.17474 17.06944 -0.00481
C 17.11475 15.62426 0.00979
C 18.30078 14.9237 0.01443
C 18.41208 13.5031 0.03505
C 17.17076 12.80993 -0.02815
C 17.20825 11.31104 -0.04147
C 18.44671 10.61595 -0.05302
C 18.4967 9.23576 0.00213
C 17.25089 8.57663 -0.00066
C 17.23975 32.73328 -0.01957
C 14.70439 0.01662 0.02058
C 15.91622 0.7133 0.01965
C 15.95622 2.15235 -0.03682
C 15.95231 27.67757 0.02894
C 15.95711 26.26887 -0.01789
C 14.7437 25.6536 0.00444
C 14.75881 24.24803 -0.00925
C 15.95333 23.42466 0.01877
C 15.91226 22.01973 0.01363
C 14.71285 21.30371 -0.02162
C 14.71998 19.90048 0.00415
C 15.94728 19.18969 -0.0014
C 15.89861 17.81508 0.02162
C 14.77421 17.08529 0.0076
C 11.00642 17.76793 -0.04848
C 14.75793 15.6177 0.01241
C 15.98083 13.43432 0.01945
C 14.76302 12.78787 0.01416
C 14.77342 11.40125 0.03542
C 15.90504 10.66514 0.02299
C 15.93308 9.16194 0.00244
C 14.69176 8.51342 -0.01717
C 14.71122 7.07965 0.05265
C 15.94908 6.3719 -0.01952
C 15.95529 4.96179 -0.02813
C 14.76311 4.25658 0.00374
C 14.7526 2.805 0.00052
C 15.92623 14.9106 -0.01454
C 17.19521 7.01892 -0.00289
C 11.0612 19.14594 0.01572
C 9.86889 21.35558 0.03007
C 3.74209 2.06575 -0.02375
C 3.72549 0.67187 0.00558
C 2.47163 34.04051 -0.0059
C 4.92538 32.69371 -0.01386
C 6.16422 31.89656 -0.02805
C 6.17502 30.54031 0.00081
C 4.93306 29.81528 0.00245
C 4.93417 28.41187 0.02728
C 6.16224 27.74568 -0.00039
C 6.14994 26.32512 0.0064
C 4.9122 25.57664 0.00211
C 4.93228 24.05556 -0.00449
C 6.17022 23.38482 -0.01979
C 6.10828 22.00369 0.02784
C 4.86047 21.32633 -0.01977
C 4.81666 19.98349 -0.00561
C 6.13294 19.25148 0.00208
C 6.03427 17.78785 0.01707
C 4.78482 17.08636 0.02769
C 4.79051 15.64124 -0.03291
C 6.07448 14.97676 -0.04999
C 6.05097 13.56482 0.04505
C 4.78509 12.83864 0.03284
C 2.4656 2.86822 0.00828
C 4.84758 11.48267 -0.04307
C 2.41567 4.26403 0.00088
C 3.71957 6.44558 -0.00177
C 3.7613 30.55718 0.01984
C 2.49452 29.86613 0.00535
C 2.47156 28.40938 -0.00198
C 3.64907 27.58628 -0.00012
C 3.67354 26.22273 -0.04306
C 2.50538 25.53244 -0.03672
C 2.47089 24.06912 0.01913
C 3.69126 23.39063 0.00267
C 3.53555 21.96876 0.00787
C 2.34566 21.32838 0.02426
C 2.30109 19.83908 0.01218
C 3.63165 19.28639 -0.01471
C 3.57068 17.77788 -0.02827
C 2.34004 17.08711 0.01078
C 2.32484 15.60242 -0.00112
C 3.57897 14.93487 0.03345
C 3.51871 13.50823 0.00748
C 2.31474 12.74622 0.00662
C 2.38892 11.36229 -0.0154
C 3.66427 10.67444 -0.01299
C 3.6518 9.28983 -0.00407
C 2.41174 8.56144 0.01138
C 2.45668 7.10036 0.03278
C 3.64892 5.02254 0.04421
C 6.15618 10.803 0.03189
C 6.18532 9.36193 0.00031
C 4.94556 8.6029 -0.003
C 7.35759 11.52122 -0.01343
C 8.5608 10.69579 0.00988
C 8.6088 9.33041 0.0276
C 7.40301 8.62747 0.01305
C 7.39285 7.15603 -0.00077
C 8.60601 6.42081 0.03368
C 8.58699 5.00976 -0.02929
C 7.37321 4.37607 -0.00966
C 7.30123 2.93935 -0.03337
C 8.52826 2.21641 0.01227
C 8.52185 0.74847 0.00873
C 7.33006 0.0612 -0.00049
C 9.78502 32.66485 0.00848
C 10.96502 32.02979 -0.01303
C 11.06563 30.64261 -0.01378
C 9.84132 29.83967 0.02635
C 9.79583 28.47385 0.0127
C 11.01726 27.73762 0.01396
C 11.07333 26.2819 0.01849
C 9.85447 25.56958 -0.01142
C 9.8119 24.10461 -0.00562
C 11.05707 23.47175 -0.00494
C 11.06503 22.03426 0.00054
C 7.37017 12.8632 0.01087
C 8.63958 13.58088 -0.05697
C 8.62486 15.05332 -0.00725
C 7.36073 15.71039 0.02322
C 4.94595 7.19144 0.01402
C 6.15429 6.52456 0.02379
C 6.10854 5.02575 0.00907
C 4.90285 4.32593 0.00643
C 4.89929 2.88772 -0.01509
C 6.09554 2.21498 0.03267
C 6.12069 0.74226 0.02374
C 4.96143 34.0406 0.00402
C 7.28549 32.71802 0.0073
C 8.53061 31.91835 0.0174
C 8.55423 30.57675 0.03828
C 9.85763 19.95114 -0.00095
C 7.37436 29.84335 0.01226
C 8.59032 27.74283 0.01996
C 8.54149 26.34327 -0.03996
C 7.38885 25.59799 0.01465
C 7.30131 24.1502 -0.00074
C 8.56717 23.40987 -0.00518
C 8.59481 22.02533 0.0086
C 7.40728 21.29158 -0.00643
C 7.39806 19.88898 0.017
C 8.56906 19.24481 -0.03113
C 8.52815 17.79531 -0.02566
C 7.30434 17.10412 -0.00094
C 7.34876 28.52069 -0.00279
C 18.42072 6.43398 0.00028
C 18.37508 5.03239 -0.02213
C 17.2001 4.26217 0.03698
C 30.69466 22.01803 -0.0405
C 29.51552 21.30525 -0.01303
C 29.38809 19.90541 -0.01461
C 30.59626 19.13989 -0.02155
C 30.65385 17.65827 -0.00944
C 29.44655 16.83288 -0.03735
C 29.41907 15.34915 -0.00971
C 30.68264 14.67403 0.01518
C 29.60759 7.05582 0.01908
C 30.72069 6.23206 0.07705
C 30.8005 4.84543 0.0103
C 29.51662 4.09601 0.02108
C 29.52572 2.75306 0.00716
C 30.71862 2.09455 0.00307
C 30.67442 0.71495 0.00346
C 29.53449 33.98266 0.01713
C 31.97826 32.63143 -0.01694
C 33.22841 31.91201 0.01428
C 33.2069 30.53963 -0.02142
C 31.89496 29.78275 0.0544
C 31.96669 28.42415 0.00026
C 33.17582 27.66633 0.00682
C 33.2127 26.26755 -0.01779
C 30.72638 23.47139 0.01705
C 31.95028 25.55459 0.03794
C 29.50545 24.1702 0.0101
C 30.71145 26.30242 0.03531
C 28.28812 22.04689 -0.00621
C 27.08439 21.24179 0.02611
C 26.98834 19.83562 0.02198
C 28.19545 19.0971 0.01094
C 28.21392 17.60345 0.00235
C 26.96202 16.98648 0.01495
C 27.00584 15.57194 0.01259
C 28.04144 14.74864 0.01799
C 27.09541 8.50917 0.01699
C 27.07192 7.09372 -0.00416
C 28.35821 6.39976 0.01177
C 28.27581 4.85062 0.04266
C 27.00479 4.19958 0.01324
C 27.09212 2.75496 0.0014
C 28.24103 2.05719 0.00924
C 28.22408 0.67143 0.02326
C 27.03689 34.02663 0.00261
C 29.52338 32.59137 0.03265
C 30.79649 31.94449 -0.02049
C 30.674 30.50058 -0.01854
C 29.41149 29.89731 -0.01415
C 29.46613 28.48347 -0.03039
C 30.75078 27.7106 0.01836
C 29.50359 25.59845 -0.00669
C 31.92054 24.1465 0.01927
C 33.15448 23.483 0.01574
C 33.18276 22.01486 -0.02383
C 34.40304 24.14126 0.03076
C 1.18378 23.44263 0.00723
C 1.1462 22.03032 0.02712
C 34.40519 21.26878 -0.02213
C 34.38786 19.84719 0.01951
C 1.10615 19.14021 -0.01678
C 1.05102 17.69915 0.01223
C 34.23267 16.99679 0.00648
C 34.25572 15.55449 0.02114
C 1.09639 14.87991 -0.02957
C 1.07062 13.47611 0.00343
C 34.32983 12.75098 -0.02656
C 34.36999 11.32834 -0.02442
C 1.19142 10.59523 -0.00027
C 1.15864 9.2781 -0.00583
C 34.2382 8.61302 -0.02302
C 34.378 7.12358 -0.02849
C 1.20626 6.38694 0.02931
C 1.20817 4.9748 0.00628
C 34.41004 4.15628 -0.0345
C 0.06406 2.75232 -0.00931
C 1.23504 2.1101 -0.00939
C 1.18875 0.72141 -0.00468
C 0.00445 25.57013 -0.05239
C 1.28066 26.26504 -0.00598
C 1.20331 27.75439 -0.00439
C 0.02888 28.42494 -0.01037
C 31.99793 21.28039 -0.01429
C 31.8597 19.90485 -0.0136
C 33.09233 19.27207 0.00594
C 33.07945 17.71106 -0.02474
C 31.823 16.99785 0.00369
C 31.83748 15.46786 0.00455
C 33.1212 14.79565 -0.00644
C 33.04314 13.33569 -0.01839
C 32.03933 12.42475 0.00137
C 33.09159 10.73394 0.00199
C 32.88752 9.30038 0.04381
C 28.25605 23.48205 0.00194
C 31.87497 8.35794 0.02806
C 33.18084 6.30106 -0.00069
C 33.17643 4.8476 0.04926
C 31.99097 4.14526 -0.03838
C 31.95999 2.69807 0.00349
C 33.26056 2.04184 -0.00323
C 33.20602 0.62364 -0.00841
C 31.96901 34.05021 0.0001
C 0.03538 32.63749 -0.02927
C 1.26122 31.88902 -0.01404
C 1.2557 30.54149 0.01027
C 34.42844 29.85053 0.01831
C 31.93501 6.97053 0.01504
C 27.0527 24.15723 0.04185
C 27.02853 25.61465 0.02316
C 28.27017 26.26425 0.01257
C 19.61147 7.13203 -0.00652
C 20.85634 6.44748 0.0058
C 20.82152 5.09032 -0.00865
C 19.64819 4.32085 0.00675
C 19.68539 2.92804 -0.00311
C 20.93663 2.19238 0.00742
C 20.83656 0.78699 -0.01594
C 19.60132 0.03933 0.0106
C 22.09056 32.62221 -0.01154
C 23.32308 31.96972 -0.01721
C 23.33504 30.57548 -0.02422
C 22.09816 29.85097 0.01277
C 22.11554 28.43011 0.00096
C 23.3975 27.65017 -0.01527
C 23.33858 26.2734 0.01087
C 22.09778 25.57234 0.00199
C 22.19076 24.14699 0.01511
C 23.35029 23.42543 -0.00478
C 23.37186 22.01908 -0.01662
C 22.03049 21.16141 -0.01185
C 22.11265 19.83033 0.01126
C 23.33362 19.17692 0.01852
C 23.37309 17.79848 -0.00381
C 19.6744 8.50868 -0.04076
C 20.95002 9.22206 -0.00703
C 20.82115 10.65973 0.00654
C 19.63288 11.4008 -0.04422
C 17.13628 2.90196 -0.00109
C 18.49172 2.1954 -0.00491
C 18.418 0.77447 0.03338
C 17.26557 0.04738 -0.0258
C 19.62315 32.68783 -0.0331
C 20.85987 31.95882 -0.00316
C 20.8081 30.5499 0.02188
C 19.55334 29.87821 -0.01979
C 19.59021 28.40078 0.02691
C 20.81579 27.73391 -0.01581
C 20.88708 26.25744 0.01452
C 22.0953 17.08948 0.03046
C 19.66061 25.56041 0.04892
C 20.88011 23.40653 -0.03557
C 20.89669 22.00605 0.03754
C 19.56595 21.34917 0.01739
C 19.66977 19.93732 0.00755
C 20.84869 19.22084 -0.0054
C 20.86757 17.75993 0.00667
C 19.62189 17.0417 0.00143
C 19.60179 15.57333 -0.017
C 20.84564 14.9107 0.00364
C 20.85685 13.55579 -0.00831
C 19.67657 12.84686 -0.02957
C 19.67975 24.10216 -0.00111
C 3.7569 31.95051 0.01073
C 22.11116 15.62351 0.0296
C 23.35147 13.53434 -0.02845
C 24.54845 17.04905 -0.00229
C 24.46551 15.61164 -0.00938
C 25.76549 14.84285 -0.0264
C 25.81682 13.4063 -0.01154
C 24.56773 12.76847 0.00684
C 24.56614 11.38352 -0.01052
C 25.805 10.7369 -0.01679
C 25.91677 9.21506 0.00367
C 24.60136 8.60204 0.04306
C 24.5853 7.19861 0.00996
C 25.7651 6.38153 0.00195
C 25.83587 4.8838 -0.00802
C 24.50652 4.1998 -0.00218
C 24.60292 2.80617 -0.01654
C 25.81445 2.15939 -0.00037
C 25.76415 0.6265 -0.0032
C 24.51115 0.00159 0.00622
C 27.03732 32.69837 -0.02815
C 28.23117 32.0107 -0.00942
C 28.19048 30.66837 0.00487
C 26.98378 29.89057 0.00826
C 27.11781 28.37034 -0.00294
C 28.36099 27.71271 0.00152
C 25.76992 17.73595 -0.01199
C 25.707 19.1125 -0.009
C 24.57224 19.93007 -0.00285
C 24.57856 21.32199 0.01423
C 22.08973 12.92882 -0.03213
C 22.0052 11.32555 0.02239
C 23.20468 10.62258 0.01153
C 23.40547 9.21302 0.02734
C 22.21691 8.50578 -0.0055
C 22.09697 7.12939 0.01515
C 23.34999 6.38302 -0.00225
C 23.3307 4.94787 0.00071
C 22.04264 4.31174 -0.01107
C 22.08379 2.93089 -0.01586
C 23.31217 2.1881 -0.01971
C 23.26985 14.89282 0.03374
C 23.30997 0.74326 -0.02118
C 24.53986 32.66786 -0.00178
C 25.81961 31.95356 0.00768
C 25.73437 30.56382 -0.0276
C 24.55733 29.79275 0.03005
C 24.62938 28.47313 -0.04078
C 25.82893 27.71145 0.02117
C 25.81607 26.31703 0.02737
C 24.62279 25.60065 -0.00498
C 24.6516 24.11778 0.00135
C 25.89847 23.45073 0.03102
C 25.91779 22.02113 0.02555
C 22.10787 0.0331 0.00733
C 2.51293 32.62246 -0.00018
