409
Graphene
C 0.01345 0.01259 0.01295
C 12.30559 29.78939 -0.01536
C 12.26861 28.42295 -0.02689
C 13.55156 27.73334 -0.01046
C 13.5805 26.25298 -0.00891
C 12.33881 25.57247 0.02819
C 12.31445 24.16678 0.00165
C 13.50793 23.43265 -0.02971
C 13.50534 21.99727 0.02894
C 12.27407 21.27406 -0.01789
C 12.2869 19.86547 0.00444
C 13.54056 19.18537 -0.00925
C 13.54297 17.73415 0.01877
C 12.33296 17.03157 0.01363
C 12.32265 15.58688 -0.02162
C 13.48478 14.95233 0.00415
C 13.54538 13.48639 -0.0014
C 12.30872 12.75846 0.02162
C 12.27407 11.32074 0.0076
C 13.54879 10.61667 0.01241
C 13.51434 9.19128 -0.01454
C 12.27605 8.5485 0.01945
C 13.52848 30.51344 0.03101
C 13.49405 31.98897 -0.00428
C 12.2581 32.69697 -0.02245
C 9.85497 0.02122 0.00985
C 11.11826 23.4334 0.00438
C 11.05298 22.0323 0.01291
C 9.86748 21.30675 0.00093
C 9.83756 19.87942 0.00057
C 11.0757 19.18698 -0.01634
C 11.10633 17.77254 -0.00334
C 9.85483 17.09532 0.02339
C 9.83965 15.64464 0.01641
C 11.0925 14.9508 -0.00719
C 11.07003 13.48337 0.01364
C 12.29124 7.12761 0.01416
C 9.86914 12.83943 -0.01062
C 11.08773 10.64385 0.03589
C 11.05218 9.19045 -0.02759
C 9.83807 8.54776 0.0402
C 9.8342 7.07728 0.00572
C 11.01056 6.41155 0.03592
C 11.06643 4.97616 0.00406
C 9.86255 4.24957 0.00943
C 9.82458 2.8699 0.02841
C 11.0682 2.12874 -0.01111
C 11.05511 0.79346 -0.01275
C 9.82129 11.37785 -0.00033
C 9.83647 24.14101 -0.00191
C 13.5154 6.37461 0.03542
C 12.31495 4.27325 0.00244
C 16.00435 9.23979 0.01443
C 14.72764 8.50536 0.03505
C 14.74319 7.10475 -0.02815
C 16.01376 6.40352 -0.04147
C 16.00669 5.02672 -0.05302
C 14.75046 4.23048 0.00213
C 14.75505 2.83023 -0.00066
C 15.99187 2.13015 -0.00289
C 16.04896 0.69132 0.00028
C 14.75547 34.07664 -0.02213
C 17.20236 32.6625 0.03698
C 18.44999 31.88029 -0.00109
C 18.45061 30.48442 -0.00491
C 17.18638 29.83055 0.03338
C 17.21068 28.39849 -0.0258
C 18.42162 27.67754 -0.0331
C 18.38535 26.31661 -0.00316
C 17.20617 25.57676 0.02188
C 17.23681 24.13878 -0.01979
C 18.47004 23.44789 0.02691
C 18.46208 22.01194 -0.01581
C 15.97078 10.65154 0.00979
C 14.73474 11.38892 -0.00481
C 14.76953 12.80221 0.00889
C 15.98056 13.51622 -0.02162
C 12.31056 2.82373 -0.01717
C 13.53309 2.09886 0.05265
C 13.50718 0.68177 -0.01952
C 12.30206 0.00238 -0.02813
C 14.75168 32.64724 0.00374
C 15.94987 31.94401 0.00052
C 15.99657 30.55667 -0.03682
C 14.7642 29.81876 0.01965
C 14.73991 28.37169 0.02058
C 15.97307 27.70239 -0.01957
C 13.59194 4.95958 0.02299
C 15.9759 26.27141 -0.0108
C 14.75946 24.08275 -0.02696
C 15.97314 23.41453 -0.00114
C 15.99149 22.01882 0.00228
C 14.73456 21.28244 0.00798
C 14.7306 19.90128 0.00422
C 16.0194 19.15297 0.0351
C 15.95993 17.74853 -0.03113
C 14.76393 17.00976 0.02098
C 14.74939 15.60116 0.01848
C 15.98997 14.92529 -0.00619
C 14.77579 25.58217 -0.00368
C 9.84993 25.54375 0.00373
C 11.05168 26.28181 0.02147
C 11.03437 27.70205 -0.014
C 2.43845 2.86503 -0.003
C 3.66454 2.14546 0.01402
C 3.68322 0.75284 0.02379
C 2.47692 0.00616 0.00907
C 4.92255 32.67978 0.00643
C 6.13548 31.96296 -0.01509
C 6.16448 30.51466 0.03267
C 4.9098 29.86997 0.02374
C 4.97156 28.41159 0.00402
C 6.15556 27.68137 0.0073
C 6.13187 26.27044 0.0174
C 4.88175 25.56253 0.03828
C 4.95243 24.09897 0.01226
C 6.1244 23.47688 -0.00279
C 6.15352 22.01342 0.01996
C 4.95131 21.29168 -0.03996
C 4.93654 19.87664 0.01465
C 6.11919 19.15988 -0.00074
C 6.15719 17.79558 -0.00518
C 4.95855 17.04857 0.0086
C 4.92794 15.60425 -0.00643
C 2.45081 4.26677 0.00031
C 3.691 4.93965 0.03189
C 3.65904 6.35391 -0.04307
C 2.46832 7.06717 0.03284
C 3.63598 30.54824 -0.02375
C 2.47218 29.84247 0.00558
C 2.42969 28.43266 -0.0059
C 3.71329 27.67324 -0.01386
C 3.69186 26.27563 -0.02805
C 2.4681 25.5244 0.00081
C 2.48022 24.13775 0.00245
C 3.7109 23.45235 0.02728
C 3.65728 22.03332 -0.00039
C 2.42723 21.28866 0.0064
C 6.12292 14.91152 0.017
C 2.46358 19.85303 0.00211
C 3.72414 17.72293 -0.01979
C 2.44229 17.02701 0.02784
C 2.42815 15.63007 -0.01977
C 3.69082 14.92387 -0.00561
C 3.68591 13.49758 0.00208
C 2.49441 12.78887 0.01707
C 2.50439 11.40185 0.02769
C 3.74143 10.6454 -0.03291
C 3.68912 9.17725 -0.04999
C 2.47097 8.49661 0.04505
C 3.68814 19.15797 -0.00449
C 6.1404 13.45523 -0.03113
C 4.92924 12.77862 -0.02566
C 4.90533 11.37623 -0.00094
C 7.38603 17.04617 0.00054
C 7.39183 15.57254 0.03007
C 8.6077 14.90659 -0.00095
C 8.57357 13.51456 0.01572
C 7.35741 12.78044 -0.04848
C 7.38396 11.34206 -0.00892
C 8.58632 10.65481 -0.01362
C 8.61177 9.27841 -0.0008
C 7.38989 8.52011 0.0288
C 7.37446 7.14274 0.00393
C 8.63075 17.70666 -0.00494
C 8.62003 6.42262 0.00895
C 7.38199 4.25114 0.02888
C 7.39246 2.86351 -0.00482
C 8.5697 2.13788 -0.01384
C 8.60922 0.72355 0.03693
C 7.37614 34.06452 0.01745
C 9.78777 32.67241 0.00488
C 11.03059 31.9768 -0.01004
C 11.0636 30.5597 -0.02896
C 9.85284 29.84001 -0.00131
C 9.846 28.39136 -0.01118
C 8.59282 5.01148 0.00685
C 17.22673 21.30699 0.01452
C 8.56927 19.14848 -0.00562
C 7.37053 21.34406 0.01849
C 6.12754 10.6122 0.02322
C 6.17848 9.19008 -0.00725
C 4.89171 8.55586 -0.05697
C 4.90368 7.12929 0.01087
C 6.17538 6.40849 -0.01343
C 6.14443 4.95533 0.00988
C 4.88707 4.29548 0.0276
C 4.89122 2.85454 0.01305
C 6.14403 2.15147 -0.00077
C 6.14272 0.74597 0.03368
C 7.37282 19.89182 -0.01142
C 4.92646 34.06271 -0.02929
C 8.57623 31.92096 -0.03337
C 8.61482 30.556 0.01227
C 7.39395 29.84917 0.00873
C 7.39361 28.40957 -0.00049
C 8.60101 27.66977 0.00848
C 8.63607 26.27347 -0.01303
C 7.37969 25.60998 -0.01378
C 7.41312 24.13269 0.02635
C 8.62581 23.46842 0.0127
C 8.60331 21.99312 0.01396
C 7.37813 32.67381 -0.00966
C 3.68585 31.96272 0.00828
C 17.19638 19.88486 0.04892
C 18.45289 17.72832 -0.03557
C 30.73425 26.24864 -0.00971
C 29.54937 25.54214 0.01518
C 29.52116 24.17076 0.01908
C 30.75017 23.45118 0.07705
C 30.72753 21.99603 0.0103
C 29.51545 21.31497 0.02108
C 29.51243 19.85293 0.00716
C 30.7397 19.16583 0.00307
C 30.76592 17.7472 0.00346
C 29.48803 16.99915 0.01713
C 29.53686 15.60204 -0.01694
C 30.7601 14.91289 0.01428
C 30.75018 13.49059 -0.02142
C 29.54651 12.75564 0.0544
C 30.71977 0.72865 0.00026
C 29.52746 34.06111 0.00682
C 31.95022 32.62693 -0.01779
C 33.19617 31.97565 0.03794
C 33.20946 30.50454 0.01927
C 31.96873 29.81814 0.01574
C 32.00111 28.41388 -0.02383
C 30.752 27.70679 -0.03735
C 29.54214 28.36682 -0.00944
C 29.53358 29.83697 -0.02155
C 30.75787 30.53562 -0.01461
C 28.2891 31.90418 0.01799
C 28.28103 30.52317 0.01699
C 27.07639 29.79815 -0.00416
C 27.00596 28.39323 0.01177
C 28.31813 27.6579 0.04266
C 28.27661 26.27668 0.01324
C 27.04998 25.55285 0.0014
C 27.06488 24.1511 0.00924
C 28.30292 23.40522 0.02326
C 28.27592 22.0243 0.00261
C 33.19088 27.70791 -0.01429
C 27.05015 21.27726 0.03265
C 28.29097 19.17892 -0.01854
C 28.29682 17.79398 -0.01415
C 27.1078 17.05649 -0.03039
C 27.04959 15.57855 0.01836
C 28.27411 14.91149 0.03531
C 28.30264 13.46833 -0.00669
C 27.05277 12.80931 0.0101
C 27.03121 34.03528 0.01705
C 29.53545 32.66259 -0.0405
C 30.74319 31.95031 -0.01303
C 27.08291 19.82213 -0.02049
C 27.0351 32.6597 0.01259
C 33.1837 26.28418 -0.0136
C 31.97313 24.13616 -0.02474
C 1.19293 22.02562 0.02712
C 34.41956 21.27141 -0.02213
C 34.42639 19.91272 0.01951
C 1.25045 19.20592 -0.01678
C 1.22297 17.73781 0.01223
C 0.00618 17.00156 0.00648
C 34.39889 15.59778 0.02114
C 1.1994 14.91184 -0.02957
C 1.23523 13.51225 0.00343
C 0.02022 12.72674 -0.02656
C 34.41651 11.36855 -0.02442
C 1.20422 10.7046 -0.00027
C 1.23793 9.23224 -0.00583
C 34.41936 8.54212 -0.02302
C 34.41824 7.11761 -0.02849
C 1.19633 6.36116 0.02931
C 1.21773 4.96706 0.00628
C 0.01495 4.22411 -0.0345
C 0.01434 2.8339 -0.00931
C 1.24973 2.12995 -0.00939
C 1.2495 0.70348 -0.00468
C 1.22031 23.45619 0.00723
C 34.41365 24.18163 0.03076
C 0.00084 25.56584 -0.05239
C 1.24521 26.25788 -0.00598
C 33.20195 23.39663 0.00369
C 33.21768 21.99748 0.00455
C 32.01914 21.28709 -0.00644
C 31.92449 19.86161 -0.01839
C 33.17869 19.14066 0.00137
C 33.19258 17.74074 0.00199
C 31.94267 17.02752 0.04381
C 31.97227 15.61492 0.02806
C 33.19491 14.91314 0.01504
C 33.20633 13.49181 -0.00069
C 31.96474 25.57834 0.00594
C 31.96257 12.77387 0.04926
C 33.21226 10.66635 0.00349
C 33.19118 2.10232 -0.00323
C 33.18434 0.68046 -0.00841
C 31.98034 0.00552 0.0001
C 0.0141 32.64221 -0.02927
C 1.22599 31.98357 -0.01404
C 1.20154 30.52067 0.01027
C 34.39052 29.80321 0.01831
C 0.00707 28.39693 -0.01037
C 1.21381 27.66177 -0.00439
C 32.0054 11.3494 -0.03838
C 24.5937 34.06868 0.01495
C 25.80077 0.7103 0.00235
C 24.59073 11.32729 0.01094
C 20.87918 23.39765 0.00096
C 20.89409 22.01087 -0.01527
C 19.70622 21.25034 0.01087
C 19.70357 19.84173 0.00199
C 20.90727 19.15479 0.01511
C 20.90264 17.75264 -0.00478
C 19.66997 17.01078 -0.01662
C 19.64733 15.59762 -0.01185
C 20.93032 14.8972 0.01126
C 20.91248 13.43998 0.01852
C 19.72034 12.74407 -0.00381
C 19.6663 11.32649 0.03046
C 20.91726 10.64404 0.0296
C 20.89985 9.21413 0.03374
C 19.67917 8.49678 -0.02845
C 19.69125 7.09092 -0.03213
C 20.89833 6.44176 0.02239
C 20.93908 4.97396 0.01153
C 19.65287 4.22917 0.02734
C 19.6935 2.83763 -0.0055
C 20.91513 2.15758 0.01515
C 19.68134 24.14152 0.01277
C 19.65968 25.52604 -0.02422
C 20.88525 26.27498 -0.01721
C 20.90975 27.71509 -0.01154
C 17.22885 17.07381 0.03754
C 17.21678 15.60362 0.01739
C 18.43084 14.91104 0.00755
C 18.45046 13.49323 -0.0054
C 17.20535 12.782 0.00667
C 17.24571 11.35434 0.00143
C 18.44303 10.67198 -0.017
C 18.45699 9.25183 0.00364
C 17.24987 8.55422 -0.00831
C 17.23872 7.11771 -0.02957
C 20.91431 0.70477 -0.00225
C 18.41033 6.38994 -0.04422
C 17.21089 4.23967 -0.00703
C 17.22982 2.81898 -0.04076
C 18.5452 2.16333 -0.00652
C 18.43875 0.71864 0.0058
C 17.21292 34.06561 -0.00865
C 19.70045 32.65697 0.00675
C 20.85696 31.95596 -0.00311
C 20.88401 30.53186 0.00742
C 19.6838 29.77152 -0.01594
C 19.6767 28.37722 0.0106
C 18.45894 4.98426 0.00654
C 19.61489 0.01655 0.00071
C 22.13126 32.64352 -0.01107
C 23.35702 31.9492 -0.01586
C 23.37501 0.71797 0.04306
C 22.10511 0.01238 0.00996
C 24.59693 32.66286 0.00195
C 25.83032 31.95658 -0.00802
C 25.82832 30.56338 -0.00218
C 24.59538 29.78874 -0.01654
C 24.60558 28.38075 -0.00037
C 25.84506 27.69449 -0.0032
C 25.81189 26.26389 0.00622
C 24.63468 25.56757 -0.02815
C 23.35455 2.14673 0.00367
C 24.57948 24.104 -0.00942
C 25.80458 21.99108 0.00826
C 24.5788 21.33371 -0.00294
C 24.57588 19.87625 0.00152
C 25.83846 19.16949 0.01257
C 25.83113 17.74369 0.02316
C 24.61879 17.03076 0.04185
C 24.59403 15.62262 0.00194
C 25.81529 14.89926 -0.00621
C 25.83703 13.52158 0.02611
C 24.5956 12.7777 0.02198
C 25.79954 23.40669 0.00487
C 18.45899 19.17129 -0.00111
C 22.17941 2.81591 -0.01679
C 22.10665 7.1001 0.00684
C 23.36871 30.54602 -0.01971
C 22.1278 29.80141 -0.02118
C 22.10694 28.43654 0.00733
C 23.38409 27.6675 -0.00178
C 23.3156 26.26769 0.00768
C 22.13963 25.57649 -0.0276
C 22.13096 24.16167 0.03005
C 23.33502 23.43446 -0.04078
C 23.35409 22.01079 0.02117
C 22.14496 21.29492 0.02737
C 22.15663 4.22233 -0.01052
C 22.15604 19.9345 -0.00498
C 23.37721 17.74157 0.03102
C 22.11833 17.02885 0.02555
C 22.13882 15.6197 0.01423
C 23.38183 14.86309 -0.00285
C 23.34318 13.47317 -0.009
C 22.18095 12.74785 -0.01199
C 22.09881 11.37474 -0.00229
C 23.37891 10.68082 -0.00938
C 23.34343 9.23988 -0.0264
C 22.15396 8.54054 -0.01154
C 23.37822 19.1871 0.00135
C 2.4311 32.62638 0.00088
