355
Graphene
C 0.03494 0.03077 0.01295
C 15.93925 27.7062 -0.00368
C 15.95405 26.20577 -0.02696
C 14.73084 25.54708 -0.00114
C 14.76778 24.19201 0.00228
C 16.00874 23.44109 0.00798
C 15.85163 22.07374 0.00422
C 14.71898 21.34847 0.0351
C 14.77486 19.84381 -0.03113
C 14.78452 28.43284 -0.0108
C 15.93656 19.04141 0.02098
C 16.16909 0.73591 -0.00619
C 14.93547 0.14698 -0.02162
C 17.2702 32.6642 0.00889
C 18.49971 31.99608 -0.00481
C 18.43666 30.46407 0.00979
C 17.1911 29.80768 0.01443
C 17.20009 28.41953 0.03505
C 18.40997 27.62791 -0.02815
C 16.15639 17.7303 0.01848
C 18.48195 26.2352 -0.04147
C 14.78739 29.77319 -0.01957
C 16.03442 31.97471 0.01965
C 9.90258 0.03588 0.00415
C 12.34413 32.71233 -0.0014
C 13.49519 32.0379 0.02162
C 13.56124 30.61355 0.0076
C 12.33065 29.93001 0.01241
C 12.35598 28.47142 -0.01454
C 13.54999 27.66504 0.01945
C 13.51381 26.27977 0.01416
C 15.98354 30.45524 0.02058
C 12.26744 25.51779 0.03542
C 13.5155 23.47001 0.00244
C 13.44461 21.95078 -0.01717
C 12.21065 21.25289 0.05265
C 12.23823 19.65539 -0.01952
C 13.52738 19.20762 -0.02813
C 13.59709 0.53727 0.00374
C 12.34669 0.25535 0.00052
C 14.82361 32.64191 -0.03682
C 12.2213 24.18903 0.02299
C 17.18984 25.55765 -0.05302
C 17.27075 24.16277 0.00213
C 18.44809 23.45592 -0.00066
C 20.66988 14.79924 0.00143
C 21.11381 13.57437 -0.017
C 20.79934 6.49816 0.00364
C 20.60097 5.18177 -0.00831
C 19.81018 4.17541 -0.02957
C 19.58305 2.84067 -0.04422
C 20.86415 2.0336 0.00654
C 20.93117 0.70333 -0.00703
C 19.61276 15.62655 0.00667
C 19.72815 0.02048 -0.04076
C 23.36307 31.98904 0.0058
C 23.32402 30.4853 -0.00865
C 22.17579 29.7831 0.00675
C 22.13285 24.0523 -0.00311
C 23.35445 23.43772 0.00742
C 23.24777 22.03454 -0.01594
C 22.05432 21.2798 0.0106
C 22.08675 19.85422 -0.01154
C 22.11386 32.59011 -0.00652
C 19.69912 17.01631 -0.0054
C 20.89288 17.75073 0.00755
C 20.82422 19.19181 0.01739
C 18.39191 22.03477 -0.00289
C 17.16128 21.2891 0.00028
C 17.09068 19.83016 -0.02213
C 18.33567 19.1062 0.03698
C 18.49327 17.73605 -0.00109
C 17.35078 17.06344 -0.00491
C 18.39785 2.11931 0.03338
C 18.49893 0.74073 -0.0258
C 17.30124 0.00123 -0.0331
C 19.77624 32.66183 -0.00316
C 20.92018 31.83865 0.02188
C 20.87642 30.29251 -0.01979
C 19.55152 29.73688 0.02691
C 19.68552 25.60192 -0.01581
C 19.74815 24.24562 0.01452
C 20.93162 23.50096 0.04892
C 20.82858 22.02659 -0.00111
C 19.56227 21.30199 -0.03557
C 19.56899 19.8787 0.03754
C 11.05143 0.73131 -0.02162
C 23.33428 19.18622 -0.01721
C 11.00211 19.1675 0.01363
C 9.78004 21.3196 -0.00925
C 2.47988 7.11392 -0.00494
C 3.54468 6.36572 0.00054
C 3.82636 5.03899 0.03007
C 2.46016 4.2836 -0.00095
C 2.44789 2.86681 0.01572
C 3.74696 2.12397 -0.04848
C 3.69701 0.78538 -0.00892
C 2.46355 0.04399 -0.01362
C 2.42222 8.4843 -0.00562
C 4.93336 32.70733 -0.0008
C 6.06735 30.62081 0.00393
C 4.85998 29.83918 0.00895
C 4.90139 28.42819 0.00685
C 6.14459 27.76806 0.02888
C 6.19419 26.31547 -0.00482
C 4.97478 25.55251 -0.01384
C 4.98159 24.23757 0.03693
C 6.20069 23.4619 0.01745
C 6.13502 31.9863 0.0288
C 6.1321 22.07343 0.00488
C 3.39567 9.3536 -0.01142
C 2.43334 11.44322 0.01396
C 3.62671 30.61934 0.01087
C 2.42384 29.8588 -0.01343
C 2.50622 28.41806 0.00988
C 3.65251 27.72832 0.0276
C 3.68906 26.2566 0.01305
C 2.50922 25.59631 -0.00077
C 2.46401 24.20858 0.03368
C 3.73511 23.49929 -0.02929
C 3.52572 10.69786 0.01849
C 3.66273 22.02121 -0.00966
C 2.43609 19.93115 0.01227
C 3.66479 19.25905 0.00873
C 3.68651 17.77709 -0.00049
C 2.42312 17.00458 0.00848
C 2.5284 15.56715 -0.01303
C 3.7151 14.86706 -0.01378
C 3.75097 13.48164 0.02635
C 2.41488 12.77997 0.0127
C 2.43299 21.33122 -0.03337
C 4.89418 21.36182 -0.01004
C 4.93456 19.87885 -0.02896
C 6.17587 19.23698 -0.00131
C 8.57795 19.19394 0.00943
C 8.52973 17.84158 0.02841
C 7.37537 17.21456 -0.01111
C 7.28317 2.77494 -0.01275
C 8.3973 2.00053 0.00985
C 8.67249 0.74548 -0.02245
C 7.3871 0.06284 -0.00428
C 9.84927 32.76697 0.03101
C 7.39533 19.86816 0.00406
C 11.04082 31.95601 -0.01536
C 9.81178 29.87634 -0.01046
C 9.78346 28.43796 -0.00891
C 11.06355 27.76137 0.02819
C 11.04683 26.23382 0.00165
C 9.84541 25.59238 -0.02971
C 9.8359 24.05061 0.02894
C 11.08166 23.3194 -0.01789
C 11.05522 21.94606 0.00444
C 11.05376 30.57272 -0.02689
C 7.33332 21.27504 0.03592
C 8.57428 21.92316 0.00572
C 8.58718 23.41157 0.0402
C 6.15304 17.73307 -0.01118
C 4.92089 17.09656 -0.014
C 4.98426 15.65004 0.02147
C 6.10703 14.85722 0.00373
C 4.89682 12.84666 -0.00191
C 4.9132 4.27124 0.00438
C 4.91422 2.95268 0.01291
C 6.13487 2.22538 0.00093
C 6.17191 0.85239 0.00057
C 4.97306 0.06399 -0.01634
C 7.3707 32.70055 -0.00334
C 8.58845 32.03683 0.02339
C 8.58822 30.57829 0.01641
C 7.36113 29.86699 -0.00719
C 7.34324 28.44958 0.01364
C 8.64493 27.69712 -0.01062
C 8.60199 26.23216 -0.00033
C 7.40021 25.5728 0.03589
C 7.43864 24.15804 -0.02759
C 9.83881 19.85083 0.01877
C 3.66329 31.9978 -0.05697
C 23.3432 17.75865 -0.02422
C 22.14818 15.63467 0.00096
C 31.96005 32.63167 0.01713
C 33.14206 31.9759 -0.01694
C 33.17697 30.55675 0.01428
C 32.01175 29.82704 -0.02142
C 31.99606 28.4449 0.0544
C 33.16706 27.6769 0.00026
C 33.21516 26.33454 0.00682
C 31.99004 25.583 -0.01779
C 29.56894 34.06675 0.00346
C 31.91463 24.15242 0.03794
C 33.11554 21.97458 0.01574
C 31.94526 21.29243 -0.02383
C 31.88722 19.88913 -0.01429
C 33.09543 19.22433 -0.0136
C 33.12448 17.71771 0.00594
C 31.9496 17.07918 -0.02474
C 31.96581 15.62333 0.00369
C 33.18174 14.96018 0.00455
C 33.16359 23.43948 0.01927
C 33.15813 13.47397 -0.00644
C 30.67178 0.7275 0.00307
C 29.51929 2.83047 0.02108
C 30.69051 22.01108 -0.01415
C 29.49511 21.27815 -0.03039
C 29.43573 19.87852 0.01836
C 30.6678 19.15812 0.03531
C 30.63001 17.79271 -0.00669
C 29.4706 17.05934 0.0101
C 29.50417 15.62966 0.01705
C 30.78588 14.87556 -0.0405
C 30.70793 2.08612 0.00716
C 30.72823 13.45897 -0.01303
C 29.49411 11.32664 -0.02155
C 30.73314 10.66688 -0.00944
C 30.76319 9.22386 -0.03735
C 29.50814 8.3911 -0.00971
C 29.57714 7.06218 0.01518
C 30.78299 6.35465 0.01908
C 30.81247 4.9136 0.07705
C 29.58831 4.21865 0.0103
C 29.48552 12.79919 -0.01461
C 31.99853 12.72734 -0.01839
C 31.96146 11.36219 0.00137
C 33.30684 10.60475 0.00199
C 1.24153 19.11834 -0.01678
C 1.24338 17.73691 0.01223
C 34.42618 17.03151 0.00648
C 0.00679 15.62179 0.02114
C 1.20696 14.93113 -0.02957
C 1.14258 13.50193 0.00343
C 34.38026 12.76042 -0.02656
C 34.43079 11.36436 -0.02442
C 34.348 19.88929 0.01951
C 1.27419 10.6849 -0.00027
C 0.00983 8.48971 -0.02302
C 0.04457 7.07443 -0.02849
C 1.20703 6.38199 0.02931
C 1.24786 4.97596 0.00628
C 34.41666 4.34837 -0.0345
C 34.38114 2.90213 -0.00931
C 1.21892 2.23188 -0.00939
C 1.22423 0.75827 -0.00468
C 1.26302 9.23719 -0.00583
C 34.35511 21.28958 -0.02213
C 1.17277 22.06781 0.02712
C 1.24603 23.43218 0.00723
C 33.21221 9.14686 0.04381
C 31.98861 8.5389 0.02806
C 31.96824 7.0876 0.01504
C 33.187 6.41064 -0.00069
C 33.13143 4.96707 0.04926
C 32.02614 4.23355 -0.03838
C 31.99587 2.79338 0.00349
C 33.23134 2.14524 -0.00323
C 33.18771 0.74338 -0.00841
C 32.01006 0.05209 0.0001
C 34.40319 32.67043 -0.02927
C 1.11096 31.97491 -0.01404
C 1.18895 30.52864 0.01027
C 34.39808 29.86395 0.01831
C 34.42911 28.39742 -0.01037
C 1.22497 27.69342 -0.00439
C 1.22628 26.28642 -0.00598
C 0.0113 25.54116 -0.05239
C 0.05387 24.12789 0.03076
C 30.75717 23.4013 -0.01854
C 22.1188 17.06137 0.01277
C 29.48643 24.18892 -0.02049
C 30.73989 26.29953 0.00261
C 24.42568 25.6371 -0.01107
C 24.52437 24.24146 -0.01586
C 25.80187 23.48816 -0.01971
C 25.84503 22.09063 -0.02118
C 24.61077 21.35544 0.00733
C 24.62586 19.8726 -0.00178
C 25.81371 19.20763 0.00768
C 25.70325 17.78579 -0.0276
C 25.74676 26.22669 0.00071
C 24.53651 17.03631 0.03005
C 25.79002 14.97183 0.02117
C 25.80426 13.46949 0.02737
C 24.60001 12.73679 -0.00498
C 24.55003 11.29389 0.00135
C 25.85006 10.64863 0.03102
C 25.80549 9.17614 0.02555
C 24.54967 8.43909 0.01423
C 24.63861 7.07286 -0.00285
C 24.55725 15.63711 -0.04078
C 25.81067 6.33401 -0.009
C 25.87111 27.64656 -0.00225
C 24.56508 29.72506 -0.0055
C 23.29946 14.90545 -0.01527
C 23.39362 13.4319 0.01087
C 22.08092 12.66652 0.00199
C 22.20598 11.28279 0.01511
C 23.31684 10.58171 -0.00478
C 23.35289 9.13828 -0.01662
C 22.14103 8.57109 -0.01185
C 22.00369 7.16414 0.01126
C 24.63401 28.38914 0.01515
C 23.32183 6.31798 0.01852
C 22.05678 4.30328 0.03046
C 22.08833 2.87999 0.0296
C 23.28209 2.16913 0.03374
C 23.36091 0.67757 -0.02845
C 22.0988 33.99226 -0.03213
C 24.55154 32.71988 0.02239
C 25.82258 31.89158 0.01153
C 25.80466 30.52886 0.02734
C 23.3051 4.92218 -0.00381
C 25.85601 4.91771 -0.01199
C 24.5876 4.16727 -0.00229
C 24.5693 2.75987 -0.00938
C 27.00142 11.36808 0.04185
C 28.25563 10.55726 0.00194
C 28.27477 9.17608 -0.00621
C 27.05879 8.49318 0.02611
C 27.07708 6.9962 0.02198
C 28.26864 6.36582 0.01094
C 28.27079 4.93278 0.00235
C 27.12506 4.20621 0.01495
C 27.02489 12.82582 0.02316
C 27.11468 2.75162 0.01259
C 28.29011 0.68267 0.01699
C 26.99587 34.053 -0.00416
C 29.49656 32.6885 0.01177
C 30.71912 31.97701 0.04266
C 30.7236 30.63475 0.01324
C 29.52305 29.91123 0.0014
C 29.55262 28.47237 0.00924
C 30.75584 27.71265 0.02326
C 28.32275 2.1342 0.01799
C 28.29299 13.50723 0.01257
C 28.25016 14.94161 0.00152
C 27.04687 15.64072 -0.00294
C 25.88932 2.06968 -0.0264
C 25.82639 0.68269 -0.01154
C 24.60196 0.01405 0.00684
C 26.96708 32.67078 -0.01052
C 28.21518 31.96514 -0.01679
C 28.28702 30.51516 0.00367
C 27.04038 29.85372 0.04306
C 27.0988 28.34058 0.00996
C 28.35356 27.7076 0.00195
C 28.21459 26.2765 -0.00802
C 27.05077 25.55706 -0.00218
C 27.04537 24.11062 -0.01654
C 28.31745 23.47293 -0.00037
C 28.20412 22.00112 -0.0032
C 27.09093 21.36653 0.00622
C 27.05048 19.96054 -0.02815
C 28.20566 19.18129 -0.00942
C 28.27299 17.72679 0.00487
C 26.98958 17.07739 0.00826
C 29.54029 25.5696 0.03265
C 2.37215 32.68471 -0.00725
