401
Graphene
C 0.03232 34.06571 0.01295
C 12.15695 32.76342 0.00165
C 13.44706 32.03076 -0.02971
C 13.47153 30.54834 0.02894
C 12.24689 29.86585 -0.01789
C 12.31203 28.41983 0.00444
C 13.49632 27.63662 -0.00925
C 13.49158 26.2312 0.01877
C 12.26082 25.57847 0.01363
C 12.25542 24.10932 -0.02162
C 13.48504 23.39637 0.00415
C 13.59297 21.96319 -0.0014
C 12.33734 21.34271 0.02162
C 12.34847 19.94939 0.0076
C 13.58694 19.21294 0.01241
C 13.51386 17.75778 -0.01454
C 12.26852 17.0583 0.01945
C 12.31525 15.64004 0.01416
C 13.55626 14.92825 0.03542
C 13.59081 13.50736 0.02299
C 12.2872 12.70749 0.00244
C 12.27235 11.27936 -0.01717
C 9.74396 0.07325 0.02819
C 13.54208 10.67672 0.05265
C 11.02305 0.77585 -0.00891
C 9.83241 2.99466 -0.02689
C 9.78009 25.6168 0.02339
C 9.79993 24.15739 0.01641
C 11.08625 23.38483 -0.00719
C 11.0936 21.98185 0.01364
C 9.91454 21.28753 -0.01062
C 9.8744 19.83828 -0.00033
C 11.1094 19.18242 0.03589
C 11.06476 17.73841 -0.02759
C 9.83007 17.0571 0.0402
C 9.80115 15.60347 0.00572
C 11.03882 14.91694 0.03592
C 11.03231 13.43587 0.00406
C 9.80733 12.74372 0.00943
C 9.83544 11.35156 0.02841
C 11.03412 10.54477 -0.01111
C 11.06518 9.15608 -0.01275
C 9.82971 8.52464 0.00985
C 9.88257 7.11636 -0.02245
C 11.1125 6.42875 -0.00428
C 11.11255 5.0201 0.03101
C 9.84519 4.36811 -0.01536
C 11.01171 2.23202 -0.01046
C 11.03066 26.26539 -0.00334
C 13.50592 9.24733 -0.01952
C 12.40177 7.0511 0.00374
C 15.98001 13.55096 -0.05302
C 14.71526 12.78568 0.00213
C 14.73118 11.38674 -0.00066
C 15.97714 10.6916 -0.00289
C 15.99817 9.21018 0.00028
C 14.75314 8.51542 -0.02213
C 14.80374 7.07311 0.03698
C 16.06953 6.39727 -0.00109
C 15.99532 4.9951 -0.00491
C 14.78484 4.2231 0.03338
C 14.74091 2.77625 -0.0258
C 16.01852 2.07914 -0.0331
C 15.92898 0.70962 -0.00316
C 14.72457 0.05277 0.02188
C 17.19378 32.61719 -0.01979
C 18.37864 31.9459 0.02691
C 18.36894 30.51914 -0.01581
C 17.15735 29.8166 0.01452
C 17.17354 28.36491 0.04892
C 18.41609 27.76159 -0.00111
C 18.39721 26.28346 -0.03557
C 15.94326 14.95614 -0.04147
C 12.3433 8.53092 -0.02813
C 14.74653 15.64555 -0.02815
C 15.99002 17.83137 0.01443
C 13.60918 6.34193 0.00052
C 13.61577 4.96447 -0.03682
C 12.3447 4.28404 0.01965
C 12.23318 2.83409 0.02058
C 13.44261 2.11697 -0.01957
C 13.47069 0.71486 -0.0108
C 12.21835 0.07856 -0.00368
C 14.70469 32.71772 -0.02696
C 15.95215 31.99657 -0.00114
C 15.93007 30.60308 0.00228
C 14.709 29.80826 0.00798
C 14.68029 28.41691 0.00422
C 15.94452 27.70518 0.0351
C 15.94367 26.28945 -0.03113
C 14.71279 25.56217 0.02098
C 14.75296 24.10725 0.01848
C 15.96026 23.4346 -0.00619
C 16.03905 22.0401 -0.02162
C 14.85554 21.25915 0.00889
C 14.8656 19.90122 -0.00481
C 16.10774 19.17151 0.00979
C 14.72512 17.04474 0.03505
C 11.08352 27.71946 -0.01634
C 9.81121 28.472 0.00057
C 9.79938 29.90667 0.00093
C 2.39746 4.31947 0.02374
C 2.42043 2.89091 0.00402
C 3.61844 2.19635 0.0073
C 3.63384 0.75991 0.0174
C 2.42206 0.01873 0.03828
C 4.90546 32.60138 0.01226
C 6.1114 32.06317 -0.00279
C 6.14578 30.56674 0.01996
C 4.91749 29.82895 -0.03996
C 4.86769 28.40836 0.01465
C 6.03263 27.69164 -0.00074
C 6.01339 26.27786 -0.00518
C 4.87216 25.59589 0.0086
C 4.96603 24.17935 -0.00643
C 6.14802 23.45839 0.017
C 6.21172 21.9764 -0.03113
C 4.95013 21.22846 -0.02566
C 4.87152 19.83931 -0.00094
C 6.13974 19.20267 0.02322
C 6.08664 17.68886 -0.00725
C 4.81831 17.03125 -0.05697
C 3.63143 5.00821 0.03267
C 4.89343 15.64813 0.01087
C 3.66655 6.4537 -0.01509
C 2.39804 8.5971 0.00907
C 3.60924 30.54365 -0.00039
C 2.397 29.84499 0.0064
C 2.3461 28.39326 0.00211
C 3.64706 27.74143 -0.00449
C 3.64668 26.30701 -0.01979
C 2.42802 25.60191 0.02784
C 2.46766 24.18728 -0.01977
C 3.73121 23.41639 -0.00561
C 3.73101 22.00056 0.00208
C 2.46357 21.22153 0.01707
C 2.35987 19.8272 0.02769
C 3.63945 19.18305 -0.03291
C 3.61684 17.77119 -0.04999
C 2.3502 17.11294 0.04505
C 2.36829 15.66117 0.03284
C 3.60345 14.93746 -0.04307
C 3.63817 13.49437 0.03189
C 2.42896 12.78742 0.00031
C 2.38055 11.41315 -0.003
C 3.58404 10.69879 0.01402
C 3.58958 9.30033 0.02379
C 2.48097 7.16983 0.00643
C 6.11548 14.88052 -0.01343
C 6.16529 13.51254 0.00988
C 4.90235 12.77363 0.0276
C 8.56192 17.7255 -0.0008
C 7.31974 16.97043 0.0288
C 7.37385 15.54276 0.00393
C 8.62651 14.86953 0.00895
C 8.60728 13.48535 0.00685
C 7.40216 12.74378 0.02888
C 7.3332 11.3479 -0.00482
C 8.58992 10.66735 -0.01384
C 8.59206 9.26327 0.03693
C 7.34432 8.57162 0.01745
C 7.38087 7.18016 0.00488
C 8.61162 6.42678 -0.01004
C 8.5674 5.08527 -0.02896
C 7.36301 4.3289 -0.00131
C 7.37543 2.91843 -0.01118
C 8.58532 2.26686 -0.014
C 8.53246 0.86012 0.02147
C 7.33334 0.12754 0.00373
C 9.73974 32.7249 -0.00191
C 11.00821 31.9624 0.00438
C 10.99974 30.58386 0.01291
C 8.6475 19.13298 -0.01362
C 7.48265 19.89793 -0.00892
C 7.4372 21.31716 -0.04848
C 8.66462 22.07933 0.01572
C 4.87082 11.3395 0.01305
C 6.11059 10.68586 -0.00077
C 6.11325 9.29218 0.03368
C 4.91244 8.58056 -0.02929
C 4.96184 7.16673 -0.00966
C 6.15739 6.45396 -0.03337
C 6.0983 5.04858 0.01227
C 4.8808 4.34337 0.00873
C 4.83489 2.93046 -0.00049
C 6.0825 2.22538 0.00848
C 17.18315 25.58362 0.03754
C 6.1313 0.81036 -0.01303
C 7.40882 32.73756 0.02635
C 8.55718 32.01441 0.0127
C 8.51424 30.57537 0.01396
C 7.33031 29.85541 0.01849
C 7.2965 28.42132 -0.01142
C 8.55316 27.73668 -0.00562
C 8.54539 26.2796 -0.00494
C 7.32115 25.64154 0.00054
C 7.35018 24.19605 0.03007
C 8.60097 23.44435 -0.00095
C 4.86968 0.06956 -0.01378
C 3.65923 31.9658 0.02728
C 17.19366 24.12115 0.01739
C 18.51319 22.00606 -0.0054
C 30.70711 27.60466 0.01518
C 30.69271 26.21757 0.01908
C 29.49092 25.45988 0.07705
C 29.45868 24.03965 0.0103
C 30.69183 23.4035 0.02108
C 30.79919 21.92463 0.00716
C 30.85173 9.35931 0.00307
C 29.59504 8.68683 0.00346
C 29.52218 7.23294 0.01713
C 30.7365 6.41778 -0.01694
C 30.7134 4.9706 0.01428
C 29.49304 4.28668 -0.02142
C 29.48166 2.83798 0.0544
C 30.71039 2.14054 0.00026
C 30.74343 0.6762 0.00682
C 29.48902 34.05522 -0.01779
C 31.99955 32.64224 0.03794
C 33.25072 31.89256 0.01927
C 33.18487 30.47515 0.01574
C 31.94086 29.81139 -0.02383
C 31.87695 28.34431 -0.01429
C 29.48217 28.36474 -0.00971
C 33.10106 27.58203 -0.0136
C 29.4869 29.83074 -0.03735
C 30.77641 31.91059 -0.02155
C 28.25249 31.96507 -0.00416
C 28.23151 30.52315 0.01177
C 27.02447 29.80664 0.04266
C 26.95855 28.41683 0.01324
C 28.20513 27.69297 0.0014
C 28.25136 26.21938 0.00924
C 27.01741 25.48363 0.02326
C 27.02481 24.07459 0.00261
C 28.2718 23.41569 0.03265
C 28.23643 21.96544 -0.02049
C 28.31363 9.26481 -0.01854
C 27.09633 8.69558 -0.01415
C 27.08037 7.24758 -0.03039
C 28.30555 6.50741 0.01836
C 28.25613 5.03374 0.03531
C 27.0867 4.27661 -0.00669
C 27.02562 2.8703 0.0101
C 28.23116 2.12066 0.01705
C 28.26737 0.73906 -0.0405
C 27.0027 0.02652 -0.01303
C 29.55089 32.67774 -0.01461
C 30.69699 30.49312 -0.00944
C 26.97371 32.67847 0.01699
C 33.08665 26.1459 0.00594
C 31.91508 24.06439 0.00369
C 1.25172 21.98879 0.02712
C 0.00524 21.24807 -0.02213
C 34.36104 19.79107 0.01951
C 1.18017 19.12558 -0.01678
C 1.11407 17.74229 0.01223
C 34.35365 17.0912 0.00648
C 34.4181 15.69019 0.02114
C 1.1737 14.92734 -0.02957
C 1.2048 13.51981 0.00343
C 34.41684 12.82091 -0.02656
C 34.23305 11.51979 -0.02442
C 1.142 10.72037 -0.00027
C 1.16688 9.22334 -0.00583
C 34.40313 8.47846 -0.02302
C 34.3973 7.11693 -0.02849
C 1.2108 6.47303 0.02931
C 1.1863 5.09117 0.00628
C 34.39643 4.30349 -0.0345
C 34.39536 2.92028 -0.00931
C 1.18697 2.20142 -0.00939
C 1.23474 0.72138 -0.00468
C 1.28558 23.40425 0.00723
C 31.89857 25.51341 -0.02474
C 34.41461 24.07541 0.03076
C 1.18086 26.222 -0.00598
C 33.20006 23.41709 0.00455
C 33.28458 22.04159 -0.00644
C 31.94088 21.39935 -0.01839
C 33.2222 18.86993 0.00137
C 33.15576 10.5764 0.00199
C 33.1935 9.15903 0.04381
C 31.96616 8.46916 0.02806
C 31.9691 7.10229 0.01504
C 33.1809 6.3918 -0.00069
C 33.10886 4.96412 0.04926
C 31.87606 4.18813 -0.03838
C 31.97598 2.81567 0.00349
C 33.21025 2.15484 -0.00323
C 33.25265 0.6988 -0.00841
C 32.02298 34.05832 0.0001
C 0.01724 32.59551 -0.02927
C 1.24887 31.91763 -0.01404
C 1.18128 30.47577 0.01027
C 34.3563 29.70833 0.01831
C 34.28284 28.316 -0.01037
C 1.11364 27.62279 -0.00439
C 34.39333 25.4884 -0.05239
C 24.48005 34.03545 0.01799
C 25.75327 0.72064 0.01259
C 25.79694 2.12058 0.01495
C 19.6135 28.43171 0.00199
C 20.82493 27.65098 0.01511
C 20.91738 26.21117 -0.00478
C 19.65074 25.58849 -0.01662
C 19.62412 24.17896 -0.01185
C 20.89427 23.44185 0.01126
C 20.87499 22.04009 0.01852
C 19.74095 21.25289 -0.00381
C 19.8087 19.80581 0.03046
C 21.16596 19.01472 0.0296
C 21.00363 17.64191 0.03374
C 19.75314 17.06399 -0.02845
C 19.69996 15.62567 -0.03213
C 20.81365 14.78863 0.02239
C 20.88467 13.53303 0.01153
C 19.59185 12.67307 0.02734
C 19.62647 11.32665 -0.0055
C 20.81891 10.63664 0.01515
C 21.00989 9.21415 -0.00225
C 19.72001 8.58717 0.00071
C 19.72033 7.05818 -0.01107
C 19.5695 29.839 0.01087
C 21.01837 6.45941 -0.01586
C 20.80448 30.525 -0.01527
C 19.6172 32.59916 0.01277
C 17.30927 21.30003 0.00667
C 17.36002 19.84213 0.00143
C 18.56884 19.11596 -0.017
C 18.49522 17.75559 0.00364
C 17.20064 17.04781 -0.00831
C 17.21221 15.57724 -0.02957
C 18.51141 14.87611 -0.04422
C 18.5566 13.48688 0.00654
C 17.25917 12.80031 -0.00703
C 17.22755 11.43244 -0.04076
C 18.43953 10.71141 -0.00652
C 18.47515 9.23896 0.0058
C 17.21634 8.54795 -0.00865
C 17.27724 7.12183 0.00675
C 18.45931 6.38734 -0.00311
C 18.44991 4.94869 0.00742
C 17.24828 4.24196 -0.01594
C 17.17731 2.85058 0.0106
C 18.43296 2.18846 -0.01154
C 18.40208 0.66768 -0.01721
C 17.20259 34.04012 -0.02422
C 20.80741 31.90217 0.00096
C 20.94833 5.0535 -0.01971
C 19.70852 4.29125 -0.02118
C 19.62589 2.88061 0.00733
C 23.25194 0.68937 -0.00802
C 22.05003 0.04515 -0.00218
C 24.526 32.67186 -0.01654
C 25.77176 31.95777 -0.00037
C 25.80154 30.57026 -0.0032
C 24.54196 29.79997 0.00622
C 24.54165 28.3423 -0.02815
C 25.7779 27.66525 -0.00942
C 25.79528 26.25058 0.00487
C 24.61417 25.48129 0.00826
C 24.58562 24.04459 -0.00294
C 25.88566 23.30135 0.00152
C 25.93167 21.95291 0.01257
C 24.66717 21.329 0.02316
C 25.82235 9.36317 0.04185
C 24.6525 8.53033 0.00194
C 24.62495 7.09836 -0.00621
C 25.87516 6.43626 0.02611
C 25.84527 5.00837 0.02198
C 24.57715 4.31197 0.01094
C 24.53622 2.832 0.00235
C 23.2367 2.1283 0.00195
C 22.06343 2.89186 0.00996
C 22.15121 4.32714 0.04306
C 23.32482 5.06 0.00367
C 20.87614 2.16426 -0.00178
C 20.85893 0.75896 0.00768
C 19.7005 0.04116 -0.0276
C 22.12168 32.66289 0.03005
C 23.33062 31.91368 -0.04078
C 23.25252 30.5238 0.02117
C 22.05528 29.78374 0.02737
C 22.10347 28.36126 -0.00498
C 23.3301 27.66372 0.00135
C 23.3885 26.18453 0.03102
C 18.42107 23.42412 0.00755
C 22.12524 25.4463 0.02555
C 23.34772 23.35951 -0.00285
C 23.37328 21.98084 -0.009
C 22.13199 21.26911 -0.01199
C 22.18446 19.9285 -0.00229
C 22.17701 11.21002 -0.00938
C 23.28181 10.60615 -0.0264
C 23.45058 9.18828 -0.01154
C 22.18738 8.51559 0.00684
C 22.20024 7.12236 -0.01052
C 23.37924 6.42826 -0.01679
C 22.09209 24.09445 0.01423
C 2.43408 32.66537 0.00245
