404
Graphene
C 34.40701 0.026 0.01295
C 12.28213 32.72398 -0.01046
C 13.7741 31.89407 -0.00891
C 13.57594 30.40986 0.02819
C 12.25515 29.80419 0.00165
C 12.21364 28.43795 -0.02971
C 13.45855 27.67822 0.02894
C 13.49767 26.23749 -0.01789
C 12.28132 25.60304 0.00444
C 12.2801 24.06803 -0.00925
C 13.50129 23.34021 0.01877
C 13.60579 21.90377 0.01363
C 12.27755 21.17461 -0.02162
C 12.33455 19.76252 0.00415
C 13.68983 18.88394 -0.0014
C 13.61735 17.44302 0.02162
C 12.23253 16.96531 0.0076
C 12.15577 15.5354 0.01241
C 13.40632 14.96007 -0.01454
C 13.59607 13.49583 0.01945
C 12.24587 12.72423 0.01416
C 12.29904 11.2998 0.03542
C 9.81971 0.07646 -0.02689
C 13.53587 10.62706 0.02299
C 11.02361 0.74473 -0.01536
C 9.83994 2.92469 -0.00428
C 9.82932 25.56635 0.00057
C 9.87028 24.13897 -0.01634
C 11.12046 23.42059 -0.00334
C 11.04172 21.98743 0.02339
C 9.88396 21.25851 0.01641
C 9.87803 19.86363 -0.00719
C 11.10192 19.16557 0.01364
C 11.02349 17.71493 -0.01062
C 9.80245 17.13173 -0.00033
C 9.80178 15.59057 0.03589
C 11.01697 14.86298 -0.02759
C 11.01372 13.44545 0.0402
C 9.79633 12.74271 0.00572
C 9.80841 11.32118 0.03592
C 11.03977 10.63755 0.00406
C 11.08712 9.19043 0.00943
C 9.78914 8.53411 0.02841
C 9.8658 7.18035 -0.01111
C 11.11232 6.43161 -0.01275
C 11.0902 5.01959 0.00985
C 9.77703 4.34665 -0.02245
C 11.04507 2.21512 0.03101
C 13.51452 9.25311 0.00244
C 12.30418 8.53064 -0.01717
C 12.29004 7.15642 0.05265
C 14.75879 7.19918 -0.02815
C 16.03213 6.44665 -0.04147
C 15.96953 5.03566 -0.05302
C 14.77528 4.26463 0.00213
C 14.71996 2.7757 -0.00066
C 16.03316 2.2123 -0.00289
C 15.96 0.77473 0.00028
C 14.75952 0.01256 -0.02213
C 16.95924 32.74893 0.03698
C 18.2819 31.95939 -0.00109
C 18.33803 30.54634 -0.00491
C 17.27395 29.73215 0.03338
C 17.20218 28.35564 -0.0258
C 18.42226 27.62882 -0.0331
C 18.37928 26.30435 -0.00316
C 17.11099 25.60014 0.02188
C 17.219 24.15881 -0.01979
C 18.36579 23.44254 0.02691
C 18.48959 22.03153 -0.01581
C 17.2765 21.32111 0.01452
C 17.35656 19.81768 0.04892
C 14.70864 8.5314 0.03505
C 15.94632 9.23787 0.01443
C 15.95398 10.69942 0.00979
C 14.72425 11.37723 -0.00481
C 13.52994 6.4548 -0.01952
C 13.64293 4.99021 -0.02813
C 12.36688 4.28949 0.00374
C 12.30345 2.90294 0.00052
C 13.48963 2.15135 -0.03682
C 13.49349 0.74951 0.01965
C 12.28182 0.03891 0.02058
C 14.97087 32.70307 -0.01957
C 14.58476 28.50694 -0.0108
C 15.81007 27.78849 -0.00368
C 11.02599 26.29385 0.00093
C 15.90552 26.27262 -0.02696
C 14.7094 24.0854 0.00228
C 15.98809 23.38838 0.00798
C 15.99502 21.9787 0.00422
C 14.88519 21.1056 0.0351
C 14.92399 19.57233 -0.03113
C 16.28167 18.90607 0.02098
C 14.58798 15.8167 0.01848
C 15.8752 15.18233 -0.00619
C 15.98814 13.65373 -0.02162
C 14.73858 12.841 0.00889
C 14.70304 25.52878 -0.00114
C 18.56097 19.20257 -0.00111
C 10.992 27.68275 0.01291
C 9.77958 29.86691 -0.00191
C 2.37484 4.26526 0.00643
C 2.47097 2.85189 -0.01509
C 3.7024 2.14485 0.03267
C 3.58031 0.80298 0.02374
C 2.4 0.05045 0.00402
C 4.83243 32.77072 0.0073
C 6.0837 32.08588 0.0174
C 6.05349 30.61812 0.03828
C 4.80079 29.91123 0.01226
C 4.86079 28.44531 -0.00279
C 6.05022 27.72848 0.01996
C 6.11369 26.32993 -0.03996
C 4.87518 25.62215 0.01465
C 4.90631 24.1544 -0.00074
C 6.15487 23.49525 -0.00518
C 6.1812 22.00312 0.0086
C 4.94528 21.30939 -0.00643
C 4.89402 19.87605 0.017
C 6.13417 19.16572 -0.03113
C 6.18672 17.81649 -0.02566
C 4.8418 17.06971 -0.00094
C 3.63655 4.98864 0.00907
C 4.85609 15.63672 0.02322
C 3.66651 6.40907 0.02379
C 2.45197 8.51805 -0.003
C 3.70968 30.59858 0.00081
C 2.37655 29.7931 0.00245
C 2.45644 28.40703 0.02728
C 3.64106 27.6959 -0.00039
C 3.65988 26.24301 0.0064
C 2.45462 25.61083 0.00211
C 2.44112 24.10377 -0.00449
C 3.67615 23.46535 -0.01979
C 3.62131 22.03249 0.02784
C 2.38096 21.26799 -0.01977
C 2.43422 19.87263 -0.00561
C 3.6046 19.1662 0.00208
C 3.60328 17.80449 0.01707
C 2.43738 17.05992 0.02769
C 2.35127 15.58156 -0.03291
C 3.61743 14.9292 -0.04999
C 3.65668 13.55247 0.04505
C 2.34315 12.81594 0.03284
C 2.40276 11.38736 -0.04307
C 3.58605 10.6343 0.03189
C 3.66163 9.28952 0.00031
C 2.43521 7.10154 0.01402
C 6.16848 14.93616 -0.00725
C 6.17077 13.595 -0.05697
C 4.89759 12.82528 0.01087
C 8.59351 17.77428 -0.04848
C 7.43172 17.02683 -0.00892
C 7.37511 15.65711 -0.01362
C 8.57263 14.921 -0.0008
C 8.51521 13.52638 0.0288
C 7.33791 12.79491 0.00393
C 7.39811 11.37076 0.00895
C 8.60737 10.67305 0.00685
C 8.62233 9.25837 0.02888
C 7.39256 8.57059 -0.00482
C 7.39475 7.16441 -0.01384
C 8.60163 6.53427 0.03693
C 8.58203 5.12702 0.01745
C 7.39506 4.35841 0.00488
C 7.37318 2.97265 -0.01004
C 8.60074 2.24682 -0.02896
C 8.54558 0.872 -0.00131
C 7.30687 0.10867 -0.01118
C 9.79495 32.7827 -0.014
C 10.95085 31.99822 0.02147
C 11.00047 30.56917 0.00373
C 8.57037 19.21938 0.01572
C 7.39815 19.93488 -0.00095
C 7.43336 21.39125 0.03007
C 8.64763 22.06407 0.00054
C 4.84509 11.38252 -0.01343
C 6.04911 10.65392 0.00988
C 6.06775 9.28974 0.0276
C 4.86662 8.54247 0.01305
C 4.91509 7.1192 -0.00077
C 6.1287 6.46365 0.03368
C 6.13511 5.01805 -0.02929
C 4.91864 4.37139 -0.00966
C 4.90039 2.86859 -0.03337
C 6.14276 2.31201 0.01227
C 9.79252 28.42074 0.00438
C 6.09431 0.82722 0.00873
C 7.33167 32.73557 0.00848
C 8.54041 32.01632 -0.01303
C 8.55492 30.5914 -0.01378
C 7.27172 29.8585 0.02635
C 7.34068 28.4526 0.0127
C 8.56819 27.71746 0.01396
C 8.5571 26.34539 0.01849
C 7.32576 25.60776 -0.01142
C 7.34652 24.18783 -0.00562
C 8.59589 23.45411 -0.00494
C 4.8369 0.05836 -0.00049
C 18.51928 17.79792 -0.03557
C 17.12884 17.34087 0.03754
C 17.13938 15.82081 0.01739
C 29.53018 24.01998 -0.00971
C 30.87765 23.20873 0.01518
C 29.63313 11.32339 0.01908
C 30.77612 10.58168 0.07705
C 30.81463 9.17467 0.0103
C 29.49587 8.58177 0.02108
C 29.47679 7.10703 0.00716
C 30.75148 6.40309 0.00307
C 30.75219 4.9546 0.00346
C 29.49533 4.28829 0.01713
C 29.48572 2.89001 -0.01694
C 30.71 2.15127 0.01428
C 30.76622 0.62119 -0.02142
C 29.50817 0.03157 0.0544
C 32.0169 32.65868 0.00026
C 33.19832 31.9554 0.00682
C 33.15502 30.49524 -0.01779
C 31.94098 29.83494 0.03794
C 31.92012 28.33725 0.01927
C 33.08569 27.60445 0.01574
C 33.15344 26.25115 -0.02383
C 29.46803 25.53429 -0.03735
C 31.93113 25.56231 -0.01429
C 30.7209 26.23694 -0.00944
C 29.40344 28.33737 -0.01461
C 28.19362 27.59153 0.01699
C 28.18289 26.19937 -0.00416
C 26.9987 25.37122 0.01177
C 26.95386 23.9787 0.04266
C 28.2708 23.41011 0.01324
C 27.03247 11.31476 0.0014
C 28.26478 10.81045 0.00924
C 28.34749 9.36741 0.02326
C 27.08486 8.59296 0.00261
C 27.07376 7.10825 0.03265
C 28.30702 6.39396 -0.02049
C 28.22846 4.956 -0.01854
C 27.04187 4.28284 -0.01415
C 27.03604 2.84029 -0.03039
C 28.29308 2.16849 0.01836
C 28.22003 0.74305 0.03531
C 27.07704 34.04547 -0.00669
C 29.49491 32.66703 0.0101
C 30.70493 31.87378 0.01705
C 30.73996 30.51242 -0.0405
C 29.46831 29.84215 -0.01303
C 30.68371 27.70007 -0.02155
C 31.93606 24.09977 -0.0136
C 33.1477 23.42733 0.00594
C 33.04653 22.01089 -0.02474
C 1.20042 21.91184 0.02712
C 34.30136 21.20239 -0.02213
C 34.33567 19.78395 0.01951
C 1.22908 19.20608 -0.01678
C 1.18505 17.82832 0.01223
C 34.38814 17.11684 0.00648
C 34.2844 15.72066 0.02114
C 1.09786 14.93852 -0.02957
C 1.0923 13.48231 0.00343
C 34.27567 12.79698 -0.02656
C 34.43087 11.34984 -0.02442
C 1.21711 10.63014 -0.00027
C 1.24568 9.18561 -0.00583
C 34.3995 8.48651 -0.02302
C 34.41556 7.08875 -0.02849
C 1.23327 6.43599 0.02931
C 1.19851 4.96329 0.00628
C 34.39885 4.2648 -0.0345
C 34.40976 2.84963 -0.00931
C 1.24053 2.18871 -0.00939
C 1.16809 0.79467 -0.00468
C 1.22191 23.37464 0.00723
C 34.41636 24.08643 0.03076
C 34.37516 25.47993 -0.05239
C 1.1382 26.20759 -0.00598
C 31.55832 21.62118 0.00369
C 33.19651 14.94296 0.00455
C 32.94243 13.54409 -0.00644
C 31.92452 12.61096 -0.01839
C 32.06481 11.24593 0.00137
C 33.2951 10.58781 0.00199
C 33.20012 9.21042 0.04381
C 31.91369 8.4632 0.02806
C 31.94249 7.10416 0.01504
C 33.17441 6.35768 -0.00069
C 26.99472 28.3065 0.01799
C 33.17511 4.9449 0.04926
C 31.89888 2.83104 0.00349
C 33.15913 2.16484 -0.00323
C 33.22668 0.72677 -0.00841
C 32.00196 34.06075 0.0001
C 34.38823 32.63429 -0.02927
C 1.18459 31.99905 -0.01404
C 1.12 30.5349 0.01027
C 34.35366 29.80633 0.01831
C 34.37918 28.33996 -0.01037
C 1.16608 27.6628 -0.00439
C 31.91572 4.25985 -0.03838
C 26.98902 29.78391 0.01259
C 28.26303 30.51788 0.01495
C 28.19811 31.96739 0.00235
C 19.76534 21.35229 0.01087
C 19.71139 19.96512 0.00199
C 20.80255 19.06209 0.01511
C 20.90109 17.74779 -0.00478
C 19.66952 16.9834 -0.01662
C 19.58621 15.61357 -0.01185
C 20.86155 14.93587 0.01126
C 21.01924 13.51161 0.01852
C 19.7461 12.8382 -0.00381
C 19.7043 11.41318 0.03046
C 20.95825 10.67794 0.0296
C 20.93569 9.24587 0.03374
C 19.71308 8.5388 -0.02845
C 19.65684 7.08554 -0.03213
C 20.9167 6.42656 0.02239
C 20.9318 4.95429 0.01153
C 19.69257 4.27347 0.02734
C 19.64624 2.85585 -0.0055
C 20.85495 2.10365 0.01515
C 20.9137 0.73013 -0.00225
C 19.57942 34.07512 0.00071
C 20.95989 22.06709 -0.01527
C 20.82013 23.43145 0.00096
C 19.61155 24.07334 0.01277
C 19.63872 25.52591 -0.02422
C 18.38208 15.05731 0.00755
C 18.50113 13.53952 -0.0054
C 17.23898 12.91938 0.00667
C 17.27596 11.39344 0.00143
C 18.48116 10.64517 -0.017
C 18.44506 9.15428 0.00364
C 17.21636 8.50782 -0.00831
C 17.24879 7.09826 -0.02957
C 18.44407 6.40029 -0.04422
C 18.51019 5.03666 0.00654
C 22.11898 32.60926 -0.01107
C 17.2419 4.26363 -0.00703
C 18.50699 2.10681 -0.00652
C 18.4042 0.67595 0.0058
C 17.1559 0.02898 -0.00865
C 19.55453 32.65799 0.00675
C 20.8571 31.93334 -0.00311
C 20.80975 30.45365 0.00742
C 19.72971 29.79628 -0.01594
C 19.57686 28.38623 0.0106
C 20.85711 27.68273 -0.01154
C 20.85828 26.24091 -0.01721
C 17.20178 2.85731 -0.04076
C 3.5918 32.02569 -0.02805
C 23.36204 31.95273 -0.01586
C 22.0741 29.84475 -0.02118
C 24.56988 29.7814 0.00195
C 24.57217 28.34361 -0.00802
C 25.82552 27.5767 -0.00218
C 25.72198 26.10654 -0.01654
C 24.48399 25.39361 -0.00037
C 24.41426 23.99095 -0.0032
C 25.70862 23.45054 0.00622
C 24.70922 12.69357 -0.02815
C 24.55212 11.36349 -0.00942
C 25.83216 10.61068 0.00487
C 25.84268 9.27952 0.00826
C 24.61971 8.48493 -0.00294
C 24.62058 7.10473 0.00152
C 25.92388 6.41336 0.01257
C 25.84209 4.95105 0.02316
C 24.63083 4.26841 0.04185
C 24.62688 2.91192 0.00194
C 25.80509 2.13198 -0.00621
C 25.80878 0.67684 0.02611
C 24.6146 34.07804 0.02198
C 27.03503 32.59855 0.01094
C 25.81213 30.44585 0.00996
C 25.76289 31.87689 0.04306
C 24.59745 32.64853 0.00367
C 22.1497 34.02802 -0.01679
C 22.14051 28.40519 0.00733
C 23.36168 27.68429 -0.00178
C 23.35704 26.25262 0.00768
C 22.11513 25.58028 -0.0276
C 22.04603 24.10428 0.03005
C 23.1406 23.10849 -0.04078
C 22.36849 21.5133 0.02117
C 22.1677 15.57698 0.02737
C 23.24382 14.97491 -0.00498
C 23.62254 13.61233 0.00135
C 23.36075 30.54672 -0.01971
C 22.26182 12.86073 0.03102
C 23.36751 10.63952 0.01423
C 23.40776 9.17922 -0.00285
C 22.17107 8.44234 -0.009
C 22.17498 7.06173 -0.01199
C 23.34953 6.31745 -0.00229
C 23.40089 4.89792 -0.00938
C 22.19697 4.19593 -0.0264
C 22.09735 2.7576 -0.01154
C 23.40961 2.15403 0.00684
C 23.35884 0.71774 -0.01052
C 22.23661 11.35787 0.02555
C 2.42302 32.74383 -0.01386
