373
Graphene
C 34.41609 0.12069 0.01295
C 9.78826 8.543 0.00244
C 9.81702 7.14642 -0.01717
C 10.97307 6.35429 0.05265
C 10.93191 4.95216 -0.01952
C 9.62335 4.31298 -0.02813
C 9.70055 2.85486 0.00374
C 10.99332 2.21899 0.00052
C 11.00163 0.80689 -0.03682
C 9.73498 0.1552 0.01965
C 12.24718 32.63436 0.02058
C 13.41429 31.86509 -0.01957
C 13.45398 30.46413 -0.0108
C 12.21236 29.83343 -0.00368
C 12.2537 28.35982 -0.02696
C 13.53506 27.67803 -0.00114
C 13.50639 26.31257 0.00228
C 12.2469 25.66653 0.00798
C 12.34239 24.19193 0.00422
C 13.54963 23.41658 0.0351
C 11.051 9.24069 0.02299
C 13.47941 21.95163 -0.03113
C 11.06917 10.63572 0.03542
C 9.90034 12.80638 0.01945
C 9.71033 32.72742 -0.02689
C 10.90851 31.9862 -0.01046
C 10.99755 30.52472 -0.00891
C 9.77798 29.85454 0.02819
C 9.75961 28.45015 0.00165
C 10.99533 27.76466 -0.02971
C 10.96793 26.31552 0.02894
C 9.8072 25.57011 -0.01789
C 9.80987 24.12777 0.00444
C 11.09549 23.41409 -0.00925
C 11.11126 21.9466 0.01877
C 9.85219 21.38721 0.01363
C 9.88504 19.94241 -0.02162
C 11.06552 19.17168 0.00415
C 11.03676 17.76983 -0.0014
C 9.88667 17.08988 0.02162
C 9.94384 15.5572 0.0076
C 11.16197 14.94829 0.01241
C 11.22954 13.51965 -0.01454
C 9.85287 11.40574 0.01416
C 12.27957 21.19416 0.02098
C 12.3258 19.78287 0.01848
C 13.5634 19.08946 -0.00619
C 16.03992 26.06287 -0.01581
C 14.81633 25.44337 0.01452
C 14.77134 24.13435 0.04892
C 16.03377 23.34133 -0.00111
C 15.98235 21.85078 -0.03557
C 14.75195 21.32965 0.03754
C 14.73561 19.86119 0.01739
C 15.97325 19.10649 0.00755
C 16.01268 17.71957 -0.0054
C 14.87122 16.91521 0.00667
C 14.86097 15.58877 0.00143
C 16.18611 14.98261 -0.017
C 16.06362 13.54279 0.00364
C 14.80339 12.81518 -0.00831
C 14.86167 11.3432 -0.02957
C 15.9918 10.57861 -0.04422
C 15.92045 9.19264 0.00654
C 14.70117 8.52906 -0.00703
C 14.7086 7.05841 -0.04076
C 15.99358 27.63024 0.02691
C 14.79895 28.38626 -0.01979
C 14.70129 29.76215 0.02188
C 15.85846 30.43448 -0.00316
C 13.64379 17.62725 -0.02162
C 12.34249 17.0429 0.00889
C 12.41536 15.59346 -0.00481
C 13.63836 14.84678 0.00979
C 13.58611 13.48224 0.01443
C 12.34732 12.73453 0.03505
C 12.23604 11.3548 -0.02815
C 13.53001 10.68869 -0.04147
C 13.50542 9.29904 -0.05302
C 7.27486 0.02572 -0.01536
C 12.22172 8.49818 0.00213
C 13.42886 6.43483 -0.00289
C 13.41546 4.96553 0.00028
C 12.21178 4.24054 -0.02213
C 12.23472 2.87954 0.03698
C 13.42205 2.04823 -0.00109
C 13.39895 0.70641 -0.00491
C 12.15108 34.06548 0.03338
C 14.69513 32.6437 -0.0258
C 15.85141 31.9231 -0.0331
C 12.20849 7.13805 -0.00066
C 8.50082 0.76462 0.03101
C 8.4874 2.13629 -0.00428
C 7.29033 2.91867 -0.02245
C 3.65909 5.05508 0.03368
C 2.48851 4.34218 -0.02929
C 2.37705 2.94916 -0.00966
C 3.60305 2.17839 -0.03337
C 3.53249 0.7381 0.01227
C 2.29532 0.13076 0.00873
C 4.81311 32.77412 -0.00049
C 6.04 32.00418 0.00848
C 6.02615 30.57401 -0.01303
C 4.79335 29.92011 -0.01378
C 4.84837 28.4856 0.02635
C 6.06736 27.78347 0.0127
C 6.05802 26.36566 0.01396
C 4.84088 25.55544 0.01849
C 4.962 24.12761 -0.01142
C 6.16968 23.4628 -0.00562
C 6.19589 22.01863 -0.00494
C 4.8973 21.3452 0.00054
C 4.9538 19.99176 0.03007
C 3.66469 6.46138 -0.00077
C 2.471 7.10479 0.01305
C 2.36364 8.56844 0.0276
C 3.6017 9.31102 0.00988
C 3.62278 30.62598 0.0174
C 2.363 29.87742 0.03828
C 2.43374 28.48342 0.01226
C 3.6558 27.83807 -0.00279
C 3.74383 26.27253 0.01996
C 2.39377 25.61501 -0.03996
C 2.40277 24.18374 0.01465
C 3.69381 23.45289 -0.00074
C 3.6526 22.05177 -0.00518
C 6.21829 19.27723 -0.00095
C 2.3984 21.37157 0.0086
C 3.79166 19.3231 0.017
C 3.7087 17.81565 -0.03113
C 2.46266 17.14783 -0.02566
C 2.4557 15.74308 -0.00094
C 3.63096 14.92665 0.02322
C 3.70454 13.57216 -0.00725
C 2.3682 12.83069 -0.05697
C 2.50336 11.4406 0.01087
C 3.68816 10.70472 -0.01343
C 2.48043 19.90498 -0.00643
C 15.86718 6.29943 -0.00652
C 6.19052 17.86436 0.01572
C 4.93966 15.68838 -0.00892
C 8.60597 23.52387 -0.01634
C 8.61956 22.08499 -0.00334
C 7.39721 21.32268 0.02339
C 7.41041 19.94763 0.01641
C 8.63842 19.19116 -0.00719
C 8.58004 17.73259 0.01364
C 7.41585 17.0245 -0.01062
C 7.44896 15.73484 -0.00033
C 8.70038 14.98449 0.03589
C 8.64731 13.52716 -0.02759
C 7.4244 12.92007 0.0402
C 7.35742 11.4618 0.00572
C 8.62311 10.70237 0.03592
C 8.61054 9.27945 0.00406
C 7.33842 8.57357 0.00943
C 7.37761 7.14325 0.02841
C 8.6289 6.39103 -0.01111
C 8.46064 5.03303 -0.01275
C 7.23353 4.36208 0.00985
C 7.37404 24.15771 0.00057
C 7.34235 25.55944 0.00093
C 8.59858 26.19565 0.01291
C 8.63996 27.65239 0.00438
C 6.13973 14.94862 -0.01362
C 6.17362 13.49891 -0.0008
C 4.95025 12.82777 0.0288
C 4.87016 11.44931 0.00393
C 6.13049 10.71874 0.00895
C 6.15393 9.33207 0.00685
C 4.87535 8.57032 0.02888
C 4.93313 7.2074 -0.00482
C 6.08762 6.37631 -0.01384
C 4.89844 17.16223 -0.04848
C 6.00636 5.05074 0.03693
C 4.85996 2.87964 0.00488
C 6.04541 2.19101 -0.01004
C 6.0689 0.78652 -0.02896
C 4.82733 0.07092 -0.00131
C 7.34526 32.70041 -0.01118
C 8.47186 32.01115 -0.014
C 8.49844 30.61884 0.02147
C 7.28986 29.86831 0.00373
C 7.34475 28.43765 -0.00191
C 4.78861 4.26604 0.01745
C 3.56568 32.10586 0.0073
C 16.04045 4.92846 0.0058
C 14.64962 2.79002 0.00675
C 30.68952 2.22272 0.00716
C 30.70476 0.74074 0.00307
C 29.4703 34.07994 0.00346
C 31.90231 32.72576 0.01713
C 33.0786 32.03113 -0.01694
C 33.09608 30.53369 0.01428
C 31.89646 29.86491 -0.02142
C 31.92687 28.44847 0.0544
C 33.10785 27.71665 0.00026
C 33.15298 26.29723 0.00682
C 31.92102 25.62209 -0.01779
C 31.94018 24.16805 0.03794
C 33.17185 23.48144 0.01927
C 33.15647 22.03214 0.01574
C 31.92633 21.28619 -0.02383
C 31.97558 19.88777 -0.01429
C 33.23779 19.14248 -0.0136
C 33.11882 17.78066 0.00594
C 31.8372 17.03127 -0.02474
C 29.4545 2.93725 0.02108
C 31.84235 15.58487 0.00369
C 29.5249 4.30651 0.0103
C 30.68088 6.42133 0.01908
C 29.45177 32.66066 0.00261
C 30.69995 31.99824 0.03265
C 30.71991 30.59869 -0.02049
C 29.46807 29.82602 -0.01854
C 29.41761 28.4263 -0.01415
C 30.71149 27.76316 -0.03039
C 30.68106 26.27682 0.01836
C 29.42579 25.55974 0.03531
C 29.51445 24.15163 -0.00669
C 30.7839 23.36148 0.0101
C 30.6379 21.91733 0.01705
C 29.3893 21.09295 -0.0405
C 29.4072 19.62797 -0.01303
C 30.68525 19.21377 -0.01461
C 30.78428 17.78207 -0.02155
C 29.26292 17.36619 -0.00944
C 29.17523 15.92735 -0.03735
C 30.52971 14.99719 -0.00971
C 30.57774 13.57362 0.01518
C 30.78136 5.05278 0.07705
C 33.01754 14.92501 0.00455
C 33.05925 13.46541 -0.00644
C 31.83095 12.76089 -0.01839
C 0.03195 19.87965 0.01951
C 1.27157 19.1988 -0.01678
C 1.17307 17.79094 0.01223
C 34.42475 17.03601 0.00648
C 34.24333 15.59455 0.02114
C 1.15878 14.98845 -0.02957
C 1.1594 13.54336 0.00343
C 34.38056 12.79329 -0.02656
C 0.02917 11.47996 -0.02442
C 1.26244 10.78302 -0.00027
C 1.24193 9.31398 -0.00583
C 0.02115 8.56075 -0.02302
C 0.02657 7.21215 -0.02849
C 1.22217 6.47976 0.02931
C 1.19702 5.10296 0.00628
C 34.36496 4.36979 -0.0345
C 34.37209 3.00808 -0.00931
C 1.19198 2.24811 -0.00939
C 1.14827 0.81185 -0.00468
C 34.35195 21.31279 -0.02213
C 1.18636 22.03532 0.02712
C 1.19693 23.47132 0.00723
C 34.36132 24.18827 0.03076
C 32.06464 11.39373 0.00137
C 33.25211 10.71459 0.00199
C 33.25809 9.28198 0.04381
C 31.94673 8.68733 0.02806
C 31.8012 7.29003 0.01504
C 33.14571 6.55392 -0.00069
C 33.14162 5.14346 0.04926
C 32.03446 4.37344 -0.03838
C 31.99213 2.98046 0.00349
C 26.96226 0.10447 0.02326
C 33.16093 2.23203 -0.00323
C 31.97014 0.02245 0.0001
C 34.29205 32.73992 -0.02927
C 1.13364 31.98417 -0.01404
C 1.17656 30.55326 0.01027
C 34.31061 29.80233 0.01831
C 34.3464 28.42568 -0.01037
C 1.12891 27.72999 -0.00439
C 1.17423 26.32348 -0.00598
C 34.40814 25.62128 -0.05239
C 33.19532 0.78734 -0.00841
C 28.19701 0.8016 0.00924
C 28.18129 2.17307 0.0014
C 26.97586 3.05458 0.01324
C 18.31479 2.07531 0.02239
C 18.38967 0.63568 0.01153
C 17.10513 34.00144 0.02734
C 19.63743 32.64771 -0.0055
C 20.93601 31.92935 0.01515
C 20.88959 30.42937 -0.00225
C 19.61608 29.76417 0.00071
C 19.69956 28.37092 -0.01107
C 20.85799 27.49164 -0.01586
C 20.79642 26.15006 -0.01971
C 19.62685 25.41464 -0.02118
C 19.68811 24.03282 0.00733
C 20.91576 23.27909 -0.00178
C 20.8666 21.92927 0.00768
C 19.76889 21.30475 -0.0276
C 19.50144 2.80587 0.03005
C 20.72503 2.13893 -0.04078
C 20.74722 0.72409 0.02117
C 19.6 34.05194 0.02737
C 17.16869 2.76727 -0.03213
C 17.17907 4.17875 -0.02845
C 17.15186 12.73544 0.03374
C 18.25868 13.39186 0.0296
C 15.79774 2.06728 -0.00311
C 15.83316 0.63451 0.00742
C 14.66913 34.0198 -0.01594
C 17.17902 32.63989 0.0106
C 18.40443 31.94884 -0.01154
C 18.372 30.46841 -0.01721
C 17.07781 29.80152 -0.02422
C 17.17371 28.32726 0.01277
C 18.45575 27.61816 0.00096
C 22.02789 32.72022 -0.00498
C 18.44739 26.20252 -0.01527
C 17.28873 23.9638 0.00199
C 18.53899 23.19283 0.01511
C 18.42867 21.79605 -0.00478
C 17.19627 21.0489 -0.01662
C 17.34466 19.61348 -0.01185
C 18.14303 18.41972 0.01126
C 17.41819 17.1181 0.01852
C 17.48745 15.74393 -0.00381
C 18.37543 14.65808 0.03046
C 17.27407 25.37721 0.01087
C 14.5969 4.21563 -0.00865
C 23.1994 32.01412 0.00135
C 22.06363 29.70613 0.02555
C 25.83701 2.19729 0.00826
C 25.78438 0.76992 -0.00294
C 24.54568 0.06893 0.00152
C 26.97685 32.75283 0.01257
C 28.16729 32.00579 0.02316
C 28.20437 30.55646 0.04185
C 26.94602 29.81019 0.00194
C 26.93737 28.3208 -0.00621
C 28.21311 27.61902 0.02611
C 28.17749 26.25931 0.02198
C 26.97521 25.57262 0.01094
C 27.08519 24.13163 0.00235
C 28.25239 23.40346 0.01495
C 28.19177 21.76069 0.01259
C 26.96443 21.39323 0.01799
C 28.61635 18.41116 0.01699
C 28.56063 14.81995 -0.00416
C 28.50299 5.23661 0.01177
C 27.12807 4.54885 0.04266
C 24.41166 2.87058 0.00487
C 24.80271 4.30869 -0.00942
C 25.76597 4.96193 -0.02815
C 25.90149 22.03861 0.00622
C 22.08365 28.23611 0.01423
C 23.39434 27.58247 -0.00285
C 23.31652 26.14963 -0.009
C 22.10002 25.4122 -0.01199
C 22.08565 24.01971 -0.00229
C 23.45215 23.2945 -0.00938
C 21.99857 2.82529 -0.0264
C 23.2505 2.16279 -0.01154
C 23.28768 0.7331 0.00684
C 23.32485 30.57592 0.03102
C 21.99498 0.00025 -0.01052
C 25.76914 31.95626 0.00367
C 25.77118 30.56888 0.04306
C 24.52618 29.89267 0.00996
C 24.58034 28.33331 0.00195
C 25.7909 27.5575 -0.00802
C 25.75923 26.17692 -0.00218
C 24.49089 25.42913 -0.01654
C 24.53813 24.04693 -0.00037
C 25.86187 23.44839 -0.0032
C 24.57015 32.71848 -0.01679
C 2.3282 32.76367 0.00402
