429
Graphene
C 34.39062 34.02869 0.01295
C 13.54349 23.50614 0.03589
C 13.52429 22.01874 -0.02759
C 12.32326 21.33507 0.0402
C 12.28717 19.9094 0.00572
C 13.46742 19.12878 0.03592
C 13.47951 17.70153 0.00406
C 12.31489 16.98188 0.00943
C 12.31803 15.65849 0.02841
C 13.50693 14.85568 -0.01111
C 13.57187 13.4883 -0.01275
C 12.33149 24.19319 -0.00033
C 12.28075 12.74973 0.00985
C 13.51149 10.70306 -0.00428
C 13.54424 9.24343 0.03101
C 12.34797 8.47836 -0.01536
C 12.30538 7.0962 -0.02689
C 13.53618 6.35767 -0.01046
C 13.50437 4.88259 -0.00891
C 12.25204 4.14372 0.02819
C 12.2512 2.73289 0.00165
C 13.48537 2.088 -0.02971
C 13.54915 0.70319 0.02894
C 12.31092 11.32018 -0.02245
C 12.30035 25.62874 -0.01062
C 13.48565 26.30323 0.01364
C 13.46254 27.76378 -0.00719
C 11.08555 17.72472 0.00685
C 9.80919 17.01989 0.02888
C 9.7684 15.63104 -0.00482
C 11.0147 14.94977 -0.01384
C 11.03781 13.55514 0.03693
C 9.80884 12.82452 0.01745
C 9.88187 11.44836 0.00488
C 11.06652 10.64599 -0.01004
C 11.0982 9.30136 -0.02896
C 9.88622 8.60686 -0.00131
C 9.90852 7.07199 -0.01118
C 11.07016 6.38773 -0.014
C 11.03859 4.97066 0.02147
C 9.76272 4.29602 0.00373
C 9.68384 2.89836 -0.00191
C 11.03669 2.08923 0.00438
C 11.05071 0.68886 0.01291
C 9.81912 0.04666 0.00093
C 12.30844 32.69514 0.00057
C 13.51002 31.97553 -0.01634
C 13.44225 30.55428 -0.00334
C 12.20597 29.86114 0.02339
C 12.20192 28.50999 0.01641
C 12.3366 0.0333 -0.01789
C 14.7763 32.67511 0.00444
C 16.02071 31.94176 -0.00925
C 15.96726 30.58437 0.01877
C 15.98045 0.71805 0.00228
C 14.75555 34.06379 0.00798
C 17.19876 32.65229 0.00422
C 18.46401 31.92374 0.0351
C 18.38702 30.51967 -0.03113
C 17.13182 29.83603 0.02098
C 17.15171 28.36823 0.01848
C 18.3728 27.62853 -0.00619
C 18.38845 26.18912 -0.02162
C 17.12161 25.51738 0.00889
C 17.19136 24.09933 -0.00481
C 18.45536 23.35319 0.00979
C 18.42792 22.00281 0.01443
C 17.11967 21.30767 0.03505
C 17.19325 19.8743 -0.02815
C 18.42102 19.14676 -0.04147
C 18.45441 17.76891 -0.05302
C 17.17773 17.06559 0.00213
C 17.18882 15.66005 -0.00066
C 18.45204 14.98463 -0.00289
C 18.48418 13.5585 0.00028
C 17.4009 12.70153 -0.02213
C 17.17946 11.37286 0.03698
C 15.8944 2.14294 -0.00114
C 11.10753 19.15358 0.00895
C 14.64798 2.81142 -0.02696
C 15.92914 4.98729 -0.0108
C 14.72717 29.92547 0.01363
C 14.69609 28.44077 -0.02162
C 15.89492 27.70369 0.00415
C 15.94797 26.26967 -0.0014
C 14.74836 25.59754 0.02162
C 14.7797 24.18077 0.0076
C 15.9568 23.44565 0.01241
C 15.90263 22.03276 -0.01454
C 14.70921 21.2965 0.01945
C 14.71042 19.84951 0.01416
C 15.98823 19.14028 0.03542
C 15.97694 17.72943 0.02299
C 14.70605 16.96485 0.00244
C 14.69473 15.58052 -0.01717
C 16.04031 14.86402 0.05265
C 16.10057 13.49012 -0.01952
C 14.86729 12.75487 -0.02813
C 14.81477 11.32844 0.00374
C 15.97352 10.61392 0.00052
C 16.00728 9.25429 -0.03682
C 14.75049 8.49481 0.01965
C 14.76899 7.01312 0.02058
C 16.01342 6.42052 -0.01957
C 14.72926 4.26097 -0.00368
C 9.86845 19.89033 0.00393
C 9.85745 21.35712 0.0288
C 11.08351 22.13766 -0.0008
C 3.64537 2.0716 0.02728
C 3.70702 0.70656 -0.00039
C 2.44434 0.04814 0.0064
C 4.85065 32.70888 0.00211
C 6.08832 32.00255 -0.00449
C 6.11754 30.55455 -0.01979
C 4.909 29.82071 0.02784
C 4.83069 28.42607 -0.01977
C 6.12515 27.72994 -0.00561
C 6.16581 26.27915 0.00208
C 4.91201 25.58345 0.01707
C 4.9085 24.1925 0.02769
C 6.20975 23.42989 -0.03291
C 6.17963 22.0267 -0.04999
C 4.89451 21.36533 0.04505
C 4.97293 19.93813 0.03284
C 6.20915 19.18951 -0.04307
C 6.17138 17.72563 0.03189
C 4.92842 17.0159 0.00031
C 4.81391 15.62675 -0.003
C 6.05242 14.91368 0.01402
C 6.07666 13.48829 0.02379
C 4.83393 12.79174 0.00907
C 2.43093 2.82618 0.00245
C 4.84264 11.37357 0.00643
C 2.47371 4.27562 0.00081
C 3.58653 6.42967 -0.01386
C 3.68295 30.50928 0.00267
C 2.50376 29.80124 0.00787
C 2.50065 28.33445 0.02426
C 3.7422 27.67866 0.01218
C 3.69038 26.23099 -0.01471
C 2.47379 25.54774 -0.02827
C 2.45329 24.1062 0.01078
C 3.66682 23.40908 -0.00112
C 3.66994 22.02193 0.03345
C 2.49067 21.33651 0.00748
C 2.46402 19.92563 0.00662
C 3.68889 19.19896 -0.0154
C 3.68863 17.69947 -0.01299
C 2.46976 17.06235 -0.00407
C 2.32385 15.64094 0.01138
C 3.56146 14.90616 0.03278
C 3.59795 13.47206 -0.00177
C 2.35483 12.78752 0.04421
C 2.43804 11.34341 0.00088
C 3.65503 10.68232 0.00828
C 3.64221 9.35053 -0.02375
C 2.46948 8.52019 0.00558
C 2.37823 7.14325 -0.0059
C 3.61334 5.05634 -0.02805
C 17.28755 8.5347 -0.00109
C 6.10073 10.78321 -0.01509
C 4.90915 8.61385 0.02374
C 7.34048 12.80305 -0.02929
C 7.39714 11.46315 -0.00966
C 8.61941 10.76432 -0.03337
C 8.62061 9.28776 0.01227
C 7.38369 8.65403 0.00873
C 7.31334 7.18611 -0.00049
C 8.586 6.45609 0.00848
C 8.5701 5.04264 -0.01303
C 7.30556 4.35578 -0.01378
C 7.37161 2.88847 0.02635
C 8.50698 2.1628 0.0127
C 8.56215 0.745 0.01396
C 7.38711 0.02554 0.01849
C 9.85553 32.71234 -0.01142
C 11.04088 31.9898 -0.00562
C 11.02039 30.58368 -0.00494
C 9.80895 29.92328 0.00054
C 9.81024 28.43985 0.03007
C 10.98951 27.73347 -0.00095
C 10.98028 26.34756 0.01572
C 9.7464 25.6286 -0.04848
C 9.91937 24.19276 -0.00892
C 11.08591 23.51531 -0.01362
C 8.53704 13.55198 0.03368
C 6.13959 9.34717 0.03267
C 8.58149 14.93428 -0.00077
C 7.37119 17.05158 0.0276
C 4.87335 7.13503 0.00402
C 6.13868 6.49692 0.0073
C 6.13324 5.08254 0.0174
C 4.88182 4.34132 0.03828
C 4.92469 2.82697 0.01226
C 6.11627 2.16867 -0.00279
C 6.19739 0.69371 0.01996
C 4.93054 0.03491 -0.03996
C 7.35116 32.70318 0.01465
C 8.56049 31.98965 -0.00074
C 8.54034 30.59317 -0.00518
C 7.33946 29.89985 0.0086
C 7.35379 28.47706 -0.00643
C 8.5701 27.78456 0.017
C 8.55954 26.29188 -0.03113
C 7.37478 25.53409 -0.02566
C 7.39339 24.1542 -0.00094
C 8.62498 23.49757 0.02322
C 8.61546 22.07652 -0.00725
C 7.36215 21.31227 -0.05697
C 7.42248 19.92716 0.01087
C 8.61069 19.17468 -0.01343
C 8.58581 17.7975 0.00988
C 7.37857 15.62763 0.01305
C 3.60995 32.02191 0.01913
C 17.22665 7.07319 -0.00491
C 18.45345 4.94635 -0.0258
C 29.52382 17.05178 -0.01461
C 29.47502 15.59912 -0.02155
C 30.67432 14.81657 -0.00944
C 30.71177 13.48775 -0.03735
C 29.46098 12.75706 -0.00971
C 29.51087 11.36729 0.01518
C 30.69507 10.60606 0.01908
C 30.70072 9.15683 0.07705
C 29.40149 8.43359 0.0103
C 29.43227 7.03111 0.02108
C 30.74855 17.79759 -0.01303
C 30.70544 6.34669 0.00716
C 29.56497 4.16167 0.00346
C 29.59717 2.72438 0.01713
C 30.82566 1.95546 -0.01694
C 30.79917 0.55231 0.01428
C 29.50717 34.02712 -0.02142
C 32.00386 28.47266 0.0544
C 33.20054 27.66445 0.00026
C 33.20449 26.24981 0.00682
C 31.9808 25.54077 -0.01779
C 31.97311 24.19108 0.03794
C 30.74574 4.88689 0.00307
C 30.73635 19.20023 -0.0405
C 29.4743 19.91353 0.01705
C 29.50689 21.31168 0.0101
C 28.24447 13.49561 0.02198
C 26.99419 12.79169 0.01094
C 27.06448 11.34674 0.00235
C 28.23896 10.64845 0.01495
C 28.23523 9.25188 0.01259
C 26.99392 8.50724 0.01799
C 27.05901 7.0385 0.01699
C 28.25103 6.28868 -0.00416
C 28.24963 4.95472 0.01177
C 27.06167 4.21884 0.04266
C 27.00243 2.77862 0.01324
C 28.30896 2.08131 0.0014
C 28.27532 0.68392 0.00924
C 27.03246 34.07827 0.02326
C 29.48976 32.59266 0.00261
C 29.42298 29.89434 0.03265
C 29.54867 28.47252 -0.02049
C 30.75799 27.7265 -0.01854
C 30.75736 26.30382 -0.01415
C 29.55715 25.64822 -0.03039
C 29.52375 24.22897 0.01836
C 30.73205 23.50428 0.03531
C 30.71197 22.05783 -0.00669
C 33.16886 23.45925 0.01927
C 33.11333 22.07546 0.01574
C 31.89377 21.34399 -0.02383
C 31.94221 19.88485 -0.01429
C 34.41538 24.08939 0.03076
C 1.21834 23.41536 0.00723
C 1.23018 22.03135 0.02712
C 34.41322 21.31529 -0.02213
C 0.04 19.85188 0.01951
C 1.26939 19.14359 -0.01678
C 1.21065 17.7341 0.01223
C 34.41697 17.01666 0.00648
C 34.30817 15.62144 0.02114
C 1.07492 14.84588 -0.02957
C 1.09359 13.4422 0.00343
C 34.29225 12.75341 -0.02656
C 34.36605 11.39009 -0.02442
C 1.20587 10.64913 -0.00027
C 1.20517 9.13723 -0.00583
C 34.35171 8.45655 -0.02302
C 34.42158 7.04606 -0.02849
C 1.21813 6.35829 0.02931
C 1.22871 4.97747 0.00628
C 0.03805 4.22324 -0.0345
C 0.00613 2.85226 -0.00931
C 1.22518 2.11625 -0.00939
C 1.19721 0.67264 -0.00468
C 0.03168 25.56041 -0.05239
C 28.25662 14.91356 0.02611
C 1.28477 26.27191 -0.00598
C 0.03781 28.29262 -0.01037
C 33.22542 19.1862 -0.0136
C 33.18425 17.80767 0.00594
C 31.96444 17.10777 -0.02474
C 31.90462 15.58571 0.00369
C 33.11929 14.88039 0.00455
C 33.10367 13.46715 -0.00644
C 31.88378 12.70168 -0.01839
C 31.94755 11.21555 0.00137
C 33.17466 10.53135 0.00199
C 33.09923 9.14156 0.04381
C 31.98371 8.437 0.02806
C 31.91402 7.09308 0.01504
C 33.14679 6.32823 -0.00069
C 33.18284 4.90727 0.04926
C 31.96992 4.14109 -0.03838
C 32.0049 2.77133 0.00349
C 33.24037 2.03718 -0.00323
C 33.18724 0.60928 -0.00841
C 32.02602 33.93683 0.0001
C 34.31953 32.65079 -0.02927
C 1.08034 31.98768 -0.01404
C 1.21466 30.50826 0.01027
C 0.16579 29.62083 0.01831
C 1.30083 27.63353 -0.00439
C 27.02284 15.61491 -0.00621
C 27.11097 17.00896 0.00194
C 28.35617 17.78177 0.04185
C 19.61907 2.82092 0.00675
C 20.85585 2.12685 -0.00311
C 20.85602 0.69449 0.00742
C 19.5743 34.06959 -0.01594
C 22.08904 32.59333 0.0106
C 23.3325 31.91526 -0.01154
C 23.35141 30.46912 -0.01721
C 22.08239 29.82887 -0.02422
C 22.09092 28.39127 0.01277
C 23.32353 27.68604 0.00096
C 23.34696 26.28685 -0.01527
C 22.06279 25.58465 0.01087
C 22.10117 24.19156 0.00199
C 23.36396 23.48847 0.01511
C 23.45384 22.09048 -0.00478
C 22.15044 21.36503 -0.01662
C 22.1294 19.9174 -0.01185
C 23.42561 19.18681 0.01126
C 23.36133 17.78415 0.01852
C 22.15756 17.08092 -0.00381
C 22.11301 15.69111 0.03046
C 23.39924 14.97821 0.0296
C 23.45332 13.51259 0.03374
C 19.65742 4.27568 -0.00865
C 22.21211 7.22461 -0.02845
C 20.87433 5.12447 0.0058
C 19.66608 7.02552 -0.04076
C 17.14903 4.21227 -0.0331
C 17.14399 2.83119 -0.00316
C 18.38947 2.10296 0.02188
C 18.41754 0.7137 -0.01979
C 17.24033 34.0447 0.02691
C 19.68453 32.70513 -0.01581
C 20.90168 31.90766 0.01452
C 20.89241 30.44904 0.04892
C 19.62428 29.79469 -0.00111
C 19.56068 28.33258 -0.03557
C 20.83729 27.7136 0.03754
C 20.81239 26.29422 0.01739
C 19.61465 25.49482 0.00755
C 19.69816 24.11165 -0.0054
C 20.87325 23.47047 0.00667
C 20.87275 22.01143 0.00143
C 19.6364 21.26876 -0.017
C 19.62354 19.90224 0.00364
C 20.89135 19.15768 -0.00831
C 20.93583 17.80365 -0.02957
C 19.74135 17.12583 -0.04422
C 19.69132 15.73765 0.00654
C 20.86627 14.95588 -0.00703
C 21.02487 6.67998 -0.00652
C 18.41189 6.32094 0.03338
C 23.40199 6.31668 -0.03213
C 22.03801 4.31504 0.01153
C 24.55847 8.49051 -0.0264
C 24.70982 7.09583 -0.01154
C 25.86853 6.39454 0.00684
C 25.74891 4.93292 -0.01052
C 24.59705 4.19996 -0.01679
C 24.53443 2.83737 0.00367
C 25.76956 2.08125 0.04306
C 25.70986 0.66258 0.00996
C 24.52697 34.0555 0.00195
C 27.03049 32.68368 -0.00802
C 28.2722 31.94511 -0.00218
C 28.19543 30.54347 -0.01654
C 27.04457 29.85863 -0.00037
C 27.08446 28.45936 -0.0032
C 28.26526 27.72281 0.00622
C 28.25235 26.25033 -0.02815
C 27.04518 25.57525 -0.00942
C 27.02417 24.19287 0.00487
C 28.2557 23.49067 0.00826
C 28.28742 22.05067 -0.00294
C 27.06712 21.28568 0.00152
C 27.06459 19.88129 0.01257
C 28.26943 19.18074 0.02316
C 25.78739 9.24099 -0.00938
C 23.28433 4.96071 0.02239
C 25.86579 10.62307 -0.00229
C 24.44991 12.54598 -0.009
C 22.03008 2.85697 0.02734
C 23.31883 2.12673 -0.0055
C 23.29368 0.70973 0.01515
C 22.06675 34.07334 -0.00225
C 24.52787 32.68665 0.00071
C 25.80259 31.92654 -0.01107
C 25.81774 30.50777 -0.01586
C 24.61919 29.81103 -0.01971
C 24.61976 28.45154 -0.02118
C 25.81258 27.73043 0.00733
C 25.82618 26.23734 -0.00178
C 24.59017 25.55945 0.00768
C 24.62425 24.18927 -0.0276
C 25.81989 23.47861 0.03005
C 25.79564 22.02136 -0.04078
C 24.61728 21.31201 0.02117
C 24.65203 19.89581 0.02737
C 25.87771 19.16294 -0.00498
C 25.87487 17.74922 0.00135
C 24.62112 17.07947 0.03102
C 24.55875 15.65102 0.02555
C 25.7649 14.91057 0.01423
C 25.70177 13.41718 -0.00285
C 24.74615 11.23219 -0.01199
C 2.39098 32.69927 -0.03672
