385
Graphene
C 34.38119 34.00555 0.01295
C 12.30358 7.23725 0.02162
C 13.5345 6.55427 0.0076
C 13.55661 5.03371 0.01241
C 12.35439 4.28396 -0.01454
C 12.37696 2.87491 0.01945
C 13.55679 2.17166 0.01416
C 13.53815 0.79722 0.03542
C 12.24883 34.06115 0.02299
C 14.64113 32.59971 0.00244
C 12.24878 8.62456 -0.0014
C 15.9205 31.91274 -0.01717
C 14.66646 29.82529 -0.01952
C 14.85549 28.34832 -0.02813
C 16.00767 27.61109 0.00374
C 16.02787 26.23883 0.00052
C 14.75049 25.48724 -0.03682
C 14.76708 24.10828 0.01965
C 16.00439 23.45289 0.02058
C 15.98372 21.99797 -0.01957
C 14.7168 21.29598 -0.0108
C 15.94995 30.51965 0.05265
C 14.72995 19.8514 -0.00368
C 13.58909 9.30487 0.00415
C 12.29123 11.4304 0.01363
C 12.23034 32.71643 0.00943
C 13.38115 31.89087 0.02841
C 13.36435 30.50183 -0.01111
C 12.17035 29.68409 -0.01275
C 12.37923 28.28146 0.00985
C 13.61386 27.66481 -0.02245
C 13.59505 26.23866 -0.00428
C 12.34204 25.62247 0.03101
C 12.20002 24.15974 -0.01536
C 13.50148 10.70548 -0.02162
C 13.53852 23.41824 -0.02689
C 12.27782 21.28644 -0.00891
C 12.19885 19.81632 0.02819
C 13.5146 19.08325 0.00165
C 13.52312 17.71242 -0.02971
C 12.30633 17.01028 0.02894
C 12.34658 15.56679 -0.01789
C 13.57033 14.96934 0.00444
C 13.44678 13.56597 -0.00925
C 12.26023 12.82163 0.01877
C 13.49644 21.98426 -0.01046
C 9.86715 0.03214 0.00406
C 15.96153 19.13429 -0.02696
C 14.75065 16.95101 0.00228
C 17.30661 23.99916 0.03338
C 18.54181 23.33151 -0.0258
C 18.48142 21.90758 -0.0331
C 17.22687 21.18864 -0.00316
C 17.21314 19.78192 0.02188
C 18.45772 19.12829 -0.01979
C 18.40571 17.70425 0.02691
C 17.15309 17.03401 -0.01581
C 17.28268 15.70173 0.01452
C 17.28605 25.46967 -0.00491
C 17.22871 8.52436 0.04892
C 18.466 6.36744 -0.03557
C 18.41668 4.95315 0.03754
C 17.19535 4.31711 0.01739
C 17.20291 2.8679 0.00755
C 18.3549 2.11541 -0.0054
C 18.39479 0.71811 0.00667
C 17.21189 34.07307 0.00143
C 19.59843 32.6078 -0.017
C 20.88276 31.86017 0.00364
C 17.19109 7.12403 -0.00111
C 15.91066 17.7663 -0.00114
C 18.49605 26.18383 -0.00109
C 17.20044 28.23825 -0.02213
C 14.94195 15.62261 0.00798
C 16.16471 14.85692 0.00422
C 16.02576 13.38864 0.0351
C 14.70912 12.89971 -0.03113
C 14.71807 11.4002 0.02098
C 15.87993 10.70696 0.01848
C 16.0964 9.3404 -0.00619
C 14.88721 8.59417 -0.02162
C 14.77611 7.18483 0.00889
C 18.46617 27.55907 0.03698
C 15.95271 6.40581 -0.00481
C 14.7567 4.2285 0.01443
C 14.78583 2.86748 0.03505
C 16.01915 2.15435 -0.02815
C 16.03663 0.71377 -0.04147
C 14.72753 34.06003 -0.05302
C 17.15296 32.6706 0.00213
C 18.37393 31.93817 -0.00066
C 18.4624 30.5188 -0.00289
C 17.19676 29.73674 0.00028
C 16.03065 4.99192 0.00979
C 11.13466 0.74953 0.03592
C 11.08964 2.25901 0.00572
C 9.85402 3.00594 0.0402
C 4.84796 32.72449 -0.03113
C 6.15758 22.08367 -0.02566
C 4.9675 21.48916 -0.00094
C 4.90585 20.0041 0.02322
C 6.12246 19.37802 -0.00725
C 6.08816 17.86288 -0.05697
C 4.86724 17.13015 0.01087
C 4.86038 15.65514 -0.01343
C 6.12208 14.97125 0.00988
C 2.3885 34.06599 0.017
C 6.12238 13.55326 0.0276
C 4.86986 11.4126 -0.00077
C 6.11562 10.69412 0.03368
C 6.15425 9.29011 -0.02929
C 4.88833 8.56102 -0.00966
C 4.94183 7.13819 -0.03337
C 6.10688 6.43987 0.01227
C 6.10712 5.01423 0.00873
C 4.87636 4.33721 -0.00049
C 4.89835 2.90156 0.00848
C 4.8681 12.84789 0.01305
C 6.12497 2.2394 -0.01303
C 3.64715 0.7282 -0.00643
C 2.41001 2.85105 -0.00518
C 2.41629 24.25764 0.03189
C 3.39581 23.54678 0.00031
C 3.63666 22.07737 -0.003
C 2.43386 21.34164 0.01402
C 2.36559 19.97649 0.02379
C 3.64381 19.2679 0.00907
C 3.65059 17.87911 0.00643
C 2.44293 17.05436 -0.01509
C 2.35378 15.63985 0.03267
C 3.55087 2.12884 0.0086
C 3.61725 14.95296 0.02374
C 2.42745 12.85252 0.0073
C 2.39905 11.3676 0.0174
C 3.62306 10.65178 0.03828
C 3.58059 9.24792 0.01226
C 2.40952 8.50136 -0.00279
C 2.43747 7.08173 0.01996
C 3.67112 6.43797 -0.03996
C 3.59913 5.02088 0.01465
C 2.38551 4.30625 -0.00074
C 3.59046 13.57054 0.00402
C 6.21323 0.83153 -0.01378
C 4.94089 0.13688 0.02635
C 7.59963 32.66717 0.0127
C 9.54001 23.68204 -0.00131
C 10.92294 23.41173 -0.01118
C 11.20848 21.9974 -0.014
C 9.84015 21.34348 0.02147
C 9.79581 19.95208 0.00373
C 10.90285 19.09066 -0.00191
C 10.98087 17.7341 0.00438
C 9.77624 17.09381 0.01291
C 9.74286 15.74622 0.00093
C 11.0799 30.61968 -0.02896
C 11.0186 14.98782 0.00057
C 9.76993 12.86265 -0.00334
C 9.7907 11.42597 0.02339
C 11.03128 10.74861 0.01641
C 10.9601 9.31073 -0.00719
C 9.76323 8.63044 0.01364
C 9.74518 7.19568 -0.01062
C 11.05355 6.52352 -0.00033
C 11.08438 5.09719 0.03589
C 9.84413 4.44419 -0.02759
C 11.04165 13.53061 -0.01634
C 10.8536 31.99607 -0.01004
C 9.60306 32.77692 0.00488
C 7.41464 0.07034 0.01745
C 8.79939 22.23321 0.01396
C 7.4778 21.55866 0.01849
C 7.41139 20.0534 -0.01142
C 8.58878 19.30432 -0.00562
C 8.53633 17.85516 -0.00494
C 7.25324 17.06594 0.00054
C 7.29426 15.64657 0.03007
C 8.55721 15.01617 -0.00095
C 8.59942 13.51857 0.01572
C 7.34275 12.85106 -0.04848
C 7.28229 11.4485 -0.00892
C 8.58931 10.75051 -0.01362
C 8.58037 9.27784 -0.0008
C 7.37561 8.55113 0.0288
C 7.31083 7.14309 0.00393
C 8.54806 6.49037 0.00895
C 8.61278 5.03152 0.00685
C 7.33606 4.32972 0.02888
C 7.34863 2.89907 -0.00482
C 8.65764 2.30189 -0.01384
C 8.61976 0.89327 0.03693
C 20.83501 30.45803 -0.00831
C 3.72951 32.04277 -0.04307
C 19.66181 29.77956 -0.02957
C 20.87206 27.6109 0.00654
C 29.43798 4.27138 0.0103
C 29.40628 2.81983 0.02108
C 30.66338 2.13499 0.00716
C 30.66386 0.72078 0.00307
C 29.43158 0.01318 0.00346
C 31.91333 32.71913 0.01713
C 33.09729 31.93714 -0.01694
C 33.18229 30.4851 0.01428
C 31.97761 29.81125 -0.02142
C 30.56209 5.04619 0.07705
C 31.99293 28.47409 0.0544
C 33.16657 26.24748 0.00682
C 31.89818 25.64116 -0.01779
C 31.95869 24.19877 0.03794
C 33.17166 23.45022 0.01927
C 33.22256 22.02037 0.01574
C 31.9909 21.26003 -0.02383
C 31.94475 19.85775 -0.01429
C 33.19241 19.25564 -0.0136
C 33.22746 17.78182 0.00594
C 33.2085 27.63937 0.00026
C 31.98191 16.98489 -0.02474
C 30.54855 6.4122 0.01908
C 29.3242 8.65358 -0.00971
C 29.45935 29.83819 0.0014
C 29.5289 28.42113 0.00924
C 30.76436 27.85844 0.02326
C 30.75646 26.40026 0.00261
C 29.56386 25.57492 0.03265
C 29.45245 24.16717 -0.02049
C 30.72972 23.51844 -0.01854
C 30.83769 22.07104 -0.01415
C 29.55685 21.30532 -0.03039
C 29.3289 7.19345 0.01518
C 29.5854 19.8682 0.01836
C 30.74438 17.71075 -0.00669
C 29.5401 17.03413 0.0101
C 29.41603 15.5468 0.01705
C 30.64799 14.93717 -0.0405
C 30.74956 13.49753 -0.01303
C 29.45504 12.72321 -0.01461
C 29.52215 11.29246 -0.02155
C 30.73561 10.59251 -0.00944
C 30.61609 9.15155 -0.03735
C 30.77525 19.12381 0.03531
C 30.716 30.53096 0.01324
C 31.95923 15.63114 0.00369
C 33.15207 13.50654 -0.00644
C 0.07287 21.40046 -0.02213
C 0.01361 20.01333 0.01951
C 1.20639 19.2343 -0.01678
C 1.2289 17.77476 0.01223
C 34.41319 17.08862 0.00648
C 34.39226 15.6053 0.02114
C 1.17067 14.95338 -0.02957
C 1.19837 13.4964 0.00343
C 34.37879 12.74806 -0.02656
C 1.25122 22.05956 0.02712
C 34.40442 11.29481 -0.02442
C 1.16639 9.2969 -0.00583
C 34.38186 8.49297 -0.02302
C 34.36161 7.08005 -0.02849
C 1.2362 6.41386 0.02931
C 1.12859 4.97739 0.00628
C 34.32154 4.29275 -0.0345
C 34.42152 2.88395 -0.00931
C 1.16649 2.13134 -0.00939
C 1.11052 0.72149 -0.00468
C 1.22685 10.63179 -0.00027
C 33.15592 14.95694 0.00455
C 1.1456 23.4643 0.00723
C 34.37562 25.51044 -0.05239
C 32.02493 12.74942 -0.01839
C 31.97549 11.34537 0.00137
C 33.19021 10.64003 0.00199
C 33.15019 9.18517 0.04381
C 31.84583 8.47614 0.02806
C 31.83979 7.02399 0.01504
C 33.08684 6.37642 -0.00069
C 33.1178 4.96211 0.04926
C 31.81968 4.36789 -0.03838
C 34.36523 24.13584 0.03076
C 31.86769 2.81206 0.00349
C 33.18678 0.71325 -0.00841
C 31.92582 0.02881 0.0001
C 34.33252 32.63517 -0.02927
C 1.24183 31.94647 -0.01404
C 1.18413 30.5883 0.01027
C 34.42512 29.86883 0.01831
C 34.34623 28.40619 -0.01037
C 1.15238 27.58002 -0.00439
C 1.18227 26.38305 -0.00598
C 33.16408 2.157 -0.00323
C 30.60684 31.96424 0.04266
C 29.42674 32.64563 0.01177
C 26.99861 0.01999 -0.00416
C 23.34806 26.1997 -0.00381
C 22.16674 25.44786 0.03046
C 22.14881 24.0306 0.0296
C 23.37166 23.35042 0.03374
C 23.37875 21.91652 -0.02845
C 22.1741 21.27067 -0.03213
C 22.20511 19.83721 0.02239
C 23.44988 19.14988 0.01153
C 23.53552 17.66599 0.02734
C 23.33492 27.63229 0.01852
C 23.10424 6.28351 -0.0055
C 22.04112 4.16707 -0.00225
C 22.0746 2.80673 0.00071
C 23.31246 2.06324 -0.01107
C 23.24152 0.6385 -0.01586
C 22.02919 33.98027 -0.01971
C 24.51529 32.62416 -0.02118
C 25.82074 31.94553 0.00733
C 25.72466 30.57902 -0.00178
C 24.51024 29.83511 0.00768
C 23.18839 4.85534 0.01515
C 24.49837 28.3774 -0.0276
C 22.07971 28.35046 0.01126
C 23.24295 30.51935 -0.01662
C 20.94829 26.16747 -0.00703
C 19.69212 25.46081 -0.04076
C 19.68363 24.06231 -0.00652
C 20.97116 23.34176 0.0058
C 20.95994 21.90048 -0.00865
C 19.67833 21.20272 0.00675
C 19.75018 19.80601 -0.00311
C 20.9988 19.129 0.00742
C 20.75273 17.62816 -0.01594
C 22.07972 29.71353 -0.01185
C 19.61879 17.10849 0.0106
C 20.84666 6.33897 -0.01721
C 20.82553 4.84237 -0.02422
C 19.58341 4.17223 0.01277
C 19.63716 2.85029 0.00096
C 20.85266 2.16381 -0.01527
C 20.76879 0.72148 0.01087
C 19.589 34.03053 0.00199
C 22.14482 32.64727 0.01511
C 23.28598 31.94866 -0.00478
C 19.81013 6.91182 -0.01154
C 25.76908 27.64572 0.03005
C 25.84597 26.24593 -0.04078
C 24.61745 25.52038 0.02117
C 28.29295 23.44046 0.00622
C 28.3259 22.06041 -0.02815
C 27.13255 21.23644 -0.00942
C 27.08994 19.87462 0.00487
C 28.33945 19.21332 0.00826
C 28.40904 17.78262 -0.00294
C 27.21399 16.9474 0.00152
C 27.09575 15.62146 0.01257
C 28.19583 14.79761 0.02316
C 27.07164 24.10006 -0.0032
C 28.27567 13.43487 0.04185
C 28.06291 9.33751 -0.00621
C 26.8909 8.49008 0.02611
C 26.87294 7.13211 0.02198
C 28.15579 6.38082 0.01094
C 28.15935 4.9315 0.00235
C 26.97522 4.29541 0.01495
C 26.94664 2.83197 0.01259
C 28.13883 2.13313 0.01799
C 28.20937 0.75333 0.01699
C 28.25074 10.78353 0.00194
C 27.08388 25.51993 -0.00037
C 28.31926 26.26636 -0.01654
C 28.27865 27.68637 -0.00218
C 24.53899 24.10023 0.02737
C 25.79018 23.3752 -0.00498
C 25.86206 21.89751 0.00135
C 24.66179 21.23513 0.03102
C 24.70502 19.82645 0.02555
C 25.91409 19.07963 0.01423
C 26.03955 17.76063 -0.00285
C 24.76924 17.07503 -0.009
C 24.20937 6.94251 -0.01199
C 25.64657 6.386 -0.00229
C 25.66455 5.03233 -0.00938
C 24.51038 4.25431 -0.0264
C 24.4883 2.79752 -0.01154
C 25.78768 2.07144 0.00684
C 25.75023 0.70477 -0.01052
C 24.44173 34.01672 -0.01679
C 27.0517 32.66202 0.00367
C 28.20045 31.91444 0.04306
C 28.19902 30.5264 0.00996
C 26.94138 29.78989 0.00195
C 26.95818 28.38901 -0.00802
C 19.63392 28.38072 -0.04422
C 2.47986 32.75712 0.03284
