440
Graphene
C 0.05893 34.03556 0.01295
C 12.25154 19.91273 -0.01634
C 13.41027 19.22123 -0.00334
C 13.43061 17.78812 0.02339
C 12.20986 17.0404 0.01641
C 12.1741 15.65761 -0.00719
C 13.44597 15.01072 0.01364
C 13.50531 13.54363 -0.01062
C 12.2642 12.88538 -0.00033
C 12.30688 11.39689 0.03589
C 13.49179 10.68962 -0.02759
C 13.52067 9.28421 0.0402
C 12.34173 8.50997 0.00572
C 12.25978 7.02938 0.03592
C 13.50321 6.31229 0.00406
C 13.52253 4.95693 0.00943
C 12.29863 4.26379 0.02841
C 12.22611 2.88078 -0.01111
C 13.44774 2.10561 -0.01275
C 13.46763 0.74259 0.00985
C 12.24845 34.07099 -0.02245
C 14.70258 32.60749 -0.00428
C 15.99462 31.9251 0.03101
C 16.03935 30.49855 -0.01536
C 12.23895 21.38717 0.00057
C 13.44027 22.10466 0.00093
C 13.58545 23.45855 0.01291
C 12.26147 24.22744 0.00438
C 9.80034 15.70273 -0.00095
C 11.00417 14.91935 0.01572
C 11.01575 13.5127 -0.04848
C 9.79711 12.73264 -0.00892
C 9.84595 11.30561 -0.01362
C 11.08252 10.67451 -0.0008
C 11.05689 9.27851 0.0288
C 9.84584 8.57072 0.00393
C 9.85549 7.16561 0.00895
C 11.02136 6.42846 0.00685
C 11.05967 5.0322 0.02888
C 14.73735 29.88738 -0.02689
C 9.80866 4.26902 -0.00482
C 11.02814 2.14206 0.03693
C 11.02209 0.76963 0.01745
C 9.81727 0.06255 0.00488
C 12.23315 32.66431 -0.01004
C 13.48643 31.93081 -0.02896
C 13.50232 30.49384 -0.00131
C 12.31451 29.84904 -0.01118
C 12.31116 28.36416 -0.014
C 13.60231 27.75716 0.02147
C 13.54497 26.36181 0.00373
C 12.327 25.60123 -0.00191
C 9.84301 2.87118 -0.01384
C 9.80535 17.08388 0.03007
C 14.77306 28.46926 -0.01046
C 15.9455 26.29052 0.02819
C 17.18935 29.77857 0.02058
C 17.23254 28.32745 -0.01957
C 18.4135 27.68013 -0.0108
C 18.47381 26.27428 -0.00368
C 17.23593 25.62438 -0.02696
C 17.18883 24.1527 -0.00114
C 18.40952 23.3803 0.00228
C 18.3707 21.94821 0.00798
C 17.13232 21.28488 0.00422
C 17.15026 19.92634 0.0351
C 18.41442 19.19647 -0.03113
C 18.33968 17.72893 0.02098
C 17.07598 17.0545 0.01848
C 17.08777 15.62126 -0.00619
C 18.36876 14.91339 -0.02162
C 18.39947 13.49213 0.00889
C 17.20048 12.79442 -0.00481
C 17.18099 11.41668 0.00979
C 18.38142 10.61086 0.01443
C 18.42712 9.21862 0.03505
C 17.18481 8.54376 -0.02815
C 17.18223 7.11542 -0.04147
C 18.45028 6.40375 -0.05302
C 18.41494 30.50823 0.01965
C 18.38915 31.94019 -0.03682
C 17.25941 32.72768 0.00052
C 14.72745 34.05018 0.00374
C 14.69779 25.57949 0.00165
C 14.76781 24.14378 -0.02971
C 15.96749 23.45404 0.02894
C 15.91272 22.02089 -0.01789
C 14.67594 21.3707 0.00444
C 14.64063 19.94427 -0.00925
C 15.88093 19.22304 0.01877
C 15.91152 17.78071 0.01363
C 14.67061 17.09576 -0.02162
C 14.71459 15.63344 0.00415
C 15.88134 14.9245 -0.0014
C 15.95881 27.70769 -0.00891
C 15.91912 13.54529 0.02162
C 14.77114 11.29941 0.01241
C 15.96413 10.69267 -0.01454
C 15.97886 9.29475 0.01945
C 14.76231 8.59061 0.01416
C 14.76286 7.05776 0.03542
C 15.95691 6.39138 0.02299
C 15.93447 4.98117 0.00244
C 14.72834 4.21405 -0.01717
C 14.67835 2.82704 0.05265
C 15.95877 2.07552 -0.01952
C 15.90083 0.69796 -0.02813
C 14.73434 12.79684 0.0076
C 18.40549 5.01601 0.00213
C 10.93787 17.78229 0.00054
C 9.7793 19.93903 -0.00562
C 3.72192 0.72867 0.04421
C 2.49387 34.06919 0.00088
C 4.89936 32.6568 0.00828
C 6.1265 31.90296 -0.02375
C 6.16558 30.52402 0.00558
C 4.93013 29.80416 -0.0059
C 4.83133 28.43879 -0.01386
C 6.1562 27.68965 -0.02805
C 6.13892 26.23182 0.00081
C 4.9044 25.54054 0.00245
C 4.90649 24.14702 0.02728
C 6.16629 23.44182 -0.00039
C 6.02803 22.0067 0.0064
C 4.80929 21.25718 0.00211
C 4.81512 19.8964 -0.00449
C 6.10121 19.26781 -0.01979
C 6.03992 17.81965 0.02784
C 4.85675 16.99141 -0.01977
C 4.85378 15.53266 -0.00561
C 6.09564 14.88217 0.00208
C 6.10541 13.49214 0.01707
C 4.78662 12.8466 0.02769
C 4.8143 11.437 -0.03291
C 3.74755 2.2053 -0.00177
C 2.50811 2.88607 0.03278
C 2.50711 4.25215 0.01138
C 3.7096 5.03507 -0.00407
C 3.69632 30.53922 0.01116
C 2.47142 29.86472 -0.0005
C 2.48322 28.43681 -0.00018
C 3.68194 27.67652 0.01073
C 3.74252 26.22595 0.01984
C 2.49476 25.62683 0.00535
C 2.4359 24.13639 -0.00198
C 3.72985 23.40659 -0.00012
C 3.64874 22.05133 -0.04306
C 2.41896 21.33451 -0.03672
C 2.4056 19.82419 0.01913
C 6.11909 10.75799 -0.04999
C 3.65307 19.15538 0.00267
C 2.43226 17.0348 0.02426
C 2.38852 15.56752 0.01218
C 3.61245 14.91198 -0.01471
C 3.54405 13.49563 -0.02827
C 2.31366 12.7466 0.01078
C 2.41807 11.34713 -0.00112
C 3.65763 10.64453 0.03345
C 3.68178 9.27181 0.00748
C 2.47355 8.55705 0.00662
C 2.50548 7.15617 -0.0154
C 3.70409 6.42878 -0.01299
C 3.65351 17.70036 0.00787
C 11.01087 19.24705 -0.00494
C 6.1248 9.37926 0.04505
C 4.94114 7.16549 -0.04307
C 8.55245 10.71495 -0.00725
C 8.59151 9.24511 -0.05697
C 7.35147 8.61046 0.01087
C 7.42954 7.16763 -0.01343
C 8.69623 6.43271 0.00988
C 8.6617 5.04904 0.0276
C 7.40855 4.392 0.01305
C 7.35766 2.99712 -0.00077
C 8.52044 2.17944 0.03368
C 8.55079 0.80719 -0.02929
C 7.4003 0.04608 -0.00966
C 9.80111 32.70805 -0.03337
C 10.96342 31.96418 0.01227
C 11.01311 30.53629 0.00873
C 9.84442 29.89829 -0.00049
C 9.86634 28.47899 0.00848
C 11.02384 27.69592 -0.01303
C 11.0736 26.31584 -0.01378
C 9.83844 25.65378 0.02635
C 9.80589 24.19464 0.0127
C 11.04256 23.48087 0.01396
C 11.02246 22.03737 0.01849
C 9.8373 21.29844 -0.01142
C 7.36083 11.48165 0.02322
C 7.40123 12.85947 -0.00094
C 8.5991 13.61803 -0.02566
C 8.56074 15.07416 -0.03113
C 6.20932 6.4839 0.03189
C 6.23521 5.10645 0.00031
C 4.99928 4.37699 -0.003
C 4.92955 2.9503 0.01402
C 6.09015 2.23489 0.02379
C 6.15842 0.71127 0.00907
C 4.93455 0.01729 0.00643
C 7.36858 32.68261 -0.01509
C 8.57529 32.0101 0.03267
C 8.54232 30.54736 0.02374
C 7.32224 29.83278 0.00402
C 4.9626 8.58339 0.03284
C 7.37427 28.46965 0.0073
C 8.61552 26.34985 0.03828
C 7.35409 25.62221 0.01226
C 7.3652 24.17006 -0.00279
C 8.54982 23.48417 0.01996
C 8.65045 22.04408 -0.03996
C 7.32757 21.29044 0.01465
C 7.33505 19.89699 -0.00074
C 8.54864 19.15993 -0.00518
C 8.53767 17.73874 0.0086
C 7.25564 17.13425 -0.00643
C 7.25553 15.63815 0.017
C 8.60417 27.74898 0.0174
C 17.18494 4.26195 -0.00066
C 17.13269 2.79954 -0.00289
C 18.37045 2.16111 0.00028
C 30.65988 14.89055 -0.0405
C 30.66891 13.48052 -0.01303
C 29.53689 12.69281 -0.01461
C 29.49262 11.23735 -0.02155
C 30.72915 10.5416 -0.00944
C 30.74106 9.03692 -0.03735
C 29.5271 8.47303 -0.00971
C 29.56351 7.06272 0.01518
C 30.73117 6.31096 0.01908
C 30.73176 4.87151 0.07705
C 29.49765 4.10942 0.0103
C 29.52318 2.64998 0.02108
C 30.7901 2.10762 0.00716
C 30.72221 0.61429 0.00307
C 29.57733 33.89003 0.00346
C 32.05575 32.61131 0.01713
C 33.2204 31.97385 -0.01694
C 33.16105 30.5906 0.01428
C 31.89801 29.94839 -0.02142
C 31.9321 28.57457 0.0544
C 33.16792 27.81961 0.00026
C 33.11569 26.35955 0.00682
C 31.85603 25.59392 -0.01779
C 29.47023 15.61874 0.01705
C 29.47883 16.99085 0.0101
C 30.6962 17.69449 -0.00669
C 30.73689 19.15978 0.03531
C 28.2247 14.86441 0.00194
C 28.3317 13.40698 -0.00621
C 27.00634 12.75537 0.02611
C 27.02573 11.38006 0.02198
C 28.25077 10.62411 0.01094
C 28.23022 9.17959 0.00235
C 26.99256 8.44098 0.01495
C 27.06833 7.02521 0.01259
C 28.37623 6.32672 0.01799
C 28.28931 4.88031 0.01699
C 27.09241 4.20878 -0.00416
C 31.87009 24.14782 0.03794
C 27.13701 2.73159 0.01177
C 28.26789 0.4001 0.01324
C 26.91677 33.81827 0.0014
C 29.43204 28.49125 0.00924
C 30.56905 27.84272 0.02326
C 30.61052 26.35072 0.00261
C 29.405 25.67874 0.03265
C 29.47748 24.26933 -0.02049
C 30.62121 23.45351 -0.01854
C 30.73587 22.03103 -0.01415
C 29.4587 21.276 -0.03039
C 29.49519 19.83769 0.01836
C 28.24602 1.9234 0.04266
C 26.95697 15.53561 0.04185
C 33.16733 23.45972 0.01927
C 31.94032 21.33205 -0.02383
C 34.41271 24.16917 0.03076
C 1.15811 23.38013 0.00723
C 1.17198 21.99452 0.02712
C 34.3469 21.33132 -0.02213
C 34.37861 19.86316 0.01951
C 1.1305 19.16011 -0.01678
C 1.14461 17.75012 0.01223
C 34.36254 16.99849 0.00648
C 34.31008 15.51092 0.02114
C 1.11847 14.90491 -0.02957
C 1.10775 13.45478 0.00343
C 34.39769 12.73406 -0.02656
C 34.3666 11.2814 -0.02442
C 1.16098 10.61151 -0.00027
C 1.20024 9.21132 -0.00583
C 0.01229 8.43719 -0.02302
C 34.42531 7.01376 -0.02849
C 1.31598 6.40574 0.02931
C 1.3024 4.97798 0.00628
C 0.04153 4.28228 -0.0345
C 0.0365 2.8474 -0.00931
C 1.31249 2.11956 -0.00939
C 1.21782 0.69001 -0.00468
C 34.37778 25.6334 -0.05239
C 1.21966 26.31561 -0.00598
C 1.16172 27.74551 -0.00439
C 34.38976 28.42356 -0.01037
C 31.9176 19.95167 -0.01429
C 33.17533 19.12866 -0.0136
C 33.20716 17.71482 0.00594
C 31.91195 16.99165 -0.02474
C 31.92076 15.60809 0.00369
C 33.10066 14.77325 0.00455
C 33.14079 13.35416 -0.00644
C 31.90179 12.66782 -0.01839
C 31.93916 11.31257 0.00137
C 33.15008 10.5727 0.00199
C 33.18698 9.13872 0.04381
C 33.20416 22.02925 0.01574
C 31.96015 8.39345 0.02806
C 33.19585 6.2833 -0.00069
C 33.21019 4.87649 0.04926
C 32.00574 4.16621 -0.03838
C 32.00408 2.72857 0.00349
C 33.26497 2.10857 -0.00323
C 33.30079 0.67923 -0.00841
C 31.99284 33.95831 0.0001
C 0.08685 32.63924 -0.02927
C 1.30234 31.91483 -0.01404
C 1.23095 30.58997 0.01027
C 0.05974 29.90283 0.01831
C 32.00985 6.95024 0.01504
C 27.07986 17.02316 0.02316
C 28.25363 17.74002 0.01257
C 28.24173 19.18857 0.00152
C 20.8484 4.97564 -0.00703
C 19.60681 4.24685 -0.04076
C 19.61842 2.84206 -0.00652
C 20.88471 2.18957 0.0058
C 20.86761 0.79497 -0.00865
C 19.62706 0.01106 0.00675
C 22.12067 32.72189 -0.00311
C 23.35607 31.96852 0.00742
C 23.376 30.5786 -0.01594
C 22.10624 29.87316 0.0106
C 22.04868 28.44759 -0.01154
C 23.36172 27.79132 -0.01721
C 23.39706 26.3044 -0.02422
C 22.14086 25.57657 0.01277
C 22.15671 24.12355 0.00096
C 23.34513 23.31862 -0.01527
C 23.37344 21.96958 0.01087
C 22.07437 21.25998 0.00199
C 22.03299 19.81386 0.01511
C 23.30405 19.13348 -0.00478
C 23.27292 17.74399 -0.01662
C 22.08346 17.05576 -0.01185
C 22.07521 15.68474 0.01126
C 20.84687 6.36767 0.00654
C 19.64728 7.13453 -0.04422
C 19.706 8.53765 -0.02957
C 20.87829 9.31102 -0.00831
C 18.41271 0.78648 -0.02213
C 17.13998 0.06786 0.03698
C 19.64869 32.71574 -0.00109
C 20.90546 32.05433 -0.00491
C 20.94182 30.62414 0.03338
C 19.68086 29.92154 -0.0258
C 19.62633 28.46502 -0.0331
C 20.85853 27.62485 -0.00316
C 20.84716 26.18227 0.02188
C 19.6571 25.51759 -0.01979
C 19.72048 24.0504 0.02691
C 23.3473 14.93785 0.01852
C 20.90847 23.43512 -0.01581
C 19.65993 21.35993 0.04892
C 19.63601 19.91802 -0.00111
C 20.83394 19.14994 -0.03557
C 20.83915 17.7231 0.03754
C 19.64289 17.07751 0.01739
C 19.62019 15.70796 0.00755
C 20.81989 14.99394 -0.0054
C 20.83595 13.53996 0.00667
C 19.6164 12.81879 0.00143
C 19.58562 11.37396 -0.017
C 20.88579 10.6522 0.00364
C 20.84566 22.017 0.01452
C 23.30297 13.50683 -0.00381
C 22.03774 12.78722 0.03046
C 22.10601 11.38768 0.0296
C 25.72904 14.91842 -0.009
C 25.77013 13.53169 -0.01199
C 24.58177 12.78824 -0.00229
C 24.50185 11.33634 -0.00938
C 25.83968 10.62619 -0.0264
C 25.76767 9.22002 -0.01154
C 24.56237 8.55073 0.00684
C 24.59798 7.12857 -0.01052
C 25.8184 6.40577 -0.01679
C 25.91946 4.94285 0.00367
C 24.57028 4.19894 0.04306
C 24.53395 15.6423 -0.00285
C 24.56222 2.74299 0.00996
C 25.85016 0.5746 -0.00802
C 24.50928 34.04987 -0.00218
C 26.7802 28.68897 -0.01654
C 28.17501 27.97355 -0.00037
C 28.12716 26.43453 -0.0032
C 26.99157 25.64157 0.00622
C 27.06276 24.13167 -0.02815
C 28.33119 23.4439 -0.00942
C 28.27542 22.05962 0.00487
C 26.97326 21.34006 0.00826
C 27.01673 19.90454 -0.00294
C 25.85043 2.07922 0.00195
C 3.72282 31.98593 -0.0213
C 24.5228 17.03898 0.01423
C 25.80239 19.1946 0.03102
C 23.29996 10.62881 0.03374
C 23.30908 9.21134 -0.02845
C 22.10206 8.58011 -0.03213
C 22.07576 7.05118 0.02239
C 23.3027 6.39059 0.01153
C 23.40247 4.98512 0.02734
C 22.11391 4.31286 -0.0055
C 22.12699 2.89072 0.01515
C 23.30487 2.11363 -0.00225
C 23.33041 0.67854 0.00071
C 22.07101 0.09923 -0.01107
C 25.86342 17.71843 0.02555
C 24.57215 32.68933 -0.01586
C 25.99834 30.46005 -0.02118
C 24.64853 29.81872 0.00733
C 24.54492 28.46381 -0.00178
C 25.8257 27.75688 0.00768
C 25.81254 26.28322 -0.0276
C 24.58588 25.54178 0.03005
C 24.54093 24.09452 -0.04078
C 25.84877 23.38246 0.02117
C 25.72806 21.95543 0.02737
C 24.5464 21.23273 -0.00498
C 24.52821 19.85853 0.00135
C 25.96093 32.00555 -0.01971
C 2.56514 32.67716 -0.00374
