370
Graphene
C 34.37429 0.15659 0.01295
C 13.12518 22.19943 0.05265
C 12.0755 21.36008 -0.01952
C 12.21472 19.97042 -0.02813
C 13.41727 19.21823 0.00374
C 13.31094 17.81622 0.00052
C 12.12267 17.08898 -0.03682
C 12.10898 15.6786 0.01965
C 13.45556 14.97026 0.02058
C 13.48197 13.53981 -0.01957
C 12.25995 12.80458 -0.0108
C 12.3378 11.31684 -0.00368
C 13.52352 10.57002 -0.02696
C 13.51993 9.20461 -0.00114
C 12.27088 8.49207 0.00228
C 12.25019 7.12764 0.00798
C 13.52726 6.39261 0.00422
C 13.49879 4.93011 0.0351
C 12.30667 4.22761 -0.03113
C 12.28661 2.78826 0.02098
C 13.15365 23.77891 -0.01717
C 13.4334 2.06457 0.01848
C 12.48404 25.10968 0.00244
C 13.46891 27.59557 0.03542
C 10.93966 13.59242 -0.00891
C 9.75867 12.88877 0.02819
C 9.79489 11.41744 0.00165
C 11.10166 10.70092 -0.02971
C 11.06242 9.29374 0.02894
C 9.80765 8.63343 -0.01789
C 9.81978 7.16363 0.00444
C 11.06116 6.36714 -0.00925
C 11.07257 4.99416 0.01877
C 9.8131 4.3391 0.01363
C 9.7905 2.93204 -0.02162
C 11.00582 2.15868 0.00415
C 11.096 0.71247 -0.0014
C 9.82523 0.02844 0.02162
C 12.18755 32.53899 0.0076
C 13.36527 31.84384 0.01241
C 13.45108 30.47149 -0.01454
C 12.22873 29.70318 0.01945
C 12.23498 28.28148 0.01416
C 13.56306 26.13757 0.02299
C 10.97282 15.03456 -0.01046
C 13.54434 0.65945 -0.00619
C 14.68512 32.586 0.00889
C 14.75017 7.1169 0.01452
C 15.96527 6.32037 0.04892
C 15.86775 4.90529 -0.00111
C 14.67785 4.16328 -0.03557
C 14.71044 2.71645 0.03754
C 15.94003 1.95779 0.01739
C 15.88566 0.5789 0.00755
C 14.68805 34.01013 -0.0054
C 17.13745 32.48022 0.00667
C 18.39044 31.8326 0.00143
C 18.33764 30.3741 -0.017
C 17.14328 29.75953 0.00364
C 17.2068 28.39161 -0.00831
C 18.47338 27.67493 -0.02957
C 18.37998 26.31076 -0.04422
C 17.25454 25.5504 0.00654
C 17.21875 24.06877 -0.00703
C 18.40671 23.34932 -0.04076
C 18.3831 22.01565 -0.00652
C 14.81101 8.49652 -0.01581
C 12.27691 34.07238 -0.02162
C 16.06917 9.33939 0.02691
C 14.72459 11.34852 0.02188
C 15.86505 31.80391 -0.00481
C 15.93129 30.38614 0.00979
C 14.69968 29.72168 0.01443
C 14.66818 28.31726 0.03505
C 15.96275 27.67973 -0.02815
C 16.02982 26.26184 -0.04147
C 14.8087 25.60753 -0.05302
C 14.61554 24.13982 0.00213
C 15.8962 23.47036 -0.00066
C 15.84112 22.00938 -0.00289
C 14.58074 21.40096 0.00028
C 14.64393 19.98739 -0.02213
C 15.8486 19.33695 0.03698
C 15.90603 17.83685 -0.00109
C 14.66981 17.04597 -0.00491
C 14.72335 15.67056 0.03338
C 15.92939 14.98167 -0.0258
C 15.90961 13.5525 -0.0331
C 14.7144 12.82069 -0.00316
C 16.01027 10.69383 -0.01979
C 9.69662 15.66073 -0.02689
C 9.63663 17.0214 -0.01536
C 10.79767 17.80034 0.03101
C 3.72343 6.48158 -0.00966
C 3.75865 5.04512 -0.03337
C 2.44069 4.41567 0.01227
C 2.41847 2.9578 0.00873
C 3.58046 2.2752 -0.00049
C 3.58037 0.79703 0.00848
C 2.42384 0.11007 -0.01303
C 4.92484 32.7966 -0.01378
C 6.07475 32.0863 0.02635
C 6.12993 30.648 0.0127
C 4.809 30.05043 0.01396
C 4.83907 28.63474 0.01849
C 6.07082 27.86991 -0.01142
C 6.01663 26.41528 -0.00562
C 5.01908 25.54276 -0.00494
C 5.01484 24.11656 0.00054
C 5.86781 23.00933 0.03007
C 6.00809 21.74049 -0.00095
C 4.75918 20.99941 0.01572
C 2.5079 7.19737 -0.02929
C 4.67868 16.13625 -0.04848
C 2.51825 8.63334 0.03368
C 3.72328 10.78419 0.01305
C 3.58989 30.71748 -0.00279
C 2.29399 29.89872 0.01996
C 2.40566 28.41667 -0.03996
C 3.622 27.81267 0.01465
C 3.73653 26.22103 -0.00074
C 2.4986 25.51915 -0.00518
C 2.50309 24.05878 0.0086
C 3.73916 23.35741 -0.00643
C 3.62087 21.91112 0.017
C 2.48446 21.19645 -0.03113
C 2.53989 19.77733 -0.02566
C 3.81112 18.93896 -0.00094
C 3.84549 17.56051 0.02322
C 2.48195 17.02618 -0.00725
C 2.30279 15.63252 -0.05697
C 3.586 15.11866 0.01087
C 3.62168 13.71917 -0.01343
C 2.37436 12.8779 0.00988
C 2.48887 11.57534 0.0276
C 3.73755 9.40069 -0.00077
C 6.02176 15.52445 -0.00892
C 6.12842 13.78847 -0.01362
C 4.90455 13.06986 -0.0008
C 8.53064 9.27854 0.02339
C 7.32991 8.59174 0.01641
C 7.3539 7.11787 -0.00719
C 8.58254 6.38934 0.01364
C 8.60126 5.03892 -0.01062
C 7.37295 4.32656 -0.00033
C 7.34494 2.94013 0.03589
C 8.56851 2.13069 -0.02759
C 8.5641 0.75261 0.0402
C 7.27146 34.07028 0.00572
C 9.86639 32.69227 0.03592
C 10.96504 31.8577 0.00406
C 10.9246 30.40114 0.00943
C 9.78669 29.63423 0.02841
C 9.79921 28.10005 -0.01111
C 11.06134 27.33056 -0.01275
C 11.14915 25.95287 0.00985
C 10.08423 20.34704 -0.02245
C 10.97334 19.2583 -0.00428
C 8.52977 10.77315 -0.00334
C 7.23713 11.57273 -0.01634
C 7.3145 12.9988 0.00057
C 8.54466 13.70201 0.00093
C 4.92671 11.58981 0.0288
C 6.05564 10.83614 0.00393
C 6.10944 9.34541 0.00895
C 4.92954 8.6717 0.00685
C 4.92287 7.23172 0.02888
C 6.16813 6.43391 -0.00482
C 6.20109 5.03662 -0.01384
C 4.98202 4.36187 0.03693
C 4.88972 2.93036 0.01745
C 17.09646 21.2483 0.0058
C 6.07476 2.22129 0.00488
C 4.90208 0.15938 -0.02896
C 7.39123 32.72342 -0.00131
C 8.64965 31.97316 -0.01118
C 8.57177 30.46559 -0.014
C 7.31928 29.87017 0.02147
C 7.26603 28.46064 0.00373
C 8.49852 27.53691 -0.00191
C 7.40389 15.902 0.00438
C 8.5008 15.07282 0.01291
C 6.10876 0.85302 -0.01004
C 17.1264 19.84437 -0.00865
C 18.54649 19.03273 0.00675
C 18.36072 17.71522 -0.00311
C 29.39185 4.37682 0.00716
C 29.40205 2.95285 0.00307
C 30.66964 2.15996 0.00346
C 30.67886 0.79209 0.01713
C 29.44105 0.07779 -0.01694
C 31.86643 32.75941 0.01428
C 33.14808 31.97397 -0.02142
C 33.18975 30.60784 0.0544
C 31.87236 29.94754 0.00026
C 31.91684 28.51371 0.00682
C 33.16278 27.70209 -0.01779
C 33.24008 26.30034 0.03794
C 31.99266 25.64301 0.01927
C 31.96251 24.22211 0.01574
C 33.22837 23.48901 -0.02383
C 33.26979 22.01086 -0.01429
C 31.99175 21.31856 -0.0136
C 31.99063 19.89195 0.00594
C 33.15105 19.12196 -0.02474
C 30.66005 5.02025 0.02108
C 33.06609 17.75568 0.00369
C 30.64036 6.45922 0.0103
C 29.69617 8.56714 0.01908
C 26.98096 2.87722 0.00261
C 28.20319 2.27281 0.03265
C 28.22675 0.80987 -0.02049
C 26.94051 0.08241 -0.01854
C 29.46492 32.77147 -0.01415
C 30.70883 32.03622 -0.03039
C 30.66649 30.55614 0.01836
C 29.47099 29.87723 0.03531
C 29.49734 28.43676 -0.00669
C 30.69921 27.75801 0.0101
C 30.78849 26.28974 0.01705
C 29.49109 25.59184 -0.0405
C 29.52881 24.09596 -0.01303
C 30.69582 23.49206 -0.01461
C 30.81835 22.10044 -0.02155
C 29.57063 21.27931 -0.00944
C 29.74176 19.87732 -0.03735
C 30.94787 18.9634 -0.00971
C 30.68025 9.27941 0.01518
C 29.36781 7.21138 0.07705
C 31.57715 17.45468 0.00455
C 32.97751 14.80959 -0.00644
C 33.02591 13.35152 -0.01839
C 34.40485 19.75727 0.01951
C 1.29812 19.11543 -0.01678
C 1.20525 17.62699 0.01223
C 34.28708 16.96481 0.00648
C 34.15712 15.54368 0.02114
C 1.05461 14.92799 -0.02957
C 1.1862 13.59458 0.00343
C 34.38868 12.7921 -0.02656
C 0.02677 11.40592 -0.02442
C 1.25799 10.80184 -0.00027
C 1.2944 9.28248 -0.00583
C 34.37162 8.54875 -0.02302
C 34.37666 7.17882 -0.02849
C 1.1712 6.47392 0.02931
C 1.18785 5.05188 0.00628
C 34.41781 4.36757 -0.0345
C 34.43006 2.8672 -0.00931
C 1.24892 2.25085 -0.00939
C 1.18954 0.76043 -0.00468
C 0.03027 21.2502 -0.02213
C 1.18657 22.0863 0.02712
C 1.24783 23.49207 0.00723
C 34.40845 24.14865 0.03076
C 32.30159 11.92998 0.00137
C 33.17299 10.72595 0.00199
C 33.17828 9.31706 0.04381
C 31.95587 8.5477 0.02806
C 31.92494 7.2235 0.01504
C 33.15794 6.52721 -0.00069
C 33.18965 5.09632 0.04926
C 31.95124 4.36665 -0.03838
C 31.93924 2.89268 0.00349
C 26.96771 4.32672 0.02326
C 33.23063 2.2537 -0.00323
C 31.96083 0.0771 0.0001
C 34.36261 32.80187 -0.02927
C 1.15028 32.0894 -0.01404
C 1.14209 30.58641 0.01027
C 34.33517 29.79839 0.01831
C 34.37803 28.40566 -0.01037
C 1.17297 27.68067 -0.00439
C 1.24868 26.2687 -0.00598
C 0.04427 25.59062 -0.05239
C 33.1542 0.83773 -0.00841
C 3.61403 32.11781 0.01226
C 28.18831 5.09537 0.00924
C 26.95204 7.18644 0.01324
C 19.61776 24.16717 0.02239
C 20.88504 23.29443 0.01153
C 20.83749 21.91557 0.02734
C 19.54288 21.25628 -0.0055
C 19.69596 19.87241 0.01515
C 19.62652 8.36257 -0.00225
C 19.55526 6.94112 0.00071
C 20.78998 6.24395 -0.01107
C 20.81429 4.80445 -0.01586
C 19.58247 4.11362 -0.01971
C 19.58427 2.81386 -0.02118
C 20.77275 2.04642 0.00733
C 20.81232 0.68262 -0.00178
C 19.67624 34.03453 0.00768
C 22.07238 32.64725 -0.0276
C 23.36847 31.91218 0.03005
C 23.34528 30.46162 -0.04078
C 22.09999 29.72916 0.02117
C 22.14668 28.32534 0.02737
C 19.72042 25.5045 -0.03213
C 23.3553 27.6509 -0.00498
C 20.92182 26.17822 -0.02845
C 19.68688 28.28371 0.0296
C 17.20827 17.02413 0.00742
C 17.23669 15.55887 -0.01594
C 17.09791 12.74478 0.0106
C 17.31068 11.36578 -0.01154
C 18.60795 10.65315 -0.01721
C 18.61949 9.14791 -0.02422
C 17.22109 8.38753 0.01277
C 17.15412 6.97157 0.00096
C 18.38302 6.26744 -0.01527
C 18.35933 4.7591 0.01087
C 17.01738 4.10958 0.00199
C 17.10414 2.68866 0.01511
C 18.4277 2.00581 -0.00478
C 18.42016 0.62387 -0.01662
C 17.17709 33.97932 -0.01185
C 19.62176 32.49751 0.01126
C 20.90169 31.89067 0.01852
C 20.86374 30.45996 -0.00381
C 19.6834 29.68929 0.03046
C 20.98234 27.59389 0.03374
C 23.35826 26.17409 0.00135
C 22.15846 25.47068 0.03102
C 22.06657 23.97534 0.02555
C 25.70012 6.59923 0.00826
C 25.64981 5.09248 -0.00294
C 24.42264 4.33072 0.00152
C 24.5617 2.93118 0.01257
C 25.74595 2.23472 0.02316
C 25.815 0.86049 0.04185
C 24.64259 34.06595 0.00194
C 27.01211 32.65024 -0.00621
C 28.24352 32.03512 0.02611
C 28.21922 30.53821 0.02198
C 27.05576 29.78657 0.01094
C 27.0168 28.36704 0.00235
C 28.25191 27.60525 0.01495
C 28.29386 26.22992 0.01259
C 27.05956 25.5614 0.01799
C 27.0597 24.08255 0.01699
C 28.2712 23.40749 -0.00416
C 28.27637 21.93806 0.01177
C 27.13065 21.30176 0.04266
C 24.44848 7.33192 0.00487
C 24.61809 21.1502 -0.00942
C 25.76974 21.80236 -0.02815
C 25.82933 23.37079 0.00622
C 23.29805 23.31655 0.01423
C 23.31299 21.8445 -0.00285
C 22.0176 21.2494 -0.009
C 21.91902 6.96925 -0.01199
C 23.28494 6.61352 -0.00229
C 23.20952 5.04143 -0.00938
C 22.00077 4.17074 -0.0264
C 22.05848 2.78548 -0.01154
C 23.30158 2.15891 0.00684
C 28.13263 6.52863 0.0014
C 23.37109 0.62928 -0.01052
C 24.57174 32.64826 0.00367
C 25.75372 31.96342 0.04306
C 25.82399 30.53213 0.00996
C 24.58789 29.76899 0.00195
C 24.5979 28.34497 -0.00802
C 25.79242 27.54359 -0.00218
C 25.82134 26.16018 -0.01654
C 24.57218 25.48806 -0.00037
C 24.5558 24.04867 -0.0032
C 22.15972 34.05708 -0.01679
C 2.40165 32.77502 0.03828
