261
Graphene
C 34.29451 0.10699 0.01295
C 12.29437 28.36632 -0.00381
C 12.32728 29.74884 0.01852
C 13.56347 30.50893 0.01126
C 13.50606 31.90003 -0.01185
C 12.3666 32.71612 -0.01662
C 9.82 0.11547 -0.00478
C 11.04831 0.75206 0.01511
C 10.94609 2.10959 0.00199
C 9.91069 2.85723 0.01087
C 8.9721 19.77994 -0.01527
C 9.68972 21.00534 0.00096
C 11.0339 21.65158 0.01277
C 11.04101 23.2573 -0.02422
C 13.53465 27.56289 0.03046
C 9.87229 24.12562 -0.01721
C 11.11336 26.3044 0.0106
C 11.12827 27.73353 -0.01594
C 9.77327 28.3843 0.00742
C 9.73812 29.83907 -0.00311
C 11.08061 30.54028 0.00675
C 11.16811 32.01567 -0.00865
C 9.80422 32.69489 0.0058
C 7.35086 0.12079 -0.00652
C 8.60392 0.80172 -0.04076
C 8.61687 2.33739 -0.00703
C 7.36734 3.08954 0.00654
C 7.00608 4.38926 -0.04422
C 7.3601 19.97193 -0.02957
C 9.84639 25.60368 -0.01154
C 13.57847 26.03678 0.0296
C 12.30404 25.37806 0.03374
C 12.29246 23.99145 -0.02845
C 19.75474 32.59811 -0.00229
C 17.14918 0.00752 -0.01199
C 18.43902 0.62882 -0.009
C 18.33287 2.14281 -0.00285
C 16.96433 2.61964 0.01423
C 17.18386 28.43831 0.02555
C 17.24265 29.7594 0.03102
C 18.4661 30.57164 0.00135
C 18.50026 31.98742 -0.00498
C 17.1662 32.66838 0.02737
C 14.70373 34.02993 0.02117
C 15.91805 0.62063 -0.04078
C 15.85449 2.01137 0.03005
C 14.9854 22.29876 -0.0276
C 14.84264 23.80053 0.00768
C 14.90781 25.24621 -0.00178
C 15.93039 26.16089 0.00733
C 16.08567 27.56926 -0.02118
C 14.79282 28.33096 -0.01971
C 14.83592 29.76091 -0.01586
C 16.02989 30.53582 -0.01107
C 15.93005 31.95465 0.00071
C 14.71313 32.64983 -0.00225
C 12.32528 0.0641 0.01515
C 13.59497 0.74501 -0.0055
C 14.00677 2.12678 0.02734
C 12.31892 21.28679 0.01153
C 13.47761 21.91994 0.02239
C 13.48941 23.38088 -0.03213
C 7.37433 21.40902 -0.00831
C 8.52021 22.15006 0.00364
C 8.60148 23.51331 -0.017
C 7.33232 24.19848 0.00143
C 3.60163 0.74269 -0.02162
C 3.67352 2.18067 -0.00619
C 2.3807 2.90473 0.01848
C 2.45404 4.36112 0.02098
C 3.58795 5.1756 -0.03113
C 3.78185 6.55718 0.0351
C 2.51855 7.23717 0.00422
C 2.51223 8.65196 0.00798
C 3.76994 9.44693 0.00228
C 3.54587 10.59375 -0.00114
C 2.41246 11.5443 -0.02696
C 2.4668 12.92625 -0.00368
C 3.69405 13.605 -0.0108
C 3.69418 14.95873 -0.01957
C 2.37608 15.63977 0.02058
C 2.46663 17.07994 0.01965
C 3.75345 17.76379 -0.03682
C 3.86644 19.12915 0.00052
C 2.60767 19.84462 0.00374
C 2.54621 21.23701 -0.02813
C 3.78482 21.95456 -0.01952
C 3.67662 23.3646 0.05265
C 2.32111 24.12161 -0.01717
C 2.3475 25.53407 0.00244
C 3.59755 26.28356 0.02299
C 3.59537 27.72527 0.03542
C 2.27881 28.38519 0.01416
C 2.31491 29.85738 0.01945
C 3.52011 30.5286 -0.01454
C 2.34535 0.07267 0.00889
C 21.03314 31.84095 -0.00938
C 4.81642 32.66006 -0.00481
C 6.08375 30.61828 0.01443
C 7.30772 25.63504 0.00667
C 8.54219 26.29039 -0.0054
C 8.4944 27.73297 0.00755
C 7.24177 28.43433 0.01739
C 7.28951 29.86522 0.03754
C 8.46193 30.58739 -0.03557
C 8.50783 32.06798 -0.00111
C 7.30159 32.74166 0.04892
C 4.87555 34.06236 0.01452
C 6.10499 0.79909 -0.01581
C 6.12044 2.28129 0.02691
C 4.91229 2.98469 -0.01979
C 4.87124 4.42179 0.02188
C 6.11651 5.33514 -0.00316
C 5.10709 7.05512 -0.0331
C 4.82641 15.74541 -0.0258
C 5.16742 17.02102 0.03338
C 6.1854 17.82031 -0.00491
C 6.27582 19.11257 -0.00109
C 5.10261 19.86574 0.03698
C 4.98908 21.2464 -0.02213
C 6.11889 22.00788 0.00028
C 6.12312 23.48402 -0.00289
C 4.81512 24.14512 -0.00066
C 4.83433 25.56033 0.00213
C 6.04306 26.26849 -0.05302
C 6.08644 27.68666 -0.04147
C 4.77965 28.40573 -0.02815
C 4.77296 29.84917 0.03505
C 5.99941 31.99413 0.00979
C 3.56043 31.98953 0.01241
C 20.81642 30.42831 -0.0264
C 20.9198 6.45296 0.00684
C 33.15171 2.24372 -0.00323
C 31.9157 2.90846 0.00349
C 31.93137 4.36693 -0.03838
C 33.14812 5.09039 0.04926
C 33.22057 6.56445 -0.00069
C 31.97567 7.20698 0.01504
C 32.01105 8.60195 0.02806
C 33.24668 9.36116 0.04381
C 33.0787 10.78081 0.00199
C 31.8254 11.39425 0.00137
C 31.78172 12.89894 -0.01839
C 33.04356 13.57348 -0.00644
C 33.10258 15.00603 0.00455
C 33.09474 0.74952 -0.00841
C 31.79191 15.61046 0.00369
C 33.0757 26.29271 0.00594
C 32.96566 27.61645 -0.0136
C 31.91829 28.42131 -0.01429
C 31.841 29.81948 -0.02383
C 33.03973 30.52117 0.01574
C 33.16287 31.99872 0.01927
C 31.90992 32.73128 0.03794
C 29.44253 0.0337 -0.01779
C 30.70854 0.75106 0.00682
C 30.68977 2.25386 0.00026
C 29.49766 2.91276 0.0544
C 29.49493 4.35769 -0.02142
C 30.71435 5.06114 0.01428
C 33.23291 17.94325 -0.02474
C 31.90383 0.0582 0.0001
C 34.31243 32.7538 -0.02927
C 1.0818 32.04173 -0.01404
C 1.1779 0.75092 -0.00468
C 1.22524 2.20621 -0.00939
C 34.3996 2.85857 -0.00931
C 34.35363 4.28361 -0.0345
C 1.15623 5.03427 0.00628
C 1.26955 6.49877 0.02931
C 0.10195 7.24953 -0.02849
C 0.0123 8.66876 -0.02302
C 1.28141 9.36335 -0.00583
C 1.15947 10.7841 -0.00027
C 34.27874 11.54041 -0.02442
C 34.33483 12.94141 -0.02656
C 1.20606 13.6265 0.00343
C 1.12879 14.99018 -0.02957
C 34.36274 15.72863 0.02114
C 0.00964 17.06673 0.00648
C 1.23569 17.73511 0.01223
C 1.25077 19.16679 -0.01678
C 0.04995 19.8031 0.01951
C 0.05648 21.03372 -0.02213
C 1.18911 22.00025 0.02712
C 1.09737 23.32397 0.00723
C 34.28672 24.00343 0.03076
C 34.09273 25.36304 -0.05239
C 1.01171 26.19409 -0.00598
C 0.99139 27.59662 -0.00439
C 34.16888 28.36998 -0.01037
C 34.26319 29.82435 0.01831
C 1.11406 30.57948 0.01027
C 30.73763 6.53408 -0.01694
C 29.47263 7.11564 0.01713
C 29.59774 8.56927 0.00346
C 30.79638 9.31353 0.00307
C 24.68412 8.62775 0.01259
C 25.94231 9.21578 0.01495
C 25.9455 10.87431 0.00235
C 24.606 11.20783 0.01094
C 25.26425 30.66099 0.02198
C 25.74613 32.09977 0.02611
C 24.51975 32.78422 -0.00621
C 22.08569 33.98458 0.00194
C 23.32922 0.70368 0.04185
C 23.3083 2.17149 0.02316
C 22.08412 2.8552 0.01257
C 22.04673 4.24426 0.00152
C 23.21483 5.0658 -0.00294
C 23.28775 6.53383 0.00826
C 21.9885 7.2572 0.00487
C 22.16748 8.60082 -0.00942
C 23.32907 9.16889 -0.02815
C 23.33463 10.8036 0.00622
C 22.24351 11.67247 -0.0032
C 21.6785 12.68995 -0.00037
C 24.02943 30.4726 -0.01654
C 23.41837 31.91047 -0.00218
C 22.26095 32.49745 -0.00802
C 19.70512 34.0614 0.00195
C 21.01157 0.69433 0.00996
C 20.79213 2.14735 0.04306
C 19.54039 2.87728 0.00367
C 19.57729 4.25303 -0.01679
C 20.6895 5.10417 -0.01052
C 24.5569 7.18411 0.01799
C 19.73069 29.90966 -0.01154
C 25.78781 6.32965 0.01699
C 24.44599 4.33762 0.01177
C 30.64863 10.7647 0.00716
C 29.39567 11.35634 0.02108
C 29.32235 12.8259 0.0103
C 30.36881 13.66259 0.07705
C 30.84753 14.97546 0.01908
C 29.35395 30.12087 0.01518
C 30.66526 30.52691 -0.00971
C 30.66507 32.00599 -0.03735
C 29.47124 32.72244 -0.00944
C 26.9703 0.06741 -0.02155
C 28.1867 0.77364 -0.01461
C 28.18928 2.1881 -0.01303
C 27.03538 2.87237 -0.0405
C 26.91253 4.21057 0.01705
C 28.17106 4.98564 0.0101
C 28.28076 6.40235 -0.00669
C 27.01689 7.07779 0.03531
C 27.15391 8.47689 0.01836
C 28.37506 9.15362 -0.03039
C 28.27797 10.63022 -0.01415
C 27.18081 11.56181 -0.01854
C 27.95212 12.8493 -0.02049
C 28.29859 30.60349 0.03265
C 28.19459 31.98555 0.00261
C 26.89771 32.69757 0.02326
C 24.54622 0.11368 0.00924
C 25.75289 0.81125 0.0014
C 25.76471 2.28913 0.01324
C 24.54322 2.883 0.04266
C 25.67822 4.92364 -0.00416
C 2.33584 32.67108 0.0076
