377
Graphene
C 34.32984 0.05422 0.01295
C 9.81784 2.8448 0.03542
C 11.04259 2.22165 0.02299
C 11.01684 0.78938 0.00244
C 9.79434 0.08847 -0.01717
C 12.31359 32.7112 0.05265
C 13.4357 31.94884 -0.01952
C 13.4565 30.57888 -0.02813
C 12.30724 29.86962 0.00374
C 12.2959 28.40036 0.00052
C 13.46912 27.595 -0.03682
C 13.49472 26.13916 0.01965
C 12.15407 25.38454 0.02058
C 14.02705 12.83323 -0.01957
C 12.50858 12.65255 -0.0108
C 12.21772 11.31467 -0.00368
C 13.44454 10.53955 -0.02696
C 13.50395 9.15332 -0.00114
C 12.26293 8.47456 0.00228
C 12.30237 7.03741 0.00798
C 9.79248 4.32619 0.01416
C 11.08221 5.01073 0.01945
C 11.04416 6.35152 -0.01454
C 9.72344 7.1508 0.01241
C 11.04953 31.98728 -0.00428
C 11.11781 30.5498 0.03101
C 9.86042 29.84182 -0.01536
C 9.85304 28.4453 -0.02689
C 11.11444 27.76065 -0.01046
C 11.04383 26.34699 -0.00891
C 9.81795 25.60863 0.02819
C 9.93146 24.21672 0.00165
C 11.31302 23.90593 -0.02971
C 13.49188 6.38504 0.00422
C 9.80357 21.33398 0.02894
C 9.79281 16.94256 0.00444
C 10.02703 15.61017 -0.00925
C 11.14231 14.79684 0.01877
C 11.25696 13.40016 0.01363
C 9.93259 12.71019 -0.02162
C 9.84622 11.41745 0.00415
C 11.05025 10.57417 -0.0014
C 10.99386 9.16881 0.02162
C 9.7604 8.53674 0.0076
C 9.93548 20.1067 -0.01789
C 9.89458 32.75553 -0.02245
C 13.49632 4.96425 0.0351
C 12.29206 2.91487 0.02098
C 17.11607 29.65185 -0.01979
C 17.15117 28.21765 0.02691
C 18.42219 27.71744 -0.01581
C 17.01192 11.3126 0.01452
C 18.32344 10.78908 0.04892
C 18.38788 9.27985 -0.00111
C 17.12841 8.57292 -0.03557
C 17.22774 7.09384 0.03754
C 18.4108 6.38432 0.01739
C 18.42064 4.86796 0.00755
C 17.24769 4.20835 -0.0054
C 17.26268 2.83375 0.00667
C 18.45732 2.05313 0.00143
C 18.42633 0.6821 -0.017
C 17.22325 34.02363 0.00364
C 19.71362 32.62167 -0.00831
C 20.88733 31.85424 -0.02957
C 20.87514 30.50533 -0.04422
C 19.6277 29.75714 0.00654
C 18.35842 30.35839 0.02188
C 18.42929 31.85033 -0.00316
C 17.21111 32.58212 -0.0331
C 14.7079 0.02521 -0.0258
C 13.61389 2.1792 0.01848
C 13.49969 0.80163 -0.00619
C 12.26227 0.0593 -0.02162
C 14.65986 32.64435 0.00889
C 15.92506 31.86618 -0.00481
C 15.90319 30.43907 0.00979
C 14.66443 29.82774 0.01443
C 14.68239 28.376 0.03505
C 15.84646 27.58413 -0.02815
C 12.32053 4.23035 -0.03113
C 14.47406 11.5264 -0.04147
C 15.86853 9.30224 0.00213
C 14.72638 8.5617 -0.00066
C 14.80769 7.08684 -0.00289
C 16.03036 6.32957 0.00028
C 16.05587 4.928 -0.02213
C 14.81642 4.26234 0.03698
C 14.77333 2.87331 -0.00109
C 15.99197 2.1513 -0.00491
C 15.971 0.73423 0.03338
C 15.7351 10.82892 -0.05302
C 7.32171 0.08695 0.00985
C 8.53787 0.77466 -0.01275
C 8.507 2.20393 -0.01111
C 3.61176 4.96895 0.00988
C 2.43109 4.24012 0.0276
C 2.418 2.8581 0.01305
C 3.66192 2.15573 -0.00077
C 3.61283 0.74234 0.03368
C 2.37829 34.03972 -0.02929
C 4.90136 32.72928 -0.00966
C 6.13596 32.02194 -0.03337
C 6.10522 30.58785 0.01227
C 4.88252 29.83151 0.00873
C 4.9163 28.44573 -0.00049
C 6.17968 27.72173 0.00848
C 6.11837 26.3905 -0.01303
C 4.91814 25.58368 -0.01378
C 4.87193 24.08308 0.02635
C 6.13319 23.46132 0.0127
C 6.15001 21.97235 0.01396
C 4.90717 21.27526 0.01849
C 4.9594 19.86616 -0.01142
C 3.59907 6.40607 -0.01343
C 2.4753 7.12904 0.01087
C 2.46875 8.5998 -0.05697
C 3.62004 9.2952 -0.00725
C 3.68836 30.57428 0.03267
C 2.395 29.87696 0.02374
C 2.47855 28.43746 0.00402
C 3.70073 27.74288 0.0073
C 3.64062 26.26581 0.0174
C 2.48562 25.57176 0.03828
C 2.38969 24.20923 0.01226
C 3.61859 23.42204 -0.00279
C 3.65881 22.03369 0.01996
C 6.26839 19.2206 -0.00562
C 2.4146 21.35426 -0.03996
C 3.71947 19.18606 -0.00074
C 3.68426 17.781 -0.00518
C 2.45545 17.06735 0.0086
C 2.44496 15.74331 -0.00643
C 3.6508 14.99102 0.017
C 3.69778 13.58856 -0.03113
C 2.45198 12.86643 -0.02566
C 2.46765 11.43287 -0.00094
C 3.71143 10.69143 0.02322
C 2.4617 19.88196 0.01465
C 6.16215 17.81858 -0.00494
C 5.00471 17.14154 0.00054
C 4.91585 15.7244 0.03007
C 8.67883 23.55171 0.00438
C 8.57339 22.1495 0.01291
C 7.38708 21.32697 0.00093
C 7.56762 19.94691 0.00057
C 8.79077 19.22926 -0.01634
C 8.71146 17.82192 -0.00334
C 7.41462 17.08932 0.02339
C 7.49747 15.69102 0.01641
C 8.74656 14.9397 -0.00719
C 7.4132 24.21935 -0.00191
C 8.73616 13.47368 0.01364
C 7.35914 11.38834 -0.00033
C 8.57037 10.77025 0.03589
C 8.56137 9.27112 -0.02759
C 7.3182 8.58276 0.0402
C 7.3318 7.13502 0.00572
C 8.5449 6.42067 0.03592
C 8.57541 4.99331 0.00406
C 7.38382 4.27883 0.00943
C 7.31529 2.91004 0.02841
C 7.42964 12.79127 -0.01062
C 19.62457 28.31779 -0.00703
C 7.41551 25.686 0.00373
C 8.60205 27.78856 -0.014
C 6.1656 14.96383 -0.00095
C 6.16474 13.50424 0.01572
C 4.85685 12.83658 -0.04848
C 4.90592 11.39967 -0.00892
C 6.15319 10.67768 -0.01362
C 6.06533 9.28389 -0.0008
C 4.88075 8.64463 0.0288
C 4.85531 7.16029 0.00393
C 6.09876 6.44917 0.00895
C 8.60106 26.37075 0.02147
C 6.11676 5.0539 0.00685
C 4.91199 2.86214 -0.00482
C 6.06059 2.20607 -0.01384
C 6.10034 0.82803 0.03693
C 4.88563 0.04265 0.01745
C 7.38287 32.72378 0.00488
C 8.57799 32.05437 -0.01004
C 8.56153 30.61415 -0.02896
C 7.42477 29.95026 -0.00131
C 7.4049 28.4605 -0.01118
C 4.91124 4.29687 0.02888
C 3.60007 32.00254 -0.01509
C 20.89759 27.71836 -0.04076
C 20.82182 10.6164 0.0058
C 30.69514 2.188 0.00716
C 30.76657 0.79287 0.00307
C 29.50829 0.03875 0.00346
C 31.95505 32.68458 0.01713
C 33.15427 31.95118 -0.01694
C 33.20301 30.59742 0.01428
C 31.9848 29.84296 -0.02142
C 31.90476 28.44475 0.0544
C 33.15353 27.81037 0.00026
C 33.2293 26.27587 0.00682
C 31.93346 25.61717 -0.01779
C 31.91538 24.1809 0.03794
C 33.13822 23.48197 0.01927
C 33.13245 22.0647 0.01574
C 31.93099 21.30091 -0.02383
C 31.94815 19.86946 -0.01429
C 33.11334 19.15836 -0.0136
C 33.18222 17.75735 0.00594
C 31.96393 17.05287 -0.02474
C 29.42089 2.7906 0.02108
C 29.47634 4.26327 0.0103
C 30.71679 4.97847 0.07705
C 30.75595 6.45028 0.01908
C 30.6891 27.67565 0.02326
C 30.70965 26.296 0.00261
C 29.45467 25.52911 0.03265
C 29.43549 24.10358 -0.02049
C 30.65304 23.42747 -0.01854
C 30.6754 21.97109 -0.01415
C 29.37809 21.2863 -0.03039
C 29.44279 19.90637 0.01836
C 30.759 19.1106 0.03531
C 31.93069 15.59071 0.00369
C 30.75182 17.77409 -0.00669
C 29.4384 15.64187 0.01705
C 30.7052 14.95399 -0.0405
C 30.75216 13.51598 -0.01303
C 29.50077 12.80245 -0.01461
C 29.48986 11.37958 -0.02155
C 30.74329 10.69825 -0.00944
C 30.77354 9.25084 -0.03735
C 29.46641 8.50835 -0.00971
C 29.45565 7.17023 0.01518
C 29.5388 17.08978 0.0101
C 29.47626 28.37228 0.00924
C 33.22275 14.97572 0.00455
C 31.99299 12.79017 -0.01839
C 34.34691 19.9315 0.01951
C 1.22837 19.23986 -0.01678
C 1.20728 17.70159 0.01223
C 34.39376 17.05196 0.00648
C 34.4177 15.63942 0.02114
C 1.23521 14.95581 -0.02957
C 1.19683 13.51841 0.00343
C 34.43186 12.86547 -0.02656
C 0.04707 11.41919 -0.02442
C 1.2057 10.659 -0.00027
C 1.1624 9.27258 -0.00583
C 34.39745 8.48106 -0.02302
C 34.41225 7.08975 -0.02849
C 1.20786 6.40941 0.02931
C 1.1739 5.02647 0.00628
C 34.36642 4.30102 -0.0345
C 34.39281 2.84707 -0.00931
C 1.1381 2.13758 -0.00939
C 1.0928 0.73678 -0.00468
C 34.33856 21.33864 -0.02213
C 1.16928 22.10351 0.02712
C 1.22996 23.42946 0.00723
C 34.42239 24.15754 0.03076
C 32.00399 11.36301 0.00137
C 33.23241 10.69416 0.00199
C 33.23083 9.26323 0.04381
C 31.98651 8.54415 0.02806
C 31.99396 7.13856 0.01504
C 33.19062 6.35534 -0.00069
C 33.15833 4.91335 0.04926
C 31.95324 4.25025 -0.03838
C 31.95536 2.89869 0.00349
C 33.20087 13.60349 -0.00644
C 33.13032 2.14679 -0.00323
C 31.90811 0.00187 0.0001
C 34.39231 32.67643 -0.02927
C 1.18781 31.9918 -0.01404
C 1.1377 30.57161 0.01027
C 34.37648 29.89747 0.01831
C 34.36791 28.49539 -0.01037
C 1.25171 27.77813 -0.00439
C 1.22961 26.31349 -0.00598
C 0.00171 25.57813 -0.05239
C 33.0915 0.64259 -0.00841
C 29.45719 29.83041 0.0014
C 30.71165 30.5595 0.01324
C 30.69726 31.99684 0.04266
C 23.39416 6.29371 -0.02845
C 23.29339 4.85703 -0.03213
C 22.11775 4.1922 0.02239
C 22.13515 2.73169 0.01153
C 23.40504 2.01263 0.02734
C 23.39544 0.62921 -0.0055
C 22.2193 33.94835 0.01515
C 24.64039 32.56535 -0.00225
C 25.93263 31.92456 0.00071
C 25.81643 30.46804 -0.01107
C 24.63533 29.79169 -0.01586
C 24.62376 28.40023 -0.01971
C 25.84695 27.66132 -0.02118
C 25.86596 26.19618 0.00733
C 24.55102 25.54563 -0.00178
C 24.56587 24.16639 0.00768
C 25.60712 23.23345 -0.0276
C 25.74129 21.83099 0.03005
C 25.94962 17.9847 -0.04078
C 22.07705 7.10752 0.03374
C 22.02913 8.52961 0.0296
C 23.29461 9.24859 0.03046
C 23.24243 10.69215 -0.00381
C 20.79109 9.20131 -0.00865
C 19.63532 8.56481 0.00675
C 19.57604 7.08383 -0.00311
C 20.86787 6.34904 0.00742
C 20.9236 4.87324 -0.01594
C 19.67077 4.14682 0.0106
C 19.63311 2.74277 -0.01154
C 20.90006 1.93466 -0.01721
C 20.90515 0.56178 -0.02422
C 25.80587 14.9853 0.02117
C 19.72226 33.99828 0.01277
C 23.41586 31.89673 -0.01527
C 23.3712 30.51955 0.01087
C 22.14599 29.80684 0.00199
C 22.07099 28.41065 0.01511
C 23.33169 27.74116 -0.00478
C 23.20379 26.33411 -0.01662
C 23.31233 13.31062 -0.01185
C 22.23095 12.78473 0.01126
C 22.04937 11.3585 0.01852
C 22.13614 32.57952 0.00096
C 25.78987 13.57523 0.02737
C 24.61703 12.81234 -0.00498
C 24.56162 11.39433 0.00135
C 28.25299 19.16882 -0.00942
C 28.29966 17.78836 0.00487
C 27.01872 17.13056 0.00826
C 26.98736 15.64673 -0.00294
C 28.25173 14.95237 0.00152
C 28.19917 13.55558 0.01257
C 26.997 12.82369 0.02316
C 27.01731 11.40637 0.04185
C 28.21684 10.64633 0.00194
C 26.91727 19.53919 -0.02815
C 28.28319 9.22334 -0.00621
C 26.98028 7.12336 0.02198
C 28.22159 6.4276 0.01094
C 28.19662 5.00881 0.00235
C 27.07204 4.30605 0.01495
C 26.95032 2.85865 0.01259
C 28.25423 2.15468 0.01799
C 28.23772 0.74911 0.01699
C 27.03933 0.01253 -0.00416
C 29.49639 32.69103 0.01177
C 27.03214 8.50009 0.02611
C 19.61375 11.31232 -0.00652
C 26.85788 21.01982 0.00622
C 28.1284 23.32783 -0.00037
C 25.76904 10.70558 0.03102
C 25.817 9.23854 0.02555
C 24.57488 8.53728 0.01423
C 24.53508 7.08529 -0.00285
C 25.74695 6.31847 -0.009
C 25.79823 4.95533 -0.01199
C 24.61612 4.21809 -0.00229
C 24.62743 2.8104 -0.00938
C 25.80396 2.13388 -0.0264
C 28.11434 21.90103 -0.0032
C 25.80576 0.66794 -0.01154
C 27.09685 32.659 -0.01052
C 28.25017 31.89127 -0.01679
C 28.2569 30.51782 0.00367
C 26.99254 29.75264 0.04306
C 27.06335 28.31044 0.00996
C 28.24959 27.61594 0.00195
C 28.2258 26.23208 -0.00802
C 26.99404 25.37154 -0.00218
C 26.89034 23.90666 -0.01654
C 24.67538 33.98338 0.00684
C 2.42248 32.69554 0.00643
