394
Graphene
C 0.02844 33.99479 0.01295
C 11.03336 0.87941 -0.00925
C 9.82293 0.15493 0.01877
C 12.30256 32.63666 0.01363
C 13.47051 31.97226 -0.02162
C 13.41967 30.52051 0.00415
C 12.15334 29.86544 -0.0014
C 12.25816 28.44193 0.02162
C 13.50476 27.73824 0.0076
C 13.52793 26.33643 0.01241
C 11.05897 2.27095 0.00444
C 12.24762 25.58035 -0.01454
C 13.52768 23.40139 0.01416
C 13.50348 21.96268 0.03542
C 12.14335 21.28369 0.02299
C 12.20132 19.82374 0.00244
C 13.51052 19.21955 -0.01717
C 13.46713 17.78827 0.05265
C 12.32607 17.05096 -0.01952
C 12.26519 15.62749 -0.02813
C 13.51163 14.91271 0.00374
C 12.25785 24.16698 0.01945
C 9.87653 2.97044 -0.01789
C 9.90588 4.4496 0.02894
C 11.20852 5.14986 -0.02971
C 10.99908 27.68106 -0.00033
C 11.01909 26.26161 0.03589
C 9.72031 25.56616 -0.02759
C 9.76712 24.18623 0.0402
C 10.98425 23.49749 0.00572
C 10.9914 21.95547 0.03592
C 9.80062 21.26194 0.00406
C 9.85645 19.87712 0.00943
C 11.01217 19.15316 0.02841
C 11.07521 17.70736 -0.01111
C 9.81504 17.03177 -0.01275
C 9.77324 15.62541 0.00985
C 11.08698 14.92413 -0.02245
C 11.23912 13.48862 -0.00428
C 9.96255 12.72081 0.03101
C 9.86517 11.28429 -0.01536
C 11.15396 10.60003 -0.02689
C 11.04448 9.09519 -0.01046
C 9.77077 8.53913 -0.00891
C 9.70864 7.1854 0.02819
C 10.95558 6.60634 0.00165
C 13.7087 13.5853 0.00052
C 9.83496 28.49683 -0.01062
C 12.49416 12.74453 -0.03682
C 12.17931 4.24928 0.02058
C 18.39797 32.14005 0.00028
C 18.43333 30.67293 -0.02213
C 17.21705 29.8711 0.03698
C 17.28587 28.40036 -0.00109
C 18.47049 27.64733 -0.00491
C 18.45066 26.25121 0.03338
C 17.15323 25.48357 -0.0258
C 17.22422 24.11897 -0.0331
C 18.44913 23.3716 -0.00316
C 17.15745 32.73774 -0.00289
C 18.44325 22.00476 0.02188
C 17.22888 19.77086 0.02691
C 18.43739 19.04697 -0.01581
C 18.35852 17.60277 0.01452
C 17.11713 16.93259 0.04892
C 17.12787 15.46503 -0.00111
C 18.45553 14.86889 -0.03557
C 18.39813 0.8026 0.03754
C 17.16117 0.17798 0.01739
C 19.75389 32.80066 0.00755
C 17.22346 21.27719 -0.01979
C 14.73048 34.05319 -0.00066
C 15.832 0.78888 0.00213
C 15.82006 14.83676 -0.05302
C 12.56687 2.84393 -0.01957
C 13.71113 2.00622 -0.0108
C 13.45783 0.68449 -0.00368
C 12.17882 0.06253 -0.02696
C 14.69242 32.59638 -0.00114
C 15.94699 31.99298 0.00228
C 15.92102 30.56279 0.00798
C 14.70076 29.84882 0.00422
C 14.75925 28.43291 0.0351
C 16.08229 27.62997 -0.03113
C 15.96865 26.2365 0.02098
C 14.67779 25.58686 0.01848
C 14.76852 24.1484 -0.00619
C 16.0315 23.33245 -0.02162
C 16.02828 21.92022 0.00889
C 14.74323 21.31563 -0.00481
C 14.81976 19.92228 0.00979
C 15.95619 19.11101 0.01443
C 15.98468 17.73066 0.03505
C 14.72071 17.07172 -0.02815
C 14.66907 15.60356 -0.04147
C 12.23403 11.36359 0.01965
C 9.77291 29.97108 0.01364
C 10.99108 30.55617 -0.00719
C 11.09492 31.97117 0.01641
C 2.38674 4.30181 0.01996
C 2.37129 2.83623 -0.03996
C 3.62607 2.19266 0.01465
C 3.64468 0.76723 -0.00074
C 2.40489 0.0613 -0.00518
C 4.88327 32.68191 0.0086
C 6.15591 32.02655 -0.00643
C 6.07206 30.62992 0.017
C 4.90961 29.86452 -0.03113
C 3.66587 5.0327 -0.00279
C 4.93484 28.45324 -0.02566
C 6.09152 26.30968 0.02322
C 4.87399 25.66795 -0.00725
C 4.84477 24.16556 -0.05697
C 6.07113 23.4497 0.01087
C 6.07262 22.04705 -0.01343
C 4.86021 21.24023 0.00988
C 4.81614 19.84703 0.0276
C 6.07414 19.23224 0.01305
C 6.16552 17.78253 -0.00077
C 6.12748 27.69958 -0.00094
C 3.68456 6.47524 0.01226
C 2.45114 7.06572 0.03828
C 2.37382 8.53927 0.0174
C 3.67668 30.61833 -0.00561
C 2.44949 29.87159 0.00208
C 2.29716 28.45744 0.01707
C 3.65656 27.76634 0.02769
C 3.63093 26.37119 -0.03291
C 2.46558 25.60903 -0.04999
C 2.41586 24.12373 0.04505
C 3.66247 23.4771 0.03284
C 3.71574 22.07055 -0.04307
C 2.4461 21.37833 0.03189
C 2.52391 19.87953 0.00031
C 3.65642 19.09838 -0.003
C 3.62925 17.69166 0.01402
C 2.40302 16.99351 0.02379
C 2.39705 15.54527 0.00907
C 3.67197 14.89303 0.00643
C 3.68232 13.46579 -0.01509
C 2.39712 12.84394 0.03267
C 2.40978 11.38546 0.02374
C 3.64093 10.66526 0.00402
C 3.58953 9.23862 0.0073
C 4.93567 17.01702 0.03368
C 4.90065 15.58896 -0.02929
C 6.20705 14.90969 -0.00966
C 6.1335 13.48338 -0.03337
C 7.31064 19.9319 0.02888
C 8.58525 19.19261 -0.00482
C 8.62846 17.7507 -0.01384
C 7.3853 17.01183 0.03693
C 7.37966 15.57197 0.01745
C 8.59128 14.91069 0.00488
C 8.69573 13.43597 -0.01004
C 7.37819 12.7992 -0.02896
C 7.38185 11.35892 -0.00131
C 8.57532 10.70542 -0.01118
C 8.56968 9.28158 -0.014
C 7.27829 8.59073 0.02147
C 7.30711 7.15807 0.00373
C 8.54693 6.40455 -0.00191
C 8.54309 5.08665 0.00438
C 7.32988 4.33578 0.01291
C 7.40171 2.96063 0.00093
C 8.65347 2.21265 0.00057
C 8.55961 0.8056 -0.01634
C 7.33353 0.10815 -0.00334
C 9.86345 32.74969 0.02339
C 7.36455 21.37715 0.00685
C 20.87924 32.01797 -0.0054
C 8.58969 22.07149 0.00895
C 7.34189 24.17147 0.0288
C 4.88411 12.78749 0.01227
C 4.90833 11.34764 0.00873
C 6.17176 10.70606 -0.00049
C 6.05812 9.32946 0.00848
C 4.79371 8.59905 -0.01303
C 4.88266 7.15989 -0.01378
C 6.07951 6.49961 0.02635
C 6.0185 5.08199 0.0127
C 4.82293 4.35187 0.01396
C 4.83306 2.92672 0.01849
C 6.08937 2.2651 -0.01142
C 6.12771 0.80373 -0.00562
C 4.8509 0.08601 -0.00494
C 7.33625 32.78097 0.00054
C 8.61988 32.07154 0.03007
C 8.53995 30.66699 -0.00095
C 7.32423 29.92746 0.01572
C 7.4055 28.49287 -0.04848
C 8.5728 27.8107 -0.00892
C 8.48895 26.28842 -0.01362
C 7.22082 25.55179 -0.0008
C 8.60878 23.45577 0.00393
C 20.8911 30.53154 0.00667
C 19.63201 29.92135 0.00143
C 19.62014 28.46091 -0.017
C 30.6611 6.34334 0.01908
C 30.65693 4.91264 0.07705
C 29.45838 4.21562 0.0103
C 29.41826 2.79201 0.02108
C 30.70282 2.09979 0.00716
C 30.74455 0.71925 0.00307
C 29.5493 34.07191 0.00346
C 31.93863 32.69852 0.01713
C 33.07702 31.96205 -0.01694
C 29.51401 7.16411 0.01518
C 33.17041 30.53878 0.01428
C 31.92876 28.42945 0.0544
C 33.13086 27.69474 0.00026
C 33.18476 26.27463 0.00682
C 31.94614 25.63613 -0.01779
C 31.96343 24.15547 0.03794
C 33.19177 23.45534 0.01927
C 33.15814 21.94773 0.01574
C 31.90983 21.30893 -0.02383
C 31.948 19.86893 -0.01429
C 31.96628 29.84401 -0.02142
C 29.5232 8.60393 -0.00971
C 30.7248 9.19497 -0.03735
C 30.65311 10.66054 -0.00944
C 29.51772 32.66911 0.01177
C 30.6929 31.95305 0.04266
C 30.73415 30.51675 0.01324
C 29.49468 29.82973 0.0014
C 29.4904 28.39683 0.00924
C 30.71883 27.71122 0.02326
C 30.74447 26.27441 0.00261
C 29.59056 25.48597 0.03265
C 29.47544 24.09893 -0.02049
C 30.74701 23.39698 -0.01854
C 30.79514 21.99877 -0.01415
C 29.54818 21.30178 -0.03039
C 29.50132 19.88788 0.01836
C 30.73449 19.20567 0.03531
C 30.63622 17.78343 -0.00669
C 29.46197 17.02099 0.0101
C 29.45961 15.61151 0.01705
C 30.66989 14.93704 -0.0405
C 30.63885 13.51406 -0.01303
C 29.40998 12.7922 -0.01461
C 29.3897 11.32732 -0.02155
C 33.19855 19.1779 -0.0136
C 33.19689 17.67806 0.00594
C 31.87399 17.0339 -0.02474
C 31.90967 15.65895 0.00369
C 1.17992 22.01785 0.02712
C 34.42298 21.217 -0.02213
C 0.02067 19.82205 0.01951
C 1.2555 19.21103 -0.01678
C 1.22851 17.79041 0.01223
C 0.0451 17.07246 0.00648
C 34.42436 15.63276 0.02114
C 1.20459 14.93294 -0.02957
C 1.22128 13.53106 0.00343
C 34.40295 12.9093 -0.02656
C 34.34184 11.3871 -0.02442
C 1.15042 10.67738 -0.00027
C 1.14395 9.23585 -0.00583
C 34.35786 8.60297 -0.02302
C 34.38804 7.11499 -0.02849
C 1.2043 6.39986 0.02931
C 1.17161 5.01482 0.00628
C 0.00329 4.27938 -0.0345
C 34.39462 2.86628 -0.00931
C 1.15235 2.06723 -0.00939
C 1.18863 0.7163 -0.00468
C 1.24352 23.41986 0.00723
C 26.98387 34.07754 -0.00416
C 0.05536 24.1503 0.03076
C 1.16813 26.23836 -0.00598
C 33.1634 14.93033 0.00455
C 33.08513 13.48428 -0.00644
C 31.87497 12.77951 -0.01839
C 31.86292 11.38733 0.00137
C 33.09764 10.72052 0.00199
C 33.1503 9.26841 0.04381
C 31.88949 8.57507 0.02806
C 31.87444 7.06688 0.01504
C 33.14137 6.35679 -0.00069
C 33.24281 4.945 0.04926
C 32.02224 4.29007 -0.03838
C 31.91432 2.85794 0.00349
C 33.16486 2.10905 -0.00323
C 33.25148 0.67344 -0.00841
C 31.98114 34.0409 0.0001
C 34.38399 32.57557 -0.02927
C 1.1868 31.91628 -0.01404
C 1.22157 30.51838 0.01027
C 34.41153 29.91706 0.01831
C 34.33759 28.46782 -0.01037
C 1.08475 27.74195 -0.00439
C 34.38892 25.54276 -0.05239
C 3.70558 32.03415 -0.01977
C 28.28171 0.75341 0.01699
C 26.87165 2.90211 0.01259
C 23.32397 22.00382 -0.01662
C 22.09607 21.23119 -0.01185
C 22.03473 19.86043 0.01126
C 23.37071 19.20379 0.01852
C 23.34452 17.80731 -0.00381
C 22.06844 17.1488 0.03046
C 22.06726 15.75216 0.0296
C 23.25308 14.92425 0.03374
C 23.18174 13.52329 -0.02845
C 23.40805 23.41592 -0.00478
C 23.19598 1.98497 -0.03213
C 22.10065 33.99816 0.01153
C 24.6245 32.64261 0.02734
C 25.83423 31.92366 -0.0055
C 25.83197 30.48091 0.01515
C 24.60519 29.85159 -0.00225
C 24.58795 28.39423 0.00071
C 25.81341 27.66538 -0.01107
C 25.93916 26.20738 -0.01586
C 24.68601 25.58787 -0.01971
C 23.3193 0.57799 0.02239
C 22.191 24.16405 0.01511
C 22.17419 25.57985 0.00199
C 23.39579 26.28701 0.01087
C 20.87616 27.72422 0.00364
C 20.85023 26.36388 -0.00831
C 19.64315 25.59828 -0.02957
C 19.70165 24.19257 -0.04422
C 20.96387 23.38891 0.00654
C 20.87959 21.9962 -0.00703
C 19.5973 21.27423 -0.04076
C 19.59632 19.84011 -0.00652
C 20.85017 19.13759 0.0058
C 20.83516 17.70983 -0.00865
C 19.6399 16.93475 0.00675
C 19.73382 15.47958 -0.00311
C 21.02465 14.79972 0.00742
C 21.09812 0.8087 -0.01594
C 19.7373 0.21065 0.0106
C 22.13413 32.5705 -0.01154
C 23.33133 31.85632 -0.01721
C 23.35313 30.46253 -0.02422
C 22.09242 29.8028 0.01277
C 22.15001 28.4161 0.00096
C 23.35015 27.62834 -0.01527
C 24.61254 24.18465 -0.02118
C 25.84016 23.4033 0.00733
C 25.85109 22.00752 -0.00178
C 24.57486 21.33276 0.00768
C 27.12733 25.48 -0.00218
C 27.05978 24.13182 -0.01654
C 28.28741 23.4491 -0.00037
C 28.27958 21.96341 -0.0032
C 27.07826 21.25621 0.00622
C 27.07699 19.89332 -0.02815
C 28.23908 19.14128 -0.00942
C 28.21979 17.71411 0.00487
C 27.01316 17.02716 0.00826
C 26.94148 15.59678 -0.00294
C 28.18473 14.94376 0.00152
C 28.09762 13.49603 0.01257
C 26.98674 12.70859 0.02316
C 26.90921 11.23637 0.04185
C 28.1683 10.58994 0.00194
C 28.27045 9.21016 -0.00621
C 27.03841 8.47416 0.02611
C 27.0503 7.02215 0.02198
C 28.31506 6.44459 0.01094
C 28.21274 4.96757 0.00235
C 26.92672 4.32827 0.01495
C 28.31799 26.16115 -0.00802
C 28.1214 2.1458 0.01799
C 28.2991 27.65046 0.00195
C 27.05166 29.82456 0.04306
C 24.63092 19.87558 -0.0276
C 25.82029 19.15193 0.03005
C 25.82409 17.77299 -0.04078
C 24.54866 17.05163 0.02117
C 24.54729 15.57978 0.02737
C 25.73164 14.88833 -0.00498
C 25.78861 13.48259 0.00135
C 24.43689 12.69878 0.03102
C 24.59739 11.29356 0.02555
C 25.70353 10.48432 0.01423
C 25.74591 8.96041 -0.00285
C 25.7931 6.48192 -0.009
C 25.69515 5.02292 -0.01199
C 24.58423 4.19204 -0.00229
C 24.43459 2.78451 -0.00938
C 25.69752 2.11585 -0.0264
C 25.73989 0.7124 -0.01154
C 24.5771 34.0589 0.00684
C 27.11271 32.68443 -0.01052
C 28.27322 31.93654 -0.01679
C 28.27755 30.54291 0.00367
C 27.05307 28.3765 0.00996
C 2.43268 32.69001 0.02784
