422
Graphene
C 34.40796 33.99998 0.01295
C 12.22457 7.34153 0.03592
C 13.45553 6.53813 0.00406
C 13.50105 5.02761 0.00943
C 12.30093 4.2919 0.02841
C 12.24785 2.89299 -0.01111
C 13.4784 2.14792 -0.01275
C 13.49115 0.62318 0.00985
C 12.21637 0.01947 -0.02245
C 14.63057 32.55717 -0.00428
C 15.87918 31.96498 0.03101
C 12.1936 8.8605 0.00572
C 16.0376 30.54096 -0.01536
C 14.84616 28.30446 -0.01046
C 16.04049 27.6074 -0.00891
C 16.02919 26.16158 0.02819
C 14.78035 25.51033 0.00165
C 14.80689 24.08539 -0.02971
C 16.01338 23.44249 0.02894
C 16.11675 21.91248 -0.01789
C 14.79208 21.2526 0.00444
C 14.74099 19.88711 -0.00925
C 15.96503 19.12822 0.01877
C 14.78002 29.77997 -0.02689
C 15.93334 17.77454 0.01363
C 13.50881 9.39345 0.0402
C 12.22397 11.50942 0.03589
C 11.00995 2.18556 0.01745
C 11.01746 0.79357 0.00488
C 9.79103 0.09793 -0.01004
C 12.08457 32.62622 -0.02896
C 13.35972 31.74795 -0.00131
C 13.39265 30.15992 -0.01118
C 12.51421 28.71137 -0.014
C 13.5441 27.73174 0.02147
C 13.56467 26.22924 0.00373
C 12.30161 25.6443 -0.00191
C 13.55596 10.80875 -0.02759
C 12.27785 24.18019 0.00438
C 13.54806 21.95454 0.00093
C 12.26855 21.30292 0.00057
C 12.22981 19.80719 -0.01634
C 13.43294 19.19075 -0.00334
C 13.43439 17.75963 0.02339
C 12.24894 17.03032 0.01641
C 12.28326 15.6592 -0.00719
C 13.48665 14.94734 0.01364
C 13.51072 13.57921 -0.01062
C 12.28015 12.92888 -0.00033
C 13.48109 23.41758 0.01291
C 14.70534 17.04797 -0.02162
C 14.72772 15.6649 0.00415
C 16.00798 14.93065 -0.0014
C 17.23047 15.66414 -0.03113
C 18.43924 14.89849 0.02098
C 18.44296 13.41727 0.01848
C 17.24604 12.84494 -0.00619
C 17.23516 11.36987 -0.02162
C 18.45012 10.69836 0.00889
C 18.40826 9.19755 -0.00481
C 17.15451 8.49227 0.00979
C 17.13281 7.12414 0.01443
C 18.33754 6.37973 0.03505
C 17.26302 17.05017 0.0351
C 18.31307 4.92364 -0.02815
C 17.09471 2.83595 -0.05302
C 18.35735 2.09478 0.00213
C 18.36148 0.6738 -0.00066
C 17.07665 0.02756 -0.00289
C 19.63384 32.65953 0.00028
C 20.87475 32.02856 -0.02213
C 20.91826 30.61688 0.03698
C 19.71919 29.8505 -0.00109
C 19.69549 28.42093 -0.00491
C 20.86078 27.652 0.03338
C 17.07707 4.24398 -0.04147
C 18.46396 17.72408 0.00422
C 18.40265 19.08398 0.00798
C 17.18879 19.78937 0.00228
C 16.01344 13.54328 0.02162
C 14.81327 12.86885 0.0076
C 14.75096 11.4064 0.01241
C 16.00472 10.71765 -0.01454
C 15.94241 9.3439 0.01945
C 14.74197 8.64142 0.01416
C 14.72869 7.16281 0.03542
C 15.98708 6.38998 0.02299
C 15.90823 4.95564 0.00244
C 14.64759 4.2478 -0.01717
C 14.65972 2.8149 0.05265
C 15.82247 2.07381 -0.01952
C 15.92581 0.66826 -0.02813
C 14.69016 34.01163 0.00374
C 17.15781 32.66145 0.00052
C 18.43797 31.95611 -0.03682
C 18.44117 30.57281 0.01965
C 17.24532 29.78932 0.02058
C 17.22394 28.35265 -0.01957
C 18.4859 27.63227 -0.0108
C 18.58807 26.22413 -0.00368
C 17.30359 25.48061 -0.02696
C 17.28034 21.21301 -0.00114
C 9.78162 2.94957 0.03693
C 9.82767 4.3905 -0.01384
C 11.12674 5.15667 -0.00482
C 10.98703 6.58988 0.02888
C 3.59416 2.18115 -0.01977
C 3.55852 0.7689 -0.00561
C 2.35987 34.04797 0.00208
C 4.95017 32.65437 0.01707
C 6.12635 31.97887 0.02769
C 6.21777 30.56361 -0.03291
C 4.97386 29.78346 -0.04999
C 4.95351 28.3811 0.04505
C 6.17668 27.76911 0.03284
C 6.19071 26.28117 -0.04307
C 2.35012 2.89592 0.02784
C 4.96915 25.58604 0.03189
C 6.15151 23.42611 -0.003
C 6.15964 22.02749 0.01402
C 4.89893 21.2807 0.02379
C 4.89865 19.92732 0.00907
C 6.1632 19.19119 0.00643
C 6.16141 17.75974 -0.01509
C 4.94662 17.02919 0.03267
C 4.98408 15.66771 0.02374
C 6.17735 14.97075 0.00402
C 6.14436 13.56915 0.0073
C 4.85604 24.20469 0.00031
C 2.35471 4.31964 -0.01979
C 3.5759 4.98274 -0.00449
C 3.61271 6.40818 0.00211
C 3.76774 30.5757 -0.00112
C 2.44066 29.78069 0.03345
C 2.49159 28.37363 0.00748
C 3.73607 27.63328 0.00662
C 3.71779 26.18829 -0.0154
C 2.47619 25.54374 -0.01299
C 2.42245 24.12116 -0.00407
C 3.7291 23.49021 0.01138
C 3.71212 22.0527 0.03278
C 2.36668 21.28431 -0.00177
C 2.40132 19.83468 0.04421
C 3.70098 19.18788 0.00088
C 3.71673 17.70871 0.00828
C 2.54532 17.05426 -0.02375
C 2.48611 15.62649 0.00558
C 3.70161 15.02292 -0.0059
C 3.65933 13.4769 -0.01386
C 2.48928 12.78862 -0.02805
C 2.44873 11.37337 0.00081
C 3.69274 10.62151 0.00245
C 3.64493 9.27151 0.02728
C 2.40446 8.5358 -0.00039
C 2.35219 7.12242 0.0064
C 4.932 12.77528 0.0174
C 20.69268 26.26835 -0.0258
C 4.91015 11.38103 0.03828
C 6.16161 9.07454 -0.00279
C 7.31731 7.07056 0.00848
C 8.53021 6.36368 -0.01303
C 8.55354 4.98425 -0.01378
C 7.24398 4.28489 0.02635
C 7.34687 2.91484 0.0127
C 8.61429 2.18185 0.01396
C 8.56438 0.79515 0.01849
C 7.27736 0.10205 -0.01142
C 9.79818 28.6474 -0.00562
C 11.12933 28.03537 -0.00494
C 7.45169 8.49797 -0.00049
C 11.1534 26.50051 0.00054
C 9.887 24.24222 -0.00095
C 11.05997 23.43163 0.01572
C 11.0222 21.96811 -0.04848
C 9.80748 21.26451 -0.00892
C 9.79986 19.91841 -0.01362
C 10.95824 19.15644 -0.0008
C 10.98314 17.7366 0.0288
C 9.75746 17.06643 0.00393
C 11.13445 10.59016 0.00895
C 9.68528 7.11359 0.00685
C 9.93067 25.67647 0.03007
C 7.153 11.53064 0.00873
C 7.34507 12.75768 0.01227
C 7.53953 15.72077 -0.03337
C 4.85978 8.53606 0.01996
C 4.88602 7.19116 -0.03996
C 6.0284 6.43354 0.01465
C 6.0383 5.02736 -0.00074
C 4.83779 4.36486 -0.00518
C 4.84121 2.91112 0.0086
C 6.10481 2.25816 -0.00643
C 6.02408 0.79379 0.017
C 4.84051 0.08022 -0.03113
C 7.28329 32.76074 -0.02566
C 7.373 29.86487 -0.00094
C 7.37924 28.43074 0.02322
C 8.58641 27.77946 -0.00725
C 8.59645 26.34649 -0.05697
C 7.36636 25.57502 0.01087
C 7.36968 24.17914 -0.01343
C 8.65318 23.4954 0.00988
C 8.61968 22.07485 0.0276
C 7.36334 21.30642 0.01305
C 7.35276 19.89996 -0.00077
C 8.66034 19.2136 0.03368
C 8.64537 17.75077 -0.02929
C 7.41544 17.07542 -0.00966
C 6.07641 10.5695 0.01226
C 19.58442 19.84484 -0.0331
C 20.81543 19.22093 -0.00316
C 20.85268 17.75171 0.02188
C 29.49764 11.37621 -0.02155
C 30.72829 10.64492 -0.00944
C 30.83205 9.19667 -0.03735
C 29.44779 8.53555 -0.00971
C 29.5164 7.11 0.01518
C 30.75044 6.3975 0.01908
C 30.70762 4.9655 0.07705
C 29.45755 4.26406 0.0103
C 29.4371 2.90233 0.02108
C 30.68783 2.08424 0.00716
C 29.4737 12.84943 -0.01461
C 30.6765 0.72458 0.00307
C 32.00114 32.6139 0.01713
C 33.19619 31.8319 -0.01694
C 33.22744 30.41137 0.01428
C 32.02404 29.73728 -0.02142
C 32.05588 28.37196 0.0544
C 33.17739 27.62228 0.00026
C 33.22968 26.13517 0.00682
C 31.92268 25.44155 -0.01779
C 31.92067 24.11195 0.03794
C 33.13721 23.32819 0.01927
C 29.41212 0.01125 0.00346
C 30.76916 13.52754 -0.01303
C 30.7547 14.90215 -0.0405
C 29.52671 15.62043 0.01705
C 28.29156 6.40935 0.01094
C 28.22314 4.94729 0.00235
C 27.06933 4.2802 0.01495
C 27.02516 2.85486 0.01259
C 28.29781 2.1651 0.01799
C 28.22947 0.70005 0.01699
C 27.0106 0.01956 -0.00416
C 29.51338 32.69997 0.01177
C 30.70686 31.92209 0.04266
C 30.73362 30.50687 0.01324
C 29.47255 29.75713 0.0014
C 29.54231 28.36634 0.00924
C 30.76781 27.626 0.02326
C 30.73388 26.27185 0.00261
C 29.53429 25.53715 0.03265
C 29.54323 24.05327 -0.02049
C 30.65535 23.32062 -0.01854
C 30.69448 21.96866 -0.01415
C 29.45326 21.26083 -0.03039
C 29.42595 19.8665 0.01836
C 30.69939 19.07497 0.03531
C 30.70896 17.74661 -0.00669
C 29.46814 17.03566 0.0101
C 33.1584 21.94595 0.01574
C 27.08215 7.11548 0.02198
C 31.94875 21.28578 -0.02383
C 33.13003 19.16995 -0.0136
C 1.21126 23.4589 0.00723
C 1.13225 21.94948 0.02712
C 34.34442 21.23027 -0.02213
C 34.41504 19.86115 0.01951
C 1.22183 19.12029 -0.01678
C 1.26554 17.75295 0.01223
C 0.00826 17.00775 0.00648
C 0.02714 15.63637 0.02114
C 1.24825 14.91344 -0.02957
C 1.25958 13.4742 0.00343
C 34.37078 24.06285 0.03076
C 34.39823 12.81153 -0.02656
C 1.18437 10.62187 -0.00027
C 1.14429 9.16235 -0.00583
C 34.37491 8.5457 -0.02302
C 34.35274 7.06845 -0.02849
C 1.11716 6.41495 0.02931
C 1.14124 4.98706 0.00628
C 34.3855 4.26657 -0.0345
C 34.4255 2.80977 -0.00931
C 1.09213 2.07858 -0.00939
C 1.13423 0.69567 -0.00468
C 34.37424 11.3916 -0.02442
C 0.00029 25.45774 -0.05239
C 1.24136 26.25499 -0.00598
C 1.23507 27.6237 -0.00439
C 33.19906 17.69994 0.00594
C 31.97336 16.99438 -0.02474
C 31.91758 15.58259 0.00369
C 33.22981 14.97715 0.00455
C 33.21116 13.60456 -0.00644
C 31.95627 12.82676 -0.01839
C 31.92825 11.36193 0.00137
C 33.1653 10.63094 0.00199
C 33.23113 9.24222 0.04381
C 31.96995 8.50741 0.02806
C 31.92533 7.0788 0.01504
C 33.16343 6.34407 -0.00069
C 33.12239 4.96352 0.04926
C 31.96605 4.1827 -0.03838
C 31.93458 2.71921 0.00349
C 33.08845 2.07876 -0.00323
C 33.1667 0.59547 -0.00841
C 31.99151 34.06467 0.0001
C 34.39304 32.56465 -0.02927
C 1.19574 31.94492 -0.01404
C 1.21735 30.54211 0.01027
C 0.03255 29.73758 0.01831
C 34.37258 28.30807 -0.01037
C 31.97356 19.84222 -0.01429
C 3.62606 31.91348 0.01078
C 27.05386 8.49667 0.02611
C 28.32323 10.64968 0.00194
C 23.36941 21.9533 -0.01594
C 22.01321 21.23885 0.0106
C 22.03993 19.89656 -0.01154
C 23.31888 19.18527 -0.01721
C 23.28135 17.74798 -0.02422
C 22.09567 17.05135 0.01277
C 22.15989 15.63164 0.00096
C 23.40904 14.94648 -0.01527
C 23.36893 13.47304 0.01087
C 22.12125 12.71041 0.00199
C 23.414 23.48067 0.00742
C 22.12665 11.3132 0.01511
C 23.36261 9.18356 -0.01662
C 22.09522 8.49542 -0.01185
C 22.06991 7.07261 0.01126
C 23.30277 6.43038 0.01852
C 23.33889 4.96353 -0.00381
C 22.11734 4.31526 0.03046
C 22.03839 2.91379 0.0296
C 23.27995 2.11478 0.03374
C 23.2879 0.71938 -0.02845
C 22.07364 0.02262 -0.03213
C 23.40059 10.63429 -0.00478
C 22.18541 24.18141 -0.00311
C 21.95925 25.51796 0.00675
C 23.26491 26.18867 -0.00865
C 19.62572 17.01714 -0.01979
C 19.74706 15.61087 0.02691
C 20.95142 14.87782 -0.01581
C 20.99353 13.50648 0.01452
C 19.64277 12.79277 0.04892
C 19.69326 11.36988 -0.00111
C 20.91691 10.66305 -0.03557
C 20.86342 9.28867 0.03754
C 19.65043 8.56038 0.01739
C 19.57865 7.0922 0.00755
C 20.80714 6.39587 -0.0054
C 20.88836 4.99783 0.00667
C 19.5195 4.27116 0.00143
C 19.64391 2.88324 -0.017
C 20.85522 2.17968 0.00364
C 20.85192 0.69922 -0.00831
C 19.62888 34.06375 -0.02957
C 22.10343 32.68668 -0.04422
C 23.30409 31.93225 0.00654
C 23.38487 30.50728 -0.00703
C 22.13848 29.79706 -0.04076
C 22.14921 28.41639 -0.00652
C 23.37529 27.66138 0.0058
C 24.53703 32.70561 0.02239
C 28.27905 9.33648 -0.00621
C 25.78573 31.96439 0.01153
C 24.63595 29.79133 -0.0055
C 24.51436 0.04381 0.00684
C 27.02892 32.63133 -0.01052
C 28.21514 31.97355 -0.01679
C 28.27685 30.50679 0.00367
C 27.07462 29.83157 0.04306
C 27.06237 28.36979 0.00996
C 28.22272 27.68667 0.00195
C 28.30105 26.21901 -0.00802
C 27.11289 25.51377 -0.00218
C 27.05122 24.0478 -0.01654
C 25.74538 0.78034 -0.01154
C 28.21834 23.33325 -0.00037
C 27.01551 21.21069 0.00622
C 26.98144 19.82352 -0.02815
C 28.2343 19.12945 -0.00942
C 28.23947 17.69002 0.00487
C 27.0138 17.01561 0.00826
C 27.04345 15.58713 -0.00294
C 28.25937 14.99367 0.00152
C 28.27463 13.57888 0.01257
C 27.12601 12.8053 0.02316
C 27.05534 11.40061 0.04185
C 28.24901 21.96903 -0.0032
C 25.76469 2.20011 -0.0264
C 24.56598 2.90392 -0.00938
C 24.60722 4.35092 -0.00229
C 24.69629 28.42081 0.01515
C 25.84577 27.6724 -0.00225
C 25.88152 26.20289 0.00071
C 24.5773 25.53201 -0.01107
C 24.61481 24.14237 -0.01586
C 25.87593 23.35563 -0.01971
C 25.758 21.95292 -0.02118
C 24.49935 21.29352 0.00733
C 24.56232 19.84176 -0.00178
C 25.7831 19.13939 0.00768
C 25.86166 17.74291 -0.0276
C 24.54314 17.04689 0.03005
C 24.63468 15.66526 -0.04078
C 25.82333 14.85701 0.02117
C 25.88434 13.49998 0.02737
C 24.60252 12.77148 -0.00498
C 24.69451 11.42066 0.00135
C 25.83578 10.66115 0.03102
C 25.87105 9.18085 0.02555
C 24.60056 8.63438 0.01423
C 24.54849 7.1769 -0.00285
C 25.82511 6.44787 -0.009
C 25.85014 5.02882 -0.01199
C 25.8659 30.55977 0.02734
C 2.4192 32.61179 -0.02827
