370
Graphene
C 34.37315 0.01891 0.01295
C 11.02262 4.9185 0.05265
C 9.73887 4.24341 -0.01952
C 9.84504 2.88107 -0.02813
C 11.08722 2.21609 0.00374
C 11.10022 0.74738 0.00052
C 9.86392 0.07436 -0.03682
C 12.20408 32.64765 0.01965
C 13.47714 32.03706 0.02058
C 13.6245 17.41204 -0.01957
C 12.28161 16.96687 -0.0108
C 12.33175 15.5308 -0.00368
C 13.60779 14.89623 -0.02696
C 13.57523 13.49028 -0.00114
C 12.31048 12.76676 0.00228
C 12.31573 11.23219 0.00798
C 13.44933 10.57914 0.00422
C 13.44999 9.1816 0.0351
C 12.19659 8.48196 -0.03113
C 12.23647 7.09792 0.02098
C 10.9994 6.39515 -0.01717
C 13.47461 6.38973 0.01848
C 9.78934 7.08873 0.00244
C 10.98097 9.15756 0.03542
C 7.37744 0.04264 -0.00891
C 9.79581 32.70386 0.02819
C 10.97989 32.0033 0.00165
C 11.08471 30.61985 -0.02971
C 10.00263 29.78095 0.02894
C 9.78241 28.49027 -0.01789
C 9.81461 25.49101 0.00444
C 9.82094 24.23004 -0.00925
C 9.82251 21.38644 0.01877
C 9.97043 20.03558 0.01363
C 10.97846 19.11254 -0.02162
C 11.04815 17.80133 0.00415
C 9.87655 16.99275 -0.0014
C 9.88252 15.5423 0.02162
C 11.09375 14.84371 0.0076
C 11.11054 13.50364 0.01241
C 9.85528 12.73484 -0.01454
C 9.79732 11.35563 0.01945
C 11.05264 10.61711 0.01416
C 9.76329 8.50284 0.02299
C 8.56323 0.78985 -0.01046
C 13.50483 4.98139 -0.00619
C 12.37078 2.81377 0.00889
C 18.36806 15.01227 0.01452
C 18.36227 13.5982 0.04892
C 17.22707 12.81461 -0.00111
C 17.17327 11.31364 -0.03557
C 18.47592 10.61639 0.03754
C 18.4267 9.1889 0.01739
C 17.15496 8.53078 0.00755
C 17.16659 7.14485 -0.0054
C 18.34824 6.40352 0.00667
C 18.39253 4.92791 0.00143
C 17.1709 4.2345 -0.017
C 17.20844 2.77413 0.00364
C 18.41722 1.9284 -0.00831
C 18.47061 0.36351 -0.02957
C 17.18783 0.09374 -0.04422
C 19.67218 17.03981 0.00654
C 19.64978 15.55306 -0.00703
C 20.91395 14.82298 -0.04076
C 20.90752 13.41812 -0.00652
C 17.13563 15.72533 -0.01581
C 12.26018 4.23843 -0.02162
C 16.88779 17.16553 0.02691
C 15.98657 0.65934 0.02188
C 13.58064 2.05826 -0.00481
C 13.57173 0.65098 0.00979
C 12.38079 34.0695 0.01443
C 14.65712 32.66748 0.03505
C 14.95345 16.97991 -0.02815
C 14.85438 15.60114 -0.04147
C 15.99424 14.86723 -0.05302
C 15.96172 13.44331 0.00213
C 14.75073 12.6931 -0.00066
C 14.68745 11.27838 -0.00289
C 15.9549 10.60642 0.00028
C 15.94679 9.17877 -0.02213
C 14.66203 8.554 0.03698
C 14.72587 7.07308 -0.00109
C 15.96146 6.39734 -0.00491
C 15.9484 5.00227 0.03338
C 14.75572 4.27914 -0.0258
C 14.7468 2.83786 -0.0331
C 15.92196 2.13651 -0.00316
C 14.80376 34.03001 -0.01979
C 8.60102 2.18502 -0.02689
C 7.35535 2.91612 -0.01536
C 7.36228 4.317 0.03101
C 3.70262 6.50696 -0.00966
C 3.6758 5.00307 -0.03337
C 2.48014 4.26296 0.01227
C 2.42119 2.86417 0.00873
C 3.64691 2.15739 -0.00049
C 3.66374 0.709 0.00848
C 2.45704 0.06924 -0.01303
C 4.83821 32.72402 -0.01378
C 6.10856 31.96752 0.02635
C 6.19893 30.54739 0.0127
C 4.95734 29.77928 0.01396
C 4.95091 28.41651 0.01849
C 6.19394 27.70872 -0.01142
C 6.18765 26.32222 -0.00562
C 4.97626 25.64614 -0.00494
C 4.9372 24.25744 0.00054
C 6.19604 23.51514 0.03007
C 6.17615 22.08272 -0.00095
C 4.92008 21.33163 0.01572
C 2.51436 7.15729 -0.02929
C 4.89386 19.90519 -0.04848
C 2.41823 8.54661 0.03368
C 3.6799 10.71369 0.01305
C 3.62207 30.56195 -0.00279
C 2.43387 29.85413 0.01996
C 2.40225 28.46674 -0.03996
C 3.67958 27.74778 0.01465
C 3.71804 26.30888 -0.00074
C 2.43068 25.59734 -0.00518
C 2.44314 24.17705 0.0086
C 3.66672 23.4979 -0.00643
C 3.67173 22.04559 0.017
C 2.50185 21.23871 -0.03113
C 2.43911 19.85828 -0.02566
C 3.70027 19.22116 -0.00094
C 3.66589 17.74942 0.02322
C 2.41695 17.05048 -0.00725
C 2.4017 15.67384 -0.05697
C 3.6175 14.97193 0.01087
C 3.66386 13.55234 -0.01343
C 2.49033 12.8149 0.00988
C 2.46735 11.41975 0.0276
C 3.62929 9.27175 -0.00077
C 6.14545 19.15536 -0.00892
C 6.14411 17.78863 -0.01362
C 4.94551 17.10676 -0.0008
C 7.49418 24.18721 0.02339
C 8.68706 23.44756 0.01641
C 8.63674 22.04831 -0.00719
C 7.33883 21.3399 0.01364
C 7.36513 19.92087 -0.01062
C 8.67219 19.29588 -0.00033
C 8.64154 17.82106 0.03589
C 7.36079 17.09098 -0.02759
C 7.4135 15.6535 0.0402
C 8.64653 14.89791 0.00572
C 8.6025 13.50062 0.03592
C 7.36718 12.81692 0.00406
C 7.34553 11.35225 0.00943
C 8.55279 10.63945 0.02841
C 8.51449 9.19596 -0.01111
C 7.32583 8.61284 -0.01275
C 7.334 7.18275 0.00985
C 8.54909 6.40946 -0.02245
C 8.55308 4.98709 -0.00428
C 7.45551 25.58322 -0.00334
C 8.64736 26.35451 -0.01634
C 8.60613 27.73949 0.00057
C 7.37844 28.4298 0.00093
C 4.87199 15.63388 0.0288
C 6.15086 14.9471 0.00393
C 6.13745 13.53727 0.00895
C 4.88157 12.9267 0.00685
C 4.89765 11.47197 0.02888
C 6.11122 10.74125 -0.00482
C 6.10978 9.27528 -0.01384
C 4.91987 8.59596 0.03693
C 4.92799 7.16523 0.01745
C 19.63863 12.82731 0.0058
C 6.11648 6.44297 0.00488
C 4.89427 4.33921 -0.02896
C 4.87753 2.91894 -0.00131
C 6.13549 2.16464 -0.01118
C 6.10028 0.74591 -0.014
C 4.87767 0.03328 0.02147
C 7.32525 32.72042 0.00373
C 8.5757 32.0602 -0.00191
C 8.65422 30.63972 0.00438
C 7.39081 29.87416 0.01291
C 6.12731 4.9879 -0.01004
C 19.64455 11.36296 -0.00865
C 20.89016 10.64307 0.00675
C 20.79722 9.24915 -0.00311
C 30.75259 2.1468 0.00716
C 30.77435 0.7323 0.00307
C 29.55432 0.02952 0.00346
C 31.9429 32.68338 0.01713
C 33.21034 31.9637 -0.01694
C 33.15167 30.55663 0.01428
C 31.89819 29.81966 -0.02142
C 31.8944 28.39108 0.0544
C 33.16196 27.72126 0.00026
C 33.17062 26.27214 0.00682
C 31.94743 25.60544 -0.01779
C 31.94564 24.20936 0.03794
C 33.22354 23.45996 0.01927
C 33.22651 22.02522 0.01574
C 32.02948 21.29914 -0.02383
C 32.03075 19.90484 -0.01429
C 33.19928 19.17498 -0.0136
C 33.09476 17.76866 0.00594
C 31.91493 17.02542 -0.02474
C 29.51099 2.90603 0.02108
C 31.92785 15.56887 0.00369
C 29.45528 4.30359 0.0103
C 30.77075 6.38714 0.01908
C 30.70027 26.29031 0.00261
C 29.48001 25.60778 0.03265
C 29.51097 24.19614 -0.02049
C 30.71575 23.47268 -0.01854
C 30.75908 21.99933 -0.01415
C 29.62653 21.27539 -0.03039
C 29.53138 19.88564 0.01836
C 30.74425 19.22907 0.03531
C 30.7339 17.73516 -0.00669
C 29.48541 17.05567 0.0101
C 29.51714 15.60201 0.01705
C 30.76176 14.86658 -0.0405
C 30.77598 13.44486 -0.01303
C 29.52042 12.79434 -0.01461
C 29.47886 11.36849 -0.02155
C 30.6985 10.60102 -0.00944
C 30.65907 9.27155 -0.03735
C 29.43202 8.47428 -0.00971
C 29.47735 7.07844 0.01518
C 30.76246 4.96174 0.07705
C 33.1301 14.9252 0.00455
C 33.19559 13.52979 -0.00644
C 31.96366 12.75758 -0.01839
C 34.40384 19.90488 0.01951
C 1.20146 19.21415 -0.01678
C 1.10355 17.78005 0.01223
C 34.32623 17.06389 0.00648
C 34.36531 15.6394 0.02114
C 1.20764 14.92074 -0.02957
C 1.29425 13.51924 0.00343
C 0.00596 12.77943 -0.02656
C 34.4192 11.40531 -0.02442
C 1.25617 10.67755 -0.00027
C 1.22139 9.24455 -0.00583
C 34.40962 8.54523 -0.02302
C 0.01004 7.1249 -0.02849
C 1.23868 6.44631 0.02931
C 1.26748 5.04048 0.00628
C 0.01758 4.31771 -0.0345
C 34.40417 2.88689 -0.00931
C 1.16432 2.16749 -0.00939
C 1.20683 0.7529 -0.00468
C 0.04963 21.32969 -0.02213
C 1.25529 22.00756 0.02712
C 1.22335 23.43161 0.00723
C 0.06091 24.15005 0.03076
C 31.96303 11.3104 0.00137
C 33.20708 10.64396 0.00199
C 33.17945 9.27181 0.04381
C 31.95684 8.53115 0.02806
C 31.97051 7.12188 0.01504
C 33.23994 6.4143 -0.00069
C 33.18546 5.02045 0.04926
C 31.99744 4.26221 -0.03838
C 32.0242 2.86988 0.00349
C 30.65164 27.65276 0.02326
C 33.23171 2.15624 -0.00323
C 31.97631 0.07267 0.0001
C 34.39046 32.67369 -0.02927
C 1.19993 32.0016 -0.01404
C 1.1927 30.56797 0.01027
C 34.3376 29.87007 0.01831
C 34.38179 28.53198 -0.01037
C 1.17323 27.78504 -0.00439
C 1.16128 26.35764 -0.00598
C 34.4061 25.59753 -0.05239
C 33.16998 0.73109 -0.00841
C 3.62759 31.94756 0.01226
C 29.37221 28.39062 0.00924
C 30.64835 30.53319 0.01324
C 23.27424 4.95444 0.02239
C 22.04557 4.21881 0.01153
C 22.0242 2.79711 0.02734
C 23.28488 2.03028 -0.0055
C 23.33905 0.57458 0.01515
C 22.09196 33.98077 -0.00225
C 24.59553 32.60089 0.00071
C 25.86957 31.94584 -0.01107
C 25.72679 30.52858 -0.01586
C 24.65495 29.60138 -0.01971
C 25.65807 27.90777 -0.02118
C 25.95535 21.92596 0.00733
C 24.65969 19.89465 -0.00178
C 25.80109 19.13392 0.00768
C 25.78055 17.71154 -0.0276
C 24.53201 17.04143 0.03005
C 24.6056 15.57809 -0.04078
C 25.83673 14.87391 0.02117
C 25.85853 13.43406 0.02737
C 23.31443 6.3552 -0.03213
C 24.62101 12.73921 -0.00498
C 22.08505 7.08934 -0.02845
C 23.34936 9.20885 0.0296
C 19.64446 8.54906 0.00742
C 19.68183 7.06907 -0.01594
C 20.85114 6.30222 0.0106
C 20.79415 4.94437 -0.01154
C 19.63632 4.16537 -0.01721
C 19.61612 2.73449 -0.02422
C 20.88547 2.06297 0.01277
C 20.88737 0.60885 0.00096
C 19.75871 33.95999 -0.01527
C 22.28044 32.59814 0.01087
C 23.33032 31.77869 0.00199
C 23.31472 17.63034 0.01511
C 22.16928 16.95428 -0.00478
C 22.10433 15.53696 -0.01662
C 23.40769 14.87101 -0.01185
C 23.3871 13.44729 0.01126
C 22.08666 12.75562 0.01852
C 22.16042 11.32668 -0.00381
C 23.39252 10.62291 0.03046
C 22.06747 8.52625 0.03374
C 24.58762 11.31857 0.00135
C 25.82684 10.68691 0.03102
C 25.78441 9.23732 0.02555
C 27.02594 16.98919 0.00826
C 27.03116 15.60073 -0.00294
C 28.27448 14.90852 0.00152
C 28.35339 13.51565 0.01257
C 27.07692 12.78294 0.02316
C 27.04182 11.42461 0.04185
C 28.1971 10.62284 0.00194
C 28.19523 9.17497 -0.00621
C 27.00326 8.51832 0.02611
C 26.99177 7.10472 0.02198
C 28.25314 6.39001 0.01094
C 28.27412 4.9874 0.00235
C 26.97023 4.27794 0.01495
C 26.95185 2.84072 0.01259
C 28.27309 2.15201 0.01799
C 28.28039 0.76071 0.01699
C 26.9906 0.07943 -0.00416
C 29.40726 32.69519 0.01177
C 30.74253 31.93498 0.04266
C 28.2527 17.74039 0.00487
C 28.31344 19.17963 -0.00942
C 27.11269 19.83775 -0.02815
C 27.21523 21.25213 0.00622
C 24.59599 8.56725 0.01423
C 24.53678 7.12026 -0.00285
C 25.75813 6.45814 -0.009
C 25.79426 4.98937 -0.01199
C 24.49877 4.21671 -0.00229
C 24.56697 2.80672 -0.00938
C 25.71507 2.11874 -0.0264
C 25.73173 0.71745 -0.01154
C 24.57033 33.98993 0.00684
C 29.42731 29.82566 0.0014
C 27.05833 32.70203 -0.01052
C 28.1783 30.58809 0.00367
C 27.00972 29.83079 0.04306
C 26.98796 28.39814 0.00996
C 28.16917 27.64789 0.00195
C 28.21256 26.24134 -0.00802
C 27.08533 25.3986 -0.00218
C 27.04337 23.96707 -0.01654
C 28.39193 23.39699 -0.00037
C 28.43053 22.00207 -0.0032
C 28.24676 31.95799 -0.01679
C 2.38656 32.69254 0.03828
