392
Graphene
C 34.33586 34.07687 0.01295
C 13.51134 5.0387 0.01877
C 12.28441 4.33139 0.01363
C 12.31586 2.86989 -0.02162
C 13.53505 2.21611 0.00415
C 13.57351 0.79346 -0.0014
C 12.3451 0.11531 0.02162
C 14.68406 32.67787 0.0076
C 15.52099 31.6891 0.01241
C 16.03413 30.39177 -0.01454
C 13.49817 6.45003 -0.00925
C 16.00305 23.42697 0.01945
C 14.7685 21.35746 0.03542
C 14.75599 19.93095 0.02299
C 15.98367 19.184 0.00244
C 15.98816 17.66389 -0.01717
C 14.75473 16.92095 0.05265
C 14.7583 15.52283 -0.01952
C 15.94885 14.82325 -0.02813
C 16.05374 13.4198 0.00374
C 14.75052 12.74614 0.00052
C 16.01619 21.98408 0.01416
C 12.29179 7.15072 0.00444
C 12.30076 8.5283 -0.01789
C 13.50365 9.23708 0.02894
C 9.7504 8.567 0.03589
C 9.80307 7.13493 -0.02759
C 11.07691 6.4977 0.0402
C 11.07 5.041 0.00572
C 9.81707 4.36233 0.03592
C 9.89768 2.9118 0.00406
C 11.09463 2.15542 0.00943
C 11.03993 0.64375 0.02841
C 9.77201 0.14185 -0.01111
C 13.56402 22.04734 -0.01275
C 12.34333 21.41497 0.00985
C 12.39312 19.8966 -0.02245
C 13.56005 19.1564 -0.00428
C 13.56737 17.72554 0.03101
C 12.26231 17.06672 -0.01536
C 12.24656 15.68464 -0.02689
C 13.54376 14.93606 -0.01046
C 13.54555 13.47335 -0.00891
C 12.2599 12.8329 0.02819
C 12.24708 11.41919 0.00165
C 13.45465 10.66016 -0.02971
C 14.77497 11.35076 -0.03682
C 11.0485 9.2418 -0.00033
C 15.99359 10.64955 0.01965
C 14.74775 8.54711 -0.01957
C 18.42649 9.16673 -0.02213
C 17.14818 8.56 0.03698
C 17.15192 7.05869 -0.00109
C 18.34311 6.28695 -0.00491
C 18.29319 4.80228 0.03338
C 17.09604 4.1082 -0.0258
C 18.63304 0.80325 -0.0331
C 17.37783 0.2157 -0.00316
C 19.71585 32.34007 0.02188
C 18.48494 10.61776 0.00028
C 20.97692 31.87749 -0.01979
C 19.60497 21.28986 -0.01581
C 19.63585 19.91246 0.01452
C 20.85888 19.18856 0.04892
C 20.89043 17.82205 -0.00111
C 19.60039 17.04453 -0.03557
C 19.6287 15.59076 0.03754
C 20.90218 14.92069 0.01739
C 20.8709 13.52443 0.00755
C 19.72923 12.76822 -0.0054
C 20.81105 22.0734 0.02691
C 17.24229 11.32078 -0.00289
C 17.21642 12.73494 -0.00066
C 18.45406 13.43864 0.00213
C 14.74883 7.14776 -0.0108
C 15.97516 6.40711 -0.00368
C 15.9433 4.95287 -0.02696
C 14.7094 4.32346 -0.00114
C 14.78779 2.92939 0.00228
C 16.07372 2.20194 0.00798
C 16.13668 0.82543 0.00422
C 14.88874 0.0267 0.0351
C 17.26052 32.74579 -0.03113
C 18.3743 32.13351 0.02098
C 17.20236 29.83199 0.01848
C 17.21632 24.14455 -0.00619
C 18.35354 23.38621 -0.02162
C 18.47182 21.98337 0.00889
C 17.22448 21.3628 -0.00481
C 17.2037 19.92727 0.00979
C 18.42056 19.20859 0.01443
C 18.38441 17.70117 0.03505
C 17.20187 16.92783 -0.02815
C 17.18815 15.57314 -0.04147
C 18.38531 14.9026 -0.05302
C 15.95028 9.24407 0.02058
C 19.68715 11.33375 0.00667
C 10.99963 10.67131 -0.01062
C 9.7755 12.80231 -0.00719
C 2.34434 4.35633 0.01465
C 2.37181 2.88237 -0.00074
C 3.56044 2.16135 -0.00518
C 3.59632 0.71324 0.0086
C 2.31975 34.05765 -0.00643
C 4.95054 32.67515 0.017
C 6.37947 31.96929 -0.03113
C 6.16539 30.63135 -0.02566
C 5.11302 29.70217 -0.00094
C 3.59344 5.00871 -0.03996
C 4.99415 28.20857 0.02322
C 4.92905 25.61573 -0.05697
C 4.97812 24.1868 0.01087
C 6.14771 23.39471 -0.01343
C 6.06692 22.01662 0.00988
C 4.8443 21.36332 0.0276
C 4.89923 19.86629 0.01305
C 6.15362 19.20342 -0.00077
C 6.09481 17.72147 0.03368
C 4.90782 17.01248 -0.02929
C 6.07103 26.50335 -0.00725
C 3.60624 6.42688 0.01996
C 2.37958 7.23961 -0.00279
C 2.46423 8.55861 0.01226
C 3.75895 30.4757 0.01707
C 2.48074 29.83302 0.02769
C 2.46039 28.37445 -0.03291
C 3.63092 27.7639 -0.04999
C 3.7031 26.34806 0.04505
C 2.33807 25.60709 0.03284
C 2.39382 24.19495 -0.04307
C 3.64835 23.44182 0.03189
C 3.65335 22.03395 0.00031
C 2.45019 21.36173 -0.003
C 2.48689 19.90179 0.01402
C 3.71373 19.17316 0.02379
C 3.63085 17.76581 0.00907
C 2.43146 17.01064 0.00643
C 2.46847 15.6387 -0.01509
C 3.69151 14.91889 0.03267
C 3.63676 13.53188 0.02374
C 2.40811 12.77554 0.00402
C 2.45668 11.35487 0.0073
C 3.71623 10.72817 0.0174
C 3.66509 9.32861 0.03828
C 4.86016 15.6625 -0.00966
C 9.83473 11.4317 0.01364
C 6.11354 14.92271 -0.03337
C 4.93761 12.84175 0.00873
C 8.60686 10.69723 -0.01384
C 8.55208 9.32171 0.03693
C 7.29548 8.53866 0.01745
C 7.29365 7.07641 0.00488
C 8.58395 6.38216 -0.01004
C 8.58383 5.01172 -0.02896
C 7.33853 4.38169 -0.00131
C 7.36126 2.91965 -0.01118
C 8.58456 2.29897 -0.014
C 7.41574 11.41608 -0.00482
C 8.6061 0.87898 0.02147
C 11.00344 21.81593 -0.00191
C 9.7117 21.60313 0.00438
C 9.79825 20.03526 0.01291
C 11.12928 19.25059 0.00093
C 11.06196 17.8007 0.00057
C 9.82918 17.06662 -0.01634
C 9.83302 15.67436 -0.00334
C 11.01973 14.94448 0.02339
C 10.98668 13.52775 0.01641
C 7.32357 0.19474 0.00373
C 7.42415 12.76774 0.02888
C 8.62484 13.54325 0.00685
C 8.58543 14.94356 0.00895
C 4.95971 11.40952 -0.00049
C 6.16582 10.69725 0.00848
C 6.09491 9.27666 -0.01303
C 4.83423 8.59949 -0.01378
C 4.8557 7.14416 0.02635
C 6.04214 6.42142 0.0127
C 6.02948 4.98115 0.01396
C 4.8 4.33105 0.01849
C 4.78835 2.88172 -0.01142
C 6.04213 2.23723 -0.00562
C 6.05629 0.82958 -0.00494
C 4.88968 34.07145 0.00054
C 7.34308 32.87304 0.03007
C 7.60146 23.63229 -0.00095
C 8.38203 22.31373 0.01572
C 7.27923 21.3073 -0.04848
C 7.40649 19.88533 -0.00892
C 8.61961 19.23766 -0.01362
C 8.61682 17.84771 -0.0008
C 7.43 17.11339 0.0288
C 7.36374 15.6585 0.00393
C 6.14569 13.49678 0.01227
C 20.93518 10.61754 0.00143
C 20.89815 9.16441 -0.017
C 19.63151 8.47779 0.00364
C 30.73545 4.95201 0.07705
C 29.44328 4.24879 0.0103
C 29.4797 2.82205 0.02108
C 30.69089 2.16316 0.00716
C 30.74163 0.71437 0.00307
C 29.55053 34.05439 0.00346
C 31.93524 32.60609 0.01713
C 33.20116 31.93127 -0.01694
C 33.19067 30.5194 0.01428
C 30.69574 6.41433 0.01908
C 31.95785 29.83062 -0.02142
C 33.17808 27.71626 0.00026
C 33.15351 26.25716 0.00682
C 31.93804 25.58411 -0.01779
C 31.92494 24.20321 0.03794
C 33.17608 23.47473 0.01927
C 33.16694 22.0253 0.01574
C 32.03748 21.24265 -0.02383
C 32.01354 19.83009 -0.01429
C 33.24825 19.11226 -0.0136
C 31.96525 28.41684 0.0544
C 29.40897 7.11551 0.01518
C 29.46455 8.50637 -0.00971
C 30.68835 9.31464 -0.03735
C 30.76638 31.92369 0.04266
C 30.69792 30.5538 0.01324
C 29.49238 29.84667 0.0014
C 29.49367 28.38506 0.00924
C 30.74869 27.69953 0.02326
C 30.75661 26.34288 0.00261
C 29.56951 25.59454 0.03265
C 29.56699 24.11913 -0.02049
C 30.74335 23.3929 -0.01854
C 30.80406 21.93253 -0.01415
C 29.5934 21.25146 -0.03039
C 29.57003 19.81797 0.01836
C 30.79048 19.12506 0.03531
C 30.75832 17.71822 -0.00669
C 29.46795 17.05016 0.0101
C 29.41677 15.64673 0.01705
C 30.66817 14.9449 -0.0405
C 30.71546 13.56568 -0.01303
C 29.41584 12.84562 -0.01461
C 29.44391 11.40629 -0.02155
C 30.69804 10.69172 -0.00944
C 33.21551 17.71555 0.00594
C 29.48802 32.63444 0.01177
C 32.00333 17.05611 -0.02474
C 33.17805 14.90149 0.00455
C 34.43134 21.32787 -0.02213
C 0.04838 19.90383 0.01951
C 1.31836 19.17903 -0.01678
C 1.31673 17.75962 0.01223
C 0.09263 16.99934 0.00648
C 0.02612 15.6136 0.02114
C 1.2517 14.88013 -0.02957
C 1.20039 13.48385 0.00343
C 34.41684 12.75271 -0.02656
C 1.20517 22.04351 0.02712
C 34.40489 11.40691 -0.02442
C 1.18909 9.28235 -0.00583
C 34.35225 8.53582 -0.02302
C 34.39022 7.16086 -0.02849
C 1.19055 6.41568 0.02931
C 1.15191 5.03109 0.00628
C 34.40489 4.33368 -0.0345
C 34.41536 2.90718 -0.00931
C 1.18708 2.19136 -0.00939
C 1.14891 0.70778 -0.00468
C 1.18394 10.70709 -0.00027
C 1.20637 23.42842 0.00723
C 34.39168 24.17708 0.03076
C 34.39493 25.59986 -0.05239
C 33.22669 13.49556 -0.00644
C 31.9161 12.81861 -0.01839
C 31.9359 11.37294 0.00137
C 33.15905 10.6844 0.00199
C 33.076 9.25638 0.04381
C 31.9095 8.50869 0.02806
C 31.8897 7.148 0.01504
C 33.13642 6.39448 -0.00069
C 33.15229 4.97228 0.04926
C 31.96202 4.25791 -0.03838
C 31.91717 2.83616 0.00349
C 33.17441 2.17861 -0.00323
C 33.10598 0.69652 -0.00841
C 31.94357 34.07288 0.0001
C 34.42551 32.66677 -0.02927
C 1.21616 31.98077 -0.01404
C 1.25371 30.52889 0.01027
C 34.40397 29.84767 0.01831
C 34.39455 28.4319 -0.01037
C 1.15772 27.7355 -0.00439
C 1.16079 26.32741 -0.00598
C 31.88943 15.59842 0.00369
C 27.0434 34.07107 -0.00416
C 28.28317 0.65206 0.01699
C 28.24971 2.09037 0.01799
C 22.10633 8.47981 -0.01185
C 22.09442 7.05571 0.01126
C 23.29675 6.38687 0.01852
C 23.3403 4.91543 -0.00381
C 22.0766 4.1958 0.03046
C 22.11923 2.79235 0.0296
C 23.32103 2.12491 0.03374
C 23.35494 0.72994 -0.02845
C 22.15469 0.00255 -0.03213
C 23.36377 9.18387 -0.01662
C 24.58717 32.69405 0.02239
C 25.69283 30.43028 0.02734
C 24.33431 29.62625 -0.0055
C 24.59745 28.27454 0.01515
C 25.89672 27.63306 -0.00225
C 25.95941 26.2413 0.00071
C 24.76624 25.5618 -0.01107
C 24.59552 24.20304 -0.01586
C 25.87777 23.4321 -0.01971
C 25.84773 21.97056 -0.02118
C 25.8163 31.90153 0.01153
C 23.33572 10.62482 -0.00478
C 22.13986 11.37214 0.01511
C 22.0909 12.8053 0.00199
C 19.62508 7.01018 -0.00831
C 20.85826 6.30726 -0.02957
C 20.80236 4.86463 -0.04422
C 19.56375 4.15434 0.00654
C 19.56113 2.61013 -0.00703
C 20.89069 2.07187 -0.04076
C 20.95515 0.62496 -0.00652
C 19.73244 33.95359 0.0058
C 22.13125 32.69036 -0.00865
C 23.33404 32.00462 0.00675
C 23.28833 30.5994 -0.00311
C 23.44868 23.28001 0.00742
C 23.42433 21.90588 -0.01594
C 22.08779 21.25123 0.0106
C 22.09101 19.90336 -0.01154
C 23.35131 19.1641 -0.01721
C 23.31433 17.78421 -0.02422
C 22.08471 17.13471 0.01277
C 22.06717 15.65649 0.00096
C 23.33729 14.93803 -0.01527
C 23.31746 13.47168 0.01087
C 24.6257 21.23851 0.00733
C 24.63564 19.86404 -0.00178
C 25.83214 19.14752 0.00768
C 25.82885 17.77343 -0.0276
C 27.08989 23.98918 -0.01654
C 28.39002 23.37374 -0.00037
C 28.35599 21.96928 -0.0032
C 27.17131 21.26284 0.00622
C 27.11508 19.82 -0.02815
C 28.36495 19.12782 -0.00942
C 28.27134 17.74233 0.00487
C 27.00313 17.03515 0.00826
C 27.00541 15.60856 -0.00294
C 28.2401 14.89941 0.00152
C 28.22617 13.57211 0.01257
C 27.00294 12.81561 0.02316
C 26.9915 11.38784 0.04185
C 28.24997 10.66377 0.00194
C 28.24913 9.27241 -0.00621
C 27.03005 8.54339 0.02611
C 26.96927 7.10803 0.02198
C 28.22288 6.33975 0.01094
C 28.25109 4.93655 0.00235
C 27.02924 4.21435 0.01495
C 27.01413 2.8224 0.01259
C 27.15169 25.43621 -0.00218
C 3.72629 31.91725 0.00208
C 28.29698 26.24967 -0.00802
C 27.04328 28.38287 0.00996
C 24.55381 17.1312 0.03005
C 24.51584 15.63616 -0.04078
C 25.75431 14.89069 0.02117
C 25.72069 13.47976 0.02737
C 24.52287 12.74425 -0.00498
C 24.55026 11.33124 0.00135
C 25.80826 10.68738 0.03102
C 25.76267 9.22031 0.02555
C 24.56895 8.50699 0.01423
C 24.57564 7.05693 -0.00285
C 25.77009 6.32825 -0.009
C 25.81678 4.82576 -0.01199
C 24.52561 4.20036 -0.00229
C 24.59635 2.77298 -0.00938
C 25.77571 2.07651 -0.0264
C 25.80014 0.66518 -0.01154
C 24.54136 0.01726 0.00684
C 27.02995 32.60155 -0.01052
C 28.28195 31.96243 -0.01679
C 28.18306 30.54844 0.00367
C 26.97466 29.78739 0.04306
C 28.2485 27.67184 0.00195
C 2.4496 32.67349 -0.00561
