323
Graphene
C 34.35644 0.0162 0.01295
C 12.24573 15.45683 -0.00289
C 13.46844 14.78012 0.00028
C 13.57528 13.41102 -0.02213
C 12.2765 12.7749 0.03698
C 12.27682 11.37538 -0.00109
C 13.57001 10.71087 -0.00491
C 13.57086 9.29785 0.03338
C 12.05646 16.86235 -0.00066
C 12.36887 8.59403 -0.0258
C 13.49137 6.40751 -0.00316
C 13.45405 5.00222 0.02188
C 12.27034 4.29929 -0.01979
C 12.27946 2.92879 0.02691
C 13.52906 2.21321 -0.01581
C 13.50924 0.83926 0.01452
C 12.27941 0.10351 0.04892
C 12.31374 7.17537 -0.0331
C 14.75793 32.82273 -0.00111
C 13.36544 17.51567 0.00213
C 12.11956 19.7547 -0.04147
C 11.08386 5.04285 -0.00114
C 9.90566 4.30211 0.00228
C 9.84811 2.90829 0.00798
C 11.07227 2.20443 0.00422
C 11.08804 0.78438 0.0351
C 9.90232 0.09912 -0.03113
C 12.31152 32.83486 0.02098
C 13.28237 18.90171 -0.05302
C 13.51331 32.19415 0.01848
C 12.2471 30.02305 -0.02162
C 12.30465 28.67208 0.00889
C 13.56497 27.91187 -0.00481
C 13.95381 26.50698 0.00979
C 14.1385 23.01283 0.01443
C 13.46961 21.76065 0.03505
C 12.0524 21.13454 -0.02815
C 13.53475 30.7773 -0.00619
C 15.95459 32.13076 -0.03557
C 16.23645 30.76593 0.03754
C 14.92186 30.09202 0.01739
C 16.08677 2.21742 -0.01721
C 16.00639 0.85148 -0.02422
C 14.8361 0.15578 0.01277
C 17.25212 32.79062 0.00096
C 18.34137 31.95641 -0.01527
C 17.56133 30.50703 0.01087
C 18.12441 17.86269 0.00199
C 14.76997 2.93933 -0.01154
C 17.1055 16.94401 0.01511
C 18.63917 15.08628 -0.01662
C 18.55526 13.72031 -0.01185
C 17.43577 12.81625 0.01126
C 17.42626 11.38003 0.01852
C 18.58341 10.55074 -0.00381
C 18.31751 9.18315 0.03046
C 17.18389 8.4309 0.0296
C 17.17204 15.65459 -0.00478
C 14.6815 4.33048 0.0106
C 15.99042 4.95706 -0.01594
C 15.94387 6.35097 0.00742
C 14.67667 28.83599 0.00755
C 14.51283 25.45704 -0.0054
C 14.88612 24.07333 0.00667
C 14.39898 20.82588 0.00143
C 14.65791 19.55928 -0.017
C 15.95017 18.92669 0.00364
C 15.85579 17.60008 -0.00831
C 14.62909 16.79878 -0.02957
C 14.72673 15.41009 -0.04422
C 15.99982 14.78232 0.00654
C 16.07766 13.36597 -0.00703
C 14.87877 12.82979 -0.04076
C 14.90367 11.46543 -0.00652
C 16.14549 10.70663 0.0058
C 16.04954 9.16501 -0.00865
C 14.7691 8.57328 0.00675
C 14.76532 7.17354 -0.00311
C 11.08787 6.39935 -0.02696
C 17.1749 7.01889 0.03374
C 9.81391 7.11508 -0.00368
C 11.09487 9.29304 -0.01957
C 3.67669 0.73313 0.00057
C 2.42547 0.04694 -0.01634
C 4.99458 32.58561 -0.00334
C 6.10933 31.94612 0.02339
C 6.58526 19.11183 0.01641
C 6.10386 17.7212 -0.00719
C 4.82554 17.10444 0.01364
C 3.68834 2.13259 0.00093
C 4.83957 15.66475 -0.01062
C 6.0565 13.43369 0.03589
C 4.83152 12.7715 -0.02759
C 4.8341 11.37253 0.0402
C 6.12415 10.67866 0.00572
C 6.08091 9.26429 0.03592
C 4.87498 8.55084 0.00406
C 4.90194 7.12794 0.00943
C 6.11317 14.87559 -0.00033
C 6.14464 6.40923 0.02841
C 2.45247 2.84912 0.01291
C 3.61389 4.90531 -0.00191
C 3.64297 30.52452 0.00393
C 2.37444 30.02962 0.00895
C 2.43563 20.01606 0.00685
C 3.45507 19.22657 0.02888
C 3.65619 17.87324 -0.00482
C 2.36185 17.17889 -0.01384
C 2.33895 15.6882 0.03693
C 2.35324 4.2416 0.00438
C 3.604 15.00984 0.01745
C 2.38542 12.87088 -0.01004
C 2.31549 11.41721 -0.02896
C 3.58709 10.68026 -0.00131
C 3.5995 9.2956 -0.01118
C 2.4342 8.54438 -0.014
C 2.40234 7.18934 0.02147
C 3.60864 6.38288 0.00373
C 3.66666 13.4787 0.00488
C 6.14846 4.95192 -0.01111
C 4.86733 4.24436 -0.01275
C 4.94063 2.90606 0.00985
C 8.63498 2.16644 0.01241
C 8.66736 0.72081 -0.01454
C 7.42936 0.02948 0.01945
C 9.77069 32.80952 0.01416
C 11.01267 32.15998 0.03542
C 11.06307 30.76873 0.02299
C 9.37571 19.7247 0.00244
C 7.35002 2.8728 0.0076
C 10.80375 19.03838 -0.01717
C 9.68252 17.00694 -0.01952
C 9.76845 15.60647 -0.02813
C 10.9516 14.79467 0.00374
C 10.97763 13.46661 0.00052
C 9.71861 12.72053 -0.03682
C 9.83475 11.33632 0.01965
C 11.03383 10.63296 0.02058
C 10.88599 17.58405 0.05265
C 7.37025 4.22003 0.02162
C 8.60883 5.02677 -0.0014
C 8.56085 6.39787 0.00415
C 6.13328 2.11688 -0.02245
C 6.16637 0.74258 -0.00428
C 4.87765 34.05392 0.03101
C 7.39989 32.50406 -0.01536
C 8.69352 31.96687 -0.02689
C 8.14133 19.25009 -0.01046
C 8.45459 17.6684 -0.00891
C 7.31358 16.95797 0.02819
C 7.34317 15.55424 0.00165
C 8.54841 14.80937 -0.02971
C 8.52387 13.45114 0.02894
C 7.26607 12.77154 -0.01789
C 7.35438 11.32672 0.00444
C 8.63819 10.59885 -0.00925
C 8.60436 9.22146 0.01877
C 7.42392 8.47616 0.01363
C 7.41085 7.05582 -0.02162
C 9.86254 8.53127 -0.0108
C 3.71668 31.95148 0.0288
C 18.44467 6.42877 -0.02845
C 17.29074 4.27777 0.02239
C 31.88442 29.7806 0.00682
C 31.9833 28.26461 -0.01779
C 33.22415 27.64967 0.03794
C 33.31086 26.22288 0.01927
C 31.94707 25.58596 0.01574
C 32.02541 24.23286 -0.02383
C 33.21256 23.46022 -0.01429
C 33.16165 30.59162 0.00026
C 33.19973 21.98308 -0.0136
C 31.79058 19.84933 -0.02474
C 33.10652 19.26558 0.00369
C 33.09551 17.80329 0.00455
C 31.81842 17.10153 -0.00644
C 31.84675 15.66192 -0.01839
C 33.14596 14.9469 0.00137
C 33.0717 13.55885 0.00199
C 31.90282 21.25299 0.00594
C 31.89412 12.79475 0.04381
C 33.14019 31.93845 0.0544
C 29.37825 34.04326 0.01428
C 29.31865 16.99516 -0.01303
C 29.32131 15.57829 -0.01461
C 30.61556 14.88375 -0.02155
C 30.65582 13.50846 -0.00944
C 29.42747 12.73407 -0.03735
C 29.49378 11.31146 -0.00971
C 30.68758 10.61857 0.01518
C 31.85218 32.68422 -0.02142
C 30.66862 9.19889 0.01908
C 29.48999 6.9964 0.0103
C 30.65305 6.34057 0.02108
C 30.58518 4.92335 0.00716
C 29.4234 4.22095 0.00307
C 29.43504 2.76571 0.00346
C 30.57818 2.04932 0.01713
C 30.65078 0.66542 -0.01694
C 29.51827 8.43987 0.07705
C 31.95669 11.38393 0.02806
C 33.11054 10.61421 0.01504
C 33.1353 9.25138 -0.00069
C 34.30918 17.12769 0.00648
C 34.2735 15.69804 0.02114
C 1.14871 14.98154 -0.02957
C 1.15702 13.52149 0.00343
C 34.4094 12.7905 -0.02656
C 34.32196 11.38085 -0.02442
C 1.16272 10.69537 -0.00027
C 1.16882 17.85359 0.01223
C 1.18065 9.27414 -0.00583
C 34.37733 7.14296 -0.02849
C 1.14402 6.40378 0.02931
C 1.20549 4.97823 0.00628
C 34.40501 4.22652 -0.0345
C 34.41773 2.86029 -0.00931
C 1.22311 2.23591 -0.00939
C 1.23356 0.74153 -0.00468
C 0.00437 8.56435 -0.02302
C 1.16135 19.33037 -0.01678
C 34.41849 19.96586 0.01951
C 0.06881 21.36754 -0.02213
C 31.90622 8.55135 0.04926
C 31.87169 7.01068 -0.03838
C 33.1426 6.31481 0.00349
C 33.14666 4.88878 -0.00323
C 31.8851 4.20693 -0.00841
C 31.79548 2.82434 0.0001
C 33.05246 2.14317 -0.02927
C 33.11354 0.63699 -0.01404
C 31.87982 34.0075 0.01027
C 34.37417 32.67788 0.01831
C 1.24876 32.01432 -0.01037
C 1.17017 30.54884 -0.00439
C 34.37364 29.85924 -0.00598
C 34.30345 28.52848 -0.05239
C 34.39857 25.3686 0.03076
C 0.14119 24.12801 0.00723
C 1.35329 22.17905 0.02712
C 30.57159 17.79018 -0.0405
C 18.465 5.06647 -0.03213
C 30.51222 19.17333 0.01705
C 30.84897 22.24933 -0.00669
C 23.33585 9.36503 0.03102
C 21.99479 8.92547 0.02555
C 22.00732 7.3265 0.01423
C 23.26305 6.53753 -0.00285
C 23.30407 5.02564 -0.009
C 22.08392 4.39066 -0.01199
C 22.0162 2.90746 -0.00229
C 21.92867 32.5811 0.00135
C 23.22492 2.14522 -0.00938
C 22.06196 33.91965 -0.01154
C 24.64812 32.71879 0.00684
C 25.5719 31.96348 -0.01052
C 25.42736 17.10538 -0.01679
C 24.91127 15.95234 0.00367
C 25.34013 14.6931 0.04306
C 25.64533 13.40271 0.00996
C 23.19809 0.72167 -0.0264
C 25.77284 10.57871 0.00195
C 19.60121 33.85856 -0.00498
C 20.8163 2.04797 0.02117
C 17.32178 2.82227 0.01153
C 18.52328 2.09404 0.02734
C 18.4936 0.66574 -0.0055
C 17.20039 0.08481 0.01515
C 19.68073 32.40762 -0.00225
C 20.89404 31.81328 0.00071
C 19.3508 17.30871 -0.01107
C 20.79338 0.48208 0.02737
C 19.55946 16.13942 -0.01586
C 20.78264 9.44748 -0.02118
C 19.59582 8.64293 0.00733
C 19.59036 7.23845 -0.00178
C 20.82787 6.49887 0.00768
C 20.90627 5.09183 -0.0276
C 19.71357 4.32595 0.03005
C 19.68267 2.85946 -0.04078
C 19.96535 10.80788 -0.01971
C 25.74191 9.22957 -0.00802
C 24.46997 8.5605 -0.00218
C 24.52485 7.13417 -0.01654
C 26.98393 7.05322 0.01699
C 28.17585 6.31876 -0.00416
C 28.1667 4.89975 0.01177
C 26.96659 4.22605 0.04266
C 26.98345 2.77894 0.01324
C 28.18675 2.09715 0.0014
C 28.15614 0.56427 0.00924
C 27.00003 8.50262 0.01799
C 26.83619 33.99641 0.02326
C 30.63882 31.94299 0.03265
C 30.63727 30.41436 -0.02049
C 29.29925 29.73694 -0.01854
C 29.58591 28.49315 -0.01415
C 30.60176 27.61314 -0.03039
C 30.84353 26.2639 0.01836
C 30.64234 23.4357 0.03531
C 29.30985 32.61149 0.00261
C 28.24997 9.18196 0.01259
C 28.29258 10.57216 0.01495
C 26.9927 11.26617 0.00235
C 25.7311 6.30332 -0.00037
C 25.81032 4.93683 -0.0032
C 24.4816 4.3656 0.00622
C 24.50121 2.83993 -0.02815
C 25.75281 2.14765 -0.00942
C 25.67741 0.7468 0.00487
C 24.48053 34.05807 0.00826
C 26.89076 32.58292 -0.00294
C 28.10722 31.92487 0.00152
C 28.11651 30.55829 0.01257
C 28.13042 19.21522 0.02316
C 27.85683 17.75818 0.04185
C 26.7131 17.00039 0.00194
C 26.93688 15.57488 -0.00621
C 28.08624 14.85958 0.02611
C 28.17187 13.418 0.02198
C 26.96766 12.68495 0.01094
C 29.26548 19.72234 0.0101
C 2.45721 32.72447 -0.0008
