395
Graphene
C 34.40736 0.01203 0.01295
C 11.08085 0.70071 0.00444
C 9.83919 0.09033 -0.00925
C 12.32566 32.65752 0.01877
C 13.49877 31.96018 0.01363
C 13.55732 30.54745 -0.02162
C 12.32583 29.86777 0.00415
C 12.2843 28.44096 -0.0014
C 13.44746 27.58964 0.02162
C 13.52504 26.22742 0.0076
C 11.0761 2.07481 -0.01789
C 12.25755 25.54157 0.01241
C 13.57816 23.42033 0.01945
C 13.58627 21.97235 0.01416
C 12.36049 21.33769 0.03542
C 12.26014 19.88805 0.02299
C 13.51213 19.10796 0.00244
C 13.47676 17.64376 -0.01717
C 12.21416 16.99409 0.05265
C 12.31772 15.59369 -0.01952
C 13.60201 14.8799 -0.02813
C 12.28852 24.1767 -0.01454
C 9.84706 2.86951 0.02894
C 9.77947 4.30336 -0.02971
C 11.00861 5.01517 0.00165
C 11.01137 27.68957 -0.01062
C 11.11137 26.33077 -0.00033
C 9.90224 25.62643 0.03589
C 9.87191 24.2201 -0.02759
C 11.07453 23.43441 0.0402
C 11.14386 22.03887 0.00572
C 9.88487 21.38024 0.03592
C 9.80001 19.95456 0.00406
C 11.03295 19.30151 0.00943
C 11.02691 17.76211 0.02841
C 9.82801 17.0309 -0.01111
C 9.8593 15.53665 -0.01275
C 11.09493 14.88424 0.00985
C 11.0423 13.52749 -0.02245
C 9.86975 12.75617 -0.00428
C 9.86334 11.3348 0.03101
C 11.0877 10.66906 -0.01536
C 11.0781 9.21901 -0.02689
C 9.79732 8.47755 -0.01046
C 9.86592 7.13339 -0.00891
C 11.09886 6.42596 0.02819
C 13.5288 13.50182 0.00374
C 12.34626 12.8362 0.00052
C 12.25621 11.36122 -0.03682
C 13.50969 10.62219 0.01965
C 14.76664 17.0097 -0.00289
C 14.74308 15.58646 0.00028
C 15.97399 14.91272 -0.02213
C 15.9834 13.4701 0.03698
C 14.74192 12.78573 -0.00109
C 14.77958 11.35024 -0.00491
C 16.07787 10.69957 0.03338
C 16.02696 9.25015 -0.0258
C 14.81819 8.51765 -0.0331
C 14.80644 7.01778 -0.00316
C 15.96775 6.38596 0.02188
C 15.96525 4.95134 -0.01979
C 14.74195 4.15872 0.02691
C 14.74362 2.79326 -0.01581
C 15.98733 2.14496 0.01452
C 15.91997 0.73985 0.04892
C 14.63293 0.01391 -0.00111
C 17.1408 32.77179 -0.03557
C 18.33102 31.97105 0.03754
C 18.41927 30.58343 0.01739
C 17.25094 29.81298 0.00755
C 16.07163 17.81671 -0.00066
C 9.80077 28.39559 0.01364
C 16.03368 19.25261 0.00213
C 14.76976 21.29861 -0.04147
C 13.53797 9.20747 0.02058
C 12.31727 8.49642 -0.01957
C 12.33151 7.08434 -0.0108
C 13.52183 6.34971 -0.00368
C 13.52903 4.97324 -0.02696
C 12.24104 4.30665 -0.00114
C 12.24972 2.87214 0.00228
C 13.47124 2.17122 0.00798
C 13.49063 0.72103 0.00422
C 12.29277 0.00937 0.0351
C 14.72481 32.69984 -0.03113
C 15.93315 31.9647 0.02098
C 15.9703 30.54075 0.01848
C 14.76147 29.7568 -0.00619
C 14.67654 28.31231 -0.02162
C 15.94238 27.62913 0.00889
C 15.94868 26.22322 -0.00481
C 14.76547 25.49103 0.00979
C 14.78311 24.08331 0.01443
C 16.10711 23.48691 0.03505
C 16.06528 22.02786 -0.02815
C 14.79806 19.81018 -0.05302
C 17.13624 28.39018 -0.0054
C 9.73378 29.83136 -0.00719
C 11.03391 32.03043 0.02339
C 2.48139 4.249 -0.00279
C 2.43038 2.84322 0.01996
C 3.65151 2.15983 -0.03996
C 3.62986 0.73468 0.01465
C 2.42428 34.05475 -0.00074
C 4.90222 32.67824 -0.00518
C 6.10734 31.97654 0.0086
C 6.11018 30.54743 -0.00643
C 4.8963 29.88474 0.017
C 3.61331 5.07038 0.01226
C 4.8351 28.49811 -0.03113
C 6.06411 26.26503 -0.00094
C 4.87455 25.54722 0.02322
C 4.84277 24.15407 -0.00725
C 6.14567 23.41112 -0.05697
C 6.22318 22.00424 0.01087
C 4.97556 21.32074 -0.01343
C 4.99332 19.89906 0.00988
C 6.19689 19.13428 0.0276
C 6.18871 17.74779 0.01305
C 6.00627 27.72387 -0.02566
C 3.64893 6.47753 0.03828
C 2.38339 7.10999 0.0174
C 2.42839 8.54023 0.0073
C 3.72689 30.53679 -0.01977
C 2.48726 29.76154 -0.00561
C 2.45868 28.31474 0.00208
C 3.6616 27.65675 0.01707
C 3.67028 26.22082 0.02769
C 2.33687 25.63385 -0.03291
C 2.40984 24.22742 -0.04999
C 3.59787 23.45437 0.04505
C 3.72955 22.02059 0.03284
C 2.49094 21.29176 -0.04307
C 2.4654 19.85685 0.03189
C 3.71321 19.2087 0.00031
C 3.70538 17.74941 -0.003
C 2.47824 17.02026 0.01402
C 2.39289 15.56316 0.02379
C 3.68734 14.88485 0.00907
C 3.70046 13.50113 0.00643
C 2.49826 12.80551 -0.01509
C 2.45764 11.42901 0.03267
C 3.65464 10.69253 0.02374
C 3.6216 9.30206 0.00402
C 4.95803 17.05063 -0.00077
C 4.96877 15.62561 0.03368
C 6.14573 14.8995 -0.02929
C 6.11355 13.45818 -0.00966
C 7.39982 19.8903 0.00685
C 8.57584 19.1894 0.02888
C 8.58628 17.69092 -0.00482
C 7.35429 17.03622 -0.01384
C 7.38032 15.61707 0.03693
C 8.62638 14.91878 0.01745
C 8.6124 13.46719 0.00488
C 7.39256 12.79144 -0.01004
C 7.38683 11.38311 -0.02896
C 8.59783 10.65339 -0.00131
C 8.6025 9.27587 -0.01118
C 7.40045 8.57295 -0.014
C 7.41319 7.13373 0.02147
C 8.66201 6.47496 0.00373
C 8.59124 5.04575 -0.00191
C 7.38431 4.33356 0.00438
C 7.45349 2.90815 0.01291
C 8.59885 2.20279 0.00093
C 8.57508 0.83505 0.00057
C 7.39233 0.03325 -0.01634
C 9.78688 32.75692 -0.00334
C 7.44845 21.32492 0.00895
C 11.0197 30.58518 0.01641
C 8.62593 22.09855 0.00393
C 7.34782 24.1467 -0.0008
C 4.89333 12.78783 -0.03337
C 4.89395 11.39631 0.01227
C 6.09127 10.68727 0.00873
C 6.11885 9.30313 -0.00049
C 4.89492 8.59302 0.00848
C 4.85154 7.14741 -0.01303
C 6.16237 6.3624 -0.01378
C 6.16513 4.98408 0.02635
C 4.88438 4.31401 0.0127
C 4.88665 2.92157 0.01396
C 6.15744 2.20347 0.01849
C 6.10361 0.78416 -0.01142
C 4.91186 0.06609 -0.00562
C 7.37021 32.73247 -0.00494
C 8.58063 31.99405 0.00054
C 8.53483 30.5645 0.03007
C 7.29613 29.83089 -0.00095
C 7.27312 28.35988 0.01572
C 8.57125 27.72412 -0.04848
C 8.56117 26.27215 -0.00892
C 7.35988 25.58658 -0.01362
C 8.60855 23.52868 0.0288
C 3.70155 31.96434 0.02784
C 18.42468 27.63398 0.00667
C 17.20077 25.54192 -0.017
C 30.74529 6.41627 0.01908
C 30.72903 5.00026 0.07705
C 29.5556 4.30524 0.0103
C 29.48489 2.85548 0.02108
C 30.72842 2.20569 0.00716
C 30.71722 0.76228 0.00307
C 29.4639 0.05994 0.00346
C 31.99801 32.61078 0.01713
C 33.20845 31.90515 -0.01694
C 29.49183 7.12018 0.01518
C 33.22207 30.48686 0.01428
C 31.99496 28.34342 0.0544
C 33.24753 27.65581 0.00026
C 33.23023 26.27197 0.00682
C 31.99968 25.54791 -0.01779
C 32.06644 24.11916 0.03794
C 33.20513 23.38551 0.01927
C 33.26311 21.98357 0.01574
C 31.97398 21.31225 -0.02383
C 31.95167 19.90548 -0.01429
C 32.00466 29.77974 -0.02142
C 29.53445 8.48633 -0.00971
C 30.69859 9.14428 -0.03735
C 30.68012 10.61108 -0.00944
C 28.27703 0.74626 0.01177
C 26.97142 34.07524 0.04266
C 29.45635 32.65071 0.01324
C 30.70041 31.91146 0.0014
C 30.77899 30.47364 0.00924
C 29.5106 29.81157 0.02326
C 29.58352 28.36773 0.00261
C 30.78535 27.63255 0.03265
C 30.73345 26.26951 -0.02049
C 29.36752 25.47658 -0.01854
C 29.64872 24.17311 -0.01415
C 30.64458 23.32116 -0.03039
C 30.84493 21.99732 0.01836
C 30.82784 19.24457 0.03531
C 30.66113 17.85733 -0.00669
C 29.55904 17.06818 0.0101
C 29.36888 15.72388 0.01705
C 30.70582 14.96403 -0.0405
C 30.72846 13.56018 -0.01303
C 29.52503 12.79163 -0.01461
C 29.47894 11.35046 -0.02155
C 33.17426 19.15377 -0.0136
C 33.26475 17.73373 0.00594
C 32.00299 17.05168 -0.02474
C 31.97156 15.67872 0.00369
C 1.30225 22.03388 0.02712
C 0.08363 21.30639 -0.02213
C 0.03327 19.87014 0.01951
C 1.18304 19.10822 -0.01678
C 1.23982 17.74075 0.01223
C 0.00262 17.03046 0.00648
C 34.39994 15.616 0.02114
C 1.13754 14.84778 -0.02957
C 1.18785 13.42139 0.00343
C 34.39648 12.74991 -0.02656
C 34.38356 11.31213 -0.02442
C 1.23513 10.67631 -0.00027
C 1.23739 9.30747 -0.00583
C 0.01347 8.5483 -0.02302
C 34.39911 7.0936 -0.02849
C 1.17537 6.39552 0.02931
C 1.15829 4.95506 0.00628
C 34.35356 4.2284 -0.0345
C 34.40921 2.77052 -0.00931
C 1.21561 2.12294 -0.00939
C 1.19306 0.72336 -0.00468
C 1.22542 23.4766 0.00723
C 28.22479 2.1835 -0.00416
C 34.42268 24.09429 0.03076
C 1.14566 26.26086 -0.00598
C 33.15159 14.91193 0.00455
C 33.15869 13.4985 -0.00644
C 31.97305 12.75853 -0.01839
C 31.906 11.36042 0.00137
C 33.15793 10.63538 0.00199
C 33.21785 9.23103 0.04381
C 31.98371 8.5317 0.02806
C 32.02607 7.09071 0.01504
C 33.19313 6.35114 -0.00069
C 33.17199 4.94909 0.04926
C 31.93334 4.28455 -0.03838
C 31.95521 2.82056 0.00349
C 33.18004 2.08185 -0.00323
C 33.16243 0.67061 -0.00841
C 31.91527 34.02526 0.0001
C 0.01341 32.66771 -0.02927
C 1.21401 31.8802 -0.01404
C 1.27339 30.49852 0.01027
C 0.053 29.8282 0.01831
C 0.00768 28.3749 -0.01037
C 1.19929 27.68953 -0.00439
C 34.39774 25.5014 -0.05239
C 18.43933 26.2129 0.00143
C 27.00601 2.87436 0.01699
C 28.30886 4.94461 0.01259
C 19.66679 25.5137 -0.01662
C 20.77188 13.49266 -0.01185
C 19.62107 12.74151 0.01126
C 19.66403 11.30297 0.01852
C 20.86544 10.64645 -0.00381
C 20.86463 9.20034 0.03046
C 19.64172 8.45869 0.0296
C 19.56651 7.03942 0.03374
C 20.80598 6.25731 -0.02845
C 20.75708 26.22277 -0.00478
C 20.94145 4.88936 -0.03213
C 20.92334 2.05937 0.01153
C 20.93159 0.65359 0.02734
C 19.70641 34.0132 -0.0055
C 22.1469 32.65099 0.01515
C 23.35685 31.8834 -0.00225
C 23.35397 30.42679 0.00071
C 22.12179 29.79281 -0.01107
C 22.13228 28.31297 -0.01586
C 23.36185 27.65617 -0.01971
C 19.81848 2.79739 0.02239
C 20.93004 27.57257 0.01511
C 19.65369 28.36604 0.00199
C 19.67901 29.86785 0.01087
C 17.2228 24.16268 0.00364
C 17.21325 21.33363 -0.00831
C 17.12842 16.97827 -0.02957
C 17.37538 15.65879 -0.04422
C 18.52233 14.86787 0.00654
C 18.49477 13.59322 -0.00703
C 17.22036 12.86398 -0.04076
C 17.26365 11.41123 -0.00652
C 18.43435 10.59322 0.0058
C 18.49675 9.16224 -0.00865
C 17.21171 8.54262 0.00675
C 17.2148 7.10954 -0.00311
C 18.30153 6.41347 0.00742
C 17.15488 4.39481 -0.01594
C 17.24357 2.95762 0.0106
C 18.56256 2.20525 -0.01154
C 18.51316 0.73248 -0.01721
C 17.21991 0.08434 -0.02422
C 19.64175 32.61665 0.01277
C 20.9599 31.98123 0.00096
C 20.92863 30.54044 -0.01527
C 23.33724 13.33733 -0.02118
C 22.0436 12.83999 0.00733
C 22.08357 11.36885 -0.00178
C 23.38617 10.66048 0.00768
C 24.76465 4.31635 -0.00218
C 24.63117 2.92318 -0.01654
C 25.77298 2.11942 -0.00037
C 25.73623 0.64815 -0.0032
C 24.52843 34.05646 0.00622
C 26.95814 32.63669 -0.02815
C 28.17486 31.94307 -0.00942
C 28.27843 30.50576 0.00487
C 27.04119 29.77554 0.00826
C 27.03496 28.32956 -0.00294
C 28.23471 27.70328 0.00152
C 28.23814 26.33093 0.01257
C 28.26674 14.8675 0.02316
C 28.24109 13.50419 0.04185
C 27.03147 12.77853 0.00194
C 27.07018 11.34634 -0.00621
C 28.25759 10.60379 0.02611
C 28.27314 9.20904 0.02198
C 27.02209 8.49231 0.01094
C 27.01697 7.07993 0.00235
C 28.29815 6.39921 0.01495
C 25.9833 5.00962 -0.00802
C 27.11517 4.27591 0.01799
C 25.83347 6.43735 0.00195
C 24.58361 8.52206 0.04306
C 23.32225 9.17112 -0.0276
C 22.09146 8.49032 0.03005
C 22.11538 7.10096 -0.04078
C 23.38905 6.41228 0.02117
C 23.48618 5.02088 0.02737
C 22.1331 4.23373 -0.00498
C 22.14789 2.79918 0.00135
C 23.34924 2.19743 0.03102
C 23.3215 0.76592 0.02555
C 22.13998 34.03891 0.01423
C 24.51651 32.64102 -0.00285
C 25.74761 31.89879 -0.009
C 25.80322 30.51021 -0.01199
C 24.60806 29.77946 -0.00229
C 24.53291 28.27615 -0.00938
C 25.79857 27.78615 -0.0264
C 25.89063 13.5255 -0.01154
C 24.61838 12.84146 0.00684
C 24.59945 11.35713 -0.01052
C 25.80676 10.69106 -0.01679
C 25.86388 9.2325 0.00367
C 24.63123 7.12646 0.00996
C 2.41496 32.65858 -0.01979
