336
Graphene
C 34.42228 0.03137 0.01295
C 17.29538 8.61478 -0.00481
C 17.21601 7.13086 0.00979
C 18.50543 6.4911 0.01443
C 18.46216 5.02953 0.03505
C 17.24528 4.33275 -0.02815
C 17.26344 2.87238 -0.04147
C 18.42044 2.07858 -0.05302
C 18.37509 0.63269 0.00213
C 17.13186 34.03128 -0.00066
C 19.67582 32.62405 -0.00289
C 20.92347 31.93112 0.00028
C 20.97392 30.53591 -0.02213
C 19.74084 29.85435 0.03698
C 19.72585 28.38568 -0.00109
C 20.86579 27.6496 -0.00491
C 20.83006 26.2867 0.03338
C 19.82222 25.33854 -0.0258
C 18.50817 9.30027 0.00889
C 19.80927 24.10383 -0.0331
C 18.4801 10.69241 -0.02162
C 18.34916 19.2627 0.01848
C 14.62659 32.66522 -0.02813
C 15.88922 31.89878 0.00374
C 15.97353 30.54161 0.00052
C 16.02922 9.25007 -0.03682
C 14.97296 8.5588 0.01965
C 14.73143 7.14712 0.02058
C 15.98441 6.48626 -0.01957
C 16.01735 5.08014 -0.0108
C 14.81408 4.33686 -0.00368
C 14.7818 2.87907 -0.02696
C 15.979 2.10048 -0.00114
C 15.94414 0.70331 0.00228
C 14.681 0.01012 0.00798
C 17.11245 32.61921 0.00422
C 18.49974 31.83014 0.0351
C 18.464 30.41368 -0.03113
C 17.28537 29.99556 0.02098
C 18.35207 13.27175 -0.00619
C 12.25934 34.05649 -0.01952
C 20.92232 23.18433 -0.00316
C 19.38683 21.19539 -0.01979
C 23.37898 31.96202 0.0058
C 23.43853 30.52192 -0.00865
C 22.19365 29.88424 0.00675
C 22.12025 28.4021 -0.00311
C 23.34485 27.69486 0.00742
C 23.30238 26.22902 -0.01594
C 22.08546 25.53614 0.0106
C 22.13934 24.07245 -0.01154
C 23.38779 23.41756 -0.01721
C 23.30003 21.99375 -0.02422
C 22.09366 21.25769 0.01277
C 22.09364 19.85526 0.00096
C 23.38159 19.2303 -0.01527
C 23.26502 17.73062 0.01087
C 22.03371 17.05685 0.00199
C 22.02247 15.66743 0.01511
C 23.2986 14.94154 -0.00478
C 22.14361 32.64335 -0.00652
C 20.77386 21.7796 0.02188
C 19.64476 34.02783 -0.04076
C 20.86429 2.0937 0.00654
C 19.64988 19.83573 0.02691
C 20.89804 19.1262 -0.01581
C 20.84468 17.76338 0.01452
C 19.54921 17.09431 0.04892
C 19.59708 15.78478 -0.00111
C 20.75117 14.99112 -0.03557
C 20.82536 13.6267 0.03754
C 19.65618 12.7309 0.01739
C 19.63073 11.34967 0.00755
C 20.88141 10.67478 -0.0054
C 20.92634 9.28436 0.00667
C 19.73966 8.56925 0.00143
C 19.6686 7.1788 -0.017
C 20.85318 6.46644 0.00364
C 20.92793 4.91381 -0.00831
C 19.64916 4.21552 -0.02957
C 19.63149 2.73455 -0.04422
C 20.85737 0.60921 -0.00703
C 23.35712 13.52302 -0.01662
C 13.51373 0.77082 0.05265
C 12.31753 2.96021 0.00244
C 2.47172 4.2257 0.00488
C 2.38247 2.80247 -0.01004
C 3.64824 2.09973 -0.02896
C 3.66392 0.68671 -0.00131
C 2.40125 34.06347 -0.01118
C 4.88572 32.59261 -0.014
C 6.15164 31.97777 0.02147
C 6.11955 30.55951 0.00373
C 4.89014 29.81982 -0.00191
C 4.98641 28.34887 0.00438
C 6.15566 27.68434 0.01291
C 6.15315 26.28915 0.00093
C 4.91322 25.60845 0.00057
C 4.90099 24.18185 -0.01634
C 6.21355 23.83161 -0.00334
C 4.83603 8.4723 0.02339
C 4.83116 7.06927 0.01641
C 3.67826 4.90846 0.01745
C 6.10992 6.3011 -0.00719
C 3.63161 6.34143 0.03693
C 2.49116 8.58605 -0.00482
C 3.64329 30.53119 0.01849
C 2.44061 29.89451 -0.01142
C 2.41395 28.45771 -0.00562
C 3.67481 27.72411 -0.00494
C 3.70888 26.30878 0.00054
C 2.38504 25.6283 0.03007
C 2.45747 24.20858 -0.00095
C 3.67025 23.5138 0.01572
C 3.59311 22.10572 -0.04848
C 2.61888 21.14826 -0.00892
C 2.53978 19.71492 -0.01362
C 2.24726 16.86491 -0.0008
C 2.53585 15.59047 0.0288
C 2.43887 12.75136 0.00393
C 2.38907 11.30942 0.00895
C 3.58139 10.6897 0.00685
C 3.88444 9.3955 0.02888
C 2.4445 7.17009 -0.01384
C 13.54431 2.26912 -0.01717
C 6.09745 4.8896 0.01364
C 4.87926 2.79606 -0.00033
C 10.96831 30.40223 0.02894
C 9.78469 29.75749 -0.01789
C 9.78657 7.24175 0.00444
C 11.06216 6.73434 -0.00925
C 11.06194 5.18766 0.01877
C 9.9003 4.39607 0.01363
C 9.86006 2.93707 -0.02162
C 11.06942 2.23204 0.00415
C 11.0731 0.7337 -0.0014
C 9.79005 0.00152 0.02162
C 12.2208 32.56132 0.0076
C 13.44568 31.91694 0.01241
C 13.3693 30.39708 -0.01454
C 12.35768 7.03226 0.01945
C 13.53883 6.47375 0.01416
C 13.53834 5.02209 0.03542
C 12.31897 4.41415 0.02299
C 11.01331 31.83772 -0.02971
C 4.88745 4.22207 -0.01062
C 9.82325 32.63837 0.00165
C 8.57477 0.6873 -0.00891
C 6.16563 2.13363 0.03589
C 6.08307 0.67431 -0.02759
C 4.89659 34.02341 0.0402
C 7.3786 32.64788 0.00572
C 8.56948 31.95406 0.03592
C 8.62258 30.48814 0.00406
C 7.38043 29.81327 0.00943
C 7.42023 28.44523 0.02841
C 8.68714 27.73659 -0.01111
C 7.49007 25.83626 -0.01275
C 7.36692 24.37625 0.00985
C 7.26964 7.08203 -0.02245
C 8.55324 6.5706 -0.00428
C 8.61823 5.04496 0.03101
C 7.40723 4.26162 -0.01536
C 7.40199 2.84248 -0.02689
C 8.61936 2.15644 -0.01046
C 7.3309 34.02639 0.02819
C 22.0651 12.91595 -0.01185
C 22.0824 11.44403 0.01126
C 23.30745 10.69967 0.01852
C 31.94153 28.37265 0.0544
C 33.15109 27.72411 0.00026
C 33.17382 26.27071 0.00682
C 31.94993 25.53623 -0.01779
C 31.92994 24.16184 0.03794
C 33.21662 23.45261 0.01927
C 33.25944 21.96814 0.01574
C 31.99196 21.25417 -0.02383
C 31.996 19.83953 -0.01429
C 33.2194 19.15802 -0.0136
C 33.15991 17.76956 0.00594
C 31.88502 17.06525 -0.02474
C 31.90522 15.6284 0.00369
C 33.26155 14.96223 0.00455
C 33.24441 13.52411 -0.00644
C 31.92997 12.82178 -0.01839
C 31.94422 11.39777 0.00137
C 31.97025 29.78821 -0.02142
C 33.16515 10.66599 0.00199
C 33.19758 30.5564 0.01428
C 31.94997 32.68566 0.01713
C 29.46601 17.04184 0.0101
C 29.47052 15.61384 0.01705
C 30.69993 14.92006 -0.0405
C 30.70962 13.47637 -0.01303
C 29.48045 12.74605 -0.01461
C 29.41103 11.32759 -0.02155
C 30.68606 10.66465 -0.00944
C 30.6561 9.29956 -0.03735
C 29.37796 8.50787 -0.00971
C 29.48608 7.0623 0.01518
C 30.76825 6.41054 0.01908
C 30.75894 4.9962 0.07705
C 29.50703 4.26986 0.0103
C 29.49349 2.86529 0.02108
C 30.69993 2.11291 0.00716
C 30.68602 0.69362 0.00307
C 29.47277 34.07016 0.00346
C 33.19883 31.99611 -0.01694
C 30.70701 17.76364 -0.00669
C 33.18235 9.229 0.04381
C 31.97598 7.09349 0.01504
C 1.20849 17.81826 0.01223
C 0.02249 17.06638 0.00648
C 0.09312 15.65577 0.02114
C 1.31944 14.89417 -0.02957
C 1.2948 13.55195 0.00343
C 0.01685 12.82534 -0.02656
C 34.41186 11.40506 -0.02442
C 1.14191 10.63671 -0.00027
C 1.24328 9.17108 -0.00583
C 34.41026 8.50709 -0.02302
C 0.00489 7.09631 -0.02849
C 1.2088 6.45006 0.02931
C 1.24772 4.99452 0.00628
C 34.36408 4.24605 -0.0345
C 34.41717 2.85209 -0.00931
C 1.21588 2.14447 -0.00939
C 1.1766 0.74713 -0.00468
C 1.26743 19.19035 -0.01678
C 31.94241 8.49302 0.02806
C 34.39871 19.86577 0.01951
C 1.34174 21.97262 0.02712
C 33.1819 6.38413 -0.00069
C 33.11192 4.96961 0.04926
C 31.90029 4.26209 -0.03838
C 31.92816 2.88929 0.00349
C 33.15181 2.17681 -0.00323
C 33.15806 0.70779 -0.00841
C 31.95391 0.01228 0.0001
C 34.38817 32.68612 -0.02927
C 1.20115 31.9637 -0.01404
C 1.21173 30.53663 0.01027
C 0.00835 29.84517 0.01831
C 0.00259 28.45826 -0.01037
C 1.22844 27.7055 -0.00439
C 1.16987 26.34685 -0.00598
C 0.00377 25.62235 -0.05239
C 0.01909 24.12662 0.03076
C 1.28363 23.39814 0.00723
C 0.05687 21.27038 -0.02213
C 30.71399 19.17802 0.03531
C 29.50193 19.86352 0.01836
C 29.50946 21.31638 -0.03039
C 24.54891 21.3025 0.03005
C 24.61908 19.86846 -0.04078
C 25.84176 19.15348 0.02117
C 25.77633 17.73204 0.02737
C 24.53184 17.06798 -0.00498
C 24.54485 15.63102 0.00135
C 25.79941 14.94318 0.03102
C 25.8047 13.48419 0.02555
C 24.60831 12.85518 0.01423
C 24.60405 11.41609 -0.00285
C 25.78909 10.69902 -0.009
C 25.79824 9.20735 -0.01199
C 24.48057 8.4182 -0.00229
C 25.88247 4.91306 -0.00938
C 24.5525 4.28848 -0.0264
C 24.57566 2.86708 -0.01154
C 25.7648 2.1568 0.00684
C 25.79536 22.01714 -0.0276
C 25.77959 0.70782 -0.01052
C 25.79737 23.43064 0.00768
C 24.51807 25.66285 0.00733
C 23.37364 9.26879 -0.00381
C 22.13131 8.55982 0.03046
C 22.08599 7.17804 0.0296
C 23.36585 6.55234 0.03374
C 23.40565 5.07968 -0.02845
C 22.17609 4.20814 -0.03213
C 22.09413 2.89876 0.02239
C 23.37039 2.14931 0.01153
C 23.29487 0.72141 0.02734
C 22.13193 34.03123 -0.0055
C 24.63624 32.65891 0.01515
C 25.84734 31.8483 -0.00225
C 25.90335 30.45302 0.00071
C 24.65641 29.75327 -0.01107
C 24.62412 28.31803 -0.01586
C 25.83008 27.66025 -0.01971
C 25.80689 26.22862 -0.02118
C 24.60482 24.17479 -0.00178
C 24.60904 0.01409 -0.01679
C 27.01763 32.66474 0.00367
C 28.27187 31.91143 0.04306
C 28.31342 4.95112 0.00235
C 27.08284 4.21696 0.01495
C 27.03736 2.84093 0.01259
C 28.23712 2.07246 0.01799
C 28.22781 0.63425 0.01699
C 27.02439 34.06072 -0.00416
C 29.43433 32.68304 0.01177
C 30.78286 31.96306 0.04266
C 30.72425 30.58 0.01324
C 29.50731 29.78288 0.0014
C 29.47487 28.34079 0.00924
C 30.73809 27.68277 0.02326
C 30.71987 26.28343 0.00261
C 29.55575 25.51132 0.03265
C 29.53975 24.05253 -0.02049
C 30.73942 23.40469 -0.01854
C 30.70464 21.99144 -0.01415
C 28.34667 6.3365 0.01094
C 28.13379 9.24531 0.02198
C 28.16358 10.67218 0.02611
C 26.99808 11.40465 -0.00621
C 28.2425 30.48295 0.00996
C 27.10558 29.66835 0.00195
C 27.04862 28.3007 -0.00802
C 28.25027 27.62166 -0.00218
C 28.28119 26.16035 -0.01654
C 27.03277 25.50128 -0.00037
C 27.10633 24.12435 -0.0032
C 28.30191 23.39999 0.00622
C 3.68425 31.89465 0.01396
C 28.27212 21.98348 -0.02815
C 26.98855 19.90051 0.00487
C 28.19349 19.18548 0.00826
C 28.22916 17.76948 -0.00294
C 26.97718 17.07404 0.00152
C 27.0266 15.69361 0.01257
C 28.18922 14.91653 0.02316
C 28.24479 13.45194 0.04185
C 26.99811 12.74721 0.00194
C 27.04362 21.31234 -0.00942
C 2.43497 32.65287 0.0127
