332
Graphene
C 34.27757 34.06201 0.01295
C 12.29995 25.51982 0.03505
C 12.23558 24.1235 -0.02815
C 13.6015 23.48892 -0.04147
C 13.54791 22.03385 -0.05302
C 12.30741 21.34072 0.00213
C 12.36552 19.9151 -0.00066
C 13.53975 19.26291 -0.00289
C 13.53759 26.3473 0.01443
C 13.53622 17.85953 0.00028
C 12.29778 15.70908 0.03698
C 13.60327 15.00653 -0.00109
C 13.50693 13.56985 -0.00491
C 12.36197 12.84087 0.03338
C 12.26891 11.38937 -0.0258
C 13.38469 10.60413 -0.0331
C 13.28189 9.07635 -0.00316
C 12.33899 17.17207 -0.02213
C 13.4871 27.80565 0.00979
C 12.27946 28.40375 -0.00481
C 12.15033 29.90066 0.00889
C 9.81103 17.05926 -0.03682
C 9.84683 15.57552 0.01965
C 11.00938 14.85654 0.02058
C 11.13124 13.41521 -0.01957
C 10.13389 12.07566 -0.0108
C 10.77423 10.9964 -0.00368
C 10.68626 9.78293 -0.02696
C 10.27945 8.5288 -0.00114
C 9.23874 7.74667 0.00228
C 10.21087 4.32417 0.00798
C 9.93325 2.914 0.00422
C 11.0687 2.16587 0.0351
C 10.99763 0.71847 -0.03113
C 9.74781 34.04873 0.02098
C 12.15237 32.64311 0.01848
C 13.45328 32.01072 -0.00619
C 13.53248 30.58008 -0.02162
C 11.65779 8.75626 0.02188
C 13.34838 5.08941 -0.01979
C 11.8474 4.32456 0.02691
C 12.22478 2.93524 -0.01581
C 16.01118 13.48365 0.00675
C 14.75254 12.83833 -0.00311
C 14.76261 11.32427 0.00742
C 15.93844 10.56358 -0.01594
C 15.98086 9.11043 0.0106
C 14.52312 8.38124 -0.01154
C 14.57803 6.90183 -0.01721
C 15.88085 6.31478 -0.02422
C 15.9241 4.92608 0.01277
C 14.54853 4.36243 0.00096
C 14.57939 2.89301 -0.01527
C 15.89554 2.16086 0.01087
C 15.9145 0.76179 0.00199
C 14.67595 34.0472 0.01511
C 17.08708 32.67655 -0.00478
C 18.5755 31.8735 -0.01662
C 18.26259 30.53852 -0.01185
C 15.96023 14.88725 -0.00865
C 11.09573 17.7479 0.00052
C 14.74326 15.66664 0.0058
C 15.98732 17.82484 -0.04076
C 13.40412 2.1897 0.01452
C 13.39926 0.70241 0.04892
C 12.16935 0.02096 -0.00111
C 14.71164 32.67545 -0.03557
C 15.95101 31.89509 0.03754
C 15.89943 30.4959 0.01739
C 14.69171 29.82539 0.00755
C 14.69335 28.50995 -0.0054
C 15.81609 27.73063 0.00667
C 15.94343 26.52234 0.00143
C 14.79229 25.58228 -0.017
C 14.79825 24.1663 0.00364
C 15.9961 23.50653 -0.00831
C 16.13673 22.15962 -0.02957
C 14.79184 21.3023 -0.04422
C 14.80442 19.90001 0.00654
C 16.05349 19.21626 -0.00703
C 14.7621 17.15063 -0.00652
C 17.23893 29.85574 0.01126
C 11.07608 19.18504 0.00374
C 9.76461 21.32711 -0.01952
C 4.84082 32.72925 -0.01118
C 6.0607 32.07528 -0.014
C 6.07865 30.5907 0.02147
C 4.88291 29.87858 0.00373
C 4.86258 28.47301 -0.00191
C 6.07444 27.72144 0.00438
C 6.07768 26.3325 0.01291
C 2.32624 0.03007 -0.00131
C 4.8833 25.61669 0.00093
C 6.10458 23.40916 -0.01634
C 6.1519 22.02987 -0.00334
C 4.82689 21.34407 0.02339
C 4.87887 19.89612 0.01641
C 6.06473 19.17867 -0.00719
C 6.01949 17.75846 0.01364
C 4.81565 17.10051 -0.01062
C 4.88956 24.18346 0.00057
C 3.61125 0.72202 -0.02896
C 3.67617 2.12106 -0.01004
C 2.4507 2.80785 0.00488
C 3.60333 30.57645 0.00054
C 2.34192 29.9191 0.03007
C 2.33041 28.3669 -0.00095
C 3.62308 27.81642 0.01572
C 3.63074 26.29686 -0.04848
C 2.35729 25.54739 -0.00892
C 2.35934 24.18105 -0.01362
C 3.6376 23.48738 -0.0008
C 3.62039 22.00177 0.0288
C 2.4183 21.31496 0.00393
C 2.39386 19.93328 0.00895
C 3.63328 19.22423 0.00685
C 3.63907 17.80497 0.02888
C 2.34433 17.13046 -0.00482
C 2.17401 15.82338 -0.01384
C 3.66026 5.16421 0.03693
C 2.45681 4.26564 0.01745
C 6.27537 5.03664 -0.00033
C 4.88955 4.51992 0.03589
C 4.89123 3.01088 -0.02759
C 6.11577 2.27886 0.0402
C 9.01448 5.11942 -0.00925
C 7.54309 4.41668 0.01877
C 7.47779 2.99728 0.01363
C 8.54986 2.1909 -0.02162
C 8.53489 0.75943 0.00415
C 7.2536 0.07345 -0.0014
C 9.79491 32.59579 0.02162
C 10.98057 31.94606 0.0076
C 10.9257 30.48076 0.01241
C 9.77838 29.80023 -0.01454
C 9.81138 28.35048 0.01945
C 11.03367 27.72634 0.01416
C 11.04475 26.27597 0.03542
C 9.91848 25.48634 0.02299
C 9.87159 24.10761 0.00244
C 11.081 23.39137 -0.01717
C 11.05517 21.96113 0.05265
C 8.89109 6.55175 0.00444
C 9.82443 19.94141 -0.02813
C 8.49654 15.0465 -0.01789
C 7.33428 17.07563 -0.02971
C 6.09948 0.76174 0.00572
C 4.91248 0.1104 0.03592
C 7.29776 32.71291 0.00406
C 8.52782 32.00523 0.00943
C 8.53464 30.5802 0.02841
C 7.27716 29.81521 -0.01111
C 7.29887 28.40005 -0.01275
C 8.52393 27.65647 0.00985
C 8.61272 26.24496 -0.02245
C 7.34095 25.56939 -0.00428
C 7.34403 24.18473 0.03101
C 8.61556 23.42588 -0.01536
C 8.58231 22.01832 -0.02689
C 7.31856 21.30938 -0.01046
C 7.31752 19.90351 -0.00891
C 8.53238 19.15421 0.02819
C 8.57303 17.70446 0.00165
C 7.47714 15.69753 0.02894
C 17.18147 21.1831 0.01852
C 17.37474 19.86146 -0.00381
C 18.49624 19.0282 0.03046
C 29.52889 4.3139 0.00026
C 29.47941 2.88631 0.00682
C 30.75458 2.18321 -0.01779
C 30.65504 0.79968 0.03794
C 29.3989 0.19612 0.01927
C 31.6407 32.69568 0.01574
C 32.93337 32.01174 -0.02383
C 30.80595 4.99566 0.0544
C 32.952 30.61872 -0.01429
C 31.98591 28.53668 0.00594
C 32.94718 27.89374 -0.02474
C 33.12541 19.09334 0.00369
C 33.21285 17.79602 0.00455
C 32.01456 17.06457 -0.00644
C 31.96281 15.61087 -0.01839
C 33.22127 14.89546 0.00137
C 31.62752 29.8458 -0.0136
C 30.73239 6.46432 -0.02142
C 29.44335 7.05022 0.01428
C 29.61123 8.51267 -0.01694
C 26.8929 4.27156 0.01705
C 26.9888 2.82816 -0.0405
C 28.19638 2.2212 -0.01303
C 28.16878 0.80909 -0.01461
C 27.13224 33.94624 -0.02155
C 29.40987 32.84726 -0.00944
C 30.32962 31.90351 -0.03735
C 30.46845 30.5302 -0.00971
C 30.81876 17.7713 0.01518
C 29.56538 17.2195 0.01908
C 29.48285 15.64594 0.07705
C 30.6924 14.95667 0.0103
C 30.77273 13.47721 0.02108
C 29.51104 12.84121 0.00716
C 29.54949 11.37925 0.00307
C 30.77685 10.66835 0.00346
C 30.78035 9.26685 0.01713
C 33.28069 13.55832 0.00199
C 32.05054 12.86215 0.04381
C 32.03228 11.35894 0.02806
C 33.35237 10.6596 0.01504
C 34.3502 21.3173 0.01223
C 34.16523 19.91453 0.00648
C 1.15199 19.21212 0.02114
C 1.09704 17.87184 -0.02957
C 34.38547 17.07264 0.00343
C 34.41389 15.60285 -0.02656
C 1.26982 14.98763 -0.02442
C 0.00937 12.82902 -0.00027
C 0.01381 11.59955 -0.00583
C 0.1059 8.44474 -0.02302
C 0.30637 7.14537 -0.02849
C 1.38482 6.28197 0.02931
C 1.20415 4.99011 0.00628
C 34.40545 4.27173 -0.0345
C 34.33159 2.8486 -0.00931
C 1.11234 2.17134 -0.00939
C 1.06367 0.69493 -0.00468
C 1.06621 22.02702 -0.01678
C 28.18971 4.97976 0.0101
C 1.10504 23.40776 0.01951
C 34.33604 25.57871 0.02712
C 33.32434 9.18724 -0.00069
C 32.06971 8.54505 0.04926
C 32.01321 7.09405 -0.03838
C 33.28389 6.42326 0.00349
C 33.23636 4.99079 -0.00323
C 31.98923 4.33164 -0.00841
C 31.98193 2.92003 0.0001
C 33.09903 2.17225 -0.02927
C 33.04125 0.69982 -0.01404
C 31.76185 0.03621 0.01027
C 34.12736 32.71656 0.01831
C 1.01116 32.07246 -0.01037
C 1.08186 30.62408 -0.00439
C 34.29531 29.85619 -0.00598
C 34.33788 28.42906 -0.05239
C 1.13475 27.71602 0.03076
C 1.07631 26.34762 0.00723
C 0.10575 24.38085 -0.02213
C 28.22655 6.402 -0.00669
C 27.01115 7.01335 0.03531
C 27.08544 8.47261 0.01836
C 19.63858 15.60259 0.02117
C 20.97163 14.85614 0.02737
C 20.85122 13.37525 -0.00498
C 19.67307 12.75451 0.00135
C 19.71382 11.32517 0.03102
C 20.91229 10.59393 0.02555
C 20.87979 9.15987 0.01423
C 19.69635 8.46093 -0.00285
C 19.69741 6.98146 -0.009
C 20.81711 6.27192 -0.01199
C 20.78534 4.85733 -0.00229
C 19.54504 4.1584 -0.00938
C 19.55397 2.79774 -0.0264
C 20.76841 2.04919 -0.01154
C 20.83669 0.63003 0.00684
C 19.58061 0.03434 -0.01052
C 21.98604 16.89927 -0.01679
C 19.66054 17.02584 -0.04078
C 22.17473 15.52635 0.00367
C 21.03911 17.65477 0.03005
C 17.09526 34.07339 0.00768
C 18.55223 17.72067 0.0296
C 17.22837 17.03823 0.03374
C 17.17045 15.58737 -0.02845
C 18.45192 14.77182 -0.03213
C 18.45883 13.38637 0.02239
C 17.22452 12.73393 0.01153
C 17.2148 11.31391 0.02734
C 18.51376 10.56649 -0.0055
C 18.48701 9.16386 0.01515
C 17.17229 8.47961 -0.00225
C 17.10887 7.10434 0.00071
C 18.32686 6.36701 -0.01107
C 18.37251 4.90244 -0.01586
C 17.14384 4.21636 -0.01971
C 17.08039 2.73149 -0.02118
C 18.30641 2.05634 0.00733
C 18.30647 0.66572 -0.00178
C 19.69279 32.70663 -0.0276
C 3.59367 31.95587 -0.00494
C 23.40375 14.83289 0.04306
C 22.12862 12.64111 0.00195
C 25.75004 6.38038 0.01495
C 25.69079 4.9724 0.01259
C 24.54524 4.15739 0.01799
C 24.58634 2.707 0.01699
C 25.79341 1.96828 -0.00416
C 25.74009 0.50976 0.01177
C 24.47112 34.04092 0.04266
C 27.78416 32.73944 0.01324
C 28.21129 17.65812 0.0014
C 27.12221 16.98718 0.00924
C 27.02414 15.52141 0.02326
C 28.24181 14.96142 0.00261
C 28.27051 13.44159 0.03265
C 27.07082 12.70845 -0.02049
C 27.10516 11.30374 -0.01854
C 28.37137 10.60727 -0.01415
C 28.41289 9.18718 -0.03039
C 24.51217 7.07638 0.00235
C 23.37246 13.38865 0.00996
C 24.63513 8.49127 0.01094
C 25.9542 10.56946 0.02611
C 22.15403 11.26084 -0.00802
C 23.38844 10.57488 -0.00218
C 23.35511 9.19912 -0.01654
C 22.09209 8.5053 -0.00037
C 22.07102 6.92192 -0.0032
C 23.31977 6.33692 0.00622
C 23.25831 4.86368 -0.02815
C 22.05305 4.19572 -0.00942
C 22.13613 2.81283 0.00487
C 23.32013 2.05018 0.00826
C 23.24175 0.41535 -0.00294
C 21.99885 33.94483 0.00152
C 24.5791 15.36914 0.01257
C 25.84818 14.86459 0.02316
C 25.81671 13.40811 0.04185
C 24.59159 12.6653 0.00194
C 24.67286 11.21989 -0.00621
C 25.86142 9.13291 0.02198
C 2.25757 32.72283 -0.00562
