369
Graphene
C 34.38384 0.08578 0.01295
C 13.47278 26.40076 -0.01952
C 12.31299 25.59955 -0.02813
C 12.31099 24.16166 0.00374
C 13.48726 23.41928 0.00052
C 13.50964 21.95504 -0.03682
C 12.22912 21.39569 0.01965
C 12.19947 20.03253 0.02058
C 13.37476 19.11505 -0.01957
C 12.93911 17.81914 -0.0108
C 12.28357 4.11951 -0.00368
C 12.37177 2.74094 -0.02696
C 13.56209 2.11027 -0.00114
C 13.47835 0.66503 0.00228
C 12.22493 34.0421 0.00798
C 14.75725 32.50432 0.00422
C 15.96129 31.89469 0.0351
C 15.99192 30.5209 -0.03113
C 14.77461 29.87055 0.02098
C 14.70281 28.47649 0.01848
C 13.48954 27.8132 0.05265
C 15.98634 27.68214 -0.00619
C 12.21139 28.43364 -0.01717
C 13.51494 30.54285 0.02299
C 11.03209 27.65373 0.02819
C 11.03637 26.26702 0.00165
C 9.80518 25.60382 -0.02971
C 9.81548 24.16535 0.02894
C 11.03851 23.46391 -0.01789
C 11.06369 22.0717 0.00444
C 9.85223 21.45196 -0.00925
C 9.85162 19.96107 0.01877
C 11.03397 19.18418 0.01363
C 11.27288 17.80488 -0.02162
C 9.91594 17.37322 0.00415
C 11.18805 4.80329 -0.0014
C 9.90192 4.33601 0.02162
C 9.82641 2.81134 0.0076
C 11.02101 2.06263 0.01241
C 11.08579 0.66502 -0.01454
C 9.808 34.07263 0.01945
C 12.27535 32.72271 0.01416
C 13.51138 31.95204 0.03542
C 12.18375 29.85051 0.00244
C 9.75755 28.41457 -0.00891
C 15.91953 26.25697 -0.02162
C 14.76698 24.15012 -0.00481
C 17.05962 21.18393 0.04892
C 17.14286 19.78738 -0.00111
C 18.37326 19.11232 -0.03557
C 18.39262 17.65715 0.03754
C 17.22061 16.93182 0.01739
C 18.40481 14.96506 0.00755
C 17.54256 2.58782 -0.0054
C 18.79728 1.95676 0.00667
C 18.35213 0.58318 0.00143
C 17.15199 33.91114 -0.017
C 19.61713 32.51897 0.00364
C 20.80302 31.83866 -0.00831
C 20.80036 30.45269 -0.02957
C 19.57386 29.71627 -0.04422
C 19.6314 28.30566 0.00654
C 20.85139 27.624 -0.00703
C 20.85481 26.22384 -0.04076
C 19.65399 25.49475 -0.00652
C 19.62547 24.00877 0.0058
C 18.38628 21.98877 0.01452
C 14.70292 25.57836 0.00889
C 18.43855 23.32292 -0.01581
C 17.19662 25.51171 -0.01979
C 15.93838 23.30971 0.00979
C 15.86537 22.00362 0.01443
C 14.7056 21.258 0.03505
C 14.70567 19.83238 -0.02815
C 15.84424 18.97513 -0.04147
C 16.00359 17.63859 -0.05302
C 15.8446 5.24335 0.00213
C 14.93546 4.21431 -0.00066
C 14.90028 2.8586 -0.00289
C 16.11438 2.01287 0.00028
C 15.93173 0.52342 -0.02213
C 14.75877 33.96818 0.03698
C 17.26365 32.56674 -0.00109
C 18.47395 31.83823 -0.00491
C 18.42807 30.45589 0.03338
C 17.2397 29.77751 -0.0258
C 17.1838 28.34822 -0.0331
C 18.36469 27.67808 -0.00316
C 18.48199 26.25983 0.02188
C 17.15863 24.12989 0.02691
C 9.80664 29.81676 -0.01046
C 10.97629 30.59988 -0.02689
C 11.08048 32.02396 -0.01536
C 3.66666 6.50759 -0.03337
C 3.69063 5.04268 0.01227
C 2.46434 4.39634 0.00873
C 2.4397 3.02837 -0.00049
C 3.66371 2.23008 0.00848
C 3.66536 0.74197 -0.01303
C 2.39832 0.05293 -0.01378
C 4.86084 32.73036 0.02635
C 6.11776 32.0499 0.0127
C 6.11117 30.65632 0.01396
C 4.90553 29.91006 0.01849
C 4.80386 28.49255 -0.01142
C 6.04415 27.72457 -0.00562
C 6.07281 26.36602 -0.00494
C 4.83054 25.61265 0.00054
C 4.89884 24.16994 0.03007
C 6.13015 23.52195 -0.00095
C 6.19758 22.05193 0.01572
C 4.90091 21.38059 -0.04848
C 2.42333 7.27888 -0.00966
C 4.87572 20.01493 -0.00892
C 2.50496 8.65446 -0.02929
C 3.67303 10.8154 -0.00077
C 3.66421 30.59822 0.01996
C 2.42892 29.92481 -0.03996
C 2.32416 28.53276 0.01465
C 3.56893 27.78303 -0.00074
C 3.71483 26.38772 -0.00518
C 2.49216 25.61818 0.0086
C 2.46741 24.21641 -0.00643
C 3.69383 23.50502 0.017
C 3.73055 22.102 -0.03113
C 2.45047 21.42 -0.02566
C 2.48369 20.00717 -0.00094
C 3.61452 19.24319 0.02322
C 3.72943 17.84319 -0.00725
C 2.47831 17.02638 -0.05697
C 2.52813 15.66327 0.01087
C 3.78606 15.00679 -0.01343
C 3.63397 13.59946 0.00988
C 2.36558 12.94275 0.0276
C 2.40956 11.40355 0.01305
C 3.72508 9.37273 0.03368
C 6.13281 19.31544 -0.01362
C 6.17134 17.84791 -0.0008
C 4.94247 17.14216 0.0288
C 7.32067 24.21505 0.01641
C 8.54323 23.51829 -0.00719
C 8.5676 22.14674 0.01364
C 7.38112 21.38051 -0.01062
C 7.39979 19.96439 -0.00033
C 8.70024 19.26881 0.03589
C 8.6845 17.86314 -0.02759
C 7.43764 17.16176 0.0402
C 7.47267 15.7198 0.00572
C 7.30675 8.6901 0.03592
C 7.47049 7.20465 0.00406
C 8.72001 6.45028 0.00943
C 8.6953 5.12269 0.02841
C 7.36771 4.2882 -0.01111
C 7.37536 2.81891 -0.01275
C 8.5887 2.04301 0.00985
C 8.57437 0.71323 -0.02245
C 7.38434 0.04775 -0.00428
C 9.84373 32.74148 0.03101
C 7.34879 25.62757 0.02339
C 8.62601 26.34338 -0.00334
C 8.58601 27.76797 -0.01634
C 7.27766 28.42012 0.00057
C 5.05739 15.63537 0.00393
C 6.29821 14.96442 0.00895
C 6.08983 13.54115 0.00685
C 4.8807 12.79808 0.02888
C 4.91393 11.44314 -0.00482
C 6.1424 10.8852 -0.01384
C 6.2319 9.39992 0.03693
C 4.98036 8.62764 0.01745
C 4.94288 7.20172 0.00488
C 20.88181 23.40743 -0.00865
C 6.16982 6.45734 -0.01004
C 4.90276 4.32145 -0.00131
C 4.85341 2.89756 -0.01118
C 6.11239 2.20698 -0.014
C 6.16337 0.7746 0.02147
C 4.81955 0.06384 0.00373
C 7.38119 32.72723 -0.00191
C 8.65893 31.98181 0.00438
C 8.53033 30.56357 0.01291
C 7.27202 29.90852 0.00093
C 6.22456 5.00292 -0.02896
C 3.62151 32.0266 -0.00279
C 20.87002 21.90263 0.00675
C 19.61189 19.82524 0.00742
C 30.62658 0.7617 0.00307
C 29.43261 0.09567 0.00346
C 31.83519 32.73273 0.01713
C 33.13416 32.00737 -0.01694
C 33.20678 30.61432 0.01428
C 31.98031 29.87464 -0.02142
C 31.91767 28.52206 0.0544
C 33.1093 27.70796 0.00026
C 33.1833 26.35905 0.00682
C 31.91909 25.56648 -0.01779
C 31.97203 24.14802 0.03794
C 33.19275 23.49507 0.01927
C 33.16013 22.08537 0.01574
C 31.92329 21.37657 -0.02383
C 31.93148 19.90631 -0.01429
C 33.16853 19.19805 -0.0136
C 33.24188 17.7575 0.00594
C 32.00622 17.07389 -0.02474
C 32.04481 15.62303 0.00369
C 30.59687 2.146 0.00716
C 33.182 14.90789 0.00455
C 29.35895 2.85555 0.02108
C 30.72031 4.96896 0.07705
C 29.4982 25.54392 0.03265
C 29.52895 24.10293 -0.02049
C 30.83391 23.36956 -0.01854
C 30.77324 22.02836 -0.01415
C 29.57031 21.30251 -0.03039
C 29.51629 19.89338 0.01836
C 30.74821 19.21767 0.03531
C 30.71893 17.74315 -0.00669
C 29.53631 16.96889 0.0101
C 29.5546 15.58562 0.01705
C 30.7818 14.93718 -0.0405
C 30.79854 13.4494 -0.01303
C 29.55231 12.78659 -0.01461
C 29.58224 11.37783 -0.02155
C 30.76238 10.63193 -0.00944
C 30.70141 9.26238 -0.03735
C 29.48431 8.47846 -0.00971
C 29.47563 7.11691 0.01518
C 30.68827 6.46036 0.01908
C 29.42777 4.22134 0.0103
C 30.68861 26.31059 0.00261
C 33.13939 13.45808 -0.00644
C 31.94736 11.41763 0.00137
C 34.37277 19.85694 0.01951
C 1.23368 19.20289 -0.01678
C 1.26994 17.77265 0.01223
C 0.03417 17.06493 0.00648
C 0.0236 15.64494 0.02114
C 1.23138 14.94553 -0.02957
C 1.13271 13.52594 0.00343
C 34.3867 12.73978 -0.02656
C 34.42694 11.32372 -0.02442
C 1.22077 10.66541 -0.00027
C 1.22108 9.31499 -0.00583
C 0.01608 8.53892 -0.02302
C 34.32575 7.09918 -0.02849
C 1.12649 6.49141 0.02931
C 1.18635 5.13382 0.00628
C 34.41941 4.33026 -0.0345
C 34.37899 2.88073 -0.00931
C 1.20862 2.14068 -0.00939
C 1.28047 0.80848 -0.00468
C 34.42598 21.34267 -0.02213
C 31.95976 12.76033 -0.01839
C 1.11277 22.07623 0.02712
C 34.39503 24.24198 0.03076
C 33.24786 10.64618 0.00199
C 33.19851 9.24831 0.04381
C 31.93547 8.51701 0.02806
C 31.9272 7.13701 0.01504
C 33.17338 6.34781 -0.00069
C 33.12365 4.97051 0.04926
C 31.90756 4.26606 -0.03838
C 31.80909 2.89257 0.00349
C 33.11022 2.22787 -0.00323
C 33.17703 0.78446 -0.00841
C 31.88041 0.05802 0.0001
C 34.32093 32.78014 -0.02927
C 1.12832 32.06294 -0.01404
C 1.19935 30.5472 0.01027
C 34.34166 29.81159 0.01831
C 34.35319 28.36431 -0.01037
C 1.19267 27.72707 -0.00439
C 1.24219 26.31549 -0.00598
C 34.42084 25.61274 -0.05239
C 1.17407 23.54769 0.00723
C 30.682 27.78311 0.02326
C 29.44142 28.42778 0.00924
C 29.47229 29.86362 0.0014
C 22.0609 16.95599 0.01153
C 22.05609 15.49175 0.02734
C 23.35312 14.91448 -0.0055
C 23.61275 13.50753 0.01515
C 23.1776 2.0022 -0.00225
C 23.10794 0.65494 0.00071
C 21.89998 34.05368 -0.01107
C 24.50033 32.70257 -0.01586
C 25.70962 31.93328 -0.01971
C 25.69393 30.46886 -0.02118
C 24.51959 29.84154 0.00733
C 24.61633 28.32582 -0.00178
C 25.76167 27.61524 0.00768
C 25.76944 26.12689 -0.0276
C 24.5027 25.39849 0.03005
C 24.53481 24.02318 -0.04078
C 25.74448 23.35395 0.02117
C 25.82461 21.90807 0.02737
C 24.58672 21.22727 -0.00498
C 23.31982 17.61609 0.02239
C 24.50747 19.83625 0.00135
C 23.35575 19.04666 -0.03213
C 22.17243 21.1875 0.03374
C 20.85808 19.08675 -0.01594
C 20.84608 17.76544 0.0106
C 19.65458 17.00986 -0.01154
C 19.57518 15.52079 -0.01721
C 20.8633 14.68996 -0.02422
C 20.15313 2.09593 0.01277
C 20.63208 0.77548 0.00096
C 19.45545 33.9062 -0.01527
C 22.00216 32.56872 0.01087
C 23.24209 31.95028 0.00199
C 23.27898 30.53387 0.01511
C 22.08811 29.77533 -0.00478
C 22.16538 28.27256 -0.01662
C 23.37024 27.57666 -0.01185
C 23.36106 26.09605 0.01126
C 22.08586 25.43121 0.01852
C 22.06846 24.08976 -0.00381
C 23.21863 23.33829 0.03046
C 23.34774 21.93323 0.0296
C 22.07855 19.8165 -0.02845
C 25.748 19.06789 0.03102
C 25.81527 17.70622 0.02555
C 24.58016 16.9999 0.01423
C 27.10963 15.64154 -0.00294
C 28.33861 14.93657 0.00152
C 28.31688 13.50514 0.01257
C 27.01961 12.76259 0.02316
C 27.00885 11.3083 0.04185
C 28.25199 10.62969 0.00194
C 28.12904 9.26374 -0.00621
C 26.99852 8.42834 0.02611
C 27.07736 7.12014 0.02198
C 28.20148 6.32381 0.01094
C 28.16514 4.99135 0.00235
C 26.87302 4.28273 0.01495
C 26.83127 2.9137 0.01259
C 28.09925 2.18257 0.01799
C 28.0953 0.75651 0.01699
C 26.92002 0.01775 -0.00416
C 29.37044 32.80043 0.01177
C 30.60466 32.02199 0.04266
C 30.63336 30.61254 0.01324
C 26.99315 17.04338 0.00826
C 28.34718 17.69373 0.00487
C 28.24895 19.12674 -0.00942
C 27.00506 19.80095 -0.02815
C 24.61674 15.59975 -0.00285
C 25.93454 14.92551 -0.009
C 25.90663 13.55637 -0.01199
C 24.6883 12.8442 -0.00229
C 24.41013 2.64916 -0.00938
C 25.6285 2.19649 -0.0264
C 25.66715 0.76029 -0.01154
C 24.40714 0.02385 0.00684
C 26.87732 32.74709 -0.01052
C 19.6623 21.28039 -0.00311
C 28.17264 32.0521 -0.01679
C 26.99788 29.78815 0.04306
C 27.03611 28.35263 0.00996
C 28.27008 27.59019 0.00195
C 28.23538 26.19126 -0.00802
C 27.03092 25.46079 -0.00218
C 27.00427 24.03161 -0.01654
C 28.21845 23.43699 -0.00037
C 28.28307 21.95084 -0.0032
C 27.10359 21.22018 0.00622
C 28.15401 30.5876 0.00367
C 2.33651 32.67228 0.01226
