378
Graphene
C 34.31602 0.04542 0.01295
C 12.30348 7.18455 0.01416
C 13.62463 6.45095 0.03542
C 13.49702 5.00632 0.02299
C 12.24258 4.41545 0.00244
C 12.22806 2.93501 -0.01717
C 13.43756 2.19679 0.05265
C 13.49914 0.78526 -0.01952
C 12.25445 0.01886 -0.02813
C 14.71758 32.68399 0.00374
C 15.9897 31.93496 0.00052
C 15.97166 30.47011 -0.03682
C 14.82059 29.66829 0.01965
C 15.18241 28.31573 0.02058
C 16.08858 16.27532 -0.01957
C 14.92418 7.0492 -0.0108
C 16.08845 6.34741 -0.00368
C 15.94748 4.90425 -0.02696
C 14.71821 4.22136 -0.00114
C 14.64407 2.87859 0.00228
C 11.86575 16.75507 0.01945
C 12.19845 28.34364 -0.01454
C 12.30191 29.76376 0.01241
C 13.53122 30.37238 0.0076
C 9.86309 29.87957 -0.02245
C 9.76369 28.44193 -0.00428
C 10.96399 27.74893 0.03101
C 9.86668 25.74306 -0.01536
C 9.71667 24.32724 -0.02689
C 9.92126 21.48947 -0.01046
C 9.92657 20.04826 -0.00891
C 11.07221 19.26484 0.02819
C 11.32302 17.97326 0.00165
C 15.92444 2.05609 0.00798
C 10.05465 17.07471 -0.02971
C 11.06072 6.67033 -0.01789
C 11.08967 5.11367 0.00444
C 9.85852 4.31178 -0.00925
C 9.79312 2.89585 0.01877
C 11.10069 2.1948 0.01363
C 11.01802 0.64819 -0.02162
C 9.7399 0.06688 0.00415
C 12.31928 32.64456 -0.0014
C 13.43704 31.87966 0.02162
C 9.70851 7.24888 0.02894
C 11.047 30.53711 0.00985
C 15.90081 0.69358 0.00422
C 17.19051 32.57526 -0.03113
C 19.66257 29.76744 0.02188
C 19.59899 28.40364 -0.01979
C 20.81585 27.70403 0.02691
C 20.86065 26.23824 -0.01581
C 20.99265 23.31646 0.01452
C 20.9178 22.03487 0.04892
C 20.77901 19.01086 -0.00111
C 20.85469 17.68042 -0.03557
C 19.4046 16.87053 0.03754
C 19.46823 15.46507 0.01739
C 20.79015 14.83279 0.00755
C 20.85655 13.41644 -0.0054
C 19.56466 12.78987 0.00667
C 19.55907 11.2813 0.00143
C 20.84705 10.50553 -0.017
C 20.7534 9.11288 0.00364
C 19.58368 8.39246 -0.00831
C 19.73301 6.99558 -0.02957
C 19.84302 2.43857 -0.04422
C 20.91234 30.55953 -0.00316
C 20.91421 31.9517 -0.0331
C 19.63216 32.62699 -0.0258
C 17.12084 34.00605 0.03338
C 18.34457 31.92524 0.02098
C 18.38416 30.4676 0.01848
C 17.18176 29.75853 -0.00619
C 17.11656 28.40267 -0.02162
C 18.35387 27.85617 0.00889
C 18.19242 17.57847 -0.00481
C 17.16281 17.31088 0.00979
C 17.0799 15.47794 0.01443
C 18.16545 14.75738 0.03505
C 14.69448 34.01152 0.0351
C 18.36642 13.37 -0.02815
C 18.20973 9.24019 -0.05302
C 17.15712 8.33634 0.00213
C 17.46306 6.92626 -0.00066
C 18.67186 6.18866 -0.00289
C 18.46403 4.74105 0.00028
C 17.19591 4.1161 -0.02213
C 17.15482 2.7499 0.03698
C 18.44928 2.1013 -0.00109
C 18.34292 0.64318 -0.00491
C 18.27372 10.65937 -0.04147
C 11.05981 32.00306 -0.01275
C 9.83475 32.73476 -0.01111
C 7.29793 0.05526 0.02841
C 3.70106 5.00125 -0.01343
C 2.41957 4.35275 0.00988
C 2.43476 2.8609 0.0276
C 3.68461 2.2006 0.01305
C 3.58843 0.74695 -0.00077
C 2.35478 0.10479 0.03368
C 4.87739 32.76203 -0.02929
C 6.1244 32.02366 -0.00966
C 6.12247 30.58924 -0.03337
C 4.86645 29.95436 0.01227
C 4.89025 28.49184 0.00873
C 6.06647 27.79824 -0.00049
C 6.09801 26.32665 0.00848
C 4.93629 25.57663 -0.01303
C 4.97773 24.24043 -0.01378
C 6.21438 23.46492 0.02635
C 6.13691 22.14483 0.0127
C 4.92344 21.45348 0.01396
C 4.87628 19.96283 0.01849
C 3.74766 6.44634 0.01087
C 2.42132 7.199 -0.05697
C 2.43593 8.56326 -0.00725
C 3.68897 9.2535 0.02322
C 3.60177 30.69329 -0.01509
C 2.44546 29.90072 0.03267
C 2.47091 28.49941 0.02374
C 3.71292 27.66993 0.00402
C 3.70404 26.2929 0.0073
C 2.42006 25.64536 0.0174
C 2.47696 24.16813 0.03828
C 3.76686 23.5898 0.01226
C 3.68674 22.18164 -0.00279
C 6.11072 19.27515 -0.01142
C 2.54656 21.32454 0.01996
C 3.63837 19.22495 0.01465
C 3.7272 17.80581 -0.00074
C 2.43445 17.04965 -0.00518
C 2.41262 15.61822 0.0086
C 3.69187 14.98236 -0.00643
C 3.61553 13.59931 0.017
C 2.44227 12.82479 -0.03113
C 2.48099 11.45843 -0.02566
C 3.70081 10.73889 -0.00094
C 2.42469 19.95271 -0.03996
C 6.29901 17.83411 -0.00562
C 4.95077 17.09309 -0.00494
C 4.99089 15.68032 0.00054
C 8.56153 23.59406 -0.00191
C 8.65026 22.07419 0.00438
C 7.42335 21.37961 0.01291
C 7.42309 19.93179 0.00093
C 8.73267 19.31759 0.00057
C 8.81733 17.82519 -0.01634
C 7.56866 17.16821 -0.00334
C 7.53011 15.64903 0.02339
C 8.56839 14.7539 0.01641
C 7.34606 24.27144 0.00373
C 7.44941 12.85452 -0.00719
C 8.58137 9.46611 -0.01062
C 7.47632 8.62991 -0.00033
C 7.31705 7.21416 0.03589
C 8.61738 6.4959 -0.02759
C 8.65016 5.08385 0.0402
C 7.35629 4.35932 0.00572
C 7.34741 2.96434 0.03592
C 8.56433 2.21498 0.00406
C 8.56834 0.75243 0.00943
C 7.46615 11.45258 0.01364
C 20.64723 0.90593 0.00654
C 7.30322 25.62877 0.02147
C 8.56334 27.74556 -0.01118
C 6.28377 14.94386 0.03007
C 6.15083 13.58643 -0.00095
C 4.91357 12.84557 0.01572
C 4.96548 11.41271 -0.04848
C 6.18248 10.7244 -0.00892
C 6.16188 9.29661 -0.01362
C 4.85675 8.53085 -0.0008
C 4.87736 7.17513 0.0288
C 6.11178 6.49546 0.00393
C 8.61315 26.34423 -0.014
C 6.14696 5.00576 0.00895
C 4.87199 2.92585 0.02888
C 6.18019 2.20423 -0.00482
C 6.10199 0.74017 -0.01384
C 4.83248 0.14215 0.03693
C 7.35669 32.67329 0.01745
C 8.66822 32.02434 0.00488
C 8.56199 30.60724 -0.01004
C 7.27869 29.88039 -0.02896
C 7.24927 28.56239 -0.00131
C 4.89697 4.30769 0.00685
C 19.57296 34.07088 -0.00703
C 22.054 32.72759 -0.04076
C 23.26145 31.93521 -0.00652
C 29.42432 2.87596 0.02108
C 30.71303 2.10256 0.00716
C 30.64874 0.71583 0.00307
C 29.39337 0.00261 0.00346
C 31.84861 32.67356 0.01713
C 33.10126 31.94927 -0.01694
C 33.1122 30.58157 0.01428
C 31.93284 29.85432 -0.02142
C 32.04543 28.4394 0.0544
C 33.21974 27.7372 0.00026
C 33.15503 26.2994 0.00682
C 31.99251 25.61113 -0.01779
C 31.98685 24.16542 0.03794
C 33.19786 23.44385 0.01927
C 33.26278 21.98772 0.01574
C 31.91695 21.33449 -0.02383
C 31.86892 19.91722 -0.01429
C 33.1003 19.2557 -0.0136
C 33.12335 17.81938 0.00594
C 29.36537 4.27656 0.0103
C 30.60843 4.98383 0.07705
C 30.76344 6.42867 0.01908
C 29.4706 7.0721 0.01518
C 29.46643 28.45653 0.00924
C 30.70656 27.71678 0.02326
C 30.69911 26.32549 0.00261
C 29.46954 25.5299 0.03265
C 29.46395 24.07658 -0.02049
C 30.75656 23.49697 -0.01854
C 30.69657 22.10581 -0.01415
C 29.44245 21.30558 -0.03039
C 29.3749 19.90187 0.01836
C 31.94999 17.11558 -0.02474
C 30.66465 19.1718 0.03531
C 29.51816 17.04122 0.0101
C 29.53672 15.57016 0.01705
C 30.75775 14.90296 -0.0405
C 30.69138 13.50558 -0.01303
C 29.45532 12.77175 -0.01461
C 29.52643 11.32866 -0.02155
C 30.73994 10.68169 -0.00944
C 30.70354 9.29475 -0.03735
C 29.47794 8.47443 -0.00971
C 30.64455 17.79051 -0.00669
C 31.98624 15.66973 0.00369
C 33.14051 14.92106 0.00455
C 33.12547 13.48407 -0.00644
C 0.00764 21.29583 -0.02213
C 34.39144 19.84775 0.01951
C 1.23505 19.25851 -0.01678
C 1.15871 17.83313 0.01223
C 34.4255 17.1145 0.00648
C 34.41218 15.68481 0.02114
C 1.19956 14.89176 -0.02957
C 1.21575 13.51042 0.00343
C 34.38011 12.83641 -0.02656
C 1.20591 22.01968 0.02712
C 34.39093 11.35852 -0.02442
C 1.27509 9.27575 -0.00583
C 34.37094 8.48308 -0.02302
C 34.36425 7.12382 -0.02849
C 1.23129 6.43252 0.02931
C 1.20414 5.01807 0.00628
C 34.3506 4.29118 -0.0345
C 34.41702 2.90505 -0.00931
C 1.1971 2.09958 -0.00939
C 1.11982 0.75311 -0.00468
C 1.26968 10.75289 -0.00027
C 29.49952 29.9115 0.0014
C 1.19304 23.39134 0.00723
C 34.37593 25.62561 -0.05239
C 31.91952 12.75832 -0.01839
C 31.9728 11.41724 0.00137
C 33.21842 10.69479 0.00199
C 33.19649 9.25636 0.04381
C 31.94343 8.5109 0.02806
C 31.93812 7.15358 0.01504
C 33.13876 6.39548 -0.00069
C 33.15045 4.97208 0.04926
C 31.87358 4.2578 -0.03838
C 34.36303 24.15042 0.03076
C 31.97477 2.82741 0.00349
C 33.11406 0.71167 -0.00841
C 31.90879 0.01106 0.0001
C 34.32407 32.71038 -0.02927
C 1.168 32.00501 -0.01404
C 1.18041 30.58377 0.01027
C 34.38894 29.86079 0.01831
C 34.42321 28.46504 -0.01037
C 1.1775 27.72425 -0.00439
C 1.16409 26.39995 -0.00598
C 33.20169 2.13265 -0.00323
C 3.68586 32.10927 0.00643
C 30.6705 30.5883 0.01324
C 29.3676 32.71698 0.01177
C 23.22379 2.22526 0.03374
C 23.20574 0.83108 -0.02845
C 21.90301 0.12308 -0.03213
C 24.44504 32.71638 0.02239
C 25.70427 31.87968 0.01153
C 25.76297 30.46596 0.02734
C 24.56438 29.78828 -0.0055
C 24.58825 28.38236 0.01515
C 25.84084 27.72175 -0.00225
C 25.82919 26.31986 0.00071
C 24.55139 25.58701 -0.01107
C 24.56181 24.10208 -0.01586
C 25.78231 23.3729 -0.01971
C 25.76491 21.94999 -0.02118
C 24.50096 21.26297 0.00733
C 24.58512 19.8831 -0.00178
C 25.85452 19.16007 0.00768
C 25.82415 17.68137 -0.0276
C 24.5229 16.99007 0.03005
C 23.32541 6.09337 0.0296
C 21.96398 6.88024 0.03046
C 22.0727 8.30806 -0.00381
C 23.2664 9.14919 0.01852
C 23.34545 30.55074 0.0058
C 22.10532 29.82545 -0.00865
C 22.14034 28.37185 0.00675
C 23.37526 27.68849 -0.00311
C 23.2935 26.30427 0.00742
C 22.04961 25.5538 -0.01594
C 22.15954 24.17153 0.0106
C 23.3874 23.34776 -0.01154
C 23.31531 21.92311 -0.01721
C 24.46624 15.674 -0.04078
C 21.99788 21.23384 -0.02422
C 23.29898 19.11962 0.00096
C 23.33688 17.68831 -0.01527
C 22.12892 16.98634 0.01087
C 22.05055 15.58951 0.00199
C 23.2479 14.878 0.01511
C 23.30619 13.40723 -0.00478
C 22.07822 12.69399 -0.01662
C 22.09638 11.24162 -0.01185
C 23.32328 10.54038 0.01126
C 22.016 19.72343 0.01277
C 25.75719 14.8659 0.02117
C 25.76006 13.49318 0.02737
C 24.53731 12.72309 -0.00498
C 27.07655 19.84464 -0.02815
C 28.26119 19.07314 -0.00942
C 28.30093 17.68306 0.00487
C 27.03375 16.92503 0.00826
C 27.06604 15.54304 -0.00294
C 28.23403 14.908 0.00152
C 28.23713 13.45386 0.01257
C 27.06802 12.63225 0.02316
C 26.95325 11.28627 0.04185
C 27.02434 21.2751 0.00622
C 28.21961 10.61001 0.00194
C 27.02599 8.47544 0.02611
C 27.00433 7.05455 0.02198
C 28.17085 6.34336 0.01094
C 28.17735 4.98275 0.00235
C 26.8204 4.21603 0.01495
C 26.90643 2.80268 0.01259
C 28.08323 2.13763 0.01799
C 28.09543 0.74487 0.01699
C 26.91972 0.08801 -0.00416
C 28.31502 9.21436 -0.00621
C 30.68217 31.99064 0.04266
C 28.25801 21.99191 -0.0032
C 27.04969 24.10308 -0.01654
C 24.56273 11.33337 0.00135
C 25.70786 10.57775 0.03102
C 25.76435 9.11068 0.02555
C 24.50842 8.41892 0.01423
C 24.48151 6.99494 -0.00285
C 25.77645 6.46706 -0.009
C 25.70227 5.06084 -0.01199
C 24.2239 4.68517 -0.00229
C 24.39453 2.9505 -0.00938
C 28.2616 23.39045 -0.00037
C 25.66575 2.15322 -0.0264
C 24.39257 0.06447 0.00684
C 26.85066 32.68618 -0.01052
C 28.2109 31.98468 -0.01679
C 28.24089 30.57164 0.00367
C 27.04245 29.80049 0.04306
C 27.01041 28.38808 0.00996
C 28.30491 27.65547 0.00195
C 28.29149 26.24423 -0.00802
C 27.05734 25.47866 -0.00218
C 25.61937 0.77707 -0.01154
C 2.41403 32.71207 0.00907
