408
Graphene
C 34.38609 0.03677 0.01295
C 13.31951 30.63345 -0.01536
C 12.13013 29.90378 -0.02689
C 12.18261 28.41818 -0.01046
C 13.42676 27.67768 -0.00891
C 13.41607 26.19702 0.02819
C 12.19958 25.51956 0.00165
C 12.30063 24.09583 -0.02971
C 13.54302 23.44718 0.02894
C 13.5799 22.02298 -0.01789
C 12.3121 21.35384 0.00444
C 12.24032 19.90558 -0.00925
C 13.46819 19.16434 0.01877
C 13.49092 17.70385 0.01363
C 12.26965 17.07578 -0.02162
C 12.28264 15.60146 0.00415
C 13.53956 15.00434 -0.0014
C 13.49691 13.5725 0.02162
C 12.32456 12.87237 0.0076
C 12.3022 11.37225 0.01241
C 13.53297 10.64005 -0.01454
C 13.61746 9.19965 0.01945
C 13.42401 32.00323 0.03101
C 12.19197 32.70277 -0.00428
C 9.76201 0.08732 -0.02245
C 10.98702 0.84216 0.00985
C 9.82398 24.20322 0.00438
C 11.07212 23.39343 0.01291
C 11.09382 22.05528 0.00093
C 9.8941 21.3275 0.00057
C 9.77218 19.87624 -0.01634
C 10.97223 19.19292 -0.00334
C 11.06866 17.72149 0.02339
C 9.81913 17.04832 0.01641
C 9.75845 15.62936 -0.00719
C 11.02195 14.98095 0.01364
C 12.37872 8.54115 0.01416
C 11.02488 13.53003 -0.01062
C 9.83774 11.34064 0.03589
C 11.12052 10.70105 -0.02759
C 11.08854 9.26223 0.0402
C 9.85751 8.61548 0.00572
C 9.90932 7.15893 0.03592
C 11.07896 6.46816 0.00406
C 11.0723 5.03171 0.00943
C 9.79681 4.31255 0.02841
C 9.81307 2.92284 -0.01111
C 11.07547 2.20494 -0.01275
C 9.83415 12.81567 -0.00033
C 9.7995 25.57369 -0.00191
C 12.3869 7.12615 0.03542
C 13.59825 4.97084 0.00244
C 16.06641 10.72092 0.01443
C 16.15025 9.26324 0.03505
C 14.87664 8.58289 -0.02815
C 14.80781 7.09911 -0.04147
C 16.02526 6.32771 -0.05302
C 16.07116 4.89759 0.00213
C 14.83352 4.25941 -0.00066
C 14.7785 2.80583 -0.00289
C 16.01361 2.17356 0.00028
C 15.87563 0.73079 -0.02213
C 14.67644 0.08163 0.03698
C 17.14197 32.67195 -0.00109
C 18.43413 31.95434 -0.00491
C 18.48457 30.52978 0.03338
C 17.18701 29.7964 -0.0258
C 17.13294 28.36235 -0.0331
C 18.39566 27.607 -0.00316
C 18.38463 26.19297 0.02188
C 17.10866 25.55719 -0.01979
C 17.18202 24.06302 0.02691
C 18.40894 23.39512 -0.01581
C 14.76538 11.36264 0.00979
C 14.74996 12.74738 -0.00481
C 15.88609 13.47048 0.00889
C 15.96604 14.84504 -0.02162
C 12.3403 4.31241 -0.01717
C 12.22753 2.91204 0.05265
C 13.49071 2.15647 -0.01952
C 13.49534 0.73362 -0.02813
C 12.21149 0.12373 0.00374
C 14.65285 32.74919 0.00052
C 15.83847 31.95301 -0.03682
C 15.84965 30.54406 0.01965
C 14.59342 29.87867 0.02058
C 14.65289 28.39114 -0.01957
C 13.5402 6.38031 0.02299
C 15.89054 27.68175 -0.0108
C 14.67813 25.64245 -0.02696
C 14.77826 24.22105 -0.00114
C 15.97525 23.3868 0.00228
C 16.0274 22.00648 0.00798
C 14.78033 21.25454 0.00422
C 14.76105 19.87995 0.0351
C 16.09292 19.08932 -0.03113
C 16.06313 17.57002 0.02098
C 14.77053 17.05065 0.01848
C 14.78657 15.65313 -0.00619
C 15.86783 26.24496 -0.00368
C 18.45301 21.97865 0.01452
C 11.0096 26.26674 0.00373
C 9.77774 28.46062 -0.014
C 2.46734 2.83512 0.01402
C 3.64452 2.16666 0.02379
C 3.61562 0.70652 0.00907
C 2.36976 0.06709 0.00643
C 4.86073 32.7068 -0.01509
C 6.07768 32.00571 0.03267
C 6.05687 30.56914 0.02374
C 4.79153 29.83577 0.00402
C 4.76871 28.395 0.0073
C 6.07095 27.72263 0.0174
C 6.12397 26.34175 0.03828
C 4.87762 25.64463 0.01226
C 4.84568 24.18163 -0.00279
C 6.02572 23.4975 0.01996
C 6.1279 22.08949 -0.03996
C 4.90747 21.33912 0.01465
C 4.91803 19.90028 -0.00074
C 6.13218 19.20527 -0.00518
C 6.07871 17.8129 0.0086
C 4.86001 17.1583 -0.00643
C 4.83901 15.65668 0.017
C 2.434 4.21286 -0.003
C 3.58481 5.03379 0.00031
C 3.71654 6.50589 0.03189
C 2.4654 7.15016 -0.04307
C 3.60349 30.62284 0.00558
C 2.44538 29.77002 -0.0059
C 2.36196 28.37966 -0.01386
C 3.62055 27.60872 -0.02805
C 3.61908 26.2101 0.00081
C 2.41645 25.56914 0.00245
C 2.41131 24.2438 0.02728
C 3.61436 23.49912 -0.00039
C 3.62422 22.06025 0.0064
C 2.37284 21.23864 0.00211
C 6.10172 15.02518 -0.03113
C 2.40183 19.88022 -0.00449
C 3.60398 17.8214 0.02784
C 2.38482 17.05212 -0.01977
C 2.42194 15.62911 -0.00561
C 3.64046 14.89748 0.00208
C 3.68253 13.44713 0.01707
C 2.35009 12.76874 0.02769
C 2.3563 11.43431 -0.03291
C 3.64485 10.72666 -0.04999
C 3.69522 9.31681 0.04505
C 2.46071 8.59835 0.03284
C 3.65249 19.26397 -0.01979
C 10.99182 27.74702 0.02147
C 6.14176 13.60352 -0.02566
C 4.96326 11.4291 0.02322
C 7.43636 17.16261 0.03007
C 7.3826 15.7087 -0.00095
C 8.62853 14.94557 0.01572
C 8.6238 13.55383 -0.04848
C 7.34767 12.86606 -0.00892
C 7.33928 11.41087 -0.01362
C 8.5741 10.59963 -0.0008
C 8.56208 9.22392 0.0288
C 7.31722 8.55591 0.00393
C 7.4201 7.15183 0.00895
C 8.64169 6.4775 0.00685
C 8.53608 5.07072 0.02888
C 7.33126 4.35103 -0.00482
C 7.39517 2.9315 -0.01384
C 8.61612 2.16883 0.03693
C 8.50741 0.80705 0.01745
C 7.32915 0.0925 0.00488
C 9.77867 32.75676 -0.01004
C 10.97446 31.97965 -0.02896
C 10.86016 30.55831 -0.00131
C 9.64345 29.87141 -0.01118
C 8.62219 17.81089 0.00054
C 8.61168 19.23657 -0.00494
C 7.37686 19.91693 -0.00562
C 7.33918 21.31773 -0.01142
C 6.12356 10.70286 -0.00725
C 6.13752 9.29198 -0.05697
C 4.93372 8.58822 0.01087
C 4.89742 7.21544 -0.01343
C 6.16753 6.49575 0.00988
C 6.07883 4.97237 0.0276
C 4.81279 4.35645 0.01305
C 4.79595 2.9195 -0.00077
C 6.06742 2.26694 0.03368
C 6.06244 0.87689 -0.02929
C 4.97029 12.78138 -0.00094
C 4.88641 0.10144 -0.00966
C 8.45798 32.10418 0.01227
C 8.46701 30.66446 0.00873
C 7.30299 29.91638 -0.00049
C 7.29971 28.50636 0.00848
C 8.48928 27.77065 -0.01303
C 8.60956 26.28092 -0.01378
C 7.34616 25.63357 0.02635
C 7.32962 24.17382 0.0127
C 8.62563 23.53922 0.01396
C 8.62845 22.01812 0.01849
C 7.27694 32.80234 -0.03337
C 17.26506 21.24667 0.04892
C 17.26337 19.81579 -0.00111
C 18.57645 19.04994 -0.03557
C 29.61197 8.40334 -0.00971
C 29.51923 6.95313 0.01518
C 30.71398 6.27714 0.01908
C 30.72166 4.90209 0.07705
C 29.544 4.21615 0.0103
C 29.5213 2.77109 0.02108
C 30.7863 2.05916 0.00716
C 30.77237 0.68272 0.00307
C 29.54816 0.02147 0.00346
C 31.95283 32.65767 0.01713
C 33.12231 31.94426 -0.01694
C 33.07851 30.54764 0.01428
C 31.93093 29.80526 -0.02142
C 31.97325 28.39208 0.0544
C 33.17057 27.63031 0.00026
C 33.17529 26.23977 0.00682
C 31.90993 25.60905 -0.01779
C 31.94077 24.2266 0.03794
C 33.09108 23.39985 0.01927
C 33.12443 22.01414 0.01574
C 31.92374 21.22398 -0.02383
C 30.75498 9.18519 -0.03735
C 30.66281 10.63655 -0.00944
C 29.32273 11.2533 -0.02155
C 29.45851 12.56001 -0.01461
C 27.07289 4.27205 0.01799
C 27.04153 2.8645 0.01699
C 28.28881 2.07484 -0.00416
C 28.29285 0.70763 0.01177
C 27.05903 34.02289 0.04266
C 29.48577 32.64991 0.01324
C 30.70131 31.92192 0.0014
C 30.69212 30.49339 0.00924
C 29.42781 29.78643 0.02326
C 29.42485 28.37791 0.00261
C 31.86149 19.84862 -0.01429
C 30.68968 27.70552 0.03265
C 29.39757 25.51748 -0.01854
C 29.43632 24.13913 -0.01415
C 30.64961 23.46728 -0.03039
C 30.78006 22.08807 0.01836
C 29.49306 21.30069 0.03531
C 29.37597 19.89341 -0.00669
C 30.49163 19.09958 0.0101
C 30.74456 17.74491 0.01705
C 30.59681 14.97504 -0.0405
C 30.54163 13.54289 -0.01303
C 30.6445 26.25872 -0.02049
C 28.30811 4.90661 0.01259
C 33.12391 19.20741 -0.0136
C 31.97572 17.04253 -0.02474
C 1.23699 22.0097 0.02712
C 34.42067 21.3315 -0.02213
C 34.38639 19.92674 0.01951
C 1.1571 19.1744 -0.01678
C 1.11276 17.77609 0.01223
C 34.36669 17.02852 0.00648
C 34.3757 15.55841 0.02114
C 1.1642 14.97329 -0.02957
C 1.13503 13.55602 0.00343
C 34.37825 12.86171 -0.02656
C 34.35435 11.3713 -0.02442
C 1.1449 10.60665 -0.00027
C 1.18181 9.2504 -0.00583
C 0.01711 8.4787 -0.02302
C 34.41826 7.00376 -0.02849
C 1.26173 6.37107 0.02931
C 1.22361 4.94505 0.00628
C 0.03322 4.25203 -0.0345
C 34.40495 2.86366 -0.00931
C 1.15232 2.15339 -0.00939
C 1.18141 0.78697 -0.00468
C 1.30064 23.42881 0.00723
C 34.43069 24.11439 0.03076
C 34.33752 25.5172 -0.05239
C 1.15559 26.20817 -0.00598
C 31.93962 15.5671 0.00369
C 33.16802 14.85348 0.00455
C 33.09534 13.47705 -0.00644
C 31.91429 12.76233 -0.01839
C 31.83833 11.39513 0.00137
C 33.11679 10.65624 0.00199
C 33.23909 9.19943 0.04381
C 31.93288 8.60924 0.02806
C 31.95258 7.07711 0.01504
C 33.17339 6.36141 -0.00069
C 33.19978 17.80262 0.00594
C 33.26778 4.9445 0.04926
C 31.98158 2.80497 0.00349
C 33.2209 2.11056 -0.00323
C 33.20157 0.73101 -0.00841
C 32.00801 34.06932 0.0001
C 34.3698 32.62901 -0.02927
C 1.11924 31.89547 -0.01404
C 1.20395 30.4822 0.01027
C 34.34826 29.87869 0.01831
C 34.33966 28.41544 -0.01037
C 1.10601 27.73698 -0.00439
C 31.99301 4.27071 -0.03838
C 28.26289 6.30798 0.01495
C 27.02914 7.03698 0.00235
C 27.0449 8.44317 0.01094
C 20.91965 23.33799 0.00096
C 20.88292 21.93372 -0.01527
C 19.66829 21.25944 0.01087
C 19.76536 19.84038 0.00199
C 19.72602 11.29112 0.01511
C 20.87038 10.59825 -0.00478
C 20.90422 9.25478 -0.01662
C 19.6959 8.5228 -0.01185
C 19.73006 7.12791 0.01126
C 20.97286 6.42894 0.01852
C 20.97696 5.03348 -0.00381
C 19.74188 4.24589 0.03046
C 19.67519 2.77918 0.0296
C 20.96208 2.08584 0.03374
C 20.91787 0.64498 -0.02845
C 19.70295 0.02052 -0.03213
C 22.12283 32.52605 0.02239
C 23.30932 31.8333 0.01153
C 23.3365 30.43408 0.02734
C 22.11586 29.73825 -0.0055
C 22.07477 28.31576 0.01515
C 19.62616 24.02106 0.01277
C 19.65143 25.40313 -0.02422
C 20.76318 26.19126 -0.01721
C 20.81281 27.60513 -0.01154
C 18.29771 17.70866 0.03754
C 17.2711 16.73879 0.01739
C 17.33874 15.2074 0.00755
C 18.13373 14.20028 -0.0054
C 17.24019 12.99485 0.00667
C 17.31919 11.5369 0.00143
C 18.53017 10.75112 -0.017
C 18.49719 9.20267 0.00364
C 17.26604 8.49477 -0.00831
C 17.22617 7.1014 -0.02957
C 23.29513 27.63557 -0.00225
C 18.47905 6.46067 -0.04422
C 17.32047 4.22148 -0.00703
C 17.28602 2.76862 -0.04076
C 18.45497 2.10612 -0.00652
C 18.45504 0.7226 0.0058
C 17.15633 34.05421 -0.00865
C 19.567 32.67344 0.00675
C 20.86691 31.94421 -0.00311
C 20.87095 30.49638 0.00742
C 19.62666 29.88272 -0.01594
C 19.55595 28.41827 0.0106
C 18.50366 5.03022 0.00654
C 23.30115 26.22204 0.00071
C 22.0542 25.54577 -0.01107
C 22.03966 24.09776 -0.01586
C 24.67351 7.24316 0.04306
C 25.82912 6.44904 0.00996
C 25.79511 5.01025 0.00195
C 24.58968 4.24531 -0.00802
C 24.65551 2.84743 -0.00218
C 25.83526 2.12825 -0.01654
C 25.88391 0.76091 -0.00037
C 24.64972 33.99906 -0.0032
C 27.06296 32.64282 0.00622
C 28.26894 31.93794 -0.02815
C 24.73726 8.78087 0.00367
C 28.24067 30.52276 -0.00942
C 26.98549 28.32705 0.00826
C 28.2008 27.63671 -0.00294
C 28.22555 26.30072 0.00152
C 27.0121 25.50602 0.01257
C 26.99146 24.1292 0.02316
C 28.19871 23.45014 0.04185
C 28.20299 22.05802 0.00194
C 27.00384 21.40128 -0.00621
C 28.02329 10.44452 0.02611
C 28.29364 9.03571 0.02198
C 27.02096 29.7719 0.00487
C 3.555 31.9908 -0.02375
C 25.95615 9.26733 -0.01679
C 25.75797 23.37062 0.00684
C 23.3601 23.3119 -0.01971
C 23.33899 21.91372 -0.02118
C 22.12739 21.28739 0.00733
C 23.30491 9.35665 -0.00178
C 22.15898 8.58752 0.00768
C 22.23632 7.01854 -0.0276
C 23.50946 6.40893 0.03005
C 23.46737 5.01667 -0.04078
C 22.19143 4.30833 0.02117
C 22.20199 2.87099 0.02737
C 25.83528 22.04957 -0.01052
C 23.39469 2.06462 -0.00498
C 22.15219 34.03635 0.03102
C 24.62631 32.635 0.02555
C 25.85104 31.91877 0.01423
C 25.78597 30.49621 -0.00285
C 24.50382 29.73176 -0.009
C 24.46935 28.37402 -0.01199
C 25.78435 27.59356 -0.00229
C 25.8045 26.21424 -0.00938
C 24.58202 25.53817 -0.0264
C 24.51215 24.10431 -0.01154
C 23.40311 0.64015 0.00135
C 2.31368 32.68306 0.00828
