335
Graphene
C 34.4134 0.01874 0.01295
C 13.41687 31.89696 0.00979
C 13.64716 30.43687 0.01443
C 12.35203 29.85507 0.03505
C 12.30397 28.45168 -0.02815
C 13.46958 27.65859 -0.04147
C 13.55316 10.68342 -0.05302
C 13.63552 9.34244 0.00213
C 12.35657 8.55856 -0.00066
C 12.33937 7.18857 -0.00289
C 13.53236 6.42648 0.00028
C 13.42953 4.98337 -0.02213
C 12.28009 4.27176 0.03698
C 12.33033 2.85177 -0.00109
C 13.53249 2.19101 -0.00491
C 13.6052 0.68943 0.03338
C 12.34179 34.03574 -0.0258
C 14.70906 32.63544 -0.0331
C 12.29394 32.61503 -0.00481
C 15.95963 31.90465 -0.00316
C 9.9104 0.06595 0.00889
C 11.12559 2.1491 -0.00619
C 9.86969 32.76364 0.00374
C 11.03563 31.96738 0.00052
C 11.09302 30.58441 -0.03682
C 9.74044 29.91879 0.01965
C 9.72839 28.49901 0.02058
C 11.07021 27.78026 -0.01957
C 11.00321 26.43461 -0.0108
C 9.84344 25.82118 -0.00368
C 9.93382 11.33301 -0.02696
C 11.00899 10.55334 -0.00114
C 11.07449 9.16531 0.00228
C 9.8316 8.55523 0.00798
C 9.82775 7.10678 0.00422
C 11.03455 6.49247 0.0351
C 11.08762 5.01339 -0.03113
C 9.83896 4.3131 0.02098
C 9.76146 2.90812 0.01848
C 11.15337 0.75161 -0.02162
C 7.34113 0.11441 -0.02813
C 16.05594 30.4855 0.02188
C 14.80157 28.21069 0.02691
C 18.39298 6.50926 -0.00865
C 18.41722 5.05045 0.00675
C 17.32111 4.23625 -0.00311
C 17.20535 2.80925 0.00742
C 18.45331 2.06777 -0.01594
C 18.40382 0.66034 0.0106
C 17.17311 34.0694 -0.01154
C 19.62341 32.67557 -0.01721
C 20.83985 31.90597 -0.02422
C 20.82391 30.53649 0.01277
C 19.60747 29.68842 0.00096
C 19.55012 28.25985 -0.01527
C 21.03067 13.32334 0.01087
C 19.80447 11.38232 0.00199
C 21.08263 10.6397 0.01511
C 20.8978 9.24645 -0.00478
C 19.60726 8.60812 -0.01662
C 17.19459 7.27606 0.0058
C 14.8229 29.74833 -0.01979
C 17.2149 8.70353 -0.00652
C 18.60484 10.96433 -0.00703
C 16.2156 27.65364 -0.01581
C 15.74726 10.67497 0.01452
C 15.95891 9.38466 0.04892
C 14.76353 8.51336 -0.00111
C 14.76819 7.11803 -0.03557
C 16.00205 6.49353 0.03754
C 16.02354 5.00658 0.01739
C 14.67167 4.29682 0.00755
C 14.71801 2.8195 -0.0054
C 15.93203 2.11782 0.00667
C 16.00785 0.71234 0.00143
C 14.73928 34.05424 -0.017
C 17.19157 32.58025 0.00364
C 18.38483 31.97303 -0.00831
C 18.41976 30.54852 -0.02957
C 17.29146 29.79084 -0.04422
C 17.47979 28.38994 0.00654
C 18.43323 9.43754 -0.04076
C 19.62987 7.13992 -0.01185
C 8.64815 0.75891 -0.01952
C 7.34194 2.87846 -0.01717
C 2.49819 8.56871 -0.01004
C 2.38685 7.08938 -0.02896
C 3.59039 6.40231 -0.00131
C 3.6592 5.01027 -0.01118
C 2.3952 4.42025 -0.014
C 2.44986 2.95918 0.02147
C 3.6682 2.2179 0.00373
C 3.6821 0.78674 -0.00191
C 2.39989 0.10435 0.00438
C 4.84729 32.74073 0.01291
C 6.15059 31.95891 0.00093
C 6.13816 30.55851 0.00057
C 4.94323 29.85708 -0.01634
C 4.86202 28.43968 -0.00334
C 6.06242 27.73216 0.02339
C 6.08926 26.31249 0.01641
C 4.89652 25.47529 -0.00719
C 3.72292 9.29376 0.00488
C 4.99247 24.06262 0.01364
C 3.70632 10.74072 0.01745
C 2.35063 12.6976 -0.01384
C 3.65562 30.61339 -0.01142
C 2.48662 29.80551 -0.00562
C 2.53386 28.38143 -0.00494
C 3.70035 27.63081 0.00054
C 3.76783 26.23972 0.03007
C 2.49764 25.55547 -0.00095
C 2.53986 24.16556 0.01572
C 3.75259 23.43266 -0.04848
C 3.61598 22.03885 -0.00892
C 2.38371 21.35408 -0.01362
C 2.39223 19.93004 -0.0008
C 3.58023 19.19105 0.0288
C 3.56652 17.82055 0.00393
C 2.41333 17.07178 0.00895
C 2.46543 15.6612 0.00685
C 3.6249 14.7906 0.02888
C 3.67295 13.43888 -0.00482
C 2.40964 11.36942 0.03693
C 8.57562 2.16865 0.05265
C 6.30802 23.3999 -0.01062
C 4.96346 21.28249 0.03589
C 8.57122 32.01016 -0.01789
C 8.60595 30.60481 0.00444
C 7.36651 29.8053 -0.00925
C 7.34329 28.4272 0.01877
C 8.54107 27.66598 0.01363
C 8.55007 26.17732 -0.02162
C 7.39502 25.57535 0.00415
C 7.37412 24.18317 -0.0014
C 7.4334 12.75699 0.02162
C 7.38854 11.37863 0.0076
C 8.71242 10.67139 0.01241
C 8.63776 9.29641 -0.01454
C 7.36368 8.58736 0.01945
C 7.33354 7.17932 0.01416
C 8.54064 6.44781 0.03542
C 8.5816 4.9987 0.02299
C 7.3773 4.2563 0.00244
C 7.37738 32.73824 0.02894
C 6.16072 21.94079 -0.00033
C 4.86873 0.11322 -0.02971
C 6.14221 2.13428 0.02819
C 4.88372 19.84332 -0.02759
C 6.0759 18.9889 0.0402
C 6.08251 17.68245 0.00572
C 4.94708 17.05604 0.03592
C 4.82724 15.59256 0.00406
C 6.11503 14.95142 0.00943
C 6.28784 13.54595 0.02841
C 4.97326 12.81622 -0.01111
C 4.89563 11.35096 -0.01275
C 6.07527 10.68185 0.00985
C 6.1249 9.29664 -0.02245
C 4.91897 8.54405 -0.00428
C 4.88393 7.12103 0.03101
C 6.13927 6.45323 -0.01536
C 6.19984 5.06143 -0.02689
C 4.93674 4.2595 -0.01046
C 4.90838 2.87626 -0.00891
C 6.10423 0.78081 0.00165
C 3.64154 32.03341 0.01849
C 20.80158 6.35946 0.01126
C 19.72989 4.27732 -0.00381
C 31.9917 29.79079 0.0544
C 31.95 28.44788 0.00026
C 33.20145 27.71298 0.00682
C 33.20032 26.29173 -0.01779
C 31.96242 25.56348 0.03794
C 32.00717 24.12371 0.01927
C 33.23411 23.42158 0.01574
C 33.13567 22.04047 -0.02383
C 31.87015 21.34624 -0.01429
C 31.91953 19.94394 -0.0136
C 33.16283 19.18234 0.00594
C 33.05866 17.78079 -0.02474
C 31.89453 17.03009 0.00369
C 31.92619 15.63909 0.00455
C 33.10658 14.9365 -0.00644
C 33.08829 13.5165 -0.01839
C 31.91969 12.79081 0.00137
C 33.15861 30.58236 -0.02142
C 31.99919 11.29742 0.00199
C 33.17251 31.97777 0.01428
C 29.48064 0.01811 0.01713
C 29.4637 24.18333 0.0101
C 30.72587 23.44525 0.01705
C 30.69294 22.05723 -0.0405
C 29.43195 21.31189 -0.01303
C 29.46905 19.94711 -0.01461
C 30.63512 19.18358 -0.02155
C 30.7175 17.79492 -0.00944
C 29.3847 17.07642 -0.03735
C 29.42351 15.62903 -0.00971
C 30.67113 15.01167 0.01518
C 30.62392 13.46952 0.01908
C 29.32829 12.64155 0.07705
C 29.56887 11.33428 0.0103
C 30.77175 10.77744 0.02108
C 29.59566 2.91696 0.00716
C 30.69097 2.18749 0.00307
C 30.73539 0.74423 0.00346
C 31.92829 32.69081 -0.01694
C 29.40401 25.55453 -0.00669
C 33.12838 10.54182 0.04381
C 32.13876 8.02582 0.01504
C 1.13773 17.73647 0.01223
C 34.31476 17.07967 0.00648
C 34.32888 15.62841 0.02114
C 1.11142 14.85746 -0.02957
C 1.09164 13.53082 0.00343
C 34.26941 12.79826 -0.02656
C 34.32826 11.32201 -0.02442
C 1.16191 10.62606 -0.00027
C 1.18576 9.30884 -0.00583
C 0.05254 8.47795 -0.02302
C 34.31048 7.14017 -0.02849
C 1.13981 6.433 0.02931
C 1.13674 4.99904 0.00628
C 34.26822 4.39251 -0.0345
C 34.35015 2.89215 -0.00931
C 1.13504 2.21452 -0.00939
C 1.18245 0.82403 -0.00468
C 1.2485 19.16877 -0.01678
C 33.10822 9.09335 0.02806
C 34.39226 19.9448 0.01951
C 1.23415 22.07969 0.02712
C 32.94833 6.74819 -0.00069
C 32.97262 5.13475 0.04926
C 31.7976 4.27103 -0.03838
C 31.99145 2.85046 0.00349
C 33.20316 2.13894 -0.00323
C 33.23189 0.72859 -0.00841
C 32.00032 34.03581 0.0001
C 34.40882 32.67682 -0.02927
C 1.21238 32.02942 -0.01404
C 1.29554 30.58802 0.01027
C 34.39164 29.90341 0.01831
C 34.38563 28.45393 -0.01037
C 1.19696 27.72095 -0.00439
C 1.20958 26.25934 -0.00598
C 34.42936 25.58443 -0.05239
C 0.00458 24.10915 0.03076
C 1.25486 23.43497 0.00723
C 34.37381 21.33991 -0.02213
C 20.96381 5.04813 0.01852
C 30.71235 26.28528 0.03531
C 29.46146 28.4918 -0.03039
C 23.52083 5.07621 -0.04078
C 22.20925 4.319 0.02117
C 22.15112 2.92941 0.02737
C 23.26681 2.12637 -0.00498
C 23.30962 0.58185 0.00135
C 22.09492 34.06542 0.03102
C 24.58925 32.52597 0.02555
C 25.84222 31.9482 0.01423
C 25.77358 30.52668 -0.00285
C 24.52884 29.7272 -0.009
C 24.44082 28.31429 -0.01199
C 25.66812 27.52926 -0.00229
C 25.65133 26.01056 -0.00938
C 24.76646 24.98057 -0.0264
C 25.5807 23.59546 -0.01154
C 25.47939 22.19807 0.00684
C 24.53252 19.90619 -0.01052
C 23.41398 6.50365 0.03005
C 25.72892 19.24922 -0.01679
C 22.11462 7.15506 -0.0276
C 23.38972 9.0385 -0.00178
C 19.65252 2.91233 0.03046
C 20.91699 2.20355 0.0296
C 20.94603 0.77105 0.03374
C 19.69017 34.07347 -0.02845
C 22.0565 32.6344 -0.03213
C 23.26241 31.86633 0.02239
C 23.28857 30.49656 0.01153
C 22.0305 29.80569 0.02734
C 22.08503 28.37269 -0.0055
C 23.23485 27.84372 0.01515
C 23.36158 18.06403 -0.00225
C 21.7092 14.79294 0.00071
C 23.16124 14.75633 -0.01107
C 23.40188 13.23797 -0.01586
C 22.1783 12.56476 -0.01971
C 22.40619 11.11972 -0.02118
C 23.81139 10.329 0.00733
C 22.11416 8.54836 0.00768
C 30.68409 27.73126 0.01836
C 25.76909 17.75271 0.00367
C 24.36531 15.61915 0.00996
C 26.98617 19.96567 0.00235
C 28.24063 19.19343 0.01495
C 28.1223 17.73923 0.01259
C 26.9054 17.01581 0.01799
C 26.91846 15.56673 0.01699
C 28.1488 14.82651 -0.00416
C 28.07043 13.29559 0.01177
C 26.79738 12.66689 0.04266
C 26.21828 11.37506 0.01324
C 26.82702 2.91151 0.0014
C 28.15899 2.3697 0.00924
C 28.29948 0.86445 0.02326
C 27.12462 0.12166 0.00261
C 29.46049 32.66716 0.03265
C 30.73802 31.97206 -0.02049
C 30.73209 30.54758 -0.01854
C 29.44005 29.9124 -0.01415
C 26.85085 21.36228 0.01094
C 24.41434 17.0786 0.04306
C 28.14396 22.07056 0.02198
C 26.99947 24.17203 -0.00621
C 25.67959 14.92112 0.00195
C 25.72924 13.5474 -0.00802
C 24.59441 12.65543 -0.00218
C 24.92833 11.23503 -0.01654
C 24.70363 4.24332 -0.00037
C 24.523 2.80293 -0.0032
C 25.76551 2.05356 0.00622
C 25.80804 0.60681 -0.02815
C 24.61479 34.01515 -0.00942
C 27.06717 32.72459 0.00487
C 28.15274 31.98268 0.00826
C 28.18656 30.55142 -0.00294
C 26.94851 29.77345 0.00152
C 26.93657 28.25736 0.01257
C 28.26626 27.73322 0.02316
C 28.24215 26.28551 0.04185
C 27.02385 25.5056 0.00194
C 28.18574 23.38675 0.02611
C 2.43546 32.7618 0.01396
