419
Graphene
C 34.40991 33.98952 0.01295
C 13.55023 2.20856 0.00943
C 13.54214 0.81048 0.02841
C 12.31585 0.10802 -0.01111
C 14.6804 32.61539 -0.01275
C 15.88361 31.89025 0.00985
C 15.90378 30.46298 -0.02245
C 14.69557 29.7446 -0.00428
C 14.7651 28.3655 0.03101
C 15.96262 27.55696 -0.01536
C 15.92699 26.19082 -0.02689
C 12.33084 2.99383 0.00406
C 14.74094 25.45775 -0.01046
C 16.03032 23.32536 0.02819
C 16.05025 21.93658 0.00165
C 14.75661 21.32717 -0.02971
C 14.74511 19.83906 0.02894
C 15.9758 19.15225 -0.01789
C 15.94643 17.73747 0.00444
C 14.81245 16.97448 -0.00925
C 14.56715 15.62248 0.01877
C 15.70878 14.79999 0.01363
C 16.06741 13.41731 -0.02162
C 14.73424 24.08856 -0.00891
C 16.11702 9.66283 0.00415
C 12.33929 4.38343 0.03592
C 13.71951 6.55085 0.0402
C 11.16216 5.04919 -0.01004
C 9.93002 4.41746 -0.02896
C 9.85853 3.02805 -0.00131
C 11.1072 2.28555 -0.01118
C 11.07787 0.84997 -0.014
C 9.81243 0.1361 0.02147
C 12.30445 32.69668 0.00373
C 13.48897 31.98042 -0.00191
C 13.5893 30.45367 0.00438
C 12.30072 29.84113 0.01291
C 13.60411 5.05107 0.00572
C 12.30678 28.38813 0.00093
C 13.46724 26.21102 -0.01634
C 12.23052 25.59345 -0.00334
C 12.24125 24.0818 0.02339
C 13.42683 23.375 0.01641
C 13.49977 21.95805 -0.00719
C 12.24362 21.36737 0.01364
C 12.27646 19.96554 -0.01062
C 13.5483 19.20075 -0.00033
C 13.50148 17.84041 0.03589
C 12.28919 17.21484 -0.02759
C 13.5071 27.66312 0.00057
C 14.77666 7.03496 -0.0014
C 16.09644 6.43526 0.02162
C 16.08653 4.98363 0.0076
C 18.44769 9.26915 0.01848
C 17.19054 8.63718 -0.00619
C 17.20954 7.20451 -0.02162
C 18.42709 6.47918 0.00889
C 18.3821 4.96266 -0.00481
C 17.22635 4.26229 0.00979
C 17.20281 2.85984 0.01443
C 18.40685 2.05037 0.03505
C 18.35218 0.65245 -0.02815
C 17.14845 34.05627 -0.04147
C 18.50273 10.61467 0.02098
C 19.59582 32.63179 -0.05302
C 20.79297 30.534 -0.00066
C 19.54908 29.80202 -0.00289
C 19.61166 28.40552 0.00028
C 20.79849 27.68229 -0.02213
C 20.89199 26.27587 0.03698
C 19.6954 25.54835 -0.00109
C 19.71517 24.0915 -0.00491
C 20.93593 23.43966 0.03338
C 20.93997 22.01338 -0.0258
C 19.71137 21.2698 -0.0331
C 20.83963 31.93913 0.00213
C 17.14647 11.10942 -0.03113
C 17.10295 12.53732 0.0351
C 18.35056 13.35031 0.00422
C 14.83946 4.39074 0.01241
C 14.79594 2.95318 -0.01454
C 15.93585 2.18433 0.01945
C 15.93549 0.7499 0.01416
C 14.7554 34.0717 0.03542
C 17.09944 32.58331 0.02299
C 18.30442 31.9095 0.00244
C 18.3378 30.50341 -0.01717
C 17.15753 29.7597 0.05265
C 17.13384 28.3908 -0.01952
C 18.37364 27.6638 -0.02813
C 18.39765 26.23258 0.00374
C 17.1961 25.4918 0.00052
C 17.18653 24.07141 -0.03682
C 18.50215 23.3868 0.01965
C 18.51281 21.94631 0.02058
C 17.20691 21.28842 -0.01957
C 17.26524 19.82666 -0.0108
C 18.47126 19.148 -0.00368
C 18.42593 17.67753 -0.02696
C 17.18747 16.938 -0.00114
C 17.13859 15.45326 0.00228
C 18.33414 14.78357 0.00798
C 9.66551 15.82055 0.00488
C 19.70014 19.83923 -0.00316
C 9.92098 17.16938 0.01745
C 11.05412 19.28776 -0.01384
C 2.36867 2.92365 0.00208
C 3.6308 2.23233 0.01707
C 3.61133 0.75658 0.02769
C 2.34429 0.03601 -0.03291
C 4.8655 32.71034 -0.04999
C 6.20611 32.06596 0.04505
C 6.17507 30.62356 0.03284
C 4.95609 29.84944 -0.04307
C 4.8626 28.40204 0.03189
C 6.16491 27.66156 0.00031
C 2.47615 4.38199 -0.00561
C 6.13339 26.32634 -0.003
C 4.8625 24.16191 0.02379
C 6.04437 23.48609 0.00907
C 6.09538 22.03739 0.00643
C 4.89845 21.36548 -0.01509
C 4.87112 19.87308 0.03267
C 6.09316 19.21149 0.02374
C 6.09011 17.80865 0.00402
C 4.92903 17.0459 0.0073
C 4.81574 15.59945 0.0174
C 6.1114 14.87163 0.03828
C 4.88802 25.51884 0.01402
C 6.12027 13.47743 0.01226
C 3.66905 5.04147 -0.01977
C 2.37647 7.07143 -0.01979
C 3.75424 30.59678 0.00662
C 2.43108 29.79866 -0.0154
C 2.50282 28.40354 -0.01299
C 3.70193 27.60945 -0.00407
C 3.7313 26.17549 0.01138
C 2.4274 25.55251 0.03278
C 2.42329 24.13614 -0.00177
C 3.58404 23.42967 0.04421
C 3.70195 22.02321 0.00088
C 2.40122 21.26442 0.00828
C 3.668 6.47471 0.02784
C 2.489 19.92176 -0.02375
C 3.64729 17.77839 -0.0059
C 2.4995 17.06581 -0.01386
C 2.45801 15.62573 -0.02805
C 3.664 14.93846 0.00081
C 3.61547 13.43507 0.00245
C 2.4356 12.72774 0.02728
C 2.43354 11.33662 -0.00039
C 3.65382 10.57571 0.0064
C 3.67763 9.23122 0.00211
C 2.47194 8.49508 -0.00449
C 3.68859 19.16739 0.00558
C 4.80032 12.76584 -0.00279
C 4.85776 11.42751 0.01996
C 6.0466 10.51758 -0.03996
C 8.71465 15.08929 -0.01378
C 7.3827 7.01241 0.02635
C 8.43327 6.42182 0.0127
C 8.63219 4.99914 0.01396
C 7.378 4.36085 0.01849
C 7.37826 3.01953 -0.01142
C 8.60185 2.24236 -0.00562
C 8.59277 0.84005 -0.00494
C 7.37861 0.13942 0.00054
C 9.82475 32.69719 0.03007
C 7.29742 15.676 -0.01303
C 11.0772 32.03682 -0.00095
C 9.8712 29.92193 -0.04848
C 9.83632 28.43589 -0.00892
C 11.04895 27.68277 -0.01362
C 11.01973 26.25552 -0.0008
C 9.80632 25.58342 0.0288
C 9.82228 24.21029 0.00393
C 10.97971 23.47757 0.00895
C 10.99082 22.06479 0.00685
C 9.81382 21.34477 0.02888
C 9.83672 20.00013 -0.00482
C 11.07732 30.61879 0.01572
C 7.3971 17.05621 0.00848
C 8.61768 17.82977 -0.00049
C 8.61385 19.27371 0.00873
C 6.13436 9.32754 0.01465
C 4.87021 8.54755 -0.00074
C 4.85372 7.21506 -0.00518
C 6.01648 6.42801 0.0086
C 6.14376 5.01955 -0.00643
C 4.92661 4.33965 0.017
C 4.84253 2.8735 -0.03113
C 6.13683 2.29365 -0.02566
C 6.1028 0.82862 -0.00094
C 4.90287 0.07555 0.02322
C 7.33906 32.75409 -0.00725
C 8.55488 32.0636 -0.05697
C 8.60174 30.5981 0.01087
C 7.39248 29.88517 -0.01343
C 7.34879 28.4586 0.00988
C 8.63326 27.71979 0.0276
C 8.5509 26.32493 0.01305
C 7.30601 25.58173 -0.00077
C 7.28679 24.17298 0.03368
C 8.5785 23.46722 -0.02929
C 8.61402 22.0793 -0.00966
C 7.42563 21.34817 -0.03337
C 7.31248 19.8971 0.01227
C 11.15493 17.91347 0.03693
C 3.6466 31.99752 0.00748
C 20.92458 19.10722 0.02188
C 19.64115 17.01017 0.02691
C 29.45558 12.76186 -0.02155
C 29.53718 11.32195 -0.00944
C 30.69629 10.61809 -0.03735
C 30.75104 9.21383 -0.00971
C 29.47665 8.50362 0.01518
C 29.52361 7.11562 0.01908
C 30.76287 6.37077 0.07705
C 30.75141 4.91428 0.0103
C 29.54316 4.19841 0.02108
C 29.45878 2.89047 0.00716
C 30.72764 13.45264 -0.01461
C 30.64663 2.09299 0.00307
C 29.44411 34.01762 0.01713
C 31.97657 32.62941 -0.01694
C 33.21999 31.8718 0.01428
C 33.24292 30.46592 -0.02142
C 32.01271 29.77429 0.0544
C 31.99053 28.38925 0.00026
C 33.21534 27.67865 0.00682
C 33.19153 26.18447 -0.01779
C 31.9313 25.51963 0.03794
C 31.85463 24.08207 0.01927
C 30.71299 0.68914 0.00346
C 33.15289 23.35452 0.01574
C 30.71608 14.86154 -0.01303
C 29.51052 17.00631 0.01705
C 28.23864 6.3769 0.00235
C 28.29617 4.98111 0.01495
C 27.01295 4.2689 0.01259
C 27.07638 2.9181 0.01799
C 28.26264 2.18123 0.01699
C 28.28662 0.73047 -0.00416
C 27.01934 0.03941 0.01177
C 29.48087 32.6456 0.04266
C 30.7148 31.96855 0.01324
C 30.70986 30.5055 0.0014
C 29.51652 15.6048 -0.0405
C 29.54206 29.76907 0.00924
C 30.75705 27.72497 0.00261
C 30.73543 26.25423 0.03265
C 29.53768 25.54875 -0.02049
C 29.4237 24.14898 -0.01854
C 30.64349 23.36691 -0.01415
C 30.67708 21.90704 -0.03039
C 29.44376 21.25367 0.01836
C 29.46572 19.82926 0.03531
C 30.67808 19.17972 -0.00669
C 30.68782 17.73114 0.0101
C 29.54287 28.35881 0.02326
C 33.08688 21.97875 -0.02383
C 31.92169 21.21554 -0.01429
C 31.92569 19.80996 -0.0136
C 0.02385 24.05993 0.00723
C 1.24962 23.43908 0.02712
C 1.13321 22.02567 -0.02213
C 34.34693 21.27991 0.01951
C 0.00223 19.9003 -0.01678
C 1.20717 19.1997 0.01223
C 1.22392 17.7243 0.00648
C 34.4274 17.02975 0.02114
C 0.02889 15.62177 -0.02957
C 1.21737 14.89779 0.00343
C 34.36417 25.53294 0.03076
C 1.2674 13.43721 -0.02656
C 34.39189 11.34652 -0.00027
C 1.18831 10.56635 -0.00583
C 1.18217 9.10901 -0.02302
C 34.37504 8.40767 -0.02849
C 34.38765 6.99461 0.02931
C 1.17892 6.36542 0.00628
C 34.26197 4.23528 -0.0345
C 34.32919 2.86933 -0.00931
C 1.17191 2.14199 -0.00939
C 1.13035 0.67734 -0.00468
C 34.36537 12.73243 -0.02442
C 1.14341 26.23224 -0.05239
C 1.24878 27.65922 -0.00598
C 0.02304 28.364 -0.00439
C 33.15925 19.19953 0.00594
C 33.2234 17.69476 -0.02474
C 31.95299 17.00728 0.00369
C 31.9813 15.57402 0.00455
C 33.2349 14.92318 -0.00644
C 33.22162 13.49053 -0.01839
C 31.93784 12.7699 0.00137
C 31.8745 11.32533 0.00199
C 33.14859 10.59697 0.04381
C 33.20491 9.12034 0.02806
C 31.91461 8.47083 0.01504
C 31.96955 7.04106 -0.00069
C 33.1539 6.34836 0.04926
C 33.11705 4.98002 -0.03838
C 31.95057 4.22147 0.00349
C 31.95024 2.78164 -0.00323
C 33.1494 2.06063 -0.00841
C 33.2084 0.69341 0.0001
C 31.95548 34.07775 -0.02927
C 0.005 32.57357 -0.01404
C 1.20769 31.96138 0.01027
C 1.22902 30.57413 0.01831
C 0.05153 29.80245 -0.01037
C 27.06273 7.10495 0.01094
C 20.86378 17.68995 -0.01979
C 27.06414 8.54168 0.02198
C 28.28364 10.6267 -0.00621
C 23.40317 22.02642 0.0106
C 22.20192 21.27618 -0.01154
C 22.14211 19.84967 -0.01721
C 23.28297 19.12144 -0.02422
C 23.35559 17.67899 0.01277
C 22.09525 17.02317 0.00096
C 22.05765 15.63461 -0.01527
C 23.39313 14.95843 0.01087
C 23.38223 13.49574 0.00199
C 22.16698 12.7872 0.01511
C 23.40948 23.43485 -0.01594
C 22.11271 11.37009 -0.00478
C 23.37122 9.2251 -0.01185
C 22.15903 8.57839 0.01126
C 22.15444 7.1632 0.01852
C 23.26962 6.45408 -0.00381
C 23.31689 5.01055 0.03046
C 22.09656 4.2708 0.0296
C 22.08205 2.81608 0.03374
C 23.31531 2.18719 -0.02845
C 23.28351 0.78192 -0.03213
C 22.13626 0.04465 0.02239
C 23.35798 10.64415 -0.01662
C 24.57191 32.77323 0.01153
C 22.12184 24.17561 0.00742
C 23.3752 26.33204 0.00675
C 19.59851 15.57041 -0.01581
C 20.86305 14.92307 0.01452
C 20.88582 13.46448 0.04892
C 19.74011 12.78805 -0.00111
C 19.67873 11.3193 -0.03557
C 20.98654 10.65312 0.03754
C 20.92069 9.26594 0.01739
C 19.68428 8.5583 0.00755
C 19.68326 7.09369 -0.0054
C 20.88305 6.47384 0.00667
C 22.07697 25.63917 -0.00311
C 20.92239 4.95969 0.00143
C 19.59926 2.83127 0.00364
C 20.92776 2.10708 -0.00831
C 20.83286 0.6737 -0.02957
C 19.64356 34.07807 -0.04422
C 22.09171 32.67885 0.00654
C 23.34329 31.93204 -0.00703
C 23.3202 30.59289 -0.04076
C 22.09283 29.87985 -0.00652
C 22.04142 28.42325 0.0058
C 23.26154 27.71632 -0.00865
C 19.67468 4.21816 -0.017
C 25.77437 32.00621 0.02734
C 25.72603 30.59055 -0.0055
C 24.54232 29.91192 0.01515
C 24.5773 0.10038 -0.01052
C 27.00378 32.71438 -0.01679
C 28.19437 31.95487 0.00367
C 28.26391 30.56783 0.04306
C 27.02403 29.8853 0.00996
C 27.0144 28.42625 0.00195
C 28.31112 27.66231 -0.00802
C 28.31196 26.29495 -0.00218
C 27.03889 25.53195 -0.01654
C 27.0626 24.1025 -0.00037
C 25.75574 0.73485 0.00684
C 28.24912 23.43387 -0.0032
C 26.9706 21.25402 -0.02815
C 27.00674 19.80318 -0.00942
C 28.23684 19.1082 0.00487
C 28.27331 17.66967 0.00826
C 27.04972 16.9575 -0.00294
C 27.02131 15.56017 0.00152
C 28.24098 14.86482 0.01257
C 28.18597 13.49208 0.02316
C 27.05458 12.74252 0.04185
C 27.0806 11.32505 0.00194
C 28.22025 21.90171 0.00622
C 25.80625 2.21205 -0.01154
C 24.56153 2.93691 -0.0264
C 24.56331 4.29634 -0.00938
C 24.49973 28.47183 -0.00225
C 25.83204 27.73161 0.00071
C 25.74711 26.30894 -0.01107
C 24.58823 25.5502 -0.01586
C 24.59101 24.18727 -0.01971
C 25.82216 23.47313 -0.02118
C 25.83103 22.05264 0.00733
C 24.61326 21.29532 -0.00178
C 24.6218 19.87467 0.00768
C 25.79513 19.09791 -0.0276
C 25.82349 17.69327 0.03005
C 24.61703 16.94089 -0.04078
C 24.56523 15.56251 0.02117
C 25.84879 14.90548 0.02737
C 25.82315 13.49175 -0.00498
C 24.65855 12.80043 0.00135
C 24.64885 11.33561 0.03102
C 25.93734 10.68335 0.02555
C 25.8303 9.24625 0.01423
C 24.64585 8.5584 -0.00285
C 24.60021 7.15211 -0.009
C 25.80277 6.38468 -0.01199
C 25.80556 5.0286 -0.00229
C 28.2854 9.25644 0.02611
C 2.41094 32.6715 0.03345
