361
Graphene
C 0.01567 0.02237 0.01295
C 9.87939 11.31655 0.02058
C 11.02967 10.69219 -0.01957
C 11.06642 9.25985 -0.0108
C 9.86952 8.50269 -0.00368
C 9.87496 7.10271 -0.02696
C 11.08841 6.39786 -0.00114
C 11.03125 4.96336 0.00228
C 9.80862 4.24572 0.00798
C 9.82611 12.7101 0.01965
C 9.80193 2.84759 0.00422
C 11.09305 0.70409 -0.03113
C 9.85443 34.04671 0.02098
C 12.32608 32.63097 0.01848
C 13.56726 31.94362 -0.00619
C 13.5002 30.60145 -0.02162
C 12.29826 29.81399 0.00889
C 12.27567 28.36746 -0.00481
C 13.46819 27.66122 0.00979
C 11.11369 2.06284 0.0351
C 11.05473 13.48922 -0.03682
C 11.03394 14.92637 0.00052
C 9.84433 15.57771 0.00374
C 8.57669 2.16405 -0.00925
C 8.55971 0.74772 0.01877
C 7.40986 0.02555 0.01363
C 9.86027 32.65353 -0.02162
C 11.05984 31.96663 0.00415
C 11.09061 30.54442 -0.0014
C 9.83847 29.83759 0.02162
C 9.84664 28.37289 0.0076
C 11.08076 27.69989 0.01241
C 11.08601 26.29766 -0.01454
C 9.81444 25.57889 0.01945
C 9.81289 24.21291 0.01416
C 11.06939 23.39016 0.03542
C 11.11595 21.99995 0.02299
C 9.86994 21.31136 0.00244
C 9.90015 19.87447 -0.01717
C 11.0665 19.11288 0.05265
C 11.04755 17.7461 -0.01952
C 9.8375 17.00307 -0.02813
C 13.49812 26.27573 0.01443
C 7.38174 2.83165 0.00444
C 12.33919 25.54495 0.03505
C 13.54334 23.467 -0.04147
C 15.98854 31.95102 0.00755
C 15.97458 30.57981 -0.0054
C 14.73756 29.84437 0.00667
C 14.75332 28.34539 0.00143
C 15.9919 27.66344 -0.017
C 16.00493 26.33363 0.00364
C 14.77875 25.55366 -0.00831
C 14.74125 24.16531 -0.02957
C 14.75861 32.66424 0.01739
C 15.99319 23.42757 -0.04422
C 14.77562 21.31886 -0.00703
C 14.78156 19.84768 -0.04076
C 16.02948 19.18441 -0.00652
C 16.00569 17.73652 0.0058
C 14.77607 17.00164 -0.00865
C 14.74283 15.62352 0.00675
C 15.95916 14.8785 -0.00311
C 16.00697 13.47678 0.00742
C 15.99648 22.01346 0.00654
C 12.30516 0.026 0.03754
C 13.48947 0.68872 -0.03557
C 13.52522 2.14398 -0.00111
C 13.48132 22.06364 -0.05302
C 12.28289 21.31192 0.00213
C 12.27804 19.87831 -0.00066
C 13.5508 19.15007 -0.00289
C 13.57917 17.74727 0.00028
C 12.3247 17.05103 -0.02213
C 12.29567 15.65199 0.03698
C 13.55101 14.87608 -0.00109
C 13.52474 13.46711 -0.00491
C 12.28265 12.74349 0.03338
C 12.28784 11.34235 -0.0258
C 13.51378 10.63241 -0.0331
C 13.52693 9.26929 -0.00316
C 12.27471 8.52229 0.02188
C 12.29935 7.10241 -0.01979
C 13.50891 6.43016 0.02691
C 13.53286 4.96301 -0.01581
C 12.26136 4.26306 0.01452
C 12.30253 2.83528 0.04892
C 12.31883 24.12064 -0.02815
C 7.35104 4.27116 -0.01789
C 8.59706 4.92616 0.02894
C 8.58647 6.39223 -0.02971
C 3.70566 6.39098 0.0127
C 3.66372 4.94921 0.01396
C 2.48613 4.27017 0.01849
C 2.5236 2.86352 -0.01142
C 3.66153 2.14756 -0.00562
C 3.70816 0.6504 -0.00494
C 2.45668 34.07903 0.00054
C 4.9075 32.65049 0.03007
C 2.47935 7.12577 0.02635
C 6.16352 31.89695 -0.00095
C 4.87516 29.82347 -0.04848
C 4.90233 28.40591 -0.00892
C 6.10398 27.69539 -0.01362
C 6.13582 26.30385 -0.0008
C 4.92895 25.59503 0.0288
C 4.94258 24.12736 0.00393
C 6.15927 23.46052 0.00895
C 6.15772 22.03844 0.00685
C 6.12603 30.54494 0.01572
C 2.42677 8.59599 -0.01378
C 3.72773 9.25343 -0.01303
C 3.67927 10.62742 0.00848
C 3.68199 30.52096 -0.03113
C 2.43995 29.84184 -0.02566
C 2.47527 28.36569 -0.00094
C 3.70821 27.68169 0.02322
C 3.69227 26.23468 -0.00725
C 2.50669 25.55604 -0.05697
C 2.46552 24.15372 0.01087
C 3.6531 23.41187 -0.01343
C 3.65951 22.07508 0.00988
C 2.43184 21.33161 0.0276
C 2.47741 19.88403 0.01305
C 3.66799 19.20368 -0.00077
C 3.72756 17.75949 0.03368
C 2.46536 16.99786 -0.02929
C 2.49557 15.61505 -0.00966
C 3.61409 14.87609 -0.03337
C 3.67903 13.54403 0.01227
C 2.46626 12.83425 0.00873
C 2.45487 11.36311 -0.00049
C 4.94706 21.31026 0.02888
C 4.91617 19.82951 -0.00482
C 6.15829 19.15432 -0.01384
C 6.17718 17.77202 0.03693
C 8.59914 26.28091 -0.02759
C 7.37102 25.57027 0.0402
C 7.34029 24.10321 0.00572
C 8.5728 23.44298 0.03592
C 8.62628 22.02343 0.00406
C 7.37361 21.2695 0.00943
C 7.36626 19.91295 0.02841
C 8.60638 19.20862 -0.01111
C 8.58596 17.79044 -0.01275
C 7.42193 17.03963 0.00985
C 7.41296 15.63031 -0.02245
C 8.60801 14.953 -0.00428
C 8.57914 13.42117 0.03101
C 7.35075 12.75218 -0.01536
C 7.34267 11.36617 -0.02689
C 8.59386 10.63279 -0.01046
C 8.64888 9.2203 -0.00891
C 7.38752 8.53336 0.02819
C 7.37228 7.1336 0.00165
C 8.61446 27.64976 0.03589
C 14.77219 12.7565 -0.01594
C 7.36106 28.42376 -0.00033
C 8.62322 30.56525 0.01364
C 4.90148 17.01533 0.01745
C 4.90131 15.6296 0.00488
C 6.13638 14.94579 -0.01004
C 6.13293 13.52378 -0.02896
C 4.901 12.83295 -0.00131
C 4.96098 11.33247 -0.01118
C 6.14193 10.68056 -0.014
C 6.14207 9.25351 0.02147
C 4.94897 8.56264 0.00373
C 4.8984 7.17837 -0.00191
C 6.16458 6.41555 0.00438
C 6.13915 4.9943 0.01291
C 4.89283 4.26098 0.00093
C 4.9304 2.85858 0.00057
C 6.16186 2.14013 -0.01634
C 6.1829 0.71097 -0.00334
C 4.91548 0.03978 0.02339
C 7.37138 32.70744 0.01641
C 8.6471 31.96899 -0.00719
C 7.3535 29.85876 -0.01062
C 3.65357 31.99972 0.017
C 14.76998 11.31889 0.0106
C 15.98373 9.23333 -0.01721
C 30.68923 2.15544 0.01713
C 30.73281 0.72288 -0.01694
C 29.55744 0.03476 0.01428
C 31.99681 32.61199 -0.02142
C 33.22273 31.95825 0.0544
C 33.17196 30.53716 0.00026
C 31.96643 29.81876 0.00682
C 31.95465 28.41514 -0.01779
C 29.45106 2.82594 0.00346
C 33.17791 27.70739 0.03794
C 31.96852 25.51182 0.01574
C 32.00917 24.18156 -0.02383
C 33.17478 23.43346 -0.01429
C 33.21076 22.04362 -0.0136
C 31.95142 21.29001 0.00594
C 31.97717 19.8898 -0.02474
C 33.2185 19.16192 0.00369
C 33.24261 17.72188 0.00455
C 33.23571 26.29299 0.01927
C 29.51499 4.23118 0.00307
C 30.72684 4.96068 0.00716
C 30.74319 6.40177 0.02108
C 27.02553 21.35689 -0.01854
C 28.30065 2.14169 -0.01415
C 28.32664 0.70371 -0.03039
C 27.10368 34.03912 0.01836
C 29.50221 32.66433 0.03531
C 30.75232 31.94732 -0.00669
C 30.73987 30.52974 0.0101
C 29.50372 29.80599 0.01705
C 29.54075 28.39871 -0.0405
C 30.73499 27.71075 -0.01303
C 30.76469 26.30909 -0.01461
C 29.5349 25.51028 -0.02155
C 29.54545 24.09172 -0.00944
C 30.76133 23.47623 -0.03735
C 30.72684 22.03637 -0.00971
C 29.52665 21.26011 0.01518
C 29.49631 19.91331 0.01908
C 30.77523 19.14332 0.07705
C 30.71231 17.69138 0.0103
C 31.96412 17.0549 -0.00644
C 28.26175 21.93679 -0.02049
C 33.15633 14.92619 -0.01839
C 33.17938 10.65107 0.00199
C 1.25366 19.14735 -0.01678
C 1.2476 17.72877 0.01223
C 0.00988 17.03515 0.00648
C 0.02404 15.59908 0.02114
C 1.22339 14.85844 -0.02957
C 1.24078 13.50697 0.00343
C 0.02655 12.73588 -0.02656
C 34.38646 11.36103 -0.02442
C 0.00611 19.86935 0.01951
C 1.21671 10.68833 -0.00027
C 34.41581 8.52987 -0.02302
C 0.00738 7.14697 -0.02849
C 1.20547 6.36946 0.02931
C 1.24591 4.98624 0.00628
C 34.4105 4.24607 -0.0345
C 0.01096 2.83059 -0.00931
C 1.25715 2.13692 -0.00939
C 1.28637 0.73953 -0.00468
C 1.25283 9.22471 -0.00583
C 34.40278 21.27082 -0.02213
C 1.20326 22.04712 0.02712
C 1.22844 23.45959 0.00723
C 33.19111 9.28557 0.04381
C 31.96426 8.45047 0.02806
C 31.92168 7.10626 0.01504
C 33.19431 6.39289 -0.00069
C 33.24534 4.97238 0.04926
C 31.94078 4.23749 -0.03838
C 31.94157 2.87661 0.00349
C 33.18804 2.0901 -0.00323
C 33.17943 0.68672 -0.00841
C 31.97065 34.04147 0.0001
C 34.42956 32.69878 -0.02927
C 1.23372 31.99297 -0.01404
C 1.23463 30.52339 0.01027
C 34.42222 29.80679 0.01831
C 34.40672 28.40147 -0.01037
C 1.1915 27.6728 -0.00439
C 1.24629 26.2851 -0.00598
C 0.02766 25.55394 -0.05239
C 34.4269 24.14299 0.03076
C 33.17163 13.50933 0.00137
C 28.28154 23.42194 0.03265
C 27.02743 24.16951 0.00261
C 27.05915 25.54799 0.02326
C 17.17923 17.0425 -0.00225
C 17.20678 7.15148 0.00071
C 18.42867 6.38796 -0.01107
C 18.47292 4.9673 -0.01586
C 17.19457 4.25484 -0.01971
C 17.18488 2.82784 -0.02118
C 18.41279 2.14911 0.00733
C 18.42976 0.73033 -0.00178
C 18.46083 19.15385 0.01515
C 17.18687 34.05788 0.00768
C 20.86279 31.95287 0.03005
C 20.87694 30.53078 -0.04078
C 19.68518 29.82911 0.02117
C 19.64826 28.37382 0.02737
C 20.91395 27.71842 -0.00498
C 20.91858 26.29564 0.00135
C 19.67332 25.51592 0.03102
C 19.64204 24.13499 0.02555
C 19.69604 32.66103 -0.0276
C 17.22192 19.86447 -0.0055
C 17.20496 21.29122 0.02734
C 18.45246 21.99693 0.01153
C 14.74578 8.4821 -0.02422
C 14.74532 7.07256 0.01277
C 15.93435 6.36277 0.00096
C 15.98318 4.97484 -0.01527
C 14.79774 4.21617 0.01087
C 14.75683 2.8485 0.00199
C 15.92063 2.11693 0.01511
C 15.94118 0.69646 -0.00478
C 14.74283 34.03568 -0.01662
C 17.18112 32.65888 -0.01185
C 18.50156 31.91719 0.01126
C 18.45066 30.50273 0.01852
C 17.1603 29.80906 -0.00381
C 17.17841 28.3481 0.03046
C 18.46915 27.6815 0.0296
C 18.43962 26.23849 0.03374
C 17.24276 25.51945 -0.02845
C 17.24024 24.09791 -0.03213
C 18.47111 23.46635 0.02239
C 20.89668 23.44257 0.01423
C 20.93139 21.94841 -0.00285
C 19.65274 21.27748 -0.009
C 19.66478 19.86461 -0.01199
C 24.63854 29.79135 0.01257
C 24.63319 28.35681 0.02316
C 25.81564 27.65078 0.04185
C 25.82852 26.25857 0.00194
C 24.60422 25.57786 -0.00621
C 24.60616 24.13798 0.02611
C 25.84892 23.43888 0.02198
C 25.82159 21.98565 0.01094
C 24.60864 21.31988 0.00235
C 25.84071 2.11061 0.01495
C 25.87129 0.73633 0.01259
C 24.62032 0.01359 0.01799
C 27.05049 32.67593 0.01699
C 28.30954 31.88909 -0.00416
C 28.24751 30.52957 0.01177
C 27.09134 29.81131 0.04266
C 27.03383 28.43946 0.01324
C 28.2685 27.6791 0.0014
C 28.29064 26.26793 0.00924
C 25.80667 30.53769 0.00152
C 15.97593 10.63336 -0.01154
C 25.8348 31.97707 -0.00294
C 22.11588 0.02334 0.00487
C 19.63731 4.25112 -0.00229
C 19.73098 2.90599 -0.00938
C 20.92034 2.13365 -0.0264
C 20.96517 0.71556 -0.01154
C 19.61701 34.0609 0.00684
C 22.14561 32.64402 -0.01052
C 23.38222 31.91758 -0.01679
C 23.45105 30.57099 0.00367
C 22.13572 29.85866 0.04306
C 22.13213 28.39979 0.00996
C 23.37508 27.67886 0.00195
C 23.31448 26.28967 -0.00802
C 22.09563 25.59664 -0.00218
C 22.1016 24.14435 -0.01654
C 23.34401 23.4186 -0.00037
C 23.41221 21.98977 -0.0032
C 22.06347 21.27042 0.00622
C 23.36544 2.10235 -0.02815
C 23.34389 0.71782 -0.00942
C 24.56246 32.63955 0.00826
C 2.42782 32.67632 -0.00643
