357
Graphene
C 34.36111 34.06744 0.01295
C 11.05255 13.42411 -0.0108
C 9.82725 12.77291 -0.00368
C 9.79584 11.38548 -0.02696
C 11.03007 10.72238 -0.00114
C 11.0103 9.22561 0.00228
C 9.81178 8.50444 0.00798
C 9.80427 7.0963 0.00422
C 10.9971 6.38988 0.0351
C 11.14662 14.95046 -0.01957
C 11.0428 4.99129 -0.03113
C 9.84826 2.75874 0.01848
C 11.07784 2.09962 -0.00619
C 11.09932 0.70081 -0.02162
C 9.85783 0.05445 0.00889
C 12.36046 32.6132 -0.00481
C 13.48677 31.88572 0.00979
C 13.44683 30.41832 0.01443
C 12.23204 29.77461 0.03505
C 9.86349 4.24552 0.02098
C 12.25069 28.35023 -0.02815
C 9.92039 15.61746 0.02058
C 11.07758 17.78688 -0.03682
C 7.28345 2.96206 -0.02162
C 8.62688 2.20541 0.00415
C 8.64375 0.78321 -0.0014
C 7.40765 0.08496 0.02162
C 9.83849 32.69214 0.0076
C 11.07018 32.0197 0.01241
C 11.05265 30.60908 -0.01454
C 9.81512 29.94197 0.01945
C 9.80431 17.06697 0.01965
C 9.84896 28.43227 0.01416
C 11.05007 26.2482 0.02299
C 9.80594 25.53034 0.00244
C 9.75761 24.15483 -0.01717
C 11.04648 23.46179 0.05265
C 11.15942 21.98992 -0.01952
C 9.8879 21.25959 -0.02813
C 9.87466 19.89666 0.00374
C 11.10949 19.13237 0.00052
C 10.98039 27.68433 0.03542
C 13.54328 27.58738 -0.04147
C 13.57801 26.223 -0.05302
C 12.29533 25.58659 0.00213
C 12.33984 34.06843 0.00667
C 14.65923 32.69795 0.00143
C 15.9488 31.96186 -0.017
C 15.93084 30.54139 0.00364
C 14.74945 29.70984 -0.00831
C 14.6457 28.33482 -0.02957
C 14.73888 20.01855 -0.04422
C 15.99722 17.65174 0.00654
C 13.53878 0.75085 -0.0054
C 14.8092 17.00448 -0.00703
C 16.05121 14.98444 -0.00652
C 15.95904 13.49662 0.0058
C 14.81857 12.79878 -0.00865
C 14.79707 11.31506 0.00675
C 15.96457 10.52654 -0.00311
C 15.93823 9.15748 0.00742
C 14.72477 8.50495 -0.01594
C 14.68069 7.09493 0.0106
C 14.78341 15.60297 -0.04076
C 13.49061 2.16481 0.00755
C 12.29132 2.79448 0.01739
C 12.27261 4.25127 0.03754
C 12.30108 24.21901 -0.00066
C 13.35386 23.40083 -0.00289
C 13.40619 22.10472 0.00028
C 12.39295 21.26578 -0.02213
C 12.31295 19.91681 0.03698
C 13.622 19.27965 -0.00109
C 13.59402 17.80689 -0.00491
C 12.35364 17.03371 0.03338
C 12.31167 15.57054 -0.0258
C 13.56775 14.8268 -0.0331
C 13.57 13.42427 -0.00316
C 12.35929 12.70798 0.02188
C 12.33516 11.31205 -0.01979
C 13.52557 10.61766 0.02691
C 13.50549 9.24475 -0.01581
C 12.28746 8.51432 0.01452
C 12.19751 7.08922 0.04892
C 13.39937 6.38266 -0.00111
C 13.48913 4.931 -0.03557
C 7.32053 4.38934 0.01363
C 8.63152 4.90367 0.01877
C 8.6253 6.30082 -0.00925
C 7.37706 7.08277 0.00444
C 3.67132 6.44234 -0.00562
C 3.61395 5.01869 -0.00494
C 2.44149 4.28423 0.00054
C 2.49489 2.86689 0.03007
C 3.70699 2.18567 -0.00095
C 3.72244 0.70123 0.01572
C 2.41234 0.01617 -0.04848
C 4.87669 32.68552 -0.00892
C 2.45495 7.12628 -0.01142
C 6.1392 31.98504 -0.01362
C 4.90728 29.86541 0.0288
C 4.88345 28.38556 0.00393
C 6.13422 27.68617 0.00895
C 6.16095 26.31816 0.00685
C 4.92989 25.57482 0.02888
C 4.95795 24.12682 -0.00482
C 6.14432 23.4803 -0.01384
C 6.12432 21.96959 0.03693
C 6.15056 30.54315 -0.0008
C 2.42306 8.53807 0.01849
C 3.66441 9.33931 0.01396
C 3.60723 10.81352 0.0127
C 3.67233 30.53022 -0.00725
C 2.45271 29.77664 -0.05697
C 2.48414 28.34403 0.01087
C 3.63058 27.71071 -0.01343
C 3.65906 26.26738 0.00988
C 2.5068 25.55293 0.0276
C 2.47816 24.15257 0.01305
C 3.75775 23.41174 -0.00077
C 3.70843 22.03521 0.03368
C 2.4202 21.29525 -0.02929
C 2.39915 19.92365 -0.00966
C 3.62204 19.19427 -0.03337
C 3.67098 17.71427 0.01227
C 2.39017 17.00447 0.00873
C 2.53971 15.6173 -0.00049
C 3.72781 14.93536 0.00848
C 3.74143 13.53866 -0.01303
C 2.40735 12.79261 -0.01378
C 2.42063 11.42455 0.02635
C 4.89697 21.27417 0.01745
C 15.91359 6.36236 -0.01154
C 4.9158 19.93459 0.00488
C 6.14869 17.77312 -0.02896
C 8.59326 26.38099 0.00406
C 7.39688 25.63697 0.00943
C 7.39911 24.17499 0.02841
C 8.61816 23.38914 -0.01111
C 8.68908 21.92053 -0.01275
C 7.35434 21.25611 0.00985
C 7.3743 19.90179 -0.02245
C 8.57182 19.14105 -0.00428
C 8.61836 27.77776 0.03592
C 8.61496 17.76304 0.03101
C 7.41415 15.6569 -0.02689
C 8.62204 14.94944 -0.01046
C 8.53689 13.47865 -0.00891
C 7.3981 12.81098 0.02819
C 7.33281 11.31102 0.00165
C 8.60278 10.59443 -0.02971
C 8.64082 9.23385 0.02894
C 7.38461 8.46776 -0.01789
C 7.40002 17.04618 -0.01536
C 7.35515 28.42103 0.00572
C 7.36083 29.90668 0.0402
C 8.60583 30.59439 -0.02759
C 4.94157 17.07397 -0.00131
C 4.96425 15.64724 -0.01118
C 6.25908 14.9411 -0.014
C 6.16833 13.4894 0.02147
C 4.88242 12.79277 0.00373
C 4.87262 11.42964 -0.00191
C 6.12339 10.61611 0.00438
C 6.11625 9.2442 0.01291
C 4.85087 8.63118 0.00093
C 4.8348 7.20551 0.00057
C 6.03906 6.48806 -0.01634
C 6.10937 5.06134 -0.00334
C 4.9034 4.3303 0.02339
C 4.89409 2.94374 0.01641
C 6.14899 2.18846 -0.00719
C 6.15103 0.71836 0.01364
C 4.89229 0.03816 -0.01062
C 7.37332 32.7675 -0.00033
C 8.62906 32.00084 0.03589
C 6.18428 19.1468 -0.01004
C 3.61855 31.9341 0.02322
C 15.96789 4.9617 -0.01721
C 14.78594 2.79758 0.01277
C 31.95814 32.68194 0.01713
C 33.16493 32.02728 -0.01694
C 33.16301 30.57686 0.01428
C 31.97544 29.88189 -0.02142
C 31.88988 28.41736 0.0544
C 33.19267 27.73512 0.00026
C 33.07928 26.28446 0.00682
C 31.89641 25.62491 -0.01779
C 29.49709 0.01972 0.00346
C 31.98559 24.29619 0.03794
C 33.06821 22.02505 0.01574
C 31.8218 21.30754 -0.02383
C 31.88676 19.9529 -0.01429
C 33.19212 19.193 -0.0136
C 33.23331 17.80667 0.00594
C 31.99698 16.98067 -0.02474
C 31.95457 15.62478 0.00369
C 33.23584 14.84092 0.00455
C 33.01332 23.43253 0.01927
C 33.24778 13.39923 -0.00644
C 30.67286 0.7072 0.00307
C 29.52214 2.83355 0.02108
C 30.73472 30.49823 -0.01415
C 29.64894 29.70504 -0.03039
C 30.68957 28.00351 0.01836
C 30.86592 19.03072 0.03531
C 30.67517 17.77756 -0.00669
C 29.66726 16.89472 0.0101
C 29.33806 15.60085 0.01705
C 30.69263 14.86036 -0.0405
C 30.73399 2.13436 0.00716
C 30.77827 13.46498 -0.01303
C 29.47476 11.41258 -0.02155
C 30.68147 10.6602 -0.00944
C 30.65002 9.22849 -0.03735
C 29.52744 8.53077 -0.00971
C 29.57939 7.10336 0.01518
C 30.8168 6.37013 0.01908
C 30.73453 4.93259 0.07705
C 29.52263 4.26795 0.0103
C 29.57239 12.76669 -0.01461
C 32.00624 12.76602 -0.01839
C 31.96409 11.37076 0.00137
C 33.20836 10.57582 0.00199
C 1.23689 19.19093 -0.01678
C 1.21149 17.69646 0.01223
C 34.40842 17.04219 0.00648
C 34.42642 15.64726 0.02114
C 1.24226 14.93731 -0.02957
C 1.20469 13.50699 0.00343
C 0.02226 12.71205 -0.02656
C 0.03351 11.3008 -0.02442
C 34.4152 19.94182 0.01951
C 1.22897 10.6218 -0.00027
C 0.0073 8.51273 -0.02302
C 34.43201 7.11802 -0.02849
C 1.23335 6.41511 0.02931
C 1.21805 5.01761 0.00628
C 34.37775 4.28935 -0.0345
C 0.05438 2.91407 -0.00931
C 1.23486 2.13575 -0.00939
C 1.2081 0.72534 -0.00468
C 1.21168 9.18638 -0.00583
C 34.40036 21.40158 -0.02213
C 1.13749 22.09351 0.02712
C 1.21701 23.52716 0.00723
C 33.19919 9.24488 0.04381
C 31.94875 8.53005 0.02806
C 32.01545 7.13485 0.01504
C 33.1949 6.34432 -0.00069
C 33.13946 5.02415 0.04926
C 31.93518 4.22432 -0.03838
C 32.01228 2.80761 0.00349
C 33.19765 2.11814 -0.00323
C 33.17665 0.72604 -0.00841
C 31.9218 34.06938 0.0001
C 34.39306 32.6975 -0.02927
C 1.15098 31.89091 -0.01404
C 1.17327 30.52176 0.01027
C 34.33714 29.83106 0.01831
C 34.40341 28.42623 -0.01037
C 1.18555 27.70067 -0.00439
C 1.15482 26.26326 -0.00598
C 34.3413 25.56497 -0.05239
C 34.38919 24.11385 0.03076
C 30.76533 31.89409 -0.01854
C 29.50922 32.68443 -0.02049
C 27.06962 34.04996 0.03265
C 28.31255 0.6693 0.00261
C 20.85747 32.11709 -0.01107
C 20.84176 13.52981 -0.01586
C 19.64869 12.80819 -0.01971
C 19.65469 11.37678 -0.02118
C 20.89778 10.68191 0.00733
C 20.86628 9.29053 -0.00178
C 19.66117 8.49414 0.00768
C 19.62115 7.06342 -0.0276
C 19.57776 32.49463 0.00071
C 20.86277 6.4007 0.03005
C 19.65461 4.22293 0.02117
C 19.67907 2.87421 0.02737
C 20.91413 2.1182 -0.00498
C 20.84945 0.67376 0.00135
C 19.5637 34.0545 0.03102
C 22.09241 32.54806 0.02555
C 23.38077 31.87593 0.01423
C 23.38765 13.37723 -0.00285
C 20.8726 5.01953 -0.04078
C 17.20682 34.03767 -0.00225
C 18.3911 0.66333 0.01515
C 18.43712 2.13447 -0.0055
C 16.00732 2.12086 0.00096
C 15.96513 0.66286 -0.01527
C 14.72312 0.06308 0.01087
C 17.21596 32.64963 0.00199
C 18.35603 31.76655 0.01511
C 17.15763 29.94962 -0.00478
C 17.29418 15.60548 -0.01662
C 18.41207 14.91481 -0.01185
C 18.40254 13.48854 0.01126
C 17.2366 12.79338 0.01852
C 17.20892 11.34275 -0.00381
C 18.38139 10.68672 0.03046
C 18.49066 9.18457 0.0296
C 17.1856 8.49679 0.03374
C 17.15207 7.10485 -0.02845
C 18.42296 6.31231 -0.03213
C 18.37281 4.92847 0.02239
C 17.08203 4.19426 0.01153
C 17.24003 2.82229 0.02734
C 22.06012 12.85625 -0.009
C 14.67146 4.30323 -0.02422
C 22.15477 11.36564 -0.01199
C 23.27416 9.21031 -0.00938
C 25.77413 0.67836 0.04185
C 24.58098 33.99601 0.00194
C 27.08139 32.51599 -0.00621
C 28.26111 31.85951 0.02611
C 28.45014 30.51017 0.02198
C 28.22873 14.83972 0.01094
C 28.34668 13.47232 0.00235
C 27.12033 12.70869 0.01495
C 25.82394 2.10379 0.02316
C 27.07502 11.29116 0.01259
C 28.29714 9.20571 0.01699
C 26.96714 8.51547 -0.00416
C 27.07013 7.12293 0.01177
C 28.31783 6.39068 0.04266
C 28.30486 4.94794 0.01324
C 27.06853 4.24472 0.0014
C 27.01485 2.89022 0.00924
C 28.28939 2.10434 0.02326
C 28.26987 10.59086 0.01799
C 24.63474 2.82969 0.01257
C 24.57848 4.34841 0.00152
C 25.81409 4.99421 -0.00294
C 22.05212 8.52465 -0.0264
C 22.06229 7.14763 -0.01154
C 23.27718 6.46078 0.00684
C 23.32526 5.01821 -0.01052
C 22.12275 4.34261 -0.01679
C 22.14555 2.78152 0.00367
C 23.38763 2.10116 0.04306
C 23.2888 0.67645 0.00996
C 22.11872 34.07669 0.00195
C 24.53075 32.42691 -0.00802
C 25.85549 31.93725 -0.00218
C 25.97245 13.59674 -0.01654
C 24.70991 13.06693 -0.00037
C 24.66461 11.41568 -0.0032
C 25.85045 10.67364 0.00622
C 25.75275 9.22503 -0.02815
C 24.4949 8.53139 -0.00942
C 24.59639 7.15277 0.00487
C 25.86782 6.43475 0.00826
C 23.3966 10.67663 -0.00229
C 2.44118 32.61755 -0.00094
