380
Graphene
C 34.36032 0.02257 0.01295
C 13.44914 30.58044 -0.01454
C 12.24809 29.82623 0.01945
C 12.3037 28.44772 0.01416
C 13.45969 27.74731 0.03542
C 13.5203 26.27154 0.02299
C 12.27958 25.56709 0.00244
C 12.276 24.16418 -0.01717
C 13.47287 23.39129 0.05265
C 13.51799 21.99387 -0.01952
C 12.28269 21.31053 -0.02813
C 12.35392 19.84627 0.00374
C 13.55657 19.11223 0.00052
C 13.59863 17.75063 -0.03682
C 12.33565 17.11224 0.01965
C 12.35205 15.618 0.02058
C 13.47174 14.84243 -0.01957
C 13.48759 13.4339 -0.0108
C 12.27708 12.79161 -0.00368
C 12.31972 11.38216 -0.02696
C 13.49628 32.00504 0.01241
C 12.3001 32.66022 0.0076
C 9.77723 0.02581 0.02162
C 11.04427 0.72183 -0.0014
C 11.04765 23.49478 -0.01275
C 11.05761 22.0251 0.00985
C 9.82738 21.36648 -0.02245
C 9.86909 19.92799 -0.00428
C 11.12658 19.18864 0.03101
C 11.12719 17.79113 -0.01536
C 9.89748 17.09781 -0.02689
C 9.82366 15.6802 -0.01046
C 11.11881 14.99487 -0.00891
C 13.55374 10.61932 -0.00114
C 11.13032 13.57269 0.02819
C 11.1508 10.66272 -0.02971
C 10.93028 9.27205 0.02894
C 9.865 8.42425 -0.01789
C 9.75183 7.06351 0.00444
C 11.11195 6.415 -0.00925
C 11.03658 4.96166 0.01877
C 9.7771 4.28825 0.01363
C 9.85312 2.83625 -0.02162
C 11.07152 2.18102 0.00415
C 9.96032 12.80537 0.00165
C 13.52609 9.24435 0.00228
C 12.24909 8.56424 0.00798
C 12.31339 7.13553 0.00422
C 16.00217 14.76314 -0.0331
C 16.00906 13.44379 -0.00316
C 14.74553 12.7298 0.02188
C 14.80761 11.29893 -0.01979
C 16.00197 10.6135 0.02691
C 15.97452 9.21089 -0.01581
C 14.77506 8.51291 0.01452
C 14.76446 7.15303 0.04892
C 16.01118 6.45122 -0.00111
C 14.77906 15.50002 -0.0258
C 16.01225 5.00289 -0.03557
C 14.78437 2.85152 0.01739
C 15.97208 2.17089 0.00755
C 15.97164 0.66467 -0.0054
C 14.70963 34.01559 0.00667
C 17.18915 32.62634 0.00143
C 18.41814 31.88965 -0.017
C 18.36153 30.47037 0.00364
C 17.16041 29.76161 -0.00831
C 17.15585 28.36777 -0.02957
C 14.83328 4.31902 0.03754
C 9.80318 24.22627 -0.01111
C 14.76016 16.92745 0.03338
C 16.00827 19.08058 -0.00109
C 13.57166 6.48578 0.0351
C 13.53242 5.07132 -0.03113
C 12.31287 4.30083 0.02098
C 12.32968 2.85554 0.01848
C 13.53717 2.11515 -0.00619
C 13.47482 0.71176 -0.02162
C 12.22819 0.01815 0.00889
C 14.74104 32.60851 -0.00481
C 15.92212 31.88187 0.00979
C 15.99455 17.69243 -0.00491
C 15.95295 30.53417 0.01443
C 14.72011 28.43818 -0.02815
C 15.93754 27.6799 -0.04147
C 15.992 26.27068 -0.05302
C 14.71366 25.49299 0.00213
C 14.63831 24.06075 -0.00066
C 15.91671 23.34297 -0.00289
C 15.96212 21.90028 0.00028
C 14.76132 21.17137 -0.02213
C 14.79236 19.80757 0.03698
C 14.68656 29.86314 0.03505
C 18.41086 27.71377 -0.04422
C 9.91633 25.6961 0.02841
C 11.12011 27.73785 0.00406
C 3.68534 4.98819 -0.05697
C 2.42915 4.24536 0.01087
C 2.37864 2.79631 -0.01343
C 3.59775 2.15129 0.00988
C 3.59731 0.79967 0.0276
C 2.39396 0.04398 0.01305
C 4.85126 32.6647 -0.00077
C 6.09072 32.04066 0.03368
C 6.06043 30.59604 -0.02929
C 4.8279 29.84326 -0.00966
C 4.9205 28.49238 -0.03337
C 6.18065 27.76687 0.01227
C 6.18783 26.36878 0.00873
C 4.88469 25.64863 -0.00049
C 4.92862 24.19759 0.00848
C 6.09675 23.45978 -0.01303
C 6.13745 22.09544 -0.01378
C 4.91814 21.3218 0.02635
C 4.88764 19.89155 0.0127
C 3.69024 6.38931 -0.00725
C 2.44612 7.0675 0.02322
C 2.46215 8.49208 -0.00094
C 3.65102 9.22302 -0.02566
C 3.58982 30.57948 0.00907
C 2.41606 29.85818 0.00643
C 2.47376 28.39941 -0.01509
C 3.70047 27.73627 0.03267
C 3.65243 26.37703 0.02374
C 2.4689 25.57741 0.00402
C 2.45488 24.18243 0.0073
C 3.71381 23.52696 0.0174
C 3.66275 22.09178 0.03828
C 6.16275 19.18122 0.01396
C 2.46659 21.36094 0.01226
C 3.63395 19.18697 0.01996
C 3.64508 17.80013 -0.03996
C 2.41561 17.07771 0.01465
C 2.50037 15.73609 -0.00074
C 3.73772 14.96734 -0.00518
C 3.68838 13.48296 0.0086
C 2.43391 12.74142 -0.00643
C 2.39886 11.38075 0.017
C 3.67077 10.70735 -0.03113
C 2.33353 20.01018 -0.00279
C 6.18794 17.73835 0.01849
C 4.91755 17.16831 -0.01142
C 4.90093 15.70231 -0.00562
C 7.39703 21.31395 0.02147
C 7.38344 19.91326 0.00373
C 8.5967 19.26274 -0.00191
C 8.69284 17.79902 0.00438
C 7.4599 16.94402 0.01291
C 7.57357 15.62503 0.00093
C 8.72911 14.75979 0.00057
C 7.38952 7.12821 -0.01634
C 8.58269 6.45162 -0.00334
C 8.60617 22.1325 -0.014
C 8.54729 4.95919 0.02339
C 7.32988 2.7939 -0.00719
C 8.51196 2.12079 0.01364
C 8.52052 0.67493 -0.01062
C 7.25593 34.06929 -0.00033
C 9.76281 32.70772 0.03589
C 11.04033 31.97789 -0.02759
C 11.03295 30.58044 0.0402
C 9.77958 29.85303 0.00572
C 9.86126 28.48524 0.03592
C 7.35708 4.22706 0.01641
C 11.12019 26.37816 0.00943
C 8.553 23.53442 -0.01118
C 7.42145 25.62799 -0.02896
C 6.16917 14.99868 -0.00494
C 5.92508 13.66285 0.00054
C 5.017 12.67445 0.03007
C 4.78633 11.37501 -0.00095
C 4.92227 8.50603 0.01572
C 4.8911 7.04082 -0.04848
C 6.17372 6.40954 -0.00892
C 6.14495 5.03285 -0.01362
C 4.94246 4.28808 -0.0008
C 7.28219 24.20881 -0.00131
C 4.87618 2.81957 0.0288
C 6.10221 0.73851 0.00895
C 4.86117 0.00949 0.00685
C 7.29152 32.71436 0.02888
C 8.54912 32.073 -0.00482
C 8.58794 30.595 -0.01384
C 7.35839 29.95943 0.03693
C 7.37873 28.47126 0.01745
C 8.64773 27.81021 0.00488
C 8.66651 26.34497 -0.01004
C 6.0784 2.15118 0.00393
C 18.42221 26.27365 0.00654
C 17.20221 25.5053 -0.00703
C 17.2051 24.11542 -0.04076
C 30.67827 22.00315 0.02108
C 29.41745 21.27094 0.00716
C 29.42776 19.63378 0.00307
C 30.76402 19.21012 0.00346
C 30.67663 6.40362 0.01713
C 30.50199 5.0741 -0.01694
C 29.37683 4.27157 0.01428
C 29.45223 2.82525 -0.02142
C 30.66054 2.1614 0.0544
C 30.7091 0.73243 0.00026
C 29.49311 0.01374 0.00682
C 31.9358 32.71475 -0.01779
C 33.18378 32.06097 0.03794
C 33.19771 30.56461 0.01927
C 31.97877 29.79428 0.01574
C 32.05379 28.44265 -0.02383
C 33.23695 27.68873 -0.01429
C 33.21886 26.26302 -0.0136
C 31.9763 25.56447 0.00594
C 30.71473 23.39412 0.0103
C 29.53699 24.11698 0.07705
C 29.50185 25.57678 0.01908
C 30.7694 26.2064 0.01518
C 28.25438 27.6956 0.00924
C 28.29801 26.34889 0.02326
C 27.04299 25.60855 0.00261
C 27.08818 24.14211 0.03265
C 28.26984 23.33419 -0.02049
C 28.17182 21.97237 -0.01854
C 26.95771 21.13194 -0.01415
C 26.89249 19.62483 -0.03039
C 28.20727 19.0904 0.01836
C 31.9408 24.18836 -0.02474
C 26.97102 4.27599 0.03531
C 28.22072 2.09559 0.0101
C 28.21045 0.67569 0.01705
C 26.87395 34.00132 -0.0405
C 29.4802 32.65907 -0.01303
C 30.73156 31.92986 -0.01461
C 30.76905 30.52362 -0.02155
C 29.58705 29.79257 -0.00944
C 29.58166 28.40972 -0.03735
C 30.79062 27.64095 -0.00971
C 26.9748 2.82155 -0.00669
C 33.16118 23.50015 0.00369
C 33.10856 22.06221 0.00455
C 31.91554 21.30387 -0.00644
C 34.38489 21.36973 -0.02213
C 34.35308 19.96138 0.01951
C 1.1458 19.20674 -0.01678
C 1.17282 17.75354 0.01223
C 34.19989 16.97975 0.00648
C 0.1035 15.69103 0.02114
C 1.21509 14.90709 -0.02957
C 1.15969 13.51217 0.00343
C 0.11071 12.70748 -0.02656
C 1.20166 22.10904 0.02712
C 0.08361 11.40874 -0.02442
C 1.22318 9.0962 -0.00583
C 0.04946 8.54713 -0.02302
C 0.00352 7.11732 -0.02849
C 1.2212 6.39888 0.02931
C 1.14375 4.98029 0.00628
C 34.39916 4.32809 -0.0345
C 34.36549 2.90826 -0.00931
C 1.1228 2.20077 -0.00939
C 1.17401 0.73881 -0.00468
C 1.2147 10.61406 -0.00027
C 26.99042 28.53426 0.0014
C 1.21018 23.51113 0.00723
C 0.00458 25.57204 -0.05239
C 31.90503 19.92475 -0.01839
C 33.17641 19.2221 0.00137
C 33.11361 17.81142 0.00199
C 33.27504 9.22532 0.04381
C 32.19688 8.44561 0.02806
C 31.81697 7.15279 0.01504
C 33.16379 6.39758 -0.00069
C 33.09799 4.98827 0.04926
C 31.85182 4.29344 -0.03838
C 34.39795 24.1522 0.03076
C 31.88365 2.94042 0.00349
C 33.14927 0.73818 -0.00841
C 31.94943 0.06945 0.0001
C 34.3657 32.71551 -0.02927
C 1.17745 32.04699 -0.01404
C 1.18345 30.61226 0.01027
C 34.38309 29.85641 0.01831
C 0.01299 28.44121 -0.01037
C 1.23223 27.72521 -0.00439
C 1.21156 26.32747 -0.00598
C 33.14641 2.18128 -0.00323
C 27.1311 29.9297 0.01324
C 28.38866 30.54058 0.04266
C 28.29123 32.00185 0.01177
C 20.87126 31.88106 0.0296
C 19.66636 29.8871 0.03374
C 19.79186 28.52772 -0.02845
C 20.92925 27.59662 -0.03213
C 20.92631 26.25675 0.02239
C 19.6873 25.52848 0.01153
C 19.65638 24.07752 0.02734
C 20.95581 23.34485 -0.0055
C 20.8926 21.94858 0.01515
C 19.65678 32.63339 0.03046
C 19.67733 21.19599 -0.00225
C 20.87412 19.113 -0.01107
C 20.83181 17.73734 -0.01586
C 19.63206 16.98773 -0.01971
C 19.7204 15.51781 -0.02118
C 20.97402 14.92169 0.00733
C 20.8942 13.50036 -0.00178
C 19.76237 12.63799 0.00768
C 19.78692 11.24797 -0.0276
C 21.07814 10.47771 0.03005
C 19.66046 19.77435 0.00071
C 20.9866 9.09301 -0.04078
C 17.17563 34.04425 -0.00381
C 18.45615 2.12035 0.01126
C 18.41062 23.49551 -0.00652
C 18.4078 21.98081 0.0058
C 17.16146 21.21869 -0.00865
C 17.21908 19.82703 0.00675
C 18.38418 19.08395 -0.00311
C 18.38395 17.66981 0.00742
C 17.19387 16.92408 -0.01594
C 17.15202 15.55148 0.0106
C 18.39637 14.87035 -0.01154
C 18.3837 0.7023 0.01852
C 18.48936 13.35682 -0.01721
C 17.2475 11.26366 0.01277
C 18.49092 10.58167 0.00096
C 18.42623 9.23137 -0.01527
C 17.22221 8.5626 0.01087
C 17.26937 7.15163 0.00199
C 18.43043 6.42956 0.01511
C 18.45652 4.99796 -0.00478
C 17.23303 4.29218 -0.01662
C 17.20688 2.86069 -0.01185
C 17.21406 12.68947 -0.02422
C 3.62264 31.95735 0.02379
C 19.63674 8.51466 0.02117
C 21.00789 6.36364 -0.00498
C 22.06263 2.83732 -0.02815
C 23.28365 2.1434 -0.00942
C 23.20128 0.59006 0.00487
C 21.94028 34.0276 0.00826
C 25.94016 27.72564 -0.00294
C 25.92322 26.29864 0.00152
C 24.70052 25.65886 0.01257
C 24.64942 24.12896 0.02316
C 25.88257 23.40578 0.04185
C 22.00634 4.25867 0.00622
C 25.82246 21.97429 0.00194
C 24.48738 19.84534 0.02611
C 25.63845 18.94547 0.02198
C 25.00046 17.59444 0.01094
C 24.4808 4.2425 0.00235
C 24.50809 2.88526 0.01495
C 25.68647 2.13165 0.01259
C 25.70922 0.63464 0.01799
C 24.46905 0.04475 0.01699
C 26.95364 32.51727 -0.00416
C 24.54633 21.28803 -0.00621
C 19.73116 7.11409 0.02737
C 23.28097 4.91393 -0.0032
C 22.08049 11.40689 -0.01654
C 20.88422 4.98481 0.00135
C 19.70167 4.25818 0.03102
C 19.64876 2.80351 0.02555
C 20.85722 2.10559 0.01423
C 20.80488 0.69561 -0.00285
C 19.61057 34.06454 -0.009
C 23.4006 26.18243 -0.01199
C 22.1149 25.44696 -0.00229
C 22.22266 24.06559 -0.00938
C 22.0921 7.18679 -0.00037
C 23.37961 23.3721 -0.0264
C 22.0979 21.26834 0.00684
C 22.11945 19.85843 -0.01052
C 23.35383 19.13954 -0.01679
C 23.62518 17.66008 0.00367
C 22.25941 16.99334 0.04306
C 22.13957 15.63689 0.00996
C 23.32027 14.95688 0.00195
C 23.30673 13.62916 -0.00802
C 22.33333 12.74572 -0.00218
C 23.35359 22.03262 -0.01154
C 2.4011 32.66221 0.01402
