414
Graphene
C 34.37848 34.04556 0.01295
C 12.24397 15.67969 0.00985
C 13.51019 14.92395 -0.02245
C 13.52042 13.53112 -0.00428
C 12.23921 12.96091 0.03101
C 12.28252 11.51362 -0.01536
C 13.47175 10.74348 -0.02689
C 13.44618 0.58557 -0.01046
C 12.21855 34.0768 -0.00891
C 14.7687 32.69556 0.02819
C 16.02915 31.91881 0.00165
C 16.03918 30.4083 -0.02971
C 14.77561 29.72887 0.02894
C 14.75594 28.39482 -0.01789
C 15.9841 27.55935 0.00444
C 15.9672 26.1428 -0.00925
C 14.74551 25.4994 0.01877
C 14.82105 24.11148 0.01363
C 15.98229 23.34298 -0.02162
C 15.93721 21.95863 0.00415
C 14.76808 21.24292 -0.0014
C 14.69614 19.84016 0.02162
C 12.25442 17.12897 -0.01275
C 13.43843 17.79992 -0.01111
C 13.37511 19.21923 0.02841
C 12.11529 19.89574 0.00943
C 9.85212 11.37016 -0.014
C 11.12803 10.70681 0.02147
C 11.06497 9.34708 0.00373
C 10.0555 8.43946 -0.00191
C 9.75629 7.07568 0.00438
C 9.8793 4.54721 0.01291
C 9.9861 3.05499 0.00093
C 11.067 2.13561 0.00057
C 10.93865 0.74816 -0.01634
C 9.77065 0.08029 -0.00334
C 15.91957 19.13716 0.0076
C 12.27775 32.65317 0.02339
C 13.56734 30.46448 -0.00719
C 12.30519 29.77729 0.01364
C 12.30314 28.38436 -0.01062
C 13.53042 27.66157 -0.00033
C 13.53323 26.26129 0.03589
C 12.25749 25.60957 -0.02759
C 12.29366 24.21023 0.0402
C 13.54024 23.43091 0.00572
C 13.55547 22.002 0.03592
C 12.22682 21.37236 0.00406
C 13.52469 31.90883 0.01641
C 15.92852 17.81922 0.01241
C 14.67946 17.11012 -0.01454
C 14.72062 15.67555 0.01945
C 17.25185 12.78877 -0.02162
C 17.23591 11.34059 0.00889
C 18.42343 10.65992 -0.00481
C 18.54521 9.3479 0.00979
C 18.7294 2.06923 0.01443
C 18.46556 0.77164 0.03505
C 17.20378 0.08158 -0.02815
C 19.58758 32.64762 -0.04147
C 20.83216 31.94055 -0.05302
C 20.8674 30.44784 0.00213
C 18.50825 13.51176 -0.00619
C 19.64051 29.75654 -0.00066
C 20.83512 27.61839 0.00028
C 20.85364 26.23392 -0.02213
C 19.58629 25.62258 0.03698
C 19.60747 24.14059 -0.00109
C 20.85069 23.44073 -0.00491
C 20.8057 22.04255 0.03338
C 19.66148 21.31032 -0.0258
C 19.70114 19.87962 -0.0331
C 20.91754 19.18516 -0.00316
C 20.88693 17.71135 0.02188
C 19.61065 28.36038 -0.00289
C 9.78388 12.75113 -0.01118
C 18.43097 14.87171 0.01848
C 17.18151 17.03169 -0.03113
C 15.99747 14.94668 0.01416
C 15.94825 13.44892 0.03542
C 14.76655 12.74071 0.02299
C 14.75667 11.33101 0.00244
C 16.00337 10.69722 -0.01717
C 15.9798 0.64998 0.05265
C 14.67655 0.06048 -0.01952
C 17.2262 32.66417 -0.02813
C 18.39362 31.89206 0.00374
C 18.42813 30.5143 0.00052
C 17.22315 15.62831 0.02098
C 17.32933 29.75966 -0.03682
C 18.43865 27.57629 0.02058
C 18.34291 26.24271 -0.01957
C 17.15897 25.48463 -0.0108
C 17.13791 24.10031 -0.00368
C 18.35594 23.43492 -0.02696
C 18.40271 21.99517 -0.00114
C 17.19168 21.24452 0.00228
C 17.21612 19.79735 0.00798
C 18.44746 19.1549 0.00422
C 18.45783 17.6741 0.0351
C 17.27991 28.35062 0.01965
C 10.95332 13.59062 -0.00131
C 11.02533 14.99157 -0.02896
C 11.05054 17.81605 -0.01004
C 2.34836 2.8201 0.04505
C 3.6436 2.2017 0.03284
C 3.67617 0.79178 -0.04307
C 2.41034 0.03414 0.03189
C 4.81289 32.71815 0.00031
C 6.09291 32.05108 -0.003
C 6.023 30.5589 0.01402
C 4.81779 29.8139 0.02379
C 4.87619 28.4253 0.00907
C 6.11286 27.71216 0.00643
C 2.41494 4.23686 -0.04999
C 6.13818 26.27976 -0.01509
C 4.92659 24.06439 0.02374
C 6.20319 23.36436 0.00402
C 6.12679 21.98682 0.0073
C 4.86914 21.34429 0.0174
C 4.87068 19.90192 0.03828
C 6.2155 19.30851 0.01226
C 4.99475 17.01605 -0.00279
C 4.9886 15.62114 0.01996
C 6.25618 13.54703 -0.03996
C 4.95614 12.86363 0.01465
C 4.93381 25.46453 0.03267
C 4.89669 11.399 -0.00074
C 3.66778 4.95411 -0.03291
C 2.40937 7.10104 0.01707
C 3.65768 30.54805 0.03278
C 2.3717 29.76724 -0.00177
C 2.38457 28.41244 0.04421
C 3.63551 27.68446 0.00088
C 3.71253 26.27419 0.00828
C 2.42597 25.5637 -0.02375
C 2.48898 24.08846 0.00558
C 3.64089 23.40564 -0.0059
C 3.7037 21.99028 -0.01386
C 2.4241 21.31041 -0.02805
C 3.6082 6.37358 0.02769
C 2.3512 19.8829 0.00081
C 3.81001 17.71054 0.02728
C 2.49657 17.03539 -0.00039
C 2.58626 15.62323 0.0064
C 3.7632 14.93857 0.00211
C 3.71955 13.53052 -0.00449
C 2.48703 12.75807 -0.01979
C 2.47917 11.43308 0.02784
C 3.66425 10.68898 -0.01977
C 3.60907 9.24763 -0.00561
C 2.41774 8.51431 0.00208
C 3.64488 19.16013 0.00245
C 19.67738 16.9521 -0.01979
C 6.16792 10.6858 -0.00518
C 4.8256 8.51583 -0.00643
C 7.3262 7.18678 0.01849
C 8.51769 6.49963 -0.01142
C 8.55867 5.08419 -0.00562
C 7.38764 4.32546 -0.00494
C 7.43926 2.94754 0.00054
C 8.64827 2.23111 0.03007
C 8.609 0.83864 -0.00095
C 7.37134 0.14147 0.01572
C 9.76277 32.72547 -0.04848
C 11.04841 31.94985 -0.00892
C 7.33839 8.54242 0.01396
C 11.09032 30.55817 -0.01362
C 9.7727 28.48277 0.0288
C 10.9781 27.74508 0.00393
C 11.0177 26.35584 0.00895
C 9.80708 25.6873 0.00685
C 9.85956 24.22048 0.02888
C 11.04827 23.54727 -0.00482
C 11.03783 22.1167 -0.01384
C 9.83404 21.42775 0.03693
C 9.73132 19.94359 0.01745
C 10.78869 19.16708 0.00488
C 9.81459 29.98166 -0.0008
C 6.12184 9.27841 0.0086
C 8.65196 9.25431 0.0127
C 7.38739 11.41126 -0.01378
C 4.83575 7.11789 0.017
C 6.13718 6.3889 -0.03113
C 6.11688 5.00127 -0.02566
C 4.85971 4.37634 -0.00094
C 4.89305 2.92158 0.02322
C 6.18295 2.18573 -0.00725
C 6.13675 0.77174 -0.05697
C 4.87963 0.10427 0.01087
C 7.38186 32.7814 -0.01343
C 8.57112 32.04652 0.00988
C 8.67748 10.6671 0.02635
C 8.48452 30.64997 0.0276
C 7.2736 28.47144 -0.00077
C 8.47443 27.823 0.03368
C 8.57383 26.36221 -0.02929
C 7.38638 25.59227 -0.00966
C 7.40329 24.13583 -0.03337
C 8.64462 23.4732 0.01227
C 8.59826 22.09922 0.00873
C 7.37167 21.29832 -0.00049
C 7.42345 19.91258 0.00848
C 7.43036 12.75878 -0.01303
C 7.29781 29.85478 0.01305
C 19.64865 15.60065 0.02691
C 20.95943 14.8712 -0.01581
C 20.94792 13.41903 0.01452
C 30.70603 10.62697 -0.00944
C 30.74417 9.26744 -0.03735
C 29.50831 8.4761 -0.00971
C 29.48326 7.07846 0.01518
C 30.74965 6.37718 0.01908
C 30.71664 4.93569 0.07705
C 29.49467 4.16916 0.0103
C 29.51914 2.85061 0.02108
C 30.71577 2.06267 0.00716
C 30.73604 0.65754 0.00307
C 29.47898 11.37821 -0.02155
C 29.53735 34.04352 0.00346
C 33.25933 31.89139 -0.01694
C 33.17057 30.48121 0.01428
C 31.90932 29.82209 -0.02142
C 31.8711 28.37769 0.0544
C 33.09028 27.66826 0.00026
C 33.11985 26.21419 0.00682
C 31.93868 25.49734 -0.01779
C 31.9411 24.12709 0.03794
C 33.21296 23.40345 0.01927
C 33.17095 21.99781 0.01574
C 31.96751 32.61686 0.01713
C 31.96825 21.29279 -0.02383
C 29.50366 12.80603 -0.01461
C 30.70355 14.92354 -0.0405
C 27.05745 4.22241 0.01495
C 27.09109 2.82984 0.01259
C 28.30372 2.11741 0.01799
C 28.31422 0.70007 0.01699
C 27.10287 0.01303 -0.00416
C 29.46266 32.6659 0.01177
C 30.76122 31.90599 0.04266
C 30.72337 30.54982 0.01324
C 29.53867 29.81407 0.0014
C 29.47983 28.37289 0.00924
C 30.71933 13.47928 -0.01303
C 30.69925 27.6266 0.02326
C 29.49063 25.62584 0.03265
C 29.52651 24.13241 -0.02049
C 30.72072 23.35097 -0.01854
C 30.66417 21.94044 -0.01415
C 29.51519 21.30818 -0.03039
C 29.48227 19.84182 0.01836
C 30.66637 19.12557 0.03531
C 30.70664 17.6908 -0.00669
C 29.4874 16.99893 0.0101
C 29.47674 15.583 0.01705
C 30.71406 26.25434 0.00261
C 28.31993 4.90452 0.00235
C 31.93596 19.87773 -0.01429
C 33.175 17.72648 0.00594
C 1.27761 23.43858 0.00723
C 1.22687 22.0634 0.02712
C 34.42721 21.35684 -0.02213
C 34.36939 19.91523 0.01951
C 1.16522 19.15643 -0.01678
C 1.22637 17.70849 0.01223
C 0.00567 17.03666 0.00648
C 0.01005 15.66547 0.02114
C 1.32973 14.91708 -0.02957
C 1.26394 13.51446 0.00343
C 34.42621 24.11378 0.03076
C 0.0253 12.78584 -0.02656
C 1.22118 10.70464 -0.00027
C 1.15529 9.19572 -0.00583
C 34.35725 8.45326 -0.02302
C 34.4062 7.10009 -0.02849
C 1.1591 6.41186 0.02931
C 1.16351 4.99825 0.00628
C 34.38699 4.21837 -0.0345
C 34.38812 2.81774 -0.00931
C 1.13404 2.13899 -0.00939
C 1.17485 0.69606 -0.00468
C 34.41613 11.39197 -0.02442
C 33.16594 19.14652 -0.0136
C 34.41097 25.58729 -0.05239
C 1.20845 27.68742 -0.00439
C 31.96031 17.04912 -0.02474
C 31.91586 15.64974 0.00369
C 33.18281 14.94203 0.00455
C 33.24788 13.52528 -0.00644
C 31.95137 12.80173 -0.01839
C 31.91907 11.32252 0.00137
C 33.16478 10.60602 0.00199
C 33.15965 9.20971 0.04381
C 31.9846 8.49284 0.02806
C 31.94647 7.1181 0.01504
C 1.21899 26.32562 -0.00598
C 33.21322 6.39123 -0.00069
C 31.93124 4.25268 -0.03838
C 31.945 2.84569 0.00349
C 33.1885 2.12686 -0.00323
C 33.19426 0.73032 -0.00841
C 31.98434 0.01686 0.0001
C 0.02847 32.6202 -0.02927
C 1.17955 31.96569 -0.01404
C 1.16289 30.48457 0.01027
C 34.36419 29.75698 0.01831
C 34.37365 28.40779 -0.01037
C 33.1693 4.98203 0.04926
C 3.6206 31.99197 0.01138
C 28.26301 6.32466 0.01094
C 27.05353 8.48405 0.02611
C 23.37189 19.17862 -0.01721
C 23.35556 17.73299 -0.02422
C 22.16864 17.02229 0.01277
C 22.16974 15.5604 0.00096
C 23.43313 14.87238 -0.01527
C 23.38792 13.4104 0.01087
C 22.1917 12.73872 0.00199
C 22.15275 11.33422 0.01511
C 23.35732 10.5304 -0.00478
C 23.39049 9.13668 -0.01662
C 22.14646 19.93255 -0.01154
C 22.06383 8.52383 -0.01185
C 23.29467 6.44981 0.01852
C 23.36472 5.01752 -0.00381
C 22.18483 4.25401 0.03046
C 22.23002 2.87705 0.0296
C 23.42987 2.11346 0.03374
C 23.39893 0.73762 -0.02845
C 22.19002 0.02954 -0.03213
C 24.51936 32.67551 0.02239
C 25.8047 31.99765 0.01153
C 25.74461 30.5572 0.02734
C 22.13179 7.1211 0.01126
C 24.52286 29.87928 -0.0055
C 22.08875 21.31321 0.0106
C 23.29333 23.48318 0.00742
C 19.69989 12.72956 0.04892
C 19.68047 11.37116 -0.00111
C 20.87335 10.64504 -0.03557
C 20.83766 9.22132 0.03754
C 19.55994 8.47622 0.01739
C 19.74348 7.08777 0.00755
C 20.98541 6.39529 -0.0054
C 20.98604 4.97486 0.00667
C 19.74646 4.33132 0.00143
C 19.70757 2.90058 -0.017
C 23.33824 22.02005 -0.01594
C 21.01451 2.15367 0.00364
C 19.68577 34.06821 -0.02957
C 22.10244 32.69273 -0.04422
C 23.32719 31.95541 0.00654
C 23.29542 30.50388 -0.00703
C 22.14667 29.76552 -0.04076
C 22.06146 28.38002 -0.00652
C 23.33212 27.69757 0.0058
C 23.27657 26.23718 -0.00865
C 22.05508 25.53842 0.00675
C 22.07223 24.16844 -0.00311
C 20.94895 0.68308 -0.00831
C 27.00801 7.06156 0.02198
C 24.5669 28.45388 0.01515
C 25.7827 26.30805 0.00071
C 28.31245 31.93343 -0.01679
C 28.2315 30.5196 0.00367
C 27.0281 29.84069 0.04306
C 27.01694 28.38856 0.00996
C 28.23849 27.6842 0.00195
C 28.21839 26.30929 -0.00802
C 27.04048 25.60234 -0.00218
C 27.00577 24.15298 -0.01654
C 28.2732 23.41734 -0.00037
C 28.28763 22.02532 -0.0032
C 27.02523 32.66928 -0.01052
C 27.02925 21.33293 0.00622
C 28.27293 19.14897 -0.00942
C 28.23876 17.69761 0.00487
C 27.00011 16.98653 0.00826
C 26.97715 15.5658 -0.00294
C 28.20915 14.84648 0.00152
C 28.31604 13.49753 0.01257
C 27.05153 12.72903 0.02316
C 27.02483 11.29168 0.04185
C 28.2503 10.62073 0.00194
C 28.25493 9.19575 -0.00621
C 27.08357 19.89962 -0.02815
C 25.81936 27.66789 -0.00225
C 24.53489 34.03791 0.00684
C 25.85428 2.12232 -0.0264
C 24.53132 25.54541 -0.01107
C 24.53912 24.12215 -0.01586
C 25.7824 23.41127 -0.01971
C 25.80392 22.00079 -0.02118
C 24.54351 21.39461 0.00733
C 24.62258 19.87208 -0.00178
C 25.83927 19.16893 0.00768
C 25.83082 17.76485 -0.0276
C 24.57559 16.9876 0.03005
C 24.59144 15.5586 -0.04078
C 25.86055 0.71411 -0.01154
C 25.78443 14.8509 0.02117
C 24.58709 12.69935 -0.00498
C 24.57467 11.22539 0.00135
C 25.82211 10.54191 0.03102
C 25.85449 9.1316 0.02555
C 24.64551 8.48697 0.01423
C 24.56499 7.09917 -0.00285
C 25.78957 6.41134 -0.009
C 25.86151 4.9782 -0.01199
C 24.56467 4.2653 -0.00229
C 24.67525 2.81753 -0.00938
C 25.81267 13.40722 0.02737
C 2.40767 32.68145 -0.00407
