365
Graphene
C 34.38803 0.00446 0.01295
C 11.05139 10.61264 0.00052
C 11.04386 9.25815 -0.03682
C 9.83458 8.50962 0.01965
C 9.77822 7.02229 0.02058
C 11.02725 6.40793 -0.01957
C 10.99872 4.97876 -0.0108
C 9.75929 4.26579 -0.00368
C 9.78198 2.85238 -0.02696
C 9.78422 11.2987 0.00374
C 11.05612 2.14723 -0.00114
C 9.79777 0.00305 0.00798
C 12.30716 32.66285 0.00422
C 13.58595 32.03069 0.0351
C 13.49566 30.54735 -0.03113
C 12.26484 29.87884 0.02098
C 12.28378 28.42152 0.01848
C 13.45683 27.6414 -0.00619
C 13.47123 26.25977 -0.02162
C 11.0389 0.68827 0.00228
C 9.82496 12.77709 -0.02813
C 11.04694 13.45146 -0.01952
C 11.03223 14.81692 0.05265
C 8.55131 0.72457 0.02894
C 7.32276 0.0245 -0.01789
C 9.82765 32.67604 0.00444
C 11.05723 31.98423 -0.00925
C 11.07227 30.56612 0.01877
C 9.82291 29.89948 0.01363
C 9.79987 28.4542 -0.02162
C 11.01406 27.76051 0.00415
C 11.04159 26.29091 -0.0014
C 9.79146 25.58776 0.02162
C 9.8959 24.13262 0.0076
C 11.11108 23.51691 0.01241
C 11.08159 22.0428 -0.01454
C 9.87843 21.32927 0.01945
C 9.95339 19.93535 0.01416
C 11.19509 19.19684 0.03542
C 11.12683 17.75462 0.02299
C 9.85967 17.0531 0.00244
C 9.841 15.59746 -0.01717
C 12.24711 25.55003 0.00889
C 12.34505 24.12566 -0.00481
C 13.7052 23.71322 0.00979
C 12.35406 21.46563 0.01443
C 14.66569 29.7067 -0.03557
C 14.71559 28.26611 0.03754
C 15.93973 27.42506 0.01739
C 15.86204 25.91902 0.00755
C 14.6035 25.17388 -0.0054
C 15.88795 17.80981 0.00667
C 14.68506 17.01929 0.00143
C 14.80901 15.58908 -0.017
C 16.03226 14.82746 0.00364
C 16.09562 13.29328 -0.00831
C 14.82527 12.73325 -0.02957
C 14.86676 11.3269 -0.04422
C 16.05754 10.6084 0.00654
C 15.96167 9.18616 -0.00703
C 14.81047 8.45657 -0.04076
C 14.81058 7.09839 -0.00652
C 15.9289 6.28934 0.0058
C 15.90474 4.87537 -0.00865
C 14.67146 4.21017 0.00675
C 15.92085 30.51068 -0.00111
C 8.54437 2.15419 -0.02971
C 15.9835 31.94117 0.04892
C 12.30693 0.03522 -0.01581
C 12.55038 20.05337 0.03505
C 13.5846 19.12432 -0.02815
C 13.4544 17.69507 -0.04147
C 12.25676 16.99547 -0.05302
C 12.2645 15.54773 0.00213
C 13.57651 14.87054 -0.00066
C 13.55643 13.43373 -0.00289
C 12.34146 12.7741 0.00028
C 12.34073 11.34473 -0.02213
C 13.59623 10.71203 0.03698
C 13.56446 9.25308 -0.00109
C 12.37501 8.53174 -0.00491
C 12.25298 7.07465 0.03338
C 13.56769 6.38816 -0.0258
C 13.41444 4.96387 -0.0331
C 12.21519 4.24158 -0.00316
C 12.25917 2.85095 0.02188
C 13.49278 2.10803 -0.01979
C 13.574 0.70487 0.02691
C 14.80115 32.72293 0.01452
C 7.30022 2.87127 0.00165
C 7.33044 4.3076 0.02819
C 8.61673 4.97424 -0.00891
C 3.64183 6.47832 0.00848
C 3.6619 5.05008 -0.01303
C 2.42991 4.34074 -0.01378
C 2.40119 2.87541 0.02635
C 3.63341 2.08599 0.0127
C 3.62405 0.69542 0.01396
C 2.40449 0.03002 0.01849
C 4.85018 32.67385 -0.01142
C 6.10135 31.99761 -0.00562
C 6.14019 30.61732 -0.00494
C 4.93076 29.8501 0.00054
C 4.90211 28.33834 0.03007
C 6.16809 27.60571 -0.00095
C 6.14337 26.26551 0.01572
C 4.88186 25.55534 -0.04848
C 4.9053 24.20874 -0.00892
C 6.11093 23.42602 -0.01362
C 6.11583 21.98715 -0.0008
C 4.83519 21.35531 0.0288
C 2.47095 7.21813 -0.00049
C 4.95571 19.91977 0.00393
C 2.4191 8.61503 0.00873
C 3.62608 10.75564 -0.03337
C 3.67234 30.5335 -0.00518
C 2.46822 29.83795 0.0086
C 2.45287 28.41093 -0.00643
C 3.69724 27.72434 0.017
C 3.63225 26.30668 -0.03113
C 2.37769 25.55427 -0.02566
C 2.37234 24.22687 -0.00094
C 3.61908 23.48793 0.02322
C 3.66511 22.01986 -0.00725
C 2.42998 21.32153 -0.05697
C 2.43997 19.85719 0.01087
C 3.66152 19.19576 -0.01343
C 3.74837 17.80167 0.00988
C 2.41578 17.00972 0.0276
C 2.50547 15.62437 0.01305
C 3.71654 14.96436 -0.00077
C 3.61895 13.55055 0.03368
C 2.4356 12.90822 -0.02929
C 2.43833 11.39964 -0.00966
C 3.66724 9.29402 0.01227
C 14.71896 2.85425 -0.00311
C 6.20832 19.21851 0.00895
C 4.9389 17.10305 0.02888
C 7.37936 25.55416 -0.01062
C 7.37028 24.14333 -0.00033
C 8.6796 23.51078 0.03589
C 8.66462 22.03535 -0.02759
C 7.42238 21.32677 0.0402
C 7.4691 19.89168 0.00572
C 8.67011 19.18582 0.03592
C 8.65641 17.74702 0.00406
C 7.40178 17.05282 0.00943
C 7.41895 15.67561 0.02841
C 8.58393 14.80744 -0.01111
C 8.60766 13.47873 -0.01275
C 7.336 12.81363 0.00985
C 7.30797 11.29713 -0.02245
C 8.58955 10.66637 -0.00428
C 8.57895 9.23214 0.03101
C 7.31173 8.51601 -0.01536
C 7.33839 7.09585 -0.02689
C 8.53745 6.42718 -0.01046
C 8.57294 26.34115 0.01364
C 6.18661 17.81018 0.00685
C 8.61014 27.73899 -0.00719
C 7.37488 29.8899 0.02339
C 4.95503 15.72416 -0.00482
C 6.14453 14.97688 -0.01384
C 6.10014 13.58201 0.03693
C 4.88976 12.87559 0.01745
C 4.9027 11.47355 0.00488
C 6.10617 10.66233 -0.01004
C 6.0882 9.23976 -0.02896
C 4.82609 8.56271 -0.00131
C 4.935 7.1322 -0.01118
C 6.11687 6.44536 -0.014
C 6.07871 5.01398 0.02147
C 4.89123 4.34671 0.00373
C 4.80522 2.88324 -0.00191
C 6.06113 2.13243 0.00438
C 6.09955 0.70161 0.01291
C 4.85659 34.06019 0.00093
C 7.39635 32.69797 0.00057
C 8.58919 31.9892 -0.01634
C 8.58783 30.61999 -0.00334
C 7.36499 28.43831 0.01641
C 3.59762 31.96239 -0.00074
C 16.02849 2.20836 0.00742
C 14.74841 0.08199 0.0106
C 30.76028 2.11851 0.00346
C 30.73677 0.67129 0.01713
C 29.5186 0.08748 -0.01694
C 31.93829 32.72384 0.01428
C 33.20294 31.91452 -0.02142
C 33.14931 30.5592 0.0544
C 31.93827 29.84512 0.00026
C 31.91585 28.42758 0.00682
C 30.58577 13.53358 0.00307
C 33.17639 27.71707 -0.01779
C 31.90092 25.57535 0.01927
C 31.90916 24.17799 0.01574
C 33.17033 23.46499 -0.02383
C 33.20458 22.01289 -0.01429
C 31.97571 21.27495 -0.0136
C 31.98323 19.83093 0.00594
C 33.17747 19.18347 -0.02474
C 33.15993 17.71082 0.00369
C 33.1847 26.27235 0.03794
C 30.74675 14.88533 0.00716
C 29.47044 15.59697 0.02108
C 29.47335 16.98997 0.0103
C 27.12134 15.65345 -0.02049
C 28.20308 14.99212 -0.01854
C 28.19761 0.64801 -0.01415
C 27.08204 0.00748 -0.03039
C 29.41608 32.76416 0.01836
C 30.63747 32.06104 0.03531
C 30.71688 30.5605 -0.00669
C 29.39699 29.87254 0.0101
C 29.44348 28.42883 0.01705
C 30.70592 27.72102 -0.0405
C 30.71997 26.31132 -0.01303
C 29.46154 25.59356 -0.01461
C 29.49334 24.17566 -0.02155
C 30.69512 23.39278 -0.00944
C 30.71108 22.06701 -0.03735
C 29.50342 21.35187 -0.00971
C 29.51008 19.88465 0.01518
C 30.75398 19.19858 0.01908
C 30.72249 17.70575 0.07705
C 31.94719 17.01049 0.00455
C 31.94161 15.62985 -0.00644
C 33.09856 14.93253 -0.01839
C 33.10585 13.48828 0.00137
C 34.36903 19.88435 0.01951
C 1.21752 19.16791 -0.01678
C 1.21594 17.71254 0.01223
C 34.39498 17.05467 0.00648
C 34.37018 15.64354 0.02114
C 1.15014 14.903 -0.02957
C 1.15234 13.46919 0.00343
C 34.33152 12.72061 -0.02656
C 34.34529 11.28227 -0.02442
C 1.20399 10.71506 -0.00027
C 1.15776 9.2236 -0.00583
C 0.00499 8.4936 -0.02302
C 0.07124 7.1481 -0.02849
C 1.25072 6.44724 0.02931
C 1.17951 5.04543 0.00628
C 34.41363 4.38591 -0.0345
C 34.42437 2.94174 -0.00931
C 1.21197 2.13726 -0.00939
C 1.19285 0.71085 -0.00468
C 0.01395 21.30614 -0.02213
C 26.99739 17.11001 0.03265
C 1.19699 22.00702 0.02712
C 34.37238 24.16123 0.03076
C 31.78667 12.85266 0.00199
C 32.12606 11.45151 0.04381
C 33.11796 10.52344 0.02806
C 33.09453 9.07826 0.01504
C 33.27753 6.52362 -0.00069
C 33.18727 5.11776 0.04926
C 31.98904 4.25135 -0.03838
C 31.92794 2.90039 0.00349
C 33.17221 2.18404 -0.00323
C 33.1685 0.72925 -0.00841
C 31.99413 0.06328 0.0001
C 34.39039 32.61634 -0.02927
C 1.23758 31.94935 -0.01404
C 1.17915 30.51279 0.01027
C 34.33869 29.85977 0.01831
C 34.40654 28.49241 -0.01037
C 1.21295 27.75646 -0.00439
C 1.18634 26.29997 -0.00598
C 34.36849 25.61472 -0.05239
C 1.18918 23.47365 0.00723
C 28.18923 17.71967 0.00261
C 28.29007 19.18417 0.02326
C 27.00149 19.85228 0.00924
C 20.85835 31.90301 -0.0055
C 20.81354 30.50254 0.01515
C 19.6247 29.76681 -0.00225
C 19.61545 28.37967 0.00071
C 20.82305 27.62302 -0.01107
C 20.89529 26.21208 -0.01586
C 19.66856 25.58081 -0.01971
C 19.59143 24.17814 -0.02118
C 20.69183 23.38207 0.00733
C 21.0372 22.06098 -0.00178
C 20.74476 19.13927 0.00768
C 20.70732 17.76582 -0.0276
C 19.57807 16.96095 0.03005
C 19.53064 15.56868 -0.04078
C 20.86796 15.06221 0.02117
C 21.10139 0.40795 0.02737
C 19.7028 34.05761 -0.00498
C 22.1663 32.5791 0.00135
C 23.41197 31.94262 0.03102
C 19.67079 32.55922 0.02734
C 23.30283 30.51745 0.02555
C 17.18623 0.02916 0.01153
C 18.49018 1.99072 -0.03213
C 17.26822 32.67035 -0.01154
C 18.43967 31.95568 -0.01721
C 18.39823 30.49076 -0.02422
C 17.14446 29.81996 0.01277
C 17.07492 28.3194 0.00096
C 18.33916 27.72925 -0.01527
C 18.42694 26.23329 0.01087
C 17.20054 25.50407 0.00199
C 18.33949 17.64259 0.01511
C 17.11041 17.09427 -0.00478
C 17.17316 15.6203 -0.01662
C 18.35457 14.90176 -0.01185
C 18.56376 13.47722 0.01126
C 17.43212 12.60312 0.01852
C 17.25299 11.25449 -0.00381
C 17.10119 8.25227 0.03046
C 17.12562 7.05664 0.0296
C 17.11332 4.20843 0.03374
C 17.38855 2.82046 -0.02845
C 18.50318 0.64756 0.02239
C 16.05753 0.70723 -0.01594
C 22.02191 29.77966 0.01423
C 23.29858 27.69058 -0.009
C 24.63581 21.27429 0.00152
C 24.4892 19.84497 0.01257
C 25.71999 19.18861 0.02316
C 25.7733 17.76315 0.04185
C 24.54621 17.00437 0.00194
C 24.78537 15.64124 -0.00621
C 24.71949 0.01311 0.02611
C 26.93953 32.66864 0.02198
C 28.19413 32.0623 0.01094
C 28.24589 30.6149 0.00235
C 26.98158 29.88332 0.01495
C 27.03947 28.4744 0.01259
C 28.2098 27.71873 0.01799
C 28.25947 26.29981 0.01699
C 27.09552 25.63484 -0.00416
C 27.10909 24.21569 0.01177
C 28.33196 23.42011 0.04266
C 28.27808 22.06644 0.01324
C 27.04405 21.34019 0.0014
C 25.85972 21.99811 -0.00294
C 22.04125 28.36863 -0.00285
C 25.89698 23.47207 0.00826
C 24.6637 25.59165 -0.00942
C 23.29366 26.24055 -0.01199
C 22.11067 25.55947 -0.00229
C 22.04497 24.0958 -0.00938
C 23.33853 23.38274 -0.0264
C 23.39603 21.95564 -0.01154
C 22.14125 21.30541 0.00684
C 22.029 19.8649 -0.01052
C 23.28359 19.10392 -0.01679
C 23.26817 17.71931 0.00367
C 21.9991 17.09781 0.04306
C 22.00703 15.60559 0.00996
C 22.25766 34.00178 0.00195
C 24.60992 32.64605 -0.00802
C 25.78904 31.95879 -0.00218
C 25.74968 30.57048 -0.01654
C 24.5505 29.79615 -0.00037
C 24.54564 28.4606 -0.0032
C 25.79047 27.7648 0.00622
C 25.85756 26.33045 -0.02815
C 24.53047 24.16404 0.00487
C 2.44701 32.63915 0.01465
