364
Graphene
C 34.30317 0.10535 0.01295
C 9.74695 11.49118 0.00052
C 10.96846 10.71873 -0.03682
C 11.15317 9.38019 0.01965
C 9.84263 8.67845 0.02058
C 9.84896 7.246 -0.01957
C 11.05983 6.46678 -0.0108
C 11.0948 5.06009 -0.00368
C 9.79683 4.35632 -0.02696
C 9.77959 12.80354 0.00374
C 9.78551 3.00951 -0.00114
C 11.0667 0.80479 0.00798
C 9.73253 0.09431 0.00422
C 12.1996 32.72247 0.0351
C 13.41195 32.00665 -0.03113
C 13.34728 30.61244 0.02098
C 12.18167 29.82235 0.01848
C 12.25697 28.40915 -0.00619
C 13.43582 27.67211 -0.02162
C 11.02307 2.22099 0.00228
C 11.03627 13.53433 -0.02813
C 10.96784 14.74052 -0.01952
C 9.94848 15.6624 0.05265
C 8.59875 2.21563 0.02894
C 8.5133 0.83676 -0.01789
C 7.29755 0.07366 0.00444
C 9.72875 32.73405 -0.00925
C 10.92861 32.02141 0.01877
C 11.051 30.60125 0.01363
C 9.81642 29.94591 -0.02162
C 9.77239 28.47781 0.00415
C 11.05819 27.76574 -0.0014
C 11.09933 26.31907 0.02162
C 9.83528 25.54756 0.0076
C 9.83378 24.22605 0.01241
C 11.06114 23.45979 -0.01454
C 11.04892 21.99077 0.01945
C 9.83045 21.24571 0.01416
C 9.85032 19.82723 0.03542
C 11.01019 19.2112 0.02299
C 11.25053 17.82044 0.00244
C 10.03878 17.06817 -0.01717
C 13.51379 26.22662 0.00889
C 12.31033 25.57456 -0.00481
C 12.30328 24.1825 0.00979
C 13.43485 23.37743 0.01443
C 15.90034 23.28325 -0.03557
C 15.94133 21.75823 0.03754
C 14.69532 21.13789 0.01739
C 14.49279 19.60804 0.00755
C 16.05225 4.97098 -0.0054
C 14.7027 4.23715 0.00667
C 14.70574 2.79195 0.00143
C 15.92576 2.10916 -0.017
C 15.92358 0.70901 0.00364
C 14.67815 34.05826 -0.00831
C 17.19619 32.63731 -0.02957
C 18.38772 31.83714 -0.04422
C 18.38851 30.45725 0.00654
C 17.11558 29.76243 -0.00703
C 17.1978 28.31987 -0.04076
C 18.42298 27.63411 -0.00652
C 18.45408 26.12748 0.0058
C 17.18306 25.49329 -0.00865
C 17.12285 24.0825 0.00675
C 14.64698 24.11355 -0.00111
C 7.29044 2.95042 -0.02971
C 14.7003 25.49005 0.04892
C 15.92097 27.61762 -0.01581
C 13.49945 21.90474 0.03505
C 12.25062 21.24809 -0.02815
C 12.29902 19.88521 -0.04147
C 13.47342 18.9078 -0.05302
C 12.62 17.32206 0.00213
C 12.23105 8.53301 -0.00066
C 12.37798 7.23826 -0.00289
C 13.56931 6.42197 0.00028
C 13.56181 5.03209 -0.02213
C 12.37975 4.41803 0.03698
C 12.23297 2.95671 -0.00109
C 13.45946 2.12518 -0.00491
C 13.42556 0.71888 0.03338
C 12.27058 0.04324 -0.0258
C 14.64492 32.67273 -0.0331
C 15.88517 31.92261 -0.00316
C 15.90752 30.51709 0.02188
C 14.68713 29.82846 -0.01979
C 14.71197 28.36672 0.02691
C 15.93247 26.15075 0.01452
C 18.42395 23.4032 -0.00311
C 7.40658 4.33377 0.00165
C 8.60713 6.47541 -0.00891
C 3.65471 6.5264 -0.01303
C 3.62196 5.02729 -0.01378
C 2.37261 4.2751 0.02635
C 2.3057 2.91822 0.0127
C 3.61298 2.24339 0.01396
C 3.60794 0.84782 0.01849
C 2.3868 0.08838 -0.01142
C 4.81283 32.69518 -0.00562
C 2.39417 7.14243 0.00848
C 6.05819 31.94984 -0.00494
C 4.86345 29.87462 0.03007
C 4.79247 28.42531 -0.00095
C 6.01889 27.81776 0.01572
C 6.09323 26.41555 -0.04848
C 4.91544 25.62151 -0.00892
C 4.92852 24.19175 -0.01362
C 6.17668 23.55305 -0.0008
C 6.23471 22.10918 0.0288
C 6.11734 30.57218 0.00054
C 2.37161 8.56652 -0.00049
C 3.62975 9.22491 0.00873
C 3.57944 10.62646 0.01227
C 3.61419 30.65205 0.0086
C 2.33026 29.93686 -0.00643
C 2.34155 28.52499 0.017
C 3.55227 27.74945 -0.03113
C 3.67117 26.38091 -0.02566
C 2.41481 25.64596 -0.00094
C 2.47928 24.12807 0.02322
C 3.75312 23.39867 -0.00725
C 3.79606 22.06411 -0.05697
C 2.54753 21.35632 0.01087
C 2.54431 19.94562 -0.01343
C 3.77065 19.25647 0.00988
C 3.71936 17.86684 0.0276
C 2.52335 17.17608 0.01305
C 2.50421 15.7307 -0.00077
C 3.6787 14.91424 0.03368
C 3.64708 13.49054 -0.02929
C 2.44059 12.78426 -0.00966
C 2.32784 11.38124 -0.03337
C 5.05525 21.37236 0.00393
C 5.01909 19.99672 0.00895
C 6.17735 19.15244 0.00685
C 6.11275 17.72778 0.02888
C 8.61281 26.32775 -0.01062
C 7.33456 25.623 -0.00033
C 7.36404 24.21317 0.03589
C 8.67277 23.44502 -0.02759
C 8.62141 21.96605 0.0402
C 7.36519 21.27371 0.00572
C 7.42705 19.87815 0.03592
C 8.64467 19.13341 0.00406
C 8.71202 17.76345 0.00943
C 7.32402 17.09473 0.02841
C 7.35056 15.72293 -0.01111
C 8.60934 14.95146 -0.01275
C 8.60379 13.59142 0.00985
C 7.38048 12.7557 -0.02245
C 7.36454 11.38914 -0.00428
C 8.51826 10.71392 0.03101
C 8.54425 9.26223 -0.01536
C 7.33467 8.55264 -0.02689
C 7.33336 7.1621 -0.01046
C 8.55193 27.72968 0.01364
C 8.60011 5.0455 0.02819
C 7.34127 28.38533 -0.00719
C 8.56677 30.58475 0.02339
C 4.89676 17.02661 -0.00482
C 4.82966 15.61425 -0.01384
C 6.10974 14.86838 0.03693
C 6.08914 13.48053 0.01745
C 4.84001 12.78564 0.00488
C 4.8519 11.37558 -0.01004
C 6.18081 10.70579 -0.02896
C 6.17642 9.23982 -0.00131
C 4.86795 8.55383 -0.01118
C 4.92033 7.06879 -0.014
C 6.11338 6.39693 0.02147
C 6.16003 4.97248 0.00373
C 4.94601 4.35816 -0.00191
C 4.85661 2.93081 0.00438
C 6.04174 2.27024 0.01291
C 6.07105 0.80467 0.00093
C 4.87279 0.04125 0.00057
C 7.26169 32.7357 -0.01634
C 8.54878 31.99931 -0.00334
C 7.34394 29.83752 0.01641
C 18.3007 22.0477 0.00742
C 17.4136 21.24035 -0.01594
C 17.0493 4.25513 0.0106
C 29.31399 0.04645 0.00346
C 31.77738 32.69454 0.01713
C 33.04166 32.01486 -0.01694
C 33.12126 30.64082 0.01428
C 31.85931 29.91872 -0.02142
C 31.92491 28.43598 0.0544
C 33.14891 27.79666 0.00026
C 33.17905 26.30459 0.00682
C 30.63141 0.73647 0.00307
C 31.98343 25.61734 -0.01779
C 33.27841 23.50312 0.01927
C 33.27433 22.05247 0.01574
C 32.05643 21.40942 -0.02383
C 31.92317 19.90531 -0.01429
C 33.15521 19.21821 -0.0136
C 33.19731 17.83146 0.00594
C 31.99273 17.02709 -0.02474
C 32.01131 15.59199 0.00369
C 32.0676 24.24713 0.03794
C 30.63653 2.20303 0.00716
C 29.41082 2.90134 0.02108
C 29.36736 4.33218 0.0103
C 29.50897 24.13093 -0.02049
C 30.76737 23.52668 -0.01854
C 30.80907 22.09937 -0.01415
C 29.59203 21.34019 -0.03039
C 29.5516 19.88617 0.01836
C 30.67675 19.14289 0.03531
C 30.68445 17.69275 -0.00669
C 29.41063 16.89629 0.0101
C 29.42805 15.42835 0.01705
C 30.80884 15.00493 -0.0405
C 30.79622 13.62425 -0.01303
C 29.4698 12.87913 -0.01461
C 29.28901 11.54513 -0.02155
C 30.60572 10.79498 -0.00944
C 30.56795 9.44136 -0.03735
C 29.41286 8.59171 -0.00971
C 29.48348 7.11741 0.01518
C 30.68364 6.44292 0.01908
C 30.65187 4.95065 0.07705
C 33.28455 14.92752 0.00455
C 33.20263 13.56745 -0.00644
C 31.93526 12.98082 -0.01839
C 31.84728 11.44594 0.00137
C 0.01477 19.93305 0.01951
C 1.27741 19.22068 -0.01678
C 1.236 17.76606 0.01223
C 0.00164 17.0886 0.00648
C 0.03953 15.77703 0.02114
C 1.28153 15.04502 -0.02957
C 1.2371 13.60528 0.00343
C 34.40904 12.8535 -0.02656
C 34.38178 11.50638 -0.02442
C 1.11222 10.68711 -0.00027
C 1.20549 9.27544 -0.00583
C 34.40758 8.57514 -0.02302
C 34.42397 7.17788 -0.02849
C 1.11527 6.46664 0.02931
C 1.16226 5.02958 0.00628
C 34.29893 4.32857 -0.0345
C 34.24899 2.88234 -0.00931
C 1.10512 2.22729 -0.00939
C 1.10967 0.77366 -0.00468
C 34.41142 21.32573 -0.02213
C 29.44555 25.58376 0.03265
C 1.26287 21.97768 0.02712
C 0.00191 24.13736 0.03076
C 33.10241 10.77325 0.00199
C 33.10594 9.3149 0.04381
C 31.83981 8.64395 0.02806
C 31.93425 7.21251 0.01504
C 33.1773 6.49568 -0.00069
C 33.12585 5.04217 0.04926
C 31.86538 4.30532 -0.03838
C 31.83343 2.8636 0.00349
C 32.98574 2.17287 -0.00323
C 33.04844 0.72064 -0.00841
C 31.85041 0.0157 0.0001
C 34.29696 32.77412 -0.02927
C 1.13465 32.06443 -0.01404
C 1.11152 30.69493 0.01027
C 34.33985 29.99293 0.01831
C 34.35238 28.54923 -0.01037
C 1.16456 27.72189 -0.00439
C 1.20261 26.30181 -0.00598
C 0.0125 25.60326 -0.05239
C 1.29043 23.45877 0.00723
C 30.69405 26.35966 0.00261
C 30.62318 27.73352 0.02326
C 29.38671 28.43187 0.00924
C 21.98584 29.69544 -0.0055
C 22.07663 28.20914 0.01515
C 23.26501 27.5202 -0.00225
C 23.33498 26.12358 0.00071
C 22.14075 25.25118 -0.01107
C 22.17641 23.78612 -0.01586
C 23.43476 23.09486 -0.01971
C 23.6086 21.5709 -0.02118
C 22.25168 21.15931 0.00733
C 22.74305 4.72848 -0.00178
C 21.5145 4.20161 0.00768
C 21.98783 2.83612 -0.0276
C 23.2183 2.12473 0.03005
C 23.31141 0.60002 -0.04078
C 22.07698 33.96023 0.02117
C 24.48106 32.60162 0.02737
C 25.67265 31.88146 -0.00498
C 25.65563 30.44547 0.00135
C 24.45089 29.75548 0.03102
C 23.17079 30.46605 0.02734
C 24.44725 28.27482 0.02555
C 23.24864 31.88229 0.01153
C 19.6738 33.97633 -0.03213
C 17.20736 2.87907 -0.01154
C 18.47075 2.2217 -0.01721
C 18.45115 0.74875 -0.02422
C 17.16173 34.01662 0.01277
C 19.55835 32.55482 0.00096
C 20.79301 31.84336 -0.01527
C 20.76656 30.44863 0.01087
C 19.60423 29.6394 0.00199
C 19.65013 28.2392 0.01511
C 20.81746 27.49881 -0.00478
C 20.89903 26.04923 -0.01662
C 19.69213 25.41812 -0.01185
C 19.68399 24.05079 0.01126
C 20.89562 23.24163 0.01852
C 21.12521 21.73452 -0.00381
C 20.28684 4.20376 0.03046
C 19.73557 2.82809 0.0296
C 20.87286 2.01789 0.03374
C 20.86017 0.65264 -0.02845
C 22.01705 32.6341 0.02239
C 3.61883 32.00298 -0.00518
C 25.73994 27.67869 0.01423
C 24.59707 25.38753 -0.009
C 27.22159 21.20392 0.00152
C 26.90532 19.85535 0.01257
C 28.1977 19.14625 0.02316
C 28.32192 17.74215 0.04185
C 28.66341 14.29204 0.00194
C 28.26472 10.56335 -0.00621
C 28.28706 9.42575 0.02611
C 26.92945 7.02592 0.02198
C 28.20707 6.4938 0.01094
C 28.14692 5.05886 0.00235
C 26.84817 4.32821 0.01495
C 26.91852 2.82671 0.01259
C 28.21228 2.16171 0.01799
C 28.12389 0.77162 0.01699
C 26.89102 0.03177 -0.00416
C 29.36423 32.76559 0.01177
C 30.58385 31.95017 0.04266
C 30.59746 30.5826 0.01324
C 29.36883 29.82816 0.0014
C 28.38265 22.03227 -0.00294
C 25.72875 26.19767 -0.00285
C 28.2795 23.41138 0.00826
C 27.01272 25.5106 -0.00942
C 24.648 23.96882 -0.01199
C 25.79191 23.26862 -0.00229
C 26.03795 21.96627 -0.00938
C 24.82908 21.09611 -0.0264
C 25.28895 19.74298 -0.01154
C 25.88791 6.56821 0.00684
C 25.51107 5.11406 -0.01052
C 24.22651 4.31228 -0.01679
C 24.41367 2.84183 0.00367
C 25.64783 2.11127 0.04306
C 25.69569 0.72558 0.00996
C 24.55485 33.99566 0.00195
C 26.93162 32.69195 -0.00802
C 28.18226 31.99331 -0.00218
C 28.19848 30.53193 -0.01654
C 26.92544 29.85383 -0.00037
C 26.95694 28.45314 -0.0032
C 28.16771 27.74447 0.00622
C 28.17645 26.29165 -0.02815
C 27.01081 24.1021 0.00487
C 2.34733 32.7415 -0.00074
