263
Graphene
C 0.02243 0.08418 0.01295
C 20.76629 6.4154 0.01852
C 19.98375 7.55766 0.01126
C 20.82836 8.93004 -0.01185
C 20.93681 10.45362 -0.01662
C 20.79174 13.30259 -0.00478
C 20.68455 14.70335 0.01511
C 19.62221 15.68138 0.00199
C 19.64833 16.80427 0.01087
C 20.74871 17.81135 -0.01527
C 20.76442 19.16599 0.00096
C 21.07258 31.95352 0.01277
C 19.65983 32.55294 -0.02422
C 17.19441 33.94109 -0.01721
C 18.43431 0.66804 -0.01154
C 18.35164 2.01511 0.0106
C 17.28029 2.99512 -0.01594
C 18.05908 4.4136 0.00742
C 17.14378 30.04976 -0.00311
C 18.35078 30.37119 0.00675
C 18.51299 31.87941 -0.00865
C 17.27233 32.49847 0.0058
C 14.84339 0.08707 -0.00652
C 16.14942 0.62917 -0.04076
C 16.13659 2.23046 -0.00703
C 15.93786 30.45021 0.00654
C 15.923 31.83996 -0.04422
C 14.76349 32.66917 -0.02957
C 12.41431 0.40723 -0.00831
C 13.75378 1.09234 0.00364
C 20.66905 4.9176 -0.00381
C 14.67834 2.36748 -0.017
C 19.47282 4.06321 0.03046
C 20.86352 2.08019 0.03374
C 25.86641 19.32711 -0.01199
C 24.55302 20.00811 -0.009
C 24.58716 21.47587 -0.00285
C 25.89241 22.10976 0.01423
C 22.13378 33.97205 0.02555
C 23.47965 0.67728 0.03102
C 23.42642 2.07214 0.00135
C 22.12891 2.78674 -0.00498
C 22.07197 4.23809 0.02737
C 23.33099 4.88105 0.02117
C 23.36895 6.31392 -0.04078
C 22.18022 6.9807 0.03005
C 22.18545 8.40569 -0.0276
C 23.37433 9.18282 0.00768
C 23.36934 10.56398 -0.00178
C 22.06437 11.29022 0.00733
C 22.04295 12.648 -0.02118
C 23.31695 13.46353 -0.01971
C 23.30215 14.96203 -0.01586
C 22.03433 15.58646 -0.01107
C 22.05841 17.02157 0.00071
C 23.25364 17.75593 -0.00225
C 23.34342 19.17276 0.01515
C 21.96348 19.87311 -0.0055
C 22.27866 21.38631 0.02734
C 23.24277 21.90756 0.01153
C 22.05616 32.56981 0.02239
C 19.74666 34.04775 -0.03213
C 20.94657 0.66163 -0.02845
C 19.60284 2.731 0.0296
C 25.71522 17.95106 -0.00229
C 13.55649 32.17296 0.00143
C 9.89059 0.00202 -0.0054
C 4.7997 32.71895 0.01848
C 2.44183 0.07741 0.02098
C 3.64145 0.83758 -0.03113
C 3.75071 2.32846 0.0351
C 2.4325 3.0483 0.00422
C 2.55311 4.40676 0.00798
C 3.8208 5.18761 0.00228
C 3.7261 6.59743 -0.00114
C 2.58922 7.42664 -0.02696
C 2.38315 8.74706 -0.00368
C 2.38806 11.18518 -0.0108
C 2.55845 12.66711 -0.01957
C 3.63318 13.46292 0.02058
C 3.78899 14.82746 0.01965
C 2.40417 15.68438 -0.03682
C 2.44174 17.06119 0.00052
C 3.72379 17.82162 0.00374
C 3.67939 19.30412 -0.02813
C 2.4241 19.89273 -0.01952
C 2.32305 21.29608 0.05265
C 3.43131 22.03625 -0.01717
C 3.46536 23.45937 0.00244
C 2.25899 24.19336 0.02299
C 2.30876 25.60795 0.03542
C 3.61926 26.26053 0.01416
C 3.64347 27.71027 0.01945
C 2.33527 28.42674 -0.01454
C 2.30147 29.87891 0.01241
C 3.54402 30.53 0.0076
C 5.96371 32.02802 -0.00619
C 12.35909 32.75139 0.00667
C 5.93485 30.60565 -0.02162
C 4.8064 28.44824 -0.00481
C 11.10369 0.72282 0.00755
C 9.74495 29.94971 0.01739
C 10.74262 30.49583 0.03754
C 11.08792 31.91578 -0.03557
C 9.81515 32.66312 -0.00111
C 7.34882 0.01147 0.04892
C 8.7098 0.74589 0.01452
C 8.5344 2.11809 -0.01581
C 7.51928 2.65957 0.02691
C 7.20179 28.47302 -0.01979
C 7.22994 29.84599 0.02188
C 8.38153 30.57757 -0.00316
C 8.4966 31.97349 -0.0331
C 7.27504 32.68313 -0.0258
C 4.82792 0.12447 0.03338
C 6.10813 0.81511 -0.00491
C 6.11266 2.23793 -0.00109
C 4.98319 3.06552 0.03698
C 5.04303 4.43042 -0.02213
C 4.89345 15.63602 0.00028
C 5.03891 17.01891 -0.00289
C 6.04284 18.04605 -0.00066
C 5.98302 19.2338 0.00213
C 5.0377 20.22112 -0.05302
C 4.72235 21.49446 -0.04147
C 4.68345 24.02173 -0.02815
C 4.80294 25.40233 0.03505
C 6.01555 26.18614 0.01443
C 6.12174 27.62684 0.00979
C 4.72088 29.85318 0.00889
C 3.61183 31.95725 0.02162
C 24.56264 17.20288 -0.00938
C 25.72591 14.95011 -0.01154
C 33.25641 2.25809 -0.00323
C 31.97185 3.01425 0.00349
C 32.00222 4.37978 -0.03838
C 33.27073 5.06125 0.04926
C 33.24928 6.45799 -0.00069
C 32.01696 7.16824 0.01504
C 31.9349 8.50288 0.02806
C 33.13217 9.31071 0.04381
C 33.13175 10.72575 0.00199
C 31.89645 11.42682 0.00137
C 31.92681 12.80682 -0.01839
C 33.16992 13.50268 -0.00644
C 33.2076 14.9221 0.00455
C 31.91326 15.55314 0.00369
C 32.0198 17.0797 -0.02474
C 33.24329 17.79376 0.00594
C 33.22608 19.16196 -0.0136
C 31.98189 19.82392 -0.01429
C 31.99246 21.27029 -0.02383
C 33.19076 22.00405 0.01574
C 33.06664 23.41314 0.01927
C 31.70916 24.166 0.03794
C 31.77352 25.60275 -0.01779
C 33.05603 26.27535 0.00682
C 33.13254 27.65379 0.00026
C 31.80781 28.40346 0.0544
C 31.74777 29.8918 -0.02142
C 32.9927 30.59461 0.01428
C 33.03597 32.0451 -0.01694
C 33.20833 0.81973 -0.00841
C 31.85055 32.77321 0.01713
C 32.00481 0.11413 0.0001
C 1.04987 32.0659 -0.01404
C 1.24947 0.78515 -0.00468
C 1.25995 2.21493 -0.00939
C 0.08232 2.95355 -0.00931
C 0.10604 4.38019 -0.0345
C 1.31133 5.1778 0.00628
C 1.26629 6.60075 0.02931
C 34.43313 7.20725 -0.02849
C 34.40007 8.59396 -0.02302
C 1.163 9.2582 -0.00583
C 1.12197 10.64572 -0.00027
C 34.37139 11.41299 -0.02442
C 34.42307 12.822 -0.02656
C 1.23941 13.54078 0.00343
C 1.23586 14.91095 -0.02957
C 34.39195 15.63136 0.02114
C 0.06268 17.04172 0.00648
C 1.26234 17.70103 0.01223
C 1.25884 19.09997 -0.01678
C 34.41785 19.84736 0.01951
C 34.36421 21.26447 -0.02213
C 1.10854 22.01878 0.02712
C 1.08908 23.45615 0.00723
C 34.27695 24.15819 0.03076
C 34.30632 25.57534 -0.05239
C 1.13436 26.30962 -0.00598
C 1.16343 27.70147 -0.00439
C 34.34687 28.45674 -0.01037
C 34.26546 29.83173 0.01831
C 1.13037 30.582 0.01027
C 34.25692 32.7661 -0.02927
C 24.48566 15.73124 -0.0264
C 29.56655 0.1043 0.00346
C 30.76949 2.25691 0.00716
C 26.99874 7.07332 0.01495
C 27.02011 8.51381 0.00235
C 28.2944 9.27007 0.01094
C 28.25159 10.65872 0.02198
C 27.10266 11.41471 0.02611
C 27.02947 12.83928 -0.00621
C 28.28191 13.52525 0.00194
C 28.16173 14.95982 0.04185
C 26.90942 15.67731 0.02316
C 26.95828 17.146 0.01257
C 28.2179 17.78598 0.00152
C 28.26626 19.30641 -0.00294
C 27.14165 20.10121 0.00826
C 27.12983 21.62959 0.00487
C 28.443 22.03121 -0.00942
C 24.75457 34.02818 -0.02815
C 25.96371 0.54185 0.00622
C 25.87969 2.03857 -0.0032
C 24.63594 2.71688 -0.00037
C 24.57773 4.19818 -0.01654
C 25.82455 4.93398 -0.00218
C 25.80675 6.35649 -0.00802
C 24.62152 7.11317 0.00195
C 24.61038 8.5039 0.00996
C 25.84964 9.24462 0.04306
C 25.82399 10.68399 0.00367
C 24.63848 11.35259 -0.01679
C 24.5743 12.76678 -0.01052
C 25.76778 13.5274 0.00684
C 28.25732 6.45976 0.01259
C 30.7653 0.84688 0.00307
C 28.27634 4.98834 0.01799
C 27.10278 2.86648 -0.00416
C 29.5483 2.9628 0.02108
C 29.51852 4.34811 0.0103
C 30.77357 5.08695 0.07705
C 30.78691 6.51147 0.01908
C 29.49436 7.09246 0.01518
C 29.45556 8.51988 -0.00971
C 30.65778 9.31087 -0.03735
C 30.64653 10.67696 -0.00944
C 29.45854 11.36729 -0.02155
C 29.45935 12.78665 -0.01461
C 30.75652 13.52504 -0.01303
C 30.68701 14.95724 -0.0405
C 29.42543 15.63563 0.01705
C 29.39526 17.08031 0.0101
C 30.68762 17.75673 -0.00669
C 30.71694 19.22343 0.03531
C 29.4963 19.90404 0.01836
C 29.63069 21.25659 -0.03039
C 30.72367 22.02776 -0.01415
C 30.52327 23.37804 -0.01854
C 29.04419 23.37066 -0.02049
C 30.59424 26.46545 0.03265
C 30.76666 27.61397 0.00261
C 30.59613 30.6452 0.02326
C 30.54552 32.02904 0.00924
C 29.3764 32.79937 0.0014
C 27.24942 34.04001 0.01324
C 28.37336 0.76761 0.04266
C 28.28286 2.19238 0.01177
C 27.04819 4.27347 0.01699
C 2.40101 32.71381 -0.0014
