396
Graphene
C 34.39776 0.00177 0.01295
C 16.15451 14.8436 -0.01789
C 15.90142 13.57181 0.00444
C 14.77322 11.36025 -0.00925
C 15.96358 10.70666 0.01877
C 15.99896 9.23581 0.01363
C 14.78241 8.5774 -0.02162
C 14.75765 7.10626 0.00415
C 15.89017 6.28499 -0.0014
C 15.98356 4.92385 0.02162
C 16.03279 17.69907 0.02894
C 14.69355 4.26796 0.0076
C 15.99753 2.14299 -0.01454
C 15.99111 0.68585 0.01945
C 14.76883 34.01289 0.01416
C 17.26682 32.71184 0.03542
C 18.4042 31.90061 0.02299
C 18.41222 30.45556 0.00244
C 17.22323 29.71806 -0.01717
C 17.15416 28.3567 0.05265
C 18.51776 27.68233 -0.01952
C 14.80867 2.87094 0.01241
C 15.81486 19.05463 -0.02971
C 14.74074 20.01647 0.00165
C 14.65679 21.4001 0.02819
C 13.48086 9.32386 0.01364
C 12.30249 8.51179 -0.01062
C 12.3041 7.16718 -0.00033
C 13.48553 6.39158 0.03589
C 13.54179 5.00098 -0.02759
C 12.33229 4.27924 0.0402
C 12.31446 2.8918 0.00572
C 13.57013 2.17253 0.03592
C 13.5591 0.78776 0.00406
C 12.28959 0.0978 0.00943
C 14.78277 32.62305 0.02841
C 16.04884 32.00293 -0.01111
C 16.04318 30.48728 -0.01275
C 14.78647 29.83817 0.00985
C 14.79111 28.42798 -0.02245
C 15.98503 27.62063 -0.00428
C 15.89315 26.28765 0.03101
C 14.75118 25.55636 -0.01536
C 14.80861 24.13485 -0.02689
C 16.0365 23.43437 -0.01046
C 15.9822 22.04179 -0.00891
C 18.44436 26.28467 -0.02813
C 17.2127 25.62602 0.00374
C 17.31025 24.23065 0.00052
C 18.43686 23.41711 -0.03682
C 19.72927 29.80259 -0.00066
C 19.6915 28.34146 -0.00289
C 20.86085 27.68964 0.00028
C 20.84028 26.27323 -0.02213
C 19.65928 25.51789 0.03698
C 19.7066 24.17011 -0.00109
C 20.95384 23.45934 -0.00491
C 20.97628 22.04381 0.03338
C 19.72164 21.26012 -0.0258
C 19.68314 19.85553 -0.0331
C 20.9327 19.14397 -0.00316
C 20.91539 17.69366 0.02188
C 19.63854 16.99057 -0.01979
C 19.66974 15.53736 0.02691
C 20.93346 14.89044 -0.01581
C 20.84998 13.4353 0.01452
C 19.56753 12.8456 0.04892
C 19.54234 11.41016 -0.00111
C 20.83244 10.70525 -0.03557
C 20.79598 9.27307 0.03754
C 19.6573 8.5096 0.01739
C 20.98524 30.49535 0.00213
C 13.71601 10.70833 -0.00719
C 21.01803 31.87591 -0.05302
C 17.27296 0.07925 -0.02815
C 18.46685 21.95148 0.01965
C 17.23123 21.29459 0.02058
C 17.20029 19.82915 -0.01957
C 18.44584 19.12336 -0.0108
C 18.46227 17.71949 -0.00368
C 17.19425 17.0807 -0.02696
C 17.17979 15.6946 -0.00114
C 18.39343 14.90023 0.00228
C 18.32152 13.51249 0.00798
C 17.09715 12.77004 0.00422
C 17.17126 11.39674 0.0351
C 18.37804 10.65962 -0.03113
C 18.41923 9.22547 0.02098
C 17.24485 8.48346 0.01848
C 17.10661 7.01639 -0.00619
C 18.40533 6.31145 -0.02162
C 18.3955 4.91475 0.00889
C 17.23491 4.16556 -0.00481
C 17.27573 2.80084 0.00979
C 18.51621 2.16885 0.01443
C 18.51924 0.78107 0.03505
C 19.7016 32.60502 -0.04147
C 19.63726 7.07648 0.00755
C 12.10971 21.42986 0.01641
C 13.44547 23.49232 -0.00334
C 6.1866 31.95693 0.01226
C 6.14309 30.46823 -0.00279
C 4.84629 29.83524 0.01996
C 4.88573 28.43768 -0.03996
C 6.08733 27.76512 0.01465
C 6.10564 26.32271 -0.00074
C 4.89018 25.58655 -0.00518
C 4.89571 24.12938 0.0086
C 6.172 23.46197 -0.00643
C 5.02433 32.66715 0.03828
C 5.85584 22.11315 0.017
C 6.11352 9.231 -0.02566
C 4.90662 8.53829 -0.00094
C 4.90841 7.13224 0.02322
C 6.13242 6.43498 -0.00725
C 6.19603 4.98473 -0.05697
C 4.96327 4.2357 0.01087
C 4.97895 2.86085 -0.01343
C 6.15886 2.10959 0.00988
C 6.15151 0.69021 0.0276
C 4.93583 21.36148 -0.03113
C 2.46731 0.07315 0.0174
C 3.72708 0.71985 0.0073
C 3.67271 2.15842 0.00402
C 3.68219 30.56631 0.02784
C 2.49951 29.74584 -0.01977
C 2.48059 28.33814 -0.00561
C 3.66187 27.61977 0.00208
C 3.70311 26.24678 0.01707
C 2.34717 25.56834 0.02769
C 2.39804 24.25726 -0.03291
C 3.66658 23.49176 -0.04999
C 3.65658 22.00894 0.04505
C 2.50072 21.28148 0.03284
C 2.48928 19.85122 -0.04307
C 2.45716 12.87278 0.03189
C 2.56878 11.49946 0.00031
C 3.60703 10.54062 -0.003
C 3.66743 9.21199 0.01402
C 2.3825 8.48511 0.02379
C 2.40219 7.03193 0.00907
C 3.67029 6.39314 0.00643
C 3.74225 4.97066 -0.01509
C 2.42009 4.32623 0.03267
C 2.48508 2.87501 0.02374
C 4.93816 34.05258 0.01305
C 7.38819 32.63103 -0.00077
C 8.60031 31.87937 0.03368
C 8.53963 30.51697 -0.02929
C 9.82116 24.17767 0.00895
C 11.01691 23.38593 0.00685
C 10.97202 21.94709 0.02888
C 9.88813 8.54926 -0.00482
C 9.89714 7.21638 -0.01384
C 11.0872 6.37865 0.03693
C 11.08968 5.01662 0.01745
C 9.86523 4.25987 0.00488
C 9.85873 2.87168 -0.01004
C 11.05882 2.16211 -0.02896
C 11.01885 0.77301 -0.00131
C 9.77003 0.05031 -0.01118
C 12.28238 32.7324 -0.014
C 13.50968 31.99899 0.02147
C 13.57604 30.56187 0.00373
C 12.31394 29.89211 -0.00191
C 12.27957 28.48917 0.00438
C 13.53574 27.74641 0.01291
C 13.4782 26.34357 0.00093
C 12.28315 25.70792 0.00057
C 12.23672 24.23305 -0.01634
C 9.854 25.59933 0.00393
C 13.38152 22.06788 0.02339
C 11.05718 26.42032 0.0288
C 9.84218 28.42603 -0.01362
C 7.27918 29.80689 -0.00966
C 7.33214 28.42278 -0.03337
C 8.57 27.73069 0.01227
C 8.55288 26.2981 0.00873
C 7.34491 25.64058 -0.00049
C 7.36553 24.19116 0.00848
C 8.55001 23.36977 -0.01303
C 8.69004 21.99029 -0.01378
C 7.23381 8.57702 0.02635
C 7.36301 7.18169 0.0127
C 8.56037 6.45227 0.01396
C 8.59165 5.01681 0.01849
C 7.39238 4.22603 -0.01142
C 7.41785 2.86275 -0.00562
C 8.58033 2.18265 -0.00494
C 8.54 0.71166 0.00054
C 7.38081 34.06814 0.03007
C 9.82902 32.69387 -0.00095
C 11.07646 31.98162 0.01572
C 11.08347 30.51457 -0.04848
C 9.80249 29.80548 -0.00892
C 11.10336 27.77998 -0.0008
C 20.81382 6.35138 -0.0054
C 20.92807 4.92297 0.00667
C 19.67383 4.29388 0.00143
C 30.73859 6.42804 0.01908
C 30.72217 4.98685 0.07705
C 29.5689 4.28552 0.0103
C 29.46598 2.82268 0.02108
C 30.72854 2.20888 0.00716
C 30.73063 0.75935 0.00307
C 29.49413 0.04794 0.00346
C 31.99865 32.60718 0.01713
C 33.20643 31.90867 -0.01694
C 29.4879 7.13213 0.01518
C 33.20992 30.47686 0.01428
C 31.98976 28.37845 0.0544
C 33.25205 27.66194 0.00026
C 33.22402 26.27246 0.00682
C 31.99777 25.60602 -0.01779
C 32.01857 24.13824 0.03794
C 33.20897 23.40691 0.01927
C 33.25207 21.98447 0.01574
C 31.99683 21.29102 -0.02383
C 31.97246 19.90652 -0.01429
C 31.95041 29.83284 -0.02142
C 29.48615 8.52308 -0.00971
C 30.67278 9.15273 -0.03735
C 30.68255 10.61249 -0.00944
C 29.55569 32.69474 0.01177
C 30.68543 31.95082 0.04266
C 30.71516 30.47666 0.01324
C 29.50577 29.75493 0.0014
C 29.53463 28.36173 0.00924
C 30.75535 27.70434 0.02326
C 30.77177 26.26047 0.00261
C 29.53554 25.49889 0.03265
C 29.5628 24.11229 -0.02049
C 30.83011 23.3967 -0.01854
C 30.77822 21.9934 -0.01415
C 29.42956 21.26951 -0.03039
C 29.47816 19.88498 0.01836
C 30.78205 19.21147 0.03531
C 30.75847 17.80312 -0.00669
C 29.51715 17.05746 0.0101
C 29.50521 15.67819 0.01705
C 30.69131 14.96017 -0.0405
C 30.73681 13.54654 -0.01303
C 29.49238 12.77725 -0.01461
C 29.47801 11.34315 -0.02155
C 33.1663 19.15176 -0.0136
C 33.25938 17.75025 0.00594
C 31.99092 17.074 -0.02474
C 31.97132 15.66042 0.00369
C 1.30454 22.03598 0.02712
C 0.09261 21.28316 -0.02213
C 0.06226 19.87977 0.01951
C 1.29428 19.05353 -0.01678
C 1.18949 17.72672 0.01223
C 0.00709 17.01824 0.00648
C 34.40217 15.62925 0.02114
C 1.07387 14.87205 -0.02957
C 1.24484 13.50499 0.00343
C 34.38757 12.7566 -0.02656
C 34.38243 11.33587 -0.02442
C 1.23149 10.68552 -0.00027
C 1.19406 9.31092 -0.00583
C 34.42706 8.54906 -0.02302
C 34.40747 7.0998 -0.02849
C 1.20218 6.41174 0.02931
C 1.17484 4.9842 0.00628
C 34.35518 4.21452 -0.0345
C 34.39053 2.79495 -0.00931
C 1.225 2.15503 -0.00939
C 1.17916 0.7529 -0.00468
C 1.23344 23.46844 0.00723
C 26.99634 0.043 -0.00416
C 34.429 24.07421 0.03076
C 1.12785 26.26981 -0.00598
C 33.1341 14.89655 0.00455
C 33.15125 13.49787 -0.00644
C 31.94904 12.75875 -0.01839
C 31.90154 11.365 0.00137
C 33.15134 10.63371 0.00199
C 33.21562 9.22873 0.04381
C 31.98842 8.50675 0.02806
C 32.02874 7.10329 0.01504
C 33.2011 6.35424 -0.00069
C 33.18488 4.94766 0.04926
C 31.93238 4.27409 -0.03838
C 31.94297 2.82425 0.00349
C 33.19475 2.09092 -0.00323
C 33.16104 0.66392 -0.00841
C 31.90784 34.01396 0.0001
C 0.04747 32.67899 -0.02927
C 1.30729 31.92702 -0.01404
C 1.27756 30.52607 0.01027
C 0.04593 29.83114 0.01831
C 34.42571 28.38194 -0.01037
C 1.19518 27.69639 -0.00439
C 34.38198 25.50712 -0.05239
C 28.27906 0.71259 0.01699
C 28.26954 2.11194 0.01799
C 27.09506 2.90213 0.01259
C 23.35496 10.65193 -0.00478
C 23.3091 9.19285 -0.01662
C 22.05031 8.53047 -0.01185
C 22.0395 7.08926 0.01126
C 23.31961 6.37707 0.01852
C 23.37198 4.93455 -0.00381
C 22.11635 4.24269 0.03046
C 22.08302 2.83527 0.0296
C 23.35654 2.10326 0.03374
C 23.35191 0.70291 -0.02845
C 22.09548 0.00088 -0.03213
C 24.695 32.57979 0.02239
C 25.85612 31.90014 0.01153
C 25.89556 30.51447 0.02734
C 24.62646 29.83473 -0.0055
C 24.63951 28.3866 0.01515
C 25.81218 27.6448 -0.00225
C 25.77827 26.20093 0.00071
C 24.51758 25.53814 -0.01107
C 24.6327 24.10866 -0.01586
C 25.88797 23.36617 -0.01971
C 22.11335 11.33068 0.01511
C 25.75815 21.95881 -0.02118
C 22.03642 12.72313 0.00199
C 23.42784 14.84209 -0.01527
C 19.72224 2.90493 -0.017
C 20.92197 2.12186 0.00364
C 20.89157 0.71366 -0.00831
C 19.687 0.00095 -0.02957
C 22.18841 32.65541 -0.04422
C 23.43021 31.95514 0.00654
C 23.44134 30.58392 -0.00703
C 22.17699 29.80963 -0.04076
C 22.13132 28.3263 -0.00652
C 23.36968 27.73105 0.0058
C 23.32613 26.31385 -0.00865
C 22.07669 25.6222 0.00675
C 22.18874 24.20516 -0.00311
C 23.40268 23.43038 0.00742
C 23.35217 22.06764 -0.01594
C 22.12915 21.34326 0.0106
C 22.13344 19.86659 -0.01154
C 23.31567 19.18532 -0.01721
C 23.36394 17.72075 -0.02422
C 22.14509 17.03885 0.01277
C 22.22307 15.62386 0.00096
C 23.31511 13.45508 0.01087
C 3.72985 32.01879 -0.01979
C 24.56244 21.20387 0.00733
C 25.82468 19.14599 0.00768
C 27.02059 25.53607 -0.00218
C 27.11301 24.16521 -0.01654
C 28.26307 23.40385 -0.00037
C 28.15535 21.95456 -0.0032
C 26.97044 21.28629 0.00622
C 27.10982 19.95019 -0.02815
C 28.26209 19.13865 -0.00942
C 28.2074 17.74101 0.00487
C 26.97532 17.04185 0.00826
C 27.03151 15.60972 -0.00294
C 28.26211 14.93089 0.00152
C 28.2175 13.48443 0.01257
C 26.99236 12.79976 0.02316
C 27.02293 11.37327 0.04185
C 28.23998 10.66558 0.00194
C 28.22051 9.20666 -0.00621
C 27.00959 8.45883 0.02611
C 27.06577 7.00719 0.02198
C 28.31065 6.40086 0.01094
C 28.36936 5.00544 0.00235
C 27.10277 4.30237 0.01495
C 28.29035 26.20025 -0.00802
C 24.60044 19.84334 -0.00178
C 28.29661 27.64172 0.00195
C 27.08695 29.73595 0.04306
C 25.78765 17.75392 -0.0276
C 24.56401 17.06729 0.03005
C 24.64515 15.6417 -0.04078
C 25.82903 14.91237 0.02117
C 25.73907 13.50626 0.02737
C 24.51524 12.7708 -0.00498
C 24.61428 11.31275 0.00135
C 25.81608 10.62495 0.03102
C 25.79641 9.17787 0.02555
C 24.50614 8.45019 0.01423
C 24.5343 7.04285 -0.00285
C 25.825 6.36427 -0.009
C 25.85537 4.99608 -0.01199
C 24.63624 4.26084 -0.00229
C 24.5349 2.81803 -0.00938
C 25.8276 2.19726 -0.0264
C 25.76327 0.77666 -0.01154
C 24.58511 34.06312 0.00684
C 27.05539 32.73653 -0.01052
C 28.24913 31.9918 -0.01679
C 28.29682 30.53081 0.00367
C 27.06039 28.35298 0.00996
C 2.48401 32.77337 -0.00449
