341
Graphene
C 0.05622 0.02959 0.01295
C 14.67883 21.29836 -0.00619
C 14.70693 19.85753 -0.02162
C 15.9915 19.12208 0.00889
C 16.02669 17.74551 -0.00481
C 14.75408 17.20701 0.00979
C 15.93829 2.09494 0.01443
C 15.93259 0.68481 0.03505
C 14.73547 0.08057 -0.02815
C 17.21172 32.73494 -0.04147
C 18.41679 31.9483 -0.05302
C 18.45175 30.4756 0.00213
C 17.20554 29.85186 -0.00066
C 17.26884 28.46858 -0.00289
C 18.50361 27.70647 0.00028
C 18.47054 26.17506 -0.02213
C 17.24385 25.47015 0.03698
C 17.23399 24.05934 -0.00109
C 15.93231 21.97834 0.01848
C 18.43639 23.35913 -0.00491
C 16.02524 23.41344 0.02098
C 14.79308 25.51667 0.0351
C 13.47538 23.53977 -0.01717
C 13.49776 22.03265 0.05265
C 12.25104 21.31065 -0.01952
C 12.22235 19.89852 -0.02813
C 13.46835 19.1976 0.00374
C 13.47637 17.76754 0.00052
C 12.28767 17.24302 -0.03682
C 13.53842 2.21577 0.01965
C 13.49217 0.75957 0.02058
C 12.36764 34.03863 -0.01957
C 14.73151 32.7084 -0.0108
C 15.98469 31.92336 -0.00368
C 16.00709 30.45974 -0.02696
C 14.74532 29.81934 -0.00114
C 14.87132 28.37404 0.00228
C 16.0952 27.5906 0.00798
C 15.9917 26.20675 0.00422
C 14.76034 24.15231 -0.03113
C 18.40845 21.9178 0.03338
C 17.20586 21.2562 -0.0258
C 17.1978 19.81509 -0.0331
C 19.70934 17.0343 -0.04076
C 21.06378 4.87071 -0.00652
C 19.8034 4.36465 0.0058
C 19.47131 3.05786 -0.00865
C 20.79558 2.14003 0.00675
C 20.80034 0.7278 -0.00311
C 19.54769 0.06074 0.00742
C 22.14439 32.7178 -0.01594
C 23.3923 31.94551 0.0106
C 23.38938 30.54774 -0.01154
C 22.17638 29.83382 -0.01721
C 22.14779 28.40307 -0.02422
C 23.42025 27.73531 0.01277
C 23.37741 26.26813 0.00096
C 22.1777 25.59045 -0.01527
C 22.14258 24.08822 0.01087
C 23.3817 23.40004 0.00199
C 20.84599 17.68155 -0.00703
C 20.86583 19.12681 0.00654
C 19.63478 19.7881 -0.04422
C 19.67148 21.2119 -0.02957
C 18.37198 19.11236 -0.00316
C 18.48359 17.55131 0.02188
C 17.27156 17.07962 -0.01979
C 17.01973 2.77182 0.02691
C 18.33404 2.30306 -0.01581
C 18.3472 0.77241 0.01452
C 17.16326 34.0664 0.04892
C 19.61853 32.70266 -0.00111
C 12.23012 24.18926 0.00244
C 20.86228 31.97394 -0.03557
C 19.72121 29.78689 0.01739
C 19.70317 28.37755 0.00755
C 20.97795 27.62455 -0.0054
C 20.91705 26.27928 0.00667
C 19.72371 25.52174 0.00143
C 19.67291 24.10615 -0.017
C 20.89614 23.40429 0.00364
C 20.87651 21.97197 -0.00831
C 20.98199 30.54574 0.03754
C 12.26369 25.59822 0.02299
C 13.50106 26.21795 0.03542
C 13.61712 27.68044 0.01416
C 6.1147 30.56198 -0.00482
C 4.8458 29.8557 -0.01384
C 4.87106 28.42294 0.03693
C 6.05861 27.63091 0.01745
C 6.08489 26.22424 0.00488
C 4.82099 25.53088 -0.01004
C 4.90591 24.15884 -0.02896
C 6.1196 23.51089 -0.00131
C 6.20192 22.0139 -0.01118
C 4.92316 21.32237 -0.014
C 4.9345 19.93737 0.02147
C 6.17459 19.18337 0.00373
C 6.13534 17.76201 -0.00191
C 4.94158 16.92553 0.00438
C 4.81784 15.60986 0.01291
C 6.18285 15.01645 0.00093
C 6.18117 0.73202 0.00057
C 6.20967 31.99614 0.02888
C 4.94231 32.66531 0.00685
C 2.47086 34.06519 0.00895
C 3.73222 0.59232 0.00393
C 3.68757 30.53197 -0.01303
C 2.43041 29.89737 -0.01378
C 2.37706 28.4151 0.02635
C 3.61314 27.69871 0.0127
C 3.59451 26.23991 0.01396
C 2.37193 25.58889 0.01849
C 2.4478 24.14418 -0.01142
C 3.65426 23.42981 -0.00562
C 4.98607 0.04457 -0.01634
C 3.67867 21.99111 -0.00494
C 2.53659 19.83572 0.03007
C 3.74076 19.14778 -0.00095
C 3.70041 17.74912 0.01572
C 2.46122 17.0243 -0.04848
C 2.46229 15.4906 -0.00892
C 3.65897 14.82046 -0.01362
C 3.63892 13.49459 -0.0008
C 2.40929 12.89252 0.0288
C 2.51286 21.28927 0.00054
C 23.3335 21.96095 0.01511
C 7.39018 32.75385 -0.00334
C 8.55012 30.50372 0.01641
C 11.01992 26.29817 0.02819
C 9.79731 25.62303 0.00165
C 9.82788 24.22245 -0.02971
C 10.99783 23.50157 0.02894
C 11.04397 22.14843 -0.01789
C 9.83945 21.36328 0.00444
C 9.84708 19.92857 -0.00925
C 11.04387 19.15659 0.01877
C 11.00861 17.63982 0.01363
C 9.77628 17.01221 -0.02162
C 11.17022 0.75917 0.00415
C 9.94893 0.10884 -0.0014
C 12.32731 32.67502 0.02162
C 13.50547 31.95055 0.0076
C 13.53677 30.56353 0.01241
C 12.32632 29.87959 -0.01454
C 12.32416 28.49933 0.01945
C 11.05033 27.74433 -0.00891
C 9.73796 28.40154 -0.01046
C 9.79506 29.83505 -0.02689
C 10.99993 30.55805 -0.01536
C 7.30978 29.73269 -0.00719
C 7.28458 28.36919 0.01364
C 8.53022 27.67312 -0.01062
C 8.54344 26.2419 -0.00033
C 7.35797 25.54647 0.03589
C 7.34623 24.16331 -0.02759
C 8.63257 23.52386 0.0402
C 8.61887 22.07239 0.00572
C 8.57528 31.93169 0.02339
C 7.38194 21.38827 0.03592
C 8.64182 19.22077 0.00943
C 8.64044 17.84509 0.02841
C 7.41789 17.16571 -0.01111
C 7.20722 15.83125 -0.01275
C 8.67576 0.58756 0.00985
C 7.38159 0.20797 -0.02245
C 9.85536 32.64917 -0.00428
C 11.08271 31.93733 0.03101
C 7.44101 19.91298 0.00406
C 3.69201 31.93673 0.00848
C 22.06945 21.27254 -0.00478
C 23.25958 19.16955 -0.01185
C 32.02006 32.67713 -0.02142
C 33.25734 31.98887 0.0544
C 33.22769 30.54334 0.00026
C 31.9871 29.82472 0.00682
C 31.95938 28.3844 -0.01779
C 33.12299 27.66831 0.03794
C 33.13947 26.21898 0.01927
C 31.90752 25.48778 0.01574
C 31.91246 24.14775 -0.02383
C 33.13764 23.46513 -0.01429
C 33.28595 21.99238 -0.0136
C 31.97867 21.32188 0.00594
C 31.93777 19.89393 -0.02474
C 33.20773 19.20161 0.00369
C 33.15616 17.75325 0.00455
C 31.91284 17.07459 -0.00644
C 31.90718 15.64118 -0.01839
C 29.53582 34.03632 0.01428
C 33.18595 14.90259 0.00137
C 30.8147 0.70028 -0.01694
C 29.51215 2.83627 0.00346
C 29.47118 21.31107 -0.00669
C 29.5007 19.92965 0.0101
C 30.69909 19.21531 0.01705
C 30.68189 17.87545 -0.0405
C 29.44822 17.11064 -0.01303
C 29.44824 15.677 -0.01461
C 30.6893 14.93594 -0.02155
C 30.67292 13.45764 -0.00944
C 29.45104 12.83546 -0.03735
C 29.45298 11.3641 -0.00971
C 30.72044 10.63502 0.01518
C 30.66239 9.24286 0.01908
C 29.42245 8.46158 0.07705
C 29.4974 7.08183 0.0103
C 30.76486 6.43779 0.02108
C 30.76177 4.92984 0.00716
C 29.50417 4.20866 0.00307
C 30.71434 2.13516 0.01713
C 33.18702 13.49699 0.00199
C 31.89984 12.8237 0.04381
C 31.93885 11.36769 0.02806
C 34.43247 21.24196 0.01223
C 0.02814 19.90596 0.00648
C 1.25193 19.182 0.02114
C 1.19723 17.72035 -0.02957
C 34.33889 17.00094 0.00343
C 34.40263 15.5863 -0.02656
C 1.15805 14.83031 -0.02442
C 1.13867 13.46349 -0.00027
C 34.38968 12.72892 -0.00583
C 34.37098 11.32159 -0.02302
C 1.07032 10.46651 -0.02849
C 34.33891 8.67788 0.02931
C 34.35369 7.27794 0.00628
C 34.40826 4.30397 -0.0345
C 0.21202 2.98121 -0.00931
C 1.36984 2.14092 -0.00939
C 1.30137 0.69279 -0.00468
C 1.26743 21.95239 -0.01678
C 1.21211 23.33602 0.01951
C 34.36858 24.10935 -0.02213
C 34.36832 25.55889 0.02712
C 33.0976 10.70527 0.01504
C 33.10019 9.3264 -0.00069
C 31.91426 8.57704 0.04926
C 31.99269 7.111 -0.03838
C 33.27019 6.47629 0.00349
C 33.18598 5.01662 -0.00323
C 32.03069 4.27293 -0.00841
C 32.02151 2.88636 0.0001
C 30.70185 22.02763 0.03531
C 33.28425 2.17787 -0.02927
C 32.0367 0.05279 0.01027
C 0.02598 32.72131 0.01831
C 1.25467 32.02584 -0.01037
C 1.23999 30.52283 -0.00439
C 0.03158 29.77099 -0.00598
C 34.38364 28.4242 -0.05239
C 1.16505 27.6836 0.03076
C 1.16746 26.26143 0.00723
C 33.25118 0.77283 -0.01404
C 30.70035 23.43202 0.01836
C 29.5122 24.1308 -0.03039
C 29.44434 25.56403 -0.01415
C 24.57258 21.30213 -0.0276
C 24.5134 19.88365 0.03005
C 25.75588 19.18764 -0.04078
C 25.76068 17.78042 0.02117
C 24.53842 17.04763 0.02737
C 24.60089 15.59385 -0.00498
C 25.81787 14.91178 0.00135
C 25.82497 13.44212 0.03102
C 24.57788 12.73153 0.02555
C 24.76673 11.37154 0.01423
C 25.86686 10.606 -0.00285
C 25.80436 9.22835 -0.009
C 24.49316 8.61697 -0.01199
C 24.34306 7.22555 -0.00229
C 25.6809 6.42906 -0.00938
C 25.7639 4.97562 -0.0264
C 24.62509 4.24465 -0.01154
C 25.7586 22.01244 0.00768
C 25.81246 23.41426 -0.00178
C 24.60207 24.13236 0.00733
C 24.6466 25.50728 -0.02118
C 23.34754 17.69601 0.01126
C 22.05693 16.90725 0.01852
C 22.24204 15.63455 -0.00381
C 23.34419 14.93288 0.03046
C 23.25612 6.4664 0.0296
C 23.41002 5.00861 0.03374
C 22.28549 4.28634 -0.02845
C 22.10447 2.86671 -0.03213
C 24.46029 2.82628 0.00684
C 23.26564 2.1317 0.02239
C 22.03893 0.07265 0.02734
C 24.62117 32.66116 -0.0055
C 25.81981 31.96323 0.01515
C 25.82776 30.50563 -0.00225
C 24.61919 29.81774 0.00071
C 24.64836 28.38445 -0.01107
C 25.83672 27.63443 -0.01586
C 25.85083 26.25035 -0.01971
C 23.34114 0.68622 0.01153
C 22.01681 19.84791 -0.01662
C 25.7408 2.16465 -0.01052
C 24.54883 34.07671 0.00367
C 28.26197 9.12735 0.01094
C 27.01242 8.47971 0.00235
C 26.91826 7.0698 0.01495
C 28.32624 6.37021 0.01259
C 28.25344 4.94075 0.01799
C 27.00707 4.29405 0.01699
C 27.06625 2.86462 -0.00416
C 28.25167 2.14971 0.01177
C 28.26204 0.64946 0.04266
C 26.96331 34.02405 0.01324
C 29.56193 32.67082 0.0014
C 30.77924 31.99411 0.00924
C 30.81466 30.54422 0.02326
C 29.52908 29.84587 0.00261
C 29.51971 28.44561 0.03265
C 30.72593 27.68932 -0.02049
C 30.71281 26.2995 -0.01854
C 28.24604 10.59038 0.02198
C 27.03954 11.35601 0.02611
C 27.01772 12.77876 -0.00621
C 28.21458 13.50905 0.00194
C 27.11628 32.59963 0.04306
C 28.33506 31.89612 0.00996
C 28.32078 30.47436 0.00195
C 27.10008 29.76631 -0.00802
C 27.0483 28.33276 -0.00218
C 28.26701 27.67451 -0.01654
C 28.24511 26.22147 -0.00037
C 27.06376 25.5597 -0.0032
C 25.77569 0.71889 -0.01679
C 27.00102 24.16786 0.00622
C 28.24313 22.0536 -0.00942
C 27.01736 21.39038 0.00487
C 27.04286 19.96034 0.00826
C 28.26715 19.24409 -0.00294
C 28.20243 17.77201 0.00152
C 27.02534 17.06963 0.01257
C 26.99832 15.64004 0.02316
C 28.22824 14.92061 0.04185
C 28.22924 23.45052 -0.02815
C 2.48158 32.68302 -0.00049
