412
Graphene
C 0.01436 0.0238 0.01295
C 12.33993 29.81003 -0.02245
C 12.24572 28.46495 -0.00428
C 13.51765 27.71806 0.03101
C 13.53609 26.23571 -0.01536
C 12.32619 25.5965 -0.02689
C 12.3384 24.17765 -0.01046
C 13.51837 23.39595 -0.00891
C 13.51575 21.98718 0.02819
C 12.27984 21.23101 0.00165
C 12.29604 19.87548 -0.02971
C 13.56523 19.19062 0.02894
C 13.53849 17.74381 -0.01789
C 12.32025 17.0243 0.00444
C 12.3266 15.60534 -0.00925
C 13.50629 14.96775 0.01877
C 13.54874 13.46459 0.01363
C 12.30218 12.70983 -0.02162
C 12.23581 11.33775 0.00415
C 13.58191 10.60534 -0.0014
C 13.49147 9.22267 0.02162
C 12.27904 8.53109 0.0076
C 13.53762 30.50422 0.00985
C 13.50456 32.02028 -0.01275
C 12.22811 32.69881 -0.01111
C 9.84476 0.04125 0.02841
C 11.08725 23.45212 0.02147
C 11.088 22.03595 0.00373
C 9.85755 21.33389 -0.00191
C 9.85189 19.89384 0.00438
C 11.06466 19.17276 0.01291
C 11.10725 17.76948 0.00093
C 9.85672 17.10289 0.00057
C 9.82177 15.64488 -0.01634
C 11.07252 14.97222 -0.00334
C 11.09638 13.46159 0.02339
C 12.30313 7.08277 0.01241
C 9.8738 12.81983 0.01641
C 11.11733 10.65755 0.01364
C 11.0632 9.22029 -0.01062
C 9.82243 8.55305 -0.00033
C 9.84017 7.07378 0.03589
C 11.01288 6.36815 -0.02759
C 11.08458 4.97054 0.0402
C 9.8919 4.26459 0.00572
C 9.81438 2.88133 0.03592
C 11.07238 2.15262 0.00406
C 11.03057 0.77239 0.00943
C 9.84973 11.39396 -0.00719
C 13.52013 6.32049 -0.01454
C 13.52219 4.9463 0.01945
C 12.29353 4.32454 0.01416
C 15.98269 9.21724 0.00889
C 14.71094 8.5398 -0.00481
C 14.72837 7.11335 0.00979
C 16.00501 6.38819 0.01443
C 16.0163 5.00935 0.03505
C 14.75429 4.23091 -0.02815
C 14.78837 2.8606 -0.04147
C 15.99241 2.14447 -0.05302
C 16.00255 0.66752 0.00213
C 14.71425 34.07153 -0.00066
C 15.96528 10.65018 -0.02162
C 17.23205 32.62218 -0.00289
C 18.48164 30.50227 -0.02213
C 17.2021 29.85679 0.03698
C 17.18504 28.36167 -0.00109
C 18.40893 27.67269 -0.00491
C 18.3826 26.29563 0.03338
C 17.21063 25.58463 -0.0258
C 17.19309 24.13984 -0.0331
C 18.44448 23.42367 -0.00316
C 18.46079 22.00965 0.02188
C 17.24814 21.31675 -0.01979
C 18.48738 31.97638 0.00028
C 9.86126 24.1541 -0.014
C 14.76411 11.37294 -0.00619
C 15.99121 13.44618 0.02098
C 12.26992 2.82201 0.03542
C 13.55783 2.12704 0.02299
C 13.57018 0.72373 0.00244
C 12.2776 0.00684 -0.01717
C 14.74341 32.65674 0.05265
C 15.9427 31.94146 -0.01952
C 15.9707 30.50804 -0.02813
C 14.71664 29.80667 0.00374
C 14.73961 28.40665 0.00052
C 16.03305 27.68174 -0.03682
C 14.74316 12.75474 0.01848
C 15.98909 26.22601 0.01965
C 14.72014 24.12055 -0.01957
C 15.99204 23.41423 -0.0108
C 15.96612 21.99423 -0.00368
C 14.78268 21.2618 -0.02696
C 14.79784 19.88336 -0.00114
C 15.96731 19.22689 0.00228
C 16.00075 17.71228 0.00798
C 14.70938 17.06891 0.00422
C 14.74822 15.61253 0.0351
C 15.98443 14.92463 -0.03113
C 14.77084 25.48857 0.02058
C 17.20677 19.92244 0.02691
C 9.83183 25.56443 -0.01118
C 11.02358 27.72328 -0.02896
C 2.44711 2.8306 -0.04307
C 3.67074 2.14884 0.03189
C 3.70286 0.67142 0.00031
C 2.46828 0.04159 -0.003
C 4.91256 32.68064 0.01402
C 6.1453 31.9799 0.02379
C 6.10665 30.60803 0.00907
C 4.93109 29.85048 0.00643
C 4.89773 28.38977 -0.01509
C 6.13239 27.67267 0.03267
C 6.1409 26.30622 0.02374
C 4.98671 25.51785 0.00402
C 4.96968 24.15642 0.0073
C 6.13 23.42091 0.0174
C 6.19768 21.9795 0.03828
C 4.93893 21.28217 0.01226
C 4.82522 19.88679 -0.00279
C 6.13125 19.25025 0.01996
C 6.1563 17.75956 -0.03996
C 4.95386 17.0228 0.01465
C 4.90232 15.63298 -0.00074
C 2.49027 4.2299 0.03284
C 3.67644 4.92822 0.04505
C 3.74222 6.36612 -0.04999
C 2.42479 7.04181 -0.03291
C 3.67084 30.59409 0.04421
C 2.42365 29.85324 0.00088
C 2.44556 28.4218 0.00828
C 3.70236 27.75029 -0.02375
C 3.71173 26.20115 0.00558
C 2.48862 25.57701 -0.0059
C 2.49949 24.15682 -0.01386
C 3.68381 23.44524 -0.02805
C 3.68537 22.00626 0.00081
C 2.43109 21.25832 0.00245
C 6.14963 14.89793 -0.00518
C 2.49019 19.88708 0.02728
C 3.67673 17.71337 0.0064
C 2.46449 17.04283 0.00211
C 2.48156 15.64735 -0.00449
C 3.67112 14.8912 -0.01979
C 3.7124 13.48001 0.02784
C 2.4809 12.77563 -0.01977
C 2.47624 11.38585 -0.00561
C 3.67009 10.57718 0.00208
C 3.68602 9.2248 0.01707
C 2.43951 8.56418 0.02769
C 3.62035 19.12562 -0.00039
C 6.18249 13.48759 0.0086
C 4.90477 12.79931 -0.00643
C 4.89841 11.40032 0.017
C 7.42968 17.00431 -0.01142
C 7.3596 15.62831 -0.00562
C 8.60163 14.90087 -0.00494
C 8.64337 13.4999 0.00054
C 7.37285 12.7525 0.03007
C 7.38956 11.34709 -0.00095
C 8.61805 10.6873 0.01572
C 8.57573 9.22889 -0.04848
C 7.3533 8.54166 -0.00892
C 7.38977 7.09182 -0.01362
C 8.62845 17.80856 0.01849
C 8.59237 6.43792 -0.0008
C 7.41543 4.31802 0.00393
C 7.35084 2.91583 0.00895
C 8.58418 2.17747 0.00685
C 8.62089 0.70903 0.02888
C 7.32025 0.00755 -0.00482
C 9.83373 32.67143 -0.01384
C 11.08206 31.9319 0.03693
C 11.07334 30.49869 0.01745
C 9.80242 29.85824 0.00488
C 9.77848 28.44911 -0.01004
C 8.63516 4.98462 0.0288
C 11.02582 26.2922 -0.00131
C 8.5786 19.19988 0.01396
C 7.39248 21.27717 0.02635
C 6.1772 10.63205 -0.03113
C 6.11576 9.26976 -0.02566
C 4.88933 8.53742 -0.00094
C 4.94693 7.12791 0.02322
C 6.17533 6.33146 -0.00725
C 6.13933 4.9918 -0.05697
C 4.88047 4.26778 0.01087
C 4.92328 2.83561 -0.01343
C 6.12073 2.16983 0.00988
C 6.05838 0.73447 0.0276
C 7.34887 19.89705 0.0127
C 4.88993 34.04774 0.01305
C 8.61511 32.00363 0.03368
C 8.5846 30.52026 -0.02929
C 7.38849 29.86265 -0.00966
C 7.36092 28.37427 -0.03337
C 8.59786 27.69493 0.01227
C 8.63685 26.31156 0.00873
C 7.42113 25.55741 -0.00049
C 7.39021 24.17356 0.00848
C 8.6166 23.42785 -0.01303
C 8.60506 22.04432 -0.01378
C 7.35824 32.68042 -0.00077
C 18.40109 19.21521 -0.01581
C 18.48207 17.75131 0.01452
C 17.23156 16.99444 0.04892
C 30.7996 31.97355 -0.03735
C 30.73289 17.75885 -0.00971
C 29.51766 17.07133 0.01518
C 29.53331 15.63445 0.01908
C 30.73638 14.91012 0.07705
C 30.71921 13.46828 0.0103
C 29.49982 12.81196 0.02108
C 29.55126 11.38001 0.00716
C 30.74963 10.57261 0.00307
C 30.77331 9.17785 0.00346
C 29.50878 8.52573 0.01713
C 29.51142 7.12179 -0.01694
C 30.75238 6.35156 0.01428
C 30.71532 4.96983 -0.02142
C 29.56942 4.22056 0.0544
C 29.4871 2.81512 0.00026
C 30.70771 2.15095 0.00682
C 30.71473 0.68194 -0.01779
C 29.488 0.03664 0.03794
C 31.9795 32.65227 0.01927
C 33.22018 31.88605 0.01574
C 29.55017 32.61417 -0.00944
C 27.07227 0.02859 -0.02155
C 28.32077 0.70781 -0.01461
C 28.28694 2.07783 -0.01303
C 24.60724 4.2777 0.01259
C 24.63423 2.81403 0.01799
C 25.79952 2.1114 0.01699
C 25.83528 0.68338 -0.00416
C 24.56278 0.0039 0.01177
C 27.07061 32.64896 0.04266
C 28.29342 32.01369 0.01324
C 28.26705 17.73366 0.0014
C 27.09092 17.06785 0.00924
C 27.0427 15.61832 0.02326
C 33.24089 30.5481 -0.02383
C 28.26263 14.8912 0.00261
C 27.08456 12.76939 -0.02049
C 27.08324 11.36137 -0.01854
C 28.26065 10.63788 -0.01415
C 28.30758 9.27052 -0.03039
C 27.06806 8.51633 0.01836
C 27.07431 7.1333 0.03531
C 28.26284 6.31283 -0.00669
C 28.24844 4.94431 0.0101
C 27.04719 4.24742 0.01705
C 27.13486 2.84637 -0.0405
C 28.23128 13.44329 0.03265
C 33.16565 23.44258 -0.01429
C 33.20091 19.13636 -0.0136
C 33.15977 17.76455 0.00594
C 1.22735 23.40752 0.00723
C 1.20441 22.06374 0.02712
C 34.43249 21.34462 -0.02213
C 34.42017 19.89317 0.01951
C 1.24761 19.16912 -0.01678
C 1.18801 17.71741 0.01223
C 34.38834 17.02797 0.00648
C 34.42648 15.62474 0.02114
C 1.25873 14.87315 -0.02957
C 1.23644 13.48866 0.00343
C 34.38531 24.18674 0.03076
C 0.00889 12.77249 -0.02656
C 1.21088 10.72312 -0.00027
C 1.21149 9.24181 -0.00583
C 34.40069 8.52024 -0.02302
C 34.42859 7.13047 -0.02849
C 1.22976 6.36929 0.02931
C 1.23304 4.9507 0.00628
C 34.41412 4.20845 -0.0345
C 34.42698 2.81991 -0.00931
C 1.23691 2.15133 -0.00939
C 1.23835 0.76968 -0.00468
C 34.41778 11.32858 -0.02442
C 25.81477 4.93847 0.01495
C 34.38965 25.58019 -0.05239
C 1.22558 27.68248 -0.00439
C 31.99886 17.05326 -0.02474
C 31.94111 15.54982 0.00369
C 33.19246 14.884 0.00455
C 33.23798 13.4773 -0.00644
C 31.94738 12.74495 -0.01839
C 31.93993 11.35355 0.00137
C 33.20644 10.61301 0.00199
C 33.19461 9.23232 0.04381
C 32.00725 8.52099 0.02806
C 31.94014 7.10212 0.01504
C 1.2522 26.22726 -0.00598
C 33.18408 6.38042 -0.00069
C 31.94928 4.25455 -0.03838
C 31.98395 2.86343 0.00349
C 33.23254 2.09629 -0.00323
C 33.19033 0.71936 -0.00841
C 31.91727 0.00059 0.0001
C 34.38405 32.64254 -0.02927
C 1.2348 31.91666 -0.01404
C 1.20581 30.53701 0.01027
C 0.0075 29.79549 0.01831
C 0.04377 28.4134 -0.01037
C 33.13088 4.98099 0.04926
C 25.78688 6.34309 0.00235
C 24.62264 7.08463 0.01094
C 24.59854 8.50114 0.02198
C 20.91122 21.97562 -0.02422
C 19.7065 21.24943 0.01277
C 19.67537 19.84821 0.00096
C 20.87876 19.17562 -0.01527
C 20.93598 17.67633 0.01087
C 19.65414 17.00098 0.00199
C 19.64569 15.62875 0.01511
C 20.94323 14.87041 -0.00478
C 20.95198 13.46145 -0.01662
C 19.65206 12.74075 -0.01185
C 20.88567 23.42024 -0.01721
C 19.71373 11.34526 0.01126
C 20.90781 9.1981 -0.00381
C 19.71189 8.51896 0.03046
C 19.66705 7.09632 0.0296
C 20.90303 6.38822 0.03374
C 20.94328 4.95237 -0.02845
C 19.72245 4.26884 -0.03213
C 19.70606 2.90853 0.02239
C 20.92615 2.15043 0.01153
C 20.89972 0.63207 0.02734
C 19.6524 34.07514 -0.0055
C 20.91925 10.63696 0.01852
C 22.11091 32.72042 0.01515
C 19.64398 24.15033 -0.01154
C 20.92307 26.25596 -0.01594
C 17.2102 15.64313 -0.00111
C 18.43146 14.88327 -0.03557
C 18.4907 13.50597 0.03754
C 17.21537 12.8158 0.01739
C 17.20397 11.32227 0.00755
C 18.48111 10.68568 -0.0054
C 18.47408 9.23791 0.00667
C 17.2647 8.48974 0.00143
C 17.17047 7.06849 -0.017
C 18.47952 6.44271 0.00364
C 19.66824 25.52466 0.0106
C 18.57215 5.01674 -0.00831
C 17.19071 2.88186 -0.04422
C 18.44996 2.14828 0.00654
C 18.43994 0.6747 -0.00703
C 17.16372 34.07643 -0.04076
C 19.65601 32.68255 -0.00652
C 20.88039 31.9436 0.0058
C 20.88045 30.52052 -0.00865
C 19.71404 29.79104 0.00675
C 19.60135 28.36414 -0.00311
C 20.9091 27.68738 0.00742
C 17.19619 4.29353 -0.02957
C 3.6585 31.91579 -0.00177
C 23.32212 31.97874 -0.00225
C 22.12922 29.81328 -0.01107
C 23.35512 0.71274 0.00367
C 22.13658 0.02506 0.04306
C 24.58954 32.59519 0.00996
C 25.84891 31.94504 0.00195
C 25.82165 30.53396 -0.00802
C 24.61027 29.84044 -0.00218
C 24.64787 28.46883 -0.01654
C 24.59242 25.5242 -0.00037
C 24.58193 24.1274 -0.0032
C 25.79231 21.984 0.00622
C 23.39396 2.14644 -0.01679
C 24.56858 21.30372 -0.02815
C 25.80928 19.13513 0.00487
C 25.85533 17.77534 0.00826
C 24.60817 17.06325 -0.00294
C 24.58242 15.61766 0.00152
C 25.81631 14.87291 0.01257
C 25.80852 13.4997 0.02316
C 24.60612 12.76951 0.04185
C 24.57317 11.34292 0.00194
C 25.80288 10.64381 -0.00621
C 25.83818 9.22355 0.02611
C 24.58285 19.85934 -0.00942
C 23.34909 30.56069 0.00071
C 22.15242 2.79146 -0.01052
C 23.38044 5.0278 -0.01154
C 22.17468 28.41926 -0.01586
C 23.34045 27.70289 -0.01971
C 23.36481 26.24495 -0.02118
C 22.12715 25.57274 0.00733
C 22.13423 24.15444 -0.00178
C 23.35853 23.40939 0.00768
C 23.34879 21.99923 -0.0276
C 22.19 21.315 0.03005
C 22.07836 19.90468 -0.04078
C 23.3573 19.18876 0.02117
C 22.1361 4.28698 0.00684
C 23.38418 17.75594 0.02737
C 22.14899 15.59012 0.00135
C 23.32991 14.86765 0.03102
C 23.39189 13.45858 0.02555
C 22.12551 12.7644 0.01423
C 22.10262 11.36069 -0.00285
C 23.36125 10.64015 -0.009
C 23.34633 9.21617 -0.01199
C 22.13448 8.52858 -0.00229
C 22.10965 7.06232 -0.00938
C 23.33646 6.39724 -0.0264
C 22.16512 17.08855 -0.00498
C 2.50441 32.69632 0.03278
