348
Graphene
C 0.02935 34.00267 0.01295
C 13.54827 14.92433 0.00422
C 13.50735 13.46693 0.0351
C 12.25796 12.77899 -0.03113
C 12.33124 11.43742 0.02098
C 13.53 10.67434 0.01848
C 13.40837 9.27914 -0.00619
C 12.26305 8.5276 -0.02162
C 12.30483 7.06478 0.00889
C 13.54372 6.39499 -0.00481
C 13.59299 4.88641 0.00979
C 12.33121 4.21564 0.01443
C 12.39919 2.86976 0.03505
C 13.62619 2.15245 -0.02815
C 13.5209 0.76671 -0.04147
C 12.31749 0.07147 -0.05302
C 14.76444 32.69519 0.00213
C 15.97739 31.95634 -0.00066
C 12.36501 15.50824 0.00798
C 12.31421 16.96654 0.00228
C 13.59452 17.72932 -0.00114
C 13.5594 19.09903 -0.02696
C 11.09528 10.69318 -0.01454
C 11.01707 9.19747 0.01945
C 9.80801 8.56076 0.01416
C 9.84066 7.18879 0.03542
C 11.03014 6.42665 0.02299
C 11.09886 4.97821 0.00244
C 9.88316 4.30364 -0.01717
C 9.82625 2.87897 0.05265
C 15.9226 30.47524 -0.00289
C 11.09928 2.2525 -0.01952
C 9.87009 0.01082 0.00374
C 12.29315 32.7878 0.00052
C 13.50479 31.90795 -0.03682
C 13.57582 30.63399 0.01965
C 13.54579 23.3834 0.02058
C 13.50207 21.97626 -0.01957
C 12.36496 21.19264 -0.0108
C 12.33621 19.86303 -0.00368
C 11.08088 0.8333 -0.02813
C 14.60239 29.66719 0.00028
C 14.72019 28.21914 -0.02213
C 15.9067 27.67948 0.03698
C 14.82068 2.792 -0.00831
C 16.05947 2.09099 -0.02957
C 15.9853 0.70426 -0.04422
C 14.82754 34.02116 0.00654
C 17.20259 32.60716 -0.00703
C 18.44108 31.9943 -0.04076
C 18.39617 30.53508 -0.00652
C 17.14598 29.74469 0.0058
C 14.8468 4.23923 0.00364
C 17.16814 28.40107 -0.00865
C 18.38405 26.302 -0.00311
C 17.17471 25.63528 0.00742
C 17.16336 24.13319 -0.01594
C 18.4411 23.45197 0.0106
C 18.4452 21.96156 -0.01154
C 17.20862 21.32044 -0.01721
C 17.18177 19.93707 -0.02422
C 18.48885 19.16233 0.01277
C 18.39035 27.75382 0.00675
C 9.80802 11.38634 0.01241
C 16.02105 4.96632 -0.017
C 14.70463 7.05759 0.00667
C 15.97121 26.26964 -0.00109
C 14.70782 25.70604 -0.00491
C 14.59103 24.30254 0.03338
C 15.93638 23.52149 -0.0258
C 16.0048 22.08008 -0.0331
C 14.81154 21.3023 -0.00316
C 14.75497 19.84168 0.02188
C 16.00556 19.1477 -0.01979
C 15.9587 6.36699 0.00143
C 15.95255 17.73447 0.02691
C 14.83372 15.59597 0.01452
C 16.00579 14.88784 0.04892
C 15.94676 13.4536 -0.00111
C 14.6548 12.80627 -0.03557
C 14.74197 11.41149 0.03754
C 15.99203 10.62733 0.01739
C 15.93396 9.20375 0.00755
C 14.67519 8.5059 -0.0054
C 14.78471 17.04597 -0.01581
C 18.45763 17.74128 0.00096
C 9.80318 12.72114 0.0076
C 11.00323 14.83427 -0.0014
C 3.69469 6.3549 -0.01362
C 3.64198 4.95254 -0.0008
C 2.45674 4.15288 0.0288
C 2.42153 2.74671 0.00393
C 3.7557 2.14683 0.00895
C 3.77809 0.76167 0.00685
C 2.51339 0.00918 0.02888
C 4.95301 32.65455 -0.00482
C 5.97978 31.93177 -0.01384
C 5.06454 21.272 0.03693
C 4.93893 19.86758 0.01745
C 6.13711 19.19482 0.00488
C 6.08743 17.86112 -0.01004
C 4.84611 17.05229 -0.02896
C 4.86295 15.64551 -0.00131
C 6.10019 14.98136 -0.01118
C 6.11807 13.52882 -0.014
C 2.48093 7.05246 -0.00892
C 2.47981 8.56329 -0.04848
C 3.68297 9.20652 0.01572
C 3.54961 10.6269 -0.00095
C 3.58443 30.60784 -0.02929
C 2.52565 29.80196 -0.00966
C 2.47572 28.38 -0.03337
C 3.52557 27.4804 0.01227
C 2.37199 25.69052 0.00873
C 2.55905 24.25647 -0.00049
C 3.6127 23.51051 0.00848
C 3.89062 22.08226 -0.01303
C 4.87847 12.80592 0.02147
C 2.56322 21.32337 -0.01378
C 3.68026 19.20116 0.0127
C 3.64776 17.74682 0.01396
C 2.35761 16.98272 0.01849
C 2.41516 15.62328 -0.01142
C 3.60762 14.96325 -0.00562
C 3.66468 13.51725 -0.00494
C 2.35666 12.75132 0.00054
C 2.39453 11.36686 0.03007
C 2.44806 19.88479 0.02635
C 4.83324 11.42124 0.00373
C 6.0257 10.66364 -0.00191
C 6.09196 9.27253 0.00438
C 8.50322 9.25133 -0.02245
C 7.25311 8.50304 -0.00428
C 7.41506 7.15731 0.03101
C 8.68026 6.4568 -0.01536
C 8.67486 5.01182 -0.02689
C 7.4124 4.28385 -0.01046
C 7.3539 2.88353 -0.00891
C 8.59399 2.1983 0.02819
C 8.5519 10.69146 0.00985
C 8.54937 0.67722 0.00165
C 9.78569 32.5524 0.02894
C 11.1124 32.0571 -0.01789
C 9.9211 21.36482 0.00444
C 9.92206 20.01482 -0.00925
C 11.05045 19.14009 0.01877
C 11.10655 17.69066 0.01363
C 9.88267 17.03269 -0.02162
C 9.84585 15.69273 0.00415
C 7.34959 34.06902 -0.02971
C 11.03705 13.41937 0.02162
C 7.33921 11.43325 -0.01275
C 8.58403 13.51965 0.02841
C 4.90553 8.54263 0.01291
C 4.90979 7.1031 0.00093
C 6.10985 6.44224 0.00057
C 6.14316 4.95355 -0.01634
C 4.9007 4.22728 -0.00334
C 4.89061 2.83916 0.02339
C 6.1347 2.17621 0.01641
C 6.16618 0.73588 -0.00719
C 7.32569 12.76289 -0.01111
C 4.97708 0.02146 0.01364
C 8.53949 32.19128 -0.00033
C 7.4471 21.39383 0.03589
C 7.35994 19.95122 -0.02759
C 8.62867 19.29299 0.0402
C 8.64229 17.82893 0.00572
C 7.44213 17.0884 0.03592
C 7.32772 15.69763 0.00406
C 8.53051 14.92499 0.00943
C 7.26372 32.51683 -0.01062
C 17.19958 16.98781 -0.01527
C 17.22373 15.60033 0.01087
C 18.4538 14.90759 0.00199
C 29.49904 2.93578 0.01428
C 30.69909 2.29174 -0.02142
C 30.6703 0.84314 0.0544
C 29.51832 0.0695 0.00026
C 31.97595 32.7193 0.00682
C 33.14866 31.97051 -0.01779
C 33.17016 30.53517 0.03794
C 31.99976 29.82825 0.01927
C 32.04486 28.45176 0.01574
C 33.18309 27.66883 -0.02383
C 33.16773 26.31652 -0.01429
C 31.95266 25.55636 -0.0136
C 31.93192 24.17136 0.00594
C 33.07934 23.45681 -0.02474
C 33.10545 22.0319 0.00369
C 31.89678 21.32285 0.00455
C 31.85841 19.90905 -0.00644
C 29.55211 16.9987 -0.01694
C 30.67849 17.68137 0.01713
C 30.63113 19.20104 0.00346
C 29.39366 19.96425 0.00307
C 28.24464 19.29754 0.01836
C 28.27316 17.51122 0.03531
C 27.01797 17.13585 -0.00669
C 28.37427 2.11 0.0101
C 28.22747 0.73662 0.01705
C 27.12048 0.00678 -0.0405
C 29.48122 32.67909 -0.01303
C 30.72193 32.04535 -0.01461
C 33.15479 19.15475 -0.01839
C 30.71626 30.62604 -0.02155
C 29.60698 28.42892 -0.03735
C 30.79726 27.71139 -0.00971
C 30.75875 26.25646 0.01518
C 29.48595 25.54256 0.01908
C 29.53693 24.18631 0.07705
C 30.69275 23.43387 0.0103
C 30.61039 22.06206 0.02108
C 29.40151 21.36311 0.00716
C 29.53337 29.79472 -0.00944
C 33.16849 17.81844 0.00137
C 31.91048 17.0586 0.00199
C 32.01674 15.67227 0.04381
C 1.17422 19.21357 -0.01678
C 1.12825 17.84814 0.01223
C 0.01405 17.02335 0.00648
C 0.01486 15.65247 0.02114
C 1.27338 14.85846 -0.02957
C 1.17167 13.37214 0.00343
C 34.18738 12.74785 -0.02656
C 0.02229 11.27838 -0.02442
C 34.37925 19.9684 0.01951
C 1.14471 10.66515 -0.00027
C 0.10291 8.50448 -0.02302
C 34.37038 7.15103 -0.02849
C 1.21244 6.35414 0.02931
C 1.22382 4.97374 0.00628
C 34.42215 4.2103 -0.0345
C 34.40625 2.82609 -0.00931
C 1.23629 2.04246 -0.00939
C 1.26661 0.65905 -0.00468
C 1.28355 9.19943 -0.00583
C 27.0643 19.71334 -0.03039
C 34.41036 21.37097 -0.02213
C 1.24689 23.45751 0.00723
C 33.14575 14.90795 0.02806
C 33.18282 13.58277 0.01504
C 33.33089 6.37241 -0.00069
C 33.1973 5.04592 0.04926
C 32.04026 4.20245 -0.03838
C 31.96473 2.90481 0.00349
C 33.2453 2.1753 -0.00323
C 33.26487 0.70817 -0.00841
C 1.35914 22.03174 0.02712
C 31.93749 0.06672 0.0001
C 1.2576 32.0077 -0.01404
C 1.23 30.54226 0.01027
C 34.41821 29.79988 0.01831
C 34.40846 28.40374 -0.01037
C 1.27944 27.69991 -0.00439
C 1.15562 26.22862 -0.00598
C 34.36407 25.5219 -0.05239
C 34.37995 24.06636 0.03076
C 34.4102 32.65982 -0.02927
C 27.01514 25.68144 -0.01415
C 28.23568 26.25995 -0.01854
C 28.31372 27.76459 -0.02049
C 19.64361 24.18343 -0.02118
C 20.90239 23.48939 0.00733
C 20.89512 22.00935 -0.00178
C 19.65462 21.21329 0.00768
C 19.64556 19.86194 -0.0276
C 20.90802 19.19167 0.03005
C 20.91051 17.73926 -0.04078
C 19.64494 17.03179 0.02117
C 19.61684 25.56755 -0.01971
C 19.69452 15.57541 0.02737
C 19.64168 12.65236 0.00135
C 19.59051 7.24625 0.03102
C 20.95891 4.89978 0.02555
C 19.73525 4.22127 0.01423
C 19.71289 2.8201 -0.00285
C 20.97766 2.21078 -0.009
C 20.90396 0.7631 -0.01199
C 19.6501 34.04174 -0.00229
C 20.89299 14.92305 -0.00498
C 22.17064 32.60716 -0.00938
C 20.90412 26.35281 -0.01586
C 19.66117 28.35066 0.00071
C 18.41275 13.4085 0.01511
C 17.18911 12.68558 -0.00478
C 17.27433 11.23768 -0.01662
C 18.46144 10.50381 -0.01185
C 18.3761 9.25233 0.01126
C 17.2044 8.49085 0.01852
C 17.18163 7.15021 -0.00381
C 18.50564 6.40366 0.03046
C 20.92559 27.75601 -0.01107
C 18.50871 4.9212 0.0296
C 17.25808 2.81556 -0.02845
C 18.47525 2.04248 -0.03213
C 18.41279 0.64231 0.02239
C 17.15703 34.03241 0.01153
C 19.64352 32.71359 0.02734
C 20.87384 31.90116 -0.0055
C 20.89309 30.53131 0.01515
C 19.66189 29.78096 -0.00225
C 17.25599 4.24734 0.03374
C 3.78611 31.96211 0.03368
C 23.41831 31.95118 -0.0264
C 22.10254 29.89707 0.00684
C 25.87891 27.6219 -0.00621
C 25.80684 26.25723 0.02611
C 24.57939 25.43726 0.02198
C 24.68568 24.01643 0.01094
C 25.81098 23.29878 0.00235
C 24.55695 21.39192 0.01495
C 24.59885 19.93251 0.01259
C 25.85577 19.28215 0.01799
C 24.5564 28.42834 0.00194
C 25.748 17.45792 0.01699
C 25.69566 2.09307 0.01177
C 25.85574 0.80787 0.04266
C 24.64172 0.02303 0.01324
C 27.11537 32.6631 0.0014
C 28.2965 31.93191 0.00924
C 28.32647 30.4988 0.02326
C 27.09764 29.84738 0.00261
C 27.01056 28.39916 0.03265
C 24.50456 17.04015 -0.00416
C 23.39919 30.52613 -0.01154
C 24.58455 29.8204 0.04185
C 25.84995 31.91291 0.01257
C 22.15336 28.45849 -0.01052
C 23.35817 27.62531 -0.01679
C 23.32463 26.24066 0.00367
C 22.06566 25.57404 0.04306
C 22.06966 24.13452 0.00996
C 23.36673 23.39921 0.00195
C 23.36849 22.01805 -0.00802
C 22.07952 21.30221 -0.00218
C 25.90388 30.50152 0.02316
C 22.13946 19.92508 -0.01654
C 23.28198 17.74866 -0.0032
C 22.10932 16.99486 0.00622
C 21.96706 15.66527 -0.02815
C 22.2584 2.83905 -0.00942
C 23.38518 2.14005 0.00487
C 23.41767 0.67791 0.00826
C 22.18871 34.06493 -0.00294
C 24.66718 32.62193 0.00152
C 23.3974 19.24108 -0.00037
C 2.41021 32.64117 -0.00077
