339
Graphene
C 34.3587 0.08115 0.01295
C 11.0537 15.01247 -0.02162
C 11.14324 13.51717 0.00889
C 9.89515 12.78975 -0.00481
C 9.94855 11.38 0.00979
C 11.15152 10.60828 0.01443
C 11.13361 9.26343 0.03505
C 9.8812 8.47719 -0.02815
C 9.92917 7.11157 -0.04147
C 11.11787 6.47686 -0.05302
C 11.14918 5.03409 0.00213
C 9.91289 4.29549 -0.00066
C 9.79272 2.94525 -0.00289
C 11.07581 2.16956 0.00028
C 11.05438 0.76522 -0.02213
C 9.88167 0.01067 0.03698
C 12.31321 32.72821 -0.00109
C 13.57578 31.98199 -0.00491
C 9.79647 15.71274 -0.00619
C 13.49547 30.55713 0.03338
C 9.79399 17.08747 0.01848
C 11.10053 19.22866 -0.03113
C 7.32418 3.09978 0.05265
C 8.51342 2.24422 -0.01952
C 8.65732 0.78408 -0.02813
C 7.38607 0.12654 0.00374
C 9.84097 32.69033 0.00052
C 11.05341 31.98835 -0.03682
C 11.08591 30.5998 0.01965
C 9.87679 29.93385 0.02058
C 9.79311 28.50616 -0.01957
C 11.03033 27.80172 -0.0108
C 11.01153 26.3476 -0.00368
C 9.79788 25.59576 -0.02696
C 9.76729 24.08326 -0.00114
C 11.00165 23.4294 0.00228
C 11.08816 22.05217 0.00798
C 9.83666 21.34146 0.00422
C 9.77364 19.98482 0.0351
C 11.04234 17.84191 0.02098
C 12.31981 29.85375 -0.0258
C 12.25795 28.52034 -0.0331
C 13.5543 27.69231 -0.00316
C 12.31692 0.01304 -0.00652
C 14.77059 32.60558 0.0058
C 16.05518 31.90889 -0.00865
C 15.94067 30.50255 0.00675
C 14.79991 29.77192 -0.00311
C 14.79445 28.35514 0.00742
C 16.05994 27.65962 -0.01594
C 15.89396 26.24973 0.0106
C 14.70181 25.51632 -0.01154
C 14.75411 24.19289 -0.01721
C 15.93897 23.13224 -0.02422
C 15.06024 21.8399 0.01277
C 14.79556 8.52841 0.00096
C 14.85103 7.08061 -0.01527
C 16.08502 6.34474 0.01087
C 15.9869 4.94404 0.00199
C 14.76414 4.20809 0.01511
C 13.52081 0.69435 -0.04076
C 13.58451 2.08434 -0.00703
C 12.35987 2.85913 0.00654
C 12.31364 4.26195 -0.04422
C 13.50693 26.31726 0.02188
C 12.24919 25.68149 -0.01979
C 12.24258 24.2257 0.02691
C 13.49274 23.49895 -0.01581
C 13.63052 22.04079 0.01452
C 12.32118 21.37118 0.04892
C 12.3529 19.8885 -0.00111
C 13.44381 19.06258 -0.03557
C 7.43249 8.62771 -0.01717
C 12.24429 17.1358 0.03754
C 12.36869 12.91205 0.00755
C 12.33401 11.41659 -0.0054
C 13.52619 10.53616 0.00667
C 13.64757 9.24299 0.00143
C 12.30123 8.56431 -0.017
C 12.40319 7.11298 0.00364
C 13.63748 6.4143 -0.00831
C 13.58188 4.90785 -0.02957
C 12.14255 15.76404 0.01739
C 14.79773 2.75951 -0.00478
C 8.64192 9.241 0.00244
C 7.40838 11.31659 0.03542
C 2.42916 8.47625 -0.01384
C 2.36787 7.09757 0.03693
C 3.65343 6.38089 0.01745
C 3.59512 4.99246 0.00488
C 2.43347 4.27631 -0.01004
C 2.37819 2.89584 -0.02896
C 3.60828 2.15755 -0.00131
C 3.6 0.74877 -0.01118
C 2.39492 0.03159 -0.014
C 4.90775 32.70352 0.02147
C 6.12778 32.1 0.00373
C 6.14703 30.59441 -0.00191
C 4.91965 29.8947 0.00438
C 4.93744 28.4174 0.01291
C 6.13918 27.80486 0.00093
C 6.10939 26.37817 0.00057
C 4.92058 25.58408 -0.01634
C 3.72359 9.05737 -0.00482
C 4.92497 24.15295 -0.00334
C 3.72273 10.52329 0.02888
C 2.38789 12.76125 0.00895
C 3.66411 30.60468 0.02635
C 2.42321 29.83386 0.0127
C 2.36958 28.43522 0.01396
C 3.69186 27.69442 0.01849
C 3.62524 26.27733 -0.01142
C 2.46851 25.57322 -0.00562
C 2.46226 24.17767 -0.00494
C 3.71474 23.38909 0.00054
C 3.69976 21.98911 0.03007
C 2.35594 21.29693 -0.00095
C 2.41314 19.87111 0.01572
C 3.6797 19.18735 -0.04848
C 3.66666 17.70371 -0.00892
C 2.47764 17.01872 -0.01362
C 2.39917 15.50824 -0.0008
C 3.60752 14.86932 0.0288
C 3.59839 13.4063 0.00393
C 2.48964 11.31505 0.00685
C 6.15762 23.40957 0.02339
C 6.15584 22.04583 0.01641
C 4.91046 21.32502 -0.00719
C 7.39961 29.94126 0.00165
C 7.35312 28.45407 -0.02971
C 8.58826 27.77526 0.02894
C 8.56302 26.32146 -0.01789
C 7.29406 25.64232 0.00444
C 7.35692 24.23892 -0.00925
C 8.47821 23.43076 0.01877
C 8.5429 22.03114 0.01363
C 7.37143 21.34593 -0.02162
C 7.42928 19.85812 0.00415
C 8.6419 19.16344 -0.0014
C 8.56803 17.73653 0.02162
C 7.39256 17.0129 0.0076
C 7.38568 15.61412 0.01241
C 8.59709 14.93718 -0.01454
C 8.6175 13.48883 0.01945
C 7.39397 12.7304 0.01416
C 8.53843 30.65301 0.02819
C 8.54058 32.04693 -0.00891
C 7.34052 32.75168 -0.01046
C 4.95947 0.2022 -0.02689
C 4.92995 19.97581 0.01364
C 6.11711 19.14827 -0.01062
C 6.20564 17.77491 -0.00033
C 4.91287 17.01997 0.03589
C 4.88256 15.60857 -0.02759
C 6.13995 14.85152 0.0402
C 6.04584 13.4756 0.00572
C 4.87973 12.68947 0.03592
C 8.60303 10.62042 0.02299
C 4.9347 11.31045 0.00406
C 6.22244 9.10647 0.02841
C 4.97317 8.29679 -0.01111
C 4.88293 6.88916 -0.01275
C 5.98632 5.12217 0.00985
C 4.88268 4.32138 -0.02245
C 4.8294 2.86384 -0.00428
C 6.19595 2.29821 0.03101
C 6.23527 0.83919 -0.01536
C 6.13729 10.61618 0.00943
C 3.69768 31.98795 -0.01378
C 16.03418 2.00191 -0.01662
C 14.75887 34.04598 0.01126
C 31.96227 29.87402 -0.02142
C 31.94988 28.45858 0.0544
C 33.2108 27.67455 0.00026
C 33.17375 26.32102 0.00682
C 31.96014 25.49955 -0.01779
C 31.96176 24.0578 0.03794
C 33.17855 23.39047 0.01927
C 33.10207 22.01336 0.01574
C 31.84441 21.24771 -0.02383
C 31.90264 19.88966 -0.01429
C 33.1138 19.19582 -0.0136
C 33.20767 17.76735 0.00594
C 31.88376 17.04891 -0.02474
C 31.93116 15.57448 0.00369
C 33.17447 14.92051 0.00455
C 33.15466 13.47561 -0.00644
C 32.00715 12.75923 -0.01839
C 33.11118 30.58345 0.01428
C 31.98519 11.39734 0.00137
C 33.2095 32.00655 -0.01694
C 29.52649 34.03645 0.00346
C 29.33312 21.25429 -0.00669
C 29.53876 19.84947 0.0101
C 30.59281 19.01926 0.01705
C 30.61356 17.61147 -0.0405
C 30.76256 14.76408 -0.01303
C 30.73958 13.37635 -0.01461
C 29.54675 11.54381 -0.02155
C 30.59344 10.78447 -0.00944
C 30.65942 9.24519 -0.03735
C 29.49231 8.65088 -0.00971
C 29.5505 7.16189 0.01518
C 30.7305 6.36856 0.01908
C 30.71373 4.92873 0.07705
C 29.4062 4.33673 0.0103
C 29.39349 2.89044 0.02108
C 30.58258 2.16863 0.00716
C 30.73138 0.68857 0.00307
C 31.9489 32.70717 0.01713
C 33.16804 10.62266 0.00199
C 33.18074 9.21089 0.04381
C 31.87972 8.5876 0.02806
C 1.27927 17.76335 0.01223
C 34.39654 17.14074 0.00648
C 34.41843 15.6765 0.02114
C 1.14536 14.90795 -0.02957
C 1.18872 13.47792 0.00343
C 34.40246 12.81172 -0.02656
C 34.36401 11.37089 -0.02442
C 1.2325 10.63934 -0.00027
C 1.18718 9.31968 -0.00583
C 0.00269 8.52842 -0.02302
C 34.3569 7.05873 -0.02849
C 1.17767 6.43423 0.02931
C 1.22238 5.02286 0.00628
C 34.40688 4.32049 -0.0345
C 34.3435 2.88911 -0.00931
C 1.13154 2.20951 -0.00939
C 1.1507 0.79261 -0.00468
C 1.12204 19.13016 -0.01678
C 34.40306 19.88007 0.01951
C 34.37011 21.27901 -0.02213
C 1.17844 22.09663 0.02712
C 31.90748 7.13028 0.01504
C 33.10052 6.46324 -0.00069
C 33.13807 5.00923 0.04926
C 31.89832 4.24233 -0.03838
C 31.83962 2.76175 0.00349
C 33.15441 2.13586 -0.00323
C 33.10557 0.73824 -0.00841
C 31.98352 0.01917 0.0001
C 30.66252 21.96296 0.03531
C 34.41914 32.70382 -0.02927
C 1.16491 30.57901 0.01027
C 34.36606 29.89284 0.01831
C 0.00184 28.40562 -0.01037
C 1.17379 27.69552 -0.00439
C 1.18702 26.30277 -0.00598
C 34.385 25.51258 -0.05239
C 0.05717 24.11274 0.03076
C 1.25594 23.46269 0.00723
C 1.25449 32.03594 -0.01404
C 15.99938 0.66025 -0.01185
C 30.71199 23.41466 0.01836
C 29.53894 25.5503 -0.01415
C 19.5196 4.46545 -0.0276
C 19.71948 3.00887 0.03005
C 20.88305 2.17702 -0.04078
C 20.86961 0.6888 0.02117
C 19.65206 34.05693 0.02737
C 22.02983 32.51318 -0.00498
C 23.26957 31.79962 0.00135
C 23.28859 30.33508 0.03102
C 22.06475 29.77414 0.02555
C 23.35483 6.39068 0.01423
C 23.3184 5.01937 -0.00285
C 22.02714 4.26825 -0.009
C 22.05317 2.79511 -0.01199
C 23.336 2.07598 -0.00229
C 23.31129 0.61046 -0.00938
C 22.05473 34.02505 -0.0264
C 24.48908 32.52902 -0.01154
C 20.86925 5.09715 0.00768
C 25.73382 31.88429 0.00684
C 18.66923 24.76833 -0.00178
C 20.79039 30.2704 -0.02118
C 17.24388 32.59667 0.01852
C 18.4426 31.88232 -0.00381
C 18.41799 30.35313 0.03046
C 17.12955 29.72901 0.0296
C 17.42733 28.21342 0.03374
C 18.63295 27.6056 -0.02845
C 18.33853 26.16442 -0.03213
C 17.02141 25.42658 0.02239
C 17.15154 24.00228 0.01153
C 18.23518 5.01987 0.02734
C 17.11589 4.14888 -0.0055
C 17.25708 2.80045 0.01515
C 18.56997 2.20929 -0.00225
C 18.43518 0.7707 0.00071
C 17.25886 34.01247 -0.01107
C 19.623 32.58622 -0.01586
C 20.85071 31.76834 -0.01971
C 19.53576 29.56419 0.00733
C 25.76593 30.48265 -0.01052
C 24.61005 29.62683 -0.01679
C 25.73966 27.70145 0.00367
C 28.25445 9.36262 0.01094
C 27.1049 8.52918 0.00235
C 27.01956 7.20739 0.01495
C 28.285 6.49108 0.01259
C 28.18201 5.08775 0.01799
C 26.97371 4.28205 0.01699
C 26.89819 2.8475 -0.00416
C 28.16109 2.12969 0.01177
C 28.29765 0.70458 0.04266
C 27.06604 0.01359 0.01324
C 29.4456 32.57426 0.0014
C 30.76105 31.93205 0.00924
C 30.68731 30.55394 0.02326
C 29.45947 29.86038 0.00261
C 29.48826 28.4319 0.03265
C 30.75553 27.73282 -0.02049
C 30.69021 26.27124 -0.01854
C 28.02672 22.1032 0.02198
C 28.18627 23.47741 0.02611
C 26.8412 24.22033 -0.00621
C 27.02958 25.69687 0.00194
C 25.79116 26.39712 0.04306
C 24.36453 23.92308 0.00996
C 25.67373 23.70477 0.00195
C 24.51359 7.06633 -0.00802
C 25.7114 6.41621 -0.00218
C 25.76807 5.01171 -0.01654
C 24.55183 4.27218 -0.00037
C 24.47076 2.84414 -0.0032
C 29.42088 24.178 -0.03039
C 25.69726 2.09205 0.00622
C 24.51713 33.98802 -0.00942
C 26.90869 32.72186 0.00487
C 28.11801 31.97527 0.00826
C 28.15911 30.5627 -0.00294
C 27.03326 29.74339 0.00152
C 27.05711 28.32511 0.01257
C 28.27721 27.66545 0.02316
C 28.35544 26.29927 0.04185
C 25.79284 0.6885 -0.02815
C 2.45703 32.70488 -0.01303
