280
Graphene
C 0.01494 0.02264 0.01295
C 15.99684 13.46672 -0.02422
C 15.94636 14.95308 -0.01721
C 14.74723 15.66285 -0.01154
C 14.78849 17.00144 0.0106
C 14.81982 32.65161 -0.01594
C 12.32323 0.00645 0.00742
C 13.48458 0.69157 -0.00311
C 13.51926 2.12045 0.00675
C 12.26947 2.75797 -0.00865
C 12.29943 4.23963 0.0058
C 13.60011 5.00006 -0.00652
C 13.56475 6.35652 -0.04076
C 12.3059 7.06965 -0.00703
C 12.33297 8.51071 0.00654
C 13.49837 9.3002 -0.04422
C 13.53095 10.64345 -0.02957
C 12.32157 11.32291 -0.00831
C 11.03689 14.91333 0.02691
C 11.11508 13.45568 -0.01581
C 11.02405 4.94574 0.01452
C 9.84293 4.27279 0.04892
C 9.85939 2.81843 -0.00111
C 11.03822 2.14241 -0.03557
C 14.70399 12.80147 0.01277
C 11.10352 0.73729 0.03754
C 12.27894 32.65535 0.00755
C 12.31383 17.0515 -0.0054
C 12.30632 15.63814 0.00667
C 13.52858 14.90413 0.00143
C 13.5443 13.48177 -0.017
C 12.31843 12.82538 0.00364
C 9.86464 0.03841 0.01739
C 9.85217 15.62117 -0.01979
C 14.72238 11.38114 0.00096
C 16.01059 9.17404 0.01087
C 23.36281 30.53557 0.02117
C 23.35812 31.94731 -0.04078
C 22.18778 32.66496 0.03005
C 19.65284 0.00516 -0.0276
C 20.89002 0.71996 0.00768
C 19.69036 15.56275 -0.00178
C 19.61163 17.03544 0.00733
C 20.89978 17.74223 -0.02118
C 20.9625 19.1778 -0.01971
C 20.91778 30.54669 -0.01586
C 20.91607 31.93965 -0.01107
C 19.62506 32.7427 0.00071
C 17.19569 0.02168 -0.00225
C 18.42156 0.66866 0.01515
C 17.22035 12.75488 -0.0055
C 18.3833 13.48872 0.02734
C 18.48588 14.87999 0.01153
C 14.74373 8.5131 0.00199
C 14.73834 7.1108 0.01511
C 15.99605 6.34538 -0.00478
C 16.00365 5.04561 -0.01662
C 14.75682 4.22258 -0.01185
C 14.8058 2.81685 0.01126
C 15.97609 10.63986 -0.01527
C 15.99412 2.06507 0.01852
C 14.71983 34.05834 0.03046
C 17.235 32.64092 0.0296
C 18.4336 31.91346 0.03374
C 18.44386 17.70031 -0.02845
C 17.21703 17.0598 -0.03213
C 17.1862 15.66916 0.02239
C 15.96828 0.70404 -0.00381
C 22.09746 29.85482 0.02737
C 9.82601 17.06621 0.02188
C 11.06554 31.95557 -0.0331
C 6.15852 27.65237 0.00052
C 4.93403 28.38649 0.00374
C 4.91108 29.82235 -0.02813
C 6.13193 30.53338 -0.01952
C 6.19307 31.94532 0.05265
C 4.9281 32.67019 -0.01717
C 2.47874 34.04633 0.00244
C 3.70962 0.69136 0.02299
C 3.67066 2.12986 0.03542
C 2.48357 2.88846 0.01416
C 2.43215 4.27738 0.01945
C 3.69751 4.92941 -0.01454
C 2.41608 11.37334 0.01241
C 2.469 12.74421 0.0076
C 3.65723 13.50893 0.02162
C 3.69707 14.92908 -0.0014
C 2.45938 15.61275 0.00415
C 3.65632 30.50654 -0.01536
C 2.44571 29.77596 -0.02689
C 2.45794 28.406 -0.01046
C 3.73567 27.66878 -0.00891
C 3.68054 26.24898 0.02819
C 2.48202 25.56316 0.00165
C 6.20887 26.29345 -0.03682
C 2.43897 24.19622 -0.02971
C 3.69682 21.9998 -0.01789
C 2.42977 21.3033 0.00444
C 2.44074 19.88952 -0.00925
C 3.69597 19.2003 0.01877
C 3.7115 17.70826 0.01363
C 2.44863 17.03183 -0.02162
C 3.66112 23.44055 0.02894
C 11.02946 17.7662 -0.00316
C 4.93041 25.56825 0.01965
C 6.12471 23.4704 -0.01957
C 9.86322 32.62277 -0.0258
C 7.36492 0.01671 0.03338
C 8.61388 0.69185 -0.00491
C 8.60495 2.09482 -0.00109
C 7.33292 2.89066 0.03698
C 8.64907 13.50705 -0.02213
C 8.64712 14.88797 0.00028
C 7.35657 15.60782 -0.00289
C 7.33959 17.05617 -0.00066
C 8.62123 17.70526 0.00213
C 8.64104 19.20472 -0.05302
C 7.38701 19.89693 -0.04147
C 7.42043 21.27626 -0.02815
C 7.36602 28.3784 0.03505
C 7.35829 29.81701 0.01443
C 8.56426 30.59482 0.00979
C 8.58938 31.96438 -0.00481
C 6.1834 22.00594 -0.0108
C 4.91428 21.31616 -0.00368
C 4.95986 19.84666 -0.02696
C 6.13004 19.13615 -0.00114
C 6.17855 17.7537 0.00228
C 4.8597 17.00386 0.00798
C 4.91431 24.1651 0.02058
C 4.86121 15.67007 0.00422
C 4.86557 4.24991 -0.03113
C 4.94247 2.85758 0.02098
C 6.15656 2.06159 0.01848
C 6.18593 0.72451 -0.00619
C 4.93727 0.04689 -0.02162
C 7.36738 32.69547 0.00889
C 6.14606 14.8933 0.0351
C 22.1523 28.39723 -0.00498
C 23.3534 27.69553 0.00135
C 23.38932 26.26449 0.03102
C 31.97731 4.24303 -0.03838
C 33.20691 4.99085 0.04926
C 33.19946 6.43474 -0.00069
C 31.92594 7.1394 0.01504
C 32.02851 8.47622 0.02806
C 33.21532 9.23938 0.04381
C 33.19784 10.6737 0.00199
C 31.93942 11.25969 0.00137
C 31.936 12.76626 -0.01839
C 33.19894 13.48434 -0.00644
C 33.17875 14.84529 0.00455
C 31.99902 15.59055 0.00369
C 31.96631 17.06928 -0.02474
C 33.16892 17.77563 0.00594
C 33.22757 19.13806 -0.0136
C 31.9673 19.90406 -0.01429
C 31.99127 21.32288 -0.02383
C 30.75926 2.12902 0.00716
C 30.74088 0.68398 0.00307
C 29.51624 34.0587 0.00346
C 31.9748 32.67789 0.01713
C 33.20415 31.95123 -0.01694
C 33.1856 30.55462 0.01428
C 32.01081 2.85623 0.00349
C 31.99026 29.84086 -0.02142
C 33.2062 27.72299 0.00026
C 33.21518 26.30185 0.00682
C 31.94374 25.60284 -0.01779
C 31.97103 24.1787 0.03794
C 33.23178 23.42678 0.01927
C 33.17069 21.99568 0.01574
C 32.00211 28.42239 0.0544
C 29.5409 2.84675 0.02108
C 33.20901 2.10289 -0.00323
C 31.95847 0.02717 0.0001
C 1.23758 0.7405 -0.00468
C 1.26657 2.15044 -0.00939
C 34.40197 2.82401 -0.00931
C 34.40246 4.25653 -0.0345
C 1.21501 4.93762 0.00628
C 1.21989 6.34871 0.02931
C 34.39914 7.13641 -0.02849
C 34.40696 8.53666 -0.02302
C 1.26289 9.26281 -0.00583
C 1.23741 10.64401 -0.00027
C 34.40684 11.38549 -0.02442
C 34.40254 12.7464 -0.02656
C 1.23721 13.501 0.00343
C 1.20886 14.93103 -0.02957
C 34.36307 15.60856 0.02114
C 34.40117 17.0149 0.00648
C 1.20427 17.69774 0.01223
C 0.00083 32.68946 -0.02927
C 1.1933 31.96372 -0.01404
C 1.23881 30.55126 0.01027
C 34.42253 29.79472 0.01831
C 0.00181 28.4185 -0.01037
C 1.22862 27.68305 -0.00439
C 33.22654 0.68572 -0.00841
C 1.25792 26.30453 -0.00598
C 34.41244 24.13939 0.03076
C 1.21866 23.45423 0.00723
C 1.19752 22.025 0.02712
C 34.38515 21.33533 -0.02213
C 0.02743 19.88513 0.01951
C 1.25019 19.15341 -0.01678
C 0.03507 25.5671 -0.05239
C 30.71436 4.96671 0.0103
C 30.75111 13.52563 0.07705
C 30.76599 14.9295 0.01908
C 27.05236 32.63865 0.04185
C 24.58892 34.05446 0.02316
C 25.80033 0.72666 0.01257
C 24.62944 15.64134 0.00152
C 24.58603 16.99865 -0.00294
C 25.83519 17.72153 0.00826
C 25.82488 19.16364 0.00487
C 24.59518 19.89604 -0.00942
C 24.60337 21.24419 -0.02815
C 25.78059 22.01795 0.00622
C 25.88026 23.41094 -0.0032
C 24.57037 24.09632 -0.00037
C 24.56838 25.57929 -0.01654
C 25.81172 26.27836 -0.00218
C 25.80626 27.72574 -0.00802
C 24.58897 28.4107 0.00195
C 24.59162 29.78578 0.00996
C 22.14452 25.50083 0.02555
C 22.14404 24.19726 0.01423
C 23.41114 23.39841 -0.00285
C 23.35897 21.95466 -0.009
C 22.1726 21.28056 -0.01199
C 22.12988 19.89294 -0.00229
C 28.26528 31.93958 0.00194
C 23.40264 19.17352 -0.00938
C 22.15939 17.05868 -0.01154
C 22.10585 15.6365 0.00684
C 22.1227 0.01847 -0.01052
C 24.60975 32.65074 -0.01679
C 25.84648 31.9986 0.00367
C 25.81913 30.56474 0.04306
C 23.35721 17.76902 -0.0264
C 28.28568 30.53356 -0.00621
C 27.09892 29.86466 0.02611
C 27.07642 28.39659 0.02198
C 29.52723 29.8074 -0.03039
C 29.51948 28.40229 0.01836
C 30.74208 27.68771 0.03531
C 30.77444 26.29263 -0.00669
C 29.47351 25.50301 0.0101
C 29.49403 24.11216 0.01705
C 30.73229 30.54912 -0.01415
C 30.82234 23.44161 -0.0405
C 29.46252 21.28785 -0.01461
C 29.49552 19.88909 -0.02155
C 30.74711 19.12657 -0.00944
C 30.72291 17.77958 -0.03735
C 29.49216 17.00162 -0.00971
C 29.52372 15.65445 0.01518
C 30.75432 22.04223 -0.01303
C 3.68842 31.95351 0.03101
C 30.7514 31.95291 -0.01854
C 27.01972 34.04858 0.03265
C 28.26468 27.69188 0.01094
C 28.29441 26.2827 0.00235
C 27.06738 25.52502 0.01495
C 27.06636 24.14553 0.01259
C 28.26491 23.44618 0.01799
C 28.27696 22.0182 0.01699
C 29.5055 32.64822 -0.02049
C 27.03698 21.30025 -0.00416
C 28.28712 19.15105 0.04266
C 28.28018 17.77444 0.01324
C 27.06552 17.0269 0.0014
C 27.08295 15.59869 0.00924
C 28.27997 14.874 0.02326
C 28.25365 0.69071 0.00261
C 27.01411 19.8858 0.01177
C 2.43258 32.72517 -0.00428
