390
Graphene
C 34.42775 0.02439 0.01295
C 12.32359 11.36956 0.01363
C 13.50887 10.70733 -0.02162
C 13.54563 9.28369 0.00415
C 12.32463 8.52597 -0.0014
C 12.35706 7.12448 0.02162
C 13.52365 6.40395 0.0076
C 13.45498 4.90544 0.01241
C 12.20516 4.22646 -0.01454
C 12.28735 2.73312 0.01945
C 12.30581 12.77194 0.01877
C 13.54165 2.12848 0.01416
C 12.29689 34.06458 0.02299
C 14.79457 32.65847 0.00244
C 16.04465 31.93487 -0.01717
C 15.95318 30.57258 0.05265
C 14.7818 29.77646 -0.01952
C 14.75822 28.30325 -0.02813
C 15.94514 27.61041 0.00374
C 16.03353 26.18634 0.00052
C 14.68049 25.48909 -0.03682
C 13.52513 0.76536 0.03542
C 14.77419 24.10442 0.01965
C 13.48906 13.57549 -0.00925
C 12.2164 15.70283 -0.01789
C 9.86044 2.88304 0.0402
C 11.06334 2.12948 0.00572
C 11.11294 0.69926 0.03592
C 9.84642 0.03729 0.00406
C 12.28514 32.66997 0.00943
C 13.56535 31.9362 0.02841
C 13.59924 30.57461 -0.01111
C 12.23671 29.8927 -0.01275
C 12.31264 28.44271 0.00985
C 13.45491 15.01346 0.00444
C 13.48809 27.64094 -0.02245
C 12.36568 25.54422 0.03101
C 12.28991 24.20946 -0.01536
C 13.63118 23.39513 -0.02689
C 13.48954 21.95038 -0.01046
C 12.27007 21.32705 -0.00891
C 12.30132 19.88769 0.02819
C 13.49863 19.1462 0.00165
C 13.58794 17.74077 -0.02971
C 12.39023 17.09394 0.02894
C 13.50712 26.24981 -0.00428
C 16.00785 23.48265 0.02058
C 15.93968 22.09052 -0.01957
C 14.74589 21.33084 -0.0108
C 18.42897 27.57251 0.03698
C 18.46374 26.21696 -0.00109
C 17.24048 25.557 -0.00491
C 17.24362 24.11704 0.03338
C 18.42761 23.44676 -0.0258
C 18.44331 22.05439 -0.0331
C 17.22941 21.31522 -0.00316
C 17.29418 19.94391 0.02188
C 18.49237 19.16239 -0.01979
C 17.20426 28.38395 -0.02213
C 18.50511 17.6798 0.02691
C 17.24563 15.59346 0.01452
C 17.10501 8.47597 0.04892
C 17.17727 7.08184 -0.00111
C 18.48783 6.35881 -0.03557
C 18.45021 4.90894 0.03754
C 17.19376 4.2865 0.01739
C 17.13851 2.8473 0.00755
C 18.34059 2.15647 -0.0054
C 18.37526 0.74706 0.00667
C 17.23817 17.03826 -0.01581
C 17.19123 29.83328 0.00028
C 18.53227 30.4807 -0.00289
C 18.49387 31.94039 -0.00066
C 14.76243 19.91556 -0.00368
C 16.02059 19.25648 -0.02696
C 16.02986 17.79094 -0.00114
C 14.79302 17.03764 0.00228
C 14.72247 15.61762 0.00798
C 16.03731 14.81319 0.00422
C 15.93947 13.47723 0.0351
C 14.79958 12.82092 -0.03113
C 14.73113 11.37271 0.02098
C 15.87301 10.68704 0.01848
C 15.98057 9.27785 -0.00619
C 14.70412 8.52391 -0.02162
C 14.705 7.11526 0.00889
C 15.96542 6.41134 -0.00481
C 16.01812 4.98185 0.00979
C 14.7075 4.20439 0.01443
C 14.75995 2.81642 0.03505
C 15.93756 2.0853 -0.02815
C 15.95175 0.65159 -0.04147
C 14.71539 34.04698 -0.05302
C 17.27631 32.63356 0.00213
C 9.88269 4.31012 -0.02759
C 11.05698 5.02655 0.03589
C 11.10206 6.41162 -0.00033
C 9.79211 7.11662 -0.01062
C 3.67385 2.16037 -0.00518
C 3.69186 0.74708 0.0086
C 2.4865 34.05094 -0.00643
C 4.92872 32.67645 0.017
C 6.05622 32.02949 -0.03113
C 6.0726 21.96718 -0.02566
C 4.89828 21.31453 -0.00094
C 4.93223 19.93173 0.02322
C 6.11825 19.15109 -0.00725
C 2.4721 2.86316 -0.00074
C 6.21712 17.71428 -0.05697
C 4.89921 15.68767 -0.01343
C 6.08721 14.98262 0.00988
C 6.17906 13.51737 0.0276
C 4.91359 12.78199 0.01305
C 4.85976 11.34829 -0.00077
C 6.07457 10.67027 0.03368
C 6.17553 9.2431 -0.02929
C 4.9891 8.52609 -0.00966
C 4.89712 7.13263 -0.03337
C 5.00798 17.04473 0.01087
C 2.43464 4.26295 0.01465
C 3.64281 4.97217 -0.03996
C 3.60885 6.48646 0.01996
C 3.71402 30.60624 -0.03291
C 2.58419 29.73773 -0.04999
C 2.36986 28.39885 0.04505
C 2.48398 25.53123 0.03284
C 2.50732 24.10524 -0.04307
C 3.7367 23.34843 0.03189
C 3.59953 21.97896 0.00031
C 2.34591 21.37535 -0.003
C 2.40111 19.98502 0.01402
C 3.63886 19.23074 0.02379
C 3.73994 17.78195 0.00907
C 2.4805 16.98555 0.00643
C 2.50087 15.5952 -0.01509
C 3.71336 14.9909 0.03267
C 3.68657 13.53079 0.02374
C 2.44228 12.78379 0.00402
C 2.40926 11.3149 0.0073
C 3.65016 10.60622 0.0174
C 3.77034 9.23203 0.03828
C 2.45314 8.53007 0.01226
C 2.45559 7.11337 -0.00279
C 6.1139 6.45252 0.01227
C 17.16663 34.07198 0.00143
C 6.15883 4.98766 0.00873
C 4.95405 2.84011 0.00848
C 8.61245 0.77271 0.01745
C 7.34007 34.00035 0.00488
C 9.78666 32.64913 -0.01004
C 10.97894 31.9371 -0.02896
C 10.97166 30.52514 -0.00131
C 11.11414 23.38624 -0.01118
C 11.05047 22.03779 -0.014
C 9.78002 21.3505 0.02147
C 9.82136 19.8281 0.00373
C 8.56297 2.2086 0.03693
C 11.0843 19.18304 -0.00191
C 9.93378 17.06441 0.01291
C 9.79208 15.62649 0.00093
C 11.04984 14.94855 0.00057
C 11.12494 13.51154 -0.01634
C 9.8362 12.83951 -0.00334
C 9.78793 11.41553 0.02339
C 11.12196 10.67006 0.01641
C 11.08533 9.29167 -0.00719
C 9.87195 8.58974 0.01364
C 11.12211 17.8318 0.00438
C 7.3301 2.95507 -0.01384
C 7.39139 4.31862 -0.00482
C 8.63681 5.01951 0.02888
C 6.09631 2.15064 -0.01303
C 6.16689 0.70555 -0.01378
C 4.95007 0.05974 0.02635
C 7.35546 32.52668 0.0127
C 8.59582 32.03327 0.01396
C 8.60621 22.08475 0.01849
C 7.36688 21.39731 -0.01142
C 7.32352 19.87992 -0.00562
C 8.54897 19.21476 -0.00494
C 8.6035 17.71926 0.00054
C 7.4084 17.04402 0.03007
C 7.28006 15.68419 -0.00095
C 8.56484 14.95404 0.01572
C 8.67209 13.57064 -0.04848
C 7.38546 12.79233 -0.00892
C 7.33771 11.37812 -0.01362
C 8.55361 10.65512 -0.0008
C 8.60811 9.28178 0.0288
C 7.39908 8.54152 0.00393
C 7.28883 7.1538 0.00895
C 8.54293 6.4091 0.00685
C 4.90216 4.23252 -0.00049
C 19.66763 32.73285 -0.017
C 20.85065 31.95234 0.00364
C 20.90493 30.58893 -0.00831
C 30.72081 4.9514 0.07705
C 29.50764 4.28571 0.0103
C 29.49455 2.83173 0.02108
C 30.79231 2.18948 0.00716
C 30.74377 0.76556 0.00307
C 29.5041 34.07696 0.00346
C 31.93625 32.66306 0.01713
C 33.1596 31.98432 -0.01694
C 33.11368 30.58911 0.01428
C 30.78874 6.38244 0.01908
C 31.98971 29.75056 -0.02142
C 33.29229 27.6633 0.00026
C 33.17549 26.30564 0.00682
C 31.94154 25.61236 -0.01779
C 32.00721 24.15488 0.03794
C 33.19782 23.42317 0.01927
C 33.20748 22.00129 0.01574
C 31.94895 21.34435 -0.02383
C 32.0216 19.93788 -0.01429
C 33.18688 19.11803 -0.0136
C 32.02122 28.31537 0.0544
C 29.52263 7.12908 0.01518
C 29.50637 8.56584 -0.00971
C 30.75196 9.16689 -0.03735
C 30.67225 31.93739 0.04266
C 30.7808 30.4337 0.01324
C 29.45525 29.78811 0.0014
C 29.48132 28.38906 0.00924
C 30.70341 27.68855 0.02326
C 30.67554 26.2704 0.00261
C 29.4533 25.53838 0.03265
C 29.53718 24.10423 -0.02049
C 30.80526 23.43223 -0.01854
C 30.79101 22.04586 -0.01415
C 29.58247 21.24055 -0.03039
C 29.52719 19.80014 0.01836
C 30.8051 19.15423 0.03531
C 30.76418 17.7155 -0.00669
C 29.48599 17.00525 0.0101
C 29.5246 15.60118 0.01705
C 30.746 14.92148 -0.0405
C 30.73313 13.55338 -0.01303
C 29.51433 12.85836 -0.01461
C 29.48581 11.38337 -0.02155
C 30.76679 10.70624 -0.00944
C 33.18007 17.73499 0.00594
C 29.54128 32.65679 0.01177
C 31.98178 16.9685 -0.02474
C 33.22967 14.90813 0.00455
C 34.42123 21.24599 -0.02213
C 34.40258 19.81486 0.01951
C 1.19687 19.20341 -0.01678
C 1.25684 17.77335 0.01223
C 0.0054 17.11464 0.00648
C 0.01286 15.57504 0.02114
C 1.19173 14.88071 -0.02957
C 1.25766 13.46106 0.00343
C 0.05444 12.79938 -0.02656
C 1.15429 21.99005 0.02712
C 34.36566 11.35564 -0.02442
C 1.19854 9.19828 -0.00583
C 34.38535 8.50717 -0.02302
C 34.37756 7.04124 -0.02849
C 1.20986 6.46488 0.02931
C 1.23235 5.02619 0.00628
C 34.43058 4.27055 -0.0345
C 34.41967 2.79046 -0.00931
C 1.18844 2.09806 -0.00939
C 1.18251 0.72095 -0.00468
C 1.17855 10.63432 -0.00027
C 1.20682 23.36069 0.00723
C 0.01559 24.14865 0.03076
C 34.3754 25.58321 -0.05239
C 33.22353 13.51319 -0.00644
C 31.98634 12.85677 -0.01839
C 31.94812 11.44064 0.00137
C 33.13898 10.68121 0.00199
C 33.20413 9.26694 0.04381
C 31.97805 8.54554 0.02806
C 32.02212 7.10111 0.01504
C 33.17012 6.33417 -0.00069
C 33.1868 4.94892 0.04926
C 31.94706 4.31329 -0.03838
C 31.96986 2.88388 0.00349
C 33.19884 2.07382 -0.00323
C 33.1781 0.66714 -0.00841
C 31.90019 34.04763 0.0001
C 0.01425 32.69392 -0.02927
C 1.24008 31.9089 -0.01404
C 1.1514 30.47261 0.01027
C 34.37192 29.83284 0.01831
C 0.03357 28.38252 -0.01037
C 1.25616 27.68133 -0.00439
C 1.21163 26.23744 -0.00598
C 32.0269 15.59568 0.00369
C 3.69338 31.90144 0.02769
C 27.07549 34.0761 -0.00416
C 28.26128 2.10791 0.01799
C 22.11527 28.34614 0.01126
C 23.39898 27.66218 0.01852
C 23.33553 26.25784 -0.00381
C 22.13836 25.53653 0.03046
C 22.15784 24.10757 0.0296
C 23.39458 23.46605 0.03374
C 23.26127 22.01424 -0.02845
C 22.05481 21.27521 -0.03213
C 22.17174 19.77369 0.02239
C 22.10114 29.80904 -0.01185
C 23.36644 19.08397 0.01153
C 23.48734 6.40054 -0.0055
C 23.19424 4.99245 0.01515
C 22.01054 4.22014 -0.00225
C 22.1296 2.7886 0.00071
C 23.36434 2.10428 -0.01107
C 23.41162 0.65313 -0.01586
C 22.20448 33.99127 -0.01971
C 24.61193 32.64412 -0.02118
C 25.8366 31.96582 0.00733
C 23.47062 17.5977 0.02734
C 23.29948 30.51293 -0.01662
C 23.35237 31.94057 -0.00478
C 22.17026 32.62272 0.01511
C 19.77782 29.76659 -0.02957
C 19.65405 28.33412 -0.04422
C 20.89703 27.63463 0.00654
C 20.93768 26.29175 -0.00703
C 19.68834 25.52906 -0.04076
C 19.70862 24.12937 -0.00652
C 20.91475 23.4236 0.0058
C 20.89594 22.03461 -0.00865
C 19.70011 21.29795 0.00675
C 19.77704 19.88546 -0.00311
C 20.97885 19.17086 0.00742
C 20.82117 17.76208 -0.01594
C 19.85524 16.98138 0.0106
C 19.73875 7.03297 -0.01154
C 20.82238 6.48564 -0.01721
C 20.86399 5.0655 -0.02422
C 19.64181 4.26257 0.01277
C 19.66874 2.87101 0.00096
C 20.86097 2.13835 -0.01527
C 20.92151 0.7178 0.01087
C 19.68473 0.06048 0.00199
C 25.798 30.62887 -0.00178
C 28.30294 0.66597 0.01699
C 24.60821 29.90647 0.00768
C 25.88341 27.70751 0.03005
C 27.0571 25.51631 -0.00037
C 26.98756 24.07531 -0.0032
C 28.30351 23.40761 0.00622
C 28.38018 22.00897 -0.02815
C 27.16441 21.31575 -0.00942
C 27.04196 19.92834 0.00487
C 28.26557 19.14588 0.00826
C 28.26966 17.70427 -0.00294
C 26.97857 17.01732 0.00152
C 28.2227 26.23606 -0.01654
C 26.98631 15.64406 0.01257
C 28.25737 13.47748 0.04185
C 28.40577 10.61046 0.00194
C 28.10213 9.2333 -0.00621
C 27.01378 8.45379 0.02611
C 26.98905 7.14173 0.02198
C 28.23541 6.39465 0.01094
C 28.2203 4.98125 0.00235
C 27.04623 4.27451 0.01495
C 27.02394 2.7968 0.01259
C 28.18532 14.89151 0.02316
C 28.28431 27.59953 -0.00218
C 27.10435 28.38534 -0.00802
C 27.03058 29.82608 0.00195
C 25.89888 26.31057 -0.04078
C 24.66428 25.62414 0.02117
C 24.60399 24.17102 0.02737
C 25.74247 23.34803 -0.00498
C 25.84022 21.9613 0.00135
C 24.55107 21.34948 0.03102
C 24.57577 19.9113 0.02555
C 25.79823 19.16921 0.01423
C 25.84036 17.79778 -0.00285
C 24.56315 17.13734 -0.009
C 24.45277 7.05049 -0.01199
C 25.80143 6.38056 -0.00229
C 25.76635 4.98752 -0.00938
C 24.57825 4.29578 -0.0264
C 24.52042 2.82082 -0.01154
C 25.79093 2.07561 0.00684
C 25.83859 0.69195 -0.01052
C 24.57474 34.02951 -0.01679
C 27.07651 32.64699 0.00367
C 28.26471 31.93864 0.04306
C 28.27216 30.56649 0.00996
C 24.65414 28.43329 -0.0276
C 2.42852 32.63663 0.01707
