357
Graphene
C 34.4247 0.02936 0.01295
C 10.99573 0.66402 -0.0108
C 9.75092 0.02733 -0.00368
C 12.25316 32.6728 -0.02696
C 13.41357 31.9665 -0.00114
C 13.44155 30.47614 0.00228
C 12.20498 29.82803 0.00798
C 12.30368 28.43014 0.00422
C 13.49966 27.70339 0.0351
C 11.15381 2.10982 -0.01957
C 13.46079 26.30191 -0.03113
C 12.29659 24.18629 0.01848
C 13.49431 23.42449 -0.00619
C 13.47809 22.0454 -0.02162
C 12.31991 21.32259 0.00889
C 12.3219 19.90776 -0.00481
C 13.38377 19.09123 0.00979
C 13.23609 0.81844 0.01443
C 12.22565 0.0196 0.03505
C 12.20575 25.6654 0.02098
C 14.70527 32.61195 -0.02815
C 9.88938 2.92246 0.02058
C 9.94745 15.67476 -0.03682
C 8.51727 0.77427 -0.02162
C 7.36263 0.05629 0.00415
C 9.70379 32.66037 -0.0014
C 10.99693 31.93008 0.02162
C 10.90633 30.49157 0.0076
C 9.68793 29.77034 0.01241
C 9.85483 28.41043 -0.01454
C 11.05438 27.7431 0.01945
C 9.84146 4.31251 0.01965
C 11.02117 26.29442 0.01416
C 9.88398 24.14662 0.02299
C 11.14853 23.36422 0.00244
C 11.09718 21.99134 -0.01717
C 9.78828 21.37882 0.05265
C 9.82426 19.92838 -0.01952
C 11.04326 19.22077 -0.02813
C 11.22109 17.85901 0.00374
C 10.09499 16.96274 0.00052
C 9.84955 25.61868 0.03542
C 15.98156 31.9272 -0.04147
C 15.93739 30.53649 -0.05302
C 14.72424 29.81511 0.00213
C 17.22667 21.30274 0.00667
C 17.27863 19.78284 0.00143
C 18.51458 19.26202 -0.017
C 18.55586 0.68757 0.00364
C 17.22688 0.01896 -0.00831
C 19.68199 32.5493 -0.02957
C 20.87908 31.8779 -0.04422
C 20.88473 30.56938 0.00654
C 18.51468 22.01739 -0.0054
C 19.63979 29.81213 -0.00703
C 20.87533 27.67998 -0.00652
C 20.84016 26.24001 0.0058
C 19.63755 25.64843 -0.00865
C 19.62805 24.14193 0.00675
C 20.9391 23.49147 -0.00311
C 20.94481 22.13321 0.00742
C 19.77955 21.40523 -0.01594
C 19.68245 19.90033 0.0106
C 19.6792 28.37852 -0.04076
C 18.40481 23.45503 0.00755
C 17.17712 24.10379 0.01739
C 17.18781 25.54263 0.03754
C 14.76594 28.39972 -0.00066
C 16.02986 27.64845 -0.00289
C 15.98236 26.24413 0.00028
C 14.75007 25.61112 -0.02213
C 14.689 24.16128 0.03698
C 15.91329 23.43027 -0.00109
C 15.9637 21.99298 -0.00491
C 14.7227 21.3421 0.03338
C 14.75657 19.78281 -0.0258
C 16.08381 19.10179 -0.0331
C 15.84617 0.53911 -0.00316
C 14.60837 0.02876 0.02188
C 17.18953 32.62524 -0.01979
C 18.35617 31.82892 0.02691
C 18.32458 30.48249 -0.01581
C 17.11995 29.78534 0.01452
C 17.21464 28.39655 0.04892
C 18.43027 27.73686 -0.00111
C 18.43031 26.30085 -0.03557
C 8.62299 2.18446 0.01363
C 7.35669 2.91582 0.01877
C 7.31645 4.32852 -0.00925
C 8.63752 5.12045 0.00444
C 3.65556 6.47873 -0.00562
C 3.64215 5.04247 -0.00494
C 2.42016 4.32192 0.00054
C 2.36628 2.95261 0.03007
C 3.53803 2.22192 -0.00095
C 3.68414 0.7331 0.01572
C 2.41492 0.08736 -0.04848
C 4.86467 32.75406 -0.00892
C 2.35081 7.16442 -0.01142
C 6.08365 32.01073 -0.01362
C 4.878 29.90001 0.0288
C 4.94037 28.40298 0.00393
C 6.18439 27.75488 0.00895
C 6.15479 26.3303 0.00685
C 4.91887 25.58807 0.02888
C 4.89551 24.14316 -0.00482
C 6.15992 23.5075 -0.01384
C 6.2174 22.01054 0.03693
C 6.11772 30.56244 -0.0008
C 2.29995 8.5797 0.01849
C 3.62363 9.18677 0.01396
C 3.61891 10.68914 0.0127
C 3.63187 30.56788 -0.00725
C 2.39624 29.8434 -0.05697
C 2.4394 28.40865 0.01087
C 3.66803 27.75006 -0.01343
C 3.69333 26.28424 0.00988
C 2.48983 25.55353 0.0276
C 2.33271 24.15007 0.01305
C 3.63627 23.45885 -0.00077
C 3.6564 22.08008 0.03368
C 2.4326 21.28497 -0.02929
C 2.42336 19.90213 -0.00966
C 3.6886 19.18 -0.03337
C 3.78199 17.74248 0.01227
C 2.42294 17.13447 0.00873
C 2.44292 15.68007 -0.00049
C 3.6654 14.93785 0.00848
C 3.71345 13.53609 -0.01303
C 2.43741 12.79446 -0.01378
C 2.47226 11.42692 0.02635
C 4.90598 21.30423 0.01745
C 20.89412 19.00326 -0.01154
C 4.93395 19.90573 0.00488
C 6.22022 17.69953 -0.02896
C 8.6167 26.29657 0.00406
C 7.36564 25.56107 0.00943
C 7.45803 24.09942 0.02841
C 8.68888 23.45785 -0.01111
C 8.66293 22.06974 -0.01275
C 7.45357 21.2938 0.00985
C 7.36124 19.90021 -0.02245
C 8.61862 19.15018 -0.00428
C 8.62847 27.72512 0.03592
C 8.73329 17.76662 0.03101
C 7.44907 15.57101 -0.02689
C 8.75199 14.87424 -0.01046
C 8.58997 13.40275 -0.00891
C 7.47737 12.69322 0.02819
C 7.30788 11.18756 0.00165
C 7.28169 8.73592 -0.02971
C 7.31496 7.32818 0.02894
C 8.52883 6.48983 -0.01789
C 7.50062 16.9854 -0.01536
C 7.40453 28.46819 0.00572
C 7.29569 29.90963 0.0402
C 8.5247 30.51431 -0.02759
C 4.99913 17.03236 -0.00131
C 4.95142 15.62052 -0.01118
C 6.30144 14.89411 -0.014
C 6.21812 13.4303 0.02147
C 4.90449 12.80141 0.00373
C 4.92585 11.41539 -0.00191
C 6.04589 10.65637 0.00438
C 5.98354 9.34238 0.01291
C 4.81703 8.49474 0.00093
C 4.91616 7.11859 0.00057
C 6.21059 6.56777 -0.01634
C 6.10863 5.11027 -0.00334
C 4.91919 4.32778 0.02339
C 4.78232 2.89517 0.01641
C 6.07934 2.23868 -0.00719
C 6.08244 0.80125 0.01364
C 4.8425 0.08967 -0.01062
C 7.26265 32.76947 -0.00033
C 8.50579 31.95328 0.03589
C 6.17585 19.11295 -0.01004
C 3.6301 31.99506 0.02322
C 21.16493 17.62691 -0.01721
C 20.80946 0.68337 0.01277
C 31.98082 32.69408 0.01713
C 33.14642 31.94445 -0.01694
C 33.19843 30.50652 0.01428
C 31.93402 29.8975 -0.02142
C 31.89077 28.45184 0.0544
C 33.1272 27.6942 0.00026
C 33.14424 26.24502 0.00682
C 31.98679 25.57445 -0.01779
C 29.50588 0.04413 0.00346
C 31.90392 24.12572 0.03794
C 33.16674 22.0448 0.01574
C 31.86576 21.31587 -0.02383
C 31.93723 19.93052 -0.01429
C 33.08424 19.15149 -0.0136
C 33.10013 17.75906 0.00594
C 31.82952 16.98991 -0.02474
C 31.87013 15.70306 0.00369
C 33.1122 14.96318 0.00455
C 33.14267 23.48911 0.01927
C 33.08791 13.53345 -0.00644
C 30.745 0.74678 0.00307
C 29.53369 2.79928 0.02108
C 30.68151 22.05947 -0.01415
C 29.45502 21.35709 -0.03039
C 29.46993 19.85597 0.01836
C 30.71473 19.14281 0.03531
C 30.61181 17.72187 -0.00669
C 29.34294 16.98554 0.0101
C 29.36857 15.57698 0.01705
C 30.5985 14.93298 -0.0405
C 30.75616 2.15446 0.00716
C 30.58639 13.47657 -0.01303
C 29.46724 11.26586 -0.02155
C 30.71077 10.59987 -0.00944
C 30.72914 9.1663 -0.03735
C 29.52944 8.57473 -0.00971
C 29.52056 7.05618 0.01518
C 30.78731 6.33353 0.01908
C 30.78109 4.93293 0.07705
C 29.55071 4.23284 0.0103
C 29.36472 12.64993 -0.01461
C 31.88079 12.75031 -0.01839
C 31.87404 11.37813 0.00137
C 33.09175 10.61888 0.00199
C 1.15713 19.25986 -0.01678
C 1.18508 17.82467 0.01223
C 34.36896 17.0559 0.00648
C 34.4053 15.6033 0.02114
C 1.1946 14.88928 -0.02957
C 1.24574 13.51004 0.00343
C 34.39225 12.9102 -0.02656
C 34.32283 11.42812 -0.02442
C 34.28111 19.84272 0.01951
C 1.15242 10.7325 -0.00027
C 34.39412 8.54533 -0.02302
C 34.40706 7.1533 -0.02849
C 1.19467 6.43001 0.02931
C 1.23957 5.04564 0.00628
C 0.0544 4.22553 -0.0345
C 34.42064 2.88352 -0.00931
C 1.1401 2.17565 -0.00939
C 1.22788 0.81463 -0.00468
C 1.13604 9.30137 -0.00583
C 34.40275 21.25931 -0.02213
C 1.17851 21.96361 0.02712
C 1.13289 23.42682 0.00723
C 33.14489 9.24837 0.04381
C 31.94518 8.4871 0.02806
C 31.96854 7.10464 0.01504
C 33.20318 6.36124 -0.00069
C 33.28531 5.00163 0.04926
C 32.02652 4.24732 -0.03838
C 31.96929 2.85351 0.00349
C 33.13477 2.14358 -0.00323
C 33.24103 0.76832 -0.00841
C 32.0178 34.05846 0.0001
C 34.42152 32.69312 -0.02927
C 1.19177 31.9731 -0.01404
C 1.22727 30.65817 0.01027
C 0.01004 29.84279 0.01831
C 34.37221 28.37951 -0.01037
C 1.16068 27.719 -0.00439
C 1.19463 26.29797 -0.00598
C 34.41621 25.62257 -0.05239
C 34.41308 24.20017 0.03076
C 30.67565 23.42864 -0.01854
C 29.35217 24.20945 -0.02049
C 29.51388 25.61272 0.03265
C 30.79408 26.25908 0.00261
C 24.60255 29.81661 -0.01107
C 24.5801 28.39116 -0.01586
C 25.84808 27.67184 -0.01971
C 25.83457 26.25509 -0.02118
C 24.55149 25.62019 0.00733
C 24.53498 24.2474 -0.00178
C 25.77483 23.43842 0.00768
C 25.7295 21.91019 -0.0276
C 25.81571 30.53078 0.00071
C 24.50312 21.16183 0.03005
C 25.70234 19.15837 0.02117
C 25.63577 17.75155 0.02737
C 24.4574 16.84854 -0.00498
C 25.58226 15.11153 0.00135
C 25.46516 13.56382 0.03102
C 24.59714 12.548 0.02555
C 25.86413 10.5752 0.01423
C 25.86849 9.14246 -0.00285
C 24.48104 19.83675 -0.04078
C 25.8153 32.00855 -0.00225
C 24.59921 32.68679 0.01515
C 22.07195 34.03213 -0.0055
C 19.62604 33.98812 0.00096
C 22.0805 32.57123 -0.01527
C 23.37728 31.93197 0.01087
C 23.39044 30.55793 0.00199
C 22.1576 29.80918 0.01511
C 22.07464 28.40324 -0.00478
C 23.30615 27.67415 -0.01662
C 23.27319 26.27758 -0.01185
C 22.06542 25.57825 0.01126
C 22.14326 24.19252 0.01852
C 23.34994 23.42284 -0.00381
C 23.34967 22.00723 0.03046
C 22.17306 21.31734 0.0296
C 22.06651 19.94467 0.03374
C 23.26648 19.07379 -0.02845
C 23.12242 17.6009 -0.03213
C 22.10718 2.74603 0.02239
C 23.2874 2.10502 0.01153
C 23.35642 0.66874 0.02734
C 25.88911 6.41234 -0.009
C 20.96196 2.0225 -0.02422
C 25.80911 4.9825 -0.01199
C 24.62107 2.8225 -0.00938
C 26.95667 11.43955 0.04185
C 28.20223 10.73449 0.00194
C 28.20865 9.27381 -0.00621
C 27.03528 8.46315 0.02611
C 27.07673 7.01433 0.02198
C 28.3559 6.33482 0.01094
C 28.31677 4.9341 0.00235
C 27.0859 4.25281 0.01495
C 26.89961 12.83453 0.02316
C 27.0581 2.85852 0.01259
C 28.2719 0.77896 0.01699
C 27.06158 34.06096 -0.00416
C 29.45572 32.65154 0.01177
C 30.70728 32.02381 0.04266
C 30.69251 30.64439 0.01324
C 29.52578 29.88576 0.0014
C 29.43254 28.51414 0.00924
C 30.72303 27.74223 0.02326
C 28.23882 2.15371 0.01799
C 28.09447 13.44169 0.01257
C 28.12065 14.93053 0.00152
C 26.84131 15.57091 -0.00294
C 25.95491 2.00868 -0.0264
C 25.84286 0.62496 -0.01154
C 24.57911 0.00861 0.00684
C 27.0677 32.65438 -0.01052
C 28.25159 31.98369 -0.01679
C 28.21239 30.54651 0.00367
C 26.98956 29.87 0.04306
C 27.00177 28.51716 0.00996
C 28.29946 27.77023 0.00195
C 28.26511 26.29605 -0.00802
C 27.07583 25.63096 -0.00218
C 26.93409 24.17076 -0.01654
C 28.20042 23.42934 -0.00037
C 28.1711 22.00076 -0.0032
C 26.98965 21.25406 0.00622
C 26.99135 19.88273 -0.02815
C 28.1521 19.13686 -0.00942
C 28.13395 17.6878 0.00487
C 26.91696 17.02509 0.00826
C 24.60627 4.24261 -0.00229
C 2.46727 32.69319 -0.00094
