378
Graphene
C 0.01406 0.02569 0.01295
C 11.0984 6.39112 0.01416
C 11.02439 5.0342 0.03542
C 9.85909 4.28718 0.02299
C 9.87108 2.81639 0.00244
C 11.11337 2.1609 -0.01717
C 11.10393 0.71388 0.05265
C 9.78615 34.03598 -0.01952
C 12.26108 32.63968 -0.02813
C 13.5043 31.8461 0.00374
C 13.51741 30.50126 0.00052
C 12.35196 29.85345 -0.03682
C 12.33534 28.37261 0.01965
C 13.55869 27.65258 0.02058
C 13.54718 26.25046 -0.01957
C 12.27542 25.63335 -0.0108
C 12.32039 24.1227 -0.00368
C 13.53169 23.35009 -0.02696
C 13.48248 21.96805 -0.00114
C 12.33956 21.25544 0.00228
C 9.78545 7.08813 0.01945
C 9.82026 8.53203 -0.01454
C 11.06922 9.18798 0.01241
C 11.04515 10.67278 0.0076
C 10.99447 32.00752 -0.02245
C 11.07588 30.57777 -0.00428
C 9.85296 29.83965 0.03101
C 9.8483 28.40553 -0.01536
C 11.08121 27.7041 -0.02689
C 11.07451 26.30466 -0.01046
C 9.87941 25.55136 -0.00891
C 9.87651 24.16287 0.02819
C 11.08864 23.51234 0.00165
C 12.26806 19.88288 0.00798
C 11.06143 22.08525 -0.02971
C 9.85588 19.84065 -0.01789
C 11.07202 19.15752 0.00444
C 11.08335 17.77506 -0.00925
C 9.90643 17.03181 0.01877
C 9.83173 15.57292 0.01363
C 11.06314 14.91882 -0.02162
C 11.06347 13.46204 0.00415
C 9.79262 12.77043 -0.0014
C 9.85854 11.3532 0.02162
C 9.91056 21.30481 0.02894
C 9.82854 32.68047 0.00985
C 13.52492 19.19924 0.00422
C 12.26068 17.09587 -0.03113
C 14.73996 24.15993 0.02188
C 15.98872 23.37866 -0.01979
C 15.99382 21.99996 0.02691
C 14.77181 21.3454 -0.01581
C 14.75765 19.86405 0.01452
C 15.96351 19.1684 0.04892
C 15.98947 17.77623 -0.00111
C 14.76956 17.00934 -0.03557
C 14.82446 15.67187 0.03754
C 16.00296 14.86863 0.01739
C 15.99137 13.48014 0.00755
C 14.77466 12.76562 -0.0054
C 14.78056 11.32471 0.00667
C 15.95067 10.63482 0.00143
C 15.97393 9.20992 -0.017
C 14.77739 8.50616 0.00364
C 14.78325 7.08527 -0.00831
C 15.97724 6.43225 -0.02957
C 15.94933 4.97754 -0.04422
C 14.70199 25.58112 -0.00316
C 15.91947 26.3003 -0.0331
C 15.98135 27.71913 -0.0258
C 14.72599 28.40204 0.03338
C 12.32349 15.5796 0.02098
C 13.55172 14.898 0.01848
C 13.54661 13.5122 -0.00619
C 12.29441 12.83007 -0.02162
C 12.32553 11.39094 0.00889
C 13.50976 10.66694 -0.00481
C 13.52059 9.19262 0.00979
C 12.28089 8.50506 0.01443
C 12.28086 7.08564 0.03505
C 13.56518 17.75743 0.0351
C 13.50117 6.38985 -0.02815
C 12.26534 4.29143 -0.05302
C 12.25688 2.85906 0.00213
C 13.50843 2.11002 -0.00066
C 13.49029 0.71012 -0.00289
C 12.32449 0.01233 0.00028
C 14.80259 32.63858 -0.02213
C 15.96751 31.9331 0.03698
C 15.97582 30.43643 -0.00109
C 14.71393 29.7763 -0.00491
C 13.54232 4.97177 -0.04147
C 7.33836 0.01031 -0.01275
C 8.61836 0.69124 -0.01111
C 8.6478 2.15661 0.02841
C 3.66123 5.01655 -0.01343
C 2.47027 4.2352 0.00988
C 2.41573 2.86943 0.0276
C 3.66694 2.15653 0.01305
C 3.69233 0.76798 -0.00077
C 2.4786 34.04829 0.03368
C 4.91524 32.66156 -0.02929
C 6.12345 31.97191 -0.00966
C 6.10517 30.53486 -0.03337
C 4.91608 29.83533 0.01227
C 4.94962 28.46743 0.00873
C 6.18027 27.64829 -0.00049
C 6.15936 26.29175 0.00848
C 4.9526 25.58377 -0.01303
C 4.93267 24.17297 -0.01378
C 6.10618 23.48668 0.02635
C 6.16078 22.04577 0.0127
C 4.90577 21.28002 0.01396
C 4.91203 19.89061 0.01849
C 3.65837 6.43318 0.01087
C 2.47803 7.05615 -0.05697
C 2.51459 8.51086 -0.00725
C 3.6567 9.20893 0.02322
C 3.73623 30.51576 -0.01509
C 2.47507 29.79981 0.03267
C 2.42374 28.38715 0.02374
C 3.70372 27.7748 0.00402
C 3.70431 26.28287 0.0073
C 2.49157 25.54157 0.0174
C 2.43572 24.15233 0.03828
C 3.74395 23.4172 0.01226
C 3.62513 21.9983 -0.00279
C 6.21889 19.16083 -0.01142
C 2.37858 21.26325 0.01996
C 3.68263 19.23653 0.01465
C 3.65761 17.78757 -0.00074
C 2.45931 17.05728 -0.00518
C 2.51514 15.65764 0.0086
C 3.68911 14.84682 -0.00643
C 3.71218 13.51898 0.017
C 2.4965 12.81512 -0.03113
C 2.45665 11.39913 -0.02566
C 3.66376 10.64702 -0.00094
C 2.4276 19.83802 -0.03996
C 6.13295 17.71731 -0.00562
C 4.95041 17.01537 -0.00494
C 4.93635 15.57665 0.00054
C 8.61779 23.47498 -0.00191
C 8.64224 22.06474 0.00438
C 7.3367 21.31712 0.01291
C 7.44477 19.87687 0.00093
C 8.66888 19.16811 0.00057
C 8.637 17.79818 -0.01634
C 7.36268 16.9629 -0.00334
C 7.37208 15.61424 0.02339
C 8.58302 14.93933 0.01641
C 7.33617 24.10052 0.00373
C 8.63105 13.49907 -0.00719
C 7.37963 11.41524 -0.01062
C 8.58771 10.67949 -0.00033
C 8.6213 9.18023 0.03589
C 7.35342 8.53857 -0.02759
C 7.37378 7.13317 0.0402
C 8.61917 6.40851 0.00572
C 8.57959 4.97713 0.03592
C 7.37418 4.27159 0.00406
C 7.39861 2.86237 0.00943
C 7.37559 12.80486 0.01364
C 14.72728 4.31207 0.00654
C 7.406 25.55088 0.02147
C 8.62784 27.715 -0.01118
C 6.14911 14.91838 0.03007
C 6.17619 13.51771 -0.00095
C 4.86488 12.85773 0.01572
C 4.87286 11.39098 -0.04848
C 6.16979 10.6631 -0.00892
C 6.07657 9.23705 -0.01362
C 4.90991 8.57116 -0.0008
C 4.94064 7.09794 0.0288
C 6.17279 6.396 0.00393
C 8.57952 26.29824 -0.014
C 6.12642 5.02312 0.00895
C 4.9338 2.84107 0.02888
C 6.09546 2.12387 -0.00482
C 6.09631 0.72911 -0.01384
C 4.9168 34.05149 0.03693
C 7.38322 32.6415 0.01745
C 8.55294 32.00277 0.00488
C 8.5582 30.56448 -0.01004
C 7.40013 29.89508 -0.02896
C 7.40325 28.38039 -0.00131
C 4.91209 4.29382 0.00685
C 14.69908 2.8121 -0.00703
C 15.99925 2.12454 -0.04076
C 15.99193 0.74899 -0.00652
C 29.44353 25.56722 0.02108
C 29.47671 24.12772 0.00716
C 30.72539 23.36845 0.00307
C 30.74699 22.0307 0.00346
C 29.44742 21.29215 0.01713
C 29.52093 19.90939 -0.01694
C 30.74307 19.13013 0.01428
C 30.77854 17.71954 -0.02142
C 29.53589 2.85277 0.0544
C 30.77913 2.14815 0.00026
C 30.74719 0.75315 0.00682
C 29.49722 34.05525 -0.01779
C 31.97241 32.67886 0.03794
C 33.20239 31.94235 0.01927
C 33.16637 30.56939 0.01574
C 32.02939 29.82333 -0.02383
C 31.99403 28.36927 -0.01429
C 33.25211 27.67417 -0.0136
C 33.17667 26.30208 0.00594
C 30.719 26.28208 0.0103
C 30.76238 27.70248 0.07705
C 29.50908 28.40059 0.01908
C 29.52091 29.80215 0.01518
C 28.2731 31.95328 0.00924
C 28.3359 30.54726 0.02326
C 27.04209 29.74572 0.00261
C 27.07765 28.3473 0.03265
C 28.30095 27.6721 -0.02049
C 28.28014 26.3028 -0.01854
C 27.05947 25.53933 -0.01415
C 27.04191 24.16533 -0.03039
C 28.32917 23.37727 0.01836
C 31.93513 25.52599 -0.02474
C 28.24695 22.01541 0.03531
C 27.01647 19.83404 0.0101
C 28.25865 19.19777 0.01705
C 27.0727 2.84679 -0.0405
C 28.30385 2.10156 -0.01303
C 28.30732 0.70013 -0.01461
C 27.06871 0.02785 -0.02155
C 29.56853 32.62887 -0.00944
C 30.74815 31.91264 -0.03735
C 30.75252 30.53692 -0.00971
C 27.09817 21.26563 -0.00669
C 31.96061 24.10493 0.00369
C 33.22835 23.39577 0.00455
C 33.21275 22.00754 -0.00644
C 34.41376 21.30545 -0.02213
C 0.01182 19.93857 0.01951
C 1.2208 19.18437 -0.01678
C 1.25363 17.78466 0.01223
C 34.40191 17.05042 0.00648
C 34.41371 15.60952 0.02114
C 1.23434 14.90465 -0.02957
C 1.268 13.53722 0.00343
C 0.04556 12.71971 -0.02656
C 1.18604 21.98819 0.02712
C 34.41444 11.43567 -0.02442
C 1.23444 9.23475 -0.00583
C 0.03158 8.5785 -0.02302
C 34.37484 7.04089 -0.02849
C 1.18737 6.34818 0.02931
C 1.20957 4.95061 0.00628
C 0.05593 4.22788 -0.0345
C 34.38523 2.79601 -0.00931
C 1.20169 2.1477 -0.00939
C 1.24038 0.67785 -0.00468
C 1.18765 10.67471 -0.00027
C 27.05536 32.60766 0.0014
C 1.21772 23.49857 0.00723
C 34.4325 25.62122 -0.05239
C 31.96438 21.2999 -0.01839
C 31.96719 19.84823 0.00137
C 33.15046 19.14166 0.00199
C 33.13289 17.76134 0.04381
C 31.96158 17.05646 0.02806
C 33.22058 14.89294 0.01504
C 33.21393 6.38013 -0.00069
C 33.15751 5.01628 0.04926
C 31.98839 4.27722 -0.03838
C 34.41416 24.20793 0.03076
C 31.95909 2.88539 0.00349
C 33.17838 0.68861 -0.00841
C 31.97323 0.03542 0.0001
C 0.0126 32.65871 -0.02927
C 1.24757 31.96512 -0.01404
C 1.21477 30.49809 0.01027
C 34.4081 29.81235 0.01831
C 34.42573 28.42657 -0.01037
C 1.2194 27.73377 -0.00439
C 1.24611 26.22873 -0.00598
C 33.19695 2.09438 -0.00323
C 3.64122 31.94603 0.00643
C 24.58711 0.01769 0.01324
C 25.83402 2.15071 0.01177
C 17.15768 8.45035 0.03374
C 17.18651 7.08653 -0.02845
C 18.47013 6.3986 -0.03213
C 18.43841 4.95501 0.02239
C 17.20775 4.27833 0.01153
C 17.22098 2.79284 0.02734
C 18.44769 2.11647 -0.0055
C 18.46839 0.73181 0.01515
C 17.19139 34.06951 -0.00225
C 19.68073 32.63693 0.00071
C 20.89546 31.92381 -0.01107
C 20.8878 30.51231 -0.01586
C 19.68103 29.82699 -0.01971
C 19.6991 28.37432 -0.02118
C 20.87594 27.72407 0.00733
C 20.82753 26.2446 -0.00178
C 19.59155 25.54303 0.00768
C 19.67324 24.10484 -0.0276
C 20.871 23.44796 0.03005
C 18.4903 9.24092 0.0296
C 18.46746 10.59231 0.03046
C 17.14621 11.35224 -0.00381
C 17.15654 12.71413 0.01852
C 14.77841 34.07128 0.0058
C 17.21342 32.63734 -0.00865
C 18.48848 31.91531 0.00675
C 18.47739 30.49673 -0.00311
C 17.25435 29.79547 0.00742
C 17.22854 28.37215 -0.01594
C 18.47754 27.6179 0.0106
C 18.39831 26.25122 -0.01154
C 17.17911 25.58643 -0.01721
C 20.91986 21.95469 -0.04078
C 17.26773 24.11026 -0.02422
C 18.39726 21.96072 0.00096
C 17.19463 21.28682 -0.01527
C 17.23621 19.86425 0.01087
C 18.45912 19.13458 0.00199
C 18.46952 17.75263 0.01511
C 17.19149 17.03106 -0.00478
C 17.20236 15.6349 -0.01662
C 18.48063 14.88314 -0.01185
C 18.51658 13.4709 0.01126
C 18.47085 23.44527 0.01277
C 19.65887 21.33422 0.02117
C 19.71821 19.82474 0.02737
C 20.92397 19.19594 -0.00498
C 22.12917 4.26861 -0.02815
C 22.1165 2.89017 -0.00942
C 23.3308 2.11954 0.00487
C 23.35785 0.72693 0.00826
C 22.10611 0.03677 -0.00294
C 24.59076 32.6381 0.00152
C 25.85986 31.97157 0.01257
C 25.79805 30.56887 0.02316
C 24.59933 29.77396 0.04185
C 23.37388 19.22757 0.00622
C 24.62947 28.40081 0.00194
C 25.8693 26.26072 0.02611
C 24.53445 25.53055 0.02198
C 24.63909 24.15797 0.01094
C 25.8272 23.40701 0.00235
C 25.93968 22.03637 0.01495
C 24.57625 21.34282 0.01259
C 24.60184 19.84519 0.01799
C 25.82615 19.15179 0.01699
C 24.51213 2.82795 -0.00416
C 25.77172 27.70563 -0.00621
C 25.80841 0.68596 0.04266
C 22.13861 19.88822 -0.0032
C 23.38908 21.99291 -0.01654
C 20.82245 17.74727 0.00135
C 19.69183 17.02086 0.03102
C 19.61274 15.61693 0.02555
C 19.63873 7.07997 0.01423
C 20.90725 4.95614 -0.00285
C 19.67454 4.27191 -0.009
C 19.67712 2.81033 -0.01199
C 20.87841 2.15509 -0.00229
C 20.92712 0.65973 -0.00938
C 22.15761 21.29148 -0.00037
C 19.66026 34.07288 -0.0264
C 23.36075 31.9446 0.00684
C 23.4335 30.56675 -0.01052
C 22.16856 29.81592 -0.01679
C 22.0932 28.36074 0.00367
C 23.37002 27.68103 0.04306
C 23.34981 26.30448 0.00996
C 22.09336 25.58133 0.00195
C 22.14273 24.13406 -0.00802
C 23.41833 23.48043 -0.00218
C 22.17827 32.68573 -0.01154
C 2.45234 32.69327 0.00907
