340
Graphene
C 0.00043 0.05899 0.01295
C 14.68112 11.33036 -0.00619
C 15.99696 10.56063 -0.02162
C 15.86499 9.18864 0.00889
C 14.49804 8.80021 -0.00481
C 14.53366 7.39943 0.00979
C 15.79064 6.52149 0.01443
C 15.91128 5.08337 0.03505
C 14.73206 4.35753 -0.02815
C 14.71305 3.03797 -0.04147
C 15.89438 2.23745 -0.05302
C 15.94965 0.80946 0.00213
C 14.7447 0.0791 -0.00066
C 17.22133 32.5706 -0.00289
C 18.4962 31.98521 0.00028
C 18.42014 17.63222 -0.02213
C 17.1151 17.10583 0.03698
C 17.07005 15.58508 -0.00109
C 14.61762 12.59411 0.01848
C 18.38348 14.94438 -0.00491
C 15.72977 13.30924 0.02098
C 14.64237 15.49446 0.0351
C 13.04321 29.45674 -0.01717
C 12.03911 28.68179 0.05265
C 12.47354 21.36736 -0.01952
C 12.45908 19.90455 -0.02813
C 13.71378 19.1527 0.00374
C 13.54838 17.78822 0.00052
C 12.23603 17.02391 -0.03682
C 12.37535 15.6765 0.01965
C 13.43164 14.85479 0.02058
C 13.71483 10.06064 -0.01957
C 13.58819 2.04641 -0.0108
C 13.21993 0.7771 -0.00368
C 11.76825 33.91288 -0.02696
C 14.8207 32.74576 -0.00114
C 15.98298 31.96666 0.00228
C 15.85369 17.62634 0.00798
C 14.65107 16.96124 0.00422
C 15.79247 14.77944 -0.03113
C 18.34308 13.51317 0.03338
C 17.09272 12.80123 -0.0258
C 17.11723 11.37955 -0.0331
C 19.57922 8.52655 -0.04076
C 19.56798 7.12486 -0.00652
C 20.75327 6.41665 0.0058
C 20.85289 5.02235 -0.00865
C 19.63437 4.20944 0.00675
C 19.5649 2.77158 -0.00311
C 20.82809 2.19443 0.00742
C 20.88989 0.75602 -0.01594
C 19.68722 34.04783 0.0106
C 22.1272 32.70249 -0.01154
C 23.35373 31.98466 -0.01721
C 23.24425 30.55893 -0.02422
C 23.21142 19.16019 0.01277
C 23.32578 17.71213 0.00096
C 22.09262 17.05564 -0.01527
C 22.04874 15.53092 0.01087
C 23.31537 14.93701 0.00199
C 20.80784 9.26106 -0.00703
C 20.85176 10.74262 0.00654
C 19.56664 11.42725 -0.04422
C 19.5879 12.8339 -0.02957
C 18.3061 10.73827 -0.00316
C 18.3901 9.23847 0.02188
C 17.21042 8.48129 -0.01979
C 17.15499 7.14665 0.02691
C 18.37145 6.38248 -0.01581
C 18.43269 4.91835 0.01452
C 17.14568 4.28035 0.04892
C 17.1315 2.82867 -0.00111
C 13.26407 30.70306 0.00244
C 18.3135 2.01238 -0.03557
C 17.12452 0.02192 0.01739
C 19.69161 32.49384 0.00755
C 20.99609 31.93172 -0.0054
C 20.9612 17.86052 0.00667
C 19.67128 17.03934 0.00143
C 19.64455 15.58949 -0.017
C 20.80076 14.8864 0.00364
C 20.78656 13.53233 -0.00831
C 18.4006 0.63556 0.03754
C 23.30933 13.47275 0.01511
C 13.5511 31.99791 0.02299
C 9.05937 0.81584 0.01416
C 2.4888 8.35209 -0.00482
C 2.40351 6.91266 -0.01384
C 2.37615 4.36404 0.03693
C 2.48496 3.00099 0.01745
C 3.6809 2.30887 0.00488
C 3.7016 0.85809 -0.01004
C 2.44471 0.1875 -0.02896
C 4.87873 32.82093 -0.00131
C 6.24774 32.14027 -0.01118
C 6.22694 30.63 -0.014
C 4.90715 29.86425 0.02147
C 4.97463 28.4484 0.00373
C 6.21472 27.79586 -0.00191
C 6.13871 26.35156 0.00438
C 4.88679 25.62829 0.01291
C 4.90622 24.14805 0.00093
C 6.097 23.44049 0.00057
C 3.62073 9.04275 0.02888
C 6.10665 22.04669 -0.01634
C 3.70729 10.53877 0.00685
C 2.48813 12.80708 0.00393
C 3.67461 30.55493 -0.01378
C 2.43175 29.83446 0.02635
C 2.42569 28.4988 0.0127
C 3.68868 27.72932 0.01396
C 3.74459 26.34928 0.01849
C 2.48647 25.6627 -0.01142
C 2.46732 24.19113 -0.00562
C 3.66371 23.41914 -0.00494
C 3.63993 22.0585 0.00054
C 2.44512 21.33777 0.03007
C 2.38572 19.88196 -0.00095
C 3.56356 19.17457 0.01572
C 3.70768 17.7086 -0.04848
C 2.60059 16.97311 -0.00892
C 2.47676 15.5007 -0.01362
C 3.7039 14.84247 -0.0008
C 3.72716 13.44272 0.0288
C 2.41993 11.31514 0.00895
C 4.87296 21.28467 -0.00334
C 4.87488 19.90149 0.02339
C 6.15986 19.21422 0.01641
C 7.62331 17.11507 0.02819
C 7.7158 15.53844 0.00165
C 7.83957 0.16957 -0.02971
C 9.99186 28.22431 0.02894
C 11.16567 27.55527 -0.01789
C 11.0626 26.01413 0.00444
C 9.69915 25.54064 -0.00925
C 9.68164 24.11975 0.01877
C 11.00468 23.59406 0.01363
C 11.31297 22.27696 -0.02162
C 9.90122 21.47818 0.00415
C 9.97248 20.05149 -0.0014
C 11.08159 19.22355 0.02162
C 11.09794 17.80381 0.0076
C 9.92542 17.09185 0.01241
C 9.70014 15.65678 -0.01454
C 10.17824 0.37358 0.01945
C 8.72754 17.834 -0.00891
C 8.68471 19.29182 -0.01046
C 7.39286 19.8706 -0.02689
C 7.33254 21.36206 -0.01536
C 6.30543 17.79442 -0.00719
C 5.05927 16.98346 0.01364
C 5.06176 15.62986 -0.01062
C 6.4686 14.81209 -0.00033
C 6.15881 13.40999 0.03589
C 5.01356 12.65238 -0.02759
C 4.97516 11.27705 0.0402
C 6.50209 0.56289 0.00572
C 12.17209 32.65668 0.03542
C 5.07835 0.15935 0.03592
C 7.4487 29.95649 0.00943
C 7.42612 28.58603 0.02841
C 8.60785 27.69501 -0.01111
C 8.47438 26.31437 -0.01275
C 7.25158 25.58737 0.00985
C 7.35507 24.20036 -0.02245
C 8.52656 23.39006 -0.00428
C 8.57175 22.02792 0.03101
C 7.1753 33.12874 0.00406
C 22.04277 12.81353 -0.00478
C 22.10931 11.36439 -0.01662
C 23.30122 10.66204 -0.01185
C 31.8879 29.846 -0.02142
C 31.95394 28.40365 0.0544
C 33.14184 27.69214 0.00026
C 33.13239 26.25433 0.00682
C 31.97436 25.572 -0.01779
C 32.06556 24.16763 0.03794
C 33.26636 23.45252 0.01927
C 33.23796 21.95189 0.01574
C 32.00286 21.2723 -0.02383
C 31.9381 19.89755 -0.01429
C 33.15545 19.17789 -0.0136
C 33.19897 17.73486 0.00594
C 31.96639 17.09785 -0.02474
C 31.92581 15.5871 0.00369
C 33.18581 14.87258 0.00455
C 33.12098 13.43082 -0.00644
C 31.90787 12.74999 -0.01839
C 33.16505 30.57233 0.01428
C 31.96055 11.31519 0.00137
C 33.22384 32.03485 -0.01694
C 29.42993 33.99007 0.00346
C 30.74571 17.82327 -0.00669
C 29.49742 17.03883 0.0101
C 29.47426 15.62192 0.01705
C 30.70641 14.92923 -0.0405
C 30.70529 13.52263 -0.01303
C 29.49447 12.78839 -0.01461
C 29.47727 11.35549 -0.02155
C 30.68994 10.68514 -0.00944
C 30.61748 9.31732 -0.03735
C 29.43393 8.50105 -0.00971
C 29.43063 7.14522 0.01518
C 30.66511 6.46079 0.01908
C 30.6788 5.00984 0.07705
C 29.3682 4.23382 0.0103
C 29.39499 2.83174 0.02108
C 30.55589 2.04122 0.00716
C 30.60498 0.66362 0.00307
C 31.90967 32.7334 0.01713
C 33.17201 10.63549 0.00199
C 33.10416 9.24057 0.04381
C 31.87088 8.52862 0.02806
C 1.2663 17.69453 0.01223
C 0.04824 16.97085 0.00648
C 34.42688 15.67614 0.02114
C 1.25056 14.85023 -0.02957
C 1.24679 13.46557 0.00343
C 34.38696 12.71476 -0.02656
C 34.41765 11.39883 -0.02442
C 1.247 10.58765 -0.00027
C 1.20072 9.16855 -0.00583
C 34.39403 8.54035 -0.02302
C 34.35127 7.14121 -0.02849
C 1.07755 6.31991 0.02931
C 1.0973 4.92002 0.00628
C 34.30404 4.18158 -0.0345
C 34.32771 2.83965 -0.00931
C 1.13692 2.23843 -0.00939
C 1.22659 0.81841 -0.00468
C 1.23026 19.0997 -0.01678
C 34.42069 19.7874 0.01951
C 0.07734 21.22108 -0.02213
C 1.23011 22.01728 0.02712
C 31.84094 7.19683 0.01504
C 33.09162 6.4074 -0.00069
C 33.08939 4.97816 0.04926
C 31.89107 4.23418 -0.03838
C 31.83599 2.80483 0.00349
C 33.09369 2.12661 -0.00323
C 33.16982 0.71307 -0.00841
C 31.8781 0.06353 0.0001
C 30.67712 19.21178 0.03531
C 0.05489 32.75833 -0.02927
C 1.21928 30.54606 0.01027
C 34.39254 29.79919 0.01831
C 34.41647 28.41135 -0.01037
C 1.21356 27.67733 -0.00439
C 1.20141 26.27771 -0.00598
C 34.40636 25.54385 -0.05239
C 0.04597 24.1911 0.03076
C 1.31862 23.51276 0.00723
C 1.25066 31.98152 -0.01404
C 29.44464 19.8785 0.01836
C 29.56784 21.30186 -0.03039
C 30.78269 21.98978 -0.01415
C 25.80348 17.75362 -0.0276
C 24.55873 16.98857 0.03005
C 24.54057 15.62052 -0.04078
C 25.76689 14.9403 0.02117
C 25.77954 13.54007 0.02737
C 24.56766 12.78694 -0.00498
C 24.5291 11.3918 0.00135
C 25.82619 10.74445 0.03102
C 25.75458 9.29613 0.02555
C 24.54484 8.55373 0.01423
C 24.50171 7.16074 -0.00285
C 25.73483 6.3886 -0.009
C 25.73403 4.9522 -0.01199
C 24.48956 4.30484 -0.00229
C 24.55624 2.89363 -0.00938
C 25.72034 2.10611 -0.0264
C 25.83464 0.70324 -0.01154
C 25.76045 19.1454 0.00768
C 24.27609 19.98989 -0.00178
C 24.65314 21.36636 0.00733
C 25.65837 22.19241 -0.02118
C 23.29784 9.20778 0.01126
C 22.00413 8.53833 0.01852
C 22.05944 7.10051 -0.00381
C 23.26938 6.48443 0.03046
C 23.32441 5.0585 0.0296
C 22.10613 4.33191 0.03374
C 22.01112 2.92305 -0.02845
C 23.22064 2.18912 -0.03213
C 24.61215 0.00539 0.00684
C 23.33827 0.78187 0.02239
C 24.56064 32.62059 0.02734
C 25.79704 31.89206 -0.0055
C 25.71678 30.43193 0.01515
C 24.40807 29.69031 -0.00225
C 24.57864 28.3463 0.00071
C 25.64984 27.37524 -0.01107
C 25.91382 26.04073 -0.01586
C 25.7997 23.61356 -0.01971
C 22.11207 0.00258 0.01153
C 3.64485 31.98051 -0.01303
C 26.99052 32.62827 -0.01052
C 28.16571 30.51326 0.00367
C 28.18672 6.4379 0.01094
C 28.23246 5.03794 0.00235
C 26.93143 4.32205 0.01495
C 26.91295 2.89733 0.01259
C 28.16472 2.08887 0.01799
C 28.15741 0.66238 0.01699
C 26.9648 34.0581 -0.00416
C 29.49717 32.6196 0.01177
C 30.74546 31.97103 0.04266
C 30.63182 30.55658 0.01324
C 29.45749 29.81814 0.0014
C 29.52117 28.46996 0.00924
C 30.70026 27.7408 0.02326
C 30.74651 26.27378 0.00261
C 29.57501 25.47969 0.03265
C 29.6361 24.03421 -0.02049
C 30.88435 23.42771 -0.01854
C 26.89388 7.10529 0.02198
C 26.92283 8.59506 0.02611
C 28.17573 9.25905 -0.00621
C 28.18411 10.6407 0.00194
C 26.96608 29.76234 0.04306
C 26.95426 28.31656 0.00996
C 28.29071 27.7265 0.00195
C 28.39361 26.27924 -0.00802
C 27.20366 25.53244 -0.00218
C 27.12429 24.11032 -0.01654
C 28.31403 23.39227 -0.00037
C 28.36152 22.027 -0.0032
C 28.28629 31.86635 -0.01679
C 27.04025 21.39299 0.00622
C 28.18333 19.24989 -0.00942
C 28.25393 17.74227 0.00487
C 27.05321 17.02284 0.00826
C 27.00265 15.62519 -0.00294
C 28.26576 14.93253 0.00152
C 28.2958 13.51941 0.01257
C 26.98926 12.82595 0.02316
C 27.02667 11.46162 0.04185
C 26.96492 19.96019 -0.02815
C 2.40218 32.7725 0.00848
