310
Graphene
C 34.41893 34.0571 0.01295
C 19.75945 21.23427 -0.00316
C 19.61172 19.81232 0.02188
C 20.83529 19.12264 -0.01979
C 20.81465 17.69794 0.02691
C 19.59686 17.01809 -0.01581
C 19.60255 15.58715 0.01452
C 20.81269 14.81317 0.04892
C 20.78452 13.4062 -0.00111
C 19.72751 12.55365 -0.03557
C 19.65143 11.22178 0.03754
C 20.89453 10.57224 0.01739
C 20.97711 9.16611 0.00755
C 19.75313 8.52581 -0.0054
C 19.59114 7.15043 0.00667
C 20.81467 6.49467 0.00143
C 20.9161 22.00784 -0.0331
C 20.86103 5.00721 -0.017
C 20.84359 23.39533 -0.0258
C 19.62679 25.41331 -0.00491
C 18.31682 15.03638 0.00889
C 18.43414 6.36197 -0.00481
C 18.47751 5.02137 0.00979
C 17.13363 4.2605 0.01443
C 17.24568 2.85229 0.03505
C 18.50168 2.12768 -0.02815
C 18.41273 0.66253 -0.04147
C 17.1484 34.05606 -0.05302
C 19.6465 32.7729 0.00213
C 20.86913 32.02383 -0.00066
C 20.9147 30.63223 -0.00289
C 19.66844 29.83323 0.00028
C 19.50272 28.44996 -0.02213
C 20.74923 27.79962 0.03698
C 20.76717 26.30492 -0.00109
C 19.61654 24.0244 0.03338
C 19.64012 4.23771 0.00364
C 19.64119 2.91897 -0.00831
C 20.8852 2.21969 -0.02957
C 23.19114 13.44949 0.01511
C 22.00028 12.73189 -0.00478
C 22.08408 11.32084 -0.01662
C 23.29836 10.62298 -0.01185
C 23.37708 9.23689 0.01126
C 22.25406 8.46436 0.01852
C 22.15386 7.0515 -0.00381
C 23.37689 6.35343 0.03046
C 23.34839 4.92906 0.0296
C 22.0549 4.28949 0.03374
C 22.10673 2.86398 -0.02845
C 23.32162 2.22507 -0.03213
C 23.36388 0.74953 0.02239
C 22.08241 0.04192 0.01153
C 24.64663 32.61415 0.02734
C 23.25402 14.9241 0.00199
C 22.03205 15.6235 0.01087
C 22.03669 17.04379 -0.01527
C 23.31518 17.70645 0.00096
C 20.84581 0.77426 -0.04422
C 19.64016 0.00528 0.00654
C 22.17235 32.66711 -0.00703
C 23.37944 31.92623 -0.04076
C 23.29121 30.596 -0.00652
C 22.1274 29.90988 0.0058
C 22.07228 28.49346 -0.00865
C 17.18413 15.81243 -0.02162
C 23.20566 27.677 0.00675
C 22.0427 25.54207 0.00742
C 22.11321 24.15686 -0.01594
C 23.35911 23.40892 0.0106
C 23.40603 21.99581 -0.01154
C 22.18891 21.27196 -0.01721
C 22.13283 19.85312 -0.02422
C 23.30425 19.12507 0.01277
C 23.29956 26.30312 -0.00311
C 17.0609 17.21687 -0.00619
C 18.3462 17.70682 0.01848
C 18.22292 19.06618 0.02098
C 4.90272 32.60814 0.03592
C 6.1132 31.91454 0.00406
C 6.13343 30.51023 0.00943
C 4.82522 29.69994 0.02841
C 4.89393 28.30781 -0.01111
C 4.71956 25.57952 -0.01275
C 4.91662 11.29229 0.00985
C 4.75271 8.50535 -0.02245
C 4.99585 7.14226 -0.00428
C 6.2138 6.29922 0.03101
C 6.18308 4.92816 -0.01536
C 4.91988 4.23641 -0.02689
C 4.92488 2.76914 -0.01046
C 6.17431 2.08355 -0.00891
C 6.16153 0.71742 0.02819
C 2.42256 34.05531 0.00572
C 3.6686 0.63274 0.0402
C 3.69819 2.10753 -0.02759
C 2.49071 2.84037 0.03589
C 3.58629 30.47998 -0.014
C 2.36924 29.88331 0.02147
C 2.28855 28.50273 0.00373
C 3.62331 27.75618 -0.00191
C 3.56329 26.37529 0.00438
C 2.35547 25.61517 0.01291
C 2.48225 24.24986 0.00093
C 4.89607 34.02884 0.00165
C 2.56041 12.84502 0.00057
C 3.72553 10.64824 -0.00334
C 3.65342 9.24188 0.02339
C 2.40217 8.52359 0.01641
C 2.52552 7.12228 -0.00719
C 3.77026 6.46296 0.01364
C 3.7212 5.0096 -0.01062
C 2.48293 4.31781 -0.00033
C 2.38546 11.44902 -0.01634
C 25.84036 31.94037 -0.0055
C 7.34888 32.64416 -0.02971
C 8.65796 30.47269 -0.01789
C 12.29912 33.94531 0.00374
C 14.75229 32.68103 0.00052
C 15.95696 31.94697 -0.03682
C 15.97289 30.47208 0.01965
C 16.30894 18.47094 0.02058
C 15.86091 4.84983 -0.01957
C 14.66308 4.29555 -0.0108
C 14.75215 2.77479 -0.00368
C 16.05473 2.11034 -0.02696
C 15.97711 0.6695 -0.00114
C 14.73983 0.02233 0.00228
C 17.10139 32.68917 0.00798
C 18.41902 31.9897 0.00422
C 18.46051 30.60914 0.0351
C 17.20105 30.0281 -0.03113
C 13.5114 0.64579 -0.02813
C 13.53704 1.98272 -0.01952
C 12.3724 2.88656 0.05265
C 12.62821 4.21701 -0.01717
C 7.4034 30.00224 0.00444
C 8.74867 4.68997 -0.00925
C 7.35184 4.16415 0.01877
C 7.40748 2.79322 0.01363
C 8.60842 2.10006 -0.02162
C 8.65396 0.73734 0.00415
C 7.39154 34.0789 -0.0014
C 8.59261 32.01754 0.02894
C 9.86542 32.77153 0.02162
C 9.87013 4.17297 0.01241
C 9.8366 2.76749 -0.01454
C 11.14583 2.17387 0.01945
C 11.19144 0.6462 0.01416
C 9.91363 0.12562 0.03542
C 12.1809 32.47922 0.02299
C 13.55232 31.82757 0.00244
C 10.90656 31.92036 0.0076
C 25.8165 30.49673 0.01515
C 24.53742 29.86077 -0.00225
C 24.49157 28.36494 0.00071
C 31.92776 25.53612 0.01927
C 31.96525 24.10262 0.01574
C 33.17608 23.41755 -0.02383
C 33.1251 21.99344 -0.01429
C 31.90905 21.34835 -0.0136
C 31.94159 19.94295 0.00594
C 33.14196 19.22484 -0.02474
C 33.11618 17.83408 0.00369
C 31.8905 17.15208 0.00455
C 31.98701 15.71457 -0.00644
C 33.27274 15.06334 -0.01839
C 33.29348 13.6847 0.00137
C 31.98181 12.87005 0.00199
C 31.92399 11.40866 0.04381
C 33.11206 10.74775 0.02806
C 33.08926 26.29749 0.03794
C 33.08591 27.7591 -0.01779
C 31.91335 28.46051 0.00682
C 31.90014 29.8604 0.00026
C 29.48003 12.84357 -0.00944
C 29.42608 11.40387 -0.03735
C 30.67702 10.69435 -0.00971
C 30.68783 9.26804 0.01518
C 29.48328 8.5397 0.01908
C 29.41723 7.13711 0.07705
C 30.68384 6.43197 0.0103
C 33.11233 9.32132 0.01504
C 30.74569 4.96323 0.02108
C 29.47652 2.80714 0.00307
C 30.70366 2.16239 0.00346
C 30.75255 0.74964 0.01713
C 29.50174 0.04574 -0.01694
C 31.90818 32.68558 0.01428
C 33.10731 32.00057 -0.02142
C 33.13464 30.57821 0.0544
C 29.58044 4.25163 0.00716
C 30.68873 13.52056 -0.02155
C 31.9337 8.57195 -0.00069
C 33.15846 6.49344 -0.03838
C 0.08576 15.88319 0.02114
C 1.1128 15.00829 -0.02957
C 1.36494 13.65428 0.00343
C 0.0278 12.92863 -0.02656
C 34.35861 11.50027 -0.02442
C 1.11822 10.80003 -0.00027
C 1.0912 9.34574 -0.00583
C 34.34776 8.5671 -0.02302
C 34.42604 7.16858 -0.02849
C 1.27581 6.49542 0.02931
C 1.15899 5.00734 0.00628
C 34.37493 4.29166 -0.0345
C 34.4304 2.84059 -0.00931
C 1.23348 2.1458 -0.00939
C 1.14042 0.75486 -0.00468
C 0.03441 17.3832 0.00648
C 34.39761 19.7979 0.01223
C 34.38111 21.24184 -0.01678
C 1.12199 22.07732 0.01951
C 33.18526 5.06742 0.00349
C 32.00536 4.30206 -0.00323
C 31.94597 2.8482 -0.00841
C 33.2028 2.15105 0.0001
C 33.21953 0.73159 -0.02927
C 31.95322 0.01925 -0.01404
C 34.37593 32.61562 0.01027
C 31.92359 7.08985 0.04926
C 1.22908 31.94742 0.01831
C 34.39191 29.84304 -0.00439
C 34.31487 28.40179 -0.00598
C 1.101 27.72542 -0.05239
C 1.07991 26.33632 0.03076
C 34.31108 25.54949 0.00723
C 34.39497 24.17787 0.02712
C 1.24816 23.47494 -0.02213
C 1.19442 30.52892 -0.01037
C 3.67509 31.91134 -0.01118
C 30.75476 14.93876 -0.01461
C 29.39723 17.09076 -0.0405
C 25.75134 6.3999 -0.00229
C 25.82532 4.94788 -0.00938
C 24.67362 4.21337 -0.0264
C 24.55086 2.81718 -0.01154
C 25.79199 2.12264 0.00684
C 25.83704 0.69567 -0.01052
C 24.52716 34.04698 -0.01679
C 27.02836 32.73421 0.00367
C 28.15897 31.98127 0.04306
C 28.16501 30.55101 0.00996
C 26.98189 29.75987 0.00195
C 26.98272 28.38551 -0.00802
C 28.17578 27.726 -0.00218
C 28.17037 26.35417 -0.01654
C 26.99734 25.57442 -0.00037
C 24.5019 7.12192 -0.01199
C 24.60681 8.49791 -0.009
C 25.80631 9.20105 -0.00285
C 25.83825 10.6731 0.01423
C 25.74093 27.71353 -0.01107
C 25.73315 26.24215 -0.01586
C 24.49527 25.61856 -0.01971
C 24.50922 24.20397 -0.02118
C 25.70564 23.43061 0.00733
C 25.78118 22.0349 -0.00178
C 24.62243 21.33818 0.00768
C 26.95472 24.0958 -0.0032
C 24.53556 19.87527 -0.0276
C 25.8219 17.73421 -0.04078
C 24.55366 16.96152 0.02117
C 24.5421 15.62355 0.02737
C 25.756 14.87919 -0.00498
C 25.67808 13.45452 0.00135
C 24.41759 12.77373 0.03102
C 24.52104 11.39119 0.02555
C 25.82368 19.1455 0.03005
C 29.4317 15.63374 -0.01303
C 28.24678 23.41355 0.00622
C 26.97863 21.25396 -0.00942
C 29.44832 32.6694 0.01324
C 30.68762 31.98646 0.0014
C 30.6737 30.60035 0.00924
C 29.38827 29.88117 0.02326
C 29.45301 28.42473 0.00261
C 30.67343 27.6779 0.03265
C 30.6864 26.2586 -0.02049
C 29.38319 25.59426 -0.01854
C 29.44125 24.13127 -0.01415
C 30.62553 23.42915 -0.03039
C 30.67558 22.07065 0.01836
C 29.51251 21.32454 0.03531
C 29.4468 19.92066 -0.00669
C 30.66915 19.1833 0.0101
C 30.64938 17.78577 0.01705
C 27.03456 0.0614 0.04266
C 28.33358 0.70693 0.01177
C 28.21633 2.14137 -0.00416
C 27.01146 2.88351 0.01699
C 27.04901 19.91466 0.00487
C 28.2749 19.23359 0.00826
C 28.26751 17.80085 -0.00294
C 27.0412 17.06355 0.00152
C 26.96628 15.59411 0.01257
C 28.21862 14.86648 0.02316
C 28.19985 13.46653 0.04185
C 28.21294 22.01786 -0.02815
C 26.92669 12.76411 0.00194
C 28.23372 10.64171 0.02611
C 28.29119 9.21816 0.02198
C 27.06073 8.47014 0.01094
C 26.94271 7.05697 0.00235
C 28.26914 6.38782 0.01495
C 28.36206 4.93129 0.01259
C 27.13496 4.31883 0.01799
C 27.02915 11.39527 -0.00621
C 2.44218 32.57065 -0.00131
