304
Graphene
C 34.38224 0.05858 0.01295
C 18.80173 21.83171 -0.01581
C 18.47243 5.12505 0.01452
C 17.30481 4.46079 0.04892
C 17.20913 2.99913 -0.00111
C 18.45306 2.2525 -0.03557
C 18.39084 0.76453 0.03754
C 17.13706 0.01634 0.01739
C 19.60095 32.70272 0.00755
C 20.85443 31.9254 -0.0054
C 20.86056 30.50511 0.00667
C 19.62478 29.83039 0.00143
C 19.57739 28.33482 -0.017
C 20.82778 27.65447 0.00364
C 20.8493 26.19688 -0.00831
C 19.58922 25.47384 -0.02957
C 18.4211 23.31698 0.02691
C 19.65834 23.93366 -0.04422
C 17.05262 23.95833 -0.01979
C 18.4054 26.1151 -0.00316
C 15.9082 26.24042 0.03505
C 14.69289 25.68224 -0.02815
C 15.83796 23.34618 -0.04147
C 15.99899 5.03109 -0.05302
C 14.68828 4.40992 0.00213
C 14.7592 3.0029 -0.00066
C 15.98731 2.2638 -0.00289
C 15.98283 0.78618 0.00028
C 14.77402 0.09558 -0.02213
C 17.19331 32.71515 0.03698
C 18.39201 31.98586 -0.00109
C 18.39457 30.53554 -0.00491
C 17.20725 29.77649 0.03338
C 17.23857 28.31602 -0.0258
C 18.38231 27.59867 -0.0331
C 17.16282 25.45844 0.02188
C 16.04372 27.71116 0.01443
C 20.99624 23.42576 0.00654
C 19.84282 21.28206 -0.04076
C 22.07647 19.91674 -0.01185
C 23.1702 19.13457 0.01126
C 23.47906 17.74136 0.01852
C 23.00291 8.88062 -0.00381
C 22.26782 7.19513 0.03046
C 23.4925 6.37179 0.0296
C 23.29015 4.96413 0.03374
C 22.08896 4.17723 -0.02845
C 22.12806 2.84312 -0.03213
C 23.35816 2.13488 0.02239
C 23.28121 0.65733 0.01153
C 22.05056 34.07941 0.02734
C 24.49429 32.6948 -0.0055
C 25.73656 31.92041 0.01515
C 25.72392 30.5654 -0.00225
C 22.27233 21.31894 -0.01662
C 21.08393 21.97994 -0.00703
C 23.51239 22.00106 -0.00478
C 22.17174 24.12178 0.00199
C 21.1905 6.4918 -0.00652
C 20.91507 5.00868 0.0058
C 19.70118 4.31218 -0.00865
C 19.62006 2.90132 0.00675
C 20.89133 2.17258 -0.00311
C 20.84055 0.74727 0.00742
C 19.61898 0.09606 -0.01594
C 22.09549 32.68935 0.0106
C 23.31173 31.91445 -0.01154
C 23.30534 30.51892 -0.01721
C 22.08744 29.77421 -0.02422
C 22.08913 28.34969 0.01277
C 23.40845 27.68191 0.00096
C 23.38562 26.26507 -0.01527
C 22.15598 25.611 0.01087
C 23.38614 23.34461 0.01511
C 24.5898 29.83586 0.00071
C 14.83831 28.45766 0.00979
C 16.0299 30.49837 0.00889
C 2.43859 0.01613 -0.01275
C 4.91121 32.64464 0.00985
C 6.11873 31.8799 -0.02245
C 6.14446 30.46764 -0.00428
C 4.81437 29.77148 0.03101
C 4.77035 12.6643 -0.01536
C 4.83126 11.42591 -0.02689
C 6.25244 9.17486 -0.01046
C 4.92143 8.56045 -0.00891
C 4.84995 7.13704 0.02819
C 6.09179 6.39775 0.00165
C 6.13937 4.97376 -0.02971
C 4.95515 4.26399 0.02894
C 4.8311 2.88835 -0.01789
C 6.06825 2.1219 0.00444
C 3.65927 0.74446 -0.01111
C 6.14388 0.69137 -0.00925
C 3.67432 2.1773 0.02841
C 2.42336 4.34011 0.00406
C 3.69038 30.50553 0.00093
C 2.41302 29.81353 0.00057
C 2.43246 28.41992 -0.01634
C 2.24625 17.16574 -0.00334
C 2.51513 15.71692 0.02339
C 3.59292 15.0072 0.01641
C 3.6291 13.64588 -0.00719
C 2.4421 12.82572 0.01364
C 2.44114 11.42228 -0.01062
C 3.65468 10.68708 -0.00033
C 3.66505 9.18675 0.03589
C 2.4381 8.58008 -0.02759
C 2.43667 7.14756 0.0402
C 3.67695 6.41432 0.00572
C 3.64821 5.01713 0.03592
C 2.44551 2.87647 0.00943
C 14.76455 29.83314 -0.00481
C 4.88748 34.0665 0.01877
C 8.67515 31.95177 -0.02162
C 9.8742 34.05328 0.02058
C 12.37144 32.69462 -0.01957
C 13.54124 31.96526 -0.0108
C 13.60445 30.53392 -0.00368
C 12.32705 29.77923 -0.02696
C 12.36684 28.35199 -0.00114
C 13.48651 27.79071 0.00228
C 13.45431 5.07662 0.00798
C 12.2408 4.29016 0.00422
C 12.27353 2.83148 0.0351
C 13.57746 2.26548 -0.03113
C 13.52979 0.81321 0.02098
C 12.42315 34.06422 0.01848
C 14.74705 32.634 -0.00619
C 16.05499 31.98612 -0.02162
C 11.12152 0.64221 0.01965
C 7.40997 32.52296 0.01363
C 11.13694 2.05597 -0.03682
C 9.71461 4.13122 0.00374
C 8.72366 30.54969 0.00415
C 7.38826 30.03923 -0.0014
C 7.33656 6.97734 0.02162
C 8.35466 6.34568 0.0076
C 8.51024 4.83228 0.01241
C 7.30377 4.19777 -0.01454
C 7.35171 2.78371 0.01945
C 8.54719 2.00438 0.01416
C 8.54509 0.63458 0.03542
C 7.31398 34.00496 0.02299
C 9.8327 32.69964 0.00244
C 11.11053 32.02637 -0.01717
C 11.16343 30.60267 0.05265
C 9.99154 29.89763 -0.01952
C 10.92097 4.78285 -0.02813
C 9.82542 2.72674 0.00052
C 24.56215 28.43393 -0.01107
C 25.77129 27.72568 -0.01586
C 25.80488 26.35916 -0.01971
C 31.82034 25.61758 0.01574
C 31.79468 24.23218 -0.02383
C 33.11813 23.51394 -0.01429
C 33.08709 22.14461 -0.0136
C 31.90786 21.33501 0.00594
C 31.89903 19.89004 -0.02474
C 33.08112 19.17058 0.00369
C 33.04982 17.77562 0.00455
C 31.90416 17.11436 -0.00644
C 31.98907 15.65963 -0.01839
C 33.23591 15.03993 0.00137
C 33.23725 13.51027 0.00199
C 31.98023 12.80612 0.04381
C 31.98006 11.38234 0.02806
C 33.21873 10.66054 0.01504
C 33.06924 26.28558 0.01927
C 33.15872 9.25864 -0.00069
C 33.21888 27.66758 0.03794
C 31.95082 29.9415 0.00682
C 29.49178 11.40596 -0.00971
C 30.76598 10.66906 0.01518
C 30.75853 9.25133 0.01908
C 29.48927 8.55795 0.07705
C 29.45126 7.13147 0.0103
C 30.74976 6.38495 0.02108
C 30.64429 5.00954 0.00716
C 29.48911 4.32378 0.00307
C 29.46093 2.85943 0.00346
C 30.68748 2.14365 0.01713
C 30.70447 0.79492 -0.01694
C 29.48725 0.08488 0.01428
C 31.97897 32.75508 -0.02142
C 33.15287 31.97497 0.0544
C 33.22086 30.62492 0.00026
C 31.91222 28.48045 -0.01779
C 29.49311 12.76202 -0.03735
C 31.93441 8.58701 0.04926
C 33.09991 6.48182 0.00349
C 0.02559 15.75463 0.02114
C 1.27092 14.99944 -0.02957
C 1.29735 13.6201 0.00343
C 34.40419 12.85089 -0.02656
C 34.37809 11.44334 -0.02442
C 1.2016 10.7169 -0.00027
C 1.18647 9.32153 -0.00583
C 34.42846 8.58077 -0.02302
C 34.40696 7.19511 -0.02849
C 1.19971 6.52861 0.02931
C 1.20968 5.04945 0.00628
C 34.37427 4.35725 -0.0345
C 34.42731 2.90922 -0.00931
C 1.15559 2.18944 -0.00939
C 1.21173 0.73796 -0.00468
C 34.32389 17.13652 0.00648
C 31.97472 7.15193 -0.03838
C 1.23161 17.7425 0.01223
C 34.34184 21.2651 0.01951
C 33.12357 5.07886 -0.00323
C 31.87466 4.28035 -0.00841
C 31.86848 2.8529 0.0001
C 33.15979 2.21573 -0.02927
C 33.21169 0.78059 -0.01404
C 31.97656 34.05817 0.01027
C 34.38087 32.66112 0.01831
C 1.18262 31.96194 -0.01037
C 1.14022 30.52208 -0.00439
C 34.40157 29.7171 -0.00598
C 0.00703 28.34512 -0.05239
C 1.26949 27.64398 0.03076
C 1.04603 26.22864 0.00723
C 34.29574 25.60056 0.02712
C 34.36435 24.10833 -0.02213
C 34.337 20.04438 -0.01678
C 30.708 13.53101 -0.00944
C 30.7253 14.91732 -0.02155
C 29.48762 15.6441 -0.01461
C 25.79531 4.89755 -0.0264
C 24.51237 4.22442 -0.01154
C 24.53993 2.82669 0.00684
C 25.76287 2.16285 -0.01052
C 25.73073 0.72134 -0.01679
C 24.48877 34.03984 0.00367
C 26.98175 32.65509 0.04306
C 28.24361 32.01447 0.00996
C 28.15025 30.57827 0.00195
C 26.96276 29.90141 -0.00802
C 27.01276 28.46746 -0.00218
C 28.18218 27.72299 -0.01654
C 28.21562 26.30512 -0.00037
C 27.01859 25.67811 -0.0032
C 27.06519 24.24635 0.00622
C 25.78304 6.36007 -0.00938
C 28.22102 23.43219 -0.02815
C 24.64824 7.11015 -0.00229
C 25.72158 9.24115 -0.009
C 24.58854 25.59846 -0.02118
C 24.61571 24.11599 0.00733
C 25.84985 23.41754 -0.00178
C 25.84695 22.00893 0.00768
C 24.64009 21.24155 -0.0276
C 24.529 19.78114 0.03005
C 25.6596 19.02559 -0.04078
C 25.74178 17.66228 0.02117
C 24.46673 16.8268 0.02737
C 24.48133 15.37584 -0.00498
C 25.84795 14.8416 0.00135
C 25.91865 13.54238 0.03102
C 24.69787 12.67557 0.02555
C 24.65151 11.47453 0.01423
C 25.79829 10.59995 -0.00285
C 24.41102 8.54021 -0.01199
C 28.24825 21.9685 -0.00942
C 27.05876 21.29433 0.00487
C 27.06579 19.796 0.00826
C 30.74675 32.00713 0.00924
C 30.69403 30.6365 0.02326
C 29.43581 29.90361 0.00261
C 29.34687 28.48108 0.03265
C 30.64591 27.8106 -0.02049
C 30.625 26.35836 -0.01854
C 29.4453 25.65118 -0.01415
C 29.41196 24.16553 -0.03039
C 30.64768 23.49789 0.01836
C 30.72376 22.0445 0.03531
C 29.55794 21.30302 -0.00669
C 29.50964 19.89095 0.0101
C 30.68459 19.19634 0.01705
C 30.7 17.71017 -0.0405
C 29.46634 17.0731 -0.01303
C 29.45269 32.6966 0.0014
C 26.96283 0.02687 0.01324
C 28.22387 0.74896 0.04266
C 28.23257 2.10118 0.01177
C 28.2544 19.14721 -0.00294
C 28.26683 17.73565 0.00152
C 27.04125 16.95214 0.01257
C 27.05106 15.60982 0.02316
C 28.27791 14.83239 0.04185
C 28.27422 13.43718 0.00194
C 27.0794 12.76152 -0.00621
C 3.70358 31.96432 0.01291
C 26.99304 11.32678 0.02611
C 28.26084 9.2713 0.01094
C 26.94413 8.57757 0.00235
C 26.98723 7.14177 0.01495
C 28.24493 6.38276 0.01259
C 28.28839 5.04493 0.01799
C 27.01086 4.23649 0.01699
C 26.96887 2.83389 -0.00416
C 28.21354 10.67402 0.02198
C 2.39941 32.70412 0.00438
