394
Graphene
C 0.01311 34.02598 0.01295
C 11.08789 0.84851 -0.00925
C 9.81487 0.10709 0.01877
C 12.28822 32.68195 0.01363
C 13.50723 31.93629 -0.02162
C 13.47321 30.53505 0.00415
C 12.18753 29.89282 -0.0014
C 12.19163 28.44365 0.02162
C 13.46961 27.791 0.0076
C 13.50457 26.27741 0.01241
C 11.1006 2.2861 0.00444
C 12.30467 25.57737 -0.01454
C 13.54105 23.38288 0.01416
C 13.51799 21.96805 0.03542
C 12.21234 21.22902 0.02299
C 12.198 19.86931 0.00244
C 13.52073 19.17423 -0.01717
C 13.48331 17.75087 0.05265
C 12.28509 17.05691 -0.01952
C 12.28717 15.60024 -0.02813
C 13.44532 14.88335 0.00374
C 12.28341 24.16535 0.01945
C 9.86643 2.92482 -0.01789
C 9.90401 4.43062 0.02894
C 11.16001 5.13841 -0.02971
C 11.01953 27.70865 -0.00033
C 10.98975 26.23499 0.03589
C 9.69625 25.57561 -0.02759
C 9.78749 24.20859 0.0402
C 10.98135 23.50864 0.00572
C 10.9567 21.98138 0.03592
C 9.78379 21.28085 0.00406
C 9.84485 19.91131 0.00943
C 10.98885 19.10213 0.02841
C 11.06055 17.76333 -0.01111
C 9.83494 16.99611 -0.01275
C 9.81581 15.63338 0.00985
C 11.07986 14.94059 -0.02245
C 11.23825 13.48302 -0.00428
C 9.92008 12.66447 0.03101
C 9.89963 11.30955 -0.01536
C 11.09933 10.628 -0.02689
C 11.02516 9.10212 -0.01046
C 9.79375 8.55609 -0.00891
C 9.7247 7.16965 0.02819
C 11.02057 6.62675 0.00165
C 13.72132 13.55578 0.00052
C 9.81336 28.54303 -0.01062
C 12.48897 12.76019 -0.03682
C 12.13873 4.14796 0.02058
C 18.40368 32.09393 0.00028
C 18.45424 30.68237 -0.02213
C 17.21685 29.80881 0.03698
C 17.24431 28.4005 -0.00109
C 18.45096 27.67917 -0.00491
C 18.40199 26.2265 0.03338
C 17.18083 25.54099 -0.0258
C 17.21822 24.10275 -0.0331
C 18.44352 23.40211 -0.00316
C 17.15773 32.76271 -0.00289
C 18.47165 21.96722 0.02188
C 17.21577 19.78589 0.02691
C 18.42942 19.09418 -0.01581
C 18.40905 17.65614 0.01452
C 17.17018 16.93636 0.04892
C 17.13165 15.52556 -0.00111
C 18.4089 14.87862 -0.03557
C 18.40182 0.78747 0.03754
C 17.11654 0.13254 0.01739
C 19.68241 32.82754 0.00755
C 17.26653 21.26121 -0.01979
C 14.74942 34.03784 -0.00066
C 15.84812 0.7899 0.00213
C 15.8608 14.82913 -0.05302
C 12.5624 2.82922 -0.01957
C 13.70298 2.02141 -0.0108
C 13.45032 0.69535 -0.00368
C 12.18699 0.03436 -0.02696
C 14.6865 32.58059 -0.00114
C 15.97489 31.98181 0.00228
C 15.94372 30.5559 0.00798
C 14.67664 29.8062 0.00422
C 14.76886 28.42696 0.0351
C 16.04406 27.63784 -0.03113
C 16.00643 26.23581 0.02098
C 14.69908 25.57983 0.01848
C 14.77491 24.15303 -0.00619
C 16.06933 23.33525 -0.02162
C 16.06327 21.91527 0.00889
C 14.74326 21.25929 -0.00481
C 14.75773 19.89361 0.00979
C 15.98001 19.1025 0.01443
C 15.93763 17.70381 0.03505
C 14.71328 17.07614 -0.02815
C 14.73274 15.6405 -0.04147
C 12.18519 11.43312 0.01965
C 9.78546 29.91119 0.01364
C 10.98053 30.54903 -0.00719
C 11.08541 31.96769 0.01641
C 2.36192 4.34142 0.01996
C 2.40139 2.78776 -0.03996
C 3.61625 2.1599 0.01465
C 3.63241 0.74042 -0.00074
C 2.4206 0.0369 -0.00518
C 4.91552 32.7252 0.0086
C 6.15837 32.0447 -0.00643
C 6.0854 30.54906 0.017
C 4.91145 29.86213 -0.03113
C 3.62061 5.03672 -0.00279
C 4.93248 28.4653 -0.02566
C 6.07327 26.32226 0.02322
C 4.84824 25.67394 -0.00725
C 4.82214 24.15446 -0.05697
C 6.04179 23.44588 0.01087
C 6.07845 22.04664 -0.01343
C 4.88167 21.24722 0.00988
C 4.82433 19.87636 0.0276
C 6.08397 19.22363 0.01305
C 6.20938 17.74586 -0.00077
C 6.14793 27.6615 -0.00094
C 3.6566 6.46548 0.01226
C 2.44422 7.11 0.03828
C 2.37594 8.50574 0.0174
C 3.70058 30.59963 -0.00561
C 2.4604 29.82527 0.00208
C 2.33669 28.40704 0.01707
C 3.62422 27.731 0.02769
C 3.64894 26.3824 -0.03291
C 2.42441 25.56572 -0.04999
C 2.43645 24.17924 0.04505
C 3.64827 23.47917 0.03284
C 3.64922 22.04932 -0.04307
C 2.48098 21.3929 0.03189
C 2.53305 19.90829 0.00031
C 3.62533 19.09444 -0.003
C 3.62028 17.67864 0.01402
C 2.43531 16.95581 0.02379
C 2.44063 15.54393 0.00907
C 3.64338 14.86316 0.00643
C 3.64873 13.49347 -0.01509
C 2.46327 12.87482 0.03267
C 2.41919 11.35642 0.02374
C 3.62596 10.7017 0.00402
C 3.6144 9.27874 0.0073
C 4.85871 16.97569 0.03368
C 4.92077 15.56604 -0.02929
C 6.17896 14.89476 -0.00966
C 6.13669 13.53262 -0.03337
C 7.33618 19.85654 0.02888
C 8.58385 19.18307 -0.00482
C 8.62631 17.83361 -0.01384
C 7.37928 16.97987 0.03693
C 7.37844 15.58036 0.01745
C 8.61011 14.88718 0.00488
C 8.70789 13.44631 -0.01004
C 7.41738 12.77731 -0.02896
C 7.41328 11.38619 -0.00131
C 8.61952 10.71924 -0.01118
C 8.55922 9.28467 -0.014
C 7.26147 8.55894 0.02147
C 7.3015 7.18005 0.00373
C 8.51532 6.40531 -0.00191
C 8.57735 5.03786 0.00438
C 7.33248 4.4002 0.01291
C 7.3931 2.9617 0.00093
C 8.63702 2.26356 0.00057
C 8.57975 0.77989 -0.01634
C 7.32916 0.13521 -0.00334
C 9.85392 32.73377 0.02339
C 7.41082 21.38971 0.00685
C 20.89027 32.00146 -0.0054
C 8.55809 22.08853 0.00895
C 7.35554 24.18239 0.0288
C 4.87872 12.81856 0.01227
C 4.91372 11.33584 0.00873
C 6.1376 10.69094 -0.00049
C 6.07093 9.27239 0.00848
C 4.84804 8.60784 -0.01303
C 4.92551 7.15488 -0.01378
C 6.09618 6.55277 0.02635
C 6.02874 5.06056 0.0127
C 4.80777 4.3323 0.01396
C 4.85764 2.9384 0.01849
C 6.11651 2.21812 -0.01142
C 6.11945 0.8224 -0.00562
C 4.88128 0.03466 -0.00494
C 7.32122 32.76852 0.00054
C 8.58738 32.07695 0.03007
C 8.5546 30.68466 -0.00095
C 7.33367 29.96706 0.01572
C 7.38254 28.47739 -0.04848
C 8.57516 27.78123 -0.00892
C 8.50396 26.26298 -0.01362
C 7.28352 25.58366 -0.0008
C 8.57421 23.46027 0.00393
C 20.92371 30.55224 0.00667
C 19.64226 29.86399 0.00143
C 19.66263 28.45982 -0.017
C 30.64604 6.38123 0.01908
C 30.70905 4.89457 0.07705
C 29.46704 4.27301 0.0103
C 29.4329 2.75694 0.02108
C 30.72679 2.09094 0.00716
C 30.75836 0.69384 0.00307
C 29.48755 0.02389 0.00346
C 31.95089 32.71367 0.01713
C 33.08203 31.91709 -0.01694
C 29.51866 7.14278 0.01518
C 33.15335 30.54622 0.01428
C 31.94785 28.44056 0.0544
C 33.14147 27.72987 0.00026
C 33.19025 26.28513 0.00682
C 31.91886 25.60721 -0.01779
C 31.97518 24.16983 0.03794
C 33.21088 23.46613 0.01927
C 33.21141 21.92245 0.01574
C 31.96999 21.29767 -0.02383
C 31.97601 19.88289 -0.01429
C 31.96684 29.84833 -0.02142
C 29.49864 8.59465 -0.00971
C 30.70126 9.2345 -0.03735
C 30.6816 10.65182 -0.00944
C 29.48684 32.65125 0.01177
C 30.64308 31.98412 0.04266
C 30.74576 30.48202 0.01324
C 29.46795 29.85665 0.0014
C 29.48715 28.39171 0.00924
C 30.73824 27.70212 0.02326
C 30.74953 26.30918 0.00261
C 29.5786 25.53442 0.03265
C 29.55064 24.08737 -0.02049
C 30.74272 23.356 -0.01854
C 30.73601 22.00158 -0.01415
C 29.53821 21.25229 -0.03039
C 29.47709 19.85297 0.01836
C 30.71394 19.16423 0.03531
C 30.62174 17.79454 -0.00669
C 29.45609 17.02377 0.0101
C 29.50546 15.67626 0.01705
C 30.71489 14.93196 -0.0405
C 30.66406 13.55338 -0.01303
C 29.40178 12.79221 -0.01461
C 29.36615 11.33525 -0.02155
C 33.18215 19.11674 -0.0136
C 33.20153 17.70556 0.00594
C 31.88227 17.07959 -0.02474
C 31.91106 15.66229 0.00369
C 1.20493 22.00534 0.02712
C 34.42355 21.25799 -0.02213
C 0.03928 19.88819 0.01951
C 1.28964 19.21965 -0.01678
C 1.27953 17.78281 0.01223
C 0.02739 17.05258 0.00648
C 0.03343 15.59406 0.02114
C 1.1857 14.9041 -0.02957
C 1.20424 13.53066 0.00343
C 0.00025 12.87079 -0.02656
C 34.36585 11.40137 -0.02442
C 1.16199 10.63618 -0.00027
C 1.12947 9.25921 -0.00583
C 34.36089 8.58653 -0.02302
C 34.37829 7.10491 -0.02849
C 1.1947 6.41874 0.02931
C 1.18743 5.00413 0.00628
C 34.43154 4.30213 -0.0345
C 34.36118 2.86535 -0.00931
C 1.16471 2.05249 -0.00939
C 1.22935 0.68139 -0.00468
C 1.22589 23.4339 0.00723
C 27.02646 0.01507 -0.00416
C 0.01265 24.1782 0.03076
C 1.18096 26.27114 -0.00598
C 33.1214 14.90512 0.00455
C 33.1072 13.49118 -0.00644
C 31.87343 12.78356 -0.01839
C 31.87921 11.37018 0.00137
C 33.11769 10.72001 0.00199
C 33.1779 9.23332 0.04381
C 31.94164 8.54465 0.02806
C 31.88559 7.09347 0.01504
C 33.16317 6.34347 -0.00069
C 33.29508 4.95697 0.04926
C 32.01013 4.27552 -0.03838
C 31.92649 2.83985 0.00349
C 33.18506 2.10637 -0.00323
C 33.18087 0.6457 -0.00841
C 31.97022 34.06901 0.0001
C 34.40103 32.58196 -0.02927
C 1.20793 31.87124 -0.01404
C 1.2428 30.515 0.01027
C 0.00433 29.88039 0.01831
C 34.33033 28.44331 -0.01037
C 1.12511 27.76402 -0.00439
C 34.39172 25.55715 -0.05239
C 3.71382 32.01778 -0.01977
C 28.30653 0.71162 0.01699
C 26.87043 2.9117 0.01259
C 23.37413 22.02165 -0.01662
C 22.12462 21.23277 -0.01185
C 22.02257 19.86719 0.01126
C 23.30989 19.1692 0.01852
C 23.31913 17.77472 -0.00381
C 22.10389 17.10646 0.03046
C 22.08027 15.77275 0.0296
C 23.31395 14.92212 0.03374
C 23.23533 13.52107 -0.02845
C 23.36661 23.42293 -0.00478
C 23.23081 1.96264 -0.03213
C 22.11858 33.98963 0.01153
C 24.61146 32.63001 0.02734
C 25.86708 31.93785 -0.0055
C 25.83669 30.47894 0.01515
C 24.59123 29.84056 -0.00225
C 24.54081 28.38504 0.00071
C 25.82542 27.61555 -0.01107
C 25.88113 26.20839 -0.01586
C 24.67259 25.58036 -0.01971
C 23.33119 0.55349 0.02239
C 22.29712 24.16884 0.01511
C 22.1432 25.56576 0.00199
C 23.4292 26.26101 0.01087
C 20.8942 27.76468 0.00364
C 20.83897 26.34821 -0.00831
C 19.64384 25.57522 -0.02957
C 19.69657 24.16314 -0.04422
C 20.99095 23.41622 0.00654
C 20.84454 21.98344 -0.00703
C 19.6038 21.25572 -0.04076
C 19.62869 19.86638 -0.00652
C 20.83718 19.16117 0.0058
C 20.837 17.66131 -0.00865
C 19.60748 16.96257 0.00675
C 19.75622 15.50958 -0.00311
C 21.01173 14.84363 0.00742
C 21.06157 0.8121 -0.01594
C 19.75445 0.21622 0.0106
C 22.15966 32.57602 -0.01154
C 23.38357 31.86211 -0.01721
C 23.38084 30.51077 -0.02422
C 22.09691 29.86567 0.01277
C 22.14499 28.38035 0.00096
C 23.35308 27.67436 -0.01527
C 24.63522 24.21086 -0.02118
C 25.82364 23.39573 0.00733
C 25.79959 22.01342 -0.00178
C 24.65801 21.33654 0.00768
C 27.10933 25.46039 -0.00218
C 27.1373 24.14921 -0.01654
C 28.27405 23.43392 -0.00037
C 28.30373 21.97555 -0.0032
C 27.10586 21.27992 0.00622
C 27.00515 19.89913 -0.02815
C 28.23077 19.16292 -0.00942
C 28.23613 17.74701 0.00487
C 27.00531 17.04582 0.00826
C 26.97035 15.58129 -0.00294
C 28.13318 14.93255 0.00152
C 28.1946 13.52798 0.01257
C 26.98659 12.7189 0.02316
C 26.95038 11.22304 0.04185
C 28.1793 10.60563 0.00194
C 28.22828 9.21963 -0.00621
C 27.06558 8.45201 0.02611
C 27.06795 7.06081 0.02198
C 28.31711 6.37698 0.01094
C 28.2269 4.99562 0.00235
C 26.9298 4.3526 0.01495
C 28.32575 26.16955 -0.00802
C 28.23446 2.1982 0.01799
C 28.3214 27.63489 0.00195
C 26.99784 29.77593 0.04306
C 24.58747 19.87069 -0.0276
C 25.78378 19.16304 0.03005
C 25.78526 17.75741 -0.04078
C 24.56441 17.02526 0.02117
C 24.57944 15.63449 0.02737
C 25.71521 14.90617 -0.00498
C 25.75446 13.44594 0.00135
C 24.46481 12.70987 0.03102
C 24.61033 11.33842 0.02555
C 25.71533 10.47741 0.01423
C 25.76188 8.95948 -0.00285
C 25.80841 6.44757 -0.009
C 25.70246 5.00233 -0.01199
C 24.61385 4.14518 -0.00229
C 24.42481 2.78852 -0.00938
C 25.68153 2.11956 -0.0264
C 25.72721 0.73397 -0.01154
C 24.58884 34.07643 0.00684
C 27.08472 32.69193 -0.01052
C 28.27898 31.93123 -0.01679
C 28.31802 30.54786 0.00367
C 27.07656 28.36451 0.00996
C 2.45553 32.67612 0.02784
