334
Graphene
C 34.38233 0.08799 0.01295
C 12.24525 24.15079 0.01443
C 13.65948 23.48096 0.03505
C 13.64568 22.11996 -0.02815
C 12.36116 21.3392 -0.04147
C 12.33099 19.80681 -0.05302
C 13.57354 19.1006 0.00213
C 13.5039 17.75927 -0.00066
C 12.24149 25.50839 0.00979
C 12.24862 16.92849 -0.00289
C 13.66126 14.71205 -0.02213
C 13.5353 13.38711 0.03698
C 12.36947 12.74852 -0.00109
C 12.32421 11.42041 -0.00491
C 13.46076 10.66539 0.03338
C 13.65238 9.19571 -0.0258
C 12.33239 8.57768 -0.0331
C 12.22862 15.45924 0.00028
C 13.54693 26.19923 -0.00481
C 13.48872 27.64134 0.00889
C 12.33268 28.30003 -0.02162
C 11.03498 14.74983 0.00052
C 11.34042 13.45339 -0.03682
C 11.13528 10.72496 0.01965
C 11.15971 9.29436 0.02058
C 9.90314 8.53032 -0.01957
C 9.93257 7.1041 -0.0108
C 11.15905 6.39369 -0.00368
C 11.08073 4.96223 -0.02696
C 9.85898 4.31421 -0.00114
C 9.82024 2.9218 0.00228
C 11.07132 2.17003 0.00798
C 10.99035 0.74626 0.00422
C 9.77115 0.10053 0.0351
C 12.25932 32.64824 -0.03113
C 13.46296 32.01953 0.02098
C 13.52627 30.49625 0.01848
C 12.31604 29.71152 -0.00619
C 12.315 7.14294 -0.00316
C 13.57385 6.37281 0.02188
C 13.52773 4.85899 -0.01979
C 12.26861 4.24347 0.02691
C 14.76364 4.2211 -0.00865
C 14.8202 2.82859 0.00675
C 16.02082 2.16558 -0.00311
C 15.96774 0.78419 0.00742
C 14.70707 0.04663 -0.01594
C 17.18261 32.69405 0.0106
C 18.38461 31.94312 -0.01154
C 18.47826 30.56138 -0.01721
C 17.20408 29.86832 -0.02422
C 17.27074 28.34427 0.01277
C 18.43528 27.71175 0.00096
C 16.93124 8.58319 -0.01527
C 17.13325 7.16545 0.01087
C 18.38706 6.55278 0.00199
C 18.40552 5.01805 0.01511
C 17.25905 4.32148 -0.00478
C 17.32129 2.88808 -0.01662
C 15.95655 4.94659 0.0058
C 11.20831 17.74909 0.00374
C 15.98294 6.35422 -0.00652
C 14.84148 8.49495 -0.00703
C 12.36857 2.82679 -0.01581
C 13.58894 2.11962 0.01452
C 13.47647 0.68756 0.04892
C 12.29132 0.02905 -0.00111
C 14.67853 32.75038 -0.03557
C 15.94524 32.02252 0.03754
C 15.98813 30.55629 0.01739
C 14.77937 29.77105 0.00755
C 14.75866 28.36573 -0.0054
C 16.02411 27.71335 0.00667
C 15.96043 26.32966 0.00143
C 14.87249 25.54243 -0.017
C 14.80197 24.22806 0.00364
C 14.58291 21.25239 -0.00831
C 14.68699 19.90088 -0.02957
C 14.49809 16.94226 -0.04422
C 14.63257 15.61517 0.00654
C 14.72633 7.07154 -0.04076
C 11.09934 19.08521 -0.02813
C 9.82191 19.81286 -0.01952
C 9.8559 21.26338 0.05265
C 2.38954 0.11866 -0.02896
C 4.82244 32.67073 -0.00131
C 6.06391 31.94617 -0.01118
C 6.07998 30.57583 -0.014
C 4.92719 29.84351 0.02147
C 4.93061 28.44683 0.00373
C 6.11899 27.6513 -0.00191
C 6.07708 26.22428 0.00438
C 4.85717 25.54323 0.01291
C 4.91019 24.12561 0.00093
C 6.18037 23.47113 0.00057
C 6.16832 22.07297 -0.01634
C 4.94826 21.40172 -0.00334
C 4.93757 19.97015 0.02339
C 6.21936 9.1155 0.01641
C 4.94104 8.71649 -0.00719
C 4.8864 7.17962 0.01364
C 3.6465 0.71372 -0.01004
C 6.19421 6.42461 -0.01062
C 3.67974 2.19555 0.00488
C 2.39442 4.28679 0.03693
C 3.68203 30.58068 -0.00562
C 2.47219 29.91602 -0.00494
C 2.47546 28.43612 0.00054
C 3.65661 27.67829 0.03007
C 3.65941 26.26188 -0.00095
C 2.47288 25.58052 0.01572
C 2.50698 24.17766 -0.04848
C 3.70339 23.42965 -0.00892
C 3.69558 21.97603 -0.01362
C 2.48908 21.18391 -0.0008
C 2.45839 19.81364 0.0288
C 3.72965 19.27276 0.00393
C 3.63786 9.18683 0.00895
C 2.38953 8.48068 0.00685
C 2.41182 7.08458 0.02888
C 3.69397 6.45842 -0.00482
C 3.64247 4.91645 -0.01384
C 2.40415 2.84907 0.01745
C 18.51091 2.18414 -0.01185
C 6.11501 4.9647 -0.00033
C 4.83278 2.88281 -0.02759
C 8.61746 5.01979 0.00444
C 7.27932 4.30404 -0.00925
C 7.34137 2.88735 0.01877
C 8.57266 2.17881 0.01363
C 8.54042 0.77201 -0.02162
C 7.32675 0.00106 0.00415
C 9.74797 32.68766 -0.0014
C 11.05309 32.04693 0.02162
C 11.09661 30.52061 0.0076
C 9.8652 29.84806 0.01241
C 9.83124 28.42117 -0.01454
C 11.01839 27.64558 0.01945
C 11.00066 26.26804 0.01416
C 9.77245 25.50583 0.03542
C 9.86309 24.11781 0.02299
C 11.0539 23.39898 0.00244
C 11.09617 21.95203 -0.01717
C 8.67517 6.39287 -0.01789
C 4.88341 4.31738 0.03589
C 7.39439 7.17028 0.02894
C 8.70576 9.2267 0.00165
C 6.03072 2.05852 0.0402
C 6.08136 0.7155 0.00572
C 4.84514 34.06633 0.03592
C 7.34583 32.665 0.00406
C 8.60761 31.99115 0.00943
C 8.62162 30.55996 0.02841
C 7.38747 29.76967 -0.01111
C 7.35411 28.34475 -0.01275
C 8.57565 27.77411 0.00985
C 8.61025 26.27593 -0.02245
C 7.35022 25.58173 -0.00428
C 7.44201 24.18786 0.03101
C 8.65488 23.43721 -0.01536
C 8.57303 22.04641 -0.02689
C 7.30803 21.37722 -0.01046
C 7.33063 20.03684 -0.00891
C 8.52154 19.37406 0.02819
C 7.44361 8.70545 -0.02971
C 18.45186 0.75649 0.01126
C 17.18058 0.08276 0.01852
C 19.59291 32.63954 -0.00381
C 33.20464 30.56324 0.0544
C 31.91415 29.8442 0.00026
C 31.95194 28.45391 0.00682
C 33.268 27.74754 -0.01779
C 33.16612 26.29381 0.03794
C 31.93526 25.5309 0.01927
C 31.92379 24.09381 0.01574
C 33.25112 23.43369 -0.02383
C 33.18839 22.01132 -0.01429
C 31.93054 21.30708 -0.0136
C 32.00525 19.90505 0.00594
C 33.21848 19.18358 -0.02474
C 33.10248 17.82646 0.00369
C 31.82438 17.13667 0.00455
C 31.94873 15.66928 -0.00644
C 33.25052 14.99204 -0.01839
C 33.21296 13.54861 0.00137
C 33.18617 32.08506 -0.02142
C 32.00619 12.87194 0.00199
C 31.98684 32.69154 0.01428
C 30.69467 0.71787 0.01713
C 30.70414 19.19801 0.0101
C 30.57329 17.7663 0.01705
C 29.43704 17.00782 -0.0405
C 29.31217 15.70516 -0.01303
C 30.65973 14.94743 -0.01461
C 30.76632 13.54629 -0.02155
C 29.50107 12.69203 -0.00944
C 29.54721 11.36379 -0.03735
C 30.80273 10.67561 -0.00971
C 30.81543 9.22516 0.01518
C 29.52671 8.51387 0.01908
C 29.51238 7.05105 0.07705
C 30.73805 6.35428 0.0103
C 30.70978 4.97298 0.02108
C 29.48822 4.25533 0.00716
C 29.4587 2.79525 0.00307
C 30.63155 2.15757 0.00346
C 29.45692 0.02217 -0.01694
C 29.5375 20.12507 -0.00669
C 32.02484 11.43791 0.04381
C 33.22194 9.17831 0.01504
C 34.39679 19.86333 0.01223
C 1.23826 19.14498 0.00648
C 1.20352 17.77182 0.02114
C 0.04772 17.02646 -0.02957
C 34.39922 15.6545 0.00343
C 34.30463 12.71243 -0.02656
C 0.16695 11.38997 -0.02442
C 1.38366 10.55244 -0.00027
C 1.27266 9.14157 -0.00583
C 0.03231 8.5241 -0.02302
C 0.03716 7.04551 -0.02849
C 1.17667 6.36421 0.02931
C 1.16093 4.9852 0.00628
C 34.37377 4.23969 -0.0345
C 34.34948 2.89527 -0.00931
C 1.18612 2.2154 -0.00939
C 1.19703 0.80652 -0.00468
C 34.38376 21.36862 -0.01678
C 33.22032 10.64799 0.02806
C 1.22429 21.99281 0.01951
C 34.41926 24.19653 0.02712
C 32.0092 8.52414 -0.00069
C 31.96391 7.05807 0.04926
C 33.17281 6.33748 -0.03838
C 33.13804 4.97097 0.00349
C 31.88942 4.26293 -0.00323
C 31.88917 2.86489 -0.00841
C 33.12688 2.16892 0.0001
C 33.13871 0.70517 -0.02927
C 31.98811 0.00408 -0.01404
C 34.40552 32.74867 0.01027
C 1.21347 31.98279 0.01831
C 1.23986 30.61849 -0.01037
C 34.403 29.88886 -0.00439
C 34.41376 28.44869 -0.00598
C 1.20919 27.74142 -0.05239
C 1.21897 26.32772 0.03076
C 34.38759 25.60289 0.00723
C 1.29655 23.48785 -0.02213
C 3.58736 31.9656 -0.01142
C 30.61821 21.77852 0.03531
C 29.57256 24.04736 -0.03039
C 22.10738 8.60823 -0.04078
C 22.05965 7.13427 0.02117
C 23.34067 6.3057 0.02737
C 23.39255 4.82882 -0.00498
C 22.07463 4.19601 0.00135
C 22.11856 2.75553 0.03102
C 23.34587 2.14832 0.02555
C 23.34739 0.67796 0.01423
C 22.09663 34.05786 -0.00285
C 24.57676 32.64651 -0.009
C 25.78922 31.85622 -0.01199
C 25.74921 30.48078 -0.00229
C 24.52167 29.723 -0.00938
C 24.71452 28.45923 -0.0264
C 25.85303 27.76382 -0.01154
C 25.90446 13.31052 0.00684
C 24.58799 12.90858 -0.01052
C 23.35485 9.28693 0.03005
C 24.36569 11.55106 -0.01679
C 23.36177 10.67718 -0.0276
C 22.05641 29.69292 -0.00178
C 20.89087 31.94705 0.03046
C 20.8455 30.53879 0.0296
C 19.66573 29.7655 0.03374
C 19.64345 28.44187 -0.02845
C 20.8648 9.14027 -0.03213
C 19.68078 8.54459 0.02239
C 19.65255 7.13448 0.01153
C 20.85481 6.44129 0.02734
C 20.89436 4.98914 -0.0055
C 19.71226 4.26535 0.01515
C 19.74151 2.80851 -0.00225
C 20.86107 2.08801 0.00071
C 20.88905 0.73378 -0.01107
C 19.62244 0.02922 -0.01586
C 22.13309 32.70477 -0.01971
C 23.36322 31.96114 -0.02118
C 23.2676 30.46081 0.00733
C 22.21369 28.35252 0.00768
C 30.6068 23.20681 0.01836
C 25.7855 10.61631 0.00367
C 24.59436 8.52887 0.00996
C 27.06775 8.50677 0.00235
C 27.01856 7.05558 0.01495
C 28.3047 6.41218 0.01259
C 28.31836 5.01132 0.01799
C 27.07157 4.26814 0.01699
C 26.99469 2.78239 -0.00416
C 28.23002 2.09722 0.01177
C 28.27268 0.68372 0.04266
C 26.99589 34.04064 0.01324
C 29.53201 32.64715 0.0014
C 30.66865 31.94449 0.00924
C 30.65252 30.53851 0.02326
C 29.52511 29.80925 0.00261
C 29.57808 28.44622 0.03265
C 30.73695 27.68769 -0.02049
C 30.70742 26.25428 -0.01854
C 29.37109 25.43758 -0.01415
C 28.30452 9.21449 0.01094
C 25.82362 9.20987 0.04306
C 28.32099 10.57964 0.02198
C 27.07639 12.76539 -0.00621
C 24.53927 7.07946 0.00195
C 25.77408 6.29457 -0.00802
C 25.82175 4.95092 -0.00218
C 24.56308 4.19915 -0.01654
C 24.59439 2.82539 -0.00037
C 25.78362 2.06826 -0.0032
C 25.78867 0.64305 0.00622
C 24.58417 34.0492 -0.02815
C 26.97774 32.58748 -0.00942
C 28.28362 31.91635 0.00487
C 28.24363 30.50632 0.00826
C 26.98336 29.80566 -0.00294
C 26.99515 28.34212 0.00152
C 28.27271 27.66449 0.01257
C 28.40198 26.27522 0.02316
C 28.34014 14.75383 0.04185
C 28.28552 13.37715 0.00194
C 27.05798 11.30316 0.02611
C 2.40112 32.71395 0.01849
