342
Graphene
C 34.39965 0.10437 0.01295
C 11.07507 19.08331 0.01848
C 11.03436 17.60751 -0.00619
C 9.79998 16.96067 -0.02162
C 9.7864 15.61419 0.00889
C 10.98298 14.88212 -0.00481
C 11.01164 13.51024 0.00979
C 9.78905 12.76156 0.01443
C 9.85453 11.36119 0.03505
C 11.04439 10.6817 -0.02815
C 11.04975 9.24842 -0.04147
C 9.78992 8.58526 -0.05302
C 9.75907 7.17519 0.00213
C 10.99399 6.41007 -0.00066
C 11.08983 4.95559 -0.00289
C 9.8166 4.27218 0.00028
C 9.82781 2.95171 -0.02213
C 11.0744 2.18153 0.03698
C 9.95931 19.83502 0.02098
C 11.01918 0.7606 -0.00109
C 9.82622 21.26282 -0.03113
C 11.06783 23.46492 0.00422
C 7.3065 7.06852 0.00244
C 8.58553 6.39143 -0.01717
C 8.57302 4.97887 0.05265
C 7.32311 4.25396 -0.01952
C 7.33283 2.89374 -0.02813
C 8.60401 2.21664 0.00374
C 8.67891 0.80917 0.00052
C 7.45555 0.11861 -0.03682
C 9.83859 32.74119 0.01965
C 10.98199 31.96716 0.02058
C 10.98712 30.48086 -0.01957
C 9.72699 29.90564 -0.0108
C 9.85247 28.40211 -0.00368
C 11.05958 27.72646 -0.02696
C 11.02925 26.27511 -0.00114
C 9.78155 25.51218 0.00228
C 9.72472 24.19009 0.00798
C 11.09945 22.09887 0.0351
C 9.88038 0.06736 -0.00491
C 12.172 32.71967 0.03338
C 13.53905 32.0257 -0.0258
C 13.56055 4.95516 -0.00703
C 12.35022 4.26927 -0.04076
C 12.29842 2.86045 -0.00652
C 13.50585 2.17816 0.0058
C 13.51179 0.64509 -0.00865
C 12.24163 34.07319 0.00675
C 14.81437 32.62136 -0.00311
C 16.00342 31.88153 0.00742
C 15.90075 30.43049 -0.01594
C 14.6928 29.79385 0.0106
C 14.77853 28.31525 -0.01154
C 16.02569 27.59726 -0.01721
C 16.05721 26.27148 -0.02422
C 14.78459 25.44772 0.01277
C 14.80501 24.04696 0.00096
C 16.06526 23.32253 -0.01527
C 15.95593 21.8412 0.01087
C 13.40465 6.39438 0.00654
C 12.22677 7.09734 -0.04422
C 12.20297 8.54446 -0.02957
C 13.39493 9.25005 -0.00831
C 13.47807 30.61586 -0.0331
C 12.33134 29.80154 -0.00316
C 12.37102 28.40923 0.02188
C 13.57636 27.60837 -0.01979
C 13.5906 26.20056 0.02691
C 12.28587 25.64202 -0.01581
C 12.30483 24.25415 0.01452
C 13.45315 23.46631 0.04892
C 7.32195 8.49359 0.02299
C 13.50076 21.99052 -0.00111
C 12.29829 19.88577 0.03754
C 13.45821 19.12044 0.01739
C 13.47389 17.74243 0.00755
C 12.42547 16.86985 -0.0054
C 12.27919 15.52946 0.00667
C 12.24938 12.82442 0.00143
C 12.35098 11.42487 -0.017
C 13.43242 10.59898 0.00364
C 12.31613 21.31325 -0.03557
C 8.61497 9.32752 0.03542
C 8.61132 10.74589 0.01416
C 7.37791 11.34175 0.01945
C 2.40747 7.14424 0.02888
C 3.67323 6.40191 -0.00482
C 3.70848 4.94663 -0.01384
C 2.44137 4.35295 0.03693
C 2.51072 2.95285 0.01745
C 3.67805 2.25185 0.00488
C 3.68929 0.80274 -0.01004
C 2.41107 0.1049 -0.02896
C 4.86384 32.68771 -0.00131
C 6.1961 31.94899 -0.01118
C 6.13148 30.62428 -0.014
C 4.91331 29.88332 0.02147
C 4.84535 28.45095 0.00373
C 6.05121 27.70557 -0.00191
C 6.13243 26.35736 0.00438
C 4.89333 25.56215 0.01291
C 4.90092 24.15058 0.00093
C 2.354 8.63777 0.00685
C 3.63467 9.29363 0.00895
C 3.65753 10.66084 0.00393
C 2.38873 11.42307 0.0288
C 3.57606 30.54029 0.00848
C 2.34002 29.77488 -0.01303
C 2.38768 28.4183 -0.01378
C 3.64045 27.68082 0.02635
C 3.64481 26.31777 0.0127
C 2.42694 25.52335 0.01396
C 2.44261 24.09105 0.01849
C 3.67702 23.41146 -0.01142
C 6.13194 23.49749 0.00057
C 3.63538 22.05939 -0.00562
C 2.52634 19.83111 0.00054
C 3.69055 19.11725 0.03007
C 3.6477 17.69202 -0.00095
C 2.48273 17.03395 0.01572
C 2.45358 15.54 -0.04848
C 3.63151 14.859 -0.00892
C 3.59145 13.45579 -0.01362
C 2.32246 12.8031 -0.0008
C 2.43984 21.34293 -0.00494
C 14.78908 21.32543 0.00199
C 6.12155 22.04306 -0.01634
C 5.0349 19.91131 0.02339
C 7.35252 29.87157 -0.00891
C 7.37953 28.4725 0.02819
C 8.60615 27.74734 0.00165
C 8.56897 26.25437 -0.02971
C 7.37114 25.642 0.02894
C 7.37236 24.18126 -0.01789
C 8.55552 23.45812 0.00444
C 8.5841 22.03325 -0.00925
C 7.38122 21.29247 0.01877
C 7.40454 19.90503 0.01363
C 8.65055 19.19806 -0.02162
C 8.62688 17.76027 0.00415
C 7.45936 17.05698 -0.0014
C 7.32984 15.56115 0.02162
C 8.58276 14.87124 0.0076
C 8.51141 13.45636 0.01241
C 7.238 12.70808 -0.01454
C 8.46233 30.65284 -0.01046
C 8.59308 32.01133 -0.02689
C 7.42691 32.8373 -0.01536
C 4.89797 0.06573 0.03101
C 6.20482 19.12196 0.01641
C 6.24182 17.76029 -0.00719
C 4.89445 17.04732 0.01364
C 4.85447 15.61847 -0.01062
C 6.07324 14.81865 -0.00033
C 6.03238 13.45605 0.03589
C 4.85789 12.69708 -0.02759
C 4.89783 11.31344 0.0402
C 4.9097 21.31813 -0.00334
C 6.15167 10.68807 0.00572
C 4.88278 8.56216 0.00406
C 4.87236 7.12056 0.00943
C 6.11167 6.42395 0.02841
C 6.20109 4.9886 -0.01111
C 4.93058 4.334 -0.01275
C 4.87655 2.85919 0.00985
C 6.13677 2.21628 -0.02245
C 6.08335 0.76545 -0.00428
C 6.13136 9.20909 0.03592
C 14.74678 19.8572 0.01511
C 16.00939 19.64522 -0.00478
C 15.88916 9.20043 -0.01662
C 30.68185 2.14993 -0.02142
C 30.71957 0.74112 0.0544
C 29.44648 0.06061 0.00026
C 31.92068 32.71523 0.00682
C 33.13341 32.05081 -0.01779
C 33.1501 30.64223 0.03794
C 31.98525 29.92706 0.01927
C 31.96606 28.38071 0.01574
C 33.18472 27.7297 -0.02383
C 33.0792 26.32235 -0.01429
C 31.78393 25.56201 -0.0136
C 31.92515 24.19163 0.00594
C 33.10058 23.33828 -0.02474
C 33.18235 21.96693 0.00369
C 33.19241 14.98767 0.00455
C 33.06475 13.61864 -0.00644
C 31.88545 12.75135 -0.01839
C 29.50915 2.94985 0.01428
C 29.52161 4.30763 -0.01694
C 30.71801 4.98044 0.01713
C 30.72028 6.40886 0.00346
C 28.2219 4.92178 0.03531
C 27.05736 4.24473 -0.00669
C 26.9724 2.8282 0.0101
C 28.26056 2.24067 0.01705
C 28.22602 0.77952 -0.0405
C 26.98908 0.01175 -0.01303
C 29.44588 32.73036 -0.01461
C 30.69538 32.06427 -0.02155
C 31.89528 11.37677 0.00137
C 30.73444 30.70634 -0.00944
C 29.58202 28.48152 -0.00971
C 30.73577 27.71405 0.01518
C 30.5574 26.42119 0.01908
C 29.47787 11.26741 0.07705
C 30.63681 10.67444 0.0103
C 30.70479 9.17707 0.02108
C 29.44462 8.46372 0.00716
C 29.40052 7.06874 0.00307
C 29.55648 29.93061 -0.03735
C 28.21426 6.30676 0.01836
C 33.20442 10.61266 0.00199
C 31.9848 8.4775 0.02806
C 1.24216 17.82407 0.01223
C 0.01348 17.23665 0.00648
C 34.28467 15.85147 0.02114
C 1.12785 14.99841 -0.02957
C 1.0114 13.62396 0.00343
C 34.29384 12.79434 -0.02656
C 34.34127 11.38301 -0.02442
C 1.19806 10.73256 -0.00027
C 1.16591 9.29887 -0.00583
C 0.03036 8.53889 -0.02302
C 34.40824 7.09212 -0.02849
C 1.16942 6.39493 0.02931
C 1.18812 5.03759 0.00628
C 34.39489 4.32348 -0.0345
C 34.40823 2.87119 -0.00931
C 1.19143 2.2314 -0.00939
C 1.24948 0.86704 -0.00468
C 1.25559 19.09759 -0.01678
C 34.42417 19.75538 0.01951
C 34.41127 21.13771 -0.02213
C 1.20679 22.08147 0.02712
C 31.95843 7.08767 0.01504
C 33.1927 6.38142 -0.00069
C 33.17447 4.9724 0.04926
C 31.96045 4.30984 -0.03838
C 31.88686 2.88496 0.00349
C 33.17748 2.18244 -0.00323
C 33.16543 0.79668 -0.00841
C 31.96887 0.04214 0.0001
C 33.23498 9.20104 0.04381
C 34.36319 32.7636 -0.02927
C 1.20441 30.56521 0.01027
C 34.37621 29.8529 0.01831
C 34.41302 28.46411 -0.01037
C 1.16558 27.67697 -0.00439
C 1.12054 26.25956 -0.00598
C 34.27099 25.5408 -0.05239
C 34.3792 24.18133 0.03076
C 1.12843 23.50924 0.00723
C 1.26213 31.99729 -0.01404
C 3.71516 31.9963 -0.00049
C 26.99991 7.0241 -0.03039
C 28.25726 9.21926 -0.01854
C 17.13788 4.35419 0.00768
C 17.19819 2.81903 -0.0276
C 18.37248 2.06678 0.03005
C 18.44243 0.6395 -0.04078
C 17.19563 34.02815 0.02117
C 19.68672 32.61977 0.02737
C 20.97008 31.88496 -0.00498
C 20.87896 30.46735 0.00135
C 19.6437 29.8693 0.03102
C 19.67478 28.42612 0.02555
C 20.82323 27.59231 0.01423
C 20.74327 9.3046 -0.00285
C 19.5365 8.58185 -0.009
C 19.59541 7.20529 -0.01199
C 20.87796 6.45666 -0.00229
C 20.86141 4.98979 -0.00938
C 19.61879 4.31646 -0.0264
C 18.41485 4.97791 -0.00178
C 18.42361 6.45343 0.00733
C 17.23643 7.20122 -0.02118
C 17.11389 8.51507 -0.01971
C 14.67076 8.49912 -0.01185
C 14.71484 7.05844 0.01126
C 15.97144 6.3524 0.01852
C 15.90425 4.88024 -0.00381
C 14.68423 4.16438 0.03046
C 14.73104 2.8406 0.0296
C 16.05715 2.21512 0.03374
C 16.04579 0.73601 -0.02845
C 19.55702 2.87467 -0.01154
C 14.7683 0.00473 -0.03213
C 18.45777 31.91993 0.01153
C 18.41496 30.57614 0.02734
C 17.13481 29.77726 -0.0055
C 17.16956 28.34917 0.01515
C 18.47063 27.66455 -0.00225
C 18.5784 26.36462 0.00071
C 17.38243 25.59485 -0.01107
C 17.10253 24.22715 -0.01586
C 17.19756 32.59065 0.02239
C 26.9835 8.4312 -0.01415
C 20.80679 2.13714 0.00684
C 19.70751 34.00306 -0.01679
C 25.93264 9.2143 0.02198
C 24.49319 8.70503 0.01094
C 24.46672 7.16494 0.00235
C 25.6181 6.41078 0.01495
C 25.68046 4.99386 0.01259
C 24.50789 4.27874 0.01799
C 24.49809 2.88439 0.01699
C 25.72707 2.11877 -0.00416
C 25.72251 0.69726 0.01177
C 24.49563 34.03743 0.04266
C 26.92738 32.7444 0.01324
C 28.19461 32.05779 0.0014
C 28.30345 30.56411 0.00924
C 27.10855 29.75108 0.02326
C 27.22353 28.21484 0.00261
C 28.47029 27.73764 0.03265
C 28.29014 10.61684 -0.02049
C 25.87072 27.60725 0.02611
C 24.68578 28.1855 -0.00621
C 24.60992 29.76931 0.00194
C 25.85803 30.40217 0.04185
C 22.16299 32.64668 0.00367
C 23.32479 31.86852 0.04306
C 23.35541 30.46835 0.00996
C 22.09008 29.76426 0.00195
C 22.05259 28.15912 -0.00802
C 23.31485 27.70593 -0.00218
C 23.27214 9.35963 -0.01654
C 22.04164 8.69905 -0.00037
C 20.80502 0.76428 -0.01052
C 22.04704 7.18093 -0.0032
C 23.18384 5.07106 -0.02815
C 22.04585 4.30202 -0.00942
C 22.09624 2.90975 0.00487
C 23.26503 2.08077 0.00826
C 23.35289 0.64306 -0.00294
C 22.13533 0.01355 0.00152
C 24.48257 32.58359 0.01257
C 25.80907 31.85927 0.02316
C 23.20774 6.5114 0.00622
C 2.4138 32.67563 0.00873
