430
Graphene
C 0.01582 0.02154 0.01295
C 13.56345 23.4173 -0.00033
C 13.48103 22.05353 0.03589
C 12.28914 21.31613 -0.02759
C 12.31869 19.87234 0.0402
C 13.54857 19.19756 0.00572
C 13.52154 17.78764 0.03592
C 12.25123 17.02598 0.00406
C 12.25946 15.59938 0.00943
C 13.49623 14.84762 0.02841
C 13.51611 13.46754 -0.01111
C 12.35569 24.20326 -0.01062
C 12.32105 12.78826 -0.01275
C 13.54655 10.64791 -0.02245
C 13.54484 9.22815 -0.00428
C 12.26955 8.58154 0.03101
C 12.29424 7.06445 -0.01536
C 13.5213 6.3411 -0.02689
C 13.50876 4.96647 -0.01046
C 12.37499 4.20327 -0.00891
C 12.27576 2.81836 0.02819
C 13.51602 2.16952 0.00165
C 13.53405 0.69529 -0.02971
C 12.27925 11.40115 0.00985
C 12.24082 25.62032 0.01364
C 13.5699 26.3114 -0.00719
C 13.5582 27.72059 0.01641
C 11.08645 17.77555 0.00895
C 9.85013 17.06219 0.00685
C 9.83075 15.61534 0.02888
C 11.07155 14.90082 -0.00482
C 11.07273 13.48562 -0.01384
C 9.85216 12.8336 0.03693
C 9.81238 11.35265 0.01745
C 11.03859 10.70908 0.00488
C 11.04905 9.19897 -0.01004
C 9.83463 8.53998 -0.02896
C 9.86663 7.14415 -0.00131
C 11.1396 6.35804 -0.01118
C 11.03944 4.92386 -0.014
C 9.82087 4.28853 0.02147
C 9.85547 2.82272 0.00373
C 11.02796 2.14045 -0.00191
C 11.11264 0.69914 0.00438
C 9.88083 0.02062 0.01291
C 12.31908 32.67687 0.00093
C 13.55318 31.96265 0.00057
C 13.50353 30.61315 -0.01634
C 12.30426 29.85132 -0.00334
C 12.29277 28.37151 0.02339
C 12.30318 34.04999 0.02894
C 14.75728 32.71646 -0.01789
C 15.97931 31.92903 0.00444
C 15.95152 30.53933 -0.00925
C 15.98214 0.71796 -0.00114
C 14.76721 0.00384 0.00228
C 17.25012 32.69886 0.00798
C 18.41955 31.94521 0.00422
C 18.46345 30.5115 0.0351
C 17.21262 29.7919 -0.03113
C 17.2386 28.35348 0.02098
C 18.41656 27.67719 0.01848
C 18.44037 26.26083 -0.00619
C 17.22288 25.54785 -0.02162
C 17.22386 24.12433 0.00889
C 18.42746 23.48398 -0.00481
C 17.16294 21.27248 0.00979
C 17.20108 19.92183 0.01443
C 18.40057 17.75186 0.03505
C 17.19928 17.06835 -0.02815
C 17.22034 15.6511 -0.04147
C 18.46306 14.9092 -0.05302
C 18.4491 13.4799 0.00213
C 17.21764 12.78506 -0.00066
C 17.22218 11.38441 -0.00289
C 18.51694 10.66498 0.00028
C 18.46124 9.23651 -0.02213
C 15.99397 2.07137 -0.02696
C 11.05969 19.17318 0.00393
C 14.76232 2.83977 -0.00368
C 16.00571 4.98834 -0.01957
C 14.73393 29.8235 0.01877
C 14.75154 28.40995 0.01363
C 15.95856 27.68415 -0.02162
C 15.9594 26.26592 0.00415
C 14.7275 25.56782 -0.0014
C 14.76977 24.16033 0.02162
C 16.01543 23.39979 0.0076
C 15.96514 21.99479 0.01241
C 14.75606 21.23602 -0.01454
C 14.72081 19.87414 0.01945
C 15.98909 19.183 0.01416
C 15.94458 17.739 0.03542
C 14.81003 17.02546 0.02299
C 14.8046 15.62068 0.00244
C 15.97515 14.95007 -0.01717
C 16.01492 13.44512 0.05265
C 14.72404 12.76355 -0.01952
C 14.73485 11.3562 -0.02813
C 16.00016 10.67252 0.00374
C 15.98269 9.17927 0.00052
C 14.76054 8.5455 -0.03682
C 14.73902 7.12126 0.01965
C 15.96514 6.36389 0.02058
C 14.75726 4.27043 -0.0108
C 9.84487 19.92263 0.0288
C 9.84032 21.29067 -0.0008
C 11.05481 22.03837 -0.01362
C 3.70445 2.13522 0.00245
C 3.70054 0.71826 0.02728
C 2.39781 0.04987 -0.00039
C 4.91455 32.66607 0.0064
C 6.1468 31.91398 0.00211
C 6.14503 30.50543 -0.00449
C 4.90239 29.81997 -0.01979
C 4.92559 28.35865 0.02784
C 6.16383 27.70508 -0.01977
C 6.13433 26.25242 -0.00561
C 4.98532 25.54805 0.00208
C 4.93572 24.14447 0.01707
C 6.12372 23.44976 0.02769
C 6.16578 22.05876 -0.03291
C 4.94125 21.29832 -0.04999
C 4.95935 19.85083 0.04505
C 6.1262 19.16211 0.03284
C 6.16782 17.72386 -0.04307
C 4.87612 16.991 0.03189
C 4.95091 15.60367 0.00031
C 6.08044 14.89696 -0.003
C 6.11668 13.55772 0.01402
C 4.89111 12.82573 0.02379
C 2.4563 2.84599 0.00081
C 4.9495 11.41673 0.00907
C 2.45048 4.19235 -0.02805
C 3.7132 6.41156 -0.0059
C 3.70913 30.56749 0.01913
C 2.46213 29.84513 0.00267
C 2.44826 28.42872 0.00787
C 3.64022 27.64926 0.02426
C 3.69711 26.26768 0.01218
C 2.48907 25.54978 -0.01471
C 2.45215 24.11665 -0.02827
C 3.69851 23.4512 0.01078
C 3.70466 22.04272 -0.00112
C 2.44777 21.28288 0.03345
C 2.51595 19.84036 0.00748
C 3.73966 19.14053 0.00662
C 3.68486 17.77517 -0.0154
C 2.4196 16.94732 -0.01299
C 2.47413 15.59331 -0.00407
C 3.68677 14.90762 0.01138
C 3.68138 13.43683 0.03278
C 2.45547 12.75894 -0.00177
C 2.44344 11.38985 0.04421
C 3.67539 10.67131 0.00088
C 3.71671 9.1993 0.00828
C 2.43787 8.57296 -0.02375
C 2.46425 7.1098 0.00558
C 3.73245 4.96867 -0.01386
C 17.2028 8.51532 0.03698
C 6.15425 10.65944 0.00643
C 4.95345 8.53179 0.03267
C 7.3742 12.7984 0.03368
C 7.37624 11.37557 -0.02929
C 8.64235 10.64754 -0.00966
C 8.59847 9.2649 -0.03337
C 7.37347 8.54927 0.01227
C 7.43809 7.15993 0.00873
C 8.59218 6.44407 -0.00049
C 8.58723 4.99667 0.00848
C 7.413 4.27646 -0.01303
C 7.3378 2.86753 -0.01378
C 8.62964 2.15397 0.02635
C 8.62344 0.71485 0.0127
C 7.38827 34.06089 0.01396
C 9.82914 32.7123 0.01849
C 11.0734 31.99501 -0.01142
C 11.07062 30.52293 -0.00562
C 9.79799 29.78564 -0.00494
C 9.82 28.41796 0.00054
C 11.06724 27.65154 0.03007
C 11.08076 26.24323 -0.00095
C 9.77451 25.60807 0.01572
C 9.78641 24.14972 -0.04848
C 11.11678 23.47072 -0.00892
C 8.6135 13.47444 -0.00077
C 6.12667 9.25088 -0.01509
C 8.56354 14.92125 0.01305
C 7.37535 17.04618 0.00988
C 4.92243 7.14201 0.02374
C 6.1282 6.39246 0.00402
C 6.1247 4.97751 0.0073
C 4.89973 4.22021 0.0174
C 4.91108 2.86505 0.03828
C 6.12276 2.12356 0.01226
C 6.11555 0.76801 -0.00279
C 4.92745 34.06201 0.01996
C 7.37227 32.65786 -0.03996
C 8.61628 31.97271 0.01465
C 8.63611 30.52996 -0.00074
C 7.41264 29.85927 -0.00518
C 7.39522 28.39711 0.0086
C 8.5961 27.69385 -0.00643
C 8.58516 26.29438 0.017
C 7.35139 25.59544 -0.03113
C 7.41851 24.14507 -0.02566
C 8.60593 23.39826 -0.00094
C 8.63131 21.9689 0.02322
C 7.38867 21.29205 -0.00725
C 7.36683 19.9045 -0.05697
C 8.61918 19.19303 0.01087
C 8.60003 17.74075 -0.01343
C 7.34576 15.63276 0.0276
C 17.1969 7.08004 -0.00109
C 18.47218 6.39412 -0.00491
C 18.43344 4.90704 0.03338
C 30.76968 13.46977 -0.01303
C 29.51832 12.80131 -0.01461
C 29.52497 11.38853 -0.02155
C 30.75847 10.59852 -0.00944
C 30.706 9.26523 -0.03735
C 29.53706 8.48542 -0.00971
C 29.49565 7.06479 0.01518
C 30.72793 6.42385 0.01908
C 30.72834 4.96103 0.07705
C 29.46662 4.27274 0.0103
C 29.51383 2.85795 0.02108
C 30.75462 2.07503 0.00716
C 30.77253 0.68599 0.00307
C 29.51294 0.00506 0.00346
C 31.99867 32.64101 0.01713
C 33.20594 31.89702 -0.01694
C 33.21705 30.53074 0.01428
C 32.01217 29.78872 -0.02142
C 31.97195 28.38651 0.0544
C 33.21813 27.68855 0.00026
C 33.18736 26.28133 0.00682
C 31.95565 25.55846 -0.01779
C 31.99984 24.20036 0.03794
C 30.76333 14.91847 -0.0405
C 33.24897 23.45834 0.01927
C 29.48842 15.6268 0.01705
C 30.75682 17.73558 -0.00669
C 27.06088 8.52464 0.02611
C 27.0869 7.12988 0.02198
C 28.32724 6.37523 0.01094
C 28.26801 4.93852 0.00235
C 27.04125 4.27327 0.01495
C 27.06241 2.86194 0.01259
C 28.31188 2.16444 0.01799
C 28.24721 0.64272 0.01699
C 27.03062 34.04738 -0.00416
C 29.48346 32.65471 0.01177
C 30.80997 31.92977 0.04266
C 30.69607 30.50087 0.01324
C 29.4752 29.81842 0.0014
C 29.5085 28.35566 0.00924
C 30.74287 27.6646 0.02326
C 30.71433 26.21874 0.00261
C 29.50502 25.58031 0.03265
C 29.51828 24.12338 -0.02049
C 30.75466 23.44225 -0.01854
C 30.74625 22.02138 -0.01415
C 29.51466 21.29533 -0.03039
C 29.4815 19.87403 0.01836
C 30.74005 19.17491 0.03531
C 29.52806 17.00258 0.0101
C 28.29139 9.23199 -0.00621
C 33.18882 22.02805 0.01574
C 31.98203 19.90298 -0.01429
C 34.41643 24.19512 0.03076
C 1.20564 23.45881 0.00723
C 1.19077 22.01996 0.02712
C 34.4259 21.32625 -0.02213
C 0.01048 19.88862 0.01951
C 1.25769 19.18419 -0.01678
C 1.20546 17.71446 0.01223
C 34.4196 17.00751 0.00648
C 34.40944 15.61955 0.02114
C 1.21624 14.9593 -0.02957
C 1.23623 13.46073 0.00343
C 0.00446 12.73153 -0.02656
C 34.37437 11.35962 -0.02442
C 1.21529 10.69751 -0.00027
C 1.25673 9.23174 -0.00583
C 34.3718 8.48169 -0.02302
C 34.40391 7.09794 -0.02849
C 1.22975 6.37034 0.02931
C 1.21086 4.91414 0.00628
C 34.41256 4.24333 -0.0345
C 0.0303 2.79953 -0.00931
C 1.26638 2.13653 -0.00939
C 1.27218 0.72662 -0.00468
C 34.41197 25.57687 -0.05239
C 32.01423 21.26968 -0.02383
C 1.23216 26.25324 -0.00598
C 34.41361 28.40902 -0.01037
C 33.21318 19.17691 -0.0136
C 33.21818 17.73878 0.00594
C 31.97128 17.07654 -0.02474
C 31.94285 15.5967 0.00369
C 33.16895 14.87143 0.00455
C 33.22642 13.42757 -0.00644
C 31.93195 12.79122 -0.01839
C 31.99376 11.32594 0.00137
C 33.20362 10.63777 0.00199
C 33.11185 9.24491 0.04381
C 31.93287 8.47223 0.02806
C 31.96733 7.10909 0.01504
C 33.19801 6.38147 -0.00069
C 33.23055 4.93954 0.04926
C 32.00575 4.23334 -0.03838
C 32.00518 2.85447 0.00349
C 33.18881 2.12124 -0.00323
C 33.2154 0.64096 -0.00841
C 31.95045 34.05714 0.0001
C 34.41449 32.67761 -0.02927
C 1.26333 31.92294 -0.01404
C 1.28851 30.49697 0.01027
C 34.40554 29.78733 0.01831
C 1.2269 27.65865 -0.00439
C 3.68637 31.93921 -0.03672
C 28.29453 10.63507 0.00194
C 27.07512 12.77199 0.02316
C 19.6467 2.82837 -0.00865
C 20.92427 2.14658 0.00675
C 20.93485 0.70401 -0.00311
C 19.72351 0.01217 0.00742
C 22.18058 32.65138 -0.01594
C 23.37627 31.95239 0.0106
C 23.37988 30.48855 -0.01154
C 22.11201 29.82815 -0.01721
C 22.12649 28.40913 -0.02422
C 23.34387 27.72378 0.01277
C 23.31347 26.24186 0.00096
C 22.12748 25.59026 -0.01527
C 22.12479 15.60691 0.01087
C 23.36098 14.88376 0.00199
C 23.37924 13.49414 0.01511
C 22.12759 12.8248 -0.00478
C 22.12054 11.3311 -0.01662
C 23.37493 10.68422 -0.01185
C 23.41734 9.21159 0.01126
C 22.1602 8.47933 0.01852
C 22.09376 7.05647 -0.00381
C 23.38768 6.39399 0.03046
C 23.35549 4.94971 0.0296
C 19.78339 4.28352 0.0058
C 22.10839 4.26457 0.03374
C 20.94238 4.97353 -0.00652
C 19.67255 7.05927 -0.00703
C 17.16176 4.26544 -0.0258
C 17.15376 2.83723 -0.0331
C 18.38664 2.14917 -0.00316
C 18.42437 0.71286 0.02188
C 17.2637 34.04882 -0.01979
C 19.61811 32.65917 0.02691
C 20.90991 31.95787 -0.01581
C 20.87775 30.54688 0.01452
C 19.65675 29.78422 0.04892
C 19.66885 28.42315 -0.00111
C 20.89039 27.67808 -0.03557
C 20.92418 26.25773 0.03754
C 19.68091 25.5494 0.01739
C 19.64584 24.06029 0.00755
C 19.6903 17.04164 -0.0054
C 19.66577 15.61362 0.00667
C 20.92129 14.90009 0.00143
C 20.97275 13.5411 -0.017
C 19.69037 12.82349 0.00364
C 19.66818 11.33162 -0.00831
C 20.90191 10.64362 -0.02957
C 20.90034 9.26867 -0.04422
C 19.64597 8.55814 0.00654
C 20.9229 6.36736 -0.04076
C 27.09899 11.36976 0.04185
C 22.16244 2.83864 -0.02845
C 23.36016 0.76212 0.02239
C 24.60045 2.82137 -0.00938
C 25.81318 2.16915 -0.0264
C 25.85463 0.72797 -0.01154
C 24.55982 34.0719 0.00684
C 27.02358 32.60863 -0.01052
C 28.31165 31.91963 -0.01679
C 28.2582 30.53368 0.00367
C 27.07783 29.83359 0.04306
C 27.0582 28.3846 0.00996
C 28.27894 27.73054 0.00195
C 28.32426 26.30673 -0.00802
C 27.03358 25.58025 -0.00218
C 27.05988 24.12734 -0.01654
C 28.28609 23.42907 -0.00037
C 28.31355 22.06084 -0.0032
C 27.05285 21.27431 0.00622
C 27.04076 19.82362 -0.02815
C 28.3443 19.15961 -0.00942
C 28.24912 17.77116 0.00487
C 27.05343 17.04623 0.00826
C 27.04578 15.66016 -0.00294
C 28.28276 14.88594 0.00152
C 28.301 13.45123 0.01257
C 24.53676 4.25193 -0.00229
C 23.40682 2.12081 -0.03213
C 25.82636 4.93178 -0.01199
C 24.56566 7.1001 -0.00285
C 22.1585 34.06993 0.01153
C 24.5305 32.64912 0.02734
C 25.82634 31.93126 -0.0055
C 25.78041 30.48368 0.01515
C 24.56096 29.82314 -0.00225
C 24.57206 28.45109 0.00071
C 25.83191 27.71748 -0.01107
C 25.81682 26.19939 -0.01586
C 24.61174 25.56665 -0.01971
C 24.5761 24.18623 -0.02118
C 25.77873 23.43506 0.00733
C 25.828 22.01258 -0.00178
C 25.81288 19.15338 0.00768
C 25.8212 17.75947 -0.0276
C 24.59952 17.03429 0.03005
C 24.56487 15.60866 -0.04078
C 25.81327 14.90412 0.02117
C 25.86842 13.52014 0.02737
C 24.62432 12.80371 -0.00498
C 24.60753 11.40757 0.00135
C 25.80876 10.62695 0.03102
C 25.78048 9.2405 0.02555
C 24.58325 8.49743 0.01423
C 25.78174 6.37855 -0.009
C 2.42385 32.64958 -0.04306
