416
Graphene
C 0.01407 0.01753 0.01295
C 13.5525 2.11065 -0.01111
C 13.50149 0.78799 -0.01275
C 12.30437 0.02688 0.00985
C 14.76652 32.66134 -0.02245
C 15.99757 31.99342 -0.00428
C 15.99973 30.54756 0.03101
C 14.71097 29.78288 -0.01536
C 14.7263 28.38341 -0.02689
C 15.99155 27.64473 -0.01046
C 16.02761 26.256 -0.00891
C 12.31866 2.87688 0.02841
C 16.0174 17.70966 0.02819
C 14.78374 15.632 -0.02971
C 16.01164 14.89153 0.02894
C 15.95505 13.55848 -0.01789
C 14.75339 12.75758 0.00444
C 14.74662 11.31906 -0.00925
C 15.95059 10.62622 0.01877
C 16.04028 9.18388 0.01363
C 14.72939 8.48638 -0.02162
C 14.71412 7.12952 0.00415
C 16.00065 6.3719 -0.0014
C 14.75288 17.09168 0.00165
C 15.94681 5.01411 0.02162
C 12.30281 4.27396 0.00943
C 13.51451 6.42575 0.03592
C 11.08608 5.00771 -0.00131
C 9.87052 4.24373 -0.01118
C 9.81278 2.8495 -0.014
C 11.06752 2.12975 0.02147
C 11.09043 0.73556 0.00373
C 9.85024 0.07629 -0.00191
C 12.31218 32.66344 0.00438
C 13.49899 32.00162 0.01291
C 13.55767 30.49583 0.00093
C 12.31566 29.80982 0.00057
C 13.53411 4.99878 0.00406
C 12.34955 28.40455 -0.01634
C 12.29137 17.02074 0.02339
C 12.30411 15.66688 0.01641
C 13.57192 14.89628 -0.00719
C 13.48339 13.50161 0.01364
C 12.32589 12.81279 -0.01062
C 12.33805 11.37084 -0.00033
C 13.51407 10.66134 0.03589
C 13.53881 9.22648 -0.02759
C 12.27753 8.58485 0.0402
C 12.27393 7.11559 0.00572
C 13.54194 27.66568 -0.00334
C 11.05533 6.40285 -0.02896
C 14.76309 4.27166 0.0076
C 15.99677 2.08748 -0.01454
C 17.20387 7.11616 -0.00619
C 18.43016 6.42561 -0.02162
C 18.4502 4.96828 0.00889
C 17.22834 4.31343 -0.00481
C 17.20108 2.80971 0.00979
C 18.47015 2.15123 0.01443
C 18.43781 0.69001 0.03505
C 17.2308 34.04482 -0.02815
C 19.66261 32.68654 -0.04147
C 20.88833 31.96293 -0.05302
C 17.23452 8.4728 0.01848
C 20.90882 30.49943 0.00213
C 19.66671 28.42363 -0.00289
C 20.92393 27.68872 0.00028
C 20.90172 26.27305 -0.02213
C 19.63381 25.59691 0.03698
C 19.66521 24.12011 -0.00109
C 20.88949 23.41287 -0.00491
C 20.90839 21.98112 0.03338
C 19.69537 21.29576 -0.0258
C 19.67323 19.88067 -0.0331
C 20.87893 19.21572 -0.00316
C 19.69325 29.82109 -0.00066
C 14.75421 2.8426 0.01241
C 18.44897 9.19013 0.02098
C 17.2064 11.32153 0.0351
C 15.97258 0.71495 0.01945
C 14.77199 0.04904 0.01416
C 17.18992 32.6588 0.03542
C 18.46823 31.955 0.02299
C 18.43292 30.5335 0.00244
C 17.22158 29.81524 -0.01717
C 17.20025 28.38466 0.05265
C 18.43134 27.67949 -0.01952
C 18.46099 26.24853 -0.02813
C 17.20318 25.53236 0.00374
C 18.43202 10.58917 -0.03113
C 17.17265 24.11389 0.00052
C 18.45965 22.00099 0.01965
C 17.19986 21.24092 0.02058
C 17.21989 19.88176 -0.01957
C 18.47408 19.18368 -0.0108
C 18.44169 17.78438 -0.00368
C 17.23821 16.98855 -0.02696
C 17.20141 15.61552 -0.00114
C 18.4378 14.93491 0.00228
C 18.44737 13.51085 0.00798
C 17.18979 12.76961 0.00422
C 18.45457 23.45633 -0.03682
C 20.88482 17.76875 0.02188
C 9.78053 7.11114 -0.01004
C 11.0547 9.21517 0.01745
C 2.49757 2.85425 -0.03291
C 3.71887 2.0894 -0.04999
C 3.71113 0.7153 0.04505
C 2.46081 34.0685 0.03284
C 4.9056 32.64876 -0.04307
C 6.09024 31.96627 0.03189
C 6.16033 30.54333 0.00031
C 4.91054 29.82591 -0.003
C 4.88196 28.40667 0.01402
C 6.11528 27.73256 0.02379
C 2.50082 4.26561 0.02769
C 6.19708 26.30993 0.00907
C 4.88968 24.14005 -0.01509
C 6.20306 23.37944 0.03267
C 6.17373 22.04274 0.02374
C 4.92672 21.28655 0.00402
C 4.91456 19.93661 0.0073
C 6.14209 19.17425 0.0174
C 6.15301 17.72909 0.03828
C 4.9201 17.03976 0.01226
C 4.90391 15.64505 -0.00279
C 6.13931 14.8933 0.01996
C 4.94784 25.55733 0.00643
C 6.09244 13.46193 -0.03996
C 3.68933 5.02848 0.01707
C 2.43079 7.10996 -0.00561
C 3.70433 30.53268 -0.00407
C 2.50943 29.83351 0.01138
C 2.49974 28.33518 0.03278
C 3.7067 27.67518 -0.00177
C 3.70438 26.30806 0.04421
C 2.45561 25.58095 0.00088
C 2.45324 24.15265 0.00828
C 3.65057 23.4296 -0.02375
C 3.70108 21.9895 0.00558
C 2.47234 21.31791 -0.0059
C 3.70552 6.37771 0.00208
C 2.48695 19.87915 -0.01386
C 3.70363 17.78731 0.00081
C 2.43855 17.0357 0.00245
C 2.49877 15.61727 0.02728
C 3.69691 14.91377 -0.00039
C 3.68226 13.50674 0.0064
C 2.44352 12.69882 0.00211
C 2.4656 11.32885 -0.00449
C 3.67719 10.63156 -0.01979
C 3.63598 9.19369 0.02784
C 2.43153 8.51113 -0.01977
C 3.67248 19.17317 -0.02805
C 9.80793 8.54732 0.00488
C 4.94588 12.74279 0.01465
C 6.15728 10.67415 -0.00518
C 7.38141 8.54933 0.0127
C 7.39702 7.10554 0.01396
C 8.60708 6.40395 0.01849
C 8.64464 4.98003 -0.01142
C 7.39129 4.26307 -0.00562
C 7.37798 2.80573 -0.00494
C 8.5982 2.14921 0.00054
C 8.63459 0.68421 0.03007
C 7.39055 0.01157 -0.00095
C 9.80659 32.69447 0.01572
C 8.64474 9.25394 0.02635
C 11.00915 31.99182 -0.04848
C 9.79667 29.85268 -0.01362
C 9.8374 28.43422 -0.0008
C 11.03847 27.69341 0.0288
C 9.84201 17.09533 0.00393
C 9.86015 15.62931 0.00895
C 11.0776 14.91495 0.00685
C 11.05659 13.49745 0.02888
C 9.81703 12.81068 -0.00482
C 9.83332 11.34416 -0.01384
C 11.03994 10.64328 0.03693
C 11.05154 30.5451 -0.00892
C 4.91558 11.33882 -0.00074
C 8.62607 10.67141 -0.01378
C 7.34041 12.80825 0.00848
C 6.16417 9.2509 0.0086
C 4.94334 8.55383 -0.00643
C 4.92495 7.09535 0.017
C 6.16119 6.39489 -0.03113
C 6.12459 4.96548 -0.02566
C 4.91702 4.26436 -0.00094
C 4.88897 2.84266 0.02322
C 6.11325 2.10085 -0.00725
C 6.11383 0.7226 -0.05697
C 4.90121 34.06186 0.01087
C 7.41282 11.39833 -0.01303
C 7.34599 32.64924 -0.01343
C 8.58717 30.58193 0.0276
C 7.37429 29.81833 0.01305
C 7.36911 28.41805 -0.00077
C 8.60035 27.72981 0.03368
C 7.42943 25.54069 -0.02929
C 8.64154 17.78303 -0.00966
C 7.35111 17.03029 -0.03337
C 7.37443 15.62607 0.01227
C 8.63334 14.93977 0.00873
C 8.58002 13.51982 -0.00049
C 8.62153 31.9602 0.00988
C 19.70825 17.0099 -0.01979
C 19.71779 15.6317 0.02691
C 20.90437 14.92729 -0.01581
C 30.75143 10.64225 -0.00944
C 30.75421 9.26528 -0.03735
C 29.49238 8.51335 -0.00971
C 29.52019 7.08637 0.01518
C 30.73929 6.42695 0.01908
C 30.77946 5.00855 0.07705
C 29.49614 4.20132 0.0103
C 29.54386 2.83093 0.02108
C 30.75513 2.12271 0.00716
C 30.74376 0.71766 0.00307
C 29.53591 11.33199 -0.02155
C 29.48472 34.07111 0.00346
C 33.24008 31.91902 -0.01694
C 33.18398 30.49809 0.01428
C 31.96212 29.82138 -0.02142
C 31.97823 28.37917 0.0544
C 33.18567 27.72472 0.00026
C 33.1797 26.27706 0.00682
C 31.97413 25.51471 -0.01779
C 32.00365 24.14516 0.03794
C 33.22218 23.43829 0.01927
C 33.2524 21.9872 0.01574
C 31.94791 32.60731 0.01713
C 32.00989 21.31524 -0.02383
C 29.52959 12.77617 -0.01461
C 30.75837 14.91321 -0.0405
C 27.05069 4.239 0.01495
C 27.05762 2.85854 0.01259
C 28.28041 2.12654 0.01799
C 28.28975 0.74072 0.01699
C 27.04908 34.06899 -0.00416
C 29.51076 32.68873 0.01177
C 30.74082 31.94524 0.04266
C 30.74026 30.53203 0.01324
C 29.51297 29.80289 0.0014
C 29.54503 28.40994 0.00924
C 30.76812 13.48976 -0.01303
C 30.74973 27.63842 0.02326
C 29.50361 25.55404 0.03265
C 29.5146 24.09513 -0.02049
C 30.77182 23.48017 -0.01854
C 30.71534 21.98612 -0.01415
C 29.52685 21.30169 -0.03039
C 29.51443 19.85753 0.01836
C 30.7774 19.15808 0.03531
C 30.71846 17.70733 -0.00669
C 29.46733 17.04289 0.0101
C 29.50925 15.58357 0.01705
C 30.70063 26.25813 0.00261
C 28.28722 4.93201 0.00235
C 31.97748 19.92455 -0.01429
C 33.18751 17.78612 0.00594
C 1.22795 23.44807 0.00723
C 1.2105 22.01741 0.02712
C 34.39836 21.2781 -0.02213
C 34.39423 19.89597 0.01951
C 1.24897 19.19832 -0.01678
C 1.24658 17.71055 0.01223
C 0.00683 17.00596 0.00648
C 34.39827 15.63586 0.02114
C 1.23155 14.9232 -0.02957
C 1.22666 13.53593 0.00343
C 34.40669 24.15902 0.03076
C 34.41954 12.74766 -0.02656
C 1.21972 10.70487 -0.00027
C 1.24107 9.2256 -0.00583
C 0.00057 8.52545 -0.02302
C 34.41378 7.08277 -0.02849
C 1.20121 6.36027 0.02931
C 1.21064 4.96012 0.00628
C 34.42558 4.27243 -0.0345
C 0.0122 2.79609 -0.00931
C 1.26039 2.12509 -0.00939
C 1.22125 0.70081 -0.00468
C 34.412 11.38505 -0.02442
C 33.23134 19.18 -0.0136
C 34.38857 25.55139 -0.05239
C 1.214 27.65822 -0.00439
C 31.98924 17.05346 -0.02474
C 31.99123 15.56396 0.00369
C 33.19913 14.89926 0.00455
C 33.24608 13.45084 -0.00644
C 31.96654 12.78157 -0.01839
C 31.98526 11.3466 0.00137
C 33.1702 10.63199 0.00199
C 33.1921 9.20386 0.04381
C 31.97371 8.49608 0.02806
C 31.93454 7.11213 0.01504
C 1.24571 26.27023 -0.00598
C 33.2252 6.37842 -0.00069
C 31.97024 4.28747 -0.03838
C 31.9328 2.8688 0.00349
C 33.15626 2.10445 -0.00323
C 33.20034 0.64683 -0.00841
C 31.95203 0.00853 0.0001
C 0.02026 32.64617 -0.02927
C 1.24644 31.95967 -0.01404
C 1.17875 30.52916 0.01027
C 34.38214 29.77875 0.01831
C 0.01507 28.4155 -0.01037
C 33.20504 4.9609 0.04926
C 28.32915 6.3515 0.01094
C 27.07946 7.07036 0.02198
C 27.08882 8.52471 0.02611
C 22.11852 19.90184 -0.01154
C 23.36475 19.12979 -0.01721
C 23.31308 17.72999 -0.02422
C 22.12192 17.04186 0.01277
C 22.13599 15.56119 0.00096
C 23.39644 14.89113 -0.01527
C 23.36203 13.43923 0.01087
C 22.13809 12.75624 0.00199
C 22.12896 11.35299 0.01511
C 23.36808 10.63719 -0.00478
C 22.17539 21.29069 0.0106
C 23.33023 9.22451 -0.01662
C 22.16834 7.088 0.01126
C 23.38081 6.35803 0.01852
C 23.40403 4.96159 -0.00381
C 22.15819 4.27039 0.03046
C 22.15386 2.86385 0.0296
C 23.37871 2.06572 0.03374
C 23.35774 0.70088 -0.02845
C 22.14759 34.07667 -0.03213
C 24.58544 32.74956 0.02239
C 25.82973 31.94352 0.01153
C 22.13014 8.52418 -0.01185
C 25.76735 30.52459 0.02734
C 23.3815 21.96207 -0.01594
C 22.14836 24.15249 -0.00311
C 20.89691 13.53151 0.01452
C 19.67918 12.73827 0.04892
C 19.71521 11.39993 -0.00111
C 20.91814 10.63176 -0.03557
C 20.95675 9.21784 0.03754
C 19.64647 8.48254 0.01739
C 19.67941 7.10845 0.00755
C 20.91103 6.36503 -0.0054
C 20.9851 5.00225 0.00667
C 19.67079 4.26756 0.00143
C 23.37678 23.41732 0.00742
C 19.6895 2.82473 -0.017
C 20.87184 0.72638 -0.00831
C 19.63701 0.02495 -0.02957
C 22.10511 32.67082 -0.04422
C 23.34666 31.97808 0.00654
C 23.36735 30.48116 -0.00703
C 22.1 29.78766 -0.04076
C 22.16976 28.41541 -0.00652
C 23.35051 27.69476 0.0058
C 23.33904 26.24398 -0.00865
C 22.13083 25.57923 0.00675
C 20.91497 2.17119 0.00364
C 24.58014 29.79801 -0.0055
C 24.58144 28.41511 0.01515
C 25.81968 27.64824 -0.00225
C 28.33332 31.93538 -0.01679
C 28.26976 30.53 0.00367
C 27.07265 29.83432 0.04306
C 27.09406 28.44932 0.00996
C 28.29183 27.69795 0.00195
C 28.2654 26.24617 -0.00802
C 27.05379 25.57188 -0.00218
C 27.04551 24.17083 -0.01654
C 28.25519 23.42696 -0.00037
C 28.30914 22.00955 -0.0032
C 27.0801 32.6442 -0.01052
C 27.06321 21.3037 0.00622
C 28.27827 19.16744 -0.00942
C 28.25798 17.7026 0.00487
C 27.03489 17.06053 0.00826
C 27.04512 15.64012 -0.00294
C 28.26243 14.88568 0.00152
C 28.27495 13.48403 0.01257
C 27.04004 12.74445 0.02316
C 27.04677 11.33763 0.04185
C 28.29943 10.64814 0.00194
C 28.29854 9.22669 -0.00621
C 27.04977 19.89113 -0.02815
C 24.61411 0.03012 0.00684
C 25.82839 0.72522 -0.01154
C 25.8225 2.12266 -0.0264
C 25.80716 26.31283 0.00071
C 24.59673 25.57756 -0.01107
C 24.61225 24.11433 -0.01586
C 25.81518 23.41879 -0.01971
C 25.85734 22.00471 -0.02118
C 24.55546 21.33513 0.00733
C 24.59803 19.85484 -0.00178
C 25.80185 19.19182 0.00768
C 25.82222 17.76608 -0.0276
C 24.59439 17.01268 0.03005
C 24.53461 15.58075 -0.04078
C 25.84083 14.91792 0.02117
C 25.83515 13.48988 0.02737
C 24.59845 12.82422 -0.00498
C 24.5956 11.37627 0.00135
C 25.80106 10.64228 0.03102
C 25.82043 9.19862 0.02555
C 24.55822 8.47914 0.01423
C 24.58575 7.07769 -0.00285
C 25.82441 6.409 -0.009
C 25.85226 4.97943 -0.01199
C 24.55942 4.2255 -0.00229
C 24.64111 2.85746 -0.00938
C 3.67401 31.97033 -0.01299
C 2.43032 32.66049 -0.0154
