349
Graphene
C 34.37142 34.05905 0.01295
C 13.48027 27.64674 0.00422
C 13.4666 26.21836 0.0351
C 12.20215 25.51374 -0.03113
C 12.3103 24.10477 0.02098
C 13.53598 23.41939 0.01848
C 13.54354 22.00504 -0.00619
C 12.29465 21.29431 -0.02162
C 12.34005 19.87666 0.00889
C 13.49967 19.13072 -0.00481
C 13.52932 17.69698 0.00979
C 12.3268 17.07749 0.01443
C 12.29298 15.65888 0.03505
C 13.46891 14.78816 -0.02815
C 12.24458 3.04968 -0.04147
C 13.45338 2.25456 -0.05302
C 13.53358 0.81674 0.00213
C 12.33633 0.03974 -0.00066
C 12.23517 28.38974 0.00798
C 12.30356 29.781 0.00228
C 13.45574 30.46016 -0.00114
C 13.4759 31.86304 -0.02696
C 9.82935 21.34919 -0.01454
C 9.8222 19.94539 0.01945
C 11.07007 19.17466 0.01416
C 11.02761 17.71019 0.03542
C 9.81492 17.10938 0.02299
C 9.81251 15.74566 0.00244
C 11.02241 15.09678 -0.01717
C 11.12875 13.68339 0.05265
C 14.64074 32.64532 -0.00289
C 9.93365 12.81104 -0.01952
C 9.54264 7.68281 0.00374
C 11.0866 4.8755 0.00052
C 9.85158 4.26854 -0.03682
C 9.81551 2.86661 0.01965
C 11.0737 2.10218 0.02058
C 11.04154 0.71103 -0.01957
C 9.89207 34.00139 -0.0108
C 12.35828 32.65999 -0.00368
C 9.72967 11.42487 -0.02813
C 15.92414 31.93464 0.00028
C 15.96837 30.53306 -0.02213
C 14.78215 29.83088 0.03698
C 17.21082 28.41266 -0.00831
C 18.39196 27.72727 -0.02957
C 18.44568 26.27911 -0.04422
C 17.21604 25.63255 0.00654
C 17.20289 24.23529 -0.00703
C 18.27323 23.33981 -0.04076
C 18.40847 22.14773 -0.00652
C 17.22638 21.29235 0.0058
C 17.18986 29.85943 0.00364
C 17.11587 19.8383 -0.00865
C 18.34187 17.78186 -0.00311
C 17.2267 17.00617 0.00742
C 17.41681 15.42058 -0.01594
C 18.60809 14.76191 0.0106
C 17.28143 2.79312 -0.01154
C 18.41931 2.08989 -0.01721
C 18.3588 0.69642 -0.02422
C 17.12871 34.04978 0.01277
C 18.36064 19.15254 0.00675
C 11.11431 22.05811 0.01241
C 18.39052 30.53595 -0.017
C 17.1093 32.65051 0.00667
C 14.65395 28.4062 -0.00109
C 15.89737 27.69538 -0.00491
C 15.98195 26.31491 0.03338
C 14.8057 25.6017 -0.0258
C 14.76045 24.15405 -0.0331
C 16.00484 23.55781 -0.00316
C 15.99523 22.04012 0.02188
C 14.78504 21.26205 -0.01979
C 18.41221 31.90901 0.00143
C 14.74236 19.88591 0.02691
C 15.99624 17.70488 0.01452
C 14.78656 16.87627 0.04892
C 14.81876 15.37829 -0.00111
C 16.0988 15.0335 -0.03557
C 14.75707 2.91925 0.03754
C 15.99884 2.30774 0.01739
C 15.95035 0.78337 0.00755
C 14.71985 0.04458 -0.0054
C 15.92972 19.13066 -0.01581
C 11.09766 23.44822 0.0076
C 9.81173 24.12635 0.02162
C 9.71587 25.5304 -0.0014
C 2.44531 0.0184 -0.00892
C 4.89793 32.52907 -0.01362
C 6.12904 31.91837 -0.0008
C 6.32238 30.47257 0.0288
C 6.1432 22.10559 0.00393
C 4.86222 21.50196 0.00895
C 4.85175 19.98475 0.00685
C 6.05598 19.2634 0.02888
C 3.70451 0.64105 -0.04848
C 6.16329 17.83283 -0.00482
C 4.84812 15.60174 0.03693
C 6.13963 14.91268 0.01745
C 6.12659 13.46535 0.00488
C 4.86171 12.77629 -0.01004
C 4.87977 11.39189 -0.02896
C 6.15421 10.73003 -0.00131
C 6.14761 9.26838 -0.01118
C 4.85563 8.58052 -0.014
C 4.87771 17.05403 -0.01384
C 4.99182 7.14184 0.02147
C 3.68416 2.09138 0.01572
C 2.45421 4.20511 0.03007
C 3.17261 30.46116 0.03368
C 3.58749 22.01652 -0.02929
C 2.41491 21.25516 -0.00966
C 2.43559 19.83455 -0.03337
C 3.66065 19.16372 0.01227
C 3.67669 17.75857 0.00873
C 2.42149 16.98982 -0.00049
C 2.38281 15.58031 0.00848
C 2.49941 2.7452 -0.00095
C 3.63856 14.90799 -0.01303
C 2.40512 12.75707 0.02635
C 2.35312 11.38807 0.0127
C 3.6242 10.65246 0.01396
C 3.64086 9.27517 0.01849
C 2.45969 8.54673 -0.01142
C 2.50954 7.13202 -0.00562
C 3.70933 6.43992 -0.00494
C 3.71814 5.01257 0.00054
C 3.62228 13.48302 -0.01378
C 19.62472 32.6303 0.00096
C 6.15617 6.38716 0.00373
C 4.93058 4.25922 0.00438
C 8.79888 10.43452 -0.02245
C 8.80363 8.96726 -0.00428
C 7.36543 8.57557 0.03101
C 7.3129 7.13302 -0.01536
C 8.58678 6.5095 -0.02689
C 8.6378 5.06691 -0.01046
C 7.39393 4.31031 -0.00891
C 7.40744 2.85691 0.02819
C 7.45144 11.27273 0.00985
C 8.63619 2.1323 0.00165
C 7.38665 33.98732 0.02894
C 9.8497 32.61651 -0.01789
C 11.12449 31.90498 0.00444
C 11.06627 30.47182 -0.00925
C 9.85036 29.81237 0.01877
C 9.8344 28.46293 0.01363
C 11.02272 27.64388 -0.02162
C 10.91413 26.30588 0.00415
C 8.63619 0.69599 -0.02971
C 6.10514 4.99909 -0.00191
C 7.4318 12.78652 -0.01275
C 8.62946 15.00318 0.02841
C 4.91945 2.81733 0.01291
C 6.23812 2.0646 0.00093
C 6.17552 0.65554 0.00057
C 4.94709 33.99675 -0.01634
C 7.36875 32.60364 -0.00334
C 8.6014 31.95899 0.02339
C 8.71075 30.58052 0.01641
C 7.49189 29.9325 -0.00719
C 8.63857 13.49316 -0.01111
C 8.58285 27.7733 0.01364
C 8.53592 23.47495 -0.00033
C 8.58415 22.09499 0.03589
C 7.36337 21.36263 -0.02759
C 7.32517 19.97767 0.0402
C 8.51441 19.23297 0.00572
C 8.55482 17.83653 0.03592
C 7.40788 17.11328 0.00406
C 7.38382 15.65431 0.00943
C 8.72591 26.52377 -0.01062
C 3.60031 31.89861 -0.00077
C 20.88661 31.90084 -0.01527
C 19.61058 29.87176 0.00199
C 31.93651 32.70173 0.01428
C 33.1686 31.968 -0.02142
C 33.22882 30.54059 0.0544
C 31.95525 29.92555 0.00026
C 31.84444 28.43062 0.00682
C 33.12835 27.69971 -0.01779
C 33.08469 26.30922 0.03794
C 31.8115 25.50463 0.01927
C 31.99347 24.08469 0.01574
C 33.34432 23.48131 -0.02383
C 33.28769 22.05012 -0.01429
C 31.88903 21.60248 -0.0136
C 31.80426 20.09844 0.00594
C 33.12951 19.24713 -0.02474
C 33.07695 17.74425 0.00369
C 31.82083 17.07877 0.00455
C 31.87277 15.64869 -0.00644
C 29.50718 0.08599 -0.01694
C 30.70217 0.73078 0.01713
C 30.74793 2.14897 0.00346
C 29.53013 2.84272 0.00307
C 30.63781 27.75064 0.01836
C 30.69802 26.37417 0.03531
C 30.99063 23.00038 -0.00669
C 30.81257 19.18411 0.0101
C 30.44443 17.85358 0.01705
C 29.35162 16.98612 -0.0405
C 29.55345 15.53925 -0.01303
C 30.71124 14.87324 -0.01461
C 33.12058 15.01934 -0.01839
C 30.72116 13.4342 -0.02155
C 29.55685 11.33619 -0.03735
C 30.7567 10.59351 -0.00971
C 30.77714 9.15097 0.01518
C 29.53162 8.49194 0.01908
C 29.61321 7.09839 0.07705
C 30.85702 6.37764 0.0103
C 30.80841 5.00072 0.02108
C 29.51104 4.30911 0.00716
C 29.49442 12.69558 -0.00944
C 33.12799 13.46152 0.00137
C 31.9043 12.78001 0.00199
C 31.99395 11.35565 0.04381
C 1.24806 19.1545 -0.01678
C 1.14183 17.70899 0.01223
C 34.34083 17.04841 0.00648
C 34.32719 15.67183 0.02114
C 1.16184 14.98675 -0.02957
C 1.16092 13.50449 0.00343
C 34.33927 12.77599 -0.02656
C 34.40776 11.36277 -0.02442
C 34.3879 19.89599 0.01951
C 1.15039 10.63204 -0.00027
C 0.01802 8.5002 -0.02302
C 0.04044 7.0989 -0.02849
C 1.24542 6.35608 0.02931
C 1.24709 4.93623 0.00628
C 0.04953 4.22195 -0.0345
C 34.42843 2.8486 -0.00931
C 1.23449 2.12557 -0.00939
C 1.18832 0.72526 -0.00468
C 1.22774 9.19141 -0.00583
C 29.39977 28.32573 -0.03039
C 0.0227 21.28655 -0.02213
C 1.37715 23.43504 0.00723
C 33.24918 10.63837 0.02806
C 33.24329 9.26142 0.01504
C 32.03757 8.50442 -0.00069
C 32.08728 7.12265 0.04926
C 33.27071 6.38179 -0.03838
C 33.28182 5.00714 0.00349
C 32.0436 4.29989 -0.00323
C 31.96787 2.85203 -0.00841
C 1.2063 22.0113 0.02712
C 33.19398 2.1323 0.0001
C 31.94034 0.00401 -0.01404
C 34.32914 32.67084 0.01027
C 1.10904 31.98855 0.01831
C 1.31101 30.59829 -0.01037
C 0.06088 29.80012 -0.00439
C 34.39367 28.40963 -0.00598
C 34.16451 25.49003 -0.05239
C 0.18924 24.21942 0.03076
C 33.15885 0.75175 -0.02927
C 29.42346 29.79498 -0.01415
C 30.69431 30.57124 -0.01854
C 30.70078 31.9645 -0.02049
C 21.97926 28.34616 -0.02118
C 21.93577 17.06974 0.00733
C 22.1768 15.59647 -0.00178
C 23.4019 14.86976 0.00768
C 23.3759 13.48958 -0.0276
C 22.10428 12.81446 0.03005
C 22.11154 11.38073 -0.04078
C 23.31129 10.71107 0.02117
C 22.03393 29.76767 -0.01971
C 23.28271 9.31311 0.02737
C 22.1785 7.15324 0.00135
C 23.40219 6.43054 0.03102
C 23.39619 5.00418 0.02555
C 22.11316 4.39389 0.01423
C 22.13056 2.90909 -0.00285
C 23.30924 2.16972 -0.009
C 23.33383 0.69829 -0.01199
C 22.07059 0.00974 -0.00229
C 22.07351 8.56216 -0.00498
C 24.59648 32.63773 -0.00938
C 23.32588 30.45633 -0.01586
C 22.07668 32.72812 0.00071
C 19.61471 28.43031 0.01511
C 20.81471 27.57937 -0.00478
C 19.77736 25.72934 -0.01662
C 20.88655 17.5449 -0.01185
C 19.52329 17.02163 0.01126
C 19.68035 15.659 0.01852
C 20.92553 14.96508 -0.00381
C 20.88334 13.53041 0.03046
C 23.29749 31.88588 -0.01107
C 19.69975 12.72102 0.0296
C 20.91646 9.38733 -0.02845
C 20.97111 6.41331 -0.03213
C 20.80029 5.11513 0.02239
C 19.67757 4.16587 0.01153
C 19.68612 2.73363 0.02734
C 20.91875 2.09072 -0.0055
C 20.87109 0.71219 0.01515
C 19.62448 34.03693 -0.00225
C 20.9208 10.7043 0.03374
C 20.88058 30.47274 0.01087
C 25.79813 31.93856 -0.0264
C 24.5626 29.84056 0.00684
C 28.13732 27.77685 -0.00621
C 27.22794 15.54741 0.02611
C 28.35603 14.80093 0.02198
C 28.33102 13.4173 0.01094
C 27.07739 12.77121 0.00235
C 27.05485 11.34739 0.01495
C 28.2707 10.64499 0.01259
C 28.30175 9.15331 0.01799
C 27.00023 28.42886 0.00194
C 27.07606 8.51172 0.01699
C 28.3398 6.40308 0.01177
C 28.31336 4.98295 0.04266
C 27.10368 4.24072 0.01324
C 27.06077 2.82064 0.0014
C 28.3123 2.13986 0.00924
C 28.27829 0.70676 0.02326
C 27.04539 34.07876 0.00261
C 29.44656 32.69736 0.03265
C 27.15442 7.09752 -0.00416
C 25.78061 30.56513 -0.01154
C 26.96378 29.82377 0.04185
C 28.29531 31.99187 0.01257
C 24.58003 28.4069 -0.01052
C 24.66864 15.43399 -0.01679
C 25.92151 14.99149 0.00367
C 25.90954 13.53124 0.04306
C 24.6318 12.82283 0.00996
C 24.58288 11.37465 0.00195
C 25.84179 10.71187 -0.00802
C 25.84946 9.28632 -0.00218
C 28.21006 30.46646 0.02316
C 24.5429 8.62766 -0.01654
C 25.91163 6.43361 -0.0032
C 25.91564 4.96308 0.00622
C 24.65251 4.29673 -0.02815
C 24.55259 2.86715 -0.00942
C 25.81138 2.12067 0.00487
C 25.7438 0.70194 0.00826
C 24.55704 34.07091 -0.00294
C 27.00284 32.60868 0.00152
C 24.61189 7.14695 -0.00037
C 2.38756 32.71496 0.01305
