429
Graphene
C 34.40996 34.01465 0.01295
C 13.46924 13.63272 0.03589
C 12.33748 12.87306 -0.02759
C 12.28426 11.47532 0.0402
C 13.43205 10.74424 0.00572
C 13.59952 9.36814 0.03592
C 13.48985 0.65459 0.00406
C 12.24927 0.2688 0.00943
C 14.75522 32.5723 0.02841
C 15.98098 31.89224 -0.01111
C 16.03109 30.49034 -0.01275
C 13.48024 14.99074 -0.00033
C 14.78123 29.71134 0.00985
C 15.99932 27.70915 -0.00428
C 15.9649 26.31524 0.03101
C 14.75145 25.56139 -0.01536
C 14.79696 24.20646 -0.02689
C 15.98993 23.44136 -0.01046
C 15.9388 21.97305 -0.00891
C 14.65803 21.22969 0.02819
C 14.7233 19.80779 0.00165
C 15.98006 19.11369 -0.02971
C 15.98735 17.75485 0.02894
C 14.76925 28.29046 -0.02245
C 12.34989 15.67376 -0.01062
C 12.23976 17.02309 0.01364
C 13.49804 17.75375 -0.00719
C 9.72068 15.64093 0.00685
C 11.01027 14.99073 0.02888
C 11.08765 13.62415 -0.00482
C 9.82186 12.87 -0.01384
C 9.86745 11.49461 0.03693
C 11.03923 10.68844 0.01745
C 10.82881 9.36511 0.00488
C 10.94821 0.72808 -0.01004
C 9.78669 0.07908 -0.02896
C 12.26837 32.71181 -0.00131
C 13.49433 31.88424 -0.01118
C 13.4854 30.50961 -0.014
C 12.34276 29.82653 0.02147
C 12.24118 28.38141 0.00373
C 13.45784 27.69714 -0.00191
C 13.54505 26.27489 0.00438
C 12.1986 25.60748 0.01291
C 12.34121 24.18279 0.00093
C 13.59806 23.45079 0.00057
C 13.50554 22.03625 -0.01634
C 12.32541 21.34503 -0.00334
C 12.26236 19.98685 0.02339
C 13.45769 19.20881 0.01641
C 14.75783 17.08469 -0.01789
C 14.76657 15.60842 0.00444
C 15.98837 14.90191 -0.00925
C 16.01388 13.43132 0.01877
C 18.42339 14.90292 0.00228
C 18.39627 13.4719 0.00798
C 17.14464 12.744 0.00422
C 17.16885 11.35638 0.0351
C 18.3372 10.60526 -0.03113
C 18.36681 9.21865 0.02098
C 17.12319 8.50415 0.01848
C 17.20539 7.08342 -0.00619
C 18.4026 6.33754 -0.02162
C 18.43963 4.91188 0.00889
C 17.17898 4.1965 -0.00481
C 17.04955 2.74399 0.00979
C 18.33472 2.12924 0.01443
C 18.41889 0.67897 0.03505
C 17.19443 33.99064 -0.02815
C 19.62075 32.69094 -0.04147
C 20.85012 32.00393 -0.05302
C 20.89094 30.58763 0.00213
C 19.70719 29.82073 -0.00066
C 19.65423 28.41557 -0.00289
C 20.88027 27.65648 0.00028
C 20.86291 26.25755 -0.02213
C 19.7043 25.58456 0.03698
C 17.20942 15.64026 -0.00114
C 9.83793 17.07581 0.00895
C 17.1801 17.00222 -0.02696
C 18.33281 19.16414 -0.0108
C 14.75002 12.82833 0.01363
C 14.75965 11.33849 -0.02162
C 15.95435 10.603 0.00415
C 15.93762 9.18283 -0.0014
C 14.72585 8.50815 0.02162
C 15.97523 6.36541 0.0076
C 16.1694 5.00981 0.01241
C 15.86457 2.04099 -0.01454
C 15.88215 0.68696 0.01945
C 14.69979 33.99891 0.01416
C 17.11295 32.64056 0.03542
C 18.43944 31.98523 0.02299
C 18.50813 30.56432 0.00244
C 17.28683 29.77977 -0.01717
C 17.29549 28.36631 0.05265
C 18.43789 27.72173 -0.01952
C 18.48533 26.27349 -0.02813
C 17.25518 25.52924 0.00374
C 17.1897 24.02699 0.00052
C 18.4811 23.44436 -0.03682
C 18.43936 21.96934 0.01965
C 17.18799 21.22929 0.02058
C 17.14379 19.86945 -0.01957
C 18.34815 17.73415 -0.00368
C 11.04835 17.78569 0.00393
C 11.07096 19.23574 0.0288
C 9.83681 19.93848 -0.0008
C 3.66006 2.07345 0.02728
C 3.69066 0.70132 -0.00039
C 2.45728 0.03622 0.0064
C 4.87314 32.70282 0.00211
C 6.10798 32.00574 -0.00449
C 6.13227 30.54617 -0.01979
C 4.92742 29.80776 0.02784
C 4.8368 28.4147 -0.01977
C 6.14091 27.7245 -0.00561
C 6.18176 26.2925 0.00208
C 4.90765 25.57624 0.01707
C 4.89781 24.19207 0.02769
C 6.21273 23.46006 -0.03291
C 6.16041 22.02007 -0.04999
C 4.88398 21.36735 0.04505
C 4.98119 19.94478 0.03284
C 6.22525 19.17923 -0.04307
C 6.15792 17.73264 0.03189
C 4.93526 17.02118 0.00031
C 4.79291 15.61576 -0.003
C 6.09164 14.93006 0.01402
C 6.07317 13.47977 0.02379
C 4.84689 12.79407 0.00907
C 2.44728 2.80655 0.00245
C 4.85033 11.37312 0.00643
C 2.47258 4.28516 0.00081
C 3.59322 6.4441 -0.01386
C 3.68734 30.52506 0.00267
C 2.51636 29.79797 0.00787
C 2.48412 28.34106 0.02426
C 3.72642 27.67453 0.01218
C 3.72246 26.21398 -0.01471
C 2.48337 25.51974 -0.02827
C 2.46268 24.11618 0.01078
C 3.67526 23.41139 -0.00112
C 3.65841 22.02638 0.03345
C 2.49425 21.35656 0.00748
C 2.46744 19.92879 0.00662
C 3.7105 19.19256 -0.0154
C 3.67569 17.67509 -0.01299
C 2.46848 17.0674 -0.00407
C 2.33253 15.62395 0.01138
C 3.57756 14.88348 0.03278
C 3.60313 13.49292 -0.00177
C 2.34333 12.79547 0.04421
C 2.42346 11.34028 0.00088
C 3.67138 10.68408 0.00828
C 3.65785 9.35768 -0.02375
C 2.48058 8.5247 0.00558
C 2.38965 7.13851 -0.0059
C 3.59168 5.0398 -0.02805
C 19.69169 24.13269 -0.00109
C 6.14656 10.75568 -0.01509
C 4.94846 8.61911 0.02374
C 7.31102 12.8002 -0.02929
C 7.4183 11.45684 -0.00966
C 8.59186 10.80397 -0.03337
C 8.81925 9.33011 0.01227
C 7.59109 8.54796 0.00873
C 7.24984 7.1065 -0.00049
C 7.24367 4.40489 0.00848
C 7.49155 3.05587 -0.01303
C 8.51369 2.14566 -0.01378
C 8.59704 0.72331 0.02635
C 7.28114 0.00117 0.0127
C 9.85853 32.675 0.01396
C 11.07095 31.95835 0.01849
C 11.16834 30.49485 -0.01142
C 9.79361 29.87162 -0.00562
C 9.78831 28.45993 -0.00494
C 11.02043 27.72458 0.00054
C 10.99772 26.24197 0.03007
C 9.75316 25.58639 -0.00095
C 9.84076 24.21502 0.01572
C 11.11178 23.52961 -0.04848
C 11.15016 22.10009 -0.00892
C 9.82658 21.33714 -0.01362
C 8.5339 13.53259 0.03368
C 6.25471 9.28843 0.03267
C 8.59326 14.86298 -0.00077
C 7.3731 17.02512 0.0276
C 4.863 7.18157 0.00402
C 6.08575 6.52109 0.0073
C 6.0285 5.13971 0.0174
C 4.83827 4.33738 0.03828
C 4.93745 2.82477 0.01226
C 6.21419 2.27477 -0.00279
C 6.12961 0.75033 0.01996
C 4.89792 0.06573 -0.03996
C 7.34737 32.71106 0.01465
C 8.60726 32.00523 -0.00074
C 8.5502 30.61014 -0.00518
C 7.3525 29.86321 0.0086
C 7.41799 28.44989 -0.00643
C 8.60671 27.75985 0.017
C 8.57171 26.2907 -0.03113
C 7.40242 25.52494 -0.02566
C 7.36782 24.16727 -0.00094
C 8.61617 23.46981 0.02322
C 8.60688 22.02522 -0.00725
C 7.35038 21.32838 -0.05697
C 7.43654 19.92319 0.01087
C 8.61696 19.21614 -0.01343
C 8.61663 17.81489 0.00988
C 7.38668 15.59471 0.01305
C 3.63937 32.04478 0.01913
C 20.91169 23.40153 -0.00491
C 19.69279 21.34058 -0.0258
C 29.46995 12.83283 -0.01461
C 29.47706 11.37019 -0.02155
C 30.6968 10.57379 -0.00944
C 30.66168 9.23812 -0.03735
C 29.44133 8.47098 -0.00971
C 29.43918 7.07179 0.01518
C 30.68562 6.31031 0.01908
C 30.80383 4.83487 0.07705
C 29.4917 4.20128 0.0103
C 29.55069 2.83957 0.02108
C 30.73245 13.49399 -0.01303
C 30.72889 2.10267 0.00716
C 29.53154 34.02598 0.00346
C 31.95026 32.52779 0.01713
C 33.18243 31.84386 -0.01694
C 33.30123 30.44585 0.01428
C 32.00363 29.72246 -0.02142
C 31.86486 28.32986 0.0544
C 33.16024 27.6543 0.00026
C 33.20543 26.24261 0.00682
C 31.97759 25.56739 -0.01779
C 31.96496 24.17159 0.03794
C 30.75928 0.61085 0.00307
C 30.70061 14.92077 -0.0405
C 29.44965 15.62504 0.01705
C 29.53289 17.06412 0.0101
C 26.99585 7.09011 0.02198
C 28.20603 6.38571 0.01094
C 28.28832 4.95345 0.00235
C 27.05026 4.24787 0.01495
C 27.0707 2.84652 0.01259
C 28.30431 2.09792 0.01799
C 28.34768 0.70868 0.01699
C 27.15535 0.01405 -0.00416
C 29.44177 32.65268 0.01177
C 30.78369 31.87472 0.04266
C 30.75797 30.47072 0.01324
C 29.46697 29.77318 0.0014
C 29.47713 28.37802 0.00924
C 30.68908 27.62558 0.02326
C 30.70992 26.25141 0.00261
C 29.47978 25.58331 0.03265
C 29.48634 24.14032 -0.02049
C 30.72633 23.43031 -0.01854
C 30.69563 22.00828 -0.01415
C 29.51569 21.31608 -0.03039
C 29.47339 19.91626 0.01836
C 30.70279 19.20724 0.03531
C 30.77995 17.78204 -0.00669
C 33.19862 23.46147 0.01927
C 33.16203 22.0771 0.01574
C 31.95924 21.32785 -0.02383
C 31.94758 19.87198 -0.01429
C 34.43138 24.10338 0.03076
C 1.22694 23.41573 0.00723
C 1.23496 22.04533 0.02712
C 0.01592 21.31284 -0.02213
C 0.00923 19.83252 0.01951
C 1.26506 19.13769 -0.01678
C 1.19679 17.71575 0.01223
C 34.4101 17.03168 0.00648
C 34.30586 15.62062 0.02114
C 1.08881 14.85762 -0.02957
C 1.10439 13.44302 0.00343
C 34.31127 12.77702 -0.02656
C 34.38429 11.38289 -0.02442
C 1.22139 10.65156 -0.00027
C 1.21695 9.15443 -0.00583
C 34.38003 8.45225 -0.02302
C 34.4228 7.05864 -0.02849
C 1.2223 6.35559 0.02931
C 1.21019 4.96367 0.00628
C 0.02764 4.24015 -0.0345
C 0.0114 2.84277 -0.00931
C 1.2078 2.1361 -0.00939
C 1.18533 0.69795 -0.00468
C 0.02102 25.55694 -0.05239
C 27.01927 8.51226 0.02611
C 1.29553 26.25236 -0.00598
C 0.0161 28.2959 -0.01037
C 33.19197 19.18877 -0.0136
C 33.14587 17.79281 0.00594
C 31.90784 17.1059 -0.02474
C 31.88554 15.59601 0.00369
C 33.13007 14.87314 0.00455
C 33.14847 13.48346 -0.00644
C 31.90424 12.75999 -0.01839
C 31.95881 11.25624 0.00137
C 33.15836 10.56433 0.00199
C 33.12187 9.12601 0.04381
C 31.98395 8.41393 0.02806
C 31.89353 7.03001 0.01504
C 33.12777 6.29374 -0.00069
C 33.15558 4.89514 0.04926
C 31.96491 4.13045 -0.03838
C 31.96763 2.80824 0.00349
C 33.22387 2.06473 -0.00323
C 33.1975 0.66399 -0.00841
C 31.99739 34.0556 0.0001
C 34.39409 32.61659 -0.02927
C 1.2095 31.95714 -0.01404
C 1.25463 30.4898 0.01027
C 0.01681 29.71134 0.01831
C 1.29032 27.62151 -0.00439
C 28.22866 9.1974 -0.00621
C 28.24733 10.61355 0.00194
C 27.08637 11.40755 0.04185
C 22.09749 25.58269 0.00675
C 22.15653 24.15567 -0.00311
C 23.40651 23.48392 0.00742
C 23.40592 22.04461 -0.01594
C 22.15908 21.30402 0.0106
C 22.14868 19.85379 -0.01154
C 23.37008 19.11133 -0.01721
C 23.33521 17.78796 -0.02422
C 22.09368 17.07685 0.01277
C 22.05586 15.63184 0.00096
C 23.38446 14.93209 -0.01527
C 23.31835 13.51034 0.01087
C 22.08238 12.78392 0.00199
C 22.10372 11.39398 0.01511
C 23.33113 10.6948 -0.00478
C 23.30662 9.28781 -0.01662
C 22.08862 8.52994 -0.01185
C 22.09156 7.15023 0.01126
C 23.31937 6.39436 0.01852
C 23.45703 4.95555 -0.00381
C 22.22852 4.27099 0.03046
C 22.19682 2.8702 0.0296
C 23.37423 2.147 0.03374
C 23.29309 26.31837 -0.00865
C 23.42018 0.6997 -0.02845
C 23.30729 27.71462 0.0058
C 22.13291 29.85067 -0.04076
C 19.64245 19.86226 -0.0331
C 20.93248 19.1871 -0.00316
C 20.85632 17.7303 0.02188
C 19.61434 17.02031 -0.01979
C 19.64554 15.61651 0.02691
C 20.86324 14.93856 -0.01581
C 20.87807 13.49867 0.01452
C 19.61907 12.75921 0.04892
C 19.60532 11.357 -0.00111
C 20.86276 10.68584 -0.03557
C 20.883 9.25425 0.03754
C 19.64988 8.44389 0.01739
C 19.61405 6.99922 0.00755
C 20.90342 6.31264 -0.0054
C 20.95641 4.93777 0.00667
C 19.70033 4.18139 0.00143
C 19.5823 2.7823 -0.017
C 20.89626 2.14159 0.00364
C 20.9278 0.65136 -0.00831
C 19.69137 0.03939 -0.02957
C 22.15002 32.75705 -0.04422
C 23.29559 31.98373 0.00654
C 23.32586 30.49315 -0.00703
C 22.08946 28.43802 -0.00652
C 20.92172 22.04412 0.03338
C 22.21918 0.02146 -0.03213
C 25.79535 31.97621 0.01153
C 25.83847 2.08166 -0.0264
C 25.94132 0.67928 -0.01154
C 24.64572 33.99822 0.00684
C 26.97249 32.68328 -0.01052
C 28.25744 31.87941 -0.01679
C 28.19669 30.44221 0.00367
C 27.00373 29.7551 0.04306
C 26.94303 28.32495 0.00996
C 28.22385 27.68137 0.00195
C 28.207 26.26532 -0.00802
C 27.02399 25.5304 -0.00218
C 27.01002 24.10632 -0.01654
C 28.27751 23.43132 -0.00037
C 28.30728 22.02996 -0.0032
C 27.07714 21.28981 0.00622
C 27.04138 19.85614 -0.02815
C 28.2537 19.23401 -0.00942
C 28.27858 17.82725 0.00487
C 27.00002 17.06239 0.00826
C 27.08609 15.62787 -0.00294
C 28.27414 14.93959 0.00152
C 28.31194 13.5447 0.01257
C 27.08408 12.80021 0.02316
C 24.66724 2.83004 -0.00938
C 24.55144 32.65429 0.02239
C 24.65542 4.26498 -0.00229
C 25.81742 6.40707 -0.009
C 25.80886 30.54125 0.02734
C 24.60986 29.84377 -0.0055
C 24.5483 28.41474 0.01515
C 25.7173 27.64367 -0.00225
C 25.79384 26.30457 0.00071
C 24.5733 25.57322 -0.01107
C 24.60521 24.12883 -0.01586
C 25.82504 23.45425 -0.01971
C 25.9274 22.12259 -0.02118
C 24.62332 21.41923 0.00733
C 24.61629 19.84754 -0.00178
C 25.82215 19.20363 0.00768
C 25.81337 17.77616 -0.0276
C 24.61103 17.04731 0.03005
C 24.63959 15.59726 -0.04078
C 25.8667 14.87607 0.02117
C 25.81616 13.45073 0.02737
C 24.54217 12.81452 -0.00498
C 24.54558 11.36975 0.00135
C 25.84899 10.68186 0.03102
C 25.80055 9.23712 0.02555
C 24.59159 8.60411 0.01423
C 24.62432 7.10212 -0.00285
C 25.91229 4.9716 -0.01199
C 2.43916 32.7215 -0.03672
