243
Graphene
C 0.03339 34.07114 0.01295
C 19.84404 24.00709 -0.00225
C 19.60289 25.4558 0.01515
C 20.85528 26.26209 -0.0055
C 20.92052 27.68148 0.02734
C 19.79045 28.44501 0.01153
C 19.73981 29.83579 0.02239
C 20.88727 30.487 -0.03213
C 20.89192 31.95389 -0.02845
C 19.60308 32.61321 0.03374
C 17.34753 0.01821 0.0296
C 18.52875 0.6166 0.03046
C 18.74725 18.81259 -0.00381
C 21.01959 23.43655 0.00071
C 18.58381 26.3863 0.01852
C 17.04606 29.92703 -0.01185
C 18.47439 30.44856 -0.01662
C 18.41539 31.90459 -0.00478
C 17.19457 32.6524 0.01511
C 14.86045 0.20423 0.00199
C 16.03322 0.48749 0.01087
C 15.96254 30.49208 -0.01527
C 15.97711 31.91086 0.00096
C 14.67262 32.5785 0.01277
C 12.30524 0.24236 -0.02422
C 13.54421 0.74124 -0.01721
C 13.57384 31.98959 -0.01154
C 18.45851 27.63927 0.01126
C 21.12853 21.98882 -0.01107
C 20.06063 21.1533 -0.01586
C 19.2184 20.12476 -0.01971
C 24.57762 28.47654 0.00996
C 24.58594 29.92524 0.04306
C 25.80065 30.59432 0.00367
C 25.81039 32.03734 -0.01679
C 24.55666 32.65986 -0.01052
C 22.17149 33.98898 0.00684
C 23.37846 0.78119 -0.01154
C 23.27971 2.19707 -0.0264
C 21.99665 2.81509 -0.00938
C 22.15496 4.21943 -0.00229
C 23.1485 5.00497 -0.01199
C 23.35227 6.43433 -0.009
C 22.36221 21.50171 -0.00285
C 23.51077 22.16406 0.01423
C 23.42764 23.50783 0.02555
C 22.22038 24.1012 0.03102
C 22.09298 25.56824 0.00135
C 23.35234 26.37737 -0.00498
C 23.4073 27.73811 0.02737
C 22.18109 28.435 0.02117
C 22.14215 29.83631 -0.04078
C 23.35585 30.55474 0.03005
C 23.35462 32.0081 -0.0276
C 22.12063 32.63702 0.00768
C 19.67251 33.95056 -0.00178
C 20.92165 0.58054 0.00733
C 20.83166 1.89796 -0.02118
C 12.28646 32.51993 0.0106
C 25.78824 27.73764 0.00195
C 9.77632 0.03166 -0.01594
C 10.77202 2.13977 -0.00311
C 2.4405 33.99951 -0.00109
C 3.68711 0.72638 0.03698
C 3.66068 2.17077 -0.02213
C 2.44823 2.86828 0.00028
C 2.45036 4.32601 -0.00289
C 3.66891 5.05673 -0.00066
C 3.6243 6.44779 0.00213
C 2.41683 7.1765 -0.05302
C 2.47115 8.62196 -0.04147
C 3.66934 9.36205 -0.02815
C 3.63871 10.74623 0.03505
C 2.45718 11.43664 0.01443
C 4.92807 32.57693 -0.00491
C 2.50027 12.80586 0.00979
C 3.75372 14.90286 0.00889
C 2.47128 15.6804 -0.02162
C 2.56138 17.1133 -0.00619
C 3.88089 17.74312 0.01848
C 3.58473 19.06951 0.02098
C 2.61655 19.96215 -0.03113
C 2.37799 21.34526 0.0351
C 2.33954 24.35246 0.00422
C 2.30631 25.52552 0.00798
C 2.27985 28.43948 0.00228
C 2.33948 29.83173 -0.00114
C 3.59136 30.42577 -0.02696
C 3.80762 13.40232 -0.00481
C 6.14454 31.95796 0.03338
C 5.92823 30.49994 -0.0258
C 4.91201 29.827 -0.0331
C 9.76845 2.77248 0.00675
C 11.07059 32.03855 -0.00865
C 9.83542 32.51091 0.0058
C 7.33154 34.05496 -0.00652
C 8.48756 0.73628 -0.04076
C 8.41315 2.11153 -0.00703
C 7.27349 2.92532 0.00654
C 7.34178 4.32132 -0.04422
C 7.4782 15.22711 -0.02957
C 8.58985 32.08744 -0.00831
C 7.37661 32.69966 0.00364
C 4.89968 34.0409 -0.017
C 6.1238 0.6955 0.00143
C 6.03594 2.24077 0.00667
C 4.8745 2.95649 -0.0054
C 4.89578 4.39067 0.00755
C 6.26272 5.11896 0.01739
C 5.99233 6.41421 0.03754
C 4.80742 7.18521 -0.03557
C 4.9037 8.61626 -0.00111
C 6.11885 9.26444 0.04892
C 5.91018 10.59993 0.01452
C 4.80252 11.55504 -0.01581
C 6.42251 13.44427 0.02691
C 6.14754 14.71188 -0.01979
C 5.00136 15.59247 0.02188
C 5.01226 17.02896 -0.00316
C 11.10018 0.69306 0.00742
C 3.68534 31.87455 -0.00368
C 25.75781 26.39222 -0.00802
C 24.57368 24.25091 -0.01654
C 32.02429 0.07673 0.0001
C 33.22581 0.71056 -0.00841
C 33.22909 2.13098 -0.00323
C 31.9571 2.81847 0.00349
C 31.95984 4.27503 -0.03838
C 33.13811 4.99745 0.04926
C 33.12828 6.43637 -0.00069
C 31.85277 7.12859 0.01504
C 31.82898 8.54273 0.02806
C 33.07632 9.32594 0.04381
C 33.19471 10.72467 0.00199
C 31.90538 11.4643 0.00137
C 34.42323 32.65138 -0.02927
C 32.05777 12.89436 -0.01839
C 33.16543 14.97431 0.00455
C 31.95 15.58535 0.00369
C 32.0111 16.93886 -0.02474
C 33.09246 17.81663 0.00594
C 33.20901 19.16112 -0.0136
C 31.97826 19.84518 -0.01429
C 31.94261 21.27795 -0.02383
C 33.16971 22.01811 0.01574
C 33.21329 23.46286 0.01927
C 31.92808 24.12985 0.03794
C 31.98341 25.55922 -0.01779
C 33.17021 26.24316 0.00682
C 33.24568 13.58307 -0.00644
C 1.19885 31.9688 -0.01404
C 1.14698 30.50163 0.01027
C 34.35831 29.79143 0.01831
C 1.2518 0.72035 -0.00468
C 1.18305 2.19628 -0.00939
C 34.39255 2.91983 -0.00931
C 34.41327 4.33639 -0.0345
C 1.19833 5.00845 0.00628
C 1.11499 6.4362 0.02931
C 34.32454 7.16181 -0.02849
C 34.37333 8.57094 -0.02302
C 1.23185 9.26111 -0.00583
C 1.25864 10.68666 -0.00027
C 0.03035 11.47282 -0.02442
C 0.0089 12.81564 -0.02656
C 1.24795 13.52896 0.00343
C 1.20368 14.94919 -0.02957
C 34.3595 15.65668 0.02114
C 34.37819 17.05203 0.00648
C 1.25745 17.78359 0.01223
C 1.2849 19.24695 -0.01678
C 34.40507 19.88464 0.01951
C 34.40566 21.31097 -0.02213
C 1.16041 21.97676 0.02712
C 1.22035 23.37735 0.00723
C 0.00873 24.12492 0.03076
C 0.02768 25.58695 -0.05239
C 1.16225 26.37428 -0.00598
C 1.07316 27.72868 -0.00439
C 34.27005 28.43102 -0.01037
C 33.05531 27.7223 0.00026
C 24.55428 25.63734 -0.00218
C 31.86473 28.46543 0.0544
C 33.15833 30.56026 0.01428
C 27.03888 4.27087 0.01324
C 28.28105 4.86794 0.04266
C 28.25362 6.33562 0.01177
C 27.11716 7.16687 -0.00416
C 26.9397 21.47228 0.01699
C 28.25107 21.91498 0.01799
C 28.2881 23.40584 0.01259
C 27.03732 24.18072 0.01495
C 26.99619 25.60233 0.00235
C 28.248 26.30606 0.01094
C 28.22603 27.67825 0.02198
C 27.07088 28.49311 0.02611
C 27.06485 2.79853 0.0014
C 27.06681 29.9259 -0.00621
C 28.30167 32.01805 0.04185
C 27.04748 32.68646 0.02316
C 24.62009 0.08414 0.01257
C 25.85688 0.7079 0.00152
C 25.83694 2.1632 -0.00294
C 24.57186 2.85535 0.00826
C 24.5797 4.28947 0.00487
C 25.82731 4.99557 -0.00942
C 25.95018 6.45869 -0.02815
C 24.48112 6.79394 0.00622
C 25.805 22.09162 -0.0032
C 25.7828 23.50927 -0.00037
C 28.30722 30.6038 0.00194
C 28.28844 2.15055 0.00924
C 28.3285 0.75887 0.02326
C 27.06482 0.05907 0.00261
C 33.21702 32.01331 -0.01694
C 32.00548 32.73886 0.01713
C 29.52075 0.03598 0.00346
C 30.75843 0.67354 0.00307
C 30.76908 2.05585 0.00716
C 29.54102 2.77814 0.02108
C 29.44799 4.21443 0.0103
C 30.72162 4.91827 0.07705
C 30.69476 6.37025 0.01908
C 29.50096 7.05541 0.01518
C 29.36285 8.44144 -0.00971
C 30.52675 9.38245 -0.03735
C 30.76202 10.64511 -0.00944
C 30.76199 19.1704 -0.02155
C 29.79506 19.9461 -0.01461
C 29.3945 21.24984 -0.01303
C 30.71165 21.98786 -0.0405
C 30.6674 23.38681 0.01705
C 29.47402 24.16154 0.0101
C 29.4537 25.54633 -0.00669
C 30.67783 26.27121 0.03531
C 30.67937 27.70739 0.01836
C 29.46802 28.44107 -0.03039
C 29.42868 29.85103 -0.01415
C 30.72098 30.58273 -0.01854
C 30.77669 31.97355 -0.02049
C 29.54378 32.75009 0.03265
C 31.93543 29.84415 -0.02142
C 2.47961 32.62998 -0.0108
