330
Graphene
C 0.03734 0.01708 0.01295
C 11.11595 21.98743 -0.04147
C 9.84291 21.35867 -0.05302
C 9.8109 19.95937 0.00213
C 11.14553 19.14872 -0.00066
C 11.12332 17.78253 -0.00289
C 9.89248 17.04725 0.00028
C 9.81461 15.57115 -0.02213
C 11.03483 23.42156 -0.02815
C 10.97583 14.56577 0.03698
C 9.83206 12.72982 -0.00491
C 9.89264 11.34963 0.03338
C 11.15507 10.61232 -0.0258
C 11.10256 9.20428 -0.0331
C 9.90094 8.51157 -0.00316
C 9.81995 7.16551 0.02188
C 11.09161 6.3839 -0.01979
C 11.05797 13.42498 -0.00109
C 9.77092 24.08119 0.03505
C 9.84081 25.44901 0.01443
C 11.05113 26.25774 0.00979
C 8.5936 10.68743 0.02058
C 8.61378 9.19088 -0.01957
C 7.33697 8.58416 -0.0108
C 7.28531 7.17932 -0.00368
C 8.61407 6.49088 -0.02696
C 8.65293 5.01383 -0.00114
C 7.41631 4.28699 0.00228
C 7.36762 2.88744 0.00798
C 8.61893 2.12291 0.00422
C 8.61978 0.70789 0.0351
C 7.41664 0.0528 -0.03113
C 9.86215 32.69696 0.02098
C 11.05482 32.01227 0.01848
C 11.01857 30.59172 -0.00619
C 9.85696 29.76466 -0.02162
C 9.8471 28.39256 0.00889
C 11.06873 27.70042 -0.00481
C 11.133 4.94133 0.02691
C 7.35751 11.30791 0.01965
C 9.8653 4.29713 -0.01581
C 11.0984 2.07759 0.04892
C 12.25117 4.18002 0.00742
C 12.32722 2.80018 -0.01594
C 13.62485 2.15596 0.0106
C 13.55497 0.73201 -0.01154
C 12.34447 0.01127 -0.01721
C 14.72999 32.77791 -0.02422
C 15.91773 31.98703 0.01277
C 13.50627 4.88134 -0.00311
C 15.97405 30.52807 0.00096
C 14.75599 28.45377 0.01087
C 15.97173 27.67897 0.00199
C 15.95721 26.27616 0.01511
C 14.71836 25.58186 -0.00478
C 14.79706 24.12756 -0.01662
C 16.01724 23.44028 -0.01185
C 15.88517 21.91237 0.01126
C 14.73839 29.81085 -0.01527
C 13.55668 6.36071 0.00675
C 12.34635 7.02529 -0.00865
C 12.30276 8.50188 0.0058
C 11.04382 0.64569 -0.00111
C 9.86642 34.07325 -0.03557
C 12.29693 32.63449 0.03754
C 13.50089 31.99318 0.01739
C 13.48496 30.53137 0.00755
C 12.20909 29.87216 -0.0054
C 12.22692 28.45423 0.00667
C 13.48651 27.76662 0.00143
C 13.50712 26.323 -0.017
C 12.30696 25.51244 0.00364
C 12.2862 24.14899 -0.00831
C 13.5526 23.45975 -0.02957
C 13.56108 22.04324 -0.04422
C 12.37472 21.28228 0.00654
C 12.29245 19.95507 -0.00703
C 12.31286 11.25553 -0.04076
C 13.46064 9.14716 -0.00652
C 9.83175 2.84709 0.01452
C 7.37377 12.7699 -0.03682
C 8.61496 13.4982 0.00052
C 8.56786 14.9034 0.00374
C 2.40568 8.50591 0.02147
C 2.41743 7.09627 0.00373
C 3.64526 6.40166 -0.00191
C 3.68184 5.02205 0.00438
C 2.53704 4.21151 0.01291
C 2.432 2.80266 0.00093
C 3.67656 2.08219 0.00057
C 3.65465 9.17355 -0.014
C 3.73259 0.66028 -0.01634
C 4.86647 32.59425 0.02339
C 6.18503 31.94074 0.01641
C 6.21126 30.55788 -0.00719
C 4.92058 29.89238 0.01364
C 4.90809 28.37761 -0.01062
C 6.10107 27.6752 -0.00033
C 6.09267 26.27038 0.03589
C 2.46793 0.05841 -0.00334
C 3.67711 10.59997 -0.01118
C 2.45321 11.39335 -0.00131
C 2.41266 12.81813 -0.02896
C 3.61874 30.5263 -0.00095
C 2.43784 29.82454 0.01572
C 2.49093 28.46512 -0.04848
C 3.70978 27.69412 -0.00892
C 3.68599 26.30261 -0.01362
C 2.4569 25.59968 -0.0008
C 2.4417 24.22225 0.0288
C 3.63845 23.51611 0.00393
C 3.71061 22.06796 0.00895
C 2.46485 21.27091 0.00685
C 2.41163 19.88235 0.02888
C 3.6545 19.17501 -0.00482
C 3.73849 17.73806 -0.01384
C 2.51759 17.01596 0.03693
C 2.46163 15.60754 0.01745
C 3.74904 14.8773 0.00488
C 3.70781 13.4954 -0.01004
C 4.84196 25.60668 -0.02759
C 4.86881 24.22231 0.0402
C 6.14524 23.4834 0.00572
C 6.22673 21.99408 0.03592
C 7.38434 32.68152 0.01363
C 8.66258 31.95057 -0.02162
C 8.63823 30.47284 0.00415
C 7.39536 29.76084 -0.0014
C 7.27877 28.34958 0.02162
C 8.55306 27.78357 0.0076
C 8.57346 26.32602 0.01241
C 7.33313 25.62441 -0.01454
C 7.40183 24.15864 0.01945
C 8.57291 23.35563 0.01416
C 8.65128 22.04332 0.03542
C 7.40246 21.35673 0.02299
C 7.38917 19.95122 0.00244
C 8.59312 19.14099 -0.01717
C 8.56205 17.68275 0.05265
C 7.35233 16.9849 -0.01952
C 7.38601 15.59023 -0.02813
C 4.93681 34.04008 0.01877
C 14.85216 21.44082 0.01852
C 6.16291 0.76389 -0.00925
C 4.86887 2.8383 -0.01789
C 4.99277 21.29649 0.00406
C 4.9725 19.89547 0.00943
C 6.1976 19.18411 0.02841
C 6.1168 17.65053 -0.01111
C 4.88731 16.97007 -0.01275
C 4.86959 15.63304 0.00985
C 6.07036 14.85411 -0.02245
C 6.1512 13.45981 -0.00428
C 4.87873 12.7906 0.03101
C 4.90711 11.37767 -0.01536
C 6.16215 10.63545 -0.02689
C 6.10209 9.24998 -0.01046
C 4.88733 8.56003 -0.00891
C 4.93049 7.1529 0.02819
C 6.13482 6.38745 0.00165
C 6.18341 4.9793 -0.02971
C 4.96556 4.32029 0.02894
C 6.1187 2.17478 0.00444
C 14.78643 7.11618 -0.00381
C 16.0027 6.45855 0.03046
C 15.95795 5.0559 0.0296
C 29.61009 0.07619 0.00026
C 31.95697 32.7281 0.00682
C 33.16133 32.06588 -0.01779
C 33.1716 30.60778 0.03794
C 31.9743 29.84587 0.01927
C 31.91386 28.41671 0.01574
C 33.19335 27.73314 -0.02383
C 30.65874 0.62636 0.0544
C 33.21274 26.28809 -0.01429
C 31.93088 24.23286 0.00594
C 33.14669 23.48468 -0.02474
C 33.19518 22.04943 0.00369
C 31.90105 21.31402 0.00455
C 31.89376 19.91036 -0.00644
C 33.19567 19.11881 -0.01839
C 33.22101 17.72941 0.00137
C 31.8906 25.65533 -0.0136
C 30.66278 10.73134 -0.02142
C 29.70813 11.47132 0.01428
C 29.56759 12.64963 -0.01694
C 30.7293 30.56507 0.01705
C 29.44093 29.80723 -0.0405
C 29.51267 28.42121 -0.01303
C 30.70548 27.71957 -0.01461
C 30.60187 26.29529 -0.02155
C 29.42094 25.56351 -0.00944
C 29.44931 24.03402 -0.03735
C 30.73099 23.49636 -0.00971
C 30.69348 22.04805 0.01518
C 29.50054 21.31034 0.01908
C 29.51223 19.87183 0.07705
C 30.72855 19.19241 0.0103
C 30.74042 17.77831 0.02108
C 29.52095 17.03726 0.00716
C 29.5852 15.67161 0.00307
C 30.6784 14.9117 0.00346
C 30.71091 13.48448 0.01713
C 31.93848 17.06788 0.00199
C 31.90212 15.65754 0.04381
C 33.2166 14.92103 0.02806
C 33.23291 13.44055 0.01504
C 1.30425 17.71724 0.01223
C 0.00729 17.06901 0.00648
C 0.00836 15.64158 0.02114
C 1.22331 14.91943 -0.02957
C 1.17318 13.48709 0.00343
C 34.40768 12.80238 -0.02656
C 0.01391 11.37223 -0.02442
C 1.27223 10.69659 -0.00027
C 1.21588 9.19472 -0.00583
C 34.40859 8.43892 -0.02302
C 0.06845 7.09851 -0.02849
C 1.19944 6.40523 0.02931
C 1.20604 4.90521 0.00628
C 34.38985 4.26067 -0.0345
C 34.42559 2.79661 -0.00931
C 1.21403 2.07571 -0.00939
C 1.20624 0.73445 -0.00468
C 1.16999 19.10816 -0.01678
C 30.71715 32.00358 0.0101
C 34.40615 19.86031 0.01951
C 1.27305 21.97445 0.02712
C 31.97221 12.76708 -0.00069
C 31.98067 11.36528 0.04926
C 33.25213 10.59481 -0.03838
C 33.21033 9.16721 0.00349
C 33.24814 2.08336 -0.00323
C 33.24472 0.70581 -0.00841
C 31.95192 0.01891 0.0001
C 0.01261 32.66663 -0.02927
C 1.23608 31.97587 -0.01404
C 1.20675 30.58829 0.01027
C 0.00862 29.93683 0.01831
C 0.00082 28.44009 -0.01037
C 1.25322 27.79302 -0.00439
C 1.18635 26.32734 -0.00598
C 34.43014 25.55974 -0.05239
C 0.00402 24.1575 0.03076
C 1.26419 23.4718 0.00723
C 0.03591 21.29396 -0.02213
C 3.63903 31.91971 0.03007
C 29.45684 32.73915 -0.00669
C 28.34593 17.79026 0.01836
C 17.18884 0.04951 0.02737
C 19.60659 32.5712 -0.00498
C 20.87562 31.90836 0.00135
C 20.91115 30.52282 0.03102
C 19.73024 29.8209 0.02555
C 19.60717 28.35542 0.01423
C 20.83234 27.71411 -0.00285
C 18.45374 0.66817 0.02117
C 20.88013 26.2727 -0.009
C 19.65044 23.97179 -0.00229
C 20.8865 23.60246 -0.00938
C 21.07188 4.91165 -0.0264
C 19.66669 4.29928 -0.01154
C 19.68074 2.80494 0.00684
C 20.81747 2.09927 -0.01052
C 20.80586 0.68329 -0.01679
C 19.66208 25.59114 -0.01199
C 18.47942 2.10318 -0.04078
C 17.20833 2.8378 0.03005
C 17.12115 4.24851 -0.0276
C 14.76306 4.32045 0.03374
C 14.77709 2.93183 -0.02845
C 15.95794 2.20221 -0.03213
C 15.9721 0.70953 0.02239
C 14.7347 0.0865 0.01153
C 17.23796 32.69359 0.02734
C 18.43692 31.93041 -0.0055
C 18.42723 30.48019 0.01515
C 17.17427 29.81763 -0.00225
C 17.18419 28.39194 0.00071
C 18.37991 27.76485 -0.01107
C 18.4383 26.21484 -0.01586
C 17.19608 25.52476 -0.01971
C 17.19377 24.14888 -0.02118
C 18.38496 23.51482 0.00733
C 18.48491 6.33839 -0.00178
C 18.3867 4.94141 0.00768
C 19.63832 34.03968 0.00367
C 22.13748 32.63691 0.04306
C 23.37245 31.91905 0.00996
C 23.35408 30.52929 0.00195
C 25.81071 23.34921 0.01495
C 25.87511 22.00561 0.01259
C 24.68066 0.00103 0.01799
C 27.02356 32.66205 0.01699
C 28.2955 31.87815 -0.00416
C 28.28044 30.48483 0.01177
C 26.99541 29.79456 0.04266
C 27.10439 28.37667 0.01324
C 28.33974 27.66851 0.0014
C 28.24703 26.2837 0.00924
C 26.95842 25.54928 0.02326
C 26.99818 24.09005 0.00261
C 28.24248 23.35358 0.03265
C 28.26903 22.03454 -0.02049
C 27.02289 21.23602 -0.01854
C 27.11701 19.91971 -0.01415
C 28.10849 19.12693 -0.03039
C 24.52388 24.0342 0.00235
C 27.05233 34.01582 0.03531
C 24.59368 25.51816 0.01094
C 25.8803 27.65162 0.02611
C 22.17923 29.77672 -0.00802
C 22.16136 28.36054 -0.00218
C 23.39259 27.67766 -0.01654
C 23.39735 26.19674 -0.00037
C 22.08669 25.54109 -0.0032
C 22.1375 24.11692 0.00622
C 23.41841 23.32488 -0.02815
C 22.06901 4.27464 -0.00942
C 22.15086 2.77415 0.00487
C 23.28655 2.09888 0.00826
C 23.46167 0.72923 -0.00294
C 22.13716 34.06407 0.00152
C 24.61611 32.69435 0.01257
C 25.7968 31.92157 0.02316
C 25.82552 30.54628 0.04185
C 24.64316 29.81753 0.00194
C 24.6732 28.40176 -0.00621
C 25.85274 26.29597 0.02198
C 2.4604 32.72719 0.00054
