398
Graphene
C 0.02339 0.03068 0.01295
C 9.91025 34.06501 0.02894
C 12.24753 32.74882 -0.01789
C 13.49126 31.99716 0.00444
C 13.57418 30.51506 -0.00925
C 12.35542 29.88259 0.01877
C 12.32601 28.44769 0.01363
C 13.45581 27.64795 -0.02162
C 13.4763 26.22342 0.00415
C 12.26018 25.45898 -0.0014
C 11.0574 0.7017 -0.02971
C 12.34942 24.13162 0.02162
C 13.54723 21.97823 0.01241
C 12.33299 21.29167 -0.01454
C 12.32359 19.87013 0.01945
C 13.51308 19.23336 0.01416
C 13.51768 17.74293 0.03542
C 12.31436 16.96089 0.02299
C 12.27366 15.56171 0.00244
C 13.59343 14.68859 -0.01717
C 13.43359 13.55164 0.05265
C 13.50228 23.46049 0.0076
C 11.08268 2.09733 0.00165
C 9.81681 2.92491 0.02819
C 9.74732 4.35645 -0.00891
C 11.10073 26.31836 -0.00719
C 9.89226 25.6195 0.01364
C 9.86874 24.16717 -0.01062
C 11.10461 23.45464 -0.00033
C 11.06128 22.02838 0.03589
C 9.84423 21.30646 -0.02759
C 9.85526 19.90851 0.0402
C 11.08421 19.26633 0.00572
C 11.04014 17.78333 0.03592
C 9.80552 17.10731 0.00406
C 9.84568 15.56959 0.00943
C 11.08701 14.8762 0.02841
C 11.12565 13.53966 -0.01111
C 9.9299 12.74401 -0.01275
C 9.81339 11.31736 0.00985
C 11.0409 10.66955 -0.02245
C 11.08308 9.18993 -0.00428
C 9.74577 8.49227 0.03101
C 9.873 7.07696 -0.01536
C 11.17219 6.42223 -0.02689
C 11.06569 4.99674 -0.01046
C 12.33764 12.80525 -0.01952
C 12.26706 11.44316 -0.02813
C 13.46743 10.67154 0.00374
C 13.55347 9.20162 0.00052
C 14.76488 7.05925 0.00213
C 15.99092 6.4413 -0.00066
C 16.0097 4.95371 -0.00289
C 14.71135 4.26868 0.00028
C 14.74841 2.86302 -0.02213
C 16.0206 2.09875 0.03698
C 16.04175 0.78038 -0.00109
C 14.75572 34.04127 -0.00491
C 17.23007 32.67496 0.03338
C 18.4423 31.91213 -0.0258
C 18.46032 30.48877 -0.0331
C 17.16631 29.8013 -0.00316
C 17.18768 28.36428 0.02188
C 18.47645 27.65895 -0.01979
C 18.4752 26.21891 0.02691
C 17.19888 25.60535 -0.01581
C 17.15888 24.15269 0.01452
C 18.39665 23.47122 0.04892
C 18.38861 22.04838 -0.00111
C 17.22298 21.3314 -0.03557
C 17.08088 19.86277 0.03754
C 14.81275 8.49046 -0.05302
C 11.09869 27.71702 0.01641
C 16.09966 9.19351 -0.04147
C 14.77333 19.92517 0.03505
C 12.30664 8.51959 -0.03682
C 12.33368 7.1139 0.01965
C 13.52325 6.33534 0.02058
C 13.5046 4.91784 -0.01957
C 12.28202 4.25463 -0.0108
C 12.3436 2.86084 -0.00368
C 13.51604 2.13757 -0.02696
C 13.4944 0.70162 -0.00114
C 12.24303 0.0462 0.00228
C 14.70867 32.64644 0.00798
C 15.934 31.93684 0.00422
C 15.94484 30.57531 0.0351
C 14.80435 29.77611 -0.03113
C 14.72384 28.34498 0.02098
C 15.96868 27.62487 0.01848
C 15.93917 26.22275 -0.00619
C 14.73744 25.52886 -0.02162
C 14.70101 24.11924 0.00889
C 16.00073 23.41539 -0.00481
C 16.03722 22.03872 0.00979
C 14.74862 21.35762 0.01443
C 16.09913 19.18872 -0.02815
C 9.8039 28.40814 0.02339
C 9.80753 29.85357 -0.00334
C 11.0948 30.5927 -0.01634
C 2.48657 4.20757 0.0174
C 2.45931 2.86252 0.03828
C 3.63772 2.18552 0.01226
C 3.66177 0.71756 -0.00279
C 2.43038 0.00884 0.01996
C 4.91929 32.71948 -0.03996
C 6.17295 31.92217 0.01465
C 6.164 30.5567 -0.00074
C 4.9599 29.83504 -0.00518
C 4.87861 28.42639 0.0086
C 6.08047 27.77622 -0.00643
C 6.13421 26.31037 0.017
C 4.90597 25.56455 -0.03113
C 4.89838 24.15698 -0.02566
C 6.10457 23.44468 -0.00094
C 6.20682 21.97268 0.02322
C 4.98518 21.28896 -0.00725
C 4.91283 19.83719 -0.05697
C 6.20903 19.1214 0.01087
C 6.1462 17.74212 -0.01343
C 4.83805 17.02952 0.00988
C 3.66129 5.0637 0.0073
C 4.91463 15.62125 0.0276
C 3.74693 6.40857 0.00402
C 2.44422 8.5489 0.03267
C 3.75076 30.50544 -0.00449
C 2.44219 29.77645 -0.01979
C 2.47283 28.35402 0.02784
C 3.60761 27.65102 -0.01977
C 3.66441 26.33099 -0.00561
C 2.42111 25.61 0.00208
C 2.44239 24.16636 0.01707
C 3.70739 23.4549 0.02769
C 3.72285 21.94111 -0.03291
C 2.50472 21.31712 -0.04999
C 2.50538 19.93523 0.04505
C 3.69244 19.19531 0.03284
C 3.62546 17.73524 -0.04307
C 2.38092 16.96461 0.03189
C 2.42449 15.56599 0.00031
C 3.72032 14.90863 -0.003
C 3.70909 13.47771 0.01402
C 2.45785 12.83701 0.02379
C 2.45714 11.44329 0.00907
C 3.64289 10.67123 0.00643
C 3.71883 9.2409 -0.01509
C 2.53265 7.07714 0.02374
C 17.15179 8.61587 0.01739
C 6.08889 14.83542 0.01305
C 4.89491 12.76577 0.03368
C 8.55274 19.19165 0.00393
C 8.53251 17.71878 0.00895
C 7.35912 17.00887 0.00685
C 7.34079 15.64254 0.02888
C 8.57904 14.9127 -0.00482
C 8.65912 13.42472 -0.01384
C 7.34989 12.80621 0.03693
C 7.35778 11.4132 0.01745
C 8.61794 10.67328 0.00488
C 8.58737 9.24333 -0.01004
C 7.36054 8.53609 -0.02896
C 7.42301 7.13774 -0.00131
C 8.59606 6.4177 -0.01118
C 8.56759 5.0154 -0.014
C 7.41853 4.26603 0.02147
C 7.40759 2.90426 0.00373
C 8.62551 2.17736 -0.00191
C 8.6525 0.7873 0.00438
C 7.37039 0.09633 0.01291
C 9.82834 32.68951 0.00093
C 11.08304 32.00271 0.00057
C 7.3216 19.90223 0.0288
C 6.14795 13.50492 -0.00077
C 7.38851 21.27276 -0.0008
C 8.62975 23.42722 -0.00892
C 4.86397 11.42015 -0.02929
C 6.10692 10.69739 -0.00966
C 6.14285 9.26697 -0.03337
C 4.86286 8.54098 0.01227
C 4.90005 7.13461 0.00873
C 6.17019 6.38661 -0.00049
C 6.1828 4.95252 0.00848
C 4.84819 4.34503 -0.01303
C 4.89317 2.87456 -0.01378
C 6.19696 2.22811 0.02635
C 6.13701 0.69926 0.0127
C 4.88883 0.04844 0.01396
C 7.32982 32.67398 0.01849
C 8.60611 31.96655 -0.01142
C 8.57333 30.57532 -0.00562
C 7.28351 29.81894 -0.00494
C 7.30637 28.38827 0.00054
C 8.57095 27.65073 0.03007
C 8.60205 26.3009 -0.00095
C 7.31599 25.57462 0.01572
C 7.37548 24.18688 -0.04848
C 8.62078 21.97685 -0.01362
C 17.22637 7.12733 0.00755
C 18.46484 6.4132 -0.0054
C 18.51439 5.00856 0.00667
C 29.54287 7.13882 0.01518
C 30.71194 6.3662 0.01908
C 30.70935 4.97534 0.07705
C 29.4872 4.28429 0.0103
C 29.47526 2.87728 0.02108
C 30.77795 2.1292 0.00716
C 30.75237 0.66797 0.00307
C 29.56352 34.04339 0.00346
C 31.96545 32.68192 0.01713
C 33.19046 31.98347 -0.01694
C 33.20911 30.53425 0.01428
C 31.96756 29.79684 -0.02142
C 31.9585 28.37319 0.0544
C 33.19546 27.72736 0.00026
C 33.23916 26.32983 0.00682
C 31.98963 25.4799 -0.01779
C 32.02625 24.07801 0.03794
C 33.23513 23.45023 0.01927
C 33.19517 22.05243 0.01574
C 31.97275 21.26325 -0.02383
C 31.9105 19.88992 -0.01429
C 29.56716 8.49337 -0.00971
C 33.14327 19.13292 -0.0136
C 30.71077 9.21219 -0.03735
C 29.48875 11.3352 -0.02155
C 27.01177 0.01937 -0.00416
C 29.55478 32.65116 0.01177
C 30.74867 31.8872 0.04266
C 30.78859 30.4899 0.01324
C 29.52072 29.83922 0.0014
C 29.59435 28.37046 0.00924
C 30.75155 27.59882 0.02326
C 30.76714 26.21408 0.00261
C 29.54549 25.50124 0.03265
C 29.46956 24.1094 -0.02049
C 30.76231 23.40318 -0.01854
C 30.77236 22.02456 -0.01415
C 29.49826 21.33095 -0.03039
C 29.53057 19.96439 0.01836
C 30.72428 19.1837 0.03531
C 30.76016 17.81033 -0.00669
C 29.46231 17.07265 0.0101
C 29.51927 15.63631 0.01705
C 30.76307 14.92364 -0.0405
C 30.79708 13.5521 -0.01303
C 29.56897 12.77204 -0.01461
C 30.69706 10.62423 -0.00944
C 28.2972 0.71302 0.01699
C 33.19013 17.75659 0.00594
C 32.02964 15.69204 0.00369
C 1.18462 21.92656 0.02712
C 34.37847 21.26208 -0.02213
C 34.42214 19.8531 0.01951
C 1.29965 19.16454 -0.01678
C 1.14311 17.70039 0.01223
C 34.33728 17.04461 0.00648
C 34.41972 15.56509 0.02114
C 1.18658 14.8867 -0.02957
C 1.20837 13.44209 0.00343
C 34.42875 12.85539 -0.02656
C 34.42933 11.41136 -0.02442
C 1.23094 10.66507 -0.00027
C 1.21402 9.22573 -0.00583
C 34.37582 8.4949 -0.02302
C 34.36106 7.11219 -0.02849
C 1.24653 6.40926 0.02931
C 1.27791 4.90475 0.00628
C 0.0044 4.25696 -0.0345
C 34.38714 2.85992 -0.00931
C 1.21577 2.17014 -0.00939
C 1.21914 0.79698 -0.00468
C 1.19209 23.44361 0.00723
C 31.95014 17.03869 -0.02474
C 1e-05 24.20652 0.03076
C 1.22809 26.26464 -0.00598
C 33.21871 14.8862 0.00455
C 33.16256 13.44564 -0.00644
C 31.95817 12.75786 -0.01839
C 31.92771 11.37855 0.00137
C 33.17257 10.74129 0.00199
C 33.19447 9.17684 0.04381
C 31.94448 8.50602 0.02806
C 31.90943 7.08083 0.01504
C 33.16777 6.41158 -0.00069
C 33.24313 4.97017 0.04926
C 31.89374 4.22367 -0.03838
C 31.94116 2.80454 0.00349
C 33.21655 2.12481 -0.00323
C 33.19533 0.65703 -0.00841
C 31.93735 34.07713 0.0001
C 0.03907 32.63057 -0.02927
C 1.25619 31.92822 -0.01404
C 1.27281 30.53633 0.01027
C 34.43171 29.8034 0.01831
C 0.02022 28.32839 -0.01037
C 1.21683 27.66908 -0.00439
C 34.39369 25.57138 -0.05239
C 3.70082 31.94757 0.00211
C 28.35663 2.10907 0.01799
C 27.06212 4.29958 0.01495
C 23.26624 30.52326 0.01511
C 22.03827 29.77199 -0.00478
C 22.12437 28.32278 -0.01662
C 23.31602 27.67941 -0.01185
C 23.38629 26.25897 0.01126
C 22.1718 25.55773 0.01852
C 22.02875 24.14547 -0.00381
C 23.27729 23.37842 0.03046
C 23.33828 21.98349 0.0296
C 22.18266 21.26928 0.03374
C 22.21544 6.98739 -0.02845
C 23.42573 6.36631 -0.03213
C 23.37663 4.93817 0.02239
C 22.05272 4.27137 0.01153
C 22.12253 2.76556 0.02734
C 23.32921 2.09363 -0.0055
C 23.33527 0.72043 0.01515
C 22.18056 34.01632 -0.00225
C 24.68561 32.61546 0.00071
C 25.80145 31.89041 -0.01107
C 25.79257 30.5062 -0.01586
C 23.39372 31.94648 0.00199
C 24.56168 29.79465 -0.01971
C 22.19421 32.67078 0.01087
C 20.85983 0.7023 0.00096
C 17.2714 4.28671 0.00143
C 17.32502 2.82716 -0.017
C 18.57436 2.14092 0.00364
C 18.49289 0.80965 -0.00831
C 17.24385 0.05305 -0.02957
C 19.70321 32.58381 -0.04422
C 20.92143 31.93968 0.00654
C 20.92507 30.57725 -0.00703
C 19.65141 29.87429 -0.04076
C 19.65283 28.40713 -0.00652
C 20.89517 27.71076 0.0058
C 20.8854 26.30136 -0.00865
C 19.67008 25.54438 0.00675
C 19.70272 24.15878 -0.00311
C 20.85921 23.49146 0.00742
C 20.91455 21.89587 -0.01594
C 19.67063 21.40061 0.0106
C 19.72228 7.11676 -0.01154
C 20.95639 6.37113 -0.01721
C 20.79587 4.92264 -0.02422
C 20.90826 2.08538 0.01277
C 19.64039 34.00949 -0.01527
C 27.22618 2.88888 0.01259
C 24.52968 28.44488 -0.02118
C 25.81337 26.30337 -0.00178
C 28.29721 26.23556 -0.00802
C 26.9637 25.56576 -0.00218
C 26.95617 24.1683 -0.01654
C 28.19955 23.42409 -0.00037
C 28.23958 21.99112 -0.0032
C 27.07307 21.2327 0.00622
C 26.98869 19.84421 -0.02815
C 28.26871 19.17602 -0.00942
C 28.23203 17.77408 0.00487
C 26.93083 16.99608 0.00826
C 27.03473 15.62981 -0.00294
C 28.24979 14.9305 0.00152
C 28.25787 13.45258 0.01257
C 27.05516 12.77464 0.02316
C 27.03234 11.26055 0.04185
C 28.33956 10.62602 0.00194
C 28.29053 9.20083 -0.00621
C 27.06468 8.52789 0.02611
C 27.17138 7.19606 0.02198
C 28.31167 6.40261 0.01094
C 28.23218 4.92642 0.00235
C 28.27193 27.66323 0.00195
C 25.79173 27.73314 0.00733
C 26.99503 28.44648 0.00996
C 28.31368 30.50391 0.00367
C 24.67333 25.58517 0.00768
C 24.60131 24.14933 -0.0276
C 25.78549 23.43507 0.03005
C 25.81623 21.95042 -0.04078
C 24.57932 21.31176 0.02117
C 24.61884 19.93707 0.02737
C 25.71447 19.11418 -0.00498
C 25.78082 17.74761 0.00135
C 25.86123 10.58307 0.03102
C 25.7409 9.2304 0.02555
C 24.60004 8.45628 0.01423
C 24.62026 7.08808 -0.00285
C 25.86565 6.45982 -0.009
C 25.84389 5.03306 -0.01199
C 24.58157 4.25712 -0.00229
C 24.5777 2.82252 -0.00938
C 25.88277 2.19383 -0.0264
C 25.81934 0.7823 -0.01154
C 24.63081 34.07318 0.00684
C 27.04539 32.59389 -0.01052
C 28.34545 31.93597 -0.01679
C 27.00448 29.8753 0.04306
C 2.49376 32.67525 0.0064
