418
Graphene
C 0.03127 34.0789 0.01295
C 12.30846 25.70267 0.02841
C 12.28942 24.16117 -0.01111
C 13.4948 23.46128 -0.01275
C 13.49466 22.08994 0.00985
C 12.25795 21.35388 -0.02245
C 12.29653 19.92263 -0.00428
C 13.48103 19.1064 0.03101
C 13.46209 17.67354 -0.01536
C 12.28111 16.98671 -0.02689
C 12.34732 15.54703 -0.01046
C 13.5352 26.35291 0.00943
C 13.55453 14.93519 -0.00891
C 12.26587 12.81757 0.00165
C 12.26851 11.38479 -0.02971
C 13.56054 10.59288 0.02894
C 13.53347 9.16034 -0.01789
C 12.3325 8.42215 0.00444
C 12.32633 6.95578 -0.00925
C 13.45711 6.29908 0.01877
C 13.48208 4.9017 0.01363
C 12.19949 4.23779 -0.02162
C 12.17855 2.92279 0.00415
C 13.54518 13.48447 0.02819
C 13.51366 2.15967 -0.0014
C 13.52579 27.7606 0.00406
C 12.29465 29.92684 0.00572
C 11.10177 19.1692 -0.02896
C 11.07855 17.72828 -0.00131
C 9.86364 17.08266 -0.01118
C 9.88028 15.7002 -0.014
C 11.07866 14.91851 0.02147
C 11.09735 13.49931 0.00373
C 9.87285 12.88368 -0.00191
C 9.88964 11.39498 0.00438
C 11.10847 10.65249 0.01291
C 11.12013 9.14992 0.00093
C 12.31583 28.47014 0.03592
C 9.82769 8.46976 0.00057
C 11.02499 6.32307 -0.00334
C 10.95074 4.87238 0.02339
C 9.6671 4.26149 0.01641
C 9.6388 2.83385 -0.00719
C 10.97728 2.10906 0.01364
C 11.03326 0.71185 -0.01062
C 9.80769 0.11994 -0.00033
C 12.22311 32.76254 0.03589
C 13.49919 32.01891 -0.02759
C 13.52193 30.6558 0.0402
C 9.85426 7.09353 -0.01634
C 9.854 19.90543 -0.01004
C 13.58337 0.75178 0.02162
C 14.7559 32.73625 0.01241
C 14.74094 4.2404 0.01848
C 14.68981 2.84983 -0.00619
C 15.92407 2.14098 -0.02162
C 16.07589 0.64966 0.00889
C 14.86551 0.05498 -0.00481
C 17.26663 32.69288 0.00979
C 18.43971 31.89888 0.01443
C 18.36105 30.53727 0.03505
C 17.22022 29.77294 -0.02815
C 17.14369 28.34013 -0.04147
C 16.03341 4.90853 0.02098
C 18.43945 27.65656 -0.05302
C 17.27077 25.61452 -0.00066
C 17.19726 24.16711 -0.00289
C 18.304 23.41173 0.00028
C 17.09402 21.32069 -0.02213
C 17.17116 17.02892 0.03698
C 17.2757 15.69469 -0.00109
C 18.46854 14.99518 -0.00491
C 18.46493 13.52524 0.03338
C 17.22087 12.79867 -0.0258
C 17.22728 11.34558 -0.0331
C 18.44193 26.24679 0.00213
C 12.36745 0.07339 0.0076
C 16.04025 6.31749 -0.03113
C 14.78408 8.38826 0.00422
C 16.01979 32.01745 -0.01454
C 15.94127 30.55053 0.01945
C 14.74333 29.90086 0.01416
C 14.7315 28.50221 0.03542
C 15.89226 27.70796 0.02299
C 15.9432 26.32772 0.00244
C 14.79543 25.59606 -0.01717
C 14.7418 24.14756 0.05265
C 15.92045 23.42258 -0.01952
C 15.85193 21.9685 -0.02813
C 14.77891 6.9914 0.0351
C 14.66289 21.25664 0.00374
C 15.91063 19.24196 -0.03682
C 16.0444 17.84061 0.01965
C 14.71038 17.09265 0.02058
C 14.76325 15.64014 -0.01957
C 16.05837 14.87199 -0.0108
C 15.95676 13.52846 -0.00368
C 14.75294 12.82914 -0.02696
C 14.75813 11.40852 -0.00114
C 15.95607 10.63082 0.00228
C 15.94988 9.2558 0.00798
C 14.70033 19.79186 0.00052
C 9.80476 21.29012 0.00488
C 11.03703 22.05377 0.01745
C 10.97668 23.48329 0.03693
C 2.45522 2.7757 0.01707
C 3.66998 2.1494 0.02769
C 3.65542 0.6659 -0.03291
C 2.44404 34.05 -0.04999
C 4.84669 32.66056 0.04505
C 6.17122 31.98435 0.03284
C 6.1458 30.58941 -0.04307
C 4.95506 29.87955 0.03189
C 4.92141 28.44632 0.00031
C 6.16432 27.71459 -0.003
C 2.43349 4.34713 0.00208
C 6.21621 26.30731 0.01402
C 4.94112 24.06941 0.00907
C 6.10308 23.44054 0.00643
C 6.07894 22.0434 -0.01509
C 4.88463 21.38609 0.03267
C 4.92906 19.88236 0.02374
C 6.11137 19.21788 0.00402
C 6.14744 17.80346 0.0073
C 4.95447 17.10086 0.0174
C 4.97249 15.68975 0.03828
C 6.20322 14.87215 0.01226
C 4.99882 25.53168 0.02379
C 6.14399 13.43591 -0.00279
C 3.70836 4.98659 -0.00561
C 2.43964 7.09179 0.02784
C 3.72533 30.50455 -0.0154
C 2.46174 29.74556 -0.01299
C 2.48696 28.40487 -0.00407
C 3.67694 27.67461 0.01138
C 3.73638 26.23688 0.03278
C 2.46385 25.58743 -0.00177
C 2.4324 24.146 0.04421
C 3.6537 23.44427 0.00088
C 3.60592 22.02516 0.00828
C 2.36396 21.28349 -0.02375
C 3.67372 6.48027 -0.01977
C 2.44128 19.89071 0.00558
C 3.65203 17.81697 -0.01386
C 2.51359 17.07383 -0.02805
C 2.53294 15.65588 0.00081
C 3.75132 14.93113 0.00245
C 3.59455 13.44359 0.02728
C 2.43294 12.81513 -0.00039
C 2.44619 11.29851 0.0064
C 3.67712 10.56105 0.00211
C 3.67107 9.22833 -0.00449
C 2.3756 8.51214 -0.01979
C 3.69397 19.26067 -0.0059
C 4.81272 12.66844 0.01996
C 4.81656 11.34581 -0.03996
C 6.17667 10.6876 0.01465
C 8.65817 14.9416 0.02635
C 8.55486 13.54424 0.0127
C 7.36986 12.79988 0.01396
C 7.39602 11.37998 0.01849
C 8.62922 10.6785 -0.01142
C 8.7024 9.27012 -0.00562
C 7.42031 8.59127 -0.00494
C 7.34938 7.21414 0.00054
C 8.58011 6.39818 0.03007
C 8.58609 5.06139 -0.00095
C 7.34732 15.56345 -0.01378
C 8.34301 2.19118 0.01572
C 7.31007 0.10064 -0.00892
C 9.73919 32.76763 -0.01362
C 11.04316 32.03296 -0.0008
C 11.04314 30.57147 0.0288
C 9.82691 29.88553 0.00393
C 9.79954 28.48261 0.00895
C 11.09621 27.75813 0.00685
C 11.11422 26.33973 0.02888
C 9.86932 25.60962 -0.00482
C 9.81885 24.18837 -0.01384
C 8.54287 0.87232 -0.04848
C 7.39828 17.04736 -0.01303
C 8.58808 17.80534 0.00848
C 8.63045 19.16745 -0.00049
C 6.16301 9.29842 -0.00074
C 4.86114 8.48619 -0.00518
C 4.90991 7.14688 0.0086
C 6.20773 6.39698 -0.00643
C 6.19232 5.06343 0.017
C 4.93196 4.35026 -0.03113
C 4.93751 2.86359 -0.02566
C 6.02345 2.06428 -0.00094
C 6.05804 0.70926 0.02322
C 4.84717 0.02765 -0.00725
C 7.29384 32.7563 -0.05697
C 8.56951 32.04087 0.01087
C 8.59206 30.55946 -0.01343
C 7.38199 29.88004 0.00988
C 7.37233 28.42385 0.0276
C 8.6164 27.7142 0.01305
C 8.66522 26.3278 -0.00077
C 7.46554 25.60345 0.03368
C 7.36605 24.23695 -0.02929
C 8.54491 23.47366 -0.00966
C 8.53889 22.04177 -0.03337
C 7.34779 21.29704 0.01227
C 7.28433 19.93908 0.00873
C 18.45434 10.62291 -0.00316
C 18.43754 9.20349 0.02188
C 17.20749 8.51327 -0.01979
C 17.2042 7.08175 0.02691
C 29.51322 11.38112 -0.02155
C 30.74335 10.63721 -0.00944
C 30.73551 9.21618 -0.03735
C 29.54552 8.47777 -0.00971
C 29.57457 7.05275 0.01518
C 30.7954 6.36298 0.01908
C 30.71076 4.92626 0.07705
C 29.50071 4.23737 0.0103
C 29.54132 2.81386 0.02108
C 30.71197 2.05191 0.00716
C 29.49188 12.75682 -0.01461
C 30.80055 0.66909 0.00307
C 31.94623 32.64809 0.01713
C 33.12037 31.88165 -0.01694
C 33.19829 30.50383 0.01428
C 31.97878 29.77858 -0.02142
C 31.9567 28.36464 0.0544
C 33.2158 27.67032 0.00026
C 33.18182 26.22894 0.00682
C 31.99981 25.5048 -0.01779
C 31.94643 24.10243 0.03794
C 33.18735 23.41277 0.01927
C 29.57617 0.05522 0.00346
C 33.15679 21.99071 0.01574
C 30.71993 13.41275 -0.01303
C 29.46668 15.57961 0.01705
C 28.30847 4.9992 0.00235
C 27.05393 4.36153 0.01495
C 27.04625 2.89539 0.01259
C 28.30142 2.22241 0.01799
C 28.29569 0.75338 0.01699
C 27.09441 0.04559 -0.00416
C 29.54659 32.73881 0.01177
C 30.7281 31.97631 0.04266
C 30.71825 30.54533 0.01324
C 29.55516 29.86863 0.0014
C 30.70956 14.8586 -0.0405
C 29.52554 28.42732 0.00924
C 30.76218 26.24196 0.00261
C 29.45938 25.5555 0.03265
C 29.53279 24.21799 -0.02049
C 30.77175 23.43522 -0.01854
C 30.73704 22.00413 -0.01415
C 29.41573 21.22681 -0.03039
C 29.46335 19.86466 0.01836
C 30.71908 19.15856 0.03531
C 30.64699 17.75995 -0.00669
C 29.43843 16.99751 0.0101
C 30.72398 27.72809 0.02326
C 31.959 21.2919 -0.02383
C 31.92327 19.89523 -0.01429
C 33.15897 19.18703 -0.0136
C 1.18112 23.39212 0.00723
C 1.22805 21.99603 0.02712
C 0.0351 21.23419 -0.02213
C 0.01874 19.80691 0.01951
C 1.22781 19.17816 -0.01678
C 1.212 17.74904 0.01223
C 34.40943 17.08799 0.00648
C 0.02563 15.69401 0.02114
C 1.29927 14.95868 -0.02957
C 1.24109 13.53252 0.00343
C 34.40931 24.03227 0.03076
C 34.42061 12.79906 -0.02656
C 1.20769 10.57997 -0.00027
C 1.15239 9.18858 -0.00583
C 34.4073 8.51348 -0.02302
C 34.38685 7.10664 -0.02849
C 1.18322 6.43216 0.02931
C 1.20228 4.95009 0.00628
C 34.36239 4.29378 -0.0345
C 34.36682 2.83688 -0.00931
C 1.23468 2.12819 -0.00939
C 1.26791 0.68979 -0.00468
C 0.00432 11.34508 -0.02442
C 34.41648 25.47047 -0.05239
C 1.18182 26.20266 -0.00598
C 1.23876 27.61091 -0.00439
C 33.11306 17.78732 0.00594
C 31.91357 16.94934 -0.02474
C 31.93117 15.58615 0.00369
C 33.23247 14.93107 0.00455
C 33.13644 13.47257 -0.00644
C 31.97144 12.72575 -0.01839
C 31.96962 11.35112 0.00137
C 33.26335 10.62304 0.00199
C 33.20997 9.19205 0.04381
C 31.92677 8.47132 0.02806
C 31.94611 7.06814 0.01504
C 33.19219 6.30219 -0.00069
C 33.15137 4.90462 0.04926
C 31.94849 4.12521 -0.03838
C 31.91198 2.74977 0.00349
C 33.19952 2.06578 -0.00323
C 33.22548 0.71111 -0.00841
C 32.04631 34.00777 0.0001
C 34.3764 32.65969 -0.02927
C 1.13906 31.94318 -0.01404
C 1.19601 30.46035 0.01027
C 34.41983 29.74003 0.01831
C 0.01062 28.34245 -0.01037
C 28.32248 6.47673 0.01094
C 3.62129 31.92758 0.00662
C 27.12643 7.14312 0.02198
C 28.28012 9.28833 -0.00621
C 20.91003 2.19915 0.0106
C 20.9625 0.65745 -0.01154
C 19.72809 34.07449 -0.01721
C 22.11231 32.62534 -0.02422
C 23.41628 31.92984 0.01277
C 23.36225 30.51035 0.00096
C 22.11304 29.7532 -0.01527
C 22.10005 28.37101 0.01087
C 23.37046 27.71193 0.00199
C 23.40058 26.25075 0.01511
C 19.64688 2.93664 -0.01594
C 22.13275 25.55856 -0.00478
C 23.36837 13.5083 -0.01185
C 22.1328 12.80806 0.01126
C 22.13222 11.3815 0.01852
C 23.2935 10.64876 -0.00381
C 23.38269 9.16949 0.03046
C 22.07456 8.56365 0.0296
C 22.09017 7.13374 0.03374
C 23.30014 6.45353 -0.02845
C 23.27775 4.99826 -0.03213
C 22.08004 4.23319 0.02239
C 23.39626 14.93325 -0.01662
C 22.10454 2.82783 0.01153
C 19.63735 4.2914 0.00742
C 20.87798 6.44533 0.00675
C 18.43339 6.41657 -0.01581
C 18.40374 5.05347 0.01452
C 17.24253 4.22299 0.04892
C 17.26799 2.81415 -0.00111
C 18.4689 2.13301 -0.03557
C 18.62584 0.77495 0.03754
C 17.26074 0.00684 0.01739
C 19.72467 32.5753 0.00755
C 20.91906 31.92066 -0.0054
C 20.87467 30.48996 0.00667
C 20.90134 4.97852 -0.00311
C 19.69738 29.7925 0.00143
C 20.92194 27.62123 0.00364
C 19.78175 15.45176 -0.00831
C 20.82186 14.83827 -0.02957
C 20.95777 13.47628 -0.04422
C 19.64327 12.7385 0.00654
C 19.64494 11.33106 -0.00703
C 20.86138 10.72545 -0.04076
C 20.87912 9.25318 -0.00652
C 19.71897 8.49149 0.0058
C 19.69244 7.14109 -0.00865
C 19.68027 28.36216 -0.017
C 23.41108 2.18057 0.02734
C 23.36866 0.65228 -0.0055
C 22.16749 34.02023 0.01515
C 27.08055 32.7209 -0.01052
C 28.254 31.96783 -0.01679
C 28.32153 30.53097 0.00367
C 27.10224 29.80113 0.04306
C 27.04627 28.38326 0.00996
C 28.30115 27.71282 0.00195
C 28.28606 26.31329 -0.00802
C 27.04758 25.55537 -0.00218
C 27.09569 24.08156 -0.01654
C 28.27144 23.32753 -0.00037
C 24.61546 33.99666 0.00684
C 28.21339 21.92997 -0.0032
C 27.06158 19.97868 -0.02815
C 28.11572 19.13457 -0.00942
C 28.1925 17.73772 0.00487
C 26.92384 17.00794 0.00826
C 26.97215 15.55889 -0.00294
C 28.24778 14.89213 0.00152
C 28.23837 13.49422 0.01257
C 27.00542 12.8405 0.02316
C 27.05834 11.36195 0.04185
C 28.2546 10.64664 0.00194
C 26.97241 21.27082 0.00622
C 25.78854 0.76241 -0.01154
C 25.84548 2.17405 -0.0264
C 24.60277 2.83329 -0.00938
C 24.62322 32.5854 -0.00225
C 25.90116 31.93784 0.00071
C 25.80873 30.49365 -0.01107
C 24.63018 29.85118 -0.01586
C 24.60142 28.4525 -0.01971
C 25.80585 27.63293 -0.02118
C 25.77157 26.19476 0.00733
C 24.53172 25.40192 -0.00178
C 24.71711 23.90461 0.00768
C 25.88241 23.55947 -0.0276
C 25.73845 17.68451 0.03005
C 24.48351 15.65777 -0.04078
C 25.69765 14.92846 0.02117
C 25.7919 13.47796 0.02737
C 24.54963 12.68425 -0.00498
C 24.56391 11.31602 0.00135
C 25.82908 10.70364 0.03102
C 25.83482 9.26694 0.02555
C 24.60789 8.44192 0.01423
C 24.59557 7.13667 -0.00285
C 25.82939 6.45349 -0.009
C 25.80779 5.00506 -0.01199
C 24.57034 4.33292 -0.00229
C 27.05447 8.53123 0.02611
C 2.39151 32.65296 0.00748
