381
Graphene
C 34.38781 34.06312 0.01295
C 15.91099 6.51358 -0.01454
C 15.9218 5.02142 0.01945
C 14.71705 4.32149 0.01416
C 14.73124 2.95457 0.03542
C 15.92749 2.12409 0.02299
C 15.94378 0.6838 0.00244
C 14.76023 0.04765 -0.01717
C 17.25921 32.6246 0.05265
C 18.45578 31.90937 -0.01952
C 18.48866 30.43627 -0.02813
C 17.24269 29.76028 0.00374
C 17.29551 28.39688 0.00052
C 18.5182 27.64656 -0.03682
C 18.46143 26.21777 0.01965
C 17.23388 25.548 0.02058
C 17.23297 24.16998 -0.01957
C 18.42328 23.39319 -0.0108
C 18.44089 21.95641 -0.00368
C 17.18461 21.21005 -0.02696
C 14.75969 7.18571 0.01241
C 14.71403 8.54012 0.0076
C 15.92215 9.34437 0.02162
C 15.9764 10.65396 -0.0014
C 13.59382 0.78712 -0.01275
C 12.28011 0.03489 0.00985
C 14.68994 32.60969 -0.02245
C 15.95023 31.91648 -0.00428
C 15.99875 30.51453 0.03101
C 14.76056 29.82273 -0.01536
C 14.76222 28.46039 -0.02689
C 16.04176 27.80781 -0.01046
C 16.00695 26.34667 -0.00891
C 17.22238 19.78988 -0.00114
C 14.81955 25.61616 0.02819
C 16.06515 23.43792 -0.02971
C 16.03469 21.94666 0.02894
C 14.79486 21.25711 -0.01789
C 14.70089 19.89685 0.00444
C 15.94899 19.182 -0.00925
C 15.90066 17.66547 0.01877
C 14.7634 16.87677 0.01363
C 15.98833 14.92939 -0.02162
C 16.13763 13.61188 0.00415
C 14.82305 24.20427 0.00165
C 18.43789 19.15148 0.00228
C 18.46852 17.76529 0.00798
C 17.24603 17.00975 0.00422
C 19.66709 23.9845 -0.0331
C 20.88884 23.36211 -0.00316
C 20.85189 21.94688 0.02188
C 19.63826 21.21435 -0.01979
C 19.63429 19.89757 0.02691
C 20.93553 19.19109 -0.01581
C 20.94366 17.7777 0.01452
C 19.69669 17.12575 0.04892
C 19.7104 15.66519 -0.00111
C 19.72874 25.46608 -0.0258
C 20.97733 14.93488 -0.03557
C 19.6422 12.76642 0.01739
C 19.61605 11.34114 0.00755
C 20.93504 10.5521 -0.0054
C 20.86555 9.15767 0.00667
C 19.62941 8.45415 0.00143
C 19.6438 7.04559 -0.017
C 20.89922 6.31032 0.00364
C 20.84354 4.91227 -0.00831
C 19.55569 4.24171 -0.02957
C 20.98262 13.44937 0.03754
C 13.55067 2.20824 -0.01111
C 20.95435 26.15241 0.03338
C 19.68201 28.2943 -0.00109
C 17.13792 15.69782 0.0351
C 18.45074 15.00904 -0.03113
C 18.46836 13.57346 0.02098
C 17.23655 12.78503 0.01848
C 17.2031 11.35241 -0.00619
C 18.44533 10.60046 -0.02162
C 18.45528 9.17295 0.00889
C 17.1955 8.54717 -0.00481
C 17.18009 7.12002 0.00979
C 20.94058 27.58492 -0.00491
C 18.45496 6.37371 0.01443
C 17.12971 4.29326 -0.02815
C 17.1487 2.88758 -0.04147
C 18.4093 2.15421 -0.05302
C 18.42696 0.67509 0.00213
C 17.17734 34.07461 -0.00066
C 19.64168 32.58589 -0.00289
C 20.84525 31.84794 0.00028
C 20.93218 30.41126 -0.02213
C 19.698 29.72921 0.03698
C 18.36087 4.97794 0.03505
C 12.25311 2.94108 0.02841
C 12.26488 4.32987 0.00943
C 13.52491 5.02028 0.00406
C 2.45009 34.01204 -0.00725
C 6.04143 27.73571 -0.05697
C 6.09177 26.36646 0.01087
C 4.85481 25.5836 -0.01343
C 4.90191 24.22858 0.00988
C 6.1503 23.43319 0.0276
C 6.13896 22.00312 0.01305
C 4.92515 21.23759 -0.00077
C 4.97358 19.80751 0.03368
C 3.59354 0.76273 0.02322
C 6.23557 19.29872 -0.02929
C 4.73775 7.05465 -0.03337
C 6.06656 6.80473 0.01227
C 6.22551 0.14841 0.00873
C 4.92944 0.59124 -0.00049
C 8.64243 31.95699 0.00848
C 8.51233 27.6463 -0.01303
C 8.56273 26.23982 -0.01378
C 7.32534 25.55018 0.02635
C 7.32443 24.21565 0.0127
C 4.86627 8.46485 -0.00966
C 8.61379 23.44885 0.01396
C 3.75721 2.26572 -0.00094
C 2.41771 4.41947 -0.03113
C 2.51152 28.55009 0.02379
C 3.68062 27.70028 0.00907
C 3.66055 26.40009 0.00643
C 2.44019 25.61446 -0.01509
C 2.49273 24.12997 0.03267
C 3.63542 23.39652 0.02374
C 3.68274 21.95943 0.00402
C 2.37274 21.24843 0.0073
C 2.42933 19.88817 0.0174
C 2.63501 2.93989 -0.02566
C 3.68796 19.17688 0.03828
C 2.65621 17.03451 -0.00279
C 2.44293 15.66318 0.01996
C 2.31876 12.74274 -0.03996
C 2.62766 11.39173 0.01465
C 3.7478 10.63029 -0.00074
C 3.81635 9.26447 -0.00518
C 2.41118 8.47476 0.0086
C 2.4622 7.0892 -0.00643
C 3.63059 6.28939 0.017
C 3.66069 17.87346 0.01226
C 19.59227 2.84752 -0.04422
C 8.63377 22.00679 0.01849
C 7.24667 20.05627 -0.00562
C 11.03845 2.18413 0.02147
C 11.04374 0.76758 0.00373
C 9.8431 0.04347 -0.00191
C 12.31986 32.67159 0.00438
C 13.51398 31.95639 0.01291
C 13.44336 30.45214 0.00093
C 12.15372 29.7594 0.00057
C 12.20287 28.4281 -0.01634
C 13.47954 27.73877 -0.00334
C 9.71989 2.88563 -0.014
C 13.54266 26.27936 0.02339
C 12.31686 24.1985 -0.00719
C 13.6388 23.45561 0.01364
C 13.6416 22.01569 -0.01062
C 12.31516 21.30718 -0.00033
C 12.37321 19.91979 0.03589
C 13.52907 19.30044 -0.02759
C 13.49158 9.29147 0.0402
C 12.32511 7.37292 0.00572
C 13.4892 6.467 0.03592
C 12.28807 25.55602 0.01641
C 7.37309 21.36707 -0.01142
C 9.8739 4.36765 -0.01118
C 11.05849 6.55725 -0.02896
C 7.29028 7.04317 -0.00494
C 8.53033 6.54506 0.00054
C 8.7722 5.26387 0.03007
C 8.52584 2.19463 -0.00095
C 8.69684 0.75854 0.01572
C 7.47249 0.203 -0.04848
C 9.83552 32.72543 -0.00892
C 11.08715 31.99497 -0.01362
C 10.97113 30.5662 -0.0008
C 11.11308 5.07266 -0.00131
C 9.69173 30.04616 0.0288
C 10.97495 27.63505 0.00895
C 11.06745 26.27574 0.00685
C 9.79621 25.59264 0.02888
C 9.84739 24.1747 -0.00482
C 11.07099 23.48272 -0.01384
C 11.11262 22.03989 0.03693
C 9.91686 21.31613 0.01745
C 9.83351 19.8804 0.00488
C 9.76721 6.89989 -0.01004
C 9.54906 28.53142 0.00393
C 2.3386 29.87726 0.01402
C 20.90627 2.06688 0.00654
C 19.6778 34.01808 -0.04076
C 29.44844 2.87023 0.02108
C 30.70066 2.16352 0.00716
C 30.78446 0.78111 0.00307
C 29.49092 0.02632 0.00346
C 31.94307 32.66214 0.01713
C 33.20735 31.97893 -0.01694
C 33.2185 30.53641 0.01428
C 31.97866 29.80448 -0.02142
C 31.99675 28.36488 0.0544
C 33.19992 27.66111 0.00026
C 33.16173 26.2512 0.00682
C 31.92451 25.57794 -0.01779
C 31.93123 24.12917 0.03794
C 33.09698 23.44076 0.01927
C 33.1851 22.07015 0.01574
C 31.92296 21.32389 -0.02383
C 31.94627 19.84355 -0.01429
C 33.17993 19.16857 -0.0136
C 33.13197 17.75306 0.00594
C 29.3702 4.23769 0.0103
C 30.61451 5.01022 0.07705
C 30.66569 6.3992 0.01908
C 29.40211 7.09545 0.01518
C 30.7732 31.96216 0.00924
C 30.77369 30.53528 0.02326
C 29.50542 29.86212 0.00261
C 29.55327 28.4654 0.03265
C 30.74548 27.7714 -0.02049
C 30.70755 26.27794 -0.01854
C 29.37158 25.53195 -0.01415
C 29.43962 24.12631 -0.03039
C 30.69648 23.42232 0.01836
C 31.77723 16.92798 -0.02474
C 30.7576 22.01566 0.03531
C 29.52187 19.89691 0.0101
C 30.7305 19.17719 0.01705
C 30.58864 17.72368 -0.0405
C 30.88388 13.70289 -0.01303
C 29.57024 13.0423 -0.01461
C 29.6273 11.52433 -0.02155
C 30.80036 10.617 -0.00944
C 30.71626 9.23504 -0.03735
C 29.505 8.55585 -0.00971
C 29.535 21.32033 -0.00669
C 31.90649 15.45435 0.00369
C 33.248 14.98273 0.00455
C 33.16997 13.53343 -0.00644
C 0.05723 21.3755 -0.02213
C 34.33691 19.91838 0.01951
C 1.17708 19.17065 -0.01678
C 1.21642 17.7763 0.01223
C 0.01502 17.07775 0.00648
C 0.05258 15.63105 0.02114
C 1.32668 14.93065 -0.02957
C 1.2651 13.57189 0.00343
C 34.38309 12.86405 -0.02656
C 1.26351 22.03281 0.02712
C 0.00528 11.40608 -0.02442
C 1.23458 9.28264 -0.00583
C 0.01977 8.49334 -0.02302
C 34.42802 7.05862 -0.02849
C 1.12086 6.32985 0.02931
C 1.15858 4.98213 0.00628
C 34.35195 4.25294 -0.0345
C 34.3982 2.87589 -0.00931
C 1.2684 2.113 -0.00939
C 1.24005 0.7012 -0.00468
C 1.25155 10.61323 -0.00027
C 29.57697 32.64769 0.0014
C 1.25108 23.4532 0.00723
C 34.36806 25.51345 -0.05239
C 32.01796 12.88191 -0.01839
C 32.04141 11.39065 0.00137
C 33.23697 10.69263 0.00199
C 33.19697 9.29289 0.04381
C 31.99225 8.53426 0.02806
C 31.95493 7.10459 0.01504
C 33.1571 6.43203 -0.00069
C 33.10622 5.02163 0.04926
C 31.89948 4.32882 -0.03838
C 34.41567 24.0978 0.03076
C 31.93346 2.9105 0.00349
C 33.14747 0.7122 -0.00841
C 31.93434 0.00228 0.0001
C 34.41171 32.70882 -0.02927
C 1.18151 32.00257 -0.01404
C 1.15999 30.57459 0.01027
C 34.41702 29.76717 0.01831
C 34.39671 28.43617 -0.01037
C 1.18965 27.67249 -0.00439
C 1.23445 26.22418 -0.00598
C 33.13936 2.13159 -0.00323
C 26.94848 34.0649 0.01324
C 28.2626 0.72822 0.04266
C 28.20461 2.11723 0.01177
C 22.10827 7.05458 0.0296
C 23.32038 6.37697 0.03374
C 23.30959 4.91127 -0.02845
C 22.02314 4.22131 -0.03213
C 22.04929 2.76366 0.02239
C 23.30917 2.06938 0.01153
C 23.34709 0.6509 0.02734
C 22.12289 34.01638 -0.0055
C 24.65224 32.62085 0.01515
C 22.12351 8.48526 0.03046
C 25.90437 31.90111 -0.00225
C 24.53612 29.79954 -0.01107
C 24.50017 28.34757 -0.01586
C 25.74914 27.64695 -0.01971
C 25.78673 26.24261 -0.02118
C 24.54836 25.52719 0.00733
C 24.60764 24.00807 -0.00178
C 25.77415 23.38679 0.00768
C 25.77483 21.98433 -0.0276
C 24.59612 21.31608 0.03005
C 25.85572 30.54965 0.00071
C 24.52577 19.92261 -0.04078
C 23.39035 9.16947 -0.00381
C 22.12032 11.30726 0.01126
C 22.07651 32.54441 -0.00652
C 23.37467 31.852 0.0058
C 23.32846 30.44989 -0.00865
C 22.10083 29.75255 0.00675
C 22.1238 28.31157 -0.00311
C 23.3393 27.58933 0.00742
C 23.34178 26.23047 -0.01594
C 22.10904 25.48635 0.0106
C 22.10919 24.08211 -0.01154
C 23.3795 10.5848 0.01852
C 23.30452 23.37227 -0.01721
C 22.11452 21.30189 0.01277
C 22.08741 19.85738 0.00096
C 23.37992 19.22173 -0.01527
C 23.32891 17.75186 0.01087
C 22.1113 17.10285 0.00199
C 22.17498 15.67458 0.01511
C 23.39471 14.84854 -0.00478
C 23.37857 13.42495 -0.01662
C 22.11081 12.78093 -0.01185
C 23.30661 21.99586 -0.02422
C 20.85992 0.60146 -0.00703
C 25.79481 19.14091 0.02117
C 24.56626 17.02555 -0.00498
C 26.99354 24.15309 -0.02815
C 28.20116 23.41388 -0.00942
C 28.29641 22.04679 0.00487
C 27.0227 21.31656 0.00826
C 27.05135 19.88148 -0.00294
C 28.27561 19.24554 0.00152
C 28.42139 17.76515 0.01257
C 27.31982 16.87581 0.02316
C 27.14702 15.45951 0.04185
C 27.04141 25.64511 0.00622
C 28.22671 13.55522 0.00194
C 27.11663 11.32952 0.02611
C 28.24287 10.63665 0.02198
C 28.32638 9.23645 0.01094
C 27.06055 8.54745 0.00235
C 27.01494 7.12552 0.01495
C 28.28522 6.39071 0.01259
C 28.21745 4.96246 0.01799
C 26.92848 4.27908 0.01699
C 26.99323 2.85009 -0.00416
C 27.07853 12.78291 -0.00621
C 25.86313 17.76764 0.02737
C 28.23033 26.29002 -0.0032
C 27.00122 28.3146 -0.01654
C 24.6413 15.61397 0.00135
C 25.91696 14.8857 0.03102
C 25.84145 13.45607 0.02555
C 24.63375 12.77144 0.01423
C 24.65724 11.28825 -0.00285
C 25.84523 10.64935 -0.009
C 25.79933 9.14631 -0.01199
C 24.57076 8.44066 -0.00229
C 24.59001 7.04142 -0.00938
C 28.21446 27.66759 -0.00037
C 25.7636 6.36325 -0.0264
C 24.52634 4.28242 0.00684
C 24.50118 2.84604 -0.01052
C 25.76931 2.10129 -0.01679
C 25.77147 0.66728 0.00367
C 24.59424 34.04565 0.04306
C 27.04784 32.62772 0.00996
C 28.31983 31.95019 0.00195
C 28.27619 30.52432 -0.00802
C 27.04351 29.80412 -0.00218
C 25.70966 4.94508 -0.01154
C 2.42881 32.57564 -0.003
