421
Graphene
C 0.03842 34.03041 0.01295
C 13.69542 26.47644 0.00406
C 12.45765 25.76409 0.00943
C 12.32575 24.28593 0.02841
C 13.50028 23.48455 -0.01111
C 13.44613 22.07516 -0.01275
C 12.26011 21.36678 0.00985
C 12.28454 19.87827 -0.02245
C 13.59676 19.27112 -0.00428
C 13.58248 17.74996 0.03101
C 12.34283 17.0482 -0.01536
C 13.50253 27.93533 0.03592
C 12.30874 15.58241 -0.02689
C 13.49471 13.43809 -0.00891
C 12.31786 12.63001 0.02819
C 12.229 11.3126 0.00165
C 13.50136 10.6328 -0.02971
C 13.46205 9.21048 0.02894
C 12.23561 8.45882 -0.01789
C 12.26724 7.02427 0.00444
C 13.47976 6.34158 -0.00925
C 13.48772 4.93572 0.01877
C 12.27296 4.17824 0.01363
C 13.50943 14.90179 -0.01046
C 12.19578 2.82206 -0.02162
C 12.26769 28.53569 0.00572
C 13.45861 30.52806 -0.02759
C 9.85588 19.90346 0.00488
C 11.08638 19.22172 -0.01004
C 11.05583 17.81056 -0.02896
C 9.80154 17.07507 -0.00131
C 9.83555 15.68242 -0.01118
C 11.06002 14.89526 -0.014
C 11.0627 13.44622 0.02147
C 9.83595 12.84962 0.00373
C 9.88901 11.33991 -0.00191
C 11.03942 10.64806 0.00438
C 12.25327 29.90113 0.0402
C 11.15092 9.25586 0.01291
C 9.75163 7.1185 0.00057
C 11.0075 6.39438 -0.01634
C 11.03567 4.9371 -0.00334
C 9.70407 4.27032 0.02339
C 9.73388 2.87557 0.01641
C 10.99166 2.17481 -0.00719
C 11.04306 0.73773 0.01364
C 9.76094 0.06671 -0.01062
C 12.33436 32.69652 -0.00033
C 13.63988 31.93399 0.03589
C 9.82847 8.5053 0.00093
C 13.55091 2.1684 0.00415
C 13.46679 0.78134 -0.0014
C 12.26049 34.02683 0.02162
C 18.35643 23.44499 0.02098
C 18.51483 21.99826 0.01848
C 17.26224 21.22373 -0.00619
C 17.15798 19.85811 -0.02162
C 18.38861 19.1867 0.00889
C 18.39135 17.73992 -0.00481
C 17.19939 17.06544 0.00979
C 17.24151 15.63717 0.01443
C 18.38723 14.89821 0.03505
C 18.41386 13.46506 -0.02815
C 17.22505 24.00576 -0.03113
C 17.20066 12.73851 -0.04147
C 18.39921 10.71126 0.00213
C 18.40809 9.23635 -0.00066
C 17.17108 8.47772 -0.00289
C 17.13846 7.09461 0.00028
C 18.3501 6.39983 -0.02213
C 18.32688 4.96448 0.03698
C 17.15085 4.23858 -0.00109
C 17.2268 2.84447 -0.00491
C 18.404 2.05281 0.03338
C 18.42327 0.56166 -0.0258
C 17.17209 11.34061 -0.05302
C 14.71601 0.10415 0.0351
C 15.96414 0.80417 0.00422
C 15.99642 2.22982 0.00798
C 14.80242 32.78362 0.0076
C 14.81724 25.65755 0.01241
C 14.69956 24.2047 -0.01454
C 15.91872 23.40603 0.01945
C 15.92437 21.97635 0.01416
C 14.70197 21.3219 0.03542
C 14.78742 19.8899 0.02299
C 15.97995 19.09923 0.00244
C 15.99256 17.6895 -0.01717
C 14.76127 17.03756 0.05265
C 14.79944 15.60861 -0.01952
C 16.01885 14.87495 -0.02813
C 15.97446 13.4924 0.00374
C 14.70886 12.76312 0.00052
C 14.66091 11.34399 -0.03682
C 15.89866 10.59132 0.01965
C 15.90906 9.19943 0.02058
C 14.71542 8.4571 -0.01957
C 14.70356 7.10698 -0.0108
C 15.91624 6.39743 -0.00368
C 15.91154 4.96415 -0.02696
C 14.71003 4.21714 -0.00114
C 14.7727 2.82477 0.00228
C 9.90676 21.35679 0.01745
C 11.07454 22.11909 0.03693
C 11.08177 23.6259 -0.01384
C 9.81442 24.25904 -0.00482
C 3.63759 2.1821 -0.00561
C 3.58057 0.80865 0.00208
C 2.37309 0.01861 0.01707
C 4.92215 32.65104 0.02769
C 6.11662 32.03853 -0.03291
C 6.14222 30.58479 -0.04999
C 4.91392 29.82148 0.04505
C 4.89863 28.3923 0.03284
C 6.13671 27.76996 -0.04307
C 6.11997 26.27807 0.03189
C 2.39423 2.88496 -0.01977
C 4.92378 25.5352 0.00031
C 6.14598 23.47777 0.01402
C 6.12315 22.05208 0.02379
C 4.82305 21.26808 0.00907
C 4.89521 19.90782 0.00643
C 6.17489 19.21212 -0.01509
C 6.17234 17.76048 0.03267
C 4.90656 17.04878 0.02374
C 4.90655 15.63218 0.00402
C 6.1206 14.93621 0.0073
C 6.11595 13.54281 0.0174
C 4.87368 24.18198 -0.003
C 2.32665 4.33697 0.02784
C 3.58385 5.01072 -0.01979
C 3.6026 6.4132 -0.00449
C 3.66768 30.55618 0.03345
C 2.40181 29.80976 0.00748
C 2.54343 28.4166 0.00662
C 3.7635 27.6393 -0.0154
C 3.73227 26.21626 -0.01299
C 2.43396 25.54056 -0.00407
C 2.46147 24.10929 0.01138
C 3.71529 23.47307 0.03278
C 3.70495 22.03891 -0.00177
C 2.4089 21.2294 0.04421
C 2.50157 19.82583 0.00088
C 3.72248 19.17163 0.00828
C 3.69939 17.72707 -0.02375
C 2.49663 17.04149 0.00558
C 2.48676 15.65528 -0.0059
C 3.62779 15.01442 -0.01386
C 3.62796 13.42108 -0.02805
C 2.45768 12.76865 0.00081
C 2.49256 11.37954 0.00245
C 3.70175 10.63978 0.02728
C 3.61314 9.27131 -0.00039
C 2.38881 8.5515 0.0064
C 2.37333 7.10088 0.00211
C 4.91084 12.73993 0.03828
C 17.07167 34.05298 -0.0331
C 4.91926 11.38956 0.01226
C 6.09531 9.2239 0.01996
C 8.61488 13.49014 -0.01303
C 7.39432 12.79653 -0.01378
C 7.37826 11.3737 0.02635
C 8.65011 10.63466 0.0127
C 8.61098 9.23615 0.01396
C 7.40267 8.51038 0.01849
C 7.35123 7.11853 -0.01142
C 8.59444 6.37614 -0.00562
C 8.50646 4.98878 -0.00494
C 7.26011 4.31255 0.00054
C 8.63176 14.89702 0.00848
C 7.3481 2.92375 0.03007
C 8.50037 0.79771 0.01572
C 7.32962 0.13917 -0.04848
C 9.80989 32.7221 -0.00892
C 11.0838 31.99495 -0.01362
C 11.006 30.65612 -0.0008
C 9.78579 29.96161 0.0288
C 9.83463 28.48403 0.00393
C 11.01535 27.79727 0.00895
C 11.21928 26.41354 0.00685
C 9.89591 25.69087 0.02888
C 8.54076 2.18345 -0.00095
C 7.36313 15.68854 -0.00049
C 7.33294 17.04388 0.00873
C 8.57707 17.86098 0.01227
C 4.85119 8.58821 -0.03996
C 4.83874 7.18732 0.01465
C 6.04452 6.45949 -0.00074
C 6.10445 5.03846 -0.00518
C 4.86743 4.35102 0.0086
C 4.86264 2.95556 -0.00643
C 6.09935 2.2155 0.017
C 6.07257 0.79597 -0.03113
C 4.8637 0.1084 -0.02566
C 7.31268 32.7836 -0.00094
C 8.55862 32.05421 0.02322
C 8.56757 30.58876 -0.00725
C 7.36323 29.911 -0.05697
C 7.32478 28.53375 0.01087
C 8.61432 27.78183 -0.01343
C 8.56568 26.34313 0.00988
C 7.28569 25.58175 0.0276
C 7.31701 24.1686 0.01305
C 8.55947 23.44201 -0.00077
C 8.65297 22.02887 0.03368
C 7.40093 21.4263 -0.02929
C 7.34506 19.92926 -0.00966
C 8.59112 19.22894 -0.03337
C 6.14333 10.62344 -0.00279
C 3.64954 31.97758 -0.00112
C 21.16908 23.39391 -0.00316
C 19.73004 21.3107 -0.01979
C 29.44431 11.33557 -0.02155
C 30.68332 10.69139 -0.00944
C 30.73718 9.21641 -0.03735
C 29.471 8.49622 -0.00971
C 29.49473 7.09382 0.01518
C 30.72287 6.38892 0.01908
C 30.72546 4.96689 0.07705
C 29.50624 4.24339 0.0103
C 29.43722 2.82538 0.02108
C 30.70824 2.09682 0.00716
C 29.43602 12.74524 -0.01461
C 30.71206 0.68112 0.00307
C 32.00393 32.65838 0.01713
C 33.16132 31.88506 -0.01694
C 33.22616 30.44431 0.01428
C 32.02704 29.77057 -0.02142
C 32.01997 28.40298 0.0544
C 33.20121 27.66195 0.00026
C 33.23577 26.17581 0.00682
C 31.93031 25.44311 -0.01779
C 31.84912 24.10178 0.03794
C 33.10228 23.3564 0.01927
C 29.4485 34.03237 0.00346
C 33.09097 21.93427 0.01574
C 30.68302 13.49783 -0.01303
C 29.44374 15.55245 0.01705
C 28.23275 4.98039 0.00235
C 27.02807 4.21215 0.01495
C 27.07946 2.81026 0.01259
C 28.28727 2.17197 0.01799
C 28.31056 0.72438 0.01699
C 27.00845 0.07045 -0.00416
C 29.49817 32.67847 0.01177
C 30.71113 32.0363 0.04266
C 30.78863 30.50482 0.01324
C 29.57413 29.73857 0.0014
C 30.69881 14.86111 -0.0405
C 29.52663 28.29968 0.00924
C 30.80588 26.24172 0.00261
C 29.56796 25.57639 0.03265
C 29.45728 24.1279 -0.02049
C 30.6727 23.36697 -0.01854
C 30.71789 21.93172 -0.01415
C 29.48872 21.25901 -0.03039
C 29.44489 19.84626 0.01836
C 30.63684 19.17625 0.03531
C 30.66764 17.74145 -0.00669
C 29.45862 17.02733 0.0101
C 30.78118 27.73034 0.02326
C 31.91718 21.23837 -0.02383
C 31.93279 19.85616 -0.01429
C 33.17082 19.13621 -0.0136
C 1.22145 23.38759 0.00723
C 1.12919 21.951 0.02712
C 34.35062 21.24278 -0.02213
C 0.01543 19.87152 0.01951
C 1.19898 19.14297 -0.01678
C 1.23345 17.71931 0.01223
C 34.41207 17.01371 0.00648
C 0.03557 15.58153 0.02114
C 1.2184 14.84786 -0.02957
C 1.23977 13.44321 0.00343
C 34.40486 24.03821 0.03076
C 34.3845 12.83839 -0.02656
C 1.20319 10.61807 -0.00027
C 1.12081 9.17956 -0.00583
C 34.30812 8.5021 -0.02302
C 34.33491 7.13389 -0.02849
C 1.17407 6.37756 0.02931
C 1.15658 4.99546 0.00628
C 34.35538 4.28241 -0.0345
C 34.29377 2.87351 -0.00931
C 1.10744 2.13683 -0.00939
C 1.10689 0.66557 -0.00468
C 34.34752 11.38118 -0.02442
C 0.01676 25.46993 -0.05239
C 1.19404 26.24847 -0.00598
C 1.25145 27.72628 -0.00439
C 33.20488 17.70664 0.00594
C 31.9259 17.01093 -0.02474
C 31.96024 15.64851 0.00369
C 33.2098 14.99452 0.00455
C 33.1776 13.56384 -0.00644
C 31.93401 12.82193 -0.01839
C 31.89316 11.40084 0.00137
C 33.1406 10.68124 0.00199
C 33.14594 9.18575 0.04381
C 31.88064 8.52557 0.02806
C 31.90117 7.0506 0.01504
C 33.10684 6.35468 -0.00069
C 33.21044 4.90688 0.04926
C 31.93833 4.2665 -0.03838
C 31.91482 2.75232 0.00349
C 33.12195 2.08378 -0.00323
C 33.21464 0.67418 -0.00841
C 31.98127 34.04963 0.0001
C 34.39938 32.61789 -0.02927
C 1.15455 31.96813 -0.01404
C 1.19023 30.54348 0.01027
C 0.0674 29.75278 0.01831
C 0.03168 28.33024 -0.01037
C 28.22429 6.38022 0.01094
C 27.01894 7.1274 0.02198
C 26.97431 8.54995 0.02611
C 28.18797 9.26512 -0.00621
C 22.13598 21.30526 0.0106
C 22.19038 19.91306 -0.01154
C 23.35189 19.15015 -0.01721
C 23.39422 17.71633 -0.02422
C 22.1778 17.00023 0.01277
C 22.10015 15.56573 0.00096
C 23.35351 14.82853 -0.01527
C 23.35058 13.4388 0.01087
C 22.09569 12.82468 0.00199
C 22.13335 11.36815 0.01511
C 23.30623 22.06987 -0.01594
C 23.22675 10.57738 -0.00478
C 22.0559 8.56399 -0.01185
C 22.06874 7.15034 0.01126
C 23.26151 6.41657 0.01852
C 23.2853 5.02897 -0.00381
C 22.12751 4.29925 0.03046
C 22.12686 2.81434 0.0296
C 23.3797 2.10663 0.03374
C 23.34342 0.73422 -0.02845
C 22.1429 0.0955 -0.03213
C 24.49024 32.64311 0.02239
C 23.25048 9.18639 -0.01662
C 23.46519 23.43139 0.00742
C 22.12505 24.06104 -0.00311
C 23.56778 26.6039 0.00675
C 19.7182 19.89299 0.02691
C 20.85916 19.17698 -0.01581
C 20.92954 17.74622 0.01452
C 19.65286 16.95994 0.04892
C 19.74105 15.59811 -0.00111
C 20.86568 14.94538 -0.03557
C 20.86378 13.53005 0.03754
C 19.70355 12.76832 0.01739
C 19.6895 11.3446 0.00755
C 20.89181 10.65831 -0.0054
C 20.84827 9.25114 0.00667
C 19.61061 8.55475 0.00143
C 19.57349 7.13196 -0.017
C 20.7578 6.47799 0.00364
C 20.87788 5.07822 -0.00831
C 19.59954 4.28764 -0.02957
C 19.58309 2.76236 -0.04422
C 20.88183 2.19712 0.00654
C 20.95475 0.79321 -0.00703
C 19.78674 34.07041 -0.04076
C 22.00009 32.8478 -0.00652
C 23.15586 31.88997 0.0058
C 23.43099 30.55637 -0.00865
C 25.72729 31.86843 0.01153
C 20.89732 22.00175 0.02188
C 25.84612 30.46999 0.02734
C 24.64953 28.08283 0.01515
C 26.97842 32.63374 -0.01052
C 28.20056 31.93366 -0.01679
C 28.39588 30.53397 0.00367
C 27.04703 29.85969 0.04306
C 27.09845 28.41565 0.00996
C 28.27654 27.61927 0.00195
C 28.37694 26.23783 -0.00802
C 27.08989 25.5567 -0.00218
C 27.07907 24.11002 -0.01654
C 28.24002 23.40118 -0.00037
C 24.53887 34.04868 0.00684
C 28.27106 21.91298 -0.0032
C 26.99289 19.78807 -0.02815
C 28.24021 19.07252 -0.00942
C 28.24011 17.72929 0.00487
C 27.06995 17.03318 0.00826
C 27.07341 15.60276 -0.00294
C 28.2361 14.90715 0.00152
C 28.24404 13.4804 0.01257
C 27.02741 12.79052 0.02316
C 27.04414 11.35148 0.04185
C 28.28423 10.67112 0.00194
C 26.99332 21.26583 0.00622
C 25.71196 0.71335 -0.01154
C 25.73531 2.1393 -0.0264
C 24.54269 2.90395 -0.00938
C 25.8954 27.64942 -0.00225
C 25.92024 26.19607 0.00071
C 24.56997 25.69158 -0.01107
C 24.658 24.24649 -0.01586
C 25.83732 23.47349 -0.01971
C 25.70858 22.05458 -0.02118
C 24.54407 21.27205 0.00733
C 24.5722 19.83949 -0.00178
C 25.78793 19.08002 0.00768
C 25.80028 17.66549 -0.0276
C 24.59638 16.98389 0.03005
C 24.63236 15.55568 -0.04078
C 25.84154 14.84673 0.02117
C 25.81908 13.49063 0.02737
C 24.59452 12.75298 -0.00498
C 24.48161 11.32801 0.00135
C 25.75785 10.66295 0.03102
C 25.83897 9.32967 0.02555
C 24.57274 8.54843 0.01423
C 24.50783 7.10345 -0.00285
C 25.80125 6.42119 -0.009
C 25.78111 4.96036 -0.01199
C 24.57464 4.30611 -0.00229
C 24.49721 29.61252 -0.0055
C 2.37888 32.68376 0.01078
