351
Graphene
C 0.01589 0.02255 0.01295
C 17.25366 21.29305 0.00228
C 17.17664 19.92295 0.00798
C 18.41144 19.21607 0.00422
C 18.47075 17.71351 0.0351
C 17.23815 17.05238 -0.03113
C 17.23008 15.62017 0.02098
C 18.41561 14.86256 0.01848
C 18.43181 13.49452 -0.00619
C 18.43003 21.92322 -0.00114
C 18.43861 6.38649 -0.02162
C 17.24271 4.29146 -0.00481
C 17.21455 2.81266 0.00979
C 18.48592 2.13093 0.01443
C 18.46655 0.6799 0.03505
C 17.19144 0.05055 -0.02815
C 19.69847 32.66069 -0.04147
C 20.90087 31.92139 -0.05302
C 20.85257 30.49496 0.00213
C 18.47513 4.9382 0.00889
C 19.62636 29.79177 -0.00066
C 18.43092 23.42538 -0.02696
C 17.21945 25.52974 -0.0108
C 15.96469 22.02519 0.0076
C 14.6965 21.33705 0.01241
C 14.78195 19.88877 -0.01454
C 15.99909 19.19254 0.01945
C 15.99316 17.78876 0.01416
C 14.76187 17.04066 0.03542
C 14.82285 15.62057 0.02299
C 15.98565 14.91001 0.00244
C 17.24708 24.15557 -0.00368
C 16.00589 2.18016 -0.01717
C 14.72274 34.0685 -0.01952
C 17.19626 32.69768 -0.02813
C 18.46774 31.89648 0.00374
C 18.44264 30.51338 0.00052
C 17.25492 29.85353 -0.03682
C 17.28355 28.39634 0.01965
C 18.43662 27.6259 0.02058
C 18.42712 26.2916 -0.01957
C 16.0105 0.67074 0.05265
C 15.95272 23.42635 0.02162
C 19.69307 28.3859 -0.00289
C 20.98257 26.26957 -0.02213
C 20.91865 2.18024 0.00364
C 20.94034 0.73327 -0.00831
C 19.65561 0.07792 -0.02957
C 22.11956 32.68991 -0.04422
C 23.35071 31.93144 0.00654
C 23.35276 30.48277 -0.00703
C 22.1536 29.84908 -0.04076
C 22.17367 28.39289 -0.00652
C 19.65753 2.84791 -0.017
C 23.36513 27.70082 0.0058
C 22.16643 25.54444 0.00675
C 22.16765 24.18444 -0.00311
C 23.37644 23.39629 0.00742
C 23.39518 21.97641 -0.01594
C 22.15411 21.27821 0.0106
C 22.15107 19.86353 -0.01154
C 23.31417 19.17121 -0.01721
C 23.3235 17.7363 -0.02422
C 23.37515 26.22973 -0.00865
C 20.96507 27.66902 0.00028
C 19.68021 4.27425 0.00143
C 20.89603 6.37776 -0.0054
C 19.6472 25.57554 0.03698
C 19.62446 24.13136 -0.00109
C 20.88919 23.43252 -0.00491
C 20.87722 22.01358 0.03338
C 19.7089 21.27115 -0.0258
C 19.67294 19.86526 -0.0331
C 20.88739 19.20694 -0.00316
C 20.90873 17.78004 0.02188
C 20.92996 4.98725 0.00667
C 19.70205 17.0427 -0.01979
C 20.90975 14.88001 -0.01581
C 20.89197 13.47023 0.01452
C 19.66339 12.75423 0.04892
C 19.74373 11.38879 -0.00111
C 20.8689 10.63148 -0.03557
C 20.89828 9.23703 0.03754
C 19.66587 8.51901 0.01739
C 19.64949 7.0876 0.00755
C 19.64454 15.64468 0.02691
C 22.13106 17.03977 0.01277
C 14.79389 24.13628 -0.0014
C 15.96841 26.24177 -0.02162
C 4.88487 32.62856 0.01572
C 6.08516 31.92742 -0.04848
C 6.15938 30.50571 -0.00892
C 4.86564 29.81088 -0.01362
C 4.93101 28.40932 -0.0008
C 6.20088 27.7094 0.0288
C 4.91645 15.67261 0.00393
C 6.17137 14.90757 0.00895
C 2.4466 34.07232 -0.00095
C 4.89931 12.80981 0.00685
C 6.14196 2.17333 -0.00482
C 6.14727 0.64505 -0.01384
C 4.91069 0.00818 0.03693
C 7.33785 32.66028 0.01745
C 8.56426 31.95921 0.00488
C 8.57357 30.54817 -0.01004
C 7.36437 29.88808 -0.02896
C 7.39866 28.3861 -0.00131
C 4.9466 2.82981 0.02888
C 8.6407 27.67946 -0.01118
C 3.69665 0.69745 0.03007
C 2.41994 2.85327 -0.00494
C 3.6946 30.56721 0.01305
C 2.44484 29.8193 -0.00077
C 2.44155 28.4056 0.03368
C 3.68642 27.69394 -0.02929
C 3.70215 26.22846 -0.00966
C 2.50103 25.58474 -0.03337
C 2.44017 17.02821 0.01227
C 2.54828 15.63676 0.00873
C 3.71163 2.12003 0.00054
C 3.65558 14.89229 -0.00049
C 2.45965 12.85296 -0.01303
C 2.47108 11.40254 -0.01378
C 3.72912 10.60193 0.02635
C 3.67593 9.29567 0.0127
C 2.51112 8.49256 0.01396
C 2.43566 7.08563 0.01849
C 3.75016 4.96291 -0.01142
C 2.39242 4.21176 -0.00562
C 3.67908 13.53908 0.00848
C 14.70598 25.59698 0.00415
C 8.60037 26.26683 -0.014
C 8.63568 2.16836 0.00373
C 13.52496 26.24898 -0.01275
C 12.33527 25.58005 0.00985
C 12.3082 24.18117 -0.02245
C 13.51404 23.47105 -0.00428
C 13.50446 22.01187 0.03101
C 12.25624 21.25147 -0.01536
C 12.27781 19.86481 -0.02689
C 13.58398 19.19613 -0.01046
C 13.52171 27.66317 -0.01111
C 13.55583 17.76495 -0.00891
C 13.54334 0.76441 0.00165
C 12.26878 0.03571 -0.02971
C 14.78694 32.64507 0.02894
C 16.01963 31.96335 -0.01789
C 15.99784 30.55886 0.00444
C 14.71794 29.74799 -0.00925
C 14.74477 28.3816 0.01877
C 15.97434 27.70138 0.01363
C 12.27892 16.99395 0.02819
C 7.35834 15.60801 0.02147
C 12.27937 28.43427 0.02841
C 13.50008 30.56208 0.00406
C 8.63504 0.70219 -0.00191
C 7.39508 0.01208 0.00438
C 9.80918 32.68876 0.01291
C 11.09985 31.96887 0.00093
C 11.0612 30.51868 0.00057
C 9.84208 29.84385 -0.01634
C 9.88716 28.43648 -0.00334
C 11.07229 27.71278 0.02339
C 12.26184 29.8412 0.00943
C 11.11055 26.27498 0.01641
C 11.07025 23.49156 0.01364
C 11.08333 19.22961 -0.01062
C 11.08033 17.78621 -0.00033
C 9.80092 17.10767 0.03589
C 11.04473 0.71701 -0.02759
C 9.8611 0.02564 0.0402
C 12.24098 32.65736 0.00572
C 13.51068 32.00106 0.03592
C 9.86562 25.57668 -0.00719
C 3.67432 31.95982 0.0276
C 22.08943 15.62329 0.00096
C 23.35818 13.49939 0.01087
C 33.22046 31.95451 -0.01694
C 33.16354 30.52316 0.01428
C 31.9512 29.83425 -0.02142
C 31.99511 28.37513 0.0544
C 33.22518 27.69131 0.00026
C 33.15553 26.30895 0.00682
C 31.94527 25.56415 -0.01779
C 32.0169 24.19419 0.03794
C 31.9671 32.61646 0.01713
C 33.21703 23.43298 0.01927
C 31.96339 21.30369 -0.02383
C 31.98252 19.88617 -0.01429
C 33.18922 19.20364 -0.0136
C 33.12344 17.75874 0.00594
C 31.94189 17.0499 -0.02474
C 31.9803 15.55552 0.00369
C 33.2231 14.91983 0.00455
C 33.18812 13.47094 -0.00644
C 33.22054 22.02965 0.01574
C 31.95902 12.75835 -0.01839
C 29.51188 34.05723 0.00346
C 30.74337 2.13289 0.00716
C 29.5754 21.31482 -0.03039
C 29.53728 19.8984 0.01836
C 30.72634 19.14659 0.03531
C 30.7431 17.73528 -0.00669
C 29.48909 17.03463 0.0101
C 29.47671 15.64983 0.01705
C 30.80733 14.91593 -0.0405
C 30.7539 13.46282 -0.01303
C 30.78794 0.67413 0.00307
C 29.49783 12.80877 -0.01461
C 30.74895 10.64777 -0.00944
C 30.7547 9.26019 -0.03735
C 29.49324 8.51308 -0.00971
C 29.51762 7.08583 0.01518
C 30.73869 6.42974 0.01908
C 30.78291 5.01376 0.07705
C 29.49985 4.19623 0.0103
C 29.54776 2.82286 0.02108
C 29.54079 11.37466 -0.02155
C 30.739 22.05989 -0.01415
C 31.97052 11.30281 0.00137
C 33.14599 9.2509 0.04381
C 1.27723 19.15299 -0.01678
C 1.20057 17.71104 0.01223
C 34.40348 17.02986 0.00648
C 34.40267 15.59388 0.02114
C 1.19919 14.93248 -0.02957
C 1.22371 13.50757 0.00343
C 0.01132 12.71338 -0.02656
C 0.00728 11.35909 -0.02442
C 34.43316 19.90917 0.01951
C 1.26582 10.66835 -0.00027
C 34.41926 8.47207 -0.02302
C 0.00339 7.1056 -0.02849
C 1.25056 6.35354 0.02931
C 1.19119 4.94091 0.00628
C 0.00979 4.21643 -0.0345
C 0.00638 2.83571 -0.00931
C 1.24348 2.14595 -0.00939
C 1.27041 0.75621 -0.00468
C 1.22016 9.22584 -0.00583
C 33.21417 10.67878 0.00199
C 34.40042 21.31487 -0.02213
C 1.22712 23.43351 0.00723
C 31.97701 8.50712 0.02806
C 31.99114 7.14849 0.01504
C 33.22227 6.39132 -0.00069
C 33.18353 4.93994 0.04926
C 31.97342 4.28846 -0.03838
C 31.98224 2.8758 0.00349
C 33.22073 2.1615 -0.00323
C 33.17026 0.63246 -0.00841
C 1.17599 22.03464 0.02712
C 31.96778 34.07494 0.0001
C 1.27542 31.96283 -0.01404
C 1.18701 30.49934 0.01027
C 34.38236 29.82353 0.01831
C 34.4294 28.39023 -0.01037
C 1.21229 27.66459 -0.00439
C 1.23666 26.22437 -0.00598
C 34.42365 25.63258 -0.05239
C 34.43279 24.18426 0.03076
C 34.43297 32.65546 -0.02927
C 23.34864 14.90434 -0.01527
C 30.71903 23.42483 -0.01854
C 29.46548 25.54786 0.03265
C 25.82822 23.45845 -0.01971
C 25.83837 21.97049 -0.02118
C 24.58582 21.29413 0.00733
C 24.55907 19.88048 -0.00178
C 25.80091 19.18939 0.00768
C 25.81482 17.81662 -0.0276
C 24.56914 17.06447 0.03005
C 24.54383 15.60292 -0.04078
C 24.60241 24.15693 -0.01586
C 25.81893 14.92689 0.02117
C 24.63975 12.8121 -0.00498
C 24.58334 11.35911 0.00135
C 25.81431 10.62993 0.03102
C 25.799 9.21844 0.02555
C 24.58063 8.57641 0.01423
C 24.60559 7.04377 -0.00285
C 25.82737 6.36596 -0.009
C 25.79873 4.94013 -0.01199
C 25.84227 13.52157 0.02737
C 24.60413 4.27947 -0.00229
C 24.54387 25.50437 -0.01107
C 25.78833 27.69677 -0.00225
C 22.1544 12.76527 0.00199
C 22.11158 11.31478 0.01511
C 23.34469 10.66643 -0.00478
C 23.37241 9.20525 -0.01662
C 22.13772 8.50446 -0.01185
C 22.18514 7.09071 0.01126
C 23.34251 6.3516 0.01852
C 23.37929 4.91338 -0.00381
C 25.79225 26.28261 0.00071
C 22.11424 4.23844 0.03046
C 23.36655 2.11207 0.03374
C 23.39749 0.6795 -0.02845
C 22.127 0.01609 -0.03213
C 24.5447 32.70456 0.02239
C 25.79617 31.92976 0.01153
C 25.79123 30.46261 0.02734
C 24.55333 29.81664 -0.0055
C 24.61702 28.39811 0.01515
C 22.17007 2.83675 0.0296
C 29.44646 24.10265 -0.02049
C 24.57212 2.81884 -0.00938
C 25.86316 0.72006 -0.01154
C 28.29738 10.63686 0.00194
C 28.31174 9.20931 -0.00621
C 27.09434 8.49859 0.02611
C 27.08037 7.08914 0.02198
C 28.29459 6.38428 0.01094
C 28.30678 4.92002 0.00235
C 27.01635 4.23157 0.01495
C 27.04646 2.87135 0.01259
C 27.09533 11.30806 0.04185
C 28.34692 2.09594 0.01799
C 27.03996 34.04006 -0.00416
C 29.48657 32.64842 0.01177
C 30.77224 31.9353 0.04266
C 30.7394 30.51238 0.01324
C 29.54437 29.81996 0.0014
C 29.49473 28.37708 0.00924
C 30.76822 27.68056 0.02326
C 30.74917 26.25106 0.00261
C 28.31884 0.70819 0.01699
C 25.83705 2.16783 -0.0264
C 27.04503 12.78833 0.02316
C 28.30662 14.84947 0.00152
C 24.57875 0.01553 0.00684
C 27.06629 32.63616 -0.01052
C 28.29429 31.98053 -0.01679
C 28.2581 30.54263 0.00367
C 27.0726 29.85044 0.04306
C 27.02057 28.42406 0.00996
C 28.27956 27.6818 0.00195
C 28.3154 26.29476 -0.00802
C 28.27845 13.54064 0.01257
C 27.05685 25.55721 -0.00218
C 28.29755 23.45229 -0.00037
C 28.33654 22.02219 -0.0032
C 27.0826 21.27522 0.00622
C 27.00629 19.83229 -0.02815
C 28.30754 19.17935 -0.00942
C 28.26317 17.71861 0.00487
C 27.13682 17.06927 0.00826
C 27.02022 15.65795 -0.00294
C 27.053 24.14089 -0.01654
C 2.456 32.65449 0.00988
