415
Graphene
C 34.3871 34.04979 0.01295
C 12.28554 28.52193 -0.01275
C 13.6069 27.70245 0.00985
C 13.58886 26.32421 -0.02245
C 12.30317 25.61212 -0.00428
C 12.2978 24.15789 0.03101
C 13.48937 23.38976 -0.01536
C 13.47944 21.97609 -0.02689
C 12.27728 21.29911 -0.01046
C 12.29945 19.86193 -0.00891
C 13.50474 19.14711 0.02819
C 12.29552 29.87787 -0.01111
C 13.53878 17.74371 0.00165
C 12.28933 15.63691 0.02894
C 13.49871 14.98191 -0.01789
C 13.51925 13.43642 0.00444
C 12.27736 12.71788 -0.00925
C 12.33335 11.27043 0.01877
C 13.5911 10.52599 0.01363
C 13.5309 9.10945 -0.02162
C 12.249 8.42293 0.00415
C 12.25348 7.03115 -0.0014
C 13.47175 6.39027 0.02162
C 12.33968 17.04808 -0.02971
C 13.52803 4.96249 0.0076
C 13.57657 30.59035 0.02841
C 12.26862 32.76652 0.00406
C 11.06539 21.99634 -0.01118
C 9.78616 21.3758 -0.014
C 9.79633 19.94839 0.02147
C 11.01741 19.17881 0.00373
C 11.08812 17.73803 -0.00191
C 9.84925 17.08317 0.00438
C 9.85038 15.66319 0.01291
C 11.11677 14.90895 0.00093
C 11.0807 13.51316 0.00057
C 9.85646 12.78107 -0.01634
C 13.53121 31.97749 0.00943
C 9.86043 11.33981 -0.00334
C 11.05489 9.12744 0.01641
C 9.77513 8.49898 -0.00719
C 9.7874 7.12075 0.01364
C 11.02941 6.41565 -0.01062
C 10.98169 4.98322 -0.00033
C 9.70793 4.36984 0.03589
C 9.75983 2.96048 -0.02759
C 11.05285 2.25198 0.0402
C 11.06195 0.76396 0.00572
C 9.8013 0.10345 0.03592
C 11.06315 10.56585 0.02339
C 11.11225 23.48109 -0.00131
C 12.28885 4.28813 0.01241
C 13.59237 2.17876 0.01945
C 15.9475 4.92043 -0.02162
C 14.72637 4.22921 0.00889
C 14.78997 2.86543 -0.00481
C 16.07131 2.10217 0.00979
C 16.07387 0.74601 0.01443
C 14.77642 0.01252 0.03505
C 17.13975 32.5447 -0.02815
C 17.08228 25.53057 -0.04147
C 17.25553 24.16344 -0.05302
C 18.47851 23.5237 0.00213
C 15.9792 6.29294 -0.00619
C 18.34612 22.0458 -0.00066
C 17.15757 19.89816 0.00028
C 18.34136 19.17857 -0.02213
C 18.38366 17.80697 0.03698
C 17.17681 17.02057 -0.00109
C 17.19451 15.62293 -0.00491
C 18.35802 14.90405 0.03338
C 18.37031 13.49736 -0.0258
C 17.14125 12.72595 -0.0331
C 17.17721 11.34406 -0.00316
C 18.45556 10.61787 0.02188
C 17.09037 21.32865 -0.00289
C 12.33688 2.85864 -0.01454
C 14.74264 7.02434 0.01848
C 15.99337 9.16173 -0.03113
C 13.52445 0.77204 0.01416
C 12.2618 0.06052 0.03542
C 14.79988 32.69957 0.02299
C 15.96147 31.99735 0.00244
C 14.79199 29.84267 -0.01717
C 14.7178 28.51035 0.05265
C 16.07643 26.31569 -0.01952
C 14.79619 25.63521 -0.02813
C 14.74997 24.22164 0.00374
C 15.96289 23.43787 0.00052
C 14.79837 8.43498 0.02098
C 15.90648 22.02762 -0.03682
C 14.67622 19.83997 0.02058
C 15.88783 19.23288 -0.01957
C 15.94039 17.81146 -0.0108
C 14.76151 17.04806 -0.00368
C 14.76526 15.58958 -0.02696
C 16.00781 14.92616 -0.00114
C 15.94656 13.5104 0.00228
C 14.75788 12.68743 0.00798
C 14.72457 11.26643 0.00422
C 16.00304 10.60973 0.0351
C 14.66573 21.26771 0.01965
C 18.49262 9.19291 -0.01979
C 9.87122 24.14663 -0.02896
C 11.12641 26.33909 0.00488
C 2.33252 2.8277 -0.04999
C 3.61962 2.18419 0.04505
C 3.61007 0.75906 0.03284
C 2.42655 34.07912 -0.04307
C 4.86826 32.65751 0.03189
C 6.16864 31.93286 0.00031
C 6.14371 30.58258 -0.003
C 4.8514 29.8861 0.01402
C 4.93505 28.42658 0.02379
C 6.17702 27.70791 0.00907
C 2.39431 4.24335 -0.03291
C 6.17774 26.26578 0.00643
C 4.90372 24.17218 0.03267
C 6.07607 23.52623 0.02374
C 6.13176 22.0799 0.00402
C 4.8713 21.32656 0.0073
C 4.89046 19.9156 0.0174
C 6.10453 19.25064 0.03828
C 6.19554 17.84388 0.01226
C 4.96043 17.10807 -0.00279
C 4.9811 15.63271 0.01996
C 6.19664 14.91474 -0.03996
C 4.96618 25.56812 -0.01509
C 6.16705 13.50437 0.01465
C 3.59857 5.03482 0.02769
C 2.43789 7.11794 0.00208
C 3.59342 30.50062 0.01138
C 2.35597 29.77447 0.03278
C 2.42235 28.41618 -0.00177
C 3.69475 27.7118 0.04421
C 3.73376 26.19008 0.00088
C 2.48213 25.50793 0.00828
C 2.42337 24.16789 -0.02375
C 3.71264 23.47935 0.00558
C 3.60016 22.08278 -0.0059
C 2.38353 21.30446 -0.01386
C 3.63495 6.42817 0.01707
C 2.34835 19.89913 -0.02805
C 3.75466 17.75069 0.00245
C 2.52612 17.06711 0.02728
C 2.50585 15.63677 -0.00039
C 3.69948 14.87305 0.0064
C 3.65332 13.43996 0.00211
C 2.4448 12.84027 -0.00449
C 2.41746 11.35069 -0.01979
C 3.61431 10.59048 0.02784
C 3.66965 9.17013 -0.01977
C 2.43256 8.52967 -0.00561
C 3.64841 19.22364 0.00081
C 9.86967 25.55564 -0.01004
C 4.82648 12.7004 -0.00074
C 6.17693 10.69418 0.0086
C 7.40172 15.59711 0.01396
C 8.65691 14.94751 0.01849
C 8.68283 13.5246 -0.01142
C 7.38386 12.82184 -0.00562
C 7.35292 11.39697 -0.00494
C 8.58907 10.7124 0.00054
C 8.57914 9.28007 0.03007
C 7.36381 8.61395 -0.00095
C 7.32419 7.18799 0.01572
C 8.54387 6.42474 -0.04848
C 7.36785 17.11092 0.0127
C 8.57967 5.01029 -0.00892
C 7.27573 2.91303 -0.0008
C 8.53923 2.21747 0.0288
C 8.55503 0.82284 0.00393
C 7.27358 0.06283 0.00895
C 9.82284 32.77477 0.00685
C 11.0941 32.05313 0.02888
C 11.14742 30.65482 -0.00482
C 9.86902 29.89972 -0.01384
C 9.81166 28.52577 0.03693
C 11.06078 27.77665 0.01745
C 7.34105 4.30598 -0.01362
C 4.85765 11.30227 -0.00518
C 8.56908 17.85423 0.02635
C 7.3793 19.95272 -0.01303
C 6.12474 9.27346 -0.00643
C 4.9212 8.55151 0.017
C 4.84907 7.14799 -0.03113
C 6.13006 6.48732 -0.02566
C 6.14369 5.07381 -0.00094
C 4.85564 4.31358 0.02322
C 4.87956 2.90264 -0.00725
C 6.0778 2.19246 -0.05697
C 6.04527 0.78688 0.01087
C 4.84066 0.03207 -0.01343
C 8.5634 19.31079 -0.01378
C 7.37557 32.72625 0.00988
C 8.59053 30.61717 0.01305
C 7.35558 29.89662 -0.00077
C 7.34084 28.49477 0.03368
C 8.58155 27.78374 -0.02929
C 8.68278 26.35819 -0.00966
C 7.41728 25.61026 -0.03337
C 7.36549 24.20448 0.01227
C 8.62829 23.48918 0.00873
C 8.56904 22.04378 -0.00049
C 7.33023 21.34518 0.00848
C 8.56107 32.05875 0.0276
C 3.63884 31.94907 -0.00407
C 17.21255 8.53479 0.02691
C 18.51546 6.37955 0.01452
C 29.55416 17.15662 -0.00944
C 29.69534 12.78145 -0.03735
C 29.55247 11.32775 -0.00971
C 30.81378 10.62941 0.01518
C 30.7796 9.22212 0.01908
C 29.55653 8.54097 0.07705
C 29.52943 7.15393 0.0103
C 30.77572 6.42502 0.02108
C 30.69095 4.91836 0.00716
C 29.48051 4.27211 0.00307
C 30.71954 19.05694 -0.02155
C 29.45981 2.84895 0.00346
C 30.63655 0.69711 -0.01694
C 29.41743 0.03673 0.01428
C 31.98992 32.62261 -0.02142
C 33.20197 31.91709 0.0544
C 33.14854 30.52804 0.00026
C 31.87116 29.77581 0.00682
C 31.91582 28.39216 -0.01779
C 33.14422 27.67458 0.03794
C 33.20333 26.20536 0.01927
C 31.90441 25.52297 0.01574
C 30.62157 2.13315 0.01713
C 31.90196 24.16167 -0.02383
C 29.50405 19.82462 -0.01461
C 30.74012 22.00786 -0.0405
C 27.07122 11.36308 0.01495
C 28.34216 10.67061 0.01259
C 28.35658 9.23917 0.01799
C 27.09466 8.61419 0.01699
C 27.11241 7.18631 -0.00416
C 28.28999 6.48036 0.01177
C 28.31351 5.03565 0.04266
C 27.06884 4.28598 0.01324
C 27.0039 2.84693 0.0014
C 28.20043 2.13046 0.00924
C 29.47469 21.19089 -0.01303
C 28.23216 0.75593 0.02326
C 29.47406 32.65907 0.03265
C 30.70528 31.86782 -0.02049
C 30.66615 30.50255 -0.01854
C 29.4708 29.82175 -0.01415
C 29.51226 28.34459 -0.03039
C 30.71668 27.64516 0.01836
C 30.65357 26.24139 0.03531
C 29.51285 25.51227 -0.00669
C 29.38888 24.12476 0.0101
C 30.62424 23.45002 0.01705
C 26.99869 34.06877 0.00261
C 27.13245 12.81359 0.00235
C 33.13461 23.41041 -0.01429
C 31.88529 21.23388 0.00594
C 1.20865 23.41108 0.00723
C 1.13909 22.03969 0.02712
C 34.43007 21.29541 -0.02213
C 34.40293 19.85954 0.01951
C 1.18481 19.12014 -0.01678
C 1.12167 17.72554 0.01223
C 34.26971 16.9489 0.00648
C 0.0258 15.52602 0.02114
C 1.27125 14.90517 -0.02957
C 1.18756 13.51859 0.00343
C 34.42702 24.1005 0.03076
C 34.37611 12.80102 -0.02656
C 1.16563 10.64626 -0.00027
C 1.17256 9.16064 -0.00583
C 34.3956 8.46192 -0.02302
C 0.00841 7.07072 -0.02849
C 1.20226 6.3487 0.02931
C 1.17951 4.96493 0.00628
C 34.42041 4.16915 -0.0345
C 34.33158 2.85092 -0.00931
C 1.14042 2.14306 -0.00939
C 1.21479 0.70328 -0.00468
C 34.39486 11.38779 -0.02442
C 33.16765 21.96859 -0.0136
C 0.03762 25.57308 -0.05239
C 1.24331 27.66187 -0.00439
C 31.87671 19.81276 -0.02474
C 33.17256 19.16132 0.00369
C 33.12769 17.7634 0.00455
C 33.15693 13.60626 -0.00644
C 31.90497 12.79959 -0.01839
C 31.9689 11.35084 0.00137
C 33.18983 10.63568 0.00199
C 33.18152 9.22949 0.04381
C 32.01035 8.47438 0.02806
C 31.97395 7.07771 0.01504
C 1.28049 26.28708 -0.00598
C 33.19596 6.36083 -0.00069
C 31.92773 4.13966 -0.03838
C 31.95772 2.77064 0.00349
C 33.15565 2.11721 -0.00323
C 33.15086 0.70427 -0.00841
C 31.9171 0.00285 0.0001
C 34.35873 32.62364 -0.02927
C 1.20344 31.947 -0.01404
C 1.17909 30.51653 0.01027
C 34.37795 29.83117 0.01831
C 34.39602 28.41961 -0.01037
C 33.16682 4.91274 0.04926
C 17.22114 7.07055 -0.01581
C 28.4961 13.51061 0.01094
C 27.08592 15.49894 0.02611
C 19.73951 7.10604 -0.01721
C 20.92919 6.41397 -0.02422
C 20.93631 4.98845 0.01277
C 19.68844 4.18385 0.00096
C 19.67713 2.83285 -0.01527
C 20.93549 2.09648 0.01087
C 20.92123 0.66434 0.00199
C 19.63987 34.01889 0.01511
C 22.12952 32.51001 -0.00478
C 23.38435 31.94429 -0.01662
C 19.68183 8.54923 -0.01154
C 23.30076 30.50808 -0.01185
C 22.20535 28.44311 0.01852
C 23.34342 27.6833 -0.00381
C 23.42149 26.2561 0.03046
C 22.12426 25.81387 0.0296
C 22.06727 19.91191 0.03374
C 23.2205 17.82725 -0.02845
C 21.95437 16.9612 -0.03213
C 22.04653 15.61863 0.02239
C 23.37399 14.91375 0.01153
C 23.33693 13.49168 0.02734
C 22.11698 29.77629 0.01126
C 22.14494 12.81905 -0.0055
C 20.94256 9.2772 0.0106
C 19.65004 11.3815 0.00742
C 18.48419 4.93726 0.04892
C 17.25075 4.28987 -0.00111
C 17.315 2.80918 -0.03557
C 18.49776 2.07725 0.03754
C 18.4114 0.61572 0.01739
C 17.25523 33.98294 0.00755
C 19.78851 32.6088 -0.0054
C 20.91178 31.90079 0.00667
C 20.87038 26.22505 0.00143
C 19.81051 25.65046 -0.017
C 20.91053 10.69578 -0.01594
C 19.68145 24.32084 0.00364
C 20.63459 22.08244 -0.02957
C 19.5832 21.22373 -0.04422
C 19.60366 19.84415 0.00654
C 20.84494 19.16066 -0.00703
C 20.76839 17.78162 -0.04076
C 19.61809 17.08012 -0.00652
C 19.60997 15.61624 0.0058
C 20.78909 14.92091 -0.00865
C 20.89684 13.52173 0.00675
C 19.60298 12.81661 -0.00311
C 20.78547 23.42919 -0.00831
C 28.37796 14.91842 0.02198
C 22.12108 11.38563 0.01515
C 23.36416 9.2201 0.00071
C 24.67148 8.48354 -0.01679
C 24.61121 7.10794 0.00367
C 25.90467 6.43126 0.04306
C 25.83347 4.94462 0.00996
C 24.66567 4.26633 0.00195
C 24.65121 2.89254 -0.00802
C 25.80821 2.13841 -0.00218
C 25.77711 0.65329 -0.01654
C 24.56782 34.02181 -0.00037
C 27.07332 32.66366 -0.0032
C 25.8059 9.19166 -0.01052
C 28.25036 31.91474 0.00622
C 27.03111 29.80183 -0.00942
C 26.99898 28.40253 0.00487
C 28.17616 27.59474 0.00826
C 28.26969 26.21998 -0.00294
C 27.1016 25.5231 0.00152
C 28.21251 23.37513 0.01257
C 28.35827 21.96719 0.02316
C 28.32514 19.17545 0.04185
C 28.27637 17.7684 0.00194
C 27.13526 16.94343 -0.00621
C 28.26908 30.4763 -0.02815
C 23.30149 10.56897 -0.00225
C 25.80631 10.69331 0.00684
C 24.52048 12.77698 -0.0264
C 22.16665 8.46078 -0.01107
C 22.1613 7.03112 -0.01586
C 23.39199 6.37908 -0.01971
C 23.412 4.97532 -0.02118
C 22.13384 4.28308 0.00733
C 22.15851 2.76841 -0.00178
C 23.39118 2.09235 0.00768
C 23.31376 0.65533 -0.0276
C 22.09968 33.97362 0.03005
C 24.59577 32.66761 -0.04078
C 24.5605 11.34916 -0.01154
C 25.78242 31.91752 0.02117
C 24.55119 29.80385 -0.00498
C 24.57049 28.36928 0.00135
C 25.81232 27.64055 0.03102
C 25.87632 26.12173 0.02555
C 24.65462 25.49365 0.01423
C 25.86391 17.51878 -0.00285
C 24.54392 17.14931 -0.009
C 24.61405 15.58009 -0.01199
C 25.79074 14.80368 -0.00229
C 25.86212 13.46097 -0.00938
C 25.74566 30.4758 0.02737
C 2.37029 32.65762 -0.01299
