269
Graphene
C 34.41625 0.14175 0.01295
C 14.81954 34.01398 -0.00478
C 16.03962 0.71291 0.01511
C 15.96528 2.1767 0.00199
C 14.70515 2.88433 0.01087
C 14.74745 4.24229 -0.01527
C 16.01205 4.99786 0.00096
C 15.9663 6.40242 0.01277
C 14.70267 6.97433 -0.02422
C 14.74529 8.39111 -0.01721
C 15.82305 9.19411 -0.01154
C 16.07663 10.48918 0.0106
C 14.69657 29.83711 -0.01594
C 16.11284 31.89996 0.00742
C 14.90593 32.58378 -0.00311
C 12.3008 0.03998 0.00675
C 13.58945 0.63014 -0.00865
C 13.53428 2.05604 0.0058
C 12.28306 2.69862 -0.00652
C 12.23527 4.17467 -0.04076
C 13.53959 4.94771 -0.00703
C 13.44085 6.29115 0.00654
C 12.22725 6.98049 -0.04422
C 12.25998 29.94501 -0.02957
C 13.51402 30.56493 -0.00831
C 13.58078 32.02651 0.00364
C 12.33808 32.76201 -0.017
C 9.83795 0.07277 0.00143
C 11.03379 0.79016 0.00667
C 10.95699 2.15454 -0.0054
C 17.16048 32.6549 -0.01662
C 17.2266 17.1702 -0.01185
C 17.38318 15.83959 0.01126
C 18.40576 14.94531 0.01852
C 19.63493 0.18658 0.01423
C 20.95689 0.48103 0.02555
C 20.89274 2.05363 0.03102
C 19.70615 2.77075 0.00135
C 19.65648 4.21911 -0.00498
C 20.90756 5.0197 0.02737
C 20.99342 6.37712 0.02117
C 19.73691 7.13515 -0.04078
C 19.71786 8.49002 0.03005
C 20.91458 9.19733 -0.0276
C 20.9746 10.64695 0.00768
C 19.75675 11.36391 -0.00178
C 19.71645 12.75686 0.00733
C 20.9039 13.49912 -0.02118
C 9.78099 2.91448 0.00755
C 20.94063 15.09567 -0.01971
C 17.2219 0.01156 -0.01107
C 18.40599 0.72885 0.00071
C 18.44036 2.249 -0.00225
C 17.22646 2.89203 0.01515
C 17.26349 4.31124 -0.0055
C 18.54143 5.00067 0.02734
C 18.43645 6.33941 0.01153
C 17.17196 7.01977 0.02239
C 17.16512 8.48241 -0.03213
C 18.40887 9.21134 -0.02845
C 18.52397 10.65762 0.03374
C 17.12783 11.41748 0.0296
C 17.27682 12.7728 0.03046
C 18.3851 13.39994 -0.00381
C 19.57922 15.39755 -0.01586
C 9.75864 4.31381 0.01739
C 11.05122 4.92266 0.03754
C 10.98359 6.531 -0.03557
C 4.93587 25.55113 0.00798
C 6.17305 26.23805 0.00228
C 6.16064 27.68345 -0.00114
C 4.91833 28.45332 -0.02696
C 4.92436 29.82628 -0.00368
C 6.11049 30.60674 -0.0108
C 6.1831 32.00042 -0.01957
C 4.89155 32.63467 0.02058
C 2.43419 0.02007 0.01965
C 3.69071 0.62703 -0.03682
C 3.65289 2.05762 0.00052
C 2.43783 2.85185 0.00374
C 2.46073 4.2498 -0.02813
C 3.66955 5.07434 -0.01952
C 4.90953 24.01273 0.00422
C 3.63107 6.46456 0.05265
C 2.41947 8.58089 0.00244
C 3.70329 9.08806 0.02299
C 2.33032 11.39534 0.03542
C 2.41961 19.87436 0.01416
C 2.45408 21.2544 0.01945
C 3.62929 21.9505 -0.01454
C 3.65314 23.30806 0.01241
C 2.33492 24.11689 0.0076
C 2.40623 25.53982 0.02162
C 3.59949 26.29327 -0.0014
C 3.68441 27.69047 0.00415
C 2.44762 28.38385 -0.02162
C 2.40648 29.84689 0.01363
C 3.70648 30.45455 0.01877
C 2.38908 7.12445 -0.01717
C 22.13732 15.62558 -0.00285
C 6.09958 23.43257 0.0351
C 4.88487 7.20464 0.02098
C 9.76011 7.07817 -0.00111
C 9.73432 28.52883 0.04892
C 9.82975 29.83777 0.01452
C 11.01958 30.53276 -0.01581
C 11.12244 32.02614 0.02691
C 9.8722 32.70922 -0.01979
C 7.41506 0.02376 0.02188
C 8.63938 0.76123 -0.00316
C 8.60361 2.19522 -0.0331
C 7.27078 2.86512 -0.0258
C 7.29827 4.32615 0.03338
C 8.53479 4.99445 -0.00491
C 8.59115 6.5162 -0.00109
C 7.28347 6.95169 0.03698
C 4.81392 8.64764 -0.03113
C 7.17511 24.21075 -0.02213
C 8.72911 26.22103 -0.00289
C 8.69189 27.65009 -0.00066
C 7.37105 28.49399 0.00213
C 7.36583 29.8373 -0.05302
C 8.59327 30.54137 -0.04147
C 8.65 32.01457 -0.02815
C 7.45301 32.70521 0.03505
C 4.90603 34.03125 0.01443
C 6.21802 0.72693 0.00979
C 6.08578 2.11243 -0.00481
C 4.88507 2.82773 0.00889
C 4.84162 4.25037 -0.02162
C 6.07338 4.98145 -0.00619
C 6.09577 6.47542 0.01848
C 7.50607 25.53317 0.00028
C 3.6751 31.96339 -0.00925
C 23.34929 15.03031 -0.009
C 22.11298 12.82244 -0.00229
C 31.90161 2.85798 0.00349
C 31.90691 4.29278 -0.03838
C 33.18594 4.96106 0.04926
C 33.22037 6.34369 -0.00069
C 32.00344 7.07693 0.01504
C 31.97508 8.55896 0.02806
C 33.17447 9.31661 0.04381
C 33.13156 10.71324 0.00199
C 31.95812 11.42851 0.00137
C 32.03573 12.8065 -0.01839
C 33.27704 13.53103 -0.00644
C 33.28998 14.9118 0.00455
C 31.98302 15.56501 0.00369
C 31.93627 16.87713 -0.02474
C 33.15074 17.65398 0.00594
C 33.12056 19.13477 -0.0136
C 31.76887 19.95659 -0.01429
C 31.96121 21.28283 -0.02383
C 33.12464 21.97078 0.01574
C 33.04944 23.45579 0.01927
C 32.07049 24.262 0.03794
C 32.05014 25.55104 -0.01779
C 33.15936 26.28671 0.00682
C 33.19764 27.71253 0.00026
C 32.05858 28.44367 0.0544
C 31.92145 29.77967 -0.02142
C 33.23422 30.59149 0.01428
C 33.23245 31.99197 -0.01694
C 32.00342 32.77385 0.01713
C 33.14443 2.21301 -0.00323
C 33.22692 0.85546 -0.00841
C 32.00277 0.06391 0.0001
C 34.41084 32.76314 -0.02927
C 1.23541 0.78104 -0.00468
C 1.15021 2.18485 -0.00939
C 34.42701 2.91384 -0.00931
C 34.41004 4.27949 -0.0345
C 1.24007 4.98425 0.00628
C 1.18143 6.42437 0.02931
C 34.40415 7.11383 -0.02849
C 34.42541 8.5789 -0.02302
C 1.20211 9.26745 -0.00583
C 1.23182 10.69771 -0.00027
C 34.39676 11.38506 -0.02442
C 0.10136 12.83917 -0.02656
C 1.24768 13.57384 0.00343
C 1.12966 14.77475 -0.02957
C 29.5139 34.02842 0.00346
C 0.07287 15.70141 0.02114
C 1.27192 17.74881 0.01223
C 1.31487 19.05099 -0.01678
C 34.35103 19.82755 0.01951
C 34.40069 21.25955 -0.02213
C 1.14839 22.01274 0.02712
C 1.12782 23.4482 0.00723
C 34.30774 24.11601 0.03076
C 34.3729 25.5749 -0.05239
C 1.14868 26.24603 -0.00598
C 1.20897 27.76032 -0.00439
C 34.3866 28.401 -0.01037
C 0.01345 29.88456 0.01831
C 1.22605 30.58224 0.01027
C 1.1531 32.00238 -0.01404
C 0.00729 17.14591 0.00648
C 30.73871 0.72893 0.00307
C 30.71306 2.19907 0.00716
C 29.45223 2.83386 0.02108
C 27.12765 16.98858 0.01094
C 28.16056 17.79368 0.02198
C 24.56291 0.03291 0.02611
C 25.81563 0.56352 -0.00621
C 25.79337 2.10288 0.00194
C 24.57783 2.83932 0.04185
C 24.61568 4.27351 0.02316
C 25.79567 4.97893 0.01257
C 25.82553 6.38388 0.00152
C 24.6022 7.08111 -0.00294
C 24.65196 8.47577 0.00826
C 25.80015 9.15944 0.00487
C 25.8918 10.64684 -0.00942
C 24.62994 11.3287 -0.02815
C 27.00575 15.62751 0.00235
C 24.61328 12.72754 0.00622
C 25.80873 14.93309 -0.00037
C 24.68064 15.59064 -0.01654
C 22.15488 33.97757 -0.00218
C 23.40873 0.57866 -0.00802
C 23.34912 2.15642 0.00195
C 22.10531 2.83237 0.00996
C 22.10489 4.21725 0.04306
C 23.35119 4.90667 0.00367
C 23.33743 6.39047 -0.01679
C 22.1771 7.13821 -0.01052
C 22.17627 8.48496 0.00684
C 23.34899 9.18927 -0.01154
C 23.43554 10.64769 -0.0264
C 22.20049 11.39186 -0.00938
C 25.80107 13.42669 -0.0032
C 23.38017 13.54911 -0.01199
C 28.29215 14.9284 0.01495
C 27.05936 12.69631 0.01799
C 29.5357 4.31843 0.0103
C 30.6994 5.01739 0.07705
C 30.75922 6.48569 0.01908
C 29.48478 7.19275 0.01518
C 29.46314 8.59863 -0.00971
C 30.70521 9.19123 -0.03735
C 30.7289 10.67276 -0.00944
C 29.51608 11.35495 -0.02155
C 29.52357 12.77338 -0.01461
C 30.79501 13.49413 -0.01303
C 30.65757 14.83772 -0.0405
C 29.47438 15.70117 0.01705
C 29.36591 17.12228 0.0101
C 30.73317 17.77581 -0.00669
C 28.30391 13.45745 0.01259
C 30.78298 19.06192 0.03531
C 30.63718 31.90064 -0.03039
C 29.47839 32.62538 -0.01415
C 27.10539 34.067 -0.01854
C 28.22664 0.70235 -0.02049
C 28.27782 2.09026 0.03265
C 27.07245 2.85586 0.00261
C 27.04905 4.29067 0.02326
C 28.29463 5.02994 0.00924
C 28.32834 6.47201 0.0014
C 27.04038 7.06089 0.01324
C 27.02382 8.4787 0.04266
C 28.23583 9.25826 0.01177
C 28.33138 10.6633 -0.00416
C 27.07795 11.33579 0.01699
C 30.87368 30.61614 0.01836
C 2.44164 32.6587 0.00444
