404
Graphene
C 34.39577 0.04217 0.01295
C 12.30589 32.68139 -0.01046
C 13.78369 31.88425 -0.00891
C 13.57273 30.38387 0.02819
C 12.26694 29.80595 0.00165
C 12.19754 28.42267 -0.02971
C 13.45431 27.70965 0.02894
C 13.49337 26.23596 -0.01789
C 12.27039 25.61655 0.00444
C 12.29731 24.0785 -0.00925
C 13.4988 23.33636 0.01877
C 13.60975 21.8874 0.01363
C 12.28184 21.15892 -0.02162
C 12.33137 19.72361 0.00415
C 13.69371 18.84439 -0.0014
C 13.6388 17.41852 0.02162
C 12.26949 16.97047 0.0076
C 12.13588 15.51711 0.01241
C 13.3987 14.98396 -0.01454
C 13.57141 13.50374 0.01945
C 12.24321 12.71086 0.01416
C 12.30594 11.31709 0.03542
C 9.83205 0.07419 -0.02689
C 13.53735 10.62517 0.02299
C 11.02627 0.75143 -0.01536
C 9.84769 2.91645 -0.00428
C 9.83672 25.56859 0.00057
C 9.86796 24.12447 -0.01634
C 11.11164 23.43173 -0.00334
C 11.04685 21.99501 0.02339
C 9.89903 21.2436 0.01641
C 9.87349 19.85314 -0.00719
C 11.09342 19.16419 0.01364
C 11.01456 17.70737 -0.01062
C 9.79116 17.14314 -0.00033
C 9.80022 15.57678 0.03589
C 10.9873 14.85455 -0.02759
C 11.00754 13.44152 0.0402
C 9.79949 12.76155 0.00572
C 9.8048 11.32009 0.03592
C 11.04419 10.65517 0.00406
C 11.08689 9.20901 0.00943
C 9.78876 8.53525 0.02841
C 9.86732 7.20363 -0.01111
C 11.11959 6.43408 -0.01275
C 11.08439 5.03814 0.00985
C 9.78085 4.33231 -0.02245
C 11.03358 2.21795 0.03101
C 13.51849 9.23861 0.00244
C 12.2972 8.52109 -0.01717
C 12.28219 7.16736 0.05265
C 14.75459 7.19004 -0.02815
C 16.02712 6.45132 -0.04147
C 15.97847 5.0234 -0.05302
C 14.78177 4.27152 0.00213
C 14.737 2.79452 -0.00066
C 16.02149 2.21636 -0.00289
C 15.93514 0.80715 0.00028
C 14.76631 34.07703 -0.02213
C 16.92253 32.75418 0.03698
C 18.27932 31.99155 -0.00109
C 18.33425 30.56268 -0.00491
C 17.26742 29.7385 0.03338
C 17.20049 28.35993 -0.0258
C 18.4127 27.63137 -0.0331
C 18.36394 26.29025 -0.00316
C 17.11249 25.59728 0.02188
C 17.21576 24.16899 -0.01979
C 18.36138 23.43169 0.02691
C 18.49584 22.02826 -0.01581
C 17.27186 21.32725 0.01452
C 17.36486 19.80706 0.04892
C 14.73001 8.51834 0.03505
C 15.94517 9.21522 0.01443
C 15.96183 10.70325 0.00979
C 14.73601 11.39871 -0.00481
C 13.52553 6.47415 -0.01952
C 13.65002 4.99584 -0.02813
C 12.35878 4.29506 0.00374
C 12.3055 2.91545 0.00052
C 13.48135 2.14249 -0.03682
C 13.50145 0.74955 0.01965
C 12.29978 0.03304 0.02058
C 15.00029 32.69837 -0.01957
C 14.5606 28.51362 -0.0108
C 15.79706 27.79894 -0.00368
C 11.01164 26.2956 0.00093
C 15.92019 26.26574 -0.02696
C 14.71623 24.07932 0.00228
C 16.00346 23.40308 0.00798
C 16.01094 21.96934 0.00422
C 14.88239 21.10001 0.0351
C 14.92894 19.55481 -0.03113
C 16.30376 18.87703 0.02098
C 14.58372 15.84292 0.01848
C 15.86736 15.21287 -0.00619
C 15.97317 13.65448 -0.02162
C 14.74322 12.85476 0.00889
C 14.71044 25.53216 -0.00114
C 18.58147 19.19067 -0.00111
C 10.99983 27.66735 0.01291
C 9.78555 29.86875 -0.00191
C 2.37209 4.25396 0.00643
C 2.48863 2.84575 -0.01509
C 3.69728 2.15625 0.03267
C 3.57496 0.79988 0.02374
C 2.39078 0.06014 0.00402
C 4.81673 32.78478 0.0073
C 6.08514 32.07321 0.0174
C 6.0606 30.61249 0.03828
C 4.79778 29.9301 0.01226
C 4.84987 28.42681 -0.00279
C 6.0605 27.76058 0.01996
C 6.11207 26.33562 -0.03996
C 4.86256 25.61457 0.01465
C 4.909 24.15094 -0.00074
C 6.13307 23.49126 -0.00518
C 6.16914 22.01599 0.0086
C 4.94556 21.32882 -0.00643
C 4.91402 19.86467 0.017
C 6.12453 19.16906 -0.03113
C 6.1879 17.80492 -0.02566
C 4.85354 17.06385 -0.00094
C 3.63302 5.01581 0.00907
C 4.85655 15.6381 0.02322
C 3.67262 6.4239 0.02379
C 2.4441 8.52564 -0.003
C 3.70591 30.59198 0.00081
C 2.38259 29.78336 0.00245
C 2.43866 28.39838 0.02728
C 3.63805 27.68046 -0.00039
C 3.66214 26.24131 0.0064
C 2.4526 25.60008 0.00211
C 2.42054 24.09402 -0.00449
C 3.64984 23.46521 -0.01979
C 3.60038 22.03516 0.02784
C 2.35564 21.28212 -0.01977
C 2.45222 19.87161 -0.00561
C 3.6193 19.17874 0.00208
C 3.61099 17.81046 0.01707
C 2.43106 17.04854 0.02769
C 2.33174 15.59576 -0.03291
C 3.6098 14.91746 -0.04999
C 3.65173 13.54859 0.04505
C 2.33512 12.8238 0.03284
C 2.39985 11.38098 -0.04307
C 3.60684 10.65923 0.03189
C 3.67022 9.30577 0.00031
C 2.42317 7.0968 0.01402
C 6.15556 14.9563 -0.00725
C 6.1784 13.58094 -0.05697
C 4.90559 12.81379 0.01087
C 8.59837 17.78251 -0.04848
C 7.42638 17.02982 -0.00892
C 7.37892 15.65901 -0.01362
C 8.56866 14.90231 -0.0008
C 8.50822 13.54251 0.0288
C 7.34279 12.80182 0.00393
C 7.40053 11.36423 0.00895
C 8.60355 10.65533 0.00685
C 8.6229 9.27184 0.02888
C 7.40503 8.57401 -0.00482
C 7.38779 7.1715 -0.01384
C 8.6027 6.52397 0.03693
C 8.58493 5.12614 0.01745
C 7.39645 4.3432 0.00488
C 7.37476 2.97907 -0.01004
C 8.59483 2.24165 -0.02896
C 8.53791 0.86245 -0.00131
C 7.29862 0.11323 -0.01118
C 9.81814 32.7834 -0.014
C 10.95147 32.01572 0.02147
C 10.99095 30.58928 0.00373
C 8.58199 19.20583 0.01572
C 7.39433 19.93406 -0.00095
C 7.43171 21.39762 0.03007
C 8.64688 22.04737 0.00054
C 4.82796 11.3862 -0.01343
C 6.03412 10.66821 0.00988
C 6.06291 9.27542 0.0276
C 4.86399 8.53951 0.01305
C 4.92781 7.12276 -0.00077
C 6.11647 6.43612 0.03368
C 6.1128 5.03769 -0.02929
C 4.90759 4.37342 -0.00966
C 4.89762 2.87961 -0.03337
C 6.12595 2.31265 0.01227
C 9.76135 28.41499 0.00438
C 6.08809 0.81334 0.00873
C 7.33749 32.72103 0.00848
C 8.53263 32.02756 -0.01303
C 8.55432 30.59894 -0.01378
C 7.27312 29.87374 0.02635
C 7.35355 28.45936 0.0127
C 8.56731 27.74268 0.01396
C 8.56631 26.33781 0.01849
C 7.32828 25.59827 -0.01142
C 7.34451 24.1915 -0.00562
C 8.58643 23.45536 -0.00494
C 4.84081 0.0907 -0.00049
C 18.50525 17.81915 -0.03557
C 17.11178 17.35033 0.03754
C 17.12849 15.8453 0.01739
C 29.53645 23.98212 -0.00971
C 30.90087 23.1951 0.01518
C 29.64934 11.3467 0.01908
C 30.7874 10.57977 0.07705
C 30.81473 9.18302 0.0103
C 29.50612 8.57261 0.02108
C 29.47142 7.10943 0.00716
C 30.75551 6.40676 0.00307
C 30.75304 4.96159 0.00346
C 29.50267 4.28553 0.01713
C 29.48191 2.89864 -0.01694
C 30.71763 2.16411 0.01428
C 30.75767 0.6206 -0.02142
C 29.50011 0.02704 0.0544
C 31.99554 32.66456 0.00026
C 33.19183 31.95731 0.00682
C 33.14438 30.49949 -0.01779
C 31.94361 29.81323 0.03794
C 31.90003 28.33624 0.01927
C 33.08775 27.60405 0.01574
C 33.14766 26.2576 -0.02383
C 29.45706 25.50324 -0.03735
C 31.9609 25.56112 -0.01429
C 30.7182 26.2468 -0.00944
C 29.38312 28.32538 -0.01461
C 28.18276 27.5706 0.01699
C 28.16734 26.18997 -0.00416
C 27.00779 25.36566 0.01177
C 26.95354 23.98267 0.04266
C 28.28489 23.40813 0.01324
C 27.01571 11.34692 0.0014
C 28.26562 10.81193 0.00924
C 28.32808 9.35778 0.02326
C 27.08471 8.59121 0.00261
C 27.08623 7.11925 0.03265
C 28.28765 6.38646 -0.02049
C 28.22874 4.92675 -0.01854
C 27.04266 4.26466 -0.01415
C 27.03191 2.8344 -0.03039
C 28.27628 2.15894 0.01836
C 28.21535 0.7272 0.03531
C 27.07259 34.02607 -0.00669
C 29.49985 32.6814 0.0101
C 30.69783 31.89243 0.01705
C 30.72768 30.52156 -0.0405
C 29.4754 29.84186 -0.01303
C 30.66257 27.69868 -0.02155
C 31.93277 24.07808 -0.0136
C 33.16722 23.41839 0.00594
C 33.0252 22.00961 -0.02474
C 1.19418 21.92146 0.02712
C 34.27382 21.18948 -0.02213
C 34.34505 19.7936 0.01951
C 1.22951 19.20559 -0.01678
C 1.15682 17.82744 0.01223
C 34.38775 17.11675 0.00648
C 34.28253 15.74734 0.02114
C 1.0983 14.95392 -0.02957
C 1.06576 13.47632 0.00343
C 34.27133 12.78913 -0.02656
C 34.43176 11.34458 -0.02442
C 1.18876 10.62936 -0.00027
C 1.22813 9.20863 -0.00583
C 34.40755 8.4744 -0.02302
C 34.42101 7.07605 -0.02849
C 1.22469 6.43457 0.02931
C 1.20365 4.97413 0.00628
C 34.4167 4.25495 -0.0345
C 34.39962 2.82491 -0.00931
C 1.2355 2.17778 -0.00939
C 1.16007 0.8019 -0.00468
C 1.22112 23.37338 0.00723
C 34.41223 24.09438 0.03076
C 34.38209 25.46779 -0.05239
C 1.1387 26.20711 -0.00598
C 31.52996 21.67323 0.00369
C 33.18646 14.95092 0.00455
C 32.94677 13.52695 -0.00644
C 31.90087 12.59543 -0.01839
C 32.07628 11.26189 0.00137
C 33.31517 10.60577 0.00199
C 33.21577 9.20138 0.04381
C 31.89209 8.48386 0.02806
C 31.9534 7.09254 0.01504
C 33.18402 6.36161 -0.00069
C 26.99919 28.3136 0.01799
C 33.18418 4.94501 0.04926
C 31.89697 2.8257 0.00349
C 33.15498 2.15875 -0.00323
C 33.20883 0.74778 -0.00841
C 31.98767 34.05062 0.0001
C 34.3911 32.63256 -0.02927
C 1.19644 31.99487 -0.01404
C 1.13035 30.5487 0.01027
C 34.37299 29.81016 0.01831
C 34.37441 28.32765 -0.01037
C 1.1604 27.68475 -0.00439
C 31.91544 4.26031 -0.03838
C 26.97908 29.7708 0.01259
C 28.26247 30.52613 0.01495
C 28.19804 31.9763 0.00235
C 19.7835 21.34074 0.01087
C 19.72878 19.96027 0.00199
C 20.82249 19.02987 0.01511
C 20.91693 17.79433 -0.00478
C 19.68681 17.00363 -0.01662
C 19.57119 15.62961 -0.01185
C 20.84584 14.92909 0.01126
C 21.02798 13.50274 0.01852
C 19.73521 12.84725 -0.00381
C 19.69867 11.43333 0.03046
C 20.95473 10.68152 0.0296
C 20.95011 9.25535 0.03374
C 19.71033 8.5588 -0.02845
C 19.66598 7.10071 -0.03213
C 20.91651 6.4074 0.02239
C 20.90289 4.96856 0.01153
C 19.70386 4.28666 0.02734
C 19.64427 2.8497 -0.0055
C 20.8572 2.08962 0.01515
C 20.93116 0.71919 -0.00225
C 19.57602 34.07198 0.00071
C 20.96174 22.06066 -0.01527
C 20.81484 23.44076 0.00096
C 19.61167 24.07141 0.01277
C 19.61957 25.52157 -0.02422
C 18.35332 15.08485 0.00755
C 18.49603 13.5467 -0.0054
C 17.23964 12.91415 0.00667
C 17.27039 11.3959 0.00143
C 18.47886 10.65348 -0.017
C 18.46099 9.13739 0.00364
C 17.2266 8.50875 -0.00831
C 17.24495 7.10555 -0.02957
C 18.43666 6.40981 -0.04422
C 18.51518 5.01943 0.00654
C 22.1251 32.60545 -0.01107
C 17.2535 4.26105 -0.00703
C 18.49084 2.09199 -0.00652
C 18.39126 0.69033 0.0058
C 17.13412 0.02097 -0.00865
C 19.53403 32.65848 0.00675
C 20.85695 31.91837 -0.00311
C 20.79006 30.44003 0.00742
C 19.72657 29.78245 -0.01594
C 19.56694 28.38273 0.0106
C 20.84702 27.67478 -0.01154
C 20.84548 26.24016 -0.01721
C 17.20406 2.85294 -0.04076
C 3.59854 32.02433 -0.02805
C 23.36683 31.9614 -0.01586
C 22.06565 29.85135 -0.02118
C 24.56909 29.77094 0.00195
C 24.5724 28.33995 -0.00802
C 25.83259 27.57626 -0.00218
C 25.71 26.10909 -0.01654
C 24.46634 25.37841 -0.00037
C 24.40489 23.97195 -0.0032
C 25.70416 23.4313 0.00622
C 24.7417 12.70074 -0.02815
C 24.54703 11.35958 -0.00942
C 25.83101 10.62533 0.00487
C 25.85579 9.28738 0.00826
C 24.62568 8.46225 -0.00294
C 24.6028 7.10204 0.00152
C 25.90856 6.40397 0.01257
C 25.86633 4.96507 0.02316
C 24.62922 4.2578 0.04185
C 24.63712 2.9018 0.00194
C 25.82297 2.14012 -0.00621
C 25.80927 0.67315 0.02611
C 24.61281 0.01229 0.02198
C 27.03515 32.58354 0.01094
C 25.8141 30.46224 0.00996
C 25.74903 31.86872 0.04306
C 24.60937 32.64556 0.00367
C 22.13789 34.02609 -0.01679
C 22.15565 28.40986 0.00733
C 23.37705 27.6966 -0.00178
C 23.37991 26.24882 0.00768
C 22.11061 25.57884 -0.0276
C 22.0341 24.09916 0.03005
C 23.10993 23.08704 -0.04078
C 22.38303 21.57208 0.02117
C 22.18562 15.57448 0.02737
C 23.22564 14.98944 -0.00498
C 23.62636 13.58458 0.00135
C 23.35384 30.54015 -0.01971
C 22.25541 12.86987 0.03102
C 23.35447 10.64544 0.01423
C 23.40549 9.17605 -0.00285
C 22.18092 8.42862 -0.009
C 22.15607 7.09004 -0.01199
C 23.34678 6.31043 -0.00229
C 23.39494 4.90009 -0.00938
C 22.21089 4.21366 -0.0264
C 22.08211 2.7566 -0.01154
C 23.41875 2.15088 0.00684
C 23.36386 0.73368 -0.01052
C 22.24904 11.38306 0.02555
C 2.40452 32.75809 -0.01386
