407
Graphene
C 34.39792 34.05458 0.01295
C 12.20999 28.50922 -0.02689
C 13.50299 27.69075 -0.01046
C 13.47235 26.34428 -0.00891
C 12.24629 25.60201 0.02819
C 12.23463 24.08814 0.00165
C 13.46564 23.38749 -0.02971
C 13.64012 21.98061 0.02894
C 12.40466 21.27183 -0.01789
C 12.33977 19.91693 0.00444
C 13.52558 19.14866 -0.00925
C 13.5123 17.7022 0.01877
C 12.28092 17.03673 0.01363
C 12.12862 15.59875 -0.02162
C 12.25404 8.47774 0.00415
C 12.34049 7.00081 -0.0014
C 13.54578 6.36822 0.02162
C 13.52468 4.94082 0.0076
C 12.24169 4.26962 0.01241
C 12.11731 2.89463 -0.01454
C 13.44117 2.18483 0.01945
C 13.44505 0.68394 0.01416
C 12.20907 29.92195 -0.01536
C 13.45796 30.5886 0.03101
C 13.53125 31.9789 -0.00428
C 12.2537 32.6614 -0.02245
C 9.74604 24.21406 0.01291
C 11.01637 23.44783 0.00093
C 11.0895 21.96432 0.00057
C 9.89608 21.24801 -0.01634
C 9.87569 19.84144 -0.00334
C 11.05136 19.19304 0.02339
C 11.06601 17.7497 0.01641
C 9.84062 17.0782 -0.00719
C 9.76013 15.60333 0.01364
C 10.90313 14.92592 -0.01062
C 12.15922 0.00613 0.03542
C 9.79836 12.92942 -0.00033
C 11.12967 9.21196 -0.02759
C 9.93994 8.6777 0.0402
C 9.87528 7.17817 0.00572
C 11.04708 6.46683 0.03592
C 11.05387 5.03044 0.00406
C 9.71539 4.34178 0.00943
C 9.72022 2.92584 0.02841
C 10.95048 2.13004 -0.01111
C 11.02173 0.77741 -0.01275
C 9.81366 0.02111 0.00985
C 9.85386 11.51595 0.03589
C 9.86411 25.66402 0.00438
C 14.72703 32.69923 0.02299
C 15.93972 30.56787 -0.01717
C 18.43612 27.69722 0.03505
C 18.47503 26.28476 -0.02815
C 17.22793 25.63275 -0.04147
C 17.20913 24.23373 -0.05302
C 18.41892 23.37428 0.00213
C 18.43691 21.99521 -0.00066
C 17.19273 21.26798 -0.00289
C 17.18782 19.84354 0.00028
C 18.47844 19.30891 -0.02213
C 18.55653 17.77478 0.03698
C 17.34098 17.02517 -0.00109
C 18.57811 8.51136 -0.00491
C 17.35196 7.27439 0.03338
C 18.32162 6.30302 -0.0258
C 18.24548 4.94719 -0.0331
C 17.13254 4.19367 -0.00316
C 17.16023 2.82084 0.02188
C 18.33264 2.10844 -0.01979
C 18.37638 0.70601 0.02691
C 17.17273 0.03644 -0.01581
C 19.59101 32.64673 0.01452
C 17.18561 28.40557 0.01443
C 17.22037 29.81403 0.00979
C 18.43032 30.59146 -0.00481
C 18.40211 31.95009 0.00889
C 14.62864 29.88252 0.05265
C 14.72814 28.43337 -0.01952
C 15.95305 27.71405 -0.02813
C 15.93068 26.30239 0.00374
C 14.73379 25.65852 0.00052
C 14.78452 24.19805 -0.03682
C 15.99848 23.47104 0.01965
C 16.02098 21.99254 0.02058
C 14.82862 21.23438 -0.01957
C 14.76853 19.73629 -0.0108
C 15.92987 32.02019 0.00244
C 16.01475 19.05921 -0.00368
C 14.75189 16.98628 -0.00114
C 14.76178 7.22405 0.00228
C 16.02317 6.55995 0.00798
C 16.07105 5.00889 0.00422
C 14.79121 4.30674 0.0351
C 14.65798 2.83074 -0.03113
C 15.95158 2.1183 0.02098
C 15.89215 0.76146 0.01848
C 14.63396 34.05332 -0.00619
C 17.21793 32.68706 -0.02162
C 16.00061 17.56425 -0.02696
C 20.88799 32.03489 0.04892
C 11.05526 26.34748 -0.00191
C 9.75894 28.49379 0.02147
C 2.47187 2.85183 0.02379
C 3.64688 2.17946 0.00907
C 3.59385 0.75153 0.00643
C 2.39519 0.08108 -0.01509
C 4.84965 32.69948 0.03267
C 6.05137 32.00196 0.02374
C 6.05546 30.57188 0.00402
C 4.85311 29.8286 0.0073
C 4.85419 28.38226 0.0174
C 6.07012 27.76037 0.03828
C 6.12199 26.28904 0.01226
C 4.84853 25.55939 -0.00279
C 4.82239 24.2455 0.01996
C 5.98028 23.48308 -0.03996
C 6.14052 22.09824 0.01465
C 4.80065 21.35993 -0.00074
C 4.87535 19.91219 -0.00518
C 6.15876 19.23199 0.0086
C 6.095 17.76144 -0.00643
C 4.86465 17.11798 0.017
C 4.86573 15.75106 -0.03113
C 2.42213 4.23246 0.01402
C 3.58062 5.06966 -0.003
C 3.73617 6.51419 0.00031
C 2.43406 7.2105 0.03189
C 3.61847 30.65 -0.0059
C 2.42939 29.73804 -0.01386
C 2.37471 28.37068 -0.02805
C 3.6262 27.68293 0.00081
C 3.586 26.2128 0.00245
C 2.37344 25.63665 0.02728
C 2.37008 24.17478 -0.00039
C 3.57264 23.51412 0.0064
C 3.63939 22.04863 0.00211
C 2.42874 21.26634 -0.00449
C 6.09818 15.01317 -0.02566
C 2.39582 19.85435 -0.01979
C 3.58982 17.8123 -0.01977
C 2.36259 17.09944 -0.00561
C 2.40062 15.58772 0.00208
C 3.71282 14.83584 0.01707
C 3.72845 13.47958 0.02769
C 2.3334 12.82711 -0.03291
C 2.36251 11.38603 -0.04999
C 3.69834 10.71182 0.04505
C 3.74223 9.3637 0.03284
C 2.40946 8.60103 -0.04307
C 3.68622 19.22245 0.02784
C 11.05738 27.86242 0.00373
C 6.12972 13.61019 -0.00094
C 4.9726 11.47502 -0.00725
C 7.33907 17.1421 -0.00095
C 7.24124 15.76974 0.01572
C 8.50775 14.92726 -0.04848
C 8.6093 13.54451 -0.00892
C 7.30904 12.90135 -0.01362
C 7.40832 11.47639 -0.0008
C 8.66859 10.81593 0.0288
C 8.62747 9.35487 0.00393
C 7.46263 8.60774 0.00895
C 7.42313 7.1835 0.00685
C 8.58673 6.50839 0.02888
C 8.56041 5.08756 -0.00482
C 7.38629 4.31944 -0.01384
C 7.343 2.90851 0.03693
C 8.61949 2.0959 0.01745
C 8.56139 0.76082 0.00488
C 7.25178 0.07296 -0.01004
C 9.74912 32.705 -0.02896
C 10.95859 31.91424 -0.00131
C 10.9114 30.50391 -0.01118
C 9.63662 29.96132 -0.014
C 8.65685 17.79224 0.03007
C 8.67476 19.14345 0.00054
C 7.38159 19.85445 -0.00494
C 7.40817 21.33941 -0.00562
C 6.19197 10.68212 -0.05697
C 6.22635 9.32318 0.01087
C 4.95477 8.66068 -0.01343
C 4.96128 7.23553 0.00988
C 6.13403 6.47057 0.0276
C 6.07782 5.03872 0.01305
C 4.81835 4.37489 -0.00077
C 4.79327 2.9536 0.03368
C 6.07369 2.28162 -0.02929
C 6.06554 0.85024 -0.00966
C 4.97108 12.87466 0.02322
C 4.91032 0.10997 -0.03337
C 8.45882 32.02195 0.00873
C 8.46695 30.67569 -0.00049
C 7.24608 29.90675 0.00848
C 7.3332 28.52172 -0.01303
C 8.49836 27.74402 -0.01378
C 8.56137 26.3642 0.02635
C 7.32175 25.64223 0.0127
C 7.29777 24.21007 0.01396
C 8.53064 23.51373 0.01849
C 8.57867 21.97333 -0.01142
C 7.27034 32.73651 0.01227
C 3.5975 32.03232 0.00558
C 20.86451 30.52827 -0.00111
C 19.67473 28.39582 0.03754
C 29.51295 8.44228 -0.00971
C 29.50547 7.0609 0.01518
C 30.69202 6.31002 0.01908
C 30.64239 4.90008 0.07705
C 29.41861 4.19893 0.0103
C 29.43246 2.81913 0.02108
C 30.63292 2.10072 0.00716
C 30.67953 0.73113 0.00307
C 29.52543 0.0089 0.00346
C 31.84258 32.6411 0.01713
C 33.07317 31.96165 -0.01694
C 33.05702 30.54726 0.01428
C 31.89089 29.73461 -0.02142
C 31.94768 28.35971 0.0544
C 33.08632 27.67816 0.00026
C 33.18396 26.25141 0.00682
C 31.93583 25.57014 -0.01779
C 31.92117 24.15185 0.03794
C 33.14316 23.42889 0.01927
C 33.12378 22.01289 0.01574
C 31.92992 21.27098 -0.02383
C 30.7574 9.2425 -0.03735
C 30.66547 10.6385 -0.00944
C 29.48265 11.27249 -0.02155
C 29.45061 12.64163 -0.01461
C 28.22733 2.04918 0.01799
C 28.26602 0.69574 0.01699
C 27.06239 33.99037 -0.00416
C 29.39198 32.7421 0.01177
C 30.70932 31.95277 0.04266
C 30.66542 30.52135 0.01324
C 29.45027 29.82294 0.0014
C 29.43173 28.42203 0.00924
C 30.70607 27.69167 0.02326
C 30.71118 26.26423 0.00261
C 31.88799 19.81504 -0.01429
C 29.46904 25.53824 0.03265
C 30.71836 23.469 -0.01854
C 30.72057 22.07007 -0.01415
C 29.49773 21.37533 -0.03039
C 29.46779 19.95115 0.01836
C 30.7175 19.17882 0.03531
C 30.729 17.68438 -0.00669
C 29.48926 16.96497 0.0101
C 29.46312 15.54501 0.01705
C 30.7115 14.92416 -0.0405
C 30.71086 13.41057 -0.01303
C 29.46605 24.09314 -0.02049
C 26.98724 2.76765 0.01259
C 33.21427 19.25682 -0.0136
C 31.96556 17.00016 -0.02474
C 1.20757 21.99622 0.02712
C 34.41261 21.32373 -0.02213
C 34.40753 19.94196 0.01951
C 1.16869 19.11277 -0.01678
C 1.10505 17.73703 0.01223
C 34.35691 17.02503 0.00648
C 34.3495 15.63177 0.02114
C 1.19645 14.94985 -0.02957
C 1.22555 13.57965 0.00343
C 34.38598 12.81351 -0.02656
C 34.29659 11.41047 -0.02442
C 1.17313 10.68791 -0.00027
C 1.20541 9.20743 -0.00583
C 34.43119 8.41068 -0.02302
C 0.00112 6.98769 -0.02849
C 1.25174 6.37174 0.02931
C 1.22471 4.99736 0.00628
C 34.40186 4.23684 -0.0345
C 34.38279 2.8498 -0.00931
C 1.20096 2.1778 -0.00939
C 1.20368 0.78771 -0.00468
C 1.21426 23.46199 0.00723
C 34.3521 24.15206 0.03076
C 34.37549 25.51692 -0.05239
C 1.14416 26.26643 -0.00598
C 31.93722 15.6177 0.00369
C 33.17575 14.87091 0.00455
C 33.14059 13.44905 -0.00644
C 31.85413 12.74545 -0.01839
C 31.8585 11.38844 0.00137
C 33.10624 10.60101 0.00199
C 33.18147 9.17707 0.04381
C 32.00139 8.51802 0.02806
C 31.94598 7.04279 0.01504
C 33.15366 6.38221 -0.00069
C 33.16491 17.79804 0.00594
C 33.09731 4.94872 0.04926
C 31.91485 2.84113 0.00349
C 33.14834 2.19582 -0.00323
C 33.1782 0.72876 -0.00841
C 31.9314 0.0474 0.0001
C 34.32142 32.61613 -0.02927
C 1.11254 31.94428 -0.01404
C 1.16764 30.5096 0.01027
C 34.41358 29.87365 0.01831
C 34.35195 28.46218 -0.01037
C 1.09055 27.70512 -0.00439
C 31.90606 4.23775 -0.03838
C 19.5866 29.79906 -0.03557
C 26.91568 4.15558 0.01495
C 28.29408 6.41437 0.01094
C 23.3627 32.02117 -0.01527
C 23.37201 30.51907 0.01087
C 22.11327 29.83728 0.00199
C 22.11101 28.48448 0.01511
C 23.32989 27.72026 -0.00478
C 23.35939 26.26999 -0.01662
C 22.1693 25.48116 -0.01185
C 22.1212 24.11914 0.01126
C 23.38447 23.42404 0.01852
C 23.41127 21.97857 -0.00381
C 22.07383 21.34356 0.03046
C 22.06077 19.86758 0.0296
C 23.35217 19.15714 0.03374
C 23.38468 17.77704 -0.02845
C 22.21179 17.01263 -0.03213
C 22.15589 15.57662 0.02239
C 23.36997 14.82858 0.01153
C 23.45318 13.38663 0.02734
C 22.14714 12.68992 -0.0055
C 22.11994 11.31308 0.01515
C 21.73479 4.21731 -0.00225
C 22.10346 32.71909 0.00096
C 19.64322 34.02964 0.01277
C 20.81826 0.74154 -0.02422
C 20.97508 2.08152 -0.01721
C 20.86281 27.65502 0.01739
C 20.88349 26.16775 0.00755
C 19.65192 25.49622 -0.0054
C 19.60459 24.09827 0.00667
C 20.85708 23.41596 0.00143
C 20.87476 22.03685 -0.017
C 19.66751 21.32444 0.00364
C 19.73916 19.89967 -0.00831
C 20.93344 19.21989 -0.02957
C 20.94761 17.69799 -0.04422
C 22.08732 2.89764 0.00071
C 19.69439 17.04303 0.00654
C 20.86888 14.90788 -0.04076
C 20.78324 13.40388 -0.00652
C 19.78957 12.51533 0.0058
C 20.04508 11.28018 -0.00865
C 21.0669 10.57289 0.00675
C 19.96128 8.3505 -0.00311
C 19.56314 7.06327 0.00742
C 20.75277 5.12908 -0.01594
C 19.53657 4.29415 0.0106
C 19.60057 2.8357 -0.01154
C 19.67623 15.65286 -0.00703
C 28.17441 4.94767 0.00235
C 23.4395 2.26124 -0.01107
C 22.12209 0.09324 -0.01971
C 28.20411 30.518 0.00996
C 27.01616 29.80746 0.00195
C 26.99082 28.34998 -0.00802
C 28.21954 27.69001 -0.00218
C 28.21298 26.31132 -0.01654
C 27.04125 25.6262 -0.00037
C 27.05675 24.2117 -0.0032
C 28.26403 23.421 0.00622
C 28.27054 22.00233 -0.02815
C 27.04049 21.33832 -0.00942
C 26.9595 19.78388 0.00487
C 28.27111 19.12451 0.00826
C 28.3438 17.76159 -0.00294
C 27.06045 16.99249 0.00152
C 27.0417 15.56564 0.01257
C 28.28236 14.85643 0.02316
C 28.23245 13.4277 0.04185
C 26.90084 12.70332 0.00194
C 26.94423 11.28332 -0.00621
C 28.12561 10.49611 0.02611
C 28.19692 8.98958 0.02198
C 28.2761 31.9178 0.04306
C 27.00669 32.57496 0.00367
C 24.4993 0.02305 -0.01679
C 25.8173 0.65338 -0.01052
C 24.55458 32.64057 -0.02118
C 25.81929 31.93374 0.00733
C 25.80335 30.52174 -0.00178
C 24.57997 29.76991 0.00768
C 24.58311 28.31799 -0.0276
C 25.7204 27.61517 0.03005
C 25.80501 26.28783 -0.04078
C 24.57609 25.5947 0.02117
C 24.57861 24.1146 0.02737
C 25.81388 23.41104 -0.00498
C 23.28468 0.8327 -0.01586
C 25.84144 22.06415 0.00135
C 24.49395 19.84772 0.02555
C 25.82356 19.05713 0.01423
C 25.84428 17.67344 -0.00285
C 24.54404 17.01614 -0.009
C 24.6069 15.64406 -0.01199
C 25.80166 14.92669 -0.00229
C 25.88274 13.47973 -0.00938
C 24.59763 12.78296 -0.0264
C 24.5631 2.93729 -0.01154
C 25.80206 2.09433 0.00684
C 24.57951 21.29034 0.03102
C 2.31528 32.6868 -0.02375
