354
Graphene
C 34.37822 33.99371 0.01295
C 13.45673 19.14977 -0.02696
C 13.61409 17.70212 -0.00114
C 12.3542 17.07589 0.00228
C 12.26393 15.69096 0.00798
C 13.53934 14.88906 0.00422
C 13.5351 13.4565 0.0351
C 12.26454 12.81116 -0.03113
C 12.31861 11.3914 0.02098
C 12.33178 19.96138 -0.00368
C 13.5268 10.68837 0.01848
C 12.22876 8.60818 -0.02162
C 12.2532 7.20963 0.00889
C 13.47744 6.43291 -0.00481
C 13.42443 5.03829 0.00979
C 12.29426 4.23319 0.01443
C 12.25269 2.88232 0.03505
C 13.44405 2.16384 -0.02815
C 13.44621 0.64655 -0.04147
C 13.4849 9.35422 -0.00619
C 12.20585 34.05899 -0.05302
C 12.28569 21.28927 -0.0108
C 13.63559 23.45921 0.02058
C 9.85028 8.55162 -0.0014
C 9.81191 7.11393 0.02162
C 11.01519 6.46739 0.0076
C 11.01087 5.05183 0.01241
C 9.76747 4.40969 -0.01454
C 9.78139 2.94025 0.01945
C 11.03149 2.16623 0.01416
C 10.96171 0.71357 0.03542
C 13.52609 22.00186 -0.01957
C 9.76111 0.06815 0.02299
C 13.36063 31.86287 -0.01717
C 13.39337 30.37467 0.05265
C 12.10822 29.80667 -0.01952
C 12.18446 28.34828 -0.02813
C 13.44022 27.67744 0.00374
C 13.44568 26.3056 0.00052
C 12.32675 25.50196 -0.03682
C 12.36619 24.0664 0.01965
C 12.1143 32.67102 0.00244
C 11.0547 9.35959 0.00415
C 14.55449 32.64081 0.00213
C 15.89091 30.44649 -0.00289
C 15.86546 6.34756 0.00143
C 15.9426 4.90196 -0.017
C 14.70788 4.26328 0.00364
C 14.70649 2.83398 -0.00831
C 15.9718 2.12883 -0.02957
C 15.98187 0.64554 -0.04422
C 14.64787 34.03186 0.00654
C 17.12301 32.60449 -0.00703
C 14.70259 7.07958 0.00667
C 18.34622 31.87948 -0.04076
C 17.1656 29.7851 0.0058
C 17.19498 28.35352 -0.00865
C 18.42205 27.73639 0.00675
C 18.46004 26.23733 -0.00311
C 17.20787 25.57434 0.00742
C 17.27564 24.19811 -0.01594
C 18.57298 23.47961 0.0106
C 18.35634 22.14526 -0.01154
C 18.34258 30.54168 -0.00652
C 15.87771 31.91322 -0.00066
C 14.74378 8.50101 -0.0054
C 16.00969 10.62227 0.01739
C 14.70721 29.74763 0.00028
C 14.71438 28.35484 -0.02213
C 15.99071 27.65713 0.03698
C 15.95952 26.21411 -0.00109
C 14.7057 25.56859 -0.00491
C 14.78636 24.18025 0.03338
C 16.01558 23.51858 -0.0258
C 15.92451 22.07571 -0.0331
C 15.99173 9.2059 0.00755
C 14.75043 21.24666 -0.00316
C 15.94827 19.20203 -0.01979
C 16.05431 17.68291 0.02691
C 14.77825 17.04723 -0.01581
C 14.7662 15.6407 0.01452
C 16.02193 14.93349 0.04892
C 16.0232 13.54296 -0.00111
C 14.84537 12.73123 -0.03557
C 14.76093 11.3709 0.03754
C 14.75161 19.81793 0.02188
C 11.049 10.75867 -0.02162
C 9.77395 11.49934 0.01363
C 9.84125 12.88182 0.01877
C 2.37927 0.03261 0.00054
C 6.06653 22.1549 0.03007
C 4.88292 21.3109 -0.00095
C 4.92882 19.89842 0.01572
C 6.11237 19.25699 -0.04848
C 6.06361 17.83195 -0.00892
C 4.90993 17.07218 -0.01362
C 4.87308 15.71951 -0.0008
C 3.63758 0.76291 -0.00494
C 6.12892 14.99836 0.0288
C 4.80708 12.85082 0.00895
C 4.81303 11.50329 0.00685
C 6.07129 10.68579 0.02888
C 6.10757 9.27016 -0.00482
C 4.88484 8.59144 -0.01384
C 4.90107 7.17757 0.03693
C 6.09204 6.4297 0.01745
C 6.05476 5.04798 0.00488
C 6.11117 13.58095 0.00393
C 4.87957 4.21909 -0.01004
C 3.63628 2.18958 -0.00562
C 2.49144 4.158 0.01849
C 3.5323 23.33622 -0.01343
C 3.63689 22.02267 0.00988
C 2.40139 21.30413 0.0276
C 2.39394 19.89443 0.01305
C 3.57195 19.28627 -0.00077
C 3.61072 17.84928 0.03368
C 2.41772 17.12954 -0.02929
C 2.34155 15.73375 -0.00966
C 2.39646 2.8547 -0.01142
C 3.66216 15.04879 -0.03337
C 2.43902 12.76318 0.00873
C 2.44448 11.38957 -0.00049
C 3.61177 10.70527 0.00848
C 3.69915 9.30222 -0.01303
C 2.42354 8.59563 -0.01378
C 2.45588 7.1346 0.02635
C 3.60509 6.42055 0.0127
C 3.74215 4.96195 0.01396
C 3.63409 13.54979 0.01227
C 4.94949 2.772 -0.02896
C 6.1351 2.10941 -0.00131
C 6.12929 0.5641 -0.01118
C 8.64741 0.87333 0.02841
C 7.50658 33.99752 -0.01111
C 9.38177 32.75286 -0.01275
C 10.75297 31.96608 0.00985
C 10.87221 30.50892 -0.02245
C 11.19263 27.51137 -0.00428
C 11.14835 26.15525 0.03101
C 9.97251 24.17069 -0.01536
C 8.60985 2.21707 0.00943
C 11.11119 23.45498 -0.02689
C 9.77065 21.33541 -0.00891
C 9.80251 19.95201 0.02819
C 10.99715 19.26935 0.00165
C 11.06067 17.83642 -0.02971
C 9.86466 17.08258 0.02894
C 9.83273 15.72334 -0.01789
C 11.05308 14.95655 0.00444
C 11.03759 13.51889 -0.00925
C 11.05492 22.1295 -0.01046
C 7.36283 2.93997 0.00406
C 7.36401 4.34157 0.03592
C 8.57835 5.0899 0.00572
C 4.83316 0.01007 -0.014
C 8.14525 32.71186 0.02147
C 8.78754 23.50727 0.00373
C 8.61784 22.1189 -0.00191
C 7.31364 21.44879 0.00438
C 7.2938 19.94415 0.01291
C 8.52058 19.26397 0.00093
C 8.58825 17.82056 0.00057
C 7.36155 17.09586 -0.01634
C 7.34273 15.68295 -0.00334
C 8.58946 14.89222 0.02339
C 8.60891 13.53373 0.01641
C 7.35125 12.84845 -0.00719
C 7.33311 11.39921 0.01364
C 8.61964 10.69873 -0.01062
C 8.5633 9.27114 -0.00033
C 7.36763 8.58832 0.03589
C 7.34151 7.15544 -0.02759
C 8.52202 6.4681 0.0402
C 17.1059 21.44159 -0.01721
C 17.10478 19.98338 -0.02422
C 18.41175 19.21538 0.01277
C 18.54261 17.80648 0.00096
C 30.72197 0.77068 0.01713
C 29.47917 34.06105 -0.01694
C 31.96307 32.68075 0.01428
C 33.14134 31.94938 -0.02142
C 33.17716 30.53039 0.0544
C 31.95526 29.8372 0.00026
C 31.89574 28.4295 0.00682
C 33.14758 27.73205 -0.01779
C 30.73364 2.18764 0.00346
C 33.21059 26.28617 0.03794
C 31.86158 24.16017 0.01574
C 33.11195 23.45974 -0.02383
C 33.17207 22.06112 -0.01429
C 31.95354 21.31117 -0.0136
C 31.98856 19.91525 0.00594
C 33.13348 19.09045 -0.02474
C 33.03623 17.7599 0.00369
C 31.80072 16.93671 0.00455
C 31.9918 25.51663 0.01927
C 31.98503 15.56716 -0.00644
C 29.46022 2.8174 0.00307
C 30.70815 5.0076 0.02108
C 26.94299 0.04042 -0.01415
C 29.46603 32.65754 -0.03039
C 30.73791 31.96219 0.01836
C 30.75811 30.5681 0.03531
C 29.57025 29.81311 -0.00669
C 29.42204 28.41002 0.0101
C 30.71997 27.70267 0.01705
C 30.69543 26.22999 -0.0405
C 29.53969 4.2623 0.00716
C 29.47046 25.50709 -0.01303
C 30.63126 23.43408 -0.02155
C 30.67103 21.994 -0.00944
C 29.41169 21.31795 -0.03735
C 29.39049 19.89217 -0.00971
C 30.55589 19.18863 0.01518
C 30.60495 17.87905 0.01908
C 29.51513 7.04357 0.07705
C 30.76675 6.43462 0.0103
C 29.37723 24.07837 -0.01461
C 33.16378 14.90043 -0.01839
C 33.19607 13.44099 0.00137
C 32.08886 12.61898 0.00199
C 1.20952 19.23809 -0.01678
C 1.17953 17.82492 0.01223
C 34.33818 17.17182 0.00648
C 0.01206 15.66 0.02114
C 1.25027 14.91776 -0.02957
C 1.20851 13.57275 0.00343
C 0.0021 12.82657 -0.02656
C 0.06725 11.41836 -0.02442
C 34.32196 19.84969 0.01951
C 1.24138 10.70945 -0.00027
C 0.06098 8.4899 -0.02302
C 0.06833 7.05114 -0.02849
C 1.32681 6.30235 0.02931
C 1.25897 4.89681 0.00628
C 0.03974 4.21828 -0.0345
C 34.36915 2.86415 -0.00931
C 1.11417 2.12462 -0.00939
C 1.14887 0.72361 -0.00468
C 1.22989 9.17104 -0.00583
C 34.35888 21.2733 -0.02213
C 1.15031 21.98761 0.02712
C 1.14151 23.43467 0.00723
C 32.1056 11.47238 0.04381
C 33.23324 10.62446 0.02806
C 33.25666 9.26429 0.01504
C 32.04499 8.4898 -0.00069
C 31.98199 7.11926 0.04926
C 33.21272 6.33497 -0.03838
C 33.26008 4.95801 0.00349
C 31.98188 4.26612 -0.00323
C 31.92449 2.89527 -0.00841
C 33.06547 2.16185 0.0001
C 33.18065 0.7132 -0.02927
C 31.9353 34.07661 -0.01404
C 34.41148 32.60556 0.01027
C 1.26757 31.94545 0.01831
C 1.16554 30.6004 -0.01037
C 0.00167 29.7716 -0.00439
C 34.41753 28.33539 -0.00598
C 34.37657 25.58639 -0.05239
C 34.41192 24.21264 0.03076
C 28.22913 0.73046 -0.01854
C 2.37073 23.9933 0.01087
C 28.17717 2.0927 -0.02049
C 27.01878 4.36904 0.00261
C 19.89065 24.0898 -0.01107
C 21.31175 23.24437 -0.01586
C 20.96869 21.85067 -0.01971
C 19.59572 21.37859 -0.02118
C 19.64907 19.91889 0.00733
C 20.8394 19.4306 -0.00178
C 19.51 7.22954 0.00768
C 20.59027 6.34166 -0.0276
C 19.79176 25.5349 0.00071
C 20.80447 4.97074 0.03005
C 19.61837 2.84953 0.02117
C 20.80946 2.09345 0.02737
C 20.85505 0.63384 -0.00498
C 19.5837 0.02737 0.00135
C 22.14553 32.64226 0.03102
C 23.34907 31.88723 0.02555
C 23.40383 30.47564 0.01423
C 22.12597 29.82286 -0.00285
C 19.67254 4.26333 -0.04078
C 22.19098 28.43274 -0.009
C 21.02231 26.18149 -0.00225
C 19.75539 28.42133 -0.0055
C 17.32931 16.95591 -0.01527
C 17.23588 15.5664 0.01087
C 17.10595 12.67656 0.00199
C 17.15352 11.38654 0.01511
C 18.70442 8.88249 -0.00478
C 17.35812 8.54623 -0.01662
C 17.08106 7.10266 -0.01185
C 18.29227 6.34335 0.01126
C 20.97802 27.62667 0.01515
C 18.28023 4.91738 0.01852
C 17.17209 2.71861 0.03046
C 18.44301 2.10978 0.0296
C 18.40129 0.7313 0.03374
C 17.2096 34.04756 -0.02845
C 19.66596 32.54673 -0.03213
C 20.86697 31.94007 0.02239
C 20.91077 30.50445 0.01153
C 19.73745 29.82222 0.02734
C 17.20368 4.18977 -0.00381
C 23.411 27.75501 -0.01199
C 23.34573 26.38972 -0.00229
C 22.21617 25.57254 -0.00938
C 25.7109 0.87575 0.04185
C 24.50398 0.10521 0.00194
C 27.00954 32.72849 -0.00621
C 28.21445 32.02664 0.02611
C 28.32382 30.59167 0.02198
C 27.14223 29.76065 0.01094
C 27.0653 28.42643 0.00235
C 28.18403 27.6299 0.01495
C 25.7167 2.22942 0.02316
C 28.2357 26.22748 0.01259
C 26.82695 24.12598 0.01699
C 28.07674 23.39329 -0.00416
C 28.14965 21.96866 0.01177
C 26.77894 21.29323 0.04266
C 27.03125 19.93077 0.01324
C 28.18288 19.18831 0.0014
C 28.40359 6.48288 0.00924
C 28.27654 5.08583 0.02326
C 27.04421 25.50089 0.01799
C 24.47798 2.91927 0.01257
C 24.45706 4.41851 0.00152
C 25.77902 5.00317 -0.00294
C 22.715 24.07735 -0.0264
C 22.03159 20.06626 -0.01154
C 23.1515 5.05346 0.00684
C 22.01894 4.18239 -0.01052
C 22.08599 2.7923 -0.01679
C 23.29388 2.12828 0.00367
C 23.35028 0.7353 0.04306
C 22.08578 0.03443 0.00996
C 24.50302 32.63494 0.00195
C 25.74302 31.94871 -0.00802
C 25.8299 30.5279 -0.00218
C 24.68368 29.82234 -0.01654
C 24.61883 28.39864 -0.00037
C 25.87863 27.71907 -0.0032
C 25.75118 26.22641 0.00622
C 24.58654 25.61225 -0.02815
C 24.13137 24.21257 -0.00942
C 25.50453 23.45676 0.00487
C 25.63065 22.02617 0.00826
C 26.99799 2.82759 0.03265
C 2.43683 32.68176 -0.05697
