318
Graphene
C 34.37891 34.07014 0.01295
C 13.45726 14.99959 -0.00109
C 13.5887 13.51021 -0.00491
C 12.35243 12.73028 0.03338
C 12.24762 11.35853 -0.0258
C 13.43748 10.70971 -0.0331
C 13.46514 9.25426 -0.00316
C 12.25759 8.51343 0.02188
C 12.33793 7.08286 -0.01979
C 13.58955 6.38911 0.02691
C 13.5209 5.01152 -0.01581
C 12.25759 4.30084 0.01452
C 12.26193 2.88054 0.04892
C 13.50546 2.08485 -0.00111
C 13.57481 0.70185 -0.03557
C 12.39655 34.03533 0.03754
C 12.23458 15.62993 0.03698
C 12.19401 17.11478 -0.02213
C 13.49085 17.80926 0.00028
C 13.55162 19.23856 -0.00289
C 9.80943 4.23915 0.0351
C 9.78326 2.77896 -0.03113
C 11.08521 2.1104 0.02098
C 11.15876 0.61792 0.01848
C 9.89955 0.04972 -0.00619
C 12.40043 32.66065 -0.02162
C 13.54604 31.91213 0.00889
C 14.75719 32.64675 0.01739
C 13.47096 30.47148 -0.00481
C 12.33192 28.43473 0.01443
C 13.43303 27.63334 0.03505
C 13.60722 26.13791 -0.02815
C 13.29916 23.69104 -0.04147
C 13.18359 22.27708 -0.05302
C 12.23478 21.24579 0.00213
C 12.17585 19.84792 -0.00066
C 12.20056 29.84663 0.00979
C 16.01245 31.96799 0.00755
C 15.92172 30.51411 -0.0054
C 14.66094 29.70716 0.00667
C 14.69226 4.25362 0.01277
C 14.76137 2.89666 0.00096
C 16.05243 2.15751 -0.01527
C 15.95978 0.75684 0.01087
C 14.74562 34.07979 0.00199
C 17.29857 32.6204 0.01511
C 18.43409 31.90201 -0.00478
C 15.92439 4.93974 -0.02422
C 18.44981 30.51186 -0.01662
C 17.21779 28.39078 0.01126
C 18.45547 27.66696 0.01852
C 18.46952 26.22736 -0.00381
C 17.27557 25.42475 0.03046
C 17.11926 23.98485 0.0296
C 17.39981 12.7151 0.03374
C 17.11729 11.40379 -0.02845
C 17.20272 29.7431 -0.01185
C 11.04806 4.97857 0.00422
C 15.93899 6.38093 -0.01721
C 14.69174 8.55988 0.0106
C 14.71039 28.36594 0.00143
C 16.03495 27.69661 -0.017
C 16.06133 26.23312 0.00364
C 14.79958 25.56431 -0.00831
C 14.66033 24.05518 -0.02957
C 15.87642 23.36373 -0.04422
C 14.20808 21.31538 0.00654
C 14.77504 7.0633 -0.01154
C 14.61441 20.03553 -0.00703
C 14.7561 15.67061 -0.00652
C 16.03336 14.93473 0.0058
C 16.19286 13.53716 -0.00865
C 14.84039 12.7925 0.00675
C 14.68888 11.40873 -0.00311
C 15.87248 10.62911 0.00742
C 15.91368 9.26233 -0.01594
C 14.63185 17.12688 -0.04076
C 11.08245 6.43314 0.00798
C 9.80964 7.06604 0.00228
C 9.82217 8.51289 -0.00114
C 4.88664 32.49589 -0.00719
C 6.22024 31.93717 0.01364
C 5.44304 19.27303 -0.01062
C 5.90992 17.94116 -0.00033
C 4.77828 16.9555 0.03589
C 4.86516 15.54478 -0.02759
C 6.10965 14.88689 0.0402
C 2.46499 0.03791 0.01641
C 6.10119 13.47375 0.00572
C 4.8654 11.37174 0.00406
C 6.132 10.70485 0.00943
C 6.14333 9.25045 0.02841
C 4.92042 8.53485 -0.01111
C 4.83787 7.03803 -0.01275
C 6.04071 6.36222 0.00985
C 6.12739 4.95338 -0.02245
C 4.80801 12.74984 0.03592
C 4.88497 4.22496 -0.00428
C 3.71082 0.77029 0.02339
C 2.50033 2.87871 -0.01634
C 2.46506 20.01596 -0.01384
C 3.73599 19.25286 0.03693
C 3.58595 17.76244 0.01745
C 2.42266 17.02238 0.00488
C 2.47492 15.67002 -0.01004
C 3.5902 14.90188 -0.02896
C 3.5913 13.56536 -0.00131
C 3.63386 2.16948 -0.00334
C 2.38983 12.80752 -0.01118
C 3.65616 10.6828 0.02147
C 3.68302 9.26194 0.00373
C 2.4244 8.47672 -0.00191
C 2.36183 7.12204 0.00438
C 3.61058 6.3769 0.01291
C 3.61891 4.98689 0.00093
C 2.43495 4.32332 0.00057
C 2.44566 11.32107 -0.014
C 18.40891 10.75508 -0.03213
C 4.84922 2.82187 0.03101
C 6.20892 0.65403 -0.02689
C 8.67902 0.73634 0.03542
C 7.42194 0.00908 0.02299
C 9.89905 32.77376 0.00244
C 11.13914 32.0319 -0.01717
C 11.08439 30.6655 0.05265
C 9.78793 19.76988 -0.01952
C 10.97605 19.17597 -0.02813
C 8.52697 2.07484 0.01416
C 11.00577 17.78905 0.00374
C 9.72846 15.56137 -0.03682
C 10.98208 14.85846 0.01965
C 11.09079 13.46415 0.02058
C 9.76821 12.79747 -0.01957
C 9.81997 11.32518 -0.0108
C 11.0655 10.59862 -0.00368
C 11.018 9.23619 -0.02696
C 9.76885 17.03219 0.00052
C 6.11516 2.05749 -0.01536
C 7.31912 2.83628 0.01945
C 8.64638 5.00278 0.01241
C 4.93679 34.03648 -0.01046
C 7.42778 32.50094 -0.00891
C 8.78696 31.92508 0.02819
C 8.66463 19.11984 0.00165
C 8.53321 17.76342 -0.02971
C 7.24649 17.14745 0.02894
C 7.27863 15.66832 -0.01789
C 7.36501 4.32061 -0.01454
C 8.47751 15.02481 0.00444
C 7.33868 12.75434 0.01877
C 7.36536 11.3127 0.01363
C 8.62793 10.57093 -0.02162
C 8.63056 9.13754 0.00415
C 7.36739 8.48224 -0.0014
C 7.30608 7.08368 0.02162
C 8.54527 6.40198 0.0076
C 8.49361 13.54261 -0.00925
C 18.3607 9.22122 0.02239
C 17.13517 8.4898 0.01153
C 17.14599 7.12502 0.02734
C 30.68175 2.19408 -0.01779
C 30.7108 0.76856 0.03794
C 29.50921 0.04612 0.01927
C 31.97006 32.66995 0.01574
C 33.22384 31.97316 -0.02383
C 33.28031 30.52255 -0.01429
C 32.04133 29.83303 -0.0136
C 29.42437 2.88786 0.00682
C 32.015 28.38558 0.00594
C 33.10039 26.32266 0.00369
C 31.88513 25.57035 0.00455
C 31.99667 24.19515 -0.00644
C 33.21592 23.38249 -0.01839
C 33.17103 22.02778 0.00137
C 31.92438 21.27005 0.00199
C 31.9105 19.81216 0.04381
C 33.26308 27.71666 -0.02474
C 33.10475 19.24048 0.02806
C 29.37391 4.4343 0.00026
C 28.75325 15.85825 -0.02142
C 29.49349 32.64484 -0.01461
C 30.72293 31.98102 -0.02155
C 30.82734 30.51994 -0.00944
C 29.55952 29.88586 -0.03735
C 29.45402 28.41961 -0.00971
C 30.71623 27.72463 0.01518
C 30.75115 26.29302 0.01908
C 30.77457 5.04771 0.0544
C 29.59498 25.57705 0.07705
C 30.7883 23.43377 0.02108
C 30.72632 22.09029 0.00716
C 29.49631 21.42778 0.00307
C 29.46522 20.09725 0.00346
C 30.58139 19.21863 0.01713
C 30.52897 17.76413 -0.01694
C 29.55036 16.92873 0.01428
C 29.59579 24.19649 0.0103
C 26.95919 34.04074 -0.01303
C 33.18811 17.8443 0.01504
C 31.9978 15.77503 0.04926
C 34.35203 17.09533 0.00648
C 34.38297 15.62944 0.02114
C 1.25635 14.98281 -0.02957
C 1.21424 13.60672 0.00343
C 0.03033 12.84967 -0.02656
C 0.0331 11.5135 -0.02442
C 1.12971 10.63969 -0.00027
C 1.15081 17.78189 0.01223
C 1.14328 9.17679 -0.00583
C 34.28655 7.18862 -0.02849
C 1.15155 6.38906 0.02931
C 1.24381 4.94122 0.00628
C 0.02146 4.26427 -0.0345
C 34.43263 2.83878 -0.00931
C 1.23147 2.13901 -0.00939
C 1.1995 0.77281 -0.00468
C 34.32774 8.593 -0.02302
C 31.89371 17.08217 -0.00069
C 1.2303 19.16225 -0.01678
C 0.04606 21.31174 -0.02213
C 33.15784 15.08459 -0.03838
C 33.08064 6.31132 0.00349
C 33.22992 4.93214 -0.00323
C 31.94072 4.23547 -0.00841
C 31.95668 2.78546 0.0001
C 33.20814 2.073 -0.02927
C 33.2094 0.70043 -0.01404
C 34.36168 19.87038 0.01951
C 31.93662 0.04526 0.01027
C 1.25986 32.02521 -0.01037
C 1.33814 30.70058 -0.00439
C 0.09838 29.85281 -0.00598
C 34.40427 28.42946 -0.05239
C 34.29897 25.54099 0.03076
C 34.2627 24.18988 0.00723
C 1.39959 21.66517 0.02712
C 0.03015 32.68311 0.01831
C 3.54751 31.87266 -0.00482
C 28.14769 0.64587 -0.0405
C 26.97438 2.79177 0.0101
C 20.83241 6.38368 0.01423
C 20.85901 4.98476 -0.00285
C 19.64747 4.2844 -0.009
C 19.67398 2.9345 -0.01199
C 20.91263 2.20681 -0.00229
C 20.83573 0.82098 -0.00938
C 19.66187 0.05972 -0.0264
C 19.61912 7.15629 0.02555
C 22.13405 32.60004 -0.01154
C 23.36419 30.52653 -0.01052
C 22.11693 29.94053 -0.01679
C 22.14576 28.43094 0.00367
C 23.34104 27.6441 0.04306
C 23.39557 26.28314 0.00996
C 22.17594 11.48684 0.00195
C 23.2335 10.76416 -0.00802
C 23.40035 31.97178 0.00684
C 23.23126 9.25423 -0.00218
C 19.57482 8.61121 0.03102
C 20.74211 10.99655 -0.00498
C 18.35738 6.47496 -0.0055
C 18.46537 5.05519 0.01515
C 17.2193 4.32759 -0.00225
C 17.26739 2.85129 0.00071
C 18.48102 2.15162 -0.01107
C 18.39921 0.69554 -0.01586
C 17.19077 0.01672 -0.01971
C 20.78749 9.30782 0.00135
C 19.7074 32.58293 -0.02118
C 20.84325 30.51635 -0.00178
C 19.62687 29.79702 0.00768
C 19.68615 28.35395 -0.0276
C 20.95287 27.68844 0.03005
C 20.87917 26.37874 -0.04078
C 19.73714 25.64703 0.02117
C 19.50917 11.48971 0.02737
C 20.94768 31.96653 0.00733
C 28.204 2.15339 0.01705
C 22.03634 8.59758 -0.01654
C 23.32798 6.50911 -0.0032
C 24.40923 2.75039 -0.00416
C 25.73606 2.07474 0.01177
C 25.73407 0.68923 0.04266
C 24.51063 34.05069 0.01324
C 26.99085 32.61758 0.0014
C 28.26815 31.99943 0.00924
C 28.23523 30.56281 0.02326
C 24.44012 4.19786 0.01699
C 27.08599 29.82428 0.00261
C 28.19637 27.73346 -0.02049
C 28.27971 26.20998 -0.01854
C 27.06614 25.40734 -0.01415
C 27.2382 24.04109 -0.03039
C 28.3946 23.3471 0.01836
C 27.99856 4.97991 0.03531
C 26.91384 4.23381 -0.00669
C 27.01707 28.40978 0.03265
C 22.08509 7.16763 -0.00037
C 25.70611 4.94987 0.01799
C 24.63883 7.20491 0.01495
C 23.26868 5.04128 0.00622
C 22.04198 4.27678 -0.02815
C 22.12029 2.90482 -0.00942
C 23.2301 2.06062 0.00487
C 23.32312 0.72229 0.00826
C 22.11621 0.01944 -0.00294
C 24.60324 32.62967 0.00152
C 25.84927 6.34605 0.01259
C 25.75313 31.85228 0.01257
C 24.52065 29.77333 0.04185
C 24.56832 28.33961 0.00194
C 25.78068 27.67567 -0.00621
C 25.79696 26.24591 0.02611
C 24.55652 25.52142 0.02198
C 24.72305 10.16872 0.01094
C 24.49689 8.78387 0.00235
C 25.80199 30.403 0.02316
C 2.46834 32.76076 0.02888
