354
Graphene
C 34.4319 0.0267 0.01295
C 13.58109 19.15136 -0.02696
C 13.48971 17.79045 -0.00114
C 12.30149 17.06725 0.00228
C 12.30318 15.61433 0.00798
C 13.60284 14.95554 0.00422
C 13.51399 13.52798 0.0351
C 12.22426 12.74452 -0.03113
C 12.26302 11.31436 0.02098
C 12.30269 19.77002 -0.00368
C 13.53091 10.61516 0.01848
C 12.3456 8.54636 -0.02162
C 12.33592 7.08166 0.00889
C 13.57157 6.3716 -0.00481
C 13.56048 4.98661 0.00979
C 12.27302 4.3287 0.01443
C 12.30591 2.83172 0.03505
C 13.52534 2.06949 -0.02815
C 13.44207 0.65514 -0.04147
C 13.58833 9.1648 -0.00619
C 12.23441 34.03172 -0.05302
C 12.27455 21.31885 -0.0108
C 13.5219 23.40599 0.02058
C 9.7548 8.58217 -0.0014
C 9.75591 7.17547 0.02162
C 11.07531 6.46584 0.0076
C 11.08865 5.01174 0.01241
C 9.84545 4.2968 -0.01454
C 9.84125 2.84781 0.01945
C 11.05722 2.14677 0.01416
C 11.10056 0.74975 0.03542
C 13.53103 22.01153 -0.01957
C 9.85052 0.09013 0.02299
C 13.51391 31.95652 -0.01717
C 13.50992 30.59202 0.05265
C 12.29715 29.76093 -0.01952
C 12.28613 28.34261 -0.02813
C 13.5474 27.69723 0.00374
C 13.63625 26.25532 0.00052
C 12.25347 25.50154 -0.03682
C 12.30258 24.14887 0.01965
C 12.31323 32.63904 0.00244
C 11.01984 9.22448 0.00415
C 14.78748 32.66331 0.00213
C 16.09364 30.5112 -0.00289
C 15.97402 6.41746 0.00143
C 16.01274 4.99877 -0.017
C 14.73749 4.35318 0.00364
C 14.72726 2.88434 -0.00831
C 15.95668 2.06648 -0.02957
C 15.9982 0.65802 -0.04422
C 14.7532 0.04158 0.00654
C 17.22331 32.60114 -0.00703
C 14.72207 7.11467 0.00667
C 18.42554 31.96015 -0.04076
C 17.26837 29.81023 0.0058
C 17.28371 28.45583 -0.00865
C 18.43593 27.63821 0.00675
C 18.45491 26.26674 -0.00311
C 17.23061 25.52283 0.00742
C 17.24532 24.10395 -0.01594
C 18.42063 23.40633 0.0106
C 18.40394 21.98034 -0.01154
C 18.43354 30.49799 -0.00652
C 16.00375 31.89908 -0.00066
C 14.77463 8.55179 -0.0054
C 15.96934 10.63582 0.01739
C 14.72302 29.8604 0.00028
C 14.69212 28.47235 -0.02213
C 15.97137 27.73027 0.03698
C 15.97898 26.28785 -0.00109
C 14.79239 25.49884 -0.00491
C 14.78482 24.09784 0.03338
C 16.00373 23.44338 -0.0258
C 15.98122 22.05522 -0.0331
C 16.03386 9.24149 0.00755
C 14.75586 21.29958 -0.00316
C 15.962 19.14531 -0.01979
C 15.93475 17.7133 0.02691
C 14.73603 17.04954 -0.01581
C 14.80767 15.67224 0.01452
C 15.98391 14.91535 0.04892
C 15.95975 13.48258 -0.00111
C 14.72567 12.79241 -0.03557
C 14.73232 11.32962 0.03754
C 14.71086 19.88887 0.02188
C 11.05655 10.65325 -0.02162
C 9.87858 11.35977 0.01363
C 9.80231 12.77437 0.01877
C 2.44839 33.99059 0.00054
C 6.11121 21.93471 0.03007
C 4.91955 21.27888 -0.00095
C 4.87972 19.83026 0.01572
C 6.16919 19.16169 -0.04848
C 6.1729 17.78457 -0.00892
C 4.9191 17.09888 -0.01362
C 4.92377 15.58669 -0.0008
C 3.68269 0.68525 -0.00494
C 6.14677 14.9618 0.0288
C 4.93928 12.85247 0.00895
C 4.93282 11.31217 0.00685
C 6.12497 10.69643 0.02888
C 6.07658 9.24743 -0.00482
C 4.88201 8.52965 -0.01384
C 4.91316 7.10532 0.03693
C 6.15392 6.45219 0.01745
C 6.1321 4.93907 0.00488
C 6.17419 13.54485 0.00393
C 4.90539 4.29236 -0.01004
C 3.71029 2.13759 -0.00562
C 2.37652 4.30954 0.01849
C 3.57201 23.50967 -0.01343
C 3.68723 22.00059 0.00988
C 2.40366 21.31377 0.0276
C 2.40085 19.91198 0.01305
C 3.68932 19.13773 -0.00077
C 3.72206 17.77769 0.03368
C 2.43776 17.04735 -0.02929
C 2.50272 15.60198 -0.00966
C 2.47884 2.86313 -0.01142
C 3.66309 14.90975 -0.03337
C 2.43953 12.87704 0.00873
C 2.46536 11.38966 -0.00049
C 3.73062 10.64206 0.00848
C 3.66685 9.24634 -0.01303
C 2.52359 8.4928 -0.01378
C 2.42765 7.05447 0.02635
C 3.72806 6.34496 0.0127
C 3.58787 4.95351 0.01396
C 3.68498 13.58335 0.01227
C 4.86151 2.88469 -0.02896
C 6.10425 2.16472 -0.00131
C 6.15492 0.75053 -0.01118
C 8.63411 0.63445 0.02841
C 7.44198 34.06155 -0.01111
C 9.87557 32.78459 -0.01275
C 11.01607 31.97361 0.00985
C 11.08549 30.52494 -0.02245
C 11.00865 27.51075 -0.00428
C 11.06022 26.31244 0.03101
C 9.81881 24.08711 -0.01536
C 8.60606 2.08183 0.00943
C 11.06971 23.49615 -0.02689
C 9.83296 21.37432 -0.00891
C 9.82522 19.91379 0.02819
C 11.11683 19.14689 0.00165
C 11.1261 17.75451 -0.02971
C 9.87742 17.08998 0.02894
C 9.82868 15.53152 -0.01789
C 11.04496 14.88349 0.00444
C 11.00444 13.48847 -0.00925
C 11.02591 21.96749 -0.01046
C 7.37558 2.84605 0.00406
C 7.3628 4.28292 0.03592
C 8.59084 5.00846 0.00572
C 4.97135 34.01296 -0.014
C 7.36876 32.71563 0.02147
C 8.69241 23.52482 0.00373
C 8.64391 22.06985 -0.00191
C 7.35278 21.31516 0.00438
C 7.39118 19.87294 0.01291
C 8.63796 19.21152 0.00093
C 8.6211 17.77925 0.00057
C 7.37193 17.07534 -0.01634
C 7.41146 15.64712 -0.00334
C 8.61051 14.9605 0.02339
C 8.62373 13.54513 0.01641
C 7.4112 12.88219 -0.00719
C 7.33658 11.48192 0.01364
C 8.56824 10.71493 -0.01062
C 8.58429 9.29349 -0.00033
C 7.29583 8.53504 0.03589
C 7.37458 7.14529 -0.02759
C 8.61401 6.39061 0.0402
C 17.20391 21.29441 -0.01721
C 17.1757 19.91628 -0.02422
C 18.38397 19.21181 0.01277
C 18.43378 17.80354 0.00096
C 30.65489 0.71622 0.01713
C 29.43185 0.02865 -0.01694
C 31.97036 32.62599 0.01428
C 33.22419 31.93769 -0.02142
C 33.12731 30.58337 0.0544
C 31.93747 29.85554 0.00026
C 32.04348 28.473 0.00682
C 33.24706 27.66952 -0.01779
C 30.71771 2.14134 0.00346
C 33.17166 26.23717 0.03794
C 31.99653 24.13183 0.01574
C 33.16931 23.46705 -0.02383
C 33.08727 22.0211 -0.01429
C 31.89881 21.28882 -0.0136
C 31.97864 19.8366 0.00594
C 33.21517 19.21633 -0.02474
C 33.16075 17.77427 0.00369
C 31.93866 17.04304 0.00455
C 31.99159 25.49879 0.01927
C 32.00759 15.61574 -0.00644
C 29.49341 2.86111 0.00307
C 30.76578 4.95934 0.02108
C 27.08404 0.02985 -0.01415
C 29.49198 32.63894 -0.03039
C 30.73921 31.95493 0.01836
C 30.69972 30.53285 0.03531
C 29.43856 29.86946 -0.00669
C 29.5883 28.38676 0.0101
C 30.78862 27.65259 0.01705
C 30.81781 26.21488 -0.0405
C 29.53339 4.29926 0.00716
C 29.52815 25.60402 -0.01303
C 30.75149 23.43295 -0.02155
C 30.71146 22.02474 -0.00944
C 29.47733 21.28233 -0.03735
C 29.49742 19.89534 -0.00971
C 30.75923 19.18117 0.01518
C 30.7682 17.69849 0.01908
C 29.482 6.9746 0.07705
C 30.78622 6.437 0.0103
C 29.51842 24.18287 -0.01461
C 33.17465 14.84328 -0.01839
C 33.12362 13.49485 0.00137
C 32.06279 12.62657 0.00199
C 1.18738 19.11851 -0.01678
C 1.19561 17.74541 0.01223
C 34.37751 17.02012 0.00648
C 34.38878 15.6251 0.02114
C 1.20584 14.92516 -0.02957
C 1.23222 13.45124 0.00343
C 0.01708 12.78343 -0.02656
C 34.43078 11.37691 -0.02442
C 0.0553 19.88727 0.01951
C 1.23539 10.5991 -0.00027
C 0.026 8.52905 -0.02302
C 0.04808 7.09504 -0.02849
C 1.20354 6.35764 0.02931
C 1.19753 4.95371 0.00628
C 34.40501 4.2702 -0.0345
C 0.01057 2.85078 -0.00931
C 1.27342 2.21104 -0.00939
C 1.21354 0.73331 -0.00468
C 1.27975 9.28048 -0.00583
C 34.36384 21.34317 -0.02213
C 1.20172 22.03802 0.02712
C 1.21802 23.4575 0.00723
C 32.08096 11.48665 0.04381
C 33.20575 10.64791 0.02806
C 33.15839 9.17127 0.01504
C 31.95649 8.54473 -0.00069
C 31.97778 7.15612 0.04926
C 33.2342 6.46007 -0.03838
C 33.15019 4.87158 0.00349
C 31.93548 4.21898 -0.00323
C 31.97211 2.81832 -0.00841
C 33.26422 2.10724 0.0001
C 33.13214 0.67827 -0.02927
C 31.87215 34.07139 -0.01404
C 34.41079 32.63802 0.01027
C 1.23396 31.90653 0.01831
C 1.19688 30.4736 -0.01037
C 0.03161 29.87731 -0.00439
C 34.39816 28.43998 -0.00598
C 34.40844 25.56527 -0.05239
C 0.01594 24.17877 0.03076
C 28.239 0.68595 -0.01854
C 2.48761 24.08617 0.01087
C 28.27003 2.16924 -0.02049
C 27.08523 4.21658 0.00261
C 19.65902 24.15327 -0.01107
C 20.91167 23.46654 -0.01586
C 20.8712 22.02986 -0.01971
C 19.67614 21.41153 -0.02118
C 19.64432 19.87876 0.00733
C 20.90886 19.23285 -0.00178
C 19.72869 7.11725 0.00768
C 20.82316 6.4342 -0.0276
C 19.70952 25.55402 0.00071
C 20.85238 4.94213 0.03005
C 19.63004 2.78911 0.02117
C 20.88878 2.18262 0.02737
C 20.88 0.78385 -0.00498
C 19.67332 34.04542 0.00135
C 22.1293 32.6476 0.03102
C 23.32687 31.95328 0.02555
C 23.3595 30.54534 0.01423
C 22.18052 29.81817 -0.00285
C 19.59234 4.1879 -0.04078
C 22.1206 28.38962 -0.009
C 20.93258 26.28316 -0.00225
C 19.65168 28.33901 -0.0055
C 17.21341 17.01176 -0.01527
C 17.24368 15.55226 0.01087
C 17.21238 12.66772 0.00199
C 17.243 11.45652 0.01511
C 18.38943 9.17843 -0.00478
C 17.27832 8.45987 -0.01662
C 17.20289 7.0385 -0.01185
C 18.40278 6.36705 0.01126
C 20.91165 27.68677 0.01515
C 18.45568 4.91726 0.01852
C 17.17625 2.84888 0.03046
C 18.33697 2.10463 0.0296
C 18.36399 0.66924 0.03374
C 17.19297 33.9678 -0.02845
C 19.64659 32.69019 -0.03213
C 20.93639 31.90323 0.02239
C 20.92881 30.52278 0.01153
C 19.62141 29.80097 0.02734
C 17.13571 4.20063 -0.00381
C 23.37496 27.68228 -0.01199
C 23.4033 26.26252 -0.00229
C 22.16293 25.51052 -0.00938
C 25.86272 0.65483 0.04185
C 24.63949 0.00278 0.00194
C 27.07323 32.68912 -0.00621
C 28.312 31.8845 0.02611
C 28.24319 30.50455 0.02198
C 27.02894 29.82525 0.01094
C 27.12863 28.33633 0.00235
C 28.397 27.64966 0.01495
C 25.79885 2.05165 0.02316
C 28.30125 26.24892 0.01259
C 27.07871 24.15167 0.01699
C 28.26983 23.42244 -0.00416
C 28.34018 22.02106 0.01177
C 26.91766 21.27523 0.04266
C 27.21735 19.84064 0.01324
C 28.23739 19.24224 0.0014
C 28.48952 6.42782 0.00924
C 28.2967 5.0184 0.02326
C 27.08769 25.58746 0.01799
C 24.63275 2.7444 0.01257
C 24.57993 4.32337 0.00152
C 25.8755 4.96734 -0.00294
C 22.10699 24.25434 -0.0264
C 22.01839 19.83845 -0.01154
C 23.33486 4.9719 0.00684
C 22.09791 4.30976 -0.01052
C 22.12277 2.83939 -0.01679
C 23.42595 2.15916 0.00367
C 23.34574 0.77503 0.04306
C 22.15241 34.06353 0.00996
C 24.6136 32.70715 0.00195
C 25.87507 31.96736 -0.00802
C 25.86743 30.49792 -0.00218
C 24.53788 29.78793 -0.01654
C 24.63494 28.42634 -0.00037
C 25.83625 27.66706 -0.0032
C 25.98342 26.32306 0.00622
C 24.57199 25.56718 -0.02815
C 24.57831 24.17551 -0.00942
C 25.78755 23.37443 0.00487
C 25.7194 22.00119 0.00826
C 26.95991 2.82026 0.03265
C 2.36314 32.66335 -0.05697
