383
Graphene
C 34.31616 0.07928 0.01295
C 13.56718 19.20811 0.0076
C 13.47707 17.80894 0.01241
C 12.2775 17.1078 -0.01454
C 12.30513 15.66873 0.01945
C 13.56446 14.96566 0.01416
C 13.53339 13.56695 0.03542
C 12.37043 12.82208 0.02299
C 12.14634 11.49161 0.00244
C 12.09976 8.4053 -0.01717
C 12.24573 19.9917 0.02162
C 12.45032 7.08507 0.05265
C 13.58424 4.89327 -0.02813
C 12.2997 4.26815 0.00374
C 12.3664 2.77547 0.00052
C 13.56415 2.06658 -0.03682
C 13.57354 0.60079 0.01965
C 12.2681 33.99992 0.02058
C 14.69385 32.61052 -0.01957
C 15.99825 31.87943 -0.0108
C 15.94059 30.47364 -0.00368
C 13.66069 6.38422 -0.01952
C 14.69977 29.7063 -0.02696
C 12.25509 21.43979 -0.0014
C 13.48893 23.43051 -0.02162
C 11.0818 10.70558 0.02841
C 10.95387 9.19627 -0.01111
C 9.75707 8.61616 -0.01275
C 9.87422 7.18317 0.00985
C 11.12421 6.52323 -0.02245
C 11.07116 5.0883 -0.00428
C 9.88808 4.35077 0.03101
C 9.94264 2.90518 -0.01536
C 11.09786 2.11311 -0.02689
C 13.49697 22.05551 0.00415
C 11.09861 0.69342 -0.01046
C 12.24913 32.59267 0.02819
C 13.50365 31.92153 0.00165
C 13.44888 30.45809 -0.02971
C 12.18269 29.69765 0.02894
C 12.23825 28.39596 -0.01789
C 13.51566 27.67994 0.00444
C 13.50024 26.30753 -0.00925
C 12.28131 25.63236 0.01877
C 12.31714 24.17312 0.01363
C 9.83314 0.03179 -0.00891
C 9.83515 11.27546 0.00943
C 14.74238 28.39026 -0.00114
C 15.96393 26.27593 0.00798
C 17.20542 25.5672 -0.0258
C 17.21578 24.14649 -0.0331
C 18.37691 23.4351 -0.00316
C 18.42048 21.98034 0.02188
C 17.16239 21.38479 -0.01979
C 17.19765 20.01982 0.02691
C 17.34399 15.4713 -0.01581
C 17.27053 4.22118 0.01452
C 17.26496 2.82722 0.04892
C 18.41518 26.30881 0.03338
C 18.43389 2.04321 -0.00111
C 17.24768 33.98272 0.03754
C 19.61665 32.59462 0.01739
C 20.85319 31.92481 0.00755
C 20.85961 30.50386 -0.0054
C 19.63593 29.76582 0.00667
C 19.61998 28.36942 0.00143
C 20.88649 27.69183 -0.017
C 20.93529 26.32139 0.00364
C 19.64842 25.56582 -0.00831
C 18.40824 0.65084 -0.03557
C 15.9678 27.62999 0.00228
C 18.36769 27.64754 -0.00491
C 17.20987 29.75915 0.03698
C 14.7726 25.59021 0.00422
C 14.76569 24.17866 0.0351
C 16.00049 23.48394 -0.03113
C 15.92727 22.09608 0.02098
C 14.77287 21.29031 0.01848
C 14.83767 19.89848 -0.00619
C 16.14446 19.07755 -0.02162
C 15.95838 17.73264 0.00889
C 14.68192 17.04906 -0.00481
C 17.1024 28.36017 -0.00109
C 14.69221 15.65425 0.00979
C 16.12754 4.79312 0.03505
C 14.76278 4.20232 -0.02815
C 14.81991 2.76647 -0.04147
C 16.04761 2.15519 -0.05302
C 16.0122 0.71128 0.00213
C 14.82501 34.00852 -0.00066
C 17.1537 32.61556 -0.00289
C 18.45034 31.88483 0.00028
C 18.37359 30.48292 -0.02213
C 16.14313 15.13233 0.01443
C 19.68019 24.0797 -0.02957
C 9.74735 12.76383 0.00406
C 11.05669 14.92291 0.00572
C 6.06962 30.64708 -0.00094
C 4.8348 29.85365 0.02322
C 4.84766 28.45714 -0.00725
C 6.03912 27.74716 -0.05697
C 6.09867 26.37198 0.01087
C 4.84489 25.60843 -0.01343
C 4.853 24.19303 0.00988
C 6.09653 23.47995 0.0276
C 6.10883 22.10557 0.01305
C 6.04102 32.05815 -0.02566
C 4.88246 21.37053 -0.00077
C 6.16175 19.28119 -0.02929
C 6.16441 17.82816 -0.00966
C 4.92417 17.00913 -0.03337
C 5.02196 15.53441 0.01227
C 6.25955 14.98169 0.00873
C 6.21457 6.50101 -0.00049
C 6.07265 5.00406 0.00848
C 4.87026 4.2911 -0.01303
C 4.86081 2.91087 -0.01378
C 4.89881 19.96947 0.03368
C 6.21178 2.14156 0.02635
C 4.83305 32.75598 -0.03113
C 3.69954 0.69914 -0.00643
C 3.59074 30.61505 -0.003
C 2.3657 29.82463 0.01402
C 2.43273 28.3669 0.02379
C 3.639 27.74108 0.00907
C 3.6619 26.31224 0.00643
C 2.33406 25.60213 -0.01509
C 2.42225 24.17946 0.03267
C 3.58161 23.45267 0.02374
C 3.63498 22.06754 0.00402
C 2.42752 0.13078 0.017
C 2.43324 21.29891 0.0073
C 3.74121 19.30832 0.03828
C 3.77136 17.73263 0.01226
C 2.49897 17.14863 -0.00279
C 2.47544 15.65739 0.01996
C 3.70594 15.01616 -0.03996
C 3.58421 4.91205 0.01465
C 2.33888 4.23396 -0.00074
C 2.39374 2.82779 -0.00518
C 3.7022 2.12534 0.0086
C 2.44875 19.89514 0.0174
C 11.00996 13.55358 0.03592
C 6.20023 0.74217 0.0127
C 7.339 32.67126 0.01849
C 8.72627 2.18874 -0.01118
C 8.61626 0.75586 -0.014
C 7.42633 0.01917 0.02147
C 9.76827 32.56144 0.00373
C 11.00931 31.86115 -0.00191
C 11.02758 30.46868 0.00438
C 9.74527 29.77975 0.01291
C 9.80132 28.42612 0.00093
C 11.01465 27.73309 0.00057
C 7.41834 2.98201 -0.00131
C 11.00326 26.27472 -0.01634
C 9.75728 24.19928 0.02339
C 10.96706 23.45055 0.01641
C 11.05309 22.05995 -0.00719
C 9.78916 21.38234 0.01364
C 9.79096 20.00507 -0.01062
C 11.02197 19.28865 -0.00033
C 11.03048 17.81151 0.03589
C 9.84873 17.10234 -0.02759
C 9.88832 15.72079 0.0402
C 9.78157 25.62791 -0.00334
C 4.95428 0.05742 0.01396
C 7.42171 4.41843 -0.02896
C 8.62886 6.54144 0.00488
C 8.54966 31.935 -0.01142
C 8.55267 30.48685 -0.00562
C 7.28057 29.78423 -0.00494
C 7.28695 28.4428 0.00054
C 8.54181 27.73606 0.03007
C 8.58165 26.31036 -0.00095
C 7.33 25.64725 0.01572
C 7.29906 24.21173 -0.04848
C 8.58562 23.47359 -0.00892
C 8.59092 5.08442 -0.01004
C 8.56721 22.13121 -0.01362
C 7.35025 19.98233 0.0288
C 8.57527 19.26732 0.00393
C 8.6129 17.82155 0.00895
C 7.36367 17.15676 0.00685
C 7.42443 15.74896 0.02888
C 8.6347 15.03601 -0.00482
C 8.55464 13.60511 -0.01384
C 8.61201 9.45831 0.03693
C 7.33768 7.14528 0.01745
C 7.36474 21.46255 -0.0008
C 3.58371 31.99364 0.00031
C 20.83778 23.35958 -0.04422
C 19.60757 21.24383 -0.00703
C 29.51142 8.38913 0.0103
C 29.4385 6.99982 0.02108
C 30.68119 6.25978 0.00716
C 30.66811 4.8398 0.00307
C 29.45774 4.25601 0.00346
C 29.40428 2.87027 0.01713
C 30.71635 2.20762 -0.01694
C 30.74895 0.78215 0.01428
C 29.47144 0.00503 -0.02142
C 30.7174 9.20601 0.07705
C 31.8979 32.66849 0.0544
C 33.10281 30.56128 0.00682
C 31.92829 29.8073 -0.01779
C 31.87365 28.38796 0.03794
C 33.12272 27.66682 0.01927
C 33.15711 26.24611 0.01574
C 31.94304 25.5314 -0.02383
C 31.95298 24.12552 -0.01429
C 33.18053 23.42586 -0.0136
C 33.16757 21.97199 0.00594
C 33.1076 32.02017 0.00026
C 31.97601 21.31322 -0.02474
C 30.68294 10.63861 0.01908
C 29.50654 12.74148 -0.00971
C 27.03792 0.00599 0.0014
C 29.43254 32.67065 0.00924
C 30.69379 31.93737 0.02326
C 30.61076 30.56477 0.00261
C 29.43093 29.82794 0.03265
C 29.46028 28.35687 -0.02049
C 30.66666 27.67902 -0.01854
C 30.68013 26.22564 -0.01415
C 29.45829 25.59513 -0.03039
C 29.4795 11.37566 0.01518
C 29.46418 24.08674 0.01836
C 30.7851 22.00927 -0.00669
C 29.57036 21.32789 0.0101
C 29.57541 19.88889 0.01705
C 30.80302 19.13049 -0.0405
C 30.78969 17.76232 -0.01303
C 29.59975 17.04082 -0.01461
C 29.51855 15.60056 -0.02155
C 30.83039 14.90712 -0.00944
C 30.73822 13.52978 -0.03735
C 30.66056 23.45148 0.03531
C 28.26875 0.74328 0.01324
C 32.01111 19.86214 0.00369
C 33.27599 17.8011 -0.00644
C 1.14488 23.41743 -0.02213
C 1.24814 21.99316 0.01951
C 0.00921 21.28323 -0.01678
C 0.04622 19.9076 0.01223
C 1.28487 19.20733 0.00648
C 1.24379 17.82014 0.02114
C 0.04293 17.14384 -0.02957
C 34.42316 15.72732 0.00343
C 1.21833 14.98026 -0.02656
C 34.38361 24.12191 0.02712
C 1.2071 13.57368 -0.02442
C 34.31066 11.40551 -0.00583
C 34.30501 8.43724 -0.02302
C 0.01454 7.10729 -0.02849
C 1.15619 6.28731 0.02931
C 1.17173 4.95699 0.00628
C 34.27277 4.45438 -0.0345
C 34.29782 3.0141 -0.00931
C 1.15412 2.2104 -0.00939
C 1.16158 0.74769 -0.00468
C 0.16774 12.79743 -0.00027
C 33.23321 19.15657 0.00455
C 34.39065 25.56593 0.00723
C 1.15461 27.68657 -0.05239
C 31.99718 17.06567 -0.01839
C 32.05212 15.58308 0.00137
C 33.23626 14.9154 0.00199
C 33.29327 13.46131 0.04381
C 32.02998 12.738 0.02806
C 31.89931 11.3706 0.01504
C 33.13105 10.61416 -0.00069
C 33.18587 9.16822 0.04926
C 31.95628 8.38485 -0.03838
C 1.16967 26.29545 0.03076
C 31.94744 6.93659 0.00349
C 31.79136 3.04169 -0.00841
C 33.05722 2.30479 0.0001
C 33.07836 0.79251 -0.02927
C 31.91354 0.05711 -0.01404
C 34.29966 32.73178 0.01027
C 1.13131 32.05291 0.01831
C 1.15434 30.60786 -0.01037
C 34.42275 29.82546 -0.00439
C 34.39733 28.38389 -0.00598
C 33.2478 6.30061 -0.00323
C 20.88897 21.94681 0.00654
C 28.2505 2.10007 0.04266
C 27.04713 4.29582 -0.00416
C 23.53073 14.79289 0.03046
C 23.44556 13.444 0.0296
C 23.31283 6.35901 0.03374
C 23.35153 4.95622 -0.02845
C 22.15483 4.15439 -0.03213
C 22.10678 2.81959 0.02239
C 23.36523 2.12129 0.01153
C 23.39759 0.67149 0.02734
C 22.12895 0.00796 -0.0055
C 22.08889 15.64784 -0.00381
C 24.57021 32.61464 0.01515
C 25.8227 30.5293 0.00071
C 24.54829 29.86054 -0.01107
C 24.54823 28.36566 -0.01586
C 25.73134 27.70569 -0.01971
C 25.76127 26.22654 -0.02118
C 24.51171 25.52468 0.00733
C 24.57203 24.07704 -0.00178
C 25.79552 23.34602 0.00768
C 25.85213 21.98575 -0.0276
C 25.82521 31.93416 -0.00225
C 24.54686 21.29933 0.03005
C 22.1769 16.99888 0.01852
C 23.39953 19.14165 -0.01185
C 20.92433 14.89371 -0.04076
C 20.80807 4.65427 -0.00652
C 19.67751 4.12963 0.0058
C 19.63212 2.70365 -0.00865
C 20.88626 2.05869 0.00675
C 20.88714 0.67337 -0.00311
C 19.63005 33.96628 0.00742
C 22.10254 32.64225 -0.01594
C 23.30992 31.90902 0.0106
C 23.35864 17.70942 0.01126
C 23.31819 30.51842 -0.01154
C 22.06722 28.37776 -0.02422
C 23.30813 27.69505 0.01277
C 23.27497 26.23091 0.00096
C 22.09429 25.54147 -0.01527
C 22.08842 24.09627 0.01087
C 23.34411 23.45836 0.00199
C 23.2588 22.0227 0.01511
C 22.10853 21.26737 -0.00478
C 22.16583 19.87306 -0.01662
C 22.02889 29.83309 -0.01721
C 26.95655 2.87611 0.01177
C 24.65905 19.83301 -0.04078
C 25.84281 17.69788 0.02737
C 26.9865 25.46809 0.00622
C 27.05771 24.07237 -0.02815
C 28.25143 23.42806 -0.00942
C 28.35933 21.9392 0.00487
C 27.1257 21.29062 0.00826
C 27.11333 19.86137 -0.00294
C 28.36271 19.20029 0.00152
C 28.34423 17.80527 0.01257
C 27.09697 17.0311 0.02316
C 28.2359 26.25949 -0.0032
C 27.0893 15.60952 0.04185
C 28.27582 13.52286 -0.00621
C 27.02712 12.8569 0.02611
C 27.09146 11.38481 0.02198
C 28.27018 10.6149 0.01094
C 28.29652 9.17535 0.00235
C 27.05384 8.49291 0.01495
C 26.93837 7.10005 0.01259
C 28.24838 6.39412 0.01799
C 28.2308 4.9975 0.01699
C 28.28944 14.90749 0.00194
C 25.89409 19.11358 0.02117
C 28.23614 27.67936 -0.00037
C 26.99813 29.76877 -0.00218
C 24.60966 16.99799 -0.00498
C 24.68465 15.59796 0.00135
C 25.82838 14.87446 0.03102
C 25.80452 13.44996 0.02555
C 24.51578 12.63244 0.01423
C 24.54644 11.2166 -0.00285
C 25.82965 10.60784 -0.009
C 25.92819 9.23359 -0.01199
C 24.62786 8.57969 -0.00229
C 26.95444 28.33043 -0.01654
C 24.41621 7.21148 -0.00938
C 25.75344 5.00832 -0.01154
C 24.48209 4.23398 0.00684
C 24.57463 2.78414 -0.01052
C 25.83369 2.12984 -0.01679
C 25.84801 0.71338 0.00367
C 24.65744 34.02016 0.04306
C 27.04422 32.65187 0.00996
C 28.22175 31.91435 0.00195
C 28.16005 30.49557 -0.00802
C 25.64465 6.40571 -0.0264
C 2.38702 32.71271 0.03189
