245
Graphene
C 34.33553 0.14006 0.01295
C 15.96721 30.62844 0.01515
C 15.91974 32.08017 -0.0055
C 14.68765 32.7195 0.02734
C 12.24741 0.00954 0.01153
C 13.46447 0.8369 0.02239
C 13.52494 2.22119 -0.03213
C 12.1709 2.86933 -0.02845
C 12.19728 4.35385 0.03374
C 13.49419 4.98085 0.0296
C 13.56778 6.41793 0.03046
C 12.31728 7.13126 -0.00381
C 12.33038 8.50476 0.01852
C 14.77816 29.88871 -0.00225
C 13.65563 9.0596 0.01126
C 11.70243 13.60493 -0.01662
C 12.28765 29.87791 -0.00478
C 13.44059 30.53391 0.01511
C 13.4477 31.9739 0.00199
C 12.30548 32.62616 0.01087
C 9.74878 34.04638 -0.01527
C 10.9918 0.74063 0.00096
C 10.97689 2.14622 0.01277
C 9.67806 2.87377 -0.02422
C 9.63249 4.31815 -0.01721
C 10.93069 5.02479 -0.01154
C 10.96788 6.41801 0.0106
C 11.9721 11.82693 -0.01185
C 14.76275 28.41422 0.00071
C 16.03951 27.63623 -0.01107
C 16.74956 26.18397 -0.01586
C 19.65896 32.76386 0.04306
C 17.16127 0.05968 0.00367
C 18.37413 0.70894 -0.01679
C 18.3856 2.15722 -0.01052
C 17.18025 2.77909 0.00684
C 17.22139 4.13361 -0.01154
C 18.24121 5.13401 -0.0264
C 17.4673 6.41961 -0.00938
C 17.72902 22.21686 -0.00229
C 17.62523 23.50567 -0.01199
C 17.56101 25.0332 -0.009
C 18.16149 26.30116 -0.00285
C 18.54584 27.6528 0.01423
C 17.17221 28.51441 0.02555
C 17.16812 29.94983 0.03102
C 18.40536 30.66072 0.00135
C 18.41979 32.14764 -0.00498
C 17.14609 32.74145 0.02737
C 14.61588 34.05966 0.02117
C 15.8805 0.6761 -0.04078
C 15.93106 2.14702 0.03005
C 14.75304 2.85029 -0.0276
C 14.74078 4.29936 0.00768
C 15.99613 4.87335 -0.00178
C 16.12821 6.27088 0.00733
C 15.03471 7.14809 -0.02118
C 14.82001 8.48763 -0.01971
C 9.57431 7.03985 -0.01594
C 9.80046 8.4845 0.00742
C 11.13109 9.26562 -0.00311
C 11.11689 10.67863 0.00675
C 6.15978 10.8916 0.03698
C 4.91148 11.66723 -0.02213
C 4.85146 13.15466 0.00028
C 6.11601 13.5786 -0.00289
C 4.75323 29.84036 -0.00066
C 6.05897 30.34807 0.00213
C 6.02905 31.82088 -0.05302
C 4.82311 32.58469 -0.04147
C 2.43241 0.09928 -0.02815
C 3.71033 0.80027 0.03505
C 3.71878 2.21356 0.01443
C 2.62342 3.00371 0.00979
C 2.77037 4.37742 -0.00481
C 4.23362 5.10187 0.00889
C 4.26894 6.62589 -0.02162
C 2.87204 7.19935 -0.00619
C 2.6316 8.58821 0.01848
C 3.76177 9.42036 0.02098
C 3.73553 10.81755 -0.03113
C 2.42788 11.50174 0.0351
C 2.38068 12.96293 0.00422
C 3.50564 13.8048 0.00798
C 3.24177 15.25323 0.00228
C 2.13041 15.83007 -0.00114
C 2.43954 28.61056 -0.02696
C 2.39428 29.95085 -0.00368
C 3.63825 30.59147 -0.0108
C 6.20621 9.52793 -0.00109
C 20.87722 32.01014 0.00996
C 5.04701 8.76122 -0.00491
C 5.35316 4.19666 -0.0258
C 9.94624 11.36579 -0.00865
C 10.66994 12.5697 0.0058
C 9.75243 29.58626 -0.00652
C 10.99267 30.36244 -0.04076
C 11.05332 31.84675 -0.00703
C 9.79236 32.56454 0.00654
C 7.30554 34.00411 -0.04422
C 8.51055 0.58484 -0.02957
C 8.48943 2.06321 -0.00831
C 7.24459 2.73429 0.00364
C 7.06104 4.11519 -0.017
C 8.15465 5.01897 0.00143
C 8.09113 6.483 0.00667
C 6.94304 7.31278 -0.0054
C 7.37284 8.68961 0.00755
C 8.65776 9.34519 0.01739
C 8.73469 10.7774 0.03754
C 7.37568 11.61083 -0.03557
C 7.27995 12.9347 -0.00111
C 7.32791 29.74478 0.04892
C 8.55812 30.27494 0.01452
C 8.53637 31.78666 -0.01581
C 7.36027 32.43904 0.02691
C 4.83952 34.02229 -0.01979
C 6.07578 0.65709 0.02188
C 6.10966 1.97854 -0.00316
C 4.99618 2.8533 -0.0331
C 5.46636 7.37976 0.03338
C 3.58954 32.01829 -0.01957
C 20.81815 30.63271 0.00195
C 19.65856 28.55605 -0.00218
C 31.92649 2.91057 0.0001
C 31.97745 4.32195 -0.00841
C 33.24693 5.07027 -0.00323
C 33.30102 6.52715 0.00349
C 31.97388 7.16947 -0.03838
C 31.96791 8.59903 0.04926
C 33.19187 9.25191 -0.00069
C 33.18326 10.64105 0.01504
C 31.89775 11.46229 0.02806
C 31.87945 12.82498 0.04381
C 33.10015 13.50334 0.00199
C 33.07168 14.98121 0.00137
C 33.15858 2.33835 -0.02927
C 31.85849 15.88133 -0.01839
C 33.15592 17.6363 0.00455
C 32.79422 19.19715 0.00369
C 0.51372 22.47353 -0.02474
C 33.69608 26.54534 0.00594
C 33.37061 27.76411 -0.0136
C 32.0397 28.41754 -0.01429
C 31.87839 29.82581 -0.02383
C 33.13609 30.62862 0.01574
C 33.08276 32.05858 0.01927
C 31.88594 32.72117 0.03794
C 29.40904 0.00272 -0.01779
C 30.64056 0.81449 0.00682
C 31.92619 17.29865 -0.00644
C 33.12193 0.80598 -0.01404
C 31.85098 0.11767 0.01027
C 34.2927 32.77168 0.01831
C 1.20672 0.87441 -0.00468
C 1.32697 2.24778 -0.00939
C 0.02436 2.96201 -0.00931
C 0.06942 4.35967 -0.0345
C 1.48909 5.04596 0.00628
C 1.42445 6.47967 0.02931
C 0.09514 7.17816 -0.02849
C 0.11673 8.55558 -0.02302
C 1.32178 9.22382 -0.00583
C 1.21957 10.74118 -0.00027
C 34.40583 11.38202 -0.02442
C 34.33979 12.85628 -0.02656
C 1.12002 13.58404 0.00343
C 1.03646 14.97953 -0.02957
C 34.21631 15.65556 0.02114
C 34.30058 17.02174 0.00648
C 1.17817 17.4725 0.01223
C 33.08766 20.57524 -0.01678
C 33.99442 21.40276 0.01951
C 34.18846 23.65553 -0.02213
C 34.27272 25.35765 0.02712
C 0.93845 26.35628 0.00723
C 1.25724 27.67992 0.03076
C 0.05751 28.61657 -0.05239
C 34.36001 30.01412 -0.00598
C 1.11819 30.80891 -0.00439
C 1.12363 32.10319 -0.01037
C 30.70279 2.2144 0.00026
C 29.46166 2.91678 0.0544
C 29.43239 4.30403 -0.02142
C 30.72991 5.06562 0.01428
C 25.7783 2.07383 0.01324
C 24.5105 2.84942 0.04266
C 24.52176 4.24705 0.01177
C 25.79045 4.9955 -0.00416
C 25.87002 6.42962 0.01699
C 24.63812 7.08901 0.01799
C 24.52059 29.7317 0.01259
C 25.83302 30.24543 0.01495
C 25.74566 31.8331 0.00235
C 24.53608 32.56279 0.01094
C 22.09594 0.07438 0.02198
C 23.29391 0.75486 0.02611
C 23.30129 2.15123 -0.00621
C 22.09113 2.91181 0.00194
C 22.11852 4.26786 0.04185
C 23.35732 5.04168 0.02316
C 23.42837 6.40654 0.01257
C 22.00782 29.87859 0.00152
C 23.33297 30.39295 -0.00294
C 23.29528 31.8617 0.00826
C 22.1585 32.65348 0.00487
C 19.68618 34.06616 -0.00942
C 20.84405 0.8066 -0.02815
C 20.87797 2.25033 0.00622
C 19.61703 2.95384 -0.0032
C 19.63323 4.43092 -0.00037
C 20.90144 5.02281 -0.01654
C 25.73411 0.70979 0.0014
C 19.60222 29.97661 -0.00802
C 24.58256 34.06754 0.00924
C 28.23069 31.90724 0.00261
C 30.78945 6.44011 -0.01694
C 29.48827 7.2088 0.01713
C 29.4636 8.57282 0.00346
C 30.70356 9.29975 0.00307
C 30.59469 10.80193 0.00716
C 29.30481 11.50719 0.02108
C 29.52208 12.96472 0.0103
C 30.67737 13.62008 0.07705
C 30.65614 15.09352 0.01908
C 29.57457 15.97952 0.01518
C 29.49273 29.76334 -0.00971
C 30.65779 30.51 -0.03735
C 30.69096 31.92366 -0.00944
C 29.45521 32.69342 -0.02155
C 27.01305 0.02622 -0.01461
C 28.19896 0.74303 -0.01303
C 28.29566 2.21583 -0.0405
C 27.03072 2.81292 0.01705
C 27.02763 4.28924 0.0101
C 28.26858 5.0096 -0.00669
C 28.23831 6.45981 0.03531
C 27.02665 7.17699 0.01836
C 26.96892 8.54692 -0.03039
C 28.12813 9.2985 -0.01415
C 28.38406 10.60868 -0.01854
C 27.04721 29.67613 -0.02049
C 28.2773 30.35547 0.03265
C 26.94862 32.56783 0.02326
C 2.42113 32.80953 0.02058
