312
Graphene
C 34.4109 34.03956 0.01295
C 12.29159 3.03129 -0.0331
C 13.44923 2.08082 -0.00316
C 13.57363 0.61894 0.02188
C 12.28277 34.06648 -0.01979
C 14.67997 32.5898 0.02691
C 15.92674 31.95924 -0.01581
C 15.98165 30.58845 0.01452
C 14.67833 29.83325 0.04892
C 14.68865 28.41732 -0.00111
C 15.93795 27.72431 -0.03557
C 15.98348 26.2742 0.03754
C 14.81609 25.54505 0.01739
C 14.9946 24.03689 0.00755
C 16.37492 23.38765 -0.0054
C 16.18319 22.02636 0.00667
C 13.60856 19.04026 -0.0258
C 12.37425 19.75671 0.03338
C 12.36881 21.18143 -0.00491
C 13.755 21.91128 -0.00109
C 9.79335 19.64646 -0.00619
C 11.08705 18.98481 -0.02162
C 9.77817 2.78646 0.00889
C 11.10089 2.26194 -0.00481
C 11.07897 0.80276 0.00979
C 9.75601 0.1206 0.01443
C 12.17588 32.64629 0.03505
C 15.01794 21.29309 0.00143
C 13.42798 31.96456 -0.02815
C 12.29057 29.73999 -0.05302
C 12.26061 28.3436 0.00213
C 13.46314 27.64911 -0.00066
C 13.54562 26.15644 -0.00289
C 12.31006 25.42223 0.00028
C 12.38769 23.90454 -0.02213
C 13.78547 23.27988 0.03698
C 13.43801 30.54022 -0.04147
C 9.85326 21.14428 0.01848
C 14.84522 19.71881 -0.017
C 14.79082 4.12832 -0.00831
C 18.45422 2.07443 0.00199
C 18.38257 0.76492 0.01511
C 17.1833 0.01696 -0.00478
C 19.59989 32.72705 -0.01662
C 20.79289 31.99308 -0.01185
C 20.86174 30.50942 0.01126
C 19.67092 29.84908 0.01852
C 19.70263 28.42141 -0.00381
C 20.85462 27.73693 0.03046
C 20.83792 26.17498 0.0296
C 19.56664 25.51254 0.03374
C 18.85923 24.24112 -0.02845
C 19.51351 13.08851 -0.03213
C 19.40743 11.69429 0.02239
C 20.72054 10.83479 0.01153
C 17.1942 2.8238 0.01087
C 17.17321 4.25055 -0.01527
C 18.51037 4.90662 0.00096
C 18.9082 6.21071 0.01277
C 14.6546 2.80291 -0.02957
C 15.91369 2.08337 -0.04422
C 15.96617 0.64793 0.00654
C 14.77779 34.05191 -0.00703
C 17.12952 32.73664 -0.04076
C 18.32458 31.93988 -0.00652
C 18.44354 30.46853 0.0058
C 15.93504 4.854 0.00364
C 17.21167 29.80936 -0.00865
C 18.50467 27.74579 -0.00311
C 18.44994 26.39058 0.00742
C 17.25136 25.71665 -0.01594
C 17.49951 24.24146 0.0106
C 18.55757 14.16938 -0.01154
C 18.38777 10.79293 -0.01721
C 18.5325 9.41565 -0.02422
C 17.14271 28.40029 0.00675
C 21.03235 9.41262 0.02734
C 11.11508 21.78264 0.02098
C 9.90826 24.04269 0.0351
C 3.66759 6.47534 0.0402
C 3.77706 5.09549 0.00572
C 2.45505 4.31496 0.03592
C 2.47489 2.90666 0.00406
C 3.68509 2.15086 0.00943
C 3.68325 0.68507 0.02841
C 2.51326 34.03125 -0.01111
C 4.86898 32.62118 -0.01275
C 6.10853 31.95371 0.00985
C 6.14638 30.51327 -0.02245
C 4.83789 29.82417 -0.00428
C 4.85226 28.40117 0.03101
C 6.12328 27.69646 -0.01536
C 6.19601 26.21408 -0.02689
C 4.87274 25.56301 -0.01046
C 2.43791 7.25597 -0.02759
C 2.3362 8.70564 0.03589
C 2.31343 11.50873 -0.00033
C 2.43557 12.79198 -0.01062
C 3.58124 30.54866 -0.00131
C 2.3714 29.78358 -0.01118
C 2.32725 28.39972 -0.014
C 3.58774 27.69816 0.02147
C 3.70608 26.28115 0.00373
C 2.43488 25.59818 -0.00191
C 2.43086 24.11141 0.00438
C 4.89458 24.08277 -0.00891
C 3.70665 23.41753 0.01291
C 2.46706 21.35859 0.00057
C 2.4664 19.92525 -0.01634
C 3.64945 19.16607 -0.00334
C 3.69512 17.72267 0.02339
C 2.42019 17.07849 0.01641
C 2.49379 15.59951 -0.00719
C 3.69058 14.88724 0.01364
C 3.71143 21.99794 0.00093
C 11.17132 23.20939 -0.03113
C 6.11611 23.42412 0.02819
C 4.87591 21.2553 -0.02971
C 7.43082 21.27158 -0.01952
C 7.35715 19.81129 -0.02813
C 8.50132 19.01647 0.00374
C 7.17139 2.91465 0.00052
C 8.51958 2.34039 -0.03682
C 8.51087 0.79941 0.01965
C 7.37137 0.07223 0.02058
C 9.73471 32.81681 -0.01957
C 10.94732 32.02502 -0.0108
C 11.00162 30.60515 -0.00368
C 9.89692 29.87508 -0.02696
C 9.83272 28.32375 -0.00114
C 11.08051 27.54194 0.00228
C 11.10284 26.10822 0.00798
C 9.82689 25.46327 0.00422
C 8.71261 21.92023 0.05265
C 8.62326 23.30537 -0.01717
C 7.40757 24.05471 0.00244
C 7.32684 25.4947 0.02299
C 4.87009 19.87599 0.02894
C 6.09705 19.16841 -0.01789
C 5.8832 17.81895 0.00444
C 4.80967 16.93951 -0.00925
C 4.94899 4.28482 0.01877
C 4.85242 2.85587 0.01363
C 6.09079 2.08995 -0.02162
C 6.19109 21.94743 0.00165
C 6.11374 0.70286 0.00415
C 7.30959 32.73493 0.02162
C 8.58923 32.02922 0.0076
C 8.6005 30.5502 0.01241
C 7.37045 29.83883 -0.01454
C 7.36259 28.3853 0.01945
C 8.5985 27.67464 0.01416
C 8.57272 26.21854 0.03542
C 4.91356 34.01488 -0.0014
C 19.7314 8.72716 -0.0055
C 19.67135 7.31634 0.01515
C 20.37606 6.12761 -0.00225
C 33.17874 23.44451 0.01927
C 33.22412 22.00942 0.01574
C 31.92999 21.26123 -0.02383
C 31.91747 19.84105 -0.01429
C 33.16716 19.21989 -0.0136
C 33.22193 17.80671 0.00594
C 31.97635 17.02415 -0.02474
C 31.85342 15.6915 0.00369
C 33.13245 14.96074 0.00455
C 33.0666 13.56506 -0.00644
C 31.82273 12.86163 -0.01839
C 31.83106 11.43538 0.00137
C 33.04765 10.7033 0.00199
C 33.1163 9.2896 0.04381
C 31.79893 8.62 0.02806
C 31.92391 24.06377 0.03794
C 31.86186 25.52741 -0.01779
C 33.0811 26.25675 0.00682
C 33.11196 27.62908 0.00026
C 29.20446 12.83821 -0.00944
C 29.43419 11.52676 -0.03735
C 30.54929 10.70877 -0.00971
C 30.65846 9.30738 0.01518
C 30.72788 6.43452 0.01908
C 30.63495 5.09373 0.07705
C 29.48539 4.27384 0.0103
C 31.90679 7.13255 0.01504
C 29.43383 2.7976 0.02108
C 30.64094 0.75612 0.00307
C 29.46057 0.08272 0.00346
C 31.94018 32.64677 0.01713
C 33.13237 31.96294 -0.01694
C 33.09767 30.51632 0.01428
C 31.87006 29.81713 -0.02142
C 31.88467 28.38851 0.0544
C 30.72534 2.12291 0.00716
C 30.54175 13.56219 -0.02155
C 33.16729 6.47174 -0.00069
C 31.94279 4.38219 -0.03838
C 34.41371 15.72472 0.02114
C 1.18827 14.97937 -0.02957
C 1.15335 13.56433 0.00343
C 34.30753 12.92897 -0.02656
C 34.2768 11.41521 -0.02442
C 1.05564 10.7151 -0.00027
C 1.07153 9.3246 -0.00583
C 34.31911 8.61265 -0.02302
C 34.36636 7.20216 -0.02849
C 1.20881 6.5226 0.02931
C 1.22298 5.06198 0.00628
C 0.01011 4.32138 -0.0345
C 0.02363 2.88031 -0.00931
C 1.21225 2.15516 -0.00939
C 1.19753 0.73176 -0.00468
C 34.43197 17.12223 0.00648
C 1.20552 17.86786 0.01223
C 1.24352 19.24167 -0.01678
C 34.36561 19.89809 0.01951
C 31.90778 2.89089 0.00349
C 33.16437 2.19073 -0.00323
C 33.18284 0.74046 -0.00841
C 31.89675 34.06649 0.0001
C 34.39243 32.64825 -0.02927
C 1.2308 31.91818 -0.01404
C 1.12879 30.58407 0.01027
C 33.27897 5.08014 0.04926
C 34.39471 29.78218 0.01831
C 1.14042 27.68342 -0.00439
C 1.15634 26.28868 -0.00598
C 34.37276 25.56167 -0.05239
C 34.37 24.1902 0.03076
C 1.13609 23.42045 0.00723
C 1.25992 21.97855 0.02712
C 0.02774 21.31702 -0.02213
C 34.35515 28.38501 -0.01037
C 30.60021 14.98652 -0.01461
C 29.34731 15.79685 -0.01303
C 29.41799 17.1378 -0.0405
C 22.10133 0.06934 -0.01199
C 24.54434 32.70222 -0.00229
C 25.74954 31.99718 -0.00938
C 25.73835 30.5607 -0.0264
C 24.55407 29.79119 -0.01154
C 24.56426 28.31659 0.00684
C 25.78945 27.66942 -0.01052
C 25.76422 26.27203 -0.01679
C 24.6086 25.48748 0.00367
C 24.81813 24.16169 0.04306
C 25.8341 23.38062 0.00996
C 26.60234 13.79927 0.00195
C 24.51151 4.18397 -0.00802
C 24.61401 2.86251 -0.00218
C 25.78856 2.08517 -0.01654
C 23.36089 0.76813 -0.009
C 23.3658 2.18744 -0.00285
C 22.09692 2.85841 0.01423
C 22.07098 4.38646 0.02555
C 20.82821 4.86237 0.00071
C 19.64906 4.08341 -0.01107
C 19.61817 2.78096 -0.01586
C 20.8689 2.08445 -0.01971
C 20.96428 0.76877 -0.02118
C 19.6995 0.0318 0.00733
C 22.09464 32.73816 -0.00178
C 25.80186 0.72086 -0.00037
C 23.34044 32.06352 0.00768
C 22.10309 29.8779 0.03005
C 22.13564 28.47047 -0.04078
C 23.34072 27.69997 0.02117
C 23.25382 26.23804 0.02737
C 22.0332 25.60171 -0.00498
C 21.77143 11.68721 0.00135
C 23.34082 4.84909 0.03102
C 23.31472 30.49935 -0.0276
C 24.57536 0.03197 -0.0032
C 26.99612 32.71202 0.00622
C 28.26311 32.02826 -0.02815
C 27.00139 0.00884 0.04266
C 29.47816 32.77061 0.01324
C 30.68333 31.9147 0.0014
C 30.64308 30.51373 0.00924
C 29.44266 29.85486 0.02326
C 29.44553 28.38478 0.00261
C 30.65391 27.67187 0.03265
C 28.22181 0.74099 0.01177
C 30.66024 26.22228 -0.02049
C 29.55364 24.12447 -0.01415
C 30.7045 23.36692 -0.03039
C 30.68125 21.98408 0.01836
C 29.45906 21.25576 0.03531
C 29.41981 19.88544 -0.00669
C 30.69357 19.21229 0.0101
C 30.72367 17.76965 0.01705
C 29.41971 25.57081 -0.01854
C 3.64188 31.96624 -0.02896
C 28.16374 2.14975 -0.00416
C 26.99545 4.26782 0.01799
C 28.19821 30.58701 -0.00942
C 26.99896 29.85624 0.00487
C 26.93778 28.40067 0.00826
C 28.19637 27.68316 -0.00294
C 28.21977 26.25706 0.00152
C 27.01368 25.51346 0.01257
C 27.08816 24.08687 0.02316
C 26.99081 2.9375 0.01699
C 28.29894 23.46984 0.04185
C 26.90418 21.39913 -0.00621
C 28.28483 19.14674 0.02611
C 28.28789 17.85155 0.02198
C 26.46571 15.0222 0.01094
C 28.16207 15.02073 0.00235
C 28.37257 13.68927 0.01495
C 28.26059 4.82363 0.01259
C 28.15225 21.91031 0.00194
C 2.42189 32.66666 -0.01004
