368
Graphene
C 34.40137 34.07972 0.01295
C 13.4519 6.33665 -0.01952
C 13.53081 4.91858 -0.02813
C 12.25195 4.34137 0.00374
C 12.25075 2.88602 0.00052
C 13.41757 2.13052 -0.03682
C 13.45515 0.72934 0.01965
C 12.24056 34.05391 0.02058
C 14.72387 32.59639 -0.01957
C 16.04622 31.86013 -0.0108
C 16.16384 30.53583 -0.00368
C 14.99867 29.7407 -0.02696
C 14.8894 28.22645 -0.00114
C 15.15752 21.22391 0.00228
C 14.47921 20.04573 0.00798
C 15.80974 19.12116 0.00422
C 16.00926 17.91274 0.0351
C 15.86655 9.13605 -0.03113
C 14.72716 8.61208 0.02098
C 14.60852 7.09885 0.01848
C 12.33549 7.16213 0.05265
C 15.88525 6.42564 -0.00619
C 12.86718 19.95958 -0.01717
C 13.66673 22.20594 0.02299
C 8.94924 19.84072 0.02819
C 9.80167 7.20995 0.00165
C 11.05697 6.5937 -0.02971
C 11.1122 5.10048 0.02894
C 9.88972 4.32996 -0.01789
C 9.81825 2.96288 0.00444
C 11.02508 2.14327 -0.00925
C 11.06802 0.73707 0.01877
C 9.78801 0.06933 0.01363
C 12.37356 32.68086 -0.02162
C 13.58967 31.93975 0.00415
C 13.62711 30.3842 -0.0014
C 12.37778 29.69795 0.02162
C 12.40257 28.32246 0.0076
C 13.65031 27.55571 0.01241
C 13.52955 25.99322 -0.01454
C 12.23914 25.55585 0.01945
C 12.26402 24.05302 0.01416
C 13.53384 23.54253 0.03542
C 12.37126 21.27673 0.00244
C 9.65339 21.17466 -0.00891
C 15.93157 4.9278 -0.02162
C 14.67649 2.79753 -0.00481
C 17.12034 2.84178 0.04892
C 18.35224 2.08355 -0.00111
C 18.39887 0.68916 -0.03557
C 17.13888 0.03948 0.03754
C 19.65941 32.68843 0.01739
C 20.88218 31.80825 0.00755
C 20.40362 30.29032 -0.0054
C 19.78572 19.82782 0.00667
C 20.98174 18.98834 0.00143
C 20.94041 17.61937 -0.017
C 19.63927 16.9674 0.00364
C 19.6766 15.58832 -0.00831
C 20.91531 14.85441 -0.02957
C 20.90962 13.41927 -0.04422
C 19.59154 12.74437 0.00654
C 19.57609 11.41183 -0.00703
C 20.82547 10.70298 -0.04076
C 20.82885 9.30774 -0.00652
C 19.5893 8.59933 0.0058
C 17.14677 4.25566 0.01452
C 14.74578 4.18705 0.00889
C 18.32753 5.02423 -0.01581
C 17.07637 7.12657 -0.01979
C 15.87008 2.10549 0.00979
C 15.8707 0.65455 0.01443
C 14.69154 34.05787 0.03505
C 17.27576 32.75736 -0.02815
C 18.4483 31.84909 -0.04147
C 18.64346 30.4646 -0.05302
C 16.47915 21.21625 0.00213
C 17.1311 19.97827 -0.00066
C 18.46298 19.19663 -0.00289
C 18.4296 17.7691 0.00028
C 17.25923 17.01711 -0.02213
C 17.22492 15.53802 0.03698
C 18.4073 14.8946 -0.00109
C 18.43333 13.46264 -0.00491
C 17.32468 12.66036 0.03338
C 17.16287 11.39062 -0.0258
C 18.37645 10.64662 -0.0331
C 18.36536 9.19368 -0.00316
C 17.12951 8.46834 0.02188
C 18.3636 6.39523 0.02691
C 19.64284 7.13112 -0.00865
C 10.92018 21.80281 -0.01046
C 9.86868 24.18157 -0.01536
C 3.71645 6.52368 0.01227
C 3.75274 5.15599 0.00873
C 2.50555 4.42505 -0.00049
C 2.46304 2.88763 0.00848
C 3.66839 2.24319 -0.01303
C 3.64587 0.80518 -0.01378
C 2.41745 0.09752 0.02635
C 4.84306 32.68071 0.0127
C 6.11085 32.04096 0.01396
C 6.10091 30.57699 0.01849
C 4.85901 29.82672 -0.01142
C 4.90439 28.4364 -0.00562
C 6.15258 27.78398 -0.00494
C 6.10022 26.32436 0.00054
C 4.8852 25.59894 0.03007
C 4.89813 24.1737 -0.00095
C 6.1551 23.44421 0.01572
C 6.15183 22.03744 -0.04848
C 4.96812 21.30027 -0.00892
C 2.45369 7.2186 -0.03337
C 5.08559 19.90335 -0.01362
C 2.49165 8.64202 -0.00966
C 3.66867 10.94463 0.03368
C 3.67698 30.59878 -0.03996
C 2.33513 29.90328 0.01465
C 2.31159 28.46566 -0.00074
C 3.57174 27.73875 -0.00518
C 3.61053 26.33695 0.0086
C 2.48678 25.60829 -0.00643
C 2.40498 24.12854 0.017
C 3.62952 23.44138 -0.03113
C 3.75636 22.02454 -0.02566
C 2.52728 21.32248 -0.00094
C 2.5413 19.88537 0.02322
C 3.83211 19.16119 -0.00725
C 3.72766 17.74906 -0.05697
C 2.58233 16.95115 0.01087
C 2.45749 15.4606 -0.01343
C 3.79679 14.61491 0.00988
C 3.81242 13.13975 0.0276
C 2.33335 12.77677 0.01305
C 2.29809 11.41694 -0.00077
C 3.73201 9.56988 -0.02929
C 10.99863 23.31387 -0.02689
C 6.40876 19.22146 -0.0008
C 4.99532 16.90451 0.00393
C 7.38836 21.38337 0.01641
C 7.77742 19.96624 -0.00719
C 7.34272 8.64923 0.01364
C 7.46601 7.24744 -0.01062
C 8.67314 6.50558 -0.00033
C 8.63773 4.99554 0.03589
C 7.42865 4.33333 -0.02759
C 7.43327 2.98442 0.0402
C 8.59894 2.33974 0.00572
C 8.60763 0.77166 0.03592
C 7.40538 0.05222 0.00406
C 9.82241 32.64484 0.00943
C 11.14717 31.90374 0.02841
C 11.1408 30.55198 -0.01111
C 9.86391 29.84137 -0.01275
C 9.87081 28.43956 0.00985
C 11.13818 27.66929 -0.02245
C 11.01347 26.32558 -0.00428
C 9.8003 25.58359 0.03101
C 8.57806 22.18124 0.02339
C 6.12726 17.92594 0.0288
C 8.52697 23.58897 -0.00334
C 7.31294 25.65277 0.00057
C 4.85698 15.55876 0.00895
C 4.65016 12.13292 0.00685
C 6.20194 9.26125 0.02888
C 4.95169 8.69094 -0.00482
C 4.95673 7.23583 -0.01384
C 6.22304 6.49172 0.03693
C 6.15341 5.08634 0.01745
C 4.96066 4.35966 0.00488
C 4.9678 2.93003 -0.01004
C 6.14109 2.21991 -0.02896
C 6.12199 0.81229 -0.00131
C 4.8663 0.11532 -0.01118
C 7.3754 32.71027 -0.014
C 8.54686 31.93387 0.02147
C 8.59246 30.53085 0.00373
C 7.38582 29.83531 -0.00191
C 7.3808 28.44152 0.00438
C 8.67124 27.69365 0.01291
C 8.57514 26.28939 0.00093
C 7.31756 24.24038 -0.01634
C 20.76058 6.33832 0.00675
C 20.6974 4.93487 -0.00311
C 19.50513 4.25336 0.00742
C 30.71886 0.75927 0.00307
C 29.43292 0.07556 0.00346
C 31.89529 32.73993 0.01713
C 33.12533 31.98144 -0.01694
C 33.17032 30.58608 0.01428
C 31.85601 29.92216 -0.02142
C 31.77251 28.48194 0.0544
C 33.08856 27.72044 0.00026
C 33.16899 26.35038 0.00682
C 31.88812 25.61971 -0.01779
C 31.93166 24.15151 0.03794
C 33.1892 23.44023 0.01927
C 33.1998 22.0342 0.01574
C 31.98435 21.28377 -0.02383
C 31.99919 19.87317 -0.01429
C 33.21437 19.20178 -0.0136
C 33.20588 17.76851 0.00594
C 31.94147 16.98927 -0.02474
C 31.96235 15.64808 0.00369
C 30.65375 2.19837 0.00716
C 33.16433 14.87579 0.00455
C 29.41645 2.8943 0.02108
C 30.67028 4.951 0.07705
C 29.47262 25.5394 0.03265
C 29.51689 24.15157 -0.02049
C 30.7597 23.39451 -0.01854
C 30.82391 21.99872 -0.01415
C 29.5309 21.30205 -0.03039
C 29.53137 19.9481 0.01836
C 30.77165 19.16035 0.03531
C 30.71066 17.71344 -0.00669
C 29.5497 17.02913 0.0101
C 29.55547 15.67186 0.01705
C 30.74585 14.92323 -0.0405
C 30.75532 13.46883 -0.01303
C 29.58929 12.72394 -0.01461
C 29.51218 11.31188 -0.02155
C 30.77007 10.67191 -0.00944
C 30.74387 9.18287 -0.03735
C 29.49357 8.4579 -0.00971
C 29.40672 7.00286 0.01518
C 30.68123 6.37594 0.01908
C 29.42325 4.31042 0.0103
C 30.66969 26.30663 0.00261
C 33.21895 13.49479 -0.00644
C 32.00934 11.39221 0.00137
C 34.39703 19.94532 0.01951
C 1.19901 19.18417 -0.01678
C 1.35323 17.73729 0.01223
C 34.42327 17.00706 0.00648
C 34.37225 15.57555 0.02114
C 1.15452 14.92008 -0.02957
C 1.14698 13.48863 0.00343
C 0.00033 12.79301 -0.02656
C 34.42164 11.31401 -0.02442
C 1.17806 10.63744 -0.00027
C 1.25483 9.24245 -0.00583
C 0.01427 8.56267 -0.02302
C 34.40867 7.1249 -0.02849
C 1.25539 6.54086 0.02931
C 1.25498 5.05842 0.00628
C 34.38529 4.32752 -0.0345
C 0.00803 2.90669 -0.00931
C 1.21951 2.10408 -0.00939
C 1.20809 0.7192 -0.00468
C 0.00553 21.3256 -0.02213
C 32.05091 12.73195 -0.01839
C 1.24582 22.02754 0.02712
C 34.4097 24.17201 0.03076
C 33.17477 10.66012 0.00199
C 33.21976 9.27339 0.04381
C 32.00461 8.59252 0.02806
C 31.9446 7.075 0.01504
C 33.15537 6.36902 -0.00069
C 33.13267 4.99134 0.04926
C 31.89791 4.31316 -0.03838
C 31.89539 2.82844 0.00349
C 33.21633 2.17828 -0.00323
C 33.21076 0.78805 -0.00841
C 31.94261 0.07885 0.0001
C 34.3464 32.68219 -0.02927
C 1.14264 32.01187 -0.01404
C 1.15088 30.64437 0.01027
C 34.41335 29.93076 0.01831
C 34.34766 28.43527 -0.01037
C 1.11558 27.71495 -0.00439
C 1.23418 26.26541 -0.00598
C 0.0198 25.58326 -0.05239
C 1.17131 23.47507 0.00723
C 30.55285 27.79383 0.02326
C 29.09535 28.43096 0.00924
C 29.36106 29.80853 0.0014
C 22.03783 8.5594 0.01153
C 22.07993 7.14013 0.02734
C 23.26072 6.42038 -0.0055
C 23.2182 4.89863 0.01515
C 21.93776 4.26806 -0.00225
C 22.01058 2.88132 0.00071
C 23.25926 2.14412 -0.01107
C 23.30046 0.68776 -0.01586
C 21.91539 34.07032 -0.01971
C 26.26754 27.66623 -0.02118
C 25.88501 26.25214 0.00733
C 24.54611 25.60526 -0.00178
C 24.6169 24.15813 0.00768
C 25.86878 23.30304 -0.0276
C 25.77742 21.92489 0.03005
C 24.56033 21.25298 -0.04078
C 24.65542 19.78862 0.02117
C 25.9194 19.07001 0.02737
C 25.85305 17.66762 -0.00498
C 23.33878 9.1741 0.02239
C 24.68655 16.93959 0.00135
C 23.3713 10.65818 -0.03213
C 22.10412 12.77447 0.03374
C 19.59581 2.84288 -0.01594
C 20.8126 2.16544 0.0106
C 20.78986 0.71469 -0.01154
C 19.58831 34.07099 -0.01721
C 22.1985 32.66971 -0.02422
C 23.74503 32.46348 0.01277
C 21.49767 29.61864 0.00096
C 22.404 27.45607 -0.01527
C 23.29996 26.53331 0.01087
C 23.45052 23.41615 0.00199
C 23.35259 21.99836 0.01511
C 22.23115 21.10031 -0.00478
C 22.22573 19.75561 -0.01662
C 23.44943 19.07392 -0.01185
C 23.43087 17.60298 0.01126
C 22.16969 16.93098 0.01852
C 22.08149 15.5696 -0.00381
C 23.41332 14.83342 0.03046
C 23.38141 13.40097 0.0296
C 22.0484 11.33846 -0.02845
C 24.60672 15.56107 0.03102
C 25.8816 14.90403 0.02555
C 25.85146 13.41655 0.01423
C 27.1564 15.57092 -0.00294
C 28.37831 14.90804 0.00152
C 28.35947 13.4664 0.01257
C 27.18089 12.7352 0.02316
C 27.05215 11.3333 0.04185
C 28.29906 10.60973 0.00194
C 28.26577 9.14175 -0.00621
C 26.9811 8.48541 0.02611
C 27.01857 7.09781 0.02198
C 28.16429 6.36703 0.01094
C 28.06576 4.93666 0.00235
C 26.88019 4.17368 0.01495
C 26.90047 2.77081 0.01259
C 28.16902 2.24984 0.01799
C 28.14907 0.80541 0.01699
C 26.999 34.05676 -0.00416
C 29.29688 32.78808 0.01177
C 30.60134 32.04687 0.04266
C 30.62371 30.54579 0.01324
C 27.11917 17.00357 0.00826
C 28.30062 17.70952 0.00487
C 28.33486 19.10835 -0.00942
C 27.16752 19.83047 -0.02815
C 24.60287 12.73543 -0.00285
C 24.631 11.38021 -0.009
C 25.75579 10.69216 -0.01199
C 25.77746 9.17946 -0.00229
C 24.54008 8.48131 -0.00938
C 24.53236 7.06898 -0.0264
C 25.72357 6.36712 -0.01154
C 25.7223 4.92418 0.00684
C 24.44752 4.25814 -0.01052
C 3.62339 31.99396 0.01996
C 24.39484 2.77725 -0.01679
C 25.62088 0.49332 0.04306
C 24.30386 33.74105 0.00996
C 27.80253 27.55494 0.00195
C 28.19476 26.22237 -0.00802
C 27.02831 25.45841 -0.00218
C 27.08277 24.09304 -0.01654
C 28.29231 23.40599 -0.00037
C 28.28013 21.94509 -0.0032
C 27.0947 21.2303 0.00622
C 25.65661 1.99419 0.00367
C 2.41351 32.68176 -0.00279
