370
Graphene
C 34.40547 34.06541 0.01295
C 17.19931 32.73412 0.05265
C 18.5332 31.99105 -0.01952
C 18.46819 30.59209 -0.02813
C 17.19517 29.87063 0.00374
C 17.41238 28.51509 0.00052
C 18.34052 27.58589 -0.03682
C 18.38351 26.24367 0.01965
C 18.44567 23.16203 0.02058
C 18.40157 21.96334 -0.01957
C 18.54476 19.17229 -0.0108
C 18.37761 17.79833 -0.00368
C 17.40385 16.96585 -0.02696
C 17.2737 15.64641 -0.00114
C 18.43569 14.90449 0.00228
C 18.42468 13.45558 0.00798
C 17.22067 12.72653 0.00422
C 17.20556 11.33816 0.0351
C 18.46255 10.52397 -0.03113
C 18.46381 9.16056 0.02098
C 14.73326 34.05952 -0.01717
C 17.26587 8.52858 0.01848
C 15.95416 0.68531 0.00244
C 14.75978 2.82795 0.03542
C 13.55639 2.17744 -0.00891
C 13.53181 0.79991 0.02819
C 12.37979 0.0461 0.00165
C 14.69577 32.56019 -0.02971
C 15.9932 31.9494 0.02894
C 15.96961 30.45436 -0.01789
C 14.76639 29.92275 0.00444
C 14.62181 15.52903 -0.00925
C 15.95931 15.02747 0.01877
C 15.93213 13.57704 0.01363
C 14.70141 12.82688 -0.02162
C 14.76238 11.3732 0.00415
C 15.9597 10.62576 -0.0014
C 16.01801 9.21446 0.02162
C 14.81057 8.46332 0.0076
C 14.7252 7.04546 0.01241
C 15.95178 6.36051 -0.01454
C 15.95678 4.95212 0.01945
C 14.74649 4.26259 0.01416
C 15.94245 2.10493 0.02299
C 12.1892 2.85117 -0.01046
C 17.13879 7.14057 -0.00619
C 18.45271 4.99235 0.00889
C 20.86025 13.4814 0.01452
C 19.61415 12.79262 0.04892
C 19.58961 11.30773 -0.00111
C 20.88787 10.67277 -0.03557
C 20.88724 9.17581 0.03754
C 19.72237 8.48674 0.01739
C 19.68832 7.07135 0.00755
C 20.92146 6.38425 -0.0054
C 20.93631 5.01168 0.00667
C 19.68216 4.28497 0.00143
C 19.70991 2.88573 -0.017
C 20.87061 2.05573 0.00364
C 20.9232 0.67048 -0.00831
C 19.72568 0.01276 -0.02957
C 22.12746 32.59438 -0.04422
C 23.32469 31.91445 0.00654
C 23.33359 30.56848 -0.00703
C 22.10582 29.84371 -0.04076
C 22.10969 28.39524 -0.00652
C 20.84434 14.97025 -0.01581
C 18.40693 6.40072 -0.02162
C 19.65418 15.60879 0.02691
C 20.88577 17.70663 0.02188
C 17.27318 4.21791 -0.00481
C 17.25443 2.83105 0.00979
C 18.49717 2.11172 0.01443
C 18.52634 0.70161 0.03505
C 17.27435 0.00018 -0.02815
C 19.69052 32.63878 -0.04147
C 20.89216 31.85032 -0.05302
C 20.89706 30.50073 0.00213
C 19.6651 29.82283 -0.00066
C 19.7074 28.39027 -0.00289
C 20.85833 27.68587 0.00028
C 20.88662 26.2888 -0.02213
C 19.56854 25.56868 0.03698
C 19.5086 24.14525 -0.00109
C 20.83363 23.44595 -0.00491
C 20.87743 21.99001 0.03338
C 19.5746 21.22533 -0.0258
C 19.63872 19.86761 -0.0331
C 20.93621 19.13559 -0.00316
C 19.65475 17.10024 -0.01979
C 12.28669 4.25282 -0.02689
C 13.4323 4.97909 -0.01536
C 13.46518 6.37343 0.03101
C 2.45113 34.05692 -0.00966
C 4.87912 32.69502 -0.03337
C 6.16017 31.92435 0.01227
C 6.05962 30.46112 0.00873
C 4.97953 29.90816 -0.00049
C 5.01137 15.62138 0.00848
C 6.11877 14.997 -0.01303
C 6.17417 13.50749 -0.01378
C 4.92856 12.8213 0.02635
C 4.8586 11.42358 0.0127
C 6.10226 10.75164 0.01396
C 6.07287 9.31185 0.01849
C 4.82567 8.53532 -0.01142
C 4.90231 7.14799 -0.00562
C 6.16425 6.4769 -0.00494
C 6.12689 5.05143 0.00054
C 4.93516 4.3365 0.03007
C 4.87897 2.9024 -0.00095
C 6.11869 2.20387 0.01572
C 3.6441 0.76349 -0.02929
C 6.13662 0.81633 -0.04848
C 3.6837 2.12676 0.03368
C 2.4906 4.28696 0.01305
C 3.72453 30.45888 -0.00279
C 2.48457 29.84339 0.01996
C 2.54452 28.37177 -0.03996
C 3.777 27.67435 0.01465
C 2.2877 25.44276 -0.00074
C 2.31511 20.1482 -0.00518
C 3.70624 17.70302 0.0086
C 2.54231 17.07045 -0.00643
C 2.52364 15.56491 0.017
C 3.68054 14.91454 -0.03113
C 3.7015 13.49467 -0.02566
C 2.41371 12.7619 -0.00094
C 2.37857 11.41105 0.02322
C 3.57097 10.7468 -0.00725
C 3.6523 9.32278 -0.05697
C 2.44158 8.56724 0.01087
C 2.49929 7.10878 -0.01343
C 3.73576 6.39243 0.00988
C 3.70272 4.92713 0.0276
C 2.46586 2.83153 -0.00077
C 4.87839 0.04944 -0.00892
C 7.36959 32.7132 -0.01362
C 8.48714 31.91557 -0.0008
C 9.87527 7.12332 0.02339
C 11.06436 6.38716 0.01641
C 11.05057 5.01046 -0.00719
C 9.81323 4.34682 0.01364
C 9.82638 2.87891 -0.01062
C 11.08308 2.18114 -0.00033
C 11.12315 0.75323 0.03589
C 9.87189 0.04341 -0.02759
C 12.25487 32.63107 0.0402
C 13.44392 31.84827 0.00572
C 13.58074 30.4075 0.03592
C 13.58269 14.93335 0.00406
C 13.46092 13.56606 0.00943
C 12.25445 12.77136 0.02841
C 12.30843 11.34992 -0.01111
C 13.55524 10.56921 -0.01275
C 13.59707 9.2128 0.00985
C 12.34593 8.54053 -0.02245
C 12.29615 7.13958 -0.00428
C 9.81791 8.52403 -0.00334
C 11.08977 9.27373 -0.01634
C 11.06546 10.68441 0.00057
C 9.84537 11.41649 0.00093
C 8.57668 14.95946 0.0288
C 8.60286 13.58028 0.00393
C 7.36539 12.81351 0.00895
C 7.36882 11.37527 0.00685
C 8.63687 10.76023 0.02888
C 8.63048 9.3312 -0.00482
C 7.40872 8.65413 -0.01384
C 7.3766 7.24455 0.03693
C 8.58003 6.50925 0.01745
C 23.35059 27.72511 0.0058
C 8.59137 5.06072 0.00488
C 7.38864 2.86759 -0.02896
C 8.62414 2.19249 -0.00131
C 8.61298 0.76824 -0.01118
C 7.36906 0.08275 -0.014
C 9.76112 32.53302 0.02147
C 11.07365 32.04579 0.00373
C 10.93968 14.92192 -0.00191
C 11.02152 13.61598 0.00438
C 9.86289 12.842 0.01291
C 7.42062 4.29578 -0.01004
C 23.33634 26.31922 -0.00865
C 22.06987 25.52109 0.00675
C 22.14553 24.10034 -0.00311
C 30.73393 2.08268 0.00716
C 30.76414 0.71602 0.00307
C 29.53513 0.00535 0.00346
C 31.97093 32.66535 0.01713
C 33.14222 31.95525 -0.01694
C 33.10553 30.55475 0.01428
C 31.89761 29.83983 -0.02142
C 31.85989 28.36276 0.0544
C 33.15766 27.72217 0.00026
C 33.19337 26.27016 0.00682
C 31.9709 25.59413 -0.01779
C 31.93443 24.13431 0.03794
C 33.17882 23.43996 0.01927
C 33.20795 22.04883 0.01574
C 31.97873 21.32285 -0.02383
C 31.9898 19.93316 -0.01429
C 33.20344 19.18677 -0.0136
C 33.18021 17.75472 0.00594
C 31.96157 16.99533 -0.02474
C 29.51915 2.85263 0.02108
C 31.92058 15.64684 0.00369
C 29.57103 4.29989 0.0103
C 30.77288 6.36635 0.01908
C 30.74783 26.27361 0.00261
C 29.49031 25.57601 0.03265
C 29.49371 24.18887 -0.02049
C 30.71357 23.4633 -0.01854
C 30.80828 22.02229 -0.01415
C 29.56519 21.23563 -0.03039
C 29.57261 19.88109 0.01836
C 30.77992 19.17673 0.03531
C 30.67195 17.75069 -0.00669
C 29.47797 17.03418 0.0101
C 29.55167 15.67666 0.01705
C 30.75852 14.8166 -0.0405
C 30.74957 13.41396 -0.01303
C 29.54169 12.78388 -0.01461
C 29.45419 11.35522 -0.02155
C 30.62628 10.68212 -0.00944
C 30.67505 9.18335 -0.03735
C 29.48522 8.47698 -0.00971
C 29.49692 7.11185 0.01518
C 30.78973 4.98256 0.07705
C 33.20298 14.89499 0.00455
C 33.18316 13.4828 -0.00644
C 32.04084 12.729 -0.01839
C 0.01665 19.85251 0.01951
C 1.31908 19.2056 -0.01678
C 1.27837 17.75103 0.01223
C 34.40338 17.09344 0.00648
C 34.42944 15.63664 0.02114
C 1.25756 14.9679 -0.02957
C 1.2827 13.50774 0.00343
C 0.08244 12.87297 -0.02656
C 34.35506 11.36511 -0.02442
C 1.13831 10.60976 -0.00027
C 1.15556 9.26225 -0.00583
C 34.42237 8.5535 -0.02302
C 0.06344 7.10955 -0.02849
C 1.30337 6.40618 0.02931
C 1.28394 4.98097 0.00628
C 34.40646 4.30188 -0.0345
C 34.43277 2.87653 -0.00931
C 1.21732 2.12167 -0.00939
C 1.26223 0.73211 -0.00468
C 0.05501 21.29709 -0.02213
C 1.203 22.09621 0.02712
C 1.30335 23.39374 0.00723
C 0.04534 24.15317 0.03076
C 31.92226 11.27962 0.00137
C 33.1633 10.65772 0.00199
C 33.18013 9.20255 0.04381
C 31.8871 8.59932 0.02806
C 31.98828 7.09104 0.01504
C 33.24744 6.45063 -0.00069
C 33.19154 5.03811 0.04926
C 31.99799 4.24247 -0.03838
C 31.97893 2.79993 0.00349
C 30.68113 27.71381 0.02326
C 33.20739 2.14257 -0.00323
C 31.96019 0.05101 0.0001
C 34.33543 32.67773 -0.02927
C 1.20673 31.99075 -0.01404
C 1.2118 30.60391 0.01027
C 34.38522 29.91759 0.01831
C 34.40116 28.44926 -0.01037
C 1.22465 27.78406 -0.00439
C 1.19295 26.25723 -0.00598
C 34.3779 25.52883 -0.05239
C 33.21253 0.75999 -0.00841
C 3.69861 31.97572 0.01226
C 29.44245 28.4197 0.00924
C 30.71208 30.48372 0.01324
C 24.52866 32.56163 0.02239
C 25.75671 31.95664 0.01153
C 25.75946 30.52404 0.02734
C 24.57927 29.78759 -0.0055
C 24.56515 28.34471 0.01515
C 25.80443 27.64237 -0.00225
C 25.8218 26.17811 0.00071
C 24.51281 25.53967 -0.01107
C 24.55489 24.09292 -0.01586
C 25.82005 23.40338 -0.01971
C 25.90998 21.94194 -0.02118
C 24.62263 21.23948 0.00733
C 24.55033 19.82645 -0.00178
C 25.82885 19.13983 0.00768
C 25.76892 17.69526 -0.0276
C 24.5171 16.98055 0.03005
C 24.59862 15.5671 -0.04078
C 25.87429 14.90307 0.02117
C 25.84086 13.4861 0.02737
C 22.07368 34.06037 -0.03213
C 24.63827 12.68529 -0.00498
C 23.32198 0.75224 -0.02845
C 22.11325 2.82398 0.0296
C 23.36994 23.39116 0.00742
C 23.36532 21.9423 -0.01594
C 22.06294 21.30685 0.0106
C 22.06682 19.85525 -0.01154
C 23.34544 19.07632 -0.01721
C 23.3425 17.68836 -0.02422
C 22.06294 16.9696 0.01277
C 22.13248 15.56625 0.00096
C 23.35054 14.82692 -0.01527
C 23.36618 13.44511 0.01087
C 22.11375 12.79254 0.00199
C 22.16802 11.34433 0.01511
C 23.36472 10.62617 -0.00478
C 23.3312 9.18923 -0.01662
C 22.11492 8.44587 -0.01185
C 22.15568 7.08353 0.01126
C 23.41622 6.32912 0.01852
C 23.30557 4.93266 -0.00381
C 22.07866 4.21812 0.03046
C 23.27062 2.14147 0.03374
C 24.62456 11.31888 0.00135
C 25.82669 10.64726 0.03102
C 25.7726 9.27682 0.02555
C 26.9838 16.99861 0.00826
C 27.06958 15.60072 -0.00294
C 28.30719 14.94239 0.00152
C 28.3006 13.50189 0.01257
C 27.11779 12.79683 0.02316
C 27.07031 11.39447 0.04185
C 28.29053 10.622 0.00194
C 28.25755 9.22443 -0.00621
C 27.00121 8.5385 0.02611
C 27.05201 7.15364 0.02198
C 28.23024 6.41756 0.01094
C 28.26728 4.97661 0.00235
C 26.99251 4.31371 0.01495
C 27.01872 2.85049 0.01259
C 28.32616 2.14827 0.01799
C 28.3206 0.76842 0.01699
C 27.03726 0.00708 -0.00416
C 29.64171 32.6726 0.01177
C 30.76272 31.93423 0.04266
C 28.26882 17.76968 0.00487
C 28.27665 19.1315 -0.00942
C 27.12253 19.93484 -0.02815
C 27.09623 21.275 0.00622
C 24.53385 8.46885 0.01423
C 24.63617 7.1059 -0.00285
C 25.8183 6.38922 -0.009
C 25.71649 4.96902 -0.01199
C 24.50968 4.18213 -0.00229
C 24.52903 2.80498 -0.00938
C 25.8206 2.11878 -0.0264
C 25.72997 0.722 -0.01154
C 24.54562 0.05529 0.00684
C 29.45176 29.82272 0.0014
C 27.09278 32.70644 -0.01052
C 28.26819 30.5724 0.00367
C 27.001 29.79742 0.04306
C 27.05036 28.40835 0.00996
C 28.24069 27.67665 0.00195
C 28.2361 26.20953 -0.00802
C 26.99966 25.48508 -0.00218
C 27.0502 24.02969 -0.01654
C 28.31194 23.42509 -0.00037
C 28.41155 21.99889 -0.0032
C 28.27735 31.98821 -0.01679
C 2.46105 32.64796 0.03828
