355
Graphene
C 0.05413 0.04359 0.01295
C 13.61832 14.89277 -0.00368
C 13.28007 13.62129 -0.02696
C 12.26777 12.8005 -0.00114
C 12.38751 11.36755 0.00228
C 13.62221 10.72177 0.00798
C 13.56861 9.2802 0.00422
C 12.2784 8.51736 0.0351
C 12.2955 7.08208 -0.03113
C 12.37613 15.52944 -0.0108
C 13.52857 6.3557 0.02098
C 12.34441 4.26118 -0.00619
C 12.35322 2.82444 -0.02162
C 13.58516 2.07475 0.00889
C 13.62265 0.69012 -0.00481
C 12.38776 0.02462 0.00979
C 14.82581 32.61474 0.01443
C 15.98474 31.86867 0.03505
C 15.92349 30.42499 -0.02815
C 13.59613 4.96324 0.01848
C 14.63203 29.67451 -0.04147
C 12.29374 17.01002 -0.01957
C 13.92114 18.96449 0.01965
C 11.04307 13.52188 0.00415
C 9.80865 12.83282 -0.0014
C 9.83369 11.40252 0.02162
C 11.10977 10.71244 0.0076
C 11.06102 9.25767 0.01241
C 9.8084 8.5688 -0.01454
C 9.82914 7.11277 0.01945
C 11.02743 6.4105 0.01416
C 13.35085 17.82823 0.02058
C 11.1344 4.97354 0.03542
C 9.87153 2.88409 0.00244
C 11.09329 2.13403 -0.01717
C 11.03544 0.74938 0.05265
C 9.90979 33.9846 -0.01952
C 12.362 32.6858 -0.02813
C 13.54629 31.94977 0.00374
C 13.47983 30.50879 0.00052
C 12.19684 29.94352 -0.03682
C 9.84378 4.32015 0.02299
C 14.64823 28.32956 -0.05302
C 15.82506 27.61177 0.00213
C 16.19856 26.31381 -0.00066
C 18.43936 23.5095 0.00143
C 18.39261 22.03114 -0.017
C 17.07243 21.70448 0.00364
C 17.18299 8.45566 -0.00831
C 17.25789 7.10716 -0.02957
C 18.51042 6.40052 -0.04422
C 18.5033 4.85777 0.00654
C 17.25497 4.2661 -0.00703
C 17.19502 24.0984 0.00667
C 17.1038 2.87746 -0.04076
C 19.65646 32.65315 0.0058
C 20.94212 31.95886 -0.00865
C 20.86762 30.55947 0.00675
C 19.66497 29.79119 -0.00311
C 19.66845 28.37538 0.00742
C 20.82543 27.64621 -0.01594
C 20.87653 26.19924 0.0106
C 19.63856 25.53289 -0.01154
C 17.28935 33.97456 -0.00652
C 17.23038 25.54394 -0.0054
C 18.45962 26.29285 0.00755
C 18.38191 27.73131 0.01739
C 15.97677 23.50197 -0.00289
C 15.7587 22.16163 0.00028
C 14.8608 21.1859 -0.02213
C 14.34842 20.11425 0.03698
C 16.0022 9.0377 -0.00109
C 14.75971 8.60443 -0.00491
C 14.75186 7.11814 0.03338
C 15.97767 6.4155 -0.0258
C 16.02684 4.99168 -0.0331
C 14.91043 4.17719 -0.00316
C 14.80407 2.81629 0.02188
C 16.02792 2.12734 -0.01979
C 16.14987 0.65043 0.02691
C 14.85128 34.03145 -0.01581
C 17.1944 32.60738 0.01452
C 18.40695 31.91576 0.04892
C 18.37005 30.52071 -0.00111
C 17.13583 29.80643 -0.03557
C 17.11786 28.37574 0.03754
C 11.02508 14.94305 -0.02162
C 19.70693 24.13203 -0.01721
C 9.80187 15.66605 0.01363
C 11.05877 17.57921 -0.00925
C 2.44839 7.09955 -0.00494
C 3.68019 6.38202 0.00054
C 3.71913 4.97425 0.03007
C 2.44279 4.2775 -0.00095
C 2.48395 2.85715 0.01572
C 3.75165 2.1685 -0.04848
C 3.63017 0.78861 -0.00892
C 2.47407 0.01192 -0.01362
C 2.39517 8.53366 -0.00562
C 4.93841 32.75261 -0.0008
C 6.12736 30.51784 0.00393
C 4.87757 29.83596 0.00895
C 4.88782 28.39259 0.00685
C 6.1522 27.80792 0.02888
C 4.94265 25.58476 -0.00482
C 5.0969 19.92673 -0.01384
C 6.08804 19.2341 0.03693
C 6.14423 17.8101 0.01745
C 6.13607 32.01858 0.0288
C 4.91608 17.08298 0.00488
C 3.5706 9.237 -0.01142
C 2.42306 11.4556 0.01396
C 3.63713 30.5702 0.01087
C 2.41234 29.86032 -0.01343
C 2.47686 28.41199 0.00988
C 3.69973 27.71848 0.0276
C 3.77575 26.2362 0.01305
C 2.49839 25.54564 -0.00077
C 2.57276 24.16408 0.03368
C 3.77783 23.46036 -0.02929
C 3.61971 10.7027 0.01849
C 3.56983 22.15266 -0.00966
C 2.45671 19.92508 0.01227
C 3.69733 19.22785 0.00873
C 3.69534 17.78722 -0.00049
C 2.44431 17.00651 0.00848
C 2.45629 15.56263 -0.01303
C 3.67233 14.83927 -0.01378
C 3.66951 13.52344 0.02635
C 2.41102 12.77725 0.0127
C 2.48031 21.35613 -0.03337
C 4.9698 15.64852 -0.01004
C 6.13626 14.90676 -0.02896
C 6.12532 13.50124 -0.00131
C 8.56693 13.63076 0.00943
C 7.40111 12.82778 0.02841
C 7.41601 11.44599 -0.01111
C 8.60741 10.62336 -0.01275
C 8.57748 9.22895 0.00985
C 7.34653 8.48623 -0.02245
C 7.411 7.06721 -0.00428
C 8.63279 6.41863 0.03101
C 8.58656 14.98264 0.00406
C 8.66224 4.96528 -0.01536
C 7.40939 2.8478 -0.01046
C 8.61644 2.13561 -0.00891
C 8.71165 0.72285 0.02819
C 7.43597 0.10547 0.00165
C 9.85016 32.56422 -0.02971
C 11.0939 31.92714 0.02894
C 10.94321 30.34032 -0.01789
C 9.66908 29.76725 0.00444
C 7.39752 4.3167 -0.02689
C 7.37547 15.67572 0.03592
C 7.3443 17.07412 0.00572
C 8.5615 17.76236 0.0402
C 4.84959 12.80415 -0.01118
C 4.90682 11.37682 -0.014
C 6.14706 10.71033 0.02147
C 6.13792 9.26133 0.00373
C 4.86222 8.57618 -0.00191
C 4.88528 7.15088 0.00438
C 6.20195 6.44239 0.01291
C 6.1449 5.01615 0.00093
C 4.91001 4.31065 0.00057
C 4.92468 2.86996 -0.01634
C 6.13541 2.21642 -0.00334
C 6.19266 0.8279 0.02339
C 4.9709 0.10838 0.01641
C 7.34737 32.76645 -0.00719
C 8.5209 31.93602 0.01364
C 8.55474 30.50498 -0.01062
C 7.34824 29.76203 -0.00033
C 7.213 28.35568 0.03589
C 8.5797 19.06757 -0.02759
C 9.82765 17.03362 0.01877
C 3.67396 32.01101 -0.05697
C 20.93772 23.43929 -0.02422
C 19.63159 21.30651 0.00096
C 31.94442 32.63718 0.01713
C 33.14136 31.94761 -0.01694
C 33.18649 30.52079 0.01428
C 32.00301 29.84817 -0.02142
C 31.96955 28.45546 0.0544
C 33.20629 27.70823 0.00026
C 33.23121 26.31221 0.00682
C 31.97803 25.58074 -0.01779
C 29.53494 34.0665 0.00346
C 31.93314 24.13727 0.03794
C 33.12623 22.00154 0.01574
C 31.87978 21.29615 -0.02383
C 31.87016 19.89281 -0.01429
C 33.10437 19.19012 -0.0136
C 33.15176 17.73045 0.00594
C 31.97604 17.05544 -0.02474
C 31.98355 15.65893 0.00369
C 33.1932 14.9394 0.00455
C 33.15138 23.4394 0.01927
C 33.1464 13.47005 -0.00644
C 30.6818 0.72269 0.00307
C 29.51968 2.83513 0.02108
C 30.67183 22.01034 -0.01415
C 29.4378 21.27856 -0.03039
C 29.41557 19.93776 0.01836
C 30.67355 19.18744 0.03531
C 30.68859 17.80298 -0.00669
C 29.52522 17.01436 0.0101
C 29.50663 15.59228 0.01705
C 30.76832 14.896 -0.0405
C 30.71233 2.13051 0.00716
C 30.70685 13.48464 -0.01303
C 29.50996 11.33531 -0.02155
C 30.73396 10.69234 -0.00944
C 30.7598 9.20664 -0.03735
C 29.53735 8.45968 -0.00971
C 29.57904 7.03472 0.01518
C 30.79298 6.34225 0.01908
C 30.78903 4.93107 0.07705
C 29.60335 4.28233 0.0103
C 29.48268 12.74483 -0.01461
C 31.98444 12.73068 -0.01839
C 31.9673 11.36311 0.00137
C 33.27312 10.59185 0.00199
C 1.21483 19.12364 -0.01678
C 1.22783 17.73229 0.01223
C 34.38467 17.06686 0.00648
C 0.00347 15.60981 0.02114
C 1.20824 14.906 -0.02957
C 1.18484 13.48641 0.00343
C 34.42406 12.80694 -0.02656
C 0.01257 11.35059 -0.02442
C 34.36707 19.84737 0.01951
C 1.26642 10.65979 -0.00027
C 0.01355 8.4904 -0.02302
C 0.01582 7.07675 -0.02849
C 1.20665 6.36937 0.02931
C 1.24455 4.95192 0.00628
C 34.41696 4.3606 -0.0345
C 34.39996 2.88691 -0.00931
C 1.22348 2.20783 -0.00939
C 1.2309 0.78171 -0.00468
C 1.21651 9.26211 -0.00583
C 34.38316 21.27678 -0.02213
C 1.21247 22.06557 0.02712
C 1.28363 23.46547 0.00723
C 33.22801 9.14023 0.04381
C 31.94088 8.55552 0.02806
C 31.97925 7.084 0.01504
C 33.17733 6.43367 -0.00069
C 33.16762 4.98827 0.04926
C 31.97607 4.23188 -0.03838
C 31.96322 2.75529 0.00349
C 33.22933 2.14442 -0.00323
C 33.2262 0.74319 -0.00841
C 31.9702 0.00638 0.0001
C 34.39291 32.67386 -0.02927
C 1.12774 31.92201 -0.01404
C 1.17199 30.51783 0.01027
C 34.42616 29.86114 0.01831
C 0.0227 28.39036 -0.01037
C 1.21329 27.75618 -0.00439
C 1.21879 26.27509 -0.00598
C 34.42681 25.50486 -0.05239
C 0.03418 24.13346 0.03076
C 30.76048 23.3986 -0.01854
C 20.78625 21.94936 0.01277
C 29.44774 24.15281 -0.02049
C 30.73384 26.26665 0.00261
C 22.10982 4.29885 -0.01107
C 22.03912 2.89481 -0.01586
C 23.32129 2.19268 -0.01971
C 23.2972 0.81776 -0.02118
C 22.09555 0.0237 0.00733
C 24.58449 32.78281 -0.00178
C 25.83372 31.96015 0.00768
C 25.85878 30.49034 -0.0276
C 23.33128 4.89536 0.00071
C 24.5814 29.79935 0.03005
C 25.74273 27.73762 0.02117
C 25.83813 26.29083 0.02737
C 24.5935 25.52063 -0.00498
C 24.50056 24.08192 0.00135
C 25.77936 23.48468 0.03102
C 25.74389 22.08451 0.02555
C 24.60482 21.2399 0.01423
C 25.62929 19.11734 -0.00285
C 24.52302 28.40973 -0.04078
C 25.7736 9.16238 -0.009
C 23.4 6.3385 -0.00225
C 22.02649 21.37247 -0.0055
C 19.70683 6.9306 -0.01527
C 20.95263 6.53534 0.01087
C 20.83103 4.94274 0.00199
C 19.72779 4.27694 0.01511
C 20.97292 2.11486 -0.00478
C 20.69259 0.72265 -0.01662
C 19.4918 33.97951 -0.01185
C 22.14002 32.72966 0.01126
C 22.21912 6.99148 0.01515
C 23.41372 31.9871 0.01852
C 22.09702 29.77063 0.03046
C 22.09071 28.33126 0.0296
C 23.3102 27.67877 0.03374
C 23.38871 26.2088 -0.02845
C 22.10632 25.55497 -0.03213
C 22.09581 24.09672 0.02239
C 23.31169 23.36075 0.01153
C 23.35326 21.84161 0.02734
C 23.31086 30.54254 -0.00381
C 24.7679 8.48337 -0.01199
C 24.65132 7.01594 -0.00229
C 25.85005 6.35921 -0.00938
C 27.12046 11.34854 0.04185
C 28.25304 10.60788 0.00194
C 28.29362 9.13564 -0.00621
C 27.03466 8.51109 0.02611
C 27.10634 7.06663 0.02198
C 28.31001 6.34303 0.01094
C 28.26494 4.91374 0.00235
C 27.07465 4.21827 0.01495
C 28.31829 13.55046 0.02316
C 27.07854 2.75336 0.01259
C 28.32147 0.67659 0.01699
C 27.05983 34.04774 -0.00416
C 29.53888 32.67857 0.01177
C 30.68231 31.98443 0.04266
C 30.77284 30.60648 0.01324
C 29.60256 29.87197 0.0014
C 29.55295 28.471 0.00924
C 30.73684 27.71237 0.02326
C 28.33543 2.12379 0.01799
C 28.31722 14.74475 0.01257
C 28.39645 17.85127 0.00152
C 28.16679 19.1533 -0.00294
C 25.84717 4.92415 -0.0264
C 24.53285 4.26453 -0.01154
C 24.60545 2.88715 0.00684
C 25.83115 2.19085 -0.01052
C 25.81477 0.7371 -0.01679
C 24.58354 0.08297 0.00367
C 27.04705 32.64521 0.04306
C 28.28864 31.92577 0.00996
C 28.37637 30.54807 0.00195
C 27.11045 29.80317 -0.00802
C 27.04688 28.38407 -0.00218
C 28.30793 27.72973 -0.01654
C 28.40269 26.35965 -0.00037
C 27.03524 25.58898 -0.0032
C 27.04469 24.17444 0.00622
C 28.22487 23.40351 -0.02815
C 28.18563 21.96312 -0.00942
C 26.97346 21.32141 0.00487
C 26.79598 19.85713 0.00826
C 29.53895 25.51844 0.03265
C 2.35181 32.69094 -0.00725
