284
Graphene
C 34.34383 0.07738 0.01295
C 9.87172 25.48503 0.0106
C 11.04978 26.18128 -0.01594
C 11.26612 27.56697 0.00742
C 9.91583 28.35206 -0.00311
C 9.9289 29.78563 0.00675
C 11.23141 30.53683 -0.00865
C 11.11951 31.99815 0.0058
C 9.88168 32.68675 -0.00652
C 7.32898 0.06956 -0.04076
C 8.62215 0.77663 -0.00703
C 8.5931 2.16508 0.00654
C 7.3627 2.89051 -0.04422
C 7.36244 4.33899 -0.02957
C 8.7093 5.11149 -0.00831
C 8.6132 6.45478 0.00364
C 7.30887 7.14895 -0.017
C 7.30432 8.64195 0.00143
C 8.58347 23.49999 -0.00316
C 8.49655 22.07957 0.02188
C 7.39516 21.30382 -0.01979
C 7.41805 19.78499 0.02691
C 8.69286 19.1965 -0.01581
C 8.7816 17.71123 0.01452
C 9.8904 23.96182 -0.01154
C 7.4305 17.14063 0.04892
C 8.53479 14.96969 -0.03557
C 8.47973 13.45306 0.03754
C 7.23877 12.77278 0.01739
C 7.30531 11.39703 0.00755
C 8.47382 10.72998 -0.0054
C 8.4453 9.4183 0.00667
C 7.29814 15.67222 -0.00111
C 9.78593 21.40425 -0.01721
C 10.01387 20.01773 -0.02422
C 11.17192 19.23356 0.01277
C 13.65922 15.76522 0.02734
C 12.35128 2.77317 -0.0055
C 13.59134 2.02257 0.01515
C 13.51526 0.68403 -0.00225
C 12.30804 33.9833 0.00071
C 14.71575 32.75772 -0.01107
C 12.26817 15.39079 0.01153
C 15.86388 31.78296 -0.01586
C 16.00206 2.1132 -0.02118
C 15.96385 0.7373 0.00733
C 14.73363 0.03188 -0.00178
C 17.07156 32.49939 0.00768
C 18.33742 32.0189 -0.0276
C 17.15828 2.73714 0.03005
C 15.11839 30.50268 -0.01971
C 7.28056 24.14981 -0.0331
C 12.66053 16.72266 0.02239
C 12.58041 29.79817 -0.02845
C 11.32374 17.70977 0.00096
C 9.9369 17.01126 -0.01527
C 9.80711 15.54251 0.01087
C 11.00305 14.72959 0.00199
C 10.88664 13.35687 0.01511
C 9.64536 12.77435 -0.00478
C 12.41026 28.50878 -0.03213
C 9.85868 4.3074 -0.01662
C 11.0813 2.12161 0.01126
C 11.07741 0.73357 0.01852
C 9.85897 0.02696 -0.00381
C 12.32318 32.57632 0.03046
C 13.56323 32.01046 0.0296
C 13.88204 30.5587 0.03374
C 9.90066 2.88357 -0.01185
C 18.38619 2.11785 -0.04078
C 7.23912 25.57135 -0.0258
C 8.65443 27.65178 -0.00491
C 4.92027 32.68529 0.05265
C 2.38095 0.00918 -0.01717
C 3.65323 0.68632 0.00244
C 3.6537 2.15696 0.02299
C 2.47756 2.93687 0.03542
C 2.46326 4.40024 0.01416
C 3.75369 4.99488 0.01945
C 3.79785 6.39768 -0.01454
C 2.43189 7.12794 0.01241
C 2.4283 8.60773 0.0076
C 3.69591 9.27141 0.02162
C 3.70213 10.69841 -0.0014
C 2.44522 11.40354 0.00415
C 2.4363 12.79852 -0.02162
C 3.58602 13.48715 0.01363
C 3.52094 14.93083 0.01877
C 2.31122 15.68937 -0.00925
C 3.61844 30.59716 0.00985
C 2.45352 29.9089 -0.02245
C 2.366 28.50035 -0.00428
C 3.63877 27.7555 0.03101
C 3.69097 26.35596 -0.01536
C 2.43248 25.60981 -0.02689
C 6.16652 31.92024 -0.01952
C 2.48729 24.22715 -0.01046
C 3.57383 22.04848 0.02819
C 2.34197 21.36708 0.00165
C 2.38134 19.94455 -0.02971
C 3.56914 19.19596 0.02894
C 3.62858 17.74052 -0.01789
C 2.30782 17.09779 0.00444
C 3.69754 23.44333 -0.00891
C 6.10238 30.55366 -0.02813
C 4.88191 29.80205 0.00374
C 4.8684 28.37433 0.00052
C 4.88369 8.51593 -0.00481
C 4.92256 7.16533 0.00979
C 6.10579 6.44969 0.01443
C 6.17394 4.98442 0.03505
C 4.93649 4.27276 -0.02815
C 4.9126 2.90712 -0.04147
C 6.08022 9.31495 0.00889
C 6.13833 2.17611 -0.05302
C 4.85294 0.06723 -0.00066
C 7.34311 32.6139 -0.00289
C 8.65882 31.97622 0.00028
C 8.63654 30.5945 -0.02213
C 7.42271 29.88946 0.03698
C 7.4898 28.38234 -0.00109
C 6.13083 0.70912 0.00213
C 8.52844 26.16532 0.03338
C 6.01279 10.75173 -0.02162
C 4.81784 12.8483 0.01848
C 6.13692 27.6799 -0.03682
C 6.07203 26.31825 0.01965
C 4.90237 25.61525 0.02058
C 4.89322 24.18518 -0.01957
C 6.12752 23.3995 -0.0108
C 6.07198 21.95361 -0.00368
C 4.83616 11.49723 -0.00619
C 4.76347 21.22518 -0.02696
C 6.14688 19.12317 0.00228
C 6.20511 17.73545 0.00798
C 4.92753 17.05269 0.00422
C 4.83393 15.64614 0.0351
C 6.06408 14.93126 -0.03113
C 6.06386 13.54841 0.02098
C 4.89901 19.81411 -0.00114
C 18.37314 0.60442 0.02117
C 17.15953 34.06015 0.02737
C 19.5664 32.54054 -0.00498
C 33.19529 4.9604 0.04926
C 33.20799 6.37898 -0.00069
C 31.89509 7.103 0.01504
C 31.91939 8.47334 0.02806
C 33.17209 9.18912 0.04381
C 33.23802 10.73391 0.00199
C 31.94357 11.36005 0.00137
C 31.9817 12.7192 -0.01839
C 33.1791 13.55534 -0.00644
C 33.0437 14.96933 0.00455
C 31.63376 15.70424 0.00369
C 31.80159 17.07424 -0.02474
C 33.01637 17.91326 0.00594
C 33.11939 19.35866 -0.0136
C 33.5473 22.66877 -0.01429
C 33.21892 26.37279 -0.02383
C 33.02957 27.68369 0.01574
C 29.47504 8.49711 0.02108
C 29.47039 7.02813 0.00716
C 30.74325 6.34172 0.00307
C 30.6823 4.93611 0.00346
C 29.34696 4.34467 0.01713
C 29.38094 2.90771 -0.01694
C 31.93028 4.29183 -0.03838
C 30.60822 2.20316 0.01428
C 29.43791 0.06542 0.0544
C 31.92035 32.76401 0.00026
C 33.09933 32.11362 0.00682
C 33.24429 30.67585 -0.01779
C 31.86365 29.81638 0.03794
C 31.9441 28.49277 0.01927
C 30.6195 0.80809 -0.02142
C 31.93837 2.91589 0.00349
C 33.13631 2.13283 -0.00323
C 33.09981 0.7643 -0.00841
C 1.08757 15.07046 -0.02957
C 1.20628 13.59845 0.00343
C 34.39803 12.87047 -0.02656
C 34.37673 11.46516 -0.02442
C 1.22154 10.68437 -0.00027
C 1.20388 9.32831 -0.00583
C 34.18793 15.72603 0.02114
C 34.38856 8.5827 -0.02302
C 1.14051 6.4558 0.02931
C 1.23325 5.06684 0.00628
C 34.39475 4.2787 -0.0345
C 34.38478 2.84682 -0.00931
C 1.28622 2.21706 -0.00939
C 1.18741 0.79234 -0.00468
C 34.35495 7.20374 -0.02849
C 30.69141 9.15642 0.0103
C 34.227 17.17734 0.00648
C 1.11455 19.25573 -0.01678
C 31.87865 0.13013 0.0001
C 34.36731 32.75326 -0.02927
C 1.15151 31.96037 -0.01404
C 1.16898 30.5504 0.01027
C 34.36164 29.8378 0.01831
C 34.37103 28.40605 -0.01037
C 1.00291 17.85424 0.01223
C 1.15001 27.74732 -0.00439
C 34.27723 25.43497 -0.05239
C 34.33275 23.96552 0.03076
C 1.27612 23.47918 0.00723
C 1.22471 22.1413 0.02712
C 34.29751 21.68264 -0.02213
C 34.25863 20.16544 0.01951
C 1.17821 26.28416 -0.00598
C 30.73994 10.6026 0.07705
C 29.56151 11.30827 0.01908
C 29.57794 12.64594 0.01518
C 23.39596 9.27155 -0.00802
C 22.05591 9.0244 -0.00218
C 22.03051 7.51408 -0.01654
C 23.29219 6.50264 -0.00037
C 23.19676 5.05246 -0.0032
C 22.02958 4.32537 0.00622
C 23.54401 10.65986 0.00195
C 22.01412 2.9154 -0.02815
C 23.29251 0.80844 0.00487
C 22.11891 34.04655 0.00826
C 24.53129 32.83552 -0.00294
C 25.69197 32.02433 0.00152
C 25.33348 30.56421 0.01257
C 25.86394 13.53164 0.02316
C 23.26034 2.23696 -0.00942
C 24.64944 12.90253 0.04185
C 22.16729 11.22412 0.00996
C 23.2434 13.48005 0.00367
C 20.84034 31.86887 0.00135
C 20.55067 13.02967 0.03102
C 19.1243 12.7772 0.02555
C 21.23447 10.14501 0.01423
C 21.04457 6.52183 -0.00285
C 20.77161 5.1707 -0.009
C 21.84184 12.6764 0.04306
C 19.59653 4.28769 -0.01199
C 20.79593 2.10331 -0.00938
C 20.8958 0.70077 -0.0264
C 19.68263 34.05487 -0.01154
C 22.18311 32.48129 0.00684
C 23.43595 31.86978 -0.01052
C 24.0785 30.62607 -0.01679
C 19.58738 2.87148 -0.00229
C 3.65365 31.97884 -0.01275
C 24.68703 11.40541 0.00194
C 25.79596 9.18287 0.02611
C 27.01668 7.15658 -0.01415
C 28.26447 6.44595 -0.03039
C 28.20135 5.04856 0.01836
C 26.97165 4.28922 0.03531
C 26.95558 2.91431 -0.00669
C 28.20613 2.24183 0.0101
C 27.03997 8.54371 -0.01854
C 28.22005 0.81292 0.01705
C 29.42629 32.81636 -0.01303
C 30.67437 32.08634 -0.01461
C 30.60785 30.67113 -0.02155
C 29.38895 30.09884 -0.00944
C 30.45375 14.75828 -0.03735
C 30.75579 13.40905 -0.00971
C 27.02288 0.11855 -0.0405
C 25.89905 10.66598 -0.00621
C 28.20748 9.24406 -0.02049
C 27.1265 11.38623 0.00261
C 24.60442 8.50456 0.02198
C 24.5817 7.11011 0.01094
C 25.79931 6.36497 0.00235
C 25.79994 5.00659 0.01495
C 24.45573 4.38616 0.01259
C 24.48981 2.9189 0.01799
C 28.31277 10.61945 0.03265
C 25.68557 2.2082 0.01699
C 24.55432 0.17238 0.01177
C 26.9038 32.70143 0.04266
C 28.14134 32.09035 0.01324
C 28.23534 30.73107 0.0014
C 28.44581 13.49985 0.00924
C 27.12894 13.01107 0.02326
C 25.81761 0.81796 -0.00416
C 2.38186 32.64053 -0.01111
