318
Graphene
C 34.37475 34.00136 0.01295
C 12.28094 7.01788 -0.00109
C 13.47583 6.31975 -0.00491
C 13.40167 4.94359 0.03338
C 12.18598 4.23061 -0.0258
C 12.17986 2.82673 -0.0331
C 13.46279 2.14221 -0.00316
C 13.48586 0.68047 0.02188
C 12.31671 34.07487 -0.01979
C 14.62605 32.70097 0.02691
C 15.9335 31.94624 -0.01581
C 15.93918 30.4994 0.01452
C 14.75832 29.7637 0.04892
C 14.82118 28.32798 -0.00111
C 16.1451 27.37417 -0.03557
C 15.61101 26.0442 0.03754
C 12.1957 8.59017 0.03698
C 13.39572 9.30773 -0.02213
C 13.47981 10.66203 0.00028
C 12.99148 26.28999 -0.00289
C 11.05029 9.2952 0.0351
C 9.80008 8.52329 -0.03113
C 9.80716 7.09923 0.02098
C 11.01059 6.30647 0.01848
C 10.92908 4.88164 -0.00619
C 9.67023 4.2645 -0.02162
C 9.66683 2.82737 0.00889
C 14.47727 25.7754 0.01739
C 10.92847 2.07185 -0.00481
C 9.80244 33.97196 0.01443
C 12.26762 32.62942 0.03505
C 13.47803 31.99269 -0.02815
C 13.56087 30.62392 -0.04147
C 12.31108 29.87693 -0.05302
C 12.2699 28.48495 0.00213
C 13.49734 27.78492 -0.00066
C 11.029 0.61766 0.00979
C 14.51639 11.25559 0.00755
C 15.83359 10.73319 -0.0054
C 15.89364 9.272 0.00667
C 18.42902 9.29327 0.01277
C 17.21406 8.56253 0.00096
C 17.1336 7.19157 -0.01527
C 18.41242 6.46233 0.01087
C 18.34915 5.04942 0.00199
C 17.10725 4.35007 0.01511
C 17.16163 2.93973 -0.00478
C 18.37872 10.75304 -0.02422
C 18.31549 2.12633 -0.01662
C 17.21565 34.06277 0.01126
C 19.64447 32.6694 0.01852
C 20.91257 32.01737 -0.00381
C 20.87537 30.6126 0.03046
C 19.6873 29.91023 0.0296
C 19.6574 28.57003 0.03374
C 19.75635 15.61864 -0.02845
C 18.47719 0.76055 -0.01185
C 10.9851 10.84128 0.00422
C 17.03682 11.482 -0.01721
C 18.31095 13.7731 0.0106
C 14.70424 8.56212 0.00143
C 14.70946 7.09958 -0.017
C 16.00554 6.47527 0.00364
C 15.9801 5.02953 -0.00831
C 14.73142 4.2982 -0.02957
C 14.74002 2.93082 -0.04422
C 15.9163 2.11692 0.00654
C 17.21477 12.97005 -0.01154
C 15.90924 0.6751 -0.00703
C 17.21013 32.7036 -0.00652
C 18.3678 31.9798 0.0058
C 18.3911 30.48936 -0.00865
C 17.16594 29.74529 0.00675
C 17.29271 28.21149 -0.00311
C 18.60254 27.9177 0.00742
C 18.73113 15.08248 -0.01594
C 14.73999 34.05352 -0.04076
C 11.70902 26.09704 0.00798
C 11.20659 27.63722 0.00228
C 9.9616 28.31888 -0.00114
C 3.60301 9.33183 -0.00719
C 2.34913 8.54899 0.01364
C 2.34814 7.11382 -0.01062
C 3.53726 6.35873 -0.00033
C 3.62189 4.94081 0.03589
C 2.3738 4.24124 -0.02759
C 2.29722 2.81774 0.0402
C 3.705 10.74782 0.01641
C 3.55969 2.15445 0.00572
C 2.32672 0.03898 0.00406
C 4.81779 32.71756 0.00943
C 6.05793 31.90076 0.02841
C 6.10203 30.44916 -0.01111
C 4.87247 29.85525 -0.01275
C 4.99037 28.45282 0.00985
C 6.24998 27.67165 -0.02245
C 3.57808 0.77031 0.03592
C 6.23594 26.22615 -0.00428
C 2.43944 11.42251 0.02339
C 3.82008 13.6618 -0.01634
C 3.66612 30.52396 -0.01384
C 2.46862 29.80026 0.03693
C 2.48334 28.37875 0.01745
C 3.72256 27.70563 0.00488
C 3.7872 26.28519 -0.01004
C 2.58187 25.65774 -0.02896
C 2.60883 24.17959 -0.00131
C 2.49636 12.79422 -0.00334
C 3.85121 23.38003 -0.01118
C 2.5327 21.27859 0.02147
C 2.61955 19.90025 0.00373
C 3.65792 19.0238 -0.00191
C 3.64624 17.877 0.00438
C 2.40886 17.11107 0.01291
C 2.41045 15.7568 0.00093
C 3.65452 15.04951 0.00057
C 3.72329 21.96626 -0.014
C 21.13223 14.90616 -0.03213
C 5.01164 25.57095 0.03101
C 4.91055 12.75849 -0.02689
C 7.49279 11.23656 0.03542
C 8.59014 10.5662 0.02299
C 8.5368 9.24066 0.00244
C 7.32001 8.57684 -0.01717
C 7.29566 7.09034 0.05265
C 8.57111 6.44634 -0.01952
C 8.50622 5.03813 -0.02813
C 7.54658 25.60583 0.01416
C 7.30625 4.25573 0.00374
C 8.48133 2.08726 -0.03682
C 8.57452 0.65689 0.01965
C 7.30301 34.00948 0.02058
C 9.892 32.52624 -0.01957
C 11.07755 31.89055 -0.0108
C 11.07496 30.53893 -0.00368
C 9.8352 29.72271 -0.02696
C 7.27758 2.85752 0.00052
C 5.05733 24.12409 -0.01536
C 8.56008 26.20203 0.01945
C 7.46412 28.36845 0.01241
C 4.94102 11.4123 -0.01046
C 6.18781 10.75242 -0.00891
C 6.091 9.31785 0.02819
C 4.80652 8.58208 0.00165
C 4.79617 7.08177 -0.02971
C 6.05149 6.36207 0.02894
C 6.08664 4.99543 -0.01789
C 8.78926 27.62242 -0.01454
C 4.85682 4.21007 0.00444
C 6.05605 2.10602 0.01877
C 6.10448 0.7372 0.01363
C 4.84101 0.08221 -0.02162
C 7.2858 32.58219 0.00415
C 8.68311 31.78964 -0.0014
C 8.64102 30.43368 0.02162
C 7.43412 29.7589 0.0076
C 4.87609 2.8445 -0.00925
C 20.81191 13.55543 0.02239
C 19.55075 12.94151 0.01153
C 19.59666 11.4557 0.02734
C 31.83785 25.43161 -0.01779
C 32.01275 24.06801 0.03794
C 33.31861 23.52308 0.01927
C 33.31106 22.12441 0.01574
C 32.05424 21.51626 -0.02383
C 31.87098 20.11241 -0.01429
C 33.14747 19.32387 -0.0136
C 33.1157 26.15545 0.00682
C 33.03137 17.87753 0.00594
C 31.78972 15.66792 0.00369
C 33.16153 14.99248 0.00455
C 33.1839 13.50307 -0.00644
C 31.92315 12.85302 -0.01839
C 31.98792 11.36532 0.00137
C 33.17516 10.72096 0.00199
C 33.12195 9.27994 0.04381
C 31.82336 17.19282 -0.02474
C 31.95102 8.44075 0.02806
C 33.11223 27.64016 0.00026
C 31.83794 29.78 -0.02142
C 29.50186 12.76206 -0.01461
C 29.56082 11.35315 -0.02155
C 30.76835 10.67666 -0.00944
C 30.71513 9.22116 -0.03735
C 29.44899 8.55258 -0.00971
C 29.41027 7.06744 0.01518
C 30.63615 6.40781 0.01908
C 31.83777 28.36758 0.0544
C 30.68656 4.94151 0.07705
C 29.37423 2.85205 0.02108
C 30.54751 2.12148 0.00716
C 30.618 0.69328 0.00307
C 29.43534 34.01673 0.00346
C 31.86982 32.68782 0.01713
C 33.10191 31.84859 -0.01694
C 33.1831 30.4382 0.01428
C 29.36613 4.23707 0.0103
C 30.66703 13.51888 -0.01303
C 31.89495 7.0417 0.01504
C 33.11785 5.00405 0.04926
C 34.27372 17.09237 0.00648
C 34.35752 15.70359 0.02114
C 1.20949 15.00338 -0.02957
C 1.26664 13.56051 0.00343
C 0.00735 12.87844 -0.02656
C 34.41013 11.48202 -0.02442
C 1.1795 10.73108 -0.00027
C 1.0931 17.75436 0.01223
C 1.11286 9.31659 -0.00583
C 34.36843 7.13627 -0.02849
C 1.11047 6.37741 0.02931
C 1.11539 4.96963 0.00628
C 34.30074 4.28199 -0.0345
C 34.29163 2.85843 -0.00931
C 1.09394 2.13969 -0.00939
C 1.11068 0.6832 -0.00468
C 34.38262 8.51872 -0.02302
C 33.19448 6.4416 -0.00069
C 1.28218 19.22048 -0.01678
C 0.01334 21.41909 -0.02213
C 31.84049 4.27981 -0.03838
C 31.85428 2.87722 0.00349
C 33.018 2.14536 -0.00323
C 33.07872 0.66969 -0.00841
C 31.78573 34.03607 0.0001
C 34.32512 32.58704 -0.02927
C 1.09328 31.91429 -0.01404
C 34.42512 19.98765 0.01951
C 1.18792 30.48568 0.01027
C 34.38363 28.34666 -0.01037
C 1.24183 27.65299 -0.00439
C 1.23378 26.25136 -0.00598
C 0.00536 25.56729 -0.05239
C 0.17305 24.1342 0.03076
C 1.345 23.50601 0.00723
C 1.27099 22.10293 0.02712
C 34.39048 29.69377 0.01831
C 3.58805 31.96485 -0.00482
C 30.59103 14.93553 -0.0405
C 29.45614 17.11706 0.0101
C 22.10448 8.61165 0.01423
C 22.1058 7.16495 -0.00285
C 23.31544 6.44208 -0.009
C 23.21978 4.98261 -0.01199
C 22.03087 4.24255 -0.00229
C 22.00826 2.8818 -0.00938
C 23.28087 2.12701 -0.0264
C 23.31201 9.29911 0.02555
C 23.39475 0.72135 -0.01154
C 24.61371 32.39124 -0.01052
C 25.7879 31.69799 -0.01679
C 25.89308 30.20063 0.00367
C 24.62789 29.73243 0.04306
C 25.81802 13.63146 0.00996
C 24.609 13.06112 0.00195
C 24.58419 11.47027 -0.00802
C 22.10249 0.0355 0.00684
C 25.78956 10.74625 -0.00218
C 23.32211 10.76198 0.03102
C 22.07139 12.80223 -0.00498
C 20.86211 10.7679 -0.0055
C 20.81712 9.32584 0.01515
C 19.59489 8.62813 -0.00225
C 19.64477 7.18926 0.00071
C 20.9258 6.42398 -0.01107
C 20.83002 4.98044 -0.01586
C 19.55196 4.30926 -0.01971
C 22.06189 11.43431 0.00135
C 19.5556 2.89692 -0.02118
C 20.89865 0.77897 -0.00178
C 19.70182 0.09347 0.00768
C 22.11859 32.68359 -0.0276
C 23.32509 31.81133 0.03005
C 23.25242 30.24243 -0.04078
C 21.97648 29.81971 0.02117
C 23.24906 13.55424 0.02737
C 20.83081 2.13325 0.00733
C 29.14564 15.69608 0.01705
C 25.717 9.32789 -0.01654
C 24.56842 7.1646 -0.0032
C 28.20639 6.37241 -0.00416
C 28.13726 4.97454 0.01177
C 26.91455 4.23071 0.04266
C 26.91619 2.81936 0.01324
C 28.13771 2.09547 0.0014
C 28.15994 0.60576 0.00924
C 26.90382 34.03298 0.02326
C 27.01961 7.15778 0.01699
C 29.43649 32.61445 0.00261
C 30.65731 30.50173 -0.02049
C 29.49272 29.82547 -0.01854
C 29.27244 28.40052 -0.01415
C 30.53499 27.5858 -0.03039
C 30.83401 26.24196 0.01836
C 30.71574 19.30387 0.03531
C 30.4628 17.99432 -0.00669
C 30.63907 31.89916 0.03265
C 24.58192 8.49155 -0.00037
C 26.97075 8.58542 0.01799
C 28.29736 10.65082 0.01495
C 25.75716 6.42389 0.00622
C 25.73534 5.04073 -0.02815
C 24.55951 4.27578 -0.00942
C 24.52763 2.82171 0.00487
C 25.72117 2.06532 0.00826
C 25.70592 0.67366 -0.00294
C 24.47692 33.88839 0.00152
C 28.21454 9.18126 0.01259
C 26.94483 32.5716 0.01257
C 28.3193 30.49397 0.04185
C 27.1593 29.52003 0.00194
C 27.79971 28.38436 -0.00621
C 28.02594 14.844 0.02611
C 28.2746 13.45397 0.02198
C 27.02998 12.76007 0.01094
C 27.02165 11.34872 0.00235
C 28.19206 31.87164 0.02316
C 2.38985 32.61266 0.02888
