349
Graphene
C 0.00365 0.07364 0.01295
C 9.84328 2.79327 0.00422
C 11.01093 2.18638 0.0351
C 11.05502 0.76147 -0.03113
C 9.84031 0.00775 0.02098
C 12.38264 32.72323 0.01848
C 13.57017 31.95344 -0.00619
C 13.47295 30.48082 -0.02162
C 12.25262 29.74764 0.00889
C 12.28168 28.2781 -0.00481
C 13.53582 27.6863 0.00979
C 13.56463 26.25107 0.01443
C 12.36375 25.55215 0.03505
C 12.38411 24.01328 -0.02815
C 13.67503 23.43447 -0.04147
C 12.21876 12.86729 -0.05302
C 12.32988 11.42893 0.00213
C 13.55277 10.58034 -0.00066
C 9.77767 4.22022 0.00798
C 11.04168 4.88367 0.00228
C 10.99963 6.33199 -0.00114
C 9.80676 7.12031 -0.02696
C 8.61153 2.11424 -0.01454
C 8.55971 0.70348 0.01945
C 7.27662 0.07147 0.01416
C 9.89447 32.67169 0.03542
C 11.10588 31.99099 0.02299
C 11.08539 30.5745 0.00244
C 9.86071 29.83889 -0.01717
C 9.79987 28.42591 0.05265
C 13.61211 9.17082 -0.00289
C 11.05227 27.69878 -0.01952
C 9.85505 25.65837 0.00374
C 9.83997 24.18352 0.00052
C 11.00341 23.60966 -0.03682
C 9.77945 12.7491 0.01965
C 9.89337 11.37186 0.02058
C 11.13259 10.63103 -0.01957
C 11.18314 9.20126 -0.0108
C 9.84343 8.49171 -0.00368
C 11.10118 26.28712 -0.02813
C 12.32583 8.44186 0.00028
C 12.21325 7.04252 -0.02213
C 13.53439 6.35016 0.03698
C 14.83426 8.5279 -0.00831
C 14.76528 7.1323 -0.02957
C 15.98057 6.43642 -0.04422
C 15.93965 5.03286 0.00654
C 14.74155 4.29286 -0.00703
C 14.72833 2.77335 -0.04076
C 15.94918 2.08807 -0.00652
C 15.97832 0.72046 0.0058
C 16.02369 9.1894 0.00364
C 14.71925 0.04133 -0.00865
C 18.45715 31.97947 -0.00311
C 18.47434 30.54968 0.00742
C 17.26902 29.87796 -0.01594
C 17.20058 28.36964 0.0106
C 18.52383 27.60206 -0.01154
C 18.39402 26.23 -0.01721
C 17.29329 25.52398 -0.02422
C 17.17464 24.13844 0.01277
C 17.19836 32.62965 0.00675
C 7.3794 2.79009 0.01241
C 16.01304 10.64673 -0.017
C 14.79445 12.86357 0.00667
C 13.47718 4.97476 -0.00109
C 12.25477 4.25701 -0.00491
C 12.2256 2.88023 0.03338
C 13.45065 2.16706 -0.0258
C 13.4895 0.76007 -0.0331
C 12.32834 34.06744 -0.00316
C 14.79965 32.67196 0.02188
C 15.98959 31.97908 -0.01979
C 14.73914 11.41847 0.00143
C 16.05949 30.5305 0.02691
C 14.75643 28.39943 0.01452
C 15.99118 27.63802 0.04892
C 15.9408 26.2036 -0.00111
C 14.78143 25.58858 -0.03557
C 14.77507 24.15022 0.03754
C 15.95361 23.37658 0.01739
C 15.98174 22.0255 0.00755
C 15.87394 13.48577 -0.0054
C 14.75967 29.82221 -0.01581
C 7.32104 4.26454 0.0076
C 8.57194 4.96611 0.02162
C 8.61934 6.36514 -0.0014
C 2.40349 7.04161 -0.00892
C 3.68897 6.34613 -0.01362
C 3.66343 4.92477 -0.0008
C 2.45082 4.22034 0.0288
C 2.4374 2.79357 0.00393
C 3.6997 2.14827 0.00895
C 3.71396 0.73576 0.00685
C 2.44178 0.09997 0.02888
C 2.48309 8.46855 -0.04848
C 4.88597 32.64964 -0.00482
C 6.13488 30.5029 0.03693
C 4.89499 29.89079 0.01745
C 4.8786 28.36466 0.00488
C 6.15319 27.74833 -0.01004
C 6.1055 26.30201 -0.02896
C 4.85899 25.56902 -0.00131
C 4.86614 24.18813 -0.01118
C 6.16379 23.50163 -0.014
C 6.16279 31.94275 -0.01384
C 6.15204 22.07526 0.02147
C 3.71713 9.21654 0.01572
C 2.5166 11.35209 0.03007
C 3.63515 30.60135 0.03368
C 2.45016 29.86503 -0.02929
C 2.39994 28.36988 -0.00966
C 3.64439 27.69071 -0.03337
C 3.6512 26.30812 0.01227
C 2.4754 25.49787 0.00873
C 2.5351 24.17901 -0.00049
C 3.70731 23.40249 0.00848
C 3.78073 10.64921 -0.00095
C 3.62243 21.99867 -0.01303
C 2.33483 19.88874 0.02635
C 3.62639 19.24734 0.0127
C 3.7204 17.79573 0.01396
C 2.49197 17.02937 0.01849
C 2.43426 15.61655 -0.01142
C 3.7312 14.87863 -0.00562
C 3.69196 13.47303 -0.00494
C 2.46141 12.73001 0.00054
C 2.32706 21.23732 -0.01378
C 18.36221 23.37239 0.00096
C 4.90152 21.34125 0.00373
C 6.10023 19.21139 0.00438
C 7.40825 28.43605 -0.02245
C 8.61832 27.64169 -0.00428
C 8.63663 26.27006 0.03101
C 7.39725 25.65595 -0.01536
C 7.37433 24.21761 -0.02689
C 8.5518 23.37579 -0.01046
C 8.54831 21.98353 -0.00891
C 7.41141 21.23566 0.02819
C 7.43357 29.84483 0.00985
C 7.35379 19.80339 0.00165
C 7.3599 15.78142 0.02894
C 8.71604 13.53845 -0.01789
C 7.39896 12.82644 0.00444
C 7.5012 11.37435 -0.00925
C 8.69463 10.64116 0.01877
C 8.62787 9.21887 0.01363
C 7.32182 8.46045 -0.02162
C 7.40161 7.02876 0.00415
C 7.28094 16.97029 -0.02971
C 4.86708 19.86813 -0.00191
C 8.6388 30.52048 -0.01275
C 7.33137 32.70036 0.02841
C 6.156 17.78514 0.01291
C 4.92612 17.00981 0.00093
C 4.91154 15.62249 0.00057
C 6.1834 14.94916 -0.01634
C 6.1374 13.53442 -0.00334
C 4.93468 12.7724 0.02339
C 4.98685 11.36479 0.01641
C 6.20722 10.71712 -0.00719
C 8.59933 32.01817 -0.01111
C 6.14928 9.28604 0.01364
C 4.94263 7.12147 -0.00033
C 6.14621 6.42795 0.03589
C 6.14603 5.03531 -0.02759
C 4.91145 4.35636 0.0402
C 4.87057 2.98892 0.00572
C 6.10219 2.19083 0.03592
C 6.06006 0.78669 0.00406
C 4.87305 0.00528 0.00943
C 4.90177 8.55258 -0.01062
C 3.65621 31.99602 -0.00077
C 18.41714 22.18336 -0.01527
C 17.33887 19.92856 0.00199
C 30.74713 5.04486 0.01428
C 29.54712 4.28266 -0.02142
C 29.44319 2.86053 0.0544
C 30.6751 2.14283 0.00026
C 30.72654 0.69188 0.00682
C 29.51989 34.03194 -0.01779
C 31.90579 32.62828 0.03794
C 33.15373 32.03228 0.01927
C 33.29838 30.60181 0.01574
C 32.00738 29.75635 -0.02383
C 32.07634 28.37582 -0.01429
C 33.04228 27.73527 -0.0136
C 33.15257 17.6529 0.00594
C 32.06788 17.14392 -0.02474
C 31.86614 15.69125 0.00369
C 33.09036 14.88619 0.00455
C 33.13607 13.44353 -0.00644
C 30.70714 6.47338 -0.01694
C 29.46499 7.13822 0.01713
C 29.49622 8.57288 0.00346
C 30.72545 9.22721 0.00307
C 27.06094 7.14754 0.01836
C 28.26165 6.39402 0.03531
C 28.32591 4.98475 -0.00669
C 27.10072 4.3055 0.0101
C 27.03809 2.85149 0.01705
C 28.22932 2.11319 -0.0405
C 28.26528 0.70461 -0.01303
C 27.04651 0.00838 -0.01461
C 31.99606 12.73037 -0.01839
C 29.52034 32.55579 -0.02155
C 30.82404 30.37758 -0.03735
C 29.43564 29.95026 -0.00971
C 29.38781 15.56704 0.01518
C 30.69973 14.91877 0.01908
C 30.72043 13.47369 0.07705
C 29.52619 12.80621 0.0103
C 29.50863 11.36849 0.02108
C 30.77723 10.68867 0.00716
C 30.74574 31.87908 -0.00944
C 32.01472 11.35347 0.00137
C 33.23759 10.67209 0.00199
C 33.19298 9.26392 0.04381
C 1.16376 19.07714 -0.01678
C 1.2074 17.72014 0.01223
C 0.01449 16.99994 0.00648
C 34.35852 15.54184 0.02114
C 1.19744 14.92134 -0.02957
C 1.20777 13.45331 0.00343
C 34.39886 12.81635 -0.02656
C 0.00692 11.3618 -0.02442
C 0.03652 19.93461 0.01951
C 1.26442 10.63361 -0.00027
C 34.42169 8.56268 -0.02302
C 0.05367 7.08759 -0.02849
C 1.23026 6.31331 0.02931
C 1.26252 4.90532 0.00628
C 0.04688 4.23617 -0.0345
C 34.40711 2.80268 -0.00931
C 1.21142 2.10508 -0.00939
C 1.21865 0.75358 -0.00468
C 1.21 9.2532 -0.00583
C 27.07928 8.5851 -0.03039
C 0.01116 21.14132 -0.02213
C 1.25808 23.53271 0.00723
C 31.93503 8.5623 0.02806
C 31.99232 7.11422 0.01504
C 33.22152 6.41129 -0.00069
C 33.2843 4.99576 0.04926
C 32.02148 4.28941 -0.03838
C 31.9272 2.80107 0.00349
C 33.17088 2.14157 -0.00323
C 33.18932 0.73407 -0.00841
C 1.21784 22.1139 0.02712
C 31.90921 34.038 0.0001
C 1.17176 31.94252 -0.01404
C 1.25594 30.5308 0.01027
C 0.07298 29.81479 0.01831
C 34.32947 28.29905 -0.01037
C 1.15402 27.70757 -0.00439
C 1.1803 26.20169 -0.00598
C 34.39576 25.42311 -0.05239
C 34.4296 24.22752 0.03076
C 34.41861 32.74759 -0.02927
C 28.34174 9.29619 -0.01415
C 28.31052 10.67703 -0.01854
C 27.05615 11.37357 -0.02049
C 19.61233 28.45155 -0.02118
C 19.44848 16.98956 0.00733
C 19.67911 15.67531 -0.00178
C 20.98632 14.907 0.00768
C 20.92111 13.45503 -0.0276
C 19.63297 12.82578 0.03005
C 19.67523 11.44725 -0.04078
C 20.88461 10.7458 0.02117
C 19.6669 29.78603 -0.01971
C 20.87254 9.29502 0.02737
C 19.69058 7.1082 0.00135
C 20.94608 6.40925 0.03102
C 20.92513 4.96665 0.02555
C 19.6507 4.21353 0.01423
C 19.594 2.82258 -0.00285
C 20.89651 2.17734 -0.009
C 20.83444 0.80359 -0.01199
C 19.67268 34.06151 -0.00229
C 19.67444 8.48858 -0.00498
C 22.03316 32.60633 -0.00938
C 20.85164 30.54281 -0.01586
C 19.70113 32.64325 0.00071
C 18.03923 18.96968 0.01511
C 18.53294 17.78274 -0.00478
C 17.24368 15.57555 -0.01662
C 18.37089 14.88369 -0.01185
C 18.36666 13.47648 0.01126
C 17.23094 12.74009 0.01852
C 17.24227 11.32134 -0.00381
C 18.49358 10.63142 0.03046
C 20.88068 31.95805 -0.01107
C 18.45392 9.16132 0.0296
C 17.19904 7.10878 -0.02845
C 18.42892 6.4364 -0.03213
C 18.46299 4.92616 0.02239
C 17.22456 4.29531 0.01153
C 17.22042 2.91457 0.02734
C 18.33482 2.1205 -0.0055
C 18.33869 0.66288 0.01515
C 17.1871 34.01229 -0.00225
C 17.22264 8.51619 0.03374
C 17.22154 21.2905 0.01087
C 23.41687 31.92847 -0.0264
C 22.15012 29.94067 0.00684
C 24.52432 11.30126 -0.00621
C 25.79475 10.59642 0.02611
C 25.86131 9.22201 0.02198
C 24.63863 8.46986 0.01094
C 24.73129 7.07694 0.00235
C 25.90749 6.37275 0.01495
C 25.82772 4.94678 0.01259
C 24.60198 4.2404 0.01799
C 24.53905 12.70482 0.00194
C 24.60248 2.83979 0.01699
C 25.87449 0.71705 0.01177
C 24.66021 34.04172 0.04266
C 27.03421 32.63561 0.01324
C 28.23496 31.92044 0.0014
C 28.40462 30.51679 0.00924
C 28.42054 14.91009 0.02326
C 28.28753 13.4898 0.00261
C 27.0642 12.72939 0.03265
C 25.81565 2.13717 -0.00416
C 23.3309 30.46574 -0.01154
C 25.8518 13.52373 0.04185
C 25.88188 30.57445 0.01257
C 22.2979 15.55637 -0.01052
C 23.32914 14.88671 -0.01679
C 23.40949 13.47877 0.00367
C 22.11938 12.82591 0.04306
C 22.10336 11.45482 0.00996
C 23.27412 10.65618 0.00195
C 23.3845 9.23841 -0.00802
C 22.11224 8.56435 -0.00218
C 25.77667 14.84803 0.02316
C 22.22258 7.14654 -0.01654
C 23.36107 5.01652 -0.0032
C 22.16083 4.26495 0.00622
C 22.17732 2.87295 -0.02815
C 23.40079 2.09418 -0.00942
C 23.4336 0.65008 0.00487
C 22.07133 34.05782 0.00826
C 24.6284 32.65247 -0.00294
C 25.78631 31.89331 0.00152
C 23.51067 6.45753 -0.00037
C 2.40155 32.70983 0.01305
