416
Graphene
C 34.35093 34.01535 0.01295
C 13.56451 2.2412 -0.01111
C 13.52985 0.79265 -0.01275
C 12.31577 0.13315 0.00985
C 14.67517 32.66326 -0.02245
C 15.89326 31.8765 -0.00428
C 15.85644 30.49581 0.03101
C 14.57925 29.77169 -0.01536
C 14.64748 28.37965 -0.02689
C 15.86951 27.65782 -0.01046
C 15.77448 26.32286 -0.00891
C 12.32996 2.90741 0.02841
C 15.84111 17.66 0.02819
C 14.75813 15.49949 -0.02971
C 16.00517 14.88868 0.02894
C 15.96163 13.52959 -0.01789
C 14.78041 12.79474 0.00444
C 14.73738 11.33381 -0.00925
C 15.99732 10.68153 0.01877
C 15.99394 9.28187 0.01363
C 14.71089 8.57456 -0.02162
C 14.77285 7.08716 0.00415
C 16.03653 6.41007 -0.0014
C 14.79495 17.01518 0.00165
C 16.04078 5.01875 0.02162
C 12.28724 4.3964 0.00943
C 13.52777 6.41841 0.03592
C 11.02851 5.08406 -0.00131
C 9.80563 4.43806 -0.01118
C 9.82261 3.00049 -0.014
C 11.05952 2.24182 0.02147
C 11.05009 0.83615 0.00373
C 9.77031 0.15128 -0.00191
C 12.25063 32.75137 0.00438
C 13.47749 31.92798 0.01291
C 13.40805 30.47702 0.00093
C 12.30933 29.71756 0.00057
C 13.55635 5.02658 0.00406
C 12.26756 28.2633 -0.01634
C 12.25723 17.04029 0.02339
C 12.24044 15.734 0.01641
C 13.48916 14.89451 -0.00719
C 13.55069 13.49926 0.01364
C 12.32278 12.87111 -0.01062
C 12.28871 11.52316 -0.00033
C 13.48195 10.68139 0.03589
C 13.43806 9.29476 -0.02759
C 12.23159 8.59357 0.0402
C 12.2473 7.19633 0.00572
C 13.4837 27.57973 -0.00334
C 11.01999 6.47209 -0.02896
C 14.76645 4.35635 0.0076
C 15.93632 2.23904 -0.01454
C 17.25958 7.09436 -0.00619
C 18.50569 6.38426 -0.02162
C 18.5037 4.95125 0.00889
C 17.29356 4.28479 -0.00481
C 17.28058 2.89413 0.00979
C 18.49895 2.15454 0.01443
C 18.4478 0.78151 0.03505
C 17.16313 0.0417 -0.02815
C 19.61561 32.68313 -0.04147
C 20.84958 31.92528 -0.05302
C 17.20903 8.56729 0.01848
C 20.78798 30.52136 0.00213
C 19.50923 28.29963 -0.00289
C 20.81465 27.69527 0.00028
C 20.73343 26.28829 -0.02213
C 19.46944 25.4784 0.03698
C 19.57938 24.16923 -0.00109
C 20.81447 23.44194 -0.00491
C 20.88083 21.98085 0.03338
C 19.64916 21.23013 -0.0258
C 19.70989 19.86438 -0.0331
C 20.93357 19.1365 -0.00316
C 19.54522 29.78089 -0.00066
C 14.78404 2.91251 0.01241
C 18.41877 9.16423 0.02098
C 17.24895 11.3532 0.0351
C 15.96444 0.80289 0.01945
C 14.74783 0.04974 0.01416
C 17.11925 32.67423 0.03542
C 18.30866 31.96046 0.02299
C 18.31589 30.52829 0.00244
C 17.05416 29.79675 -0.01717
C 17.12671 28.37953 0.05265
C 18.27277 27.59028 -0.01952
C 18.22751 26.12318 -0.02813
C 16.92096 25.43173 0.00374
C 18.48325 10.57589 -0.03113
C 17.15259 24.04656 0.00052
C 18.47852 21.99673 0.01965
C 17.30546 21.14198 0.02058
C 17.26942 19.87527 -0.01957
C 18.5014 19.17505 -0.0108
C 18.49358 17.70206 -0.00368
C 17.20723 17.00358 -0.02696
C 17.16777 15.55935 -0.00114
C 18.42196 14.88367 0.00228
C 18.43225 13.44792 0.00798
C 17.24672 12.74226 0.00422
C 18.36885 23.40092 -0.03682
C 20.97518 17.71752 0.02188
C 9.81309 7.24617 -0.01004
C 10.9952 9.33246 0.01745
C 2.33203 2.9048 -0.03291
C 3.57286 2.20526 -0.04999
C 3.5813 0.76422 0.04505
C 2.35454 0.00147 0.03284
C 4.8612 32.76115 -0.04307
C 6.13083 32.11048 0.03189
C 6.06588 30.63304 0.00031
C 4.8794 29.79415 -0.003
C 4.87855 28.42189 0.01402
C 6.06982 27.82378 0.02379
C 2.38562 4.25051 0.02769
C 6.36373 26.37141 0.00907
C 4.9998 24.25326 -0.01509
C 6.12063 23.38178 0.03267
C 6.08971 22.01721 0.02374
C 4.88991 21.31611 0.00402
C 4.87822 19.85157 0.0073
C 6.19345 19.29351 0.0174
C 6.14031 17.88595 0.03828
C 4.92731 17.08784 0.01226
C 4.90096 15.64755 -0.00279
C 6.0869 15.06682 0.01996
C 5.00914 25.67727 0.00643
C 6.146 13.59279 -0.03996
C 3.64934 4.9686 0.01707
C 2.44749 7.07138 -0.00561
C 3.63896 30.52421 -0.00407
C 2.42149 29.7646 0.01138
C 2.41555 28.28305 0.03278
C 3.69447 27.65498 -0.00177
C 3.69744 26.28351 0.04421
C 2.5222 25.56243 0.00088
C 2.55541 24.11066 0.00828
C 3.79458 23.44652 -0.02375
C 3.74604 22.07366 0.00558
C 2.51465 21.37536 -0.0059
C 3.65357 6.37754 0.00208
C 2.48889 19.92294 -0.01386
C 3.73598 17.74438 0.00081
C 2.46384 17.066 0.00245
C 2.36801 15.6724 0.02728
C 3.61453 14.98743 -0.00039
C 3.66839 13.57047 0.0064
C 2.35881 12.74365 0.00211
C 2.41331 11.35075 -0.00449
C 3.61293 10.72262 -0.01979
C 3.63765 9.28676 0.02784
C 2.43965 8.44937 -0.01977
C 3.7174 19.13145 -0.02805
C 9.80317 8.63682 0.00488
C 4.9341 12.90065 0.01465
C 6.04784 10.65203 -0.00518
C 7.39131 8.54405 0.0127
C 7.39292 7.19219 0.01396
C 8.59464 6.46709 0.01849
C 8.57099 5.07926 -0.01142
C 7.37456 4.38277 -0.00562
C 7.42309 2.96614 -0.00494
C 8.62186 2.25591 0.00054
C 8.57448 0.88503 0.03007
C 7.32585 0.15192 -0.00095
C 9.85789 32.79864 0.01572
C 8.56394 9.36669 0.02635
C 11.06627 32.00396 -0.04848
C 9.68366 29.87948 -0.01362
C 9.61005 28.35424 -0.0008
C 10.87138 27.84247 0.0288
C 9.86603 17.12814 0.00393
C 9.86627 15.62349 0.00895
C 11.05027 14.94048 0.00685
C 11.07434 13.59467 0.02888
C 9.81953 12.89902 -0.00482
C 9.7251 11.45073 -0.01384
C 10.90889 10.70819 0.03693
C 10.95949 30.47652 -0.00892
C 4.88697 11.41875 -0.00074
C 8.521 10.6723 -0.01378
C 7.34348 12.86051 0.00848
C 6.07809 9.23513 0.0086
C 4.85603 8.59086 -0.00643
C 4.90605 7.10516 0.017
C 6.0684 6.50337 -0.03113
C 6.04741 5.06021 -0.02566
C 4.86913 4.31573 -0.00094
C 4.89422 2.90476 0.02322
C 6.08886 2.28734 -0.00725
C 6.06485 0.83156 -0.05697
C 4.86928 0.07306 0.01087
C 7.25309 11.38995 -0.01303
C 7.32356 32.80219 -0.01343
C 8.56816 30.66707 0.0276
C 7.33426 29.93966 0.01305
C 7.35155 28.49136 -0.00077
C 8.34983 27.55684 0.03368
C 7.85332 26.23259 -0.02929
C 8.69577 17.64984 -0.00966
C 7.37841 17.15993 -0.03337
C 7.40118 15.79859 0.01227
C 8.57862 14.97745 0.00873
C 8.56869 13.59119 -0.00049
C 8.64128 32.06826 0.00988
C 19.7338 16.9914 -0.01979
C 19.66563 15.54072 0.02691
C 20.83286 14.84513 -0.01581
C 30.72282 10.58281 -0.00944
C 30.72928 9.13273 -0.03735
C 29.51849 8.43902 -0.00971
C 29.55542 7.04796 0.01518
C 30.78573 6.30421 0.01908
C 30.80758 4.89717 0.07705
C 29.50344 4.28222 0.0103
C 29.52452 2.79713 0.02108
C 30.76965 2.09843 0.00716
C 30.72522 0.7076 0.00307
C 29.49662 11.25167 -0.02155
C 29.53208 34.02271 0.00346
C 33.09858 31.88926 -0.01694
C 33.15277 30.5002 0.01428
C 31.96405 29.82193 -0.02142
C 31.90807 28.36025 0.0544
C 33.15868 27.62302 0.00026
C 33.16539 26.17248 0.00682
C 31.89701 25.53008 -0.01779
C 31.90356 24.1098 0.03794
C 33.12138 23.41806 0.01927
C 33.15526 21.97908 0.01574
C 31.89734 32.67572 0.01713
C 31.91047 21.21423 -0.02383
C 29.45916 12.68543 -0.01461
C 30.70577 14.86742 -0.0405
C 27.17716 4.23667 0.01495
C 27.05685 2.75231 0.01259
C 28.31895 2.13698 0.01799
C 28.31339 0.69807 0.01699
C 27.00408 0.01518 -0.00416
C 29.48038 32.62517 0.01177
C 30.63023 31.95247 0.04266
C 30.71074 30.48352 0.01324
C 29.4246 29.85474 0.0014
C 29.38966 28.44054 0.00924
C 30.65852 13.46038 -0.01303
C 30.64389 27.74524 0.02326
C 29.48542 25.54773 0.03265
C 29.48237 24.16873 -0.02049
C 30.71039 23.43983 -0.01854
C 30.78977 22.00016 -0.01415
C 29.50186 21.3025 -0.03039
C 29.47109 19.93735 0.01836
C 30.68237 19.16149 0.03531
C 30.63753 17.75657 -0.00669
C 29.48708 17.01204 0.0101
C 29.5429 15.61232 0.01705
C 30.68492 26.28326 0.00261
C 28.27142 5.05037 0.00235
C 31.89759 19.81244 -0.01429
C 33.20814 17.73182 0.00594
C 1.28957 23.48969 0.00723
C 1.211 22.04076 0.02712
C 34.36372 21.29861 -0.02213
C 34.38218 19.88148 0.01951
C 1.21579 19.22116 -0.01678
C 1.23061 17.73586 0.01223
C 34.40623 17.02578 0.00648
C 34.4269 15.65519 0.02114
C 1.22909 14.95116 -0.02957
C 1.17262 13.48383 0.00343
C 34.39798 24.15941 0.03076
C 34.39052 12.82271 -0.02656
C 1.22318 10.62544 -0.00027
C 1.18562 9.22629 -0.00583
C 34.39738 8.48069 -0.02302
C 34.40921 7.04177 -0.02849
C 1.22158 6.38246 0.02931
C 1.15165 4.94888 0.00628
C 34.35951 4.30934 -0.0345
C 34.39504 2.81091 -0.00931
C 1.12825 2.07001 -0.00939
C 1.08739 0.65407 -0.00468
C 34.42502 11.36043 -0.02442
C 33.1608 19.15676 -0.0136
C 0.0301 25.51528 -0.05239
C 1.18279 27.6961 -0.00439
C 31.90894 17.01742 -0.02474
C 31.96855 15.6335 0.00369
C 33.2095 14.97527 0.00455
C 33.15025 13.48775 -0.00644
C 31.9483 12.72909 -0.01839
C 31.91791 11.34557 0.00137
C 33.19246 10.6549 0.00199
C 33.20799 9.22104 0.04381
C 31.95658 8.51653 0.02806
C 31.98499 7.06411 0.01504
C 1.29204 26.2456 -0.00598
C 33.196 6.32522 -0.00069
C 32.01221 4.19178 -0.03838
C 31.94543 2.7535 0.00349
C 33.1888 2.08447 -0.00323
C 33.24731 0.72704 -0.00841
C 31.98641 0.03054 0.0001
C 34.33843 32.62964 -0.02927
C 1.0704 31.89795 -0.01404
C 1.15746 30.53068 0.01027
C 34.36963 29.79102 0.01831
C 34.357 28.35471 -0.01037
C 33.18192 4.93938 0.04926
C 28.28277 6.46619 0.01094
C 27.05003 7.05651 0.02198
C 27.07085 8.43118 0.02611
C 22.11107 19.93269 -0.01154
C 23.37069 19.18098 -0.01721
C 23.42601 17.78367 -0.02422
C 22.17667 17.02386 0.01277
C 22.11772 15.57713 0.00096
C 23.2965 14.85428 -0.01527
C 23.40889 13.46502 0.01087
C 22.15142 12.7375 0.00199
C 22.05702 11.26512 0.01511
C 23.3179 10.58429 -0.00478
C 22.09688 21.36355 0.0106
C 23.39318 9.19798 -0.01662
C 22.17079 7.07144 0.01126
C 23.48536 6.35989 0.01852
C 23.344 4.95143 -0.00381
C 22.13972 4.28211 0.03046
C 22.11614 2.8116 0.0296
C 23.38279 2.11434 0.03374
C 23.33255 0.66773 -0.02845
C 22.10508 0.01692 -0.03213
C 24.53154 32.62034 0.02239
C 25.72144 31.88527 0.01153
C 22.19952 8.4867 -0.01185
C 25.83997 30.52984 0.02734
C 23.28006 22.04267 -0.01594
C 22.09096 24.19306 -0.00311
C 20.87885 13.41621 0.01452
C 19.67052 12.72732 0.04892
C 19.61276 11.27803 -0.00111
C 20.85145 10.61682 -0.03557
C 20.89512 9.18386 0.03754
C 19.65838 8.50857 0.01739
C 19.70946 7.08551 0.00755
C 20.97532 6.36259 -0.0054
C 20.96455 4.9414 0.00667
C 19.70078 4.22197 0.00143
C 23.30219 23.43986 0.00742
C 19.71947 2.87234 -0.017
C 20.87226 0.71767 -0.00831
C 19.64498 0.04952 -0.02957
C 22.076 32.63637 -0.04422
C 23.28344 31.91606 0.00654
C 23.31394 30.54929 -0.00703
C 21.9897 29.8467 -0.04076
C 22.09793 28.45191 -0.00652
C 23.33244 27.76488 0.0058
C 23.33471 26.30516 -0.00865
C 22.04319 25.5983 0.00675
C 20.91726 2.07161 0.00364
C 24.56628 29.89581 -0.0055
C 24.48578 28.46839 0.01515
C 25.66581 27.70447 -0.00225
C 28.19686 32.01724 -0.01679
C 28.21661 30.59367 0.00367
C 27.00765 29.851 0.04306
C 26.96562 28.46027 0.00996
C 28.15635 27.72294 0.00195
C 28.24641 26.22163 -0.00802
C 27.04602 25.58327 -0.00218
C 27.05858 24.20178 -0.01654
C 28.23644 23.3727 -0.00037
C 28.24764 21.91208 -0.0032
C 27.02866 32.69298 -0.01052
C 27.041 21.26758 0.00622
C 28.24529 19.12306 -0.00942
C 28.26298 17.64703 0.00487
C 27.05025 16.94692 0.00826
C 27.00621 15.49588 -0.00294
C 28.27401 14.88001 0.00152
C 28.18654 13.41086 0.01257
C 27.0551 12.66366 0.02316
C 27.07919 11.2848 0.04185
C 28.29322 10.5602 0.00194
C 28.28601 9.14278 -0.00621
C 26.99837 19.86088 -0.02815
C 24.5323 34.07128 0.00684
C 25.68244 0.64434 -0.01154
C 25.80013 2.13251 -0.0264
C 25.78947 26.27521 0.00071
C 24.55513 25.64072 -0.01107
C 24.53306 24.17319 -0.01586
C 25.81347 23.4538 -0.01971
C 25.78399 22.04815 -0.02118
C 24.54781 21.26135 0.00733
C 24.6132 19.86884 -0.00178
C 25.86137 19.1068 0.00768
C 25.87022 17.66018 -0.0276
C 24.59464 17.01835 0.03005
C 24.55032 15.64528 -0.04078
C 25.75836 14.77224 0.02117
C 25.8258 13.35374 0.02737
C 24.57933 12.66929 -0.00498
C 24.59352 11.24473 0.00135
C 25.86099 10.58947 0.03102
C 25.9131 9.19153 0.02555
C 24.60542 8.45221 0.01423
C 24.64824 7.06862 -0.00285
C 25.85235 6.31051 -0.009
C 25.9158 4.91524 -0.01199
C 24.63087 4.28061 -0.00229
C 24.57527 2.85034 -0.00938
C 3.62599 31.95785 -0.01299
C 2.39964 32.6146 -0.0154
