339
Graphene
C 34.35413 0.13344 0.01295
C 10.96122 19.14174 -0.02162
C 11.02672 17.6748 0.00889
C 9.78621 17.05468 -0.00481
C 9.79301 15.69656 0.00979
C 11.00567 14.96978 0.01443
C 11.08742 13.6132 0.03505
C 9.87445 12.88488 -0.02815
C 9.87709 11.38895 -0.04147
C 11.12818 10.77771 -0.05302
C 11.04645 9.3417 0.00213
C 9.78162 8.56925 -0.00066
C 9.80973 7.12368 -0.00289
C 11.07022 6.34773 0.00028
C 11.10068 4.94993 -0.02213
C 9.90596 4.21355 0.03698
C 9.89963 2.87514 -0.00109
C 11.12332 2.15744 -0.00491
C 9.88041 19.88694 -0.00619
C 11.07046 0.70204 0.03338
C 9.91014 21.40331 0.01848
C 10.96365 23.49664 -0.03113
C 7.35836 8.51132 0.05265
C 7.36428 7.04477 -0.01952
C 8.63684 6.36923 -0.02813
C 8.60313 4.99722 0.00374
C 7.3709 4.29889 0.00052
C 7.44362 2.8527 -0.03682
C 8.64962 2.13961 0.01965
C 8.65632 0.75496 0.02058
C 7.42583 0.11547 -0.01957
C 9.77567 32.65713 -0.0108
C 11.01981 31.86013 -0.00368
C 11.01975 30.48937 -0.02696
C 9.83383 29.64812 -0.00114
C 9.86651 28.17854 0.00228
C 10.70029 27.07176 0.00798
C 9.90894 25.68133 0.00422
C 9.96463 24.40156 0.0351
C 11.09433 22.04993 0.02098
C 9.8512 0.03975 -0.0258
C 12.23237 32.59716 -0.0331
C 13.52003 31.90377 -0.00316
C 14.75086 17.16645 -0.00652
C 14.67028 15.67347 0.0058
C 15.98372 14.99197 -0.00865
C 15.92128 13.60165 0.00675
C 14.75574 12.76813 -0.00311
C 14.73638 11.37907 0.00742
C 15.94379 10.72823 -0.01594
C 15.97065 9.31899 0.0106
C 14.72346 8.51759 -0.01154
C 14.75486 7.11229 -0.01721
C 15.97455 6.31164 -0.02422
C 15.98503 4.81503 0.01277
C 14.73735 4.19046 0.00096
C 14.75262 2.70703 -0.01527
C 16.03641 2.07197 0.01087
C 16.01568 0.56676 0.00199
C 14.80822 33.91168 0.01511
C 15.97799 17.89704 -0.04076
C 14.67955 32.5622 -0.00703
C 12.32947 33.93929 0.00654
C 13.49164 0.62812 -0.04422
C 12.11004 19.88892 0.02188
C 13.34591 19.27915 -0.01979
C 13.50148 17.88762 0.02691
C 12.24941 17.07752 -0.01581
C 12.25686 15.64616 0.01452
C 13.44679 14.96141 0.04892
C 13.53613 13.53535 -0.00111
C 12.29799 12.86767 -0.03557
C 8.55085 9.32329 -0.01717
C 12.26119 11.39862 0.03754
C 13.44684 9.23973 0.00755
C 12.19601 8.55695 -0.0054
C 12.29067 7.09558 0.00667
C 13.53166 6.40392 0.00143
C 13.59615 4.91298 -0.017
C 12.33893 4.26141 0.00364
C 12.2451 2.87715 -0.00831
C 13.52253 2.09411 -0.02957
C 13.47842 10.67451 0.01739
C 18.49858 17.81522 -0.00478
C 8.57063 10.73607 0.00244
C 7.35129 12.75361 0.03542
C 2.36342 8.49216 -0.01384
C 2.41172 7.15006 0.03693
C 3.73015 6.4286 0.01745
C 3.70133 5.08324 0.00488
C 2.48508 4.30142 -0.01004
C 2.46623 2.88434 -0.02896
C 3.70327 2.18106 -0.00131
C 3.67835 0.74679 -0.01118
C 2.4177 0.08654 -0.014
C 4.91394 32.69534 0.02147
C 6.12534 32.03484 0.00373
C 6.17217 30.5162 -0.00191
C 4.91977 29.87671 0.00438
C 4.85098 28.40185 0.01291
C 6.09396 27.79108 0.00093
C 6.14679 26.28573 0.00057
C 4.91842 25.58894 -0.01634
C 3.65875 9.21204 -0.00482
C 4.9542 24.16552 -0.00334
C 3.6017 10.62693 0.02888
C 2.36588 12.80932 0.00895
C 3.60619 30.5511 0.02635
C 2.32813 29.77664 0.0127
C 2.28801 28.37672 0.01396
C 3.64694 27.654 0.01849
C 3.61494 26.29167 -0.01142
C 2.43211 25.60304 -0.00562
C 2.48043 24.19711 -0.00494
C 3.75845 23.40428 0.00054
C 3.65576 22.05984 0.03007
C 2.44034 21.33723 -0.00095
C 2.43302 19.92938 0.01572
C 3.60124 19.21681 -0.04848
C 3.634 17.72686 -0.00892
C 2.45788 17.04876 -0.01362
C 2.378 15.53394 -0.0008
C 3.5949 14.88327 0.0288
C 3.60224 13.4711 0.00393
C 2.41988 11.35089 0.00685
C 6.2036 23.48583 0.02339
C 6.14347 22.08103 0.01641
C 4.84854 21.34751 -0.00719
C 8.62059 30.5363 0.00165
C 7.34326 29.76477 -0.02971
C 7.30915 28.45261 0.02894
C 8.48098 27.69679 -0.01789
C 8.517 26.27754 0.00444
C 7.40602 25.68248 -0.00925
C 7.42094 24.21368 0.01877
C 8.64942 23.59992 0.01363
C 8.6174 22.20946 -0.02162
C 7.37902 21.41178 0.00415
C 7.35212 19.96947 -0.0014
C 8.51761 19.16751 0.02162
C 8.54069 17.69821 0.0076
C 7.3615 17.07307 0.01241
C 7.36419 15.52872 -0.01454
C 8.60555 14.8751 0.01945
C 8.56054 13.47264 0.01416
C 8.54946 31.95884 0.02819
C 7.33232 32.70896 -0.00891
C 4.9032 0.10266 -0.01046
C 6.21627 0.86983 -0.02689
C 4.89349 19.94413 0.01364
C 6.12235 19.19334 -0.01062
C 6.18989 17.80293 -0.00033
C 4.91214 17.04123 0.03589
C 4.90829 15.58185 -0.02759
C 6.11811 14.80819 0.0402
C 6.12205 13.46642 0.00572
C 4.90608 12.75854 0.03592
C 7.37174 11.41279 0.02299
C 4.89425 11.34918 0.00406
C 6.1422 9.23679 0.02841
C 4.88433 8.4861 -0.01111
C 4.91927 7.09474 -0.01275
C 6.17184 6.41198 0.00985
C 6.21362 5.04209 -0.02245
C 4.89036 4.36962 -0.00428
C 4.89213 2.91328 0.03101
C 6.1721 2.23174 -0.01536
C 6.12865 10.65421 0.00943
C 3.64671 31.99775 -0.01378
C 17.25269 17.31177 -0.01662
C 18.36975 14.95998 0.01126
C 29.464 2.8115 -0.02142
C 30.64192 2.11076 0.0544
C 30.63292 0.72113 0.00026
C 29.40282 0.07145 0.00682
C 31.86527 32.68699 -0.01779
C 33.14176 32.00661 0.03794
C 33.07796 30.60828 0.01927
C 33.43717 27.22654 0.01574
C 33.4677 22.67255 -0.02383
C 31.96363 19.83768 -0.01429
C 33.16212 19.31559 -0.0136
C 33.19939 17.82959 0.00594
C 31.97208 17.09756 -0.02474
C 31.87383 15.65093 0.00369
C 33.09502 14.96282 0.00455
C 33.14406 13.53292 -0.00644
C 32.00981 12.78779 -0.01839
C 29.35979 4.19325 0.01428
C 31.98848 11.36093 0.00137
C 30.70316 4.88896 -0.01694
C 29.52206 7.08454 0.00346
C 26.98375 2.83287 -0.00669
C 28.20219 2.15818 0.0101
C 28.26178 0.78974 0.01705
C 27.03976 33.86471 -0.0405
C 29.35063 32.77091 -0.01303
C 30.61205 32.18191 -0.01461
C 30.84224 19.1925 -0.02155
C 30.71074 17.87193 -0.00944
C 29.50608 17.05762 -0.03735
C 29.46469 15.64136 -0.00971
C 30.69976 14.89759 0.01518
C 30.7479 13.45578 0.01908
C 29.50546 12.81008 0.07705
C 29.40953 11.40619 0.0103
C 30.68097 10.70676 0.02108
C 30.60626 9.22838 0.00716
C 29.43279 8.50163 0.00307
C 30.73622 6.32742 0.01713
C 33.16684 10.62765 0.00199
C 33.20101 9.18893 0.04381
C 31.93284 8.54001 0.02806
C 1.2486 17.80463 0.01223
C 34.38301 17.13291 0.00648
C 34.35076 15.69597 0.02114
C 1.14564 14.8737 -0.02957
C 1.16814 13.4868 0.00343
C 34.37712 12.80089 -0.02656
C 34.39322 11.40121 -0.02442
C 1.23025 10.63796 -0.00027
C 1.15943 9.30504 -0.00583
C 0.01862 8.50286 -0.02302
C 34.38157 7.03733 -0.02849
C 1.18525 6.43462 0.02931
C 1.21903 5.00245 0.00628
C 34.38299 4.26863 -0.0345
C 34.33093 2.91335 -0.00931
C 1.14978 2.27199 -0.00939
C 1.20402 0.83405 -0.00468
C 1.18163 19.17468 -0.01678
C 34.41965 19.98051 0.01951
C 0.02124 21.51587 -0.02213
C 1.29456 22.14633 0.02712
C 31.94572 7.15675 0.01504
C 33.10436 6.42635 -0.00069
C 33.16694 5.00643 0.04926
C 31.94783 4.24426 -0.03838
C 31.85136 2.8037 0.00349
C 33.12033 2.16242 -0.00323
C 33.0658 0.74051 -0.00841
C 31.93675 0.01093 0.0001
C 26.93791 4.2289 0.03531
C 0.00591 32.77573 -0.02927
C 1.12261 30.52295 0.01027
C 34.22518 29.86212 0.01831
C 34.33107 28.27871 -0.01037
C 1.12665 27.65048 -0.00439
C 1.13483 26.20746 -0.00598
C 34.23396 25.57426 -0.05239
C 34.35806 23.94482 0.03076
C 1.297 23.56271 0.00723
C 1.19546 32.02161 -0.01404
C 17.13604 15.70332 -0.01185
C 28.22842 4.9825 0.01836
C 27.00781 7.06143 -0.01415
C 20.89755 10.63317 -0.0276
C 20.83452 9.16288 0.03005
C 19.65188 8.55304 -0.04078
C 19.61051 7.09352 0.02117
C 20.81863 6.36255 0.02737
C 20.7874 4.91414 -0.00498
C 19.58083 4.12559 0.00135
C 19.65519 2.71753 0.03102
C 20.91964 2.12112 0.02555
C 20.94809 0.61301 0.01423
C 19.7007 34.04342 -0.00285
C 22.78758 32.66755 -0.009
C 23.41022 17.84137 -0.01199
C 22.12824 17.15433 -0.00229
C 22.15918 15.6594 -0.00938
C 23.3809 14.86674 -0.0264
C 23.33297 13.42977 -0.01154
C 19.6697 11.34478 0.00768
C 22.06018 12.7645 0.00684
C 19.64386 12.86902 -0.00178
C 20.92918 14.96967 -0.02118
C 18.38626 13.59988 0.01852
C 17.17505 12.90043 -0.00381
C 17.17753 11.39934 0.03046
C 18.42402 10.67252 0.0296
C 18.43792 9.19742 0.03374
C 17.195 8.58608 -0.02845
C 17.12136 7.12646 -0.03213
C 18.32585 6.40899 0.02239
C 18.40455 4.92881 0.01153
C 17.17885 4.09976 0.02734
C 17.27883 2.67339 -0.0055
C 18.44228 1.92251 0.01515
C 18.49245 0.54326 -0.00225
C 17.1829 33.90858 0.00071
C 20.8828 17.79354 -0.01107
C 19.61777 17.18466 -0.01586
C 19.63363 15.6099 -0.01971
C 20.87395 13.53582 0.00733
C 22.09639 11.39664 -0.01052
C 23.31304 10.63061 -0.01679
C 23.28732 9.14196 0.00367
C 25.65197 4.94637 0.01094
C 24.4624 4.19038 0.00235
C 24.59853 2.78513 0.01495
C 25.81813 2.02163 0.01259
C 25.74211 0.56012 0.01799
C 24.55889 33.99528 0.01699
C 27.48153 32.6046 -0.00416
C 28.22575 17.82996 0.01177
C 27.0226 17.19681 0.04266
C 27.01549 15.66694 0.01324
C 28.16363 14.96555 0.0014
C 28.23024 13.6172 0.00924
C 27.01867 12.87662 0.02326
C 26.96781 11.34918 0.00261
C 28.2391 10.64468 0.03265
C 28.19376 9.20871 -0.02049
C 26.98291 8.55413 -0.01854
C 25.73507 6.40217 0.02198
C 24.50637 7.0228 0.02611
C 24.56499 8.4938 -0.00621
C 25.72945 9.23732 0.00194
C 22.05559 8.41234 0.04306
C 22.06322 7.01966 0.00996
C 23.26402 6.28285 0.00195
C 23.24748 4.90707 -0.00802
C 22.02113 4.18504 -0.00218
C 22.1249 2.78142 -0.01654
C 23.32367 2.07885 -0.00037
C 23.33755 0.74825 -0.0032
C 28.15714 6.35332 -0.03039
C 22.18308 33.96298 0.00622
C 25.68206 17.74045 -0.00942
C 24.50789 17.13354 0.00487
C 24.59854 15.61245 0.00826
C 25.79712 14.97502 -0.00294
C 25.81829 13.54917 0.00152
C 24.59082 12.77258 0.01257
C 24.52802 11.32134 0.02316
C 25.81665 10.59706 0.04185
C 23.92147 32.69739 -0.02815
C 2.3857 32.70715 -0.01303
