314
Graphene
C 34.35376 0.0728 0.01295
C 17.19301 28.38176 -0.0258
C 18.31019 27.63277 -0.0331
C 19.15512 26.76223 -0.00316
C 18.26312 10.51007 0.02188
C 18.39933 9.14867 -0.01979
C 17.13766 8.52772 0.02691
C 17.15092 7.10039 -0.01581
C 18.43694 6.41448 0.01452
C 18.35974 4.98326 0.04892
C 17.14673 4.32963 -0.00111
C 17.19412 2.88582 -0.03557
C 18.44104 2.1241 0.03754
C 18.55711 0.69631 0.01739
C 17.23842 33.97403 0.00755
C 20.07097 32.62249 -0.0054
C 17.21316 29.8993 0.03338
C 18.40552 30.67674 -0.00491
C 18.7562 31.9985 -0.00109
C 17.357 32.6203 0.03698
C 14.74568 32.61658 0.01848
C 16.02267 31.9741 -0.00619
C 15.94982 30.59747 -0.02162
C 14.76655 29.82408 0.00889
C 14.7733 28.20662 -0.00481
C 15.96783 27.69791 0.00979
C 16.05352 9.31696 0.01443
C 19.15087 25.55371 0.00667
C 14.8396 8.7475 0.03505
C 15.92761 6.40972 -0.04147
C 15.92995 5.00479 -0.05302
C 14.73239 4.24522 0.00213
C 14.7035 2.86904 -0.00066
C 15.9904 2.15237 -0.00289
C 16.04954 0.64481 0.00028
C 14.72674 34.06946 -0.02213
C 14.71031 7.22088 -0.02815
C 12.28078 34.07223 0.02098
C 19.73357 24.48178 0.00143
C 21.03427 22.06915 0.00364
C 22.17508 19.79998 0.01087
C 23.37822 19.16068 0.00199
C 23.46762 17.7687 0.01511
C 22.18989 17.22987 -0.00478
C 21.97571 15.81768 -0.01662
C 23.22364 14.96226 -0.01185
C 23.17972 13.5619 0.01126
C 21.93723 12.78775 0.01852
C 22.00588 11.40735 -0.00381
C 23.23746 10.69817 0.03046
C 23.27215 9.27021 0.0296
C 22.05127 8.49203 0.03374
C 22.10691 7.2051 -0.02845
C 23.29269 6.39282 -0.03213
C 23.37864 4.96453 0.02239
C 22.13075 21.21784 -0.01527
C 23.3942 21.8632 0.00096
C 23.38566 23.38553 0.01277
C 22.12213 23.75174 -0.02422
C 20.89687 14.98458 -0.00831
C 20.71725 13.55363 -0.02957
C 19.44611 12.74648 -0.04422
C 19.30165 11.37632 0.00654
C 20.72721 10.66999 -0.00703
C 20.87091 9.24366 -0.04076
C 19.66756 8.50671 -0.00652
C 20.78662 23.49465 -0.017
C 19.71769 7.04805 0.0058
C 20.93957 4.92392 0.00675
C 19.6724 4.22932 -0.00311
C 19.64041 2.78726 0.00742
C 20.8496 2.11651 -0.01594
C 20.87677 0.7441 0.0106
C 19.75612 34.00616 -0.01154
C 22.06804 32.66095 -0.01721
C 20.94276 6.43604 -0.00865
C 13.45927 0.69984 -0.03113
C 13.49109 2.11675 0.0351
C 12.2341 2.91679 0.00422
C 3.63059 0.662 0.03589
C 2.39926 34.05798 -0.02759
C 4.85075 32.65576 0.0402
C 6.08229 31.94197 0.00572
C 6.10905 30.51717 0.03592
C 4.85349 29.82757 0.00406
C 4.81245 28.37539 0.00943
C 6.0744 27.72832 0.02841
C 6.0347 26.2819 -0.01111
C 4.95589 25.51888 -0.01275
C 4.98197 24.10964 0.00985
C 4.88574 4.27722 -0.02245
C 4.81462 2.88639 -0.00428
C 6.08036 2.16084 0.03101
C 6.09809 0.69609 -0.01536
C 3.5495 2.07724 -0.00033
C 2.40549 2.78926 -0.01062
C 2.43981 4.3025 0.01364
C 3.72672 4.76857 -0.00719
C 3.61855 30.4721 -0.01004
C 2.40764 29.78016 -0.02896
C 2.37098 28.42184 -0.00131
C 3.61497 27.67776 -0.01118
C 3.67069 26.20468 -0.014
C 2.4073 25.54189 0.02147
C 2.4449 24.16779 0.00373
C 4.85125 34.0309 -0.02689
C 3.83452 23.38233 -0.00191
C 2.41171 21.34117 0.01291
C 2.43132 19.97132 0.00093
C 3.6198 19.16861 0.00057
C 3.71443 17.97708 -0.01634
C 2.50164 17.04314 -0.00334
C 2.52371 15.71143 0.02339
C 3.35023 14.52731 0.01641
C 3.68246 21.99249 0.00438
C 7.3347 32.67773 -0.01046
C 8.53695 31.94302 -0.00891
C 8.50713 30.5776 0.02819
C 9.87382 2.83152 -0.01717
C 11.12223 2.10002 0.05265
C 11.08001 0.72709 -0.01952
C 9.85382 34.04767 -0.02813
C 12.23348 32.62082 0.00374
C 13.4585 31.9321 0.00052
C 13.49825 30.47295 -0.03682
C 9.77122 4.24727 0.00244
C 12.28379 29.76477 0.01965
C 13.37175 27.6743 -0.01957
C 13.34757 9.29524 -0.0108
C 12.44257 8.6027 -0.00368
C 12.17756 7.25626 -0.02696
C 13.56951 6.5208 -0.00114
C 13.61325 5.06549 0.00228
C 12.31368 4.38026 0.00798
C 12.12336 28.35526 0.02058
C 22.15725 4.16057 0.01153
C 11.04752 5.10139 0.02299
C 10.87499 27.66145 0.01416
C 7.3467 29.82851 0.00165
C 7.35457 28.37224 -0.02971
C 8.55667 27.62388 0.02894
C 8.47015 26.26082 -0.01789
C 7.47819 25.60975 0.00444
C 8.6141 4.9074 -0.00925
C 7.48279 4.19021 0.01877
C 10.96951 6.5167 0.03542
C 7.3664 2.83613 0.01363
C 8.56852 0.6704 0.00415
C 7.35506 0.06717 -0.0014
C 9.81069 32.70166 0.02162
C 11.06772 31.86359 0.0076
C 11.05499 30.50475 0.01241
C 9.75095 29.82581 -0.01454
C 9.71981 28.39081 0.01945
C 8.69373 2.0828 -0.02162
C 22.03791 2.76789 0.02734
C 23.32432 2.05141 -0.0055
C 23.26955 0.65427 0.01515
C 33.14087 26.31511 0.03794
C 31.92782 25.56833 0.01927
C 31.87713 24.15175 0.01574
C 33.12485 23.44239 -0.02383
C 33.12734 22.02712 -0.01429
C 31.92463 21.3576 -0.0136
C 31.87635 19.94891 0.00594
C 33.10823 19.18974 -0.02474
C 33.15172 17.81813 0.00369
C 31.98711 17.02739 0.00455
C 31.96339 15.58707 -0.00644
C 33.16449 14.90607 -0.01839
C 33.18448 13.49857 0.00137
C 32.01639 12.82208 0.00199
C 31.9213 11.4201 0.04381
C 33.05826 27.72691 -0.01779
C 31.83906 28.44159 0.00682
C 31.84577 29.77595 0.00026
C 33.07311 30.47901 0.0544
C 30.72907 13.52067 -0.02155
C 29.50119 12.85484 -0.00944
C 29.50635 11.4641 -0.03735
C 30.66741 10.73137 -0.00971
C 30.73231 9.27457 0.01518
C 29.5234 8.58704 0.01908
C 29.56497 7.17209 0.07705
C 33.10959 10.68593 0.02806
C 30.68282 6.43773 0.0103
C 29.50402 4.27914 0.00716
C 29.44761 2.89071 0.00307
C 30.64875 2.14971 0.00346
C 30.58246 0.61431 0.01713
C 29.44564 33.98653 -0.01694
C 31.89973 32.64405 0.01428
C 33.10793 31.97301 -0.02142
C 30.73197 5.0243 0.02108
C 33.1585 9.29427 0.01504
C 31.87994 8.4888 -0.00069
C 31.96997 7.10861 0.04926
C 1.20084 19.22928 0.00648
C 1.18245 17.81545 0.02114
C 34.33549 17.08968 -0.02957
C 34.36345 15.64044 0.00343
C 1.24885 14.96937 -0.02656
C 1.28389 13.60901 -0.02442
C 0.16844 12.75248 -0.00027
C 34.31493 19.86067 0.01223
C 34.28383 11.43292 -0.00583
C 0.06969 7.26811 -0.02849
C 1.22232 6.45288 0.02931
C 1.22293 5.04849 0.00628
C 34.41965 4.31213 -0.0345
C 34.35467 2.93988 -0.00931
C 1.18454 2.14331 -0.00939
C 1.16782 0.70908 -0.00468
C 34.42675 8.71758 -0.02302
C 30.64373 14.93545 -0.01461
C 34.39574 21.40476 -0.01678
C 1.16465 23.50391 -0.02213
C 33.22825 6.46494 -0.03838
C 33.16621 5.12661 0.00349
C 31.98533 4.32302 -0.00323
C 31.9527 2.88493 -0.00841
C 33.13385 2.21404 0.0001
C 33.11126 0.7519 -0.02927
C 31.90228 34.05995 -0.01404
C 1.20009 22.10363 0.01951
C 34.30945 32.72128 0.01027
C 1.15707 30.53086 -0.01037
C 34.30832 29.80152 -0.00439
C 34.33597 28.36165 -0.00598
C 1.16948 27.63158 -0.05239
C 1.14381 26.28085 0.03076
C 34.34517 25.63144 0.00723
C 34.33749 24.20705 0.02712
C 1.09742 31.98424 0.01831
C 3.62356 31.92281 0.00488
C 29.45555 15.64201 -0.01303
C 30.73489 17.73837 0.01705
C 24.49219 8.58503 -0.009
C 24.50862 7.13689 -0.01199
C 25.69986 6.45163 -0.00229
C 25.84548 4.98705 -0.00938
C 24.57767 4.20592 -0.0264
C 24.57227 2.76174 -0.01154
C 25.72884 2.11736 0.00684
C 25.69972 0.64607 -0.01052
C 24.49763 34.06081 -0.01679
C 26.89671 32.60812 0.00367
C 28.11568 31.90196 0.04306
C 28.0141 30.45412 0.00996
C 26.75101 29.59469 0.00195
C 26.8606 28.35329 -0.00802
C 28.21058 27.71565 -0.00218
C 25.72479 9.25829 -0.00285
C 25.79556 10.66967 0.01423
C 24.53674 11.42331 0.02555
C 24.53427 12.87229 0.03102
C 22.06334 34.07819 -0.00225
C 24.41781 32.49532 0.00071
C 25.60656 31.9049 -0.01107
C 25.85875 26.30315 -0.01586
C 24.60195 25.69386 -0.01971
C 24.54538 24.23896 -0.02118
C 25.80913 23.53182 0.00733
C 28.29284 26.35629 -0.01654
C 25.87538 22.06792 -0.00178
C 24.58875 19.90454 -0.0276
C 25.76356 19.20916 0.03005
C 25.81332 17.70569 -0.04078
C 24.62062 17.00059 0.02117
C 24.51331 15.55349 0.02737
C 25.77239 14.93931 -0.00498
C 25.81145 13.49566 0.00135
C 24.68766 21.26396 0.00768
C 27.0841 25.59788 -0.00037
C 27.01415 24.242 -0.0032
C 28.24607 23.50305 0.00622
C 28.18541 0.66878 0.01177
C 27.00738 33.9814 0.04266
C 29.36677 32.6029 0.01324
C 30.61822 31.90228 0.0014
C 30.57985 30.57691 0.00924
C 29.33927 29.85539 0.02326
C 29.4267 28.37748 0.00261
C 28.22526 2.07317 -0.00416
C 30.63479 27.70442 0.03265
C 29.54613 25.59905 -0.01854
C 29.44828 24.19102 -0.01415
C 30.62766 23.50045 -0.03039
C 30.70346 22.06316 0.01836
C 29.45728 21.40077 0.03531
C 29.4822 19.93565 -0.00669
C 30.69932 19.21882 0.0101
C 30.63345 26.28999 -0.02049
C 29.4922 17.06934 -0.0405
C 26.99789 2.78605 0.01699
C 28.25406 5.01834 0.01259
C 28.24024 22.07771 -0.02815
C 27.02383 21.39194 -0.00942
C 26.97776 19.97068 0.00487
C 28.23264 19.25122 0.00826
C 28.31058 17.83751 -0.00294
C 27.09347 17.09531 0.00152
C 27.02879 15.68037 0.01257
C 27.01603 4.19683 0.01799
C 28.21695 14.9428 0.02316
C 27.07755 12.74838 0.00194
C 27.09246 11.34589 -0.00621
C 28.33527 10.67048 0.02611
C 28.2344 9.23321 0.02198
C 27.00146 8.61672 0.01094
C 27.01059 7.1982 0.00235
C 28.21349 6.44899 0.01495
C 28.23648 13.55906 0.04185
C 2.38196 32.62668 0.01745
