424
Graphene
C 34.35542 34.06331 0.01295
C 12.28532 25.59072 0.00572
C 12.2481 24.23948 0.03592
C 13.47206 23.45235 0.00406
C 13.4895 21.9762 0.00943
C 12.27532 21.26674 0.02841
C 12.33702 19.91831 -0.01111
C 13.54348 19.16919 -0.01275
C 13.58467 17.79148 0.00985
C 12.32001 17.08544 -0.02245
C 12.29745 15.67159 -0.00428
C 13.45742 26.33398 0.0402
C 13.54336 14.91612 0.03101
C 12.3704 12.76774 -0.02689
C 12.35061 11.32217 -0.01046
C 13.50482 10.67362 -0.00891
C 13.62052 9.12599 0.02819
C 12.32708 8.4655 0.00165
C 12.28554 7.09029 -0.02971
C 13.57343 6.30345 0.02894
C 13.48249 4.93021 -0.01789
C 12.25918 4.24819 0.00444
C 12.15411 2.80191 -0.00925
C 13.58823 13.5135 -0.01536
C 13.47713 27.75636 -0.02759
C 12.32351 28.46071 0.03589
C 12.25478 29.88651 -0.00033
C 9.87783 19.94562 -0.01384
C 11.09423 19.19977 0.03693
C 11.07942 17.8424 0.01745
C 9.90802 17.05813 0.00488
C 9.88551 15.65254 -0.01004
C 11.06442 14.96084 -0.02896
C 11.02686 13.44197 -0.00131
C 9.78102 12.82798 -0.01118
C 9.89715 11.33193 -0.014
C 11.09007 10.68377 0.02147
C 11.05517 9.28181 0.00373
C 9.80514 8.52116 -0.00191
C 9.7596 7.05167 0.00438
C 11.09537 6.41594 0.01291
C 11.09765 4.93293 0.00093
C 9.71147 4.33896 0.00057
C 9.70504 2.91407 -0.01634
C 10.92215 2.18364 -0.00334
C 10.97697 0.75379 0.02339
C 9.74513 0.13439 0.01641
C 12.26104 32.70833 -0.00719
C 13.51129 32.04223 0.01364
C 13.43228 30.56846 -0.01062
C 13.42639 2.17589 0.01877
C 9.86019 21.33696 -0.00482
C 13.47696 0.71772 0.01363
C 14.72196 32.66104 0.00415
C 14.77277 2.86441 0.0351
C 16.08403 2.08901 -0.03113
C 16.02186 0.66164 0.02098
C 14.67437 0.00071 0.01848
C 17.09117 32.68145 -0.00619
C 18.32525 31.94432 -0.02162
C 18.37401 30.53538 0.00889
C 17.12284 29.81356 -0.00481
C 17.12741 28.4253 0.00979
C 18.33097 27.59989 0.01443
C 14.78966 4.22124 0.00422
C 18.35716 26.25782 0.03505
C 17.18547 24.08412 -0.04147
C 18.40438 23.33225 -0.05302
C 18.38097 21.97045 0.00213
C 17.15142 21.31253 -0.00066
C 17.15225 19.85843 -0.00289
C 18.45104 19.1323 0.00028
C 18.43981 17.69257 -0.02213
C 17.17161 17.01997 0.03698
C 17.30636 15.62646 -0.00109
C 18.42569 14.85641 -0.00491
C 17.14171 25.52851 -0.02815
C 15.97777 4.9598 0.00798
C 15.91771 6.34631 0.00228
C 14.72477 7.05581 -0.00114
C 15.93049 31.9408 -0.0014
C 15.90697 30.54702 0.02162
C 14.64949 29.91742 0.0076
C 14.66158 28.49339 0.01241
C 15.89464 27.73375 -0.01454
C 15.90221 26.29944 0.01945
C 14.66371 25.69111 0.01416
C 14.74134 24.19321 0.03542
C 15.93435 23.44519 0.02299
C 15.92919 22.01052 0.00244
C 14.72327 21.2841 -0.01717
C 14.7503 19.92164 0.05265
C 15.90648 19.14824 -0.01952
C 15.98353 17.70441 -0.02813
C 14.81864 17.02728 0.00374
C 14.79456 15.62388 0.00052
C 16.05515 14.88041 -0.03682
C 16.07993 13.50614 0.01965
C 14.81474 12.76669 0.02058
C 14.78784 11.33764 -0.01957
C 16.07346 10.64959 -0.0108
C 16.0302 9.26353 -0.00368
C 14.82152 8.5231 -0.02696
C 12.25067 0.02746 -0.02162
C 18.45076 13.46417 0.03338
C 11.05643 22.10271 0.02888
C 9.91441 24.18924 0.00895
C 3.56965 2.20803 -0.01979
C 3.59759 0.71724 0.02784
C 2.39666 34.07079 -0.01977
C 4.90702 32.71383 -0.00561
C 6.17173 31.97877 0.00208
C 6.15628 30.57025 0.01707
C 4.89439 29.84309 0.02769
C 4.88867 28.50938 -0.03291
C 6.16765 27.67585 -0.04999
C 6.14042 26.29642 0.04505
C 2.31595 2.83433 -0.00449
C 4.97367 25.55088 0.03284
C 6.22595 23.44699 0.03189
C 6.1529 22.05837 0.00031
C 4.98829 21.34965 -0.003
C 4.97521 19.8859 0.01402
C 6.19338 19.11731 0.02379
C 6.1508 17.72167 0.00907
C 4.87379 17.11536 0.00643
C 4.92762 15.68614 -0.01509
C 6.15991 14.9572 0.03267
C 6.07823 13.46416 0.02374
C 4.90676 24.18453 -0.04307
C 2.30845 4.29343 0.00211
C 3.59038 5.04684 0.0064
C 3.62829 6.49317 -0.00039
C 3.70997 30.49248 -0.02827
C 2.50317 29.7597 0.01078
C 2.47392 28.3291 -0.00112
C 3.73265 27.68155 0.03345
C 3.71797 26.22599 0.00748
C 2.48865 25.58496 0.00662
C 2.4777 24.19685 -0.0154
C 3.67129 23.44372 -0.01299
C 3.73612 21.96982 -0.00407
C 2.45893 21.27654 0.01138
C 2.50644 19.90024 0.03278
C 3.70078 19.15306 -0.00177
C 3.65867 17.74519 0.04421
C 2.48649 17.04468 0.00088
C 2.41297 15.66228 0.00828
C 3.66366 14.91491 -0.02375
C 3.65528 13.55448 0.00558
C 2.40002 12.82057 -0.0059
C 2.29977 11.31748 -0.01386
C 3.61065 10.58941 -0.02805
C 3.62916 9.22804 0.00081
C 2.40795 8.54994 0.00245
C 2.3827 7.08274 0.02728
C 4.86522 12.80197 0.00402
C 11.08791 23.484 0.00685
C 4.87516 11.37171 0.0073
C 6.14528 9.30057 0.03828
C 8.60051 13.49205 0.00873
C 7.38943 12.80608 -0.00049
C 7.43818 11.37753 0.00848
C 8.61319 10.71202 -0.01303
C 8.60674 9.29653 -0.01378
C 7.33274 8.61735 0.02635
C 7.36105 7.13181 0.0127
C 8.59573 6.40037 0.01396
C 8.47849 5.03752 0.01849
C 7.27013 4.34166 -0.01142
C 8.63711 14.91487 0.01227
C 7.29921 2.91567 -0.00562
C 8.46735 0.76824 0.00054
C 7.26603 0.09578 0.03007
C 9.76593 32.78148 -0.00095
C 11.00337 32.06793 0.01572
C 10.93204 30.64232 -0.04848
C 9.73222 29.86499 -0.00892
C 9.8023 28.45212 -0.01362
C 11.0067 27.76618 -0.0008
C 11.01796 26.336 0.0288
C 9.81721 25.6269 0.00393
C 8.46345 2.22532 -0.00494
C 7.41314 15.61286 -0.03337
C 7.44945 17.06591 -0.00966
C 8.64986 17.79821 -0.02929
C 4.88172 8.64735 0.01226
C 4.7861 7.20587 -0.00279
C 6.02188 6.5066 0.01996
C 6.11598 5.10319 -0.03996
C 4.77055 4.34576 0.01465
C 4.77603 2.92543 -0.00074
C 6.06361 2.24273 -0.00518
C 6.10524 0.88474 0.0086
C 4.85428 0.06838 -0.00643
C 7.27403 32.74699 0.017
C 8.51628 32.07632 -0.03113
C 8.57346 30.66203 -0.02566
C 7.36462 29.90637 -0.00094
C 7.42628 28.47106 0.02322
C 8.58247 27.80667 -0.00725
C 8.56922 26.36534 -0.05697
C 7.36472 25.63065 0.01087
C 7.42296 24.15703 -0.01343
C 8.68847 23.4555 0.00988
C 8.6571 21.99377 0.0276
C 7.382 21.30784 0.01305
C 7.41436 19.94818 -0.00077
C 8.58781 19.2843 0.03368
C 6.12675 10.70803 0.0174
C 17.28935 12.80367 -0.0258
C 17.28155 11.40944 -0.0331
C 18.44654 10.63276 -0.00316
C 29.46267 11.2942 -0.02155
C 30.76318 10.60358 -0.00944
C 30.72676 9.08549 -0.03735
C 29.53282 8.53954 -0.00971
C 29.42512 7.14963 0.01518
C 30.6697 6.3839 0.01908
C 30.61264 4.87927 0.07705
C 29.29186 4.4282 0.0103
C 29.39585 2.85683 0.02108
C 30.67629 2.174 0.00716
C 29.43737 12.7455 -0.01461
C 30.71191 0.69881 0.00307
C 32.00788 32.54563 0.01713
C 33.21156 31.8282 -0.01694
C 33.22703 30.39423 0.01428
C 31.99875 29.73948 -0.02142
C 32.01129 28.39505 0.0544
C 33.23538 27.6137 0.00026
C 33.20947 26.15374 0.00682
C 31.92948 25.5283 -0.01779
C 31.95225 24.10459 0.03794
C 33.14341 23.39975 0.01927
C 29.45507 0.04917 0.00346
C 30.76127 13.54007 -0.01303
C 30.7889 14.94027 -0.0405
C 29.59281 15.6385 0.01705
C 27.99586 6.7376 0.01094
C 28.05474 5.28195 0.00235
C 27.01515 4.32663 0.01495
C 26.99162 2.91035 0.01259
C 28.19115 2.14865 0.01799
C 28.14825 0.73626 0.01699
C 26.92828 0.01747 -0.00416
C 29.56173 32.61616 0.01177
C 30.73398 31.85117 0.04266
C 30.72075 30.39853 0.01324
C 29.45555 29.83648 0.0014
C 29.55776 28.3084 0.00924
C 30.73842 27.65645 0.02326
C 30.69412 26.27144 0.00261
C 29.47658 25.58153 0.03265
C 29.49337 24.14417 -0.02049
C 30.68787 23.41977 -0.01854
C 30.7375 22.01242 -0.01415
C 29.42948 21.30325 -0.03039
C 29.51434 19.87453 0.01836
C 30.74205 19.15924 0.03531
C 30.71795 17.764 -0.00669
C 29.51937 16.9743 0.0101
C 33.14833 22.01413 0.01574
C 27.33758 7.7468 0.02198
C 31.91433 21.30919 -0.02383
C 33.16116 19.16395 -0.0136
C 1.2358 23.44924 0.00723
C 1.19214 22.01019 0.02712
C 34.32334 21.28007 -0.02213
C 34.40712 19.85356 0.01951
C 1.25847 19.20201 -0.01678
C 1.24214 17.76852 0.01223
C 0.02806 17.09073 0.00648
C 0.01118 15.70683 0.02114
C 1.18642 14.92939 -0.02957
C 1.14146 13.49404 0.00343
C 34.3662 24.12275 0.03076
C 34.3567 12.77443 -0.02656
C 1.1393 10.56856 -0.00027
C 1.14965 9.22847 -0.00583
C 34.38121 8.41465 -0.02302
C 34.36058 6.99756 -0.02849
C 1.15261 6.37553 0.02931
C 1.0845 4.9987 0.00628
C 34.28887 4.28073 -0.0345
C 34.3801 2.79613 -0.00931
C 1.13347 2.08051 -0.00939
C 1.10314 0.67672 -0.00468
C 34.3544 11.30193 -0.02442
C 0.02989 25.5108 -0.05239
C 1.2793 26.19679 -0.00598
C 1.19024 27.60763 -0.00439
C 33.29516 17.79417 0.00594
C 31.99753 17.10823 -0.02474
C 31.98703 15.69443 0.00369
C 33.17911 15.05237 0.00455
C 33.17542 13.59788 -0.00644
C 32.02164 12.77373 -0.01839
C 31.97301 11.32313 0.00137
C 33.14091 10.6702 0.00199
C 33.11625 9.21317 0.04381
C 31.90508 8.48996 0.02806
C 31.96259 7.02337 0.01504
C 33.08299 6.29684 -0.00069
C 33.04447 4.87065 0.04926
C 31.83547 4.12571 -0.03838
C 31.91846 2.72101 0.00349
C 33.21001 2.04361 -0.00323
C 33.19101 0.63868 -0.00841
C 31.94143 33.95824 0.0001
C 34.40371 32.60693 -0.02927
C 1.25159 31.91959 -0.01404
C 1.24231 30.53007 0.01027
C 0.00702 29.7805 0.01831
C 34.37793 28.28141 -0.01037
C 31.88672 19.89206 -0.01429
C 28.1443 9.15551 0.02611
C 28.30093 10.47307 -0.00621
C 28.32101 13.46621 0.00194
C 20.97384 14.81494 0.00742
C 19.72188 12.83979 -0.01594
C 19.69475 11.48276 0.0106
C 21.01351 9.08154 -0.01154
C 19.65297 8.59398 -0.01721
C 19.66933 7.11864 -0.02422
C 21.07059 6.73768 0.01277
C 21.09916 5.09152 0.00096
C 19.79939 4.37427 -0.01527
C 19.6916 2.95949 0.01087
C 19.6565 15.55431 -0.00311
C 20.85619 2.08464 0.00199
C 19.64607 34.06207 -0.00478
C 22.1672 32.74346 -0.01662
C 23.35785 32.01551 -0.01185
C 23.24614 30.54514 0.01126
C 22.09226 29.83233 0.01852
C 22.03795 28.39873 -0.00381
C 23.32665 27.7222 0.03046
C 23.33488 26.3287 0.0296
C 22.10481 25.57223 0.03374
C 22.10025 24.08058 -0.02845
C 20.86049 0.70635 0.01511
C 19.72859 16.95358 0.00675
C 20.99784 17.60181 -0.00865
C 20.8742 19.06588 0.0058
C 18.40721 9.24058 0.02188
C 17.19559 8.46266 -0.01979
C 17.27474 7.08457 0.02691
C 18.41075 6.45608 -0.01581
C 18.49732 5.0371 0.01452
C 17.29524 4.28108 0.04892
C 17.22154 2.82544 -0.00111
C 18.46692 2.19203 -0.03557
C 18.41564 0.67475 0.03754
C 17.17915 0.02504 0.01739
C 19.58781 32.61123 0.00755
C 20.78958 31.97008 -0.0054
C 20.82153 30.56196 0.00667
C 19.55107 29.81258 0.00143
C 19.57194 28.32877 -0.017
C 20.82041 27.64493 0.00364
C 20.86374 26.2319 -0.00831
C 19.61983 25.5182 -0.02957
C 19.61778 24.14778 -0.04422
C 20.88794 23.40229 0.00654
C 20.91928 22.05103 -0.00703
C 19.66164 21.23206 -0.04076
C 19.718 19.80174 -0.00652
C 23.32585 23.40845 -0.03213
C 23.33499 21.97092 0.02239
C 22.06111 21.28132 0.01153
C 22.10863 19.87371 0.02734
C 25.90769 14.92742 -0.01154
C 24.51783 2.91328 0.00684
C 25.79775 2.19205 -0.01052
C 25.74344 0.79242 -0.01679
C 24.57389 0.03937 0.00367
C 27.01783 32.68497 0.04306
C 28.27273 31.94345 0.00996
C 28.21921 30.549 0.00195
C 27.01665 29.77498 -0.00802
C 27.00583 28.3477 -0.00218
C 28.29146 27.72688 -0.01654
C 28.29722 26.37267 -0.00037
C 27.04189 25.54866 -0.0032
C 27.07805 24.14208 0.00622
C 28.27562 23.42067 -0.02815
C 28.20597 22.04377 -0.00942
C 26.95904 21.32689 0.00487
C 26.97821 19.86353 0.00826
C 28.29138 19.13498 -0.00294
C 28.28939 17.76869 0.00152
C 27.05525 17.07118 0.01257
C 27.17027 15.58543 0.02316
C 28.32019 14.84323 0.04185
C 24.77875 15.64591 -0.0264
C 3.68839 32.00452 -0.01471
C 24.63646 17.04599 -0.00938
C 25.80084 19.12609 -0.01199
C 23.35604 19.13849 -0.0055
C 23.38929 17.69174 0.01515
C 22.16245 16.86622 -0.00225
C 22.22071 15.40795 0.00071
C 21.90745 8.17582 -0.01107
C 22.21411 4.23611 -0.01586
C 22.10144 2.81218 -0.01971
C 23.33587 2.16182 -0.02118
C 23.3611 0.69811 0.00733
C 22.06081 0.02267 -0.00178
C 24.57943 32.6583 0.00768
C 25.85709 31.95795 -0.0276
C 25.84929 30.55378 0.03005
C 24.54328 29.84437 -0.04078
C 24.54911 28.45894 0.02117
C 25.75298 27.75319 0.02737
C 25.74777 26.24378 -0.00498
C 24.52444 25.5543 0.00135
C 24.43775 24.0547 0.03102
C 25.74818 23.45708 0.02555
C 25.73923 22.00418 0.01423
C 24.53419 21.29579 -0.00285
C 24.62912 19.79529 -0.009
C 25.90126 17.72863 -0.00229
C 2.45699 32.64606 0.01218
