379
Graphene
C 34.43103 0.03702 0.01295
C 11.09989 2.14304 0.01945
C 11.01867 0.77028 0.01416
C 9.83242 0.09377 0.03542
C 12.2919 32.67811 0.02299
C 13.58348 31.97525 0.00244
C 13.5512 30.54897 -0.01717
C 12.26388 29.77327 0.05265
C 12.15964 28.367 -0.01952
C 12.27307 15.40988 -0.02813
C 13.58678 13.39616 0.00374
C 12.38559 12.83462 0.00052
C 12.34921 11.29669 -0.03682
C 13.64895 10.58451 0.01965
C 13.58884 9.17637 0.02058
C 12.33809 8.57226 -0.01957
C 12.29566 7.06203 -0.0108
C 13.52332 6.31935 -0.00368
C 13.48297 4.9175 -0.02696
C 12.3198 4.17698 -0.00114
C 9.76576 2.84601 -0.01454
C 9.81525 4.26816 0.01241
C 11.07642 4.91779 0.0076
C 11.06579 6.41235 0.02162
C 11.00412 32.05305 0.00985
C 11.08628 30.58897 -0.02245
C 9.89642 29.86946 -0.00428
C 9.87245 28.43468 0.03101
C 11.13894 27.73006 -0.01536
C 11.01585 22.03595 -0.02689
C 9.87778 21.33342 -0.01046
C 9.92223 19.93689 -0.00891
C 11.11581 19.18181 0.02819
C 12.29596 2.80242 0.00228
C 11.02109 17.99096 0.00165
C 9.84075 15.5673 0.02894
C 11.09304 14.87243 -0.01789
C 11.11848 13.48433 0.00444
C 9.94003 12.76618 -0.00925
C 9.84926 11.30762 0.01877
C 11.08035 10.66058 0.01363
C 11.02835 9.22639 -0.02162
C 9.76405 8.49579 0.00415
C 9.81282 7.09439 -0.0014
C 9.97669 17.00183 -0.02971
C 13.54053 2.18081 0.00798
C 13.54199 0.73822 0.00422
C 12.2314 0.12661 0.0351
C 18.42902 27.76689 -0.00316
C 17.18643 11.17871 0.02188
C 18.4436 10.70536 -0.01979
C 18.45062 9.24027 0.02691
C 17.17736 8.51122 -0.01581
C 17.19483 7.1005 0.01452
C 18.42344 6.43222 0.04892
C 18.48065 4.95082 -0.00111
C 17.27746 4.35625 -0.03557
C 17.23978 28.36065 -0.0331
C 17.21594 2.87785 0.03754
C 18.44325 0.72184 0.00755
C 17.25516 33.97481 -0.0054
C 19.62102 32.6562 0.00667
C 20.86121 31.92171 0.00143
C 20.91597 30.48269 -0.017
C 19.67039 29.78327 0.00364
C 19.61426 28.44222 -0.00831
C 20.81731 27.67722 -0.02957
C 20.97781 26.24584 -0.04422
C 18.39464 2.18012 0.01739
C 9.78342 32.72352 -0.01275
C 17.17421 29.82329 -0.0258
C 18.466 31.89788 -0.00491
C 14.8048 32.68949 -0.03113
C 16.00572 31.96386 0.02098
C 16.01991 30.59058 0.01848
C 14.80352 29.81335 -0.00619
C 14.73629 28.44323 -0.02162
C 15.92213 27.58066 0.00889
C 15.90906 26.26071 -0.00481
C 14.62875 12.81149 0.00979
C 14.81824 11.4379 0.01443
C 18.44071 30.49392 0.03338
C 15.94821 10.63632 0.03505
C 14.64916 7.11178 -0.04147
C 15.93738 6.41884 -0.05302
C 15.92205 4.99852 0.00213
C 14.74312 4.25742 -0.00066
C 14.81777 2.80657 -0.00289
C 15.97786 2.08254 0.00028
C 15.9849 0.61109 -0.02213
C 14.71092 34.04672 0.03698
C 17.25923 32.61187 -0.00109
C 15.9709 9.22801 -0.02815
C 19.71996 11.33494 0.00654
C 7.43559 0.04341 -0.01111
C 8.54681 2.19586 0.00943
C 3.69803 4.91035 0.01087
C 2.44374 4.27225 -0.01343
C 2.41931 2.85636 0.00988
C 3.67257 2.16094 0.0276
C 3.69219 0.65993 0.01305
C 2.44393 34.07279 -0.00077
C 4.88553 32.65409 0.03368
C 6.0856 31.98581 -0.02929
C 6.12957 30.53698 -0.00966
C 4.91212 29.8769 -0.03337
C 4.95159 28.37916 0.01227
C 6.15561 27.71325 0.00873
C 6.17785 26.34413 -0.00049
C 4.96641 25.59616 0.00848
C 4.82117 24.19866 -0.01303
C 6.15204 23.43542 -0.01378
C 6.16374 22.00161 0.02635
C 4.92483 21.27579 0.0127
C 4.84319 19.92306 0.01396
C 3.76062 6.31347 -0.05697
C 2.49503 7.10008 -0.00725
C 2.46832 8.51142 0.02322
C 3.74655 9.17479 -0.00094
C 3.66547 30.53437 0.00643
C 2.38719 29.82333 -0.01509
C 2.41454 28.46639 0.03267
C 3.69876 27.6961 0.02374
C 3.70086 26.2786 0.00402
C 2.4894 25.57477 0.0073
C 2.50642 24.14499 0.0174
C 3.69312 23.39082 0.03828
C 3.69918 22.00724 0.01226
C 6.04698 19.12459 0.01849
C 2.46381 21.39189 -0.00279
C 3.63723 19.22696 -0.03996
C 3.67642 17.77685 0.01465
C 2.48215 17.07626 -0.00074
C 2.5049 15.55734 -0.00518
C 3.73555 14.91365 0.0086
C 3.72692 13.55862 -0.00643
C 2.48062 12.81677 0.017
C 2.41873 11.37005 -0.03113
C 3.63148 10.59085 -0.02566
C 2.42723 19.93897 0.01996
C 6.15155 17.74857 -0.01142
C 4.95311 17.02437 -0.00562
C 4.96474 15.67286 -0.00494
C 8.61613 23.53055 0.00373
C 8.60443 22.0999 -0.00191
C 7.42243 21.29844 0.00438
C 7.46744 19.86237 0.01291
C 8.66745 19.18725 0.00093
C 8.62041 17.65099 0.00057
C 7.37351 17.00354 -0.01634
C 7.33219 15.64513 -0.00334
C 8.54952 14.87556 0.02339
C 7.40971 24.17508 0.02147
C 8.60318 13.48942 0.01641
C 7.33747 11.40152 0.01364
C 8.59339 10.59909 -0.01062
C 8.55795 9.2625 -0.00033
C 7.36574 8.56563 0.03589
C 7.41031 7.15361 -0.02759
C 8.60608 6.37776 0.0402
C 8.61489 5.00193 0.00572
C 7.41613 4.30203 0.03592
C 7.32609 2.87635 0.00406
C 7.30954 12.85344 -0.00719
C 8.63484 0.72237 0.02841
C 7.42741 25.62828 -0.014
C 8.61572 27.7241 -0.00131
C 6.17539 14.97849 0.00054
C 6.10333 13.6129 0.03007
C 4.88774 12.85065 -0.00095
C 4.89132 11.3771 0.01572
C 6.08315 10.68172 -0.04848
C 6.12127 9.27551 -0.00892
C 4.97365 8.50616 -0.01362
C 4.93815 7.06944 -0.0008
C 6.13306 6.45696 0.0288
C 8.54648 26.38538 -0.01118
C 6.14088 5.00644 0.00393
C 4.83822 2.85291 0.00685
C 6.06775 2.18415 0.02888
C 6.15061 0.68449 -0.00482
C 4.94641 0.00488 -0.01384
C 7.30456 32.71545 0.03693
C 8.56138 32.04032 0.01745
C 8.64868 30.5961 0.00488
C 7.42074 29.8287 -0.01004
C 7.39262 28.42676 -0.02896
C 4.88395 4.26086 0.00895
C 3.67406 31.94196 0.00907
C 20.90833 10.72502 -0.00703
C 19.58365 8.50941 -0.00652
C 29.45387 2.80285 0.02108
C 30.6899 2.11172 0.00716
C 30.72616 0.71679 0.00307
C 29.40324 34.06171 0.00346
C 31.99274 32.69785 0.01713
C 33.19098 31.93158 -0.01694
C 33.17477 30.53302 0.01428
C 31.97426 29.83876 -0.02142
C 32.00696 28.3946 0.0544
C 33.25169 27.75012 0.00026
C 33.19311 26.28705 0.00682
C 31.96975 25.5596 -0.01779
C 31.93619 24.13103 0.03794
C 33.13082 23.50015 0.01927
C 33.23546 22.04425 0.01574
C 31.99061 21.25171 -0.02383
C 32.00079 19.84761 -0.01429
C 33.21982 19.19457 -0.0136
C 33.19554 17.77865 0.00594
C 29.58322 4.25986 0.0103
C 30.72434 4.97851 0.07705
C 30.70921 6.37138 0.01908
C 29.49336 7.12699 0.01518
C 29.59463 28.45128 0.00924
C 30.76987 27.61226 0.02326
C 30.78328 26.1943 0.00261
C 29.53833 25.55869 0.03265
C 29.49031 24.18557 -0.02049
C 30.73188 23.39196 -0.01854
C 30.75106 21.99272 -0.01415
C 29.55808 21.20302 -0.03039
C 29.47364 19.8172 0.01836
C 31.93599 17.04314 -0.02474
C 30.71597 19.11716 0.03531
C 29.45632 17.05458 0.0101
C 29.52965 15.64299 0.01705
C 30.76167 14.85036 -0.0405
C 30.78055 13.47329 -0.01303
C 29.52395 12.82825 -0.01461
C 29.58498 11.34612 -0.02155
C 30.73125 10.58743 -0.00944
C 30.77204 9.13663 -0.03735
C 29.55052 8.51598 -0.00971
C 30.66381 17.73686 -0.00669
C 31.99676 15.61468 0.00369
C 33.21633 14.90052 0.00455
C 33.17004 13.46746 -0.00644
C 0.03717 21.378 -0.02213
C 0.00976 19.9257 0.01951
C 1.23322 19.22721 -0.01678
C 1.20043 17.80472 0.01223
C 34.40173 17.06179 0.00648
C 0.02181 15.60941 0.02114
C 1.27909 14.94789 -0.02957
C 1.24907 13.4893 0.00343
C 34.41141 12.76258 -0.02656
C 1.21963 22.12528 0.02712
C 34.40275 11.32501 -0.02442
C 1.23466 9.25565 -0.00583
C 34.38276 8.45426 -0.02302
C 34.37754 7.05506 -0.02849
C 1.2337 6.37722 0.02931
C 1.26462 4.96113 0.00628
C 34.35667 4.23346 -0.0345
C 34.34065 2.81124 -0.00931
C 1.17686 2.0938 -0.00939
C 1.18543 0.72767 -0.00468
C 1.21474 10.60811 -0.00027
C 29.53428 29.8891 0.0014
C 1.21957 23.52439 0.00723
C 34.40639 25.55801 -0.05239
C 31.99001 12.72835 -0.01839
C 31.90327 11.3315 0.00137
C 33.12265 10.67765 0.00199
C 33.21111 9.22677 0.04381
C 31.99985 8.49975 0.02806
C 31.97044 7.07482 0.01504
C 33.14732 6.42355 -0.00069
C 33.19697 5.01726 0.04926
C 31.95587 4.34856 -0.03838
C 34.39342 24.19417 0.03076
C 31.90069 2.82977 0.00349
C 33.20554 0.75576 -0.00841
C 31.98943 0.00917 0.0001
C 0.01028 32.67717 -0.02927
C 1.19694 31.89986 -0.01404
C 1.16607 30.53413 0.01027
C 34.41709 29.87553 0.01831
C 0.00787 28.45678 -0.01037
C 1.23684 27.67642 -0.00439
C 1.22595 26.22235 -0.00598
C 33.10805 2.13829 -0.00323
C 20.86785 9.24316 -0.04076
C 30.79591 30.54187 0.01324
C 29.44149 32.57482 0.01177
C 23.34997 4.96126 0.03374
C 22.14839 4.21961 -0.02845
C 22.12013 2.77276 -0.03213
C 23.36074 2.1135 0.02239
C 23.38016 0.69936 0.01153
C 22.19211 34.03937 0.02734
C 24.62277 32.70171 -0.0055
C 25.78669 31.90843 0.01515
C 25.82162 30.4731 -0.00225
C 24.57671 29.75985 0.00071
C 24.55031 28.38348 -0.01107
C 25.81163 27.69957 -0.01586
C 25.89612 26.23847 -0.01971
C 24.61401 25.56522 -0.02118
C 24.46522 24.16689 0.00733
C 25.60458 23.35547 -0.00178
C 25.85167 21.88519 0.00768
C 25.77215 19.08407 -0.0276
C 25.87431 17.88494 0.03005
C 23.36729 6.37055 0.0296
C 22.04575 7.07511 0.03046
C 22.04112 8.46422 -0.00381
C 23.35037 9.2197 0.01852
C 19.66963 7.07824 0.0058
C 20.92518 6.30615 -0.00865
C 20.96045 4.89053 0.00675
C 19.75531 4.22295 -0.00311
C 19.67611 2.81478 0.00742
C 20.90816 2.03695 -0.01594
C 20.86475 0.6329 0.0106
C 19.62209 0.00534 -0.01154
C 22.14722 32.57897 -0.01721
C 24.72801 15.5193 -0.04078
C 23.37055 31.91143 -0.02422
C 22.15639 29.80603 0.00096
C 22.14612 28.35733 -0.01527
C 23.3327 27.66099 0.01087
C 23.3625 26.25017 0.00199
C 21.97635 25.65621 0.01511
C 23.3218 13.47188 -0.00478
C 22.33119 12.80634 -0.01662
C 22.19979 11.38552 -0.01185
C 23.3942 10.69881 0.01126
C 23.3303 30.55101 0.01277
C 25.84994 14.84548 0.02117
C 25.84199 13.44643 0.02737
C 24.6007 12.83174 -0.00498
C 26.98844 19.95953 -0.02815
C 28.20827 19.16216 -0.00942
C 28.24655 17.78675 0.00487
C 26.98882 17.05743 0.00826
C 27.06451 15.61339 -0.00294
C 28.30635 14.9817 0.00152
C 28.254 13.54399 0.01257
C 27.06555 12.77438 0.02316
C 27.09266 11.37808 0.04185
C 27.09909 21.3233 0.00622
C 28.37068 10.6329 0.00194
C 26.94868 8.47711 0.02611
C 27.08204 7.09801 0.02198
C 28.28175 6.39427 0.01094
C 28.42064 5.01443 0.00235
C 27.07132 4.30371 0.01495
C 27.05695 2.8374 0.01259
C 28.27005 2.11778 0.01799
C 28.17202 0.70072 0.01699
C 26.95544 34.06969 -0.00416
C 28.23338 9.20318 -0.00621
C 30.68125 31.96609 0.04266
C 28.35125 21.93978 -0.0032
C 26.93332 24.07797 -0.01654
C 24.6193 11.39212 0.00135
C 25.79638 10.66911 0.03102
C 25.76289 9.22223 0.02555
C 24.52524 8.51028 0.01423
C 24.58832 7.10661 -0.00285
C 25.83486 6.37269 -0.009
C 25.77758 4.98799 -0.01199
C 24.62149 4.1811 -0.00229
C 24.59956 2.8232 -0.00938
C 28.24281 23.39398 -0.00037
C 25.86275 2.14518 -0.0264
C 24.69779 0.07442 0.00684
C 27.03835 32.66654 -0.01052
C 28.17123 31.86935 -0.01679
C 28.28845 30.47329 0.00367
C 27.01928 29.83481 0.04306
C 27.02253 28.44277 0.00996
C 28.2962 27.71959 0.00195
C 28.36394 26.303 -0.00802
C 27.10122 25.54874 -0.00218
C 25.81058 0.75931 -0.01154
C 2.42351 32.60659 0.02379
