444
Graphene
C 0.0104 0.00231 0.01295
C 13.45404 19.1487 0.01291
C 13.53514 17.68997 0.00093
C 12.26435 17.02192 0.00057
C 12.19299 15.67782 -0.01634
C 13.42225 14.93885 -0.00334
C 13.43408 13.53357 0.02339
C 12.26456 12.80541 0.01641
C 12.33413 11.43658 -0.00719
C 13.53381 10.75572 0.01364
C 13.56181 9.29774 -0.01062
C 12.2973 8.57889 -0.00033
C 12.28786 7.14653 0.03589
C 13.45368 6.35863 -0.02759
C 13.4633 4.99324 0.0402
C 12.28705 4.31021 0.00572
C 12.30489 2.91493 0.03592
C 13.57347 2.20375 0.00406
C 13.51363 0.7338 0.00943
C 12.25708 0.14383 0.02841
C 14.70357 32.58194 -0.01111
C 15.9664 31.93374 -0.01275
C 15.94015 30.57623 0.00985
C 14.74254 29.89188 -0.02245
C 12.30879 19.81761 0.00438
C 12.21448 21.27085 -0.00191
C 13.41655 22.05055 0.00373
C 13.48727 23.44742 0.02147
C 10.98327 14.94639 -0.00494
C 10.99668 13.49134 0.00054
C 9.78356 12.78175 0.03007
C 9.85521 11.40644 -0.00095
C 11.07309 10.73658 0.01572
C 11.13501 9.3901 -0.04848
C 9.87601 8.51054 -0.00892
C 9.83107 7.09877 -0.01362
C 11.10157 6.34594 -0.0008
C 11.03476 4.9641 0.0288
C 9.76632 4.3441 0.00393
C 14.7949 28.5048 -0.00428
C 9.73111 2.8799 0.00895
C 10.98868 0.7661 0.02888
C 9.81749 0.06196 -0.00482
C 12.27692 32.70233 -0.01384
C 13.39045 31.95018 0.03693
C 13.44519 30.50885 0.01745
C 12.27804 29.81523 0.00488
C 12.30308 28.33348 -0.01004
C 13.54238 27.67707 -0.02896
C 13.49245 26.34379 -0.00131
C 12.29182 25.57396 -0.01118
C 12.29298 24.18002 -0.014
C 10.98938 2.22277 0.00685
C 16.07729 27.65011 0.03101
C 15.91297 26.21811 -0.01536
C 14.64196 25.51698 -0.02689
C 17.21144 28.29982 0.00052
C 18.42679 27.72644 -0.03682
C 18.41457 26.296 0.01965
C 17.2062 25.56678 0.02058
C 17.18542 24.18782 -0.01957
C 18.44979 23.39843 -0.0108
C 18.43912 22.05171 -0.00368
C 17.14615 21.381 -0.02696
C 17.12823 19.95212 -0.00114
C 18.38568 19.11246 0.00228
C 18.44096 17.70918 0.00798
C 17.21495 29.80582 0.00374
C 17.16651 16.99292 0.00422
C 18.3115 14.83131 -0.03113
C 18.4078 13.46126 0.02098
C 17.13655 12.81036 0.01848
C 17.19585 11.40472 -0.00619
C 18.3794 10.59822 -0.02162
C 18.43246 9.19004 0.00889
C 17.16207 8.50437 -0.00481
C 17.18556 7.02939 0.00979
C 18.4451 6.34411 0.01443
C 18.4576 4.92176 0.03505
C 17.22161 4.26243 -0.02815
C 17.09376 15.56755 0.0351
C 9.78821 15.74033 -0.00562
C 18.42561 30.50552 -0.02813
C 17.20985 32.61865 0.05265
C 14.72511 24.14781 -0.01046
C 15.99789 23.45783 -0.00891
C 15.88971 22.04321 0.02819
C 14.58781 21.32436 0.00165
C 14.70988 19.88356 -0.02971
C 15.90358 19.21108 0.02894
C 15.95089 17.75564 -0.01789
C 14.71623 17.09902 0.00444
C 14.7211 15.68372 -0.00925
C 15.8567 14.95137 0.01877
C 15.89858 13.49108 0.01363
C 18.41088 31.93461 -0.01952
C 14.70972 12.81533 -0.02162
C 16.00935 10.66414 -0.0014
C 15.96198 9.26246 0.02162
C 14.69684 8.48658 0.0076
C 14.67573 7.11316 0.01241
C 15.94519 6.33993 -0.01454
C 15.97501 4.90721 0.01945
C 14.7505 4.25176 0.01416
C 14.75842 2.87809 0.03542
C 15.96364 2.07598 0.02299
C 15.91681 0.6852 0.00244
C 14.6556 33.98754 -0.01717
C 14.7315 11.35315 0.00415
C 17.1586 2.86014 -0.04147
C 9.80255 17.08917 -0.01142
C 10.92002 19.15419 0.01396
C 3.72001 0.78754 -0.00407
C 2.46299 34.07856 0.01138
C 4.96055 32.73845 0.03278
C 6.0964 32.08772 -0.00177
C 6.11521 30.58438 0.04421
C 4.90675 29.88798 0.00088
C 4.85434 28.43307 0.00828
C 6.16355 27.70382 -0.02375
C 6.18124 26.29309 0.00558
C 4.94763 25.41646 -0.0059
C 4.90763 24.07462 -0.01386
C 6.09287 23.42385 -0.02805
C 6.10127 22.02558 0.00081
C 4.77872 21.3455 0.00245
C 4.73528 19.92677 0.02728
C 5.99583 19.19804 -0.00039
C 6.09199 17.79137 0.0064
C 4.81698 16.98164 0.00211
C 4.88217 15.61112 -0.00449
C 6.16191 14.94143 -0.01979
C 6.07212 13.46015 0.02784
C 4.80022 12.82737 -0.01977
C 4.83596 11.40274 -0.00561
C 3.74244 2.21363 -0.01299
C 2.49918 2.90667 -0.0154
C 2.47789 4.30811 0.00662
C 3.71549 5.03643 0.00748
C 3.72718 30.66906 -0.03951
C 2.49182 29.79556 -0.00141
C 2.44565 28.39817 -0.00374
C 3.6916 27.68123 -0.0213
C 3.76436 26.22037 0.01116
C 2.50728 25.60493 -0.0005
C 2.34953 24.15232 -0.00018
C 3.58797 23.44296 0.01073
C 3.59294 22.00911 0.01984
C 2.42909 21.31338 0.00535
C 2.32754 19.82526 -0.00198
C 6.14818 10.72182 0.00208
C 3.55211 19.20545 -0.00012
C 2.38329 17.08466 -0.03672
C 2.32375 15.59851 0.01913
C 3.58772 14.85989 0.00267
C 3.53158 13.51234 0.00787
C 2.33347 12.67702 0.02426
C 2.4905 11.32237 0.01218
C 3.68039 10.66202 -0.01471
C 3.73454 9.25044 -0.02827
C 2.461 8.54165 0.01078
C 2.46058 7.02955 -0.00112
C 3.77663 6.40385 0.03345
C 3.63453 17.71496 -0.04306
C 6.17887 9.32464 0.01707
C 4.99548 8.59809 0.02769
C 4.98991 7.15126 -0.03291
C 8.578 10.72861 -0.03113
C 8.57423 9.22299 -0.02566
C 7.387 8.57886 -0.00094
C 7.37725 7.20224 0.02322
C 8.62934 6.48567 -0.00725
C 8.63129 5.03673 -0.05697
C 7.4329 4.3187 0.01087
C 7.34966 2.93156 -0.01343
C 8.53508 2.15867 0.00988
C 8.56877 0.74509 0.0276
C 7.35757 0.03989 0.01305
C 7.42416 11.44259 0.017
C 9.82227 32.65437 -0.00077
C 11.06492 30.51572 -0.02929
C 9.80326 29.84455 -0.00966
C 9.87 28.37614 -0.03337
C 11.08126 27.6578 0.01227
C 11.06136 26.22942 0.00873
C 9.83833 25.62505 -0.00049
C 9.74169 24.15338 0.00848
C 11.0812 23.50497 -0.01303
C 11.02116 22.06155 -0.01378
C 9.81625 21.30199 0.02635
C 9.79003 19.92786 0.0127
C 11.1106 31.97571 0.03368
C 11.04419 17.78015 0.01849
C 7.38153 12.78809 -0.00643
C 8.59507 15.00985 -0.00518
C 6.18573 6.46251 -0.04999
C 6.16265 5.05019 0.04505
C 4.88741 4.33084 0.03284
C 4.99955 2.97367 -0.04307
C 6.11885 2.29168 0.03189
C 6.18028 0.77857 0.00031
C 4.95688 0.10039 -0.003
C 7.38047 32.72186 0.01402
C 8.61524 31.97716 0.02379
C 8.67569 30.56134 0.00907
C 7.36562 29.89708 0.00643
C 8.60682 13.60319 0.0086
C 7.31465 28.5153 -0.01509
C 8.6128 26.36681 0.02374
C 7.36708 25.58836 0.00402
C 7.33508 24.13719 0.0073
C 8.58815 23.40796 0.0174
C 8.5273 22.06052 0.03828
C 7.36207 21.34686 0.01226
C 7.28863 19.92267 -0.00279
C 8.53525 19.23747 0.01996
C 8.47442 17.85574 -0.03996
C 7.32018 17.18959 0.01465
C 7.32753 15.72194 -0.00074
C 8.59897 27.82198 0.03267
C 18.42635 2.10557 -0.05302
C 18.35905 0.72351 0.00213
C 17.22653 0.01772 -0.00066
C 30.63493 19.15084 0.01705
C 30.67246 17.7607 -0.0405
C 29.44702 16.97757 -0.01303
C 29.44455 15.52411 -0.01461
C 30.52927 14.64475 -0.02155
C 30.08601 13.21655 -0.00944
C 30.96481 9.5612 -0.03735
C 29.63284 9.14188 -0.00971
C 29.5454 7.4531 0.01518
C 30.68068 6.593 0.01908
C 30.65547 5.19688 0.07705
C 29.51272 4.36649 0.0103
C 29.52513 2.86118 0.02108
C 30.72577 2.09053 0.00716
C 30.75419 0.68493 0.00307
C 29.3999 0.0068 0.00346
C 31.92199 32.69402 0.01713
C 33.13649 32.02651 -0.01694
C 33.21298 30.58469 0.01428
C 31.93952 29.87101 -0.02142
C 31.97595 28.5022 0.0544
C 33.15614 27.68305 0.00026
C 33.21475 26.34837 0.00682
C 29.40644 19.86088 0.0101
C 29.54862 21.19738 -0.00669
C 30.71966 22.04263 0.03531
C 30.68303 23.42529 0.01836
C 27.08426 15.50866 0.04185
C 28.26193 14.77414 0.00194
C 28.6618 13.28109 -0.00621
C 27.52975 12.39601 0.02611
C 27.30007 10.93767 0.02198
C 28.01547 9.73995 0.01094
C 27.09456 8.62665 0.00235
C 27.16205 7.2013 0.01495
C 28.34711 6.61209 0.01259
C 28.3507 5.16402 0.01799
C 27.09392 4.37729 0.01699
C 32.02626 25.54661 -0.01779
C 27.07357 2.91375 -0.00416
C 28.22852 0.71321 0.04266
C 27.05234 0.06151 0.01324
C 29.48855 32.69812 0.0014
C 30.69689 32.01299 0.00924
C 30.81587 30.62611 0.02326
C 29.66968 29.90362 0.00261
C 29.55084 28.54231 0.03265
C 30.75061 27.78197 -0.02049
C 30.85959 26.36746 -0.01854
C 29.57998 25.63857 -0.01415
C 29.51301 24.20163 -0.03039
C 28.25425 2.09742 0.01177
C 31.94417 24.10679 0.03794
C 33.13684 23.46934 0.01927
C 33.16273 22.04941 0.01574
C 0.03497 25.66294 -0.05239
C 34.34553 24.17901 0.03076
C 1.09416 23.45562 0.00723
C 1.10883 21.95403 0.02712
C 34.38661 21.2889 -0.02213
C 34.35945 19.82487 0.01951
C 1.09926 19.09 -0.01678
C 1.12836 17.67777 0.01223
C 34.25838 16.82774 0.00648
C 34.17219 15.37699 0.02114
C 1.04309 14.74149 -0.02957
C 1.25884 26.30318 -0.00598
C 0.98207 13.34478 0.00343
C 34.31214 11.19236 -0.02442
C 1.21174 10.57196 -0.00027
C 1.25864 9.19311 -0.00583
C 0.08696 8.39427 -0.02302
C 0.04789 6.98686 -0.02849
C 1.29045 6.32528 0.02931
C 1.24021 4.96696 0.00628
C 34.42941 4.25423 -0.0345
C 34.41549 2.82104 -0.00931
C 1.30475 2.14052 -0.00939
C 1.28284 0.74167 -0.00468
C 34.19683 12.63056 -0.02656
C 27.06072 16.87628 0.02316
C 1.21743 27.67413 -0.00439
C 0.04734 29.88231 0.01831
C 32.01942 21.26093 -0.02383
C 31.92086 19.85886 -0.01429
C 33.10629 19.09728 -0.0136
C 33.03736 17.61796 0.00594
C 31.80208 16.87872 -0.02474
C 31.74557 15.38991 0.00369
C 32.93524 14.63526 0.00455
C 32.79228 13.15106 -0.00644
C 31.40703 12.28196 -0.01839
C 31.66528 10.91939 0.00137
C 33.11232 10.43301 0.00199
C 0.01452 28.43094 -0.01037
C 33.23199 9.10062 0.04381
C 32.01793 7.17373 0.01504
C 33.22793 6.36638 -0.00069
C 33.22394 4.95967 0.04926
C 31.91658 4.31834 -0.03838
C 31.89646 2.83439 0.00349
C 33.23402 2.12549 -0.00323
C 33.25235 0.70612 -0.00841
C 31.98881 0.03868 0.0001
C 34.39349 32.69193 -0.02927
C 1.24312 31.99826 -0.01404
C 1.32784 30.55224 0.01027
C 32.00321 8.58677 0.02806
C 28.18274 17.70008 0.01257
C 28.15895 19.1032 0.00152
C 27.03431 19.76127 -0.00294
C 19.64627 2.85474 -0.04422
C 20.84504 2.14076 0.00654
C 20.81366 0.72475 -0.00703
C 19.58893 0.03908 -0.04076
C 22.08111 32.65658 -0.00652
C 23.37884 31.91254 0.0058
C 23.31643 30.57679 -0.00865
C 22.02469 29.80067 0.00675
C 21.95639 28.36734 -0.00311
C 23.27086 27.78966 0.00742
C 23.37606 26.33027 -0.01594
C 19.61537 4.24525 -0.02957
C 22.14856 25.58242 0.0106
C 23.20464 23.35137 -0.01721
C 23.32949 21.95001 -0.02422
C 22.11624 21.23529 0.01277
C 21.9941 19.85575 0.00096
C 23.32217 19.13407 -0.01527
C 23.31861 17.63748 0.01087
C 22.11309 17.04641 0.00199
C 22.13478 15.64873 0.01511
C 23.35546 14.90416 -0.00478
C 23.47957 13.46019 -0.01662
C 22.13397 12.76281 -0.01185
C 22.16051 24.11845 -0.01154
C 22.13174 11.38811 0.01126
C 20.88958 4.95241 -0.00831
C 19.64076 7.07701 -0.017
C 19.61735 32.71329 -0.00289
C 20.89139 32.03282 0.00028
C 20.8439 30.69533 -0.02213
C 19.65998 29.82962 0.03698
C 19.61384 28.3844 -0.00109
C 20.82318 27.67014 -0.00491
C 20.85978 26.20003 0.03338
C 19.67729 25.56775 -0.0258
C 19.67018 24.19885 -0.0331
C 20.93337 23.47739 -0.00316
C 20.93553 21.97544 0.02188
C 20.90105 6.35597 0.00364
C 19.64768 21.35636 -0.01979
C 20.81693 19.1574 -0.01581
C 20.88948 17.75835 0.01452
C 19.66621 17.0517 0.04892
C 19.61237 15.62591 -0.00111
C 20.87648 14.85138 -0.03557
C 20.8754 13.47158 0.03754
C 19.66103 12.76045 0.01739
C 19.61844 11.34142 0.00755
C 20.8505 10.66091 -0.0054
C 20.8284 9.2608 0.00667
C 19.65096 8.52604 0.00143
C 19.60924 19.90017 0.02691
C 3.65894 32.01249 -0.02419
C 23.31828 10.64193 0.01852
C 22.01188 8.47963 0.03046
C 24.70792 11.25823 -0.00285
C 25.88002 10.57815 -0.009
C 25.82067 9.14006 -0.01199
C 24.56057 8.51118 -0.00229
C 24.61298 7.07955 -0.00938
C 25.79058 6.43158 -0.0264
C 25.85404 5.04023 -0.01154
C 24.56627 4.30435 0.00684
C 24.47868 2.88268 -0.01052
C 25.7504 2.14949 -0.01679
C 25.76821 0.73169 0.00367
C 24.70514 12.69562 0.01423
C 24.53641 0.05972 0.04306
C 28.24105 31.98502 0.00195
C 28.36082 30.51836 -0.00802
C 27.04194 29.87459 -0.00218
C 27.04144 28.45281 -0.01654
C 28.23608 27.80176 -0.00037
C 28.3673 26.39663 -0.0032
C 27.11932 25.67893 0.00622
C 27.00227 24.23653 -0.02815
C 28.21717 23.44664 -0.00942
C 28.25487 22.01725 0.00487
C 26.96686 21.20641 0.00826
C 27.01545 32.73473 0.00996
C 23.29353 9.21482 -0.00381
C 26.05809 13.29095 0.02555
C 24.6332 15.47202 0.00135
C 22.07181 7.0652 0.0296
C 23.27622 6.36908 0.03374
C 23.32042 4.9875 -0.02845
C 22.07165 4.30601 -0.03213
C 22.04011 2.82003 0.02239
C 23.31979 2.12684 0.01153
C 23.31555 0.67808 0.02734
C 22.09982 0.04594 -0.0055
C 24.5683 32.72008 0.01515
C 25.80521 32.07239 -0.00225
C 25.85362 30.61061 0.00071
C 25.91242 14.70811 0.03102
C 24.59841 29.88217 -0.01107
C 25.793 27.68905 -0.01971
C 25.88843 26.34001 -0.02118
C 24.58489 25.56829 0.00733
C 24.60895 24.15601 -0.00178
C 25.81937 23.53467 0.00768
C 25.84427 22.03045 -0.0276
C 24.6065 21.30975 0.03005
C 24.50855 19.87922 -0.04078
C 25.74765 19.13781 0.02117
C 25.77374 17.64165 0.02737
C 24.5657 16.92769 -0.00498
C 24.46957 28.47586 -0.01586
C 2.4422 32.7279 0.02438
