302
Graphene
C 34.35436 0.08104 0.01295
C 11.50368 17.39798 0.04892
C 10.0555 17.046 -0.00111
C 9.60738 15.68862 -0.03557
C 10.89877 14.93668 0.03754
C 10.95719 13.56623 0.01739
C 9.78368 12.83981 0.00755
C 11.05895 26.0816 0.01452
C 9.84965 11.45337 -0.0054
C 11.08388 9.28755 0.00143
C 9.87271 8.56983 -0.017
C 9.87731 7.15761 0.00364
C 11.11948 6.42184 -0.00831
C 11.11061 5.0013 -0.02957
C 9.83542 4.19636 -0.04422
C 11.14504 10.90159 0.00667
C 11.05778 27.59315 -0.01581
C 9.81092 28.23874 0.02691
C 9.80915 29.66768 -0.01979
C 7.38602 11.38007 -0.04147
C 8.64386 10.73983 -0.05302
C 8.59487 9.35366 0.00213
C 7.41056 8.532 -0.00066
C 7.40163 7.16188 -0.00289
C 8.58253 6.43814 0.00028
C 8.6127 4.95273 -0.02213
C 7.38159 4.23413 0.03698
C 7.34733 2.77497 -0.00109
C 8.56493 2.02872 -0.00491
C 8.5963 0.61613 0.03338
C 7.38894 34.02413 -0.0258
C 9.86753 32.60348 -0.0331
C 11.06721 31.83406 -0.00316
C 11.01581 30.41461 0.02188
C 9.76076 2.79457 0.00654
C 11.04865 2.05816 -0.00703
C 11.05298 0.62327 -0.04076
C 9.83706 33.96813 -0.00652
C 12.47118 4.34541 0.01126
C 12.31844 2.78732 0.01852
C 13.53354 2.18573 -0.00381
C 13.62727 0.71594 0.03046
C 12.30354 34.02195 0.0296
C 14.67955 32.56302 0.03374
C 15.92266 31.85515 -0.02845
C 15.959 30.43601 -0.03213
C 14.70262 29.75281 0.02239
C 14.69438 28.33654 0.01153
C 15.87085 27.53902 0.02734
C 15.86418 26.14245 -0.0055
C 14.58232 25.47875 0.01515
C 13.95814 23.93025 -0.00225
C 14.63412 13.34168 0.00071
C 13.65435 4.95979 -0.01185
C 7.30912 12.844 -0.02815
C 13.66828 6.3739 -0.01662
C 12.37846 8.67827 0.01511
C 12.29109 32.55994 0.0058
C 13.51625 31.83225 -0.00865
C 13.49411 30.45853 0.00675
C 12.27247 29.72852 -0.00311
C 12.30758 28.31603 0.00742
C 13.51003 27.5545 -0.01594
C 13.42591 26.16495 0.0106
C 12.23304 25.31745 -0.01154
C 12.76569 23.94863 -0.01721
C 12.11614 15.61722 -0.02422
C 13.30586 14.07798 0.01277
C 12.22992 12.96284 0.00096
C 12.34477 11.58843 -0.01527
C 13.65457 10.98619 0.01087
C 13.70648 9.46941 0.00199
C 12.43795 7.05362 -0.00478
C 8.47979 13.51059 0.03505
C 8.47112 14.91711 0.01443
C 7.38819 15.73496 0.00979
C 3.65692 10.67408 -0.02245
C 3.72511 9.3039 -0.00428
C 2.34844 8.62839 0.03101
C 2.39053 7.1919 -0.01536
C 3.71657 6.55966 -0.02689
C 3.64062 5.08249 -0.01046
C 2.32582 4.42848 -0.00891
C 2.34921 2.98134 0.02819
C 3.5731 2.25245 0.00165
C 3.50854 0.84664 -0.02971
C 2.39617 0.0591 0.02894
C 4.89571 32.64308 -0.01789
C 6.08454 31.93765 0.00444
C 6.0698 30.52551 -0.00925
C 4.85587 29.86845 0.01877
C 2.4754 11.48775 0.00985
C 4.87944 28.42384 0.01363
C 2.38989 12.93273 -0.01275
C 3.60453 15.05715 0.02841
C 3.67097 30.58934 -0.01634
C 2.40883 29.88648 -0.00334
C 2.33657 28.49039 0.02339
C 3.58745 27.81758 0.01641
C 3.61178 26.32851 -0.00719
C 2.376 25.60888 0.01364
C 2.40661 24.27008 -0.01062
C 3.62069 23.51184 -0.00033
C 3.67816 21.97045 0.03589
C 2.4617 21.29123 -0.02759
C 2.46941 19.91677 0.0402
C 3.71055 19.17296 0.00572
C 3.69899 17.80194 0.03592
C 2.33928 17.09537 0.00406
C 2.3095 15.67689 0.00943
C 3.63219 13.68799 -0.01111
C 14.56129 11.97409 -0.01107
C 6.10082 27.59265 -0.02162
C 4.77103 25.59899 -0.0014
C 4.80107 4.38544 -0.0108
C 4.80577 2.92163 -0.00368
C 6.05997 2.15221 -0.02696
C 6.10785 0.66461 -0.00114
C 4.85852 0.03787 0.00228
C 7.35309 32.64994 0.00798
C 8.51387 31.88429 0.00422
C 8.55255 30.55824 0.0351
C 7.33831 29.84033 -0.03113
C 7.28368 28.3063 0.02098
C 8.56583 27.57233 0.01848
C 8.37375 26.09515 -0.00619
C 7.21071 25.41389 -0.02162
C 8.83473 17.6433 0.00889
C 7.5777 17.20737 -0.00481
C 6.11302 5.03214 -0.01957
C 6.03895 26.19523 0.00415
C 6.12628 6.46689 0.02058
C 4.93508 8.66142 -0.03682
C 4.85391 24.13225 0.02162
C 6.073 23.45447 0.0076
C 6.12654 22.12821 0.01241
C 4.96867 21.33941 -0.01454
C 5.02542 19.92355 0.01945
C 6.28618 19.24846 0.01416
C 6.27729 17.80902 0.03542
C 5.07143 17.15595 0.02299
C 4.85951 15.69853 0.00244
C 6.12989 14.97689 -0.01717
C 6.14701 13.54682 0.05265
C 4.92073 12.78325 -0.01952
C 4.95024 11.35729 -0.02813
C 6.17221 10.59751 0.00374
C 6.14974 9.24153 0.00052
C 4.93353 7.16627 0.01965
C 14.67946 8.52948 -0.01586
C 14.7873 7.21732 -0.01971
C 14.84025 4.26445 -0.02118
C 31.88278 25.54755 0.01574
C 31.8419 24.20281 -0.02383
C 33.13111 23.5447 -0.01429
C 33.19061 22.01831 -0.0136
C 31.91185 21.38231 0.00594
C 31.91397 19.98802 -0.02474
C 33.17018 19.28617 0.00369
C 33.06125 17.83037 0.00455
C 31.84539 17.13673 -0.00644
C 31.54007 15.71657 -0.01839
C 32.75078 14.80375 0.00137
C 33.07928 13.39889 0.00199
C 32.40267 12.13118 0.04381
C 33.01833 11.03522 0.02806
C 33.12276 9.70292 0.01504
C 33.18391 26.28495 0.01927
C 33.10123 6.62465 -0.00069
C 33.11016 27.77603 0.03794
C 31.94564 29.91869 0.00682
C 29.4243 24.15333 -0.00971
C 30.70085 23.48646 0.01518
C 30.66592 22.04094 0.01908
C 29.39738 21.27374 0.07705
C 29.43501 19.87966 0.0103
C 30.65977 19.18255 0.02108
C 30.67045 17.81739 0.00716
C 29.35315 17.00675 0.00307
C 30.20054 15.85649 0.00346
C 30.51499 2.20298 0.01713
C 30.58841 0.87727 -0.01694
C 29.41128 0.07942 0.01428
C 31.82691 32.81443 -0.02142
C 33.12062 32.07624 0.0544
C 33.13604 30.60303 0.00026
C 31.85043 28.44438 -0.01779
C 29.39434 25.57626 -0.03735
C 32.96551 5.16799 0.04926
C 31.7094 3.01982 0.00349
C 34.14152 15.62727 0.02114
C 1.0242 15.03764 -0.02957
C 1.12511 13.64961 0.00343
C 0.01165 12.95637 -0.02656
C 34.38662 11.54587 -0.02442
C 1.15609 10.82012 -0.00027
C 1.14164 9.40416 -0.00583
C 34.31771 8.71314 -0.02302
C 34.3219 7.32828 -0.02849
C 1.12711 6.56021 0.02931
C 1.08941 5.15949 0.00628
C 34.30273 4.33751 -0.0345
C 34.30901 2.89523 -0.00931
C 1.18138 2.2063 -0.00939
C 1.12631 0.81498 -0.00468
C 34.29882 17.07953 0.00648
C 31.78341 4.42877 -0.03838
C 1.19537 17.79876 0.01223
C 34.41274 19.93281 0.01951
C 33.00587 2.22654 -0.00323
C 33.07447 0.82206 -0.00841
C 31.76066 0.15955 0.0001
C 34.32863 32.69799 -0.02927
C 1.15142 31.98914 -0.01404
C 1.19096 30.56862 0.01027
C 34.32352 29.8566 0.01831
C 34.35276 28.43843 -0.01037
C 1.13844 27.77325 -0.00439
C 1.11186 26.29462 -0.00598
C 34.40717 25.51141 -0.05239
C 34.36832 24.17198 0.03076
C 1.29241 23.46006 0.00723
C 1.2386 22.03719 0.02712
C 34.41103 21.35612 -0.02213
C 1.17371 19.22237 -0.01678
C 3.64407 31.94349 0.00057
C 30.64968 26.30075 -0.00944
C 29.44568 28.39262 -0.01461
C 19.66258 28.45005 -0.01154
C 20.82343 27.65833 0.00684
C 20.79871 26.14375 -0.01052
C 19.57935 25.48822 -0.01679
C 19.58694 0.07021 0.00367
C 22.14715 32.61185 0.04306
C 23.30497 31.82086 0.00996
C 23.30601 30.41538 0.00195
C 22.04115 29.87178 -0.00802
C 21.96571 28.42971 -0.00218
C 23.29774 27.77852 -0.01654
C 23.25705 26.26042 -0.00037
C 22.05168 25.56381 -0.0032
C 22.11263 24.03805 0.00622
C 23.28411 23.49631 -0.02815
C 19.63176 29.84149 -0.0264
C 22.59314 33.9802 -0.00942
C 20.84501 30.60949 -0.00938
C 19.67625 32.74737 -0.01199
C 14.78855 2.88802 0.00733
C 16.05407 1.98602 -0.00178
C 15.99143 0.60525 0.00768
C 14.67859 33.92033 -0.0276
C 17.20286 32.58901 0.03005
C 18.41774 31.91396 -0.04078
C 18.39794 30.50861 0.02117
C 17.14128 29.71973 0.02737
C 17.09644 28.35877 -0.00498
C 18.37258 27.74294 0.00135
C 18.38506 26.14363 0.03102
C 17.15976 25.48116 0.02555
C 17.39804 2.65225 0.01423
C 18.45522 0.67444 -0.00285
C 17.2286 34.02935 -0.009
C 20.94876 32.02265 -0.00229
C 30.6281 27.67329 -0.02155
C 24.44618 32.63449 0.00487
C 25.7325 30.60703 -0.00294
C 28.27003 26.32514 0.00924
C 26.99697 25.59947 0.02326
C 26.97753 24.21024 0.00261
C 28.21045 23.42545 0.03265
C 28.2096 22.04289 -0.02049
C 26.95559 21.21453 -0.01854
C 27.03701 19.81931 -0.01415
C 28.28595 19.05437 -0.03039
C 28.02517 17.57408 0.01836
C 28.17562 0.51415 0.03531
C 27.01833 0.16035 -0.00669
C 29.39955 32.71536 0.0101
C 30.65501 32.00486 0.01705
C 30.63092 30.59893 -0.0405
C 29.37643 29.84218 -0.01303
C 28.20904 27.74575 0.0014
C 25.68482 32.01278 0.00826
C 26.94477 28.43694 0.01324
C 28.18737 30.53282 0.01177
C 24.49523 29.76793 0.00152
C 24.51134 28.3469 0.01257
C 25.76314 27.68392 0.02316
C 25.7457 26.27602 0.04185
C 24.51895 25.57152 0.00194
C 24.60241 24.11516 -0.00621
C 25.74571 23.40083 0.02611
C 25.73703 21.93955 0.02198
C 24.56153 21.00138 0.01094
C 24.84939 19.73728 0.00235
C 25.91039 18.89865 0.01495
C 26.74653 17.54284 0.01259
C 23.89278 33.96117 0.01799
C 26.99145 32.71567 0.01699
C 28.16086 32.06699 -0.00416
C 26.88671 29.89926 0.04266
C 2.40253 32.68127 0.00093
