300
Graphene
C 34.29377 0.0525 0.01295
C 10.47915 24.24152 -0.00111
C 9.76757 15.78255 -0.03557
C 11.09196 15.2199 0.03754
C 11.03322 13.7712 0.01739
C 9.78373 13.12609 0.00755
C 9.78295 11.67511 -0.0054
C 9.99464 25.4956 0.04892
C 10.88769 10.76137 0.00667
C 9.72889 8.59706 -0.017
C 9.76938 7.19727 0.00364
C 11.03791 6.46552 -0.00831
C 11.02212 5.00201 -0.02957
C 9.79781 4.29495 -0.04422
C 9.86141 2.87481 0.00654
C 10.93265 9.42794 0.00143
C 11.13832 26.4066 0.01452
C 11.11194 27.7191 -0.01581
C 9.89085 28.40688 0.02691
C 8.61689 10.88478 -0.05302
C 8.52817 9.41488 0.00213
C 7.36393 8.67154 -0.00066
C 7.36138 7.12233 -0.00289
C 8.54048 6.44897 0.00028
C 8.53292 5.03539 -0.02213
C 7.40271 4.26881 0.03698
C 7.37426 2.87006 -0.00109
C 8.58165 2.10488 -0.00491
C 8.55688 0.62936 0.03338
C 7.26184 34.05064 -0.0258
C 9.81697 32.65896 -0.0331
C 11.04296 31.8812 -0.00316
C 11.06695 30.53872 0.02188
C 9.85104 29.82248 -0.01979
C 11.06015 2.13582 -0.00703
C 11.12609 0.58943 -0.04076
C 9.87029 34.0347 -0.00652
C 12.27438 32.63122 0.0058
C 12.28854 7.15247 0.01852
C 13.57128 6.55435 -0.00381
C 13.5627 5.13494 0.03046
C 12.2795 4.32529 0.0296
C 12.25555 2.85566 0.03374
C 13.52096 2.09418 -0.02845
C 13.57982 0.70683 -0.03213
C 12.32297 34.01478 0.02239
C 14.82126 32.53719 0.01153
C 16.01126 31.86027 0.02734
C 16.02532 30.45277 -0.0055
C 14.83748 29.73971 0.01515
C 14.74238 28.3078 -0.00225
C 15.91648 27.55365 0.00071
C 15.77465 26.01713 -0.01107
C 12.18748 8.63987 0.01126
C 7.29182 11.5913 -0.04147
C 13.39553 9.26475 -0.01185
C 12.15713 11.46572 -0.00478
C 13.59186 31.86577 -0.00865
C 13.57675 30.49536 0.00675
C 12.3345 29.85991 -0.00311
C 12.37914 28.37928 0.00742
C 13.48788 27.5996 -0.01594
C 13.44498 26.19087 0.0106
C 12.26406 25.57513 -0.01154
C 12.08878 24.19093 -0.01721
C 13.12517 23.28261 -0.02422
C 13.29375 21.88255 0.01277
C 13.61471 17.82891 0.00096
C 12.38939 15.66251 -0.01527
C 13.63862 14.95095 0.01087
C 13.58053 13.49297 0.00199
C 12.28364 12.88525 0.01511
C 13.34647 10.68812 -0.01662
C 14.58224 25.32664 -0.01586
C 7.37283 13.0232 -0.02815
C 8.553 15.36067 0.01443
C 3.70676 10.65964 0.03101
C 3.63314 9.22844 -0.01536
C 2.38411 8.48164 -0.02689
C 2.41007 7.15779 -0.01046
C 3.68396 6.44948 -0.00891
C 3.61252 5.05949 0.02819
C 2.49333 11.42862 -0.00428
C 2.37776 4.33638 0.00165
C 3.61053 2.21122 0.02894
C 3.49048 0.72062 -0.01789
C 2.26985 0.04377 0.00444
C 4.86817 32.59479 -0.00925
C 6.07568 31.94795 0.01877
C 6.18594 30.50976 0.01363
C 2.35907 2.91254 -0.02971
C 2.4701 12.81386 -0.02245
C 3.62853 13.57641 0.00985
C 3.56034 14.95707 -0.01275
C 3.64861 30.56861 0.02339
C 2.38415 29.8798 0.01641
C 2.52823 28.39102 -0.00719
C 3.74847 27.70705 0.01364
C 3.74668 26.26083 -0.01062
C 2.55733 25.62021 -0.00033
C 2.49377 24.11123 0.03589
C 3.70436 23.40453 -0.02759
C 3.73305 21.92526 0.0402
C 2.43469 21.31712 0.00572
C 2.48266 19.89555 0.03592
C 3.72032 19.21905 0.00406
C 3.71502 17.70995 0.00943
C 2.42743 17.08296 0.02841
C 2.33387 15.65967 -0.01111
C 4.93189 29.78115 -0.02162
C 4.951 28.38668 0.00415
C 6.22524 27.59214 -0.0014
C 6.23009 26.20802 0.02162
C 4.89442 4.32883 -0.00368
C 4.8702 2.91849 -0.02696
C 6.14247 2.12219 -0.00114
C 6.13574 0.71743 0.00228
C 4.79095 0.00821 0.00798
C 7.31874 32.65353 0.00422
C 8.51724 31.97921 0.0351
C 8.59704 30.53597 -0.03113
C 7.39734 29.83349 0.02098
C 7.44151 28.28819 0.01848
C 8.72313 27.61141 -0.00619
C 8.6875 26.18078 -0.02162
C 7.41381 25.44216 0.00889
C 7.37911 24.03541 -0.00481
C 7.26903 15.87159 0.00979
C 6.11941 5.00544 -0.0108
C 8.50223 13.85458 0.03505
C 6.09819 6.43177 -0.01957
C 4.87138 8.54619 0.01965
C 5.05471 25.5648 0.0076
C 4.97014 24.03623 0.01241
C 6.1688 23.25874 -0.01454
C 6.15948 21.83684 0.01945
C 5.01078 21.14983 0.01416
C 4.91009 19.73795 0.03542
C 6.37549 17.18786 0.02299
C 4.92537 16.94736 0.00244
C 4.77783 15.60239 -0.01717
C 6.04676 15.0204 0.05265
C 6.11082 13.66286 -0.01952
C 4.90767 12.94284 -0.02813
C 4.88465 11.38367 0.00374
C 6.18528 10.72365 0.00052
C 6.15447 9.34283 -0.03682
C 4.93316 7.14373 0.02058
C 14.48303 23.9207 -0.01971
C 15.69784 23.287 -0.02118
C 15.75217 21.83673 0.00733
C 31.9305 21.3174 -0.02383
C 31.7504 19.99774 -0.01429
C 33.13594 19.29327 -0.0136
C 33.16737 17.85568 0.00594
C 31.97897 17.08671 -0.02474
C 31.81493 15.75417 0.00369
C 33.04365 22.2427 0.01574
C 33.02814 14.93059 0.00455
C 31.9883 12.78944 -0.01839
C 31.98847 11.42775 0.00137
C 33.14532 10.76862 0.00199
C 33.1789 9.38528 0.04381
C 31.98162 8.70339 0.02806
C 31.72042 7.3842 0.01504
C 33.13903 13.5263 -0.00644
C 33.24434 23.5594 0.01927
C 33.43455 26.98526 0.03794
C 32.97646 30.4861 -0.01779
C 28.17568 0.72446 0.01518
C 27.04558 33.96833 0.01908
C 29.11317 19.7677 0.07705
C 30.34794 19.13016 0.0103
C 30.6703 17.68877 0.02108
C 30.05625 16.32493 0.00716
C 30.62323 6.54125 0.00307
C 30.44929 5.19043 0.00346
C 29.18825 4.38679 0.01713
C 29.40556 2.96432 -0.01694
C 30.68542 2.36148 0.01428
C 30.67309 0.81194 -0.02142
C 29.48389 0.14007 0.0544
C 31.81916 32.77838 0.00026
C 33.01518 31.90146 0.00682
C 33.08161 6.6545 -0.00069
C 33.14036 5.09267 0.04926
C 31.89008 4.43749 -0.03838
C 31.90709 2.98438 0.00349
C 34.27249 15.65751 0.02114
C 1.06245 14.9669 -0.02957
C 1.13164 13.5093 0.00343
C 34.32688 12.89056 -0.02656
C 34.34765 11.39437 -0.02442
C 1.22382 10.73389 -0.00027
C 1.22091 9.26948 -0.00583
C 34.4229 8.69369 -0.02302
C 34.34801 7.258 -0.02849
C 1.1445 6.45052 0.02931
C 1.20621 5.02293 0.00628
C 34.39779 4.35 -0.0345
C 34.36774 2.96582 -0.00931
C 1.12985 2.22871 -0.00939
C 1.08488 0.75106 -0.00468
C 34.36018 17.0921 0.00648
C 28.12237 2.22026 -0.00971
C 1.24957 17.82229 0.01223
C 34.42566 20.00131 0.01951
C 33.16905 2.2383 -0.00323
C 33.09528 0.83158 -0.00841
C 31.86814 0.06411 0.0001
C 34.24699 32.67519 -0.02927
C 1.06161 31.96974 -0.01404
C 1.17594 30.53363 0.01027
C 34.33168 29.83194 0.01831
C 0.02766 28.27285 -0.01037
C 1.36847 27.69772 -0.00439
C 1.29975 26.28179 -0.00598
C 34.34837 25.82291 -0.05239
C 34.29656 24.35197 0.03076
C 1.17837 23.65672 0.00723
C 1.20696 22.23746 0.02712
C 34.40088 21.49979 -0.02213
C 1.23555 19.22362 -0.01678
C 26.98298 2.98371 -0.03735
C 27.75285 19.48123 -0.00944
C 26.59009 20.06527 -0.02155
C 14.82771 33.97601 0.00684
C 17.24184 32.48395 -0.01052
C 18.50242 31.72938 -0.01679
C 18.47944 30.34357 0.00367
C 17.25298 29.77041 0.04306
C 17.10576 28.32217 0.00996
C 18.31506 27.59708 0.00195
C 18.27169 26.18128 -0.00802
C 16.98168 25.39879 -0.00218
C 16.98294 24.00292 -0.01654
C 18.23088 23.37874 -0.00037
C 18.42641 21.93113 -0.0032
C 17.11188 21.24567 0.00622
C 17.18637 19.75426 -0.02815
C 18.47662 19.10812 -0.00942
C 15.98547 0.69528 -0.01154
C 18.3139 17.76364 0.00487
C 15.96999 2.10567 -0.0264
C 14.79934 4.28658 -0.00229
C 14.39302 21.09938 -0.00178
C 14.49466 19.67242 0.00768
C 15.8193 19.13535 -0.0276
C 15.94829 17.67338 0.03005
C 14.72405 17.00252 -0.04078
C 14.84582 15.47372 0.02117
C 16.13398 14.75805 0.02737
C 15.97773 13.46079 -0.00498
C 14.76199 12.7555 0.00135
C 14.48754 11.26018 0.03102
C 15.60437 9.96713 0.02555
C 14.79641 8.87482 0.01423
C 14.81863 7.34856 -0.00285
C 15.9153 6.43714 -0.009
C 16.01205 5.11473 -0.01199
C 14.6957 2.84927 -0.00938
C 3.57983 31.92936 -0.00334
C 17.1964 17.03527 0.00826
C 17.22968 4.36447 0.00152
C 20.81861 0.68535 0.02326
C 19.68928 34.00178 0.00261
C 22.13732 32.69398 0.03265
C 21.99883 21.24602 -0.02049
C 22.4288 19.85972 -0.01854
C 22.00908 2.92418 -0.01415
C 23.30886 2.43607 -0.03039
C 23.38816 0.88061 0.01836
C 22.13699 0.03134 0.03531
C 23.95995 19.52503 -0.00669
C 25.20587 19.63725 0.0101
C 24.4811 3.23814 0.01705
C 25.81422 3.45156 -0.0405
C 25.78664 33.69939 -0.01303
C 24.4784 34.03801 -0.01461
C 20.82906 2.19513 0.00924
C 18.42833 5.07152 -0.00294
C 19.54107 2.83264 0.0014
C 21.05921 19.18836 0.04266
C 17.13351 2.8913 0.01257
C 18.39274 2.07105 0.02316
C 18.45014 0.60631 0.04185
C 17.26014 33.97143 0.00194
C 19.69983 32.55824 -0.00621
C 20.97738 31.78518 0.02611
C 20.9741 30.40061 0.02198
C 19.79678 29.62082 0.01094
C 19.53332 28.29748 0.00235
C 19.44988 25.47889 0.01495
C 19.63683 24.13154 0.01259
C 20.86556 23.46742 0.01799
C 21.03922 22.09465 0.01699
C 19.72029 21.28362 -0.00416
C 19.76846 19.78136 0.01177
C 19.57618 4.26142 0.01324
C 2.31001 32.70641 -0.01634
