267
Graphene
C 0.18889 0.1639 0.01295
C 18.49269 30.50634 -0.01662
C 18.4482 31.9349 -0.00478
C 17.20549 32.63639 0.01511
C 14.67049 34.01924 0.00199
C 15.92441 0.72506 0.01087
C 15.93216 2.17507 -0.01527
C 14.63182 2.89156 0.00096
C 14.74911 4.28282 0.01277
C 15.84761 27.88749 -0.02422
C 14.59503 28.35884 -0.01721
C 14.82338 29.80318 -0.01154
C 16.03502 30.44107 0.0106
C 15.9459 31.88969 -0.01594
C 14.72235 32.63917 0.00742
C 12.26494 34.07309 -0.00311
C 13.48719 0.69722 0.00675
C 13.45436 2.11251 -0.00865
C 12.17546 2.89627 0.0058
C 12.23151 4.30003 -0.00652
C 13.6163 5.13339 -0.04076
C 13.28117 6.42629 -0.00703
C 12.25249 7.25297 0.00654
C 12.13757 8.68137 -0.04422
C 13.08879 9.83353 -0.02957
C 13.64192 11.03315 -0.00831
C 12.30895 10.9459 0.00364
C 12.77522 28.23124 -0.017
C 12.44204 29.62081 0.00143
C 13.58656 30.54433 0.00667
C 17.28517 29.80605 -0.01185
C 17.1312 28.33116 0.01126
C 18.34961 27.58196 0.01852
C 18.3658 26.12657 -0.00381
C 22.05776 29.83498 -0.00285
C 23.37146 30.46302 0.01423
C 23.42781 31.90288 0.02555
C 22.09434 32.57365 0.03102
C 19.66998 0.00359 0.00135
C 20.78792 0.81356 -0.00498
C 20.89232 2.32611 0.02737
C 19.606 2.80315 0.02117
C 20.14047 16.46838 -0.04078
C 20.64367 17.85572 0.03005
C 20.73166 19.21248 -0.0276
C 19.73126 20.26416 0.00768
C 19.66335 21.50771 -0.00178
C 21.16016 22.10558 0.00733
C 13.5056 31.94986 -0.0054
C 20.94904 23.45153 -0.02118
C 19.68368 25.57208 -0.01586
C 20.91079 26.2184 -0.01107
C 20.94295 27.59048 0.00071
C 19.59803 28.34592 -0.00225
C 19.65122 29.79117 0.01515
C 20.8232 30.47053 -0.0055
C 20.8497 31.92159 0.02734
C 19.64534 32.63912 0.01153
C 17.16928 0.02477 0.02239
C 18.39051 0.69628 -0.03213
C 18.34379 2.27607 -0.02845
C 17.09944 2.8534 0.03374
C 18.51583 23.5077 0.0296
C 17.25058 25.35584 0.03046
C 19.68544 24.16869 -0.01971
C 22.16598 28.37161 -0.009
C 12.31826 32.58051 0.00755
C 11.02867 0.67376 0.03754
C 5.96268 9.25756 0.00422
C 6.012 10.7248 0.00798
C 4.8041 11.45121 0.00228
C 4.76286 12.78511 -0.00114
C 6.26885 27.84981 -0.02696
C 4.91617 28.33716 -0.00368
C 4.92307 29.79695 -0.0108
C 6.19194 30.53759 -0.01957
C 6.1421 32.02198 0.02058
C 4.86541 32.65999 0.01965
C 2.88458 0.11754 -0.03682
C 2.04516 6.94383 0.00052
C 2.23845 8.46265 0.00374
C 3.48457 9.13811 -0.02813
C 3.50906 10.63652 -0.01952
C 2.3456 11.54638 0.05265
C 2.36169 12.97543 -0.01717
C 3.70533 13.67075 0.00244
C 3.50111 15.00103 0.02299
C 2.30665 15.66418 0.03542
C 2.89971 17.1654 0.01416
C 1.97699 20.75984 0.01945
C 2.27058 23.97595 -0.01454
C 2.52887 25.37618 0.01241
C 3.63863 26.20753 0.0076
C 3.73516 27.55916 0.02162
C 2.49712 28.34392 -0.0014
C 2.39551 29.77746 0.00415
C 3.68498 30.46354 -0.02162
C 4.78161 8.53512 0.0351
C 5.80516 0.61418 -0.03113
C 4.53674 34.05936 0.02098
C 7.33293 32.70613 0.01848
C 11.04458 2.12465 -0.03557
C 9.76492 2.82579 -0.00111
C 9.83081 4.22408 0.04892
C 10.98529 5.0359 0.01452
C 10.95179 6.53997 -0.01581
C 9.69358 7.03265 0.02691
C 9.61953 8.56987 -0.01979
C 10.9064 9.22479 0.02188
C 10.89278 10.70862 -0.00316
C 9.79821 11.4534 -0.0331
C 9.67678 28.34736 -0.0258
C 9.81874 29.70397 0.03338
C 11.13463 30.33269 -0.00491
C 11.12964 31.82982 -0.00109
C 9.73797 0.06999 0.01739
C 9.88553 32.70922 0.03698
C 8.40815 0.78313 0.00028
C 8.46566 2.1834 -0.00289
C 7.56648 3.4613 -0.00066
C 8.52319 4.70371 0.00213
C 8.38671 6.23223 -0.05302
C 7.36852 7.07279 -0.04147
C 7.23169 8.49005 -0.02815
C 8.34654 9.33118 0.03505
C 8.54067 10.87701 0.01443
C 7.19736 11.55349 0.00979
C 7.302 28.46332 -0.00481
C 7.40951 29.83715 0.00889
C 8.70749 30.61944 -0.02162
C 8.58258 31.98796 -0.00619
C 7.13793 0.09324 -0.02213
C 3.68639 31.95265 0.01363
C 23.33115 27.64657 -0.01199
C 22.15945 25.58141 -0.00938
C 32.08312 4.42152 0.00349
C 33.22293 5.13659 -0.03838
C 32.98445 6.51676 0.04926
C 31.74268 7.22258 -0.00069
C 31.74593 8.68933 0.01504
C 32.99118 9.41294 0.02806
C 32.98894 10.80404 0.04381
C 31.80008 11.60277 0.00199
C 32.06263 12.97423 0.00137
C 33.08801 13.84007 -0.01839
C 33.03301 15.16434 -0.00644
C 33.81171 18.31408 0.00455
C 31.67863 21.35902 0.00369
C 32.93625 21.92045 -0.02474
C 33.11199 23.31941 0.00594
C 31.85679 24.10066 -0.0136
C 31.91265 25.55385 -0.01429
C 33.19075 26.25737 -0.02383
C 33.20952 27.67755 0.01574
C 31.99696 28.45129 0.01927
C 32.02458 29.79297 0.03794
C 33.18734 30.60311 -0.01779
C 33.25599 32.02446 0.00682
C 32.07793 32.72563 0.00026
C 29.55359 0.0779 0.0544
C 30.80355 0.7879 -0.02142
C 30.81897 2.22724 0.01428
C 29.56243 2.91802 -0.01694
C 29.48254 4.33389 0.01713
C 32.04967 2.96389 -0.00323
C 33.33708 2.37794 -0.00841
C 33.37184 0.85994 0.0001
C 32.08962 0.09623 -0.02927
C 1.60961 0.95763 -0.00468
C 1.28039 2.3317 -0.00939
C 0.17472 3.22132 -0.00931
C 0.12409 4.74466 -0.0345
C 0.87595 6.25608 0.00628
C 34.19284 7.26333 0.02931
C 34.18308 8.67099 -0.02849
C 0.99647 9.29243 -0.02302
C 1.11518 10.7926 -0.00583
C 34.27046 11.56597 -0.00027
C 34.25328 12.98219 -0.02442
C 1.09301 13.7019 -0.02656
C 1.08113 15.04578 0.00343
C 34.32871 15.71686 -0.02957
C 30.76733 5.07523 0.00346
C 0.24932 17.29815 0.02114
C 1.48606 19.60876 0.01223
C 34.29529 19.60352 -0.01678
C 34.06679 21.16363 0.01951
C 0.99265 21.78965 -0.02213
C 1.13605 23.2278 0.02712
C 34.38377 23.99359 0.00723
C 34.38152 25.46436 0.03076
C 1.25868 26.21054 -0.05239
C 1.2004 27.6335 -0.00598
C 34.41803 28.45876 -0.00439
C 34.40112 29.87336 -0.01037
C 1.27213 30.65471 0.01831
C 1.32544 32.11594 0.01027
C 0.05766 32.83248 -0.01404
C 1.74387 18.1343 0.00648
C 23.36666 26.29951 -0.00229
C 30.60913 6.42884 0.00307
C 29.31365 8.53919 0.02108
C 28.31196 32.02817 0.01094
C 27.08449 32.73696 0.02198
C 24.58614 0.07291 0.02611
C 25.86579 0.68098 -0.00621
C 25.78358 2.12705 0.00194
C 24.55533 2.83218 0.04185
C 24.70044 4.22309 0.02316
C 25.67606 4.90487 0.01257
C 25.03699 21.98267 0.00152
C 25.63012 23.53497 -0.00294
C 24.49819 24.12329 0.00826
C 24.45795 25.55198 0.00487
C 25.79834 26.19789 -0.00942
C 25.75023 27.62794 -0.02815
C 24.54654 28.34523 0.00622
C 24.58629 29.82378 -0.0032
C 25.83068 30.52756 -0.00037
C 25.88134 31.96384 -0.01654
C 24.60245 32.71933 -0.00218
C 22.15223 34.06158 -0.00802
C 23.36654 0.69845 0.00195
C 23.39615 2.15372 0.00996
C 22.24092 2.8658 0.04306
C 21.26879 16.30516 0.00367
C 22.02082 19.9668 -0.01679
C 22.28067 21.30255 -0.01052
C 23.62987 22.02208 0.00684
C 23.27911 23.40714 -0.01154
C 22.24065 24.15244 -0.0264
C 28.26686 30.54435 0.00235
C 27.07825 29.77681 0.01495
C 27.03661 28.31302 0.01259
C 28.21858 27.60331 0.01799
C 30.52453 9.45138 0.0103
C 30.53299 10.94175 0.07705
C 29.14216 11.58473 0.01908
C 30.44498 21.91924 0.01518
C 30.55543 23.37198 -0.00971
C 29.34086 24.10943 -0.03735
C 29.42564 25.46961 -0.00944
C 30.70943 26.27215 -0.02155
C 30.69915 27.7573 -0.01461
C 29.46446 28.44294 -0.01303
C 29.54207 29.88821 -0.0405
C 30.75081 30.59268 0.01705
C 30.79387 32.06323 0.0101
C 29.56381 32.74298 -0.00669
C 29.35019 7.16589 0.00716
C 27.06602 0.02745 0.03531
C 28.30342 2.18105 -0.03039
C 27.03832 2.89137 -0.01415
C 27.07151 4.34557 -0.01854
C 28.25866 5.00445 -0.02049
C 28.10161 6.3661 0.03265
C 27.0256 7.25894 0.00261
C 26.89889 8.43411 0.02326
C 28.10737 9.31553 0.00924
C 28.09796 10.6428 0.0014
C 27.51211 11.99623 0.01324
C 28.20034 23.24255 0.04266
C 26.98817 24.03065 0.01177
C 27.00256 25.47144 -0.00416
C 28.24018 26.15497 0.01699
C 28.36212 0.7911 0.01836
C 2.56189 32.76818 0.01877
