363
Graphene
C 34.38295 0.02508 0.01295
C 13.6851 31.99987 -0.03682
C 12.20729 20.10674 0.01965
C 13.59262 17.89695 0.02058
C 12.38223 17.16555 -0.01957
C 12.31973 15.68144 -0.0108
C 13.54685 14.94823 -0.00368
C 13.54051 13.52151 -0.02696
C 12.31866 12.76147 -0.00114
C 12.39892 32.4645 0.00052
C 12.31427 11.3349 0.00228
C 13.58767 9.19121 0.00422
C 12.40019 8.52086 0.0351
C 12.33585 7.0882 -0.03113
C 13.59211 6.37688 0.02098
C 13.51901 4.85625 0.01848
C 12.28135 4.19123 -0.00619
C 12.23577 2.77189 -0.02162
C 13.49497 2.00613 0.00889
C 13.555 10.63007 0.00798
C 9.80487 34.00206 0.00374
C 11.04101 0.54894 -0.02813
C 10.96131 2.03579 -0.01952
C 9.68929 24.3339 -0.01789
C 9.6451 21.31143 0.00444
C 9.86327 19.95336 -0.00925
C 11.10362 19.25318 0.01877
C 11.14417 17.79073 0.01363
C 9.92519 17.04139 -0.02162
C 9.94138 15.68304 0.00415
C 11.15023 14.97271 -0.0014
C 11.09062 13.55847 0.02162
C 9.80472 12.90348 0.0076
C 9.85355 11.53592 0.01241
C 11.06439 10.61686 -0.01454
C 11.10168 9.29125 0.01945
C 9.9051 8.54265 0.01416
C 9.90895 7.00038 0.03542
C 11.14958 6.34239 0.02299
C 11.06136 4.89179 0.00244
C 9.80106 4.14646 -0.01717
C 9.74203 2.7623 0.05265
C 13.51714 0.54071 -0.00481
C 12.26622 33.82702 0.00979
C 14.83873 32.69567 0.01443
C 14.75053 17.07285 0.03505
C 18.48378 9.22151 0.03754
C 17.24164 8.53223 0.01739
C 17.23682 7.16983 0.00755
C 18.39825 6.39357 -0.0054
C 18.38487 4.96646 0.00667
C 17.15387 4.23919 0.00143
C 17.09377 2.82756 -0.017
C 18.35578 2.10266 0.00364
C 18.40165 0.56446 -0.00831
C 17.11591 0.05855 -0.02957
C 20.1013 17.0178 -0.04422
C 19.75942 15.7329 0.00654
C 20.90214 14.81067 -0.00703
C 20.86159 13.4339 -0.04076
C 19.63216 12.80969 -0.00652
C 19.7097 11.33241 0.0058
C 20.90583 10.53897 -0.00865
C 20.92181 9.12836 0.00675
C 19.66698 8.43598 -0.00311
C 18.4347 10.63733 -0.03557
C 9.60794 25.59378 0.02894
C 17.23468 11.43166 -0.00111
C 18.46659 13.51956 0.01452
C 14.78618 15.6776 -0.02815
C 15.98765 14.93852 -0.04147
C 15.89934 13.57336 -0.05302
C 14.70324 12.82257 0.00213
C 14.72797 11.40769 -0.00066
C 15.94972 10.68625 -0.00289
C 16.0032 9.26253 0.00028
C 14.86249 8.46382 -0.02213
C 14.84908 7.1323 0.03698
C 16.07537 6.42126 -0.00109
C 15.96365 5.01234 -0.00491
C 14.68798 4.23013 0.03338
C 14.66008 2.80369 -0.0258
C 15.88069 2.1472 -0.0331
C 15.95731 0.74878 -0.00316
C 14.78851 34.0406 0.02188
C 16.94868 17.06518 -0.01979
C 17.20334 15.68726 0.02691
C 18.46863 15.03322 -0.01581
C 17.2045 12.84116 0.04892
C 19.64278 7.04694 0.00742
C 9.6252 28.37515 -0.02971
C 11.05653 30.44753 0.02819
C 3.63976 5.06614 -0.01378
C 2.39832 4.27821 0.02635
C 2.41373 2.85301 0.0127
C 3.71114 2.1479 0.01396
C 3.62072 0.75555 0.01849
C 2.40664 34.07765 -0.01142
C 4.84238 32.69797 -0.00562
C 6.09029 32.02345 -0.00494
C 3.70991 6.46735 -0.01303
C 6.08307 30.67389 0.00054
C 4.90318 28.48247 -0.00095
C 6.06856 27.83458 0.01572
C 6.10605 26.38016 -0.04848
C 4.95929 25.58099 -0.00892
C 4.90991 24.18737 -0.01362
C 6.12681 23.43725 -0.0008
C 6.10579 21.97803 0.0288
C 4.93422 21.3022 0.00393
C 4.87578 29.88881 0.03007
C 2.44684 7.14246 0.00848
C 2.41934 8.56563 -0.00049
C 3.67271 9.30656 0.00873
C 3.60568 30.57515 -0.00643
C 2.37887 29.85017 0.017
C 2.44719 28.3736 -0.03113
C 3.70048 27.70608 -0.02566
C 3.66916 26.30538 -0.00094
C 2.3898 25.67447 0.02322
C 2.45461 24.20644 -0.00725
C 3.68499 23.46291 -0.05697
C 3.7178 22.06255 0.01087
C 2.49417 21.37261 -0.01343
C 2.51195 19.8893 0.00988
C 3.66807 19.16167 0.0276
C 3.66846 17.73381 0.01305
C 2.41313 17.01193 -0.00077
C 2.39312 15.6097 0.03368
C 3.75943 15.11079 -0.02929
C 2.43178 12.89458 -0.00966
C 2.50236 11.51241 -0.03337
C 3.66373 10.72246 0.01227
C 4.94723 19.88997 0.00895
C 6.1515 19.08192 0.00685
C 6.19326 17.52632 0.02888
C 4.93681 17.04173 -0.00482
C 7.32246 21.32345 -0.00033
C 7.41694 19.90465 0.03589
C 8.66981 19.22649 -0.02759
C 8.67376 17.75062 0.0402
C 7.4828 17.06341 0.00572
C 7.43971 11.45482 0.03592
C 8.688 10.73069 0.00406
C 8.70991 9.29684 0.00943
C 7.40857 8.66574 0.02841
C 7.49131 7.11606 -0.01111
C 8.72549 6.3175 -0.01275
C 8.61735 4.95649 0.00985
C 7.33117 4.26325 -0.02245
C 7.30859 2.82279 -0.00428
C 8.53078 2.1491 0.03101
C 8.53317 0.72122 -0.01536
C 7.28182 0.04388 -0.02689
C 9.88636 32.59112 -0.01046
C 11.10737 31.82879 -0.00891
C 8.51288 22.08143 -0.01062
C 9.93689 29.66247 0.00165
C 8.51616 23.47411 0.01364
C 7.32924 25.65304 0.01641
C 4.88666 11.2972 -0.01384
C 6.20767 10.88039 0.03693
C 6.17423 9.34712 0.01745
C 4.93827 8.57763 0.00488
C 4.92797 7.15459 -0.01004
C 6.2705 6.46003 -0.02896
C 6.16712 5.04338 -0.00131
C 4.91308 4.34308 -0.01118
C 4.93028 2.95073 -0.014
C 6.0701 2.156 0.02147
C 6.03007 0.76453 0.00373
C 4.87832 0.05447 -0.00191
C 7.37735 32.70639 0.00438
C 8.55645 31.94758 0.01291
C 8.57075 30.53191 0.00093
C 7.28997 29.8945 0.00057
C 7.282 28.50178 -0.01634
C 8.42888 27.78417 -0.00334
C 8.47483 26.4431 0.02339
C 7.38337 24.18138 -0.00719
C 3.63139 32.01528 0.0086
C 20.91684 6.33092 -0.01594
C 19.66669 4.21621 -0.01154
C 29.49715 34.074 0.00346
C 31.94132 32.71616 0.01713
C 33.19705 31.97724 -0.01694
C 33.16144 30.51452 0.01428
C 31.91161 29.87797 -0.02142
C 31.88373 28.44847 0.0544
C 33.13875 27.67385 0.00026
C 33.12907 26.25803 0.00682
C 30.72458 0.72956 0.00307
C 31.89181 25.60092 -0.01779
C 33.15259 23.43888 0.01927
C 33.24797 22.00842 0.01574
C 32.01387 21.23761 -0.02383
C 32.0139 19.84234 -0.01429
C 33.28672 19.19042 -0.0136
C 33.28694 17.75075 0.00594
C 31.9745 17.1037 -0.02474
C 31.927 15.62864 0.00369
C 31.87938 24.15341 0.03794
C 30.67662 2.13566 0.00716
C 29.49673 2.88334 0.02108
C 29.461 4.22892 0.0103
C 29.41543 24.13822 -0.02049
C 30.66768 23.41001 -0.01854
C 30.65537 21.97052 -0.01415
C 29.45406 21.3417 -0.03039
C 29.51322 19.89842 0.01836
C 30.70844 19.2105 0.03531
C 30.74784 17.78584 -0.00669
C 29.50699 17.06937 0.0101
C 29.51297 15.59577 0.01705
C 30.72799 14.88667 -0.0405
C 30.77083 13.53482 -0.01303
C 29.53415 12.79534 -0.01461
C 29.53534 11.31039 -0.02155
C 30.75315 10.55693 -0.00944
C 30.72653 9.23527 -0.03735
C 29.52868 8.52405 -0.00971
C 29.52744 7.13223 0.01518
C 30.74321 6.38914 0.01908
C 30.72757 4.91281 0.07705
C 33.17361 14.92882 0.00455
C 33.16734 13.47986 -0.00644
C 31.93496 12.75367 -0.01839
C 31.9506 11.31514 0.00137
C 0.01507 19.95863 0.01951
C 1.30637 19.17076 -0.01678
C 1.23088 17.74635 0.01223
C 0.07839 17.05248 0.00648
C 34.38461 15.61211 0.02114
C 1.13739 14.83641 -0.02957
C 1.13074 13.47359 0.00343
C 34.31094 12.76241 -0.02656
C 34.40847 11.37705 -0.02442
C 1.25912 10.76126 -0.00027
C 1.23034 9.28216 -0.00583
C 0.00948 8.55185 -0.02302
C 34.38751 7.10048 -0.02849
C 1.23015 6.44449 0.02931
C 1.21092 5.07697 0.00628
C 34.43279 4.32909 -0.0345
C 0.02673 2.89993 -0.00931
C 1.2189 2.13124 -0.00939
C 1.21267 0.71357 -0.00468
C 0.04169 21.35607 -0.02213
C 29.44109 25.59914 0.03265
C 1.23215 22.02641 0.02712
C 34.34227 24.21739 0.03076
C 33.2048 10.61803 0.00199
C 33.18038 9.21123 0.04381
C 31.91185 8.43167 0.02806
C 31.96641 7.06432 0.01504
C 33.23052 6.35314 -0.00069
C 33.14523 4.97456 0.04926
C 31.91966 4.20665 -0.03838
C 31.94258 2.87696 0.00349
C 33.24481 2.19637 -0.00323
C 33.1935 0.78135 -0.00841
C 31.97776 0.12013 0.0001
C 34.40839 32.68583 -0.02927
C 1.20321 31.94306 -0.01404
C 1.21176 30.47877 0.01027
C 34.34334 29.74939 0.01831
C 34.3721 28.41787 -0.01037
C 1.20602 27.66625 -0.00439
C 1.18915 26.29578 -0.00598
C 34.34755 25.5992 -0.05239
C 1.19193 23.49453 0.00723
C 20.89668 4.93874 0.0106
C 30.67075 26.33106 0.00261
C 29.38075 28.39342 0.00924
C 23.34817 0.62257 0.01515
C 22.13483 33.99633 -0.00225
C 24.46494 32.66565 0.00071
C 25.77499 32.05974 -0.01107
C 25.6767 30.63534 -0.01586
C 24.31035 30.11427 -0.01971
C 25.81517 27.40728 -0.02118
C 25.72498 22.03632 0.00733
C 23.36475 2.05821 -0.0055
C 24.6696 19.87378 -0.00178
C 25.72078 17.7085 -0.0276
C 24.50602 17.03026 0.03005
C 24.56236 15.53875 -0.04078
C 25.76656 14.84649 0.02117
C 25.77484 13.43781 0.02737
C 24.56167 12.6963 -0.00498
C 24.58801 11.29916 0.00135
C 25.87495 10.61939 0.03102
C 25.79073 19.13641 0.00768
C 22.05312 2.76982 0.02734
C 22.10209 4.2172 0.01153
C 23.39806 4.85721 0.02239
C 19.61569 2.77698 -0.01721
C 20.83253 2.13772 -0.02422
C 20.94492 0.73185 0.01277
C 19.66818 0.16654 0.00096
C 22.02258 32.61503 -0.01527
C 23.34157 31.9808 0.01087
C 23.50559 19.06968 0.00199
C 23.13564 17.73714 0.01511
C 21.85325 17.00162 -0.00478
C 22.12138 15.54117 -0.01662
C 23.38696 14.84346 -0.01185
C 23.35004 13.40055 0.01126
C 22.04386 12.65776 0.01852
C 22.14934 11.21514 -0.00381
C 23.37422 10.55869 0.03046
C 23.43342 9.13645 0.0296
C 22.15785 8.43287 0.03374
C 22.23724 6.99893 -0.02845
C 23.44996 6.24301 -0.03213
C 25.84798 9.16727 0.02555
C 24.67688 8.38922 0.01423
C 24.69401 6.97638 -0.00285
C 25.92413 6.35332 -0.009
C 28.31815 14.85847 0.00152
C 28.31832 13.4605 0.01257
C 27.01707 12.73788 0.02316
C 27.07719 11.3439 0.04185
C 28.26948 10.61349 0.00194
C 28.30205 9.21599 -0.00621
C 27.09721 8.52399 0.02611
C 27.08693 7.12327 0.02198
C 28.30433 6.4217 0.01094
C 28.31263 4.99768 0.00235
C 27.09552 4.2371 0.01495
C 27.05314 2.89564 0.01259
C 28.26421 2.15763 0.01799
C 28.27563 0.73191 0.01699
C 27.08637 0.05472 -0.00416
C 29.43116 32.68793 0.01177
C 30.75807 32.01027 0.04266
C 30.67005 30.62651 0.01324
C 29.42886 29.87352 0.0014
C 27.03602 15.57895 -0.00294
C 30.66853 27.68974 0.02326
C 27.03661 17.05214 0.00826
C 28.2694 19.22229 -0.00942
C 25.90774 4.90041 -0.01199
C 24.5996 4.1653 -0.00229
C 24.61225 2.77353 -0.00938
C 25.77515 2.14753 -0.0264
C 25.87089 0.74147 -0.01154
C 24.50671 33.97795 0.00684
C 26.99936 32.72487 -0.01052
C 28.17541 31.95875 -0.01679
C 28.06942 30.53216 0.00367
C 26.90075 29.78242 0.04306
C 26.89501 28.32306 0.00996
C 28.17547 27.6722 0.00195
C 28.17863 26.23554 -0.00802
C 27.06723 25.39751 -0.00218
C 26.88441 24.0007 -0.01654
C 28.18172 23.45226 -0.00037
C 28.25117 22.08377 -0.0032
C 27.0088 21.38845 0.00622
C 27.0555 19.89832 -0.02815
C 28.2797 17.81635 0.00487
C 2.37225 32.66019 -0.00518
