400
Graphene
C 34.42655 0.0447 0.01295
C 12.29783 21.36622 0.00165
C 12.28729 19.86155 -0.02971
C 13.46508 19.18351 0.02894
C 13.51662 17.84074 -0.01789
C 12.26835 17.11073 0.00444
C 12.27086 15.70591 -0.00925
C 13.43294 14.87029 0.01877
C 13.37136 13.41549 0.01363
C 12.17986 12.77635 -0.02162
C 12.33682 11.23357 0.00415
C 13.55619 10.57353 -0.0014
C 13.5973 9.17428 0.02162
C 12.40894 8.55985 0.0076
C 13.48876 0.62367 0.01241
C 12.25858 0.15894 -0.01454
C 14.76677 32.65864 0.01945
C 16.00905 31.90872 0.01416
C 15.96432 30.44724 0.03542
C 14.62644 29.78298 0.02299
C 14.76089 28.37854 0.00244
C 15.97203 27.71529 -0.01717
C 13.55798 22.07316 0.02819
C 15.93152 26.30176 0.05265
C 13.49707 23.44159 -0.00891
C 12.32556 25.64179 -0.02689
C 11.03742 23.50288 0.02339
C 11.12417 22.09047 0.01641
C 9.85708 21.36586 -0.00719
C 9.85933 19.95006 0.01364
C 11.00688 19.21545 -0.01062
C 11.11179 17.83962 -0.00033
C 11.12613 14.95769 0.03589
C 11.03142 13.63856 -0.02759
C 9.72667 12.94346 0.0402
C 9.81711 11.42991 0.00572
C 11.08682 10.54761 0.03592
C 11.16232 9.01765 0.00406
C 9.81975 8.48907 0.00943
C 9.79132 0.06536 0.02841
C 12.27906 32.81778 -0.01111
C 13.48952 31.9662 -0.01275
C 13.5354 30.48435 0.00985
C 12.23417 29.82113 -0.02245
C 12.24068 28.35855 -0.00428
C 13.54666 27.65462 0.03101
C 13.55481 26.29241 -0.01536
C 12.27166 24.20918 -0.01046
C 9.80432 24.14324 -0.00334
C 14.76824 25.60728 -0.01952
C 15.98613 23.41151 0.00374
C 18.45664 27.70312 -0.05302
C 18.3997 26.35076 0.00213
C 17.16541 25.62084 -0.00066
C 17.18692 24.17282 -0.00289
C 18.40124 23.5266 0.00028
C 18.44359 22.02082 -0.02213
C 17.30913 21.31563 0.03698
C 17.25176 19.8624 -0.00109
C 18.49811 19.09738 -0.00491
C 18.48564 17.68201 0.03338
C 17.25597 16.96644 -0.0258
C 17.1449 15.57403 -0.0331
C 18.38587 14.83372 -0.00316
C 18.39776 13.43114 0.02188
C 17.12774 12.7724 -0.01979
C 17.20097 11.37813 0.02691
C 18.47155 10.74455 -0.01581
C 18.38443 9.27616 0.01452
C 17.12915 8.51633 0.04892
C 17.16181 7.0646 -0.00111
C 18.37281 6.36486 -0.03557
C 17.19296 28.44195 -0.04147
C 14.71598 24.09355 -0.02813
C 17.21914 29.83911 -0.02815
C 18.50912 31.96957 0.01443
C 16.04937 21.92086 0.00052
C 14.78133 21.2707 -0.03682
C 14.74788 19.85362 0.01965
C 16.0038 19.19294 0.02058
C 15.95691 17.72819 -0.01957
C 14.75716 17.03622 -0.0108
C 14.62919 15.59349 -0.00368
C 15.87789 14.9284 -0.02696
C 15.87717 13.54249 -0.00114
C 14.69513 12.78524 0.00228
C 14.7916 11.35504 0.00798
C 15.94985 10.61047 0.00422
C 15.92681 9.19623 0.0351
C 14.76421 8.43842 -0.03113
C 14.70716 7.02347 0.02098
C 15.83273 6.27693 0.01848
C 15.96817 4.87523 -0.00619
C 16.13282 2.13492 -0.02162
C 16.05141 0.73165 0.00889
C 14.84096 0.03308 -0.00481
C 17.26157 32.6467 0.00979
C 18.47802 30.58211 0.03505
C 18.44632 4.94405 0.03754
C 9.75256 25.51591 -0.01634
C 11.02971 27.66556 0.00093
C 2.42767 4.29664 0.00402
C 2.42254 2.89561 0.0073
C 3.67045 2.22713 0.0174
C 3.69133 0.76772 0.03828
C 2.42203 0.05647 0.01226
C 4.90655 32.65875 -0.00279
C 6.13974 31.96745 0.01996
C 6.08746 30.59102 -0.03996
C 4.90008 29.895 0.01465
C 4.87618 28.45265 -0.00074
C 5.98433 27.69199 -0.00518
C 6.02466 26.30686 0.0086
C 4.8391 25.60151 -0.00643
C 4.93991 24.10253 0.017
C 6.13164 23.48042 -0.03113
C 6.16203 21.9744 -0.02566
C 5.0209 21.24821 -0.00094
C 4.92591 19.84894 0.02322
C 6.19797 19.13229 -0.00725
C 6.16345 17.71807 -0.05697
C 4.83531 16.97121 0.01087
C 3.62836 5.04404 0.02374
C 4.91957 15.66895 -0.01343
C 3.70131 6.42377 0.03267
C 2.43249 8.58259 0.00643
C 3.66836 30.51192 0.0064
C 2.35551 29.78042 0.00211
C 2.3536 28.42231 -0.00449
C 3.58137 27.75657 -0.01979
C 3.67175 26.36673 0.02784
C 2.48852 25.58408 -0.01977
C 2.44176 24.1265 -0.00561
C 3.70165 23.45576 0.00208
C 3.71135 21.9453 0.01707
C 2.44402 21.29707 0.02769
C 2.41776 19.89436 -0.03291
C 3.66145 19.18293 -0.04999
C 3.56558 17.79344 0.04505
C 2.35464 17.00528 0.03284
C 2.44238 15.60656 -0.04307
C 3.72793 14.98883 0.03189
C 3.66192 13.53878 0.00031
C 2.42404 12.78255 -0.003
C 2.48568 11.3842 0.01402
C 3.66094 10.72105 0.02379
C 3.65961 9.26249 0.00907
C 2.47477 7.13631 -0.01509
C 11.07792 26.31078 0.00057
C 6.16909 14.85894 0.00988
C 4.932 12.8241 0.01305
C 8.64653 17.81276 -0.0008
C 7.43054 16.93289 0.0288
C 7.36213 15.46879 0.00393
C 8.48211 13.61951 0.00895
C 7.34809 12.82472 0.00685
C 7.3771 11.34417 0.02888
C 8.61847 10.64849 -0.00482
C 8.68771 9.21136 -0.01384
C 7.35157 8.55067 0.03693
C 7.44278 7.03131 0.01745
C 8.80408 6.56533 0.00488
C 7.3653 4.43905 -0.01004
C 7.426 2.98411 -0.02896
C 8.61111 2.30522 -0.00131
C 8.71723 0.87887 -0.01118
C 7.43217 0.05109 -0.014
C 9.77409 32.68017 0.02147
C 11.12577 32.01726 0.00373
C 11.04791 30.58877 -0.00191
C 9.757 29.8487 0.00438
C 9.85376 28.37395 0.01291
C 8.66228 19.12595 -0.01362
C 6.1415 13.43394 0.0276
C 7.41182 19.87253 -0.00892
C 8.65387 22.01153 0.01572
C 4.93614 11.39448 -0.00077
C 6.09399 10.70521 0.03368
C 6.13729 9.27414 -0.02929
C 4.95525 8.44587 -0.00966
C 4.96526 7.03997 -0.03337
C 6.15924 6.33673 0.01227
C 4.84589 4.29593 0.00873
C 4.90474 2.95229 -0.00049
C 6.06709 2.16589 0.00848
C 6.11933 0.79963 -0.01303
C 4.90907 34.03579 -0.01378
C 7.40049 32.7368 0.02635
C 8.54766 32.0027 0.0127
C 8.54951 30.54851 0.01396
C 7.34269 29.84886 0.01849
C 7.27972 28.42144 -0.01142
C 8.53555 27.7902 -0.00562
C 8.51691 26.26932 -0.00494
C 7.3338 25.60297 0.00054
C 7.37344 24.15075 0.03007
C 8.5968 23.48917 -0.00095
C 7.4414 21.2795 -0.04848
C 17.1901 4.24797 0.01739
C 17.20928 2.88868 0.00755
C 18.40037 2.09527 -0.0054
C 29.48194 11.3372 0.01518
C 30.71521 10.68913 0.01908
C 30.67729 9.27886 0.07705
C 29.53731 8.47641 0.0103
C 29.55643 7.06399 0.02108
C 30.79709 6.37091 0.00716
C 30.68971 4.96432 0.00307
C 29.50729 4.27015 0.00346
C 29.55876 2.87723 0.01713
C 30.73563 2.12872 -0.01694
C 30.78125 0.74711 0.01428
C 29.54377 0.1333 -0.02142
C 31.99985 32.59291 0.0544
C 33.22174 31.87763 0.00026
C 33.24432 30.46311 0.00682
C 31.92078 29.81023 -0.01779
C 33.14532 27.63439 0.03794
C 33.23395 23.39311 0.01927
C 33.04675 22.10413 0.01574
C 31.88412 21.262 -0.02383
C 31.98511 19.95011 -0.01429
C 29.43893 12.76327 -0.00971
C 33.31404 19.19949 -0.0136
C 30.63675 13.46988 -0.03735
C 29.45836 15.62217 -0.02155
C 28.21822 13.4581 -0.00416
C 26.97929 12.77478 0.01177
C 26.96167 11.29467 0.04266
C 28.23244 10.59009 0.01324
C 28.21067 9.22576 0.0014
C 27.04136 8.51678 0.00924
C 27.05748 7.02626 0.02326
C 28.32252 6.36046 0.00261
C 28.29621 4.96716 0.03265
C 26.98949 4.28153 -0.02049
C 27.01482 2.81298 -0.01854
C 28.3057 2.16853 -0.01415
C 28.26703 0.72612 -0.03039
C 27.10976 34.0792 0.01836
C 29.59019 32.74989 0.03531
C 30.78422 31.92566 -0.00669
C 30.87705 30.50844 0.0101
C 29.56973 19.7803 0.01705
C 30.75532 19.15012 -0.0405
C 30.71009 17.74451 -0.01303
C 29.47013 17.11559 -0.01461
C 30.61236 14.88794 -0.00944
C 28.21646 14.89138 0.01699
C 33.19963 17.75874 0.00594
C 31.92309 15.66615 0.00369
C 1.24515 22.05408 0.02712
C 0.01749 21.30482 -0.02213
C 0.00475 19.88571 0.01951
C 1.2717 19.14644 -0.01678
C 1.17898 17.68223 0.01223
C 34.36463 17.04282 0.00648
C 34.36692 15.57535 0.02114
C 1.21107 14.9854 -0.02957
C 1.19238 13.48881 0.00343
C 34.39566 12.78353 -0.02656
C 34.41731 11.34269 -0.02442
C 1.20808 10.61485 -0.00027
C 1.2201 9.21839 -0.00583
C 34.40958 8.4675 -0.02302
C 0.03693 7.05207 -0.02849
C 1.26186 6.45119 0.02931
C 1.17891 5.02023 0.00628
C 34.38143 4.29278 -0.0345
C 34.35262 2.90281 -0.00931
C 1.16339 2.20035 -0.00939
C 1.19445 0.82966 -0.00468
C 1.23404 23.46162 0.00723
C 31.98435 17.01152 -0.02474
C 34.3101 24.25149 0.03076
C 1.1895 26.24726 -0.00598
C 33.12909 14.87648 0.00455
C 33.15168 13.48364 -0.00644
C 31.89906 12.80422 -0.01839
C 31.94845 11.35358 0.00137
C 33.16239 10.69453 0.00199
C 33.08378 9.20723 0.04381
C 31.89452 8.50607 0.02806
C 31.99658 7.0576 0.01504
C 33.19158 6.36501 -0.00069
C 33.16779 5.01091 0.04926
C 31.95246 4.16538 -0.03838
C 31.9583 2.76233 0.00349
C 33.21538 2.15959 -0.00323
C 33.21767 0.6937 -0.00841
C 31.94551 0.01063 0.0001
C 0.06388 32.70781 -0.02927
C 1.25082 31.91746 -0.01404
C 1.24957 30.50954 0.01027
C 0.0046 29.78218 0.01831
C 34.3761 28.3121 -0.01037
C 1.14723 27.62485 -0.00439
C 34.41049 25.62318 -0.05239
C 26.93059 15.63073 0.01799
C 26.9442 17.00704 0.01259
C 28.25276 17.76292 0.01495
C 19.57152 8.51083 0.00199
C 19.62279 7.11341 0.01511
C 20.89775 6.34067 -0.00478
C 20.913 4.9798 -0.01662
C 19.67899 4.28427 -0.01185
C 19.68351 2.86989 0.01126
C 20.88532 2.18843 0.01852
C 20.95157 0.69558 -0.00381
C 19.75099 0.02115 0.03046
C 22.22462 32.61154 0.0296
C 23.46158 31.91863 0.03374
C 23.47007 30.4811 -0.02845
C 22.24844 29.75345 -0.03213
C 22.133 28.3645 0.02239
C 23.43874 27.63566 0.01153
C 23.28991 26.21856 0.02734
C 22.133 25.54689 -0.0055
C 22.13897 24.09716 0.01515
C 23.36248 23.33712 -0.00225
C 23.55222 21.9966 0.00071
C 22.21086 21.36169 -0.01107
C 20.78493 9.15814 0.01087
C 22.1661 19.95714 -0.01586
C 20.98205 10.59411 -0.01527
C 19.727 12.80539 0.01277
C 18.48781 0.7355 0.00667
C 17.29123 34.04935 0.00143
C 19.75093 32.64016 -0.017
C 20.98552 31.8765 0.00364
C 20.90918 30.55487 -0.00831
C 19.67076 29.86836 -0.02957
C 19.64929 28.45071 -0.04422
C 20.91462 27.65816 0.00654
C 20.91742 26.31521 -0.00703
C 19.64432 25.60835 -0.04076
C 19.68386 24.16477 -0.00652
C 20.91876 23.46423 0.0058
C 20.94154 22.04282 -0.00865
C 19.72773 21.29485 0.00675
C 19.70611 19.91664 -0.00311
C 20.9407 19.18853 0.00742
C 20.9498 17.79806 -0.01594
C 19.71585 17.00273 0.0106
C 19.70385 15.55322 -0.01154
C 20.87116 14.90368 -0.01721
C 20.92495 13.56293 -0.02422
C 19.6766 11.3745 0.00096
C 23.42866 19.22399 -0.01971
C 23.35864 17.83961 -0.02118
C 22.18164 17.08369 0.00733
C 24.52431 15.66282 -0.00802
C 25.73143 14.90032 -0.00218
C 25.75678 13.47737 -0.01654
C 24.52628 12.71359 -0.00037
C 24.49638 11.2986 -0.0032
C 25.82945 10.57924 0.00622
C 25.78417 9.12549 -0.02815
C 24.52865 8.4946 -0.00942
C 24.54924 7.13964 0.00487
C 25.80447 6.36815 0.00826
C 25.79131 4.96274 -0.00294
C 24.57099 4.26016 0.00152
C 24.57036 2.77115 0.01257
C 25.79237 2.12081 0.02316
C 25.82416 0.64982 0.04185
C 24.60871 34.07172 0.00194
C 27.14043 32.68224 -0.00621
C 28.34049 31.96302 0.02611
C 28.31176 30.67856 0.02198
C 27.01147 19.73092 0.01094
C 28.27401 19.29544 0.00235
C 24.51527 17.0707 0.00195
C 25.75694 17.71911 0.00996
C 25.75829 19.14876 0.04306
C 24.61085 19.93039 0.00367
C 22.10178 15.61909 -0.00178
C 23.30104 14.85058 0.00768
C 23.31252 13.46949 -0.0276
C 22.07008 12.7304 0.03005
C 22.12259 11.35253 -0.04078
C 23.32561 10.62618 0.02117
C 23.26437 9.19422 0.02737
C 22.01727 8.45014 -0.00498
C 22.07458 7.04928 0.00135
C 23.2965 6.42875 0.03102
C 3.70062 31.91807 -0.00039
C 23.39432 4.97808 0.02555
C 22.04869 2.84494 -0.00285
C 23.34252 2.12039 -0.009
C 23.36861 0.73144 -0.01199
C 22.20068 33.98186 -0.00229
C 24.65708 32.58658 -0.00938
C 25.9079 31.92482 -0.0264
C 26.00842 30.58681 -0.01154
C 24.84567 29.71779 0.00684
C 24.40351 28.4623 -0.01052
C 24.66821 21.28554 -0.01679
C 22.17625 4.25728 0.01423
C 2.49866 32.69462 0.02728
