394
Graphene
C 34.41857 34.04508 0.01295
C 11.07616 0.78056 -0.00925
C 9.79648 0.05843 0.01877
C 12.25471 32.72149 0.01363
C 13.50711 31.92173 -0.02162
C 13.45467 30.56998 0.00415
C 12.20224 29.90388 -0.0014
C 12.19285 28.44825 0.02162
C 13.43147 27.80546 0.0076
C 13.5953 26.34958 0.01241
C 10.99996 2.23215 0.00444
C 12.3697 25.6199 -0.01454
C 12.2401 21.14525 0.01416
C 12.26174 19.99443 0.03542
C 12.34911 17.04911 0.02299
C 12.25799 15.7171 0.00244
C 13.485 14.89156 -0.01717
C 13.58425 13.45532 0.05265
C 12.31038 12.81105 -0.01952
C 12.32488 11.32788 -0.02813
C 13.47732 10.57591 0.00374
C 12.21037 24.21815 0.01945
C 9.80061 2.93645 -0.01789
C 9.89958 4.38569 0.02894
C 11.08783 5.02563 -0.02971
C 11.0523 27.74715 -0.00033
C 10.9789 26.2817 0.03589
C 9.74673 25.59224 -0.02759
C 9.76792 24.19302 0.0402
C 10.98991 23.50289 0.00572
C 11.00103 22.04506 0.03592
C 9.83163 21.28981 0.00406
C 9.84758 19.92496 0.00943
C 10.99212 19.10649 0.02841
C 11.01746 17.78542 -0.01111
C 9.8815 17.00498 -0.01275
C 9.92196 15.62923 0.00985
C 11.11832 14.92798 -0.02245
C 11.18116 13.4961 -0.00428
C 9.86401 12.71705 0.03101
C 9.82603 11.39465 -0.01536
C 11.04063 10.65585 -0.02689
C 11.05208 9.24429 -0.01046
C 9.83784 8.56006 -0.00891
C 9.75874 7.1314 0.02819
C 11.03534 6.40655 0.00165
C 13.53913 9.1593 0.00052
C 9.80071 28.5283 -0.01062
C 12.30473 8.46983 -0.03682
C 13.57224 6.30388 0.02058
C 14.70198 2.87126 0.00028
C 15.95324 2.23712 -0.02213
C 15.97498 0.7573 0.03698
C 14.77808 34.06256 -0.00109
C 17.18461 32.82414 -0.00491
C 17.16835 27.67481 0.03338
C 18.28345 28.62085 -0.0258
C 18.39284 13.38445 -0.0331
C 17.23078 12.6506 -0.00316
C 14.69186 4.29572 -0.00289
C 17.27382 11.18352 0.02188
C 18.46603 9.2251 0.02691
C 17.23577 8.54104 -0.01581
C 17.19707 7.07254 0.01452
C 18.42669 6.35921 0.04892
C 18.46691 5.00557 -0.00111
C 17.19681 4.24469 -0.03557
C 17.20423 2.82778 0.03754
C 18.40848 2.11232 0.01739
C 18.45051 0.68883 0.00755
C 18.49112 10.64066 -0.01979
C 15.97483 4.91484 -0.00066
C 16.00332 6.38216 0.00213
C 14.82522 7.07886 -0.05302
C 13.48383 5.00924 -0.01957
C 12.34938 4.28274 -0.0108
C 12.26581 2.8924 -0.00368
C 13.5005 2.1405 -0.02696
C 13.52017 0.7206 -0.00114
C 12.26973 0.06241 0.00228
C 14.82438 32.64272 0.00798
C 16.13149 31.8866 0.00422
C 15.88658 30.47052 0.0351
C 14.64907 29.83646 -0.03113
C 14.69867 28.41328 0.02098
C 15.75992 27.44747 0.01848
C 15.06985 25.91347 -0.00619
C 14.77284 15.28411 -0.02162
C 15.84051 14.69252 0.00889
C 15.97284 13.2967 -0.00481
C 14.75443 12.72436 0.00979
C 14.79111 11.30335 0.01443
C 15.95926 10.53879 0.03505
C 15.98581 9.12021 -0.02815
C 14.78765 8.46268 -0.04147
C 12.31156 7.08633 0.01965
C 9.77483 29.86137 0.01364
C 10.95272 30.56052 -0.00719
C 11.03683 31.95445 0.01641
C 2.37137 4.3378 0.01996
C 2.40982 2.78538 -0.03996
C 3.62819 2.13599 0.01465
C 3.63563 0.72129 -0.00074
C 2.44997 34.07442 -0.00518
C 4.95102 32.76165 0.0086
C 6.14294 32.03855 -0.00643
C 6.1205 30.52405 0.017
C 4.90307 29.86054 -0.03113
C 3.56697 5.04465 -0.00279
C 4.91136 28.45095 -0.02566
C 6.06643 26.3125 0.02322
C 4.8268 25.64659 -0.00725
C 4.82564 24.17842 -0.05697
C 6.03806 23.45301 0.01087
C 6.10567 22.02901 -0.01343
C 4.8929 21.2888 0.00988
C 4.8552 19.87833 0.0276
C 6.12629 19.18569 0.01305
C 6.22271 17.71321 -0.00077
C 6.15978 27.68816 -0.00094
C 3.64565 6.44259 0.01226
C 2.42007 7.15565 0.03828
C 2.38454 8.50205 0.0174
C 3.70952 30.5674 -0.00561
C 2.4704 29.79508 0.00208
C 2.40309 28.38263 0.01707
C 3.60554 27.72841 0.02769
C 3.65422 26.35847 -0.03291
C 2.38731 25.55565 -0.04999
C 2.44839 24.21499 0.04505
C 3.63314 23.46718 0.03284
C 3.62122 22.03772 -0.04307
C 2.49064 21.36592 0.03189
C 2.50678 19.9399 0.00031
C 3.62599 19.10483 -0.003
C 3.63705 17.66719 0.01402
C 2.45984 16.93964 0.02379
C 2.46974 15.5611 0.00907
C 3.64198 14.85471 0.00643
C 3.63852 13.51298 -0.01509
C 2.48462 12.84665 0.03267
C 2.4141 11.35912 0.02374
C 3.62626 10.71302 0.00402
C 3.62475 9.3019 0.0073
C 4.83295 16.95864 0.03368
C 4.92612 15.55578 -0.02929
C 6.13644 14.88883 -0.00966
C 6.14008 13.53751 -0.03337
C 7.40596 19.82464 0.02888
C 8.64678 19.1906 -0.00482
C 8.66065 17.82978 -0.01384
C 7.43193 16.99835 0.03693
C 7.39647 15.59742 0.01745
C 8.65434 14.88641 0.00488
C 8.67988 13.47249 -0.01004
C 7.42755 12.76693 -0.02896
C 7.39874 11.40458 -0.00131
C 8.60511 10.69962 -0.01118
C 8.57783 9.28 -0.014
C 7.30002 8.56431 0.02147
C 7.29545 7.19304 0.00373
C 8.48081 6.45392 -0.00191
C 8.62186 5.00539 0.00438
C 7.31904 4.4317 0.01291
C 7.36852 2.9629 0.00093
C 8.58528 2.29706 0.00057
C 8.58224 0.79463 -0.01634
C 7.3228 0.14067 -0.00334
C 9.83814 32.74883 0.02339
C 7.42573 21.36397 0.00685
C 17.19948 0.085 -0.0054
C 8.60614 22.05858 0.00895
C 7.3359 24.17581 0.0288
C 4.88911 12.81981 0.01227
C 4.90347 11.35672 0.00873
C 6.1105 10.66808 -0.00049
C 6.09043 9.23442 0.00848
C 4.8899 8.59646 -0.01303
C 4.90923 7.18324 -0.01378
C 6.10334 6.54379 0.02635
C 6.05913 5.05662 0.0127
C 4.81464 4.31973 0.01396
C 4.87968 2.9302 0.01849
C 6.14161 2.20227 -0.01142
C 6.09691 0.83244 -0.00562
C 4.91046 0.01587 -0.00494
C 7.33685 32.76544 0.00054
C 8.57025 32.08778 0.03007
C 8.57213 30.68104 -0.00095
C 7.35164 29.96535 0.01572
C 7.34967 28.46694 -0.04848
C 8.59227 27.74447 -0.00892
C 8.53941 26.27106 -0.01362
C 7.34841 25.60895 -0.0008
C 8.52588 23.47144 0.00393
C 20.90169 32.05124 0.00667
C 20.87922 30.64275 0.00143
C 19.6241 27.98958 -0.017
C 30.66349 6.4024 0.01908
C 30.75568 4.91522 0.07705
C 29.4779 4.29363 0.0103
C 29.48343 2.78145 0.02108
C 30.73425 2.09959 0.00716
C 30.75311 0.67726 0.00307
C 29.45264 0.03348 0.00346
C 31.93174 32.69042 0.01713
C 33.1231 31.90251 -0.01694
C 29.48335 7.11798 0.01518
C 33.15447 30.55096 0.01428
C 31.96031 28.44128 0.0544
C 33.1564 27.74737 0.00026
C 33.17952 26.30047 0.00682
C 31.93131 25.57162 -0.01779
C 31.98117 24.17164 0.03794
C 33.22414 23.45483 0.01927
C 33.24367 21.94845 0.01574
C 32.01918 21.27873 -0.02383
C 31.99383 19.87816 -0.01429
C 31.96123 29.83672 -0.02142
C 29.47614 8.55229 -0.00971
C 30.70456 9.28015 -0.03735
C 30.69004 10.6447 -0.00944
C 29.4445 32.64973 0.01177
C 30.65174 31.98517 0.04266
C 30.73497 30.49411 0.01324
C 29.47662 29.84736 0.0014
C 29.49745 28.39285 0.00924
C 30.75038 27.70967 0.02326
C 30.74681 26.33619 0.00261
C 29.55298 25.57018 0.03265
C 29.60786 24.10053 -0.02049
C 30.75387 23.35779 -0.01854
C 30.6834 21.98792 -0.01415
C 29.49058 21.23218 -0.03039
C 29.48899 19.8344 0.01836
C 30.70708 19.13944 0.03531
C 30.65009 17.78014 -0.00669
C 29.43036 17.03027 0.0101
C 29.48131 15.6847 0.01705
C 30.71198 14.93557 -0.0405
C 30.70859 13.55524 -0.01303
C 29.44509 12.78096 -0.01461
C 29.40714 11.34039 -0.02155
C 33.18436 19.08619 -0.0136
C 33.193 17.73562 0.00594
C 31.906 17.10531 -0.02474
C 31.9021 15.65289 0.00369
C 1.23081 22.00356 0.02712
C 34.43186 21.30339 -0.02213
C 0.03891 19.91584 0.01951
C 1.31211 19.21567 -0.01678
C 1.30294 17.7628 0.01223
C 0.00956 17.02623 0.00648
C 0.02304 15.58125 0.02114
C 1.18763 14.87884 -0.02957
C 1.19659 13.52108 0.00343
C 34.43015 12.8056 -0.02656
C 34.3925 11.41822 -0.02442
C 1.17395 10.62753 -0.00027
C 1.1416 9.26486 -0.00583
C 34.3699 8.53752 -0.02302
C 34.37136 7.10746 -0.02849
C 1.18231 6.4356 0.02931
C 1.19941 5.00615 0.00628
C 0.00626 4.28786 -0.0345
C 34.35657 2.84765 -0.00931
C 1.17705 2.08125 -0.00939
C 1.23573 0.65162 -0.00468
C 1.20503 23.45022 0.00723
C 27.06909 0.01523 -0.00416
C 34.40017 24.18046 0.03076
C 1.19339 26.31261 -0.00598
C 33.09853 14.89607 0.00455
C 33.14692 13.50154 -0.00644
C 31.89291 12.79051 -0.01839
C 31.89394 11.35919 0.00137
C 33.1469 10.6972 0.00199
C 33.17618 9.23149 0.04381
C 31.98334 8.50297 0.02806
C 31.91336 7.11029 0.01504
C 33.18197 6.36306 -0.00069
C 33.27473 4.97988 0.04926
C 31.98426 4.24987 -0.03838
C 31.95258 2.82684 0.00349
C 33.18849 2.10705 -0.00323
C 33.146 0.64597 -0.00841
C 31.95648 0.02267 0.0001
C 34.41022 32.59956 -0.02927
C 1.23436 31.87609 -0.01404
C 1.25683 30.50897 0.01027
C 0.00074 29.83244 0.01831
C 34.34379 28.43551 -0.01037
C 1.16042 27.74973 -0.00439
C 34.40297 25.58296 -0.05239
C 3.70354 31.99403 -0.01977
C 28.2931 0.68525 0.01699
C 26.98552 2.86553 0.01259
C 22.11481 11.32924 -0.01662
C 23.36607 10.56523 -0.01185
C 23.37454 9.24739 0.01126
C 22.06529 8.54522 0.01852
C 22.09146 7.11583 -0.00381
C 23.39638 6.32172 0.03046
C 23.30578 4.93843 0.0296
C 22.10378 4.22843 0.03374
C 22.13757 2.77774 -0.02845
C 22.14294 12.73908 -0.00478
C 23.33586 2.06239 -0.03213
C 22.12525 0.01474 0.01153
C 24.57916 32.60881 0.02734
C 25.86735 31.95 -0.0055
C 25.82078 30.51018 0.01515
C 24.54693 29.8478 -0.00225
C 24.59271 28.40851 0.00071
C 25.82826 27.56805 -0.01107
C 25.79702 26.18334 -0.01586
C 24.37647 25.48628 -0.01971
C 23.31958 0.6596 0.02239
C 23.414 13.45636 0.01511
C 23.25068 14.78264 0.00199
C 23.27145 26.26624 0.01087
C 20.87906 27.86813 0.00364
C 21.08593 13.48389 -0.00831
C 19.74927 12.88459 -0.02957
C 19.66547 11.4177 -0.04422
C 20.8614 10.69741 0.00654
C 20.88621 9.2042 -0.00703
C 19.7107 8.43223 -0.04076
C 19.67706 7.06676 -0.00652
C 20.90473 6.46532 0.0058
C 20.8825 4.93409 -0.00865
C 19.66562 4.26166 0.00675
C 19.68208 2.8322 -0.00311
C 20.85333 2.16012 0.00742
C 20.86385 0.65541 -0.01594
C 19.71338 0.0085 0.0106
C 22.1773 32.72735 -0.01154
C 23.38608 31.92861 -0.01721
C 23.31282 30.58809 -0.02422
C 22.07555 29.99558 0.01277
C 22.1854 28.50718 0.00096
C 23.38591 27.77313 -0.01527
C 24.88747 24.28745 -0.02118
C 25.87372 23.36522 0.00733
C 25.79934 21.95972 -0.00178
C 25.8048 19.31362 0.00768
C 27.04675 25.45779 -0.00218
C 27.1371 24.02519 -0.01654
C 28.30021 23.40562 -0.00037
C 28.31702 22.01583 -0.0032
C 27.07319 21.30785 0.00622
C 27.01226 19.86847 -0.02815
C 28.28283 19.16855 -0.00942
C 28.21927 17.76513 0.00487
C 26.92036 17.15199 0.00826
C 26.89553 15.67077 -0.00294
C 28.13521 14.93121 0.00152
C 28.30329 13.55014 0.01257
C 27.03349 12.84831 0.02316
C 27.09217 11.33765 0.04185
C 28.25289 10.61908 0.00194
C 28.19237 9.19973 -0.00621
C 26.98532 8.43703 0.02611
C 26.97912 7.07599 0.02198
C 28.24355 6.34281 0.01094
C 28.27082 5.01204 0.00235
C 27.03405 4.28881 0.01495
C 28.3239 26.19012 -0.00802
C 28.31356 2.2002 0.01799
C 28.3257 27.61838 0.00195
C 26.99185 29.72576 0.04306
C 25.61107 17.80028 -0.0276
C 24.4874 17.04966 0.03005
C 24.3795 15.61392 -0.04078
C 25.61355 14.91291 0.02117
C 25.75509 13.48999 0.02737
C 24.53038 12.72537 -0.00498
C 24.55975 11.27991 0.00135
C 25.85897 10.54215 0.03102
C 25.78264 9.17786 0.02555
C 24.57779 8.47629 0.01423
C 24.55845 7.06254 -0.00285
C 25.7628 6.33733 -0.009
C 25.8094 4.93238 -0.01199
C 24.59731 4.19868 -0.00229
C 24.61144 2.79144 -0.00938
C 25.83978 2.07628 -0.0264
C 25.77423 0.68957 -0.01154
C 24.55357 34.06638 0.00684
C 27.03953 32.67837 -0.01052
C 28.2804 31.94031 -0.01679
C 28.30847 30.53762 0.00367
C 27.08548 28.3243 0.00996
C 2.46424 32.66377 0.02784
