326
Graphene
C 34.42789 34.05449 0.01295
C 12.27478 4.29608 0.00213
C 12.2967 2.86434 -0.00066
C 13.48604 2.15055 -0.00289
C 13.49645 0.78769 0.00028
C 12.25958 0.08887 -0.02213
C 14.75372 32.63371 0.03698
C 15.9215 31.84699 -0.00109
C 13.59145 4.87058 -0.05302
C 15.96093 30.40548 -0.00491
C 14.80677 28.31971 -0.0258
C 16.05325 27.66885 -0.0331
C 16.0822 26.24707 -0.00316
C 14.7822 25.59489 0.02188
C 14.65462 24.17309 -0.01979
C 16.10661 23.41445 0.02691
C 15.99373 22.10906 -0.01581
C 14.72001 29.72767 0.03338
C 15.94683 10.56192 0.01452
C 13.51877 6.32969 -0.04147
C 12.33892 8.54871 0.03505
C 9.80263 4.20975 -0.00368
C 9.73592 2.88733 -0.02696
C 11.02475 2.21002 -0.00114
C 11.09668 0.8096 0.00228
C 9.84046 0.07556 0.00798
C 12.35025 32.71359 0.00422
C 13.53609 31.99215 0.0351
C 12.32687 7.06879 -0.02815
C 13.55482 30.55329 -0.03113
C 12.34975 28.46628 0.01848
C 13.54163 27.70904 -0.00619
C 13.57023 26.28346 -0.02162
C 12.34508 25.64004 0.00889
C 12.30068 24.08099 -0.00481
C 13.60288 23.35511 0.00979
C 13.40586 9.01509 0.01443
C 12.31188 29.84344 0.02098
C 16.02372 9.19106 0.04892
C 14.7381 8.53355 -0.00111
C 14.7225 7.07466 -0.03557
C 17.27497 8.46153 0.0106
C 17.18871 6.98986 -0.01154
C 18.42762 6.41328 -0.01721
C 18.48129 5.0262 -0.02422
C 17.22863 4.33649 0.01277
C 17.19047 2.93485 0.00096
C 18.41488 2.10333 -0.01527
C 18.46993 9.2534 -0.01594
C 18.41364 0.72706 0.01087
C 19.66512 32.69088 0.01511
C 20.85535 31.89053 -0.00478
C 20.8519 30.55594 -0.01662
C 19.63557 29.85359 -0.01185
C 19.65213 28.47328 0.01126
C 20.90922 27.75257 0.01852
C 20.88219 26.28558 -0.00381
C 17.13024 0.00983 0.00199
C 18.51009 10.6702 0.00742
C 17.0456 11.32489 -0.00311
C 17.36205 12.61295 0.00675
C 15.89468 6.33362 0.03754
C 15.94038 4.96574 0.01739
C 14.76188 4.20408 0.00755
C 14.72028 2.82588 -0.0054
C 15.99386 2.10499 0.00667
C 15.96011 0.74681 0.00143
C 14.76319 34.07184 -0.017
C 17.09002 32.55666 0.00364
C 18.34156 31.98069 -0.00831
C 18.3914 30.58024 -0.02957
C 17.21755 29.76805 -0.04422
C 17.28387 28.36679 0.00654
C 18.49653 27.73191 -0.00703
C 18.45099 26.34031 -0.04076
C 17.26229 25.55345 -0.00652
C 17.321 24.2058 0.0058
C 18.41792 13.36784 -0.00865
C 11.07435 4.94924 -0.0108
C 11.1282 6.33841 -0.01957
C 9.86321 7.20484 0.02058
C 9.79334 8.52473 0.01965
C 3.7272 4.93509 0.01291
C 2.45894 4.20356 0.00093
C 2.40684 2.84224 0.00057
C 3.6883 2.18343 -0.01634
C 3.6356 0.75543 -0.00334
C 2.45238 0.02248 0.02339
C 4.83296 32.6574 0.01641
C 3.66506 6.41498 0.00438
C 6.01941 31.91838 -0.00719
C 4.8483 29.79061 -0.01062
C 4.93663 28.40192 -0.00033
C 6.173 27.70268 0.03589
C 6.18601 26.28328 -0.02759
C 4.96802 25.55973 0.0402
C 4.92548 24.17696 0.00572
C 6.18804 23.36053 0.03592
C 6.10324 30.50072 0.01364
C 2.44469 7.00427 -0.00191
C 2.41917 8.52909 0.00373
C 3.6962 9.23315 0.02147
C 3.67609 30.52005 -0.01362
C 2.45603 29.80149 -0.0008
C 2.42601 28.43493 0.0288
C 3.65011 27.68857 0.00393
C 3.68581 26.34018 0.00895
C 2.47519 25.59675 0.00685
C 2.48767 24.24574 0.02888
C 3.67642 23.50209 -0.00482
C 3.61329 22.07539 -0.01384
C 2.34459 21.34462 0.03693
C 2.43557 19.85776 0.01745
C 3.5863 19.12238 0.00488
C 2.41014 16.9094 -0.01004
C 2.5029 15.72907 -0.02896
C 2.49813 12.78345 -0.00131
C 2.57283 11.45442 -0.01118
C 3.76809 10.63453 -0.014
C 6.0369 21.9904 0.00406
C 19.66752 25.56281 0.03046
C 4.84059 21.63439 0.00943
C 4.95808 8.64827 -0.01111
C 8.57871 5.0074 0.02162
C 7.43406 4.24311 0.0076
C 7.33987 2.77347 0.01241
C 8.58193 2.06867 -0.01454
C 8.53057 0.61685 0.01945
C 7.3375 33.93771 0.01416
C 9.85349 32.72372 0.03542
C 8.62531 6.38853 -0.0014
C 11.02516 32.00989 0.02299
C 9.82759 29.78093 -0.01717
C 9.86293 28.41888 0.05265
C 11.12716 27.7362 -0.01952
C 11.07792 26.30819 -0.02813
C 9.83712 25.63522 0.00374
C 9.82387 24.04989 0.00052
C 11.05019 23.44068 -0.03682
C 11.07308 30.58137 0.00244
C 7.40749 7.12976 0.00415
C 7.28895 8.51034 -0.02162
C 8.52286 23.54973 0.01363
C 4.90709 7.10258 -0.01275
C 6.16145 6.42884 0.00985
C 6.18746 5.00638 -0.02245
C 4.98498 4.27789 -0.00428
C 4.92763 2.83089 0.03101
C 6.14984 2.11564 -0.01536
C 6.07252 0.6058 -0.02689
C 4.82138 34.03494 -0.01046
C 7.26984 32.58723 -0.00891
C 8.57941 32.00263 0.02819
C 8.62396 30.53164 0.00165
C 7.36056 29.81643 -0.02971
C 7.36334 28.45155 0.02894
C 8.63655 27.67863 -0.01789
C 8.63019 26.30167 0.00444
C 7.4149 25.5713 -0.00925
C 7.35614 24.14506 0.01877
C 6.24469 9.13555 0.02841
C 19.78001 24.18529 0.0296
C 20.81533 13.41964 0.03374
C 19.6796 12.81654 -0.02845
C 33.21258 26.31928 0.00682
C 31.97567 25.60853 -0.01779
C 31.95296 24.18493 0.03794
C 33.18867 23.57567 0.01927
C 33.1761 22.12696 0.01574
C 31.99607 21.33671 -0.02383
C 31.98896 19.94448 -0.01429
C 33.21735 27.67284 0.00026
C 33.17627 19.15571 -0.0136
C 32.01407 17.01287 -0.02474
C 31.9075 15.63551 0.00369
C 33.19348 14.93947 0.00455
C 33.16201 13.52849 -0.00644
C 31.94993 12.76363 -0.01839
C 31.7717 11.38318 0.00137
C 33.08904 10.66714 0.00199
C 33.27779 17.72601 0.00594
C 31.9383 28.45696 0.0544
C 31.88926 29.86138 -0.02142
C 33.13091 30.56549 0.01428
C 30.77374 17.75233 -0.0405
C 29.59198 17.07432 -0.01303
C 29.51437 15.57007 -0.01461
C 30.71679 14.87401 -0.02155
C 30.72714 13.48557 -0.00944
C 29.50129 12.94849 -0.03735
C 30.54315 10.58102 -0.00971
C 30.69985 9.34487 0.01518
C 30.75861 6.39992 0.01908
C 30.56232 4.99472 0.07705
C 29.44366 4.25141 0.0103
C 29.50432 2.84011 0.02108
C 30.76547 2.11631 0.00716
C 30.78376 0.66994 0.00307
C 29.53752 34.05321 0.00346
C 32.00887 32.65982 0.01713
C 33.20763 31.93846 -0.01694
C 33.17319 9.22818 0.04381
C 30.78842 19.25473 0.01705
C 31.82862 8.55789 0.02806
C 33.19515 6.46199 -0.00069
C 0.00276 16.98561 0.00648
C 0.08922 15.58793 0.02114
C 1.34552 14.88927 -0.02957
C 1.31126 13.45424 0.00343
C 34.41603 12.85829 -0.02656
C 34.3807 11.39631 -0.02442
C 1.21465 10.65826 -0.00027
C 1.21598 17.74324 0.01223
C 1.2403 9.2379 -0.00583
C 0.03845 7.05463 -0.02849
C 1.27055 6.36705 0.02931
C 1.201 4.9518 0.00628
C 34.38099 4.32283 -0.0345
C 0.01443 2.86949 -0.00931
C 1.18442 2.12814 -0.00939
C 1.2289 0.67963 -0.00468
C 0.02001 8.5359 -0.02302
C 1.10688 19.13191 -0.01678
C 34.39366 19.88958 0.01951
C 34.35781 21.40089 -0.02213
C 33.1475 5.04661 0.04926
C 31.93239 4.24779 -0.03838
C 31.98375 2.77313 0.00349
C 33.25008 2.16157 -0.00323
C 33.26532 0.73319 -0.00841
C 32.00903 34.06867 0.0001
C 0.04701 32.67897 -0.02927
C 1.25422 31.91901 -0.01404
C 1.16602 30.53509 0.01027
C 34.39559 29.82768 0.01831
C 34.38728 28.37452 -0.01037
C 1.22353 27.75331 -0.00439
C 1.26548 26.34126 -0.00598
C 0.03664 25.59656 -0.05239
C 0.07614 24.26621 0.03076
C 1.24034 23.50861 0.00723
C 1.19701 22.06428 0.02712
C 31.86635 7.11929 0.01504
C 3.64378 31.97541 -0.00892
C 29.51944 19.90839 0.0101
C 30.7726 22.02819 0.03531
C 22.02118 4.22574 0.00135
C 22.07596 2.86226 0.03102
C 23.28591 2.15483 0.02555
C 23.38129 0.63073 0.01423
C 22.1416 1e-05 -0.00285
C 24.56661 32.60872 -0.009
C 25.78776 31.91511 -0.01199
C 23.50966 14.93051 -0.00498
C 25.82266 30.45071 -0.00229
C 24.53733 28.35007 -0.0264
C 25.69235 27.61035 -0.01154
C 25.82887 26.18085 0.00684
C 24.5296 25.5948 -0.01052
C 24.45611 24.08441 -0.01679
C 25.78257 23.38807 0.00367
C 25.86733 22.04296 0.04306
C 24.464 29.77488 -0.00938
C 23.14053 23.50203 0.02737
C 22.10331 24.15009 0.02117
C 22.08365 25.55499 -0.04078
C 19.75646 11.29759 -0.03213
C 19.60785 8.56206 0.02239
C 19.6968 7.21603 0.01153
C 20.81503 6.45688 0.02734
C 21.00039 5.1019 -0.0055
C 19.70864 4.26134 0.01515
C 19.64098 2.87588 -0.00225
C 20.86179 2.12278 0.00071
C 20.91154 0.75471 -0.01107
C 19.67925 34.07409 -0.01586
C 22.10227 32.60558 -0.01971
C 23.33612 31.93193 -0.02118
C 23.32285 30.52879 0.00733
C 22.09966 29.84137 -0.00178
C 22.15729 28.41046 0.00768
C 23.31079 27.61493 -0.0276
C 23.33191 26.2173 0.03005
C 25.91563 18.99083 0.00996
C 29.55321 21.33851 -0.00669
C 25.77754 17.81786 0.00195
C 25.79606 15.07852 -0.00218
C 28.26694 14.79452 0.01799
C 28.29753 13.40944 0.01699
C 27.10045 2.79928 -0.00416
C 28.30738 2.14044 0.01177
C 28.2985 0.71689 0.04266
C 27.1119 34.01578 0.01324
C 29.53949 32.658 0.0014
C 27.02353 15.46123 0.01259
C 30.73645 31.96362 0.00924
C 29.46397 29.77608 0.00261
C 29.51559 28.38725 0.03265
C 30.743 27.75254 -0.02049
C 30.72555 26.23778 -0.01854
C 29.54277 25.48097 -0.01415
C 29.46888 24.08337 -0.03039
C 30.73342 23.46715 0.01836
C 30.62039 30.53806 0.02326
C 27.02284 17.00879 0.01495
C 28.27945 17.73326 0.00235
C 28.26607 19.17597 0.01094
C 24.55163 2.69363 -0.01654
C 25.79265 2.25135 -0.00037
C 25.87047 0.63261 -0.0032
C 24.62304 34.05409 0.00622
C 27.07753 32.63423 -0.02815
C 28.2869 31.88546 -0.00942
C 28.2424 30.46142 0.00487
C 26.9955 29.76328 0.00826
C 27.00704 28.29792 -0.00294
C 28.26858 27.66517 0.00152
C 28.25301 26.26988 0.01257
C 27.07088 25.51526 0.02316
C 27.07277 24.12015 0.04185
C 28.24242 23.37387 0.00194
C 28.33481 21.97392 -0.00621
C 27.04148 21.32986 0.02611
C 26.96847 19.90657 0.02198
C 24.65772 15.57506 -0.00802
C 2.50118 32.69008 -0.04848
