355
Graphene
C 34.41967 0.08964 0.01295
C 15.97175 27.68294 -0.00368
C 16.02116 26.32205 -0.02696
C 14.70582 25.54832 -0.00114
C 14.6223 24.06374 0.00228
C 15.89243 23.41755 0.00798
C 15.9516 21.92708 0.00422
C 14.68848 21.28403 0.0351
C 14.64745 19.86241 -0.03113
C 14.72453 28.41036 -0.0108
C 15.92123 19.1532 0.02098
C 16.23636 0.77174 -0.00619
C 14.98275 0.10112 -0.02162
C 17.29049 32.53449 0.00889
C 18.46207 31.77714 -0.00481
C 18.51139 30.37162 0.00979
C 17.15014 29.81569 0.01443
C 17.22279 28.45204 0.03505
C 18.58515 28.07221 -0.02815
C 16.05862 17.8006 0.01848
C 18.66495 26.53123 -0.04147
C 14.74138 29.91075 -0.01957
C 16.06376 32.04207 0.01965
C 9.9469 0.09299 0.00415
C 12.38074 32.83387 -0.0014
C 13.64111 32.09969 0.02162
C 13.48969 30.64809 0.0076
C 12.2275 29.80751 0.01241
C 12.20002 28.46298 -0.01454
C 13.4207 27.72884 0.01945
C 13.50531 26.29138 0.01416
C 15.98744 30.63683 0.02058
C 12.29068 25.60912 0.03542
C 13.46483 23.26939 0.00244
C 13.47632 21.88055 -0.01717
C 12.2701 21.17022 0.05265
C 12.25289 19.72459 -0.01952
C 13.46099 19.154 -0.02813
C 13.65624 0.68854 0.00374
C 12.40709 0.21003 0.00052
C 14.88357 32.77637 -0.03682
C 12.24552 24.0981 0.02299
C 17.27594 25.62339 -0.05302
C 17.16108 24.22388 0.00213
C 18.32341 23.41553 -0.00066
C 20.79511 14.91017 0.00143
C 21.03079 13.50441 -0.017
C 20.72666 6.61835 0.00364
C 20.73566 5.07091 -0.00831
C 19.70005 4.15478 -0.02957
C 19.52341 2.77685 -0.04422
C 20.83421 2.09283 0.00654
C 20.95356 0.72612 -0.00703
C 19.54214 15.62987 0.00667
C 19.73914 33.909 -0.04076
C 23.31099 31.78417 0.0058
C 23.3388 30.40564 -0.00865
C 22.15036 29.62189 0.00675
C 22.02397 24.19906 -0.00311
C 23.28704 23.48799 0.00742
C 23.28048 22.08654 -0.01594
C 22.11964 21.38018 0.0106
C 22.04992 19.93505 -0.01154
C 22.08203 32.49405 -0.00652
C 19.6469 17.03032 -0.0054
C 20.913 17.76569 0.00755
C 20.853 19.20214 0.01739
C 18.37517 21.99787 -0.00289
C 17.12864 21.26342 0.00028
C 17.16045 19.87035 -0.02213
C 18.47727 19.17533 0.03698
C 18.41878 17.7456 -0.00109
C 17.24649 17.09873 -0.00491
C 18.38553 1.93818 0.03338
C 18.54088 0.61652 -0.0258
C 17.31438 34.0455 -0.0331
C 19.67296 32.41382 -0.00316
C 20.84069 31.76709 0.02188
C 20.81854 30.19976 -0.01979
C 19.46666 29.37596 0.02691
C 19.74907 25.53982 -0.01581
C 19.57912 24.10548 0.01452
C 20.81815 23.4103 0.04892
C 20.83423 21.98656 -0.00111
C 19.62366 21.33005 -0.03557
C 19.68645 19.91042 0.03754
C 11.08158 0.94879 -0.02162
C 23.245 19.24961 -0.01721
C 10.89458 19.06031 0.01363
C 9.77993 21.32351 -0.00925
C 2.41189 7.16469 -0.00494
C 3.6393 6.54008 0.00054
C 3.79289 5.10118 0.03007
C 2.51891 4.39514 -0.00095
C 2.44957 2.96423 0.01572
C 3.61653 2.18274 -0.04848
C 3.58496 0.80911 -0.00892
C 2.46434 0.09642 -0.01362
C 2.44472 8.64797 -0.00562
C 4.84088 32.71425 -0.0008
C 6.14765 30.57025 0.00393
C 4.92154 29.90101 0.00895
C 4.94266 28.4855 0.00685
C 6.15631 27.80204 0.02888
C 6.15703 26.3327 -0.00482
C 4.93243 25.65014 -0.01384
C 4.85976 24.18158 0.03693
C 6.10928 23.43386 0.01745
C 6.08917 32.04956 0.0288
C 6.15598 22.00349 0.00488
C 3.59739 9.34552 -0.01142
C 2.41022 11.46143 0.01396
C 3.66598 30.58057 0.01087
C 2.39695 29.88417 -0.01343
C 2.4201 28.45337 0.00988
C 3.72679 27.78696 0.0276
C 3.7019 26.35775 0.01305
C 2.49151 25.53612 -0.00077
C 2.43446 24.12081 0.03368
C 3.67465 23.45895 -0.02929
C 3.64703 10.75954 0.01849
C 3.6535 22.06084 -0.00966
C 2.42904 19.88821 0.01227
C 3.60784 19.14323 0.00873
C 3.71901 17.76013 -0.00049
C 2.44148 17.13015 0.00848
C 2.4008 15.69295 -0.01303
C 3.61482 14.92471 -0.01378
C 3.7234 13.52495 0.02635
C 2.41325 12.80826 0.0127
C 2.49994 21.32163 -0.03337
C 4.92003 21.37816 -0.01004
C 4.82146 19.89082 -0.02896
C 6.00009 19.20642 -0.00131
C 8.54968 19.1816 0.00943
C 8.52212 17.72978 0.02841
C 7.34004 17.11214 -0.01111
C 7.36692 2.90468 -0.01275
C 8.5217 2.11584 0.00985
C 8.5965 0.79426 -0.02245
C 7.39447 0.03831 -0.00428
C 9.86655 32.6679 0.03101
C 7.30826 19.89195 0.00406
C 11.17289 32.1232 -0.01536
C 9.83039 29.87844 -0.01046
C 9.83956 28.46624 -0.00891
C 11.04172 27.75657 0.02819
C 11.04578 26.30892 0.00165
C 9.83956 25.58544 -0.02971
C 9.82061 24.19328 0.02894
C 11.05077 23.40829 -0.01789
C 11.05533 21.94173 0.00444
C 11.14144 30.66641 -0.02689
C 7.39761 21.36814 0.03592
C 8.64504 22.08198 0.00572
C 8.60527 23.49335 0.0402
C 6.02945 17.76354 -0.01118
C 4.90658 17.05371 -0.014
C 4.98919 15.60736 0.02147
C 6.00832 14.71933 0.00373
C 5.014 12.93804 -0.00191
C 4.91158 4.29364 0.00438
C 4.83741 2.91595 0.01291
C 6.14701 2.16615 0.00093
C 6.10865 0.73506 0.00057
C 4.8396 0.04241 -0.01634
C 7.32633 32.73738 -0.00334
C 8.5555 31.97151 0.02339
C 8.54051 30.59318 0.01641
C 7.37072 29.87287 -0.00719
C 7.3724 28.46352 0.01364
C 8.61962 27.76383 -0.01062
C 8.63801 26.32729 -0.00033
C 7.43771 25.62262 0.03589
C 7.38116 24.18926 -0.02759
C 9.80935 19.854 0.01877
C 3.65569 32.02033 -0.05697
C 23.33389 17.76314 -0.02422
C 22.00484 15.55907 0.00096
C 31.95752 32.69309 0.01713
C 33.18348 32.02661 -0.01694
C 33.16647 30.55839 0.01428
C 31.94753 29.86535 -0.02142
C 31.95862 28.48265 0.0544
C 33.20374 27.68037 0.00026
C 33.19967 26.27811 0.00682
C 31.94553 25.55233 -0.01779
C 29.47461 0.00155 0.00346
C 31.96308 24.1356 0.03794
C 33.17819 22.05985 0.01574
C 31.878 21.31832 -0.02383
C 31.92368 19.85858 -0.01429
C 33.20926 19.16517 -0.0136
C 33.17664 17.74615 0.00594
C 31.96687 16.98693 -0.02474
C 31.84867 15.6005 0.00369
C 33.15505 14.92589 0.00455
C 33.17262 23.47795 0.01927
C 33.13917 13.49195 -0.00644
C 30.70637 0.73246 0.00307
C 29.50972 2.73631 0.02108
C 30.64965 22.04454 -0.01415
C 29.4742 21.32602 -0.03039
C 29.4274 19.96575 0.01836
C 30.70317 19.19888 0.03531
C 30.65689 17.73221 -0.00669
C 29.44096 17.04701 0.0101
C 29.43689 15.63542 0.01705
C 30.62288 14.91569 -0.0405
C 30.81138 2.12948 0.00716
C 30.65479 13.49573 -0.01303
C 29.51353 11.33612 -0.02155
C 30.72029 10.60431 -0.00944
C 30.74751 9.15367 -0.03735
C 29.48245 8.54442 -0.00971
C 29.50919 7.07166 0.01518
C 30.72088 6.33929 0.01908
C 30.68735 4.93394 0.07705
C 29.54486 4.20794 0.0103
C 29.49269 12.72557 -0.01461
C 31.9557 12.76853 -0.01839
C 31.85915 11.36519 0.00137
C 33.15418 10.6566 0.00199
C 1.13248 19.20269 -0.01678
C 1.20119 17.82158 0.01223
C 34.37374 17.12633 0.00648
C 34.40193 15.6202 0.02114
C 1.18049 14.96357 -0.02957
C 1.20928 13.54217 0.00343
C 0.03646 12.84064 -0.02656
C 34.31319 11.38297 -0.02442
C 34.37897 19.906 0.01951
C 1.13163 10.61965 -0.00027
C 34.36198 8.52164 -0.02302
C 34.3798 7.12926 -0.02849
C 1.11223 6.40796 0.02931
C 1.29305 4.98498 0.00628
C 0.11257 4.27782 -0.0345
C 0.02067 2.80317 -0.00931
C 1.25569 2.14851 -0.00939
C 1.16592 0.77597 -0.00468
C 1.14232 9.25407 -0.00583
C 34.42968 21.31845 -0.02213
C 1.22566 22.02329 0.02712
C 1.15895 23.44944 0.00723
C 33.17625 9.22618 0.04381
C 31.97159 8.51322 0.02806
C 31.99886 7.02661 0.01504
C 33.22248 6.40379 -0.00069
C 33.27783 4.94481 0.04926
C 31.97133 4.31708 -0.03838
C 31.98608 2.8541 0.00349
C 33.24275 2.16937 -0.00323
C 33.1813 0.78984 -0.00841
C 32.00414 0.03824 0.0001
C 0.04447 32.7163 -0.02927
C 1.27516 32.04014 -0.01404
C 1.207 30.61643 0.01027
C 34.4228 29.89198 0.01831
C 0.00858 28.41605 -0.01037
C 1.18154 27.80263 -0.00439
C 1.21984 26.32348 -0.00598
C 34.40512 25.55366 -0.05239
C 34.39958 24.20856 0.03076
C 30.75746 23.46864 -0.01854
C 22.04565 16.99314 0.01277
C 29.4301 24.24114 -0.02049
C 30.7411 26.34578 0.00261
C 24.63114 25.59323 -0.01107
C 24.54717 24.22203 -0.01586
C 25.77143 23.50023 -0.01971
C 25.65982 22.06156 -0.02118
C 24.49021 21.30394 0.00733
C 24.42457 19.9743 -0.00178
C 25.69809 19.19385 0.00768
C 25.81496 17.74682 -0.0276
C 25.78576 26.24643 0.00071
C 24.59437 17.07181 0.03005
C 25.77331 14.86623 0.02117
C 25.76924 13.4179 0.02737
C 24.52795 12.77097 -0.00498
C 24.66071 11.34447 0.00135
C 25.84233 10.56669 0.03102
C 25.86115 9.17195 0.02555
C 24.62515 8.3829 0.01423
C 24.5436 7.00305 -0.00285
C 24.55593 15.61603 -0.04078
C 25.77907 6.25206 -0.009
C 25.73956 27.71472 -0.00225
C 24.61357 29.77254 -0.0055
C 23.29306 14.84101 -0.01527
C 23.3272 13.45272 0.01087
C 22.07747 12.62028 0.00199
C 22.15126 11.10672 0.01511
C 23.42222 10.66259 -0.00478
C 23.41266 9.17864 -0.01662
C 22.15654 8.5747 -0.01185
C 22.02235 7.2136 0.01126
C 24.58782 28.39285 0.01515
C 23.23162 6.43632 0.01852
C 21.96514 4.32881 0.03046
C 22.06339 2.85072 0.0296
C 23.35267 2.11391 0.03374
C 23.34288 0.71444 -0.02845
C 22.12327 34.03675 -0.03213
C 24.48416 32.51859 0.02239
C 25.79258 31.90351 0.01153
C 25.83741 30.4925 0.02734
C 23.20105 5.05004 -0.00381
C 25.73539 4.89747 -0.01199
C 24.49194 4.26203 -0.00229
C 24.47347 2.83538 -0.00938
C 27.02519 11.28066 0.04185
C 28.28315 10.64403 0.00194
C 28.2556 9.20421 -0.00621
C 27.03424 8.42626 0.02611
C 27.03093 6.97991 0.02198
C 28.2774 6.2928 0.01094
C 28.25161 4.86382 0.00235
C 27.03033 4.22103 0.01495
C 27.03744 12.72423 0.02316
C 26.98384 2.78724 0.01259
C 28.25367 0.6946 0.01699
C 27.06947 34.03976 -0.00416
C 29.52812 32.6708 0.01177
C 30.69546 31.99372 0.04266
C 30.69014 30.53413 0.01324
C 29.45541 29.80176 0.0014
C 29.44976 28.40063 0.00924
C 30.71129 27.75239 0.02326
C 28.25266 2.10756 0.01799
C 28.22202 13.434 0.01257
C 28.19012 14.94088 0.00152
C 26.99228 15.56749 -0.00294
C 25.74193 2.15806 -0.0264
C 25.73652 0.65681 -0.01154
C 24.53873 34.01434 0.00684
C 27.09337 32.69684 -0.01052
C 28.25666 31.92789 -0.01679
C 28.28765 30.50554 0.00367
C 27.01763 29.82416 0.04306
C 27.01235 28.41316 0.00996
C 28.24151 27.7295 0.00195
C 28.27473 26.3225 -0.00802
C 27.01387 25.62243 -0.00218
C 26.9721 24.22175 -0.01654
C 28.25282 23.53838 -0.00037
C 28.18423 22.06288 -0.0032
C 26.91477 21.34024 0.00622
C 26.91221 19.89715 -0.02815
C 28.19617 19.22332 -0.00942
C 28.18115 17.80714 0.00487
C 27.00361 17.03548 0.00826
C 29.56206 25.61064 0.03265
C 2.46304 32.81714 -0.00725
