390
Graphene
C 34.40511 34.05111 0.01295
C 13.47596 13.55388 0.01363
C 12.2513 12.86784 -0.02162
C 12.25532 11.39714 0.00415
C 13.45684 10.67067 -0.0014
C 13.49874 9.24607 0.02162
C 12.31277 8.58982 0.0076
C 12.36097 7.14741 0.01241
C 13.55428 6.39037 -0.01454
C 13.57705 5.03535 0.01945
C 13.6312 15.08144 0.01877
C 12.32088 4.31332 0.01416
C 13.53517 2.12806 0.02299
C 13.54803 0.6108 0.00244
C 12.24192 0.03081 -0.01717
C 14.67536 32.48599 0.05265
C 16.00032 31.7616 -0.01952
C 15.90483 30.34171 -0.02813
C 14.60038 29.80462 0.00374
C 14.78592 15.76081 0.00052
C 16.082 15.04797 -0.03682
C 12.36469 2.8865 0.03542
C 15.92247 13.54194 0.01965
C 12.29273 15.80867 -0.00925
C 11.94704 29.45774 -0.01789
C 9.77551 17.27223 0.0402
C 9.81317 15.78969 0.00572
C 11.063 15.06627 0.03592
C 11.02289 13.64771 0.00406
C 9.8879 12.90439 0.00943
C 9.81882 11.42292 0.02841
C 11.04625 10.71801 -0.01111
C 11.07903 9.23116 -0.01275
C 9.86439 8.50688 0.00985
C 12.15529 17.15904 0.00444
C 9.92611 7.11759 -0.02245
C 11.117 5.02373 0.03101
C 9.92052 4.2466 -0.01536
C 9.78653 2.81238 -0.02689
C 11.04922 2.18031 -0.01046
C 11.01333 0.73443 -0.00891
C 9.77939 0.07212 0.02819
C 12.24455 32.6234 0.00165
C 13.43097 31.81858 -0.02971
C 13.33299 30.25384 0.02894
C 11.13949 6.36681 -0.00428
C 14.71738 12.82491 0.02058
C 14.71573 11.35606 -0.01957
C 15.91325 10.60699 -0.0108
C 18.43751 4.91758 0.03698
C 17.19085 4.24929 -0.00109
C 17.20248 2.76497 -0.00491
C 18.37357 2.0803 0.03338
C 18.41881 0.62366 -0.0258
C 17.16456 33.95422 -0.0331
C 19.66653 32.58878 -0.00316
C 20.85967 31.90772 0.02188
C 20.90973 30.54524 -0.01979
C 18.39708 6.37653 -0.02213
C 19.69969 29.76013 0.02691
C 20.99954 27.75438 0.01452
C 20.79966 19.09447 0.04892
C 20.55527 17.64808 -0.00111
C 19.39656 16.92764 -0.03557
C 19.57874 15.51311 0.03754
C 20.83091 14.87297 0.01739
C 20.84788 13.474 0.00755
C 19.6373 12.65346 -0.0054
C 19.69007 11.21741 0.00667
C 19.85191 28.37184 -0.01581
C 17.19666 7.08799 0.00028
C 17.15297 8.47533 -0.00289
C 18.36592 9.15574 -0.00066
C 15.91441 9.13853 -0.00368
C 14.69165 8.54146 -0.02696
C 14.73737 7.12449 -0.00114
C 16.00076 6.38187 0.00228
C 16.03272 5.00435 0.00798
C 14.80395 4.32099 0.00422
C 14.80381 2.90477 0.0351
C 15.9654 2.09504 -0.03113
C 15.95408 0.55758 0.02098
C 14.74069 33.89237 0.01848
C 17.19999 32.49642 -0.00619
C 18.38014 31.83818 -0.02162
C 18.41735 30.44586 0.00889
C 17.19716 29.76521 -0.00481
C 17.99751 17.02027 0.00979
C 17.38024 15.67657 0.01443
C 18.5061 14.76763 0.03505
C 18.41242 13.33919 -0.02815
C 17.09066 12.75037 -0.04147
C 17.22963 11.32089 -0.05302
C 18.43805 10.5811 0.00213
C 10.97579 17.8308 -0.02759
C 9.41786 20.5866 0.03589
C 11.43378 28.40466 -0.00033
C 9.86278 28.5295 -0.01062
C 2.44257 33.99714 -0.00518
C 4.80316 32.64564 0.0086
C 6.11934 32.03907 -0.00643
C 6.00155 30.59716 0.017
C 4.73544 30.0102 -0.03113
C 4.68777 28.47767 -0.02566
C 5.98782 27.75283 -0.00094
C 6.16977 26.33532 0.02322
C 4.86714 25.77796 -0.00725
C 3.67451 0.64586 -0.00074
C 4.83403 24.28421 -0.05697
C 5.99802 22.11272 -0.01343
C 4.81323 21.31474 0.00988
C 4.79549 19.88068 0.0276
C 6.06406 19.25095 0.01305
C 6.17591 17.83802 -0.00077
C 4.97549 17.11088 0.03368
C 4.93932 15.64501 -0.02929
C 6.15745 14.88705 -0.00966
C 6.14371 13.5339 -0.03337
C 6.036 23.56907 0.01087
C 3.66687 2.10511 0.01465
C 2.43512 2.85062 -0.03996
C 2.45638 4.26187 0.01996
C 3.77236 26.47729 -0.03291
C 2.55342 25.74993 -0.04999
C 2.48843 24.25285 0.04505
C 3.63289 23.57261 0.03284
C 3.60508 22.1088 -0.04307
C 2.36437 21.34168 0.03189
C 2.41201 19.95512 0.00031
C 3.5598 19.12811 -0.003
C 3.69326 17.75489 0.01402
C 2.46551 17.07164 0.02379
C 2.44625 15.59953 0.00907
C 3.73639 14.9265 0.00643
C 3.64424 13.47879 -0.01509
C 2.44789 12.8087 0.03267
C 2.45078 11.39101 0.02374
C 3.68975 10.62857 0.00402
C 3.67958 9.20488 0.0073
C 2.43793 8.5199 0.0174
C 2.38557 7.12712 0.03828
C 3.60969 6.42583 0.01226
C 3.6807 4.98734 -0.00279
C 4.86752 12.80477 0.01227
C 20.86735 10.55244 0.00143
C 4.86857 11.3919 0.00873
C 6.13041 9.25719 0.00848
C 7.33302 15.71226 0.01745
C 8.57164 15.11776 0.00488
C 8.69342 13.70538 -0.01004
C 7.43071 12.87907 -0.02896
C 7.39773 11.41198 -0.00131
C 8.59283 10.66915 -0.01118
C 8.61515 9.23203 -0.014
C 7.41132 8.53303 0.02147
C 7.40466 7.15471 0.00373
C 7.36314 17.16502 0.03693
C 8.69286 6.39573 -0.00191
C 7.39868 4.30097 0.01291
C 7.36378 2.89135 0.00093
C 8.55565 2.21797 0.00057
C 8.56411 0.78549 -0.01634
C 7.28248 0.07621 -0.00334
C 9.78498 32.62701 0.02339
C 10.94986 31.92468 0.01641
C 10.95082 30.55766 -0.00719
C 9.68701 29.962 0.01364
C 8.6088 5.02825 0.00438
C 8.58254 17.93932 -0.01384
C 8.55284 19.41476 -0.00482
C 7.19863 19.96492 0.02888
C 4.9269 8.52176 -0.01303
C 4.835 7.08222 -0.01378
C 6.16048 6.40674 0.02635
C 6.11164 4.98536 0.0127
C 4.86769 4.29781 0.01396
C 4.90554 2.8544 0.01849
C 6.08867 2.15458 -0.01142
C 6.08344 0.76375 -0.00562
C 4.8472 0.05311 -0.00494
C 7.30859 32.71627 0.00054
C 8.49592 32.00632 0.03007
C 8.45946 30.56823 -0.00095
C 7.22137 29.8914 0.01572
C 7.25717 28.4922 -0.04848
C 8.62108 27.82183 -0.00892
C 8.64887 26.33907 -0.01362
C 7.43854 25.67391 -0.0008
C 7.31512 24.20376 0.0288
C 8.50648 23.23979 0.00393
C 8.7267 21.88871 0.00895
C 7.26408 21.36786 0.00685
C 6.16771 10.67599 -0.00049
C 20.85208 9.08871 -0.017
C 19.59584 8.48035 0.00364
C 19.63475 7.07722 -0.00831
C 30.69138 4.97388 0.07705
C 29.48748 4.26851 0.0103
C 29.43907 2.82093 0.02108
C 30.62014 2.12738 0.00716
C 30.63508 0.63757 0.00307
C 29.42181 34.04857 0.00346
C 31.9264 32.63968 0.01713
C 33.09968 31.90569 -0.01694
C 33.1443 30.46827 0.01428
C 30.68358 6.36507 0.01908
C 31.87459 29.85317 -0.02142
C 33.14466 27.58379 0.00026
C 33.17049 26.23599 0.00682
C 31.98472 25.5258 -0.01779
C 31.92143 24.1433 0.03794
C 33.07926 23.34674 0.01927
C 32.93281 21.97845 0.01574
C 31.66695 21.2478 -0.02383
C 31.56867 19.8334 -0.01429
C 33.02588 19.25911 -0.0136
C 31.90365 28.33777 0.0544
C 29.45922 7.13179 0.01518
C 29.46141 8.5581 -0.00971
C 30.69412 9.24049 -0.03735
C 27.09792 34.01036 0.04266
C 29.43378 32.66238 0.01324
C 30.7085 32.0117 0.0014
C 30.701 30.57098 0.00924
C 29.53189 29.79407 0.02326
C 29.52696 28.32192 0.00261
C 30.72913 27.55975 0.03265
C 30.76591 26.20794 -0.02049
C 29.50269 25.62274 -0.01854
C 29.42879 24.18251 -0.01415
C 30.59982 23.52236 -0.03039
C 30.58772 22.109 0.01836
C 30.25841 19.106 0.03531
C 30.61722 17.71219 -0.00669
C 29.47437 16.91482 0.0101
C 29.46736 15.53098 0.01705
C 30.69974 14.89586 -0.0405
C 30.67655 13.50872 -0.01303
C 29.43723 12.7984 -0.01461
C 29.50682 11.42649 -0.02155
C 30.72324 10.69654 -0.00944
C 33.16716 17.76815 0.00594
C 28.25916 0.7285 0.01177
C 31.95935 17.0155 -0.02474
C 33.11303 14.89283 0.00455
C 34.24349 21.34955 -0.02213
C 34.37074 19.91706 0.01951
C 1.13478 19.21449 -0.01678
C 1.20256 17.82787 0.01223
C 34.3919 17.08146 0.00648
C 0.00147 15.62433 0.02114
C 1.24076 14.91624 -0.02957
C 1.29146 13.50791 0.00343
C 34.41171 12.87468 -0.02656
C 1.19041 22.05254 0.02712
C 34.36418 11.41859 -0.02442
C 1.19876 9.33646 -0.00583
C 34.4009 8.58795 -0.02302
C 34.35789 7.15644 -0.02849
C 1.17274 6.40658 0.02931
C 1.17248 5.02327 0.00628
C 34.38653 4.29459 -0.0345
C 34.38457 2.82543 -0.00931
C 1.17449 2.07583 -0.00939
C 1.20853 0.65766 -0.00468
C 1.13989 10.70796 -0.00027
C 1.18854 23.48901 0.00723
C 34.40465 24.14807 0.03076
C 0.00896 25.62759 -0.05239
C 33.15934 13.53858 -0.00644
C 31.94952 12.75969 -0.01839
C 31.99541 11.40927 0.00137
C 33.17524 10.67155 0.00199
C 33.15846 9.29104 0.04381
C 31.89436 8.63475 0.02806
C 31.89581 7.21847 0.01504
C 33.10874 6.4978 -0.00069
C 33.15481 5.06982 0.04926
C 31.90933 4.32403 -0.03838
C 31.88381 2.82788 0.00349
C 33.15057 2.16023 -0.00323
C 33.20475 0.73268 -0.00841
C 31.97201 34.06015 0.0001
C 34.37258 32.60979 -0.02927
C 1.15485 31.81894 -0.01404
C 1.12844 30.46501 0.01027
C 34.35037 29.76055 0.01831
C 34.306 28.33728 -0.01037
C 1.06676 27.83253 -0.00439
C 1.30623 26.457 -0.00598
C 31.94517 15.65747 0.00369
C 3.77554 31.76439 0.02769
C 28.21572 2.14669 -0.00416
C 27.01596 4.24651 0.01799
C 23.26449 13.56731 0.01126
C 22.08029 12.79757 0.01852
C 22.05948 11.35496 -0.00381
C 23.24571 10.60533 0.03046
C 23.21139 9.18621 0.0296
C 22.07268 8.39188 0.03374
C 22.1212 7.0282 -0.02845
C 23.33884 6.36057 -0.03213
C 23.30395 4.93611 0.02239
C 23.33933 14.99491 -0.01185
C 22.08868 4.20069 0.01153
C 23.30099 2.0265 -0.0055
C 23.38213 0.59212 0.01515
C 22.19683 33.95366 -0.00225
C 24.58793 32.58074 0.00071
C 25.83514 31.93211 -0.01107
C 25.80751 30.56221 -0.01586
C 24.57602 29.86617 -0.01971
C 24.77343 28.41987 -0.02118
C 25.94654 27.63446 0.00733
C 22.10481 2.80503 0.02734
C 22.06478 15.64447 -0.01662
C 21.81033 17.00889 -0.00478
C 23.18002 17.74956 0.01511
C 20.84367 6.35632 -0.02957
C 20.91456 4.94866 -0.04422
C 19.64503 4.19874 0.00654
C 19.5965 2.78556 -0.00703
C 20.85077 2.03823 -0.04076
C 20.901 0.55185 -0.00652
C 19.7217 34.03124 0.0058
C 22.08352 32.58028 -0.00865
C 23.26178 31.90756 0.00675
C 23.32543 30.51074 -0.00311
C 22.13752 29.78478 0.00742
C 22.26209 28.38776 -0.01594
C 23.53764 27.77733 0.0106
C 23.42861 26.29379 -0.01154
C 22.1977 25.75995 -0.01721
C 22.58928 24.46367 -0.02422
C 23.54424 23.52758 0.01277
C 22.72327 22.33046 0.00096
C 22.30458 21.16696 -0.01527
C 22.09236 19.79997 0.01087
C 23.38007 19.2194 0.00199
C 25.88062 26.21829 -0.00178
C 26.99135 2.83444 0.01699
C 24.68571 25.57707 0.00768
C 24.66638 19.77121 0.03005
C 28.26746 26.28892 -0.00037
C 27.06304 25.25277 -0.0032
C 27.02049 23.88202 0.00622
C 28.34502 23.20588 -0.02815
C 28.87596 21.90923 -0.00942
C 27.65741 20.08393 0.00487
C 28.74967 19.22945 0.00826
C 28.25835 17.74762 -0.00294
C 26.9973 17.09755 0.00152
C 28.30065 27.63213 -0.01654
C 26.9884 15.63735 0.01257
C 28.20934 13.51135 0.04185
C 26.92519 12.77992 0.00194
C 26.99184 11.36605 -0.00621
C 28.16476 10.62827 0.02611
C 28.20523 9.23757 0.02198
C 26.96381 8.46847 0.01094
C 26.98614 7.07824 0.00235
C 28.22541 6.42193 0.01495
C 28.24749 4.98954 0.01259
C 28.22173 14.94079 0.02316
C 27.03662 28.35014 -0.00218
C 27.06589 29.74475 -0.00802
C 28.33905 30.51907 0.00195
C 26.01104 19.42291 -0.04078
C 25.82383 17.92543 0.02117
C 24.49642 17.17317 0.02737
C 24.54015 15.74882 -0.00498
C 25.78111 14.964 0.00135
C 25.7373 13.52598 0.03102
C 24.51964 12.77928 0.02555
C 24.50908 11.32229 0.01423
C 25.7184 10.63549 -0.00285
C 25.76479 9.23595 -0.009
C 24.52675 8.52326 -0.01199
C 24.55266 7.045 -0.00229
C 25.79581 6.33521 -0.00938
C 25.79197 4.95973 -0.0264
C 24.52369 4.19004 -0.01154
C 24.5545 2.7814 0.00684
C 25.79434 2.1087 -0.01052
C 25.88029 0.67003 -0.01679
C 24.64902 34.02306 0.00367
C 27.04591 32.63334 0.04306
C 28.32703 31.88135 0.00996
C 24.88096 24.10705 -0.0276
C 2.47167 32.50595 0.01707
