350
Graphene
C 34.39812 0.08452 0.01295
C 10.9992 0.68039 0.00798
C 9.82045 0.01285 0.00422
C 12.27866 32.71501 0.0351
C 13.48013 32.03453 -0.03113
C 13.53767 30.52263 0.02098
C 12.33084 29.84789 0.01848
C 12.31986 28.41352 -0.00619
C 13.50363 27.59775 -0.02162
C 13.55895 26.23554 0.00889
C 12.31735 25.5043 -0.00481
C 12.31732 24.05903 0.00979
C 13.59271 23.41153 0.01443
C 13.57412 22.01062 0.03505
C 12.30382 21.40926 -0.02815
C 12.36231 19.86328 -0.04147
C 13.49689 19.11484 -0.05302
C 13.51081 17.72059 0.00213
C 9.84104 12.80143 0.00228
C 11.07674 13.3627 -0.00114
C 11.04242 14.7383 -0.02696
C 9.87498 15.54583 -0.00368
C 8.51847 0.76215 0.01241
C 7.28393 0.01793 -0.01454
C 9.83621 32.67671 0.01945
C 11.01155 32.03689 0.01416
C 11.10409 30.61737 0.03542
C 9.89165 29.87856 0.02299
C 9.8092 28.44071 0.00244
C 11.04317 27.71668 -0.01717
C 12.30645 16.92965 -0.00066
C 11.09953 26.28385 0.05265
C 9.82423 24.18633 -0.02813
C 11.08102 23.52341 0.00374
C 11.08085 22.04031 0.00052
C 9.82375 21.30399 -0.03682
C 9.84936 19.84051 0.01965
C 11.11017 19.14478 0.02058
C 11.09636 17.73454 -0.01957
C 9.91304 17.09348 -0.0108
C 9.86998 25.62258 -0.01952
C 12.17218 15.51758 -0.00289
C 13.46107 14.85357 0.00028
C 13.54576 0.58323 -0.02213
C 18.48487 31.97319 0.00364
C 18.48422 30.55146 -0.00831
C 17.18422 29.96003 -0.02957
C 17.22702 28.44569 -0.04422
C 18.37835 27.68237 0.00654
C 18.45283 26.31579 -0.00703
C 17.22576 25.57847 -0.04076
C 17.1879 24.07854 -0.00652
C 17.22732 32.65154 -0.017
C 18.45702 23.42958 0.0058
C 17.2042 21.25055 0.00675
C 17.3022 19.89603 -0.00311
C 18.54067 19.18371 0.00742
C 18.52308 17.84018 -0.01594
C 17.21422 17.06227 0.0106
C 17.22519 15.61067 -0.01154
C 18.42042 14.89322 -0.01721
C 18.45804 13.48156 -0.02422
C 18.39574 22.0375 -0.00865
C 8.47272 2.11235 0.0076
C 14.79004 0.12554 0.00143
C 15.97313 15.11415 -0.0054
C 12.3515 0.15596 0.03698
C 14.74525 32.72733 -0.00109
C 15.9843 31.99069 -0.00491
C 15.96913 30.58894 0.03338
C 14.79366 29.78532 -0.0258
C 14.70058 28.36076 -0.0331
C 16.00204 27.75754 -0.00316
C 16.02389 26.2894 0.02188
C 16.05701 0.67944 0.00667
C 14.78087 25.51091 -0.01979
C 15.99046 23.35081 -0.01581
C 15.95536 21.98485 0.01452
C 14.79392 21.23771 0.04892
C 14.77978 19.79778 -0.00111
C 16.00983 19.13976 -0.03557
C 16.00288 17.73893 0.03754
C 14.76281 16.99127 0.01739
C 14.67547 15.44507 0.00755
C 14.80945 24.11936 0.02691
C 7.47578 2.95124 0.02162
C 7.2769 4.25941 -0.0014
C 7.45176 7.16429 0.00415
C 2.51272 7.07269 -0.04848
C 3.69834 6.40964 -0.00892
C 3.68845 4.97684 -0.01362
C 2.46086 4.19168 -0.0008
C 2.46087 2.78339 0.0288
C 3.66721 2.1989 0.00393
C 3.64295 0.73974 0.00895
C 2.45605 0.04435 0.00685
C 2.51837 8.54438 0.01572
C 4.89674 32.67292 0.02888
C 6.17783 30.50343 -0.01384
C 4.86891 29.84137 0.03693
C 4.85042 28.49825 0.01745
C 6.17412 27.74768 0.00488
C 6.14077 26.31317 -0.01004
C 4.89338 25.59014 -0.02896
C 4.86142 24.17218 -0.00131
C 6.15415 23.51558 -0.01118
C 6.09435 32.01038 -0.00482
C 6.09736 22.09724 -0.014
C 3.75466 9.21352 -0.00095
C 2.53637 11.38077 0.00054
C 3.68521 30.53478 -0.00077
C 2.42176 29.80955 0.03368
C 2.37742 28.42925 -0.02929
C 3.63519 27.73123 -0.00966
C 3.66423 26.25039 -0.03337
C 2.38041 25.55139 0.01227
C 2.40102 24.08912 0.00873
C 3.66154 23.38803 -0.00049
C 3.70606 10.68305 0.03007
C 3.57163 21.97921 0.00848
C 2.30983 19.83187 -0.01378
C 3.58382 19.144 0.02635
C 3.70828 17.79168 0.0127
C 2.48706 17.01114 0.01396
C 2.44913 15.551 0.01849
C 3.63233 14.87159 -0.01142
C 3.73823 13.50899 -0.00562
C 2.43418 12.80352 -0.00494
C 2.37605 21.28391 -0.01303
C 18.42358 2.1344 0.01277
C 4.90902 21.32075 0.02147
C 6.04721 19.19621 -0.00191
C 7.40035 28.36812 0.00985
C 8.63767 27.76621 -0.02245
C 8.60142 26.31436 -0.00428
C 7.36403 25.63296 0.03101
C 7.38731 24.23284 -0.01536
C 8.61531 23.45331 -0.02689
C 8.59399 21.97166 -0.01046
C 7.28381 21.2995 -0.00891
C 7.41116 29.83605 -0.01275
C 7.28342 19.88589 0.02819
C 8.64097 17.75835 -0.02971
C 7.3601 17.07547 0.02894
C 7.42904 15.69868 -0.01789
C 8.55464 14.88842 0.00444
C 8.62143 13.44537 -0.00925
C 7.42918 12.7075 0.01877
C 7.49884 11.41897 0.01363
C 7.16294 8.4762 -0.02162
C 8.63033 19.16987 0.00165
C 4.86037 19.9791 0.00373
C 8.65338 30.58597 -0.01111
C 7.296 32.69218 0.00943
C 6.14222 17.76782 0.00438
C 4.89581 17.10572 0.01291
C 4.89405 15.60958 0.00093
C 6.16328 14.93269 0.00057
C 6.16601 13.49358 -0.01634
C 4.98289 12.79713 -0.00334
C 4.97924 11.37764 0.02339
C 6.1849 10.66786 0.01641
C 8.5636 32.02972 0.02841
C 6.19483 9.26298 -0.00719
C 4.92828 7.09287 -0.01062
C 6.26861 6.43484 -0.00033
C 6.21902 5.06914 0.03589
C 4.91416 4.37074 -0.02759
C 4.91256 2.94362 0.0402
C 6.09766 2.22733 0.00572
C 6.03545 0.80357 0.03592
C 4.93995 0.02396 0.00406
C 4.96302 8.47937 0.01364
C 18.37311 0.85222 0.00096
C 17.20977 0.00697 -0.01527
C 19.59486 32.82771 0.01087
C 33.2545 31.99256 -0.01694
C 33.15408 30.57799 0.01428
C 31.96468 29.83393 -0.02142
C 31.91215 28.36585 0.0544
C 33.07962 27.67475 0.00026
C 33.17424 26.2715 0.00682
C 31.99991 25.55141 -0.01779
C 31.96021 24.16336 0.03794
C 31.97924 32.67526 0.01713
C 33.14282 23.48362 0.01927
C 31.89799 21.2971 -0.02383
C 31.92819 19.88048 -0.01429
C 33.12786 19.1966 -0.0136
C 33.13499 17.73329 0.00594
C 31.92707 17.05817 -0.02474
C 31.90513 15.62312 0.00369
C 33.11936 14.99704 0.00455
C 33.20689 13.50565 -0.00644
C 33.16151 22.00718 0.01574
C 32.04116 12.77579 -0.01839
C 29.55561 34.02442 0.00346
C 30.78457 2.05738 0.00716
C 30.72601 23.43525 -0.03039
C 30.67461 22.07656 0.01836
C 29.69319 21.22823 0.03531
C 29.4471 19.95878 -0.00669
C 30.63674 19.21306 0.0101
C 30.67718 17.82462 0.01705
C 29.45612 16.99755 -0.0405
C 29.6243 15.67497 -0.01303
C 30.73225 0.70471 0.00307
C 30.60216 14.78748 -0.01461
C 30.75263 10.81103 -0.00944
C 30.6034 9.32793 -0.03735
C 29.54082 8.43341 -0.00971
C 29.5122 7.06723 0.01518
C 30.74286 6.41497 0.01908
C 30.76838 4.97057 0.07705
C 29.51754 4.15267 0.0103
C 29.5866 2.82723 0.02108
C 30.80903 13.41312 -0.02155
C 29.52703 24.12791 -0.01415
C 32.01048 11.3664 0.00137
C 33.24896 9.19277 0.04381
C 1.15627 19.03832 -0.01678
C 1.16542 17.69086 0.01223
C 34.3901 17.06523 0.00648
C 34.3698 15.61793 0.02114
C 1.19001 14.92045 -0.02957
C 1.23718 13.45478 0.00343
C 34.41025 12.75976 -0.02656
C 34.40984 11.37361 -0.02442
C 34.33786 19.87604 0.01951
C 1.29279 10.64661 -0.00027
C 0.07786 8.50032 -0.02302
C 0.0881 7.11293 -0.02849
C 1.28117 6.30713 0.02931
C 1.22343 4.91424 0.00628
C 0.02823 4.26926 -0.0345
C 34.40845 2.90197 -0.00931
C 1.17986 2.14665 -0.00939
C 1.21588 0.7594 -0.00468
C 1.3131 9.18953 -0.00583
C 33.2255 10.58007 0.00199
C 34.33565 21.27684 -0.02213
C 1.24343 23.39802 0.00723
C 31.93078 8.5271 0.02806
C 31.96764 7.10898 0.01504
C 33.20181 6.34493 -0.00069
C 33.16309 4.97155 0.04926
C 31.97064 4.29178 -0.03838
C 31.96839 2.82536 0.00349
C 33.1857 2.19485 -0.00323
C 33.17443 0.76422 -0.00841
C 1.17481 22.0932 0.02712
C 32.01722 0.07924 0.0001
C 1.22286 32.00154 -0.01404
C 1.15322 30.53706 0.01027
C 34.42992 29.8513 0.01831
C 34.37488 28.34852 -0.01037
C 1.14143 27.68712 -0.00439
C 1.21431 26.22552 -0.00598
C 34.40865 25.55433 -0.05239
C 34.40485 24.0565 0.03076
C 0.00623 32.72141 -0.02927
C 3.63907 32.03032 0.01305
C 29.55059 25.53138 -0.01854
C 30.69235 27.74178 0.03265
C 19.55952 4.25873 -0.01971
C 19.58351 2.89595 -0.02118
C 20.90605 2.18757 0.00733
C 20.93002 0.77484 -0.00178
C 19.73843 0.09663 0.00768
C 22.12602 32.69899 -0.0276
C 23.36266 32.0118 0.03005
C 23.37075 30.64654 -0.04078
C 20.61127 5.10207 -0.01586
C 22.10244 29.91106 0.02117
C 23.24219 27.71911 -0.00498
C 23.26828 26.14743 0.00135
C 22.10355 25.45931 0.03102
C 22.05353 16.90862 0.02555
C 21.92347 15.58003 0.01423
C 22.01904 8.34788 -0.00285
C 22.20726 7.10474 -0.009
C 23.4036 6.32794 -0.01199
C 22.08271 28.45616 0.02737
C 23.34705 4.85182 -0.00229
C 21.07708 6.33485 -0.01107
C 20.14227 10.11618 -0.00225
C 20.92108 30.52376 0.00199
C 19.6363 29.81681 0.01511
C 19.61521 28.40455 -0.00478
C 20.86433 27.63536 -0.01662
C 20.89287 26.25143 -0.01185
C 19.68401 25.56817 0.01126
C 19.68662 24.11187 0.01852
C 20.87042 23.31626 -0.00381
C 21.24366 9.37674 0.00071
C 19.6282 21.39548 0.03046
C 20.88885 19.15034 0.03374
C 21.03182 17.78586 -0.02845
C 19.7 17.06944 -0.03213
C 19.66037 15.57278 0.02239
C 20.88927 14.80468 0.01153
C 20.47075 13.52122 0.02734
C 19.43796 12.66831 -0.0055
C 19.77564 11.37962 0.01515
C 19.83981 20.02684 0.0296
C 30.70531 26.29781 -0.02049
C 22.09492 4.25236 -0.00938
C 23.37565 2.02926 -0.01154
C 27.04739 28.45446 0.00194
C 28.27031 27.67021 -0.00621
C 28.28589 26.22404 0.02611
C 27.08815 25.55758 0.02198
C 28.26047 17.91341 0.01094
C 27.18449 7.07824 0.00235
C 28.29097 6.33715 0.01495
C 28.36641 4.88954 0.01259
C 27.04855 29.89043 0.04185
C 27.09601 4.19068 0.01799
C 28.33018 2.02233 -0.00416
C 28.34226 0.63251 0.01177
C 27.12563 0.01953 0.04266
C 29.56624 32.62555 0.01324
C 30.81376 31.98885 0.0014
C 30.68368 30.55077 0.00924
C 29.51462 29.86272 0.02326
C 29.44366 28.40279 0.00261
C 27.13163 2.74354 0.01699
C 22.06711 2.80777 -0.0264
C 28.242 30.57388 0.02316
C 27.06726 32.6556 0.00152
C 23.37046 0.63445 0.00684
C 22.12473 34.04423 -0.01052
C 24.60033 32.69209 -0.01679
C 25.84629 31.96595 0.00367
C 25.81365 30.61312 0.04306
C 24.52657 29.91463 0.00996
C 24.53999 28.44363 0.00195
C 25.79379 27.77339 -0.00802
C 28.30488 31.99363 0.01257
C 25.88731 26.12204 -0.00218
C 24.61105 6.93662 -0.00037
C 25.88237 6.54072 -0.0032
C 25.89248 4.94671 0.00622
C 24.60158 4.21916 -0.02815
C 24.60774 2.76774 -0.00942
C 25.8677 2.14067 0.00487
C 25.93332 0.80316 0.00826
C 24.60976 0.01396 -0.00294
C 24.61212 25.78053 -0.01654
C 2.4195 32.75115 0.0276
