416
Graphene
C 34.37884 34.01024 0.01295
C 13.6659 26.31111 -0.01111
C 12.42752 25.65133 -0.01275
C 12.31052 24.21531 0.00985
C 13.54619 23.55625 -0.02245
C 13.41614 22.09934 -0.00428
C 12.25325 21.39493 0.03101
C 12.29455 20.02416 -0.01536
C 13.62461 19.3433 -0.02689
C 13.57959 17.88046 -0.01046
C 12.26403 17.19493 -0.00891
C 13.51542 27.76569 0.02841
C 12.33069 15.76607 0.02819
C 13.43813 13.51231 -0.02971
C 12.31951 12.64606 0.02894
C 12.6233 11.15495 -0.01789
C 12.56939 4.29038 0.00444
C 12.23758 2.89334 -0.00925
C 13.40017 2.11865 0.01877
C 13.40552 0.74486 0.01363
C 12.24366 0.11475 -0.02162
C 14.72017 32.68575 0.00415
C 15.95419 32.01697 -0.0014
C 13.46426 14.89603 0.00165
C 15.97862 30.56298 0.02162
C 12.23672 28.46575 0.00943
C 13.53783 30.63912 0.03592
C 11.01062 22.1157 -0.00131
C 9.81971 21.35588 -0.01118
C 9.83108 19.91323 -0.014
C 11.05243 19.18033 0.02147
C 11.02262 17.73597 0.00373
C 9.85731 17.00266 -0.00191
C 9.91893 15.64148 0.00438
C 11.19626 14.91208 0.01291
C 11.15787 13.49576 0.00093
C 9.82407 12.72133 0.00057
C 12.22175 29.9871 0.00406
C 9.89788 11.28821 -0.01634
C 9.983 8.6231 0.02339
C 9.87318 7.1675 0.01641
C 11.27805 5.06522 -0.00719
C 9.97461 4.33406 0.01364
C 9.83639 2.87435 -0.01062
C 10.96965 2.11686 -0.00033
C 11.00448 0.74462 0.03589
C 9.73191 0.08582 -0.02759
C 12.25812 32.75131 0.0402
C 13.46959 31.99912 0.00572
C 11.23955 10.66069 -0.00334
C 11.02718 23.56804 -0.02896
C 14.76721 29.80459 0.0076
C 15.93522 27.84783 -0.01454
C 17.17033 29.83612 -0.00619
C 17.14711 28.48248 -0.02162
C 18.38661 27.72885 0.00889
C 17.53366 26.16462 -0.00481
C 18.39736 17.76871 0.00979
C 17.15298 16.98065 0.01443
C 17.20191 15.57178 0.03505
C 18.47318 14.96058 -0.02815
C 18.51909 13.48003 -0.04147
C 17.14181 12.75102 -0.05302
C 18.43211 30.47249 0.01848
C 17.01979 11.33535 0.00213
C 18.30733 9.1247 -0.00289
C 17.08341 8.45266 0.00028
C 17.09178 7.09567 -0.02213
C 18.34969 6.4105 0.03698
C 18.16809 4.99514 -0.00109
C 16.88196 4.37345 -0.00491
C 17.1125 2.92096 0.03338
C 18.3602 2.20658 -0.0258
C 18.36849 0.84197 -0.0331
C 17.2325 34.05896 -0.00316
C 18.25767 10.60474 -0.00066
C 14.7029 28.50117 0.01241
C 18.50991 31.89631 0.02098
C 14.72476 34.07819 0.0351
C 16.18459 26.41167 0.01945
C 15.04054 25.50175 0.01416
C 15.00163 24.01114 0.03542
C 15.49105 22.69243 0.02299
C 14.88779 21.61052 0.00244
C 15.07818 20.19194 -0.01717
C 16.07642 19.1657 0.05265
C 15.95524 17.72535 -0.01952
C 14.68591 17.01736 -0.02813
C 14.70227 15.56693 0.00374
C 17.23322 32.66777 -0.03113
C 15.94189 14.86627 0.00052
C 14.62188 12.79173 0.01965
C 14.32834 11.36066 0.02058
C 15.63369 10.54267 -0.01957
C 15.80476 9.16914 -0.0108
C 15.80632 6.59271 -0.00368
C 15.59247 5.16969 -0.02696
C 14.32387 4.30146 -0.00114
C 14.53649 2.85292 0.00228
C 15.87616 2.1862 0.00798
C 15.89975 0.78777 0.00422
C 15.90559 13.41172 -0.03682
C 19.687 32.68181 0.02188
C 9.85629 24.3025 -0.01004
C 11.12652 26.32167 0.01745
C 2.36722 2.79643 -0.03291
C 3.59314 2.22708 -0.04999
C 3.57923 0.70974 0.04505
C 2.34189 34.0405 0.03284
C 4.75943 32.78702 -0.04307
C 5.9718 32.04677 0.03189
C 6.06124 30.58869 0.00031
C 4.90055 29.80077 -0.003
C 4.84457 28.37321 0.01402
C 6.13175 27.78629 0.02379
C 2.35028 4.34233 0.02769
C 6.07953 26.4213 0.00907
C 4.90834 24.22624 -0.01509
C 6.08616 23.50552 0.03267
C 6.09194 22.10067 0.02374
C 4.93344 21.40722 0.00402
C 4.9604 19.90059 0.0073
C 6.14143 19.21997 0.0174
C 6.06894 17.78691 0.03828
C 4.89081 17.02803 0.01226
C 4.86951 15.66216 -0.00279
C 6.20965 14.95943 0.01996
C 4.86519 25.7226 0.00643
C 6.26682 13.62088 -0.03996
C 3.67242 4.89887 0.01707
C 2.40094 7.04777 -0.00561
C 3.71174 30.55398 -0.00407
C 2.35763 29.79886 0.01138
C 2.41895 28.45168 0.03278
C 3.59718 27.7401 -0.00177
C 3.6241 26.3742 0.04421
C 2.39635 25.61613 0.00088
C 2.42738 24.19673 0.00828
C 3.69469 23.47109 -0.02375
C 3.69117 22.05508 0.00558
C 2.44448 21.34654 -0.0059
C 3.65871 6.393 0.00208
C 2.48422 19.9353 -0.01386
C 3.63871 17.70866 0.00081
C 2.42864 17.0449 0.00245
C 2.41021 15.66083 0.02728
C 3.66964 14.98209 -0.00039
C 3.70398 13.55264 0.0064
C 2.49399 12.83414 0.00211
C 2.45409 11.37643 -0.00449
C 3.76585 10.76337 -0.01979
C 3.67202 9.37412 0.02784
C 2.37981 8.55463 -0.01977
C 3.7042 19.20465 -0.02805
C 9.88249 25.71588 0.00488
C 4.98481 12.96556 0.01465
C 6.17772 10.67095 -0.00518
C 7.34448 15.64622 0.0127
C 8.55975 14.90744 0.01396
C 8.58345 13.4482 0.01849
C 7.35696 12.78239 -0.01142
C 7.37651 11.37144 -0.00562
C 8.6903 10.64441 -0.00494
C 8.72586 9.19097 0.00054
C 7.35097 8.5224 0.03007
C 7.40901 7.07449 -0.00095
C 8.71885 6.50879 0.01572
C 7.39634 17.02899 0.02635
C 8.67586 5.05024 -0.04848
C 7.28133 2.96223 -0.01362
C 8.54293 2.25444 -0.0008
C 8.55453 0.82497 0.0288
C 7.24653 0.10042 0.00393
C 9.77144 32.77642 0.00895
C 10.98585 32.07652 0.00685
C 10.9511 30.6336 0.02888
C 9.77783 29.8964 -0.00482
C 9.81969 28.4862 -0.01384
C 11.08464 27.8133 0.03693
C 7.3948 4.38995 -0.00892
C 4.94396 11.5264 -0.00074
C 8.59774 17.7894 -0.01378
C 7.40401 19.95767 0.00848
C 6.14929 9.26346 0.0086
C 4.82947 8.54181 -0.00643
C 4.84573 7.19723 0.017
C 6.19052 6.37885 -0.03113
C 6.13052 5.04923 -0.02566
C 4.91442 4.33143 -0.00094
C 4.77268 2.95084 0.02322
C 6.07114 2.2348 -0.00725
C 6.03945 0.77141 -0.05697
C 4.8258 0.09387 0.01087
C 8.59219 19.16835 -0.01303
C 7.29938 32.77972 -0.01343
C 8.50443 30.61035 0.0276
C 7.32312 29.91013 0.01305
C 7.33914 28.45046 -0.00077
C 8.62655 27.76469 0.03368
C 8.61938 26.36231 -0.02929
C 7.3764 25.66704 -0.00966
C 7.4068 24.2581 -0.03337
C 8.61982 23.54767 0.01227
C 8.60263 22.16059 0.00873
C 7.43575 21.36507 -0.00049
C 8.50377 32.0608 0.00988
C 20.80493 31.85987 -0.01979
C 20.77575 30.38541 0.02691
C 19.67481 29.60609 -0.01581
C 30.71789 10.58206 -0.00944
C 30.68114 9.18194 -0.03735
C 29.54234 8.42007 -0.00971
C 29.5322 7.05426 0.01518
C 30.79042 6.34652 0.01908
C 30.72068 4.90459 0.07705
C 29.52962 4.26806 0.0103
C 29.50004 2.86994 0.02108
C 30.65841 2.1014 0.00716
C 30.71988 0.71684 0.00307
C 29.51233 11.28822 -0.02155
C 29.55488 34.04364 0.00346
C 33.0703 31.98783 -0.01694
C 33.16947 30.54039 0.01428
C 31.94679 29.7483 -0.02142
C 31.92143 28.40265 0.0544
C 33.19842 27.60929 0.00026
C 33.17185 26.25021 0.00682
C 31.92627 25.60705 -0.01779
C 31.95704 24.14551 0.03794
C 33.15247 23.38987 0.01927
C 33.02903 22.03608 0.01574
C 31.83853 32.69495 0.01713
C 31.92288 21.25764 -0.02383
C 29.45131 12.69663 -0.01461
C 30.76641 14.89173 -0.0405
C 26.95466 4.21247 0.01495
C 27.06918 2.78898 0.01259
C 28.32744 2.03625 0.01799
C 28.26986 0.64298 0.01699
C 26.98598 0.09451 -0.00416
C 29.44678 32.60146 0.01177
C 30.69792 31.85005 0.04266
C 30.73664 30.5147 0.01324
C 29.51523 29.87803 0.0014
C 29.36729 28.477 0.00924
C 30.68831 13.44519 -0.01303
C 30.62689 27.74978 0.02326
C 29.43346 25.55009 0.03265
C 29.45046 24.10253 -0.02049
C 30.75114 23.37333 -0.01854
C 30.70065 22.00668 -0.01415
C 29.45659 21.27226 -0.03039
C 29.38808 19.83091 0.01836
C 30.61297 19.18125 0.03531
C 30.6945 17.7499 -0.00669
C 29.47913 16.95534 0.0101
C 29.50871 15.57792 0.01705
C 30.70011 26.28893 0.00261
C 28.28656 5.0239 0.00235
C 31.91963 19.78995 -0.01429
C 33.21134 17.73372 0.00594
C 1.10488 23.43249 0.00723
C 1.1921 21.98508 0.02712
C 34.38018 21.30379 -0.02213
C 34.34568 19.83838 0.01951
C 1.1779 19.18241 -0.01678
C 1.18368 17.81178 0.01223
C 0.01323 17.07216 0.00648
C 34.41586 15.56979 0.02114
C 1.17614 14.92202 -0.02957
C 1.21653 13.4661 0.00343
C 34.34902 24.08368 0.03076
C 34.39124 12.80747 -0.02656
C 1.21881 10.65396 -0.00027
C 1.2228 9.26185 -0.00583
C 0.01355 8.51353 -0.02302
C 34.40831 7.09866 -0.02849
C 1.1584 6.4061 0.02931
C 1.15999 5.03634 0.00628
C 34.38042 4.21162 -0.0345
C 34.36277 2.86788 -0.00931
C 1.17507 2.08474 -0.00939
C 1.1726 0.64461 -0.00468
C 34.42699 11.36329 -0.02442
C 33.10364 19.12698 -0.0136
C 34.37061 25.55068 -0.05239
C 1.18403 27.65381 -0.00439
C 31.95271 17.05395 -0.02474
C 31.99684 15.62403 0.00369
C 33.20042 14.80563 0.00455
C 33.11263 13.47686 -0.00644
C 31.8971 12.79629 -0.01839
C 31.8894 11.3738 0.00137
C 33.18497 10.65883 0.00199
C 33.1575 9.2344 0.04381
C 31.94326 8.4659 0.02806
C 32.01448 7.05933 0.01504
C 1.08885 26.28105 -0.00598
C 33.14757 6.34469 -0.00069
C 31.94667 4.14402 -0.03838
C 31.9877 2.79101 0.00349
C 33.19845 2.1042 -0.00323
C 33.1699 0.69014 -0.00841
C 31.94824 0.02374 0.0001
C 34.27952 32.63454 -0.02927
C 1.10413 31.9302 -0.01404
C 1.15909 30.46126 0.01027
C 34.3728 29.81537 0.01831
C 34.4017 28.40252 -0.01037
C 33.09611 4.94882 0.04926
C 28.2279 6.43357 0.01094
C 26.96366 7.06417 0.02198
C 27.0605 8.45449 0.02611
C 23.27534 26.38383 -0.01154
C 23.24565 19.17959 -0.01721
C 23.49139 17.6816 -0.02422
C 22.25688 16.98586 0.01277
C 22.11802 15.57628 0.00096
C 23.33905 14.80934 -0.01527
C 23.40793 13.37893 0.01087
C 22.15032 12.74986 0.00199
C 22.0505 11.32663 0.01511
C 23.30122 10.55005 -0.00478
C 23.26813 27.74341 0.0106
C 23.3848 9.12196 -0.01662
C 22.12124 7.06711 0.01126
C 23.27329 6.37217 0.01852
C 23.27156 4.99847 -0.00381
C 22.00695 4.24838 0.03046
C 22.02334 2.79301 0.0296
C 23.25746 2.13143 0.03374
C 23.36923 0.69119 -0.02845
C 22.08851 34.01978 -0.03213
C 24.54525 32.64721 0.02239
C 25.81017 31.95615 0.01153
C 22.10817 8.47643 -0.01185
C 25.75977 30.51731 0.02734
C 22.10594 28.40905 -0.01594
C 23.29298 30.54826 -0.00311
C 19.73149 28.17019 0.01452
C 20.95103 27.58582 0.04892
C 21.01942 17.70013 -0.00111
C 19.72848 17.14274 -0.03557
C 19.65665 15.69158 0.03754
C 20.94687 14.91935 0.01739
C 20.90748 13.44863 0.00755
C 19.67189 12.75651 -0.0054
C 19.42538 11.32195 0.00667
C 20.79779 10.5785 0.00143
C 22.10506 29.77588 0.00742
C 20.871 9.18072 -0.017
C 19.667 7.01582 -0.00831
C 20.87631 6.3671 -0.02957
C 20.7578 4.91391 -0.04422
C 19.4684 4.24535 0.00654
C 19.49464 2.86663 -0.00703
C 20.81737 2.15599 -0.04076
C 20.84327 0.69036 -0.00652
C 19.611 0.07729 0.0058
C 22.0773 32.63379 -0.00865
C 23.37258 31.94911 0.00675
C 19.60218 8.46321 0.00364
C 24.56186 29.85929 -0.0055
C 24.54623 28.42967 0.01515
C 25.75622 27.70613 -0.00225
C 28.26057 31.91143 -0.01679
C 28.24231 30.51695 0.00367
C 27.01916 29.81848 0.04306
C 26.89326 28.3464 0.00996
C 28.21453 27.67502 0.00195
C 28.23036 26.31716 -0.00802
C 26.98375 25.60234 -0.00218
C 27.01464 24.1424 -0.01654
C 28.23655 23.41218 -0.00037
C 28.19081 21.94441 -0.0032
C 26.96594 32.68824 -0.01052
C 26.95585 21.22667 0.00622
C 28.12173 19.11974 -0.00942
C 28.2487 17.74086 0.00487
C 27.06345 16.91998 0.00826
C 27.01863 15.56073 -0.00294
C 28.27131 14.89137 0.00152
C 28.30387 13.44467 0.01257
C 27.04969 12.68393 0.02316
C 27.14862 11.24554 0.04185
C 28.30233 10.49079 0.00194
C 28.32161 9.11067 -0.00621
C 26.9416 19.83456 -0.02815
C 24.50173 34.04654 0.00684
C 25.74748 0.82392 -0.01154
C 25.71154 2.16772 -0.0264
C 25.73039 26.22954 0.00071
C 24.43631 25.49331 -0.01107
C 24.54732 24.05464 -0.01586
C 25.83235 23.4608 -0.01971
C 25.77884 21.95968 -0.02118
C 24.5441 21.41207 0.00733
C 24.4832 19.87774 -0.00178
C 25.76032 19.13039 0.00768
C 25.8804 17.67195 -0.0276
C 24.68823 16.99367 0.03005
C 24.62677 15.51382 -0.04078
C 25.77808 14.8112 0.02117
C 25.80551 13.35448 0.02737
C 24.62909 12.64236 -0.00498
C 24.52749 11.26985 0.00135
C 25.88684 10.57818 0.03102
C 25.74714 9.11572 0.02555
C 24.55625 8.40701 0.01423
C 24.54686 6.9577 -0.00285
C 25.74919 6.35532 -0.009
C 25.70431 4.92612 -0.01199
C 24.47064 4.3237 -0.00229
C 24.48648 2.85132 -0.00938
C 3.62166 31.99923 -0.01299
C 2.33438 32.65416 -0.0154
