442
Graphene
C 34.40564 0.00643 0.01295
C 12.19392 12.88195 0.00057
C 12.29658 11.40568 -0.01634
C 13.48378 10.64749 -0.00334
C 13.49708 9.2846 0.02339
C 12.26177 8.55741 0.01641
C 12.29832 7.13104 -0.00719
C 13.4889 6.31746 0.01364
C 13.50548 4.87405 -0.01062
C 12.28016 4.20218 -0.00033
C 12.27664 2.72504 0.03589
C 13.52509 2.059 -0.02759
C 13.61705 0.70727 0.0402
C 12.3545 0.01173 0.00572
C 14.794 32.62952 0.03592
C 16.04556 31.84354 0.00406
C 15.92124 30.50229 0.00943
C 14.73455 29.77207 0.02841
C 14.76631 28.28615 -0.01111
C 15.93555 27.67402 -0.01275
C 15.97445 26.22653 0.00985
C 14.74175 25.51263 -0.02245
C 14.75343 24.16513 -0.00428
C 16.04168 23.39032 0.03101
C 13.55072 13.53022 0.00093
C 13.46218 14.95588 0.01291
C 12.26152 15.68076 0.00438
C 12.30901 17.10461 -0.00191
C 9.86348 8.51747 0.03007
C 9.87727 7.09555 -0.00095
C 11.09195 6.44079 0.01572
C 11.1181 4.9942 -0.04848
C 9.87841 4.32503 -0.00892
C 9.8375 2.95888 -0.01362
C 11.04197 2.03986 -0.0008
C 11.0652 0.72279 0.0288
C 9.79467 0.0702 0.00393
C 12.35647 32.63526 0.00895
C 13.53937 31.92322 0.00685
C 16.01041 22.06894 -0.01536
C 13.57105 30.42932 0.02888
C 12.18713 28.40875 -0.01384
C 13.4953 27.68125 0.03693
C 13.45381 26.23285 0.01745
C 12.15469 25.61186 0.00488
C 12.27196 24.17359 -0.01004
C 13.5145 23.48192 -0.02896
C 13.52035 22.02001 -0.00131
C 12.28402 21.31359 -0.01118
C 12.36414 19.98189 -0.014
C 13.59356 19.22041 0.02147
C 13.54075 17.75322 0.00373
C 12.32637 29.83104 -0.00482
C 11.11357 9.31514 0.00054
C 14.73171 21.3331 -0.02689
C 16.00443 19.20425 -0.00891
C 18.42286 21.978 0.01965
C 17.26138 21.31459 0.02058
C 17.27136 19.84194 -0.01957
C 18.49155 19.09677 -0.0108
C 18.39709 17.7171 -0.00368
C 17.18632 16.99896 -0.02696
C 17.20513 15.60617 -0.00114
C 18.36578 14.86565 0.00228
C 18.42156 13.4426 0.00798
C 17.17525 12.7422 0.00422
C 17.1523 11.36328 0.0351
C 18.38185 10.72471 -0.03113
C 18.4148 9.30998 0.02098
C 17.17569 8.51865 0.01848
C 17.23772 7.12379 -0.00619
C 18.4335 6.41405 -0.02162
C 18.43204 4.9813 0.00889
C 17.20165 4.30905 -0.00481
C 17.2212 2.89084 0.00979
C 18.39769 2.14762 0.01443
C 18.43474 0.72962 0.03505
C 17.22904 0.08691 -0.02815
C 19.54864 32.64853 -0.04147
C 18.47873 23.47248 -0.03682
C 17.16265 24.12331 0.00052
C 17.19407 25.55402 0.00374
C 18.42984 26.22208 -0.02813
C 15.96804 17.75281 0.02819
C 14.73216 17.06395 0.00165
C 14.7767 15.65745 -0.02971
C 15.94254 14.88778 0.02894
C 15.91574 13.50504 -0.01789
C 14.72408 12.80638 0.00444
C 14.68766 11.40546 -0.00925
C 15.90915 10.6334 0.01877
C 15.90383 9.20398 0.01363
C 14.71432 8.49788 -0.02162
C 14.64494 7.07196 0.00415
C 14.7557 19.94748 -0.01046
C 15.99733 6.38581 -0.0014
C 14.723 4.32207 0.0076
C 14.79844 2.90111 0.01241
C 16.03355 2.18987 -0.01454
C 16.02034 0.72275 0.01945
C 14.84803 0.00599 0.01416
C 17.16571 32.70492 0.03542
C 18.34783 31.95536 0.02299
C 18.38754 30.54482 0.00244
C 17.16036 29.82457 -0.01717
C 17.21313 28.32354 0.05265
C 18.40999 27.69018 -0.01952
C 15.96653 5.01671 0.02162
C 11.04861 10.74919 -0.00494
C 9.80962 11.5098 -0.00562
C 9.79002 12.87546 -0.01142
C 3.66974 0.73481 0.03278
C 2.46835 0.02167 -0.00177
C 4.89742 32.6022 0.04421
C 6.15209 31.93442 0.00088
C 6.19249 30.56966 0.00828
C 4.96372 29.73979 -0.02375
C 4.99998 28.34691 0.00558
C 6.11371 27.7178 -0.0059
C 6.08666 26.3101 -0.01386
C 4.90174 25.6321 -0.02805
C 4.93531 24.14672 0.00081
C 6.09021 23.4505 0.00245
C 6.17987 22.05204 0.02728
C 5.00543 21.26049 -0.00039
C 4.90292 19.80467 0.0064
C 6.16134 19.03868 0.00211
C 6.02487 17.38732 -0.00449
C 4.77532 16.79923 -0.01979
C 4.78252 11.65175 0.02784
C 6.09524 10.9651 -0.01977
C 6.16745 9.39734 -0.00561
C 4.93611 8.53549 0.00208
C 4.95421 7.17768 0.01707
C 3.68283 2.18929 0.01138
C 2.48898 2.87895 -0.00407
C 2.49294 4.28246 -0.01299
C 3.71658 5.02999 -0.0154
C 3.76908 30.39573 -0.00374
C 2.49582 29.74925 -0.0213
C 2.4099 28.36327 0.01116
C 3.69425 27.73556 -0.0005
C 3.65035 26.31287 -0.00018
C 2.40776 25.5747 0.01073
C 2.47601 24.20792 0.01984
C 3.64394 23.49174 0.00535
C 3.71928 21.9991 -0.00198
C 2.48185 21.24539 -0.00012
C 2.41538 19.91532 -0.04306
C 6.19749 6.45307 0.02769
C 3.68459 19.11935 -0.03672
C 2.37805 16.99934 0.00267
C 2.4431 15.55652 0.00787
C 3.79587 14.97946 0.02426
C 3.70236 13.53207 0.01218
C 2.42527 12.87756 -0.01471
C 2.44095 11.3693 -0.02827
C 3.70713 10.74713 0.01078
C 3.70441 9.27181 -0.00112
C 2.52164 8.55729 0.03345
C 2.46974 7.10905 0.00748
C 3.68127 6.38761 0.00662
C 3.56645 17.67108 0.01913
C 6.17247 4.98392 -0.03291
C 4.90169 4.33666 -0.04999
C 4.93149 2.87671 0.04505
C 7.33483 4.35525 -0.00094
C 7.28967 2.95088 0.02322
C 8.61372 2.23748 -0.00725
C 8.61537 0.81341 -0.05697
C 7.37319 0.06745 0.01087
C 9.85104 32.69053 -0.01343
C 11.0952 31.95756 0.00988
C 11.11076 30.57022 0.0276
C 9.89406 29.88983 0.01305
C 9.79311 28.42691 -0.00077
C 10.98147 27.69373 0.03368
C 8.57282 5.02417 -0.02566
C 10.97278 26.30382 -0.02929
C 9.81377 24.13617 -0.03337
C 11.04204 23.49474 0.01227
C 11.01388 22.07348 0.00873
C 9.85378 21.3029 -0.00049
C 9.83306 19.91028 0.00848
C 11.0402 19.13953 -0.01303
C 11.05196 17.80451 -0.01378
C 9.87541 17.02724 0.02635
C 9.81167 15.69506 0.0127
C 10.99212 15.0155 0.01396
C 11.01213 13.56895 0.01849
C 9.76743 25.61926 -0.00966
C 20.76103 31.89679 -0.05302
C 8.62818 6.47081 -0.03113
C 7.37364 8.56176 -0.00643
C 6.18731 2.22119 0.03284
C 6.14678 0.73882 -0.04307
C 4.89448 0.01612 0.03189
C 7.33687 32.71858 0.00031
C 8.56177 31.99614 -0.003
C 8.64081 30.58372 0.01402
C 7.43868 29.82209 0.02379
C 7.40443 28.4529 0.00907
C 8.58194 27.73734 0.00643
C 8.47834 26.32611 -0.01509
C 7.30892 25.53614 0.03267
C 7.34823 7.1598 0.017
C 7.31738 24.20951 0.02374
C 8.55151 22.07067 0.0073
C 7.39565 21.31567 0.0174
C 7.3374 19.8406 0.03828
C 8.57764 19.18479 0.01226
C 8.6045 17.75464 -0.00279
C 7.46735 16.85411 0.01996
C 8.47438 15.09943 -0.03996
C 8.50617 13.68373 0.01465
C 7.41907 11.26522 -0.00074
C 8.65632 10.69002 -0.00518
C 8.66406 9.23599 0.0086
C 8.57156 23.43787 0.00402
C 20.79275 30.49324 0.00213
C 19.6104 29.78186 -0.00066
C 19.60008 28.44065 -0.00289
C 29.50991 15.61342 0.01705
C 30.739 14.82872 -0.0405
C 30.70857 13.43462 -0.01303
C 29.48502 12.70455 -0.01461
C 29.45964 11.30031 -0.02155
C 30.69241 10.63006 -0.00944
C 30.74734 9.18548 -0.03735
C 29.51737 8.40294 -0.00971
C 29.50761 7.03311 0.01518
C 30.80312 6.37208 0.01908
C 30.75786 4.87265 0.07705
C 29.46332 4.20028 0.0103
C 29.52511 2.83383 0.02108
C 30.73292 2.14115 0.00716
C 30.71959 0.75611 0.00307
C 29.52516 0.04414 0.00346
C 31.97486 32.66611 0.01713
C 33.27905 32.02914 -0.01694
C 33.18826 30.57266 0.01428
C 31.97521 29.85605 -0.02142
C 31.94067 28.45668 0.0544
C 33.20663 27.79038 0.00026
C 33.20355 26.32005 0.00682
C 29.47964 17.01919 0.0101
C 30.74322 17.72185 -0.00669
C 30.60955 19.11215 0.03531
C 29.4086 19.91143 0.01836
C 27.00989 11.29847 0.04185
C 28.25308 10.60946 0.00194
C 28.28909 9.15827 -0.00621
C 27.00611 8.49286 0.02611
C 27.00707 7.06342 0.02198
C 28.34142 6.37685 0.01094
C 28.31233 4.89297 0.00235
C 27.01786 4.21966 0.01495
C 27.03541 2.79871 0.01259
C 28.2685 2.14147 0.01799
C 28.26787 0.69225 0.01699
C 32.04842 25.58837 -0.01779
C 27.07271 0.04049 -0.00416
C 30.75131 31.99076 0.04266
C 30.70493 30.58633 0.01324
C 29.48961 29.79719 0.0014
C 29.45851 28.35513 0.00924
C 30.68932 27.74639 0.02326
C 30.78803 26.30973 0.00261
C 29.54834 25.59841 0.03265
C 29.45738 24.18572 -0.02049
C 30.73432 23.48001 -0.01854
C 30.68472 22.06984 -0.01415
C 29.45187 21.36135 -0.03039
C 29.50029 32.70932 0.01177
C 31.97337 24.20073 0.03794
C 33.17493 23.42313 0.01927
C 33.19209 22.00925 0.01574
C 34.4223 25.59435 -0.05239
C 34.40247 24.12165 0.03076
C 1.23515 23.39213 0.00723
C 1.23722 22.03288 0.02712
C 34.41912 21.26688 -0.02213
C 34.30438 19.78241 0.01951
C 1.07608 19.0825 -0.01678
C 1.09195 17.68487 0.01223
C 34.41922 17.00946 0.00648
C 0.01705 15.563 0.02114
C 1.19616 14.81996 -0.02957
C 1.18875 26.33572 -0.00598
C 1.21771 13.4254 0.00343
C 34.43148 11.28766 -0.02442
C 1.24484 10.59517 -0.00027
C 1.24781 9.14215 -0.00583
C 0.10274 8.40611 -0.02302
C 0.0394 7.03576 -0.02849
C 1.27028 6.36639 0.02931
C 1.26462 4.96795 0.00628
C 34.43274 4.21665 -0.0345
C 0.03012 2.86246 -0.00931
C 1.31 2.12319 -0.00939
C 1.28404 0.72186 -0.00468
C 0.02079 12.67614 -0.02656
C 27.05202 12.80705 0.02316
C 1.21416 27.66387 -0.00439
C 34.42313 29.90229 0.01831
C 31.8693 21.32006 -0.02383
C 31.88547 19.84933 -0.01429
C 33.06376 19.13673 -0.0136
C 33.08942 17.66591 0.00594
C 31.93566 16.93319 -0.02474
C 31.9326 15.52086 0.00369
C 33.16822 14.83778 0.00455
C 33.13654 13.37853 -0.00644
C 31.9177 12.68278 -0.01839
C 31.94757 11.3205 0.00137
C 33.26203 10.53903 0.00199
C 0.03664 28.47733 -0.01037
C 33.25172 9.14309 0.04381
C 31.98097 7.02808 0.01504
C 33.2844 6.30101 -0.00069
C 33.20072 4.88649 0.04926
C 31.9743 4.14017 -0.03838
C 32.01338 2.80985 0.00349
C 33.2372 2.13139 -0.00323
C 33.21291 0.74491 -0.00841
C 31.9468 0.05029 0.0001
C 0.03641 32.70349 -0.02927
C 1.27084 31.96782 -0.01404
C 1.27789 30.52248 0.01027
C 32.04088 8.3804 0.02806
C 3.67538 31.86503 -0.00141
C 28.3069 13.50633 0.01257
C 27.06379 15.69856 -0.00294
C 23.27692 31.9746 0.00654
C 23.3491 30.61424 -0.00703
C 22.09148 29.85015 -0.04076
C 22.10433 28.43261 -0.00652
C 23.30483 27.76784 0.0058
C 23.25649 26.33102 -0.00865
C 22.0912 25.53401 0.00675
C 22.11943 24.19053 -0.00311
C 23.35355 23.47123 0.00742
C 23.41921 22.09046 -0.01594
C 22.24256 21.31958 0.0106
C 22.26196 19.8947 -0.01154
C 23.42621 19.1733 -0.01721
C 23.47443 17.79722 -0.02422
C 22.12839 17.06252 0.01277
C 22.14397 15.6325 0.00096
C 23.35033 14.8962 -0.01527
C 23.31842 13.46528 0.01087
C 22.11953 12.83674 0.00199
C 22.10226 11.41645 0.01511
C 23.31755 10.67442 -0.00478
C 23.33372 9.24336 -0.01662
C 22.07411 8.47456 -0.01185
C 22.04435 32.67286 -0.04422
C 19.62972 34.05613 -0.02957
C 20.89889 0.67024 -0.00831
C 20.92191 2.16061 0.00364
C 20.89596 27.67422 0.00028
C 20.85119 26.28526 -0.02213
C 19.65159 25.57033 0.03698
C 19.72193 24.09031 -0.00109
C 20.95107 23.43027 -0.00491
C 20.94942 21.92567 0.03338
C 19.73185 21.29692 -0.0258
C 19.69945 19.84018 -0.0331
C 20.88042 19.13154 -0.00316
C 20.9273 17.73861 0.02188
C 19.70589 17.0443 -0.01979
C 22.14941 7.06806 0.01126
C 19.61427 15.5738 0.02691
C 20.85567 13.53624 0.01452
C 19.64215 12.76729 0.04892
C 19.59679 11.32518 -0.00111
C 20.83048 10.58222 -0.03557
C 20.86805 9.1781 0.03754
C 19.60154 8.59858 0.01739
C 19.63708 7.09237 0.00755
C 20.867 6.36302 -0.0054
C 20.85844 4.9842 0.00667
C 19.68201 4.2379 0.00143
C 19.64657 2.82865 -0.017
C 20.90343 14.96128 -0.01581
C 23.39789 6.42547 0.01852
C 23.39606 5.01036 -0.00381
C 22.1102 4.27493 0.03046
C 24.61437 7.1014 -0.00285
C 25.87287 6.4005 -0.009
C 25.84213 4.98272 -0.01199
C 24.58121 4.23042 -0.00229
C 24.60885 2.76592 -0.00938
C 25.77363 2.09089 -0.0264
C 25.86864 0.73889 -0.01154
C 24.55356 33.9959 0.00684
C 27.02685 32.68741 -0.01052
C 28.24925 31.99752 -0.01679
C 28.17989 30.50275 0.00367
C 24.58665 8.58225 0.01423
C 27.04492 29.74966 0.04306
C 28.30301 27.63718 0.00195
C 28.16933 26.23728 -0.00802
C 26.96934 25.57297 -0.00218
C 27.01851 24.14654 -0.01654
C 28.20528 23.49581 -0.00037
C 28.23921 22.0212 -0.0032
C 26.99806 21.27082 0.00622
C 27.02015 19.89281 -0.02815
C 28.25625 19.22291 -0.00942
C 28.31539 17.76046 0.00487
C 27.08333 17.06961 0.00826
C 27.02001 28.3523 0.00996
C 28.22504 14.92223 0.00152
C 25.7978 9.21727 0.02555
C 24.53485 11.35681 0.00135
C 22.13034 2.83851 0.0296
C 23.33904 2.16069 0.03374
C 23.39335 0.71132 -0.02845
C 22.08175 34.07389 -0.03213
C 24.55438 32.60709 0.02239
C 25.8373 31.95507 0.01153
C 25.8325 30.47759 0.02734
C 24.60662 29.92664 -0.0055
C 24.52544 28.46104 0.01515
C 25.75868 27.66063 -0.00225
C 25.7899 26.24933 0.00071
C 25.80464 10.69369 0.03102
C 24.56682 25.61755 -0.01107
C 25.82244 23.45967 -0.01971
C 25.87738 22.02275 -0.02118
C 24.61459 21.34868 0.00733
C 24.60839 19.94493 -0.00178
C 25.72081 19.11521 0.00768
C 25.84042 17.7402 -0.0276
C 24.62545 17.01875 0.03005
C 24.59722 15.53087 -0.04078
C 25.88784 14.9246 0.02117
C 25.83825 13.51707 0.02737
C 24.55604 12.76841 -0.00498
C 24.53655 24.18685 -0.01586
C 2.53608 32.65176 -0.03951
