413
Graphene
C 34.3226 34.0413 0.01295
C 12.23517 28.41017 -0.02245
C 13.53714 27.62883 -0.00428
C 13.54829 26.25668 0.03101
C 12.30031 25.67015 -0.01536
C 12.35233 24.17832 -0.02689
C 13.50502 23.33146 -0.01046
C 13.45389 21.93785 -0.00891
C 12.26145 21.18723 0.02819
C 12.29598 19.83503 0.00165
C 13.57712 19.12481 -0.02971
C 13.56764 17.67573 0.02894
C 12.38844 17.03749 -0.01789
C 12.32392 15.62224 0.00444
C 13.55044 14.9134 -0.00925
C 13.53989 13.40602 0.01877
C 12.27189 12.79448 0.01363
C 12.29 11.36729 -0.02162
C 13.54465 10.54164 0.00415
C 13.49823 9.12399 -0.0014
C 12.31773 8.45783 0.02162
C 12.27298 7.00013 0.0076
C 12.24136 29.83789 0.00985
C 13.46595 30.55751 -0.01275
C 13.46859 31.96912 -0.01111
C 12.20622 32.76014 0.02841
C 11.07521 22.05014 0.02147
C 9.84225 21.33059 0.00373
C 9.7815 19.87106 -0.00191
C 11.04886 19.09171 0.00438
C 11.14692 17.71933 0.01291
C 9.88076 17.09808 0.00093
C 9.85369 15.6622 0.00057
C 11.09453 14.97089 -0.01634
C 11.08714 13.48947 -0.00334
C 9.86045 12.86278 0.02339
C 13.4488 6.35102 0.01241
C 9.84789 11.35333 0.01641
C 10.99614 9.19904 0.01364
C 9.85185 8.57205 -0.01062
C 9.89104 7.08028 -0.00033
C 11.04227 6.39892 0.03589
C 11.0934 4.97382 -0.02759
C 9.79104 4.28702 0.0402
C 9.79708 2.86842 0.00572
C 11.1189 2.16036 0.03592
C 11.0835 0.80139 0.00406
C 9.84379 0.10489 0.00943
C 11.08965 10.58619 -0.00719
C 13.5372 4.9869 -0.01454
C 12.27624 4.2714 0.01945
C 12.34726 2.78922 0.01416
C 14.79319 8.44774 0.00889
C 14.72175 7.02416 -0.00481
C 15.93649 6.36747 0.00979
C 15.97633 5.01755 0.01443
C 14.7326 4.19881 0.03505
C 14.76259 2.8661 -0.02815
C 15.93786 2.09069 -0.04147
C 15.94256 0.69876 -0.05302
C 14.70273 0.00956 0.00213
C 17.12454 32.64114 -0.00066
C 16.06347 9.17291 -0.02162
C 18.30775 31.96393 -0.00289
C 17.14604 29.86565 -0.02213
C 17.11875 28.41149 0.03698
C 18.30886 27.68727 -0.00109
C 18.35773 26.30668 -0.00491
C 17.16044 25.53365 0.03338
C 17.21454 24.10829 -0.0258
C 18.53331 23.47619 -0.0331
C 18.55337 22.04036 -0.00316
C 17.2763 21.32191 0.02188
C 17.27601 19.88792 -0.01979
C 18.41687 30.45875 0.00028
C 11.12607 23.52172 -0.014
C 15.95208 10.60475 -0.00619
C 14.73073 12.80494 0.02098
C 13.57878 2.1456 0.03542
C 13.56197 0.72887 0.02299
C 12.24191 0.05875 0.00244
C 14.6718 32.67397 -0.01717
C 15.88024 31.92596 0.05265
C 15.96074 30.53385 -0.01952
C 14.67193 29.89307 -0.02813
C 14.72501 28.47671 0.00374
C 15.87314 27.72107 0.00052
C 15.85575 26.30919 -0.03682
C 14.71563 11.29615 0.01848
C 14.71524 25.5473 0.01965
C 16.02034 23.36192 -0.01957
C 15.95836 21.93643 -0.0108
C 14.71165 21.28139 -0.00368
C 14.7596 19.87067 -0.02696
C 15.99892 19.20999 -0.00114
C 16.0332 17.7529 0.00228
C 14.8105 17.06694 0.00798
C 14.81273 15.63995 0.00422
C 16.03679 14.94074 0.0351
C 15.9496 13.50819 -0.03113
C 14.75683 24.09167 0.02058
C 9.86703 24.17245 -0.01118
C 9.8279 25.586 -0.00131
C 11.07609 26.29324 -0.02896
C 2.40587 2.87313 0.03284
C 3.64022 2.13949 -0.04307
C 3.60303 0.77136 0.03189
C 2.4044 34.01196 0.00031
C 4.88572 32.67508 -0.003
C 6.146 32.04515 0.01402
C 6.10942 30.57826 0.02379
C 4.86806 29.81045 0.00907
C 4.9224 28.40347 0.00643
C 6.16124 27.63541 -0.01509
C 2.34 4.27288 0.04505
C 6.14589 26.25314 0.03267
C 4.88285 24.03779 0.00402
C 6.21462 23.41224 0.0073
C 6.16245 21.99741 0.0174
C 4.904 21.34755 0.03828
C 4.89632 19.92626 0.01226
C 6.12309 19.18305 -0.00279
C 6.14669 17.83666 0.01996
C 4.93526 17.08057 -0.03996
C 5.01173 15.61202 0.01465
C 6.16454 14.90632 -0.00074
C 5.00543 25.49503 0.02374
C 6.19078 13.48922 -0.00518
C 3.61624 5.05294 -0.04999
C 2.44973 7.02981 0.02769
C 3.71361 30.53613 -0.00177
C 2.50949 29.83634 0.04421
C 2.47116 28.39256 0.00088
C 3.73029 27.70953 0.00828
C 3.74357 26.22706 -0.02375
C 2.48922 25.59565 0.00558
C 2.50204 24.21073 -0.0059
C 3.67452 23.40681 -0.01386
C 3.67141 22.02368 -0.02805
C 2.40286 21.27351 0.00081
C 3.67568 6.43298 -0.03291
C 2.31392 19.83723 0.00245
C 3.71659 17.71117 -0.00039
C 2.44448 17.05096 0.0064
C 2.51291 15.69533 0.00211
C 3.67505 14.98736 -0.00449
C 3.67416 13.54433 -0.01979
C 2.47309 12.74246 0.02784
C 2.42876 11.42739 -0.01977
C 3.63085 10.66506 -0.00561
C 3.55556 9.21818 0.00208
C 2.36072 8.56158 0.01707
C 3.60655 19.16586 0.02728
C 18.47071 19.11686 0.02691
C 4.97466 12.78939 0.0086
C 6.10551 10.75363 0.017
C 7.41001 15.67252 -0.01142
C 8.64778 15.00486 -0.00562
C 8.6577 13.55644 -0.00494
C 7.47815 12.8012 0.00054
C 7.41566 11.35954 0.03007
C 8.63256 10.65267 -0.00095
C 8.61208 9.26133 0.01572
C 7.34138 8.5686 -0.04848
C 7.39826 7.19567 -0.00892
C 8.64261 6.42055 -0.01362
C 7.34524 17.08031 0.01849
C 8.56066 5.0112 -0.0008
C 7.32594 2.90622 0.00393
C 8.56609 2.23533 0.00895
C 8.47611 0.86511 0.00685
C 7.27962 0.17785 0.02888
C 9.81339 32.78515 -0.00482
C 11.0223 32.02832 -0.01384
C 11.02895 30.5945 0.03693
C 9.77024 29.92309 0.01745
C 9.83262 28.49008 0.00488
C 11.00365 27.71568 -0.01004
C 7.3279 4.38987 0.0288
C 4.91821 11.34901 -0.00643
C 8.61472 17.76936 0.01396
C 7.39138 19.85707 0.02635
C 6.07658 9.24549 -0.03113
C 4.8238 8.54317 -0.02566
C 4.93625 7.11944 -0.00094
C 6.16221 6.48002 0.02322
C 6.02137 5.00594 -0.00725
C 4.79253 4.28573 -0.05697
C 4.84062 2.87896 0.01087
C 6.07454 2.1899 -0.01343
C 6.06032 0.82838 0.00988
C 4.87207 0.01934 0.0276
C 8.61603 19.19948 0.0127
C 7.31672 32.81112 0.01305
C 8.52948 30.68221 0.03368
C 7.23124 29.86997 -0.02929
C 7.29739 28.46296 -0.00966
C 8.58592 27.79326 -0.03337
C 8.59768 26.31961 0.01227
C 7.38293 25.58847 0.00873
C 7.40985 24.1078 -0.00049
C 8.64517 23.46997 0.00848
C 8.64435 22.0124 -0.01303
C 7.43634 21.26002 -0.01378
C 8.59747 32.06191 -0.00077
C 3.65572 31.98947 0.03278
C 18.39815 17.75798 -0.01581
C 17.17262 15.67128 0.04892
C 29.55743 21.33413 -0.03735
C 29.53543 19.92882 -0.00971
C 30.68869 19.12643 0.01518
C 30.70979 17.73505 0.01908
C 29.51213 17.07773 0.07705
C 29.55602 15.63226 0.0103
C 30.6972 14.83211 0.02108
C 30.61505 13.53764 0.00716
C 29.57276 2.72457 0.00307
C 30.78527 2.10251 0.00346
C 30.68048 0.68496 0.01713
C 29.46152 0.00209 -0.01694
C 31.98344 32.61086 0.01428
C 33.13425 31.91741 -0.02142
C 33.16523 30.48544 0.0544
C 31.8773 29.769 0.00026
C 31.90358 28.40444 0.00682
C 33.15095 27.67595 -0.01779
C 33.14485 26.2971 0.03794
C 31.95995 25.55419 0.01927
C 32.02043 24.10722 0.01574
C 30.76177 21.98216 -0.00944
C 30.78303 23.43622 -0.02155
C 29.5571 24.08873 -0.01461
C 29.47773 25.40941 -0.01303
C 27.06104 24.13876 0.01259
C 28.34582 23.37375 0.01799
C 28.28995 22.00707 0.01699
C 27.07915 21.32121 -0.00416
C 27.01036 19.91807 0.01177
C 28.27338 19.24209 0.04266
C 28.31094 17.87996 0.01324
C 27.06777 17.10633 0.0014
C 27.11322 15.71855 0.00924
C 28.30225 14.98574 0.02326
C 33.25582 23.37373 -0.02383
C 28.51061 13.56953 0.00261
C 28.2575 2.32599 -0.02049
C 28.27325 0.6904 -0.01854
C 26.98764 34.0619 -0.01415
C 29.46319 32.58246 -0.03039
C 30.67318 31.86329 0.01836
C 30.65662 30.55486 0.03531
C 29.45449 29.76078 -0.00669
C 29.51413 28.30139 0.0101
C 30.67779 27.58866 0.01705
C 30.7515 26.18701 -0.0405
C 27.05286 2.72317 0.03265
C 33.19096 21.95824 -0.01429
C 31.9568 21.22904 -0.0136
C 31.91986 19.84582 0.00594
C 1.27798 23.50877 0.00723
C 1.20679 22.05773 0.02712
C 34.42985 21.29122 -0.02213
C 34.33663 19.85207 0.01951
C 1.13738 19.15862 -0.01678
C 1.20147 17.71873 0.01223
C 34.35889 16.99182 0.00648
C 34.41581 15.63632 0.02114
C 1.26263 14.94052 -0.02957
C 1.29738 13.46302 0.00343
C 34.42732 24.17562 0.03076
C 34.42342 12.74466 -0.02656
C 1.14661 10.62514 -0.00027
C 1.15947 9.2226 -0.00583
C 34.40859 8.43007 -0.02302
C 34.40834 7.05897 -0.02849
C 1.20487 6.36507 0.02931
C 1.0945 5.03404 0.00628
C 34.29742 4.32146 -0.0345
C 34.3896 2.86474 -0.00931
C 1.20805 2.08741 -0.00939
C 1.15922 0.73626 -0.00468
C 34.3454 11.37182 -0.02442
C 27.10388 25.51137 0.01495
C 34.40826 25.61979 -0.05239
C 1.18712 27.74654 -0.00439
C 33.19078 19.13972 -0.02474
C 33.16011 17.6842 0.00369
C 31.89266 16.98946 0.00455
C 31.98531 15.6134 -0.00644
C 33.23637 14.89012 -0.01839
C 33.14449 13.51746 0.00137
C 31.8586 12.74296 0.00199
C 32.08207 11.41255 0.04381
C 33.06065 10.4523 0.02806
C 33.19993 9.12417 0.01504
C 1.25766 26.37846 -0.00598
C 33.25379 6.3895 -0.00069
C 31.87246 4.1359 -0.03838
C 31.98008 2.81954 0.00349
C 33.21437 2.07692 -0.00323
C 33.15738 0.70957 -0.00841
C 31.92024 34.07875 0.0001
C 34.41302 32.66144 -0.02927
C 1.23746 31.87753 -0.01404
C 1.18873 30.48231 0.01027
C 34.36557 29.7852 0.01831
C 0.02638 28.38493 -0.01037
C 33.01465 5.06128 0.04926
C 28.27205 26.19304 0.00235
C 28.295 27.61329 0.01094
C 27.00884 28.33913 0.02198
C 19.76396 21.31123 -0.02422
C 19.70317 19.82983 0.01277
C 20.92894 19.08928 0.00096
C 20.89579 17.72498 -0.01527
C 19.67994 17.00077 0.01087
C 19.72799 15.54364 0.00199
C 20.91308 14.86519 0.01511
C 20.96436 13.44037 -0.00478
C 19.79359 12.78195 -0.01662
C 19.72301 11.34631 -0.01185
C 21.00304 22.03069 -0.01721
C 20.94458 10.62326 0.01126
C 19.66816 8.52465 -0.00381
C 19.69484 7.12028 0.03046
C 20.86626 6.44003 0.0296
C 21.14448 5.14762 0.03374
C 19.75134 4.34218 -0.02845
C 19.7008 2.85761 -0.03213
C 20.87845 2.05537 0.02239
C 20.80934 0.73999 0.01153
C 19.61141 34.07386 0.02734
C 22.02336 32.57877 -0.0055
C 20.85292 9.20371 0.01852
C 23.37278 31.97707 0.01515
C 21.02209 23.45998 -0.01154
C 19.6238 25.6542 -0.01594
C 18.475 14.90662 -0.00111
C 18.46826 13.4483 -0.03557
C 17.22213 12.79006 0.03754
C 17.17857 11.43213 0.01739
C 18.44397 10.62798 0.00755
C 18.45381 9.24162 -0.0054
C 17.24972 8.51888 0.00667
C 17.23175 7.11378 0.00143
C 18.36429 6.33597 -0.017
C 18.4924 4.97811 0.00364
C 19.63429 24.21728 0.0106
C 17.23334 4.21402 -0.00831
C 18.4428 2.14241 -0.04422
C 18.39514 0.70943 0.00654
C 17.24137 34.04635 -0.00703
C 19.61152 32.66895 -0.04076
C 20.80019 31.92564 -0.00652
C 20.89381 30.48321 0.0058
C 19.60551 29.76117 -0.00865
C 19.61061 28.36892 0.00675
C 20.79192 27.7041 -0.00311
C 20.87863 26.31816 0.00742
C 17.21971 2.8395 -0.02957
C 17.21686 17.0122 0.01452
C 23.33511 30.56179 -0.00225
C 22.05404 28.38375 -0.01107
C 25.77441 27.6243 0.00367
C 25.80347 26.26359 0.04306
C 24.55175 25.47311 0.00996
C 24.61697 24.1199 0.00195
C 25.84125 23.44299 -0.00802
C 25.81597 21.98636 -0.00218
C 24.69628 21.28893 -0.01654
C 24.59384 19.9388 -0.00037
C 25.77937 19.18489 -0.0032
C 25.81541 17.73227 0.00622
C 24.53177 28.449 -0.01679
C 24.59634 17.04911 -0.02815
C 25.81459 14.92233 0.00487
C 25.84937 13.56025 0.00826
C 24.47461 2.79967 -0.00294
C 25.75321 2.28186 0.00152
C 25.77091 0.70554 0.01257
C 24.57708 34.06955 0.02316
C 27.05238 32.67153 0.04185
C 28.25368 31.92182 0.00194
C 28.18208 30.47307 -0.00621
C 27.02129 29.74869 0.02611
C 24.56542 15.63097 -0.00942
C 22.11455 29.81321 0.00071
C 24.57045 29.86991 -0.01052
C 25.77813 31.93246 -0.01154
C 23.33772 27.68032 -0.01586
C 23.37173 26.27465 -0.01971
C 22.12081 25.60419 -0.02118
C 22.21319 24.15603 0.00733
C 23.40274 23.43452 -0.00178
C 23.4618 22.01919 0.00768
C 22.13637 21.29183 -0.0276
C 22.13058 19.83203 0.03005
C 23.31193 19.19372 -0.04078
C 23.36153 17.75428 0.02117
C 25.82064 30.55212 0.00684
C 22.15711 17.01816 0.02737
C 23.42658 14.86391 0.00135
C 23.55787 13.46554 0.03102
C 22.42495 12.71836 0.02555
C 22.01256 11.44183 0.01423
C 22.16543 4.18214 -0.00285
C 22.13788 2.78737 -0.009
C 23.3061 2.08219 -0.01199
C 23.34023 0.69312 -0.00229
C 22.09044 34.0158 -0.00938
C 24.58604 32.63435 -0.0264
C 22.15762 15.4981 -0.00498
C 2.44951 32.66716 0.01138
