402
Graphene
C 0.0058 34.05232 0.01295
C 13.77857 13.63069 0.02819
C 13.33464 9.20446 0.00165
C 12.40543 7.3113 -0.02971
C 13.50577 6.41685 0.02894
C 13.56909 4.91276 -0.01789
C 12.33407 4.26606 0.00444
C 12.29971 2.8539 -0.00925
C 13.43626 2.02496 0.01877
C 13.48079 0.66966 0.01363
C 12.21934 34.01741 -0.02162
C 14.80096 32.57571 0.00415
C 16.07662 31.92031 -0.0014
C 16.09112 30.51823 0.02162
C 14.81128 29.83194 0.0076
C 14.85071 28.35555 0.01241
C 16.01155 27.64151 -0.01454
C 15.94957 26.23447 0.01945
C 14.74901 25.48511 0.01416
C 14.64057 24.06564 0.03542
C 16.00364 23.43699 0.02299
C 15.98111 21.98337 0.00244
C 13.2849 14.91478 -0.00891
C 14.77607 21.26801 -0.01717
C 12.20683 15.73299 -0.01046
C 13.53578 17.78357 -0.01536
C 11.10363 6.6395 -0.00334
C 11.10722 5.07616 0.02339
C 9.83882 4.38366 0.01641
C 9.83627 2.90356 -0.00719
C 11.01503 2.17917 0.01364
C 11.01477 0.72688 -0.01062
C 9.79889 0.02076 -0.00033
C 12.28683 32.61732 0.03589
C 13.59354 31.90292 -0.02759
C 13.5941 30.62652 0.0402
C 12.38037 29.82614 0.00572
C 12.35739 28.39439 0.03592
C 13.56435 27.64602 0.00406
C 13.55448 26.25144 0.00943
C 12.26046 25.59546 0.02841
C 12.25366 24.19329 -0.01111
C 13.50197 23.41537 -0.01275
C 13.49625 21.96939 0.00985
C 12.22487 21.3327 -0.02245
C 12.28589 19.90782 -0.00428
C 13.54847 19.22558 0.03101
C 12.3033 17.10948 -0.02689
C 9.83597 7.10272 -0.01634
C 14.8161 19.93099 0.05265
C 16.01318 17.73312 -0.02813
C 17.19086 24.11529 -0.04147
C 18.387 23.47398 -0.05302
C 18.40648 22.02819 0.00213
C 17.18277 21.29535 -0.00066
C 17.20591 19.91145 -0.00289
C 18.44053 19.14195 0.00028
C 18.48154 17.784 -0.02213
C 17.25095 17.02002 0.03698
C 17.28677 15.58633 -0.00109
C 18.44733 9.00251 -0.00491
C 17.18667 8.55358 0.03338
C 17.20616 7.09005 -0.0258
C 18.44294 6.37026 -0.0331
C 18.53134 4.90517 -0.00316
C 17.22213 4.23918 0.02188
C 17.09907 2.84175 -0.01979
C 18.34478 2.16319 0.02691
C 18.46121 0.68174 -0.01581
C 17.20505 34.04815 0.01452
C 19.76235 32.72469 0.04892
C 20.97784 32.02099 -0.00111
C 17.23086 25.58011 -0.02815
C 16.00939 19.12871 -0.01952
C 18.50296 26.27321 0.03505
C 17.20901 28.36691 0.00979
C 14.77171 17.02791 0.00374
C 14.71284 15.63873 0.00052
C 16.08975 14.90371 -0.03682
C 15.87668 13.50059 0.01965
C 14.7437 12.69227 0.02058
C 14.8767 11.38489 -0.01957
C 15.73392 10.44996 -0.0108
C 15.92338 9.15718 -0.00368
C 14.58177 8.58742 -0.02696
C 14.75372 7.16052 -0.00114
C 15.90504 6.38605 0.00228
C 15.95482 4.94219 0.00798
C 14.77591 4.17401 0.00422
C 14.64894 2.75106 0.0351
C 15.84795 2.10547 -0.03113
C 15.93853 0.69702 0.02098
C 14.7639 34.00826 0.01848
C 17.27166 32.68204 -0.00619
C 18.50349 32.00676 -0.02162
C 18.5342 30.56526 0.00889
C 17.29625 29.81787 -0.00481
C 18.50831 27.72603 0.01443
C 9.87696 17.07819 0.00057
C 11.03432 17.82359 0.00093
C 11.00133 19.32506 0.01291
C 2.43372 4.31512 0.03267
C 2.36759 2.90801 0.02374
C 3.62156 2.17361 0.00402
C 3.64251 0.71929 0.0073
C 2.40493 0.00101 0.0174
C 4.80984 32.6998 0.03828
C 6.1335 31.97214 0.01226
C 6.11786 30.60225 -0.00279
C 4.90938 29.90618 0.01996
C 4.86974 28.46068 -0.03996
C 6.00323 27.73452 0.01465
C 6.03566 26.32415 -0.00074
C 4.82852 25.61523 -0.00518
C 4.96148 24.15388 0.0086
C 6.06907 23.41557 -0.00643
C 6.1728 21.98331 0.017
C 5.02096 21.23991 -0.03113
C 4.88083 19.82023 -0.02566
C 6.15529 19.14649 -0.00094
C 6.19544 17.67777 0.02322
C 4.87347 16.93239 -0.00725
C 3.61693 5.05768 -0.01509
C 4.96052 15.55551 -0.05697
C 3.65648 6.42818 0.00643
C 2.45282 8.59817 0.02379
C 3.6311 30.56279 0.02728
C 2.36014 29.78602 -0.00039
C 2.41868 28.39709 0.0064
C 3.67378 27.73436 0.00211
C 3.64721 26.36095 -0.00449
C 2.47014 25.58587 -0.01979
C 2.48844 24.15464 0.02784
C 3.70908 23.44725 -0.01977
C 3.74831 21.98177 -0.00561
C 2.51388 21.2917 0.00208
C 2.41393 19.8545 0.01707
C 3.63724 19.21351 0.02769
C 3.59165 17.77444 -0.03291
C 2.35548 17.04195 -0.04999
C 2.47726 15.61742 0.04505
C 3.74148 14.9451 0.03284
C 3.69616 13.55893 -0.04307
C 2.45433 12.79203 0.03189
C 2.44397 11.40557 0.00031
C 3.63507 10.70612 -0.003
C 3.73043 9.26104 0.01402
C 2.45115 7.14828 0.00907
C 6.16323 14.7391 0.01087
C 4.82255 12.78321 -0.01343
C 4.78749 11.47054 0.00988
C 7.26967 6.93396 -0.01362
C 8.5609 6.59022 -0.0008
C 8.58213 5.04667 0.0288
C 7.33303 4.31615 0.00393
C 7.34934 2.96982 0.00895
C 8.58017 2.21846 0.00685
C 8.64948 0.76754 0.02888
C 7.38597 0.08856 -0.00482
C 9.8217 32.75214 -0.01384
C 11.02862 31.99746 0.03693
C 11.07313 30.52151 0.01745
C 9.84127 29.86542 0.00488
C 9.82382 28.41231 -0.01004
C 11.06296 27.77064 -0.02896
C 11.00635 26.32835 -0.00131
C 9.75116 25.70835 -0.01118
C 9.76285 24.30054 -0.014
C 11.04926 23.48645 0.02147
C 11.0877 22.05325 0.00373
C 9.81296 21.37652 -0.00191
C 9.84819 19.94531 0.00438
C 7.11878 15.67756 -0.00892
C 7.39987 16.94895 -0.04848
C 8.58638 17.71248 0.01572
C 8.58828 19.11581 -0.00095
C 5.05059 8.55158 0.0276
C 4.8249 7.15654 0.01305
C 6.02932 6.37019 -0.00077
C 6.0746 4.92368 0.03368
C 4.82484 4.27187 -0.02929
C 4.81307 2.88971 -0.00966
C 6.16039 2.14853 -0.03337
C 6.18771 0.71683 0.01227
C 4.87039 34.07941 0.00873
C 7.34683 32.76865 -0.00049
C 20.92031 30.54859 -0.03557
C 8.62668 32.0386 0.00848
C 7.35561 29.8615 -0.01378
C 7.26149 28.41038 0.02635
C 8.53822 27.77618 0.0127
C 8.49018 26.35397 0.01396
C 7.29184 25.61396 0.01849
C 7.33727 24.11692 -0.01142
C 8.64258 23.52581 -0.00562
C 8.63974 22.05062 -0.00494
C 7.44449 21.33292 0.00054
C 7.3898 19.86228 0.03007
C 8.63086 30.56015 -0.01303
C 19.70916 29.88794 0.03754
C 19.65016 28.45038 0.01739
C 20.85945 27.74335 0.00755
C 29.43436 8.56537 -0.00971
C 29.38314 7.13059 0.01518
C 30.66408 6.39613 0.01908
C 30.63615 4.99024 0.07705
C 29.47173 4.24668 0.0103
C 29.4976 2.86204 0.02108
C 30.77788 2.12088 0.00716
C 30.82294 0.73561 0.00307
C 29.61681 0.02552 0.00346
C 31.9884 32.6808 0.01713
C 33.22388 31.97689 -0.01694
C 33.21686 30.48527 0.01428
C 31.96229 29.68955 -0.02142
C 32.00659 28.36092 0.0544
C 33.19598 27.65226 0.00026
C 33.22175 26.21462 0.00682
C 32.00618 25.52828 -0.01779
C 31.96638 24.19025 0.03794
C 33.24444 23.36707 0.01927
C 33.18248 21.9807 0.01574
C 32.00399 21.30872 -0.02383
C 30.71333 9.26469 -0.03735
C 31.91331 19.8534 -0.01429
C 30.67652 10.64886 -0.00944
C 29.51077 12.80108 -0.01461
C 28.33721 0.72015 0.01699
C 27.11633 34.02559 -0.00416
C 29.60265 32.63921 0.01177
C 30.79989 31.89686 0.04266
C 30.75517 30.50145 0.01324
C 29.50408 29.75006 0.0014
C 29.44555 28.33678 0.00924
C 30.78365 27.62932 0.02326
C 30.71054 26.24425 0.00261
C 29.46728 25.57379 0.03265
C 29.43414 24.14998 -0.02049
C 30.68821 23.44093 -0.01854
C 30.72629 22.04094 -0.01415
C 29.4402 21.34249 -0.03039
C 29.48769 19.91499 0.01836
C 30.65156 19.2166 0.03531
C 30.72757 17.77407 -0.00669
C 29.51804 17.01741 0.0101
C 29.54632 15.64212 0.01705
C 30.72467 14.86674 -0.0405
C 30.78777 13.42424 -0.01303
C 29.44194 11.39681 -0.02155
C 33.09468 19.05442 -0.0136
C 33.12482 17.72728 0.00594
C 31.91579 17.04808 -0.02474
C 1.30412 22.084 0.02712
C 0.02057 21.30034 -0.02213
C 34.43261 19.86178 0.01951
C 1.24024 19.11721 -0.01678
C 1.13391 17.721 0.01223
C 34.39231 17.01984 0.00648
C 34.39236 15.66318 0.02114
C 1.24411 14.90554 -0.02957
C 1.21916 13.54054 0.00343
C 34.39327 12.84757 -0.02656
C 34.36811 11.42595 -0.02442
C 1.19168 10.69455 -0.00027
C 1.26021 9.19549 -0.00583
C 34.38959 8.45477 -0.02302
C 34.35199 7.11611 -0.02849
C 1.20651 6.48396 0.02931
C 1.22891 5.06637 0.00628
C 34.41365 4.3224 -0.0345
C 34.38658 2.91504 -0.00931
C 1.16333 2.18548 -0.00939
C 1.21716 0.75758 -0.00468
C 1.28375 23.45938 0.00723
C 34.40494 24.08038 0.03076
C 34.40114 25.49208 -0.05239
C 1.19057 26.24857 -0.00598
C 31.87975 15.56952 0.00369
C 33.1413 14.90587 0.00455
C 33.18495 13.47362 -0.00644
C 31.9635 12.79421 -0.01839
C 31.905 11.37519 0.00137
C 33.18453 10.63635 0.00199
C 33.16634 9.1911 0.04381
C 31.88964 8.49964 0.02806
C 31.93929 7.12741 0.01504
C 33.17093 6.39868 -0.00069
C 28.35064 2.06466 0.01799
C 33.13927 5.01271 0.04926
C 32.01517 2.87095 0.00349
C 33.19336 2.20624 -0.00323
C 33.21516 0.7384 -0.00841
C 32.00338 0.01156 0.0001
C 0.001 32.6338 -0.02927
C 1.14956 31.91684 -0.01404
C 1.20514 30.44515 0.01027
C 34.42338 29.77082 0.01831
C 34.39803 28.36106 -0.01037
C 1.15869 27.63402 -0.00439
C 31.9286 4.23484 -0.03838
C 3.64112 31.96061 0.00245
C 28.30256 4.87668 0.01259
C 26.93838 7.15923 0.00235
C 23.32591 27.63517 0.01087
C 23.33612 26.24356 0.00199
C 22.08027 25.58019 0.01511
C 22.13756 24.13134 -0.00478
C 23.28122 23.40142 -0.01662
C 23.29924 21.95847 -0.01185
C 22.16307 21.2112 0.01126
C 22.1934 19.8279 0.01852
C 23.38704 19.07308 -0.00381
C 23.37101 17.62842 0.03046
C 22.12823 17.02474 0.0296
C 21.96717 15.67803 0.03374
C 23.16795 14.78943 -0.02845
C 23.38777 13.36604 -0.03213
C 23.57563 10.50993 0.02239
C 23.24718 9.19042 0.01153
C 22.20955 8.40729 0.02734
C 22.20918 7.06445 -0.0055
C 23.4646 6.56111 0.01515
C 23.36563 0.68996 -0.00225
C 22.15736 34.07413 0.00071
C 22.12397 28.42752 -0.01527
C 24.65354 32.75127 -0.01107
C 22.10049 29.83194 0.00096
C 23.38956 31.99033 -0.02422
C 20.89422 26.26173 -0.0054
C 19.68506 25.54368 0.00667
C 19.60692 24.19984 0.00143
C 20.85124 23.37827 -0.017
C 20.88242 21.97015 0.00364
C 19.65933 21.32465 -0.00831
C 19.72256 19.95303 -0.02957
C 20.96042 19.17686 -0.04422
C 20.9324 17.75965 0.00654
C 19.70752 17.02977 -0.00703
C 19.89144 15.62462 -0.04076
C 19.72716 8.44707 -0.00652
C 19.72003 7.12558 0.0058
C 20.93567 6.29657 -0.00865
C 20.90766 4.9676 0.00675
C 19.74683 4.19974 -0.00311
C 19.6928 2.8436 0.00742
C 20.89153 2.18327 -0.01594
C 21.05125 0.85885 0.0106
C 19.62934 0.08841 -0.01154
C 22.20972 32.62168 -0.01721
C 23.34209 30.5769 0.01277
C 25.82205 31.96403 -0.01586
C 25.76601 30.49991 -0.01971
C 24.51162 29.7694 -0.02118
C 26.99781 29.82943 0.00195
C 27.02594 28.39781 -0.00802
C 28.21392 27.67022 -0.00218
C 28.25033 26.25229 -0.01654
C 26.9617 25.52096 -0.00037
C 26.95215 24.12685 -0.0032
C 28.20865 23.50927 0.00622
C 28.24203 22.03707 -0.02815
C 27.04048 21.28942 -0.00942
C 27.04989 19.84961 0.00487
C 28.30421 19.14203 0.00826
C 28.29745 17.77067 -0.00294
C 27.03794 17.02772 0.00152
C 27.08017 15.66912 0.01257
C 28.31145 14.99122 0.02316
C 28.29847 13.53745 0.04185
C 27.12684 12.82818 0.00194
C 27.09796 11.46163 -0.00621
C 28.24725 10.67789 0.02611
C 28.21575 9.20028 0.02198
C 27.06956 8.47721 0.01094
C 28.24559 30.51237 0.00996
C 28.36436 31.8873 0.04306
C 27.08461 32.57417 0.00367
C 24.67233 0.18999 -0.01679
C 24.49672 28.41528 0.00733
C 25.75801 27.66731 -0.00178
C 25.72029 26.26644 0.00768
C 24.56715 25.49571 -0.0276
C 24.49323 24.06253 0.03005
C 25.68794 23.36494 -0.04078
C 25.79831 21.9886 0.02117
C 24.57399 21.2458 0.02737
C 24.60409 19.83194 -0.00498
C 25.83399 19.10224 0.00135
C 28.05345 6.2689 0.01495
C 25.87205 17.70599 0.03102
C 24.48185 15.5269 0.01423
C 25.81641 14.83254 -0.00285
C 25.86178 13.4568 -0.009
C 24.64729 12.75077 -0.01199
C 24.62796 11.36952 -0.00229
C 25.84584 10.66514 -0.00938
C 25.83489 9.20247 -0.0264
C 24.65693 8.55699 -0.01154
C 24.68911 7.19366 0.00684
C 25.92199 0.6321 -0.01052
C 24.5857 16.9617 0.02555
C 2.39523 32.67685 0.00081
