398
Graphene
C 0.01955 0.029 0.01295
C 12.33736 24.11852 0.02894
C 13.47927 23.49902 -0.01789
C 13.52279 22.0502 0.00444
C 12.31577 21.2852 -0.00925
C 12.35 19.92036 0.01877
C 13.56228 19.19643 0.01363
C 13.47177 17.6704 -0.02162
C 12.212 17.05073 0.00415
C 12.21237 4.18077 -0.0014
C 12.30192 25.54675 -0.02971
C 12.36981 2.87347 0.02162
C 13.5522 0.67214 0.01241
C 12.33291 34.04934 -0.01454
C 14.77973 32.65353 0.01945
C 15.94669 32.04232 0.01416
C 15.99875 30.50682 0.03542
C 14.78491 29.74122 0.02299
C 14.72012 28.35328 0.00244
C 16.04319 27.61102 -0.01717
C 15.94678 26.23347 0.05265
C 13.52337 2.16026 0.0076
C 13.53503 26.23431 0.00165
C 13.50509 27.72855 0.02819
C 12.24805 28.46459 -0.00891
C 11.11112 26.32207 -0.00719
C 9.87135 25.6026 0.01364
C 9.86983 24.18656 -0.01062
C 11.08226 23.44401 -0.00033
C 11.0404 22.02615 0.03589
C 9.84236 21.28845 -0.02759
C 9.86335 19.91044 0.0402
C 11.08151 19.25793 0.00572
C 11.02317 17.77952 0.03592
C 9.80593 17.10119 0.00406
C 9.84577 15.56616 0.00943
C 11.12398 4.93392 0.02841
C 9.86115 4.3071 -0.01111
C 9.92682 2.85599 -0.01275
C 11.05197 2.08869 0.00985
C 11.06454 0.74077 -0.02245
C 9.8587 34.05574 -0.00428
C 12.24019 32.63894 0.03101
C 13.53783 31.92687 -0.01536
C 13.61767 30.5298 -0.02689
C 12.31591 29.86426 -0.01046
C 14.76847 25.56361 -0.01952
C 14.71006 24.21815 -0.02813
C 15.95964 23.44769 0.00374
C 15.97396 21.95974 0.00052
C 18.39427 4.87784 0.00213
C 17.27135 4.32194 -0.00066
C 17.2167 2.81683 -0.00289
C 18.43866 2.15145 0.00028
C 18.44989 0.73175 -0.02213
C 17.22972 34.064 0.03698
C 19.7366 32.69321 -0.00109
C 20.88642 31.90679 -0.00491
C 20.94453 30.53609 0.03338
C 19.68288 29.80279 -0.0258
C 19.69202 28.34987 -0.0331
C 20.84275 27.70212 -0.00316
C 20.88677 26.25996 0.02188
C 19.70975 25.51626 -0.01979
C 19.69949 24.12122 0.02691
C 20.89712 23.47355 -0.01581
C 20.86636 22.00836 0.01452
C 19.64225 21.30359 0.04892
C 19.62495 19.92441 -0.00111
C 20.88391 19.20093 -0.03557
C 20.89907 17.7667 0.03754
C 17.26239 17.0419 -0.05302
C 11.09236 27.71022 0.01641
C 18.46933 17.77373 -0.04147
C 17.21153 19.90087 0.03505
C 14.79613 21.31995 -0.03682
C 14.77301 19.88912 0.01965
C 15.99918 19.12039 0.02058
C 15.94856 17.68755 -0.01957
C 14.73859 17.05099 -0.0108
C 14.81235 2.85625 -0.00368
C 15.95532 2.11994 -0.02696
C 15.95581 0.70678 -0.00114
C 14.71656 0.02586 0.00228
C 17.19561 32.65844 0.00798
C 18.37348 31.9539 0.00422
C 18.4501 30.53876 0.0351
C 17.25041 29.784 -0.03113
C 17.19621 28.36909 0.02098
C 18.43877 27.61474 0.01848
C 18.41987 26.24355 -0.00619
C 17.22137 25.54607 -0.02162
C 17.16628 24.12646 0.00889
C 18.45804 23.42231 -0.00481
C 18.48453 22.02975 0.00979
C 17.18788 21.36096 0.01443
C 18.46305 19.14124 -0.02815
C 9.81647 28.41873 0.02339
C 9.83089 29.84448 -0.00334
C 11.08576 30.59212 -0.01634
C 2.4748 4.20592 0.0174
C 2.44251 2.85464 0.03828
C 3.66088 2.15989 0.01226
C 3.63494 0.73018 -0.00279
C 2.45292 0.00825 0.01996
C 4.916 32.71295 -0.03996
C 6.17875 31.91039 0.01465
C 6.16157 30.55662 -0.00074
C 4.95632 29.83679 -0.00518
C 4.92938 28.41721 0.0086
C 6.08841 27.75727 -0.00643
C 6.14937 26.31341 0.017
C 4.92032 25.542 -0.03113
C 4.90328 24.14489 -0.02566
C 6.10187 23.45368 -0.00094
C 6.17955 21.95325 0.02322
C 4.9844 21.2909 -0.00725
C 4.89821 19.86109 -0.05697
C 6.21411 19.15194 0.01087
C 6.15517 17.73996 -0.01343
C 4.84784 17.02872 0.00988
C 3.6711 5.05766 0.0073
C 4.90206 15.6413 0.0276
C 3.75728 6.38464 0.00402
C 2.44758 8.53271 0.03267
C 3.75223 30.50264 -0.00449
C 2.44277 29.76871 -0.01979
C 2.4814 28.3703 0.02784
C 3.59266 27.64543 -0.01977
C 3.67094 26.3292 -0.00561
C 2.43092 25.60362 0.00208
C 2.44961 24.16334 0.01707
C 3.72767 23.48634 0.02769
C 3.72322 21.92619 -0.03291
C 2.51105 21.31023 -0.04999
C 2.50199 19.91747 0.04505
C 3.68225 19.18306 0.03284
C 3.64812 17.73239 -0.04307
C 2.3969 16.96736 0.03189
C 2.43739 15.58733 0.00031
C 3.7178 14.9277 -0.003
C 3.68841 13.47416 0.01402
C 2.45595 12.8285 0.02379
C 2.46795 11.4434 0.00907
C 3.64948 10.66359 0.00643
C 3.72102 9.22876 -0.01509
C 2.53167 7.09421 0.02374
C 19.70814 17.06708 0.01739
C 6.10174 14.8324 0.01305
C 4.90212 12.77435 0.03368
C 8.57096 19.20319 0.00393
C 8.55195 17.71106 0.00895
C 7.3756 17.03435 0.00685
C 7.35503 15.63585 0.02888
C 8.6069 14.91678 -0.00482
C 8.61419 13.40428 -0.01384
C 7.36821 12.81158 0.03693
C 7.36817 11.38167 0.01745
C 8.61047 10.6243 0.00488
C 8.55243 9.30006 -0.01004
C 7.37922 8.54194 -0.02896
C 7.43199 7.1447 -0.00131
C 8.60509 6.37853 -0.01118
C 8.56277 5.01978 -0.014
C 7.40713 4.25704 0.02147
C 7.39793 2.89588 0.00373
C 8.62124 2.18331 -0.00191
C 8.65478 0.76947 0.00438
C 7.33895 0.08774 0.01291
C 9.83495 32.69868 0.00093
C 11.08159 31.97035 0.00057
C 7.32779 19.88917 0.0288
C 6.14777 13.53383 -0.00077
C 7.38031 21.30101 -0.0008
C 8.63359 23.41421 -0.00892
C 4.90004 11.39508 -0.02929
C 6.1221 10.69099 -0.00966
C 6.14677 9.25261 -0.03337
C 4.86124 8.5284 0.01227
C 4.911 7.15195 0.00873
C 6.16218 6.36521 -0.00049
C 6.17237 4.95075 0.00848
C 4.88103 4.32241 -0.01303
C 4.89751 2.88059 -0.01378
C 6.20592 2.19656 0.02635
C 6.15582 0.68532 0.0127
C 4.90254 0.02372 0.01396
C 7.33795 32.67621 0.01849
C 8.63453 31.96101 -0.01142
C 8.57831 30.55751 -0.00562
C 7.29784 29.7986 -0.00494
C 7.33597 28.3907 0.00054
C 8.5819 27.63009 0.03007
C 8.61308 26.3007 -0.00095
C 7.30815 25.57025 0.01572
C 7.36365 24.17712 -0.04848
C 8.59867 21.98215 -0.01362
C 19.66001 15.62982 0.00755
C 20.87973 14.91576 -0.0054
C 20.9509 13.49777 0.00667
C 29.54352 7.14218 0.01518
C 30.72829 6.38478 0.01908
C 30.72952 4.98155 0.07705
C 29.48433 4.26216 0.0103
C 29.46973 2.89124 0.02108
C 30.785 2.12186 0.00716
C 30.75501 0.65788 0.00307
C 29.56657 34.03672 0.00346
C 31.95172 32.67789 0.01713
C 33.19776 31.9751 -0.01694
C 33.21757 30.53199 0.01428
C 31.9682 29.79999 -0.02142
C 31.97937 28.37805 0.0544
C 33.19384 27.72894 0.00026
C 33.23392 26.31915 0.00682
C 31.97672 25.48332 -0.01779
C 32.01803 24.10498 0.03794
C 33.23413 23.43798 0.01927
C 33.20387 22.03814 0.01574
C 31.99486 21.26392 -0.02383
C 31.92405 19.89828 -0.01429
C 29.55435 8.48436 -0.00971
C 33.16096 19.13525 -0.0136
C 30.71231 9.25351 -0.03735
C 29.49822 11.33788 -0.02155
C 27.02719 0.02552 -0.00416
C 29.50401 32.66071 0.01177
C 30.76392 31.88325 0.04266
C 30.77593 30.50687 0.01324
C 29.51577 29.84121 0.0014
C 29.57998 28.37126 0.00924
C 30.75847 27.60179 0.02326
C 30.74204 26.24952 0.00261
C 29.54458 25.50878 0.03265
C 29.47813 24.09183 -0.02049
C 30.76359 23.41775 -0.01854
C 30.7532 22.03789 -0.01415
C 29.52258 21.32442 -0.03039
C 29.53741 19.93721 0.01836
C 30.72513 19.16595 0.03531
C 30.77926 17.78829 -0.00669
C 29.46581 17.06207 0.0101
C 29.52108 15.61913 0.01705
C 30.76958 14.91287 -0.0405
C 30.78883 13.54094 -0.01303
C 29.54773 12.78309 -0.01461
C 30.71676 10.60593 -0.00944
C 28.27703 0.71931 0.01699
C 33.19082 17.76585 0.00594
C 32.02888 15.66628 0.00369
C 1.17783 21.94541 0.02712
C 34.38899 21.27212 -0.02213
C 34.42104 19.87403 0.01951
C 1.30148 19.17798 -0.01678
C 1.15977 17.70509 0.01223
C 34.36924 17.03336 0.00648
C 34.41527 15.57073 0.02114
C 1.19468 14.90033 -0.02957
C 1.21663 13.44606 0.00343
C 0.00169 12.8251 -0.02656
C 34.42277 11.40722 -0.02442
C 1.22582 10.67429 -0.00027
C 1.22888 9.21647 -0.00583
C 34.38058 8.49738 -0.02302
C 34.37022 7.11412 -0.02849
C 1.2283 6.39592 0.02931
C 1.26179 4.90778 0.00628
C 0.00588 4.23339 -0.0345
C 34.40044 2.86133 -0.00931
C 1.24387 2.16303 -0.00939
C 1.23643 0.77303 -0.00468
C 1.2007 23.45586 0.00723
C 31.95235 17.03994 -0.02474
C 34.42783 24.19359 0.03076
C 1.24849 26.26822 -0.00598
C 33.22931 14.88876 0.00455
C 33.19135 13.44551 -0.00644
C 31.94827 12.76925 -0.01839
C 31.94323 11.3606 0.00137
C 33.17073 10.71998 0.00199
C 33.19082 9.18547 0.04381
C 31.96852 8.49521 0.02806
C 31.9087 7.09926 0.01504
C 33.18678 6.41577 -0.00069
C 33.2427 4.97247 0.04926
C 31.90925 4.21908 -0.03838
C 31.9459 2.84071 0.00349
C 33.21637 2.12408 -0.00323
C 33.1917 0.64823 -0.00841
C 31.94435 0.01233 0.0001
C 0.02625 32.62487 -0.02927
C 1.24504 31.94603 -0.01404
C 1.26891 30.53788 0.01027
C 34.41312 29.80366 0.01831
C 0.0223 28.35426 -0.01037
C 1.21528 27.6543 -0.00439
C 34.39708 25.57352 -0.05239
C 3.70042 31.93802 0.00211
C 28.33879 2.1043 0.01799
C 27.04615 4.29131 0.01495
C 22.03989 12.77614 0.01511
C 22.05883 11.34286 -0.00478
C 23.35206 10.59025 -0.01662
C 23.32584 9.23885 -0.01185
C 22.18436 8.48024 0.01126
C 22.16056 7.07887 0.01852
C 23.28398 6.37692 -0.00381
C 23.29918 4.91265 0.03046
C 22.15078 4.23976 0.0296
C 22.14077 2.80643 0.03374
C 23.41041 2.08286 -0.02845
C 23.41324 0.62241 -0.03213
C 22.14742 0.0372 0.02239
C 25.83454 31.95634 0.01153
C 25.78525 30.46559 0.02734
C 24.52826 29.76684 -0.0055
C 24.5591 28.4427 0.01515
C 25.8563 27.65241 -0.00225
C 25.87658 26.25326 0.00071
C 24.57119 25.51064 -0.01107
C 24.58952 24.11587 -0.01586
C 23.38286 13.48422 0.00199
C 25.82099 23.41713 -0.01971
C 23.39697 14.89451 0.01087
C 22.08897 17.01107 0.00096
C 20.92873 10.58617 0.00143
C 20.97698 9.26823 -0.017
C 20.97333 6.42739 0.00364
C 20.95283 5.03269 -0.00831
C 19.68626 4.32724 -0.02957
C 19.70675 2.78657 -0.04422
C 20.89209 2.14985 0.00654
C 20.93933 0.7052 -0.00703
C 19.65487 0.05007 -0.04076
C 22.14497 29.80896 -0.00652
C 22.13943 28.44128 0.0058
C 23.3311 27.70345 -0.00865
C 23.37078 26.26277 0.00675
C 22.16557 25.5858 -0.00311
C 22.13115 24.19915 0.00742
C 23.37751 23.3713 -0.01594
C 23.39046 22.04745 0.0106
C 22.16565 21.3121 -0.01154
C 22.161 19.86434 -0.01721
C 23.28227 19.12347 -0.02422
C 23.37995 17.76019 0.01277
C 22.1136 15.59235 -0.01527
C 27.19799 2.88583 0.01259
C 25.78474 22.03525 -0.02118
C 24.57809 19.85247 -0.00178
C 28.30145 26.25402 -0.00802
C 26.97871 25.58858 -0.00218
C 26.97898 24.16679 -0.01654
C 28.22983 23.41533 -0.00037
C 28.26553 22.00696 -0.0032
C 27.07377 21.25705 0.00622
C 26.97629 19.82987 -0.02815
C 28.27967 19.16731 -0.00942
C 28.23402 17.75815 0.00487
C 27.00449 17.01935 0.00826
C 27.00486 15.65346 -0.00294
C 28.27414 14.91259 0.00152
C 28.28222 13.47242 0.01257
C 27.03656 12.77169 0.02316
C 27.06945 11.26342 0.04185
C 28.32042 10.64411 0.00194
C 28.28125 9.21299 -0.00621
C 27.05998 8.52722 0.02611
C 27.14292 7.17695 0.02198
C 28.30942 6.39405 0.01094
C 28.24408 4.91824 0.00235
C 28.2769 27.66697 0.00195
C 24.58227 21.32573 0.00733
C 27.00484 28.42964 0.00996
C 28.28943 30.51868 0.00367
C 25.84676 19.19883 0.00768
C 25.84513 17.7773 -0.0276
C 24.57925 17.05997 0.03005
C 24.55638 15.56365 -0.04078
C 25.80427 14.95864 0.02117
C 25.84535 13.5111 0.02737
C 24.58681 12.78117 -0.00498
C 24.56828 11.35002 0.00135
C 25.82168 10.61233 0.03102
C 25.78825 9.20231 0.02555
C 24.59737 8.51109 0.01423
C 24.61235 7.06381 -0.00285
C 25.83152 6.4418 -0.009
C 25.86506 4.99706 -0.01199
C 24.54619 4.27133 -0.00229
C 24.61695 2.82768 -0.00938
C 25.84496 2.1713 -0.0264
C 25.83813 0.76736 -0.01154
C 24.63874 34.05335 0.00684
C 27.02818 32.58826 -0.01052
C 28.37551 31.93449 -0.01679
C 27.02525 29.87373 0.04306
C 2.46963 32.66668 0.0064
