369
Graphene
C 34.36861 0.09425 0.01295
C 13.47768 26.3904 -0.01952
C 12.29143 25.6073 -0.02813
C 12.31896 24.16642 0.00374
C 13.48329 23.41161 0.00052
C 13.51595 21.95991 -0.03682
C 12.2274 21.40417 0.01965
C 12.16473 20.02336 0.02058
C 13.36443 19.13856 -0.01957
C 12.88355 17.82886 -0.0108
C 12.26071 4.13159 -0.00368
C 12.36632 2.74109 -0.02696
C 13.57056 2.12941 -0.00114
C 13.48053 0.68237 0.00228
C 12.20656 34.04079 0.00798
C 14.76469 32.51927 0.00422
C 15.96174 31.88223 0.0351
C 15.98594 30.51869 -0.03113
C 14.74568 29.86818 0.02098
C 14.70596 28.46184 0.01848
C 13.47739 27.82097 0.05265
C 15.96576 27.68639 -0.00619
C 12.22421 28.44309 -0.01717
C 13.52785 30.54916 0.02299
C 11.0205 27.65599 0.02819
C 11.04025 26.27239 0.00165
C 9.79152 25.6212 -0.02971
C 9.79024 24.15808 0.02894
C 11.02773 23.48261 -0.01789
C 11.05111 22.08238 0.00444
C 9.84469 21.43398 -0.00925
C 9.84446 19.93815 0.01877
C 11.02764 19.17059 0.01363
C 11.30727 17.8337 -0.02162
C 9.92105 17.36458 0.00415
C 11.21115 4.8039 -0.0014
C 9.89306 4.36212 0.02162
C 9.82675 2.80444 0.0076
C 11.02414 2.07838 0.01241
C 11.09698 0.65975 -0.01454
C 9.80713 0.00635 0.01945
C 12.27663 32.73043 0.01416
C 13.5205 31.95025 0.03542
C 12.17673 29.84456 0.00244
C 9.78248 28.40861 -0.00891
C 15.9295 26.25838 -0.02162
C 14.77184 24.13895 -0.00481
C 17.05768 21.17608 0.04892
C 17.14342 19.77419 -0.00111
C 18.36068 19.10894 -0.03557
C 18.41042 17.65091 0.03754
C 17.21587 16.92435 0.01739
C 18.38773 14.97686 0.00755
C 17.5421 2.54932 -0.0054
C 18.83327 1.95174 0.00667
C 18.34466 0.57899 0.00143
C 17.14989 33.91756 -0.017
C 19.60688 32.49598 0.00364
C 20.82585 31.83875 -0.00831
C 20.79558 30.4577 -0.02957
C 19.5763 29.70998 -0.04422
C 19.62168 28.31093 0.00654
C 20.8594 27.61942 -0.00703
C 20.85767 26.22993 -0.04076
C 19.65066 25.499 -0.00652
C 19.63867 23.99779 0.0058
C 18.40582 21.96284 0.01452
C 14.69507 25.58494 0.00889
C 18.4113 23.32814 -0.01581
C 17.20648 25.49594 -0.01979
C 15.92838 23.30662 0.00979
C 15.88381 22.01747 0.01443
C 14.69499 21.24966 0.03505
C 14.71523 19.79766 -0.02815
C 15.84039 18.95526 -0.04147
C 16.00631 17.61403 -0.05302
C 15.83209 5.25858 0.00213
C 14.94477 4.20489 -0.00066
C 14.91707 2.86737 -0.00289
C 16.12638 2.01557 0.00028
C 15.92797 0.52214 -0.02213
C 14.75668 33.96687 0.03698
C 17.26001 32.5394 -0.00109
C 18.45767 31.81267 -0.00491
C 18.43281 30.45193 0.03338
C 17.25838 29.7901 -0.0258
C 17.20305 28.33782 -0.0331
C 18.36814 27.65578 -0.00316
C 18.46638 26.24397 0.02188
C 17.14919 24.13958 0.02691
C 9.82098 29.82897 -0.01046
C 10.99515 30.6026 -0.02689
C 11.07578 32.01774 -0.01536
C 3.65908 6.51103 -0.03337
C 3.70513 5.0211 0.01227
C 2.48205 4.4316 0.00873
C 2.44247 3.01519 -0.00049
C 3.65786 2.23856 0.00848
C 3.67153 0.72817 -0.01303
C 2.39717 0.06624 -0.01378
C 4.87209 32.73438 0.02635
C 6.11661 32.06468 0.0127
C 6.10084 30.65607 0.01396
C 4.88617 29.929 0.01849
C 4.80972 28.51146 -0.01142
C 6.02991 27.73832 -0.00562
C 6.0532 26.35298 -0.00494
C 4.83691 25.62248 0.00054
C 4.88134 24.16179 0.03007
C 6.12906 23.50987 -0.00095
C 6.1707 22.07712 0.01572
C 4.89492 21.38234 -0.04848
C 2.43691 7.29124 -0.00966
C 4.87511 20.01766 -0.00892
C 2.49684 8.65096 -0.02929
C 3.6555 10.80664 -0.00077
C 3.66238 30.6054 0.01996
C 2.4148 29.90948 -0.03996
C 2.33243 28.53265 0.01465
C 3.55016 27.79331 -0.00074
C 3.71916 26.36311 -0.00518
C 2.49703 25.62364 0.0086
C 2.47329 24.20772 -0.00643
C 3.70332 23.51952 0.017
C 3.72153 22.10033 -0.03113
C 2.46041 21.40986 -0.02566
C 2.47137 20.01193 -0.00094
C 3.62193 19.25034 0.02322
C 3.71756 17.83849 -0.00725
C 2.48506 17.0282 -0.05697
C 2.54263 15.6743 0.01087
C 3.78474 14.99661 -0.01343
C 3.62127 13.60627 0.00988
C 2.35981 12.93098 0.0276
C 2.41819 11.40377 0.01305
C 3.72434 9.37036 0.03368
C 6.13554 19.32042 -0.01362
C 6.18972 17.85857 -0.0008
C 4.95907 17.1504 0.0288
C 7.30855 24.21162 0.01641
C 8.55234 23.51478 -0.00719
C 8.55791 22.1524 0.01364
C 7.3842 21.39508 -0.01062
C 7.41428 19.96058 -0.00033
C 8.69709 19.27715 0.03589
C 8.70654 17.86773 -0.02759
C 7.44869 17.1563 0.0402
C 7.4761 15.70431 0.00572
C 7.35023 8.68902 0.03592
C 7.4897 7.22903 0.00406
C 8.71558 6.45552 0.00943
C 8.70902 5.14363 0.02841
C 7.37833 4.29548 -0.01111
C 7.36519 2.848 -0.01275
C 8.59409 2.04931 0.00985
C 8.57088 0.70769 -0.02245
C 7.36165 0.05184 -0.00428
C 9.84448 32.70869 0.03101
C 7.34633 25.64395 0.02339
C 8.62829 26.33452 -0.00334
C 8.54682 27.76602 -0.01634
C 7.27228 28.42188 0.00057
C 5.04014 15.64321 0.00393
C 6.30817 14.96365 0.00895
C 6.08296 13.55385 0.00685
C 4.8849 12.80398 0.02888
C 4.91592 11.45406 -0.00482
C 6.13141 10.8615 -0.01384
C 6.22941 9.39527 0.03693
C 4.989 8.61747 0.01745
C 4.94756 7.22728 0.00488
C 20.86871 23.40016 -0.00865
C 6.17738 6.46538 -0.01004
C 4.91054 4.32229 -0.00131
C 4.86137 2.89589 -0.01118
C 6.09314 2.20394 -0.014
C 6.15394 0.76614 0.02147
C 4.83579 0.06647 0.00373
C 7.38108 32.71745 -0.00191
C 8.65896 31.96568 0.00438
C 8.53603 30.56985 0.01291
C 7.28525 29.90581 0.00093
C 6.22221 5.00545 -0.02896
C 3.5938 32.03656 -0.00279
C 20.8796 21.91474 0.00675
C 19.62464 19.81091 0.00742
C 30.61677 0.74573 0.00307
C 29.43541 0.10884 0.00346
C 31.8248 32.739 0.01713
C 33.13062 32.01737 -0.01694
C 33.18846 30.607 0.01428
C 31.97256 29.88018 -0.02142
C 31.91429 28.5182 0.0544
C 33.12385 27.71164 0.00026
C 33.17629 26.34032 0.00682
C 31.93786 25.56527 -0.01779
C 31.95413 24.16099 0.03794
C 33.19265 23.5055 0.01927
C 33.16188 22.08545 0.01574
C 31.92668 21.35875 -0.02383
C 31.92919 19.91454 -0.01429
C 33.16152 19.19157 -0.0136
C 33.25357 17.78 0.00594
C 32.02319 17.07346 -0.02474
C 32.05518 15.61567 0.00369
C 30.58358 2.12741 0.00716
C 33.19056 14.89087 0.00455
C 29.36606 2.86198 0.02108
C 30.71535 4.95935 0.07705
C 29.50752 25.54631 0.03265
C 29.53955 24.09561 -0.02049
C 30.82462 23.37296 -0.01854
C 30.76738 22.03991 -0.01415
C 29.57563 21.29767 -0.03039
C 29.51306 19.89125 0.01836
C 30.73015 19.22134 0.03531
C 30.72995 17.74465 -0.00669
C 29.52353 16.96546 0.0101
C 29.53012 15.58523 0.01705
C 30.79603 14.93872 -0.0405
C 30.80318 13.4655 -0.01303
C 29.56356 12.80219 -0.01461
C 29.56319 11.35536 -0.02155
C 30.76852 10.65455 -0.00944
C 30.70445 9.26535 -0.03735
C 29.49035 8.49233 -0.00971
C 29.47567 7.11901 0.01518
C 30.67614 6.4643 0.01908
C 29.39796 4.22525 0.0103
C 30.698 26.306 0.00261
C 33.14237 13.47496 -0.00644
C 31.9518 11.40557 0.00137
C 34.3696 19.86138 0.01951
C 1.2475 19.21468 -0.01678
C 1.27001 17.77136 0.01223
C 0.05832 17.0638 0.00648
C 0.03577 15.66646 0.02114
C 1.24941 14.95019 -0.02957
C 1.1626 13.55841 0.00343
C 34.35559 12.73729 -0.02656
C 0.00502 11.32905 -0.02442
C 1.21227 10.66113 -0.00027
C 1.22217 9.32172 -0.00583
C 0.01712 8.55147 -0.02302
C 34.32884 7.09771 -0.02849
C 1.1173 6.49518 0.02931
C 1.17245 5.13193 0.00628
C 34.39955 4.32241 -0.0345
C 34.37149 2.86152 -0.00931
C 1.21069 2.16214 -0.00939
C 1.27584 0.80981 -0.00468
C 34.42574 21.33494 -0.02213
C 31.94949 12.75842 -0.01839
C 1.10148 22.09152 0.02712
C 34.39174 24.24025 0.03076
C 33.22881 10.65284 0.00199
C 33.20103 9.22876 0.04381
C 31.94032 8.50976 0.02806
C 31.91641 7.14773 0.01504
C 33.18104 6.35542 -0.00069
C 33.11447 4.97419 0.04926
C 31.89777 4.267 -0.03838
C 31.80857 2.9086 0.00349
C 33.10637 2.23551 -0.00323
C 33.16298 0.77704 -0.00841
C 31.86215 0.08514 0.0001
C 34.30396 32.7767 -0.02927
C 1.12733 32.06341 -0.01404
C 1.20197 30.55432 0.01027
C 34.32863 29.79855 0.01831
C 34.35082 28.36695 -0.01037
C 1.20576 27.72865 -0.00439
C 1.22645 26.30196 -0.00598
C 34.41412 25.63212 -0.05239
C 1.18156 23.57042 0.00723
C 30.67847 27.78535 0.02326
C 29.44754 28.42912 0.00924
C 29.47908 29.87448 0.0014
C 22.0538 16.95052 0.01153
C 22.04222 15.46828 0.02734
C 23.36474 14.92217 -0.0055
C 23.6266 13.48676 0.01515
C 23.2071 2.00698 -0.00225
C 23.09144 0.65229 0.00071
C 21.88747 34.07666 -0.01107
C 24.49263 32.6894 -0.01586
C 25.69763 31.95692 -0.01971
C 25.68388 30.46656 -0.02118
C 24.5197 29.84172 0.00733
C 24.60464 28.32095 -0.00178
C 25.75412 27.62463 0.00768
C 25.75908 26.14177 -0.0276
C 24.50287 25.42001 0.03005
C 24.51663 24.01768 -0.04078
C 25.75185 23.34887 0.02117
C 25.81693 21.91415 0.02737
C 24.61221 21.23534 -0.00498
C 23.32472 17.63942 0.02239
C 24.50073 19.8226 0.00135
C 23.34906 19.03013 -0.03213
C 22.14373 21.17496 0.03374
C 20.85896 19.08575 -0.01594
C 20.84432 17.75794 0.0106
C 19.63293 16.99888 -0.01154
C 19.57177 15.54185 -0.01721
C 20.8415 14.68198 -0.02422
C 20.11191 2.08544 0.01277
C 20.62592 0.76788 0.00096
C 19.45405 33.90469 -0.01527
C 21.98519 32.58225 0.01087
C 23.23479 31.95538 0.00199
C 23.2666 30.52913 0.01511
C 22.09476 29.76819 -0.00478
C 22.15159 28.29346 -0.01662
C 23.35696 27.58994 -0.01185
C 23.35872 26.09746 0.01126
C 22.08522 25.43996 0.01852
C 22.08245 24.0879 -0.00381
C 23.23201 23.33466 0.03046
C 23.36342 21.93836 0.0296
C 22.10473 19.80297 -0.02845
C 25.7524 19.09571 0.03102
C 25.79798 17.71147 0.02555
C 24.5791 17.01665 0.01423
C 27.10966 15.63883 -0.00294
C 28.36169 14.91555 0.00152
C 28.29951 13.5259 0.01257
C 27.00484 12.76152 0.02316
C 27.01504 11.30467 0.04185
C 28.24308 10.60791 0.00194
C 28.1235 9.25981 -0.00621
C 27.02724 8.40065 0.02611
C 27.0469 7.15641 0.02198
C 28.21251 6.32207 0.01094
C 28.17137 5.00654 0.00235
C 26.85873 4.28858 0.01495
C 26.83748 2.91785 0.01259
C 28.09916 2.18782 0.01799
C 28.10556 0.76449 0.01699
C 26.90381 0.01812 -0.00416
C 29.36287 32.80299 0.01177
C 30.61307 32.03129 0.04266
C 30.63215 30.6179 0.01324
C 27.00082 17.05487 0.00826
C 28.32304 17.70195 0.00487
C 28.25201 19.13491 -0.00942
C 26.99114 19.77437 -0.02815
C 24.59632 15.58273 -0.00285
C 25.92308 14.91707 -0.009
C 25.93094 13.55037 -0.01199
C 24.65522 12.84943 -0.00229
C 24.38825 2.64419 -0.00938
C 25.63665 2.17661 -0.0264
C 25.6623 0.74229 -0.01154
C 24.39379 0.01503 0.00684
C 26.85633 32.73182 -0.01052
C 19.66136 21.2607 -0.00311
C 28.16767 32.04491 -0.01679
C 26.99261 29.79166 0.04306
C 27.04188 28.36685 0.00996
C 28.26526 27.59756 0.00195
C 28.23841 26.18877 -0.00802
C 27.02178 25.45305 -0.00218
C 26.99355 24.03438 -0.01654
C 28.20816 23.43273 -0.00037
C 28.28776 21.96494 -0.0032
C 27.07209 21.20405 0.00622
C 28.15099 30.56691 0.00367
C 2.35279 32.65714 0.01226
