398
Graphene
C 0.02428 0.02498 0.01295
C 12.29763 24.1545 0.02894
C 13.51653 23.48169 -0.01789
C 13.54118 22.08344 0.00444
C 12.33923 21.33142 -0.00925
C 12.38094 19.9261 0.01877
C 13.55343 19.19665 0.01363
C 13.42968 17.61535 -0.02162
C 12.15495 17.06918 0.00415
C 12.07458 4.15558 -0.0014
C 12.31484 25.52636 -0.02971
C 12.39111 2.84459 0.02162
C 13.53706 0.68777 0.01241
C 12.31551 34.0729 -0.01454
C 14.74517 32.67576 0.01945
C 15.96354 31.98846 0.01416
C 16.03318 30.49956 0.03542
C 14.77294 29.70967 0.02299
C 14.72559 28.31312 0.00244
C 16.0136 27.57143 -0.01717
C 15.95923 26.2245 0.05265
C 13.58519 2.1965 0.0076
C 13.51646 26.23244 0.00165
C 13.44106 27.73238 0.02819
C 12.20248 28.51922 -0.00891
C 11.10058 26.32937 -0.00719
C 9.90189 25.6245 0.01364
C 9.86306 24.15629 -0.01062
C 11.1003 23.44622 -0.00033
C 11.05838 22.03292 0.03589
C 9.84194 21.32257 -0.02759
C 9.84449 19.90751 0.0402
C 11.12035 19.3047 0.00572
C 11.02782 17.79584 0.03592
C 9.78347 17.0767 0.00406
C 9.85456 15.60758 0.00943
C 11.20965 4.85059 0.02841
C 9.89241 4.37425 -0.01111
C 9.94199 2.84175 -0.01275
C 11.08208 2.10166 0.00985
C 11.09155 0.691 -0.02245
C 9.88749 34.07169 -0.00428
C 12.27159 32.63061 0.03101
C 13.56761 31.93894 -0.01536
C 13.66226 30.5222 -0.02689
C 12.30554 29.88381 -0.01046
C 14.76 25.61064 -0.01952
C 14.71167 24.23297 -0.02813
C 15.89899 23.46502 0.00374
C 15.99961 22.01327 0.00052
C 18.38812 4.79783 0.00213
C 17.32304 4.33702 -0.00066
C 17.19896 2.83574 -0.00289
C 18.38754 2.1702 0.00028
C 18.42175 0.74369 -0.02213
C 17.22075 34.06419 0.03698
C 19.76191 32.75385 -0.00109
C 20.86241 31.96609 -0.00491
C 21.03202 30.55426 0.03338
C 19.66713 29.78449 -0.0258
C 19.65821 28.36526 -0.0331
C 20.88803 27.65237 -0.00316
C 20.89138 26.26205 0.02188
C 19.67482 25.51151 -0.01979
C 19.6823 24.08135 0.02691
C 20.90574 23.46831 -0.01581
C 20.87381 22.01549 0.01452
C 19.63179 21.3388 0.04892
C 19.58673 19.9151 -0.00111
C 20.88236 19.2582 -0.03557
C 20.88007 17.78241 0.03754
C 17.31261 17.02779 -0.05302
C 11.06382 27.73105 0.01641
C 18.45581 17.73574 -0.04147
C 17.2244 19.9209 0.03505
C 14.73526 21.29656 -0.03682
C 14.78943 19.87284 0.01965
C 16.00523 19.15263 0.02058
C 15.96496 17.59095 -0.01957
C 14.69859 17.06397 -0.0108
C 14.80329 2.85507 -0.00368
C 15.94287 2.1606 -0.02696
C 15.94622 0.6958 -0.00114
C 14.73323 34.06909 0.00228
C 17.17716 32.69036 0.00798
C 18.4166 31.92038 0.00422
C 18.45323 30.55752 0.0351
C 17.26361 29.79694 -0.03113
C 17.22004 28.33537 0.02098
C 18.42145 27.61055 0.01848
C 18.41841 26.18332 -0.00619
C 17.19729 25.49297 -0.02162
C 17.16659 24.09836 0.00889
C 18.47744 23.41315 -0.00481
C 18.48355 22.06616 0.00979
C 17.18733 21.33825 0.01443
C 18.44927 19.1826 -0.02815
C 9.79165 28.40173 0.02339
C 9.79259 29.85631 -0.00334
C 11.08858 30.5872 -0.01634
C 2.49589 4.22969 0.0174
C 2.46916 2.8628 0.03828
C 3.63183 2.19494 0.01226
C 3.68002 0.71339 -0.00279
C 2.4174 0.01321 0.01996
C 4.92215 32.7132 -0.03996
C 6.1596 31.95017 0.01465
C 6.15779 30.55102 -0.00074
C 4.9557 29.83131 -0.00518
C 4.83162 28.43357 0.0086
C 6.07828 27.77301 -0.00643
C 6.1133 26.30758 0.017
C 4.89323 25.59251 -0.03113
C 4.89676 24.16661 -0.02566
C 6.12106 23.43263 -0.00094
C 6.21977 22.0034 0.02322
C 4.97729 21.27912 -0.00725
C 4.93685 19.82009 -0.05697
C 6.18156 19.09852 0.01087
C 6.12963 17.73953 -0.01343
C 4.84242 17.03556 0.00988
C 3.65549 5.0459 0.0073
C 4.91982 15.60339 0.0276
C 3.72713 6.4358 0.00402
C 2.44918 8.55264 0.03267
C 3.73462 30.51105 -0.00449
C 2.45641 29.78702 -0.01979
C 2.44845 28.35006 0.02784
C 3.64131 27.67282 -0.01977
C 3.6599 26.30858 -0.00561
C 2.42251 25.60519 0.00208
C 2.43814 24.1657 0.01707
C 3.68136 23.42016 0.02769
C 3.72841 21.97383 -0.03291
C 2.48717 21.31916 -0.04999
C 2.503 19.93895 0.04505
C 3.69942 19.19575 0.03284
C 3.60333 17.73814 -0.04307
C 2.37193 16.97162 0.03189
C 2.41885 15.55026 0.00031
C 3.71215 14.89064 -0.003
C 3.71997 13.48894 0.01402
C 2.46086 12.83716 0.02379
C 2.44586 11.43 0.00907
C 3.64442 10.68448 0.00643
C 3.69933 9.25527 -0.01509
C 2.51742 7.07553 0.02374
C 19.69288 17.07488 0.01739
C 6.09073 14.86277 0.01305
C 4.89205 12.7713 0.03368
C 8.54269 19.18117 0.00393
C 8.52341 17.72844 0.00895
C 7.33716 16.98527 0.00685
C 7.31689 15.63797 0.02888
C 8.64175 14.86738 -0.00482
C 8.62881 13.39873 -0.01384
C 7.36326 12.82653 0.03693
C 7.3876 11.43064 0.01745
C 8.59586 10.55499 0.00488
C 8.54296 9.41505 -0.01004
C 7.39564 8.52463 -0.02896
C 7.45209 7.11838 -0.00131
C 8.56794 6.42464 -0.01118
C 8.60081 5.0489 -0.014
C 7.41211 4.28498 0.02147
C 7.42431 2.90305 0.00373
C 8.66505 2.19288 -0.00191
C 8.61635 0.81852 0.00438
C 7.393 0.08963 0.01291
C 9.817 32.69087 0.00093
C 11.03829 31.9999 0.00057
C 7.33503 19.90499 0.0288
C 6.13161 13.47562 -0.00077
C 7.39884 21.25723 -0.0008
C 8.62365 23.4423 -0.00892
C 4.83821 11.42703 -0.02929
C 6.10908 10.68817 -0.00966
C 6.14898 9.2856 -0.03337
C 4.88067 8.54616 0.01227
C 4.90384 7.11788 0.00873
C 6.17507 6.39554 -0.00049
C 6.18429 4.963 0.00848
C 4.83357 4.3505 -0.01303
C 4.88981 2.87706 -0.01378
C 6.17932 2.23977 0.02635
C 6.12226 0.73056 0.0127
C 4.88073 0.06316 0.01396
C 7.33594 32.6794 0.01849
C 8.5791 31.97568 -0.01142
C 8.56819 30.58054 -0.00562
C 7.29555 29.83525 -0.00494
C 7.29094 28.39201 0.00054
C 8.55986 27.68497 0.03007
C 8.5937 26.2881 -0.00095
C 7.33587 25.58337 0.01572
C 7.38061 24.18288 -0.04848
C 8.63604 21.98055 -0.01362
C 19.6735 15.6911 0.00755
C 20.78531 14.89555 -0.0054
C 20.97514 13.52716 0.00667
C 29.53975 7.11995 0.01518
C 30.7006 6.35803 0.01908
C 30.69265 4.96359 0.07705
C 29.48722 4.29747 0.0103
C 29.50022 2.85991 0.02108
C 30.75729 2.13397 0.00716
C 30.74225 0.68282 0.00307
C 29.56025 34.05234 0.00346
C 31.97292 32.67679 0.01713
C 33.1925 31.98428 -0.01694
C 33.20065 30.53444 0.01428
C 31.97469 29.79052 -0.02142
C 31.94166 28.37118 0.0544
C 33.19985 27.71791 0.00026
C 33.22917 26.32584 0.00682
C 32.00538 25.49126 -0.01779
C 32.02034 24.0642 0.03794
C 33.23833 23.45422 0.01927
C 33.18848 22.05262 0.01574
C 31.95501 21.27727 -0.02383
C 31.91053 19.8763 -0.01429
C 29.55941 8.50856 -0.00971
C 33.13823 19.14077 -0.0136
C 30.72066 9.18137 -0.03735
C 29.49487 11.34636 -0.02155
C 27.04081 0.04449 -0.00416
C 29.59378 32.63697 0.01177
C 30.7443 31.90123 0.04266
C 30.78549 30.47985 0.01324
C 29.53459 29.81976 0.0014
C 29.58868 28.37197 0.00924
C 30.75283 27.60812 0.02326
C 30.78777 26.17659 0.00261
C 29.54048 25.49865 0.03265
C 29.46937 24.12153 -0.02049
C 30.7586 23.39628 -0.01854
C 30.78097 22.0061 -0.01415
C 29.48655 21.33961 -0.03039
C 29.51223 19.97062 0.01836
C 30.72113 19.20584 0.03531
C 30.72885 17.81254 -0.00669
C 29.474 17.07878 0.0101
C 29.51265 15.6424 0.01705
C 30.75825 14.94304 -0.0405
C 30.79005 13.54893 -0.01303
C 29.57829 12.77524 -0.01461
C 30.68354 10.6446 -0.00944
C 28.29539 0.69141 0.01699
C 33.1787 17.74744 0.00594
C 32.01962 15.69421 0.00369
C 1.19724 21.92797 0.02712
C 34.37594 21.25645 -0.02213
C 34.42171 19.83116 0.01951
C 1.28292 19.15274 -0.01678
C 1.14077 17.70324 0.01223
C 34.32513 17.04462 0.00648
C 34.42002 15.57116 0.02114
C 1.18719 14.87104 -0.02957
C 1.20577 13.45778 0.00343
C 34.41741 12.86092 -0.02656
C 34.4321 11.41074 -0.02442
C 1.23182 10.66134 -0.00027
C 1.19965 9.23577 -0.00583
C 34.38201 8.5001 -0.02302
C 34.36837 7.10342 -0.02849
C 1.26014 6.41212 0.02931
C 1.28133 4.91533 0.00628
C 0.00462 4.28107 -0.0345
C 34.38262 2.8519 -0.00931
C 1.19086 2.17883 -0.00939
C 1.20478 0.80327 -0.00468
C 1.19052 23.42824 0.00723
C 31.95306 17.0483 -0.02474
C 0.00296 24.20394 0.03076
C 1.20248 26.2636 -0.00598
C 33.2027 14.88458 0.00455
C 33.14532 13.45704 -0.00644
C 31.96669 12.75515 -0.01839
C 31.91392 11.38774 0.00137
C 33.18068 10.74052 0.00199
C 33.19053 9.18925 0.04381
C 31.92387 8.5158 0.02806
C 31.9169 7.06692 0.01504
C 33.15113 6.3993 -0.00069
C 33.22775 4.9685 0.04926
C 31.89575 4.23685 -0.03838
C 31.94352 2.77825 0.00349
C 33.2116 2.11925 -0.00323
C 33.20005 0.67508 -0.00841
C 31.94355 34.05975 0.0001
C 0.04364 32.64282 -0.02927
C 1.26844 31.91817 -0.01404
C 1.26608 30.52686 0.01027
C 0.01915 29.80395 0.01831
C 0.01229 28.32616 -0.01037
C 1.22418 27.67876 -0.00439
C 34.40225 25.57832 -0.05239
C 3.70535 31.95854 0.00211
C 28.36589 2.12372 0.01799
C 27.06759 4.30146 0.01495
C 22.03559 12.7681 0.01511
C 22.0082 11.33764 -0.00478
C 23.33283 10.59972 -0.01662
C 23.34709 9.22262 -0.01185
C 22.13393 8.48865 0.01126
C 22.17474 7.11684 0.01852
C 23.29417 6.34312 -0.00381
C 23.28781 4.93003 0.03046
C 22.10559 4.19588 0.0296
C 22.17795 2.7972 0.03374
C 23.42748 2.0642 -0.02845
C 23.45505 0.53317 -0.03213
C 22.1145 34.06604 0.02239
C 25.8026 31.96667 0.01153
C 25.72123 30.5197 0.02734
C 24.4713 29.75319 -0.0055
C 24.53497 28.4135 0.01515
C 25.85951 27.65669 -0.00225
C 25.8388 26.22312 0.00071
C 24.58083 25.51486 -0.01107
C 24.56495 24.10394 -0.01586
C 23.3599 13.49203 0.00199
C 25.79782 23.40015 -0.01971
C 23.34663 14.8912 0.01087
C 22.11925 17.02826 0.00096
C 20.92458 10.4781 0.00143
C 21.06321 9.33923 -0.017
C 20.99614 6.3969 0.00364
C 20.94316 5.06917 -0.00831
C 19.70444 4.35987 -0.02957
C 19.69857 2.79925 -0.04422
C 20.92131 2.10487 0.00654
C 20.99307 0.73471 -0.00703
C 19.63303 0.08166 -0.04076
C 22.14473 29.76866 -0.00652
C 22.11293 28.47075 0.0058
C 23.32884 27.69469 -0.00865
C 23.36217 26.28243 0.00675
C 22.16941 25.60155 -0.00311
C 22.13171 24.20916 0.00742
C 23.33704 23.4569 -0.01594
C 23.3643 22.05138 0.0106
C 22.16927 21.29868 -0.01154
C 22.13691 19.88433 -0.01721
C 23.3258 19.10921 -0.02422
C 23.34168 17.7439 0.01277
C 22.12611 15.57623 -0.01527
C 27.21892 2.88027 0.01259
C 25.81415 22.02495 -0.02118
C 24.54534 19.89399 -0.00178
C 28.29 26.22135 -0.00802
C 27.00635 25.53618 -0.00218
C 26.95572 24.16822 -0.01654
C 28.17757 23.43772 -0.00037
C 28.21837 21.9762 -0.0032
C 27.05778 21.24373 0.00622
C 27.0089 19.87487 -0.02815
C 28.25866 19.19011 -0.00942
C 28.22037 17.77712 0.00487
C 26.9981 17.04637 0.00826
C 27.00596 15.63376 -0.00294
C 28.25777 14.93432 0.00152
C 28.27093 13.45145 0.01257
C 27.05718 12.75885 0.02316
C 27.05353 11.2553 0.04185
C 28.31655 10.61091 0.00194
C 28.30688 9.19017 -0.00621
C 27.05122 8.54662 0.02611
C 27.17606 7.18739 0.02198
C 28.31121 6.41127 0.01094
C 28.23654 4.95291 0.00235
C 28.28372 27.66659 0.00195
C 24.60704 21.29499 0.00733
C 27.01725 28.43983 0.00996
C 28.31472 30.50572 0.00367
C 25.81508 19.17734 0.00768
C 25.81689 17.74909 -0.0276
C 24.58818 17.04365 0.03005
C 24.59101 15.6146 -0.04078
C 25.80577 14.94218 0.02117
C 25.82451 13.5097 0.02737
C 24.54884 12.73851 -0.00498
C 24.55852 11.30725 0.00135
C 25.79518 10.60153 0.03102
C 25.79943 9.21036 0.02555
C 24.57244 8.47401 0.01423
C 24.57152 7.07446 -0.00285
C 25.88082 6.46182 -0.009
C 25.81102 5.06052 -0.01199
C 24.58285 4.25161 -0.00229
C 24.59115 2.81194 -0.00938
C 25.92949 2.21154 -0.0264
C 25.7929 0.75854 -0.01154
C 24.73976 34.02114 0.00684
C 27.03443 32.61171 -0.01052
C 28.3287 31.92414 -0.01679
C 26.98377 29.85628 0.04306
C 2.5062 32.67865 0.0064
