360
Graphene
C 34.35042 0.07199 0.01295
C 15.9847 14.7998 0.02058
C 15.9429 13.359 -0.01957
C 14.69372 12.64192 -0.0108
C 14.75534 11.18147 -0.00368
C 16.0553 10.61894 -0.02696
C 16.0648 9.23137 -0.00114
C 14.84762 8.54208 0.00228
C 14.82585 7.05622 0.00798
C 14.73093 15.34355 0.01965
C 16.01566 6.40283 0.00422
C 14.82408 4.22309 -0.03113
C 14.75445 2.80014 0.02098
C 16.0047 2.11588 0.01848
C 16.00904 0.64877 -0.00619
C 14.75238 34.07064 -0.02162
C 17.14957 32.63157 0.00889
C 18.29133 31.8735 -0.00481
C 18.15735 30.48521 0.00979
C 16.06099 4.95297 0.0351
C 16.00846 31.93428 -0.03682
C 14.82167 32.63411 0.00052
C 12.31572 0.04726 0.00374
C 9.83486 2.84763 -0.00925
C 11.11083 2.18852 0.01877
C 11.11176 0.74728 0.01363
C 9.8732 0.04243 -0.02162
C 12.3113 32.51642 0.00415
C 13.60313 32.07951 -0.0014
C 12.27936 15.71762 0.02162
C 13.50183 15.04119 0.0076
C 13.46649 13.34818 0.01241
C 12.19096 12.73004 -0.01454
C 13.66494 9.30081 0.01945
C 12.32262 8.60398 0.01416
C 12.27743 7.1781 0.03542
C 13.60429 6.3533 0.02299
C 13.56545 4.88588 0.00244
C 12.32634 4.274 -0.01717
C 12.36174 2.81929 0.05265
C 13.53597 2.16094 -0.01952
C 13.56889 0.68165 -0.02813
C 18.36641 17.75995 0.01443
C 9.8661 4.24998 0.00444
C 17.40049 17.11714 0.03505
C 18.4526 14.89585 -0.04147
C 19.57592 20.09756 0.00755
C 20.77692 19.19157 -0.0054
C 20.90613 17.79319 0.00667
C 19.69091 17.06235 0.00143
C 19.65271 15.61011 -0.017
C 20.88691 14.89621 0.00364
C 20.92096 13.38071 -0.00831
C 19.6989 12.72718 -0.02957
C 20.83698 22.00857 0.01739
C 19.69845 11.3586 -0.04422
C 20.95056 9.23627 -0.00703
C 19.72129 8.50899 -0.04076
C 19.68994 7.14954 -0.00652
C 20.882 6.40261 0.0058
C 20.89289 4.93184 -0.00865
C 19.68244 4.26072 0.00675
C 19.64127 2.84059 -0.00311
C 20.84216 2.12359 0.00742
C 20.90041 10.64412 0.00654
C 20.85701 23.39079 0.03754
C 20.79427 26.16966 -0.03557
C 20.65163 27.52392 -0.00111
C 18.49766 13.46441 -0.05302
C 17.2672 12.73514 0.00213
C 17.24634 11.3318 -0.00066
C 18.49542 10.66591 -0.00289
C 18.4863 9.25923 0.00028
C 17.24872 8.48833 -0.02213
C 17.23295 7.10833 0.03698
C 18.46866 6.34375 -0.00109
C 18.51258 4.95593 -0.00491
C 17.26809 4.28544 0.03338
C 17.26616 2.82587 -0.0258
C 18.44657 2.03761 -0.0331
C 18.39177 0.61947 -0.00316
C 17.14086 34.00562 0.02188
C 19.60211 32.56892 -0.01979
C 20.76994 31.85361 0.02691
C 20.68107 30.45395 -0.01581
C 19.4346 29.77186 0.01452
C 19.72448 28.435 0.04892
C 17.17506 15.57648 -0.02815
C 20.88501 0.66091 -0.01594
C 11.07106 5.03327 -0.01789
C 9.815 7.04556 -0.02971
C 2.44403 4.33581 0.01396
C 2.3586 2.95048 0.01849
C 3.65771 2.19969 -0.01142
C 3.70267 0.74408 -0.00562
C 2.44552 0.07019 -0.00494
C 4.91658 32.62919 0.00054
C 6.1089 32.01011 0.03007
C 6.06003 30.61653 -0.00095
C 3.67319 5.04641 0.0127
C 4.8328 29.85536 0.01572
C 4.87458 19.85076 -0.00892
C 5.86912 19.24718 -0.01362
C 6.15094 17.81141 -0.0008
C 4.89402 17.11745 0.0288
C 4.93234 15.73864 0.00393
C 6.20404 15.0007 0.00895
C 6.15939 13.61449 0.00685
C 4.90309 12.82236 0.02888
C 5.02249 28.43481 -0.04848
C 3.67443 6.47133 0.02635
C 2.47498 7.2364 -0.01378
C 2.51167 8.64418 -0.01303
C 3.66255 30.54616 -0.02566
C 2.44781 29.81679 -0.00094
C 2.4686 28.40045 0.02322
C 3.7903 27.65599 -0.00725
C 3.59723 26.2451 -0.05697
C 2.52562 25.42126 0.01087
C 2.46687 23.93185 -0.01343
C 2.36148 21.33072 0.00988
C 2.32039 19.97559 0.0276
C 3.55929 19.25108 0.01305
C 3.65827 17.8355 -0.00077
C 2.4369 17.06279 0.03368
C 2.4742 15.58071 -0.02929
C 3.67193 14.9438 -0.00966
C 3.701 13.53302 -0.03337
C 2.44332 12.78904 0.01227
C 2.52782 11.40982 0.00873
C 3.74291 10.7199 -0.00049
C 3.73881 9.33266 0.00848
C 4.9368 11.44231 -0.00482
C 11.06406 6.42242 0.02894
C 6.12768 10.74206 -0.01384
C 4.92287 8.62004 0.01745
C 8.60601 6.39223 0.0402
C 8.60444 4.96413 0.00572
C 7.37329 4.27883 0.03592
C 7.33282 2.8843 0.00406
C 8.58307 2.15192 0.00943
C 8.63005 0.74542 0.02841
C 7.40198 0.06475 -0.01111
C 9.86262 32.8048 -0.01275
C 7.3651 7.14951 -0.02759
C 11.0752 31.98629 0.00985
C 9.91388 15.62982 -0.00428
C 11.10161 14.91994 0.03101
C 10.98126 13.58158 -0.01536
C 9.75972 12.84236 -0.02689
C 9.67554 11.41938 -0.01046
C 10.94079 10.67506 -0.00891
C 11.07371 9.26178 0.02819
C 9.83056 8.46926 0.00165
C 9.63184 17.04299 -0.02245
C 7.34161 8.57791 0.03589
C 8.57764 9.19016 -0.00033
C 8.52107 10.61126 -0.01062
C 4.92146 7.20257 0.00488
C 6.13042 6.42851 -0.01004
C 6.12357 4.99763 -0.02896
C 4.88325 4.31922 -0.00131
C 4.87951 2.86154 -0.01118
C 6.09012 2.19012 -0.014
C 6.16579 0.70066 0.02147
C 4.904 0.04452 0.00373
C 7.35862 32.76563 -0.00191
C 8.68067 32.16594 0.00438
C 8.37228 30.76944 0.01291
C 7.42077 30.08481 0.00093
C 8.70059 17.69455 0.00057
C 7.34527 17.12664 -0.01634
C 7.4554 15.73821 -0.00334
C 8.6335 15.03071 0.02339
C 8.63315 13.61468 0.01641
C 7.40656 12.88785 -0.00719
C 7.33953 11.4158 0.01364
C 6.13306 9.37055 0.03693
C 19.63712 33.98132 0.0106
C 21.99493 32.57982 -0.01154
C 23.2597 31.85888 -0.01721
C 30.63784 2.15897 0.01713
C 30.62732 0.76716 -0.01694
C 29.37918 0.03962 0.01428
C 31.87954 32.68736 -0.02142
C 33.13544 31.99169 0.0544
C 33.18532 30.61256 0.00026
C 31.90186 29.8686 0.00682
C 31.97814 28.40066 -0.01779
C 29.37379 2.89557 0.00346
C 33.17797 27.70611 0.03794
C 31.92857 25.5687 0.01574
C 31.96451 24.14654 -0.02383
C 33.14384 23.44405 -0.01429
C 33.13029 21.99134 -0.0136
C 31.9655 21.28111 0.00594
C 31.95387 19.8637 -0.02474
C 33.20935 19.1763 0.00369
C 33.19649 17.76556 0.00455
C 33.20001 26.2606 0.01927
C 29.49024 4.29297 0.00307
C 30.68586 4.95243 0.00716
C 30.76359 6.45969 0.02108
C 29.42914 32.69369 -0.01854
C 30.61264 31.98513 -0.01415
C 30.74838 30.58004 -0.03039
C 29.42126 29.8984 0.01836
C 29.45809 28.46897 0.03531
C 30.6796 27.69559 -0.00669
C 30.70425 26.25657 0.0101
C 29.51586 25.55465 0.01705
C 29.50034 24.1485 -0.0405
C 30.73631 23.4321 -0.01303
C 30.70274 21.95167 -0.01461
C 29.58026 21.15106 -0.02155
C 29.57718 19.69782 -0.00944
C 30.80235 19.04907 -0.03735
C 29.47115 11.49248 -0.00971
C 30.83027 10.84741 0.01518
C 30.80245 9.39626 0.01908
C 29.61476 8.58325 0.07705
C 29.50427 7.09253 0.0103
C 33.21216 14.71683 -0.00644
C 26.94297 0.05219 -0.02049
C 33.10531 13.29952 -0.01839
C 33.20398 10.66588 0.00199
C 1.21104 19.18803 -0.01678
C 1.19648 17.71777 0.01223
C 34.36074 16.955 0.00648
C 34.29805 15.54144 0.02114
C 1.14621 14.91285 -0.02957
C 1.21555 13.49739 0.00343
C 0.00522 12.7536 -0.02656
C 0.01987 11.34235 -0.02442
C 34.38659 19.87243 0.01951
C 1.177 10.66185 -0.00027
C 34.38336 8.54175 -0.02302
C 34.41035 7.15278 -0.02849
C 1.17711 6.46326 0.02931
C 1.21044 5.02054 0.00628
C 0.0223 4.30114 -0.0345
C 34.39862 2.90913 -0.00931
C 1.17191 2.18833 -0.00939
C 1.16502 0.73315 -0.00468
C 1.19917 9.26011 -0.00583
C 34.36681 21.28857 -0.02213
C 1.09946 21.97204 0.02712
C 1.12923 23.46244 0.00723
C 33.16057 9.24118 0.04381
C 31.94864 8.57366 0.02806
C 31.97467 7.14325 0.01504
C 33.23691 6.44607 -0.00069
C 33.16556 4.99069 0.04926
C 31.94807 4.25604 -0.03838
C 31.91941 2.84493 0.00349
C 33.1945 2.20105 -0.00323
C 33.12525 0.74596 -0.00841
C 31.88051 0.05838 0.0001
C 34.35719 32.66406 -0.02927
C 1.20827 31.98989 -0.01404
C 1.22971 30.44738 0.01027
C 34.37138 29.775 0.01831
C 0.03622 28.39194 -0.01037
C 1.28959 27.63044 -0.00439
C 1.31652 26.19803 -0.00598
C 34.38659 25.60246 -0.05239
C 34.34865 24.11725 0.03076
C 32.13855 11.57519 0.00137
C 28.13253 0.81175 0.03265
C 28.12419 2.22668 0.00261
C 26.94865 2.94391 0.02326
C 23.38382 6.4038 -0.00225
C 23.31282 4.98068 0.00071
C 22.06917 4.24596 -0.01107
C 22.05539 2.79323 -0.01586
C 23.29277 2.11614 -0.01971
C 23.22594 0.66903 -0.02118
C 22.03536 33.99439 0.00733
C 24.46935 32.59493 -0.00178
C 22.17969 7.15548 0.01515
C 25.73963 31.89688 0.00768
C 24.52655 29.7361 0.03005
C 24.58381 28.27758 -0.04078
C 25.80965 27.59857 0.02117
C 25.78459 26.19045 0.02737
C 24.57113 25.45256 -0.00498
C 24.55747 24.06105 0.00135
C 25.78077 23.36384 0.03102
C 25.79302 21.90934 0.02555
C 25.77092 30.50071 -0.0276
C 22.20986 8.5002 -0.0055
C 23.45189 9.23546 0.02734
C 23.56895 10.74378 0.01153
C 23.19861 30.47972 -0.02422
C 21.9435 29.77042 0.01277
C 21.96043 28.32483 0.00096
C 23.30864 27.64483 -0.01527
C 23.35378 26.19632 0.01087
C 22.0792 25.51818 0.00199
C 22.05548 24.13245 0.01511
C 23.32366 23.35958 -0.00478
C 23.30607 21.97443 -0.01662
C 22.07465 21.30112 -0.01185
C 22.05128 19.90291 0.01126
C 23.28853 19.16707 0.01852
C 23.29367 17.71847 -0.00381
C 22.0687 17.04267 0.03046
C 22.10981 15.57984 0.0296
C 23.3557 14.88759 0.03374
C 23.44382 13.47038 -0.02845
C 22.19121 12.73864 -0.03213
C 22.21006 11.39829 0.02239
C 24.60298 21.27252 0.01423
C 24.56866 19.86017 -0.00285
C 25.82764 19.15297 -0.009
C 25.70671 17.71012 -0.01199
C 28.28179 26.29998 0.01257
C 27.00471 25.53426 0.02316
C 27.02695 24.12034 0.04185
C 28.23303 23.36295 0.00194
C 28.28914 21.88074 -0.00621
C 27.07361 21.20046 0.02611
C 27.07907 19.76338 0.02198
C 28.36914 19.03793 0.01094
C 28.12658 17.62587 0.00235
C 26.89307 16.89976 0.01495
C 27.222 12.82094 0.01259
C 27.12064 11.3838 0.01799
C 28.33064 10.64642 0.01699
C 28.41924 9.23418 -0.00416
C 27.13837 8.55239 0.01177
C 27.03666 7.1396 0.04266
C 28.24006 6.40666 0.01324
C 28.22086 5.00198 0.0014
C 26.94325 4.31838 0.00924
C 28.26247 27.7023 0.00152
C 3.66216 31.97596 -0.03113
C 27.01837 28.34682 -0.00294
C 28.19785 30.56953 0.00487
C 24.44719 17.0337 -0.00229
C 24.63585 15.5768 -0.00938
C 25.92661 15.0675 -0.0264
C 26.12655 13.70065 -0.01154
C 24.79281 12.9234 0.00684
C 24.74109 11.4197 -0.01052
C 25.97922 10.65978 -0.01679
C 25.85009 9.25776 0.00367
C 24.76663 8.51958 0.04306
C 24.60212 7.10806 0.00996
C 25.81204 6.40686 0.00195
C 25.74548 5.02781 -0.00802
C 24.51116 4.2758 -0.00218
C 24.47456 2.82418 -0.01654
C 25.73281 2.14424 -0.00037
C 25.69466 0.77899 -0.0032
C 24.49201 34.05512 0.00622
C 26.96267 32.71456 -0.02815
C 28.21194 31.99488 -0.00942
C 27.02301 29.76604 0.00826
C 2.44923 32.7089 0.017
