366
Graphene
C 0.01493 0.02677 0.01295
C 11.1185 10.61367 0.00374
C 11.02115 9.2739 0.00052
C 9.84698 8.56028 -0.03682
C 9.86503 7.08545 0.01965
C 11.10414 6.40276 0.02058
C 11.06787 4.99071 -0.01957
C 9.79967 4.23668 -0.0108
C 9.81774 2.83071 -0.00368
C 9.80768 11.25925 -0.02813
C 11.07067 2.08725 -0.02696
C 9.87766 0.04396 0.00228
C 12.31725 32.62638 0.00798
C 13.53217 31.95311 0.00422
C 13.56113 30.49501 0.0351
C 12.26455 29.86219 -0.03113
C 12.30262 28.36401 0.02098
C 13.53572 27.61861 0.01848
C 13.48028 26.24665 -0.00619
C 11.1211 0.64656 -0.00114
C 9.78133 12.73581 -0.01952
C 11.06329 13.49989 0.05265
C 11.08206 14.87058 -0.01717
C 8.58424 0.76526 -0.02971
C 7.31777 0.04035 0.02894
C 9.84992 32.70956 -0.01789
C 11.07972 31.96294 0.00444
C 11.07331 30.54652 -0.00925
C 9.85183 29.83039 0.01877
C 9.8431 28.41446 0.01363
C 11.08109 27.66737 -0.02162
C 11.06856 26.29465 0.00415
C 9.85621 25.63189 -0.0014
C 9.82772 24.15702 0.02162
C 11.05504 23.46541 0.0076
C 11.07904 21.95982 0.01241
C 9.85545 21.27088 -0.01454
C 9.84974 19.90677 0.01945
C 11.11903 19.18167 0.01416
C 11.04531 17.71271 0.03542
C 9.85802 17.05993 0.02299
C 9.86104 15.5793 0.00244
C 12.23652 25.56404 -0.02162
C 12.30026 24.14362 0.00889
C 13.58562 23.44002 -0.00481
C 13.50365 22.02474 0.00979
C 16.02251 30.55006 -0.00111
C 14.72544 29.87379 -0.03557
C 14.75956 28.42523 0.03754
C 15.99809 27.61532 0.01739
C 15.96722 26.23789 0.00755
C 14.78765 25.58442 -0.0054
C 14.74196 24.12799 0.00667
C 14.73535 15.61917 0.00143
C 14.74461 8.52964 -0.017
C 14.7834 7.11749 0.00364
C 16.0491 6.45737 -0.00831
C 15.99265 4.95563 -0.02957
C 14.76662 4.27665 -0.04422
C 14.77016 2.85731 0.00654
C 15.99911 2.0697 -0.00703
C 15.96148 0.70334 -0.04076
C 14.76483 34.07781 -0.00652
C 17.23393 32.61831 0.0058
C 18.45659 31.91205 -0.00865
C 15.97827 31.96781 0.04892
C 8.58155 2.13681 0.00165
C 14.72676 32.67337 0.01452
C 13.48637 0.76774 0.02691
C 12.30053 21.34422 0.01443
C 12.2785 19.88643 0.03505
C 13.54213 19.10709 -0.02815
C 13.55511 17.78961 -0.04147
C 12.30908 17.07906 -0.05302
C 12.28579 15.64549 0.00213
C 13.56135 14.91526 -0.00066
C 13.52667 13.50232 -0.00289
C 12.34482 12.74418 0.00028
C 12.2986 11.33066 -0.02213
C 13.50814 10.64964 0.03698
C 13.56935 9.21819 -0.00109
C 12.26042 8.496 -0.00491
C 12.25837 7.10096 0.03338
C 13.50233 6.40673 -0.0258
C 13.51243 4.94988 -0.0331
C 12.22627 4.27781 -0.00316
C 12.29324 2.85769 0.02188
C 13.58222 2.12255 -0.01979
C 12.28916 34.071 -0.01581
C 7.38799 2.7914 0.02819
C 7.3783 4.23999 -0.00891
C 8.63557 4.97211 -0.01046
C 3.66669 6.37181 -0.00049
C 3.70873 4.95341 0.00848
C 2.52408 4.28167 -0.01303
C 2.44459 2.91356 -0.01378
C 3.72316 2.09784 0.02635
C 3.66672 0.72897 0.0127
C 2.44898 0.0 0.01396
C 4.93735 32.72181 0.01849
C 6.18544 31.91026 -0.01142
C 6.12516 30.52935 -0.00562
C 4.89487 29.80888 -0.00494
C 4.90672 28.38813 0.00054
C 6.14862 27.68152 0.03007
C 6.1439 26.29958 -0.00095
C 4.9103 25.5303 0.01572
C 4.90091 24.15843 -0.04848
C 6.17304 23.44049 -0.00892
C 6.13395 22.02324 -0.01362
C 4.85805 21.37493 -0.0008
C 2.50132 7.13864 0.00873
C 4.91751 19.86562 0.0288
C 2.44102 8.52041 0.01227
C 3.66406 10.67914 -0.00966
C 3.72398 30.48801 -0.00074
C 2.51964 29.83898 -0.00518
C 2.47209 28.3933 0.0086
C 3.74889 27.67015 -0.00643
C 3.68975 26.27826 0.017
C 2.42327 25.5433 -0.03113
C 2.44151 24.21403 -0.02566
C 3.67718 23.43675 -0.00094
C 3.69318 21.98002 0.02322
C 2.44988 21.29609 -0.00725
C 2.49799 19.87864 -0.05697
C 3.66765 19.15213 0.01087
C 3.72668 17.73072 -0.01343
C 2.3784 17.01271 0.00988
C 2.41772 15.69949 0.0276
C 3.64981 14.96412 0.01305
C 3.67014 13.52071 -0.00077
C 2.49115 12.8267 0.03368
C 2.47379 11.28724 -0.02929
C 3.70068 9.24566 -0.03337
C 18.48277 30.56732 0.00675
C 6.15663 19.22036 0.00393
C 4.91314 17.05401 0.00685
C 7.34522 25.53812 0.01364
C 7.38203 24.15723 -0.01062
C 8.63502 23.44008 -0.00033
C 8.60425 21.98089 0.03589
C 7.37356 21.31727 -0.02759
C 7.39019 19.94097 0.0402
C 8.56582 19.17469 0.00572
C 8.63453 17.76079 0.03592
C 7.41892 17.04727 0.00406
C 7.38932 15.64773 0.00943
C 8.56873 14.83929 0.02841
C 8.58601 13.46661 -0.01111
C 7.33936 12.82224 -0.01275
C 7.33505 11.32391 0.00985
C 8.6002 10.65097 -0.02245
C 8.58136 9.26299 -0.00428
C 7.35384 8.5457 0.03101
C 7.39265 7.03888 -0.01536
C 8.59281 6.4148 -0.02689
C 8.62151 26.30297 -0.00719
C 6.17954 17.78365 0.00895
C 8.60844 27.6985 0.01641
C 7.40101 29.83228 -0.00334
C 4.94964 15.63594 0.02888
C 6.14052 14.91215 -0.00482
C 6.1046 13.50897 -0.01384
C 4.95386 12.76534 0.03693
C 4.91723 11.38756 0.01745
C 6.12818 10.68326 0.00488
C 6.14646 9.27961 -0.01004
C 4.87277 8.61277 -0.02896
C 4.90691 7.15459 -0.00131
C 6.17176 6.38281 -0.01118
C 6.08681 4.96501 -0.014
C 4.91736 4.2916 0.02147
C 4.93744 2.83944 0.00373
C 6.17015 2.136 -0.00191
C 6.14745 0.74476 0.00438
C 4.88073 0.05564 0.01291
C 7.41021 32.67157 0.00093
C 8.56924 31.95039 0.00057
C 8.57865 30.57894 -0.01634
C 7.38413 28.39239 0.02339
C 17.23241 29.80179 -0.00311
C 17.18503 28.44911 0.00742
C 17.24624 7.05654 -0.01594
C 30.78754 0.74266 0.00307
C 29.52894 34.0258 0.00346
C 31.94845 32.6685 0.01713
C 33.16243 31.94231 -0.01694
C 33.21577 30.5268 0.01428
C 31.96362 29.83866 -0.02142
C 31.92591 28.39586 0.0544
C 33.1692 27.70676 0.00026
C 33.16858 26.22873 0.00682
C 31.97312 25.58848 -0.01779
C 31.9401 24.14969 0.03794
C 33.2239 23.4516 0.01927
C 33.21642 21.97466 0.01574
C 31.99082 21.30556 -0.02383
C 31.9707 19.90813 -0.01429
C 33.23763 19.17805 -0.0136
C 33.20647 17.7963 0.00594
C 31.96796 17.03585 -0.02474
C 31.98738 15.60746 0.00369
C 30.73657 2.12068 0.00716
C 33.16869 14.93103 0.00455
C 29.55677 2.84711 0.02108
C 30.75484 4.94757 0.07705
C 29.54791 25.5112 0.03265
C 29.50384 24.1164 -0.02049
C 30.74594 23.46147 -0.01854
C 30.76023 22.03535 -0.01415
C 29.53329 21.30438 -0.03039
C 29.51138 19.8505 0.01836
C 30.72432 19.18195 0.03531
C 30.78834 17.76987 -0.00669
C 29.51021 16.9713 0.0101
C 29.54908 15.58165 0.01705
C 30.78867 14.92919 -0.0405
C 30.73943 13.52374 -0.01303
C 29.51011 12.75108 -0.01461
C 29.49227 11.37349 -0.02155
C 30.79157 10.59586 -0.00944
C 30.70822 9.2138 -0.03735
C 29.47584 8.53941 -0.00971
C 29.49569 7.08021 0.01518
C 30.71699 6.42914 0.01908
C 29.48953 4.25888 0.0103
C 30.73435 26.21381 0.00261
C 33.24659 13.46532 -0.00644
C 31.9668 11.36468 0.00137
C 0.05104 19.87437 0.01951
C 1.23879 19.12387 -0.01678
C 1.22899 17.74874 0.01223
C 0.03227 16.99737 0.00648
C 34.39561 15.60022 0.02114
C 1.23298 14.89354 -0.02957
C 1.23206 13.50738 0.00343
C 34.42605 12.76946 -0.02656
C 0.00089 11.41965 -0.02442
C 1.20963 10.67719 -0.00027
C 1.25861 9.27098 -0.00583
C 34.39077 8.54602 -0.02302
C 34.42897 7.1055 -0.02849
C 1.21574 6.36556 0.02931
C 1.26219 4.98837 0.00628
C 0.03072 4.22682 -0.0345
C 34.41794 2.79064 -0.00931
C 1.25191 2.1691 -0.00939
C 1.2564 0.7224 -0.00468
C 0.02005 21.34511 -0.02213
C 31.92466 12.72077 -0.01839
C 1.1871 22.00737 0.02712
C 34.41477 24.15148 0.03076
C 33.23855 10.64621 0.00199
C 33.13266 9.20843 0.04381
C 31.93142 8.5224 0.02806
C 31.94755 7.08479 0.01504
C 33.17222 6.39307 -0.00069
C 33.20018 4.92599 0.04926
C 31.97484 4.31602 -0.03838
C 31.98492 2.89768 0.00349
C 33.1977 2.1165 -0.00323
C 33.20211 0.67876 -0.00841
C 31.94056 34.05607 0.0001
C 34.38005 32.67082 -0.02927
C 1.23201 31.97723 -0.01404
C 1.26772 30.48844 0.01027
C 34.43311 29.81134 0.01831
C 34.40599 28.44736 -0.01037
C 1.24013 27.69493 -0.00439
C 1.23046 26.31706 -0.00598
C 34.4087 25.59738 -0.05239
C 1.20125 23.44353 0.00723
C 3.70621 31.98391 0.01465
C 30.77281 27.66597 0.02326
C 29.52685 29.81168 0.0014
C 22.09853 28.34074 0.02734
C 23.30904 27.68838 -0.0055
C 22.08816 7.10633 0.01515
C 23.33775 6.46475 -0.00225
C 23.34857 4.95665 0.00071
C 22.14092 4.22018 -0.01107
C 22.09393 2.81905 -0.01586
C 23.36565 2.16476 -0.01971
C 23.37751 0.71136 -0.02118
C 22.06405 34.03502 0.00733
C 24.5639 32.63525 -0.00178
C 25.81274 31.95057 0.00768
C 25.81664 30.5091 -0.0276
C 24.56268 29.85058 0.03005
C 24.58442 28.3502 -0.04078
C 25.81518 27.68851 0.02117
C 25.87278 26.30831 0.02737
C 25.83767 19.12722 -0.00498
C 25.84907 17.78065 0.00135
C 22.1406 29.79319 0.01153
C 25.81165 10.62251 0.03102
C 23.3772 30.56124 0.02239
C 22.17223 32.62354 -0.02845
C 18.42946 6.4142 0.0106
C 18.38002 4.98251 -0.01154
C 17.14703 4.24421 -0.01721
C 17.19317 2.78139 -0.02422
C 18.41222 2.1211 0.01277
C 18.45572 0.67386 0.00096
C 17.23025 34.07324 -0.01527
C 19.61207 32.64596 0.01087
C 20.86256 31.88409 0.00199
C 20.91333 30.51192 0.01511
C 19.67992 29.78988 -0.00478
C 19.69043 28.37079 -0.01662
C 20.95611 6.35176 -0.01185
C 20.95042 4.94086 0.01126
C 19.65187 4.2397 0.01852
C 19.69513 2.77178 -0.00381
C 20.87922 2.0919 0.03046
C 20.89277 0.72947 0.0296
C 19.70252 34.01454 0.03374
C 23.42484 31.91848 -0.03213
C 29.49825 28.35387 0.00924
C 25.79181 9.2055 0.02555
C 24.61509 7.09974 -0.00285
C 27.05612 15.61733 -0.00294
C 28.31299 14.91236 0.00152
C 28.25927 13.48602 0.01257
C 27.05155 12.77816 0.02316
C 27.08571 11.3443 0.04185
C 28.34502 10.66353 0.00194
C 28.3077 9.27305 -0.00621
C 27.07307 8.5577 0.02611
C 27.08433 7.04044 0.02198
C 28.2924 6.38492 0.01094
C 28.30892 4.98244 0.00235
C 27.02985 4.30121 0.01495
C 27.03436 2.84965 0.01259
C 28.29301 2.14281 0.01799
C 28.25505 0.7224 0.01699
C 27.05179 34.05251 -0.00416
C 29.52218 32.66943 0.01177
C 30.74247 31.98414 0.04266
C 30.73774 30.49428 0.01324
C 27.04738 17.06411 0.00826
C 24.62909 8.51445 0.01423
C 28.32108 17.71705 0.00487
C 26.99367 19.84972 -0.02815
C 25.85301 6.40711 -0.009
C 25.82257 4.93219 -0.01199
C 24.68294 4.31898 -0.00229
C 24.59025 2.89031 -0.00938
C 25.82051 2.13128 -0.0264
C 25.85471 0.70728 -0.01154
C 24.51697 0.00651 0.00684
C 26.99065 32.64013 -0.01052
C 28.26975 31.93564 -0.01679
C 28.25836 30.53758 0.00367
C 27.09266 29.80506 0.04306
C 26.97523 28.37137 0.00996
C 28.27717 27.69289 0.00195
C 28.26698 26.29476 -0.00802
C 27.02093 25.5547 -0.00218
C 27.02989 24.16769 -0.01654
C 28.26915 23.42201 -0.00037
C 28.29638 22.00137 -0.0032
C 27.04572 21.30556 0.00622
C 28.30169 19.08454 -0.00942
C 2.48035 32.66097 -0.03996
