358
Graphene
C 0.02365 0.04604 0.01295
C 13.53742 5.05973 -0.01957
C 12.26156 4.29056 -0.0108
C 12.2608 2.77394 -0.00368
C 13.5329 2.03735 -0.02696
C 13.42457 0.67743 -0.00114
C 12.21841 33.99248 0.00228
C 14.69155 32.61579 0.00798
C 15.98811 31.90514 0.00422
C 13.5028 6.41024 0.02058
C 15.95212 30.44667 0.0351
C 14.91253 28.10215 0.02098
C 16.16294 27.56596 0.01848
C 16.09476 9.16812 -0.00619
C 14.8428 8.52406 -0.02162
C 14.78487 7.13449 0.00889
C 16.04584 6.38181 -0.00481
C 16.00356 4.95476 0.00979
C 14.67569 4.34703 0.01443
C 14.77246 29.65332 -0.03113
C 14.705 2.84557 0.03505
C 12.27842 7.22883 0.01965
C 13.6039 9.09743 0.00052
C 10.83791 26.2852 0.01363
C 9.76499 25.79903 -0.02162
C 11.04282 9.34014 0.00415
C 9.89166 8.59737 -0.0014
C 9.91211 7.1734 0.02162
C 11.10961 6.44976 0.0076
C 11.06651 4.9646 0.01241
C 9.80937 4.29073 -0.01454
C 12.29847 8.63492 -0.03682
C 9.85849 2.94121 0.01945
C 11.03476 0.64783 0.03542
C 9.85481 0.01586 0.02299
C 12.32738 32.56563 0.00244
C 13.53887 31.8491 -0.01717
C 13.49385 30.46223 0.05265
C 12.30992 29.83132 -0.01952
C 12.3941 28.38666 -0.02813
C 13.55066 27.74648 0.00374
C 11.01825 2.0318 0.01416
C 15.91908 2.0535 -0.02815
C 15.91613 0.60706 -0.04147
C 14.69046 34.06047 -0.05302
C 20.96147 26.34872 -0.0054
C 19.63297 25.64782 0.00667
C 20.63109 10.53996 0.00143
C 20.8883 9.17702 -0.017
C 19.6778 8.42515 0.00364
C 19.61094 7.04512 -0.00831
C 20.81173 6.32691 -0.02957
C 20.89395 4.81691 -0.04422
C 20.86662 27.74775 0.00755
C 19.61007 4.18056 0.00654
C 20.91969 2.0721 -0.04076
C 20.9212 0.7221 -0.00652
C 19.61744 34.0367 0.0058
C 22.12882 32.6469 -0.00865
C 23.3499 31.98297 0.00675
C 23.41433 30.56414 -0.00311
C 22.06761 29.88281 0.00742
C 22.10567 28.44954 -0.01594
C 19.64372 2.72536 -0.00703
C 19.64954 28.43876 0.01739
C 19.61348 29.86334 0.03754
C 20.80558 30.56843 -0.03557
C 17.24035 32.66229 0.00213
C 18.40603 31.91217 -0.00066
C 18.42435 30.54024 -0.00289
C 17.18736 29.83593 0.00028
C 17.18524 28.43515 -0.02213
C 18.4392 27.7783 0.03698
C 18.6033 26.31894 -0.00109
C 18.56462 9.26052 -0.00491
C 17.3606 8.52788 0.03338
C 17.22358 7.11035 -0.0258
C 18.39287 6.33868 -0.0331
C 18.36662 4.90528 -0.00316
C 17.17279 4.1798 0.02188
C 17.22472 2.81252 -0.01979
C 18.3866 2.08154 0.02691
C 18.37393 0.71562 -0.01581
C 17.19824 34.07285 0.01452
C 19.64565 32.6195 0.04892
C 20.82683 31.96337 -0.00111
C 11.11188 27.80953 0.01877
C 9.84172 28.40421 -0.00925
C 9.89127 29.85127 0.00444
C 11.09561 30.54751 -0.01789
C 3.63814 6.53171 -0.01142
C 3.7144 5.0984 -0.00562
C 2.42056 4.36405 -0.00494
C 2.42553 2.92577 0.00054
C 3.64409 2.20433 0.03007
C 3.59188 0.80696 -0.00095
C 2.43976 0.02808 0.01572
C 4.85382 32.68329 -0.04848
C 2.41529 7.19013 0.01849
C 6.08959 31.97687 -0.00892
C 4.84406 29.80597 -0.0008
C 4.88046 28.44239 0.0288
C 6.12393 27.77381 0.00393
C 5.99054 26.32643 0.00895
C 4.86131 25.50831 0.00685
C 5.01014 24.09238 0.02888
C 6.2755 23.37487 -0.00482
C 6.13331 22.07995 -0.01384
C 6.08032 30.54384 -0.01362
C 2.44195 8.60449 0.01396
C 3.60087 9.31287 0.0127
C 3.70589 10.68025 0.02635
C 3.66498 30.56478 0.02322
C 2.45515 29.82867 -0.00725
C 2.34905 28.42448 -0.05697
C 3.6512 27.64895 0.01087
C 3.63636 26.27171 -0.01343
C 2.34039 25.57943 0.00988
C 2.44259 24.18224 0.0276
C 3.67059 23.46405 0.01305
C 3.58975 22.05493 -0.00077
C 2.3873 21.37167 0.03368
C 2.46419 19.86197 -0.02929
C 3.71445 19.14341 -0.00966
C 3.74413 17.79675 -0.03337
C 2.55942 17.09568 0.01227
C 2.38788 15.64243 0.00873
C 3.69471 14.95657 -0.00049
C 3.6615 13.51106 0.00848
C 2.47392 12.85076 -0.01303
C 2.41169 11.37647 -0.01378
C 4.9161 21.39918 0.03693
C 23.34859 27.73707 0.0106
C 4.86459 19.9175 0.01745
C 6.14844 17.95747 -0.01004
C 8.43971 26.36524 0.03592
C 7.20038 25.60211 0.00406
C 7.33759 24.25618 0.00943
C 7.22958 12.63487 0.02841
C 7.47669 11.36827 -0.01111
C 8.77399 10.62941 -0.01275
C 8.6186 9.25965 0.00985
C 7.36128 8.60607 -0.02245
C 8.51944 27.79301 0.00572
C 7.30993 7.18546 -0.00428
C 8.61016 5.01115 -0.01536
C 7.35404 4.36391 -0.02689
C 7.39799 2.99529 -0.01046
C 8.57119 2.15831 -0.00891
C 8.62486 0.76412 0.02819
C 7.34608 0.03942 0.00165
C 9.81593 32.5868 -0.02971
C 11.08253 31.97363 0.02894
C 8.58839 6.51614 0.03101
C 7.33124 28.5161 0.0402
C 7.3739 29.853 -0.02759
C 8.63059 30.54424 0.03589
C 4.94779 17.01565 -0.02896
C 4.98441 15.59522 -0.00131
C 6.21698 15.03876 -0.01118
C 6.23763 13.57294 -0.014
C 4.97176 12.8842 0.02147
C 4.93963 11.41053 0.00373
C 6.16516 10.70822 -0.00191
C 6.13461 9.2717 0.00438
C 4.86841 8.58997 0.01291
C 4.89418 7.18931 0.00093
C 6.17044 6.48238 0.00057
C 6.09476 5.11719 -0.01634
C 4.9094 4.39804 -0.00334
C 4.88341 2.88705 0.02339
C 6.09474 2.19258 0.01641
C 6.12788 0.76907 -0.00719
C 4.88828 0.00518 0.01364
C 7.35718 32.61524 -0.01062
C 8.59948 31.97515 -0.00033
C 6.02865 19.09288 0.00488
C 23.41162 26.35419 -0.01154
C 22.18466 25.6622 -0.01721
C 22.0909 24.35004 -0.02422
C 29.5394 0.04163 0.01713
C 32.01402 32.71341 -0.01694
C 33.17355 31.97433 0.01428
C 33.14984 30.52044 -0.02142
C 31.98491 29.91055 0.0544
C 31.9809 28.42774 0.00026
C 33.16501 27.71446 0.00682
C 33.12582 26.26573 -0.01779
C 30.74694 0.73604 0.00346
C 31.86779 25.57965 0.03794
C 33.04909 23.4806 0.01574
C 33.07287 22.0892 -0.02383
C 31.89365 21.29628 -0.01429
C 31.97566 19.92081 -0.0136
C 33.1969 19.15696 0.00594
C 33.23435 17.77853 -0.02474
C 31.98941 17.01875 0.00369
C 31.98221 15.61482 0.00455
C 31.8529 24.16304 0.01927
C 30.69958 2.126 0.00307
C 29.51019 2.91697 0.00716
C 29.63108 4.37744 0.02108
C 29.40261 25.58179 -0.01854
C 29.40073 24.14671 -0.01415
C 30.58481 23.46017 -0.03039
C 30.63355 21.99852 0.01836
C 29.38895 21.30017 0.03531
C 29.47794 19.91155 -0.00669
C 30.6846 19.18229 0.0101
C 30.72066 17.73114 0.01705
C 29.53413 17.0126 -0.0405
C 29.54882 15.58971 -0.01303
C 30.76296 14.84994 -0.01461
C 30.70057 13.37844 -0.02155
C 29.54384 12.70632 -0.00944
C 29.44954 11.22265 -0.03735
C 30.52608 10.31376 -0.00971
C 29.63412 8.81 0.01518
C 29.66167 7.37069 0.01908
C 30.86483 6.60698 0.07705
C 30.82763 5.17588 0.0103
C 33.19533 14.86476 -0.00644
C 30.62696 26.30006 -0.02049
C 33.08534 13.43908 -0.01839
C 31.81242 11.02605 0.00199
C 1.18393 19.18659 -0.01678
C 1.24146 17.76091 0.01223
C 0.0278 17.02055 0.00648
C 34.40055 15.61711 0.02114
C 1.16493 14.97204 -0.02957
C 1.25477 13.41158 0.00343
C 34.32575 12.63705 -0.02656
C 34.30679 11.24297 -0.02442
C 0.01948 19.87248 0.01951
C 1.12826 10.61466 -0.00027
C 0.01602 8.44103 -0.02302
C 0.09306 7.07509 -0.02849
C 1.22821 6.37445 0.02931
C 1.18813 4.98118 0.00628
C 34.37647 4.24863 -0.0345
C 0.04529 2.87682 -0.00931
C 1.20933 2.17994 -0.00939
C 1.20781 0.74403 -0.00468
C 1.18706 9.21675 -0.00583
C 34.36639 21.35609 -0.02213
C 1.17782 22.03129 0.02712
C 1.10615 23.4252 0.00723
C 33.10341 10.39448 0.04381
C 33.05874 8.90604 0.02806
C 32.16405 7.31022 0.01504
C 33.21882 6.43806 -0.00069
C 33.18946 5.02471 0.04926
C 31.97618 4.35158 -0.03838
C 31.9652 2.84728 0.00349
C 33.14358 2.15821 -0.00323
C 33.20594 0.80734 -0.00841
C 32.02623 0.05859 0.0001
C 34.40245 32.68395 -0.02927
C 1.25552 31.94682 -0.01404
C 1.23154 30.58597 0.01027
C 34.42293 29.8409 0.01831
C 34.38214 28.3713 -0.01037
C 1.16982 27.69854 -0.00439
C 1.16253 26.27461 -0.00598
C 34.37726 25.57962 -0.05239
C 34.36646 24.20285 0.03076
C 31.91818 12.5677 0.00137
C 3.64168 32.00255 -0.00094
C 30.70763 27.78177 0.03265
C 29.48955 29.80598 0.02326
C 24.54206 28.42163 0.00071
C 25.74237 27.69256 -0.01107
C 25.72543 26.26439 -0.01586
C 24.50277 25.64138 -0.01971
C 24.37523 24.15854 -0.02118
C 25.68821 23.48431 0.00733
C 25.7314 21.99997 -0.00178
C 24.49864 21.27108 0.00768
C 24.58317 29.84629 -0.00225
C 24.55894 19.90792 -0.0276
C 25.75382 17.70603 -0.04078
C 24.63347 16.88941 0.02117
C 24.59889 15.49713 0.02737
C 25.81834 14.79229 -0.00498
C 25.82574 13.40409 0.00135
C 24.54909 12.70333 0.03102
C 24.52391 11.37184 0.02555
C 25.70174 10.60497 0.01423
C 25.77356 19.14463 0.03005
C 25.85661 30.57995 0.01515
C 25.8549 31.98567 -0.0055
C 24.57479 32.66426 0.02734
C 23.13701 23.38001 0.01277
C 23.39002 22.04914 0.00096
C 23.38192 18.89828 -0.01527
C 23.36022 17.65274 0.01087
C 23.2859 14.985 0.00199
C 23.32958 13.45948 0.01511
C 22.22522 12.58706 -0.00478
C 21.83814 11.2948 -0.01662
C 23.29235 10.66079 -0.01185
C 23.30347 9.23335 0.01126
C 22.12382 8.47949 0.01852
C 21.96662 7.11535 -0.00381
C 23.35825 6.40768 0.03046
C 23.33572 4.99151 0.0296
C 22.07134 4.20648 0.03374
C 22.12745 2.74562 -0.02845
C 23.40274 2.07798 -0.03213
C 23.34289 0.66948 0.02239
C 22.10088 34.03435 0.01153
C 25.73323 9.17519 -0.00285
C 29.51738 28.3889 0.00261
C 24.53267 8.48536 -0.009
C 25.8504 6.37222 -0.00229
C 28.26991 14.86017 0.02316
C 28.25652 13.43478 0.04185
C 27.03536 12.72089 0.00194
C 26.96586 11.32451 -0.00621
C 28.11621 10.65639 0.02611
C 28.24893 9.26074 0.02198
C 26.99408 8.52734 0.01094
C 27.10622 7.1072 0.00235
C 27.02779 15.52163 0.01257
C 28.37099 6.47851 0.01495
C 27.09796 4.36359 0.01799
C 27.14847 2.86435 0.01699
C 28.3213 2.13512 -0.00416
C 28.3474 0.73565 0.01177
C 27.12259 0.0417 0.04266
C 29.5816 32.70256 0.01324
C 30.72625 31.96237 0.0014
C 30.71675 30.52499 0.00924
C 28.39097 5.09694 0.01259
C 26.92432 16.96784 0.00152
C 28.24809 17.7165 -0.00294
C 28.19345 19.17585 0.00826
C 25.72829 4.97089 -0.00938
C 24.54834 4.20417 -0.0264
C 24.6221 2.79275 -0.01154
C 25.89997 2.114 0.00684
C 25.94763 0.75127 -0.01052
C 24.65544 0.03288 -0.01679
C 27.14791 32.69553 0.00367
C 28.27958 31.99894 0.04306
C 28.34171 30.59777 0.00996
C 27.06735 29.79794 0.00195
C 27.13186 28.42493 -0.00802
C 28.22691 27.73885 -0.00218
C 28.19128 26.31418 -0.01654
C 27.014 25.56188 -0.00037
C 26.89874 24.17579 -0.0032
C 28.15279 23.41381 0.00622
C 28.11911 22.00163 -0.02815
C 26.95081 21.27144 -0.00942
C 27.02295 19.84962 0.00487
C 24.48244 7.07252 -0.01199
C 2.45957 32.77542 -0.02566
