350
Graphene
C 34.39451 0.02587 0.01295
C 11.05145 0.76235 0.00798
C 9.86241 0.06253 0.00422
C 12.29436 32.72571 0.0351
C 13.47181 32.04784 -0.03113
C 13.45826 30.52416 0.02098
C 12.21259 29.80543 0.01848
C 12.31225 28.37382 -0.00619
C 13.59416 27.68489 -0.02162
C 13.50563 26.31803 0.00889
C 12.26789 25.65267 -0.00481
C 12.2682 24.19985 0.00979
C 13.37908 23.36228 0.01443
C 13.59736 4.82665 0.03505
C 12.30521 4.36558 -0.02815
C 12.28473 2.73491 -0.04147
C 13.54061 2.17412 -0.05302
C 13.53904 0.73587 0.00213
C 11.05558 2.15607 0.00228
C 9.83552 2.88791 -0.00114
C 9.89353 4.33394 -0.02696
C 11.21069 5.00449 -0.00368
C 8.65944 2.1892 0.01241
C 8.6408 0.73383 -0.01454
C 7.44843 0.0373 0.01945
C 9.81058 32.7085 0.01416
C 11.02436 32.00967 0.03542
C 10.95741 30.60808 0.02299
C 9.74936 29.85685 0.00244
C 9.76538 28.40941 -0.01717
C 12.25358 0.05598 -0.00066
C 10.96465 27.6693 0.05265
C 9.8101 25.632 -0.02813
C 9.7772 24.27056 0.00374
C 11.06727 23.45134 0.00052
C 11.12184 22.13373 -0.03682
C 9.81807 21.35177 0.01965
C 9.7193 19.94744 0.02058
C 9.86129 7.01171 -0.01957
C 10.90869 6.38718 -0.0108
C 11.06114 26.29957 -0.01952
C 14.68828 32.78608 -0.00289
C 15.89981 31.99147 0.00028
C 15.85979 30.5641 -0.02213
C 17.95972 4.26542 0.00364
C 17.39997 2.98658 -0.00831
C 18.40512 2.05065 -0.02957
C 18.44659 0.5771 -0.04422
C 17.1726 34.06123 0.00654
C 19.61536 32.68651 -0.00703
C 20.82143 31.97149 -0.04076
C 20.77293 30.47131 -0.00652
C 18.42422 23.4567 -0.017
C 19.59599 29.80913 0.0058
C 20.80041 27.70286 0.00675
C 20.81418 26.33179 -0.00311
C 19.59734 25.54481 0.00742
C 19.63098 24.17062 -0.01594
C 20.923 23.44734 0.0106
C 21.02679 22.14243 -0.01154
C 20.53514 4.84153 -0.01721
C 19.49313 4.16733 -0.02422
C 19.54805 28.39857 -0.00865
C 7.44198 2.86742 0.0076
C 17.16896 23.99062 0.00143
C 18.41196 26.19481 -0.0054
C 14.72601 29.81865 0.03698
C 14.8287 28.3692 -0.00109
C 16.02177 27.54011 -0.00491
C 15.95935 26.10125 0.03338
C 14.67316 25.46328 -0.0258
C 14.65346 23.96334 -0.0331
C 15.89985 23.47367 -0.00316
C 14.67833 4.25445 0.02188
C 17.18236 25.45258 0.00667
C 14.93676 2.87919 -0.01979
C 16.01243 0.79054 -0.01581
C 14.77859 0.09074 0.01452
C 17.12271 32.64816 0.04892
C 18.39844 31.9359 -0.00111
C 18.28353 30.45221 -0.03557
C 17.09114 29.78822 0.03754
C 17.15596 28.29353 0.01739
C 18.37128 27.63007 0.00755
C 16.17931 2.30902 0.02691
C 7.40838 4.26403 0.02162
C 8.61071 5.0409 -0.0014
C 8.57435 6.52072 0.00415
C 2.56879 7.14913 -0.04848
C 3.81368 6.44737 -0.00892
C 3.77736 4.99476 -0.01362
C 2.48007 4.39345 -0.0008
C 2.42454 2.94983 0.0288
C 3.56399 2.21408 0.00393
C 3.59069 0.72081 0.00895
C 2.433 34.07273 0.00685
C 2.51258 8.62836 0.01572
C 4.87744 32.69644 0.02888
C 6.04888 30.59733 -0.01384
C 4.79279 29.83757 0.03693
C 4.81671 28.46397 0.01745
C 6.1661 27.72643 0.00488
C 6.10324 26.24825 -0.01004
C 4.82288 25.59947 -0.02896
C 4.82936 24.19495 -0.00131
C 6.0991 23.42175 -0.01118
C 6.08442 32.128 -0.00482
C 6.12435 21.99107 -0.014
C 3.76686 9.26764 -0.00095
C 2.59487 11.33379 0.00054
C 3.6555 30.53931 -0.00077
C 2.43744 29.84185 0.03368
C 2.38418 28.48488 -0.02929
C 3.61404 27.74512 -0.00966
C 3.63081 26.32393 -0.03337
C 2.33444 25.64823 0.01227
C 2.30849 24.17703 0.00873
C 3.6173 23.52221 -0.00049
C 3.76434 10.67722 0.03007
C 3.57542 22.09717 0.00848
C 2.42461 19.85472 -0.01378
C 3.6153 19.06446 0.02635
C 3.60804 17.71691 0.0127
C 2.35673 17.05685 0.01396
C 2.45662 15.59572 0.01849
C 3.66203 14.90355 -0.01142
C 3.77915 13.53126 -0.00562
C 2.48075 12.7493 -0.00494
C 2.42868 21.33601 -0.01303
C 19.62244 2.68689 0.01277
C 4.89046 21.2281 0.02147
C 6.15919 19.21279 -0.00191
C 7.2895 28.4697 0.00985
C 8.55064 27.80513 -0.02245
C 8.5274 26.30632 -0.00428
C 7.33758 25.55489 0.03101
C 7.30756 24.185 -0.01536
C 8.53572 23.48198 -0.02689
C 8.5945 22.08596 -0.01046
C 7.3919 21.39738 -0.00891
C 7.23777 29.92867 -0.01275
C 7.34985 20.02163 0.02819
C 8.47016 17.85307 -0.02971
C 7.39167 16.97381 0.02894
C 7.46119 15.61952 -0.01789
C 7.41201 12.63668 0.00444
C 7.42527 11.22845 -0.00925
C 8.67148 9.61949 0.01877
C 7.62435 8.71757 0.01363
C 7.43729 7.14388 -0.02162
C 8.61507 19.26767 0.00165
C 4.89433 19.86053 0.00373
C 8.52672 30.55278 -0.01111
C 7.36757 32.72951 0.00943
C 6.04025 17.80211 0.00438
C 4.83801 17.06851 0.01291
C 4.91821 15.59173 0.00093
C 6.16493 14.89118 0.00057
C 6.25756 13.43158 -0.01634
C 5.00214 12.78626 -0.00334
C 5.00197 11.37376 0.02339
C 6.18116 10.65463 0.01641
C 8.55273 31.98735 0.02841
C 6.28832 9.27427 -0.00719
C 4.92403 7.19197 -0.01062
C 6.16675 6.39778 -0.00033
C 6.19611 5.01732 0.03589
C 4.9613 4.27527 -0.02759
C 4.8936 2.81282 0.0402
C 6.16824 2.12669 0.00572
C 6.15309 0.70732 0.03592
C 4.97911 0.03359 0.00406
C 4.96869 8.5533 0.01364
C 20.80245 2.08161 0.00096
C 20.83067 0.68599 -0.01527
C 19.67284 34.00391 0.01087
C 33.18311 31.91633 -0.01694
C 33.13087 30.55153 0.01428
C 31.93647 29.85974 -0.02142
C 31.98746 28.42494 0.0544
C 33.12141 27.71317 0.00026
C 33.10783 26.34231 0.00682
C 31.93445 25.59578 -0.01779
C 31.88696 24.17746 0.03794
C 31.91812 32.61102 0.01713
C 33.09379 23.46172 0.01927
C 31.85978 21.35913 -0.02383
C 31.88578 19.95543 -0.01429
C 33.10629 19.25819 -0.0136
C 33.12282 17.74016 0.00594
C 31.95168 17.06181 -0.02474
C 32.0758 15.61771 0.00369
C 33.24786 14.86738 0.00455
C 33.2556 13.40113 -0.00644
C 33.12465 21.97268 0.01574
C 32.04518 12.70897 -0.01839
C 29.47187 0.03313 0.00346
C 30.73186 2.06122 0.00716
C 29.43412 21.36495 -0.03039
C 29.30416 19.96307 0.01836
C 30.5617 19.22818 0.03531
C 30.70022 17.82912 -0.00669
C 29.51404 17.10577 0.0101
C 29.57476 15.71298 0.01705
C 30.84504 14.92558 -0.0405
C 30.80137 13.45444 -0.01303
C 30.68745 0.70331 0.00307
C 29.54828 12.76618 -0.01461
C 30.78787 10.55486 -0.00944
C 30.72715 9.15695 -0.03735
C 29.51213 8.45542 -0.00971
C 29.49488 7.05594 0.01518
C 30.75407 6.37762 0.01908
C 30.75154 4.94774 0.07705
C 29.41432 4.19606 0.0103
C 29.4555 2.86223 0.02108
C 29.57307 11.3222 -0.02155
C 30.61287 22.07448 -0.01415
C 31.98416 11.32794 0.00137
C 33.28147 9.24884 0.04381
C 1.2099 19.22006 -0.01678
C 1.07818 17.88637 0.01223
C 34.39379 17.08334 0.00648
C 0.0282 15.59435 0.02114
C 1.26725 14.9145 -0.02957
C 1.30864 13.50366 0.00343
C 0.05393 12.78897 -0.02656
C 0.04865 11.44285 -0.02442
C 34.32273 19.86921 0.01951
C 1.31377 10.66285 -0.00027
C 0.06159 8.52385 -0.02302
C 0.03373 7.17538 -0.02849
C 1.25444 6.51086 0.02931
C 1.19915 5.11634 0.00628
C 0.07097 4.28891 -0.0345
C 0.00866 2.86492 -0.00931
C 1.21819 2.18191 -0.00939
C 1.21166 0.768 -0.00468
C 1.28 9.23983 -0.00583
C 33.28966 10.64033 0.00199
C 34.31848 21.24207 -0.02213
C 1.13452 23.39881 0.00723
C 31.99163 8.50441 0.02806
C 31.9941 7.12173 0.01504
C 33.21836 6.3767 -0.00069
C 33.2012 5.00017 0.04926
C 32.00865 4.30801 -0.03838
C 32.02445 2.83897 0.00349
C 33.2124 2.11268 -0.00323
C 33.18404 0.671 -0.00841
C 1.14948 22.01182 0.02712
C 31.97896 0.01807 0.0001
C 1.18839 31.97779 -0.01404
C 1.15752 30.54349 0.01027
C 34.41239 29.89932 0.01831
C 34.41078 28.42661 -0.01037
C 1.1449 27.76201 -0.00439
C 1.18328 26.32155 -0.00598
C 34.35553 25.62743 -0.05239
C 34.28414 24.14995 0.03076
C 34.38994 32.64652 -0.02927
C 3.6566 32.02142 0.01305
C 30.66009 23.47762 -0.01854
C 29.50279 25.64369 0.03265
C 24.5664 29.80325 -0.01971
C 24.50919 28.34826 -0.02118
C 25.67189 27.66682 0.00733
C 25.76373 26.22878 -0.00178
C 24.56886 25.55919 0.00768
C 24.59257 24.18707 -0.0276
C 25.80763 23.46322 0.03005
C 25.86059 22.09195 -0.04078
C 25.76561 30.54596 -0.01586
C 24.50258 21.33728 0.02117
C 25.65461 19.12867 -0.00498
C 25.86768 17.7209 0.00135
C 25.96732 10.66183 0.03102
C 25.73812 9.2265 0.02555
C 24.67272 8.41226 0.01423
C 24.43135 7.12576 -0.00285
C 25.78856 6.31047 -0.009
C 25.75783 4.92953 -0.01199
C 24.56699 19.96522 0.02737
C 24.54946 4.12853 -0.00229
C 25.71741 31.8976 -0.01107
C 22.07277 34.06169 -0.00225
C 22.04431 32.67455 0.00199
C 23.20373 31.95703 0.01511
C 23.25594 30.58604 -0.00478
C 22.0293 29.77034 -0.01662
C 22.00599 28.40901 -0.01185
C 23.27019 27.68226 0.01126
C 23.24521 26.23683 0.01852
C 22.09177 25.60311 -0.00381
C 24.49079 32.62873 0.00071
C 22.19744 24.19635 0.03046
C 23.34661 22.11407 0.03374
C 22.17544 21.47375 -0.02845
C 23.32903 6.26076 -0.03213
C 23.27536 4.87036 0.02239
C 21.88581 4.22403 0.01153
C 22.10518 2.81379 0.02734
C 23.26666 2.13286 -0.0055
C 23.25868 0.64202 0.01515
C 23.37129 23.52824 0.0296
C 29.43185 24.19607 -0.02049
C 24.64308 2.75653 -0.00938
C 25.86303 0.63037 -0.01154
C 28.34361 10.67416 0.00194
C 28.34725 9.25682 -0.00621
C 27.12612 8.4819 0.02611
C 26.99245 7.02729 0.02198
C 28.20673 6.34412 0.01094
C 28.19578 4.94168 0.00235
C 26.96329 4.25773 0.01495
C 27.04377 2.8512 0.01259
C 27.07188 11.42709 0.04185
C 28.16568 2.10469 0.01799
C 27.00309 33.97736 -0.00416
C 29.47719 32.72998 0.01177
C 30.73767 31.94643 0.04266
C 30.68945 30.54979 0.01324
C 29.55652 29.81137 0.0014
C 29.45183 28.39799 0.00924
C 30.7282 27.76037 0.02326
C 30.6865 26.35237 0.00261
C 28.16668 0.66933 0.01699
C 25.77297 1.99991 -0.0264
C 27.04263 12.95919 0.02316
C 28.3139 15.01132 0.00152
C 24.43029 34.04071 0.00684
C 26.95228 32.57134 -0.01052
C 28.24812 31.98343 -0.01679
C 28.32746 30.53737 0.00367
C 27.05107 29.85546 0.04306
C 26.89834 28.38098 0.00996
C 28.24052 27.71977 0.00195
C 28.24572 26.3252 -0.00802
C 28.34167 13.59869 0.01257
C 27.02173 25.56493 -0.00218
C 28.2004 23.55037 -0.00037
C 28.22688 22.0296 -0.0032
C 27.00236 21.35095 0.00622
C 26.91767 19.95522 -0.02815
C 28.17959 19.23823 -0.00942
C 28.27584 17.74556 0.00487
C 26.96871 16.95761 0.00826
C 26.94151 15.55276 -0.00294
C 27.03279 24.20317 -0.01654
C 2.41276 32.67344 0.0276
