358
Graphene
C 34.38295 0.02536 0.01295
C 14.64662 29.68655 -0.01957
C 14.69047 15.67292 -0.0108
C 15.91779 15.03917 -0.00368
C 16.04482 13.63846 -0.02696
C 14.78744 12.88181 -0.00114
C 14.77683 11.43273 0.00228
C 15.9854 10.63787 0.00798
C 15.97546 9.15403 0.00422
C 15.96823 30.24531 0.02058
C 14.7494 8.40216 0.0351
C 16.08329 6.30788 0.02098
C 16.06468 4.95826 0.01848
C 14.81434 4.20511 -0.00619
C 14.72911 2.80283 -0.02162
C 16.01751 2.07228 0.00889
C 15.98998 0.72681 -0.00481
C 14.77603 0.02325 0.00979
C 17.12512 32.59159 0.01443
C 14.79462 7.02185 -0.03113
C 18.38286 31.90755 0.03505
C 15.87208 31.8046 0.01965
C 12.29513 0.03739 0.00052
C 12.16493 32.6862 0.01363
C 13.41625 32.09622 -0.02162
C 13.61748 30.51746 0.00415
C 12.47541 29.90056 -0.0014
C 13.64836 14.88633 0.02162
C 13.50467 13.58695 0.0076
C 12.3024 12.86223 0.01241
C 12.35472 11.45966 -0.01454
C 14.65045 32.61794 -0.03682
C 13.58734 10.66277 0.01945
C 12.31688 8.56051 0.03542
C 12.26196 7.06634 0.02299
C 13.55184 6.37152 0.00244
C 13.58439 4.9059 -0.01717
C 12.30084 4.21518 0.05265
C 12.30334 2.84374 -0.01952
C 13.57555 2.1071 -0.02813
C 13.54441 0.6091 0.00374
C 13.56367 9.24661 0.01416
C 18.27472 30.59174 -0.02815
C 17.18688 29.76958 -0.04147
C 18.61785 19.08388 -0.05302
C 20.89115 19.22438 -0.0054
C 20.82955 17.8104 0.00667
C 19.5959 17.13624 0.00143
C 19.62318 15.70415 -0.017
C 20.87728 14.91138 0.00364
C 20.86111 13.47118 -0.00831
C 19.6612 12.72358 -0.02957
C 19.66425 11.37728 -0.04422
C 19.60688 19.972 0.00755
C 20.86351 10.55411 0.00654
C 19.72169 8.54322 -0.04076
C 19.67619 7.02563 -0.00652
C 20.91872 6.38767 0.0058
C 20.90525 4.92357 -0.00865
C 19.70241 4.21285 0.00675
C 19.62496 2.8305 -0.00311
C 20.9372 2.06814 0.00742
C 20.9116 0.70088 -0.01594
C 20.96158 9.23356 -0.00703
C 19.82474 21.2117 0.01739
C 20.92058 22.05168 0.03754
C 20.75503 32.00155 -0.03557
C 18.17005 17.88504 0.00213
C 17.0751 17.09537 -0.00066
C 17.16008 15.74228 -0.00289
C 18.39003 14.96551 0.00028
C 18.43949 13.53688 -0.02213
C 17.27284 12.78317 0.03698
C 17.18248 11.35212 -0.00109
C 18.45006 10.67746 -0.00491
C 18.47465 9.25615 0.03338
C 17.23517 8.51642 -0.0258
C 17.30632 7.13789 -0.0331
C 18.56041 6.39036 -0.00316
C 18.53513 4.95478 0.02188
C 17.26222 4.24982 -0.01979
C 17.20785 2.86574 0.02691
C 18.40787 2.13034 -0.01581
C 18.41022 0.7249 0.01452
C 17.16948 34.05912 0.04892
C 19.5702 32.6433 -0.00111
C 9.9112 0.07559 0.01877
C 11.08423 0.70299 -0.00925
C 11.10305 2.11516 0.00444
C 9.77669 2.74479 -0.01789
C 3.65512 6.37041 -0.01142
C 3.66083 4.9698 -0.00562
C 2.46139 4.28415 -0.00494
C 2.44874 2.86184 0.00054
C 3.70927 2.23461 0.03007
C 3.67618 0.77988 -0.00095
C 2.45458 0.02797 0.01572
C 4.83037 32.80193 -0.04848
C 2.4434 7.11237 0.01849
C 4.91116 29.88223 -0.00892
C 6.07311 27.67555 -0.0008
C 6.0139 26.2324 0.0288
C 5.00372 25.43624 0.00393
C 4.82961 24.16885 0.00895
C 4.77605 21.32998 0.00685
C 4.85979 19.99497 0.02888
C 6.10493 17.58062 -0.00482
C 4.90614 17.10577 -0.01384
C 5.12245 28.56007 -0.01362
C 2.42914 8.5695 0.01396
C 3.66581 9.32063 0.0127
C 3.61104 10.79327 0.02635
C 3.66714 30.54318 0.02322
C 2.40888 29.82791 -0.00725
C 2.48326 28.35384 -0.05697
C 3.72638 27.76267 0.01087
C 3.67323 26.25452 -0.01343
C 2.47002 25.5438 0.00988
C 2.4536 24.12651 0.0276
C 3.72189 23.39795 0.01305
C 3.73242 22.04978 -0.00077
C 2.46596 21.28091 0.03368
C 2.4688 19.94054 -0.02929
C 3.74732 19.23887 -0.00966
C 3.7403 17.77844 -0.03337
C 2.4414 17.02118 0.01227
C 2.50162 15.59824 0.00873
C 3.66458 14.8983 -0.00049
C 3.74373 13.52147 0.00848
C 2.40525 12.76256 -0.01303
C 2.38566 11.39131 -0.01378
C 4.93702 15.65233 0.03693
C 19.57371 0.02738 0.0106
C 6.16159 15.03192 0.01745
C 4.91258 12.78618 -0.01004
C 8.62162 5.01172 0.03592
C 7.39997 4.34714 0.00406
C 7.38081 2.93074 0.00943
C 8.55888 2.06268 0.02841
C 8.64012 0.54117 -0.01111
C 7.27687 0.01882 -0.01275
C 9.80945 15.43441 0.00985
C 11.03086 14.92247 -0.02245
C 8.58161 6.39721 0.00572
C 11.11293 13.55177 -0.00428
C 9.895 11.4189 -0.01536
C 11.10755 10.67156 -0.02689
C 11.01347 9.18016 -0.01046
C 9.80719 8.5785 -0.00891
C 9.82166 7.10567 0.02819
C 11.06544 6.32395 0.00165
C 11.0884 4.92615 -0.02971
C 9.77845 4.19355 0.02894
C 9.84344 12.83166 0.03101
C 7.36913 7.11186 0.0402
C 7.34905 8.59621 -0.02759
C 8.6228 9.23435 0.03589
C 4.96217 11.38317 -0.02896
C 6.14602 10.64706 -0.00131
C 6.15685 9.28909 -0.01118
C 4.87677 8.61681 -0.014
C 4.85236 7.14626 0.02147
C 6.11802 6.45634 0.00373
C 6.1561 5.01675 -0.00191
C 4.89955 4.32764 0.00438
C 4.97286 2.89823 0.01291
C 6.18278 2.21669 0.00093
C 6.14374 0.78149 0.00057
C 4.91799 0.05109 -0.01634
C 7.32914 17.05973 -0.00334
C 7.36197 15.72274 0.02339
C 8.60259 15.01692 0.01641
C 8.55541 13.53997 -0.00719
C 7.36755 12.81173 0.01364
C 7.39403 11.38332 -0.01062
C 8.69681 10.65929 -0.00033
C 6.19693 13.47345 0.00488
C 22.00973 32.45536 -0.01154
C 23.37246 31.96778 -0.01721
C 23.41111 22.05283 -0.02422
C 31.98239 32.62016 0.01713
C 33.19643 31.99221 -0.01694
C 33.21053 30.55513 0.01428
C 32.00597 29.84188 -0.02142
C 32.00542 28.40906 0.0544
C 33.22432 27.72905 0.00026
C 33.12529 26.27059 0.00682
C 31.96025 25.59762 -0.01779
C 29.61604 0.0719 0.00346
C 31.90117 24.15148 0.03794
C 33.13442 22.05327 0.01574
C 31.84629 21.24317 -0.02383
C 31.95345 19.86387 -0.01429
C 33.22138 19.18129 -0.0136
C 33.27764 17.77417 0.00594
C 32.01195 16.96012 -0.02474
C 32.00288 15.60546 0.00369
C 33.25128 14.83225 0.00455
C 33.11955 23.46788 0.01927
C 30.78248 0.76649 0.00307
C 30.77296 2.14793 0.00716
C 29.5277 2.86126 0.02108
C 30.69357 23.43822 -0.01854
C 30.62093 22.01885 -0.01415
C 29.38356 21.28275 -0.03039
C 29.46244 19.90933 0.01836
C 30.7428 19.1298 0.03531
C 30.73101 17.7071 -0.00669
C 29.54792 17.0235 0.0101
C 29.50464 15.62616 0.01705
C 30.69508 14.90548 -0.0405
C 30.74263 13.49255 -0.01303
C 29.50288 12.7938 -0.01461
C 29.54318 11.33195 -0.02155
C 30.72519 10.63405 -0.00944
C 30.78813 9.24506 -0.03735
C 29.58098 8.45753 -0.00971
C 29.53211 7.04147 0.01518
C 30.78121 6.35935 0.01908
C 30.69196 4.99164 0.07705
C 29.49915 4.24834 0.0103
C 33.19558 13.4383 -0.00644
C 29.47736 24.18431 -0.02049
C 32.01404 12.74225 -0.01839
C 33.24516 10.63967 0.00199
C 1.27554 19.15272 -0.01678
C 1.24761 17.73493 0.01223
C 34.41875 17.07249 0.00648
C 0.00467 15.59131 0.02114
C 1.25131 14.87439 -0.02957
C 1.13178 13.53642 0.00343
C 0.03751 12.76667 -0.02656
C 0.00279 11.27549 -0.02442
C 34.42686 19.96682 0.01951
C 1.23051 10.60004 -0.00027
C 34.40562 8.49907 -0.02302
C 34.36479 7.05892 -0.02849
C 1.20651 6.46325 0.02931
C 1.20782 5.00953 0.00628
C 34.42393 4.33793 -0.0345
C 34.3919 2.85752 -0.00931
C 1.24087 2.11593 -0.00939
C 1.19732 0.71969 -0.00468
C 1.20313 9.22981 -0.00583
C 34.38066 21.35159 -0.02213
C 1.18485 22.07603 0.02712
C 1.24395 23.49756 0.00723
C 33.24849 9.20956 0.04381
C 32.0276 8.5411 0.02806
C 31.98759 7.0773 0.01504
C 33.18527 6.37888 -0.00069
C 33.1532 4.93687 0.04926
C 31.92683 4.21685 -0.03838
C 31.95354 2.84127 0.00349
C 33.25962 2.13954 -0.00323
C 33.17806 0.68218 -0.00841
C 31.96095 34.03367 0.0001
C 0.01162 32.70569 -0.02927
C 1.19415 32.03262 -0.01404
C 1.18351 30.52725 0.01027
C 34.38983 29.86253 0.01831
C 0.01001 28.42545 -0.01037
C 1.1983 27.67842 -0.00439
C 1.16171 26.252 -0.00598
C 34.35861 25.53462 -0.05239
C 34.38614 24.13782 0.03076
C 31.97048 11.40821 0.00137
C 3.68745 31.93206 -0.00094
C 29.58657 25.53783 0.03265
C 30.79645 27.74791 0.02326
C 25.82098 30.65817 0.00071
C 25.89643 27.67392 -0.01107
C 25.87401 26.35402 -0.01586
C 25.8157 23.44009 -0.01971
C 25.71462 22.10135 -0.02118
C 24.52904 21.33414 0.00733
C 24.50704 19.92419 -0.00178
C 25.73912 19.21492 0.00768
C 25.81435 32.05949 -0.00225
C 25.73778 17.70041 -0.0276
C 24.64001 15.5789 -0.04078
C 25.86242 14.87176 0.02117
C 25.78743 13.44749 0.02737
C 24.49389 12.72061 -0.00498
C 24.50877 11.32501 0.00135
C 25.8215 10.63449 0.03102
C 25.82232 9.15568 0.02555
C 24.55412 8.42021 0.01423
C 24.56833 16.96717 0.03005
C 24.52931 32.64578 0.01515
C 22.14751 34.05582 -0.0055
C 23.41074 0.6631 0.02734
C 22.13158 21.4774 0.01277
C 22.16663 19.91854 0.00096
C 23.3072 19.10262 -0.01527
C 23.31083 17.63272 0.01087
C 22.08321 16.99939 0.00199
C 22.11165 15.55691 0.01511
C 23.3398 14.90224 -0.00478
C 23.29497 13.42114 -0.01662
C 22.12905 12.73993 -0.01185
C 22.08616 11.34595 0.01126
C 23.3321 10.68558 0.01852
C 23.40028 9.18089 -0.00381
C 22.13747 8.48707 0.03046
C 22.10052 7.06287 0.0296
C 23.39562 6.29571 0.03374
C 23.34883 4.91781 -0.02845
C 22.07994 4.14677 -0.03213
C 22.13341 2.7037 0.02239
C 23.33129 2.06748 0.01153
C 24.52144 7.04686 -0.00285
C 30.7271 26.3303 0.00261
C 25.78751 6.31071 -0.009
C 24.47693 4.16061 -0.00229
C 27.03826 12.7721 0.02316
C 27.03291 11.26354 0.04185
C 28.28696 10.59309 0.00194
C 28.31134 9.14101 -0.00621
C 27.07199 8.47207 0.02611
C 27.04485 7.03565 0.02198
C 28.26949 6.3824 0.01094
C 28.20451 5.00615 0.00235
C 28.21192 13.48232 0.01257
C 26.97802 4.32712 0.01495
C 28.2855 2.15513 0.01799
C 28.34793 0.78374 0.01699
C 27.10048 0.10083 -0.00416
C 29.58543 32.68264 0.01177
C 30.76309 31.88578 0.04266
C 30.70164 30.55608 0.01324
C 29.54629 29.78721 0.0014
C 29.53966 28.41276 0.00924
C 27.09123 2.8683 0.01259
C 28.26905 14.96498 0.00152
C 27.0215 15.64611 -0.00294
C 27.02066 17.08674 0.00826
C 24.58517 2.73737 -0.00938
C 25.83934 2.14561 -0.0264
C 25.85819 0.71025 -0.01154
C 24.63737 0.04378 0.00684
C 27.11646 32.73756 -0.01052
C 28.30915 31.96987 -0.01679
C 28.24445 30.537 0.00367
C 26.92022 29.85788 0.04306
C 26.95568 28.41241 0.00996
C 28.31372 27.7892 0.00195
C 28.22583 26.3047 -0.00802
C 27.01913 25.5849 -0.00218
C 26.99936 24.20247 -0.01654
C 28.17865 23.42722 -0.00037
C 28.13521 21.97195 -0.0032
C 26.9302 21.28765 0.00622
C 26.98757 19.90172 -0.02815
C 28.26667 19.19555 -0.00942
C 28.25423 17.79792 0.00487
C 25.7402 4.9553 -0.01199
C 2.45164 32.62152 -0.02566
