295
Graphene
C 0.00801 0.01457 0.01295
C 12.25263 32.68654 0.00755
C 13.53958 31.95526 -0.0054
C 13.47888 30.6397 0.00667
C 12.44369 29.78402 0.00143
C 12.29101 28.36717 -0.017
C 12.25983 25.61317 0.00364
C 9.78607 0.01808 0.01739
C 12.27978 24.28934 -0.00831
C 13.42383 22.17393 -0.04422
C 12.3738 21.19399 0.00654
C 12.31354 19.8767 -0.00703
C 12.12826 16.88317 -0.04076
C 12.48274 15.64696 -0.00652
C 13.73816 10.63449 0.0058
C 13.37122 23.26396 -0.02957
C 10.98771 0.62426 0.03754
C 11.06362 2.07557 -0.03557
C 9.82442 2.79282 -0.00111
C 9.7563 28.31887 0.00028
C 11.11923 27.67547 -0.02213
C 11.09017 26.23237 0.03698
C 9.8729 25.59131 -0.00109
C 9.72563 24.14914 -0.00491
C 11.0096 23.49679 0.03338
C 11.04774 22.09241 -0.0258
C 9.86223 21.39554 -0.0331
C 9.84789 19.86945 -0.00316
C 11.14066 19.21221 0.02188
C 11.32984 17.79852 -0.01979
C 9.87813 7.03634 0.02691
C 11.09319 6.45939 -0.01581
C 11.06127 4.98864 0.01452
C 9.78755 4.29316 0.04892
C 13.38845 9.35469 -0.00865
C 9.87339 29.75451 -0.00289
C 12.38508 8.42891 0.00675
C 13.55153 6.4176 0.00742
C 17.43786 7.15172 0.03374
C 18.49441 6.31582 -0.02845
C 18.39057 4.90699 -0.03213
C 17.13607 4.19639 0.02239
C 17.15062 2.823 0.01153
C 18.42319 2.13261 0.02734
C 17.2484 8.5465 0.0296
C 18.42653 0.58744 -0.0055
C 20.84514 6.52291 -0.00225
C 20.79769 5.08329 0.00071
C 19.61294 4.25467 -0.01107
C 19.62752 2.81451 -0.01586
C 20.84423 2.0787 -0.01971
C 20.91252 0.61761 -0.02118
C 17.14055 34.06629 0.01515
C 14.74265 34.0352 0.03046
C 15.95899 0.66247 -0.00381
C 15.9557 2.11951 0.01852
C 13.51617 5.04276 -0.01594
C 12.30171 4.30635 0.0106
C 12.29738 2.7641 -0.01154
C 13.54782 2.08226 -0.01721
C 13.50167 0.66621 -0.02422
C 12.28229 34.02991 0.01277
C 14.74138 32.72472 0.00096
C 14.8094 11.28847 -0.01527
C 16.11131 8.96851 0.01087
C 14.75527 8.60972 0.00199
C 14.77479 7.20291 0.01511
C 15.95935 6.44345 -0.00478
C 15.97411 5.0154 -0.01662
C 14.75506 4.28272 -0.01185
C 14.70972 2.86701 0.01126
C 12.35687 7.10987 -0.00311
C 19.69387 0.07002 0.00733
C 11.07959 30.51867 -0.00066
C 9.84468 32.64443 -0.05302
C 3.67764 6.40077 0.02819
C 3.68008 4.94015 0.00165
C 2.4537 4.23358 -0.02971
C 2.44403 2.83558 0.02894
C 3.68234 2.11361 -0.01789
C 3.7511 0.70798 0.00444
C 2.37366 7.08161 -0.00891
C 2.53165 34.05736 -0.00925
C 6.13514 31.90596 0.01363
C 6.07516 30.54313 -0.02162
C 4.92851 29.78931 0.00415
C 4.914 28.36138 -0.0014
C 6.15585 27.68223 0.02162
C 6.21053 26.26861 0.0076
C 4.95131 32.66257 0.01877
C 2.41913 8.50698 -0.01046
C 3.67448 9.12164 -0.02689
C 2.26887 11.32106 -0.01536
C 3.70635 30.54476 -0.00033
C 2.47592 29.85549 0.03589
C 2.46089 28.44101 -0.02759
C 3.67418 27.69756 0.0402
C 3.67064 26.28709 0.00572
C 2.44228 25.55772 0.03592
C 2.45785 24.12355 0.00406
C 3.66065 23.48393 0.00943
C 3.64163 21.99826 0.02841
C 2.44775 21.29806 -0.01111
C 2.39463 19.8687 -0.01275
C 3.67225 19.24218 0.00985
C 3.62576 17.89102 -0.02245
C 2.61615 16.99478 -0.00428
C 2.38522 15.63682 0.03101
C 4.87848 25.59803 0.01241
C 11.08339 31.96153 0.00213
C 4.86957 24.18617 -0.01454
C 6.17066 21.98231 0.01416
C 7.4067 24.10817 0.00422
C 8.53258 23.42139 0.0351
C 8.60176 22.02154 -0.03113
C 7.38864 21.29097 0.02098
C 7.44348 19.78871 0.01848
C 8.71865 19.18435 -0.00619
C 7.43417 25.52426 0.00798
C 7.4354 7.05823 -0.02162
C 8.58869 4.9527 -0.00481
C 7.31548 4.29958 0.00979
C 7.31174 2.82552 0.01443
C 8.56024 2.1455 0.03505
C 8.61037 0.7062 -0.02815
C 7.38366 34.01108 -0.04147
C 8.61813 6.44767 0.00889
C 8.63891 26.20097 0.00228
C 8.56626 27.65559 -0.00114
C 7.36683 28.45137 -0.02696
C 4.90837 21.37423 0.03542
C 4.91369 19.94403 0.02299
C 6.14066 19.32723 0.00244
C 4.92776 6.96609 -0.01717
C 6.18265 6.5499 0.05265
C 6.11508 5.0714 -0.01952
C 4.92866 4.30583 -0.02813
C 4.87714 2.86365 0.00374
C 6.14425 2.11454 0.00052
C 6.17761 0.6292 -0.03682
C 4.95165 34.04111 0.01965
C 7.36342 32.66652 0.02058
C 8.6481 31.96992 -0.01957
C 8.63245 30.53809 -0.0108
C 7.35252 29.90313 -0.00368
C 6.13259 23.45072 0.01945
C 3.71647 31.88421 -0.01062
C 23.24327 5.02429 -0.00178
C 22.06768 2.77325 -0.0276
C 31.94493 19.83192 -0.01429
C 33.17022 19.13282 -0.0136
C 33.19127 17.71564 0.00594
C 31.92061 17.00962 -0.02474
C 31.93355 15.6636 0.00369
C 33.13356 14.91837 0.00455
C 31.9734 21.25753 -0.02383
C 33.09957 13.52975 -0.00644
C 31.90691 11.41915 0.00137
C 33.15587 10.71281 0.00199
C 33.19646 9.27951 0.04381
C 31.96807 8.59356 0.02806
C 32.03723 7.16078 0.01504
C 33.24389 6.48303 -0.00069
C 31.91785 12.83178 -0.01839
C 33.23343 22.05316 0.01574
C 33.24323 23.49966 0.01927
C 31.99033 24.09846 0.03794
C 30.7579 6.49079 0.01908
C 30.7274 5.09328 0.07705
C 29.54785 4.35333 0.0103
C 29.47095 2.87472 0.02108
C 30.73201 2.16222 0.00716
C 30.73687 0.71441 0.00307
C 29.5422 34.03605 0.00346
C 31.99523 32.69692 0.01713
C 33.21115 31.98973 -0.01694
C 33.17769 30.59157 0.01428
C 31.96287 29.84786 -0.02142
C 31.90972 28.43265 0.0544
C 33.15332 27.711 0.00026
C 33.18795 26.32187 0.00682
C 32.01078 25.54441 -0.01779
C 33.21501 5.03167 0.04926
C 29.48983 7.11296 0.01518
C 31.93617 4.33616 -0.03838
C 33.18724 2.14942 -0.00323
C 1.30795 14.85801 -0.02957
C 1.14973 13.44491 0.00343
C 34.36368 12.86644 -0.02656
C 34.33824 11.39872 -0.02442
C 1.12463 10.66493 -0.00027
C 1.16643 9.29386 -0.00583
C 34.41528 15.57419 0.02114
C 34.40002 8.57973 -0.02302
C 1.21199 6.4399 0.02931
C 1.21535 4.95165 0.00628
C 34.41066 4.29141 -0.0345
C 34.40808 2.81972 -0.00931
C 1.19234 2.12018 -0.00939
C 1.21905 0.73743 -0.00468
C 34.41519 7.17992 -0.02849
C 34.38316 17.00061 0.00648
C 1.17605 17.75163 0.01223
C 1.16016 19.15836 -0.01678
C 33.21678 0.70661 -0.00841
C 31.96014 34.07678 0.0001
C 0.05702 32.68015 -0.02927
C 1.2833 31.92067 -0.01404
C 1.24786 30.53118 0.01027
C 34.42899 29.89579 0.01831
C 34.38917 28.41766 -0.01037
C 1.20774 27.75332 -0.00439
C 1.17317 26.30469 -0.00598
C 34.41983 25.58743 -0.05239
C 0.0641 24.17874 0.03076
C 1.25731 23.4192 0.00723
C 1.23634 21.99634 0.02712
C 0.04016 21.30857 -0.02213
C 34.38193 19.89169 0.01951
C 31.95929 2.80331 0.00349
C 22.09416 4.3852 0.00768
C 29.53395 8.50261 -0.00971
C 30.68729 10.6724 -0.00944
C 27.05687 32.70676 0.00367
C 28.21677 31.95812 0.04306
C 28.24287 30.53421 0.00996
C 26.97509 29.79676 0.00195
C 27.03177 28.35692 -0.00802
C 28.28454 27.61146 -0.00218
C 24.56626 0.08327 -0.01679
C 28.301 26.24478 -0.01654
C 27.04972 24.0689 -0.0032
C 28.34128 23.3689 0.00622
C 28.21604 21.99943 -0.02815
C 27.02181 21.23744 -0.00942
C 27.02003 19.80531 0.00487
C 28.32211 19.13263 0.00826
C 27.01596 25.55324 -0.00037
C 25.8303 0.82738 -0.01052
C 25.80485 2.19831 0.00684
C 24.51075 2.89026 -0.01154
C 23.35269 2.15632 0.03005
C 23.35116 0.74726 -0.04078
C 22.18133 0.03125 0.02117
C 24.76775 32.8257 0.02737
C 25.71995 31.84967 -0.00498
C 25.80263 30.46651 0.00135
C 25.88517 27.60356 0.03102
C 25.9241 26.40652 0.02555
C 25.81452 23.43849 0.01423
C 25.66476 21.95792 -0.00285
C 24.54437 21.18643 -0.009
C 25.82104 19.16486 -0.01199
C 25.89496 6.23769 -0.00229
C 25.71295 4.96734 -0.00938
C 24.5018 4.32912 -0.0264
C 28.18803 17.73924 -0.00294
C 30.73184 9.16429 -0.03735
C 27.06467 16.93599 0.00152
C 28.20141 14.90727 0.02316
C 29.57335 25.54442 0.03265
C 29.52774 24.18083 -0.02049
C 30.75374 23.38005 -0.01854
C 30.76006 21.9391 -0.01415
C 29.47581 21.24734 -0.03039
C 29.49762 19.87854 0.01836
C 30.81032 26.23206 0.00261
C 30.73248 19.15392 0.03531
C 29.47317 17.08472 0.0101
C 29.47725 15.7177 0.01705
C 30.67099 14.97877 -0.0405
C 30.65682 13.60062 -0.01303
C 29.47094 12.84073 -0.01461
C 29.46517 11.40232 -0.02155
C 30.69363 17.77379 -0.00669
C 30.70501 27.65221 0.02326
C 29.53363 28.39832 0.00924
C 29.48901 29.82924 0.0014
C 28.28622 13.56025 0.04185
C 28.28684 10.77419 0.00194
C 28.21788 9.24618 -0.00621
C 27.14937 8.46039 0.02611
C 26.92238 7.15535 0.02198
C 28.24252 6.40951 0.01094
C 28.20274 4.98852 0.00235
C 26.9948 4.23546 0.01495
C 27.04187 2.78859 0.01259
C 28.28746 2.11749 0.01799
C 28.3148 0.6801 0.01699
C 27.01689 0.06299 -0.00416
C 29.56333 32.60142 0.01177
C 30.75925 31.93371 0.04266
C 30.7577 30.50117 0.01324
C 27.02125 15.6738 0.01257
C 2.54629 32.62081 0.01364
