303
Graphene
C 0.01648 0.02603 0.01295
C 12.34108 11.33991 0.01452
C 12.25954 4.28072 0.04892
C 12.31939 2.8834 -0.00111
C 13.54201 2.10016 -0.03557
C 13.58165 0.73492 0.03754
C 12.33481 0.01356 0.01739
C 15.93365 17.70756 0.00755
C 14.73223 17.01654 -0.0054
C 14.72733 15.54953 0.00667
C 14.76211 2.79489 0.00143
C 16.0176 0.70358 -0.017
C 14.81683 0.03878 0.00364
C 17.30013 32.64326 -0.00831
C 18.46873 31.96107 -0.02957
C 18.41804 19.23888 -0.04422
C 12.32237 12.7536 -0.01581
C 18.44212 17.7217 0.00654
C 13.47786 13.49392 0.02691
C 12.34066 15.56904 0.02188
C 9.79226 12.76089 -0.02815
C 9.82948 11.40395 -0.04147
C 11.08187 10.63293 -0.05302
C 11.02068 9.25788 0.00213
C 9.77171 8.55277 -0.00066
C 9.85948 7.12895 -0.00289
C 11.12319 6.40962 0.00028
C 11.11408 4.98874 -0.02213
C 9.84879 4.26986 0.03698
C 9.82415 2.81005 -0.00109
C 11.07136 2.10549 -0.00491
C 11.07501 0.7027 0.03338
C 9.85441 0.07498 -0.0258
C 13.50363 17.72757 -0.0331
C 12.25414 17.13058 -0.00316
C 13.57701 14.84648 -0.01979
C 11.06473 13.4659 0.03505
C 17.21629 17.02591 -0.00703
C 18.54613 0.70504 -0.00652
C 22.1335 28.33529 0.01126
C 23.34525 27.68128 0.01852
C 23.38418 26.22177 -0.00381
C 22.08692 25.52405 0.03046
C 22.16176 24.12047 0.0296
C 23.41666 23.41506 0.03374
C 23.3683 22.01437 -0.02845
C 22.15408 21.30932 -0.03213
C 22.1086 19.98724 0.02239
C 23.36949 19.18495 0.01153
C 23.32062 17.67647 0.02734
C 22.11407 16.99929 -0.0055
C 22.17404 15.65359 0.01515
C 23.3275 14.91613 -0.00225
C 23.34708 2.18649 0.00071
C 22.10757 29.83303 -0.01185
C 17.24305 15.59998 -0.04076
C 23.39464 30.58313 -0.01662
C 22.12926 32.61732 0.01511
C 17.24384 0.00866 0.0058
C 19.67977 32.63005 -0.00865
C 20.94729 31.90821 0.00675
C 20.85881 30.53659 -0.00311
C 20.90529 27.6315 0.00742
C 20.94691 26.22719 -0.01594
C 20.94912 23.38887 0.0106
C 20.87178 22.05867 -0.01154
C 19.63453 21.29318 -0.01721
C 19.61283 19.89554 -0.02422
C 20.85923 19.19414 0.01277
C 20.86024 17.75336 0.00096
C 19.64458 17.07733 -0.01527
C 20.94608 0.64113 0.01087
C 19.69658 34.07237 0.00199
C 23.37659 31.96836 -0.00478
C 23.36008 0.72825 -0.01107
C 11.11465 14.93932 0.01443
C 9.82283 17.05704 -0.00481
C 3.69661 4.94181 0.00985
C 2.43613 4.25087 -0.02245
C 2.44224 2.85433 -0.00428
C 3.72464 2.15285 0.03101
C 3.65616 0.6955 -0.01536
C 2.43126 0.00138 -0.02689
C 4.90694 32.67842 -0.01046
C 6.21491 31.95692 -0.00891
C 4.88977 24.12637 0.02819
C 6.14625 22.0407 0.00165
C 4.96618 21.30451 -0.02971
C 4.8929 19.86589 0.02894
C 6.13481 19.14375 -0.01789
C 6.11339 17.73048 0.00444
C 4.91773 17.02532 -0.00925
C 3.65758 6.40341 -0.01275
C 4.93806 15.60217 0.01877
C 2.48726 7.10757 -0.01111
C 3.65401 9.26845 0.00943
C 2.48152 25.51222 0.00057
C 2.44069 24.17095 -0.01634
C 3.70037 23.45627 -0.00334
C 3.70499 22.06458 0.02339
C 2.47944 21.27709 0.01641
C 2.46531 19.90904 -0.00719
C 3.66144 19.20734 0.01364
C 3.67716 17.78615 -0.01062
C 2.45006 17.05335 -0.00033
C 2.4434 15.66065 0.03589
C 3.701 14.86543 -0.02759
C 3.69473 13.52172 0.0402
C 2.46186 12.79749 0.00572
C 2.43832 11.39224 0.03592
C 3.63195 10.71386 0.00406
C 2.46234 8.55435 0.02841
C 9.81649 15.59312 0.00979
C 6.14611 14.90269 0.01363
C 4.86703 12.81227 0.00415
C 8.6239 13.44932 -0.01957
C 7.41985 12.79951 -0.0108
C 7.37872 11.3525 -0.00368
C 8.67589 10.60975 -0.02696
C 8.61331 9.21792 -0.00114
C 7.32778 8.51846 0.00228
C 7.34851 7.16965 0.00798
C 8.58055 6.41575 0.00422
C 8.6393 4.93597 0.0351
C 7.35218 4.25619 -0.03113
C 7.41769 2.82145 0.02098
C 8.58873 2.08283 0.01848
C 8.65859 0.6943 -0.00619
C 7.31268 34.05206 -0.02162
C 11.03265 17.82115 0.00889
C 8.58145 14.91487 0.02058
C 6.13524 13.48074 -0.02162
C 7.41405 15.6549 0.01965
C 8.59252 17.68088 0.00052
C 4.95736 11.37949 -0.0014
C 6.18084 10.69198 0.02162
C 6.14319 9.24162 0.0076
C 4.9026 8.51385 0.01241
C 4.89357 7.04025 -0.01454
C 6.1292 6.38437 0.01945
C 6.16785 4.99771 0.01416
C 4.91819 4.23644 0.03542
C 4.95825 2.85901 0.02299
C 6.17131 2.16856 0.00244
C 6.12163 0.71534 -0.01717
C 4.97556 34.06583 0.05265
C 7.37634 32.62424 -0.01952
C 7.40337 19.8933 -0.02813
C 8.55583 19.0813 0.00374
C 7.38016 17.03737 -0.03682
C 3.6714 31.97928 0.00093
C 22.09905 34.02437 -0.01586
C 25.80896 31.93609 -0.02118
C 33.20197 22.01814 0.01574
C 31.98328 21.32855 -0.02383
C 31.99837 19.84033 -0.01429
C 33.19265 19.19914 -0.0136
C 33.17875 17.77709 0.00594
C 32.00078 17.06317 -0.02474
C 31.9886 15.58655 0.00369
C 33.22262 14.88826 0.00455
C 33.25033 13.49971 -0.00644
C 31.95643 12.78483 -0.01839
C 31.93745 11.36934 0.00137
C 33.21679 10.63667 0.00199
C 33.19166 9.27341 0.04381
C 31.97676 8.53747 0.02806
C 31.98633 7.1525 0.01504
C 33.18783 23.47973 0.01927
C 33.18055 6.42608 -0.00069
C 31.99345 24.16157 0.03794
C 33.1376 26.27109 0.00682
C 29.51264 8.54451 -0.00971
C 29.53533 7.09063 0.01518
C 30.76691 6.39216 0.01908
C 30.73009 5.00871 0.07705
C 29.47413 4.28564 0.0103
C 29.53373 2.85882 0.02108
C 30.6969 2.11285 0.00716
C 30.71408 0.72377 0.00307
C 29.50943 34.03626 0.00346
C 31.96705 32.63911 0.01713
C 33.16914 31.98815 -0.01694
C 33.18725 30.54588 0.01428
C 32.02194 29.85281 -0.02142
C 32.00824 28.35895 0.0544
C 33.20598 27.7149 0.00026
C 31.92458 25.54546 -0.01779
C 30.75286 9.25135 -0.03735
C 33.18741 5.0014 0.04926
C 31.91382 2.85952 0.00349
C 34.3872 15.61152 0.02114
C 1.20318 14.86675 -0.02957
C 1.23941 13.53345 0.00343
C 34.39725 12.75563 -0.02656
C 34.42259 11.39771 -0.02442
C 1.2161 10.6537 -0.00027
C 1.2241 9.22629 -0.00583
C 34.41721 8.54453 -0.02302
C 0.02332 7.10218 -0.02849
C 1.23294 6.40598 0.02931
C 1.20534 4.94152 0.00628
C 34.42276 4.237 -0.0345
C 34.42553 2.82742 -0.00931
C 1.20789 2.18383 -0.00939
C 1.28361 0.71294 -0.00468
C 0.0076 16.98306 0.00648
C 32.01712 4.24395 -0.03838
C 1.21409 17.76098 0.01223
C 34.42454 19.90561 0.01951
C 33.20712 2.12115 -0.00323
C 33.18825 0.684 -0.00841
C 31.96786 34.06669 0.0001
C 34.41027 32.67981 -0.02927
C 1.26319 31.99012 -0.01404
C 1.2339 30.46678 0.01027
C 0.02215 29.79181 0.01831
C 0.02397 28.42569 -0.01037
C 1.21196 27.69052 -0.00439
C 1.2602 26.23946 -0.00598
C 34.38572 25.59596 -0.05239
C 0.0273 24.11692 0.03076
C 1.1935 23.41289 0.00723
C 1.18442 22.04249 0.02712
C 34.402 21.27982 -0.02213
C 1.21456 19.21238 -0.01678
C 24.5813 32.68379 -0.01971
C 30.76035 10.59255 -0.00944
C 29.52999 12.78067 -0.01461
C 25.84655 0.75399 -0.01154
C 24.637 34.07989 0.00684
C 27.04216 32.56907 -0.01052
C 28.31302 31.93993 -0.01679
C 28.30972 30.52029 0.00367
C 27.04403 29.82884 0.04306
C 27.05404 28.39084 0.00996
C 28.28374 27.70111 0.00195
C 28.28045 26.29071 -0.00802
C 27.07559 25.63862 -0.00218
C 27.03879 24.15401 -0.01654
C 28.30992 23.45548 -0.00037
C 28.27616 22.03932 -0.0032
C 27.05314 21.29881 0.00622
C 27.05201 19.84903 -0.02815
C 25.85163 2.18222 -0.0264
C 28.31432 19.15671 -0.00942
C 24.57054 2.80512 -0.00938
C 25.83823 14.90636 -0.01199
C 25.80733 30.54587 0.00733
C 24.61395 29.83721 -0.00178
C 24.5339 28.33851 0.00768
C 25.79006 27.69634 -0.0276
C 25.8103 26.28297 0.03005
C 24.62036 25.54232 -0.04078
C 24.53473 24.11943 0.02117
C 25.79698 23.45698 0.02737
C 25.84319 22.00731 -0.00498
C 24.57692 21.31644 0.00135
C 24.59062 19.82874 0.03102
C 25.81069 19.19574 0.02555
C 25.82836 17.78854 0.01423
C 24.59892 17.02327 -0.00285
C 24.59768 15.60045 -0.009
C 25.76259 13.49069 -0.00229
C 29.48537 11.37384 -0.02155
C 28.27602 17.75482 0.00487
C 27.07599 15.5972 -0.00294
C 29.52206 28.37796 0.00924
C 30.73731 27.7008 0.02326
C 30.7245 26.27983 0.00261
C 29.49806 25.58356 0.03265
C 29.49446 24.10868 -0.02049
C 30.72857 23.44056 -0.01854
C 30.74733 22.06291 -0.01415
C 29.55844 21.31726 -0.03039
C 29.53569 19.86754 0.01836
C 30.72258 19.13223 0.03531
C 30.73795 17.72398 -0.00669
C 29.48946 17.04777 0.0101
C 29.50574 15.66776 0.01705
C 30.77936 14.87752 -0.0405
C 30.747 13.47146 -0.01303
C 29.47335 29.80083 0.0014
C 27.04008 17.05582 0.00826
C 30.77214 30.52839 0.01324
C 29.44238 32.61134 0.01177
C 28.26016 14.89877 0.00152
C 28.30758 13.5011 0.01257
C 27.014 12.71612 0.02316
C 27.0491 11.36287 0.04185
C 28.3103 10.62522 0.00194
C 28.29224 9.23747 -0.00621
C 27.10181 8.5123 0.02611
C 27.04181 7.11981 0.02198
C 28.31409 6.33699 0.01094
C 28.26922 4.94824 0.00235
C 27.01746 4.24217 0.01495
C 27.06713 2.85758 0.01259
C 28.32842 2.10159 0.01799
C 28.26956 0.72567 0.01699
C 26.99999 34.06386 -0.00416
C 30.70885 31.91716 0.04266
C 2.44882 32.61991 0.01291
