294
Graphene
C 34.39665 0.00773 0.01295
C 11.0836 30.46163 0.00755
C 9.88595 29.7918 -0.0054
C 9.84208 28.41873 0.00667
C 11.02533 27.74707 0.00143
C 11.06785 13.58868 -0.017
C 9.85566 12.88248 0.00364
C 11.17595 31.88801 0.01739
C 9.76891 11.49289 -0.00831
C 11.02547 9.31471 -0.04422
C 9.80007 8.53394 0.00654
C 9.83647 7.05189 -0.00703
C 11.06004 6.36647 -0.04076
C 11.02147 4.97275 -0.00652
C 9.82702 4.25854 0.0058
C 10.98545 10.60835 -0.02957
C 9.84865 2.87043 -0.00865
C 9.90688 32.61773 0.03754
C 8.71191 0.76602 -0.00111
C 7.42932 15.73649 -0.02213
C 8.49118 14.84647 0.03698
C 8.635 13.42872 -0.00109
C 7.38398 12.82202 -0.00491
C 7.30302 11.37543 0.03338
C 8.56713 10.6802 -0.0258
C 7.42044 34.01879 -0.03557
C 8.53969 9.26988 -0.0331
C 7.37548 7.09276 0.02188
C 8.63581 6.4097 -0.01979
C 8.67102 4.97529 0.02691
C 7.39204 4.31019 -0.01581
C 7.339 2.88168 0.01452
C 8.59936 2.11858 0.04892
C 7.36526 8.56838 -0.00316
C 11.10471 2.04515 0.00675
C 11.07743 0.68254 -0.00311
C 9.84819 34.0167 0.00742
C 14.89991 32.63719 0.03374
C 16.06946 31.9247 -0.02845
C 16.02694 30.54432 -0.03213
C 14.83987 29.69161 0.02239
C 14.79841 28.40749 0.01153
C 15.93813 9.2187 0.02734
C 12.31742 34.03283 0.0296
C 14.71291 8.56009 -0.0055
C 16.13032 6.49609 -0.00225
C 15.99023 5.08325 0.00071
C 14.73175 4.36038 -0.01107
C 14.69771 2.92307 -0.01586
C 15.94519 2.16571 -0.01971
C 15.97534 0.7027 -0.02118
C 14.79618 7.12437 0.01515
C 13.53044 0.71747 0.03046
C 13.5071 2.16534 -0.00381
C 12.26919 2.87346 0.01852
C 12.33 32.60931 -0.01594
C 13.61153 31.92994 0.0106
C 13.60498 30.51631 -0.01154
C 12.37129 29.68784 -0.01721
C 12.38955 28.13154 -0.02422
C 13.63644 27.68981 0.01277
C 12.10645 12.61566 0.00096
C 12.41845 11.34185 -0.01527
C 13.47748 10.576 0.01087
C 13.49452 9.22298 0.00199
C 12.26142 8.4997 0.01511
C 12.27977 7.14661 -0.00478
C 13.52618 6.51239 -0.01662
C 13.49922 5.09992 -0.01185
C 12.29802 4.29179 0.01126
C 7.24521 16.9778 0.00028
C 7.4248 19.91045 -0.00289
C 7.28261 21.2535 -0.00066
C 7.25977 24.25512 0.00213
C 3.70933 10.63986 0.00165
C 3.64575 9.21581 -0.02971
C 2.4204 8.56176 0.02894
C 2.46051 7.16036 -0.01789
C 3.65361 6.31247 0.00444
C 3.638 4.89039 -0.00925
C 2.41788 11.3015 0.02819
C 2.38009 4.26011 0.01877
C 3.62511 2.14691 -0.02162
C 3.70138 0.69757 0.00415
C 2.4294 34.04597 -0.0014
C 4.93052 32.66166 0.02162
C 6.17913 32.00883 0.0076
C 6.08481 30.64774 0.01241
C 2.36529 2.86525 0.01363
C 2.40109 12.76022 -0.00891
C 3.6789 13.4175 -0.01046
C 3.65133 14.81319 -0.02689
C 3.71982 30.54377 0.03589
C 2.47481 29.79109 -0.02759
C 2.42406 28.39711 0.0402
C 3.71505 27.68048 0.00572
C 3.58428 26.38206 0.03592
C 2.41735 25.60626 0.00406
C 2.4775 24.15986 0.00943
C 3.69874 23.41646 0.02841
C 3.73823 22.04188 -0.01111
C 2.49106 21.28844 -0.01275
C 2.43291 19.85496 0.00985
C 3.69467 19.19085 -0.02245
C 3.65611 17.74022 -0.00428
C 2.43262 16.98579 0.03101
C 2.4467 15.62675 -0.01536
C 4.90825 29.87485 -0.01454
C 14.78287 34.07689 0.00733
C 4.86473 28.50793 0.01945
C 6.13496 26.34474 0.03542
C 6.13351 4.94936 0.0351
C 4.90048 4.266 -0.03113
C 4.87961 2.84855 0.02098
C 6.16252 2.11454 0.01848
C 6.15949 0.74776 -0.00619
C 4.88074 34.05629 -0.02162
C 6.16333 6.38326 0.00422
C 7.42261 32.65319 0.00889
C 8.57625 30.50576 0.00979
C 7.37323 29.8977 0.01443
C 7.35698 28.37878 0.03505
C 8.58416 27.74457 -0.02815
C 8.59439 26.38808 -0.04147
C 7.45475 25.60457 -0.05302
C 8.62517 31.8932 -0.00481
C 4.89386 7.01573 0.00798
C 4.81545 8.44292 0.00228
C 6.16071 9.2673 -0.00114
C 4.88138 25.63256 0.02299
C 4.8994 24.23305 0.00244
C 6.15226 23.5421 -0.01717
C 6.2182 22.04525 0.05265
C 5.02845 21.36309 -0.01952
C 4.96724 19.82824 -0.02813
C 6.26557 19.14507 0.00374
C 6.16778 17.7486 0.00052
C 4.8669 16.99594 -0.03682
C 4.92544 15.60658 0.01965
C 6.1764 14.91633 0.02058
C 6.13942 13.49953 -0.01957
C 4.91791 12.8124 -0.0108
C 4.89455 11.39529 -0.00368
C 6.07372 10.62813 -0.02696
C 6.12059 27.81393 0.01416
C 17.31142 32.6083 -0.00178
C 18.54693 31.97406 0.00768
C 18.4269 30.53166 -0.0276
C 31.86897 19.88808 -0.01429
C 33.12067 19.13248 -0.0136
C 33.12753 17.68724 0.00594
C 31.8734 17.03554 -0.02474
C 31.95469 15.57872 0.00369
C 33.20391 14.87241 0.00455
C 31.89571 21.25111 -0.02383
C 33.12726 13.53308 -0.00644
C 31.90841 11.36519 0.00137
C 33.17018 10.67318 0.00199
C 33.15797 9.24732 0.04381
C 31.9733 8.57463 0.02806
C 31.94045 7.16197 0.01504
C 33.16778 6.38317 -0.00069
C 31.89482 12.79477 -0.01839
C 33.19278 21.98295 0.01574
C 33.19715 23.47747 0.01927
C 32.00528 24.15966 0.03794
C 30.5132 10.66981 0.01908
C 30.86384 9.37141 0.07705
C 30.73481 6.54124 0.0103
C 30.81584 5.20632 0.02108
C 30.7795 2.18514 0.00716
C 30.69144 0.85158 0.00307
C 29.43652 0.10682 0.00346
C 32.00014 32.77979 0.01713
C 33.23786 32.05174 -0.01694
C 33.21226 30.57111 0.01428
C 31.92399 29.9024 -0.02142
C 31.83728 28.46427 0.0544
C 33.16508 27.76336 0.00026
C 33.14155 26.29066 0.00682
C 31.91588 25.62599 -0.01779
C 33.1031 5.02089 0.04926
C 29.47831 11.44695 0.01518
C 31.84456 4.35867 -0.03838
C 33.15983 2.17566 -0.00323
C 1.20235 14.91342 -0.02957
C 1.1861 13.43167 0.00343
C 34.42263 12.75802 -0.02656
C 34.41049 11.37587 -0.02442
C 1.22671 10.60847 -0.00027
C 1.22768 9.24409 -0.00583
C 0.03157 15.63069 0.02114
C 34.40294 8.55725 -0.02302
C 1.22849 6.39405 0.02931
C 1.22047 5.0356 0.00628
C 34.3873 4.27483 -0.0345
C 0.00794 2.92299 -0.00931
C 1.19259 2.13697 -0.00939
C 1.20212 0.68756 -0.00468
C 34.407 7.10715 -0.02849
C 34.35597 17.0467 0.00648
C 1.21127 17.78159 0.01223
C 1.19256 19.16766 -0.01678
C 33.1611 0.8017 -0.00841
C 31.95123 0.05708 0.0001
C 0.03958 32.67577 -0.02927
C 1.24513 31.89483 -0.01404
C 1.22497 30.49433 0.01027
C 34.43051 29.83314 0.01831
C 34.39811 28.43361 -0.01037
C 1.18027 27.73498 -0.00439
C 1.16251 26.33195 -0.00598
C 34.36433 25.62316 -0.05239
C 0.03126 24.15727 0.03076
C 1.20734 23.42042 0.00723
C 1.2289 22.07442 0.02712
C 34.3851 21.32167 -0.02213
C 34.35531 19.83439 0.01951
C 31.93698 2.90951 0.00349
C 3.66434 31.94079 -0.00033
C 29.42028 12.87549 -0.00971
C 30.84666 14.77444 -0.00944
C 19.71799 2.72818 0.00367
C 20.91004 0.66626 0.04306
C 19.69468 0.02059 0.00996
C 22.14924 32.70648 0.00195
C 23.27594 31.90471 -0.00802
C 23.26026 30.53759 -0.00218
C 21.02717 26.40586 -0.01679
C 22.07842 29.75269 -0.01654
C 23.3238 27.61847 -0.0032
C 23.35122 26.22884 0.00622
C 22.13781 25.63062 -0.02815
C 22.06134 0.15293 -0.00942
C 24.53577 32.6524 0.00487
C 25.73961 31.9514 0.00826
C 22.1448 28.36025 -0.00037
C 20.87626 27.70397 -0.01052
C 19.59534 28.33206 0.00684
C 19.66904 29.80953 -0.01154
C 17.18004 29.83997 0.03005
C 17.23959 28.54883 -0.04078
C 18.38733 27.9208 0.02117
C 17.1978 8.47573 0.02737
C 17.47739 7.18404 -0.00498
C 18.48178 6.29931 0.00135
C 18.32822 4.94683 0.03102
C 17.17443 4.22212 0.02555
C 17.13315 2.84054 0.01423
C 18.37365 2.0795 -0.00285
C 18.40987 0.67992 -0.009
C 17.20804 34.00987 -0.01199
C 19.79038 32.68599 -0.00229
C 20.91696 31.93073 -0.00938
C 20.91257 30.54145 -0.0264
C 25.78896 30.4859 -0.00294
C 30.59989 13.52351 -0.03735
C 24.54281 29.77363 0.00152
C 25.81496 27.6555 0.02316
C 30.75642 32.06846 0.03265
C 30.68897 30.65628 -0.02049
C 29.50968 29.84197 -0.01854
C 29.46291 28.38396 -0.01415
C 30.70583 27.69879 -0.03039
C 30.72288 26.25139 0.01836
C 29.47464 32.76119 0.00261
C 29.44009 25.55788 0.03531
C 30.79442 23.49931 0.0101
C 30.75727 22.0593 0.01705
C 29.40357 21.36839 -0.0405
C 29.58614 20.00482 -0.01303
C 30.48736 19.03782 -0.01461
C 30.66391 17.67117 -0.02155
C 29.5472 24.08693 -0.00669
C 27.1126 33.99776 0.02326
C 28.20428 0.66146 0.00924
C 28.1981 22.02593 0.0014
C 25.78763 26.20111 0.04185
C 24.55422 25.47795 0.00194
C 24.75471 24.23561 -0.00621
C 25.84483 23.42356 0.02611
C 24.48961 34.04567 0.02198
C 26.98517 32.69088 0.01094
C 28.2332 31.96902 0.00235
C 28.19809 30.51014 0.01495
C 27.01303 29.7941 0.01259
C 27.05833 28.3284 0.01799
C 28.23969 27.62349 0.01699
C 28.2649 26.24652 -0.00416
C 27.03007 25.42886 0.01177
C 27.01631 24.03843 0.04266
C 28.29225 23.35352 0.01324
C 24.56435 28.33534 0.01257
C 2.46082 32.59324 -0.01062
