312
Graphene
C 34.35949 34.02912 0.01295
C 14.75037 32.57958 -0.0331
C 15.97837 31.82821 -0.00316
C 15.97771 30.39811 0.02188
C 14.7692 29.61705 -0.01979
C 14.72115 28.17197 0.02691
C 15.96891 27.64403 -0.01581
C 15.98308 1.95409 0.01452
C 16.03252 0.54231 0.04892
C 14.75895 33.98057 -0.00111
C 17.23757 32.51489 -0.03557
C 18.41882 31.82856 0.03754
C 18.54266 30.39671 0.01739
C 17.26414 29.73659 0.00755
C 17.21405 28.18875 -0.0054
C 18.55628 27.61842 0.00667
C 12.35572 34.02972 -0.0258
C 13.58457 0.70267 0.03338
C 13.39381 27.60836 -0.00491
C 12.2351 28.50453 -0.00109
C 11.08928 32.00559 -0.00619
C 10.95913 30.49536 -0.02162
C 9.7579 29.84631 0.00889
C 9.83601 28.39622 -0.00481
C 11.07337 27.74096 0.00979
C 11.2782 26.35138 0.01443
C 9.97845 25.6244 0.03505
C 17.18985 2.70533 0.00143
C 9.85702 24.25222 -0.02815
C 11.02035 2.09762 -0.05302
C 11.0611 0.6678 0.00213
C 9.80476 34.07492 -0.00066
C 12.40468 32.50623 -0.00289
C 13.64756 31.90834 0.00028
C 13.59139 30.44373 -0.02213
C 12.30697 29.91064 0.03698
C 9.81818 2.70703 -0.04147
C 9.82298 32.69596 0.01848
C 18.41027 2.12263 -0.017
C 17.30847 33.94602 -0.00831
C 22.13547 29.78297 0.00199
C 22.20585 28.35089 0.01511
C 23.52012 27.72945 -0.00478
C 23.24919 26.33426 -0.01662
C 21.8574 26.04196 -0.01185
C 22.21957 11.42659 0.01126
C 23.34099 10.69048 0.01852
C 23.19553 9.32192 -0.00381
C 21.92323 8.69808 0.03046
C 22.00132 7.24082 0.0296
C 23.16931 6.53103 0.03374
C 23.21057 5.11736 -0.02845
C 22.06054 4.30289 -0.03213
C 22.07707 2.80192 0.02239
C 23.29946 2.15591 0.01153
C 23.33856 30.57498 0.01087
C 23.30815 31.87354 -0.01527
C 22.13353 32.67072 0.00096
C 19.7057 34.06263 0.01277
C 19.68934 32.6249 -0.02957
C 20.89017 31.96171 -0.04422
C 20.96683 30.54181 0.00654
C 19.81951 29.77579 -0.00703
C 19.79604 28.1749 -0.04076
C 21.12754 27.36867 -0.00652
C 20.87122 10.9307 0.0058
C 18.5506 0.62901 0.00364
C 20.7157 9.47353 -0.00865
C 19.61595 7.2173 -0.00311
C 20.77791 6.46929 0.00742
C 20.7324 4.98196 -0.01594
C 19.56028 4.25898 0.0106
C 19.68847 2.86737 -0.01154
C 20.86527 2.1376 -0.01721
C 20.87359 0.73624 -0.02422
C 19.58548 8.63515 0.00675
C 23.36739 0.75573 0.02734
C 7.35849 0.07418 0.02098
C 8.53811 2.16559 0.0351
C 3.59196 9.28318 0.0402
C 2.34626 8.60535 0.00572
C 2.4224 7.13085 0.03592
C 3.58751 6.408 0.00406
C 3.66099 4.96893 0.00943
C 2.3537 4.22967 0.02841
C 2.44243 2.88504 -0.01111
C 3.66399 2.10064 -0.01275
C 3.69937 0.69712 0.00985
C 2.47174 33.99051 -0.02245
C 4.8983 32.59933 -0.00428
C 6.18957 31.98436 0.03101
C 6.14433 30.51623 -0.01536
C 4.86138 29.76499 -0.02689
C 4.87483 28.33613 -0.01046
C 3.59124 10.73305 -0.02759
C 2.45496 11.46746 0.03589
C 2.46288 12.95793 -0.00033
C 3.77342 13.65583 -0.01062
C 3.61935 30.51667 -0.00131
C 2.42631 29.78648 -0.01118
C 2.35079 28.39392 -0.014
C 3.65399 27.66733 0.02147
C 3.67554 26.28869 0.00373
C 2.43051 25.57963 -0.00191
C 2.44202 24.13445 0.00438
C 6.16329 27.62106 -0.00891
C 3.71741 23.41715 0.01291
C 2.49046 21.35805 0.00057
C 2.50362 19.90118 -0.01634
C 3.79374 19.07678 -0.00334
C 3.64446 17.66964 0.02339
C 2.38939 17.10484 0.01641
C 2.37143 15.7013 -0.00719
C 3.70352 15.12679 0.01364
C 3.71779 22.04299 0.00093
C 8.55985 0.71238 -0.03113
C 6.17125 26.26465 0.02819
C 4.92265 24.11164 -0.02971
C 8.57387 30.5229 -0.01952
C 7.39637 29.73076 -0.02813
C 7.43783 28.35484 0.00374
C 8.67124 27.6287 0.00052
C 8.64429 26.24629 -0.03682
C 7.41066 25.55562 0.01965
C 7.39733 24.18425 0.02058
C 8.62569 23.56817 -0.01957
C 7.46433 12.48276 -0.0108
C 7.51048 10.97631 -0.00368
C 8.32237 9.76459 -0.02696
C 7.40483 8.74655 -0.00114
C 7.26404 7.49594 0.00228
C 7.31481 4.29029 0.00798
C 7.2613 2.8713 0.00422
C 8.63624 32.02524 0.05265
C 7.38537 32.73202 -0.01717
C 4.92244 34.01496 0.00244
C 6.07377 0.67149 0.02299
C 6.16546 23.44792 0.02894
C 6.21843 22.10206 -0.01789
C 5.08714 21.24394 0.00444
C 4.90778 19.89029 -0.00925
C 6.35013 13.3337 0.01877
C 4.97339 12.93579 0.01363
C 4.90751 11.44997 -0.02162
C 4.92479 25.56545 0.00165
C 6.10812 10.65395 0.00415
C 4.7716 8.61473 0.02162
C 4.78985 7.18261 0.0076
C 6.0709 6.59231 0.01241
C 6.18639 5.12672 -0.01454
C 4.97613 4.30602 0.01945
C 4.95283 2.83713 0.01416
C 6.06223 2.04871 0.03542
C 5.94503 9.30642 -0.0014
C 22.08084 34.06489 -0.0055
C 24.51489 32.64808 0.01515
C 25.76263 31.99922 -0.00225
C 33.15358 23.4438 0.01927
C 33.11909 22.00268 0.01574
C 31.87353 21.34134 -0.02383
C 31.89264 19.91445 -0.01429
C 33.16628 19.22719 -0.0136
C 33.1224 17.82636 0.00594
C 31.91601 17.11453 -0.02474
C 31.93926 15.75443 0.00369
C 33.20953 14.97998 0.00455
C 33.13213 13.57079 -0.00644
C 31.95271 12.8288 -0.01839
C 31.94358 11.4136 0.00137
C 33.20529 10.68699 0.00199
C 33.16204 9.25376 0.04381
C 31.95164 8.56071 0.02806
C 31.87781 24.05677 0.03794
C 31.89354 25.54641 -0.01779
C 33.11467 26.30148 0.00682
C 33.1198 27.65783 0.00026
C 30.73678 10.68943 -0.00944
C 30.66186 9.21825 -0.03735
C 29.40926 8.62172 -0.00971
C 29.47784 7.15171 0.01518
C 30.73847 6.36729 0.01908
C 30.63356 4.99103 0.07705
C 29.47145 4.22672 0.0103
C 31.90673 7.11985 0.01504
C 29.4012 2.78706 0.02108
C 30.71107 0.711 0.00307
C 29.49138 0.02415 0.00346
C 31.95915 32.66045 0.01713
C 33.11886 31.94652 -0.01694
C 33.0878 30.51231 0.01428
C 31.87196 29.81307 -0.02142
C 31.90675 28.43412 0.0544
C 30.75799 2.11715 0.00716
C 29.49142 11.35476 -0.02155
C 33.11462 6.47611 -0.00069
C 31.86883 4.3227 -0.03838
C 34.42766 15.72763 0.02114
C 1.15886 14.97771 -0.02957
C 1.20137 13.54802 0.00343
C 34.36886 12.89423 -0.02656
C 0.00992 11.38577 -0.02442
C 1.21984 10.70317 -0.00027
C 1.16752 9.31782 -0.00583
C 34.38784 8.58647 -0.02302
C 34.34589 7.16973 -0.02849
C 1.15117 6.49003 0.02931
C 1.14893 5.01438 0.00628
C 34.31984 4.27056 -0.0345
C 34.41274 2.80339 -0.00931
C 1.18571 2.11219 -0.00939
C 1.14316 0.67552 -0.00468
C 34.34401 17.14014 0.00648
C 1.13121 17.89998 0.01223
C 1.20482 19.2677 -0.01678
C 34.36747 19.90456 0.01951
C 31.92749 2.86716 0.00349
C 33.14758 2.13701 -0.00323
C 33.15081 0.69872 -0.00841
C 31.93657 34.01059 0.0001
C 34.3942 32.64304 -0.02927
C 1.2289 31.88098 -0.01404
C 1.17654 30.55381 0.01027
C 33.14201 5.06491 0.04926
C 34.41231 29.79397 0.01831
C 1.11459 27.68417 -0.00439
C 1.18912 26.2911 -0.00598
C 34.40809 25.60574 -0.05239
C 34.38501 24.22869 0.03076
C 1.15838 23.43548 0.00723
C 1.23382 21.97346 0.02712
C 34.3908 21.31432 -0.02213
C 34.33138 28.40712 -0.01037
C 29.47725 12.80007 -0.01461
C 30.69513 13.56748 -0.01303
C 30.67208 15.01922 -0.0405
C 25.69514 5.05847 -0.01199
C 24.47771 4.36019 -0.00229
C 24.55546 2.92124 -0.00938
C 25.80826 2.09266 -0.0264
C 25.84872 0.67775 -0.01154
C 24.5507 34.01761 0.00684
C 27.01743 32.69352 -0.01052
C 28.16025 31.95136 -0.01679
C 28.18955 30.54241 0.00367
C 26.9324 29.8557 0.04306
C 27.01485 28.46758 0.00996
C 28.27282 27.70492 0.00195
C 28.22278 26.21994 -0.00802
C 27.01161 25.54925 -0.00218
C 27.04253 24.1404 -0.01654
C 25.67637 6.47789 -0.009
C 24.39003 7.16119 -0.00285
C 24.43079 8.56782 0.01423
C 25.73059 9.2611 0.02555
C 25.82749 30.6587 0.00071
C 24.62582 29.91489 -0.01107
C 24.57321 28.54087 -0.01586
C 25.83631 27.68478 -0.01971
C 25.80429 26.31298 -0.02118
C 24.49018 25.61714 0.00733
C 24.61251 24.29124 -0.00178
C 28.20834 23.44583 -0.00037
C 25.63981 23.37098 0.00768
C 25.77209 19.14664 0.03005
C 25.83664 17.70537 -0.04078
C 25.80973 14.87468 0.02117
C 25.68113 13.47278 0.02737
C 24.48186 12.70053 -0.00498
C 24.53724 11.32657 0.00135
C 25.78386 10.68182 0.03102
C 25.77513 21.97757 -0.0276
C 28.28953 22.01299 -0.0032
C 27.0335 21.3567 0.00622
C 26.92946 19.89941 -0.02815
C 30.69394 31.95745 0.04266
C 30.63583 30.53191 0.01324
C 29.44843 29.83405 0.0014
C 29.43829 28.4368 0.00924
C 30.68029 27.76383 0.02326
C 30.69714 26.23551 0.00261
C 29.44193 25.56895 0.03265
C 29.47032 32.69215 0.01177
C 29.46455 24.11218 -0.02049
C 30.71993 22.02316 -0.01415
C 29.45466 21.28579 -0.03039
C 29.44737 19.9073 0.01836
C 30.65963 19.20218 0.03531
C 30.62172 17.81206 -0.00669
C 29.41564 17.17557 0.0101
C 29.45815 15.74891 0.01705
C 30.67184 23.42919 -0.01854
C 3.68464 31.88722 -0.02896
C 27.017 34.02959 -0.00416
C 28.16513 2.1486 0.01799
C 28.18852 19.23401 -0.00942
C 28.21122 17.79879 0.00487
C 27.01637 17.05804 0.00826
C 27.07619 15.58675 -0.00294
C 28.28889 14.97121 0.00152
C 28.21348 13.5046 0.01257
C 26.92439 12.88502 0.02316
C 28.24588 0.7198 0.01699
C 27.03284 11.42048 0.04185
C 28.14823 9.28008 -0.00621
C 26.96191 8.54133 0.02611
C 26.95858 7.12208 0.02198
C 28.25057 6.40109 0.01094
C 28.20374 4.97588 0.00235
C 26.9595 4.28918 0.01495
C 27.01075 2.92092 0.01259
C 28.24348 10.6976 0.00194
C 2.44471 32.59675 -0.01004
