439
Graphene
C 0.0112 34.0099 0.01295
C 12.28897 17.08803 -0.00334
C 12.28541 15.62592 0.02339
C 13.46139 14.97757 0.01641
C 13.40596 13.60028 -0.00719
C 12.14708 12.80652 0.01364
C 12.18105 11.43443 -0.01062
C 13.47048 10.69362 -0.00033
C 13.51616 9.26646 0.03589
C 12.2786 8.57027 -0.02759
C 12.27764 7.14268 0.0402
C 13.43797 6.33961 0.00572
C 13.45389 4.9833 0.03592
C 12.28075 4.2748 0.00406
C 12.31844 2.77873 0.00943
C 13.5631 2.0519 0.02841
C 13.54575 0.678 -0.01111
C 12.31145 0.08064 -0.01275
C 14.7006 32.50669 0.00985
C 15.85126 31.76819 -0.02245
C 15.98575 30.26037 -0.00428
C 14.76952 24.14192 0.03101
C 15.94784 23.58597 -0.01536
C 15.9534 22.00081 -0.02689
C 13.54891 17.7863 -0.01634
C 13.51304 19.20777 0.00057
C 12.23989 19.94583 0.00093
C 12.24889 21.35376 0.01291
C 9.81573 15.74398 0.01572
C 11.05978 14.94205 -0.04848
C 11.00094 13.56032 -0.00892
C 9.71031 12.83788 -0.01362
C 9.78661 11.39261 -0.0008
C 11.00589 10.65045 0.0288
C 11.04512 9.25589 0.00393
C 9.78326 8.56744 0.00895
C 9.79994 7.19017 0.00685
C 11.01171 6.43483 0.02888
C 11.02358 5.05969 -0.00482
C 14.71284 21.39137 -0.01046
C 9.8831 4.29655 -0.01384
C 11.09267 2.1428 0.01745
C 11.1639 0.73482 0.00488
C 9.81527 0.06841 -0.01004
C 12.21776 32.66021 -0.02896
C 13.4033 31.77487 -0.00131
C 13.437 30.2409 -0.01118
C 12.32924 29.34055 -0.014
C 12.53794 25.70379 0.02147
C 12.36512 24.27261 0.00373
C 13.54917 23.53393 -0.00191
C 13.47605 22.06462 0.00438
C 9.85406 2.85539 0.03693
C 9.8115 17.12939 -0.00095
C 14.71085 19.97227 -0.00891
C 15.91017 17.76208 0.00165
C 17.14995 19.87998 -0.01957
C 18.34405 19.15972 -0.0108
C 18.41835 17.75626 -0.00368
C 17.172 17.02327 -0.02696
C 17.24207 15.63842 -0.00114
C 18.47006 14.95192 0.00228
C 18.36478 13.49865 0.00798
C 17.02635 12.86335 0.00422
C 17.11849 11.39044 0.0351
C 18.34804 10.64695 -0.03113
C 18.38677 9.30796 0.02098
C 17.16656 8.55509 0.01848
C 17.11001 7.09585 -0.00619
C 18.41031 6.39695 -0.02162
C 18.43278 4.98225 0.00889
C 17.1543 4.23177 -0.00481
C 17.17465 2.75061 0.00979
C 18.46154 2.06033 0.01443
C 18.38238 0.63392 0.03505
C 17.2118 33.97606 -0.02815
C 19.61843 32.62782 -0.04147
C 20.83146 31.96109 -0.05302
C 20.84756 30.56609 0.00213
C 17.19727 21.3342 0.02058
C 18.3558 22.11339 0.01965
C 18.32732 23.53385 -0.03682
C 17.14478 24.26963 0.00052
C 14.74045 17.0029 -0.02971
C 14.69058 15.59794 0.02894
C 16.01394 14.97771 -0.01789
C 15.88925 13.47992 0.00444
C 14.61305 12.90015 -0.00925
C 14.68332 11.41019 0.01877
C 15.92702 10.69201 0.01363
C 15.92862 9.26097 -0.02162
C 14.71198 8.53006 0.00415
C 14.67085 7.15277 -0.0014
C 15.81232 6.34845 0.02162
C 15.88838 19.16935 0.02819
C 15.92118 4.80098 0.0076
C 14.72195 2.80727 -0.01454
C 16.00596 2.08767 0.01945
C 16.02713 0.61339 0.01416
C 14.73825 33.95779 0.03542
C 17.13181 32.61708 0.02299
C 18.38341 31.91572 0.00244
C 18.37082 30.45623 -0.01717
C 17.20064 29.44083 0.05265
C 18.01888 28.11426 -0.01952
C 18.02375 26.49122 -0.02813
C 16.92971 25.79931 0.00374
C 14.67752 4.21421 0.01241
C 19.60157 29.87794 -0.00066
C 11.04318 17.76896 0.03007
C 9.80468 19.85079 -0.00494
C 3.714 0.71006 0.00088
C 2.52201 0.0345 0.00828
C 4.90716 32.74436 -0.02375
C 6.19247 31.95419 0.00558
C 6.06101 30.55863 -0.0059
C 4.84019 29.81312 -0.01386
C 4.85847 28.38738 -0.02805
C 6.12201 27.76007 0.00081
C 6.16149 26.28073 0.00245
C 4.98934 25.52605 0.02728
C 4.92439 24.10671 -0.00039
C 6.08128 23.42965 0.0064
C 6.12145 22.01676 0.00211
C 4.81625 21.38018 -0.00449
C 4.83777 19.90862 -0.01979
C 6.05865 19.29585 0.02784
C 5.98997 17.83223 -0.01977
C 4.88654 17.00791 -0.00561
C 4.87802 15.5341 0.00208
C 6.12996 14.88572 0.01707
C 6.16734 13.5644 0.02769
C 4.84037 12.76574 -0.03291
C 4.93901 11.46367 -0.04999
C 3.73335 2.16793 0.04421
C 2.49703 2.82064 -0.00177
C 2.57014 4.3035 0.03278
C 3.78276 5.01318 0.01138
C 3.69204 30.61822 -0.0005
C 2.46389 29.85231 -0.00018
C 2.44654 28.4103 0.01073
C 3.65432 27.66718 0.01984
C 3.70395 26.27731 0.00535
C 2.46638 25.52158 -0.00198
C 2.45764 24.14577 -0.00012
C 3.65374 23.41773 -0.04306
C 3.53316 22.01377 -0.03672
C 2.32753 21.25175 0.01913
C 2.34642 19.84372 0.00267
C 6.159 10.74809 0.04505
C 3.65697 19.17258 0.00787
C 2.38338 17.12477 0.01218
C 2.28725 15.67737 -0.01471
C 3.54765 14.91054 -0.02827
C 3.56493 13.51816 0.01078
C 2.32563 12.77554 -0.00112
C 2.34702 11.28223 0.03345
C 3.64434 10.68995 0.00748
C 3.73124 9.24724 0.00662
C 2.48797 8.59547 -0.0154
C 2.50652 7.09866 -0.01299
C 3.75793 6.4682 -0.00407
C 3.58647 17.70231 0.02426
C 11.07556 19.1617 0.00054
C 6.09201 9.31081 0.03284
C 4.96969 7.14502 0.03189
C 8.54901 10.66977 -0.05697
C 8.54094 9.26797 0.01087
C 7.32529 8.56346 -0.01343
C 7.37084 7.21527 0.00988
C 8.57964 6.51368 0.0276
C 8.65857 5.06005 0.01305
C 7.41938 4.31455 -0.00077
C 7.3478 2.91026 0.03368
C 8.58788 2.13818 -0.02929
C 8.62166 0.72131 -0.00966
C 7.3562 0.02844 -0.03337
C 9.86838 32.73596 0.01227
C 11.1121 32.01208 0.00873
C 11.0807 30.53175 -0.00049
C 9.81328 29.87498 0.00848
C 9.94665 28.51687 -0.01303
C 11.37792 28.05975 -0.01378
C 11.29966 26.5277 0.02635
C 9.94392 25.78005 0.0127
C 9.8976 24.35222 0.01396
C 11.0561 23.47854 0.01849
C 11.09524 22.03252 -0.01142
C 9.78086 21.36543 -0.00562
C 7.40993 11.44896 -0.00725
C 7.39129 12.91609 0.02322
C 8.63388 13.63127 -0.00094
C 8.56537 15.07275 -0.02566
C 6.20099 6.44777 0.00031
C 6.22947 5.02138 -0.003
C 4.97064 4.30398 0.01402
C 4.98119 2.91554 0.02379
C 6.19451 2.21161 0.00907
C 6.17824 0.81939 0.00643
C 4.93289 0.06893 -0.01509
C 7.39143 32.70124 0.03267
C 8.65293 32.0036 0.02374
C 8.6722 30.56258 0.00402
C 7.44126 29.85739 0.0073
C 4.97648 8.57791 -0.04307
C 7.39927 28.46583 0.0174
C 8.723 26.43973 0.01226
C 7.40459 25.68759 -0.00279
C 7.41209 24.16651 0.01996
C 8.59412 23.54571 -0.03996
C 8.58864 22.09383 0.01465
C 7.32873 21.33575 -0.00074
C 7.33327 19.92221 -0.00518
C 8.5296 19.22759 0.0086
C 8.43813 17.82344 -0.00643
C 7.2316 17.14887 0.017
C 7.3047 15.74416 -0.03113
C 8.69236 27.81493 0.03828
C 3.71169 31.99229 0.01116
C 19.47619 28.58417 -0.00289
C 20.71861 26.3796 -0.02213
C 30.61273 14.92402 -0.0405
C 30.62799 13.4354 -0.01303
C 29.47037 12.68837 -0.01461
C 29.56888 11.30932 -0.02155
C 30.75393 10.45291 -0.00944
C 30.76625 9.06733 -0.03735
C 29.51439 8.35743 -0.00971
C 29.50687 7.01072 0.01518
C 30.73726 6.28874 0.01908
C 30.6938 4.91186 0.07705
C 29.4562 4.24607 0.0103
C 29.56747 2.7777 0.02108
C 30.82039 2.04246 0.00716
C 30.79868 0.71982 0.00307
C 29.50135 34.07449 0.00346
C 31.97613 32.67934 0.01713
C 33.23663 31.92837 -0.01694
C 33.19936 30.49079 0.01428
C 31.91328 29.84338 -0.02142
C 31.96999 28.36107 0.0544
C 33.23538 27.65205 0.00026
C 33.16639 26.25461 0.00682
C 31.92382 25.58843 -0.01779
C 29.37819 15.56064 0.01705
C 29.47004 17.0288 0.0101
C 30.70099 17.73951 -0.00669
C 30.67686 19.10521 0.03531
C 28.2906 10.54589 0.00194
C 28.28504 9.04562 -0.00621
C 27.05121 8.50427 0.02611
C 27.00767 7.03877 0.02198
C 28.21856 6.40678 0.01094
C 28.1571 4.99468 0.00235
C 26.99788 4.24879 0.01495
C 27.06042 2.789 0.01259
C 28.27642 2.0706 0.01799
C 28.24733 0.71663 0.01699
C 27.01745 0.073 -0.00416
C 31.92289 24.07044 0.03794
C 29.47314 32.67456 0.01177
C 30.65883 30.55808 0.01324
C 29.47586 29.86294 0.0014
C 29.50035 28.50375 0.00924
C 30.75345 27.71747 0.02326
C 30.69001 26.27321 0.00261
C 29.4174 25.57473 0.03265
C 29.43889 24.09834 -0.02049
C 30.70098 23.38282 -0.01854
C 30.61848 21.98283 -0.01415
C 29.46538 21.24856 -0.03039
C 29.49539 19.85959 0.01836
C 30.78138 31.89659 0.04266
C 27.05511 11.18852 0.04185
C 33.15974 23.4367 0.01927
C 31.82836 21.29417 -0.02383
C 34.40766 24.20173 0.03076
C 1.18584 23.44385 0.00723
C 1.07403 21.97373 0.02712
C 34.32802 21.23939 -0.02213
C 34.33042 19.88323 0.01951
C 1.09565 19.13581 -0.01678
C 1.18033 17.74285 0.01223
C 34.39756 17.03924 0.00648
C 34.26526 15.65662 0.02114
C 1.13558 14.91262 -0.02957
C 1.1388 13.4809 0.00343
C 34.28815 12.70778 -0.02656
C 34.33467 11.34658 -0.02442
C 1.12819 10.61261 -0.00027
C 1.22095 9.20683 -0.00583
C 34.3881 8.48507 -0.02302
C 34.41517 7.02529 -0.02849
C 1.26005 6.37853 0.02931
C 1.28873 4.98994 0.00628
C 0.07994 4.26623 -0.0345
C 0.06711 2.87338 -0.00931
C 1.24092 2.132 -0.00939
C 1.26075 0.67358 -0.00468
C 34.42189 25.56365 -0.05239
C 1.30713 26.35392 -0.00598
C 1.28686 27.75686 -0.00439
C 0.0279 28.46185 -0.01037
C 31.9252 19.80668 -0.01429
C 33.1003 19.18077 -0.0136
C 33.10121 17.71866 0.00594
C 31.98367 16.98144 -0.02474
C 31.91134 15.56391 0.00369
C 33.08127 14.83982 0.00455
C 33.05372 13.39663 -0.00644
C 31.80471 12.74795 -0.01839
C 31.88237 11.22333 0.00137
C 33.14842 10.5485 0.00199
C 33.15481 9.12266 0.04381
C 33.02815 22.05065 0.01574
C 31.99415 8.31896 0.02806
C 33.21741 6.25987 -0.00069
C 33.19656 4.90101 0.04926
C 31.91621 4.17233 -0.03838
C 32.0546 2.83505 0.00349
C 33.27604 2.14857 -0.00323
C 33.28015 0.73573 -0.00841
C 32.04213 0.06296 0.0001
C 0.01258 32.60924 -0.02927
C 1.30683 32.02712 -0.01404
C 1.30476 30.5351 0.01027
C 34.37477 29.79741 0.01831
C 31.9173 6.95593 0.01504
C 20.68792 27.83331 0.00028
C 27.00766 12.61469 0.02316
C 28.26404 14.87379 0.00152
C 22.06687 29.86515 -0.04076
C 21.96194 28.46078 -0.00652
C 23.25673 27.69406 0.0058
C 23.23212 26.30734 -0.00865
C 21.94703 25.66864 0.00675
C 22.0625 24.19479 -0.00311
C 23.28656 23.4859 0.00742
C 23.25709 22.04113 -0.01594
C 22.05915 21.34771 0.0106
C 22.09237 19.93442 -0.01154
C 23.33789 19.0851 -0.01721
C 23.32364 17.69902 -0.02422
C 22.12196 17.04919 0.01277
C 22.14834 15.64872 0.00096
C 23.32743 14.90613 -0.01527
C 23.33969 13.47658 0.01087
C 22.02206 12.70525 0.00199
C 22.00709 11.24864 0.01511
C 23.29787 10.70449 -0.00478
C 23.2893 9.2508 -0.01662
C 22.14317 8.5503 -0.01185
C 22.1674 7.11385 0.01126
C 23.34731 6.40256 0.01852
C 23.2738 30.47415 -0.00703
C 23.28309 31.983 0.00654
C 22.08981 32.66252 -0.04422
C 19.56408 0.00223 -0.02957
C 19.45568 25.68313 0.03698
C 19.51253 24.26682 -0.00109
C 20.83307 23.52843 -0.00491
C 20.77573 22.14109 0.03338
C 19.58445 21.39142 -0.0258
C 19.58435 19.90546 -0.0331
C 20.80274 19.2757 -0.00316
C 20.84619 17.74223 0.02188
C 19.6701 17.09121 -0.01979
C 19.6258 15.6624 0.02691
C 20.84255 14.85271 -0.01581
C 23.35645 4.96458 -0.00381
C 20.82075 13.47 0.01452
C 19.60218 11.40324 -0.00111
C 20.78463 10.55247 -0.03557
C 20.83594 9.20537 0.03754
C 19.56035 8.57806 0.01739
C 19.5568 7.15529 0.00755
C 20.83811 6.42993 -0.0054
C 20.81194 5.07747 0.00667
C 19.68882 4.26605 0.00143
C 19.63523 2.76793 -0.017
C 20.83627 2.1093 0.00364
C 20.75576 0.70431 -0.00831
C 19.56052 12.79086 0.04892
C 28.26384 13.38433 0.01257
C 22.05575 4.30305 0.03046
C 23.2688 2.17125 0.03374
C 25.79607 4.95697 -0.01199
C 24.52735 4.19127 -0.00229
C 24.5443 2.8355 -0.00938
C 25.7152 2.12498 -0.0264
C 25.83173 0.80856 -0.01154
C 24.55757 34.07651 0.00684
C 26.94896 32.66917 -0.01052
C 28.28412 31.94984 -0.01679
C 28.19386 30.5526 0.00367
C 27.00354 29.82492 0.04306
C 26.99316 28.36023 0.00996
C 28.28001 27.74895 0.00195
C 28.22731 26.29043 -0.00802
C 26.96882 25.64627 -0.00218
C 26.95523 24.25524 -0.01654
C 28.20793 23.49134 -0.00037
C 28.18138 22.05935 -0.0032
C 26.9537 21.43385 0.00622
C 27.06655 19.91145 -0.02815
C 28.25777 19.20384 -0.00942
C 28.26011 17.725 0.00487
C 27.00089 17.05587 0.00826
C 27.06916 15.6749 -0.00294
C 25.78928 6.34985 -0.009
C 24.57958 7.02274 -0.00285
C 24.50099 8.4619 0.01423
C 25.76045 9.25098 0.02555
C 23.31626 0.73461 -0.02845
C 22.02019 34.0531 -0.03213
C 24.5414 32.69278 0.02239
C 25.81187 31.90827 0.01153
C 25.71178 30.50982 0.02734
C 24.48605 29.81528 -0.0055
C 24.4718 28.39257 0.01515
C 25.74829 27.72396 -0.00225
C 25.67197 26.37345 0.00071
C 24.42225 25.54988 -0.01107
C 24.49387 24.14904 -0.01586
C 22.06621 2.82817 0.0296
C 25.73976 23.49307 -0.01971
C 24.51021 21.34844 0.00733
C 24.59323 19.90895 -0.00178
C 25.83544 19.27452 0.00768
C 25.79289 17.7928 -0.0276
C 24.55628 16.96764 0.03005
C 24.49488 15.52776 -0.04078
C 25.78058 14.87392 0.02117
C 25.8678 13.40873 0.02737
C 24.64528 12.84474 -0.00498
C 24.47915 11.40835 0.00135
C 25.76301 10.60971 0.03102
C 25.76235 22.01125 -0.02118
C 2.48486 32.66664 -0.0213
