304
Graphene
C 34.26272 0.21947 0.01295
C 14.77789 2.91177 -0.01581
C 15.97632 2.14153 0.01452
C 15.91894 0.64636 0.04892
C 14.67695 34.05555 -0.00111
C 17.1141 32.58869 -0.03557
C 18.44375 31.87458 0.03754
C 18.41412 30.41932 0.01739
C 17.09466 29.72491 0.00755
C 17.16449 28.35806 -0.0054
C 18.21479 27.52488 0.00667
C 18.35297 26.07826 0.00143
C 17.04715 12.84059 -0.017
C 17.20496 11.55371 0.00364
C 18.48127 10.75504 -0.00831
C 18.45563 9.29296 -0.02957
C 14.70408 4.34352 0.02691
C 17.33648 8.45315 -0.04422
C 15.95326 5.03896 -0.01979
C 14.72101 7.0272 -0.00316
C 12.20073 4.18808 0.03505
C 12.25758 2.85296 -0.02815
C 13.48962 2.12136 -0.04147
C 13.50771 0.8069 -0.05302
C 12.38476 34.04516 0.00213
C 14.43922 32.72434 -0.00066
C 15.75159 31.85966 -0.00289
C 15.94846 30.53121 0.00028
C 15.33796 14.82565 -0.02213
C 15.89072 13.73415 0.03698
C 14.79216 12.67017 -0.00109
C 14.80723 11.28942 -0.00491
C 15.98713 10.64139 0.03338
C 16.10998 9.13826 -0.0258
C 14.8107 8.52537 -0.0331
C 15.98837 6.43606 0.02188
C 13.44651 4.9877 0.01443
C 17.27625 7.1097 0.00654
C 18.49494 4.96566 -0.04076
C 20.8999 4.92535 -0.01185
C 19.67298 4.31136 0.01126
C 19.63896 2.79118 0.01852
C 20.8322 2.04251 -0.00381
C 20.97593 0.54844 0.03046
C 19.72667 34.0715 0.0296
C 22.32637 32.57633 0.03374
C 23.6842 31.90781 -0.02845
C 23.8167 30.52071 -0.03213
C 22.24974 29.76523 0.02239
C 22.13479 28.30397 0.01153
C 23.37028 27.58136 0.02734
C 23.32795 26.17483 -0.0055
C 22.12562 25.49145 0.01515
C 22.17739 11.31172 -0.00225
C 20.80113 6.46967 -0.01662
C 18.45725 6.33729 -0.00703
C 19.62038 7.18147 -0.00478
C 20.95997 9.46651 0.00199
C 17.2402 4.24642 -0.00652
C 17.26814 2.86169 0.0058
C 18.45255 2.09191 -0.00865
C 18.42562 0.75622 0.00675
C 17.19677 34.0199 -0.00311
C 19.67294 32.58543 0.00742
C 20.99489 31.81359 -0.01594
C 20.94128 30.42921 0.0106
C 19.60483 29.68178 -0.01154
C 19.5785 28.24266 -0.01721
C 20.84105 27.53705 -0.02422
C 20.89263 26.00456 0.01277
C 19.60719 25.59042 0.00096
C 19.68175 11.48301 -0.01527
C 20.91666 10.90001 0.01087
C 19.74104 8.61365 0.01511
C 23.48536 10.88733 0.00071
C 13.4492 6.43466 0.00979
C 12.29588 8.54375 0.00889
C 6.13213 13.66871 -0.01275
C 4.89656 12.84074 0.00985
C 4.92896 11.4267 -0.02245
C 6.16753 10.75405 -0.00428
C 6.1381 9.28399 0.03101
C 4.85236 8.52977 -0.01536
C 4.78553 7.14524 -0.02689
C 6.07618 6.42268 -0.01046
C 6.0231 5.02253 -0.00891
C 4.78899 4.35539 0.02819
C 4.76481 2.89148 0.00165
C 5.98111 2.21588 -0.02971
C 5.98115 0.62205 0.02894
C 4.6688 0.13062 -0.01789
C 7.3644 15.82519 0.00444
C 6.15401 15.06888 -0.01111
C 8.5493 15.14765 -0.00925
C 4.81086 15.56986 0.02841
C 3.49415 0.82563 0.00406
C 2.7258 17.00152 0.00093
C 2.36182 15.63561 0.00057
C 3.58645 14.86923 -0.01634
C 3.66057 13.48273 -0.00334
C 2.43381 12.80345 0.02339
C 2.39096 11.44836 0.01641
C 3.68404 10.74294 -0.00719
C 3.66977 9.29351 0.01364
C 2.44728 8.56862 -0.01062
C 2.37982 7.18104 -0.00033
C 3.56798 6.38293 0.03589
C 3.49761 5.05357 -0.02759
C 2.35792 4.3067 0.0402
C 2.34146 2.91431 0.00572
C 3.47287 2.22525 0.03592
C 2.32428 0.09098 0.00943
C 12.20625 7.09258 -0.00481
C 8.61655 13.60903 0.01877
C 7.33899 11.44388 -0.02162
C 9.79433 7.15726 0.02058
C 11.01324 6.42578 -0.01957
C 10.99687 4.94118 -0.0108
C 9.84357 4.16611 -0.00368
C 9.784 2.68956 -0.02696
C 11.02961 2.06261 -0.00114
C 11.09711 0.49387 0.00228
C 9.82066 0.0386 0.00798
C 12.57229 15.60494 0.00422
C 13.86736 14.87965 0.0351
C 13.60752 13.49394 -0.03113
C 12.34611 12.80664 0.02098
C 12.36054 11.37576 0.01848
C 13.48943 10.5671 -0.00619
C 13.54168 9.19873 -0.02162
C 9.86112 8.63823 0.01965
C 7.40314 12.92029 0.01363
C 11.08399 9.27348 -0.03682
C 9.86781 11.41012 0.00374
C 8.66876 10.77978 0.00415
C 8.68537 9.34925 -0.0014
C 7.39183 8.57806 0.02162
C 7.32301 7.12858 0.0076
C 8.52654 6.34904 0.01241
C 8.53662 4.96514 -0.01454
C 7.3206 4.28668 0.01945
C 7.24268 2.83562 0.01416
C 8.48208 2.05711 0.03542
C 8.52293 0.55068 0.02299
C 7.14199 0.01766 0.00244
C 9.86227 15.65492 -0.01717
C 11.16728 15.14712 0.05265
C 11.11813 13.41006 -0.01952
C 9.88543 12.79842 -0.02813
C 11.04219 10.63893 0.00052
C 23.43201 9.3681 -0.01107
C 22.18191 8.70931 -0.01586
C 22.04245 7.18019 -0.01971
C 33.04716 26.27946 0.01574
C 31.8139 25.63708 -0.02383
C 31.85175 24.16552 -0.01429
C 33.06796 23.53224 -0.0136
C 33.14386 22.06764 0.00594
C 31.95429 21.43454 -0.02474
C 31.87473 19.97182 0.00369
C 33.14806 19.23129 0.00455
C 33.28403 17.84061 -0.00644
C 31.92853 17.01796 -0.01839
C 31.83138 15.63023 0.00137
C 33.1064 14.94037 0.00199
C 33.16494 13.47173 0.04381
C 31.88396 12.80653 0.02806
C 31.92477 11.3497 0.01504
C 33.02174 27.78898 0.01927
C 33.10664 10.74501 -0.00069
C 31.75529 28.53107 0.03794
C 33.07997 30.60121 0.00682
C 29.39295 12.84482 -0.00971
C 29.44575 11.36243 0.01518
C 30.65754 10.65704 0.01908
C 30.63992 9.30323 0.07705
C 29.43993 8.56948 0.0103
C 29.42143 7.09324 0.02108
C 30.63426 6.45432 0.00716
C 30.69141 5.02591 0.00307
C 29.44196 4.38574 0.00346
C 29.48025 2.95306 0.01713
C 30.64254 2.20123 -0.01694
C 30.51415 0.72085 0.01428
C 29.24126 0.05802 -0.02142
C 31.73273 32.71648 0.0544
C 33.03092 32.09754 0.00026
C 31.75728 29.9182 -0.01779
C 30.69462 13.51056 -0.03735
C 33.09332 9.31426 0.04926
C 31.86408 7.14846 0.00349
C 34.29464 15.69787 0.02114
C 1.11261 14.90296 -0.02957
C 1.18346 13.5003 0.00343
C 34.3401 12.84576 -0.02656
C 34.39148 11.45408 -0.02442
C 1.1607 10.69246 -0.00027
C 1.16273 9.28347 -0.00583
C 34.34002 8.56759 -0.02302
C 34.38041 7.13752 -0.02849
C 1.16458 6.53362 0.02931
C 1.18548 5.05984 0.00628
C 34.38646 4.38239 -0.0345
C 34.29611 2.91066 -0.00931
C 1.0715 2.21427 -0.00939
C 1.10593 0.81681 -0.00468
C 0.14789 17.08926 0.00648
C 31.90957 8.548 -0.03838
C 1.5201 17.88438 0.01223
C 0.0984 19.98619 0.01951
C 33.1492 6.51656 -0.00323
C 33.14043 5.07558 -0.00841
C 31.9182 4.29637 0.0001
C 31.89373 2.92637 -0.02927
C 33.09394 2.21047 -0.01404
C 32.96692 0.78907 0.01027
C 31.81595 0.0582 0.01831
C 34.27996 32.88669 -0.01037
C 1.15447 32.05705 -0.00439
C 1.11577 30.6919 -0.00598
C 34.42128 29.90834 -0.05239
C 34.16253 28.56544 0.03076
C 34.20667 25.63093 0.00723
C 34.2095 24.25415 0.02712
C 34.31974 21.34576 -0.02213
C 1.24312 19.17883 -0.01678
C 30.66685 14.97494 -0.00944
C 29.42865 15.61707 -0.02155
C 29.35926 17.08573 -0.01461
C 24.59855 8.63866 -0.0264
C 24.54113 7.24859 -0.01154
C 25.75088 6.49989 0.00684
C 25.81195 5.09645 -0.01052
C 24.47905 4.33509 -0.01679
C 24.5293 2.91845 0.00367
C 25.7853 2.26697 0.04306
C 25.766 0.91098 0.00996
C 24.62045 0.03515 0.00195
C 26.52803 32.77812 -0.00802
C 27.70378 31.93993 -0.00218
C 27.64635 30.53146 -0.01654
C 26.4767 29.74288 -0.00037
C 26.85636 28.41216 -0.0032
C 28.06775 27.80152 0.00622
C 25.79426 9.31049 -0.00938
C 28.16236 26.35256 -0.02815
C 25.87429 10.69574 -0.00229
C 25.66108 13.17275 -0.009
C 23.25971 6.46383 -0.02118
C 23.27923 5.09114 0.00733
C 22.11105 4.19812 -0.00178
C 22.1753 2.77023 0.00768
C 23.39632 2.04865 -0.0276
C 23.44584 0.6483 0.03005
C 22.17649 33.96794 -0.04078
C 24.96287 32.78179 0.02117
C 24.97523 29.67903 0.02737
C 24.56079 28.33489 -0.00498
C 25.7843 27.50713 0.00135
C 25.79948 26.17276 0.03102
C 24.52319 25.41871 0.02555
C 24.71713 23.94961 0.01423
C 25.79009 23.40382 -0.00285
C 24.78116 11.67207 -0.01199
C 26.97819 25.46322 -0.00942
C 26.96535 24.09874 0.00487
C 28.26713 23.48628 0.00826
C 29.09392 32.66573 0.00924
C 30.45411 32.01343 0.02326
C 30.46064 30.59896 0.00261
C 29.13686 29.95751 0.03265
C 29.23213 28.57046 -0.02049
C 30.44672 27.83123 -0.01854
C 30.58854 26.40928 -0.01415
C 29.39798 25.658 -0.03039
C 29.40759 24.23543 0.01836
C 30.57073 23.46026 0.03531
C 30.65394 22.04864 -0.00669
C 29.4512 21.28679 0.0101
C 29.36674 19.9277 0.01705
C 30.65118 19.15148 -0.0405
C 30.66046 17.79049 -0.01303
C 26.78663 0.05035 0.0014
C 28.10147 0.81471 0.01324
C 28.219 2.21804 0.04266
C 27.05542 2.93706 0.01177
C 28.1083 22.08568 -0.00294
C 26.84046 21.40445 0.00152
C 28.22188 19.12177 0.01257
C 28.20307 17.95703 0.02316
C 26.75044 15.39205 0.04185
C 28.11577 14.92405 0.00194
C 28.17844 13.49171 -0.00621
C 4.26371 17.01299 0.01291
C 27.03141 12.7426 0.02611
C 28.26582 10.61626 0.01094
C 28.18812 9.20789 0.00235
C 27.0205 8.53366 0.01495
C 27.02503 7.10463 0.01259
C 28.19466 6.50859 0.01799
C 28.2737 5.1201 0.01699
C 27.06708 4.39177 -0.00416
C 27.14067 11.36797 0.02198
C 2.45178 32.77119 0.00438
