365
Graphene
C 34.43285 0.01973 0.01295
C 9.86024 8.62324 0.00052
C 9.84578 7.12853 -0.03682
C 10.93493 6.34071 0.01965
C 11.04995 4.93507 0.02058
C 9.73144 4.2685 -0.01957
C 9.72229 2.84484 -0.0108
C 11.04236 2.21908 -0.00368
C 11.10462 0.77801 -0.02696
C 11.0886 9.30279 0.00374
C 9.83323 0.11098 -0.00114
C 13.45552 31.98252 0.00798
C 13.44552 30.62297 0.00422
C 12.24296 29.80491 0.0351
C 12.2501 28.39735 -0.03113
C 13.45865 27.69498 0.02098
C 13.44315 26.39298 0.01848
C 12.26393 25.68148 -0.00619
C 12.29163 24.2186 -0.02162
C 12.19405 32.75438 0.00228
C 10.93463 10.67377 -0.02813
C 9.88946 11.44342 -0.01952
C 9.75147 12.95708 0.05265
C 8.62839 0.7192 0.02894
C 7.4168 0.00344 -0.01789
C 9.77511 32.7206 0.00444
C 11.01327 31.96844 -0.00925
C 11.06876 30.56142 0.01877
C 9.83313 29.88305 0.01363
C 9.84209 28.42331 -0.02162
C 11.06873 27.69873 0.00415
C 11.07744 26.2575 -0.0014
C 9.84665 25.54874 0.02162
C 9.82694 24.13202 0.0076
C 11.06122 23.42367 0.01241
C 11.10989 22.03122 -0.01454
C 9.83572 21.33638 0.01945
C 9.87124 19.83238 0.01416
C 11.2329 19.0781 0.03542
C 11.16387 17.72479 0.02299
C 9.97533 16.85911 0.00244
C 9.86256 15.42532 -0.01717
C 13.47052 23.48118 0.00889
C 13.54545 22.03296 -0.00481
C 12.36898 21.21641 0.00979
C 12.42444 19.80345 0.01443
C 15.85526 5.02411 -0.03557
C 14.68682 4.25999 0.03754
C 14.78947 2.89589 0.01739
C 15.9733 2.20726 0.00755
C 15.98561 0.70023 -0.0054
C 14.69815 0.00856 0.00667
C 17.22798 32.646 0.00143
C 18.4605 31.87949 -0.017
C 18.44303 30.47193 0.00364
C 17.17607 29.76988 -0.00831
C 17.18167 28.26333 -0.02957
C 18.42254 27.57687 -0.04422
C 18.39548 26.226 0.00654
C 17.20218 25.41707 -0.00703
C 17.13158 24.06669 -0.04076
C 18.30886 23.1938 -0.00652
C 17.89612 21.89764 0.0058
C 17.15997 7.09452 -0.00865
C 18.41581 6.55615 0.00675
C 15.90231 6.5145 -0.00111
C 8.56485 2.15369 -0.02971
C 14.63996 7.19491 0.04892
C 16.13166 21.89437 -0.01581
C 12.38471 8.42738 0.03505
C 12.27415 7.06285 -0.02815
C 13.48411 6.43211 -0.04147
C 13.4185 5.03443 -0.05302
C 12.31722 4.27382 0.00213
C 12.25176 2.85559 -0.00066
C 13.50187 2.18989 -0.00289
C 13.50741 0.73 0.00028
C 12.30947 0.06103 -0.02213
C 14.8115 32.72803 0.03698
C 15.98285 31.89409 -0.00109
C 15.94439 30.44169 -0.00491
C 14.70754 29.83259 0.03338
C 14.70212 28.42977 -0.0258
C 15.91717 27.60915 -0.0331
C 16.00136 26.18059 -0.00316
C 14.69033 25.54746 0.02188
C 14.69827 24.04516 -0.01979
C 15.95295 23.28911 0.02691
C 14.76673 21.48038 0.01452
C 7.31414 2.85628 0.00165
C 7.28923 4.26564 0.02819
C 8.49799 5.0275 -0.00891
C 3.61659 6.46949 0.00848
C 3.58918 5.01027 -0.01303
C 2.34704 4.30626 -0.01378
C 2.40952 2.856 0.02635
C 3.62629 2.26638 0.0127
C 3.6519 0.77561 0.01396
C 2.38702 0.05224 0.01849
C 4.89382 32.66213 -0.01142
C 6.07477 32.0051 -0.00562
C 6.10335 30.49115 -0.00494
C 4.87441 29.86617 0.00054
C 4.90876 28.48839 0.03007
C 6.12612 27.79706 -0.00095
C 6.04528 26.29477 0.01572
C 4.80694 25.59778 -0.04848
C 4.84505 24.11498 -0.00892
C 6.09634 23.46277 -0.01362
C 6.21179 22.03076 -0.0008
C 4.99605 21.30138 0.0288
C 2.39272 7.1523 -0.00049
C 4.93419 19.94018 0.00393
C 2.38713 8.6355 0.00873
C 3.66929 10.72201 -0.03337
C 3.59411 30.53783 -0.00518
C 2.37214 29.83013 0.0086
C 2.36248 28.39812 -0.00643
C 3.5764 27.78001 0.017
C 3.63923 26.35567 -0.03113
C 2.42359 25.63847 -0.02566
C 2.38651 24.12349 -0.00094
C 3.56947 23.38909 0.02322
C 3.61605 22.03511 -0.00725
C 2.31599 21.45373 -0.05697
C 2.32815 20.04343 0.01087
C 3.64525 19.33619 -0.01343
C 3.63821 17.91698 0.00988
C 2.46545 17.26391 0.0276
C 2.4537 15.74569 0.01305
C 3.66142 14.98007 -0.00077
C 3.67041 13.58385 0.03368
C 2.35355 12.79364 -0.02929
C 2.37378 11.46755 -0.00966
C 3.57195 9.29698 0.01227
C 18.47387 4.92887 -0.00311
C 6.22228 19.20145 0.00895
C 4.9351 17.10465 0.02888
C 7.37291 25.58549 -0.01062
C 7.38614 24.11514 -0.00033
C 8.5838 23.36263 0.03589
C 8.55861 21.94168 -0.02759
C 7.39007 21.2195 0.0402
C 7.51277 19.76579 0.00572
C 8.81354 19.04479 0.03592
C 8.73196 17.63564 0.00406
C 7.3794 17.06372 0.00943
C 7.30147 15.70989 0.02841
C 8.53908 14.99 -0.01111
C 8.48957 13.58728 -0.01275
C 7.32705 12.79325 0.00985
C 7.33118 11.47168 -0.02245
C 8.49478 10.66956 -0.00428
C 8.62068 9.22278 0.03101
C 7.34535 8.53224 -0.01536
C 7.3134 7.19625 -0.02689
C 8.5973 6.45453 -0.01046
C 8.5489 26.2494 0.01364
C 6.1928 17.83532 0.00685
C 8.60364 27.70635 -0.00719
C 7.31719 29.83768 0.02339
C 4.86809 15.70458 -0.00482
C 6.09547 14.91068 -0.01384
C 6.119 13.49851 0.03693
C 4.81235 12.79665 0.01745
C 4.90077 11.35108 0.00488
C 6.06858 10.69508 -0.01004
C 6.07536 9.2738 -0.02896
C 4.85225 8.55854 -0.00131
C 4.85952 7.12916 -0.01118
C 6.0652 6.44901 -0.014
C 6.07141 4.98231 0.02147
C 4.78642 4.27972 0.00373
C 4.84938 2.92404 -0.00191
C 6.09796 2.14989 0.00438
C 6.13977 0.73281 0.01291
C 4.91936 0.0191 0.00093
C 7.32974 32.68545 0.00057
C 8.61381 31.99911 -0.01634
C 8.60724 30.53253 -0.00334
C 7.33132 28.47556 0.01641
C 3.61596 31.96452 -0.00074
C 17.23626 4.29992 0.00742
C 18.41857 2.12653 0.0106
C 29.3871 2.87831 0.00346
C 30.6764 2.2883 0.01713
C 30.68375 0.79348 -0.01694
C 29.51138 0.06092 0.01428
C 31.90363 32.66767 -0.02142
C 33.14003 31.99212 0.0544
C 33.18251 30.5951 0.00026
C 31.90215 29.87055 0.00682
C 29.4399 4.3186 0.00307
C 31.94824 28.41403 -0.01779
C 33.1843 26.23731 0.01927
C 31.90549 25.52603 0.01574
C 31.59412 24.07249 -0.02383
C 32.91663 23.32625 -0.01429
C 33.02009 19.12904 -0.0136
C 33.14929 17.75454 0.00594
C 32.02865 17.00593 -0.02474
C 32.04278 15.63757 0.00369
C 33.13392 27.65108 0.03794
C 30.62905 5.07694 0.00716
C 30.68405 6.4147 0.02108
C 29.39696 7.15886 0.0103
C 29.49164 32.68134 -0.02049
C 30.70525 32.03361 -0.01854
C 30.67413 30.574 -0.01415
C 29.47239 29.88562 -0.03039
C 29.4918 28.45477 0.01836
C 30.77034 27.76894 0.03531
C 30.7395 26.33266 -0.00669
C 29.6015 25.45613 0.0101
C 30.06274 24.0492 0.01705
C 30.99178 17.96582 -0.0405
C 29.6934 17.19607 -0.01303
C 29.67156 15.7678 -0.01461
C 30.76456 14.9518 -0.02155
C 30.69566 13.53738 -0.00944
C 29.33388 13.00869 -0.03735
C 29.3096 11.53885 -0.00971
C 30.60836 10.8057 0.01518
C 30.53533 9.33644 0.01908
C 29.35431 8.5862 0.07705
C 33.28706 14.90437 0.00455
C 33.21541 13.46365 -0.00644
C 31.90597 12.87144 -0.01839
C 31.84163 11.37547 0.00137
C 34.04041 20.08303 0.01951
C 1.10854 19.26922 -0.01678
C 1.18098 17.92022 0.01223
C 34.39823 17.09214 0.00648
C 0.00589 15.69475 0.02114
C 1.29162 15.02813 -0.02957
C 1.13993 13.60961 0.00343
C 34.39689 12.76202 -0.02656
C 34.32308 11.33981 -0.02442
C 1.11283 10.64493 -0.00027
C 1.16549 9.2967 -0.00583
C 34.36699 8.57571 -0.02302
C 34.40815 7.18008 -0.02849
C 1.1979 6.4681 0.02931
C 1.21245 5.05552 0.00628
C 34.39896 4.23539 -0.0345
C 34.26787 2.89346 -0.00931
C 1.14198 2.25997 -0.00939
C 1.18895 0.76794 -0.00468
C 34.14937 21.52476 -0.02213
C 26.97846 34.06845 0.03265
C 1.06241 22.16709 0.02712
C 34.21112 24.12746 0.03076
C 33.08693 10.67746 0.00199
C 33.02734 9.30335 0.04381
C 31.81502 8.6506 0.02806
C 31.87917 7.16762 0.01504
C 33.13972 6.46884 -0.00069
C 33.14619 5.00452 0.04926
C 31.85598 4.40399 -0.03838
C 31.94208 2.93958 0.00349
C 33.10644 2.07339 -0.00323
C 33.17396 0.70249 -0.00841
C 31.88365 0.06674 0.0001
C 34.35683 32.7039 -0.02927
C 1.17389 32.03129 -0.01404
C 1.20605 30.5612 0.01027
C 34.37849 29.85453 0.01831
C 34.353 28.36541 -0.01037
C 1.14395 27.60563 -0.00439
C 1.12313 26.25216 -0.00598
C 34.34153 25.46223 -0.05239
C 1.10218 23.48506 0.00723
C 28.23056 0.75924 0.00261
C 28.18741 2.13102 0.02326
C 26.92749 2.8044 0.00924
C 23.34645 30.42426 -0.0055
C 22.12496 29.74818 0.01515
C 22.09036 28.27642 -0.00225
C 23.33493 27.64068 0.00071
C 23.40506 26.1958 -0.01107
C 22.11129 25.50072 -0.01586
C 22.07906 24.05496 -0.01971
C 23.47612 23.4101 -0.02118
C 23.3808 21.9707 0.00733
C 22.08352 21.44994 -0.00178
C 22.04311 7.02854 0.00768
C 23.26374 6.51793 -0.0276
C 23.26971 4.94972 0.03005
C 22.1349 4.1645 -0.04078
C 22.12507 2.66169 0.02117
C 23.35126 2.0723 0.02737
C 23.37797 0.66237 -0.00498
C 22.09043 34.04567 0.00135
C 24.59434 32.65351 0.03102
C 23.37913 31.9034 0.02734
C 25.73682 31.91804 0.02555
C 22.1747 32.57234 0.01153
C 20.77287 0.60944 -0.03213
C 18.32024 0.73148 -0.01154
C 17.12996 34.03052 -0.01721
C 19.65405 32.58982 -0.02422
C 20.90444 31.88219 0.01277
C 20.81026 30.44381 0.00096
C 19.64017 29.67722 -0.01527
C 19.62445 28.27966 0.01087
C 20.84498 27.59103 0.00199
C 20.89527 26.16646 0.01511
C 19.6138 25.47536 -0.00478
C 19.56324 24.02682 -0.01662
C 20.77687 23.31324 -0.01185
C 20.99824 21.99 0.01126
C 19.72291 7.14336 0.01852
C 20.87171 6.26479 -0.00381
C 20.85366 4.81873 0.03046
C 19.65293 4.19775 0.0296
C 19.64575 2.78202 0.03374
C 20.86679 1.99489 -0.02845
C 19.53945 0.00537 0.02239
C 17.15267 2.92144 -0.01594
C 25.74902 30.53929 0.01423
C 24.47935 28.3694 -0.009
C 28.34521 26.1674 0.00152
C 27.15628 25.48295 0.01257
C 27.23902 24.06284 0.02316
C 28.58454 23.29398 0.04185
C 28.46328 21.87775 0.00194
C 27.14662 21.28916 -0.00621
C 27.16037 19.85009 0.02611
C 28.10284 18.81227 0.02198
C 28.28848 17.4922 0.01094
C 27.43892 16.28261 0.00235
C 28.27489 15.2539 0.01495
C 28.28624 13.90135 0.01259
C 28.12846 10.73452 0.01799
C 28.02169 9.33503 0.01699
C 26.77213 8.52186 -0.00416
C 26.99938 7.0747 0.01177
C 28.25079 6.44944 0.04266
C 28.21556 4.96746 0.01324
C 27.01482 4.13606 0.0014
C 28.27293 27.69432 -0.00294
C 24.50173 29.67248 -0.00285
C 26.97532 28.40071 0.00826
C 28.20967 30.59668 -0.00942
C 25.8093 27.65091 -0.01199
C 25.8856 26.11552 -0.00229
C 24.69279 25.50951 -0.00938
C 24.59529 24.0495 -0.0264
C 26.04699 23.37666 -0.01154
C 25.90938 22.00588 0.00684
C 24.61844 21.36941 -0.01052
C 24.76778 19.93889 -0.01679
C 25.83435 19.21171 0.00367
C 24.55525 7.13273 0.04306
C 25.70966 6.35628 0.00996
C 25.72064 4.92775 0.00195
C 24.56013 4.21189 -0.00802
C 24.54424 2.78236 -0.00218
C 25.74735 2.07213 -0.01654
C 25.74791 0.67393 -0.00037
C 24.54214 34.0227 -0.0032
C 26.94515 32.64456 0.00622
C 28.22554 32.00174 -0.02815
C 27.02403 29.84681 0.00487
C 2.3353 32.75563 0.01465
