359
Graphene
C 34.34785 0.05397 0.01295
C 12.25076 32.63335 -0.01957
C 13.42657 31.97114 -0.0108
C 13.46667 30.48251 -0.00368
C 12.22345 29.75037 -0.02696
C 12.19991 28.37735 -0.00114
C 13.43067 27.70081 0.00228
C 13.41008 26.25099 0.00798
C 12.18264 25.58154 0.00422
C 9.8536 34.04853 0.02058
C 12.26964 24.14152 0.0351
C 13.4819 22.0688 0.02098
C 12.24322 21.30666 0.01848
C 12.22529 19.94745 -0.00619
C 13.48143 19.16865 -0.02162
C 13.55293 17.76157 0.00889
C 12.25847 17.13388 -0.00481
C 12.24996 15.67018 0.00979
C 13.52715 14.98383 0.01443
C 13.52241 23.40641 -0.03113
C 11.11637 0.68687 0.01965
C 11.08437 2.11755 -0.03682
C 9.85897 2.82483 0.00052
C 11.07503 23.40135 0.01877
C 11.06132 21.98792 0.01363
C 9.80622 21.37821 -0.02162
C 9.81984 19.96474 0.00415
C 11.0736 19.19693 -0.0014
C 11.05966 17.8072 0.02162
C 9.83397 17.08836 0.0076
C 9.80622 15.70808 0.01241
C 11.04973 14.90898 -0.01454
C 11.02504 13.48634 0.01945
C 9.81831 12.77709 0.01416
C 9.80254 11.4283 0.03542
C 11.04712 10.6725 0.02299
C 11.10137 9.27537 0.00244
C 9.86381 8.56743 -0.01717
C 9.9098 7.10517 0.05265
C 11.12597 6.43282 -0.01952
C 11.1447 5.05175 -0.02813
C 9.92557 4.27167 0.00374
C 13.4634 13.44542 0.03505
C 9.7948 24.0227 -0.00925
C 12.30058 12.76135 -0.02815
C 13.48982 10.59121 -0.05302
C 15.95464 17.73727 -0.0054
C 14.76094 16.97836 0.00667
C 14.79532 15.60535 0.00143
C 15.92988 14.88545 -0.017
C 15.9174 13.49891 0.00364
C 14.75251 12.70002 -0.00831
C 14.80267 11.23102 -0.02957
C 16.07198 10.6351 -0.04422
C 15.97907 19.17307 0.00755
C 16.09858 9.22541 0.00654
C 14.76596 7.15257 -0.04076
C 15.97032 6.41902 -0.00652
C 16.01747 4.99636 0.0058
C 14.7215 4.29981 -0.00865
C 14.79852 2.8308 0.00675
C 15.99517 2.1514 -0.00311
C 15.98385 0.70902 0.00742
C 14.74247 0.02201 -0.01594
C 14.82814 8.48234 -0.00703
C 14.74749 19.86434 0.01739
C 14.73382 21.30881 0.03754
C 16.01407 21.9954 -0.03557
C 12.26577 8.56141 0.00213
C 12.40243 7.10911 -0.00066
C 13.5505 6.35351 -0.00289
C 13.54376 4.95808 0.00028
C 12.32489 4.19353 -0.02213
C 12.29258 2.77027 0.03698
C 13.52315 2.08982 -0.00109
C 13.4814 0.69835 -0.00491
C 12.26218 34.06084 0.03338
C 14.72154 32.68356 -0.0258
C 15.96155 31.94511 -0.0331
C 15.94201 30.50851 -0.00316
C 14.74006 29.78373 0.02188
C 14.68712 28.35094 -0.01979
C 15.93905 27.67801 0.02691
C 15.85158 26.26366 -0.01581
C 14.67896 25.54148 0.01452
C 14.71115 24.13882 0.04892
C 15.95849 23.41087 -0.00111
C 12.2735 11.3731 -0.04147
C 17.22262 32.62497 0.0106
C 9.59644 25.45176 0.00444
C 10.98751 27.60853 0.02894
C 2.4755 4.34863 0.01849
C 2.40375 2.92578 -0.01142
C 3.68337 2.23993 -0.00562
C 3.66052 0.7978 -0.00494
C 2.40579 0.08293 0.00054
C 4.83734 32.65927 0.03007
C 6.02257 31.97099 -0.00095
C 6.07918 30.57127 0.01572
C 3.70633 4.99451 0.01396
C 4.86046 29.84324 -0.04848
C 6.14702 27.65056 -0.01362
C 4.74174 19.99863 -0.0008
C 6.07571 19.42063 0.0288
C 6.10127 17.88305 0.00393
C 4.87604 17.14219 0.00895
C 4.97901 15.67671 0.00685
C 6.21376 14.98676 0.02888
C 6.17229 13.53549 -0.00482
C 4.91055 28.40011 -0.00892
C 3.68744 6.4593 0.0127
C 2.48301 7.18346 0.02635
C 2.50012 8.64906 -0.01378
C 3.6427 30.56733 -0.00094
C 2.39453 29.83148 0.02322
C 2.38886 28.39356 -0.00725
C 3.59739 27.74562 -0.05697
C 3.68774 26.24992 0.01087
C 2.73154 25.33136 -0.01343
C 2.42408 24.02569 0.00988
C 2.42749 21.28803 0.0276
C 2.34556 19.87734 0.01305
C 3.60799 19.18733 -0.00077
C 3.66719 17.76206 0.03368
C 2.46942 17.0143 -0.02929
C 2.51248 15.58662 -0.00966
C 3.69615 14.93305 -0.03337
C 3.71125 13.52319 0.01227
C 2.4486 12.79011 0.00873
C 2.49256 11.36127 -0.00049
C 3.74169 10.67734 0.00848
C 3.79368 9.31635 -0.01303
C 4.89174 12.83005 -0.01384
C 10.97813 26.21051 -0.01789
C 4.96174 11.41776 0.03693
C 6.16307 9.27158 0.00488
C 7.43603 12.82911 0.00572
C 7.39672 11.37863 0.03592
C 8.6431 10.66451 0.00406
C 8.6455 9.27939 0.00943
C 7.45307 8.58142 0.02841
C 7.43118 7.09091 -0.01111
C 8.63616 6.38079 -0.01275
C 8.65016 4.99221 0.00985
C 8.6672 13.57946 0.0402
C 7.4166 4.27584 -0.02245
C 8.65437 2.14028 0.03101
C 8.63379 0.73587 -0.01536
C 7.31073 34.0748 -0.02689
C 9.79401 32.70056 -0.01046
C 11.02099 32.00725 -0.00891
C 11.02173 30.52526 0.02819
C 9.81647 29.78901 0.00165
C 9.80216 28.3976 -0.02971
C 7.38479 2.89466 -0.00428
C 8.6164 14.99116 -0.02759
C 7.35178 15.73701 0.03589
C 7.34158 17.1748 -0.00033
C 4.91845 8.58307 -0.01004
C 4.93831 7.19921 -0.02896
C 6.20027 6.47025 -0.00131
C 6.19237 5.03678 -0.01118
C 4.93868 4.32184 -0.014
C 4.95917 2.97508 0.02147
C 6.19625 2.16405 0.00373
C 6.10552 0.79584 -0.00191
C 4.85715 0.04207 0.00438
C 7.29752 32.71791 0.01291
C 8.50653 31.91512 0.00093
C 8.53354 30.41343 0.00057
C 7.31862 29.80124 -0.01634
C 7.36422 28.4283 -0.00334
C 8.57736 27.74758 0.02339
C 8.57077 26.35448 0.01641
C 7.44382 19.90104 -0.00719
C 8.60239 19.23344 0.01364
C 8.6319 17.85695 -0.01062
C 6.16861 10.65697 0.01745
C 3.62472 31.99037 -0.02566
C 18.40357 31.93474 -0.01154
C 17.23226 29.70524 -0.02422
C 30.71288 5.02718 0.01713
C 29.50797 4.34455 -0.01694
C 29.50458 2.88472 0.01428
C 30.73484 2.14821 -0.02142
C 30.6945 0.67903 0.0544
C 29.5231 34.0207 0.00026
C 31.88245 32.63756 0.00682
C 33.15334 31.90085 -0.01779
C 30.7261 6.4723 0.00346
C 33.13239 30.51324 0.03794
C 33.03824 27.81341 0.01574
C 33.00563 21.75725 -0.02383
C 32.04125 20.17206 -0.01429
C 33.13454 19.19355 -0.0136
C 33.24369 17.79812 0.00594
C 32.0269 17.06217 -0.02474
C 31.99887 15.61006 0.00369
C 33.23332 14.92602 0.00455
C 31.9804 29.73764 0.01927
C 29.47276 7.12768 0.00307
C 29.45924 8.56692 0.00716
C 30.72658 9.25869 0.02108
C 27.01118 7.10629 -0.01854
C 28.19036 6.42065 -0.01415
C 28.34579 4.99043 -0.03039
C 26.99784 4.32337 0.01836
C 27.0523 2.89995 0.03531
C 28.27104 2.18116 -0.00669
C 28.31436 0.68124 0.0101
C 27.10341 34.04087 0.01705
C 29.46569 32.61581 -0.0405
C 30.6671 31.95275 -0.01303
C 30.75822 30.54297 -0.01461
C 30.8461 17.79108 -0.02155
C 29.86344 16.99692 -0.00944
C 29.45717 15.67203 -0.03735
C 30.72877 14.89138 -0.00971
C 30.64302 13.46977 0.01518
C 29.37731 12.80285 0.01908
C 29.49113 11.44642 0.07705
C 30.76765 10.63627 0.0103
C 33.17617 13.51208 -0.00644
C 27.04764 8.52735 -0.02049
C 31.93821 12.79269 -0.01839
C 33.17553 10.64061 0.00199
C 1.16657 19.18846 -0.01678
C 1.2129 17.73209 0.01223
C 0.03825 16.99066 0.00648
C 34.41615 15.62231 0.02114
C 1.20835 14.92885 -0.02957
C 1.19732 13.4981 0.00343
C 34.37756 12.81377 -0.02656
C 34.42305 11.40123 -0.02442
C 34.34936 19.85961 0.01951
C 1.17136 10.65642 -0.00027
C 34.37916 8.53312 -0.02302
C 34.40428 7.16012 -0.02849
C 1.18367 6.44773 0.02931
C 1.21189 5.02361 0.00628
C 0.03531 4.30043 -0.0345
C 34.39568 2.90484 -0.00931
C 1.19298 2.18009 -0.00939
C 1.15404 0.73461 -0.00468
C 1.19626 9.27197 -0.00583
C 34.33848 21.27821 -0.02213
C 1.16069 21.95276 0.02712
C 1.17762 23.44485 0.00723
C 33.17864 9.20967 0.04381
C 31.98123 8.55225 0.02806
C 31.95534 7.11636 0.01504
C 33.21501 6.47355 -0.00069
C 33.18253 5.00923 0.04926
C 31.96255 4.29423 -0.03838
C 31.92398 2.82968 0.00349
C 33.19036 2.17311 -0.00323
C 33.13604 0.70724 -0.00841
C 31.90785 0.04745 0.0001
C 34.3192 32.65204 -0.02927
C 1.15113 31.99854 -0.01404
C 1.16031 30.48754 0.01027
C 34.3869 29.77387 0.01831
C 34.33565 28.43455 -0.01037
C 1.12509 27.64635 -0.00439
C 1.05814 26.28888 -0.00598
C 34.39184 25.52334 -0.05239
C 34.42814 24.09517 0.03076
C 31.99319 11.35545 0.00137
C 18.48379 30.4614 -0.01721
C 28.24983 9.32327 0.03265
C 27.05397 11.40505 0.02326
C 17.20132 4.2476 0.00071
C 17.23839 2.77348 -0.01107
C 18.43924 2.11544 -0.01586
C 18.39266 0.7622 -0.01971
C 17.21177 0.00584 -0.02118
C 19.55762 32.71712 0.00733
C 20.81658 31.93378 -0.00178
C 20.89121 30.54349 0.00768
C 18.41905 4.97039 -0.00225
C 19.67403 29.79369 -0.0276
C 19.47913 21.13261 -0.04078
C 19.44258 19.98383 0.02117
C 19.5942 16.82957 0.02737
C 19.53235 15.60505 -0.00498
C 20.83243 13.36888 0.00135
C 19.5781 12.65068 0.03102
C 19.69783 11.2743 0.02555
C 20.97043 10.67966 0.01423
C 19.49766 28.43103 0.03005
C 18.42763 6.3307 0.01515
C 17.1496 7.10156 -0.0055
C 17.25299 8.50259 0.02734
C 17.22596 28.26021 0.01277
C 18.42804 27.47011 0.00096
C 18.31834 26.08803 -0.01527
C 17.04785 25.49971 0.01087
C 17.11561 24.13555 0.00199
C 18.37478 23.57147 0.01511
C 18.45242 22.16295 -0.00478
C 17.28228 21.37773 -0.01662
C 17.15481 19.93794 -0.01185
C 18.32972 19.06195 0.01126
C 18.39383 17.69645 0.01852
C 17.18184 17.01114 -0.00381
C 17.15745 15.60763 0.03046
C 18.35453 14.80541 0.0296
C 18.36273 13.3674 0.03374
C 17.19408 12.74075 -0.02845
C 17.30049 11.26646 -0.03213
C 18.52157 10.60609 0.02239
C 18.4993 9.18145 0.01153
C 20.94204 9.2971 -0.00285
C 28.27856 10.73176 0.00261
C 19.72183 8.50793 -0.009
C 20.90067 6.34428 -0.00229
C 24.8766 12.82958 0.02316
C 24.66598 11.40289 0.04185
C 25.86509 10.6899 0.00194
C 25.81977 9.27248 -0.00621
C 24.60084 8.47549 0.02611
C 24.52072 7.05895 0.02198
C 25.7303 6.37689 0.01094
C 25.74571 4.99038 0.00235
C 25.80787 32.14657 0.01257
C 24.54548 4.21703 0.01495
C 25.84665 2.15851 0.01799
C 25.87135 0.69382 0.01699
C 24.6261 34.03289 -0.00416
C 27.07266 32.49791 0.01177
C 28.33077 31.82986 0.04266
C 28.28978 14.89306 0.01324
C 28.06354 13.52975 0.0014
C 26.77286 12.77964 0.00924
C 24.63375 2.86375 0.01259
C 24.5609 32.58861 0.00152
C 22.12271 0.0653 -0.00294
C 23.40494 0.72224 0.00826
C 20.89324 4.95215 -0.00938
C 19.62968 4.23195 -0.0264
C 19.62118 2.78634 -0.01154
C 20.83175 2.17943 0.00684
C 20.87935 0.65592 -0.01052
C 19.65463 0.0417 -0.01679
C 22.01787 32.69393 0.00367
C 23.32248 32.00889 0.04306
C 22.00119 12.73328 0.00996
C 22.24897 11.29595 0.00195
C 23.45382 10.67215 -0.00802
C 23.42501 9.25068 -0.00218
C 22.11883 8.51324 -0.01654
C 22.13773 7.07418 -0.00037
C 23.35158 6.34046 -0.0032
C 23.37192 4.93118 0.00622
C 22.11804 4.29369 -0.02815
C 22.14009 2.83353 -0.00942
C 23.37521 2.15893 0.00487
C 19.67804 7.09718 -0.01199
C 2.42022 32.67095 -0.03113
