344
Graphene
C 34.40952 0.09962 0.01295
C 15.97679 31.91944 0.02098
C 15.83743 30.51725 0.01848
C 14.66087 29.79492 -0.00619
C 14.61479 28.41055 -0.02162
C 15.89054 27.75631 0.00889
C 15.93575 26.28051 -0.00481
C 14.66148 25.54255 0.00979
C 14.71388 24.16587 0.01443
C 15.91876 23.36612 0.03505
C 15.83345 21.94272 -0.02815
C 14.66542 21.35658 -0.04147
C 15.61395 4.662 -0.05302
C 14.39381 4.22452 0.00213
C 14.80785 2.8073 -0.00066
C 15.96588 2.13014 -0.00289
C 16.01907 0.61275 0.00028
C 14.82929 34.05172 -0.02213
C 14.75685 32.68835 -0.03113
C 12.32781 0.01997 0.0351
C 13.54389 0.68945 0.00422
C 13.61349 2.06256 0.00798
C 9.96836 2.9717 0.03542
C 11.22754 2.39228 0.02299
C 11.08841 0.85812 0.00244
C 9.89041 0.14683 -0.01717
C 12.2782 32.71251 0.05265
C 13.56201 31.98854 -0.01952
C 13.46536 30.54136 -0.02813
C 12.18453 29.8604 0.00374
C 17.17206 32.6636 0.03698
C 12.20795 28.45639 0.00052
C 13.47146 26.29636 0.01965
C 12.24762 25.51379 0.02058
C 12.1966 24.11278 -0.01957
C 13.42774 23.39921 -0.0108
C 13.43445 21.93065 -0.00368
C 12.20537 21.5382 -0.02696
C 13.10462 4.23858 -0.00114
C 12.4267 2.96814 0.00228
C 13.38568 27.71558 -0.03682
C 9.72332 4.35651 0.01416
C 18.37937 31.89985 -0.00109
C 17.12737 29.78437 0.03338
C 20.81793 27.69865 0.00654
C 20.87824 26.29653 -0.00703
C 19.73941 25.58476 -0.04076
C 19.60197 24.19649 -0.00652
C 20.88424 23.531 0.0058
C 20.82204 22.04168 -0.00865
C 19.61028 21.34276 0.00675
C 19.66468 19.80279 -0.00311
C 20.8633 19.10022 0.00742
C 20.78025 17.72817 -0.01594
C 19.83842 16.86918 0.0106
C 19.97968 6.83223 -0.01154
C 21.35836 6.41246 -0.01721
C 20.94257 4.93629 -0.02422
C 19.60104 4.27367 0.01277
C 19.674 2.80128 0.00096
C 20.93979 2.18343 -0.01527
C 19.59843 28.42435 -0.04422
C 19.63646 29.80344 -0.02957
C 20.85929 30.57163 -0.00831
C 20.92306 32.05909 0.00364
C 17.17804 28.38029 -0.0258
C 18.4456 27.66191 -0.0331
C 18.40826 26.31816 -0.00316
C 17.18027 25.54495 0.02188
C 17.20795 24.14396 -0.01979
C 18.34287 23.44433 0.02691
C 18.32885 21.99828 -0.01581
C 17.07601 21.25952 0.01452
C 18.41283 30.51384 -0.00491
C 17.35902 19.95053 0.04892
C 18.90467 6.48599 -0.03557
C 18.29228 5.15213 0.03754
C 16.92769 4.42293 0.01739
C 17.19641 2.92164 0.00755
C 18.4289 2.16419 -0.0054
C 18.42526 0.72643 0.00667
C 17.18454 34.0765 0.00143
C 19.64621 32.68518 -0.017
C 18.38567 19.31787 -0.00111
C 20.91886 0.74043 0.01087
C 9.71951 21.26673 0.01945
C 10.94077 23.411 0.01241
C 2.5082 7.17115 0.00895
C 3.74993 6.45701 0.00685
C 3.75785 4.98583 0.02888
C 2.47851 4.34644 -0.00482
C 2.53995 2.92529 -0.01384
C 3.73161 2.20734 0.03693
C 3.62304 0.78973 0.01745
C 2.38672 0.04123 0.00488
C 4.86933 32.70545 -0.01004
C 6.12879 31.96282 -0.02896
C 6.13085 30.55517 -0.00131
C 4.87803 29.83723 -0.01118
C 4.83895 28.46958 -0.014
C 6.05559 27.72646 0.02147
C 6.1223 26.29687 0.00373
C 4.88578 25.57991 -0.00191
C 4.85545 24.10494 0.00438
C 2.45324 8.59223 0.00393
C 3.83178 9.41595 0.0288
C 3.73979 10.76854 -0.0008
C 2.52561 11.41179 -0.01362
C 3.6468 30.64661 0.00873
C 2.40407 29.78192 -0.00049
C 2.41058 28.39923 0.00848
C 3.66016 27.74554 -0.01303
C 3.61274 26.37106 -0.01378
C 2.44218 25.57244 0.02635
C 2.46933 24.19438 0.0127
C 3.6666 23.4818 0.01396
C 6.06313 23.44805 0.01291
C 3.55668 22.11997 0.01849
C 2.39983 19.89679 -0.00562
C 3.58477 19.16528 -0.00494
C 3.69917 17.77694 0.00054
C 2.41588 17.10879 0.03007
C 2.49748 15.63962 -0.00095
C 3.69505 14.934 0.01572
C 3.68756 13.74694 -0.04848
C 2.47684 12.7413 -0.00892
C 2.37216 21.30539 -0.01142
C 10.96583 21.91779 -0.01454
C 6.03165 21.98533 0.00093
C 4.84967 19.84302 -0.01634
C 7.30358 21.1964 -0.02689
C 7.07966 19.83931 -0.01046
C 8.65872 4.8436 -0.00891
C 7.47155 4.27498 0.02819
C 7.43471 2.79842 0.00165
C 8.7089 2.26033 -0.02971
C 8.65363 0.81222 0.02894
C 7.41516 0.0688 -0.01789
C 9.85539 32.76584 0.00444
C 11.01221 31.93909 -0.00925
C 11.01452 30.55159 0.01877
C 9.79118 29.83094 0.01363
C 9.72392 28.40924 -0.02162
C 10.9842 27.65941 0.00415
C 11.00219 26.22535 -0.0014
C 9.7232 25.55347 0.02162
C 9.73226 24.14494 0.0076
C 8.53735 21.91831 -0.01536
C 8.44924 23.48967 0.03101
C 7.23158 24.21988 -0.00428
C 7.3489 25.52951 -0.02245
C 6.02835 19.17572 -0.00334
C 4.91077 17.09974 0.02339
C 4.82004 8.47259 0.01641
C 5.06008 7.16024 -0.00719
C 6.33108 6.52124 0.01364
C 6.24037 5.07318 -0.01062
C 4.92725 4.26643 -0.00033
C 4.90503 2.86743 0.03589
C 4.82779 21.28233 0.00057
C 6.08676 2.09926 -0.02759
C 4.85358 0.00429 0.00572
C 7.35028 32.68573 0.03592
C 8.59351 32.0129 0.00406
C 8.55337 30.4979 0.00943
C 7.30617 29.8628 0.02841
C 7.26526 28.46611 -0.01111
C 8.51586 27.74896 -0.01275
C 8.54452 26.30285 0.00985
C 6.12033 0.72759 0.0402
C 19.66607 0.00514 0.00199
C 22.13132 32.70292 0.01511
C 23.4009 31.96944 -0.00478
C 31.90237 29.82764 -0.02142
C 31.94732 28.39862 0.0544
C 33.12491 27.68226 0.00026
C 33.12967 26.24745 0.00682
C 31.8958 25.56549 -0.01779
C 31.87761 24.15705 0.03794
C 33.13524 23.4751 0.01927
C 33.18526 22.05339 0.01574
C 31.94722 21.34287 -0.02383
C 31.85254 19.91073 -0.01429
C 33.11051 19.09149 -0.0136
C 33.11758 17.73955 0.00594
C 31.91641 16.99648 -0.02474
C 31.87968 15.57029 0.00369
C 33.1101 14.8596 0.00455
C 33.13711 13.49379 -0.00644
C 31.87964 12.79099 -0.01839
C 33.16394 30.55504 0.01428
C 33.2314 32.03776 -0.01694
C 31.89819 32.63957 0.01713
C 29.45528 34.0609 0.00346
C 30.59442 19.11165 0.03531
C 30.78482 17.76092 -0.00669
C 29.50029 17.03952 0.0101
C 29.40354 15.60056 0.01705
C 30.63165 14.87681 -0.0405
C 30.65853 13.41682 -0.01303
C 29.37063 12.74102 -0.01461
C 29.41008 11.22213 -0.02155
C 31.87921 11.30989 0.00137
C 30.64679 10.56139 -0.00944
C 29.44702 8.40358 -0.00971
C 29.56957 7.01751 0.01518
C 30.74616 6.39007 0.01908
C 30.7623 4.90974 0.07705
C 29.4594 4.2812 0.0103
C 29.51312 2.87497 0.02108
C 30.70446 2.06338 0.00716
C 30.6724 0.6508 0.00307
C 30.73008 9.17278 -0.03735
C 29.51542 19.98693 0.01836
C 33.18624 10.69539 0.00199
C 31.98422 8.47433 0.02806
C 1.21183 17.74834 0.01223
C 34.36079 17.01441 0.00648
C 34.41604 15.63176 0.02114
C 1.28214 14.92834 -0.02957
C 1.26095 13.57163 0.00343
C 34.40749 12.813 -0.02656
C 0.01561 11.40501 -0.02442
C 1.32858 10.79437 -0.00027
C 1.24046 9.26413 -0.00583
C 0.0146 8.51413 -0.02302
C 0.02665 7.07981 -0.02849
C 1.22652 6.41112 0.02931
C 1.2724 4.9865 0.00628
C 34.42031 4.30439 -0.0345
C 34.38558 2.93073 -0.00931
C 1.24648 2.27353 -0.00939
C 1.2524 0.82635 -0.00468
C 1.17308 19.2317 -0.01678
C 34.32086 19.82554 0.01951
C 34.35175 21.25839 -0.02213
C 1.18257 22.06145 0.02712
C 31.95807 7.09739 0.01504
C 33.22093 6.38812 -0.00069
C 33.19451 4.95985 0.04926
C 31.98095 4.21444 -0.03838
C 31.9189 2.76999 0.00349
C 33.15563 2.15518 -0.00323
C 33.12374 0.73493 -0.00841
C 31.92715 0.06287 0.0001
C 33.18321 9.22918 0.04381
C 0.00073 32.69843 -0.02927
C 1.20078 30.50898 0.01027
C 34.37863 29.7807 0.01831
C 34.35226 28.42295 -0.01037
C 1.19704 27.64381 -0.00439
C 1.17602 26.23702 -0.00598
C 34.31541 25.55578 -0.05239
C 34.35676 24.15263 0.03076
C 1.14587 23.49097 0.00723
C 1.21647 31.97177 -0.01404
C 29.49319 21.34887 -0.03039
C 30.65497 22.04687 -0.01415
C 30.64226 23.38906 -0.01854
C 25.70224 30.4586 -0.00178
C 24.50299 29.73617 0.00768
C 24.57651 28.41039 -0.0276
C 25.77423 27.69268 0.03005
C 25.70709 26.21982 -0.04078
C 24.41536 25.53739 0.02117
C 24.56601 24.16844 0.02737
C 25.77624 23.40507 -0.00498
C 25.67569 22.0204 0.00135
C 24.44544 21.31752 0.03102
C 24.53214 19.81801 0.02555
C 25.81884 19.2301 0.01423
C 25.85725 17.76954 -0.00285
C 24.73148 16.84788 -0.009
C 25.34869 15.66182 -0.01199
C 25.7627 5.19046 -0.00229
C 24.58816 4.47808 -0.00938
C 25.81735 31.87977 0.00733
C 24.60507 32.70232 -0.02118
C 22.14966 0.07729 -0.01971
C 23.39826 0.78818 -0.01586
C 23.28135 30.48779 -0.01662
C 22.06983 29.79192 -0.01185
C 22.04787 28.35563 0.01126
C 23.29854 27.7244 0.01852
C 23.25595 26.32356 -0.00381
C 22.11559 25.5524 0.03046
C 22.12789 24.21351 0.0296
C 23.31423 23.48024 0.03374
C 24.50097 3.0438 -0.0264
C 23.26316 22.0749 -0.02845
C 22.09128 19.77684 0.02239
C 23.41453 19.00659 0.01153
C 23.51129 17.64583 0.02734
C 22.67454 6.48494 -0.0055
C 23.32554 5.01573 0.01515
C 22.21199 4.24381 -0.00225
C 22.11042 2.89901 0.00071
C 23.36736 2.20055 -0.01107
C 22.11444 21.25314 -0.03213
C 25.79159 2.29462 -0.01154
C 25.76177 0.86266 0.00684
C 24.61172 0.034 -0.01052
C 27.99574 8.87965 0.02611
C 27.37381 7.49939 0.02198
C 28.34052 6.433 0.01094
C 28.30005 5.03683 0.00235
C 27.01837 4.38127 0.01495
C 27.00406 2.92179 0.01259
C 28.25916 2.21958 0.01799
C 28.15579 0.78782 0.01699
C 28.05077 10.39779 -0.00621
C 26.96529 0.10845 -0.00416
C 30.72265 31.97435 0.04266
C 30.67307 30.62077 0.01324
C 29.46131 29.90311 0.0014
C 29.46988 28.44297 0.00924
C 30.68854 27.77231 0.02326
C 30.65935 26.30039 0.00261
C 29.44822 25.61415 0.03265
C 29.38965 24.11324 -0.02049
C 29.42254 32.62864 0.01177
C 3.66171 32.03659 0.01227
C 27.031 11.3921 0.00194
C 28.10424 13.44342 0.02316
C 27.00723 32.6941 -0.01679
C 28.21487 31.96785 0.00367
C 28.21261 30.58511 0.04306
C 26.96749 29.80746 0.00996
C 26.94424 28.39187 0.00195
C 28.23119 27.76963 -0.00802
C 28.25804 26.32798 -0.00218
C 26.98144 25.55948 -0.01654
C 27.00931 12.59197 0.04185
C 26.92998 24.14537 -0.00037
C 28.19613 22.02771 0.00622
C 26.96352 21.34778 -0.02815
C 27.05366 19.9427 -0.00942
C 28.30389 19.29004 0.00487
C 28.26113 17.85845 0.00826
C 27.08614 17.10994 -0.00294
C 26.87368 15.70474 0.00152
C 28.14957 14.90751 0.01257
C 28.19177 23.40692 -0.0032
C 2.40514 32.66624 -0.03337
