249
Graphene
C 34.33085 34.07396 0.01295
C 15.4062 24.02837 0.02734
C 14.85463 25.38979 0.01153
C 15.9419 26.25269 0.02239
C 15.96997 27.62501 -0.03213
C 14.76772 28.37291 -0.02845
C 14.7425 29.85723 0.03374
C 15.92998 30.5866 0.0296
C 15.92983 31.99945 0.03046
C 14.70264 32.69206 -0.00381
C 12.25845 34.02502 0.01852
C 13.57643 0.72532 0.01126
C 13.47711 2.12099 -0.01185
C 12.26063 2.83413 -0.01662
C 12.33117 4.30748 -0.00478
C 13.50191 5.02088 0.01511
C 13.56469 6.45264 0.00199
C 12.47377 7.28738 0.01087
C 12.3218 25.6452 -0.01527
C 13.65874 26.04016 0.00096
C 13.55285 27.53258 0.01277
C 12.32547 28.31126 -0.02422
C 12.32008 29.73436 -0.01721
C 13.44767 30.59262 -0.01154
C 13.50573 32.01357 0.0106
C 12.24152 32.68412 -0.01594
C 9.78071 34.07564 0.00742
C 11.00023 0.71008 -0.00311
C 16.27909 22.85661 -0.0055
C 10.99567 2.13854 0.00675
C 16.01514 10.76026 0.01515
C 14.66345 8.4817 0.00071
C 18.49184 0.68992 -0.01679
C 18.54212 2.15195 -0.01052
C 17.19216 2.82386 0.00684
C 17.24099 4.29659 -0.01154
C 18.47233 5.01267 -0.0264
C 18.37462 6.52503 -0.00938
C 17.1391 7.10005 -0.00229
C 17.00113 8.55946 -0.01199
C 18.32611 9.3748 -0.009
C 18.43088 10.90778 -0.00285
C 17.05418 11.32036 0.01423
C 17.16852 25.6338 0.02555
C 18.40842 26.34992 0.03102
C 18.52168 27.71543 0.00135
C 17.23365 28.37331 -0.00498
C 17.17559 29.89002 0.02737
C 18.50444 30.53456 0.02117
C 18.53731 31.94769 -0.04078
C 17.26712 32.70409 0.03005
C 14.83411 34.06264 -0.0276
C 16.00109 0.66831 0.00768
C 15.93417 2.11472 -0.00178
C 14.73137 2.81258 0.00733
C 14.71616 4.34057 -0.02118
C 15.97875 4.92431 -0.01971
C 16.02285 6.33006 -0.01586
C 14.82355 7.07198 -0.01107
C 15.75859 9.38048 -0.00225
C 9.8562 2.86887 -0.00865
C 9.87763 4.37931 0.0058
C 11.15339 5.18774 -0.00652
C 4.93746 7.22915 -0.00066
C 4.85525 8.63756 0.00213
C 4.70085 25.52538 -0.05302
C 6.00101 26.07879 -0.04147
C 6.01614 27.57829 -0.02815
C 4.8419 28.4164 0.03505
C 4.7656 29.87281 0.01443
C 6.11228 30.57668 0.00979
C 6.13394 32.03051 -0.00481
C 4.84504 32.74381 0.00889
C 2.42814 0.00508 -0.02162
C 3.62657 0.79468 -0.00619
C 3.60662 2.18609 0.01848
C 2.40322 2.85513 0.02098
C 2.41289 4.24524 -0.03113
C 3.62914 4.96097 0.0351
C 3.71448 6.42689 0.00422
C 2.41528 7.14578 0.00798
C 2.39632 8.55938 0.00228
C 3.63647 9.22773 -0.00114
C 2.42668 24.29368 -0.02696
C 2.30653 25.70026 -0.00368
C 3.55408 26.28877 -0.0108
C 3.58336 27.71176 -0.01957
C 2.40071 28.46747 0.02058
C 2.42852 29.79216 0.01965
C 3.57393 30.55758 -0.03682
C 6.23158 6.46206 -0.00289
C 6.09365 5.05347 0.00028
C 4.90659 4.28256 -0.02213
C 4.88839 2.8559 0.03698
C 11.14286 6.6344 -0.04076
C 9.87077 7.17425 -0.00703
C 11.07191 26.33135 0.00654
C 11.01912 27.66779 -0.04422
C 9.73382 28.29731 -0.02957
C 9.80593 29.81612 -0.00831
C 11.05436 30.43132 0.00364
C 11.06361 31.9518 -0.017
C 9.79423 32.67427 0.00143
C 7.34004 0.07658 0.00667
C 8.55426 0.76196 -0.0054
C 8.64027 2.16821 0.00755
C 7.34944 2.94632 0.01739
C 17.26535 0.02579 0.00367
C 7.33696 4.36521 0.03754
C 8.64085 6.60996 -0.00111
C 7.36764 7.08455 0.04892
C 7.23233 25.48157 0.01452
C 8.35236 26.28108 -0.01581
C 8.48832 27.62657 0.02691
C 7.26797 28.37343 -0.01979
C 7.30293 29.74137 0.02188
C 8.55994 30.45274 -0.00316
C 8.5615 31.9914 -0.0331
C 7.38148 32.74721 -0.0258
C 4.8641 0.07874 0.03338
C 6.03373 0.7932 -0.00491
C 6.11217 2.22694 -0.00109
C 8.58206 5.04522 -0.03557
C 3.62527 32.01463 0.00052
C 19.74465 32.63562 0.04306
C 20.93724 30.54869 0.00195
C 31.89583 4.29623 0.0001
C 33.18396 4.94483 -0.00841
C 33.1691 6.42853 -0.00323
C 31.98874 7.17094 0.00349
C 32.05618 8.61796 -0.03838
C 33.2327 9.35051 0.04926
C 33.16595 10.80642 -0.00069
C 31.87556 11.42698 0.01504
C 31.80191 12.913 0.02806
C 33.00252 13.50153 0.04381
C 32.89524 15.01505 0.00199
C 31.56106 15.48234 0.00137
C 33.30806 17.63746 -0.01839
C 33.37136 18.90369 -0.00644
C 32.13535 21.1936 0.00455
C 32.99989 22.22456 0.00369
C 33.06115 23.67623 -0.02474
C 31.79971 24.42804 0.00594
C 31.88993 25.64308 -0.0136
C 33.0015 26.61382 -0.01429
C 33.10921 27.95866 -0.02383
C 33.14839 30.50025 0.01574
C 33.00701 31.89503 0.01927
C 31.81614 32.76834 0.03794
C 29.55046 0.04335 -0.01779
C 30.69246 0.71421 0.00682
C 30.64575 2.14647 0.00026
C 31.81099 2.85676 -0.02927
C 29.43648 2.86701 0.0544
C 33.08971 2.10303 -0.01404
C 31.903 0.03826 0.01831
C 1.14772 0.6864 -0.00468
C 1.14803 2.11936 -0.00939
C 34.31868 2.78085 -0.00931
C 34.374 4.28465 -0.0345
C 1.17988 4.97603 0.00628
C 1.17353 6.40829 0.02931
C 34.41648 7.13189 -0.02849
C 0.06693 8.57836 -0.02302
C 1.23661 9.34738 -0.00583
C 1.16412 10.73248 -0.00027
C 0.04162 11.51911 -0.02442
C 34.09838 12.88939 -0.02656
C 0.00554 15.28223 0.00343
C 33.73197 16.48392 -0.02957
C 33.50044 20.21571 0.02114
C 34.26185 21.31215 0.00648
C 0.86589 22.04501 0.01223
C 1.19563 23.54484 -0.01678
C 34.29768 24.41092 0.01951
C 34.37689 25.81388 -0.02213
C 1.10539 26.47309 0.02712
C 1.17707 27.86802 0.00723
C 34.34328 28.50616 0.03076
C 34.36375 29.89488 -0.05239
C 1.19313 30.56474 -0.00598
C 1.17872 32.05168 -0.00439
C 34.34274 32.6241 -0.01037
C 33.13656 0.74851 0.01027
C 29.49274 4.31148 -0.02142
C 30.70442 5.02373 0.01428
C 30.74486 6.49853 -0.01694
C 22.08246 4.34579 0.01177
C 23.3407 5.05586 -0.00416
C 23.33496 6.50476 0.01699
C 22.09133 7.26474 0.01799
C 22.14653 8.66588 0.01259
C 23.4115 9.30016 0.01495
C 22.5059 27.18964 0.00235
C 22.22068 28.6217 0.01094
C 22.29728 29.98864 0.02198
C 23.33883 30.70441 0.02611
C 23.49358 32.08717 -0.00621
C 22.2237 32.71844 0.00194
C 19.75303 34.0703 0.04185
C 20.92027 0.79871 0.02316
C 20.89753 2.27425 0.01257
C 19.69095 2.98055 0.00152
C 19.7194 4.3738 -0.00294
C 20.87771 5.15843 0.00826
C 20.9042 6.53477 0.00487
C 19.6101 7.22993 -0.00942
C 19.58961 8.72901 -0.02815
C 20.89956 9.3861 0.00622
C 20.68425 10.69093 -0.0032
C 19.65841 11.41912 -0.00037
C 21.0896 27.83208 -0.01654
C 19.77167 28.3449 -0.00218
C 19.74945 29.76468 -0.00802
C 22.1266 2.92853 0.04266
C 23.37894 2.23295 0.01324
C 23.39764 0.86054 0.0014
C 22.14487 0.09393 0.00924
C 29.53707 7.17192 0.01713
C 29.5833 8.60448 0.00346
C 30.78757 9.27037 0.00307
C 30.75601 10.65923 0.00716
C 29.593 11.46734 0.02108
C 30.66039 13.62852 0.0103
C 26.92276 33.9858 0.07705
C 28.24502 0.52631 0.01908
C 28.25404 2.08944 0.01518
C 27.03223 2.81281 -0.00971
C 27.04886 4.2733 -0.03735
C 28.26936 5.03743 -0.00944
C 28.33561 6.48089 -0.02155
C 20.98523 31.96429 0.00996
C 27.16411 7.20805 -0.01461
C 28.37909 9.32969 -0.0405
C 28.44336 10.71986 0.01705
C 24.64101 0.09493 0.0101
C 25.84557 0.74521 -0.00669
C 25.79527 2.14577 0.03531
C 24.61753 2.90034 0.01836
C 24.59406 4.30029 -0.03039
C 25.85026 5.04804 -0.01415
C 25.91553 6.48993 -0.01854
C 24.70604 7.17057 -0.02049
C 24.65089 8.68629 0.03265
C 25.90159 9.29811 0.00261
C 24.63504 32.86328 0.02326
C 27.10485 8.73515 -0.01303
C 2.37484 32.73487 0.00374
