313
Graphene
C 0.01079 0.03587 0.01295
C 11.1277 27.66602 -0.0331
C 11.00153 26.33435 -0.00316
C 9.83096 25.59424 0.02188
C 9.8758 24.11842 -0.01979
C 11.13632 23.49097 0.02691
C 11.0971 22.03124 -0.01581
C 9.79143 21.26874 0.01452
C 9.8036 19.83505 0.04892
C 11.09343 19.08263 -0.00111
C 9.80743 16.98946 -0.03557
C 9.91066 8.55527 0.03754
C 9.91168 7.06933 0.01739
C 11.08575 6.34905 0.00755
C 11.14356 4.95507 -0.0054
C 9.80043 4.34463 0.00667
C 9.8553 28.36109 -0.0258
C 9.8255 29.73518 0.03338
C 10.99809 30.45328 -0.00491
C 11.12416 31.84422 -0.00109
C 8.55319 14.85613 -0.00619
C 8.56297 13.59835 -0.02162
C 7.38712 12.75419 0.00889
C 7.32412 11.40948 -0.00481
C 8.47799 10.71025 0.00979
C 8.66831 9.29783 0.01443
C 7.39729 8.52177 0.03505
C 9.87075 2.86463 0.00143
C 7.39577 7.10535 -0.02815
C 8.59074 5.00578 -0.05302
C 7.39879 4.24227 0.00213
C 7.40913 2.85407 -0.00066
C 8.63459 2.21329 -0.00289
C 8.61185 0.72758 0.00028
C 7.3779 0.06855 -0.02213
C 9.86191 32.58529 0.03698
C 8.62502 6.39079 -0.04147
C 7.40714 15.6432 0.01848
C 11.14906 2.12295 -0.017
C 9.83075 34.02365 -0.00831
C 15.97044 30.54514 0.00199
C 14.75911 29.77867 0.01511
C 14.70296 28.38384 -0.00478
C 15.9919 27.67916 -0.01662
C 16.06441 26.27318 -0.01185
C 14.77477 25.56582 0.01126
C 14.76644 24.13936 0.01852
C 15.95415 23.49736 -0.00381
C 15.9244 22.01371 0.03046
C 14.79364 21.2637 0.0296
C 14.7363 4.19716 0.03374
C 14.75265 2.89133 -0.02845
C 15.98728 2.11823 -0.03213
C 15.95598 0.73429 0.02239
C 14.75922 0.03759 0.01153
C 15.99931 31.91143 0.01087
C 14.81864 32.72814 -0.01527
C 12.2808 34.03373 0.00096
C 13.53682 0.70464 0.01277
C 12.30306 32.63726 -0.02957
C 13.56769 31.92797 -0.04422
C 13.46708 30.53946 0.00654
C 12.26367 29.77478 -0.00703
C 12.33809 28.33856 -0.04076
C 13.56311 27.65414 -0.00652
C 13.52014 26.29766 0.0058
C 11.03146 0.7111 0.00364
C 12.25249 25.5829 -0.00865
C 13.47172 23.47062 -0.00311
C 13.51991 22.03136 0.00742
C 12.30315 21.27959 -0.01594
C 12.29406 19.79075 0.0106
C 12.32775 4.24477 -0.01154
C 12.303 2.8838 -0.01721
C 13.51122 2.15459 -0.02422
C 12.34364 24.18138 0.00675
C 7.36108 17.03763 0.02098
C 8.62589 17.67075 -0.03113
C 8.57144 19.12354 0.0351
C 3.67995 9.22987 -0.02759
C 2.49775 8.54652 0.0402
C 2.40765 7.10066 0.00572
C 3.63341 6.42099 0.03592
C 3.6394 4.99902 0.00406
C 2.4516 4.24451 0.00943
C 2.4062 2.84847 0.02841
C 3.68712 2.1638 -0.01111
C 3.72431 0.71328 -0.01275
C 2.44483 34.07679 0.00985
C 4.89052 32.60196 -0.02245
C 6.1005 31.94182 -0.00428
C 6.15046 30.50506 0.03101
C 4.86176 29.79003 -0.01536
C 4.93553 28.38002 -0.02689
C 3.71925 10.65858 0.03589
C 2.42295 11.43218 -0.00033
C 2.48931 12.76675 -0.01062
C 3.67275 13.51263 0.01364
C 3.66066 30.55481 -0.02896
C 2.46511 29.87323 -0.00131
C 2.46903 28.33366 -0.01118
C 3.66915 27.69663 -0.014
C 3.65856 26.29635 0.02147
C 2.43174 25.57043 0.00373
C 2.46735 24.16093 -0.00191
C 6.15413 27.74743 -0.01046
C 3.7201 23.39336 0.00438
C 2.46966 21.33995 0.00093
C 2.48871 19.90832 0.00057
C 3.69976 19.1947 -0.01634
C 3.64189 17.82854 -0.00334
C 2.48352 17.08449 0.02339
C 2.45989 15.61122 0.01641
C 3.67934 14.91182 -0.00719
C 3.64862 22.05123 0.01291
C 6.20667 26.22252 -0.00891
C 4.98585 25.58736 0.02819
C 4.90887 24.13691 0.00165
C 6.23613 2.08616 0.05265
C 6.1493 0.67907 -0.01952
C 4.84949 34.0477 -0.02813
C 7.34585 32.75046 0.00374
C 8.60066 31.95551 0.00052
C 8.64829 30.51095 -0.03682
C 7.36869 29.84236 0.01965
C 4.98594 2.82887 -0.01717
C 7.35968 28.36341 0.02058
C 8.65253 26.25472 -0.0108
C 7.31577 25.50548 -0.00368
C 7.35465 24.19336 -0.02696
C 8.5766 23.47437 -0.00114
C 8.58574 22.03121 0.00228
C 7.40802 21.33804 0.00798
C 7.3655 19.81322 0.00422
C 8.65041 27.69256 -0.01957
C 17.21841 32.6875 0.02734
C 4.92813 4.29568 0.00244
C 6.12759 6.39314 0.03542
C 6.10898 23.3824 -0.02971
C 6.13204 21.98877 0.02894
C 4.94294 21.31333 -0.01789
C 4.92179 19.85694 0.00444
C 6.13483 19.20215 -0.00925
C 6.15844 17.80715 0.01877
C 4.88908 17.04757 0.01363
C 6.22038 4.96078 0.02299
C 4.97009 15.62015 -0.02162
C 6.17263 13.54314 -0.0014
C 4.88444 12.67984 0.02162
C 4.89897 11.32486 0.0076
C 6.0982 10.64871 0.01241
C 6.10224 9.15756 -0.01454
C 4.91005 8.5175 0.01945
C 4.88816 7.13922 0.01416
C 6.13259 14.93611 0.00415
C 3.69772 31.90548 -0.01004
C 18.41976 31.98228 -0.0055
C 17.20105 29.85478 -0.00225
C 33.24029 31.9604 0.01927
C 33.19971 30.51197 0.01574
C 31.99078 29.83272 -0.02383
C 32.01922 28.44706 -0.01429
C 33.20119 27.70823 -0.0136
C 33.16052 26.3233 0.00594
C 32.00809 25.55483 -0.02474
C 32.00084 24.17224 0.00369
C 33.21682 23.44529 0.00455
C 33.24822 22.04378 -0.00644
C 31.93082 21.38479 -0.01839
C 31.92829 19.90901 0.00137
C 33.21004 19.18493 0.00199
C 33.10761 17.74493 0.04381
C 31.99554 17.07159 0.02806
C 32.00218 32.64547 0.03794
C 29.52389 34.05358 -0.01779
C 30.70824 0.75152 0.00682
C 30.72889 2.188 0.00026
C 30.76892 31.9597 -0.00944
C 30.68347 30.53515 -0.03735
C 29.46383 29.85459 -0.00971
C 29.51022 28.36729 0.01518
C 30.77682 27.68993 0.01908
C 30.69468 26.32594 0.07705
C 29.47921 25.5676 0.0103
C 33.23745 15.00462 0.01504
C 29.53893 24.09408 0.02108
C 30.72516 22.02381 0.00307
C 29.45787 21.27968 0.00346
C 29.51251 19.83268 0.01713
C 30.73394 19.21481 -0.01694
C 30.60356 4.9184 0.01428
C 29.52907 4.27363 -0.02142
C 29.495 2.79158 0.0544
C 30.76398 23.47325 0.00716
C 29.47052 32.64593 -0.02155
C 33.22079 6.42945 -0.00069
C 31.97296 4.24744 -0.03838
C 34.40716 15.60204 0.02114
C 1.23231 14.937 -0.02957
C 1.26231 13.50405 0.00343
C 0.03983 12.7621 -0.02656
C 34.40096 11.41517 -0.02442
C 1.19461 10.6739 -0.00027
C 1.20431 9.23119 -0.00583
C 34.37273 8.58957 -0.02302
C 0.02152 7.11256 -0.02849
C 1.23372 6.32191 0.02931
C 1.27164 4.91913 0.00628
C 34.42225 4.2683 -0.0345
C 0.00045 2.8515 -0.00931
C 1.25381 2.13777 -0.00939
C 1.23309 0.70626 -0.00468
C 34.42215 17.01672 0.00648
C 1.20152 17.77685 0.01223
C 1.28552 19.22395 -0.01678
C 34.43124 19.79982 0.01951
C 32.00957 2.81926 0.00349
C 33.22091 2.13855 -0.00323
C 33.19527 0.73558 -0.00841
C 31.97478 34.03682 0.0001
C 34.3923 32.67923 -0.02927
C 1.27239 31.90785 -0.01404
C 1.18842 30.48307 0.01027
C 33.16828 5.01178 0.04926
C 34.39784 29.78948 0.01831
C 1.19519 27.7101 -0.00439
C 1.21196 26.27857 -0.00598
C 0.00281 25.52435 -0.05239
C 0.02622 24.14348 0.03076
C 1.23352 23.48256 0.00723
C 1.28031 22.00594 0.02712
C 34.43072 21.22106 -0.02213
C 0.01141 28.4129 -0.01037
C 27.0776 34.06198 -0.01461
C 28.25083 0.69461 -0.01303
C 28.30967 2.11148 -0.0405
C 20.89554 23.4256 -0.01199
C 20.9021 22.00936 -0.00229
C 19.72391 2.92914 -0.00938
C 20.86918 2.15358 -0.0264
C 20.95471 0.76868 -0.01154
C 19.6293 0.03953 0.00684
C 22.14871 32.65004 -0.01052
C 23.37583 31.94064 -0.01679
C 23.41632 30.57651 0.00367
C 22.18004 29.82835 0.04306
C 22.09258 28.35766 0.00996
C 23.36077 27.72852 0.00195
C 23.37206 26.30324 -0.00802
C 22.17596 25.63546 -0.00218
C 22.09873 24.06901 -0.01654
C 19.64183 24.12246 -0.009
C 19.6749 25.54115 -0.00285
C 20.97026 26.26602 0.01423
C 20.82774 27.64762 0.02555
C 17.14639 28.42982 0.00071
C 18.42149 27.64961 -0.01107
C 18.42249 26.25792 -0.01586
C 17.20722 25.51073 -0.01971
C 17.19568 24.20794 -0.02118
C 18.4327 23.45587 0.00733
C 18.44777 21.99698 -0.00178
C 23.35721 23.40799 -0.00037
C 17.139 2.78589 0.00768
C 18.3704 0.73625 0.03005
C 17.19001 0.02171 -0.04078
C 19.69971 32.62865 0.02117
C 20.91864 31.95576 0.02737
C 20.8967 30.58911 -0.00498
C 19.69264 29.86772 0.00135
C 19.6553 28.45622 0.03102
C 18.41799 2.21572 -0.0276
C 23.34052 21.99206 -0.0032
C 22.07938 21.38362 0.00622
C 22.16003 4.21623 -0.02815
C 24.60704 34.07072 0.04266
C 27.02539 32.63002 0.01324
C 28.26351 31.93613 0.0014
C 28.26144 30.5383 0.00924
C 27.0351 29.8737 0.02326
C 27.06186 28.34447 0.00261
C 28.28327 27.63706 0.03265
C 25.75924 0.68949 0.01177
C 28.27945 26.26458 -0.02049
C 27.09937 24.15387 -0.01415
C 28.23636 23.3789 -0.03039
C 28.25286 21.98853 0.01836
C 27.05438 21.28202 0.03531
C 27.08541 19.79208 -0.00669
C 28.18607 19.23191 0.0101
C 27.10367 2.76488 0.01705
C 27.06538 25.55817 -0.01854
C 18.47455 30.55879 0.01515
C 25.79952 2.13374 -0.00416
C 24.63445 19.82007 0.01799
C 22.11777 2.82873 -0.00942
C 23.33573 2.10715 0.00487
C 23.37424 0.69624 0.00826
C 22.17778 34.05075 -0.00294
C 24.59083 32.68922 0.00152
C 25.74602 31.94506 0.01257
C 25.753 30.50112 0.02316
C 24.57659 2.73969 0.01699
C 24.55365 29.81623 0.04185
C 25.86325 27.67361 -0.00621
C 25.85634 26.26865 0.02611
C 24.50851 25.56577 0.02198
C 24.543 24.07921 0.01094
C 25.84899 23.41791 0.00235
C 25.83451 21.99335 0.01495
C 24.63496 21.23492 0.01259
C 24.63595 28.357 0.00194
C 2.48326 32.65576 0.00488
