322
Graphene
C 34.37251 34.0275 0.01295
C 13.58229 27.70898 0.00028
C 12.59289 2.3111 -0.02213
C 13.33744 0.97634 0.03698
C 12.28008 0.09919 -0.00109
C 14.74339 32.75089 -0.00491
C 15.9415 31.97519 0.03338
C 15.92888 30.52444 -0.0258
C 12.32145 28.38296 -0.00289
C 14.81719 29.77269 -0.0331
C 15.98948 0.66376 0.02188
C 14.70514 0.17003 -0.01979
C 17.18006 32.54858 0.02691
C 18.43862 31.89557 -0.01581
C 18.4486 30.50277 0.01452
C 17.19947 29.86493 0.04892
C 17.06981 28.40135 -0.00111
C 14.75695 28.39322 -0.00316
C 18.3023 27.67842 -0.03557
C 12.41583 29.78341 -0.00066
C 13.53065 31.95002 -0.05302
C 8.64752 0.73803 0.00228
C 7.41218 0.10271 0.00798
C 9.97261 32.64399 0.00422
C 11.16695 32.05534 0.0351
C 11.09751 30.56376 -0.03113
C 9.8398 29.78708 0.02098
C 9.86582 28.32732 0.01848
C 13.59761 30.5611 0.00213
C 11.0891 27.63319 -0.00619
C 9.95446 25.51522 0.00889
C 9.54777 24.0844 -0.00481
C 9.7358 3.00673 0.00979
C 11.19763 2.31223 0.01443
C 10.9532 0.83637 0.03505
C 9.79638 0.0554 -0.02815
C 12.37135 32.73252 -0.04147
C 11.18169 26.22085 -0.02162
C 8.67539 2.17387 -0.00114
C 18.54028 1.98896 0.03754
C 17.17043 0.0002 0.00755
C 22.15031 25.44987 -0.01721
C 23.16565 23.48204 -0.02422
C 23.16455 17.38672 0.01277
C 22.50729 16.10075 0.00096
C 23.35636 14.88767 -0.01527
C 23.27908 13.47006 0.01087
C 22.00281 12.7435 0.00199
C 23.35643 26.19243 -0.01154
C 22.04544 11.25978 0.01511
C 23.30466 9.29953 -0.01662
C 22.2357 8.47135 -0.01185
C 22.1401 7.15537 0.01126
C 23.32367 6.37932 0.01852
C 23.27071 4.98995 -0.00381
C 22.09292 4.32778 0.03046
C 22.17827 2.93317 0.0296
C 23.36331 10.72969 -0.00478
C 18.45649 0.61831 0.01739
C 23.27026 27.68807 0.0106
C 21.9561 29.73608 0.00742
C 19.63325 32.66073 -0.0054
C 20.86209 31.91697 0.00667
C 20.80244 30.4654 0.00143
C 19.5947 29.73952 -0.017
C 19.58399 28.31037 0.00364
C 20.81955 27.607 -0.00831
C 20.99415 26.08848 -0.02957
C 22.00713 28.38259 -0.01594
C 21.32823 15.06741 -0.04422
C 19.65542 2.77445 -0.00703
C 20.94603 2.10634 -0.04076
C 20.92435 0.67205 -0.00652
C 19.7471 34.05351 0.0058
C 22.13815 32.70661 -0.00865
C 23.30224 31.92595 0.00675
C 23.25203 30.4458 -0.00311
C 21.04059 13.86616 0.00654
C 7.36299 2.86569 -0.02696
C 7.47742 4.29273 -0.00368
C 8.95547 4.5548 -0.0108
C 3.7034 9.22378 -0.01634
C 2.43543 8.52996 -0.00334
C 2.40094 7.06119 0.02339
C 3.67265 6.33916 0.01641
C 3.67097 4.9834 -0.00719
C 2.4083 4.30387 0.01364
C 2.36871 2.85894 -0.01062
C 3.70232 10.63797 0.00057
C 3.66901 2.15343 -0.00033
C 2.42721 0.02165 -0.02759
C 4.90373 32.63492 0.0402
C 6.1341 31.97303 0.00572
C 6.19163 30.52437 0.03592
C 4.94763 29.81077 0.00406
C 4.99469 28.39637 0.00943
C 6.19527 27.71584 0.02841
C 3.73396 0.70389 0.03589
C 6.18956 26.30974 -0.01111
C 2.44041 11.33961 0.00093
C 3.66377 13.4766 0.00438
C 3.67079 30.50686 0.00895
C 2.46131 29.77589 0.00685
C 2.49817 28.42518 0.02888
C 3.71004 27.72326 -0.00482
C 3.7238 26.30473 -0.01384
C 2.41167 25.65242 0.03693
C 2.4472 24.16177 0.01745
C 2.50834 12.7214 0.01291
C 3.68705 23.46802 0.00488
C 2.48494 21.30345 -0.02896
C 2.42213 19.8481 -0.00131
C 3.66046 19.19505 -0.01118
C 3.73356 17.75517 -0.014
C 2.52747 17.14165 0.02147
C 2.47648 15.71817 0.00373
C 3.70989 14.87998 -0.00191
C 3.73845 22.04735 -0.01004
C 4.94516 25.62727 -0.01275
C 4.85431 24.24635 0.00985
C 6.0727 23.5561 -0.02245
C 4.97129 0.03541 -0.01454
C 7.42658 32.72818 0.01945
C 8.6945 32.01271 0.01416
C 8.67523 30.61367 0.03542
C 7.34088 29.87882 0.02299
C 7.45662 28.41747 0.00244
C 8.69738 27.63536 -0.01717
C 6.19592 0.75186 0.01241
C 8.66621 26.26851 0.05265
C 7.3036 24.2264 -0.02813
C 8.45374 23.21709 0.00374
C 7.59035 21.70674 0.00052
C 7.32254 12.57237 -0.03682
C 7.33901 11.15081 0.01965
C 7.37614 8.43747 0.02058
C 7.19511 7.13944 -0.01957
C 7.40884 25.67379 -0.01952
C 6.12808 2.18153 0.0076
C 4.9315 2.8811 0.02162
C 4.97356 4.28 -0.0014
C 6.30178 22.13328 -0.00428
C 4.98935 21.37003 0.03101
C 4.93099 19.99089 -0.01536
C 6.04984 19.2061 -0.02689
C 6.04983 17.91362 -0.01046
C 4.98819 17.02633 -0.00891
C 4.94441 15.63218 0.02819
C 6.21768 14.91154 0.00165
C 6.25989 13.47812 -0.02971
C 4.91326 12.77542 0.02894
C 4.93246 11.33746 -0.01789
C 6.13045 10.5263 0.00444
C 6.09009 9.13864 -0.00925
C 4.83211 8.43713 0.01877
C 4.91547 7.01791 0.01363
C 6.10266 6.36043 -0.02162
C 6.21403 4.97112 0.00415
C 23.36064 2.16149 0.03374
C 23.27728 0.76753 -0.02845
C 22.12639 0.03759 -0.03213
C 24.5756 32.56515 0.02239
C 33.18485 26.29597 0.00682
C 31.91315 25.58849 -0.01779
C 31.91431 24.1448 0.03794
C 33.1303 23.47955 0.01927
C 33.11973 22.0277 0.01574
C 31.80443 21.3099 -0.02383
C 31.89727 19.86467 -0.01429
C 33.19766 27.70019 0.00026
C 33.13667 19.24462 -0.0136
C 31.92495 17.13329 -0.02474
C 31.94931 15.74675 0.00369
C 33.18915 15.04857 0.00455
C 33.14509 13.62775 -0.00644
C 32.00451 12.79019 -0.01839
C 31.97815 11.38236 0.00137
C 33.15812 10.67237 0.00199
C 33.30059 17.74789 0.00594
C 33.14887 9.23548 0.04381
C 31.91784 28.38258 0.0544
C 33.10532 30.56585 0.01428
C 30.72445 13.44537 -0.01303
C 29.47184 12.79201 -0.01461
C 29.45806 11.37901 -0.02155
C 30.70888 10.71442 -0.00944
C 30.73893 9.19107 -0.03735
C 29.5432 8.56686 -0.00971
C 29.46454 7.09387 0.01518
C 31.92052 29.83543 -0.02142
C 30.71464 6.28692 0.01908
C 29.49332 4.24461 0.0103
C 29.48155 2.76809 0.02108
C 30.69862 2.06327 0.00716
C 30.63002 0.653 0.00307
C 29.38962 34.01403 0.00346
C 31.9603 32.67492 0.01713
C 33.08614 31.94558 -0.01694
C 30.71643 4.88607 0.07705
C 31.9125 8.56352 0.02806
C 31.91029 7.11436 0.01504
C 33.10108 6.44805 -0.00069
C 0.06845 17.04458 0.00648
C 0.00757 15.66022 0.02114
C 1.2282 14.99155 -0.02957
C 1.22958 13.56142 0.00343
C 34.42167 12.94634 -0.02656
C 34.34542 11.4404 -0.02442
C 1.19441 10.69838 -0.00027
C 1.29278 17.82055 0.01223
C 1.1798 9.27605 -0.00583
C 34.38372 7.08263 -0.02849
C 1.17038 6.36087 0.02931
C 1.16504 4.98567 0.00628
C 34.3163 4.32369 -0.0345
C 34.28742 2.87118 -0.00931
C 1.09104 2.14163 -0.00939
C 1.13103 0.71242 -0.00468
C 34.36799 8.52916 -0.02302
C 1.19254 19.20926 -0.01678
C 34.40392 19.95312 0.01951
C 34.41885 21.38884 -0.02213
C 33.10991 5.0271 0.04926
C 31.96586 4.20003 -0.03838
C 31.90155 2.76566 0.00349
C 33.09785 2.09852 -0.00323
C 33.15676 0.70427 -0.00841
C 31.917 34.04133 0.0001
C 34.32607 32.61885 -0.02927
C 1.18465 31.91147 -0.01404
C 1.20597 30.53738 0.01027
C 34.41904 29.87646 0.01831
C 34.4027 28.43865 -0.01037
C 1.24952 27.8551 -0.00439
C 1.26168 26.37035 -0.00598
C 0.03523 25.58367 -0.05239
C 0.00213 24.15277 0.03076
C 1.20175 23.4469 0.00723
C 1.26221 22.03108 0.02712
C 30.68968 14.90625 -0.0405
C 3.64807 31.8815 0.00393
C 29.46444 15.66064 0.01705
C 30.63925 17.77562 -0.00669
C 25.75808 10.64795 0.03102
C 25.82448 9.28255 0.02555
C 24.53163 8.569 0.01423
C 24.53597 7.11004 -0.00285
C 25.75717 6.33047 -0.009
C 25.7753 4.96276 -0.01199
C 24.5647 4.20427 -0.00229
C 24.61948 11.37745 0.00135
C 24.57288 2.85042 -0.00938
C 25.72821 0.68096 -0.01154
C 24.46493 34.06823 0.00684
C 27.02819 32.65911 -0.01052
C 28.258 31.97607 -0.01679
C 28.25472 30.55078 0.00367
C 26.98649 29.74886 0.04306
C 26.90469 28.32883 0.00996
C 25.75778 2.10777 -0.0264
C 28.17296 27.66851 0.00195
C 24.50505 12.73395 -0.00498
C 25.75802 14.83412 0.02117
C 25.74728 31.90146 0.01153
C 25.77669 30.52544 0.02734
C 24.49862 29.78483 -0.0055
C 24.50097 28.36269 0.01515
C 25.64998 27.60897 -0.00225
C 25.72265 26.2008 0.00071
C 24.52561 25.51674 -0.01107
C 25.74021 13.41633 0.02737
C 24.44733 24.01547 -0.01586
C 25.65699 22.01809 -0.02118
C 24.37927 21.18838 0.00733
C 24.57384 19.99172 -0.00178
C 25.75164 19.19962 0.00768
C 25.67375 17.77114 -0.0276
C 24.46625 17.00429 0.03005
C 24.6022 15.49953 -0.04078
C 25.76791 23.40946 -0.01971
C 28.22106 26.21638 -0.00802
C 26.95749 25.48222 -0.00218
C 26.98136 24.09818 -0.01654
C 28.23421 0.69065 0.01699
C 26.96682 34.02821 -0.00416
C 29.54836 32.61233 0.01177
C 30.70766 31.92321 0.04266
C 30.70049 30.50238 0.01324
C 29.43263 29.79038 0.0014
C 29.44396 28.37722 0.00924
C 28.24552 2.08124 0.01799
C 30.69932 27.66186 0.02326
C 29.44833 25.54963 0.03265
C 29.37701 24.17573 -0.02049
C 30.67884 23.4267 -0.01854
C 30.66732 22.06594 -0.01415
C 29.40253 21.40498 -0.03039
C 29.42761 19.98242 0.01836
C 30.68607 19.19924 0.03531
C 30.68657 26.26256 0.00261
C 27.06102 2.84969 0.01259
C 27.05645 4.25411 0.01495
C 28.19518 5.03484 0.00235
C 28.16036 23.39692 -0.00037
C 28.15643 21.99868 -0.0032
C 26.94662 21.27863 0.00622
C 26.92998 19.92303 -0.02815
C 28.1784 19.22107 -0.00942
C 28.21209 17.78517 0.00487
C 26.89418 17.10696 0.00826
C 26.96399 15.58366 -0.00294
C 28.20422 14.99207 0.00152
C 28.19965 13.50433 0.01257
C 27.04496 12.73999 0.02316
C 26.99463 11.27791 0.04185
C 28.27539 10.62296 0.00194
C 28.23918 9.16698 -0.00621
C 26.99538 8.53085 0.02611
C 26.96071 7.11085 0.02198
C 28.23169 6.46323 0.01094
C 29.47037 17.07628 0.0101
C 2.3813 32.68097 0.0288
