393
Graphene
C 34.38031 34.07197 0.01295
C 12.19914 32.6545 0.01877
C 13.49123 32.0179 0.01363
C 13.56101 30.57249 -0.02162
C 12.29779 29.8657 0.00415
C 12.28338 28.49643 -0.0014
C 13.50802 27.72341 0.02162
C 13.52969 26.27751 0.0076
C 12.27875 25.69192 0.01241
C 12.24997 24.17818 -0.01454
C 9.78779 0.01638 -0.00925
C 13.44517 23.41384 0.01945
C 12.26546 21.34049 0.03542
C 12.54372 19.9911 0.02299
C 12.54573 8.44114 0.00244
C 12.25485 7.1188 -0.01717
C 13.44698 6.27851 0.05265
C 13.58878 4.90825 -0.01952
C 12.28729 4.28798 -0.02813
C 12.31414 2.83145 0.00374
C 13.44254 2.1028 0.00052
C 13.47939 22.02912 0.01416
C 10.99233 0.72535 0.00444
C 11.02019 2.18165 -0.01789
C 9.79148 2.87646 0.02894
C 11.04034 27.69391 0.03589
C 11.00563 26.2779 -0.02759
C 9.76407 25.61601 0.0402
C 9.79655 24.11994 0.00572
C 11.03564 23.47177 0.03592
C 10.9653 21.99051 0.00406
C 9.74124 21.26619 0.00943
C 9.85344 19.91283 0.02841
C 11.23772 19.2104 -0.01111
C 10.88271 17.99478 -0.01275
C 9.94666 16.93338 0.00985
C 9.91961 15.50912 -0.02245
C 9.95946 12.94628 -0.00428
C 9.98644 11.51323 0.03101
C 10.92791 10.55448 -0.01536
C 11.17005 9.24878 -0.02689
C 9.9155 8.5571 -0.01046
C 9.77972 7.13032 -0.00891
C 11.05175 6.386 0.02819
C 11.09585 5.00694 0.00165
C 9.8121 4.29074 -0.02971
C 13.52225 0.69287 -0.03682
C 9.85382 28.46509 -0.00033
C 12.16413 0.04419 0.01965
C 16.02002 31.88314 -0.01957
C 18.38977 26.22779 -0.02213
C 17.17419 25.56893 0.03698
C 17.24917 24.01165 -0.00109
C 18.44973 23.32049 -0.00491
C 18.35393 21.83436 0.03338
C 17.13015 21.36256 -0.0258
C 18.65192 6.38258 -0.0331
C 18.3706 4.9766 -0.00316
C 17.19074 4.27554 0.02188
C 18.4083 27.70163 0.00028
C 17.23168 2.8334 -0.01979
C 18.47381 0.66985 -0.01581
C 17.27575 34.0526 0.01452
C 19.63988 32.64405 0.04892
C 20.8524 31.98192 -0.00111
C 20.83777 30.61095 -0.03557
C 19.65015 29.83953 0.03754
C 19.64197 28.39634 0.01739
C 20.8399 27.69731 0.00755
C 20.88762 26.30122 -0.0054
C 18.3734 2.10157 0.02691
C 17.19423 28.41802 -0.00289
C 17.21242 29.8078 -0.00066
C 18.4549 30.54795 0.00213
C 15.98814 30.54661 -0.0108
C 14.80478 29.79586 -0.00368
C 14.70069 28.36903 -0.02696
C 15.95179 27.71495 -0.00114
C 15.97939 26.29646 0.00228
C 14.75939 25.52706 0.00798
C 14.68041 24.11019 0.00422
C 15.94199 23.40518 0.0351
C 15.89173 21.9795 -0.03113
C 14.69215 21.24791 0.02098
C 14.21869 19.82686 0.01848
C 14.71762 6.80726 -0.00619
C 15.83112 6.29504 -0.02162
C 16.00537 4.88266 0.00889
C 14.76487 4.24809 -0.00481
C 14.77412 2.79943 0.00979
C 15.98876 2.1053 0.01443
C 16.03308 0.6586 0.03505
C 14.74191 34.01994 -0.02815
C 17.25414 32.68632 -0.04147
C 18.44724 31.99388 -0.05302
C 14.79497 32.64732 0.02058
C 9.85536 29.8501 -0.01062
C 11.04379 30.57981 0.01364
C 10.98838 31.95091 -0.00719
C 2.33153 4.32403 -0.03996
C 2.35186 2.81356 0.01465
C 3.60423 2.1761 -0.00074
C 3.65132 0.76984 -0.00518
C 2.41414 0.01658 0.0086
C 4.91507 32.78096 -0.00643
C 6.12826 32.08568 0.017
C 6.12785 30.5316 -0.03113
C 4.86276 29.93807 -0.02566
C 3.5584 5.02883 0.01996
C 4.83825 28.4886 -0.00094
C 6.0479 26.30598 -0.00725
C 4.82273 25.63674 -0.05697
C 4.83837 24.17357 0.01087
C 6.06827 23.43638 -0.01343
C 6.10651 22.03514 0.00988
C 4.9023 21.34962 0.0276
C 4.93754 19.88918 0.01305
C 6.1688 19.17862 -0.00077
C 6.17648 17.68826 0.03368
C 6.15316 27.74546 0.02322
C 3.64129 6.45488 -0.00279
C 2.43837 7.18081 0.01226
C 2.42046 8.53632 0.03828
C 3.68487 30.56046 0.00208
C 2.43382 29.84017 0.01707
C 2.46509 28.43624 0.02769
C 3.61295 27.71561 -0.03291
C 3.66872 26.33497 -0.04999
C 2.37715 25.57393 0.04505
C 2.45217 24.19877 0.03284
C 3.63224 23.42781 -0.04307
C 3.63923 22.0114 0.03189
C 2.48217 21.35818 0.00031
C 2.43928 19.88905 -0.003
C 3.64853 19.13228 0.01402
C 3.646 17.6781 0.02379
C 2.45709 16.99881 0.00907
C 2.45552 15.56223 0.00643
C 3.6576 14.88132 -0.01509
C 3.62559 13.4962 0.03267
C 2.44731 12.8015 0.02374
C 2.4357 11.35967 0.00402
C 3.6672 10.69712 0.0073
C 3.63706 9.30733 0.0174
C 4.84023 16.95413 -0.02929
C 4.96275 15.58664 -0.00966
C 6.14095 14.88957 -0.03337
C 6.11141 13.5325 0.01227
C 7.41994 19.85504 -0.00482
C 8.66737 19.15288 -0.01384
C 8.76727 17.76423 0.03693
C 7.429 17.02831 0.01745
C 7.39111 15.60285 0.00488
C 8.63899 14.86209 -0.01004
C 8.62603 13.48276 -0.02896
C 7.42371 12.75715 -0.00131
C 7.51982 11.38414 -0.01118
C 8.74097 10.70449 -0.014
C 8.65715 9.29194 0.02147
C 7.38152 8.58648 0.00373
C 7.27512 7.22336 -0.00191
C 8.52843 6.4989 0.00438
C 8.56624 5.04111 0.01291
C 7.30292 4.42351 0.00093
C 7.35825 2.98612 0.00057
C 8.5617 2.29118 -0.01634
C 8.55202 0.82671 -0.00334
C 7.32163 0.12508 0.02339
C 9.80643 32.74655 0.01641
C 7.38521 21.32757 0.02888
C 19.65064 25.58983 0.00667
C 8.5233 22.08441 0.00685
C 7.29782 24.20262 0.00393
C 4.88061 12.81739 0.00873
C 4.92865 11.38745 -0.00049
C 6.17217 10.64589 0.00848
C 6.14552 9.26234 -0.01303
C 4.91917 8.57953 -0.01378
C 4.88224 7.16992 0.02635
C 6.0673 6.5018 0.0127
C 6.08182 5.03721 0.01396
C 4.85297 4.33846 0.01849
C 4.87156 2.92088 -0.01142
C 6.11003 2.21877 -0.00562
C 6.12159 0.84544 -0.00494
C 4.94101 0.08267 0.00054
C 7.34383 32.75236 0.03007
C 8.55098 32.03162 -0.00095
C 8.56129 30.64864 0.01572
C 7.33541 29.92078 -0.04848
C 7.39651 28.45393 -0.00892
C 8.62433 27.74145 -0.01362
C 8.51753 26.32436 -0.0008
C 7.34629 25.60474 0.0288
C 8.50591 23.50035 0.00895
C 3.70297 31.99924 -0.00561
C 19.67562 24.06519 0.00143
C 20.92005 22.0113 0.00364
C 30.67205 4.97015 0.07705
C 29.45309 4.17237 0.0103
C 29.47648 2.8267 0.02108
C 30.71494 2.15007 0.00716
C 30.75742 0.71652 0.00307
C 29.47534 34.06909 0.00346
C 31.9351 32.6829 0.01713
C 33.26333 31.95825 -0.01694
C 33.13578 30.51403 0.01428
C 30.7147 6.38712 0.01908
C 31.91019 29.80995 -0.02142
C 33.16622 27.75353 0.00026
C 33.20266 26.29653 0.00682
C 31.94468 25.5974 -0.01779
C 31.96508 24.15336 0.03794
C 33.16996 23.41703 0.01927
C 33.2818 22.00016 0.01574
C 32.04826 21.25641 -0.02383
C 32.07196 19.86053 -0.01429
C 33.26362 19.14188 -0.0136
C 31.95931 28.41813 0.0544
C 29.45562 7.06282 0.01518
C 29.43179 8.52193 -0.00971
C 30.67371 9.26555 -0.03735
C 30.70237 31.9679 0.04266
C 30.71748 30.6183 0.01324
C 29.46331 29.87525 0.0014
C 29.47765 28.45245 0.00924
C 30.73782 27.75899 0.02326
C 30.77415 26.35835 0.00261
C 29.61558 25.58329 0.03265
C 29.62154 24.13351 -0.02049
C 30.80015 23.39003 -0.01854
C 30.75543 21.95522 -0.01415
C 29.5468 21.25283 -0.03039
C 29.57245 19.78911 0.01836
C 30.75339 19.125 0.03531
C 30.68575 17.72602 -0.00669
C 29.42005 17.03931 0.0101
C 29.41072 15.6367 0.01705
C 30.66381 14.9681 -0.0405
C 30.58978 13.49801 -0.01303
C 29.37407 12.8329 -0.01461
C 29.44415 11.38588 -0.02155
C 30.66711 10.62949 -0.00944
C 33.22787 17.68225 0.00594
C 29.39728 32.6715 0.01177
C 31.91899 17.0644 -0.02474
C 33.14276 14.92305 0.00455
C 0.03593 21.32513 -0.02213
C 0.04904 19.86771 0.01951
C 1.28771 19.22778 -0.01678
C 1.28007 17.69408 0.01223
C 0.07949 16.99333 0.00648
C 0.00347 15.61322 0.02114
C 1.25729 14.87703 -0.02957
C 1.17634 13.4809 0.00343
C 0.0033 12.76322 -0.02656
C 1.22959 22.0334 0.02712
C 34.34897 11.39494 -0.02442
C 1.1904 9.25475 -0.00583
C 34.40563 8.58047 -0.02302
C 34.39327 7.12521 -0.02849
C 1.20197 6.43508 0.02931
C 1.16707 5.07812 0.00628
C 0.01349 4.29466 -0.0345
C 34.40473 2.93677 -0.00931
C 1.14665 2.20307 -0.00939
C 1.18358 0.71626 -0.00468
C 1.18071 10.74689 -0.00027
C 1.19774 23.48881 0.00723
C 34.42075 24.15111 0.03076
C 34.40412 25.63317 -0.05239
C 33.23042 13.51437 -0.00644
C 31.87172 12.81011 -0.01839
C 31.87991 11.34947 0.00137
C 33.13664 10.68347 0.00199
C 33.17345 9.26251 0.04381
C 31.88974 8.57215 0.02806
C 31.9264 7.13154 0.01504
C 33.14808 6.33364 -0.00069
C 33.21376 4.97003 0.04926
C 31.96414 4.25379 -0.03838
C 31.9774 2.87838 0.00349
C 33.16926 2.13658 -0.00323
C 33.12349 0.66879 -0.00841
C 31.95901 34.04515 0.0001
C 34.41177 32.61453 -0.02927
C 1.22262 31.94781 -0.01404
C 1.25307 30.50904 0.01027
C 34.3888 29.83805 0.01831
C 34.34575 28.49519 -0.01037
C 1.18111 27.73195 -0.00439
C 1.21492 26.32211 -0.00598
C 31.89274 15.6415 0.00369
C 27.0314 34.06702 -0.00416
C 28.30926 0.70629 0.01699
C 28.22364 2.14536 0.01799
C 22.23401 8.54854 -0.01185
C 22.13062 7.0784 0.01126
C 23.32067 6.38305 0.01852
C 23.372 4.9764 -0.00381
C 22.11539 4.27125 0.03046
C 22.04988 2.86262 0.0296
C 23.35048 2.0988 0.03374
C 23.29938 0.70318 -0.02845
C 22.1365 34.03629 -0.03213
C 23.29694 9.09178 -0.01662
C 24.57984 32.63242 0.02239
C 25.74738 30.47129 0.02734
C 24.61049 29.76678 -0.0055
C 24.58012 28.35362 0.01515
C 25.81344 27.63604 -0.00225
C 25.89577 26.23885 0.00071
C 24.64201 25.56266 -0.01107
C 24.58631 24.1613 -0.01586
C 25.90678 23.45671 -0.01971
C 25.88188 22.0343 -0.02118
C 25.86177 31.92736 0.01153
C 23.47015 17.82266 -0.00478
C 23.31909 19.21648 0.01511
C 22.1364 19.88867 0.00199
C 19.68779 21.30348 -0.00831
C 19.59374 7.01409 -0.02957
C 20.91369 6.40618 -0.04422
C 20.94417 5.01996 0.00654
C 19.62354 4.2459 -0.00703
C 19.59171 2.84863 -0.04076
C 20.88763 2.14858 -0.00652
C 20.89513 0.71381 0.0058
C 19.68893 34.0742 -0.00865
C 22.11883 32.66888 0.00675
C 23.41501 31.88126 -0.00311
C 23.32704 30.49366 0.00742
C 22.11668 29.772 -0.01594
C 22.12715 28.39884 0.0106
C 23.34599 27.68206 -0.01154
C 23.36629 26.29026 -0.01721
C 22.09936 25.62025 -0.02422
C 22.10981 24.15277 0.01277
C 23.34122 23.41363 0.00096
C 23.37581 22.00924 -0.01527
C 22.18488 21.2311 0.01087
C 24.6907 21.32292 0.00733
C 24.53837 19.85117 -0.00178
C 25.75138 19.13947 0.00768
C 25.71064 17.72133 -0.0276
C 27.19562 24.12035 -0.01654
C 28.36666 23.34455 -0.00037
C 28.40685 21.99666 -0.0032
C 27.06243 21.27484 0.00622
C 27.02498 19.82853 -0.02815
C 28.27408 19.14169 -0.00942
C 28.20071 17.75623 0.00487
C 26.97999 17.01093 0.00826
C 26.98113 15.57349 -0.00294
C 28.22942 14.95211 0.00152
C 28.22195 13.56685 0.01257
C 26.96575 12.78898 0.02316
C 27.02405 11.39935 0.04185
C 28.22817 10.67397 0.00194
C 28.25247 9.20357 -0.00621
C 27.04771 8.50147 0.02611
C 26.99813 7.04611 0.02198
C 28.25404 6.3481 0.01094
C 28.2487 4.96826 0.00235
C 27.00894 4.19392 0.01495
C 27.01868 2.8346 0.01259
C 27.07939 25.47146 -0.00218
C 20.91663 23.40239 -0.017
C 28.35648 26.23741 -0.00802
C 27.03238 28.40112 0.00996
C 24.30251 16.82325 0.03005
C 24.46427 15.3569 -0.04078
C 25.7808 14.84135 0.02117
C 25.79181 13.43024 0.02737
C 24.54553 12.69366 -0.00498
C 24.61928 11.49339 0.00135
C 25.83745 10.59408 0.03102
C 25.88067 9.17734 0.02555
C 24.6226 8.49567 0.01423
C 24.54562 7.09013 -0.00285
C 25.78329 6.32115 -0.009
C 25.80116 4.89765 -0.01199
C 24.5772 4.24637 -0.00229
C 24.5961 2.83349 -0.00938
C 25.76467 2.06266 -0.0264
C 25.8125 0.64192 -0.01154
C 24.59453 33.98646 0.00684
C 26.98479 32.67039 -0.01052
C 28.18022 31.94816 -0.01679
C 28.19933 30.56475 0.00367
C 27.04489 29.84201 0.04306
C 28.26565 27.64299 0.00195
C 2.43292 32.69855 -0.01977
