359
Graphene
C 34.33757 34.07971 0.01295
C 11.58558 28.28086 -0.01957
C 12.85204 14.97183 -0.0108
C 13.42651 13.66277 -0.00368
C 12.3302 12.77113 -0.02696
C 12.3941 11.29508 -0.00114
C 13.67282 10.70034 0.00228
C 13.72861 9.35567 0.00798
C 12.39077 8.59968 0.00422
C 12.21331 29.66461 0.02058
C 12.29727 7.12533 0.0351
C 13.52935 4.86392 0.02098
C 12.3288 4.21456 0.01848
C 12.29915 2.80086 -0.00619
C 13.51889 2.15892 -0.02162
C 13.47999 0.60419 0.00889
C 12.28026 33.96484 -0.00481
C 14.682 32.56862 0.00979
C 16.00442 31.91995 0.01443
C 13.49404 6.39454 -0.03113
C 13.60689 30.24442 0.01965
C 13.47812 31.70379 -0.03682
C 12.25349 32.56304 0.00052
C 11.00791 30.44388 0.01877
C 9.85624 29.76346 0.01363
C 10.08959 28.3605 -0.02162
C 10.12655 15.60212 0.00415
C 11.50659 15.10046 -0.0014
C 11.15527 13.55659 0.02162
C 9.94229 12.83898 0.0076
C 9.92986 11.40952 0.01241
C 11.143 10.6722 -0.01454
C 11.1215 9.21812 0.01945
C 9.9359 8.59711 0.01416
C 9.91595 7.12158 0.03542
C 11.043 6.44427 0.02299
C 11.10489 4.92208 0.00244
C 9.81732 4.23251 -0.01717
C 9.77148 2.85746 0.05265
C 11.11884 2.1163 -0.01952
C 11.08081 0.59071 -0.02813
C 9.76312 0.00716 0.00374
C 15.96219 30.51183 0.03505
C 10.99522 31.89902 -0.00925
C 14.87661 29.67343 -0.02815
C 15.9712 15.0034 -0.05302
C 18.2849 15.21999 -0.0054
C 18.26919 13.6899 0.00667
C 17.13179 12.86129 0.00143
C 17.52663 11.4857 -0.017
C 17.03984 7.33124 0.00364
C 18.32681 6.64472 -0.00831
C 18.67182 5.09962 -0.02957
C 17.40293 4.28212 -0.04422
C 17.05812 15.70944 0.00755
C 17.30098 2.82211 0.00654
C 18.44655 0.62244 -0.04076
C 17.25605 34.0495 -0.00652
C 19.61241 32.62871 0.0058
C 20.7897 31.86449 -0.00865
C 20.79839 30.4411 0.00675
C 19.52985 29.71976 -0.00311
C 19.39654 28.33412 0.00742
C 20.5697 27.5762 -0.01594
C 18.48201 2.11343 -0.00703
C 18.59733 18.1686 0.01739
C 18.22664 26.35209 0.03754
C 18.0231 27.62718 -0.03557
C 15.92237 13.63899 0.00213
C 14.75511 12.89548 -0.00066
C 14.91041 11.50942 -0.00289
C 16.22291 10.64733 0.00028
C 16.1677 9.19864 -0.02213
C 14.94666 8.51467 0.03698
C 14.79354 7.02128 -0.00109
C 15.98732 6.41878 -0.00491
C 16.06884 4.96249 0.03338
C 14.78495 4.22743 -0.0258
C 14.79801 2.84491 -0.0331
C 16.06436 2.14711 -0.00316
C 15.98168 0.67557 0.02188
C 14.70245 33.99093 -0.01979
C 17.18623 32.56134 0.02691
C 18.41372 31.9252 -0.01581
C 18.23587 30.51635 0.01452
C 17.08896 29.91482 0.04892
C 16.97903 28.44894 -0.00111
C 15.48291 28.32631 -0.04147
C 20.65281 26.09426 0.0106
C 9.76289 32.66295 0.00444
C 8.52466 0.70571 0.02894
C 3.67797 6.47223 0.01849
C 3.66919 5.03784 -0.01142
C 2.36139 4.37649 -0.00562
C 2.44478 3.01097 -0.00494
C 3.58676 2.19368 0.00054
C 3.48239 0.81974 0.03007
C 2.34034 0.01371 -0.00095
C 4.81867 32.73672 0.01572
C 2.39223 7.22261 0.01396
C 6.03503 32.06206 -0.04848
C 4.83978 29.78499 -0.01362
C 4.91702 28.34363 -0.0008
C 6.11398 27.67681 0.0288
C 6.16249 26.27479 0.00393
C 4.90928 25.54992 0.00895
C 4.87268 24.17246 0.00685
C 6.23882 23.3228 0.02888
C 6.10112 21.90497 -0.00482
C 6.02823 30.56503 -0.00892
C 2.41391 8.64413 0.0127
C 3.65598 9.24616 0.02635
C 3.66076 10.70902 -0.01378
C 3.59871 30.53966 -0.00094
C 2.36789 29.83352 0.02322
C 2.35099 28.474 -0.00725
C 3.60669 27.65444 -0.05697
C 3.71365 26.29468 0.01087
C 2.38473 25.55009 -0.01343
C 2.40675 24.1307 0.00988
C 3.661 23.45786 0.0276
C 3.63024 21.98781 0.01305
C 2.42401 21.32242 -0.00077
C 2.43274 19.91518 0.03368
C 3.69477 19.16412 -0.02929
C 3.67776 17.7854 -0.00966
C 2.53708 17.06741 -0.03337
C 2.50459 15.69102 0.01227
C 3.79224 15.07246 0.00873
C 3.73428 13.5809 -0.00049
C 2.50843 12.87584 0.00848
C 2.43736 11.45547 -0.01303
C 4.81399 21.27561 -0.01384
C 7.29271 0.01106 -0.01789
C 4.91354 19.89131 0.03693
C 6.35668 17.93915 0.00488
C 8.63916 26.34091 0.00572
C 7.50485 25.52231 0.03592
C 7.41985 24.18369 0.00406
C 7.50788 17.2415 0.00943
C 7.52442 15.84587 0.02841
C 8.79663 15.06148 -0.01111
C 8.66798 13.56293 -0.01275
C 7.46579 12.82315 0.00985
C 8.62568 27.75617 0.0402
C 7.45056 11.4791 -0.02245
C 8.64173 9.34185 0.03101
C 7.4414 8.60714 -0.01536
C 7.41186 7.20268 -0.02689
C 8.60156 6.42598 -0.01046
C 8.59231 4.95404 -0.00891
C 7.39724 4.30947 0.02819
C 7.3016 2.82573 0.00165
C 8.57096 2.10072 -0.02971
C 8.71982 10.68161 -0.00428
C 7.28449 28.47021 -0.02759
C 7.34444 29.82856 0.03589
C 8.55321 30.54376 -0.00033
C 5.09302 17.20335 -0.01004
C 5.031 15.73346 -0.02896
C 6.24509 15.02553 -0.00131
C 6.23866 13.58205 -0.01118
C 4.98461 12.93026 -0.014
C 4.98403 11.40694 0.02147
C 6.20956 10.77292 0.00373
C 6.18831 9.29908 -0.00191
C 4.96164 8.6105 0.00438
C 4.92491 7.18801 0.01291
C 6.19125 6.41042 0.00093
C 6.2035 5.02527 0.00057
C 4.9206 4.35079 -0.01634
C 4.85476 2.93156 -0.00334
C 6.03869 2.156 0.02339
C 6.08181 0.76921 0.01641
C 4.78167 0.13493 -0.00719
C 7.27642 32.59483 0.01364
C 8.51862 31.94142 -0.01062
C 6.15138 19.3339 0.01745
C 3.60676 31.97992 -0.02566
C 19.33367 25.47547 -0.01154
C 20.73565 23.30956 -0.02422
C 31.91872 32.80354 0.01713
C 33.16225 32.02534 -0.01694
C 33.11703 30.64512 0.01428
C 31.86685 29.824 -0.02142
C 31.92433 28.4614 0.0544
C 33.14161 27.70438 0.00026
C 33.15837 26.35183 0.00682
C 31.9314 25.61794 -0.01779
C 29.37953 0.09379 0.00346
C 32.0181 24.12549 0.03794
C 33.22435 21.95675 0.01574
C 31.99001 21.32308 -0.02383
C 32.01285 19.82606 -0.01429
C 33.28707 19.16923 -0.0136
C 33.25209 17.72823 0.00594
C 32.06517 17.04412 -0.02474
C 31.94359 15.65105 0.00369
C 33.16458 14.89653 0.00455
C 33.19241 23.42252 0.01927
C 30.58455 0.74464 0.00307
C 30.65243 2.21625 0.00716
C 29.42763 2.80327 0.02108
C 30.78104 27.72858 -0.01854
C 30.78026 26.26068 -0.01415
C 29.51179 25.60984 -0.03039
C 29.47971 24.22663 0.01836
C 30.68208 23.44972 0.03531
C 30.75567 21.98117 -0.00669
C 29.55353 21.31174 0.0101
C 29.54959 19.87104 0.01705
C 30.85512 19.13399 -0.0405
C 30.79233 17.71455 -0.01303
C 29.47227 17.04622 -0.01461
C 29.4754 15.61751 -0.02155
C 30.72073 14.96293 -0.00944
C 30.76413 13.4457 -0.03735
C 29.59608 12.81561 -0.00971
C 30.78025 10.7518 0.01518
C 30.71785 9.3321 0.01908
C 30.72217 6.29089 0.07705
C 30.72561 4.93874 0.0103
C 33.23267 13.54681 -0.00644
C 29.54021 28.41407 -0.02049
C 32.00583 12.80678 -0.01839
C 33.12494 10.60459 0.00199
C 1.23954 19.12824 -0.01678
C 1.253 17.7766 0.01223
C 0.02733 17.06502 0.00648
C 0.05396 15.58805 0.02114
C 1.29651 14.97365 -0.02957
C 1.26387 13.61354 0.00343
C 34.39553 12.73334 -0.02656
C 34.36689 11.30886 -0.02442
C 0.01112 19.87231 0.01951
C 1.185 10.71841 -0.00027
C 34.35753 8.52174 -0.02302
C 34.30658 7.11546 -0.02849
C 1.11117 6.40473 0.02931
C 1.1794 5.02317 0.00628
C 34.36231 4.32547 -0.0345
C 0.01374 2.92928 -0.00931
C 1.2653 2.27244 -0.00939
C 1.16138 0.77196 -0.00468
C 1.10609 9.26043 -0.00583
C 34.42444 21.26822 -0.02213
C 1.22912 22.03286 0.02712
C 1.21388 23.3944 0.00723
C 33.09167 9.17944 0.04381
C 31.81148 8.4792 0.02806
C 31.90747 7.11423 0.01504
C 33.11271 6.39571 -0.00069
C 33.17664 5.0415 0.04926
C 31.90143 4.3182 -0.03838
C 31.92495 2.9426 0.00349
C 33.21179 2.17085 -0.00323
C 33.13131 0.79809 -0.00841
C 31.90737 0.1037 0.0001
C 34.36835 32.72615 -0.02927
C 1.1127 31.97645 -0.01404
C 1.10874 30.60352 0.01027
C 34.31079 29.91242 0.01831
C 34.32056 28.46466 -0.01037
C 1.15002 27.76196 -0.00439
C 1.24473 26.29656 -0.00598
C 34.38671 25.61203 -0.05239
C 34.40219 24.2274 0.03076
C 31.90704 11.43247 0.00137
C 19.63591 24.10582 -0.01721
C 29.45309 29.81741 0.03265
C 30.74353 32.03516 0.02326
C 21.96651 25.43483 0.00071
C 22.02362 24.05101 -0.01107
C 23.25433 23.33191 -0.01586
C 23.25273 21.98145 -0.01971
C 22.05873 21.18089 -0.02118
C 22.19406 19.83837 0.00733
C 23.39598 19.19001 -0.00178
C 23.34056 17.71439 0.00768
C 23.19552 26.10849 -0.00225
C 22.08346 17.0232 -0.0276
C 23.08872 14.77767 -0.04078
C 23.08198 13.19745 0.02117
C 21.64093 12.53295 0.02737
C 22.27809 2.58009 -0.00498
C 23.60938 1.95969 0.00135
C 23.29299 0.54456 0.03102
C 22.00955 33.95827 0.02555
C 24.53155 32.52616 0.01423
C 21.97049 15.56647 0.03005
C 23.239 27.60708 0.01515
C 21.96474 28.27123 -0.0055
C 22.03659 29.68138 0.02734
C 20.78217 21.79998 0.01277
C 19.677 19.77517 0.00096
C 20.94611 19.19819 -0.01527
C 20.93995 17.77339 0.01087
C 19.62174 17.21235 0.00199
C 19.53356 15.78431 0.01511
C 20.77816 14.96224 -0.00478
C 20.70956 13.50155 -0.01662
C 19.41196 12.96076 -0.01185
C 18.98285 11.54637 0.01126
C 20.26991 11.03914 0.01852
C 19.76277 4.22927 -0.00381
C 19.67697 2.78686 0.03046
C 20.99818 1.98969 0.0296
C 20.84769 0.62895 0.03374
C 19.58376 33.9914 -0.02845
C 22.08401 32.51447 -0.03213
C 23.26645 31.81643 0.02239
C 23.27284 30.40658 0.01153
C 25.77339 31.87518 -0.00285
C 30.69401 30.60157 0.00261
C 25.7538 30.52267 -0.009
C 24.5652 28.32633 -0.00229
C 28.30706 27.72847 0.02316
C 28.27389 26.32331 0.04185
C 27.02897 25.55594 0.00194
C 27.04342 24.14744 -0.00621
C 28.2337 23.47875 0.02611
C 28.2764 22.02101 0.02198
C 27.04163 21.27908 0.01094
C 27.01053 19.82378 0.00235
C 27.04885 28.45367 0.01257
C 28.2623 19.10286 0.01495
C 27.01535 17.07378 0.01799
C 26.96543 15.64658 0.01699
C 28.21807 14.88347 -0.00416
C 28.3804 13.51142 0.01177
C 28.19203 2.2577 0.04266
C 28.14252 0.82727 0.01324
C 26.93763 0.07129 0.0014
C 29.42801 32.70643 0.00924
C 28.26803 17.74496 0.01259
C 27.05377 29.79448 0.00152
C 28.24212 30.48713 -0.00294
C 28.21608 31.97798 0.00826
C 25.78809 27.63315 -0.00938
C 25.79253 26.15477 -0.0264
C 24.44337 25.49623 -0.01154
C 24.513 23.9975 0.00684
C 25.78433 23.42321 -0.01052
C 25.79218 22.04729 -0.01679
C 24.62509 21.32272 0.00367
C 24.55359 19.88383 0.04306
C 25.82412 19.16936 0.00996
C 25.77991 17.73808 0.00195
C 24.56142 16.98739 -0.00802
C 24.32882 15.47214 -0.00218
C 25.71989 14.85923 -0.01654
C 25.56362 13.47223 -0.00037
C 24.39032 12.92671 -0.0032
C 25.30843 2.05688 0.00622
C 25.68118 0.75661 -0.02815
C 24.44227 33.95973 -0.00942
C 27.03442 32.72951 0.00487
C 24.56012 29.69897 -0.01199
C 2.3547 32.6822 -0.03113
