404
Graphene
C 0.01505 34.02633 0.01295
C 13.47821 26.26418 -0.01046
C 12.25944 25.63161 -0.00891
C 12.25849 24.2151 0.02819
C 13.4899 23.48325 0.00165
C 13.52433 21.99229 -0.02971
C 12.29591 21.35276 0.02894
C 12.32264 19.91197 -0.01789
C 13.45461 19.04491 0.00444
C 13.50363 17.67472 -0.00925
C 12.2668 16.98042 0.01877
C 12.3443 15.55496 0.01363
C 13.61766 14.88008 -0.02162
C 13.63455 13.44564 0.00415
C 12.35028 12.8422 -0.0014
C 12.28802 11.34766 0.02162
C 13.47068 10.61318 0.0076
C 13.46935 9.16649 0.01241
C 12.28022 8.43333 -0.01454
C 12.29523 7.04665 0.01945
C 13.62471 6.37674 0.01416
C 13.4841 4.95737 0.03542
C 13.46064 27.73237 -0.02689
C 12.23802 4.2404 0.02299
C 12.24597 28.53792 -0.01536
C 13.53815 30.58019 -0.00428
C 11.02837 19.17608 0.00057
C 11.07424 17.74316 -0.01634
C 9.8477 17.0629 -0.00334
C 9.86379 15.63456 0.02339
C 11.12624 14.95951 0.01641
C 11.14017 13.54978 -0.00719
C 9.88695 12.85583 0.01364
C 9.80122 11.44496 -0.01062
C 11.03586 10.69653 -0.00033
C 11.05713 9.26956 0.03589
C 9.83485 8.5675 -0.02759
C 9.89071 7.08719 0.0402
C 11.07864 6.32352 0.00572
C 11.04326 4.95574 0.03592
C 9.80591 4.23829 0.00406
C 9.81065 2.88823 0.00943
C 11.09365 2.12531 0.02841
C 11.13034 0.7343 -0.01111
C 9.86905 0.00526 -0.01275
C 12.33738 32.70609 0.00985
C 13.54218 31.98489 -0.02245
C 12.29633 29.93824 0.03101
C 12.24178 2.8263 0.00244
C 13.48791 2.09956 -0.01717
C 13.57666 0.64616 0.05265
C 15.9979 6.41666 -0.02815
C 15.96134 4.98741 -0.04147
C 14.71361 4.27283 -0.05302
C 14.69776 2.83562 0.00213
C 15.94912 2.18943 -0.00066
C 16.05073 0.67002 -0.00289
C 14.82334 34.03402 0.00028
C 17.24043 32.63603 -0.02213
C 18.46968 31.85346 0.03698
C 18.42747 30.48666 -0.00109
C 17.23943 29.75968 -0.00491
C 17.23162 28.33232 0.03338
C 18.49595 27.66743 -0.0258
C 18.45203 26.24953 -0.0331
C 17.17906 25.57503 -0.00316
C 17.16653 24.21341 0.02188
C 18.39488 23.5276 -0.01979
C 18.39708 22.04193 0.02691
C 17.14541 21.30097 -0.01581
C 17.20206 19.8717 0.01452
C 18.45837 19.25532 0.04892
C 14.7827 7.13185 0.03505
C 14.74378 8.50547 0.01443
C 15.99421 9.29708 0.00979
C 15.99781 10.68307 -0.00481
C 12.34981 0.02312 -0.01952
C 14.80679 32.65096 -0.02813
C 16.0501 31.94719 0.00374
C 16.00685 30.51679 0.00052
C 14.6877 29.82162 -0.03682
C 14.67074 28.44055 0.01965
C 15.90667 27.72885 0.02058
C 15.94904 26.29279 -0.01957
C 14.74952 25.51139 -0.0108
C 14.77764 24.11062 -0.00368
C 9.80852 19.82275 0.00093
C 15.9107 23.44581 -0.02696
C 14.73823 21.21461 0.00228
C 14.65063 19.81307 0.00798
C 15.98485 19.09504 0.00422
C 15.92657 17.72251 0.0351
C 14.76281 16.96103 -0.03113
C 14.81853 15.5732 0.02098
C 16.03318 14.92469 0.01848
C 16.05158 13.45262 -0.00619
C 14.82276 12.74404 -0.02162
C 14.76115 11.29355 0.00889
C 15.93167 21.99471 -0.00114
C 18.40089 17.7459 -0.00111
C 9.82032 21.29777 0.01291
C 11.03786 23.46594 -0.00191
C 2.4015 0.07697 0.00643
C 6.05812 31.91518 -0.01509
C 6.07878 30.58543 0.03267
C 5.00071 28.49607 0.02374
C 6.10228 27.79952 0.00402
C 6.08541 26.3137 0.0073
C 4.91009 25.60774 0.0174
C 4.81877 24.24157 0.03828
C 6.06078 23.48072 0.01226
C 6.08836 22.0568 -0.00279
C 4.88553 21.34658 0.01996
C 4.92701 19.92253 -0.03996
C 6.17197 19.18542 0.01465
C 6.1754 17.81796 -0.00074
C 4.93898 16.9937 -0.00518
C 4.9007 15.5712 0.0086
C 6.14825 14.89363 -0.00643
C 6.1769 13.4421 0.017
C 4.91523 12.87794 -0.03113
C 4.89085 11.37837 -0.02566
C 6.10773 10.68737 -0.00094
C 3.63876 0.56329 0.00907
C 6.13423 9.25126 0.02322
C 3.66817 2.06975 0.02379
C 2.43409 4.18259 -0.003
C 3.6437 26.29657 0.00081
C 2.41848 25.6651 0.00245
C 2.38908 24.14385 0.02728
C 3.65661 23.49775 -0.00039
C 3.70365 22.08605 0.0064
C 2.46095 21.2458 0.00211
C 2.42666 19.84225 -0.00449
C 3.68242 19.17255 -0.01979
C 3.77042 17.74068 0.02784
C 2.51258 17.07669 -0.01977
C 2.45868 15.68442 -0.00561
C 3.6529 14.91687 0.00208
C 3.63711 13.4832 0.01707
C 2.40196 12.70605 0.02769
C 2.36802 11.38113 -0.03291
C 3.66211 10.71121 -0.04999
C 3.64785 9.27037 0.04505
C 2.47901 8.57217 0.03284
C 2.46136 7.14933 -0.04307
C 3.66311 6.41578 0.03189
C 3.60726 4.95095 0.00031
C 2.45911 2.77158 0.01402
C 4.86333 8.58672 -0.00725
C 4.93175 7.09318 -0.05697
C 6.10457 6.37634 0.01087
C 7.36719 11.36871 -0.04848
C 8.57742 10.6971 -0.00892
C 8.62978 9.24906 -0.01362
C 7.35511 8.54544 -0.0008
C 7.30857 7.05612 0.0288
C 8.6107 6.43737 0.00393
C 8.57226 5.01596 0.00895
C 7.39177 4.27379 0.00685
C 7.36239 2.85644 0.02888
C 8.59855 2.12487 -0.00482
C 8.65928 0.73502 -0.01384
C 7.39274 0.01366 0.03693
C 9.89358 32.73952 0.01745
C 11.1356 32.03272 0.00488
C 11.08643 30.68283 -0.01004
C 9.85125 29.91006 -0.02896
C 9.82621 28.5054 -0.00131
C 10.97635 27.82604 -0.01118
C 10.97944 26.37949 -0.014
C 9.78537 25.62229 0.02147
C 9.7587 24.16219 0.00373
C 7.41738 12.75231 0.01572
C 8.60128 13.59384 -0.00095
C 8.60063 14.98092 0.03007
C 7.39008 15.67592 0.00054
C 6.09267 4.93288 -0.01343
C 4.89592 4.30311 0.00988
C 4.93137 2.82744 0.0276
C 6.12116 2.16701 0.01305
C 6.10353 0.72725 -0.00077
C 4.97757 0.05246 0.03368
C 7.27364 32.69642 -0.02929
C 8.58838 31.9929 -0.00966
C 8.61165 30.63966 -0.03337
C 7.35013 29.84182 0.01227
C 11.0425 22.04907 0.00438
C 7.38915 28.40921 0.00873
C 8.53542 26.32278 0.00848
C 7.32228 25.58557 -0.01303
C 7.2896 24.14099 -0.01378
C 8.54081 23.49364 0.02635
C 8.57576 21.97084 0.0127
C 7.3703 21.38267 0.01396
C 7.33988 19.88336 0.01849
C 8.5667 19.18679 -0.01142
C 8.65252 17.77943 -0.00562
C 7.43008 17.09812 -0.00494
C 8.60003 27.78929 -0.00049
C 17.19751 17.07257 -0.03557
C 17.27466 15.69443 0.03754
C 18.48844 14.92462 0.01739
C 30.76867 10.77147 -0.00971
C 30.53993 9.39184 0.01518
C 29.61632 8.36036 0.01908
C 29.57405 7.09603 0.07705
C 30.7747 6.36459 0.0103
C 30.78672 4.93774 0.02108
C 29.5505 4.23208 0.00716
C 29.48752 2.82762 0.00307
C 30.75621 2.11957 0.00346
C 30.74406 0.6885 0.01713
C 29.51222 34.0424 -0.01694
C 32.01155 32.59273 0.01428
C 33.27872 31.91026 -0.02142
C 33.26657 30.44741 0.0544
C 31.98992 29.82021 0.00026
C 32.0082 28.4211 0.00682
C 33.1934 27.72865 -0.01779
C 33.17997 26.21133 0.03794
C 31.91684 25.53943 0.01927
C 31.93129 24.13557 0.01574
C 33.14135 23.41711 -0.02383
C 30.69899 13.3917 -0.03735
C 33.11941 21.99069 -0.01429
C 30.61812 14.83706 -0.00944
C 29.47877 17.10541 -0.01461
C 26.96432 6.88098 0.01699
C 28.2638 6.35503 -0.00416
C 28.41382 5.06599 0.01177
C 28.36001 2.10616 0.04266
C 28.26852 0.66726 0.01324
C 27.01217 34.03978 0.0014
C 29.53561 32.6616 0.00924
C 30.74484 31.99628 0.02326
C 30.77316 30.55443 0.00261
C 29.53291 29.87598 0.03265
C 29.51905 28.45393 -0.02049
C 30.77644 27.75487 -0.01854
C 30.77159 26.26561 -0.01415
C 29.49574 25.56917 -0.03039
C 29.47258 24.19081 0.01836
C 30.7044 23.43417 0.03531
C 30.71891 21.96654 -0.00669
C 29.54601 21.26991 0.0101
C 29.44613 19.85832 0.01705
C 30.64513 19.13141 -0.0405
C 30.71851 17.78042 -0.01303
C 29.62903 15.70941 -0.02155
C 31.9511 21.28137 -0.0136
C 31.93909 19.81734 0.00594
C 33.14592 19.14444 -0.02474
C 1.23516 21.98354 0.02712
C 34.39687 21.34096 -0.02213
C 34.37653 19.86673 0.01951
C 1.13984 19.13421 -0.01678
C 1.19067 17.7123 0.01223
C 34.36039 17.09175 0.00648
C 34.40965 15.56884 0.02114
C 1.21075 14.92824 -0.02957
C 1.21571 13.47736 0.00343
C 34.37721 12.78188 -0.02656
C 34.33271 11.3054 -0.02442
C 1.17166 10.6305 -0.00027
C 1.19144 9.23426 -0.00583
C 34.4236 8.50479 -0.02302
C 34.35777 7.077 -0.02849
C 1.2721 6.42616 0.02931
C 1.23485 5.01227 0.00628
C 0.00547 4.31233 -0.0345
C 34.36655 2.89328 -0.00931
C 1.11416 2.14391 -0.00939
C 1.16969 0.7211 -0.00468
C 1.22098 23.41002 0.00723
C 34.41302 24.10956 0.03076
C 34.38418 25.53931 -0.05239
C 1.13565 26.28376 -0.00598
C 33.16243 17.77347 0.00369
C 31.94409 17.04857 0.00455
C 31.93079 15.6279 -0.00644
C 33.20074 14.86695 -0.01839
C 33.19795 13.48636 0.00137
C 31.91326 12.77874 0.00199
C 31.91373 11.36627 0.04381
C 33.12063 10.59336 0.02806
C 33.19948 9.13205 0.01504
C 31.89182 8.54634 -0.00069
C 26.95886 16.95504 0.01799
C 31.94119 7.14267 0.04926
C 33.1442 4.98405 0.00349
C 31.9851 4.24165 -0.00323
C 31.97112 2.82581 -0.00841
C 33.192 2.08464 0.0001
C 33.1955 0.6731 -0.02927
C 31.9963 34.03377 -0.01404
C 34.3804 32.6986 0.01027
C 0.08592 29.73638 0.01831
C 34.4107 28.37271 -0.01037
C 1.20666 27.67962 -0.00439
C 33.14793 6.38764 -0.03838
C 28.19782 17.61211 0.01259
C 28.18738 19.12446 0.01495
C 27.0186 19.88077 0.00235
C 19.69369 19.94592 0.01087
C 20.87195 19.13478 0.00199
C 20.84249 17.68066 0.01511
C 19.59582 16.97825 -0.00478
C 19.68823 15.57786 -0.01662
C 19.55035 12.64111 -0.01185
C 19.72741 11.37657 0.01126
C 19.6578 8.49874 0.01852
C 19.70611 7.10054 -0.00381
C 21.03264 6.35595 0.03046
C 20.88738 4.93473 0.0296
C 19.6739 4.25839 0.03374
C 19.64522 2.80101 -0.02845
C 20.97783 2.12178 -0.03213
C 20.93271 0.5774 0.02239
C 19.7334 34.07069 0.01153
C 22.16552 32.57542 0.02734
C 23.39694 31.95994 -0.0055
C 23.42931 30.55035 0.01515
C 22.15403 29.83149 -0.00225
C 22.16494 28.43516 0.00071
C 19.65326 21.33134 -0.01527
C 20.90639 22.03407 0.00096
C 20.90402 23.42822 0.01277
C 19.715 24.11924 -0.02422
C 18.54864 13.46916 0.00755
C 17.24495 12.82034 -0.0054
C 17.31993 11.33353 0.00667
C 18.5518 10.6667 0.00143
C 18.52396 9.22244 -0.017
C 17.20706 8.5925 0.00364
C 17.19214 7.16938 -0.00831
C 18.43966 6.40885 -0.02957
C 18.43303 4.9998 -0.04422
C 17.18683 4.22736 0.00654
C 23.36018 27.7405 -0.01107
C 17.16915 2.91113 -0.00703
C 18.48794 0.70889 -0.00652
C 17.31092 0.01817 0.0058
C 19.62674 32.63336 -0.00865
C 20.91751 31.90982 0.00675
C 20.91941 30.47472 -0.00311
C 19.73589 29.82708 0.00742
C 19.66848 28.39478 -0.01594
C 20.9863 27.65526 0.0106
C 20.92549 26.24192 -0.01154
C 19.72359 25.54931 -0.01721
C 18.43577 2.14912 -0.04076
C 3.72825 27.85323 -0.02805
C 23.30757 26.33762 -0.01586
C 22.1829 24.12818 -0.02118
C 24.57387 21.27209 0.00195
C 24.53693 19.82419 -0.00802
C 25.73094 19.13985 -0.00218
C 25.76074 17.61789 -0.01654
C 24.5515 17.06575 -0.00037
C 25.71498 6.73007 -0.0032
C 24.62055 2.86941 0.00622
C 25.84927 0.66583 -0.02815
C 24.62299 0.02248 -0.00942
C 27.10783 32.63429 0.00487
C 28.31781 31.87961 0.00826
C 28.29707 30.51951 -0.00294
C 27.04806 29.87429 0.00152
C 27.07395 28.37036 0.01257
C 28.34783 27.70805 0.02316
C 28.23927 26.29112 0.04185
C 26.98075 25.54989 0.00194
C 26.99365 24.10217 -0.00621
C 28.27533 23.43974 0.02611
C 28.36984 22.04651 0.02198
C 27.08064 21.32613 0.01094
C 25.86414 22.0129 0.00996
C 25.78148 23.41358 0.04306
C 24.54338 24.11077 0.00367
C 24.44714 25.5323 -0.01679
C 23.33051 23.35682 0.00733
C 23.35265 21.98003 -0.00178
C 22.14827 21.23952 0.00768
C 22.10315 19.79667 -0.0276
C 23.29047 19.06867 0.03005
C 23.30356 17.59841 -0.04078
C 21.98431 17.07 0.02117
C 22.29256 7.04046 0.02737
C 23.42403 6.37375 -0.00498
C 23.22986 5.15272 0.00135
C 22.11036 25.54383 -0.01971
C 22.17508 4.2538 0.03102
C 23.47088 2.09435 0.01423
C 23.36461 0.69162 -0.00285
C 22.23389 33.97781 -0.009
C 24.55822 32.71241 -0.01199
C 25.88573 31.90937 -0.00229
C 25.80881 30.5511 -0.00938
C 24.64059 29.8013 -0.0264
C 24.61386 28.3994 -0.01154
C 25.88236 27.67968 0.00684
C 25.79615 26.26239 -0.01052
C 22.19152 2.86622 0.02555
C 2.38336 28.38091 -0.01386
