338
Graphene
C 0.01699 0.02826 0.01295
C 14.79416 8.51712 0.00889
C 14.71342 7.16398 -0.00481
C 15.9517 6.41794 0.00979
C 14.78379 4.2685 0.01443
C 14.80762 2.87552 0.03505
C 15.99904 2.13448 -0.02815
C 15.95456 0.70608 -0.04147
C 14.72228 0.01038 -0.05302
C 17.18337 32.55684 0.00213
C 18.43221 31.92062 -0.00066
C 18.50402 30.55809 -0.00289
C 17.28757 29.77954 0.00028
C 17.24186 28.36771 -0.02213
C 18.48704 19.12741 0.03698
C 18.41797 17.79735 -0.00109
C 17.22756 15.56032 -0.00491
C 18.42128 14.84673 0.03338
C 15.93146 9.21146 -0.02162
C 18.50719 13.42337 -0.0258
C 15.93895 10.64793 -0.00619
C 15.96894 13.51139 0.02098
C 13.55102 10.602 -0.01952
C 13.48419 9.25908 -0.02813
C 12.22065 8.56038 0.00374
C 12.30679 7.12198 0.00052
C 13.55905 6.42066 -0.03682
C 13.56531 4.98327 0.01965
C 12.31408 4.24961 0.02058
C 12.27425 2.84834 -0.01957
C 13.53166 2.1273 -0.0108
C 13.55698 0.73511 -0.00368
C 12.31201 0.04933 -0.02696
C 14.73214 32.67306 -0.00114
C 15.96541 32.0115 0.00228
C 16.00362 30.46769 0.00798
C 14.75052 29.83093 0.00422
C 14.7961 28.40213 0.0351
C 16.08218 27.67677 -0.03113
C 14.70513 11.26008 0.01848
C 13.53245 26.29635 0.05265
C 17.21824 12.74439 -0.0331
C 18.38158 10.63362 0.02188
C 19.72278 0.02103 -0.00652
C 22.20627 32.65532 0.0058
C 23.3742 31.96627 -0.00865
C 23.39363 30.54937 0.00675
C 22.0971 29.89893 -0.00311
C 22.12805 28.41183 0.00742
C 23.37248 27.60805 -0.01594
C 23.37086 26.2052 0.0106
C 22.14017 25.62971 -0.01154
C 23.3645 23.41658 -0.01721
C 23.2892 22.02741 -0.02422
C 22.12546 21.29873 0.01277
C 22.11481 19.84947 0.00096
C 23.40464 19.22208 -0.01527
C 23.37505 17.6995 0.01087
C 22.15839 17.02666 0.00199
C 22.13377 15.61161 0.01511
C 20.96584 0.65181 -0.04076
C 17.14836 11.37019 -0.00316
C 20.88548 9.17606 -0.00703
C 19.68522 11.33879 -0.04422
C 18.47506 9.18329 -0.01979
C 17.22817 8.60534 0.02691
C 18.4076 0.69451 -0.01581
C 17.19354 0.0104 0.01452
C 19.62794 32.68289 0.04892
C 20.90878 31.98957 -0.00111
C 20.88264 30.53505 -0.03557
C 19.71842 29.78419 0.03754
C 19.71837 28.37099 0.01739
C 20.88689 27.71774 0.00755
C 20.91634 19.1738 -0.0054
C 20.94406 17.77703 0.00667
C 19.6793 17.03217 0.00143
C 19.68676 15.57689 -0.017
C 20.88718 14.91299 0.00364
C 20.91433 13.49925 -0.00831
C 19.72344 12.81128 -0.02957
C 20.87858 10.66245 0.00654
C 13.50712 27.68897 -0.01717
C 12.27096 28.41586 0.00244
C 12.32397 29.80561 0.02299
C 3.65115 2.12919 0.03693
C 3.68145 0.71816 0.01745
C 2.48763 34.07136 0.00488
C 4.86875 32.65809 -0.01004
C 6.12429 31.92939 -0.02896
C 6.11697 30.535 -0.00131
C 4.94406 29.7847 -0.01118
C 4.87623 28.37989 -0.014
C 6.16423 27.67552 0.02147
C 6.18155 26.28424 0.00373
C 4.91391 25.65639 -0.00191
C 4.99042 11.29786 0.00438
C 6.07343 10.67633 0.01291
C 6.15418 9.24891 0.00093
C 4.93177 8.56167 0.00057
C 4.93563 7.06582 -0.01634
C 6.15135 6.42151 -0.00334
C 2.42415 2.8457 -0.01384
C 6.1261 4.99228 0.02339
C 2.45352 4.26401 -0.00482
C 3.68495 6.45169 0.00685
C 3.71794 30.49153 0.0127
C 2.47171 29.84381 0.01396
C 2.48255 28.42673 0.01849
C 3.70731 27.70628 -0.01142
C 3.62729 26.31256 -0.00562
C 2.47492 25.55895 -0.00494
C 2.47288 24.10077 0.00054
C 3.65783 23.40388 0.03007
C 2.41492 21.31759 -0.00095
C 2.45666 15.57792 0.01572
C 3.70076 13.50183 -0.04848
C 2.46066 12.76687 -0.00892
C 2.50251 11.33586 -0.01362
C 3.69587 10.67268 -0.0008
C 3.65028 9.21983 0.0288
C 2.43985 8.61885 0.00393
C 2.45923 7.1191 0.00895
C 3.71878 4.94045 0.02888
C 4.91498 4.29346 0.01641
C 4.98054 2.84505 -0.00719
C 6.12128 2.11109 0.01364
C 9.88074 29.81636 -0.02971
C 9.75631 28.36068 0.02894
C 11.03836 27.7645 -0.01789
C 11.01907 26.31964 0.00444
C 11.04839 9.23473 -0.00925
C 9.8642 8.57307 0.01877
C 9.85429 7.02509 0.01363
C 11.1052 6.38553 -0.02162
C 11.07748 5.00627 0.00415
C 9.84205 4.2989 -0.0014
C 9.83386 2.84233 0.02162
C 11.02889 2.06724 0.0076
C 11.055 0.68228 0.01241
C 9.88095 34.0593 -0.01454
C 12.30109 32.64563 0.01945
C 13.52005 32.00023 0.01416
C 13.52652 30.59451 0.03542
C 11.04532 30.53958 0.00165
C 11.1322 31.93184 0.02819
C 9.91973 32.64367 -0.00891
C 7.41315 0.06139 -0.01046
C 6.12777 0.65079 -0.01062
C 4.89769 34.06673 -0.00033
C 7.33077 32.68136 0.03589
C 8.5585 31.89133 -0.02759
C 8.61457 30.52852 0.0402
C 7.35462 29.84354 0.00572
C 7.33419 28.45007 0.03592
C 8.61306 27.63216 0.00406
C 23.34041 14.93206 -0.00478
C 8.58277 26.28881 0.00943
C 7.40553 8.5455 -0.01111
C 7.37399 7.11825 -0.01275
C 8.62217 6.40056 0.00985
C 8.63563 5.01126 -0.02245
C 7.36143 4.27916 -0.00428
C 7.34406 2.88177 0.03101
C 8.6326 2.11372 -0.01536
C 8.62392 0.74598 -0.02689
C 8.58988 9.2689 0.02841
C 23.38696 13.53251 -0.01662
C 22.09647 12.84202 -0.01185
C 22.13534 11.37417 0.01126
C 31.98955 29.82076 -0.02142
C 31.93826 28.39302 0.0544
C 33.21919 27.73574 0.00026
C 33.20692 26.26456 0.00682
C 31.984 25.53699 -0.01779
C 31.95935 24.17877 0.03794
C 33.19204 23.46383 0.01927
C 33.22993 22.00443 0.01574
C 31.94096 21.30411 -0.02383
C 31.93782 19.92068 -0.01429
C 33.20205 19.1503 -0.0136
C 33.20523 17.74349 0.00594
C 31.93327 17.08882 -0.02474
C 31.97028 15.61984 0.00369
C 33.26291 14.94228 0.00455
C 33.23697 13.43364 -0.00644
C 31.95907 12.79904 -0.01839
C 33.16376 30.5233 0.01428
C 31.97215 11.34314 0.00137
C 33.18294 31.9827 -0.01694
C 29.44499 34.05653 0.00346
C 30.70421 17.73892 -0.00669
C 29.47744 16.98793 0.0101
C 29.52611 15.65182 0.01705
C 30.72741 14.91809 -0.0405
C 30.75142 13.53084 -0.01303
C 29.50729 12.76461 -0.01461
C 29.52176 11.3579 -0.02155
C 30.74716 10.66067 -0.00944
C 30.77631 9.24743 -0.03735
C 29.52491 8.56557 -0.00971
C 29.5081 7.08908 0.01518
C 30.74104 6.40921 0.01908
C 30.73216 4.98064 0.07705
C 29.45542 4.29807 0.0103
C 29.55609 2.84409 0.02108
C 30.75715 2.0798 0.00716
C 30.79255 0.66862 0.00307
C 31.95249 32.67821 0.01713
C 33.18212 10.66767 0.00199
C 33.20121 9.23663 0.04381
C 31.96736 8.50989 0.02806
C 1.21694 17.74496 0.01223
C 34.4196 17.04557 0.00648
C 0.02868 15.64911 0.02114
C 1.23823 14.8492 -0.02957
C 1.26157 13.45991 0.00343
C 0.0224 12.77328 -0.02656
C 34.40757 11.39516 -0.02442
C 1.2223 10.63347 -0.00027
C 1.18631 9.24488 -0.00583
C 0.03081 8.48093 -0.02302
C 34.38954 7.06052 -0.02849
C 1.18741 6.39197 0.02931
C 1.1938 4.93239 0.00628
C 34.39797 4.26006 -0.0345
C 34.42996 2.83502 -0.00931
C 1.25479 2.08514 -0.00939
C 1.27564 0.70013 -0.00468
C 1.24868 19.19799 -0.01678
C 0.05429 19.86691 0.01951
C 34.41818 21.23497 -0.02213
C 1.22668 22.01877 0.02712
C 31.9951 7.09386 0.01504
C 33.16555 6.38325 -0.00069
C 33.21327 4.95375 0.04926
C 31.9713 4.27855 -0.03838
C 31.9649 2.86765 0.00349
C 33.21712 2.17981 -0.00323
C 33.19306 0.69866 -0.00841
C 32.0104 0.04157 0.0001
C 30.70753 19.17834 0.03531
C 34.43099 32.66337 -0.02927
C 1.22917 30.51877 0.01027
C 0.03189 29.85694 0.01831
C 0.03657 28.41203 -0.01037
C 1.21232 27.63889 -0.00439
C 1.24056 26.28831 -0.00598
C 0.0 25.5988 -0.05239
C 0.02053 24.20475 0.03076
C 1.18534 23.38001 0.00723
C 1.20185 31.94343 -0.01404
C 3.68259 31.94143 0.02635
C 29.57554 19.86987 0.01836
C 30.69926 22.00318 -0.01415
C 25.77458 17.77761 -0.0276
C 24.58298 17.00935 0.03005
C 24.5464 15.60754 -0.04078
C 25.79852 14.87916 0.02117
C 25.84013 13.55459 0.02737
C 24.62449 12.84709 -0.00498
C 24.60214 11.37574 0.00135
C 25.82737 10.62771 0.03102
C 25.7684 9.18329 0.02555
C 24.54347 8.53587 0.01423
C 24.59774 7.09797 -0.00285
C 25.86862 6.34435 -0.009
C 25.83128 4.93982 -0.01199
C 24.54122 4.33243 -0.00229
C 24.5962 2.8965 -0.00938
C 25.81154 2.19228 -0.0264
C 25.82375 0.7423 -0.01154
C 25.78072 19.16426 0.00768
C 24.59681 0.04783 0.00684
C 24.59663 19.86586 -0.00178
C 25.8228 22.00979 -0.02118
C 23.33793 10.60566 0.01852
C 23.34564 9.19972 -0.00381
C 22.09832 8.52893 0.03046
C 23.37358 6.46545 0.0296
C 23.36781 2.05344 0.03374
C 23.35922 0.67994 -0.02845
C 22.08866 34.05754 -0.03213
C 24.60275 32.72087 0.02239
C 25.87 31.94135 0.01153
C 25.74322 30.4591 0.02734
C 24.55113 29.80579 -0.0055
C 24.59927 28.40277 0.01515
C 25.80052 27.66346 -0.00225
C 25.77773 26.30645 0.00071
C 24.62699 25.51099 -0.01107
C 24.60533 24.11885 -0.01586
C 25.85926 23.45638 -0.01971
C 24.5585 21.2937 0.00733
C 27.07507 32.58153 -0.01052
C 28.29582 31.91937 -0.01679
C 28.25296 30.52737 0.00367
C 28.31217 6.37899 0.01094
C 28.32155 4.94809 0.00235
C 27.0428 4.28394 0.01495
C 26.99118 2.85061 0.01259
C 28.23129 2.10547 0.01799
C 28.27586 0.64455 0.01699
C 27.02046 34.0749 -0.00416
C 29.53204 32.64036 0.01177
C 30.78008 31.9289 0.04266
C 30.65754 30.5341 0.01324
C 29.45614 29.7609 0.0014
C 29.53096 28.37323 0.00924
C 30.76298 27.65113 0.02326
C 30.75859 26.21693 0.00261
C 29.54291 25.49589 0.03265
C 29.54019 24.08578 -0.02049
C 30.73924 23.44584 -0.01854
C 27.0751 7.03829 0.02198
C 27.02765 8.50174 0.02611
C 28.26419 9.26194 -0.00621
C 28.33383 10.61113 0.00194
C 27.12523 29.79603 0.04306
C 27.02355 28.36608 0.00996
C 28.27922 27.68114 0.00195
C 28.30574 26.2821 -0.00802
C 27.05859 25.56894 -0.00218
C 27.08925 24.16446 -0.01654
C 28.25622 23.40744 -0.00037
C 28.30892 22.03189 -0.0032
C 29.57625 21.30124 -0.03039
C 27.09641 21.30754 0.00622
C 28.31269 19.19469 -0.00942
C 28.27644 17.77047 0.00487
C 27.06766 16.97932 0.00826
C 27.02784 15.63243 -0.00294
C 28.30517 14.92125 0.00152
C 28.26682 13.54635 0.01257
C 27.01953 12.7654 0.02316
C 27.06706 11.36471 0.04185
C 27.02673 19.88943 -0.02815
C 2.45394 32.67006 -0.01378
