361
Graphene
C 34.34659 0.06547 0.01295
C 15.76569 10.66617 0.02058
C 15.95304 9.30129 -0.01957
C 14.77242 8.59684 -0.0108
C 14.76644 7.16862 -0.00368
C 15.97215 6.44408 -0.02696
C 15.99507 5.04304 -0.00114
C 14.7468 4.26503 0.00228
C 14.79832 2.847 0.00798
C 14.50821 11.51257 0.01965
C 15.983 2.05763 0.00422
C 14.77892 0.11032 -0.03113
C 17.22217 19.78616 0.02098
C 18.45126 19.12282 0.01848
C 18.38004 17.67048 -0.00619
C 17.10801 17.02086 -0.02162
C 17.05968 15.52341 0.00889
C 18.38299 14.90091 -0.00481
C 18.35601 13.52303 0.00979
C 16.11639 0.57848 0.0351
C 14.62638 13.00524 -0.03682
C 15.93574 13.51476 0.00052
C 15.83082 14.80589 0.00374
C 13.70365 17.84783 -0.00925
C 13.60006 14.02772 0.01877
C 13.55181 10.67645 0.01363
C 13.53866 9.26545 -0.02162
C 12.33664 8.49414 0.00415
C 12.31284 7.11823 -0.0014
C 13.53875 6.43373 0.02162
C 13.55132 4.96168 0.0076
C 12.32528 4.23511 0.01241
C 12.3379 2.88285 -0.01454
C 13.58443 2.14242 0.01945
C 13.48855 0.79373 0.01416
C 12.23636 0.03242 0.03542
C 14.71298 21.28193 0.02299
C 14.88935 19.84995 0.00244
C 16.09465 19.01785 -0.01717
C 15.93734 17.59173 0.05265
C 14.57779 16.83583 -0.01952
C 14.55407 15.34383 -0.02813
C 17.08203 12.82081 0.01443
C 13.6659 19.17687 0.00444
C 17.02959 11.3795 0.03505
C 18.48127 9.25066 -0.04147
C 20.86929 9.22969 0.00755
C 19.64518 8.56309 -0.0054
C 19.63384 7.11519 0.00667
C 20.85213 6.34942 0.00143
C 20.85297 4.95781 -0.017
C 19.60967 4.29824 0.00364
C 19.70852 2.74927 -0.00831
C 20.90842 2.03425 -0.02957
C 20.88515 10.6629 0.01739
C 20.98685 0.58873 -0.04422
C 22.26925 32.62493 -0.00703
C 23.43704 31.87265 -0.04076
C 23.35359 30.44767 -0.00652
C 22.11545 29.74176 0.0058
C 23.34107 27.57107 -0.00865
C 23.17551 26.27922 0.00675
C 21.95186 24.14409 -0.00311
C 23.22027 23.41872 0.00742
C 19.75537 33.97387 0.00654
C 19.59312 11.3711 0.03754
C 19.57561 12.79694 -0.03557
C 20.82717 13.46594 -0.00111
C 17.23273 8.53637 -0.05302
C 17.20425 7.08453 0.00213
C 18.42432 6.39593 -0.00066
C 18.39469 4.97199 -0.00289
C 17.1659 4.24866 0.00028
C 17.23537 2.81258 -0.02213
C 18.48583 2.07247 0.03698
C 18.50844 0.62709 -0.00109
C 17.32604 34.04667 -0.00491
C 19.94711 32.50209 0.03338
C 20.91327 31.82383 -0.0258
C 20.90241 22.03836 -0.0331
C 19.83567 21.39063 -0.00316
C 19.73052 19.80824 0.02188
C 20.91934 19.10675 -0.01979
C 20.83781 17.70017 0.02691
C 19.5873 16.99744 -0.01581
C 19.62151 15.58963 0.01452
C 20.89976 14.91128 0.04892
C 18.32987 10.69104 -0.02815
C 12.37568 19.72863 -0.01789
C 12.18778 21.07788 0.02894
C 13.62996 21.71839 -0.02971
C 4.92132 32.70041 0.0127
C 6.12674 32.00576 0.01396
C 6.10868 30.62137 0.01849
C 4.90813 29.89449 -0.01142
C 4.77272 28.49586 -0.00562
C 6.11829 27.77953 -0.00494
C 6.10988 26.39458 0.00054
C 4.91613 25.70936 0.03007
C 2.41871 0.12463 0.02635
C 4.89969 24.19637 -0.00095
C 6.18132 22.1513 -0.04848
C 4.98474 21.38278 -0.00892
C 4.75795 20.01496 -0.01362
C 4.95628 8.60022 -0.0008
C 4.87585 7.1878 0.0288
C 6.13446 6.42575 0.00393
C 6.12696 5.11313 0.00895
C 4.91987 4.36344 0.00685
C 6.10699 23.52265 0.01572
C 3.62841 0.81177 -0.01378
C 3.62704 2.23346 -0.01303
C 2.43065 2.97358 0.00848
C 3.64464 30.62088 -0.03113
C 2.38336 29.9411 -0.02566
C 2.4326 28.4443 -0.00094
C 3.60699 27.76005 0.02322
C 3.61386 26.30101 -0.00725
C 2.45824 25.58667 -0.05697
C 2.43115 24.14573 0.01087
C 3.64034 23.39942 -0.01343
C 3.68952 22.03011 0.00988
C 2.45825 21.24125 0.0276
C 2.41263 19.81685 0.01305
C 3.69697 19.34574 -0.00077
C 2.64196 11.19962 0.03368
C 3.73674 9.32126 -0.02929
C 2.50002 8.62344 -0.00966
C 2.44336 7.14253 -0.03337
C 3.68805 6.46716 0.01227
C 3.66818 5.03559 0.00873
C 2.40506 4.42248 -0.00049
C 4.85713 2.98316 0.02888
C 6.0587 2.18944 -0.00482
C 6.10999 0.82486 -0.01384
C 4.91798 0.07799 0.03693
C 11.01185 30.60518 -0.02759
C 9.90693 29.71644 0.0402
C 9.81277 28.22604 0.00572
C 9.82902 25.72537 0.03592
C 9.78138 24.2596 0.00406
C 10.81503 23.27996 0.00943
C 11.14236 21.91245 0.02841
C 9.83439 21.99874 -0.01111
C 11.00977 9.16158 -0.01275
C 10.00705 8.47688 0.00985
C 9.80533 7.10423 -0.02245
C 11.09235 6.52252 -0.00428
C 11.07113 4.97086 0.03101
C 9.83605 4.33282 -0.01536
C 9.77759 2.90778 -0.02689
C 10.99446 2.15137 -0.01046
C 11.00531 0.78474 -0.00891
C 9.84454 34.06446 0.02819
C 12.42785 32.74871 0.00165
C 11.13561 31.96466 0.03589
C 23.39327 22.0167 -0.01594
C 9.89716 32.6309 -0.00033
C 8.62701 0.68354 0.01364
C 7.44158 32.66632 0.01745
C 8.66908 31.85595 0.00488
C 8.62416 30.48295 -0.01004
C 7.29787 29.87187 -0.02896
C 7.33035 28.49276 -0.00131
C 8.61917 27.6882 -0.01118
C 8.50565 26.30336 -0.014
C 7.30401 25.60765 0.02147
C 7.29936 24.25754 0.00373
C 8.49225 23.70711 -0.00191
C 8.51168 22.2738 0.00438
C 7.45143 21.40412 0.01291
C 6.94727 8.63611 0.00093
C 7.27866 7.30478 0.00057
C 8.50614 6.45318 -0.01634
C 8.59445 5.04132 -0.00334
C 7.35721 4.36527 0.02339
C 7.35007 2.90946 0.01641
C 8.62118 2.10798 -0.00719
C 7.26478 0.02714 -0.01062
C 3.63759 32.04112 0.017
C 22.17125 21.28454 0.0106
C 23.26726 19.14402 -0.01721
C 31.9703 32.76373 0.01713
C 33.15849 31.99447 -0.01694
C 33.21683 30.61868 0.01428
C 31.97565 29.83984 -0.02142
C 31.98623 28.46889 0.0544
C 33.21236 27.79339 0.00026
C 33.10661 26.33061 0.00682
C 31.87298 25.56123 -0.01779
C 29.47826 0.00064 0.00346
C 31.88303 24.13428 0.03794
C 33.15551 22.00141 0.01574
C 31.92075 21.34733 -0.02383
C 31.96997 19.85501 -0.01429
C 33.23485 19.15533 -0.0136
C 33.2813 17.68787 0.00594
C 32.01169 17.05027 -0.02474
C 32.00636 15.67708 0.00369
C 33.2356 14.95043 0.00455
C 33.14404 23.48381 0.01927
C 30.76656 0.74418 0.00307
C 30.75715 2.20037 0.00716
C 29.44776 2.80697 0.02108
C 30.61971 23.48956 -0.01854
C 30.66322 22.04472 -0.01415
C 29.3531 21.34144 -0.03039
C 29.46312 19.92574 0.01836
C 30.70734 19.21703 0.03531
C 30.74202 17.78712 -0.00669
C 29.5268 17.07147 0.0101
C 29.5091 15.6396 0.01705
C 30.77686 14.93318 -0.0405
C 30.73277 13.52871 -0.01303
C 29.50167 12.82829 -0.01461
C 29.45866 11.29368 -0.02155
C 30.75075 10.65268 -0.00944
C 30.73658 9.23034 -0.03735
C 29.49761 8.51257 -0.00971
C 29.53236 6.99603 0.01518
C 30.75702 6.40964 0.01908
C 30.77439 4.94375 0.07705
C 29.4592 4.24619 0.0103
C 33.24133 13.5658 -0.00644
C 29.43774 24.1387 -0.02049
C 32.02316 12.82275 -0.01839
C 33.25908 10.63342 0.00199
C 1.14667 19.09851 -0.01678
C 1.35099 17.70818 0.01223
C 0.08581 17.01413 0.00648
C 0.02494 15.55297 0.02114
C 1.17616 14.64132 -0.02957
C 1.27679 13.4465 0.00343
C 0.03209 12.73198 -0.02656
C 0.00801 11.32554 -0.02442
C 34.39948 19.91821 0.01951
C 1.28489 10.70825 -0.00027
C 34.34099 8.5142 -0.02302
C 34.40977 7.14565 -0.02849
C 1.2326 6.47524 0.02931
C 1.18253 5.08135 0.00628
C 34.31185 4.32895 -0.0345
C 34.41166 2.91318 -0.00931
C 1.20665 2.2756 -0.00939
C 1.19866 0.85154 -0.00468
C 1.14543 9.25534 -0.00583
C 34.35315 21.28491 -0.02213
C 1.21054 21.97692 0.02712
C 1.18648 23.41065 0.00723
C 33.21523 9.27348 0.04381
C 31.92937 8.51949 0.02806
C 31.94137 7.12462 0.01504
C 33.13893 6.35141 -0.00069
C 33.16736 4.94996 0.04926
C 31.89671 4.24156 -0.03838
C 31.93803 2.87393 0.00349
C 33.21132 2.18798 -0.00323
C 33.13515 0.79112 -0.00841
C 31.96123 0.02995 0.0001
C 34.42405 32.72253 -0.02927
C 1.24076 32.02648 -0.01404
C 1.18809 30.60575 0.01027
C 34.4326 29.88414 0.01831
C 0.03046 28.44726 -0.01037
C 1.21373 27.7584 -0.00439
C 1.14165 26.32079 -0.00598
C 34.35766 25.55553 -0.05239
C 34.35587 24.14482 0.03076
C 32.0172 11.3622 0.00137
C 29.4335 25.58842 0.03265
C 30.65848 26.28426 0.00261
C 30.6847 27.71353 0.02326
C 25.75471 27.62663 -0.00225
C 25.75697 26.21297 0.00071
C 24.47828 25.53854 -0.01107
C 24.49606 24.1378 -0.01586
C 25.70209 23.43201 -0.01971
C 25.72768 21.99886 -0.02118
C 24.58047 21.19582 0.00733
C 24.45436 19.83959 -0.00178
C 24.59017 28.34657 0.01515
C 25.7811 19.13593 0.00768
C 24.55076 16.97311 0.03005
C 24.56167 15.54204 -0.04078
C 25.84929 14.79483 0.02117
C 25.70811 13.38981 0.02737
C 24.50321 12.7532 -0.00498
C 24.59232 11.34136 0.00135
C 25.78202 10.55789 0.03102
C 25.76696 9.20115 0.02555
C 25.81848 17.70121 -0.0276
C 24.61342 29.80159 -0.0055
C 25.84339 30.45883 0.02734
C 25.841 31.87889 0.01153
C 23.34988 17.69013 -0.02422
C 22.06946 17.01168 0.01277
C 22.08742 15.63493 0.00096
C 23.27749 14.8532 -0.01527
C 23.31147 13.45208 0.01087
C 22.05278 12.77294 0.00199
C 22.0822 11.33782 0.01511
C 23.28852 10.60738 -0.00478
C 23.29553 9.1771 -0.01662
C 22.02132 8.5418 -0.01185
C 22.06513 7.10074 0.01126
C 23.30416 6.31991 0.01852
C 23.3493 4.89926 -0.00381
C 22.12735 4.21122 0.03046
C 22.13964 2.78979 0.0296
C 23.37845 2.05623 0.03374
C 23.4198 0.60022 -0.02845
C 22.21618 33.95852 -0.03213
C 24.67433 32.59234 0.02239
C 24.5106 8.51099 0.01423
C 24.46114 7.02828 -0.00285
C 25.67861 6.32085 -0.009
C 25.77665 4.9577 -0.01199
C 28.24602 13.43637 0.01257
C 27.06681 12.72422 0.02316
C 26.99821 11.30423 0.04185
C 28.26014 10.60549 0.00194
C 28.26412 9.15954 -0.00621
C 27.01199 8.44533 0.02611
C 27.04634 7.08189 0.02198
C 28.24738 6.3531 0.01094
C 28.21866 4.95669 0.00235
C 27.04895 4.2157 0.01495
C 26.99139 2.786 0.01259
C 28.24778 2.13301 0.01799
C 28.29046 0.69445 0.01699
C 27.06346 34.04441 -0.00416
C 29.5274 32.63738 0.01177
C 30.77329 32.01122 0.04266
C 30.7217 30.57974 0.01324
C 29.43679 29.85668 0.0014
C 29.46987 28.42006 0.00924
C 28.28501 14.91534 0.00152
C 22.1039 19.88298 -0.01154
C 27.06162 15.55188 -0.00294
C 28.21402 17.7528 0.00487
C 24.69353 4.12806 -0.00229
C 24.56169 2.8078 -0.00938
C 25.79369 2.10548 -0.0264
C 25.82588 0.70373 -0.01154
C 24.61172 34.05126 0.00684
C 27.07629 32.68959 -0.01052
C 28.2441 31.98229 -0.01679
C 28.36145 30.57762 0.00367
C 27.00246 29.7744 0.04306
C 26.98658 28.36698 0.00996
C 28.22022 27.71283 0.00195
C 28.17292 26.32606 -0.00802
C 26.97873 25.54914 -0.00218
C 26.97281 24.11486 -0.01654
C 28.22453 23.46944 -0.00037
C 28.19822 22.11074 -0.0032
C 26.94691 21.28417 0.00622
C 26.99754 19.87115 -0.02815
C 28.22595 19.13502 -0.00942
C 27.00309 16.96348 0.00826
C 2.41623 32.75077 -0.00643
