296
Graphene
C 34.36013 0.08266 0.01295
C 11.25501 17.82382 0.01739
C 9.93521 16.84581 0.00755
C 9.58328 15.41556 -0.0054
C 11.07473 0.82474 0.00667
C 9.78055 0.2142 0.00143
C 12.31251 32.74468 -0.017
C 11.03034 19.17912 0.03754
C 13.61561 32.11608 0.00364
C 12.31509 30.01642 -0.02957
C 12.60052 28.54622 -0.04422
C 14.0252 28.5119 0.00654
C 12.27974 25.43464 -0.00703
C 12.27319 24.1952 -0.04076
C 12.40263 21.33846 -0.00652
C 13.47975 30.60501 -0.00831
C 9.78718 19.88186 -0.03557
C 9.80086 21.30004 -0.00111
C 11.16895 21.95096 0.04892
C 7.18347 15.6665 -0.00289
C 8.26063 14.69353 0.00028
C 7.54883 13.17943 -0.02213
C 8.4993 0.80402 0.03698
C 7.40592 34.01533 -0.00109
C 9.867 32.76974 -0.00491
C 11.04071 32.06232 0.03338
C 11.09785 30.66683 -0.0258
C 9.92363 29.86532 -0.0331
C 9.99069 28.46159 -0.00316
C 11.28298 27.81896 0.02188
C 11.20641 26.39073 -0.01979
C 9.86934 25.61537 0.02691
C 9.82095 24.08954 -0.01581
C 11.09543 23.37949 0.01452
C 12.41245 19.85161 0.0058
C 7.42181 17.06371 -0.00066
C 13.24549 18.86832 -0.00865
C 12.35295 0.21203 -0.00311
C 20.84562 0.74768 0.0296
C 19.71629 0.02963 0.03374
C 22.01563 32.83473 -0.02845
C 23.20912 32.08636 -0.03213
C 23.25205 30.41492 0.02239
C 21.92958 29.97131 0.01153
C 20.69116 2.13081 0.03046
C 23.71745 18.5295 0.02734
C 23.27383 5.01089 0.01515
C 22.07664 4.29535 -0.00225
C 22.01202 2.80411 0.00071
C 23.25536 2.09236 -0.01107
C 23.3247 0.68115 -0.01586
C 22.1013 0.11086 -0.01971
C 23.23128 6.41188 -0.0055
C 19.2971 2.94997 -0.00381
C 19.67266 4.23568 0.01852
C 20.79227 4.91892 0.01126
C 14.85334 32.70702 0.00742
C 15.94764 31.79983 -0.01594
C 15.76534 30.29972 0.0106
C 14.75316 29.50797 -0.01154
C 16.13175 0.64789 -0.01721
C 14.9077 0.14449 -0.02422
C 17.20861 32.48014 0.01277
C 18.44785 31.83188 0.00096
C 18.46584 30.48663 -0.01527
C 18.20673 1.95076 0.01087
C 18.47046 0.62841 0.00199
C 17.26017 33.86631 0.01511
C 19.66226 32.59743 -0.00478
C 20.81767 31.93736 -0.01662
C 20.55821 30.56741 -0.01185
C 13.60907 0.74634 0.00675
C 24.55427 32.61375 -0.02118
C 8.73737 17.7718 0.00213
C 7.45343 19.81248 -0.04147
C 3.51484 10.73263 -0.00891
C 3.6093 9.31576 0.02819
C 2.32187 8.59247 0.00165
C 2.42186 7.17434 -0.02971
C 3.70896 6.41831 0.02894
C 3.60385 4.99004 -0.01789
C 2.3356 11.50805 -0.01046
C 2.40731 4.20503 0.00444
C 3.69891 2.13422 0.01877
C 3.71977 0.74387 0.01363
C 2.46159 0.08634 -0.02162
C 4.90234 32.64515 0.00415
C 6.13888 31.91656 -0.0014
C 6.09833 30.53143 0.02162
C 2.42227 2.8296 -0.00925
C 2.42677 12.94794 -0.02689
C 3.708 13.57466 -0.01536
C 3.61134 14.95746 0.03101
C 3.6154 30.58206 -0.01062
C 2.36434 29.85803 -0.00033
C 2.42069 28.43547 0.03589
C 3.64463 27.76102 -0.02759
C 3.73534 26.32651 0.0402
C 2.47428 25.60986 0.00572
C 2.41959 24.14937 0.03592
C 3.64125 23.5155 0.00406
C 3.67259 21.98611 0.00943
C 2.46832 21.32115 0.02841
C 2.51165 19.91998 -0.01111
C 3.68882 19.17416 -0.01275
C 3.64864 17.72076 0.00985
C 2.4351 17.05871 -0.02245
C 2.32366 15.58166 -0.00428
C 4.86115 29.7531 0.0076
C 8.67585 19.1804 -0.05302
C 4.98006 28.37764 0.01241
C 6.23035 26.29402 0.01945
C 6.14031 0.61959 0.00798
C 4.89789 0.02787 0.00422
C 7.45579 32.60494 0.0351
C 8.64884 31.95187 -0.03113
C 8.63929 30.48352 0.02098
C 7.42858 29.82058 0.01848
C 6.21086 2.01768 0.00228
C 7.51539 28.43614 -0.00619
C 8.73805 26.29012 0.00889
C 7.50023 25.55714 -0.00481
C 7.44432 24.16899 0.00979
C 8.62085 23.42621 0.01443
C 8.57836 21.89888 0.03505
C 7.37998 21.20493 -0.02815
C 8.79235 27.69024 -0.02162
C 5.00107 2.8236 -0.00114
C 4.83162 4.23109 -0.02696
C 4.80643 7.27275 -0.00368
C 5.04216 25.60308 0.01416
C 4.91057 24.1693 0.03542
C 6.15954 23.42225 0.02299
C 6.17341 21.9884 0.00244
C 4.84201 21.25076 -0.01717
C 4.8866 19.84778 0.05265
C 6.18124 19.1897 -0.01952
C 6.16267 17.76866 -0.02813
C 4.90792 17.08135 0.00374
C 4.81972 15.64043 0.00052
C 5.99506 14.90534 -0.03682
C 6.19001 13.47209 0.01965
C 4.98854 12.75514 0.02058
C 4.81975 11.36742 -0.01957
C 4.75739 8.42496 -0.0108
C 6.22155 27.73696 -0.01454
C 25.65393 31.71716 0.00733
C 24.53825 29.84031 -0.00178
C 25.0039 28.57675 0.00768
C 31.88703 19.85599 -0.01429
C 33.19999 19.23432 -0.0136
C 33.13681 17.86013 0.00594
C 31.84549 17.09374 -0.02474
C 31.8324 15.61941 0.00369
C 33.09988 14.92443 0.00455
C 31.90775 21.31839 -0.02383
C 33.11079 13.5146 -0.00644
C 31.91798 11.44745 0.00137
C 33.10944 10.65575 0.00199
C 33.11403 9.27221 0.04381
C 31.89377 8.54148 0.02806
C 31.87801 7.15744 0.01504
C 33.17044 6.50177 -0.00069
C 31.88156 12.87216 -0.01839
C 33.18516 22.00315 0.01574
C 33.23162 23.39921 0.01927
C 31.99855 24.15161 0.03794
C 30.61999 6.43344 0.01908
C 30.68911 4.9372 0.07705
C 29.38692 4.25752 0.0103
C 29.39752 2.84889 0.02108
C 30.70977 2.11389 0.00716
C 30.6651 0.68423 0.00307
C 29.45077 34.05349 0.00346
C 31.87069 32.68333 0.01713
C 33.16892 31.92527 -0.01694
C 33.08091 30.50193 0.01428
C 31.81364 29.77553 -0.02142
C 31.90784 28.39392 0.0544
C 33.16445 27.65475 0.00026
C 33.20471 26.30582 0.00682
C 32.00613 25.58918 -0.01779
C 33.15802 5.0732 0.04926
C 29.40882 7.19518 0.01518
C 31.87287 4.20212 -0.03838
C 33.19708 2.23072 -0.00323
C 1.09061 14.96551 -0.02957
C 1.12739 13.62249 0.00343
C 34.29207 12.83181 -0.02656
C 34.30985 11.40579 -0.02442
C 1.13791 10.78856 -0.00027
C 1.1425 9.34045 -0.00583
C 34.30485 15.69194 0.02114
C 34.33542 8.54048 -0.02302
C 1.17201 6.4687 0.02931
C 1.15475 5.01977 0.00628
C 34.38879 4.35752 -0.0345
C 34.41383 2.89582 -0.00931
C 1.1777 2.12764 -0.00939
C 1.17927 0.76448 -0.00468
C 34.32445 7.17555 -0.02849
C 34.38489 17.0588 0.00648
C 1.2333 17.75004 0.01223
C 1.24546 19.20658 -0.01678
C 33.14715 0.7561 -0.00841
C 31.8784 0.02569 0.0001
C 34.36717 32.73041 -0.02927
C 1.12087 32.04005 -0.01404
C 1.20406 30.56833 0.01027
C 34.34772 29.8585 0.01831
C 34.38903 28.41761 -0.01037
C 1.20248 27.65798 -0.00439
C 1.21766 26.28183 -0.00598
C 34.43243 25.55335 -0.05239
C 34.41802 24.15859 0.03076
C 1.20478 23.48585 0.00723
C 1.21322 22.04809 0.02712
C 0.03564 21.30094 -0.02213
C 0.00784 19.88198 0.01951
C 31.9008 2.85811 0.00349
C 29.44247 8.58005 -0.00971
C 30.61441 9.3534 -0.03735
C 30.69474 10.78474 -0.00944
C 25.88236 2.06328 -0.01679
C 25.79665 0.54757 0.00367
C 24.57784 33.97956 0.04306
C 27.02575 32.26958 0.00996
C 28.33867 31.62557 0.00195
C 28.52342 26.58633 -0.00802
C 24.51449 2.72383 -0.01052
C 27.224 26.00401 -0.00218
C 28.35579 23.53591 -0.00037
C 28.29002 22.06425 -0.0032
C 27.0336 21.41132 0.00622
C 27.00508 19.95242 -0.02815
C 28.22952 19.169 -0.00942
C 28.18706 17.66488 0.00487
C 27.16662 24.32841 -0.01654
C 24.50537 4.18376 0.00684
C 25.79265 5.04303 -0.01154
C 25.76586 6.4162 -0.0264
C 24.97546 27.25185 -0.0276
C 26.01472 26.59443 0.03005
C 26.05375 23.41044 -0.04078
C 25.90605 22.20468 0.02117
C 24.27245 19.42468 0.02737
C 25.72974 19.25115 -0.00498
C 25.7122 17.72914 0.00135
C 24.38915 17.08729 0.03102
C 24.43914 15.73752 0.02555
C 25.58416 14.85342 0.01423
C 25.68532 13.4532 -0.00285
C 25.75389 10.93166 -0.009
C 25.65577 9.41717 -0.01199
C 24.57625 8.66931 -0.00229
C 24.36521 7.21822 -0.00938
C 26.90898 17.03374 0.00826
C 26.87169 15.5507 -0.00294
C 28.09539 14.93638 0.00152
C 28.09573 13.49167 0.01257
C 30.79767 26.2661 0.00261
C 29.64372 25.59694 0.03265
C 29.56806 24.21678 -0.02049
C 30.82981 23.46973 -0.01854
C 30.76325 22.02809 -0.01415
C 29.50437 21.31791 -0.03039
C 29.46311 19.94075 0.01836
C 30.68211 19.1925 0.03531
C 30.64795 17.73874 -0.00669
C 29.42737 16.96921 0.0101
C 29.35419 15.5647 0.01705
C 30.58453 14.93876 -0.0405
C 30.63087 13.55009 -0.01303
C 29.31961 12.83755 -0.01461
C 29.42123 11.42636 -0.02155
C 30.62129 27.72819 0.02326
C 3.64356 31.98957 0.01364
C 29.32677 28.32086 0.00924
C 30.60279 30.47178 0.01324
C 26.90969 12.7545 0.02316
C 27.00905 11.44679 0.04185
C 28.21861 10.67466 0.00194
C 28.21774 9.2442 -0.00621
C 26.93375 8.5946 0.02611
C 26.92322 7.22322 0.02198
C 28.18467 6.55783 0.01094
C 28.23586 5.08826 0.00235
C 26.98074 4.32538 0.01495
C 27.06624 2.93519 0.01259
C 28.24331 2.02661 0.01799
C 28.19014 0.60702 0.01699
C 27.014 33.78325 -0.00416
C 29.40907 32.5474 0.01177
C 30.72745 31.92105 0.04266
C 29.19027 29.92735 0.0014
C 2.44107 32.73785 -0.00719
