317
Graphene
C 0.01485 0.0186 0.01295
C 12.32746 12.73677 -0.00491
C 12.24779 11.39104 0.03338
C 13.53915 10.66942 -0.0258
C 13.53305 9.2017 -0.0331
C 12.30017 8.57039 -0.00316
C 12.30901 7.11705 0.02188
C 13.51927 6.36372 -0.01979
C 13.51061 4.99014 0.02691
C 12.28566 4.19607 -0.01581
C 12.29545 2.82346 0.01452
C 13.56516 2.12862 0.04892
C 13.57082 0.69528 -0.00111
C 12.30775 34.0538 -0.03557
C 14.80703 32.65086 0.03754
C 15.97958 31.98418 0.01739
C 13.52911 13.42618 -0.00109
C 13.52556 14.87046 0.03698
C 12.27483 15.60022 -0.02213
C 12.38942 16.99067 0.00028
C 11.02386 2.09192 -0.03113
C 11.04902 0.71959 0.02098
C 9.84632 34.03211 0.01848
C 12.28574 32.69856 -0.00619
C 13.47499 32.00443 -0.02162
C 13.5347 30.5669 0.00889
C 12.2964 29.84071 -0.00481
C 15.98457 30.53159 0.00755
C 12.29126 28.39607 0.00979
C 13.50675 26.26631 0.03505
C 12.28856 25.54404 -0.02815
C 12.34072 24.17995 -0.04147
C 13.52419 23.50346 -0.05302
C 13.50632 22.00455 0.00213
C 13.50868 19.2031 -0.00066
C 13.53433 17.71809 -0.00289
C 13.54981 27.70244 0.01443
C 14.78845 29.831 -0.0054
C 14.80249 28.40016 0.00667
C 15.98559 27.63764 0.00143
C 15.95162 4.96417 0.00096
C 14.75406 4.24143 -0.01527
C 14.72999 2.80097 0.01087
C 16.00625 2.10417 0.00199
C 16.02376 0.7014 0.01511
C 14.76434 0.01269 -0.00478
C 17.21703 32.66483 -0.01662
C 15.96298 6.43373 0.01277
C 18.42387 31.95739 -0.01185
C 17.19182 29.75596 0.01852
C 17.22557 28.35803 -0.00381
C 18.45387 27.7058 0.03046
C 18.46144 26.25041 0.0296
C 17.1867 25.54768 0.03374
C 17.21071 24.14371 -0.02845
C 18.45496 23.40574 -0.03213
C 18.50532 30.54788 0.01126
C 9.84549 2.79644 0.0351
C 14.74067 7.10009 -0.02422
C 15.98064 9.25778 -0.01154
C 16.013 26.23421 -0.017
C 14.73325 25.59956 0.00364
C 14.76666 24.13976 -0.00831
C 16.00238 23.4156 -0.02957
C 15.99865 22.00473 -0.04422
C 14.74299 21.35193 0.00654
C 14.71117 19.84567 -0.00703
C 14.72578 8.52497 -0.01721
C 15.95912 19.19045 -0.04076
C 14.75774 17.05353 0.0058
C 14.74172 15.62141 -0.00865
C 16.02517 14.87769 0.00675
C 15.98267 13.50883 -0.00311
C 14.77775 12.7849 0.00742
C 14.78793 11.33979 -0.01594
C 16.02889 10.62171 0.0106
C 16.02587 17.76868 -0.00652
C 9.81076 4.25744 0.00422
C 11.04637 4.94418 0.00798
C 11.06375 6.40427 0.00228
C 2.48578 0.03448 0.01364
C 4.92007 32.69944 -0.01062
C 6.12015 31.9613 -0.00033
C 6.10794 30.54102 0.03589
C 4.91343 29.7993 -0.02759
C 4.8886 28.40778 0.0402
C 6.1326 27.70195 0.00572
C 3.74972 0.70997 -0.00719
C 6.10008 13.50557 0.03592
C 4.90437 11.31233 0.00943
C 6.11448 10.65581 0.02841
C 6.14882 9.20947 -0.01111
C 4.89863 8.54534 -0.01275
C 4.94052 7.09376 0.00985
C 6.18057 6.41405 -0.02245
C 6.11228 5.02043 -0.00428
C 4.92793 12.76577 0.00406
C 4.90132 4.26935 0.03101
C 3.6889 2.15376 0.01641
C 2.48778 4.30262 -0.00334
C 3.70575 30.48704 0.03693
C 2.43742 29.81426 0.01745
C 2.41607 28.42566 0.00488
C 3.63162 27.69926 -0.01004
C 3.65905 26.30322 -0.02896
C 2.47319 25.63596 -0.00131
C 3.723 14.84726 -0.01118
C 2.47646 2.88137 0.02339
C 3.68084 13.50273 -0.014
C 2.46565 11.3798 0.00373
C 3.65419 10.71481 -0.00191
C 3.73224 9.24741 0.00438
C 2.43649 8.51452 0.01291
C 2.46089 7.09758 0.00093
C 3.67279 6.40668 0.00057
C 3.71627 4.95673 -0.01634
C 2.48375 12.79847 0.02147
C 18.43757 22.04742 0.02239
C 4.95141 2.81103 -0.01536
C 6.18554 0.72964 -0.01046
C 7.38411 34.06372 0.02299
C 9.83477 32.70552 0.00244
C 11.07762 31.95494 -0.01717
C 11.10272 30.50164 0.05265
C 9.80797 29.81221 -0.01952
C 9.85514 28.37873 -0.02813
C 11.05411 27.64897 0.00374
C 8.62948 0.69902 0.03542
C 10.98861 26.23011 0.00052
C 11.06385 13.54415 0.01965
C 9.8175 12.78118 0.02058
C 9.8123 11.36616 -0.01957
C 11.08577 10.68054 -0.0108
C 11.07505 9.18533 -0.00368
C 9.86609 8.49964 -0.02696
C 9.85608 7.11881 -0.00114
C 11.09624 14.94347 -0.03682
C 6.1339 2.12579 -0.02689
C 8.57224 2.12498 0.01416
C 7.37566 4.22567 -0.01454
C 4.98601 0.00337 -0.00891
C 7.40006 32.63017 0.02819
C 8.61531 31.98267 0.00165
C 8.61596 30.58448 -0.02971
C 7.34893 29.82195 0.02894
C 7.40289 28.40544 -0.01789
C 8.63876 27.68637 0.00444
C 7.38183 2.87782 0.01945
C 8.5769 13.4174 -0.00925
C 7.38482 11.34507 0.01363
C 8.58357 10.63915 -0.02162
C 8.54953 9.19856 0.00415
C 7.39019 8.52228 -0.0014
C 7.38282 7.12388 0.02162
C 8.59769 6.38546 0.0076
C 8.61897 4.93065 0.01241
C 7.36353 12.80915 0.01877
C 3.664 31.94215 -0.01384
C 17.26172 21.3103 0.01153
C 18.43658 19.15944 -0.0055
C 33.2169 30.5418 0.03794
C 32.01486 29.82794 0.01927
C 31.98498 28.38731 0.01574
C 33.21336 27.72319 -0.02383
C 33.23651 26.26903 -0.01429
C 31.98088 25.59832 -0.0136
C 31.94954 24.16739 0.00594
C 33.22337 23.47004 -0.02474
C 33.20062 22.03483 0.00369
C 31.97164 21.3016 0.00455
C 32.0065 19.87495 -0.00644
C 33.15363 19.1748 -0.01839
C 33.19263 17.74099 0.00137
C 31.96997 17.02345 0.00199
C 33.18928 14.89244 0.04381
C 33.18103 31.96401 -0.01779
C 31.94157 32.6897 0.00682
C 29.53109 0.01933 0.00026
C 30.72908 0.70401 0.0544
C 29.50471 29.84411 -0.02155
C 29.52535 28.35772 -0.00944
C 30.7602 27.71513 -0.03735
C 30.70158 26.30192 -0.00971
C 29.50316 25.56881 0.01518
C 29.55622 24.19584 0.01908
C 30.76045 23.40818 0.07705
C 33.21674 13.50297 0.02806
C 30.69385 21.98975 0.0103
C 29.53919 19.8538 0.00716
C 30.72395 19.18726 0.00307
C 30.71477 6.37653 0.00346
C 30.67868 4.96605 0.01713
C 29.49993 4.21448 -0.01694
C 29.52988 2.86929 0.01428
C 30.72032 2.11172 -0.02142
C 29.52333 21.34158 0.02108
C 33.18297 10.6321 0.01504
C 33.19691 9.25003 -0.00069
C 31.95363 7.10732 0.04926
C 0.03436 17.01364 0.00648
C 0.00216 15.63924 0.02114
C 1.21375 14.89042 -0.02957
C 1.22491 13.51222 0.00343
C 34.42088 12.75045 -0.02656
C 34.37391 11.40661 -0.02442
C 1.24572 10.67974 -0.00027
C 1.22291 17.70982 0.01223
C 1.26624 9.20693 -0.00583
C 34.42449 7.11414 -0.02849
C 1.2093 6.38258 0.02931
C 1.22976 4.95328 0.00628
C 34.42632 4.22436 -0.0345
C 0.00449 2.82012 -0.00931
C 1.24566 2.16248 -0.00939
C 1.28382 0.73901 -0.00468
C 34.42227 8.47587 -0.02302
C 30.75515 30.5181 -0.01461
C 0.0254 19.91872 -0.01678
C 1.2092 23.45349 -0.02213
C 33.20934 6.36642 -0.03838
C 33.1763 5.00688 0.00349
C 31.99886 4.2174 -0.00323
C 31.94365 2.78856 -0.00841
C 33.18779 2.14728 0.0001
C 33.18097 0.68944 -0.02927
C 31.95007 0.03515 -0.01404
C 34.41808 21.29994 0.01951
C 0.01018 32.61755 0.01027
C 1.25504 30.54398 -0.01037
C 0.00293 29.8135 -0.00439
C 0.0512 28.39336 -0.00598
C 1.22649 27.67118 -0.05239
C 1.22689 26.28217 0.03076
C 0.02218 25.56554 0.00723
C 34.39661 24.14816 0.02712
C 1.22551 31.93172 0.01831
C 30.74636 31.95956 -0.01303
C 29.5398 32.67749 -0.0405
C 27.06699 0.03041 0.01705
C 19.67835 21.28365 -0.00285
C 19.68454 19.9062 -0.009
C 19.67254 4.24582 -0.01199
C 19.64923 2.86762 -0.00229
C 20.92847 2.14221 -0.00938
C 20.92183 0.7505 -0.0264
C 19.72313 0.01541 -0.01154
C 20.892 21.98701 0.01423
C 22.11924 32.68016 0.00684
C 23.40031 30.5237 -0.01679
C 22.14352 29.8758 0.00367
C 22.13157 28.37229 0.04306
C 23.331 27.67549 0.00996
C 23.36381 26.26927 0.00195
C 22.18468 25.57414 -0.00802
C 22.10462 24.14236 -0.00218
C 23.32285 31.9255 -0.01052
C 23.35148 23.41399 -0.01654
C 20.86978 23.40612 0.02555
C 19.6762 25.5442 0.00135
C 17.21114 17.09377 0.01515
C 17.21977 7.12264 -0.00225
C 18.40373 6.43188 0.00071
C 18.45623 4.94833 -0.01107
C 17.19196 4.23411 -0.01586
C 17.17877 2.86408 -0.01971
C 18.42835 2.1371 -0.02118
C 19.70301 24.09969 0.03102
C 18.42952 0.71389 0.00733
C 19.62336 32.68908 0.00768
C 20.90513 31.99481 -0.0276
C 20.89281 30.58253 0.03005
C 19.63402 29.81074 -0.04078
C 19.64074 28.40678 0.02117
C 20.92324 27.72921 0.02737
C 20.95117 26.30401 -0.00498
C 17.22579 34.04971 -0.00178
C 17.16934 19.83635 0.02734
C 23.35411 21.98075 -0.00037
C 22.10616 4.26262 0.00622
C 27.0144 32.70339 0.01177
C 28.31411 31.89883 0.04266
C 28.27937 30.51225 0.01324
C 27.02222 29.80272 0.0014
C 27.05667 28.39707 0.00924
C 28.33214 27.66512 0.02326
C 28.2186 26.2232 0.00261
C 24.57687 34.06933 -0.00416
C 27.0573 25.5381 0.03265
C 28.28638 23.41563 -0.01854
C 28.25799 22.04654 -0.01415
C 27.11219 21.29956 -0.03039
C 27.07513 4.22844 0.01836
C 27.0705 2.84181 0.03531
C 28.28474 2.0988 -0.00669
C 28.28564 0.67419 0.0101
C 27.04627 24.07327 -0.02049
C 22.13492 21.31246 -0.0032
C 25.82036 0.69917 0.01699
C 24.62727 2.83115 0.01259
C 22.13215 2.84542 -0.02815
C 23.32778 2.12292 -0.00942
C 23.3137 0.68276 0.00487
C 22.12199 34.03647 0.00826
C 24.55617 32.68035 -0.00294
C 25.84605 31.92873 0.00152
C 25.85398 30.53248 0.01257
C 25.76717 2.12983 0.01799
C 24.54414 29.7616 0.02316
C 25.83992 27.68247 0.00194
C 25.82839 26.26944 -0.00621
C 24.63157 25.5463 0.02611
C 24.61801 24.10895 0.02198
C 25.86567 23.41141 0.01094
C 25.82616 22.00392 0.00235
C 24.59649 21.25312 0.01495
C 24.57859 28.36624 0.04185
C 2.44402 32.68412 -0.00482
