429
Graphene
C 34.39954 0.0035 0.01295
C 12.38839 8.6938 0.03589
C 12.30602 7.18346 -0.02759
C 13.46541 6.42026 0.0402
C 13.56325 5.02613 0.00572
C 12.32984 4.30954 0.03592
C 12.27836 2.88498 0.00406
C 13.48453 2.11894 0.00943
C 13.41863 0.62749 0.02841
C 12.28648 33.99705 -0.01111
C 14.74188 32.58108 -0.01275
C 13.61757 9.29064 -0.00033
C 15.97804 31.97351 0.00985
C 14.78921 29.82139 -0.00428
C 14.74014 28.43833 0.03101
C 16.02799 27.7313 -0.01536
C 15.98363 26.28417 -0.02689
C 14.80571 25.45744 -0.01046
C 14.7644 24.06939 -0.00891
C 16.00261 23.39057 0.02819
C 15.93954 21.95932 0.00165
C 14.65975 21.30512 -0.02971
C 14.76892 19.91463 0.02894
C 16.02167 30.52481 -0.02245
C 13.56582 17.76561 -0.01062
C 13.52595 19.19864 0.01364
C 12.28745 19.91427 -0.00719
C 9.88619 17.15754 0.00685
C 11.0779 9.18278 0.02888
C 9.9047 8.54106 -0.00482
C 9.89846 7.17633 -0.01384
C 11.06464 6.48661 0.03693
C 11.08651 5.06355 0.01745
C 9.80521 4.38469 0.00488
C 9.82462 2.88556 -0.01004
C 11.07488 2.13278 -0.02896
C 11.09265 0.64892 -0.00131
C 9.8381 0.07327 -0.01118
C 12.32622 32.56762 -0.014
C 13.58177 31.89704 0.02147
C 13.53589 30.442 0.00373
C 12.26992 29.78652 -0.00191
C 12.20235 28.37642 0.00438
C 13.58201 27.66571 0.01291
C 13.60047 26.25546 0.00093
C 12.35159 25.63738 0.00057
C 12.23615 24.24202 -0.01634
C 13.45735 23.47154 -0.00334
C 13.46426 22.07981 0.02339
C 12.30213 21.36047 0.01641
C 15.97576 19.13845 -0.01789
C 15.93898 17.68705 0.00444
C 14.54876 17.18405 -0.00925
C 15.95746 10.58708 0.01877
C 18.4445 14.88468 0.00228
C 18.48174 13.5456 0.00798
C 17.31846 12.81936 0.00422
C 17.08218 11.43961 0.0351
C 18.42025 10.63819 -0.03113
C 18.45975 9.20423 0.02098
C 17.21617 8.52404 0.01848
C 17.16048 7.03437 -0.00619
C 18.40647 6.30756 -0.02162
C 18.46547 4.90924 0.00889
C 17.21187 4.25866 -0.00481
C 17.16949 2.836 0.00979
C 18.35605 2.12143 0.01443
C 18.38844 0.74993 0.03505
C 17.17497 34.04776 -0.02815
C 19.61934 32.70921 -0.04147
C 20.85051 31.91947 -0.05302
C 20.92791 30.53776 0.00213
C 19.74455 29.80418 -0.00066
C 19.68005 28.37545 -0.00289
C 20.87327 27.71487 0.00028
C 20.93309 26.31094 -0.02213
C 19.70876 25.55353 0.03698
C 17.20983 15.57979 -0.00114
C 10.99719 17.75494 0.00895
C 17.15822 17.00031 -0.02696
C 18.38751 19.16746 -0.0108
C 15.96555 9.23164 0.01363
C 14.75702 8.56579 -0.02162
C 14.71586 7.11298 0.00415
C 15.86618 6.38152 -0.0014
C 15.94947 4.96484 0.02162
C 14.74571 4.23972 0.0076
C 14.71635 2.78814 0.01241
C 15.94967 2.09925 -0.01454
C 15.87283 0.65754 0.01945
C 14.65585 33.9969 0.01416
C 17.21861 32.65721 0.03542
C 18.41858 31.95281 0.02299
C 18.50585 30.54089 0.00244
C 17.24264 29.871 -0.01717
C 17.21117 28.46788 0.05265
C 18.45643 27.71355 -0.01952
C 18.45901 26.25877 -0.02813
C 17.19626 25.57837 0.00374
C 17.27328 24.11293 0.00052
C 18.434 23.38864 -0.03682
C 18.41382 21.92611 0.01965
C 17.15285 21.30175 0.02058
C 17.21863 19.88333 -0.01957
C 18.37639 17.75442 -0.00368
C 11.13043 19.14535 0.00393
C 9.8694 19.8922 0.0288
C 9.95467 21.27162 -0.0008
C 3.68481 2.1279 0.02728
C 3.70744 0.70876 -0.00039
C 2.46169 0.03122 0.0064
C 4.91679 32.67981 0.00211
C 6.12368 31.93753 -0.00449
C 6.12136 30.52486 -0.01979
C 4.91747 29.7868 0.02784
C 4.92465 28.36288 -0.01977
C 6.165 27.72009 -0.00561
C 6.14639 26.31391 0.00208
C 4.94454 25.53357 0.01707
C 4.90973 24.13177 0.02769
C 6.13139 23.51545 -0.03291
C 6.1103 22.04454 -0.04999
C 4.90811 21.3358 0.04505
C 4.98166 19.91791 0.03284
C 6.21204 19.17464 -0.04307
C 6.17308 17.76582 0.03189
C 4.92194 17.0303 0.00031
C 4.82528 15.56738 -0.003
C 6.11451 14.91327 0.01402
C 6.13287 13.4508 0.02379
C 4.87629 12.8152 0.00907
C 2.4732 2.78034 0.00245
C 4.92277 11.43752 0.00643
C 2.46095 4.24999 0.00081
C 3.65154 6.45647 -0.01386
C 3.67907 30.62549 0.00267
C 2.52697 29.7916 0.00787
C 2.44191 28.38813 0.02426
C 3.62616 27.60581 0.01218
C 3.74815 26.21549 -0.01471
C 2.52806 25.47814 -0.02827
C 2.47585 24.13533 0.01078
C 3.71385 23.46586 -0.00112
C 3.66812 22.06144 0.03345
C 2.43061 21.3733 0.00748
C 2.52114 19.90356 0.00662
C 3.79186 19.15852 -0.0154
C 3.70124 17.70341 -0.01299
C 2.41378 16.99025 -0.00407
C 2.39378 15.54628 0.01138
C 3.6088 14.85466 0.03278
C 3.62101 13.51081 -0.00177
C 2.35265 12.78192 0.04421
C 2.3851 11.37138 0.00088
C 3.67944 10.69298 0.00828
C 3.72274 9.23449 -0.02375
C 2.44926 8.55927 0.00558
C 2.43677 7.1026 -0.0059
C 3.69267 4.97928 -0.02805
C 19.70581 24.17503 -0.00109
C 6.1656 10.71629 -0.01509
C 4.94511 8.56154 0.02374
C 7.41771 11.46198 -0.02929
C 8.58888 10.62276 -0.00966
C 8.67693 9.32553 -0.03337
C 7.39869 8.60097 0.01227
C 7.309 7.15095 0.00873
C 8.59324 6.5253 -0.00049
C 8.54774 5.10303 0.00848
C 7.27153 4.36769 -0.01303
C 7.29504 2.89114 -0.01378
C 8.5396 2.20783 0.02635
C 8.61767 0.72897 0.0127
C 7.3972 0.03622 0.01396
C 9.83225 32.70939 0.01849
C 11.06512 31.95856 -0.01142
C 11.09408 30.57957 -0.00562
C 9.8591 29.86535 -0.00494
C 9.76137 28.41717 0.00054
C 10.95752 27.68727 0.03007
C 11.05862 26.29334 -0.00095
C 9.82365 25.56865 0.01572
C 9.80782 24.1484 -0.04848
C 11.02231 23.5539 -0.00892
C 11.12265 22.08261 -0.01362
C 7.3195 12.86177 0.03368
C 6.18193 9.3371 0.03267
C 8.45314 14.84708 -0.00077
C 7.41629 17.00156 0.0276
C 4.87111 7.1928 0.00402
C 6.08719 6.4321 0.0073
C 6.05571 4.99621 0.0174
C 4.88717 4.3017 0.03828
C 4.85805 2.84588 0.01226
C 6.17819 2.15308 -0.00279
C 6.13812 0.73266 0.01996
C 4.93842 0.02592 -0.03996
C 7.35869 32.65028 0.01465
C 8.64731 31.97872 -0.00074
C 8.64564 30.57917 -0.00518
C 7.37841 29.84884 0.0086
C 7.40882 28.47747 -0.00643
C 8.55613 27.66492 0.017
C 8.55708 26.30109 -0.03113
C 7.37429 25.56734 -0.02566
C 7.38104 24.13648 -0.00094
C 8.61707 23.41632 0.02322
C 8.62444 21.99789 -0.00725
C 7.37583 21.34203 -0.05697
C 7.37151 19.90836 0.01087
C 8.60083 19.19279 -0.01343
C 8.62893 17.72452 0.00988
C 7.32036 15.56006 0.01305
C 3.64895 32.04195 0.01913
C 20.90762 23.42702 -0.00491
C 19.6595 21.27847 -0.0258
C 29.53855 12.8013 -0.01461
C 29.5108 11.37043 -0.02155
C 30.70651 10.65608 -0.00944
C 30.63075 9.20019 -0.03735
C 29.47953 8.47771 -0.00971
C 29.46681 7.09773 0.01518
C 30.68917 6.28889 0.01908
C 30.72505 4.86071 0.07705
C 29.53063 4.27738 0.0103
C 29.49291 2.81474 0.02108
C 30.74597 13.48765 -0.01303
C 30.75436 2.16363 0.00716
C 29.54363 34.05054 0.00346
C 31.99931 32.57557 0.01713
C 33.18186 31.85656 -0.01694
C 33.28826 30.43956 0.01428
C 31.99333 29.77283 -0.02142
C 31.8997 28.36834 0.0544
C 33.19045 27.62681 0.00026
C 33.22509 26.26682 0.00682
C 31.98137 25.58114 -0.01779
C 31.99274 24.16876 0.03794
C 30.77397 0.6606 0.00307
C 30.70474 14.93193 -0.0405
C 29.52487 15.66849 0.01705
C 29.50956 17.05693 0.0101
C 27.03558 7.07321 0.02198
C 28.28062 6.42753 0.01094
C 28.28253 4.97636 0.00235
C 27.11435 4.24959 0.01495
C 27.03786 2.81645 0.01259
C 28.26557 2.14516 0.01799
C 28.37048 0.74603 0.01699
C 27.1007 0.03137 -0.00416
C 29.49168 32.58243 0.01177
C 30.68798 31.91358 0.04266
C 30.78568 30.48731 0.01324
C 29.50812 29.77905 0.0014
C 29.48436 28.39863 0.00924
C 30.67012 27.65275 0.02326
C 30.70843 26.23016 0.00261
C 29.47221 25.48092 0.03265
C 29.44714 24.14382 -0.02049
C 30.74212 23.46714 -0.01854
C 30.7945 22.06746 -0.01415
C 29.52742 21.28988 -0.03039
C 29.48362 19.88161 0.01836
C 30.70521 19.16279 0.03531
C 30.69338 17.74898 -0.00669
C 33.19934 23.45611 0.01927
C 33.19229 22.04079 0.01574
C 31.94256 21.33631 -0.02383
C 31.89402 19.87217 -0.01429
C 34.4311 24.20002 0.03076
C 1.21751 23.46316 0.00723
C 1.21215 22.05292 0.02712
C 0.03219 21.30645 -0.02213
C 0.00412 19.85486 0.01951
C 1.25826 19.13942 -0.01678
C 1.23309 17.69219 0.01223
C 34.40701 17.04255 0.00648
C 34.34782 15.58246 0.02114
C 1.16056 14.93549 -0.02957
C 1.15765 13.4964 0.00343
C 34.38736 12.8087 -0.02656
C 34.41025 11.31026 -0.02442
C 1.20536 10.62231 -0.00027
C 1.2163 9.26055 -0.00583
C 0.00725 8.47328 -0.02302
C 34.38471 7.06452 -0.02849
C 1.19944 6.37522 0.02931
C 1.23671 4.92315 0.00628
C 0.00486 4.25206 -0.0345
C 0.0304 2.78177 -0.00931
C 1.20417 2.11291 -0.00939
C 1.15713 0.73851 -0.00468
C 0.01546 25.55519 -0.05239
C 27.00149 8.50226 0.02611
C 1.28654 26.21307 -0.00598
C 34.43081 28.286 -0.01037
C 33.15146 19.20413 -0.0136
C 33.222 17.74788 0.00594
C 31.95788 17.05565 -0.02474
C 31.92219 15.64952 0.00369
C 33.10923 14.86051 0.00455
C 33.1173 13.41866 -0.00644
C 31.92719 12.7227 -0.01839
C 31.96807 11.31344 0.00137
C 33.18362 10.60395 0.00199
C 33.21816 9.17186 0.04381
C 31.89966 8.46273 0.02806
C 31.90684 7.02099 0.01504
C 33.09659 6.32016 -0.00069
C 33.2058 4.90739 0.04926
C 31.97638 4.19507 -0.03838
C 32.01118 2.73885 0.00349
C 33.24429 2.08202 -0.00323
C 33.22885 0.69288 -0.00841
C 31.99577 34.05361 0.0001
C 34.41377 32.68346 -0.02927
C 1.16078 31.90628 -0.01404
C 1.26504 30.53925 0.01027
C 0.09344 29.72389 0.01831
C 1.21764 27.6467 -0.00439
C 28.2371 9.21941 -0.00621
C 28.29967 10.64886 0.00194
C 27.07201 11.34465 0.04185
C 22.12443 25.54188 0.00675
C 22.18214 24.14253 -0.00311
C 23.37372 23.43463 0.00742
C 23.41995 22.0924 -0.01594
C 22.19125 21.35521 0.0106
C 22.12765 19.87417 -0.01154
C 23.36382 19.16091 -0.01721
C 23.3851 17.70793 -0.02422
C 22.06035 17.08648 0.01277
C 22.10948 15.66806 0.00096
C 23.36652 14.91419 -0.01527
C 23.3233 13.54464 0.01087
C 22.0661 12.8013 0.00199
C 22.10055 11.36863 0.01511
C 23.35729 10.70962 -0.00478
C 23.36117 9.27281 -0.01662
C 22.12675 8.5651 -0.01185
C 22.08107 7.14263 0.01126
C 23.37937 6.41277 0.01852
C 23.4576 4.98518 -0.00381
C 22.22146 4.21658 0.03046
C 22.15633 2.82634 0.0296
C 23.38424 2.17608 0.03374
C 23.35565 26.31594 -0.00865
C 23.47744 0.80614 -0.02845
C 23.29518 27.70094 0.0058
C 22.13409 29.8579 -0.04076
C 19.63166 19.8808 -0.0331
C 20.91657 19.15488 -0.00316
C 20.82149 17.77841 0.02188
C 19.57994 17.04467 -0.01979
C 19.66184 15.58959 0.02691
C 20.86115 14.86744 -0.01581
C 20.86579 13.45586 0.01452
C 19.6099 12.74064 0.04892
C 19.6009 11.34444 -0.00111
C 20.84452 10.69541 -0.03557
C 20.84132 9.23065 0.03754
C 19.65586 8.48549 0.01739
C 19.66405 7.06607 0.00755
C 20.88611 6.31243 -0.0054
C 20.98884 4.87847 0.00667
C 19.69295 4.19414 0.00143
C 19.61461 2.80949 -0.017
C 20.86814 2.13948 0.00364
C 21.01596 0.73812 -0.00831
C 19.70744 0.08988 -0.02957
C 22.10887 32.65871 -0.04422
C 23.30646 31.92896 0.00654
C 23.36315 30.55485 -0.00703
C 22.08982 28.42789 -0.00652
C 20.96465 21.98527 0.03338
C 22.28712 0.07659 -0.03213
C 25.75424 31.98366 0.01153
C 25.82967 2.05055 -0.0264
C 25.85836 0.6871 -0.01154
C 24.67791 34.03259 0.00684
C 27.06696 32.74249 -0.01052
C 28.17584 31.87142 -0.01679
C 28.27859 30.4303 0.00367
C 26.9562 29.7707 0.04306
C 27.02166 28.35793 0.00996
C 28.23338 27.6573 0.00195
C 28.25824 26.27248 -0.00802
C 27.0182 25.59494 -0.00218
C 27.06736 24.22314 -0.01654
C 28.25952 23.39324 -0.00037
C 28.27241 21.96715 -0.0032
C 27.08692 21.29826 0.00622
C 27.06374 19.90534 -0.02815
C 28.26116 19.16443 -0.00942
C 28.29674 17.77448 0.00487
C 27.017 17.08468 0.00826
C 27.0563 15.64068 -0.00294
C 28.29173 15.00059 0.00152
C 28.29281 13.50048 0.01257
C 27.09587 12.78729 0.02316
C 24.60503 2.82207 -0.00938
C 24.55626 32.60629 0.02239
C 24.66984 4.17022 -0.00229
C 25.80439 6.37218 -0.009
C 25.82246 30.56317 0.02734
C 24.54001 29.85124 -0.0055
C 24.54837 28.38573 0.01515
C 25.75382 27.64663 -0.00225
C 25.77527 26.22939 0.00071
C 24.52448 25.5652 -0.01107
C 24.58217 24.15539 -0.01586
C 25.85355 23.45721 -0.01971
C 25.89272 22.03355 -0.02118
C 24.64323 21.2995 0.00733
C 24.56431 19.91129 -0.00178
C 25.83583 19.24929 0.00768
C 25.83237 17.76065 -0.0276
C 24.64178 16.98567 0.03005
C 24.62705 15.60761 -0.04078
C 25.84191 14.89491 0.02117
C 25.83828 13.46792 0.02737
C 24.56304 12.78048 -0.00498
C 24.60363 11.34647 0.00135
C 25.83568 10.66135 0.03102
C 25.80928 9.24089 0.02555
C 24.58557 8.55483 0.01423
C 24.59457 7.14178 -0.00285
C 25.8709 4.96908 -0.01199
C 2.38492 32.74231 -0.03672
