398
Graphene
C 34.40992 0.00219 0.01295
C 13.52739 30.57866 0.02894
C 12.24092 29.90057 -0.01789
C 12.22959 28.45526 0.00444
C 13.48154 27.74676 -0.00925
C 13.44808 26.33749 0.01877
C 12.2703 25.60714 0.01363
C 12.29274 24.12312 -0.02162
C 13.52571 23.45671 0.00415
C 13.47571 21.96154 -0.0014
C 13.48214 32.03899 -0.02971
C 12.3043 21.31061 0.02162
C 13.51627 19.16286 0.01241
C 13.51658 17.74364 -0.01454
C 12.27668 17.02082 0.01945
C 12.32365 15.60919 0.01416
C 13.55629 14.84529 0.03542
C 13.58081 13.49778 0.02299
C 12.32252 12.77623 0.00244
C 12.32628 11.3487 -0.01717
C 13.69052 10.52109 0.05265
C 12.26596 19.88365 0.0076
C 12.24927 32.72007 0.00165
C 9.78286 0.10045 0.02819
C 11.12061 0.69837 -0.00891
C 11.08826 23.48049 -0.00719
C 11.02731 21.99631 0.01364
C 9.83512 21.2923 -0.01062
C 9.82546 19.85755 -0.00033
C 11.032 19.20144 0.03589
C 11.03466 17.79238 -0.02759
C 9.80953 17.09746 0.0402
C 9.81984 15.64946 0.00572
C 11.06078 14.87686 0.03592
C 11.07079 13.49021 0.00406
C 9.81979 12.79815 0.00943
C 9.86085 11.38845 0.02841
C 11.12052 10.5963 -0.01111
C 11.06163 9.17484 -0.01275
C 9.66822 8.65319 0.00985
C 9.52991 7.27851 -0.02245
C 10.9007 6.47412 -0.00428
C 11.09596 5.0427 0.03101
C 9.84889 4.34843 -0.01536
C 9.88237 2.94048 -0.02689
C 11.10651 2.16855 -0.01046
C 13.51118 9.16848 -0.01952
C 12.45498 8.34581 -0.02813
C 12.17111 7.01105 0.00374
C 13.56746 4.7966 0.00052
C 14.85941 11.30299 0.00213
C 14.69278 3.03281 -0.00066
C 16.06124 0.58852 -0.00289
C 14.80192 0.019 0.00028
C 17.24861 32.66211 -0.02213
C 18.47147 31.93025 0.03698
C 18.46049 30.51794 -0.00109
C 17.2551 29.83348 -0.00491
C 17.24142 28.47291 0.03338
C 18.44014 27.73357 -0.0258
C 18.41818 26.29808 -0.0331
C 17.21199 25.53533 -0.00316
C 17.13114 24.11609 0.02188
C 18.35464 23.39342 -0.01979
C 18.36746 22.04157 0.02691
C 17.16737 21.3173 -0.01581
C 17.17196 19.86465 0.01452
C 18.40348 19.18958 0.04892
C 18.44818 17.84143 -0.00111
C 17.22131 17.01745 -0.03557
C 17.25852 15.63537 0.03754
C 14.69201 12.73757 -0.05302
C 9.79087 24.19961 0.01641
C 15.94965 13.41593 -0.04147
C 14.77416 15.53826 0.03505
C 12.37748 4.25913 -0.03682
C 12.281 2.84734 0.01965
C 13.56506 2.17395 0.02058
C 13.56822 0.80291 -0.01957
C 12.34534 0.06571 -0.0108
C 14.80614 32.67106 -0.00368
C 16.01154 31.94394 -0.02696
C 16.03617 30.58782 -0.00114
C 14.75871 29.89203 0.00228
C 14.80301 28.3942 0.00798
C 16.03153 27.68413 0.00422
C 16.04793 26.17251 0.0351
C 14.69795 25.52837 -0.03113
C 14.72506 24.13983 0.02098
C 15.94427 23.37042 0.01848
C 15.91256 21.96807 -0.00619
C 14.73461 21.25047 -0.02162
C 14.70836 19.83464 0.00889
C 15.98751 19.15203 -0.00481
C 15.98375 17.70574 0.00979
C 14.74741 17.01107 0.01443
C 15.99308 14.86027 -0.02815
C 9.81106 25.62746 0.02339
C 11.0523 26.34692 -0.00334
C 10.98346 27.78336 -0.01634
C 2.40787 4.33971 0.0174
C 2.3941 2.9063 0.03828
C 3.69365 2.15773 0.01226
C 3.6726 0.76479 -0.00279
C 2.46233 0.07032 0.01996
C 4.90755 32.75148 -0.03996
C 6.14648 32.00984 0.01465
C 6.06842 30.6118 -0.00074
C 4.80917 29.89939 -0.00518
C 4.93208 28.43859 0.0086
C 6.0681 27.70688 -0.00643
C 6.09892 26.29631 0.017
C 4.85971 25.52305 -0.03113
C 4.8957 24.14061 -0.02566
C 6.14059 23.49048 -0.00094
C 6.15698 21.99682 0.02322
C 4.94983 21.32278 -0.00725
C 4.8804 19.89929 -0.05697
C 6.15463 19.12354 0.01087
C 6.06967 17.65436 -0.01343
C 4.81843 16.97267 0.00988
C 3.73816 5.05346 0.0073
C 4.83615 15.62074 0.0276
C 3.71117 6.44736 0.00402
C 2.39944 8.59419 0.03267
C 3.64725 30.62832 -0.00449
C 2.44075 29.84273 -0.01979
C 2.45853 28.45468 0.02784
C 3.56912 27.6843 -0.01977
C 3.60716 26.27889 -0.00561
C 2.39887 25.48434 0.00208
C 2.41152 24.077 0.01707
C 3.68793 23.49558 0.02769
C 3.67576 21.96033 -0.03291
C 2.45119 21.27862 -0.04999
C 2.3826 19.80895 0.04505
C 3.64423 19.12132 0.03284
C 3.64538 17.72369 -0.04307
C 2.4158 17.02076 0.03189
C 2.41919 15.63665 0.00031
C 3.61769 14.92049 -0.003
C 3.61735 13.46114 0.01402
C 2.40955 12.75086 0.02379
C 2.3832 11.36399 0.00907
C 3.60987 10.66429 0.00643
C 3.64887 9.27433 -0.01509
C 2.42572 7.21167 0.02374
C 18.54426 15.0122 0.01739
C 6.11084 14.84393 0.01305
C 4.88434 12.77151 0.03368
C 8.63279 19.18363 0.00393
C 8.56177 17.75596 0.00895
C 7.33042 17.00878 0.00685
C 7.38864 15.58231 0.02888
C 8.60282 14.93539 -0.00482
C 8.59946 13.53251 -0.01384
C 7.45108 12.74223 0.03693
C 7.43815 11.27773 0.01745
C 8.6885 10.55841 0.00488
C 8.36678 6.41512 -0.01004
C 8.54576 5.01959 -0.02896
C 7.34298 4.30757 -0.00131
C 7.38138 2.83764 -0.01118
C 8.57155 2.23457 -0.014
C 8.55437 0.77935 0.02147
C 7.32732 0.13433 0.00373
C 9.72944 32.77408 -0.00191
C 11.03826 31.99447 0.00438
C 10.99516 30.58838 0.01291
C 9.79305 29.91732 0.00093
C 9.76611 28.51696 0.00057
C 7.37106 19.81635 0.0288
C 6.17624 13.47122 -0.00077
C 7.42983 21.34446 -0.0008
C 8.58203 23.45184 -0.00892
C 4.92248 11.36045 -0.02929
C 6.14918 10.75674 -0.00966
C 6.08673 9.36445 -0.03337
C 4.96894 8.54909 0.01227
C 5.0752 7.16811 0.00873
C 6.35339 6.42546 -0.00049
C 6.13033 5.02268 0.00848
C 4.98396 4.28491 -0.01303
C 4.88696 2.90376 -0.01378
C 6.1252 2.2289 0.02635
C 6.10596 0.81918 0.0127
C 4.94559 0.05619 0.01396
C 7.34466 32.77591 0.01849
C 8.5784 32.04072 -0.01142
C 8.58012 30.63831 -0.00562
C 7.32261 29.89468 -0.00494
C 7.32771 28.49682 0.00054
C 8.52829 27.795 0.03007
C 8.60632 26.37534 -0.00095
C 7.32572 25.59152 0.01572
C 7.36726 24.17959 -0.04848
C 8.64544 22.04861 -0.01362
C 18.39893 13.61759 0.00755
C 17.33725 13.03958 -0.0054
C 17.32782 34.05581 0.00667
C 29.57821 7.09641 0.01518
C 30.7886 6.35187 0.01908
C 30.75909 4.92854 0.07705
C 29.502 4.2319 0.0103
C 29.49101 2.85274 0.02108
C 30.79142 2.10726 0.00716
C 30.74337 0.66844 0.00307
C 29.53987 34.02339 0.00346
C 32.06126 32.61941 0.01713
C 33.29364 31.89866 -0.01694
C 33.26016 30.50014 0.01428
C 31.99793 29.80052 -0.02142
C 31.99446 28.35227 0.0544
C 33.17315 27.6445 0.00026
C 33.22142 26.21824 0.00682
C 31.96272 25.48374 -0.01779
C 31.95292 24.1323 0.03794
C 33.18023 23.36107 0.01927
C 33.22147 21.93724 0.01574
C 31.96481 21.29373 -0.02383
C 31.96276 19.9342 -0.01429
C 29.4904 8.46279 -0.00971
C 33.18357 19.14962 -0.0136
C 30.70739 9.26994 -0.03735
C 29.48883 11.35839 -0.02155
C 27.06333 0.0305 -0.00416
C 29.50182 32.63931 0.01177
C 30.83306 31.89711 0.04266
C 30.77247 30.49687 0.01324
C 29.51138 29.74588 0.0014
C 29.47103 28.30258 0.00924
C 30.72087 27.60511 0.02326
C 30.71075 26.24337 0.00261
C 29.45891 25.52661 0.03265
C 29.47912 24.09403 -0.02049
C 30.69408 23.41328 -0.01854
C 30.63232 22.01516 -0.01415
C 29.39792 21.31749 -0.03039
C 29.39572 19.9158 0.01836
C 30.64056 19.22016 0.03531
C 30.65195 17.83003 -0.00669
C 29.39539 17.08038 0.0101
C 29.45868 15.67754 0.01705
C 30.64584 14.94454 -0.0405
C 30.68948 13.52745 -0.01303
C 29.48225 12.80237 -0.01461
C 30.76902 10.63609 -0.00944
C 28.29016 0.71567 0.01699
C 33.12914 17.7682 0.00594
C 31.8661 15.66129 0.00369
C 1.20261 22.0186 0.02712
C 0.02568 21.25357 -0.02213
C 34.39247 19.87364 0.01951
C 1.15506 19.13067 -0.01678
C 1.18797 17.71999 0.01223
C 34.40706 17.01382 0.00648
C 34.35784 15.62349 0.02114
C 1.18691 14.95781 -0.02957
C 1.19852 13.46695 0.00343
C 34.38308 12.76329 -0.02656
C 34.36106 11.3537 -0.02442
C 1.14204 10.68221 -0.00027
C 1.19795 9.2626 -0.00583
C 34.4106 8.5398 -0.02302
C 0.02154 7.07752 -0.02849
C 1.21254 6.43984 0.02931
C 1.18044 5.05441 0.00628
C 34.37941 4.30625 -0.0345
C 34.38418 2.92874 -0.00931
C 1.2109 2.16794 -0.00939
C 1.2093 0.70145 -0.00468
C 1.22166 23.4153 0.00723
C 31.81804 17.09189 -0.02474
C 0.00288 24.08744 0.03076
C 1.24642 26.28572 -0.00598
C 33.11897 14.98048 0.00455
C 33.18601 13.54359 -0.00644
C 31.91269 12.83271 -0.01839
C 31.99327 11.35478 0.00137
C 33.15449 10.64335 0.00199
C 33.15855 9.25259 0.04381
C 31.99586 8.49909 0.02806
C 31.97578 7.09289 0.01504
C 33.21301 6.36524 -0.00069
C 33.13296 4.96055 0.04926
C 31.94998 4.20112 -0.03838
C 31.95152 2.85703 0.00349
C 33.16824 2.14524 -0.00323
C 33.19234 0.68607 -0.00841
C 32.00193 0.01697 0.0001
C 0.03484 32.65169 -0.02927
C 1.25306 31.96803 -0.01404
C 1.26699 30.52123 0.01027
C 34.42374 29.83048 0.01831
C 34.39402 28.43702 -0.01037
C 1.15857 27.71642 -0.00439
C 34.41724 25.52395 -0.05239
C 3.68377 32.01078 0.00211
C 28.333 2.09839 0.01799
C 27.07684 4.34689 0.01495
C 23.28371 27.64795 0.01511
C 23.32335 26.24775 -0.00478
C 22.12807 25.47529 -0.01662
C 22.05424 24.09887 -0.01185
C 23.32737 23.40276 0.01126
C 23.36566 22.03484 0.01852
C 22.12723 21.34635 -0.00381
C 22.04929 19.89499 0.03046
C 23.27756 19.1584 0.0296
C 23.26832 17.70039 0.03374
C 22.10397 16.97556 -0.02845
C 22.13696 15.55218 -0.03213
C 23.33849 14.82755 0.02239
C 23.43846 13.36573 0.01153
C 22.16093 12.70444 0.02734
C 23.30852 0.41407 -0.0055
C 22.16387 0.09195 0.01515
C 24.67241 32.72977 -0.00225
C 25.85114 32.00873 0.00071
C 25.8427 30.43494 -0.01107
C 24.56862 29.80321 -0.01586
C 22.12201 28.36784 0.00199
C 24.53808 28.3801 -0.01971
C 22.16094 29.83442 0.01087
C 23.42648 32.00833 0.00096
C 19.63368 32.7446 0.00143
C 20.88062 32.0109 -0.017
C 20.89233 30.61369 0.00364
C 19.69076 29.7891 -0.00831
C 19.66174 28.39451 -0.02957
C 20.87677 27.67386 -0.04422
C 20.86616 26.28208 0.00654
C 19.59766 25.51958 -0.00703
C 19.58652 24.13055 -0.04076
C 20.85598 23.39341 -0.00652
C 20.85946 21.96958 0.0058
C 19.55908 21.29893 -0.00865
C 19.62635 19.845 0.00675
C 20.86324 19.16487 -0.00311
C 20.88524 17.75041 0.00742
C 19.69017 17.01552 -0.01594
C 19.7138 15.65303 0.0106
C 20.89617 14.90322 -0.01154
C 21.1634 13.48216 -0.01721
C 19.20547 0.04545 -0.02422
C 22.1699 32.67993 0.01277
C 23.35986 30.60728 -0.01527
C 27.1467 2.91838 0.01259
C 25.76737 27.71279 -0.02118
C 24.55387 25.53896 -0.00178
C 28.24213 26.29681 -0.00802
C 27.01186 25.58593 -0.00218
C 26.99024 24.11769 -0.01654
C 28.26912 23.432 -0.00037
C 28.19033 22.07706 -0.0032
C 26.99103 21.28088 0.00622
C 26.93306 19.84463 -0.02815
C 28.20262 19.17753 -0.00942
C 28.21502 17.7914 0.00487
C 27.03666 17.02746 0.00826
C 27.08503 15.65233 -0.00294
C 28.31061 14.9012 0.00152
C 28.32884 13.52191 0.01257
C 27.0933 12.76745 0.02316
C 27.0255 11.31513 0.04185
C 28.23995 10.62942 0.00194
C 28.21613 9.18969 -0.00621
C 26.97779 8.45619 0.02611
C 27.06295 7.07349 0.02198
C 28.3505 6.45264 0.01094
C 28.33658 5.01035 0.00235
C 28.23712 27.65048 0.00195
C 25.76877 26.31067 0.00733
C 27.07302 28.32221 0.00996
C 28.28779 30.48929 0.00367
C 24.48314 24.14396 0.00768
C 25.76365 23.42698 -0.0276
C 25.74438 21.99549 0.03005
C 24.49803 21.24521 -0.04078
C 24.486 19.86846 0.02117
C 25.77494 19.09915 0.02737
C 25.76564 17.6782 -0.00498
C 24.48218 16.94233 0.00135
C 24.55837 15.45984 0.03102
C 25.86137 14.83842 0.02555
C 25.8837 13.48018 0.01423
C 24.70137 12.72343 -0.00285
C 24.63936 11.44726 -0.009
C 25.68572 10.53423 -0.01199
C 25.82065 9.23861 -0.00229
C 25.89371 5.0477 -0.00938
C 25.86115 2.13057 -0.0264
C 25.86648 0.81259 -0.01154
C 24.6587 0.06533 0.00684
C 27.0544 32.68373 -0.01052
C 28.35354 31.93108 -0.01679
C 27.11933 29.76966 0.04306
C 2.45387 32.70832 0.0064
