338
Graphene
C 0.01946 34.07734 0.01295
C 9.88156 4.2818 0.00889
C 9.81027 2.92394 -0.00481
C 11.06608 2.23181 0.00979
C 11.03461 0.73423 0.01443
C 9.79159 0.01204 0.03505
C 12.31446 32.60123 -0.02815
C 13.51602 31.88291 -0.04147
C 13.55203 30.52073 -0.05302
C 12.25242 29.8302 0.00213
C 12.21889 28.39181 -0.00066
C 13.48692 27.63565 -0.00289
C 13.42139 26.09811 0.00028
C 12.12534 25.54966 -0.02213
C 13.4588 9.23856 0.03698
C 12.27562 8.56113 -0.00109
C 12.3618 7.17515 -0.00491
C 13.57622 6.5123 0.03338
C 11.03512 5.02013 -0.02162
C 13.51936 5.04584 -0.0258
C 11.09801 6.47746 -0.00619
C 9.80781 8.57311 0.02098
C 7.40614 4.3014 -0.01952
C 7.4044 2.94858 -0.02813
C 8.59354 2.20757 0.00374
C 8.54782 0.76087 0.00052
C 7.32235 0.07279 -0.03682
C 9.78691 32.68351 0.01965
C 11.04671 31.91019 0.02058
C 11.05943 30.57921 -0.01957
C 9.85678 29.89045 -0.0108
C 9.83641 28.42905 -0.00368
C 11.00761 27.74504 -0.02696
C 10.96728 26.28887 -0.00114
C 9.80372 25.64857 0.00228
C 9.83203 24.21515 0.00798
C 9.87825 11.22693 0.00422
C 11.07324 10.73395 0.0351
C 11.13193 9.2188 -0.03113
C 9.78624 7.11603 0.01848
C 8.62416 4.99018 0.05265
C 12.31815 4.26099 -0.0331
C 13.47308 2.21758 0.02188
C 18.42587 32.01129 -0.00652
C 18.49135 30.56921 0.0058
C 17.17255 29.74376 -0.00865
C 17.13865 28.351 0.00675
C 18.37137 27.72583 -0.00311
C 18.52882 26.161 0.00742
C 17.21683 25.95208 -0.01594
C 18.50268 9.30462 0.0106
C 17.28351 8.62422 -0.01154
C 17.24195 7.1026 -0.01721
C 18.36395 6.34124 -0.02422
C 18.37152 4.89392 0.01277
C 17.15424 4.23543 0.00096
C 17.16542 2.91278 -0.01527
C 18.38763 2.11118 0.01087
C 18.37116 0.68627 0.00199
C 17.11342 0.02694 0.01511
C 17.18663 32.62267 -0.04076
C 12.26692 2.86173 -0.00316
C 14.6982 34.07578 -0.00703
C 15.94354 2.22755 -0.04422
C 13.501 0.75283 -0.01979
C 12.26438 0.03571 0.02691
C 14.7801 32.59758 -0.01581
C 16.01895 31.89767 0.01452
C 15.94659 30.50126 0.04892
C 14.74416 29.82593 -0.00111
C 14.62704 28.3502 -0.03557
C 15.93045 27.65379 0.03754
C 15.94864 26.01133 0.01739
C 14.67091 25.44856 0.00755
C 16.05227 9.07774 -0.0054
C 14.80064 8.64296 0.00667
C 14.80197 7.17274 0.00143
C 16.02086 6.43798 -0.017
C 15.92651 5.0117 0.00364
C 14.68598 4.31704 -0.00831
C 14.70387 2.88298 -0.02957
C 15.9075 0.82925 0.00654
C 8.55572 6.39191 -0.01717
C 7.3529 7.15773 0.00244
C 7.40429 8.51391 0.02299
C 2.37622 8.49041 0.03693
C 2.37943 7.14579 0.01745
C 3.67489 6.47796 0.00488
C 3.67982 5.04876 -0.01004
C 2.38014 4.31196 -0.02896
C 2.39038 2.929 -0.00131
C 3.68424 2.24523 -0.01118
C 3.55864 0.81395 -0.014
C 2.36516 0.12166 0.02147
C 4.86089 32.71416 0.00373
C 6.0373 31.97287 -0.00191
C 6.11101 30.48118 0.00438
C 4.86305 29.87371 0.01291
C 4.91737 28.41608 0.00093
C 6.13814 27.67813 0.00057
C 6.11533 26.25547 -0.01634
C 4.94923 25.56842 -0.00334
C 3.61526 9.24645 -0.01384
C 4.97058 24.13339 0.02339
C 3.52746 10.61753 -0.00482
C 2.38266 12.82324 0.00685
C 3.67824 30.56381 0.0127
C 2.47525 29.77916 0.01396
C 2.47622 28.37223 0.01849
C 3.7274 27.69892 -0.01142
C 3.6975 26.2634 -0.00562
C 2.53376 25.52159 -0.00494
C 2.46205 24.10868 0.00054
C 3.7258 23.41102 0.03007
C 3.65585 21.99471 -0.00095
C 2.36553 21.28892 0.01572
C 2.23822 19.95003 -0.04848
C 3.50902 19.27891 -0.00892
C 3.59317 17.81002 -0.01362
C 2.31732 17.10566 -0.0008
C 2.35527 15.71756 0.0288
C 3.54602 14.93626 0.00393
C 3.59878 13.4368 0.00895
C 2.37304 11.39108 0.02888
C 6.19702 23.41521 0.01641
C 6.1279 22.00842 -0.00719
C 4.90893 21.3446 0.01364
C 8.64498 30.54813 -0.02971
C 7.333 29.81416 0.02894
C 7.3282 28.45574 -0.01789
C 8.53201 27.72742 0.00444
C 8.59641 26.23072 -0.00925
C 7.36702 25.67138 0.01877
C 7.44339 24.14718 0.01363
C 8.68612 23.43021 -0.02162
C 8.57849 22.04429 0.00415
C 7.53789 21.1615 -0.0014
C 7.31217 19.81385 0.02162
C 7.39686 17.03941 0.0076
C 7.25696 15.64659 0.01241
C 7.27704 12.76329 -0.01454
C 7.45199 11.4061 0.01945
C 8.61907 10.77314 0.01416
C 8.63983 9.30514 0.03542
C 8.52907 31.94347 0.00165
C 7.33126 32.66469 0.02819
C 4.82197 0.05437 -0.00891
C 6.04339 0.7956 -0.01046
C 4.88812 19.88937 -0.01062
C 6.16027 19.14801 -0.00033
C 6.17589 17.79316 0.03589
C 4.86336 17.04125 -0.02759
C 4.85448 15.56514 0.0402
C 6.15231 14.88558 0.00572
C 6.06922 13.45492 0.03592
C 4.86913 12.73922 0.00406
C 19.59628 32.7655 -0.00478
C 4.89722 11.36903 0.00943
C 6.16593 9.25307 -0.01111
C 4.89521 8.56769 -0.01275
C 4.98467 7.17808 0.00985
C 6.18105 6.39361 -0.02245
C 6.16921 4.98323 -0.00428
C 4.93318 4.36646 0.03101
C 4.98047 2.90208 -0.01536
C 6.10981 2.25308 -0.02689
C 6.18323 10.64224 0.02841
C 20.83554 32.05674 -0.01662
C 20.84904 30.62005 -0.01185
C 19.6211 29.87238 0.01126
C 31.94596 29.90263 -0.02142
C 31.96718 28.42659 0.0544
C 33.23116 27.71911 0.00026
C 33.14795 26.26671 0.00682
C 31.97432 25.59261 -0.01779
C 31.89297 24.19879 0.03794
C 33.10351 23.50427 0.01927
C 33.11457 22.06625 0.01574
C 31.80955 21.2887 -0.02383
C 31.74293 19.92791 -0.01429
C 32.96132 19.21589 -0.0136
C 33.07944 17.80374 0.00594
C 31.87902 16.97668 -0.02474
C 31.99873 15.52213 0.00369
C 33.16694 14.85644 0.00455
C 33.14308 13.42315 -0.00644
C 31.948 12.72158 -0.01839
C 33.15198 30.56838 0.01428
C 31.91906 11.21471 0.00137
C 33.20862 31.97385 -0.01694
C 29.41233 0.07232 0.00346
C 30.54848 19.00214 -0.00669
C 30.71329 17.84986 0.0101
C 29.38093 15.42333 0.01705
C 30.78033 14.8171 -0.0405
C 30.71856 13.42274 -0.01303
C 29.45223 12.75425 -0.01461
C 29.3445 11.39413 -0.02155
C 30.61902 10.62224 -0.00944
C 30.7165 9.15452 -0.03735
C 29.38798 8.50873 -0.00971
C 29.4223 7.04564 0.01518
C 30.70021 6.39993 0.01908
C 30.76418 4.9563 0.07705
C 29.42706 4.3254 0.0103
C 29.48782 2.84106 0.02108
C 30.70063 2.15751 0.00716
C 30.74432 0.72602 0.00307
C 31.97671 32.598 0.01713
C 33.14033 10.61838 0.00199
C 33.14689 9.28148 0.04381
C 31.98403 8.5358 0.02806
C 1.16905 17.7373 0.01223
C 34.35408 17.00977 0.00648
C 34.34518 15.6134 0.02114
C 1.20883 14.91153 -0.02957
C 1.18813 13.45151 0.00343
C 34.36477 12.70992 -0.02656
C 34.35157 11.32521 -0.02442
C 1.18112 10.65442 -0.00027
C 1.1293 9.27564 -0.00583
C 34.36558 8.56451 -0.02302
C 34.41677 7.14225 -0.02849
C 1.16855 6.43856 0.02931
C 1.10342 4.99322 0.00628
C 34.33704 4.24299 -0.0345
C 34.28188 2.84172 -0.00931
C 1.14407 2.19207 -0.00939
C 1.16548 0.77491 -0.00468
C 1.06036 19.17783 -0.01678
C 34.32707 19.89138 0.01951
C 34.28965 21.27712 -0.02213
C 1.16253 22.09145 0.02712
C 31.97953 7.1031 0.01504
C 33.17425 6.3937 -0.00069
C 33.22165 4.93396 0.04926
C 32.00004 4.25894 -0.03838
C 31.91975 2.83009 0.00349
C 33.14025 2.14217 -0.00323
C 33.20458 0.63108 -0.00841
C 31.9664 34.07679 0.0001
C 30.75011 22.24172 0.03531
C 34.41662 32.67561 -0.02927
C 1.24867 30.49407 0.01027
C 0.00951 29.86554 0.01831
C 0.00348 28.38711 -0.01037
C 1.18977 27.60998 -0.00439
C 1.25337 26.23131 -0.00598
C 34.35668 25.60315 -0.05239
C 34.42295 24.1566 0.03076
C 1.19576 23.42148 0.00723
C 1.17458 31.96926 -0.01404
C 3.64731 32.02882 0.02635
C 30.52479 23.51365 0.01836
C 30.76789 26.36859 -0.01415
C 21.84493 11.36493 -0.0276
C 23.24345 10.62534 0.03005
C 23.19643 9.24 -0.04078
C 22.05389 8.41888 0.02117
C 22.12335 7.09191 0.02737
C 23.36293 6.46423 -0.00498
C 23.36205 4.96346 0.00135
C 22.08966 4.31789 0.03102
C 22.05587 2.79538 0.02555
C 23.31365 2.09195 0.01423
C 23.39528 0.65832 -0.00285
C 22.17962 34.04989 -0.009
C 24.53492 32.61242 -0.01199
C 25.76644 32.04806 -0.00229
C 25.7879 30.57845 -0.00938
C 24.56098 29.81996 -0.0264
C 24.66623 28.32955 -0.01154
C 22.02278 12.67134 0.00768
C 25.91366 27.54748 0.00684
C 23.24374 13.38083 -0.00178
C 22.09538 28.30009 -0.02118
C 19.62791 28.40573 0.01852
C 20.80397 27.83682 -0.00381
C 20.78442 10.45477 0.03046
C 20.77001 9.1246 0.0296
C 19.61181 8.4084 0.03374
C 19.61676 6.99556 -0.02845
C 20.82967 6.36697 -0.03213
C 20.80811 4.98613 0.02239
C 19.60661 4.31444 0.01153
C 19.56316 2.84376 0.02734
C 20.76456 2.0957 -0.0055
C 20.91658 0.69699 0.01515
C 19.60251 0.02209 -0.00225
C 22.00676 32.72323 0.00071
C 23.32672 31.95023 -0.01107
C 23.26795 30.49063 -0.01586
C 22.05949 29.86395 -0.01971
C 23.38794 27.82241 0.00733
C 25.80362 13.63724 -0.01052
C 24.49814 13.08703 -0.01679
C 24.42717 11.35149 0.00367
C 28.16099 10.689 0.01094
C 28.15271 9.18618 0.00235
C 26.90647 8.5831 0.01495
C 27.00604 7.18601 0.01259
C 28.22715 6.4168 0.01799
C 28.2067 4.98511 0.01699
C 26.91158 4.31663 -0.00416
C 26.97593 2.8403 0.01177
C 28.2345 2.19856 0.04266
C 28.19821 0.81893 0.01324
C 27.02547 34.06865 0.0014
C 29.53348 32.76408 0.00924
C 30.67073 32.00148 0.02326
C 30.662 30.55608 0.00261
C 29.40609 29.89804 0.03265
C 29.49187 28.46651 -0.02049
C 30.71337 27.79861 -0.01854
C 26.92494 11.44809 0.02198
C 26.97014 12.88726 0.02611
C 28.22845 13.4489 -0.00621
C 28.28745 14.95041 0.00194
C 25.70959 10.74456 0.04306
C 25.70729 9.2659 0.00996
C 24.48146 8.51363 0.00195
C 24.57381 7.12229 -0.00802
C 25.79501 6.43671 -0.00218
C 25.73808 5.01277 -0.01654
C 24.50924 4.20224 -0.00037
C 24.54504 2.85229 -0.0032
C 29.54405 25.80398 -0.03039
C 25.77427 2.17722 0.00622
C 24.61338 34.03674 -0.00942
C 27.01533 32.72543 0.00487
C 28.29892 32.00666 0.00826
C 28.17561 30.64983 -0.00294
C 27.06401 29.77533 0.00152
C 27.01698 28.333 0.01257
C 28.267 27.77181 0.02316
C 28.42933 26.2194 0.04185
C 25.72303 0.74163 -0.02815
C 2.4477 32.75421 -0.01378
