374
Graphene
C 0.01323 0.01491 0.01295
C 12.36961 8.50204 0.02299
C 12.28507 7.12025 0.00244
C 13.53527 6.40924 -0.01717
C 13.55456 4.94106 0.05265
C 12.30687 4.25659 -0.01952
C 12.29729 2.83994 -0.02813
C 13.50918 2.09916 0.00374
C 13.48694 0.69244 0.00052
C 12.30908 34.0424 -0.03682
C 14.76343 32.65197 0.01965
C 16.02194 31.93584 0.02058
C 15.98873 30.51459 -0.01957
C 14.77338 29.8179 -0.0108
C 14.79382 28.38946 -0.00368
C 15.97809 27.70025 -0.02696
C 15.99605 26.24742 -0.00114
C 14.75795 25.54138 0.00228
C 14.71013 24.10917 0.00798
C 14.74087 12.778 0.00422
C 13.49132 9.22051 0.03542
C 14.75502 11.35924 0.0351
C 13.5176 10.65893 0.01416
C 12.29238 12.77826 -0.01454
C 11.01357 6.40117 -0.01536
C 11.06872 4.98619 -0.02689
C 9.87938 4.29216 -0.01046
C 9.89041 2.84496 -0.00891
C 11.09714 2.12536 0.02819
C 11.06623 0.73228 0.00165
C 9.8475 0.01302 -0.02971
C 12.30747 32.66565 0.02894
C 13.52504 32.0116 -0.01789
C 13.50742 30.52982 0.00444
C 12.28016 29.85475 -0.00925
C 12.3113 28.37029 0.01877
C 13.55521 27.68249 0.01363
C 13.544 26.26087 -0.02162
C 12.30882 25.56259 0.00415
C 12.29843 24.11635 -0.0014
C 13.5448 23.46878 0.02162
C 12.30937 15.57097 0.0076
C 13.49416 13.47656 0.01241
C 12.29745 11.36525 0.01945
C 16.01334 10.62459 -0.03113
C 15.98244 9.23097 0.02098
C 14.77397 8.50572 0.01848
C 17.20515 4.33906 0.02691
C 17.218 2.86029 -0.01581
C 18.43962 2.09988 0.01452
C 18.45428 0.67433 0.04892
C 17.2454 0.0369 -0.00111
C 19.66521 32.62529 -0.03557
C 20.91123 31.96269 0.03754
C 20.90906 30.52713 0.01739
C 19.66652 29.80048 0.00755
C 19.7224 28.42499 -0.0054
C 20.9006 27.67834 0.00667
C 20.93086 26.25599 0.00143
C 19.68409 25.54793 -0.017
C 19.72207 24.15332 0.00364
C 20.88857 23.44924 -0.00831
C 20.89462 13.49175 -0.02957
C 19.68787 12.77646 -0.04422
C 19.68393 11.37456 0.00654
C 20.87923 10.63637 -0.00703
C 18.45156 4.96075 -0.01979
C 18.42494 6.39752 0.02188
C 17.15402 7.14902 -0.00316
C 17.20149 8.52129 -0.0331
C 14.75787 7.11819 -0.00619
C 15.99498 6.39384 -0.02162
C 15.98613 4.98351 0.00889
C 14.74145 4.28212 -0.00481
C 14.73822 2.84833 0.00979
C 16.0237 2.16113 0.01443
C 15.97402 0.69702 0.03505
C 14.75384 34.05144 -0.02815
C 17.22209 32.66938 -0.04147
C 11.0669 9.23254 0.03101
C 18.46283 31.98831 -0.05302
C 17.19069 29.80971 -0.00066
C 17.20131 28.4065 -0.00289
C 18.4709 27.70088 0.00028
C 18.46189 26.25788 -0.02213
C 17.18518 25.57692 0.03698
C 17.21041 12.73671 -0.00109
C 17.23081 11.32419 -0.00491
C 18.41269 10.63511 0.03338
C 18.45841 9.20126 -0.0258
C 18.41508 30.5082 0.00213
C 11.04959 10.65337 -0.00428
C 9.81526 11.36642 -0.02245
C 9.85711 12.77378 0.00985
C 6.16686 31.97869 -0.00077
C 6.13714 30.57723 0.03368
C 4.95966 29.77943 -0.02929
C 4.91258 28.41303 -0.00966
C 6.12263 27.69286 -0.03337
C 6.15478 26.29616 0.01227
C 4.9614 25.56047 0.00873
C 4.91838 24.14108 -0.00049
C 6.12456 23.43705 0.00848
C 6.16237 22.01364 -0.01303
C 4.92225 21.33948 -0.01378
C 4.93456 19.9001 0.02635
C 6.16464 19.16057 0.0127
C 6.15542 17.7564 0.01396
C 4.93742 17.0752 0.01849
C 4.95309 15.63685 -0.01142
C 6.10764 14.92518 -0.00562
C 6.15978 13.45997 -0.00494
C 4.92995 12.76468 0.00054
C 4.90431 32.67284 0.01305
C 2.41378 0.04163 0.0276
C 3.69526 0.68932 0.00988
C 3.72146 2.13337 -0.01343
C 3.68915 30.52627 0.0073
C 2.49443 29.81301 0.0174
C 2.44697 28.38513 0.03828
C 3.67524 27.66464 0.01226
C 3.6263 26.35205 -0.00279
C 2.47279 25.56972 0.01996
C 2.47532 24.12977 -0.03996
C 3.69068 23.44245 0.01465
C 3.71313 22.00537 -0.00074
C 4.90122 2.7944 0.03007
C 2.50304 21.29574 -0.00518
C 3.64088 19.14204 -0.00643
C 3.67213 17.81266 0.017
C 2.45615 17.05305 -0.03113
C 2.45932 15.62551 -0.02566
C 3.69845 14.93838 -0.00094
C 3.67061 13.42063 0.02322
C 2.49453 12.7533 -0.00725
C 2.45637 4.30189 -0.05697
C 2.45908 2.8815 0.01087
C 2.48872 19.88604 0.0086
C 20.90964 9.19405 -0.04076
C 6.14879 2.10872 -0.00095
C 4.90315 34.0761 -0.04848
C 9.84706 32.63796 0.00057
C 11.07146 31.98578 -0.01634
C 11.09603 30.57425 -0.00334
C 9.82716 29.84413 0.02339
C 9.87726 28.41625 0.01641
C 11.12932 27.69977 -0.00719
C 11.07196 26.31336 0.01364
C 9.83774 25.55349 -0.01062
C 9.81944 24.13466 -0.00033
C 11.03222 23.43476 0.03589
C 11.03387 21.96691 -0.02759
C 9.84699 21.30846 0.0402
C 9.81804 19.8873 0.00572
C 11.02642 19.20081 0.03592
C 11.07019 17.74222 0.00406
C 9.81901 17.04291 0.00943
C 9.81771 15.65282 0.02841
C 11.0747 14.91505 -0.01111
C 11.0654 13.52405 -0.01275
C 7.40323 0.00459 0.00093
C 8.60238 0.74118 0.01291
C 8.64407 2.1296 0.00438
C 7.36801 2.88765 -0.00191
C 7.41334 32.64416 -0.00892
C 8.58988 31.97683 -0.01362
C 8.5938 30.57678 -0.0008
C 7.40815 29.84456 0.0288
C 7.36792 28.46325 0.00393
C 8.60535 27.72162 0.00895
C 8.61532 26.29787 0.00685
C 7.35278 25.53809 0.02888
C 7.3811 24.16127 -0.00482
C 6.12792 0.71332 0.01572
C 8.59746 23.39398 -0.01384
C 7.35598 21.29836 0.01745
C 7.34305 19.91665 0.00488
C 8.57621 19.18407 -0.01004
C 8.56619 17.78318 -0.02896
C 7.36348 17.08692 -0.00131
C 7.39489 15.57982 -0.01118
C 8.60185 14.90414 -0.014
C 8.57364 13.51717 0.02147
C 7.37186 12.80442 0.00373
C 8.64317 22.0373 0.03693
C 19.72261 8.50932 -0.00652
C 19.67796 7.10257 0.0058
C 20.86975 6.3757 -0.00865
C 30.75306 4.94618 0.00716
C 29.50553 2.84171 0.00307
C 30.70297 2.10718 0.00346
C 30.69272 0.70397 0.01713
C 29.50834 34.04676 -0.01694
C 31.98731 32.68166 0.01428
C 33.18822 31.93365 -0.02142
C 33.23512 30.54462 0.0544
C 31.98076 29.81728 0.00026
C 31.95524 28.39618 0.00682
C 33.1943 27.69194 -0.01779
C 33.22949 26.28389 0.03794
C 32.00554 25.56962 0.01927
C 31.97836 24.11453 0.01574
C 33.22891 23.44131 -0.02383
C 33.20103 22.0158 -0.01429
C 31.9484 21.33536 -0.0136
C 31.9724 19.88948 0.00594
C 33.21163 19.16175 -0.02474
C 30.77426 6.39155 0.02108
C 29.48474 7.09907 0.0103
C 29.51997 8.54004 0.07705
C 30.76228 9.25238 0.01908
C 30.75964 30.50033 0.02326
C 29.48615 29.80232 0.00261
C 29.49794 28.39051 0.03265
C 30.76534 27.65687 -0.02049
C 30.75495 26.24345 -0.01854
C 29.52283 25.56539 -0.01415
C 29.55998 24.16671 -0.03039
C 30.7475 23.42619 0.01836
C 30.73854 21.97358 0.03531
C 33.20121 17.73052 0.00369
C 29.55322 21.25489 -0.00669
C 30.72629 19.137 0.01705
C 30.7667 17.7717 -0.0405
C 29.50334 17.03041 -0.01303
C 29.48365 15.6485 -0.01461
C 30.75631 14.91541 -0.02155
C 30.7616 13.43662 -0.00944
C 29.53121 12.81413 -0.03735
C 29.49989 11.37494 -0.00971
C 30.78399 10.63986 0.01518
C 29.49764 19.84003 0.0101
C 30.7504 31.93591 0.00924
C 32.01096 17.00602 0.00455
C 33.16958 14.91146 -0.01839
C 1.23253 22.00643 0.01951
C 0.01554 21.32213 -0.01678
C 34.41957 19.87346 0.01223
C 1.24725 19.17319 0.00648
C 1.21026 17.74221 0.02114
C 0.0182 17.06048 -0.02957
C 34.41563 15.6447 0.00343
C 1.23444 14.88038 -0.02656
C 1.21113 13.49668 -0.02442
C 0.00979 12.83583 -0.00027
C 0.02738 11.34687 -0.00583
C 1.20184 10.6312 -0.02302
C 34.42428 8.52962 -0.02849
C 34.41847 7.08952 0.02931
C 1.24098 4.97628 0.00628
C 34.41596 4.18892 -0.0345
C 34.42647 2.81849 -0.00931
C 1.25207 2.14415 -0.00939
C 1.28645 0.70986 -0.00468
C 1.18933 23.4107 -0.02213
C 34.38689 24.16344 0.02712
C 34.42499 25.55943 0.00723
C 1.20321 26.27793 0.03076
C 33.18818 13.4352 0.00137
C 31.95473 12.79915 0.00199
C 31.95386 11.39122 0.04381
C 33.21558 10.63584 0.02806
C 33.18533 9.24294 0.01504
C 31.94632 8.51066 -0.00069
C 31.94523 7.11155 0.04926
C 33.21007 6.40073 -0.03838
C 33.22873 4.97819 0.00349
C 32.00283 15.60099 -0.00644
C 31.94621 4.26749 -0.00323
C 33.20963 2.14726 0.0001
C 33.19266 0.73395 -0.02927
C 31.96132 0.02554 -0.01404
C 34.42307 32.64935 0.01027
C 1.21797 31.96322 0.01831
C 1.24455 30.55582 -0.01037
C 0.01186 29.78843 -0.00439
C 0.00144 28.38577 -0.00598
C 1.21906 27.71277 -0.05239
C 31.96252 2.82012 -0.00841
C 3.72257 31.98772 0.00402
C 29.51996 32.62042 0.0014
C 28.31136 0.67545 0.04266
C 23.33581 10.63335 -0.03213
C 23.37147 9.29376 0.02239
C 22.18651 8.51707 0.01153
C 22.06117 7.04514 0.02734
C 23.33927 6.37958 -0.0055
C 23.37309 4.98175 0.01515
C 22.11706 4.24138 -0.00225
C 22.09869 2.88383 0.00071
C 23.37561 2.09313 -0.01107
C 23.38141 0.69864 -0.01586
C 22.15258 0.02414 -0.01971
C 24.56503 32.64552 -0.02118
C 25.80916 31.9319 0.00733
C 25.81398 30.48319 -0.00178
C 24.54663 29.81396 0.00768
C 24.59914 28.42798 -0.0276
C 25.84163 27.6885 0.03005
C 25.78632 26.26965 -0.04078
C 24.5406 25.56957 0.02117
C 22.10354 11.33509 -0.02845
C 22.12355 12.72967 0.03374
C 23.35978 13.49368 0.0296
C 23.38396 14.88806 0.03046
C 20.93807 4.97089 0.00675
C 19.62173 4.26707 -0.00311
C 19.65513 2.80621 0.00742
C 20.93833 2.08276 -0.01594
C 20.92198 0.68029 0.0106
C 19.68824 34.07358 -0.01154
C 22.14343 32.64138 -0.01721
C 23.35199 31.94176 -0.02422
C 23.3576 30.51866 0.01277
C 24.62379 24.11936 0.02737
C 22.08385 29.77726 0.00096
C 23.36843 27.67645 0.01087
C 23.39411 26.22679 0.00199
C 22.15831 25.5319 0.01511
C 22.12537 24.11744 -0.00478
C 23.34836 23.42213 -0.01662
C 23.36286 22.0065 -0.01185
C 23.40092 19.1174 0.01126
C 23.37345 17.74055 0.01852
C 22.13082 15.59276 -0.00381
C 22.12479 28.41653 -0.01527
C 27.07078 34.07472 0.01324
C 25.88758 23.4697 -0.00498
C 24.61255 21.30788 0.03102
C 28.27442 26.27434 0.00487
C 27.05463 25.51779 0.00826
C 27.0388 24.16166 -0.00294
C 28.29878 23.42531 0.00152
C 28.28593 22.05012 0.01257
C 27.02204 21.27855 0.02316
C 27.06613 19.87744 0.04185
C 28.27318 19.18273 0.00194
C 28.28308 17.75541 -0.00621
C 27.08734 17.06412 0.02611
C 27.04275 15.65074 0.02198
C 28.30282 14.87942 0.01094
C 28.30847 13.51828 0.00235
C 27.06008 12.77379 0.01495
C 27.0841 11.36006 0.01259
C 28.2538 10.62079 0.01799
C 28.28828 9.23029 0.01699
C 27.04879 8.49553 -0.00416
C 28.32124 2.15026 0.01177
C 28.27282 27.69508 -0.00942
C 27.06044 28.36886 -0.02815
C 27.04854 29.80502 0.00622
C 28.2655 30.54885 -0.0032
C 24.53929 19.86113 0.02555
C 25.80516 19.17392 0.01423
C 25.82036 17.73226 -0.00285
C 24.6087 17.02097 -0.009
C 24.57163 15.57163 -0.01199
C 25.79505 14.93682 -0.00229
C 25.83707 13.52115 -0.00938
C 24.56371 12.77644 -0.0264
C 24.60869 11.39076 -0.01154
C 25.82449 22.03509 0.00135
C 25.81143 10.64428 0.00684
C 24.62559 8.50894 -0.01679
C 24.58314 7.07441 0.00367
C 24.63066 4.27878 0.04306
C 24.58066 2.83348 0.00996
C 25.82928 2.12553 0.00195
C 25.87527 0.76566 -0.00802
C 24.6081 0.03229 -0.00218
C 27.02676 32.6376 -0.01654
C 28.27861 31.92023 -0.00037
C 25.81573 9.20891 -0.01052
C 2.45572 32.69255 0.02374
