368
Graphene
C 0.06664 0.07664 0.01295
C 16.03973 9.23504 -0.01952
C 14.70332 8.64782 -0.02813
C 14.72944 7.18744 0.00374
C 16.01371 6.44592 0.00052
C 16.02231 4.98147 -0.03682
C 14.84964 4.26031 0.01965
C 14.74338 2.86461 0.02058
C 15.91544 2.02817 -0.01957
C 15.9462 0.58837 -0.0108
C 14.6988 34.03328 -0.00368
C 17.28895 32.668 -0.02696
C 18.51226 31.93792 -0.00114
C 18.46934 30.50751 0.00228
C 17.26994 29.88484 0.00798
C 17.21066 28.40819 0.00422
C 18.39938 27.65597 0.0351
C 18.41993 26.18283 -0.03113
C 17.18551 25.44741 0.02098
C 17.24233 24.08786 0.01848
C 15.94123 10.57295 0.05265
C 18.51212 23.43999 -0.00619
C 16.0532 13.55755 -0.01717
C 16.0322 17.78693 0.02299
C 12.3042 4.35904 0.02819
C 12.32102 2.93784 0.00165
C 13.50163 2.13947 -0.02971
C 13.54094 0.74769 0.02894
C 12.32196 0.0181 -0.01789
C 14.80378 32.652 0.00444
C 16.05228 31.98001 -0.00925
C 16.05522 30.57237 0.01877
C 14.75614 29.9125 0.01363
C 14.66211 28.4781 -0.02162
C 15.95978 27.7528 0.00415
C 15.9644 26.24303 -0.0014
C 14.74822 25.5341 0.02162
C 14.83068 24.15117 0.0076
C 16.06782 23.34191 0.01241
C 15.94932 21.99878 -0.01454
C 14.73954 21.23738 0.01945
C 14.75202 19.91701 0.01416
C 15.81599 19.11463 0.03542
C 16.10645 14.71864 0.00244
C 13.58964 5.00598 -0.00891
C 18.42786 22.0413 -0.02162
C 17.23564 19.89528 -0.00481
C 19.61249 28.44083 0.04892
C 20.84122 27.67368 -0.00111
C 20.92357 26.25132 -0.03557
C 19.6528 25.5119 0.03754
C 19.69378 24.13617 0.01739
C 20.91968 23.42395 0.00755
C 20.84069 22.00396 -0.0054
C 19.62904 21.30273 0.00667
C 19.67957 19.90987 0.00143
C 20.98899 19.20411 -0.017
C 20.94697 17.72204 0.00364
C 19.71366 17.04545 -0.00831
C 19.73717 15.62858 -0.02957
C 20.92956 14.85104 -0.04422
C 20.81723 13.43735 0.00654
C 19.64589 12.74816 -0.00703
C 19.66106 11.28792 -0.04076
C 20.90499 10.64289 -0.00652
C 20.84625 9.23642 0.0058
C 19.64344 29.84677 0.01452
C 17.19587 21.28813 0.00889
C 20.83437 30.51731 -0.01581
C 19.66641 32.66432 -0.01979
C 18.45925 19.17578 0.00979
C 18.47835 17.71297 0.01443
C 17.21784 17.09762 0.03505
C 17.17954 15.65291 -0.02815
C 18.45124 14.94506 -0.04147
C 18.45377 13.50095 -0.05302
C 17.21782 12.74863 0.00213
C 17.16853 11.29005 -0.00066
C 18.44762 10.59691 -0.00289
C 18.41512 9.22291 0.00028
C 17.25228 8.50959 -0.02213
C 17.20949 7.10274 0.03698
C 18.3736 6.43341 -0.00109
C 18.38935 4.97435 -0.00491
C 17.21157 4.23407 0.03338
C 17.09174 2.80359 -0.0258
C 18.36813 2.1299 -0.0331
C 18.47568 0.66623 -0.00316
C 17.23046 34.03916 0.02188
C 20.87669 31.91325 0.02691
C 19.6457 8.54829 -0.00865
C 13.55948 6.39495 -0.01046
C 12.37883 8.56682 -0.01536
C 4.96684 29.82228 0.01227
C 4.92459 28.3936 0.00873
C 6.15697 27.70866 -0.00049
C 6.14007 26.26017 0.00848
C 4.85851 25.58402 -0.01303
C 4.92828 24.13208 -0.01378
C 6.08911 23.56828 0.02635
C 4.85984 6.97664 0.0127
C 6.15947 6.54305 0.01396
C 6.09541 4.97958 0.01849
C 4.82382 4.28935 -0.01142
C 4.8972 2.85204 -0.00562
C 6.1188 2.21648 -0.00494
C 6.11845 0.72892 0.00054
C 4.95575 0.0528 0.03007
C 7.35572 32.71078 -0.00095
C 8.6389 32.03028 0.01572
C 8.56 30.64422 -0.04848
C 7.32624 29.86156 -0.00892
C 6.16387 30.55072 -0.03337
C 7.37438 28.42646 -0.01362
C 6.14192 31.96527 -0.00966
C 2.5286 34.06137 0.03368
C 3.74869 30.53076 -0.03996
C 2.46638 29.83988 0.01465
C 2.57555 28.40259 -0.00074
C 3.77576 27.67656 -0.00518
C 3.62785 26.29454 0.0086
C 2.40017 25.65809 -0.00643
C 2.45253 24.1407 0.017
C 3.70025 23.44908 -0.03113
C 3.65109 22.06949 -0.02566
C 2.64314 21.18402 -0.00094
C 2.29416 19.80485 0.02322
C 2.46888 8.49366 -0.00725
C 2.41228 7.10263 -0.05697
C 3.64262 6.47297 0.01087
C 3.64838 5.07245 -0.01343
C 2.47026 4.30999 0.00988
C 2.53221 2.85969 0.0276
C 3.68913 2.09733 0.01305
C 3.74331 0.66374 -0.00077
C 4.91072 32.7377 -0.02929
C 12.31017 7.15624 -0.02689
C 8.56974 27.68833 -0.0008
C 7.33065 25.51159 0.00393
C 11.05172 5.00428 0.01641
C 9.82286 4.26487 -0.00719
C 9.83289 2.84556 0.01364
C 11.08203 2.18007 -0.01062
C 11.07493 0.80078 -0.00033
C 9.8116 0.08913 0.03589
C 12.3733 32.67644 -0.02759
C 13.58091 31.94712 0.0402
C 13.54033 30.55638 0.00572
C 12.28013 29.73748 0.03592
C 12.25895 28.33417 0.00406
C 13.47217 27.67841 0.00943
C 13.48855 26.21334 0.02841
C 12.23025 25.59066 -0.01111
C 12.29422 24.11682 -0.01275
C 13.52793 23.4451 0.00985
C 13.49776 21.95071 -0.02245
C 12.26326 21.4586 -0.00428
C 13.34446 9.15935 0.03101
C 11.06971 6.42888 0.02339
C 8.52078 26.29024 0.0288
C 9.92079 7.08887 -0.00334
C 11.06357 23.45025 0.00057
C 7.34997 24.0476 0.00895
C 8.62427 23.56162 0.00685
C 7.41006 7.01531 0.02888
C 8.67827 6.54878 -0.00482
C 8.68655 5.04429 -0.01384
C 7.36711 4.38869 0.03693
C 7.32492 2.98467 0.01745
C 8.56071 2.20231 0.00488
C 8.57435 0.77213 -0.01004
C 7.36182 34.05303 -0.02896
C 9.86321 32.67736 -0.00131
C 11.10656 31.98267 -0.01118
C 11.06154 30.49485 -0.014
C 9.74099 29.92257 0.02147
C 9.76796 28.48023 0.00373
C 10.99476 27.68593 -0.00191
C 10.94606 26.31714 0.00438
C 9.78574 25.58953 0.01291
C 9.78628 24.12438 0.00093
C 11.18104 22.03488 -0.01634
C 19.56053 7.11285 0.00675
C 20.86907 6.45296 -0.00311
C 20.85364 5.03182 0.00742
C 29.50121 4.25603 0.00307
C 29.49322 2.85035 0.00346
C 30.7027 2.09935 0.01713
C 30.74006 0.70239 -0.01694
C 29.5018 0.0074 0.01428
C 31.9046 32.66655 -0.02142
C 33.09031 31.96022 0.0544
C 33.1645 30.50775 0.00026
C 31.92957 29.83157 0.00682
C 31.92858 28.44713 -0.01779
C 33.16868 27.71239 0.03794
C 33.1885 26.28322 0.01927
C 31.95755 25.56836 0.01574
C 31.95041 24.11485 -0.02383
C 33.18928 23.41705 -0.01429
C 33.24272 21.99787 -0.0136
C 32.03834 21.27092 0.00594
C 31.96553 19.85263 -0.02474
C 33.14707 19.18101 0.00369
C 30.68773 4.97752 0.00716
C 33.26225 17.77001 0.00455
C 30.75497 6.37146 0.02108
C 29.53587 8.45165 0.07705
C 30.71426 30.55899 0.03265
C 29.48019 29.8906 -0.02049
C 29.52882 28.3979 -0.01854
C 30.7352 27.64618 -0.01415
C 30.70369 26.25244 -0.03039
C 29.51154 25.61207 0.01836
C 29.63278 24.18157 0.03531
C 30.78562 23.39343 -0.00669
C 30.80113 21.94965 0.0101
C 29.53629 21.308 0.01705
C 29.49487 19.96457 -0.0405
C 30.64718 19.11218 -0.01303
C 30.71759 17.71164 -0.01461
C 30.88867 14.77864 -0.02155
C 30.54487 13.49551 -0.00944
C 29.34633 12.73387 -0.03735
C 29.45641 11.4447 -0.00971
C 30.64798 10.68865 0.01518
C 30.70354 9.26169 0.01908
C 29.55044 7.0495 0.0103
C 30.73628 31.92438 0.00261
C 31.9181 17.09716 -0.00644
C 33.31371 14.85478 0.00137
C 1.25149 23.3734 0.01951
C 1.27309 21.92495 -0.01678
C 0.0563 21.26245 0.01223
C 34.40039 19.82898 0.00648
C 1.24625 19.16969 0.02114
C 0.01509 16.94019 -0.02957
C 34.34209 15.74736 0.00343
C 34.38792 12.90517 -0.02656
C 0.03425 11.42361 -0.02442
C 1.23257 10.71607 -0.00027
C 1.30267 9.34517 -0.00583
C 0.01116 8.51435 -0.02302
C 0.00463 7.10046 -0.02849
C 1.17757 6.38332 0.02931
C 1.20219 4.97798 0.00628
C 34.40035 4.27541 -0.0345
C 34.40594 2.82661 -0.00931
C 1.25272 2.19737 -0.00939
C 1.30033 0.78751 -0.00468
C 0.02927 24.08902 -0.02213
C 31.95011 15.61457 -0.01839
C 0.01532 25.51023 0.02712
C 1.30839 27.74553 0.03076
C 33.14217 13.43521 0.00199
C 31.88689 12.70602 0.04381
C 31.88223 11.34675 0.02806
C 33.17238 10.59856 0.01504
C 33.20853 9.21969 -0.00069
C 31.94494 8.58604 0.04926
C 31.97164 7.16642 -0.03838
C 33.18146 6.35793 0.00349
C 33.15649 4.94195 -0.00323
C 31.887 4.27821 -0.00841
C 31.86836 2.81054 0.0001
C 33.17491 2.14279 -0.02927
C 33.23037 0.68484 -0.01404
C 31.97969 34.06676 0.01027
C 34.38389 32.73688 0.01831
C 1.18272 32.00404 -0.01037
C 1.21755 30.63133 -0.00439
C 34.39665 29.85275 -0.00598
C 0.01553 28.41754 -0.05239
C 1.18838 26.33745 0.00723
C 29.51357 32.68662 0.02326
C 27.0477 0.00201 0.00924
C 28.27299 0.72593 0.0014
C 23.26539 13.53938 0.01153
C 22.09262 12.86848 0.02734
C 22.14164 11.4193 -0.0055
C 23.3202 10.60183 0.01515
C 23.307 9.17932 -0.00225
C 22.07621 8.49072 0.00071
C 22.12169 7.13698 -0.01107
C 23.3472 6.38909 -0.01586
C 23.27856 4.93183 -0.01971
C 22.07281 4.24792 -0.02118
C 22.12593 2.78712 0.00733
C 23.3466 2.15197 -0.00178
C 23.37279 0.65121 0.00768
C 22.11415 34.03334 -0.0276
C 24.5676 32.56676 0.03005
C 25.87531 31.9549 -0.04078
C 25.8322 30.48694 0.02117
C 24.55476 29.75779 0.02737
C 24.58379 28.31807 -0.00498
C 23.35259 14.83438 0.02239
C 25.86034 27.65435 0.00135
C 22.19185 15.58885 -0.03213
C 23.30787 17.74583 0.03374
C 19.57642 4.29257 -0.01594
C 19.59324 2.83301 0.0106
C 20.88169 2.07227 -0.01154
C 20.90761 0.67535 -0.01721
C 19.69563 34.07604 -0.02422
C 22.08718 32.6631 0.01277
C 23.32611 31.91186 0.00096
C 23.31342 30.4449 -0.01527
C 22.05528 29.78225 0.01087
C 22.14771 28.33906 0.00199
C 23.42874 27.60612 0.01511
C 23.4134 26.19302 -0.00478
C 22.18134 25.50649 -0.01662
C 22.16655 24.08474 -0.01185
C 23.33723 23.36353 0.01126
C 23.34323 21.95841 0.01852
C 22.07906 21.27353 -0.00381
C 22.25231 19.85572 0.03046
C 23.4905 19.08491 0.0296
C 22.14499 17.00864 -0.02845
C 25.82379 26.27581 0.03102
C 24.6535 25.51922 0.02555
C 24.60182 24.0516 0.01423
C 28.34248 27.6701 -0.00294
C 28.2695 26.305 0.00152
C 27.03633 25.53403 0.01257
C 27.13198 24.15359 0.02316
C 28.38177 23.4874 0.04185
C 28.35113 22.0776 0.00194
C 27.2017 21.27838 -0.00621
C 27.08977 19.76793 0.02611
C 26.86244 12.84087 0.02198
C 27.00742 11.43625 0.01094
C 28.23235 10.66468 0.00235
C 28.29845 9.26339 0.01495
C 27.00607 8.52432 0.01259
C 27.00093 7.13203 0.01799
C 28.26531 6.38155 0.01699
C 28.28541 4.96115 -0.00416
C 27.05406 4.29676 0.01177
C 27.01491 2.85848 0.04266
C 28.28049 2.13755 0.01324
C 27.12468 28.37611 0.00826
C 27.03453 29.78206 0.00487
C 28.25594 30.51669 -0.00942
C 28.3124 31.95743 -0.02815
C 25.8761 23.44892 -0.00285
C 25.94558 22.0239 -0.009
C 24.61341 21.32973 -0.01199
C 24.72321 19.85041 -0.00229
C 25.97237 19.22749 -0.00938
C 25.81076 13.442 -0.0264
C 24.46035 12.78015 -0.01154
C 24.54941 11.34302 0.00684
C 25.76847 10.67436 -0.01052
C 3.72954 31.95401 0.01996
C 25.70265 9.21864 -0.01679
C 24.54721 7.08208 0.04306
C 25.79593 6.4106 0.00996
C 25.74253 4.99564 0.00195
C 24.49161 4.24605 -0.00802
C 24.5593 2.81588 -0.00218
C 25.80779 2.10568 -0.01654
C 25.8109 0.68931 -0.00037
C 24.55998 33.99664 -0.0032
C 27.10934 32.64928 0.00622
C 24.52647 8.46786 0.00367
C 2.53531 32.61183 -0.00279
