350
Graphene
C 34.42502 0.08371 0.01295
C 11.07982 0.68861 0.00798
C 9.83773 0.04583 0.00422
C 12.33151 32.65848 0.0351
C 13.55521 31.98264 -0.03113
C 13.56417 30.54298 0.02098
C 12.34178 29.86017 0.01848
C 12.28397 28.40218 -0.00619
C 13.43494 27.57825 -0.02162
C 13.47516 26.17816 0.00889
C 12.25729 25.51863 -0.00481
C 12.35774 24.11361 0.00979
C 13.50309 23.38933 0.01443
C 13.64738 4.86116 0.03505
C 12.33647 4.38134 -0.02815
C 12.28942 2.82132 -0.04147
C 13.55823 2.0951 -0.05302
C 13.57926 0.65717 0.00213
C 11.1227 2.0647 0.00228
C 9.81894 2.76415 -0.00114
C 9.80428 4.22418 -0.02696
C 11.07247 4.93074 -0.00368
C 8.60564 2.13417 0.01241
C 8.47227 0.738 -0.01454
C 7.27445 0.04658 0.01945
C 9.84518 32.72122 0.01416
C 11.0917 32.01233 0.03542
C 11.08803 30.57408 0.02299
C 9.87558 29.85716 0.00244
C 9.82644 28.40393 -0.01717
C 12.32655 34.04752 -0.00066
C 10.9989 27.7297 0.05265
C 9.85648 25.62426 -0.02813
C 9.78438 24.20756 0.00374
C 11.09063 23.45601 0.00052
C 11.11287 22.0432 -0.03682
C 9.96777 21.24375 0.01965
C 9.82345 19.91643 0.02058
C 9.94472 7.05365 -0.01957
C 10.93222 6.26924 -0.0108
C 11.08628 26.3382 -0.01952
C 14.75284 32.60177 -0.00289
C 15.94336 31.87423 0.00028
C 15.94373 30.48282 -0.02213
C 17.50591 4.27417 0.00364
C 17.24006 2.98625 -0.00831
C 18.45758 2.22876 -0.02957
C 18.41296 0.78604 -0.04422
C 17.18899 34.07964 0.00654
C 19.65833 32.67593 -0.00703
C 20.86023 31.94788 -0.04076
C 20.84481 30.47841 -0.00652
C 18.52633 23.39531 -0.017
C 19.68033 29.82989 0.0058
C 20.88376 27.68851 0.00675
C 20.95115 26.29008 -0.00311
C 19.6789 25.58429 0.00742
C 19.65824 24.1464 -0.01594
C 20.8871 23.36298 0.0106
C 21.01652 21.985 -0.01154
C 20.73351 4.77806 -0.01721
C 19.63419 4.3702 -0.02422
C 19.62912 28.41943 -0.00865
C 7.35708 2.86204 0.0076
C 17.2684 24.01112 0.00143
C 18.42954 26.31465 -0.0054
C 14.76225 29.79414 0.03698
C 14.6084 28.43629 -0.00109
C 15.87432 27.76579 -0.00491
C 15.95439 26.312 0.03338
C 14.7163 25.52561 -0.0258
C 14.79724 24.00593 -0.0331
C 16.07513 23.49067 -0.00316
C 14.75928 4.26087 0.02188
C 17.2106 25.59735 0.00667
C 14.81373 2.89126 -0.01979
C 15.94675 0.7147 -0.01581
C 14.77456 34.00841 0.01452
C 17.1619 32.69252 0.04892
C 18.38246 31.92377 -0.00111
C 18.44513 30.53895 -0.03557
C 17.20196 29.81535 0.03754
C 17.09378 28.43989 0.01739
C 18.37851 27.73751 0.00755
C 16.01232 2.14061 0.02691
C 7.32083 4.24526 0.02162
C 8.56984 4.94738 -0.0014
C 8.7209 6.41445 0.00415
C 2.48444 7.06372 -0.04848
C 3.6691 6.38364 -0.00892
C 3.69183 4.94887 -0.01362
C 2.45974 4.16207 -0.0008
C 2.45871 2.80128 0.0288
C 3.68908 2.176 0.00393
C 3.66308 0.75653 0.00895
C 2.45943 0.06177 0.00685
C 2.50712 8.50221 0.01572
C 4.89156 32.67674 0.02888
C 6.17127 30.52258 -0.01384
C 4.8448 29.85128 0.03693
C 4.87871 28.44832 0.01745
C 6.17898 27.73609 0.00488
C 6.13962 26.31309 -0.01004
C 4.85076 25.57506 -0.02896
C 4.87127 24.15465 -0.00131
C 6.13042 23.53956 -0.01118
C 6.12618 31.95849 -0.00482
C 6.14349 22.07089 -0.014
C 3.71094 9.22449 -0.00095
C 2.53186 11.35143 0.00054
C 3.67463 30.57622 -0.00077
C 2.46011 29.80031 0.03368
C 2.38964 28.41241 -0.02929
C 3.63283 27.68822 -0.00966
C 3.64678 26.28348 -0.03337
C 2.44057 25.55319 0.01227
C 2.43695 24.08079 0.00873
C 3.70135 23.40901 -0.00049
C 3.76497 10.65605 0.03007
C 3.59963 21.99945 0.00848
C 2.32585 19.83929 -0.01378
C 3.57647 19.21539 0.02635
C 3.71644 17.78468 0.0127
C 2.52012 17.03803 0.01396
C 2.46447 15.54482 0.01849
C 3.65874 14.87335 -0.01142
C 3.73898 13.49408 -0.00562
C 2.45225 12.79479 -0.00494
C 2.32871 21.25286 -0.01303
C 19.63954 2.95121 0.01277
C 4.90495 21.31905 0.02147
C 6.09018 19.16595 -0.00191
C 7.4088 28.41663 0.00985
C 8.62431 27.71395 -0.02245
C 8.62008 26.27353 -0.00428
C 7.35517 25.63497 0.03101
C 7.38302 24.25558 -0.01536
C 8.56771 23.4139 -0.02689
C 8.56464 21.94712 -0.01046
C 7.30067 21.27168 -0.00891
C 7.41695 29.81267 -0.01275
C 7.29674 19.88882 0.02819
C 8.55889 17.84942 -0.02971
C 7.48066 17.07903 0.02894
C 7.27921 15.71518 -0.01789
C 7.44478 12.68439 0.00444
C 7.51959 11.43414 -0.00925
C 8.53927 9.27013 0.01877
C 7.42094 8.52798 0.01363
C 7.43692 7.05272 -0.02162
C 8.67973 19.18333 0.00165
C 4.85632 19.92755 0.00373
C 8.67721 30.59437 -0.01111
C 7.33103 32.72123 0.00943
C 6.09175 17.80143 0.00438
C 4.95546 17.07197 0.01291
C 4.88916 15.61585 0.00093
C 6.15218 14.95872 0.00057
C 6.25031 13.48838 -0.01634
C 4.95266 12.77549 -0.00334
C 5.01954 11.36293 0.02339
C 6.27895 10.70017 0.01641
C 8.62059 32.00503 0.02841
C 6.14268 9.29421 -0.00719
C 4.89515 7.09053 -0.01062
C 6.1704 6.40738 -0.00033
C 6.1554 5.04027 0.03589
C 4.89686 4.38709 -0.02759
C 4.89232 2.9567 0.0402
C 6.09874 2.22272 0.00572
C 6.02765 0.76992 0.03592
C 4.90587 34.06426 0.00406
C 4.95406 8.54926 0.01364
C 20.8452 2.14186 0.00096
C 20.81803 0.64707 -0.01527
C 19.58446 0.02472 0.01087
C 33.2217 32.01411 -0.01694
C 33.14372 30.57729 0.01428
C 31.94069 29.84688 -0.02142
C 31.89443 28.39094 0.0544
C 33.13694 27.65627 0.00026
C 33.17667 26.26113 0.00682
C 31.93794 25.60847 -0.01779
C 31.9634 24.15866 0.03794
C 31.99039 32.69432 0.01713
C 33.15904 23.45733 0.01927
C 31.91529 21.28814 -0.02383
C 31.97608 19.91354 -0.01429
C 33.17791 19.20591 -0.0136
C 33.14882 17.75713 0.00594
C 31.88863 17.03264 -0.02474
C 31.87428 15.64839 0.00369
C 33.11977 14.94512 0.00455
C 33.19717 13.4839 -0.00644
C 33.17916 22.02028 0.01574
C 32.03339 12.82779 -0.01839
C 29.56398 34.00063 0.00346
C 30.76862 2.07235 0.00716
C 29.52127 21.30796 -0.03039
C 29.50932 19.93059 0.01836
C 30.73533 19.18189 0.03531
C 30.65925 17.79739 -0.00669
C 29.48922 17.05316 0.0101
C 29.50838 15.69809 0.01705
C 30.66077 14.9371 -0.0405
C 30.77711 13.54054 -0.01303
C 30.72779 0.66501 0.00307
C 29.63679 12.74487 -0.01461
C 30.77831 10.70018 -0.00944
C 30.75859 9.21808 -0.03735
C 29.55383 8.52966 -0.00971
C 29.53534 7.11593 0.01518
C 30.73794 6.39962 0.01908
C 30.74235 4.98378 0.07705
C 29.54305 4.25971 0.0103
C 29.54039 2.76924 0.02108
C 29.51074 11.35042 -0.02155
C 30.77077 22.01495 -0.01415
C 31.97805 11.44818 0.00137
C 33.26412 9.16069 0.04381
C 1.16464 19.06199 -0.01678
C 1.21574 17.69432 0.01223
C 34.36668 17.06301 0.00648
C 34.35131 15.57927 0.02114
C 1.18436 14.93387 -0.02957
C 1.21054 13.4531 0.00343
C 34.41757 12.7891 -0.02656
C 34.40567 11.32754 -0.02442
C 34.40837 19.90451 0.01951
C 1.27836 10.6734 -0.00027
C 0.09181 8.49812 -0.02302
C 0.06376 7.07908 -0.02849
C 1.24909 6.32179 0.02931
C 1.23227 4.9259 0.00628
C 0.00831 4.25116 -0.0345
C 34.4203 2.84003 -0.00931
C 1.19146 2.12749 -0.00939
C 1.20005 0.77914 -0.00468
C 1.28237 9.27735 -0.00583
C 33.18951 10.61525 0.00199
C 34.37256 21.28862 -0.02213
C 1.23262 23.44878 0.00723
C 31.95079 8.52094 0.02806
C 31.99206 7.08598 0.01504
C 33.20307 6.37486 -0.00069
C 33.19089 4.9696 0.04926
C 31.95722 4.29401 -0.03838
C 31.94716 2.80761 0.00349
C 33.20945 2.19011 -0.00323
C 33.20443 0.78659 -0.00841
C 1.19636 22.05067 0.02712
C 32.00722 0.03995 0.0001
C 1.21969 31.96304 -0.01404
C 1.21419 30.53743 0.01027
C 34.41834 29.83492 0.01831
C 34.37004 28.33485 -0.01037
C 1.17604 27.69377 -0.00439
C 1.19623 26.19776 -0.00598
C 34.39417 25.5533 -0.05239
C 34.42585 24.10217 0.03076
C 34.43169 32.73767 -0.02927
C 3.63954 32.02625 0.01305
C 30.76905 23.43563 -0.01854
C 29.46921 25.53855 0.03265
C 24.54399 29.78836 -0.01971
C 24.63622 28.40146 -0.02118
C 25.85884 27.69481 0.00733
C 25.78333 26.32542 -0.00178
C 24.60357 25.5956 0.00768
C 24.56741 24.18076 -0.0276
C 25.81446 23.50654 0.03005
C 25.86943 22.09892 -0.04078
C 25.75491 30.53203 -0.01586
C 24.57613 21.27669 0.02117
C 25.72381 19.15208 -0.00498
C 25.90687 17.82994 0.00135
C 25.89493 10.58545 0.03102
C 25.7849 9.23539 0.02555
C 24.59275 8.55622 0.01423
C 24.4916 7.21669 -0.00285
C 25.87775 6.31224 -0.009
C 25.82044 4.91664 -0.01199
C 24.53789 19.91716 0.02737
C 24.55693 4.24266 -0.00229
C 25.85327 31.91631 -0.01107
C 22.07221 34.00951 -0.00225
C 22.10831 32.61375 0.00199
C 23.35988 31.90808 0.01511
C 23.28088 30.52745 -0.00478
C 22.11307 29.7794 -0.01662
C 22.13925 28.39844 -0.01185
C 23.36406 27.71229 0.01126
C 23.33373 26.29669 0.01852
C 22.14807 25.52702 -0.00381
C 24.64355 32.52525 0.00071
C 22.16435 24.09358 0.03046
C 23.33795 21.98101 0.03374
C 22.09961 21.37412 -0.02845
C 23.47661 6.36727 -0.03213
C 23.28358 4.96116 0.02239
C 22.03523 4.25917 0.01153
C 22.0878 2.82473 0.02734
C 23.27236 2.08352 -0.0055
C 23.3043 0.58313 0.01515
C 23.35916 23.39897 0.0296
C 29.49594 24.14894 -0.02049
C 24.47136 2.84056 -0.00938
C 25.81437 0.62433 -0.01154
C 28.29066 10.64361 0.00194
C 28.29168 9.19658 -0.00621
C 27.09391 8.40719 0.02611
C 27.09906 7.01377 0.02198
C 28.31524 6.3457 0.01094
C 28.30405 4.91297 0.00235
C 27.10382 4.17626 0.01495
C 27.1081 2.71915 0.01259
C 26.92013 11.46747 0.04185
C 28.32061 2.042 0.01799
C 27.09838 34.04661 -0.00416
C 29.57104 32.60584 0.01177
C 30.74716 31.9637 0.04266
C 30.70762 30.53672 0.01324
C 29.494 29.85542 0.0014
C 29.49038 28.4319 0.00924
C 30.69393 27.70988 0.02326
C 30.66755 26.26876 0.00261
C 28.37164 0.62738 0.01699
C 25.76311 2.06924 -0.0264
C 27.19736 12.87322 0.02316
C 28.38268 14.90178 0.00152
C 24.57182 33.96981 0.00684
C 27.10118 32.67366 -0.01052
C 28.23503 31.95423 -0.01679
C 28.26725 30.51985 0.00367
C 26.97315 29.84167 0.04306
C 27.05808 28.42449 0.00996
C 28.29633 27.73031 0.00195
C 28.24554 26.30202 -0.00802
C 28.36189 13.47524 0.01257
C 27.02255 25.58528 -0.00218
C 28.26056 23.49996 -0.00037
C 28.28645 22.00254 -0.0032
C 27.10296 21.33088 0.00622
C 27.09394 19.95017 -0.02815
C 28.31029 19.15196 -0.00942
C 28.27864 17.73667 0.00487
C 26.92634 16.98899 0.00826
C 27.34171 15.74071 -0.00294
C 27.05333 24.22171 -0.01654
C 2.44765 32.72583 0.0276
