429
Graphene
C 0.00832 0.03425 0.01295
C 12.3437 2.86587 0.03589
C 13.50659 2.20543 -0.02759
C 13.49278 0.76712 0.0402
C 12.33848 34.04742 0.00572
C 14.80774 32.72242 0.03592
C 15.99713 31.96371 0.00406
C 15.92655 30.50262 0.00943
C 14.70504 29.74719 0.02841
C 14.74407 28.29234 -0.01111
C 15.98856 27.63979 -0.01275
C 12.33329 4.32188 -0.00033
C 16.00936 26.24994 0.00985
C 14.79614 24.13436 -0.00428
C 16.03054 23.43751 0.03101
C 15.95078 22.08068 -0.01536
C 14.77431 21.26185 -0.02689
C 14.74284 19.76351 -0.01046
C 15.92497 19.08598 -0.00891
C 16.03573 17.64777 0.02819
C 14.71193 17.03259 0.00165
C 14.71866 15.65473 -0.02971
C 15.97494 14.87267 0.02894
C 14.72599 25.61963 -0.02245
C 13.43926 5.04313 -0.01062
C 13.54293 6.45772 0.01364
C 12.30228 7.12175 -0.00719
C 13.55796 31.97302 0.00685
C 13.52075 30.57041 0.02888
C 12.26765 29.83188 -0.00482
C 12.31239 28.40887 -0.01384
C 13.51478 27.69965 0.03693
C 13.5232 26.37089 0.01745
C 12.28672 25.59442 0.00488
C 12.29741 24.23179 -0.01004
C 13.5448 23.38883 -0.02896
C 13.55991 21.98335 -0.00131
C 12.34451 21.35507 -0.01118
C 12.39517 19.88472 -0.014
C 13.52472 19.11988 0.02147
C 13.50734 17.76042 0.00373
C 12.31128 16.99871 -0.00191
C 12.22157 15.60742 0.00438
C 13.5674 14.905 0.01291
C 13.60911 13.52044 0.00093
C 12.33014 12.8312 0.00057
C 12.30185 11.40707 -0.01634
C 13.48422 10.76387 -0.00334
C 13.4896 9.28722 0.02339
C 12.27902 8.46976 0.01641
C 15.99512 13.45619 -0.01789
C 14.80027 12.81565 0.00444
C 14.75936 11.36789 -0.00925
C 15.95114 10.64446 0.01877
C 18.44929 14.91849 0.00228
C 18.4708 13.49785 0.00798
C 17.29149 12.82863 0.00422
C 17.21118 11.33633 0.0351
C 18.46289 10.6464 -0.03113
C 18.47252 9.19557 0.02098
C 17.24649 8.48976 0.01848
C 17.14782 7.07166 -0.00619
C 18.40872 6.3419 -0.02162
C 18.47015 4.91022 0.00889
C 17.22922 4.23318 -0.00481
C 17.18332 2.87404 0.00979
C 18.36915 2.1159 0.01443
C 18.38733 0.74166 0.03505
C 17.13885 0.02252 -0.02815
C 19.64519 32.72179 -0.04147
C 20.86713 31.94486 -0.05302
C 20.94402 30.50209 0.00213
C 19.71911 29.80334 -0.00066
C 19.69583 28.39133 -0.00289
C 20.90728 27.73991 0.00028
C 20.96699 26.30762 -0.02213
C 19.6909 25.55781 0.03698
C 17.20757 15.54914 -0.00114
C 12.26734 32.61691 0.00895
C 17.24158 17.00471 -0.02696
C 18.45737 19.1855 -0.0108
C 15.95404 9.2114 0.01363
C 14.70205 8.57054 -0.02162
C 14.73463 7.13464 0.00415
C 15.93233 6.3864 -0.0014
C 15.91542 4.97451 0.02162
C 14.72812 4.30414 0.0076
C 14.78984 2.82323 0.01241
C 15.95129 2.10492 -0.01454
C 15.93614 0.64343 0.01945
C 14.69376 0.00879 0.01416
C 17.23609 32.63227 0.03542
C 18.40147 31.93206 0.02299
C 18.49433 30.52388 0.00244
C 17.26513 29.84148 -0.01717
C 17.18998 28.47019 0.05265
C 18.47522 27.65837 -0.01952
C 18.42789 26.25839 -0.02813
C 17.18787 25.55869 0.00374
C 17.25563 24.17616 0.00052
C 18.43755 23.35387 -0.03682
C 18.42213 21.98278 0.01965
C 17.14786 21.35053 0.02058
C 17.18078 19.87289 -0.01957
C 18.43207 17.7627 -0.00368
C 9.83516 0.05736 0.00393
C 11.09273 0.68711 0.0288
C 11.10327 2.16446 -0.0008
C 6.16365 30.54495 0.02728
C 4.93706 29.85818 -0.00039
C 4.84987 28.47185 0.0064
C 6.16166 27.7401 0.00211
C 6.10879 26.25709 -0.00449
C 4.87468 25.55728 -0.01979
C 4.88151 24.15521 0.02784
C 6.16749 23.36512 -0.01977
C 6.19657 22.01846 -0.00561
C 4.91834 21.2866 0.00208
C 5.01588 19.86224 0.01707
C 6.1908 19.12285 0.02769
C 6.1022 17.7501 -0.03291
C 4.89544 17.13951 -0.04999
C 4.95622 15.60395 0.04505
C 6.23062 14.9027 0.03284
C 6.15354 4.95658 -0.04307
C 4.96486 4.30556 0.03189
C 4.88952 2.78621 0.00031
C 6.17208 2.08053 -0.003
C 6.07414 0.68998 0.01402
C 4.88599 0.02912 0.02379
C 7.33454 32.73779 0.00907
C 6.13649 31.9699 0.00245
C 8.63016 32.0234 0.00643
C 4.8921 32.59299 0.00081
C 3.6868 0.75864 -0.01386
C 3.71235 30.62019 0.00267
C 2.49038 29.8363 0.00787
C 2.42855 28.39596 0.02426
C 3.59873 27.61813 0.01218
C 3.68178 26.24347 -0.01471
C 2.52123 25.52447 -0.02827
C 2.4654 24.11127 0.01078
C 3.67841 23.45789 -0.00112
C 3.68819 22.06683 0.03345
C 2.40729 21.32587 0.00748
C 2.53934 19.87234 0.00662
C 3.80733 19.16185 -0.0154
C 3.70603 17.79729 -0.01299
C 2.41597 16.92381 -0.00407
C 2.44273 15.54272 0.01138
C 3.66277 14.87057 0.03278
C 3.52249 13.37186 -0.00177
C 2.46989 12.82671 0.04421
C 2.38805 7.10983 0.00088
C 3.62616 5.01284 0.00828
C 2.52649 4.21715 -0.02375
C 2.43678 2.87273 0.00558
C 3.6789 2.14307 -0.0059
C 2.521 0.01062 -0.02805
C 19.68605 24.14496 -0.00109
C 8.62204 30.56553 -0.01509
C 7.41065 28.438 0.02374
C 11.01596 26.29248 -0.02929
C 9.77034 25.60558 -0.00966
C 9.88061 24.16666 -0.03337
C 11.08183 23.51023 0.01227
C 11.08742 22.04995 0.00873
C 9.86227 21.41014 -0.00049
C 9.80525 20.00443 0.00848
C 11.0302 19.25277 -0.01303
C 11.08724 17.77258 -0.01378
C 9.77641 17.07547 0.02635
C 9.86024 15.6469 0.0127
C 11.07372 14.91354 0.01396
C 11.10815 13.47286 0.01849
C 9.73978 12.80741 -0.01142
C 9.84562 11.42286 -0.00562
C 11.05686 10.69279 -0.00494
C 10.95784 9.20196 0.00054
C 9.79647 8.56986 0.03007
C 9.76438 7.10854 -0.00095
C 11.12162 6.38021 0.01572
C 11.0153 5.03451 -0.04848
C 9.76634 4.32699 -0.00892
C 9.91 2.91534 -0.01362
C 11.07247 27.63248 0.03368
C 7.37291 29.87761 0.03267
C 9.8099 28.39461 -0.00077
C 11.0722 30.52427 0.0276
C 8.55784 27.73299 0.00402
C 8.49088 26.28426 0.0073
C 7.30662 25.5242 0.0174
C 7.34396 24.07972 0.03828
C 8.59014 23.50408 0.01226
C 8.59708 22.03641 -0.00279
C 7.37329 21.32564 0.01996
C 7.40356 19.86608 -0.03996
C 8.59431 19.18913 0.01465
C 8.61626 17.79925 -0.00074
C 7.41169 17.05381 -0.00518
C 7.39411 15.66211 0.0086
C 8.6042 14.90382 -0.00643
C 8.60587 13.54219 0.017
C 8.60013 6.3697 -0.03113
C 8.51606 5.05301 -0.02566
C 7.39221 4.2534 -0.00094
C 7.43339 2.78799 0.02322
C 8.67831 2.13093 -0.00725
C 8.60831 0.73355 -0.05697
C 7.32774 0.05434 0.01087
C 9.85208 32.71697 -0.01343
C 11.04727 31.94711 0.00988
C 9.81089 29.81483 0.01305
C 3.6472 31.98504 0.01913
C 20.93667 23.45572 -0.00491
C 19.66826 21.22191 -0.0258
C 29.55994 12.76137 -0.01461
C 29.53135 11.37605 -0.02155
C 30.72163 10.69 -0.00944
C 30.69519 9.16938 -0.03735
C 29.46712 8.52123 -0.00971
C 29.53342 7.06729 0.01518
C 30.69263 6.31061 0.01908
C 30.69541 4.95027 0.07705
C 29.50508 4.26449 0.0103
C 29.46718 2.83887 0.02108
C 30.73219 13.50034 -0.01303
C 30.76443 2.11286 0.00716
C 29.54925 34.05191 0.00346
C 31.98647 32.65268 0.01713
C 33.23641 31.89507 -0.01694
C 33.23216 30.43201 0.01428
C 31.99227 29.80741 -0.02142
C 31.98325 28.37081 0.0544
C 33.18497 27.65456 0.00026
C 33.22072 26.26086 0.00682
C 31.96845 25.57751 -0.01779
C 31.97935 24.16026 0.03794
C 30.77779 0.73248 0.00307
C 30.72304 14.92216 -0.0405
C 29.56316 15.68376 0.01705
C 29.47502 17.06107 0.0101
C 27.05786 7.09421 0.02198
C 28.29279 6.39684 0.01094
C 28.31364 5.00705 0.00235
C 27.11722 4.24903 0.01495
C 27.02227 2.79044 0.01259
C 28.2721 2.16781 0.01799
C 28.33153 0.73324 0.01699
C 27.09278 0.05404 -0.00416
C 29.49 32.55256 0.01177
C 30.67281 31.91955 0.04266
C 30.75949 30.50165 0.01324
C 29.56078 29.79857 0.0014
C 29.46458 28.36645 0.00924
C 30.67335 27.67882 0.02326
C 30.712 26.21009 0.00261
C 29.46488 25.50102 0.03265
C 29.47047 24.0848 -0.02049
C 30.74885 23.49994 -0.01854
C 30.7929 22.08417 -0.01415
C 29.53444 21.29523 -0.03039
C 29.50752 19.86528 0.01836
C 30.69398 19.13123 0.03531
C 30.6646 17.7531 -0.00669
C 33.2075 23.45414 0.01927
C 33.2351 21.98174 0.01574
C 31.9682 21.31226 -0.02383
C 31.90701 19.91552 -0.01429
C 0.00207 24.2081 0.03076
C 1.21232 23.5034 0.00723
C 1.19918 22.04248 0.02712
C 34.42642 21.29567 -0.02213
C 0.0053 19.90426 0.01951
C 1.2521 19.15562 -0.01678
C 1.25395 17.72527 0.01223
C 34.394 17.01369 0.00648
C 34.38232 15.58215 0.02114
C 1.20387 14.94107 -0.02957
C 1.18978 13.53492 0.00343
C 34.41999 12.75633 -0.02656
C 0.00348 11.30413 -0.02442
C 1.1473 10.54255 -0.00027
C 1.2079 9.35659 -0.00583
C 0.06528 8.50816 -0.02302
C 34.33866 7.04182 -0.02849
C 1.20929 6.39509 0.02931
C 1.2324 4.93809 0.00628
C 34.42466 4.21689 -0.0345
C 34.42416 2.80489 -0.00931
C 1.26746 2.0875 -0.00939
C 1.26395 0.70406 -0.00468
C 0.02858 25.57743 -0.05239
C 27.01151 8.5002 0.02611
C 1.26426 26.19504 -0.00598
C 34.41915 28.3307 -0.01037
C 33.15032 19.18203 -0.0136
C 33.2257 17.74643 0.00594
C 32.00973 17.01123 -0.02474
C 31.96277 15.66945 0.00369
C 33.10935 14.87806 0.00455
C 33.11756 13.42322 -0.00644
C 31.95711 12.69269 -0.01839
C 31.93659 11.35795 0.00137
C 33.22389 10.61893 0.00199
C 33.2374 9.20594 0.04381
C 31.85462 8.51338 0.02806
C 31.89442 7.03241 0.01504
C 33.1629 6.36206 -0.00069
C 33.21239 4.92642 0.04926
C 32.00967 4.21909 -0.03838
C 32.02762 2.74883 0.00349
C 33.25044 2.10228 -0.00323
C 33.20894 0.70459 -0.00841
C 31.99796 34.01203 0.0001
C 34.39878 32.65598 -0.02927
C 1.17211 31.94706 -0.01404
C 1.27444 30.50564 0.01027
C 0.11356 29.75559 0.01831
C 1.19525 27.64308 -0.00439
C 28.25699 9.22409 -0.00621
C 28.31903 10.66336 0.00194
C 27.05904 11.32141 0.04185
C 22.16565 25.55393 0.00675
C 22.1353 24.13076 -0.00311
C 23.36725 23.43538 0.00742
C 23.41881 22.03695 -0.01594
C 22.20845 21.33789 0.0106
C 22.14703 19.91333 -0.01154
C 23.35803 19.19941 -0.01721
C 23.39764 17.66202 -0.02422
C 22.07948 17.05504 0.01277
C 22.14622 15.65453 0.00096
C 23.33007 14.94938 -0.01527
C 23.333 13.51023 0.01087
C 22.10922 12.8008 0.00199
C 22.08886 11.3755 0.01511
C 23.35515 10.67037 -0.00478
C 23.39083 9.26119 -0.01662
C 22.12461 8.59116 -0.01185
C 22.10935 7.07353 0.01126
C 23.40946 6.43341 0.01852
C 23.42232 4.97746 -0.00381
C 22.21374 4.21431 0.03046
C 22.09087 2.80502 0.0296
C 23.41336 2.168 0.03374
C 23.36005 26.26096 -0.00865
C 23.5167 0.79603 -0.02845
C 23.31637 27.7202 0.0058
C 22.13352 29.82839 -0.04076
C 19.65411 19.87684 -0.0331
C 20.83834 19.16531 -0.00316
C 20.81625 17.78597 0.02188
C 19.60545 17.05129 -0.01979
C 19.65069 15.60131 0.02691
C 20.90154 14.85204 -0.01581
C 20.82058 13.44269 0.01452
C 19.64127 12.77119 0.04892
C 19.61171 11.3534 -0.00111
C 20.84802 10.65137 -0.03557
C 20.84459 9.23706 0.03754
C 19.66436 8.51347 0.01739
C 19.67609 7.07299 0.00755
C 20.8867 6.36472 -0.0054
C 20.95891 4.85776 0.00667
C 19.69668 4.2328 0.00143
C 19.64968 2.81387 -0.017
C 20.89177 2.13014 0.00364
C 21.03033 0.8078 -0.00831
C 19.69943 0.06248 -0.02957
C 22.08655 32.61233 -0.04422
C 23.33512 31.91585 0.00654
C 23.364 30.58565 -0.00703
C 22.09807 28.4271 -0.00652
C 20.93851 21.96895 0.03338
C 22.24579 0.06116 -0.03213
C 25.81137 31.9654 0.01153
C 25.82727 2.11158 -0.0264
C 25.81109 0.65899 -0.01154
C 24.64923 0.02764 0.00684
C 27.08912 32.68798 -0.01052
C 28.19565 31.89828 -0.01679
C 28.27469 30.47158 0.00367
C 27.00016 29.78194 0.04306
C 27.02818 28.38151 0.00996
C 28.26482 27.67308 0.00195
C 28.29999 26.25515 -0.00802
C 27.02493 25.63737 -0.00218
C 27.10035 24.22176 -0.01654
C 28.23519 23.40149 -0.00037
C 28.28982 21.96024 -0.0032
C 27.07475 21.3097 0.00622
C 27.06279 19.93757 -0.02815
C 28.28832 19.13002 -0.00942
C 28.27425 17.71799 0.00487
C 27.09843 17.06755 0.00826
C 27.01119 15.66977 -0.00294
C 28.30079 14.96488 0.00152
C 28.28411 13.51463 0.01257
C 27.07514 12.76518 0.02316
C 24.58683 2.7882 -0.00938
C 24.53949 32.61843 0.02239
C 24.6792 4.21155 -0.00229
C 25.80875 6.35356 -0.009
C 25.78059 30.56315 0.02734
C 24.54617 29.82071 -0.0055
C 24.53696 28.39685 0.01515
C 25.80578 27.6775 -0.00225
C 25.74935 26.1915 0.00071
C 24.53342 25.55686 -0.01107
C 24.58542 24.17546 -0.01586
C 25.85608 23.48882 -0.01971
C 25.82748 21.94088 -0.02118
C 24.64603 21.26308 0.00733
C 24.56139 19.95 -0.00178
C 25.81515 19.21043 0.00768
C 25.81479 17.79519 -0.0276
C 24.62092 16.99417 0.03005
C 24.60708 15.59776 -0.04078
C 25.83223 14.9025 0.02117
C 25.84141 13.49275 0.02737
C 24.59696 12.76245 -0.00498
C 24.64162 11.37972 0.00135
C 25.81961 10.64048 0.03102
C 25.82798 9.26075 0.02555
C 24.55933 8.50813 0.01423
C 24.55526 7.15417 -0.00285
C 25.81818 4.94108 -0.01199
C 2.38107 32.67771 -0.03672
