430
Graphene
C 34.42955 33.97174 0.01295
C 12.25124 4.29749 -0.00033
C 12.32576 2.92069 0.03589
C 13.58265 2.16759 -0.02759
C 13.49221 0.71022 0.0402
C 12.25175 0.12141 0.00572
C 14.71697 32.63811 0.03592
C 15.96585 31.92971 0.00406
C 16.03113 30.53262 0.00943
C 14.75066 29.84168 0.02841
C 14.74032 28.48284 -0.01111
C 13.47757 5.02395 -0.01062
C 16.01692 27.6646 -0.01275
C 14.7598 25.47266 -0.02245
C 14.74096 24.02427 -0.00428
C 15.89152 23.38594 0.03101
C 15.87256 21.78722 -0.01536
C 14.63017 20.98358 -0.02689
C 14.52438 19.59754 -0.01046
C 15.90368 19.04833 -0.00891
C 15.96679 17.70989 0.02819
C 14.81096 17.03586 0.00165
C 14.70283 15.50843 -0.02971
C 15.98756 26.27178 0.00985
C 13.48382 6.45242 0.01364
C 12.30118 7.10527 -0.00719
C 12.27727 8.56707 0.01641
C 11.13313 2.24399 0.00895
C 11.03478 0.84062 0.00685
C 9.80326 0.10727 0.02888
C 12.24819 32.70944 -0.00482
C 13.45126 31.90911 -0.01384
C 13.44727 30.54036 0.03693
C 12.2165 29.79097 0.01745
C 12.25958 28.46226 0.00488
C 13.54558 27.70679 -0.01004
C 13.49136 26.30042 -0.02896
C 12.27779 25.60779 -0.00131
C 12.31107 24.14469 -0.01118
C 13.49374 23.26312 -0.014
C 13.52059 21.91321 0.02147
C 13.60985 17.72754 0.00373
C 12.31529 17.11662 -0.00191
C 12.25635 15.66167 0.00438
C 13.48313 14.981 0.01291
C 13.46044 13.53647 0.00093
C 12.25741 12.82643 0.00057
C 12.20845 11.49422 -0.01634
C 13.47371 10.79549 -0.00334
C 13.43845 9.29749 0.02339
C 15.9732 14.83457 0.02894
C 15.96231 13.48143 -0.01789
C 14.71543 12.78923 0.00444
C 14.71778 11.39864 -0.00925
C 17.18776 15.58516 -0.00114
C 18.47811 14.84421 0.00228
C 18.42566 13.43513 0.00798
C 17.13199 12.66165 0.00422
C 17.16875 11.28145 0.0351
C 18.39832 10.59825 -0.03113
C 18.40415 9.15648 0.02098
C 17.1492 8.48091 0.01848
C 17.21605 7.10239 -0.00619
C 18.41782 6.41029 -0.02162
C 18.43784 4.97526 0.00889
C 17.17886 4.27349 -0.00481
C 17.19008 2.80496 0.00979
C 18.33577 2.02986 0.01443
C 18.40402 0.65497 0.03505
C 17.19417 0.02072 -0.02815
C 19.58305 32.69339 -0.04147
C 20.85328 31.96282 -0.05302
C 20.89948 30.58454 0.00213
C 19.65304 29.86272 -0.00066
C 19.67115 28.45253 -0.00289
C 20.91876 27.69005 0.00028
C 20.94454 26.27358 -0.02213
C 17.15828 16.98504 -0.02696
C 9.83831 2.89801 0.00393
C 18.35078 17.77135 -0.00368
C 17.1094 19.8403 -0.01957
C 15.93966 10.62474 0.01877
C 15.96283 9.23404 0.01363
C 14.65084 8.63367 -0.02162
C 14.76415 7.16491 0.00415
C 15.97994 6.41186 -0.0014
C 15.95275 4.97509 0.02162
C 14.70931 4.321 0.0076
C 14.72799 2.89864 0.01241
C 15.98155 2.16333 -0.01454
C 15.96477 0.77114 0.01945
C 14.73388 0.02812 0.01416
C 17.17994 32.65409 0.03542
C 18.42283 31.89867 0.02299
C 18.42214 30.51437 0.00244
C 17.18494 29.79958 -0.01717
C 17.2456 28.33438 0.05265
C 18.43941 27.75335 -0.01952
C 18.48669 26.34949 -0.02813
C 17.28765 25.59377 0.00374
C 17.20921 24.07264 0.00052
C 18.43754 23.48708 -0.03682
C 18.44615 22.02951 0.01965
C 17.08407 21.21139 0.02058
C 18.34955 19.19416 -0.0108
C 9.8456 4.40973 0.0288
C 11.01001 5.03827 -0.0008
C 11.00935 6.49157 -0.01362
C 3.72185 2.13487 0.00245
C 3.70132 0.7119 0.02728
C 2.4438 34.06672 -0.00039
C 4.89342 32.71846 0.0064
C 6.11637 32.01642 0.00211
C 6.12924 30.60051 -0.00449
C 4.90541 29.92123 -0.01979
C 4.92405 28.44333 0.02784
C 6.09206 27.78825 -0.01977
C 6.07715 26.34847 -0.00561
C 4.94227 25.59322 0.00208
C 4.90865 24.17078 0.01707
C 6.17062 23.40057 0.02769
C 6.03418 22.10072 -0.03291
C 4.92911 21.13134 -0.04999
C 5.03914 19.65109 0.04505
C 6.11773 17.70133 0.03284
C 4.95178 17.03002 -0.04307
C 4.88821 15.62142 0.03189
C 6.15562 14.97326 0.00031
C 6.07018 13.5195 -0.003
C 4.9041 12.79716 0.01402
C 4.84016 11.34431 0.02379
C 2.42064 2.90049 0.00081
C 6.11704 10.67571 0.00907
C 2.4195 4.26942 -0.02805
C 3.65391 6.40697 -0.0059
C 3.69824 30.50764 0.01913
C 2.43204 29.80138 0.00267
C 2.53577 28.34448 0.00787
C 3.72038 27.6852 0.02426
C 3.61372 26.29342 0.01218
C 2.45631 25.59609 -0.01471
C 2.48015 24.10406 -0.02827
C 3.71129 23.37494 0.01078
C 3.76223 21.92372 -0.00112
C 2.46987 21.26344 0.03345
C 2.52662 19.85692 0.00748
C 3.76114 19.12262 0.00662
C 3.73093 17.79197 -0.0154
C 2.45895 17.0109 -0.01299
C 2.37215 15.63878 -0.00407
C 3.64079 15.01439 0.01138
C 3.59549 13.43165 0.03278
C 2.34598 12.7482 -0.00177
C 2.36105 11.32371 0.04421
C 3.62482 10.69495 0.00088
C 3.60218 9.24123 0.00828
C 2.37684 8.52063 -0.02375
C 2.36358 7.13539 0.00558
C 3.66695 5.0373 -0.01386
C 19.69626 25.56911 0.03698
C 6.12163 9.2594 0.00643
C 4.86098 7.16445 0.03267
C 8.61474 5.06056 0.03368
C 7.38349 4.38308 -0.02929
C 7.34448 2.93245 -0.00966
C 8.5488 2.27319 -0.03337
C 8.55062 0.80329 0.01227
C 7.4088 0.10544 0.00873
C 9.82477 32.81908 -0.00049
C 11.05897 32.07869 0.00848
C 11.08966 30.63107 -0.01303
C 9.80455 29.91076 -0.01378
C 9.89728 28.50746 0.02635
C 11.09066 27.74539 0.0127
C 11.05003 26.32445 0.01396
C 9.85834 25.55755 0.01849
C 9.82077 15.77746 -0.01142
C 11.07327 14.9898 -0.00562
C 11.00016 13.58371 -0.00494
C 9.82835 12.95308 0.00054
C 9.74143 11.47162 0.03007
C 10.97749 10.75925 -0.00095
C 10.95454 9.3594 0.01572
C 9.80268 8.55825 -0.04848
C 9.80854 7.18134 -0.00892
C 8.56263 6.41565 -0.00077
C 4.83108 8.59139 -0.01509
C 7.29275 7.183 0.01305
C 8.62331 9.27032 0.00988
C 6.12007 6.45819 0.02374
C 6.11438 5.01276 0.00402
C 4.88251 4.36133 0.0073
C 4.85522 2.86022 0.0174
C 6.12141 2.23111 0.03828
C 6.11728 0.78061 0.01226
C 4.9704 0.06267 -0.00279
C 7.3591 32.7384 0.01996
C 8.58293 32.07223 -0.03996
C 8.58078 30.63934 0.01465
C 7.37915 29.884 -0.00074
C 7.31668 28.49226 -0.00518
C 8.62473 27.76325 0.0086
C 8.70501 26.34809 -0.00643
C 7.38458 25.68691 0.017
C 7.44184 24.36065 -0.03113
C 7.31764 17.12332 -0.02566
C 7.3268 15.67674 -0.00094
C 8.59577 15.00059 0.02322
C 8.58703 13.59155 -0.00725
C 7.35292 12.81909 -0.05697
C 7.29266 11.39099 0.01087
C 8.52016 10.70976 -0.01343
C 7.35802 8.56923 0.0276
C 19.6586 24.17183 -0.00109
C 20.87713 23.47561 -0.00491
C 20.8737 22.02739 0.03338
C 30.72143 13.44011 -0.01303
C 29.47881 12.7429 -0.01461
C 29.45619 11.3099 -0.02155
C 30.69635 10.50909 -0.00944
C 30.67271 9.13116 -0.03735
C 29.45528 8.47825 -0.00971
C 29.42815 6.99951 0.01518
C 30.66778 6.27344 0.01908
C 30.69957 4.80013 0.07705
C 29.45199 4.17936 0.0103
C 29.45514 2.74101 0.02108
C 30.71406 2.01792 0.00716
C 30.75948 0.62528 0.00307
C 29.49385 34.01693 0.00346
C 31.96705 32.58892 0.01713
C 33.18522 31.80016 -0.01694
C 33.19667 30.46356 0.01428
C 31.99623 29.79287 -0.02142
C 31.92765 28.44024 0.0544
C 33.19285 27.68892 0.00026
C 33.21218 26.27858 0.00682
C 31.89481 25.56867 -0.01779
C 31.94169 24.18621 0.03794
C 30.74397 14.90016 -0.0405
C 33.19216 23.43143 0.01927
C 29.51515 15.6976 0.01705
C 30.7441 17.77188 -0.00669
C 26.97438 8.47109 0.02611
C 26.98163 7.13186 0.02198
C 28.21805 6.36989 0.01094
C 28.22301 4.90149 0.00235
C 27.0138 4.22721 0.01495
C 26.96996 2.7744 0.01259
C 28.25088 2.14663 0.01799
C 28.29522 0.64043 0.01699
C 27.05029 0.02822 -0.00416
C 29.41854 32.58113 0.01177
C 30.72801 31.91281 0.04266
C 30.71272 30.48614 0.01324
C 29.47076 29.8565 0.0014
C 29.45681 28.39773 0.00924
C 30.67524 27.78294 0.02326
C 30.69462 26.31526 0.00261
C 29.50487 25.6034 0.03265
C 29.50307 24.15534 -0.02049
C 30.68145 23.48884 -0.01854
C 30.73879 22.12812 -0.01415
C 29.52083 21.348 -0.03039
C 29.49939 19.92138 0.01836
C 30.78655 19.20311 0.03531
C 29.53538 17.04215 0.0101
C 28.16227 9.20998 -0.00621
C 33.20303 22.00046 0.01574
C 32.00865 20.00155 -0.01429
C 34.41965 24.16216 0.03076
C 1.21929 23.43233 0.00723
C 1.25467 22.00279 0.02712
C 0.03992 21.31174 -0.02213
C 0.0388 19.89271 0.01951
C 1.26605 19.23553 -0.01678
C 1.2587 17.78911 0.01223
C 34.41546 17.01427 0.00648
C 34.34804 15.60171 0.02114
C 1.09536 14.91634 -0.02957
C 1.0625 13.35927 0.00343
C 34.26909 12.71939 -0.02656
C 34.3027 11.2945 -0.02442
C 1.15582 10.56763 -0.00027
C 1.19813 9.1212 -0.00583
C 34.38324 8.37655 -0.02302
C 34.36658 7.05344 -0.02849
C 1.19843 6.39841 0.02931
C 1.16147 4.98656 0.00628
C 34.39379 4.2954 -0.0345
C 0.00199 2.80024 -0.00931
C 1.22685 2.09208 -0.00939
C 1.22627 0.6427 -0.00468
C 0.00616 25.53849 -0.05239
C 31.96731 21.35314 -0.02383
C 1.2297 26.27109 -0.00598
C 34.42245 28.35166 -0.01037
C 33.22136 19.204 -0.0136
C 33.19819 17.71784 0.00594
C 31.90986 17.05941 -0.02474
C 31.89576 15.6165 0.00369
C 33.09913 14.92373 0.00455
C 33.12117 13.50108 -0.00644
C 31.90338 12.77737 -0.01839
C 31.92779 11.26048 0.00137
C 33.14091 10.56928 0.00199
C 33.17327 9.13257 0.04381
C 31.94565 8.39676 0.02806
C 31.93452 7.00065 0.01504
C 33.15604 6.31312 -0.00069
C 33.18994 4.86437 0.04926
C 31.97736 4.12978 -0.03838
C 31.96159 2.75958 0.00349
C 33.17042 2.10969 -0.00323
C 33.23175 0.58493 -0.00841
C 31.92796 34.01373 0.0001
C 34.42429 32.59904 -0.02927
C 1.36339 31.90681 -0.01404
C 1.27654 30.49749 0.01027
C 34.40848 29.76089 0.01831
C 1.29666 27.69465 -0.00439
C 3.72654 31.89819 -0.03672
C 28.24327 10.6154 0.00194
C 27.0452 12.78975 0.02316
C 23.37992 26.22592 -0.00865
C 22.13816 25.55958 0.00675
C 22.10261 24.14227 -0.00311
C 23.37907 23.46591 0.00742
C 23.36187 21.99126 -0.01594
C 22.05443 21.36738 0.0106
C 22.13669 19.88975 -0.01154
C 23.33607 19.20604 -0.01721
C 23.33362 17.77343 -0.02422
C 22.04896 17.07238 0.01277
C 22.10252 15.63347 0.00096
C 23.33283 14.9663 -0.01527
C 23.33447 13.58174 0.01087
C 22.12475 12.79961 0.00199
C 22.11188 11.39125 0.01511
C 23.30526 10.75593 -0.00478
C 23.33019 9.21432 -0.01662
C 22.12414 8.57131 -0.01185
C 22.10586 7.11632 0.01126
C 23.36708 6.39517 0.01852
C 23.27537 4.94932 -0.00381
C 22.16021 4.23769 0.03046
C 22.05987 2.75478 0.0296
C 23.4159 27.73346 0.0058
C 23.35075 2.10019 0.03374
C 22.08988 28.41332 -0.00652
C 23.39471 30.50375 -0.00703
C 19.65576 21.34409 -0.0258
C 19.63495 19.87968 -0.0331
C 20.86966 19.16807 -0.00316
C 20.84889 17.76065 0.02188
C 19.63709 17.05428 -0.01979
C 19.61726 15.61238 0.02691
C 20.91131 14.96814 -0.01581
C 20.87978 13.54949 0.01452
C 19.65507 12.71468 0.04892
C 19.64716 11.31877 -0.00111
C 20.89355 10.62805 -0.03557
C 20.87933 9.19929 0.03754
C 19.62207 8.55011 0.01739
C 19.61854 7.07459 0.00755
C 20.843 6.41286 -0.0054
C 20.89644 4.92867 0.00667
C 19.61982 4.18843 0.00143
C 19.607 2.82071 -0.017
C 20.7903 2.1372 0.00364
C 20.80774 0.69023 -0.00831
C 19.65852 34.04975 -0.02957
C 22.08979 32.65397 -0.04422
C 23.32106 31.96075 0.00654
C 22.11035 29.79616 -0.04076
C 27.08448 11.38055 0.04185
C 23.25795 0.63715 -0.02845
C 24.57285 32.68055 0.02239
C 24.57351 2.84521 -0.00938
C 25.78565 2.07624 -0.0264
C 25.7977 0.64595 -0.01154
C 24.49183 34.041 0.00684
C 27.03166 32.67853 -0.01052
C 28.22215 31.92845 -0.01679
C 28.28772 30.55555 0.00367
C 27.0519 29.85577 0.04306
C 27.06665 28.39996 0.00996
C 28.23709 27.70705 0.00195
C 28.31832 26.2888 -0.00802
C 27.03951 25.55431 -0.00218
C 27.1039 24.14651 -0.01654
C 28.29718 23.43533 -0.00037
C 28.335 22.09157 -0.0032
C 27.08991 21.3132 0.00622
C 27.04058 19.9045 -0.02815
C 28.32829 19.19525 -0.00942
C 28.22745 17.79225 0.00487
C 27.06168 17.02309 0.00826
C 27.038 15.619 -0.00294
C 28.30135 14.94239 0.00152
C 28.25129 13.45441 0.01257
C 24.59056 4.28924 -0.00229
C 22.06389 34.01812 -0.03213
C 25.81524 4.96361 -0.01199
C 24.53214 7.16164 -0.00285
C 25.82412 31.97162 0.01153
C 25.78726 30.57132 0.02734
C 24.58123 29.82215 -0.0055
C 24.53694 28.3518 0.01515
C 25.78122 27.66958 -0.00225
C 25.85655 26.28724 0.00071
C 24.64114 25.60121 -0.01107
C 24.61552 24.07977 -0.01586
C 25.90434 23.44573 -0.01971
C 25.81119 22.0932 -0.02118
C 24.58451 21.24703 0.00733
C 24.59621 19.88841 -0.00178
C 25.8669 19.1934 0.00768
C 25.86299 17.78047 -0.0276
C 24.61543 17.07059 0.03005
C 24.57658 15.62932 -0.04078
C 25.80022 14.87482 0.02117
C 25.81531 13.52371 0.02737
C 24.55565 12.83755 -0.00498
C 24.60349 11.44133 0.00135
C 25.79891 10.64924 0.03102
C 25.83289 9.30082 0.02555
C 24.61113 8.56817 0.01423
C 25.71242 6.33984 -0.009
C 2.47049 32.6501 -0.04306
