364
Graphene
C 34.30793 0.0092 0.01295
C 9.81331 11.36548 0.00052
C 10.9596 10.59077 -0.03682
C 10.96217 9.20643 0.01965
C 9.66368 8.52795 0.02058
C 9.75634 7.16124 -0.01957
C 11.00623 6.38813 -0.0108
C 10.94348 4.9124 -0.00368
C 9.69816 4.28401 -0.02696
C 9.86242 12.74664 0.00374
C 9.741 2.90261 -0.00114
C 11.02666 0.77356 0.00798
C 9.73749 0.06874 0.00422
C 12.13714 32.70841 0.0351
C 13.40985 31.96818 -0.03113
C 13.39595 30.53755 0.02098
C 12.17438 29.84325 0.01848
C 12.25608 28.42838 -0.00619
C 13.55913 27.69508 -0.02162
C 10.99045 2.1676 0.00228
C 11.11168 13.48207 -0.02813
C 11.12624 14.88536 -0.01952
C 9.95771 15.6524 0.05265
C 8.53553 2.19506 0.02894
C 8.49093 0.79576 -0.01789
C 7.27669 0.06674 0.00444
C 9.70361 32.7154 -0.00925
C 10.90646 32.01777 0.01877
C 11.00784 30.62053 0.01363
C 9.76921 29.90039 -0.02162
C 9.75547 28.46681 0.00415
C 11.04815 27.7678 -0.0014
C 11.09396 26.32508 0.02162
C 9.80625 25.56836 0.0076
C 9.82629 24.23572 0.01241
C 11.09946 23.44811 -0.01454
C 11.16935 22.00262 0.01945
C 9.91169 21.29825 0.01416
C 9.93261 19.85047 0.03542
C 11.16359 19.22241 0.02299
C 11.22231 17.84401 0.00244
C 9.90119 17.10988 -0.01717
C 13.53533 26.27767 0.00889
C 12.3048 25.55947 -0.00481
C 12.34843 24.19365 0.00979
C 13.60659 23.41535 0.01443
C 15.94806 31.88519 -0.03557
C 15.92153 30.48615 0.03754
C 14.72074 29.78736 0.01739
C 14.70341 28.42751 0.00755
C 14.58949 25.44038 -0.0054
C 14.71435 24.22574 0.00667
C 16.1143 22.13146 0.00143
C 15.01917 21.25351 -0.017
C 14.9908 19.79018 0.00364
C 16.17692 18.89004 -0.00831
C 16.08002 17.50854 -0.02957
C 14.74602 16.92043 -0.04422
C 14.73064 15.52115 0.00654
C 15.96752 14.88344 -0.00703
C 15.99922 13.45402 -0.04076
C 14.75177 12.75606 -0.00652
C 14.6603 11.31356 0.0058
C 15.85327 10.55835 -0.00865
C 15.93101 9.19044 0.00675
C 14.67376 32.64793 -0.00111
C 7.19658 2.89334 -0.02971
C 12.20668 0.03579 0.04892
C 13.38585 2.11137 -0.01581
C 13.72734 21.93608 0.03505
C 12.46216 21.28154 -0.02815
C 12.48177 19.84488 -0.04147
C 13.68288 19.0596 -0.05302
C 13.55428 17.70827 0.00213
C 12.37151 16.97679 -0.00066
C 12.34755 15.57012 -0.00289
C 13.50804 14.82943 0.00028
C 13.52206 13.37332 -0.02213
C 12.22993 12.69709 0.03698
C 12.21211 11.24276 -0.00109
C 13.45855 10.54551 -0.00491
C 13.45284 9.12605 0.03338
C 12.18341 8.4695 -0.0258
C 12.21878 7.04191 -0.0331
C 13.42892 6.32827 -0.00316
C 13.48851 4.92451 0.02188
C 12.29786 4.2783 -0.01979
C 12.23977 2.85944 0.02691
C 13.39223 0.64525 0.01452
C 14.77585 8.40779 -0.00311
C 7.27233 4.28701 0.00165
C 8.47621 6.43633 -0.00891
C 3.57083 6.51601 -0.01303
C 3.57835 5.02827 -0.01378
C 2.33689 4.28974 0.02635
C 2.3304 2.92339 0.0127
C 3.61983 2.23178 0.01396
C 3.60267 0.84411 0.01849
C 2.37002 0.06514 -0.01142
C 4.80349 32.67672 -0.00562
C 2.34736 7.14452 0.00848
C 6.01262 31.94469 -0.00494
C 4.79442 29.88657 0.03007
C 4.76489 28.43097 -0.00095
C 6.0163 27.83732 0.01572
C 6.09571 26.44386 -0.04848
C 4.91132 25.62451 -0.00892
C 4.94321 24.19163 -0.01362
C 6.1828 23.56328 -0.0008
C 6.22303 22.11144 0.0288
C 6.0808 30.56345 0.00054
C 2.3014 8.57071 -0.00049
C 3.55277 9.22164 0.00873
C 3.5631 10.64262 0.01227
C 3.53429 30.64506 0.0086
C 2.26709 29.91911 -0.00643
C 2.31644 28.50584 0.017
C 3.53257 27.75001 -0.03113
C 3.64016 26.37081 -0.02566
C 2.38935 25.64767 -0.00094
C 2.48687 24.15443 0.02322
C 3.74373 23.40634 -0.00725
C 3.76878 22.04573 -0.05697
C 2.5077 21.37535 0.01087
C 2.44394 19.98947 -0.01343
C 3.69954 19.27625 0.00988
C 3.68331 17.8821 0.0276
C 2.45968 17.2458 0.01305
C 2.47625 15.78624 -0.00077
C 3.6676 14.9294 0.03368
C 3.66224 13.49914 -0.02929
C 2.44494 12.80304 -0.00966
C 2.34631 11.40798 -0.03337
C 5.01926 21.36354 0.00393
C 4.98488 19.99649 0.00895
C 6.18668 19.16423 0.00685
C 6.12563 17.72576 0.02888
C 8.60562 26.33749 -0.01062
C 7.34435 25.63549 -0.00033
C 7.3734 24.21487 0.03589
C 8.68268 23.45886 -0.02759
C 8.65675 21.98125 0.0402
C 7.38215 21.2864 0.00572
C 7.45646 19.89529 0.03592
C 8.68666 19.19961 0.00406
C 8.62264 17.84674 0.00943
C 7.35575 17.11219 0.02841
C 7.38662 15.74057 -0.01111
C 8.64738 14.96764 -0.01275
C 8.69883 13.59431 0.00985
C 7.46713 12.812 -0.02245
C 7.40732 11.45633 -0.00428
C 8.5227 10.68485 0.03101
C 8.48739 9.27927 -0.01536
C 7.31153 8.60213 -0.02689
C 7.21489 7.17331 -0.01046
C 8.56493 27.74769 0.01364
C 8.51179 4.98832 0.02819
C 7.35032 28.38988 -0.00719
C 8.54927 30.54909 0.02339
C 4.89004 17.02759 -0.00482
C 4.85437 15.61242 -0.01384
C 6.13039 14.86376 0.03693
C 6.17248 13.50149 0.01745
C 4.88882 12.81553 0.00488
C 4.85181 11.42716 -0.01004
C 6.1879 10.7737 -0.02896
C 6.14956 9.28411 -0.00131
C 4.78445 8.58145 -0.01118
C 4.83113 7.08253 -0.014
C 6.00815 6.39996 0.02147
C 6.03476 4.97339 0.00373
C 4.87338 4.34036 -0.00191
C 4.81076 2.91078 0.00438
C 5.96821 2.2291 0.01291
C 6.02656 0.78531 0.00093
C 4.84431 0.03353 0.00057
C 7.22111 32.71124 -0.01634
C 8.48042 31.96893 -0.00334
C 7.33257 29.82623 0.01641
C 14.64703 7.0318 0.00742
C 15.93914 6.24059 -0.01594
C 15.95125 4.88408 0.0106
C 30.66006 2.21233 0.00346
C 30.75683 0.84911 0.01713
C 29.51253 0.15848 -0.01694
C 31.82263 32.71927 0.01428
C 33.00496 31.91036 -0.02142
C 33.02276 30.47618 0.0544
C 31.65706 29.7799 0.00026
C 31.85214 28.32073 0.00682
C 29.44202 2.9647 0.00307
C 32.98828 27.56702 -0.01779
C 33.36655 23.52876 0.01927
C 33.05173 22.19466 0.01574
C 32.04836 21.48488 -0.02383
C 31.85152 20.09889 -0.01429
C 33.11141 19.23274 -0.0136
C 33.17868 17.84005 0.00594
C 31.97976 17.08137 -0.02474
C 32.00298 15.68423 0.00369
C 33.18762 26.09605 0.03794
C 29.55807 4.38786 0.00716
C 30.74205 5.053 0.02108
C 30.6929 6.509 0.0103
C 27.02485 2.89745 -0.02049
C 28.22317 2.28588 -0.01854
C 28.3276 0.91601 -0.01415
C 27.14091 0.0489 -0.03039
C 29.44066 32.9454 0.01836
C 30.48046 32.01704 0.03531
C 30.59923 30.60271 -0.00669
C 30.79385 19.19945 0.0101
C 30.71776 17.85666 0.01705
C 29.59993 17.11664 -0.0405
C 29.43791 15.65952 -0.01303
C 30.75976 14.95463 -0.01461
C 30.77131 13.51622 -0.02155
C 29.45165 12.84703 -0.00944
C 29.44902 11.41243 -0.03735
C 30.65061 10.80624 -0.00971
C 30.67549 9.31223 0.01518
C 29.4203 8.59191 0.01908
C 29.44475 7.15951 0.07705
C 33.23306 14.97429 0.00455
C 33.24338 13.62352 -0.00644
C 32.03062 12.90493 -0.01839
C 31.92593 11.41465 0.00137
C 34.31737 20.01873 0.01951
C 1.17901 19.30236 -0.01678
C 1.19024 17.87384 0.01223
C 34.41716 17.11998 0.00648
C 34.38205 15.81474 0.02114
C 1.21332 15.08785 -0.02957
C 1.24581 13.62227 0.00343
C 0.0333 12.85579 -0.02656
C 34.37955 11.46531 -0.02442
C 1.12183 10.6927 -0.00027
C 1.15556 9.29663 -0.00583
C 34.35566 8.58419 -0.02302
C 34.39134 7.2054 -0.02849
C 1.08273 6.49023 0.02931
C 1.14512 5.06547 0.00628
C 34.34367 4.35349 -0.0345
C 34.33754 2.91892 -0.00931
C 1.16158 2.22837 -0.00939
C 1.10191 0.73351 -0.00468
C 34.38553 21.40408 -0.02213
C 27.00612 4.35944 0.03265
C 1.25861 22.07154 0.02712
C 0.08428 24.12084 0.03076
C 33.09749 10.76381 0.00199
C 33.09727 9.33425 0.04381
C 31.8975 8.60561 0.02806
C 31.92098 7.17221 0.01504
C 33.14565 6.5283 -0.00069
C 33.14555 5.03372 0.04926
C 31.93296 4.37523 -0.03838
C 31.92783 2.85717 0.00349
C 33.11505 2.12934 -0.00323
C 33.10987 0.68282 -0.00841
C 31.89146 0.02548 0.0001
C 34.27371 32.68791 -0.02927
C 1.08731 32.01575 -0.01404
C 1.04397 30.63109 0.01027
C 34.23136 29.80634 0.01831
C 34.29173 28.39526 -0.01037
C 1.15206 27.67848 -0.00439
C 1.25858 26.33433 -0.00598
C 0.07294 25.65844 -0.05239
C 1.34221 23.50839 0.00723
C 28.28591 5.00662 0.00261
C 28.24307 6.38625 0.02326
C 27.05308 7.12761 0.00924
C 18.40274 2.0325 -0.0055
C 18.44365 0.619 0.01515
C 17.16628 33.99491 -0.00225
C 19.46752 32.59181 0.00071
C 19.50768 17.03019 -0.01107
C 19.56499 15.59702 -0.01586
C 20.85109 14.93349 -0.01971
C 20.82759 13.51881 -0.02118
C 19.5776 12.68276 0.00733
C 19.57135 11.20475 -0.00178
C 20.82338 10.55238 0.00768
C 20.80956 9.13147 -0.0276
C 19.63493 8.45892 0.03005
C 19.64791 6.94063 -0.04078
C 20.85814 6.26162 0.02117
C 20.89215 4.85695 0.02737
C 19.71681 4.13347 -0.00498
C 19.69124 2.7599 0.00135
C 20.91179 2.01256 0.03102
C 17.09922 2.80632 0.02734
C 20.95212 0.57029 0.02555
C 17.23605 4.23304 0.01153
C 18.43722 6.2391 -0.03213
C 14.72435 4.19153 -0.01154
C 14.66525 2.76829 -0.01721
C 15.85882 2.025 -0.02422
C 15.8786 0.56206 0.01277
C 14.59316 34.00316 0.00096
C 17.0975 32.61895 -0.01527
C 18.33606 31.952 0.01087
C 17.60813 19.24102 0.00199
C 18.29433 17.92506 0.01511
C 17.33282 16.93628 -0.00478
C 17.23689 15.55666 -0.01662
C 18.4338 14.82055 -0.01185
C 18.37347 13.45651 0.01126
C 17.18165 12.71634 0.01852
C 17.0488 11.33165 -0.00381
C 18.36697 10.55401 0.03046
C 18.39731 9.14536 0.0296
C 17.15261 8.45937 0.03374
C 17.162 7.00509 -0.02845
C 18.46798 4.93297 0.02239
C 3.60844 31.96859 -0.00518
C 19.73765 33.96824 0.01423
C 22.03605 15.57996 -0.009
C 24.49705 8.49482 0.00152
C 24.593 7.09743 0.01257
C 25.78828 6.40869 0.02316
C 25.76641 4.99542 0.04185
C 24.54427 4.1425 0.00194
C 24.57733 2.73992 -0.00621
C 25.83274 2.06402 0.02611
C 25.82756 0.47768 0.02198
C 24.64405 34.03136 0.01094
C 28.26197 17.72906 0.00235
C 27.15424 17.25018 0.01495
C 26.8788 15.79826 0.01259
C 28.15015 15.04434 0.01799
C 28.13939 13.57991 0.01699
C 26.91091 12.8145 -0.00416
C 26.95496 11.37356 0.01177
C 28.175 10.65878 0.04266
C 28.20322 9.22704 0.01324
C 27.00268 8.50761 0.0014
C 25.74301 9.24594 -0.00294
C 22.23111 17.16661 -0.00285
C 25.72463 10.66255 0.00826
C 24.56302 12.82449 -0.00942
C 23.25309 14.89106 -0.01199
C 23.21543 13.46143 -0.00229
C 22.06287 12.77306 -0.00938
C 21.91857 11.3141 -0.0264
C 23.2755 10.69733 -0.01154
C 23.20848 9.20056 0.00684
C 22.06499 8.41712 -0.01052
C 22.1289 6.96353 -0.01679
C 23.30673 6.30311 0.00367
C 23.30802 4.85942 0.04306
C 22.12053 4.10535 0.00996
C 22.0619 2.70834 0.00195
C 23.37002 2.06386 -0.00802
C 23.42253 0.50828 -0.00218
C 22.23113 34.00958 -0.01654
C 23.62466 16.95969 -0.00037
C 24.42464 15.79399 -0.0032
C 25.6242 15.09861 0.00622
C 25.73516 13.5641 -0.02815
C 24.4647 11.35353 0.00487
C 2.32308 32.68591 -0.00074
