341
Graphene
C 34.40833 34.06899 0.01295
C 12.24689 2.80754 -0.00619
C 13.49576 2.15802 -0.02162
C 13.53115 0.70266 0.00889
C 12.34998 34.00438 -0.00481
C 14.67781 32.62318 0.00979
C 15.9389 31.98255 0.01443
C 15.99272 30.5902 0.03505
C 14.7652 29.85937 -0.02815
C 14.73982 28.37815 -0.04147
C 15.9634 27.66279 -0.05302
C 16.01636 26.24246 0.00213
C 14.78695 25.37784 -0.00066
C 14.80437 23.97791 -0.00289
C 16.16022 23.52413 0.00028
C 16.02651 9.03566 -0.02213
C 14.82781 8.39563 0.03698
C 14.7201 6.93851 -0.00109
C 12.07978 4.18179 0.01848
C 15.97282 6.28199 -0.00491
C 13.29185 5.01477 0.02098
C 14.13287 9.5696 0.0351
C 9.91879 2.95064 -0.01717
C 10.98808 2.13717 0.05265
C 10.9971 0.67928 -0.01952
C 9.7331 0.07478 -0.02813
C 12.24001 32.6318 0.00374
C 13.45332 31.92333 0.00052
C 13.51811 30.5457 -0.03682
C 12.32925 29.82565 0.01965
C 12.34427 28.37357 0.02058
C 13.63622 27.60856 -0.01957
C 13.59383 26.2321 -0.0108
C 12.37818 25.46038 -0.00368
C 12.41116 24.11122 -0.02696
C 13.58892 23.25692 -0.00114
C 13.23293 21.98497 0.00228
C 12.66673 11.7608 0.00798
C 13.1371 10.64939 0.00422
C 13.6041 6.33121 -0.03113
C 15.86508 4.94368 0.03338
C 14.6164 4.25637 -0.0258
C 14.63849 2.90321 -0.0331
C 20.84772 32.02161 -0.04076
C 20.86177 30.56659 -0.00652
C 19.6705 29.77523 0.0058
C 19.67188 28.34951 -0.00865
C 20.85764 27.66227 0.00675
C 21.04244 26.22556 -0.00311
C 19.68855 25.63693 0.00742
C 19.71757 24.25336 -0.01594
C 20.91291 23.67129 0.0106
C 19.53085 8.50413 -0.01154
C 19.62797 7.18202 -0.01721
C 20.87443 6.30724 -0.02422
C 20.80856 4.85925 0.01277
C 19.61023 4.19218 0.00096
C 19.65057 2.74522 -0.01527
C 20.86034 2.14678 0.01087
C 20.8816 0.69853 0.00199
C 19.60398 32.70608 -0.00703
C 17.21795 34.06347 0.00654
C 18.40457 0.69585 -0.04422
C 18.47005 2.05407 -0.02957
C 15.97911 2.11286 -0.00316
C 16.00604 0.68137 0.02188
C 14.69492 34.05011 -0.01979
C 17.18146 32.65071 0.02691
C 18.37825 31.95155 -0.01581
C 18.37657 30.54734 0.01452
C 17.17008 29.83581 0.04892
C 17.18566 28.42347 -0.00111
C 9.96091 21.48665 0.00244
C 18.44056 27.80487 -0.03557
C 17.28764 25.64629 0.01739
C 17.27083 24.14858 0.00755
C 17.13388 8.45856 -0.0054
C 17.2039 6.91045 0.00667
C 18.39443 6.29757 0.00143
C 18.38271 4.92858 -0.017
C 17.15687 4.19401 0.00364
C 17.21626 2.80833 -0.00831
C 18.44979 26.42158 0.03754
C 11.15587 22.06342 0.02299
C 11.12627 23.50911 0.03542
C 9.83338 24.24294 0.01416
C 2.35395 7.10661 -0.00482
C 3.59543 6.51479 -0.01384
C 3.81144 5.11403 0.03693
C 2.5407 4.33609 0.01745
C 2.47534 2.92713 0.00488
C 3.64525 2.21038 -0.01004
C 3.68074 0.76359 -0.02896
C 2.44984 0.04208 -0.00131
C 4.93748 32.72951 -0.01118
C 6.29037 32.05037 -0.014
C 6.18245 30.56222 0.02147
C 4.98358 29.8721 0.00373
C 4.94474 28.47661 -0.00191
C 6.11656 27.75211 0.00438
C 6.14281 26.30303 0.01291
C 4.83575 25.61521 0.00093
C 4.78702 24.22425 0.00057
C 2.33589 8.55594 0.02888
C 3.59519 9.13586 0.00685
C 3.79846 10.60464 0.00895
C 2.52635 11.25122 0.00393
C 3.6982 30.60113 -0.01303
C 2.47991 29.8662 -0.01378
C 2.43595 28.41698 0.02635
C 3.70208 27.72399 0.0127
C 3.63617 26.30331 0.01396
C 2.42057 25.55571 0.01849
C 2.44603 24.15363 -0.01142
C 3.65477 23.45077 -0.00562
C 6.14653 23.44596 -0.01634
C 3.69489 22.00426 -0.00494
C 2.47736 19.94124 0.03007
C 3.78464 19.21433 -0.00095
C 3.64808 17.76072 0.01572
C 2.39434 17.01797 -0.04848
C 2.33118 15.547 -0.00892
C 3.67984 14.85757 -0.01362
C 3.68983 13.40372 -0.0008
C 2.43691 12.72562 0.0288
C 2.36404 21.30424 0.00054
C 19.6236 0.0334 0.01511
C 6.05613 22.02255 -0.00334
C 4.98796 19.83781 0.01641
C 8.59841 23.49718 0.02819
C 8.54486 21.97034 0.00165
C 7.26781 21.25937 -0.02971
C 7.44777 19.92018 0.02894
C 6.76883 12.24654 -0.01789
C 7.26639 3.07512 0.00444
C 8.56212 2.38486 -0.00925
C 8.60699 0.89873 0.01877
C 7.41359 0.12795 0.01363
C 9.83055 32.73753 -0.02162
C 11.01473 32.04983 0.00415
C 11.08684 30.65496 -0.0014
C 9.8257 29.89558 0.02162
C 9.84399 28.48809 0.0076
C 11.11847 27.6768 0.01241
C 11.11877 26.23465 -0.01454
C 9.85512 25.63537 0.01945
C 7.38059 24.19842 -0.00891
C 7.3397 25.63314 -0.01046
C 8.58681 26.35791 -0.02689
C 8.58714 27.75485 -0.01536
C 6.29419 19.04985 -0.00719
C 6.09939 17.70261 0.01364
C 4.88238 16.99613 -0.01062
C 4.96287 15.58206 -0.00033
C 6.20138 14.94495 0.03589
C 6.3318 13.48434 -0.02759
C 4.89884 12.77308 0.0402
C 5.01746 11.53113 0.00572
C 4.92664 21.26902 0.02339
C 4.88627 4.22432 0.03592
C 6.15809 2.21586 0.00943
C 6.1952 0.72657 0.02841
C 4.94148 0.03513 -0.01111
C 7.42269 32.78564 -0.01275
C 8.66083 32.02106 0.00985
C 8.57524 30.58911 -0.02245
C 7.34368 29.85031 -0.00428
C 7.38094 28.45397 0.03101
C 4.87859 2.89436 0.00406
C 3.6925 31.99113 0.00848
C 22.08661 32.68134 -0.00478
C 23.34657 30.4747 -0.01185
C 32.02741 29.8731 -0.02142
C 31.96331 28.41201 0.0544
C 33.20771 27.69186 0.00026
C 33.17805 26.26366 0.00682
C 31.97392 25.52502 -0.01779
C 31.97833 24.03011 0.03794
C 33.21403 23.38827 0.01927
C 33.16041 22.0269 0.01574
C 31.95033 21.28156 -0.02383
C 31.96784 19.8463 -0.01429
C 33.11542 19.18474 -0.0136
C 33.11404 17.71865 0.00594
C 31.87827 17.05508 -0.02474
C 31.87073 15.62155 0.00369
C 33.07919 14.96363 0.00455
C 33.12885 13.51859 -0.00644
C 31.92699 12.79901 -0.01839
C 33.19842 30.56311 0.01428
C 31.87341 11.37026 0.00137
C 33.15126 31.9381 -0.01694
C 29.47834 34.07514 0.00346
C 30.65952 17.77391 -0.00669
C 29.39483 17.07619 0.0101
C 29.3977 15.69262 0.01705
C 30.60878 14.95815 -0.0405
C 30.65679 13.59188 -0.01303
C 29.48062 12.79991 -0.01461
C 29.38148 11.3807 -0.02155
C 30.62679 10.69962 -0.00944
C 30.63246 9.18977 -0.03735
C 29.42156 8.52449 -0.00971
C 29.46077 7.09698 0.01518
C 30.7084 6.31379 0.01908
C 30.6972 4.89541 0.07705
C 29.48481 4.20608 0.0103
C 29.42928 2.77549 0.02108
C 30.68915 2.14648 0.00716
C 30.75493 0.74289 0.00307
C 32.02774 32.67723 0.01713
C 33.12719 10.63808 0.00199
C 33.18216 9.21292 0.04381
C 31.85561 8.54357 0.02806
C 1.2406 17.80653 0.01223
C 34.39663 17.06085 0.00648
C 34.39068 15.61682 0.02114
C 1.14301 14.87743 -0.02957
C 1.20644 13.42898 0.00343
C 34.38902 12.80166 -0.02656
C 34.36532 11.36875 -0.02442
C 1.26451 10.65034 -0.00027
C 1.1166 9.30282 -0.00583
C 34.37049 8.51013 -0.02302
C 34.35118 7.09036 -0.02849
C 1.13665 6.40814 0.02931
C 1.26515 4.97074 0.00628
C 34.39449 4.30954 -0.0345
C 0.02189 2.89725 -0.00931
C 1.20809 2.23545 -0.00939
C 1.22715 0.79532 -0.00468
C 1.2166 19.21936 -0.01678
C 34.38101 19.86365 0.01951
C 34.39675 21.28874 -0.02213
C 1.14241 22.04945 0.02712
C 31.91788 7.09614 0.01504
C 33.12223 6.40524 -0.00069
C 33.11663 5.01098 0.04926
C 31.92646 4.26468 -0.03838
C 31.91294 2.77064 0.00349
C 33.21146 2.14598 -0.00323
C 33.17638 0.72413 -0.00841
C 31.98914 0.00375 0.0001
C 30.74259 19.13353 0.03531
C 34.39485 32.68506 -0.02927
C 1.24194 30.66051 0.01027
C 0.01923 29.87004 0.01831
C 34.41776 28.41191 -0.01037
C 1.21604 27.75511 -0.00439
C 1.20254 26.32966 -0.00598
C 34.37884 25.5241 -0.05239
C 0.02445 24.15881 0.03076
C 1.25126 23.47546 0.00723
C 1.24189 32.0646 -0.01404
C 29.47221 19.92327 0.01836
C 29.38066 21.3263 -0.03039
C 30.71612 22.01881 -0.01415
C 25.7858 27.63544 -0.0276
C 25.78449 26.25304 0.03005
C 24.60953 25.56821 -0.04078
C 24.5683 24.15265 0.02117
C 25.85058 23.52621 0.02737
C 25.60106 22.10676 -0.00498
C 24.16988 21.92149 0.00135
C 25.75791 10.56777 0.03102
C 25.73293 9.25493 0.02555
C 24.50465 8.4846 0.01423
C 24.53627 7.12666 -0.00285
C 25.75662 6.33788 -0.009
C 25.77788 4.91045 -0.01199
C 24.58205 4.19333 -0.00229
C 24.53463 2.75781 -0.00938
C 25.84273 2.09335 -0.0264
C 25.80948 0.6665 -0.01154
C 24.65344 28.37831 0.00768
C 24.63272 29.8058 -0.00178
C 25.86337 30.46947 0.00733
C 25.82474 31.90242 -0.02118
C 22.04554 29.82304 0.01126
C 22.0698 28.40999 0.01852
C 23.34528 27.6809 -0.00381
C 23.40887 26.26182 0.03046
C 22.22221 25.46613 0.0296
C 22.24619 23.96047 0.03374
C 23.5939 23.11133 -0.02845
C 23.27068 9.01133 -0.03213
C 24.58696 34.07871 0.00684
C 22.00525 8.52421 0.02239
C 23.3734 6.37343 0.02734
C 23.33382 4.97654 -0.0055
C 22.09665 4.25092 0.01515
C 22.1069 2.89877 -0.00225
C 23.31614 2.10868 0.00071
C 23.33315 0.68699 -0.01107
C 22.10091 34.04436 -0.01586
C 24.55602 32.62977 -0.01971
C 22.03164 7.06074 0.01153
C 23.29799 31.91834 -0.01662
C 27.10124 32.58928 -0.01052
C 28.27623 30.55422 0.00367
C 28.19825 6.4109 0.01094
C 28.1968 4.99518 0.00235
C 27.08744 4.22695 0.01495
C 26.982 2.83498 0.01259
C 28.24572 2.15492 0.01799
C 28.2592 0.73512 0.01699
C 27.01732 34.00168 -0.00416
C 29.50011 32.65077 0.01177
C 30.73193 32.02564 0.04266
C 30.79869 30.54925 0.01324
C 29.48475 29.82253 0.0014
C 29.48479 28.41471 0.00924
C 30.70899 27.77458 0.02326
C 30.79619 26.29497 0.00261
C 29.54812 25.53686 0.03265
C 29.44099 24.18015 -0.02049
C 30.65892 23.44153 -0.01854
C 27.01029 7.10392 0.02198
C 27.00768 8.48013 0.02611
C 28.12898 9.27598 -0.00621
C 28.07538 10.73663 0.00194
C 27.05367 29.77692 0.04306
C 27.05793 28.37477 0.00996
C 28.26852 27.67904 0.00195
C 28.30934 26.26614 -0.00802
C 27.02959 25.55103 -0.00218
C 27.0912 24.1417 -0.01654
C 28.23449 23.41329 -0.00037
C 28.19554 22.02378 -0.0032
C 28.25616 31.94903 -0.01679
C 26.81224 21.26515 0.00622
C 28.20885 19.31626 -0.00942
C 28.27938 17.88472 0.00487
C 27.03588 17.07086 0.00826
C 27.08157 15.77966 -0.00294
C 28.22941 14.94243 0.00152
C 28.206 13.4589 0.01257
C 27.07585 12.79536 0.02316
C 26.82333 11.47318 0.04185
C 26.94507 19.95676 -0.02815
C 2.47003 32.74929 -0.00049
