325
Graphene
C 34.42347 34.04772 0.01295
C 14.71452 4.29766 -0.00066
C 14.75392 2.90584 -0.00289
C 16.00031 2.17525 0.00028
C 15.9842 0.7712 -0.02213
C 14.76399 0.10185 0.03698
C 17.21861 32.6161 -0.00109
C 18.42928 31.88886 -0.00491
C 16.03239 4.96434 0.00213
C 18.3716 30.51203 0.03338
C 17.1241 28.23702 -0.0331
C 18.35567 27.63712 -0.00316
C 18.52581 26.20751 0.02188
C 17.22336 25.65675 -0.01979
C 17.22877 7.05843 0.02691
C 18.37447 6.36375 -0.01581
C 18.48816 5.01573 0.01452
C 17.18158 29.74818 -0.0258
C 17.29647 4.26247 0.04892
C 15.95911 6.38397 -0.05302
C 14.79874 8.48564 -0.02815
C 12.28376 7.12827 -0.02696
C 13.49418 6.41796 -0.00114
C 13.4546 5.01409 0.00228
C 12.26856 4.23028 0.00798
C 12.21437 2.88479 0.00422
C 13.55517 2.20097 0.0351
C 13.5521 0.80796 -0.03113
C 14.74608 7.05531 -0.04147
C 12.35386 0.10091 0.02098
C 16.00357 31.95871 -0.00619
C 15.93931 30.49933 -0.02162
C 14.70407 29.77098 0.00889
C 14.69509 28.35547 -0.00481
C 15.84782 27.52809 0.00979
C 16.09372 26.25076 0.01443
C 16.12261 8.99068 0.03505
C 14.80496 32.70998 0.01848
C 17.22725 2.86621 -0.00111
C 18.42704 2.10669 -0.03557
C 18.51808 0.66632 0.03754
C 20.82496 0.65346 -0.01154
C 19.64205 33.93946 -0.01721
C 22.06386 32.65961 -0.02422
C 23.36976 32.00572 0.01277
C 23.36885 30.5706 0.00096
C 22.15953 29.86679 -0.01527
C 22.12572 28.38615 0.01087
C 20.89807 2.0544 0.0106
C 23.32233 27.72811 0.00199
C 22.09717 25.58877 -0.00478
C 22.03948 24.176 -0.01662
C 23.27878 23.47066 -0.01185
C 23.36797 22.0348 0.01126
C 22.08913 21.34801 0.01852
C 22.04984 19.91698 -0.00381
C 23.27096 19.08608 0.03046
C 23.29415 26.34909 0.01511
C 19.73489 2.82026 -0.01594
C 19.64226 4.28064 0.00742
C 20.86159 4.89606 -0.00311
C 17.17983 0.02434 0.01739
C 19.67007 32.54231 0.00755
C 20.90523 31.93549 -0.0054
C 20.8983 30.55507 0.00667
C 19.6596 29.7969 0.00143
C 19.63078 28.35947 -0.017
C 20.90062 27.74685 0.00364
C 20.8985 26.28355 -0.00831
C 19.71717 25.51306 -0.02957
C 19.69868 24.17503 -0.04422
C 20.88631 23.50765 0.00654
C 20.88082 22.10361 -0.00703
C 19.77705 21.28765 -0.04076
C 19.79487 20.06458 -0.00652
C 20.83925 19.16199 0.0058
C 20.90573 17.82247 -0.00865
C 20.02172 16.76356 0.00675
C 12.24319 8.59981 -0.00368
C 13.47267 9.27827 -0.0108
C 13.71427 10.63184 -0.01957
C 13.41504 27.95237 0.02058
C 2.47127 0.01699 0.00093
C 4.91468 32.67867 0.00057
C 6.15001 31.97463 -0.01634
C 6.19762 30.53017 -0.00334
C 4.93503 29.85604 0.02339
C 4.87941 28.45964 0.01641
C 6.12682 27.598 -0.00719
C 3.66319 0.68387 0.01291
C 5.00467 25.64256 0.01364
C 6.11404 10.64016 -0.00033
C 6.0941 9.30243 0.03589
C 4.89173 8.51984 -0.02759
C 4.95069 7.11243 0.0402
C 6.12542 6.33877 0.00572
C 6.14048 4.99309 0.03592
C 4.92475 4.28835 0.00406
C 4.91761 11.25627 -0.01062
C 3.68669 2.10082 0.00438
C 2.43456 2.80887 -0.00191
C 2.48655 4.25039 0.00373
C 3.68576 30.57636 -0.0008
C 2.49055 29.80632 0.0288
C 2.46426 28.43641 0.00393
C 3.67988 27.71789 0.00895
C 3.75142 26.36815 0.00685
C 2.49973 25.67603 0.02888
C 2.43557 24.30197 -0.00482
C 2.54776 15.5195 -0.01384
C 3.50988 13.85948 0.03693
C 2.46239 12.77761 0.01745
C 2.48464 11.35681 0.00488
C 3.68462 10.6481 -0.01004
C 3.64779 9.26031 -0.02896
C 2.42552 8.55122 -0.00131
C 2.47283 7.08256 -0.01118
C 3.66834 6.39382 -0.014
C 3.72168 4.93654 0.02147
C 4.90766 2.80695 0.00943
C 23.29515 17.66744 0.0296
C 6.14573 2.17612 0.02841
C 4.95218 0.06847 -0.01275
C 9.75797 28.46192 0.0076
C 10.94824 9.26937 0.01241
C 9.72072 8.56296 -0.01454
C 9.80391 7.19894 0.01945
C 11.03668 6.47034 0.01416
C 10.98432 4.9552 0.03542
C 9.78756 4.29264 0.02299
C 9.90935 29.75778 0.02162
C 9.80169 2.87801 0.00244
C 11.10434 0.78443 0.05265
C 9.84174 0.04194 -0.01952
C 12.33415 32.76216 -0.02813
C 13.57442 32.02224 0.00374
C 13.50432 30.54773 0.00052
C 12.29275 29.80752 -0.03682
C 12.17695 28.39965 0.01965
C 11.02499 2.22528 -0.01717
C 11.07888 30.48132 -0.0014
C 11.08535 31.96191 0.00415
C 9.91906 32.67193 -0.02162
C 7.35205 32.70091 0.00985
C 8.62836 31.93645 -0.02245
C 8.59111 30.47918 -0.00428
C 7.33881 29.74728 0.03101
C 7.35878 28.11506 -0.01536
C 8.65681 27.6506 -0.02689
C 8.35886 10.58254 -0.01046
C 8.50809 9.16983 -0.00891
C 7.27968 8.52953 0.02819
C 7.33124 7.1264 0.00165
C 8.59991 6.46335 -0.02971
C 8.51127 5.00952 0.02894
C 7.32747 4.30206 -0.01789
C 7.4068 2.84142 0.00444
C 8.61246 2.12467 -0.00925
C 8.61143 0.75043 0.01877
C 7.37809 0.06592 0.01363
C 6.13377 0.75046 -0.01111
C 3.66682 31.94233 -0.01362
C 21.94919 16.92902 0.03374
C 23.33339 5.00701 -0.03213
C 33.17991 26.30904 0.00682
C 31.97148 25.56506 -0.01779
C 31.92758 24.17492 0.03794
C 33.2271 23.51091 0.01927
C 33.22191 22.08188 0.01574
C 31.98812 21.38532 -0.02383
C 31.97082 19.92993 -0.01429
C 33.16133 27.72842 0.00026
C 33.22229 19.19626 -0.0136
C 31.94052 17.15446 -0.02474
C 31.9404 15.6707 0.00369
C 33.18998 14.98123 0.00455
C 33.2347 13.56421 -0.00644
C 31.92237 12.86838 -0.01839
C 31.97631 11.42025 0.00137
C 33.1541 10.69257 0.00199
C 33.20754 17.78865 0.00594
C 33.12743 9.28374 0.04381
C 31.91951 28.37105 0.0544
C 33.20058 30.53172 0.01428
C 30.68875 13.48207 -0.01303
C 29.44844 12.79438 -0.01461
C 29.48721 11.34523 -0.02155
C 30.74965 10.6335 -0.00944
C 30.6847 9.24018 -0.03735
C 29.45856 8.47227 -0.00971
C 29.46529 7.08455 0.01518
C 31.96426 29.80918 -0.02142
C 30.70622 6.43401 0.01908
C 29.43889 4.21287 0.0103
C 29.49995 2.85324 0.02108
C 30.67353 2.10847 0.00716
C 30.69454 0.72607 0.00307
C 29.46514 34.07756 0.00346
C 31.97518 32.63912 0.01713
C 33.20906 31.95243 -0.01694
C 30.7167 4.9625 0.07705
C 31.93505 8.49925 0.02806
C 31.93196 7.11238 0.01504
C 33.19628 6.37958 -0.00069
C 0.02243 16.95758 0.00648
C 0.00561 15.60299 0.02114
C 1.2515 14.94803 -0.02957
C 1.21238 13.52864 0.00343
C 34.41034 12.77535 -0.02656
C 34.40121 11.37505 -0.02442
C 1.1762 10.66632 -0.00027
C 1.14521 17.77634 0.01223
C 1.19411 9.21785 -0.00583
C 34.42169 7.08182 -0.02849
C 1.20601 6.36233 0.02931
C 1.24636 5.01749 0.00628
C 0.01526 4.2853 -0.0345
C 34.42924 2.84889 -0.00931
C 1.21602 2.12953 -0.00939
C 1.24346 0.66158 -0.00468
C 34.39943 8.50525 -0.02302
C 1.16347 19.12212 -0.01678
C 0.10775 19.94683 0.01951
C 0.00235 21.35152 -0.02213
C 33.20614 4.97734 0.04926
C 31.97755 4.20201 -0.03838
C 31.9467 2.83501 0.00349
C 33.17809 2.15096 -0.00323
C 33.1979 0.68543 -0.00841
C 31.96398 0.02617 0.0001
C 34.40951 32.62511 -0.02927
C 1.21696 31.93653 -0.01404
C 1.18708 30.4816 0.01027
C 34.34603 29.76404 0.01831
C 34.38419 28.42781 -0.01037
C 1.19974 27.73354 -0.00439
C 1.26996 26.37244 -0.00598
C 0.04386 25.65125 -0.05239
C 0.0815 24.18168 0.03076
C 1.4054 23.42687 0.00723
C 1.12561 22.10548 0.02712
C 30.73931 14.89905 -0.0405
C 29.48681 15.55693 0.01705
C 29.53128 17.00148 0.0101
C 30.75086 17.78558 -0.00669
C 24.80882 15.60607 0.03102
C 25.83162 14.87573 0.02555
C 25.91224 9.4698 0.01423
C 24.6466 7.11701 -0.00285
C 25.82365 6.3691 -0.009
C 25.8412 5.03519 -0.01199
C 24.58111 4.36966 -0.00229
C 24.47053 16.95403 0.00135
C 24.61101 2.87698 -0.00938
C 25.80058 0.72662 -0.01154
C 24.54986 0.0217 0.00684
C 27.00239 32.64741 -0.01052
C 28.28727 31.92752 -0.01679
C 28.22927 30.4907 0.00367
C 27.00686 29.81972 0.04306
C 27.01128 28.39088 0.00996
C 25.7824 2.1013 -0.0264
C 25.78091 17.61543 -0.00498
C 25.79869 19.03379 0.02737
C 24.566 19.85786 0.02117
C 22.12004 4.29063 0.02239
C 22.13582 2.83594 0.01153
C 23.27168 2.14238 0.02734
C 23.29705 0.7216 -0.0055
C 22.07285 34.05268 0.01515
C 24.56244 32.70574 -0.00225
C 25.79142 32.03116 0.00071
C 25.77788 30.53184 -0.01107
C 24.60497 29.78473 -0.01586
C 24.54524 28.39539 -0.01971
C 25.78947 27.67627 -0.02118
C 25.81578 26.32221 0.00733
C 24.60328 25.57308 -0.00178
C 24.53257 24.12924 0.00768
C 25.77456 23.35983 -0.0276
C 25.77168 21.96509 0.03005
C 24.50475 21.29719 -0.04078
C 28.25961 27.67903 0.00195
C 23.4628 6.47282 -0.02845
C 28.22601 26.26586 -0.00802
C 26.95268 24.08386 -0.01654
C 28.20425 0.67336 0.01699
C 26.9721 34.07569 -0.00416
C 29.44284 32.66702 0.01177
C 30.76293 31.9804 0.04266
C 30.70507 30.57204 0.01324
C 29.48831 29.78874 0.0014
C 29.46447 28.36989 0.00924
C 28.29703 2.09744 0.01799
C 30.66745 27.64018 0.02326
C 29.46968 25.5492 0.03265
C 29.43673 24.07379 -0.02049
C 30.64944 23.46166 -0.01854
C 30.60691 22.0428 -0.01415
C 29.42048 21.30305 -0.03039
C 29.48137 19.85985 0.01836
C 30.73382 19.24758 0.03531
C 30.71939 26.27673 0.00261
C 27.02126 2.81486 0.01259
C 26.97276 4.26006 0.01495
C 28.21153 4.967 0.00235
C 28.20911 23.40843 -0.00037
C 28.17419 21.97303 -0.0032
C 26.94087 21.20637 0.00622
C 26.9715 19.74677 -0.02815
C 28.22916 19.13339 -0.00942
C 28.26479 17.68706 0.00487
C 27.00677 16.88197 0.00826
C 27.05194 15.47338 -0.00294
C 28.24931 14.78963 0.00152
C 28.2573 13.43837 0.01257
C 27.06564 12.61008 0.02316
C 27.08275 11.25422 0.04185
C 28.23594 10.60626 0.00194
C 28.26776 9.22721 -0.00621
C 27.00108 8.57985 0.02611
C 26.9547 7.12626 0.02198
C 28.2202 6.41597 0.01094
C 26.9975 25.55514 -0.00218
C 2.47019 32.65021 -0.00892
