344
Graphene
C 0.01243 0.00151 0.01295
C 12.3218 32.65045 0.02098
C 13.55939 32.00017 0.01848
C 13.5642 30.55227 -0.00619
C 12.36312 29.83941 -0.02162
C 12.36938 28.49441 0.00889
C 12.28391 7.12377 -0.00481
C 13.45617 6.42987 0.00979
C 13.44412 4.86946 0.01443
C 12.28981 4.13226 0.03505
C 12.2639 2.70492 -0.02815
C 13.54545 2.13167 -0.04147
C 13.53182 0.71527 -0.05302
C 12.37709 34.03886 0.00213
C 14.75308 32.69893 -0.00066
C 15.9939 32.03923 -0.00289
C 15.98932 30.39874 0.00028
C 14.7238 29.75402 -0.02213
C 9.8093 34.03685 -0.03113
C 11.07853 0.6084 0.0351
C 11.02471 2.00884 0.00422
C 9.75273 2.85799 0.00798
C 7.40838 4.27622 0.03542
C 7.31024 2.90165 0.02299
C 8.52038 2.21147 0.00244
C 8.60261 0.77011 -0.01717
C 7.36999 0.07133 0.05265
C 9.81988 32.62381 -0.01952
C 11.10126 31.96537 -0.02813
C 11.05588 30.56207 0.00374
C 14.71671 7.00195 0.03698
C 9.8788 29.88428 0.00052
C 11.21845 27.77136 0.01965
C 10.9217 26.3152 0.02058
C 9.91122 25.74026 -0.01957
C 9.87213 8.35438 -0.0108
C 9.85385 7.03358 -0.00368
C 11.13305 6.41243 -0.02696
C 11.14271 4.92262 -0.00114
C 9.8391 4.23496 0.00228
C 9.85298 28.45797 -0.03682
C 8.6186 4.90364 0.01416
C 15.91526 6.45734 -0.00109
C 14.77309 4.30042 0.03338
C 20.93349 9.1959 0.00654
C 19.8508 8.65216 -0.00703
C 19.6364 7.19047 -0.04076
C 20.84038 6.44924 -0.00652
C 20.84827 4.99436 0.0058
C 19.67412 4.2006 -0.00865
C 19.63252 2.75977 0.00675
C 20.91379 2.11232 -0.00311
C 20.90967 0.66808 0.00742
C 19.6517 0.02924 -0.01594
C 22.11141 32.665 0.0106
C 23.41107 31.95538 -0.01154
C 23.41906 30.55986 -0.01721
C 22.18717 29.78104 -0.02422
C 22.11034 28.34656 0.01277
C 23.38615 27.61272 0.00096
C 23.41271 26.25033 -0.01527
C 20.77201 27.7972 -0.04422
C 19.72946 28.34928 -0.02957
C 19.68336 29.74526 -0.00831
C 20.92659 30.44012 0.00364
C 14.74366 2.89911 -0.0258
C 15.93859 2.15289 -0.0331
C 15.94182 0.70658 -0.00316
C 14.72076 0.01267 0.02188
C 17.18002 32.74923 -0.01979
C 18.40689 31.9313 0.02691
C 18.48706 30.48348 -0.01581
C 17.30222 29.86067 0.01452
C 16.0051 4.95358 -0.00491
C 17.21069 7.1129 0.04892
C 18.49112 4.99021 -0.03557
C 17.22109 4.23382 0.03754
C 17.18442 2.79093 0.01739
C 18.44499 2.06927 0.00755
C 18.43775 0.69918 -0.0054
C 17.21821 0.05143 0.00667
C 19.62579 32.66731 0.00143
C 20.87589 31.95998 -0.017
C 18.39383 6.42591 -0.00111
C 23.35379 14.71475 0.01087
C 8.59534 6.34331 0.01945
C 7.40062 8.54266 0.01241
C 2.46179 7.07632 0.00895
C 3.66794 6.32448 0.00685
C 3.63617 4.93513 0.02888
C 2.43738 4.16403 -0.00482
C 2.46951 2.79606 -0.01384
C 3.66025 2.10453 0.03693
C 3.69498 0.73378 0.01745
C 2.53766 34.03878 0.00488
C 4.92348 32.74114 -0.01004
C 6.11336 31.95137 -0.02896
C 6.09767 30.54839 -0.00131
C 4.89757 29.88764 -0.01118
C 4.96493 28.43971 -0.014
C 6.18005 27.68052 0.02147
C 6.13355 26.26803 0.00373
C 4.87224 25.56825 -0.00191
C 4.87718 24.16585 0.00438
C 2.44162 8.52055 0.00393
C 3.6807 9.28029 0.0288
C 3.71252 10.65742 -0.0008
C 2.47698 11.38017 -0.01362
C 3.69244 30.52871 0.00873
C 2.45757 29.89083 -0.00049
C 2.38787 28.44406 0.00848
C 3.6482 27.76387 -0.01303
C 3.65526 26.26708 -0.01378
C 2.41015 25.56602 0.02635
C 2.41515 24.12353 0.0127
C 3.70557 23.41091 0.01396
C 6.24555 23.44731 0.01291
C 3.63621 21.94558 0.01849
C 2.54827 19.851 -0.00562
C 3.73647 19.16995 -0.00494
C 3.64174 17.74919 0.00054
C 2.43924 17.07775 0.03007
C 2.44979 15.63843 -0.00095
C 3.73752 14.91937 0.01572
C 3.70954 13.52919 -0.04848
C 2.45812 12.80315 -0.00892
C 2.40305 21.24761 -0.01142
C 7.35598 7.15229 -0.01454
C 6.07546 21.99393 0.00093
C 4.89551 19.87449 -0.01634
C 7.33207 29.88102 -0.02689
C 7.36636 28.39869 -0.01046
C 8.6322 27.74307 -0.00891
C 8.61079 26.21486 0.02819
C 7.3856 25.60016 0.00165
C 7.45258 24.20721 -0.02971
C 8.56244 23.34138 0.02894
C 8.47668 22.17662 -0.01789
C 7.35725 21.23244 0.00444
C 7.40466 19.75635 -0.00925
C 8.62014 19.17719 0.01877
C 7.3849 16.93916 0.01363
C 7.34972 15.74611 -0.02162
C 7.36608 12.88023 0.00415
C 7.41875 11.42616 -0.0014
C 8.64847 10.63466 0.02162
C 8.78853 9.27229 0.0076
C 8.60809 30.50816 -0.01536
C 8.54824 31.88678 0.03101
C 7.36827 32.62301 -0.00428
C 4.90598 0.0628 -0.02245
C 6.03604 19.11705 -0.00334
C 6.1773 17.70882 0.02339
C 4.89659 17.05256 0.01641
C 4.90499 15.66445 -0.00719
C 6.21294 14.91041 0.01364
C 6.10554 13.48479 -0.01062
C 4.8933 12.83058 -0.00033
C 4.9527 11.41455 0.03589
C 4.84005 21.32235 0.00057
C 6.14969 10.71019 -0.02759
C 4.93606 8.59704 0.00572
C 4.90269 7.11661 0.03592
C 6.11962 6.42106 0.00406
C 6.19123 5.01643 0.00943
C 4.94203 4.28394 0.02841
C 4.90442 2.91095 -0.01111
C 6.13742 2.20451 -0.01275
C 6.1183 0.83632 0.00985
C 6.15583 9.27152 0.0402
C 23.47387 13.53944 0.00199
C 22.02566 11.27924 0.01511
C 23.26712 10.72028 -0.00478
C 31.93238 29.79215 -0.02142
C 31.93749 28.3902 0.0544
C 33.21644 27.75395 0.00026
C 33.18886 26.35256 0.00682
C 32.00585 25.56952 -0.01779
C 31.90555 24.11144 0.03794
C 33.14062 23.47577 0.01927
C 33.21314 22.01472 0.01574
C 31.94925 21.30853 -0.02383
C 31.87459 19.91469 -0.01429
C 33.12617 19.23152 -0.0136
C 33.27198 17.80538 0.00594
C 32.03107 17.02803 -0.02474
C 31.95948 15.64787 0.00369
C 33.17333 14.89523 0.00455
C 33.21294 13.45807 -0.00644
C 32.00374 12.78712 -0.01839
C 33.11235 30.53444 0.01428
C 33.10416 31.92241 -0.01694
C 31.96545 32.64541 0.01713
C 29.52398 0.02537 0.00346
C 30.67361 19.19099 0.03531
C 30.73997 17.76528 -0.00669
C 29.53094 17.0102 0.0101
C 29.49966 15.60189 0.01705
C 30.71761 14.9376 -0.0405
C 30.77563 13.5502 -0.01303
C 29.57398 12.83247 -0.01461
C 29.48412 11.37319 -0.02155
C 31.95549 11.40785 0.00137
C 30.71702 10.66672 -0.00944
C 29.52613 8.54729 -0.00971
C 29.56466 7.10883 0.01518
C 30.76674 6.32167 0.01908
C 30.78883 4.94467 0.07705
C 29.56235 4.29627 0.0103
C 29.49799 2.84109 0.02108
C 30.74573 2.17066 0.00716
C 30.76241 0.73102 0.00307
C 30.7304 9.16201 -0.03735
C 29.43917 19.89434 0.01836
C 33.17243 10.67401 0.00199
C 31.94473 8.50324 0.02806
C 1.24008 17.75654 0.01223
C 0.01301 17.09491 0.00648
C 34.41451 15.63407 0.02114
C 1.2152 14.89492 -0.02957
C 1.21104 13.43859 0.00343
C 0.02439 12.74404 -0.02656
C 34.42101 11.30998 -0.02442
C 1.19138 10.63376 -0.00027
C 1.18515 9.25004 -0.00583
C 34.4062 8.54371 -0.02302
C 0.01075 7.12226 -0.02849
C 1.26058 6.36158 0.02931
C 1.24511 4.93871 0.00628
C 0.0027 4.29309 -0.0345
C 0.04836 2.80938 -0.00931
C 1.23372 2.03791 -0.00939
C 1.2458 0.66016 -0.00468
C 1.2648 19.11477 -0.01678
C 34.4307 19.84985 0.01951
C 0.02212 21.26988 -0.02213
C 1.23363 21.97233 0.02712
C 31.98387 7.0607 0.01504
C 33.21219 6.46462 -0.00069
C 33.24508 5.03408 0.04926
C 32.02638 4.32091 -0.03838
C 31.96326 2.85933 0.00349
C 33.21776 2.16302 -0.00323
C 33.23548 0.74414 -0.00841
C 31.98219 34.07236 0.0001
C 33.20482 9.23535 0.04381
C 34.36001 32.6517 -0.02927
C 1.21548 30.59957 0.01027
C 0.00707 29.90291 0.01831
C 0.02051 28.43509 -0.01037
C 1.1661 27.67002 -0.00439
C 1.15975 26.20499 -0.00598
C 34.37866 25.55289 -0.05239
C 34.42935 24.16915 0.03076
C 1.18913 23.39876 0.00723
C 1.17414 31.96084 -0.01404
C 29.48002 21.26842 -0.03039
C 30.75643 21.95203 -0.01415
C 30.69352 23.34397 -0.01854
C 24.62623 20.04149 -0.00178
C 25.79213 19.22125 0.00768
C 25.77645 17.74858 -0.0276
C 24.64378 16.9989 0.03005
C 24.42185 15.68889 -0.04078
C 25.74955 14.96535 0.02117
C 25.84798 13.53212 0.02737
C 24.62098 12.71807 -0.00498
C 24.60628 11.35389 0.00135
C 25.82073 10.70249 0.03102
C 25.86033 9.29435 0.02555
C 24.58024 8.56161 0.01423
C 24.53952 7.15173 -0.00285
C 25.76837 6.4163 -0.009
C 25.76511 5.04947 -0.01199
C 24.64859 4.25106 -0.00229
C 24.5743 2.83214 -0.00938
C 24.57401 21.21852 0.00733
C 25.72884 22.03155 -0.02118
C 25.73597 23.45372 -0.01971
C 24.63736 24.21513 -0.01586
C 23.36346 9.19518 -0.01662
C 22.14477 8.49144 -0.01185
C 22.07183 7.11402 0.01126
C 23.36454 6.40502 0.01852
C 23.35845 4.96772 -0.00381
C 22.05442 4.24086 0.03046
C 22.1 2.81343 0.0296
C 23.39149 2.17375 0.03374
C 25.80413 2.0767 -0.0264
C 23.3201 0.75598 -0.02845
C 24.61166 32.59969 0.02239
C 25.7783 31.90383 0.01153
C 25.88955 30.52195 0.02734
C 24.59419 29.79749 -0.0055
C 24.58392 28.32569 0.01515
C 25.84546 27.66609 -0.00225
C 25.84111 26.22891 0.00071
C 24.53596 25.56164 -0.01107
C 22.15064 34.06188 -0.03213
C 25.772 0.66463 -0.01154
C 24.54977 0.01643 0.00684
C 27.02831 32.6443 -0.01052
C 27.02741 8.45899 0.02611
C 27.03367 7.06309 0.02198
C 28.32635 6.3871 0.01094
C 28.26428 4.95431 0.00235
C 26.983 4.24679 0.01495
C 26.98676 2.77077 0.01259
C 28.26847 2.12858 0.01799
C 28.30524 0.68538 0.01699
C 28.25723 9.18694 -0.00621
C 27.06425 34.0191 -0.00416
C 30.69242 31.92049 0.04266
C 30.74232 30.46879 0.01324
C 29.53067 29.76069 0.0014
C 29.53424 28.36843 0.00924
C 30.72142 27.68169 0.02326
C 30.8191 26.21655 0.00261
C 29.59428 25.49079 0.03265
C 29.49096 24.11946 -0.02049
C 29.53932 32.65147 0.01177
C 3.7068 31.97781 0.01227
C 28.29064 10.61856 0.00194
C 27.14857 12.82992 0.02316
C 28.21242 31.95041 -0.01679
C 28.34986 30.5026 0.00367
C 27.08531 29.80931 0.04306
C 27.12135 28.42442 0.00996
C 28.29155 27.70316 0.00195
C 28.33282 26.26801 -0.00802
C 27.07553 25.52764 -0.00218
C 27.02299 24.14265 -0.01654
C 27.07873 11.39693 0.04185
C 28.23369 23.46852 -0.00037
C 27.02369 21.32566 0.00622
C 27.00885 19.94346 -0.02815
C 28.23947 19.18859 -0.00942
C 28.30874 17.76584 0.00487
C 27.07268 17.09719 0.00826
C 27.00117 15.67431 -0.00294
C 28.24654 14.95837 0.00152
C 28.31807 13.52024 0.01257
C 28.27652 22.01016 -0.0032
C 2.4896 32.65884 -0.03337
