363
Graphene
C 34.37931 0.01707 0.01295
C 13.49594 30.38984 -0.03682
C 12.24143 29.93911 0.01965
C 12.75889 28.75765 0.02058
C 13.21809 27.60328 -0.01957
C 13.36542 26.42877 -0.0108
C 12.80604 25.289 -0.00368
C 12.20188 24.17859 -0.02696
C 13.35318 23.42816 -0.00114
C 13.63001 31.84821 0.00052
C 12.14114 21.42001 0.00228
C 13.56326 13.5508 0.00422
C 12.45075 12.81477 0.0351
C 12.34555 11.40898 -0.03113
C 13.55432 10.70549 0.02098
C 13.51176 9.18436 0.01848
C 12.19183 8.57521 -0.00619
C 12.26795 7.14295 -0.02162
C 13.54026 6.38971 0.00889
C 12.63395 15.15272 0.00798
C 12.37238 32.54951 0.00374
C 9.83053 0.00386 -0.02813
C 11.05585 0.68672 -0.01952
C 10.92282 23.60352 -0.01789
C 11.04165 22.1017 0.00444
C 9.80911 21.30871 -0.00925
C 9.92577 19.95085 0.01877
C 11.05064 19.18898 0.01363
C 11.02493 17.85728 -0.02162
C 9.95614 17.04827 0.00415
C 9.90153 15.67203 -0.0014
C 11.20907 15.01031 0.02162
C 11.39613 13.58936 0.0076
C 11.13609 10.77272 0.01241
C 10.83928 9.27611 -0.01454
C 9.77851 8.41437 0.01945
C 9.79145 6.95306 0.01416
C 11.03087 6.28512 0.03542
C 11.0117 4.90647 0.02299
C 9.82131 4.21506 0.00244
C 9.87927 2.7987 -0.01717
C 11.03629 2.08642 0.05265
C 13.51909 4.91669 -0.00481
C 12.21021 4.18473 0.00979
C 12.25261 2.79802 0.01443
C 13.56113 2.09435 0.03505
C 17.19415 8.5904 0.03754
C 17.2417 7.07103 0.01739
C 18.42219 6.34674 0.00755
C 18.42388 4.98439 -0.0054
C 17.13809 4.27388 0.00667
C 17.17001 2.78489 0.00143
C 18.35987 2.07721 -0.017
C 18.38877 0.66072 0.00364
C 17.14013 34.06827 -0.00831
C 19.74807 32.63644 -0.02957
C 20.93103 13.49731 -0.04422
C 19.90625 12.68829 0.00654
C 19.64795 11.38268 -0.00703
C 20.87079 10.59588 -0.04076
C 20.84421 9.16744 -0.00652
C 19.64847 8.47046 0.0058
C 19.67442 7.03715 -0.00865
C 20.89801 6.2872 0.00675
C 20.93442 4.85734 -0.00311
C 18.41962 9.28797 -0.03557
C 9.65778 24.20509 0.02894
C 18.46183 10.8193 -0.00111
C 16.85563 12.86733 0.01452
C 13.50904 0.61985 -0.02815
C 12.29641 34.01312 -0.04147
C 14.79039 32.51995 -0.05302
C 16.05809 32.10467 0.00213
C 14.58513 23.95704 -0.00066
C 14.92656 12.88208 -0.00289
C 14.7597 11.43674 0.00028
C 15.92398 10.66492 -0.02213
C 15.89175 9.28667 0.03698
C 14.69755 8.48541 -0.00109
C 14.70701 7.08322 -0.00491
C 15.9059 6.41013 0.03338
C 15.96998 5.02116 -0.0258
C 14.78763 4.26008 -0.0331
C 14.79321 2.90805 -0.00316
C 15.96213 2.13132 0.02188
C 15.92022 0.68441 -0.01979
C 14.69464 33.9658 0.02691
C 17.28094 32.71835 -0.01581
C 17.13463 11.48684 0.04892
C 19.66391 4.26617 0.00742
C 9.69342 29.84585 -0.02971
C 10.96604 31.92686 0.02819
C 3.68956 6.50445 -0.01378
C 3.67503 4.99898 0.02635
C 2.40903 4.30468 0.0127
C 2.47598 2.83323 0.01396
C 3.645 2.17957 0.01849
C 3.63968 0.73339 -0.01142
C 2.40207 34.05014 -0.00562
C 4.82254 32.72363 -0.00494
C 2.43011 7.18419 -0.01303
C 6.08936 32.07641 0.00054
C 4.85327 29.8582 -0.00095
C 4.8886 28.47262 0.01572
C 6.07706 27.7517 -0.04848
C 6.2575 26.34354 -0.00892
C 5.0011 25.59238 -0.01362
C 4.91774 24.15422 -0.0008
C 6.13248 23.40967 0.0288
C 6.13267 22.02827 0.00393
C 6.04236 30.62166 0.03007
C 2.44748 8.52559 0.00848
C 3.70682 9.30594 -0.00049
C 3.67594 10.71975 0.00873
C 3.60636 30.56544 -0.00643
C 2.38725 29.85134 0.017
C 2.47185 28.35965 -0.03113
C 3.74491 27.65133 -0.02566
C 3.7283 26.26189 -0.00094
C 2.41843 25.65342 0.02322
C 2.45502 24.21834 -0.00725
C 3.66525 23.43275 -0.05697
C 3.70363 22.0881 0.01087
C 2.49444 21.36794 -0.01343
C 2.54478 19.89063 0.00988
C 3.71007 19.14768 0.0276
C 3.725 17.74934 0.01305
C 2.43317 17.02464 -0.00077
C 2.4242 15.63358 0.03368
C 3.70162 14.93742 -0.02929
C 3.72653 13.57327 -0.00966
C 2.47206 12.83185 -0.03337
C 2.45489 11.42419 0.01227
C 4.92043 21.36078 0.00895
C 4.93604 19.89815 0.00685
C 6.20831 19.18146 0.02888
C 6.21378 17.8239 -0.00482
C 8.4839 23.43287 -0.00033
C 8.58091 22.04943 0.03589
C 7.36846 21.29626 -0.02759
C 7.46155 19.91743 0.0402
C 8.73542 19.21638 0.00572
C 8.69977 17.77941 0.03592
C 7.41459 17.07659 0.00406
C 7.45736 15.70314 0.00943
C 8.59336 14.97308 0.02841
C 7.54843 8.68754 -0.01111
C 7.37408 7.15605 -0.01275
C 8.55983 6.33699 0.00985
C 8.55627 4.86668 -0.02245
C 7.2977 4.22231 -0.00428
C 7.37029 2.85544 0.03101
C 8.61226 2.15253 -0.01536
C 8.58176 0.71819 -0.02689
C 7.35794 0.03669 -0.01046
C 9.74595 32.70053 -0.00891
C 7.34557 24.21082 -0.01062
C 10.92707 30.45191 0.00165
C 7.44249 25.64561 0.01364
C 7.21642 29.94798 0.01641
C 4.96505 17.12662 -0.01384
C 4.87796 15.72489 0.03693
C 6.1637 15.05959 0.01745
C 6.1457 13.64033 0.00488
C 4.98391 12.72921 -0.01004
C 4.92906 11.27541 -0.02896
C 6.34514 9.34753 -0.00131
C 4.9863 8.6741 -0.01118
C 4.91672 7.23146 -0.014
C 6.13762 6.50107 0.02147
C 6.09767 5.04988 0.00373
C 4.94163 4.30984 -0.00191
C 4.91786 2.80124 0.00438
C 6.0747 2.1517 0.01291
C 6.07648 0.73547 0.00093
C 4.82545 0.06146 0.00057
C 7.3572 32.67617 -0.01634
C 8.52374 31.94039 -0.00334
C 8.49857 30.54802 0.02339
C 7.25525 28.54114 -0.00719
C 3.63849 32.02814 0.0086
C 19.62732 2.79099 -0.01594
C 20.93831 0.61431 -0.01154
C 29.49095 34.07215 0.00346
C 31.95091 32.71102 0.01713
C 33.1976 31.97521 -0.01694
C 33.15973 30.51086 0.01428
C 31.91224 29.88349 -0.02142
C 31.87897 28.45347 0.0544
C 33.14158 27.66967 0.00026
C 33.1297 26.26055 0.00682
C 30.72033 0.72897 0.00307
C 31.88934 25.59889 -0.01779
C 33.15083 23.43348 0.01927
C 33.24437 22.01654 0.01574
C 32.00645 21.23339 -0.02383
C 32.0067 19.84458 -0.01429
C 33.28105 19.1882 -0.0136
C 33.28284 17.75234 0.00594
C 31.97572 17.11106 -0.02474
C 31.93495 15.63468 0.00369
C 31.88576 24.14367 0.03794
C 30.6728 2.13223 0.00716
C 29.49766 2.88853 0.02108
C 29.46407 4.22919 0.0103
C 29.46431 24.14134 -0.02049
C 30.69114 23.40461 -0.01854
C 30.6591 21.96874 -0.01415
C 29.45955 21.33171 -0.03039
C 29.50676 19.90558 0.01836
C 30.71124 19.20519 0.03531
C 30.74569 17.78609 -0.00669
C 29.50287 17.06876 0.0101
C 29.51707 15.59317 0.01705
C 30.72808 14.88738 -0.0405
C 30.77313 13.53967 -0.01303
C 29.53107 12.79541 -0.01461
C 29.53445 11.31393 -0.02155
C 30.75539 10.5563 -0.00944
C 30.72641 9.23444 -0.03735
C 29.52737 8.518 -0.00971
C 29.52705 7.13682 0.01518
C 30.74382 6.38723 0.01908
C 30.72696 4.91088 0.07705
C 33.18068 14.93741 0.00455
C 33.16783 13.48161 -0.00644
C 31.94142 12.748 -0.01839
C 31.95867 11.32157 0.00137
C 0.01079 19.95804 0.01951
C 1.30976 19.16569 -0.01678
C 1.22061 17.74662 0.01223
C 0.07713 17.05597 0.00648
C 34.40409 15.59711 0.02114
C 1.15353 14.83473 -0.02957
C 1.17595 13.45431 0.00343
C 34.31761 12.756 -0.02656
C 34.41531 11.37623 -0.02442
C 1.26138 10.74129 -0.00027
C 1.29405 9.25124 -0.00583
C 0.05407 8.5753 -0.02302
C 34.35302 7.10672 -0.02849
C 1.15818 6.4312 0.02931
C 1.21506 5.04142 0.00628
C 0.00482 4.33035 -0.0345
C 0.02675 2.89866 -0.00931
C 1.25521 2.15768 -0.00939
C 1.22982 0.73753 -0.00468
C 0.0423 21.35826 -0.02213
C 29.44861 25.59511 0.03265
C 1.22977 22.02343 0.02712
C 34.34844 24.22254 0.03076
C 33.22601 10.62008 0.00199
C 33.19488 9.21024 0.04381
C 31.91367 8.43255 0.02806
C 31.96594 7.0603 0.01504
C 33.21818 6.35628 -0.00069
C 33.14939 4.97759 0.04926
C 31.91663 4.20353 -0.03838
C 31.93679 2.87728 0.00349
C 33.23324 2.19319 -0.00323
C 33.18956 0.78726 -0.00841
C 31.97576 0.11989 0.0001
C 34.40934 32.68246 -0.02927
C 1.21388 31.94744 -0.01404
C 1.21971 30.47421 0.01027
C 34.3447 29.74661 0.01831
C 34.37761 28.4168 -0.01037
C 1.21609 27.67415 -0.00439
C 1.20991 26.29054 -0.00598
C 34.34189 25.59127 -0.05239
C 1.18864 23.48793 0.00723
C 20.90629 2.05391 0.0106
C 30.68137 26.33542 0.00261
C 29.36928 28.41163 0.00924
C 25.71349 30.58319 0.01515
C 24.49069 29.82535 -0.00225
C 25.71173 27.57531 0.00071
C 25.74578 26.17506 -0.01107
C 24.49112 24.23282 -0.01586
C 25.68999 23.41875 -0.01971
C 25.69909 22.07828 -0.02118
C 24.45647 21.35812 0.00733
C 25.82872 32.01013 -0.0055
C 24.39507 19.85779 -0.00178
C 25.65816 17.68015 -0.0276
C 24.43643 17.00238 0.03005
C 24.53468 15.53594 -0.04078
C 25.78223 14.83817 0.02117
C 25.79496 13.43802 0.02737
C 24.59004 12.65662 -0.00498
C 24.55117 11.28457 0.00135
C 25.81545 10.62432 0.03102
C 25.66133 19.10607 0.00768
C 24.58349 32.62524 0.02734
C 22.08939 33.97057 0.01153
C 23.31719 0.60885 0.02239
C 19.64742 33.98596 -0.01721
C 22.17364 32.56766 -0.02422
C 23.37562 31.89947 0.01277
C 23.44643 22.23307 0.00096
C 23.32498 19.13316 -0.01527
C 23.30511 17.71287 0.01087
C 23.34532 14.86349 0.00199
C 23.35556 13.39634 0.01511
C 22.07395 12.80441 -0.00478
C 22.0707 11.33316 -0.01662
C 23.38918 10.58692 -0.01185
C 23.36701 9.16061 0.01126
C 22.046 8.38032 0.01852
C 22.19412 6.92269 -0.00381
C 23.47553 6.27957 0.03046
C 23.49757 4.88055 0.0296
C 22.2153 4.18055 0.03374
C 22.16021 2.7552 -0.02845
C 23.34815 1.99244 -0.03213
C 25.78022 9.18604 0.02555
C 24.57116 8.42977 0.01423
C 24.69044 7.03788 -0.00285
C 25.93204 6.38037 -0.009
C 28.3258 14.85872 0.00152
C 28.32097 13.45504 0.01257
C 27.02192 12.73194 0.02316
C 27.05477 11.34026 0.04185
C 28.2556 10.61854 0.00194
C 28.28771 9.22042 -0.00621
C 27.05374 8.52544 0.02611
C 27.10061 7.13021 0.02198
C 28.31203 6.42605 0.01094
C 28.31755 5.00437 0.00235
C 27.12049 4.22852 0.01495
C 27.0811 2.90151 0.01259
C 28.27844 2.14918 0.01799
C 28.26466 0.72222 0.01699
C 27.06996 0.03122 -0.00416
C 29.43156 32.68485 0.01177
C 30.76002 32.0122 0.04266
C 30.68406 30.63182 0.01324
C 29.44851 29.87831 0.0014
C 27.04864 15.57219 -0.00294
C 30.66398 27.69274 0.02326
C 27.03545 17.05039 0.00826
C 28.25694 19.21656 -0.00942
C 25.9368 4.8979 -0.01199
C 24.67058 4.16684 -0.00229
C 24.66064 2.75432 -0.00938
C 25.8315 2.12825 -0.0264
C 25.88715 0.74554 -0.01154
C 24.53501 33.99699 0.00684
C 27.00866 32.6988 -0.01052
C 28.17697 31.95856 -0.01679
C 28.12158 30.53484 0.00367
C 26.97959 29.75038 0.04306
C 26.88457 28.33175 0.00996
C 28.15116 27.71072 0.00195
C 28.17755 26.26787 -0.00802
C 26.92425 25.55295 -0.00218
C 27.04272 24.14648 -0.01654
C 28.27508 23.45173 -0.00037
C 28.24376 22.04696 -0.0032
C 26.98237 21.38194 0.00622
C 27.01259 19.87487 -0.02815
C 28.27851 17.81439 0.00487
C 2.38711 32.66676 -0.00518
