340
Graphene
C 34.36558 0.03454 0.01295
C 12.26841 32.69481 -0.00619
C 13.55158 31.93478 -0.02162
C 13.40502 14.95679 0.00889
C 13.43025 13.58225 -0.00481
C 12.19931 12.78432 0.00979
C 12.22019 11.35876 0.01443
C 13.51672 10.73535 0.03505
C 13.55687 9.29892 -0.02815
C 12.2923 8.60552 -0.04147
C 12.25643 7.16333 -0.05302
C 13.38367 6.39588 0.00213
C 13.48069 4.95956 -0.00066
C 12.23339 4.23217 -0.00289
C 12.29681 2.83429 0.00028
C 13.62398 2.13916 -0.02213
C 13.5775 0.74081 0.03698
C 12.3006 0.14742 -0.00109
C 9.8694 0.01885 0.01848
C 14.70659 32.52223 -0.00491
C 11.04021 0.76408 0.02098
C 9.80922 2.81294 0.0351
C 7.35589 0.09234 -0.01717
C 9.82127 32.70855 0.05265
C 11.07266 32.01668 -0.01952
C 10.92541 30.59604 -0.02813
C 9.76893 29.86498 0.00374
C 9.98176 15.7444 0.00052
C 11.15119 15.16563 -0.03682
C 11.08346 13.64654 0.01965
C 9.8936 12.87468 0.02058
C 9.81573 11.41264 -0.01957
C 10.99595 10.63292 -0.0108
C 11.02732 9.24758 -0.00368
C 9.81924 8.50352 -0.02696
C 9.83071 7.0643 -0.00114
C 11.03368 6.37895 0.00228
C 11.0439 4.96576 0.00798
C 9.79538 4.27632 0.00422
C 11.06733 2.21158 -0.03113
C 15.99775 31.92908 0.03338
C 15.8577 14.95645 -0.0258
C 15.8566 13.63518 -0.0331
C 17.1627 8.61386 -0.04076
C 17.14856 7.16035 -0.00652
C 18.41456 6.46268 0.0058
C 18.43404 5.07205 -0.00865
C 17.23418 4.25021 0.00675
C 17.21673 2.81612 -0.00311
C 18.50576 2.19587 0.00742
C 18.40466 0.78612 -0.01594
C 17.16417 0.03016 0.0106
C 19.72198 32.64043 -0.01154
C 21.00583 31.89353 -0.01721
C 20.84131 30.4591 -0.02422
C 19.6223 29.82361 0.01277
C 19.69222 15.49785 0.00096
C 20.95357 14.94521 -0.01527
C 20.83358 13.56507 0.01087
C 19.6703 12.78524 0.00199
C 18.37686 9.39184 -0.00703
C 18.42866 10.72358 0.00654
C 17.1406 11.42175 -0.04422
C 17.11271 12.87738 -0.02957
C 14.64488 12.85444 -0.00316
C 14.70224 11.43937 0.02188
C 15.91664 10.73157 -0.01979
C 15.91672 9.26138 0.02691
C 14.73371 8.50523 -0.01581
C 14.70429 7.08407 0.01452
C 16.01816 6.36806 0.04892
C 15.91894 4.97045 -0.00111
C 8.63609 0.66417 0.00244
C 14.759 4.21217 -0.03557
C 15.93915 2.05428 0.01739
C 15.92052 0.6665 0.00755
C 14.70309 34.00583 -0.0054
C 17.13839 32.62713 0.00667
C 18.45923 31.92259 0.00143
C 18.46496 30.59296 -0.017
C 18.52042 14.91764 0.00364
C 18.41648 13.48107 -0.00831
C 14.77014 2.8417 0.03754
C 19.71346 11.35851 0.01511
C 8.59515 2.05312 0.02299
C 7.39237 4.3185 0.01416
C 2.39015 8.51919 -0.00482
C 2.35384 7.14028 -0.01384
C 3.63764 6.4376 0.03693
C 3.7275 5.01807 0.01745
C 2.5186 4.30202 0.00488
C 2.45598 2.88783 -0.01004
C 3.63047 2.12289 -0.02896
C 3.58497 0.73611 -0.00131
C 2.37239 0.05912 -0.01118
C 4.85175 32.74341 -0.014
C 6.09799 32.01393 0.02147
C 6.02003 30.50946 0.00373
C 4.85803 29.78101 -0.00191
C 4.8548 28.41247 0.00438
C 6.11702 27.66165 0.01291
C 6.10224 26.19209 0.00093
C 4.8754 25.55103 0.00057
C 3.63332 9.19713 0.02888
C 4.91127 24.1007 -0.01634
C 3.69995 10.58972 0.00685
C 2.41232 12.78592 0.00393
C 3.61032 30.50798 -0.01378
C 2.38629 29.87354 0.02635
C 2.4177 28.39913 0.0127
C 3.73099 27.67371 0.01396
C 3.6062 26.25986 0.01849
C 2.40048 25.52182 -0.01142
C 2.44009 24.17259 -0.00562
C 3.67654 23.40157 -0.00494
C 3.68119 21.93444 0.00054
C 2.35699 21.31626 0.03007
C 2.39618 19.91085 -0.00095
C 3.68375 19.0932 0.01572
C 3.78461 17.66531 -0.04848
C 2.51567 17.0226 -0.00892
C 2.47001 15.51694 -0.01362
C 3.75217 14.8349 -0.0008
C 3.65653 13.42806 0.0288
C 2.44321 11.36681 0.00895
C 6.02764 23.29566 -0.00334
C 6.10332 21.95267 0.02339
C 4.94231 21.21669 0.01641
C 8.59274 30.6371 0.02819
C 7.24895 29.79644 0.00165
C 7.24344 28.42396 -0.02971
C 7.50247 19.76832 0.02894
C 8.6308 17.77787 -0.01789
C 7.5044 17.08378 0.00444
C 7.46324 15.57973 -0.00925
C 8.74848 14.98853 0.01877
C 8.69341 13.58354 0.01363
C 7.45836 12.85041 -0.02162
C 7.40688 11.47585 0.00415
C 8.56807 10.74772 -0.0014
C 8.56569 9.32791 0.02162
C 7.36942 8.56503 0.0076
C 7.34974 7.06816 0.01241
C 8.5674 6.38365 -0.01454
C 8.58327 4.99613 0.01945
C 8.5343 32.04343 -0.00891
C 7.30523 32.73256 -0.01046
C 4.81958 0.05655 -0.02689
C 6.12219 0.82005 -0.01536
C 4.93477 19.89925 -0.00719
C 6.24071 19.19759 0.01364
C 6.23075 17.70088 -0.01062
C 4.96676 17.00321 -0.00033
C 5.02045 15.60158 0.03589
C 6.24317 14.89324 -0.02759
C 6.1514 13.50127 0.0402
C 4.9518 12.74168 0.00572
C 7.43108 2.84971 0.03542
C 4.94661 11.36695 0.03592
C 6.16418 9.29873 0.00943
C 4.9172 8.51579 0.02841
C 4.92379 7.09154 -0.01111
C 6.13815 6.3528 -0.01275
C 6.16193 4.98641 0.00985
C 4.98637 4.34025 -0.02245
C 4.87092 2.87065 -0.00428
C 6.14481 2.20934 0.03101
C 6.1508 10.70278 0.00406
C 20.90364 10.62898 -0.00478
C 20.87926 9.25477 -0.01662
C 19.61694 8.56011 -0.01185
C 33.10199 30.56486 -0.02142
C 32.0328 29.64034 0.0544
C 33.10881 27.98962 0.00026
C 33.01984 26.51943 0.00682
C 31.94118 25.61814 -0.01779
C 31.74001 24.19601 0.03794
C 33.09189 23.52442 0.01927
C 33.13151 22.17552 0.01574
C 31.95907 21.2887 -0.02383
C 31.94826 19.89 -0.01429
C 33.15204 19.19756 -0.0136
C 33.23262 17.76315 0.00594
C 31.93248 17.04737 -0.02474
C 31.92472 15.61903 0.00369
C 33.16165 14.89563 0.00455
C 33.14435 13.46197 -0.00644
C 32.01474 12.78286 -0.01839
C 33.14826 31.93408 0.01428
C 31.93373 11.41626 0.00137
C 32.00705 32.55023 -0.01694
C 30.68797 0.61725 0.00346
C 30.719 19.15426 -0.00669
C 30.65425 17.68655 0.0101
C 29.46618 17.13361 0.01705
C 29.3803 15.67263 -0.0405
C 30.70879 14.93121 -0.01303
C 30.81207 13.44602 -0.01461
C 29.56817 12.72601 -0.02155
C 29.42471 11.34103 -0.00944
C 30.68025 10.60034 -0.03735
C 30.67055 9.26493 -0.00971
C 29.48903 8.52538 0.01518
C 29.49693 7.11168 0.01908
C 30.79662 6.33627 0.07705
C 30.69141 4.92782 0.0103
C 29.48214 4.17603 0.02108
C 29.44202 2.75616 0.00716
C 30.71315 2.05166 0.00307
C 29.4942 33.92576 0.01713
C 33.14373 10.64916 0.00199
C 33.14971 9.20078 0.04381
C 31.85706 8.5563 0.02806
C 1.3281 17.77691 0.01223
C 0.02473 17.15938 0.00648
C 34.42045 15.6496 0.02114
C 1.18912 14.92358 -0.02957
C 1.19919 13.4956 0.00343
C 34.40182 12.82765 -0.02656
C 34.3699 11.34753 -0.02442
C 1.23388 10.64778 -0.00027
C 1.15335 9.30423 -0.00583
C 34.42101 8.53824 -0.02302
C 34.37934 7.04464 -0.02849
C 1.18881 6.44692 0.02931
C 1.22169 5.00204 0.00628
C 34.3618 4.33307 -0.0345
C 34.35646 2.87819 -0.00931
C 1.16499 2.19751 -0.00939
C 1.15374 0.77495 -0.00468
C 1.14651 19.18401 -0.01678
C 34.38153 19.95366 0.01951
C 34.36735 21.42095 -0.02213
C 1.17748 22.16832 0.02712
C 31.98256 7.14033 0.01504
C 33.14623 6.42224 -0.00069
C 33.14468 4.99724 0.04926
C 31.94813 4.20827 -0.03838
C 31.87615 2.72527 0.00349
C 33.1561 2.14733 -0.00323
C 33.12634 0.72229 -0.00841
C 31.92871 33.97294 0.0001
C 29.49544 19.83335 0.03531
C 34.37559 32.68874 -0.02927
C 1.12519 30.64504 0.01027
C 34.37021 29.95509 0.01831
C 34.4153 28.52114 -0.01037
C 1.19059 27.73923 -0.00439
C 1.11936 26.32069 -0.00598
C 34.23311 25.67629 -0.05239
C 34.31871 24.22959 0.03076
C 1.16367 23.51972 0.00723
C 1.17009 32.04995 -0.01404
C 29.47175 21.29296 0.01836
C 30.76633 21.99164 -0.03039
C 30.51028 23.29313 -0.01415
C 22.06168 11.41407 -0.0276
C 23.31098 10.64552 0.03005
C 23.30757 9.26126 -0.04078
C 22.06911 8.50976 0.02117
C 22.04676 7.09941 0.02737
C 23.34232 6.40857 -0.00498
C 23.34158 4.96044 0.00135
C 22.11139 4.2585 0.03102
C 22.1338 2.81647 0.02555
C 23.35042 2.06606 0.01423
C 23.28927 0.67836 -0.00285
C 22.09343 34.00489 -0.009
C 24.92713 32.69338 -0.01199
C 25.63434 21.87921 -0.00229
C 24.43725 21.32731 -0.00938
C 24.57412 19.8337 -0.0264
C 25.83888 19.24666 -0.01154
C 22.04329 12.79551 0.00768
C 23.3221 13.42683 -0.00178
C 23.38713 14.8472 0.00733
C 22.16366 15.62914 -0.02118
C 19.60204 7.15652 0.01126
C 20.85497 6.44387 0.01852
C 20.92252 4.99659 -0.00381
C 19.68605 4.36884 0.03046
C 19.73611 2.86253 0.0296
C 20.91566 2.09679 0.03374
C 20.8377 0.68207 -0.02845
C 19.63133 34.07139 -0.03213
C 25.79954 17.83394 0.00684
C 22.23022 32.55396 0.02239
C 23.55976 30.43938 0.02734
C 22.2262 29.83405 -0.0055
C 22.25501 28.44518 0.01515
C 23.09302 23.54803 -0.00225
C 23.53951 22.27369 0.00071
C 23.34343 19.18043 -0.01107
C 23.29923 17.81216 -0.01586
C 22.15214 17.01845 -0.01971
C 23.62135 31.79831 0.01153
C 3.59557 32.04338 -0.01303
C 24.51568 17.0958 -0.01052
C 25.77078 14.92468 0.00367
C 28.19777 14.92395 0.01094
C 28.31418 13.46002 0.00235
C 27.04193 12.79398 0.01495
C 26.96768 11.41684 0.01259
C 28.19158 10.6506 0.01799
C 28.18568 9.22847 0.01699
C 26.95576 8.43974 -0.00416
C 27.05897 7.01835 0.01177
C 28.2792 6.4784 0.04266
C 28.22598 4.96223 0.01324
C 27.00118 4.24633 0.0014
C 27.00813 2.81159 0.00924
C 28.23365 2.0498 0.02326
C 28.23985 0.59401 0.00261
C 26.87273 33.91911 0.03265
C 29.56423 32.51223 -0.02049
C 30.77536 31.94091 -0.01854
C 27.00091 15.61744 0.02198
C 26.93814 17.05762 0.02611
C 28.14515 17.76041 -0.00621
C 28.27353 19.19711 0.00194
C 25.78907 13.52199 0.04306
C 24.5952 12.74476 0.00996
C 24.59961 11.35597 0.00195
C 25.783 10.60781 -0.00802
C 25.7772 9.20365 -0.00218
C 24.5461 8.48781 -0.01654
C 24.60658 7.08901 -0.00037
C 25.75376 6.30489 -0.0032
C 24.5486 15.59656 -0.01679
C 25.77054 4.95027 0.00622
C 24.54319 2.85722 -0.00942
C 25.79734 2.1009 0.00487
C 25.71102 0.74329 0.00826
C 24.58659 34.02248 -0.00294
C 26.29857 32.59366 0.00152
C 28.41348 22.12369 0.01257
C 27.09708 21.45608 0.02316
C 27.08485 20.04357 0.04185
C 24.56362 4.26198 -0.02815
C 2.36907 32.6875 0.00848
