438
Graphene
C 0.01631 34.07905 0.01295
C 12.257 17.09417 -0.00334
C 12.26236 15.64191 0.02339
C 13.48492 14.94165 0.01641
C 13.58713 13.53162 -0.00719
C 12.36882 12.85934 0.01364
C 12.28036 11.31441 -0.01062
C 13.50641 10.63765 -0.00033
C 13.49196 4.82251 0.03589
C 12.23426 4.26378 -0.02759
C 12.33902 2.7432 0.0402
C 13.5741 2.10492 0.00572
C 13.58381 0.69714 0.03592
C 12.37303 34.06192 0.00406
C 14.72016 32.68568 0.00943
C 16.00882 31.95671 0.02841
C 15.94977 30.5566 -0.01111
C 14.7056 29.71773 -0.01275
C 14.78506 28.33659 0.00985
C 15.97898 27.6305 -0.02245
C 15.94953 26.21861 -0.00428
C 14.67282 25.52317 0.03101
C 14.69012 24.14653 -0.01536
C 15.98076 23.47738 -0.02689
C 13.49757 17.8291 -0.01634
C 15.98309 22.01204 -0.01046
C 13.49736 19.2698 0.00057
C 12.31965 21.3265 0.01291
C 9.82921 15.63526 -0.04848
C 11.02889 14.97226 -0.00892
C 11.13351 13.56162 -0.01362
C 9.83984 12.87787 -0.0008
C 9.8535 11.48861 0.0288
C 11.02278 10.78479 0.00393
C 11.01175 5.01657 0.00895
C 9.86579 4.24694 0.00685
C 9.88502 2.81275 0.02888
C 11.11858 2.06427 -0.00482
C 11.14816 0.71762 -0.01384
C 9.86017 0.02771 0.03693
C 12.33804 32.65875 0.01745
C 13.5389 31.91414 0.00488
C 13.52134 30.49069 -0.01004
C 12.23404 29.78309 -0.02896
C 12.34107 28.40151 -0.00131
C 13.54014 27.70613 -0.01118
C 13.49407 26.3202 -0.014
C 12.24074 25.66829 0.02147
C 12.29034 24.18846 0.00373
C 13.49342 23.35984 -0.00191
C 13.52952 21.96569 0.00438
C 12.30459 19.95083 0.00093
C 14.77364 21.32109 -0.00891
C 14.76316 19.91695 0.02819
C 15.97088 19.15941 0.00165
C 17.24237 19.85815 -0.01957
C 18.46554 19.15089 -0.0108
C 18.48039 17.74639 -0.00368
C 17.21268 17.05897 -0.02696
C 17.21258 15.59596 -0.00114
C 18.44344 14.84505 0.00228
C 18.38738 13.43362 0.00798
C 17.19135 12.68843 0.00422
C 17.18771 11.28706 0.0351
C 18.43158 10.60923 -0.03113
C 18.36859 9.2008 0.02098
C 17.07428 8.55823 0.01848
C 17.07584 7.12342 -0.00619
C 18.38506 6.42705 -0.02162
C 18.39374 5.02782 0.00889
C 17.22424 4.25584 -0.00481
C 17.24395 2.85543 0.00979
C 18.43337 2.09523 0.01443
C 18.42467 0.74013 0.03505
C 17.22227 0.03676 -0.02815
C 19.68766 32.64842 -0.04147
C 20.95788 31.87586 -0.05302
C 20.94068 30.48943 0.00213
C 17.21293 21.32225 0.02058
C 18.42135 22.00591 0.01965
C 18.37057 23.42202 -0.03682
C 17.21994 24.20857 0.00052
C 15.9377 17.75834 -0.02971
C 14.68204 17.12699 0.02894
C 14.70126 15.67281 -0.01789
C 15.95641 14.94284 0.00444
C 15.97453 13.49376 -0.00925
C 14.7846 12.73572 0.01877
C 14.70065 11.26855 0.01363
C 15.92695 10.55399 -0.02162
C 15.88794 9.13435 0.00415
C 15.98154 6.32005 -0.0014
C 15.93473 4.98061 0.02162
C 9.88895 17.04835 0.01572
C 14.69733 4.26719 0.0076
C 16.02066 2.12509 -0.01454
C 15.97286 0.7008 0.01945
C 14.77515 34.02617 0.01416
C 17.2487 32.71295 0.03542
C 18.43191 31.96524 0.02299
C 18.43774 30.54182 0.00244
C 17.18306 29.83044 -0.01717
C 17.16564 28.41416 0.05265
C 18.44197 27.7303 -0.01952
C 18.42928 26.30218 -0.02813
C 17.15669 25.58752 0.00374
C 14.78635 2.84781 0.01241
C 11.09752 17.78955 -0.00095
C 11.11777 19.23351 0.03007
C 9.82965 19.87358 0.00054
C 3.6756 0.71324 0.00828
C 2.45688 0.02761 -0.02375
C 4.92909 32.70548 0.00558
C 6.19361 31.95903 -0.0059
C 6.08316 30.57815 -0.01386
C 4.93188 29.82849 -0.02805
C 4.9597 28.36112 0.00081
C 6.18854 27.64632 0.00245
C 6.20477 26.19653 0.02728
C 4.98383 25.51464 -0.00039
C 4.85773 24.15072 0.0064
C 6.10853 23.49448 0.00211
C 6.17616 22.08081 -0.00449
C 4.98467 21.30974 -0.01979
C 4.95819 19.8446 0.02784
C 6.17457 19.13424 -0.01977
C 6.20669 17.72981 -0.00561
C 4.88888 16.99366 0.00208
C 4.83373 15.61743 0.01707
C 6.05651 14.93925 0.02769
C 6.0481 13.61811 -0.03291
C 4.892 12.82748 -0.04999
C 4.9208 11.39582 0.04505
C 3.71399 2.19945 0.00088
C 2.5 2.85395 0.04421
C 2.48055 4.3156 -0.00177
C 3.63936 5.04169 0.03278
C 3.67882 30.4782 -0.00018
C 2.40369 29.75878 0.01073
C 2.42158 28.32609 0.01984
C 3.72302 27.68367 0.00535
C 3.74168 26.28339 -0.00198
C 2.45553 25.60166 -0.00012
C 2.39776 24.21539 -0.04306
C 3.62543 23.44356 -0.03672
C 3.76716 21.99335 0.01913
C 2.51599 21.34995 0.00267
C 2.45384 19.85527 0.00787
C 6.12267 10.65877 0.03284
C 3.70389 19.19916 0.02426
C 2.45409 17.02561 -0.01471
C 2.439 15.58341 -0.02827
C 3.5899 14.87079 0.01078
C 3.63979 13.48012 -0.00112
C 2.39809 12.75003 0.03345
C 2.43498 11.3531 0.00748
C 3.73563 10.6979 0.00662
C 3.69946 9.24024 -0.0154
C 2.44885 8.54304 -0.01299
C 2.46808 7.10906 -0.00407
C 3.69129 6.43268 0.01138
C 3.68476 17.72211 0.01218
C 19.70407 29.79441 -0.00066
C 6.08645 9.19328 -0.04307
C 4.91201 7.09799 0.00031
C 8.64959 10.72917 0.01087
C 8.60681 9.38072 -0.01343
C 7.40237 8.65662 0.00988
C 7.37337 7.19041 0.0276
C 8.48977 6.4548 0.01305
C 8.61933 5.03773 -0.00077
C 7.33063 4.29975 0.03368
C 7.36246 2.88163 -0.02929
C 8.64322 2.10788 -0.00966
C 8.6237 0.70671 -0.03337
C 7.36141 0.02124 0.01227
C 9.84126 32.64068 0.00873
C 11.06113 31.98473 -0.00049
C 11.01292 30.55755 0.00848
C 9.73176 29.8223 -0.01303
C 9.85779 28.37708 -0.01378
C 11.10878 27.78155 0.02635
C 10.99865 26.36535 0.0127
C 9.85699 25.62819 0.01396
C 9.89615 24.17277 0.01849
C 11.06431 23.44426 -0.01142
C 11.05244 22.00798 -0.00562
C 9.80284 21.33457 -0.00494
C 7.33411 11.31014 -0.05697
C 7.23722 12.82525 -0.00725
C 8.55036 13.52848 0.02322
C 8.56853 14.87862 -0.00094
C 6.15711 6.41226 -0.003
C 6.11111 4.96688 0.01402
C 4.89095 4.29002 0.02379
C 4.92458 2.83132 0.00907
C 6.16339 2.16051 0.00643
C 6.11865 0.72254 -0.01509
C 4.85174 0.04576 0.03267
C 7.3871 32.68459 0.02374
C 8.5954 31.99454 0.00402
C 8.54963 30.58626 0.0073
C 7.32777 29.87515 0.0174
C 4.88438 8.51551 0.03189
C 7.36787 28.44072 0.03828
C 8.63753 26.2426 -0.00279
C 7.45229 25.50122 0.01996
C 7.40123 24.12941 -0.03996
C 8.69689 23.47187 0.01465
C 8.6161 22.05912 -0.00074
C 7.37433 21.32549 -0.00518
C 7.35672 19.88322 0.0086
C 8.62261 19.20126 -0.00643
C 8.65004 17.75344 0.017
C 7.39109 17.04815 -0.03113
C 7.3464 15.65982 -0.02566
C 8.59037 27.72844 0.01226
C 19.67066 28.37562 -0.00289
C 20.8727 27.67617 0.00028
C 20.86377 26.27674 -0.02213
C 30.63557 14.84878 -0.0405
C 30.73644 13.42623 -0.01303
C 29.50277 12.7689 -0.01461
C 29.46255 11.36603 -0.02155
C 30.70223 10.67909 -0.00944
C 30.71661 9.14623 -0.03735
C 29.50195 8.48449 -0.00971
C 29.49754 7.0596 0.01518
C 30.77506 6.36442 0.01908
C 30.81041 4.92753 0.07705
C 29.60662 4.2236 0.0103
C 29.50344 2.73422 0.02108
C 30.80297 2.08973 0.00716
C 30.76112 0.70062 0.00307
C 29.50199 0.0635 0.00346
C 31.9949 32.65391 0.01713
C 33.20804 31.96293 -0.01694
C 33.20499 30.58421 0.01428
C 31.94706 29.89328 -0.02142
C 31.90654 28.44725 0.0544
C 33.11789 27.71291 0.00026
C 33.19287 26.30644 0.00682
C 31.93303 25.57189 -0.01779
C 29.48192 15.66705 0.01705
C 29.55181 17.05238 0.0101
C 30.78109 17.74405 -0.00669
C 30.70317 19.15623 0.03531
C 28.2396 10.69777 0.00194
C 28.29682 9.26831 -0.00621
C 27.05028 8.51158 0.02611
C 26.97787 7.03244 0.02198
C 28.21928 6.34414 0.01094
C 28.34907 4.91281 0.00235
C 27.11679 4.23024 0.01495
C 27.05653 2.83841 0.01259
C 28.21922 2.07513 0.01799
C 28.21823 0.69281 0.01699
C 26.98011 0.00121 -0.00416
C 31.98394 24.1255 0.03794
C 29.53364 32.71318 0.01177
C 30.74142 30.5861 0.01324
C 29.54621 29.82166 0.0014
C 29.51116 28.42462 0.00924
C 30.68871 27.69338 0.02326
C 30.71518 26.23727 0.00261
C 29.46662 25.52005 0.03265
C 29.51288 24.13169 -0.02049
C 30.77119 23.41021 -0.01854
C 30.77508 21.99717 -0.01415
C 29.48075 21.32252 -0.03039
C 29.4774 19.93706 0.01836
C 30.69484 32.02019 0.04266
C 27.02474 11.39033 0.04185
C 33.19929 23.47547 0.01927
C 31.92177 21.27838 -0.02383
C 0.02711 24.15346 0.03076
C 1.22348 23.42504 0.00723
C 1.27482 22.00693 0.02712
C 34.4243 21.36288 -0.02213
C 34.41694 19.90699 0.01951
C 1.19877 19.1627 -0.01678
C 1.18798 17.7257 0.01223
C 34.40541 17.01957 0.00648
C 34.37436 15.56607 0.02114
C 1.15366 14.83541 -0.02957
C 1.17578 13.40826 0.00343
C 34.38209 12.74805 -0.02656
C 0.02771 11.29569 -0.02442
C 1.23451 10.58559 -0.00027
C 1.21233 9.19312 -0.00583
C 0.03372 8.4472 -0.02302
C 0.02375 7.03785 -0.02849
C 1.25152 6.37499 0.02931
C 1.23614 4.94121 0.00628
C 34.41568 4.22059 -0.0345
C 34.39745 2.75653 -0.00931
C 1.21979 2.13176 -0.00939
C 1.20817 0.7481 -0.00468
C 0.00241 25.5591 -0.05239
C 1.18764 26.30905 -0.00598
C 1.13865 27.74335 -0.00439
C 34.39039 28.44919 -0.01037
C 31.90761 19.83194 -0.01429
C 33.20093 19.17311 -0.0136
C 33.22449 17.75735 0.00594
C 32.01765 17.00588 -0.02474
C 31.86874 15.62177 0.00369
C 33.09353 14.87653 0.00455
C 33.13442 13.43849 -0.00644
C 32.02227 12.66069 -0.01839
C 32.00624 11.28123 0.00137
C 33.27804 10.57202 0.00199
C 33.27241 9.12639 0.04381
C 33.17241 22.07435 0.01574
C 31.97642 8.5177 0.02806
C 33.23776 6.35125 -0.00069
C 33.22511 4.92022 0.04926
C 32.02972 4.21796 -0.03838
C 32.01424 2.75627 0.00349
C 33.23865 2.03627 -0.00323
C 33.22214 0.67306 -0.00841
C 31.99463 34.01506 0.0001
C 0.0465 32.68172 -0.02927
C 1.27675 31.95935 -0.01404
C 1.21327 30.54087 0.01027
C 34.40239 29.86252 0.01831
C 32.02137 7.05643 0.01504
C 3.67647 31.93636 -0.0005
C 27.03319 12.81074 0.02316
C 28.27577 14.94786 0.00152
C 22.1161 29.77882 -0.04076
C 22.13472 28.33008 -0.00652
C 23.38657 27.70888 0.0058
C 23.35814 26.30322 -0.00865
C 22.10505 25.56509 0.00675
C 22.10728 24.13383 -0.00311
C 23.35141 23.45961 0.00742
C 23.3321 22.09844 -0.01594
C 22.09417 21.38563 0.0106
C 22.09092 19.90236 -0.01154
C 23.29752 19.2377 -0.01721
C 23.34963 17.78416 -0.02422
C 22.19168 17.01601 0.01277
C 22.15084 15.62628 0.00096
C 23.35822 14.85096 -0.01527
C 23.35699 13.4803 0.01087
C 22.1587 12.81272 0.00199
C 22.19011 11.40611 0.01511
C 23.43582 10.63861 -0.00478
C 23.37039 9.22904 -0.01662
C 22.12739 8.53805 -0.01185
C 22.05228 7.17382 0.01126
C 23.2952 6.47615 0.01852
C 23.37771 30.53443 -0.00703
C 23.37831 31.90866 0.00654
C 22.13773 32.6134 -0.04422
C 19.64922 0.0168 -0.02957
C 19.66424 25.56563 0.03698
C 19.66425 24.21034 -0.00109
C 20.85934 23.47003 -0.00491
C 20.89481 22.01961 0.03338
C 19.63724 21.30168 -0.0258
C 19.70686 19.92282 -0.0331
C 20.94105 19.12394 -0.00316
C 20.96827 17.69515 0.02188
C 19.67506 16.9945 -0.01979
C 19.68136 15.54263 0.02691
C 20.90139 14.88185 -0.01581
C 23.40743 5.03157 -0.00381
C 20.86679 13.43916 0.01452
C 19.65709 11.28582 -0.00111
C 20.96094 10.6809 -0.03557
C 20.8647 9.21827 0.03754
C 19.61783 8.54114 0.01739
C 19.65448 7.12128 0.00755
C 20.82825 6.38825 -0.0054
C 20.95298 4.9562 0.00667
C 19.64058 4.30729 0.00143
C 19.65733 2.87013 -0.017
C 20.89008 2.10119 0.00364
C 20.86794 0.72236 -0.00831
C 19.60593 12.73956 0.04892
C 28.26552 13.50557 0.01257
C 22.21332 4.29112 0.03046
C 23.36671 2.08986 0.03374
C 25.86967 4.90979 -0.01199
C 24.6693 4.26509 -0.00229
C 24.52665 2.82053 -0.00938
C 25.7708 2.14151 -0.0264
C 25.76769 0.74544 -0.01154
C 24.60102 0.01726 0.00684
C 27.04688 32.70055 -0.01052
C 28.25966 31.99257 -0.01679
C 28.30659 30.51122 0.00367
C 27.01996 29.82537 0.04306
C 27.0654 28.42426 0.00996
C 28.33491 27.71208 0.00195
C 28.27625 26.30504 -0.00802
C 27.06477 25.57455 -0.00218
C 27.11788 24.15971 -0.01654
C 28.28874 23.37078 -0.00037
C 28.25403 21.92298 -0.0032
C 27.00937 21.24434 0.00622
C 26.9613 19.86123 -0.02815
C 28.23563 19.19083 -0.00942
C 28.26312 17.78105 0.00487
C 26.99375 17.07666 0.00826
C 27.07628 15.67071 -0.00294
C 25.72562 6.31373 -0.009
C 24.49336 7.12111 -0.00285
C 24.59478 8.51769 0.01423
C 25.87321 9.23417 0.02555
C 23.36907 0.668 -0.02845
C 22.10473 34.04348 -0.03213
C 24.58175 32.61046 0.02239
C 25.7694 31.99005 0.01153
C 25.83174 30.56394 0.02734
C 24.58672 29.82167 -0.0055
C 24.65297 28.37529 0.01515
C 25.88923 27.68451 -0.00225
C 25.83873 26.25055 0.00071
C 24.57255 25.61174 -0.01107
C 24.5827 24.17023 -0.01586
C 22.13959 2.83577 0.0296
C 25.85389 23.44161 -0.01971
C 24.60104 21.31038 0.00733
C 24.51689 19.90442 -0.00178
C 25.74525 19.15218 0.00768
C 25.6956 17.69823 -0.0276
C 24.48814 17.01535 0.03005
C 24.54569 15.65095 -0.04078
C 25.8212 14.97746 0.02117
C 25.84017 13.57092 0.02737
C 24.59589 12.76484 -0.00498
C 24.62539 11.33824 0.00135
C 25.8134 10.67963 0.03102
C 25.84251 22.0294 -0.02118
C 2.50212 32.70949 0.01116
