352
Graphene
C 0.01794 0.03429 0.01295
C 11.11614 0.67271 -0.00114
C 9.80171 0.07288 0.00228
C 12.28591 32.68219 0.00798
C 13.52334 31.94721 0.00422
C 13.56862 30.55317 0.0351
C 12.31018 29.81682 -0.03113
C 12.25089 28.35785 0.02098
C 13.49861 27.66424 0.01848
C 11.04847 2.01768 -0.02696
C 13.5308 26.25407 -0.00619
C 12.3335 24.17337 0.00889
C 13.53815 23.3984 -0.00481
C 13.5396 22.00436 0.00979
C 12.36427 21.28465 0.01443
C 12.24413 19.93905 0.03505
C 12.29399 16.97377 -0.02815
C 12.31094 15.60302 -0.04147
C 13.45546 13.48233 -0.05302
C 12.34202 25.52096 -0.02162
C 12.25384 12.75243 0.00213
C 9.82797 2.87195 -0.00368
C 11.06648 4.92977 -0.01957
C 9.81318 24.18725 0.02162
C 11.00154 23.46455 0.0076
C 11.08201 22.04163 0.01241
C 9.86602 21.30178 -0.01454
C 9.84229 19.90463 0.01945
C 11.07689 19.20463 0.01416
C 11.05694 17.77218 0.03542
C 9.87616 17.0316 0.02299
C 9.8617 4.28457 -0.0108
C 9.86133 15.68004 0.00244
C 11.04752 13.48135 0.05265
C 9.81396 12.81187 -0.01952
C 9.84852 11.2982 -0.02813
C 11.08687 10.62755 0.00374
C 11.08911 9.24687 0.00052
C 9.91827 8.51984 -0.03682
C 9.82712 7.05526 0.01965
C 11.06042 6.39725 0.02058
C 11.1021 14.87435 -0.01717
C 9.79738 25.55317 -0.0014
C 12.30515 11.33039 -0.00066
C 13.62801 9.23824 0.00028
C 14.77022 8.53818 -0.017
C 14.78186 7.13362 0.00364
C 15.96396 6.47785 -0.00831
C 15.97026 5.008 -0.02957
C 14.73979 4.22044 -0.04422
C 14.76008 2.82728 0.00654
C 15.98324 2.15056 -0.00703
C 16.01141 0.67647 -0.04076
C 15.96787 9.24097 0.00143
C 14.76777 0.03466 -0.00652
C 18.45857 31.91989 -0.00865
C 18.51038 30.58257 0.00675
C 17.21797 29.78978 -0.00311
C 17.24713 28.39564 0.00742
C 18.4774 27.64951 -0.01594
C 18.48426 26.20783 0.0106
C 17.16886 25.56696 -0.01154
C 17.13897 24.1113 -0.01721
C 17.24072 32.61475 0.0058
C 13.55467 10.63034 -0.00289
C 15.94649 10.69846 0.00667
C 15.96865 23.44323 0.00755
C 12.28709 8.53069 -0.02213
C 12.24056 7.14291 0.03698
C 13.50986 6.38935 -0.00109
C 13.50221 4.96008 -0.00491
C 12.30425 4.22028 0.03338
C 12.31334 2.82974 -0.0258
C 13.53117 2.14565 -0.0331
C 13.51126 0.75651 -0.00316
C 14.83009 11.35512 -0.0054
C 12.29824 0.00653 0.02188
C 15.99979 31.93326 0.02691
C 15.96977 30.51006 -0.01581
C 14.7551 29.81372 0.01452
C 14.79999 28.40669 0.04892
C 15.9837 27.69693 -0.00111
C 15.94832 26.26611 -0.03557
C 14.73755 25.57639 0.03754
C 14.75892 24.10869 0.01739
C 14.72724 32.66314 -0.01979
C 18.40924 10.65561 -0.02422
C 11.08456 26.25792 0.00415
C 9.82372 28.39067 0.01363
C 3.68574 0.64252 -0.00095
C 2.40981 34.06804 0.01572
C 4.90387 32.61155 -0.04848
C 6.13014 31.93077 -0.00892
C 4.92763 24.11628 -0.01362
C 6.18386 23.48335 -0.0008
C 6.13021 22.06393 0.0288
C 4.94558 21.28908 0.00393
C 3.67487 2.11525 0.03007
C 4.91481 19.90308 0.00895
C 6.15268 17.78185 0.02888
C 4.92422 16.9869 -0.00482
C 4.89167 15.61779 -0.01384
C 6.12075 14.92269 0.03693
C 6.11177 13.47793 0.01745
C 4.89298 12.79837 0.00488
C 4.8856 11.41862 -0.01004
C 6.15686 10.64275 -0.02896
C 6.15382 19.21136 0.00685
C 6.16764 9.26566 -0.00131
C 2.48282 2.83776 0.00054
C 3.62423 5.01267 -0.00562
C 2.4373 24.19081 0.0276
C 3.67084 23.44492 0.01305
C 3.65845 22.01663 -0.00077
C 2.42199 21.3422 0.03368
C 2.51668 19.82311 -0.02929
C 3.74762 19.19294 -0.00966
C 3.66568 17.74026 -0.03337
C 2.51975 17.02265 0.01227
C 2.46792 4.22588 -0.00494
C 2.43236 15.62114 0.00873
C 3.66095 13.57274 0.00848
C 2.4806 12.79657 -0.01303
C 2.49397 11.36764 -0.01378
C 3.68104 10.66449 0.02635
C 3.74223 9.22708 0.0127
C 2.43614 8.48586 0.01396
C 2.50704 7.09437 0.01849
C 3.63218 6.35608 -0.01142
C 3.67291 14.96875 -0.00049
C 11.03365 27.70344 -0.02162
C 4.91999 8.51577 -0.01118
C 6.16827 6.42282 0.02147
C 8.60267 13.42504 -0.01111
C 7.40668 12.81748 -0.01275
C 7.40338 11.41159 0.00985
C 8.59921 10.68683 -0.02245
C 8.58527 9.23973 -0.00428
C 7.34314 8.47753 0.03101
C 7.35365 7.07081 -0.01536
C 8.63428 6.39686 -0.02689
C 8.60679 14.89382 0.02841
C 8.63009 5.01117 -0.01046
C 7.39911 2.88524 0.02819
C 8.58191 2.14861 0.00165
C 8.65397 0.72366 -0.02971
C 7.43004 0.00048 0.02894
C 9.85672 32.72003 -0.01789
C 11.02395 31.86008 0.00444
C 11.04666 30.51027 -0.00925
C 9.79274 29.83251 0.01877
C 7.36796 4.21077 -0.00891
C 4.91132 7.09182 -0.014
C 7.35749 15.63378 0.00943
C 8.57196 17.79536 0.03592
C 6.18317 4.9283 0.00373
C 4.90596 4.30883 -0.00191
C 4.92897 2.86403 0.00438
C 6.16616 2.15774 0.01291
C 6.15356 0.70259 0.00093
C 4.93478 34.07621 0.00057
C 7.40739 32.69894 -0.01634
C 8.61949 31.96191 -0.00334
C 7.33901 17.08515 0.00406
C 8.66029 30.54284 0.02339
C 8.62529 26.33588 -0.00719
C 7.37521 25.6055 0.01364
C 7.41629 24.22981 -0.01062
C 8.5706 23.50685 -0.00033
C 8.57968 22.04438 0.03589
C 7.38877 21.30711 -0.02759
C 7.32509 19.88895 0.0402
C 8.60412 19.20434 0.00572
C 8.6452 27.69996 0.01641
C 18.45568 9.21193 0.01277
C 17.16893 8.53098 0.00096
C 17.18491 7.14454 -0.01527
C 30.76318 0.71552 -0.01694
C 29.46737 34.05596 0.01428
C 31.94562 32.69302 -0.02142
C 33.207 31.91522 0.0544
C 33.24687 30.53417 0.00026
C 33.18269 27.74277 0.00682
C 33.15036 26.28817 -0.01779
C 32.0309 25.6151 0.03794
C 30.74402 2.07875 0.01713
C 31.98899 24.15899 0.01927
C 33.17881 22.01038 -0.02383
C 31.99035 21.30502 -0.01429
C 31.95498 19.92329 -0.0136
C 33.11419 19.17907 0.00594
C 33.16587 17.76408 -0.02474
C 31.94969 16.95924 0.00369
C 32.00938 15.6408 0.00455
C 33.16845 14.8921 -0.00644
C 33.22998 23.45788 0.01574
C 33.18136 13.45597 -0.01839
C 29.51182 2.81856 0.00346
C 30.74078 4.98185 0.00716
C 27.11646 2.85738 -0.03039
C 28.30964 2.14922 0.01836
C 28.26161 0.69227 0.03531
C 27.05581 34.05539 -0.00669
C 29.48181 32.66678 0.0101
C 29.47404 24.1738 0.01705
C 30.80822 23.44063 -0.0405
C 30.75646 21.97804 -0.01303
C 29.56698 4.21629 0.00307
C 29.4971 21.33139 -0.01461
C 30.75078 19.1713 -0.00944
C 30.7688 17.79244 -0.03735
C 29.48681 11.34082 -0.00971
C 30.73378 10.64288 0.01518
C 30.73303 9.27163 0.01908
C 29.56192 8.55841 0.07705
C 29.5004 7.0219 0.0103
C 30.7748 6.37079 0.02108
C 29.54041 19.88737 -0.02155
C 27.05328 4.30494 -0.01415
C 31.9784 12.71764 0.00137
C 33.14636 10.66999 0.04381
C 1.28409 19.13689 -0.01678
C 1.19082 17.70153 0.01223
C 34.4009 17.03921 0.00648
C 34.39655 15.59077 0.02114
C 1.19577 14.93805 -0.02957
C 1.22161 13.50581 0.00343
C 0.00983 12.71347 -0.02656
C 0.00865 11.35129 -0.02442
C 34.4266 19.91462 0.01951
C 1.27619 10.66275 -0.00027
C 34.42429 8.45889 -0.02302
C 0.00541 7.10006 -0.02849
C 1.25467 6.34995 0.02931
C 1.19412 4.93768 0.00628
C 0.00874 4.21544 -0.0345
C 0.00379 2.83266 -0.00931
C 1.23949 2.15083 -0.00939
C 1.26376 0.77622 -0.00468
C 1.21888 9.22705 -0.00583
C 31.98593 11.39925 0.00199
C 34.3905 21.32031 -0.02213
C 1.23406 23.45638 0.00723
C 33.20416 9.21439 0.02806
C 32.00034 8.57324 0.01504
C 32.00007 7.10834 -0.00069
C 33.17962 6.35631 0.04926
C 33.20658 4.99479 -0.03838
C 31.98373 4.29369 0.00349
C 31.99503 2.88431 -0.00323
C 33.16175 2.04827 -0.00841
C 1.17987 22.00486 0.02712
C 33.19858 0.70143 0.0001
C 0.06104 32.68261 -0.01404
C 1.1808 31.90437 0.01027
C 1.15499 30.54874 0.01831
C 0.00084 29.78762 -0.01037
C 34.36105 28.35892 -0.00439
C 1.23319 26.21212 -0.00598
C 0.01055 25.63945 -0.05239
C 34.42819 24.19003 0.03076
C 31.9714 34.06147 -0.02927
C 28.29595 4.95386 -0.01854
C 28.24143 6.32601 -0.02049
C 26.99589 7.09198 0.03265
C 19.68532 2.84983 -0.01586
C 20.93758 2.09955 -0.01971
C 20.8945 0.69445 -0.02118
C 19.62639 0.03725 0.00733
C 22.13023 32.65719 -0.00178
C 23.34242 32.00212 0.00768
C 23.33272 30.56612 -0.0276
C 22.11008 29.8228 0.03005
C 19.67255 4.27543 -0.01107
C 22.12458 28.39275 -0.04078
C 23.39278 26.28503 0.02737
C 22.13984 25.55865 -0.00498
C 22.16868 24.13607 0.00135
C 23.31846 23.46733 0.03102
C 23.32565 10.68141 0.02555
C 23.37149 9.1945 0.01423
C 22.13842 8.47479 -0.00285
C 22.09178 7.0874 -0.009
C 23.36141 27.72701 0.02117
C 23.41324 6.38221 -0.01199
C 20.8312 4.94654 0.00071
C 19.64243 7.10169 0.01515
C 18.46678 6.3705 0.01087
C 18.43722 4.91188 0.00199
C 17.17417 4.27047 0.01511
C 17.23644 2.80581 -0.00478
C 18.45035 2.12547 -0.01662
C 18.4623 0.72228 -0.01185
C 17.22427 34.04353 0.01126
C 19.67998 32.59603 0.01852
C 20.87584 6.37694 -0.00225
C 20.87941 31.92054 -0.00381
C 19.69517 29.81622 0.0296
C 19.70737 28.35938 0.03374
C 20.89266 27.70823 -0.02845
C 20.83482 26.25423 -0.03213
C 19.63023 25.59633 0.02239
C 20.94244 10.57572 0.01153
C 20.85048 9.2287 0.02734
C 19.69245 8.49445 -0.0055
C 20.93032 30.51257 0.03046
C 23.26951 4.99713 -0.00229
C 22.08741 4.23001 -0.00938
C 22.14349 2.84345 -0.0264
C 24.59673 4.24403 0.00194
C 24.63649 2.81585 -0.00621
C 25.88165 2.10511 0.02611
C 25.85606 0.69895 0.02198
C 24.59894 34.07836 0.01094
C 27.08984 32.61302 0.00235
C 26.97292 25.54005 0.01495
C 27.05447 24.1817 0.01259
C 25.86152 4.9167 0.04185
C 28.36067 23.39803 0.01799
C 27.01822 21.24828 -0.00416
C 27.0625 19.841 0.01177
C 28.29138 19.18897 0.04266
C 27.04633 12.74431 0.01324
C 27.09123 11.37396 0.0014
C 28.26409 10.62637 0.00924
C 28.30586 9.22355 0.02326
C 27.07361 8.50145 0.00261
C 28.3301 22.0126 0.01699
C 25.83696 6.40303 0.02316
C 24.61081 7.12834 0.01257
C 24.62596 8.45002 0.00152
C 23.37371 2.14802 -0.01154
C 23.37675 0.7262 0.00684
C 22.10385 0.02388 -0.01052
C 24.58603 32.6581 -0.01679
C 25.84041 31.97227 0.00367
C 25.80563 30.57466 0.04306
C 24.59773 29.80849 0.00996
C 24.61671 28.41117 0.00195
C 25.82867 26.33473 -0.00802
C 24.60218 25.55697 -0.00218
C 24.61321 24.18444 -0.01654
C 25.85119 23.41475 -0.00037
C 25.90909 22.01436 -0.0032
C 25.73766 14.85802 0.00622
C 25.8568 13.50528 -0.02815
C 24.586 12.74139 -0.00942
C 24.6886 11.39739 0.00487
C 25.79448 10.6663 0.00826
C 25.81728 9.23003 -0.00294
C 3.67542 31.94935 0.00988
C 2.388 32.65679 -0.01343
