341
Graphene
C 34.39693 34.05386 0.01295
C 12.29649 4.26012 -0.00619
C 12.32333 2.90095 -0.02162
C 13.56134 2.13454 0.00889
C 13.47905 0.6352 -0.00481
C 12.25037 34.04007 0.00979
C 14.69387 32.6392 0.01443
C 15.81463 31.76936 0.03505
C 15.73926 30.25997 -0.02815
C 14.49998 29.69324 -0.04147
C 15.15542 12.79637 -0.05302
C 14.86371 11.39113 0.00213
C 16.05979 10.5435 -0.00066
C 16.02009 9.14228 -0.00289
C 14.76916 8.43541 0.00028
C 14.79926 7.12622 -0.02213
C 16.01679 6.32567 0.03698
C 16.06507 4.91719 -0.00109
C 13.44229 4.9965 0.01848
C 14.82232 4.25878 -0.00491
C 13.52177 6.39559 0.02098
C 12.28139 8.66243 0.0351
C 11.11366 9.35896 -0.01717
C 9.85686 8.62052 0.05265
C 9.84076 7.18129 -0.01952
C 11.13989 6.41338 -0.02813
C 11.02032 5.0032 0.00374
C 9.77784 4.34762 0.00052
C 9.83567 2.9098 -0.03682
C 11.08981 2.19848 0.01965
C 11.05547 0.73531 0.02058
C 9.89963 0.04158 -0.01957
C 12.18283 32.60183 -0.0108
C 13.40545 31.93659 -0.00368
C 13.41631 30.57397 -0.02696
C 12.26787 29.7782 -0.00114
C 12.41167 11.15119 0.00228
C 13.62331 10.63371 0.00798
C 13.61175 9.21304 0.00422
C 12.32636 7.12671 -0.03113
C 14.78149 2.91703 0.03338
C 16.00413 2.13629 -0.0258
C 15.93121 0.72151 -0.0331
C 19.63638 29.7722 -0.04076
C 19.92645 28.34929 -0.00652
C 20.94632 27.70101 0.0058
C 21.00349 14.82391 -0.00865
C 20.70213 13.48459 0.00675
C 19.49254 12.914 -0.00311
C 19.6387 11.41719 0.00742
C 19.78286 4.14139 -0.01594
C 19.54445 2.80489 0.0106
C 20.78966 2.02544 -0.01154
C 20.85958 0.63198 -0.01721
C 19.64839 33.99188 -0.02422
C 22.13566 32.60497 0.01277
C 23.32479 31.92807 0.00096
C 23.36485 30.46598 -0.01527
C 22.14437 29.82639 0.01087
C 22.25284 28.37459 0.00199
C 20.86065 30.47771 -0.00703
C 20.84061 31.9745 0.00654
C 19.65014 32.59939 -0.04422
C 17.20408 33.94803 -0.02957
C 14.73516 34.06541 -0.00316
C 17.1456 32.5694 0.02188
C 18.40144 31.89709 -0.01979
C 18.33256 30.52239 0.02691
C 17.05777 29.94991 -0.01581
C 18.10658 13.2553 0.01452
C 16.91257 12.75058 0.04892
C 17.29255 11.23628 -0.00111
C 11.1304 10.82235 0.00244
C 18.57607 10.68826 -0.03557
C 17.27254 8.48118 0.01739
C 17.21346 7.03559 0.00755
C 18.41581 6.4325 -0.0054
C 18.5639 4.97345 0.00667
C 17.29306 4.2897 0.00143
C 17.23039 2.85271 -0.017
C 18.39096 2.0491 0.00364
C 18.42312 0.612 -0.00831
C 18.44577 9.17618 0.03754
C 9.78039 11.4427 0.02299
C 9.60105 29.58108 0.03542
C 10.93019 30.28309 0.01416
C 2.3886 7.14142 -0.00482
C 3.64288 6.45231 -0.01384
C 3.69753 5.05632 0.03693
C 2.51219 4.29287 0.01745
C 2.46163 2.9006 0.00488
C 3.71995 2.17573 -0.01004
C 3.70978 0.78423 -0.02896
C 2.51029 0.0664 -0.00131
C 4.99607 32.72299 -0.01118
C 6.20711 32.1376 -0.014
C 6.09753 30.65185 0.02147
C 4.92621 29.86636 0.00373
C 4.95329 28.45393 -0.00191
C 6.19444 27.76429 0.00438
C 6.0859 26.3254 0.01291
C 5.01034 25.50754 0.00093
C 4.94636 24.08833 0.00057
C 2.40591 8.5179 0.02888
C 3.69601 9.21134 0.00685
C 3.63707 10.69747 0.00895
C 2.40002 11.29145 0.00393
C 3.72851 30.57571 -0.01303
C 2.47975 29.9234 -0.01378
C 2.47465 28.41497 0.02635
C 3.70808 27.70898 0.0127
C 3.68943 26.20542 0.01396
C 2.40284 25.56984 0.01849
C 2.44786 24.17414 -0.01142
C 3.59745 23.48794 -0.00562
C 5.77604 22.85981 -0.01634
C 3.66001 22.09682 -0.00494
C 2.46697 19.9267 0.03007
C 3.79419 19.31387 -0.00095
C 3.69013 17.83928 0.01572
C 2.44579 17.00794 -0.04848
C 2.39712 15.6228 -0.00892
C 3.60719 14.82445 -0.01362
C 3.64123 13.41739 -0.0008
C 2.41848 12.76293 0.0288
C 2.50927 21.29511 0.00054
C 23.46671 27.60377 0.01511
C 5.08535 21.75965 -0.00334
C 5.97054 19.02238 0.01641
C 7.4062 28.47607 0.02819
C 8.87404 28.20059 0.00165
C 7.41311 12.72144 -0.02971
C 7.31884 11.38953 0.02894
C 8.61942 10.69414 -0.01789
C 8.6029 9.28082 0.00444
C 7.30952 8.54105 -0.00925
C 7.28052 7.12336 0.01877
C 8.61197 6.48146 0.01363
C 8.5771 5.07934 -0.02162
C 7.39681 4.38735 0.00415
C 7.36531 2.96529 -0.0014
C 8.60005 2.16444 0.02162
C 8.64067 0.77656 0.0076
C 7.45496 0.06559 0.01241
C 9.90401 32.7118 -0.01454
C 11.04013 31.79688 0.01945
C 7.2528 29.90441 -0.00891
C 8.5761 30.65805 -0.01046
C 8.66354 31.99556 -0.02689
C 7.45515 32.73485 -0.01536
C 6.07033 17.71465 -0.00719
C 4.75787 16.95716 0.01364
C 4.82961 15.47399 -0.01062
C 6.10702 14.97606 -0.00033
C 6.31913 13.59076 0.03589
C 4.96488 12.8483 -0.02759
C 4.89751 11.49071 0.0402
C 6.0756 10.68432 0.00572
C 5.05694 20.19601 0.02339
C 6.0942 9.24349 0.03592
C 4.83424 7.13396 0.00943
C 6.05813 6.40776 0.02841
C 6.13114 5.00695 -0.01111
C 4.9308 4.3391 -0.01275
C 4.94941 2.8541 0.00985
C 6.14679 2.18185 -0.02245
C 6.19656 0.7305 -0.00428
C 5.01399 0.03 0.03101
C 4.89393 8.60338 0.00406
C 3.72408 31.96145 0.00848
C 23.33237 26.18613 -0.00478
C 23.27334 23.51019 -0.01185
C 32.04339 29.85923 -0.02142
C 31.98035 28.38676 0.0544
C 33.21464 27.68569 0.00026
C 33.20191 26.26278 0.00682
C 31.95373 25.50235 -0.01779
C 31.95845 24.0357 0.03794
C 33.16134 23.38405 0.01927
C 33.16942 22.01743 0.01574
C 31.94422 21.27641 -0.02383
C 31.98711 19.85679 -0.01429
C 33.16147 19.16234 -0.0136
C 33.12045 17.70482 0.00594
C 31.95127 17.07955 -0.02474
C 31.92005 15.60086 0.00369
C 33.12251 14.96558 0.00455
C 33.17001 13.49947 -0.00644
C 31.93905 12.80068 -0.01839
C 33.23828 30.59288 0.01428
C 31.88179 11.3335 0.00137
C 33.1731 31.96717 -0.01694
C 29.47402 0.01726 0.00346
C 30.73184 17.7982 -0.00669
C 29.4216 17.04736 0.0101
C 29.4281 15.69217 0.01705
C 30.6619 14.9608 -0.0405
C 30.66907 13.56895 -0.01303
C 29.45521 12.82718 -0.01461
C 29.44817 11.35417 -0.02155
C 30.67794 10.68727 -0.00944
C 30.62413 9.19412 -0.03735
C 29.42575 8.46281 -0.00971
C 29.46499 7.03336 0.01518
C 30.64758 6.36844 0.01908
C 30.72609 4.92636 0.07705
C 29.50511 4.19389 0.0103
C 29.49138 2.78644 0.02108
C 30.68022 2.16384 0.00716
C 30.77027 0.74498 0.00307
C 32.0399 32.69214 0.01713
C 33.16707 10.64723 0.00199
C 33.13274 9.21618 0.04381
C 31.83752 8.54366 0.02806
C 1.32581 17.83447 0.01223
C 34.41278 17.02462 0.00648
C 34.38872 15.6329 0.02114
C 1.16058 14.89829 -0.02957
C 1.2072 13.46259 0.00343
C 0.00404 12.74174 -0.02656
C 34.33142 11.41879 -0.02442
C 1.17714 10.66543 -0.00027
C 1.14301 9.24448 -0.00583
C 34.34887 8.54346 -0.02302
C 34.3918 7.06402 -0.02849
C 1.19241 6.42728 0.02931
C 1.2453 4.99885 0.00628
C 34.39921 4.29961 -0.0345
C 0.04594 2.89512 -0.00931
C 1.25573 2.20311 -0.00939
C 1.24869 0.72138 -0.00468
C 1.27631 19.2024 -0.01678
C 34.42718 19.90458 0.01951
C 34.43046 21.2824 -0.02213
C 1.18643 21.98894 0.02712
C 31.89011 7.08405 0.01504
C 33.11747 6.42327 -0.00069
C 33.1034 5.00285 0.04926
C 31.91724 4.30305 -0.03838
C 31.92848 2.804 0.00349
C 33.24055 2.17785 -0.00323
C 33.18907 0.70493 -0.00841
C 32.00804 0.01566 0.0001
C 30.72762 19.14367 0.03531
C 34.4247 32.71702 -0.02927
C 1.23915 30.65959 0.01027
C 0.01424 29.85 0.01831
C 34.41869 28.47332 -0.01037
C 1.20947 27.691 -0.00439
C 1.21036 26.34426 -0.00598
C 34.41843 25.52074 -0.05239
C 34.40849 24.14988 0.03076
C 1.2348 23.40648 0.00723
C 1.25338 32.05227 -0.01404
C 29.46169 19.87496 0.01836
C 29.43753 21.34923 -0.03039
C 30.70449 22.00624 -0.01415
C 25.71234 22.06455 -0.0276
C 24.56011 21.33084 0.03005
C 24.5072 20.0022 -0.04078
C 25.7442 19.17344 0.02117
C 25.72777 17.74303 0.02737
C 24.46465 17.14651 -0.00498
C 24.52885 15.64013 0.00135
C 25.76438 14.9275 0.03102
C 25.69764 13.46784 0.02555
C 24.42486 12.76262 0.01423
C 24.73492 11.40543 -0.00285
C 25.78814 10.77669 -0.009
C 25.81035 4.92859 -0.01199
C 24.72608 4.36661 -0.00229
C 24.52753 2.88207 -0.00938
C 25.72223 2.17115 -0.0264
C 25.77948 0.78131 -0.01154
C 25.72138 23.45421 0.00768
C 24.57793 24.14735 -0.00178
C 24.6256 25.50526 0.00733
C 25.82803 26.22482 -0.02118
C 23.32948 22.24242 0.01126
C 23.30918 19.37795 0.01852
C 23.23584 17.94357 -0.00381
C 22.18534 17.054 0.03046
C 22.12098 15.59606 0.0296
C 23.3527 14.91988 0.03374
C 23.24264 13.53495 -0.02845
C 21.9365 13.04362 -0.03213
C 24.50438 0.0104 0.00684
C 22.02066 2.83832 0.02239
C 23.29745 0.74506 0.02734
C 22.11927 0.00101 -0.0055
C 24.47837 32.60317 0.01515
C 25.76936 31.91518 -0.00225
C 25.90444 30.47113 0.00071
C 24.6217 29.79654 -0.01107
C 24.70718 28.33395 -0.01586
C 25.8662 27.62294 -0.01971
C 23.26045 2.22376 0.01153
C 22.08129 25.37268 -0.01662
C 27.07277 32.59859 -0.01052
C 28.2792 30.495 0.00367
C 28.23755 6.30957 0.01094
C 28.26968 4.8955 0.00235
C 27.11249 4.21875 0.01495
C 26.90884 2.86887 0.01259
C 28.22175 2.14459 0.01799
C 28.2785 0.74262 0.01699
C 26.94609 0.02005 -0.00416
C 29.49622 32.66884 0.01177
C 30.79815 31.98952 0.04266
C 30.80341 30.52632 0.01324
C 29.5163 29.81305 0.0014
C 29.48907 28.37966 0.00924
C 30.72712 27.74965 0.02326
C 30.79145 26.32256 0.00261
C 29.55652 25.56047 0.03265
C 29.44854 24.16239 -0.02049
C 30.63755 23.43724 -0.01854
C 26.98482 6.9839 0.02198
C 27.04203 8.31009 0.02611
C 28.21096 9.21511 -0.00621
C 28.24249 10.67458 0.00194
C 27.08221 29.69334 0.04306
C 27.07615 28.27018 0.00996
C 28.2855 27.65162 0.00195
C 28.27608 26.24059 -0.00802
C 27.06007 25.48414 -0.00218
C 26.98054 24.06324 -0.01654
C 28.24715 23.43625 -0.00037
C 28.25199 22.02437 -0.0032
C 28.29381 31.9356 -0.01679
C 26.97652 21.25915 0.00622
C 28.27294 19.19059 -0.00942
C 28.23962 17.77322 0.00487
C 26.95068 17.078 0.00826
C 27.00101 15.62828 -0.00294
C 28.24452 14.96382 0.00152
C 28.21697 13.56513 0.01257
C 27.01112 12.81299 0.02316
C 27.0883 11.46261 0.04185
C 26.94875 19.91973 -0.02815
C 2.481 32.70314 -0.00049
