430
Graphene
C 0.04384 33.99126 0.01295
C 13.46068 23.50505 -0.00033
C 13.551 22.0424 0.03589
C 12.27039 21.31233 -0.02759
C 12.28092 19.84344 0.0402
C 13.51441 19.18624 0.00572
C 13.51696 17.73753 0.03592
C 12.28043 17.07076 0.00406
C 12.28646 15.57696 0.00943
C 13.54679 14.92986 0.02841
C 13.50027 13.50056 -0.01111
C 12.20747 24.17816 -0.01062
C 12.25739 12.8689 -0.01275
C 13.56595 10.61229 -0.02245
C 13.53568 9.22585 -0.00428
C 12.3374 8.47212 0.03101
C 12.26515 7.11071 -0.01536
C 13.52498 6.42616 -0.02689
C 13.49574 4.98866 -0.01046
C 12.18245 4.31721 -0.00891
C 12.23771 2.91459 0.02819
C 13.44992 2.10477 0.00165
C 13.46636 0.67874 -0.02971
C 12.31863 11.43186 0.00985
C 12.32232 25.64197 0.01364
C 13.45919 26.38238 -0.00719
C 13.47236 27.74098 0.01641
C 10.99328 17.77947 0.00895
C 9.8323 17.05785 0.00685
C 9.87152 15.68154 0.02888
C 11.07147 14.88961 -0.00482
C 11.06178 13.49865 -0.01384
C 9.79598 12.77882 0.03693
C 9.87046 11.37297 0.01745
C 11.1383 10.66335 0.00488
C 11.09421 9.23341 -0.01004
C 9.76709 8.56103 -0.02896
C 9.70653 7.18842 -0.00131
C 10.89767 6.43307 -0.01118
C 10.98816 4.97952 -0.014
C 9.75645 4.26565 0.02147
C 9.8351 2.9149 0.00373
C 11.01098 2.15391 -0.00191
C 10.91827 0.78956 0.00438
C 9.72084 0.0123 0.01291
C 12.27969 32.65998 0.00093
C 13.4839 31.96189 0.00057
C 13.56323 30.50944 -0.01634
C 12.2577 29.90845 -0.00334
C 12.25539 28.47057 0.02339
C 12.19852 0.02498 0.02894
C 14.65159 32.60902 -0.01789
C 15.88925 32.02671 0.00444
C 15.94046 30.46045 -0.00925
C 16.02424 0.63902 -0.00114
C 14.74449 34.04358 0.00228
C 17.16364 32.68503 0.00798
C 18.4082 31.89457 0.00422
C 18.3645 30.47943 0.0351
C 17.21466 29.74704 -0.03113
C 17.2205 28.34732 0.02098
C 18.42362 27.62825 0.01848
C 18.45534 26.14751 -0.00619
C 17.23659 25.52545 -0.02162
C 17.16449 24.16371 0.00889
C 18.34083 23.3141 -0.00481
C 18.37768 21.95636 0.00979
C 17.18752 21.18341 0.01443
C 17.18239 19.8279 0.03505
C 18.43672 19.18043 -0.02815
C 18.4487 17.69988 -0.04147
C 17.20396 17.04912 -0.05302
C 17.24405 15.66903 0.00213
C 18.44627 14.95102 -0.00066
C 18.47275 13.55401 -0.00289
C 17.21889 12.73825 0.00028
C 17.24565 11.32688 -0.02213
C 15.99231 2.10124 -0.02696
C 11.06573 19.20634 0.00393
C 14.7429 2.82422 -0.00368
C 15.90028 4.92058 -0.01957
C 14.70152 29.76191 0.01877
C 14.69868 28.39726 0.01363
C 15.95157 27.71409 -0.02162
C 16.02064 26.28629 0.00415
C 14.72433 25.63573 -0.0014
C 14.69396 24.17379 0.02162
C 15.93879 23.47445 0.0076
C 16.02284 21.95841 0.01241
C 14.73893 21.32658 -0.01454
C 14.74617 19.8921 0.01945
C 15.88381 19.15178 0.01416
C 15.99591 17.77958 0.03542
C 14.69068 17.09042 0.02299
C 14.73635 15.62099 0.00244
C 16.03231 14.88811 -0.01717
C 15.93284 13.46261 0.05265
C 14.732 12.80526 -0.01952
C 14.75628 11.37736 -0.02813
C 15.98956 10.64355 0.00374
C 16.00086 9.23863 0.00052
C 14.76022 8.43551 -0.03682
C 14.76411 7.07089 0.01965
C 15.99078 6.34558 0.02058
C 14.68272 4.25793 -0.0108
C 9.83715 19.97761 0.0288
C 9.78357 21.35199 -0.0008
C 11.02861 21.93411 -0.01362
C 3.67471 2.23573 0.00245
C 3.65897 0.75721 0.02728
C 2.52104 34.01329 -0.00039
C 4.91348 32.64623 0.0064
C 6.14643 32.06078 0.00211
C 6.10918 30.67419 -0.00449
C 4.92098 29.88969 -0.01979
C 4.93256 28.46904 0.02784
C 6.11293 27.66096 -0.01977
C 6.09805 26.31479 -0.00561
C 4.87538 25.54195 0.00208
C 4.91729 24.11929 0.01707
C 6.15448 23.42957 0.02769
C 6.18205 21.97942 -0.03291
C 4.97156 21.27753 -0.04999
C 4.84858 19.87364 0.04505
C 6.11105 19.20009 0.03284
C 6.07088 17.84255 -0.04307
C 4.90758 17.14006 0.03189
C 4.82872 15.63772 0.00031
C 6.10943 14.95747 -0.003
C 6.06616 13.51031 0.01402
C 4.84197 12.82809 0.02379
C 2.42072 2.83236 0.00081
C 4.85493 11.36926 0.00907
C 2.38053 4.32437 -0.02805
C 3.67245 6.47295 -0.0059
C 3.6276 30.47558 0.01913
C 2.46151 29.80564 0.00267
C 2.40468 28.44396 0.00787
C 3.66963 27.7701 0.02426
C 3.70402 26.3289 0.01218
C 2.46428 25.57941 -0.01471
C 2.45211 24.15947 -0.02827
C 3.6882 23.4581 0.01078
C 3.72304 21.99992 -0.00112
C 2.4478 21.27571 0.03345
C 2.41352 19.88693 0.00748
C 3.65922 19.22542 0.00662
C 3.64146 17.78554 -0.0154
C 2.37397 17.11106 -0.01299
C 2.36072 15.63888 -0.00407
C 3.61905 14.9136 0.01138
C 3.52548 13.54239 0.03278
C 2.34927 12.74132 -0.00177
C 2.30597 11.33981 0.04421
C 3.55622 10.63031 0.00088
C 3.60003 9.21441 0.00828
C 2.44185 8.47169 -0.02375
C 2.35397 7.13702 0.00558
C 3.66113 5.01027 -0.01386
C 18.5002 10.66994 0.03698
C 6.13036 10.68423 0.00643
C 4.82141 8.59632 0.03267
C 7.32708 12.86909 0.03368
C 7.36568 11.41868 -0.02929
C 8.61274 10.66191 -0.00966
C 8.58335 9.29022 -0.03337
C 7.37333 8.63972 0.01227
C 7.41904 7.19292 0.00873
C 8.61474 6.40055 -0.00049
C 8.54605 5.01211 0.00848
C 7.29439 4.31591 -0.01303
C 7.34711 2.90934 -0.01378
C 8.57565 2.22289 0.02635
C 8.5323 0.77702 0.0127
C 7.29565 0.08126 0.01396
C 9.79841 32.67395 0.01849
C 11.02213 32.00982 -0.01142
C 10.98617 30.648 -0.00562
C 9.76485 29.91199 -0.00494
C 9.72711 28.48507 0.00054
C 11.01197 27.81627 0.03007
C 11.07099 26.42311 -0.00095
C 9.90526 25.63939 0.01572
C 9.85324 24.25292 -0.04848
C 10.98855 23.41561 -0.00892
C 8.57475 13.5496 -0.00077
C 6.08466 9.25207 -0.01509
C 8.5787 14.99789 0.01305
C 7.33509 17.11103 0.00988
C 4.88568 7.204 0.02374
C 6.10682 6.54039 0.00402
C 6.11506 5.07628 0.0073
C 4.94723 4.3076 0.0174
C 4.90897 2.8976 0.03828
C 6.11521 2.27341 0.01226
C 6.11556 0.7982 -0.00279
C 4.90675 0.04134 0.01996
C 7.35073 32.68957 -0.03996
C 8.56556 31.97938 0.01465
C 8.52681 30.59807 -0.00074
C 7.29853 29.82453 -0.00518
C 7.30418 28.43574 0.0086
C 8.55608 27.74821 -0.00643
C 8.6296 26.36066 0.017
C 7.36552 25.65629 -0.03113
C 7.3372 24.22246 -0.02566
C 8.61717 23.51697 -0.00094
C 8.61565 22.08465 0.02322
C 7.45803 21.38319 -0.00725
C 7.40999 19.85922 -0.05697
C 8.67203 19.18938 0.01087
C 8.62226 17.78649 -0.01343
C 7.2894 15.65665 0.0276
C 18.36758 9.32239 -0.00109
C 17.19407 8.52123 -0.00491
C 17.20208 7.09347 0.03338
C 30.62037 13.49148 -0.01303
C 29.4172 12.71219 -0.01461
C 29.42019 11.28508 -0.02155
C 30.66076 10.57758 -0.00944
C 30.73035 9.01792 -0.03735
C 29.45217 8.46473 -0.00971
C 29.42327 7.04925 0.01518
C 30.63215 6.25887 0.01908
C 30.67305 4.86371 0.07705
C 29.4488 4.12304 0.0103
C 29.47703 2.72491 0.02108
C 30.69082 2.01332 0.00716
C 30.72201 0.63008 0.00307
C 29.50889 33.99362 0.00346
C 31.96359 32.60791 0.01713
C 33.11866 31.91365 -0.01694
C 33.17456 30.46359 0.01428
C 31.92963 29.82737 -0.02142
C 31.9421 28.4226 0.0544
C 33.20307 27.65183 0.00026
C 33.17914 26.25378 0.00682
C 31.93683 25.60657 -0.01779
C 31.98706 24.11925 0.03794
C 30.69448 14.87782 -0.0405
C 33.16885 23.39798 0.01927
C 29.55164 15.62591 0.01705
C 30.74481 17.81373 -0.00669
C 26.99299 8.49542 0.02611
C 27.03872 6.98976 0.02198
C 28.2117 6.26838 0.01094
C 28.24374 4.88315 0.00235
C 27.02481 4.20161 0.01495
C 27.01719 2.83042 0.01259
C 28.22831 2.04979 0.01799
C 28.31229 0.62859 0.01699
C 27.03575 0.00235 -0.00416
C 29.48641 32.59196 0.01177
C 30.67127 31.89901 0.04266
C 30.64892 30.47187 0.01324
C 29.31894 29.79033 0.0014
C 29.36875 28.40336 0.00924
C 30.61492 27.69625 0.02326
C 30.66019 26.28673 0.00261
C 29.41531 25.51779 0.03265
C 29.36108 24.19443 -0.02049
C 30.71545 23.4935 -0.01854
C 30.78375 22.03067 -0.01415
C 29.56907 21.3427 -0.03039
C 29.56831 19.93956 0.01836
C 30.7549 19.25549 0.03531
C 29.47294 17.10693 0.0101
C 28.26076 9.12354 -0.00621
C 33.24702 21.96894 0.01574
C 31.94063 19.94294 -0.01429
C 34.39212 24.10345 0.03076
C 1.19709 23.43742 0.00723
C 1.23849 21.98917 0.02712
C 0.02499 21.28663 -0.02213
C 34.37478 19.91004 0.01951
C 1.17042 19.18568 -0.01678
C 1.16102 17.79151 0.01223
C 34.40922 17.10256 0.00648
C 34.37238 15.68161 0.02114
C 1.14828 14.90003 -0.02957
C 1.13132 13.42087 0.00343
C 34.30556 12.68691 -0.02656
C 34.30783 11.25405 -0.02442
C 1.07136 10.60577 -0.00027
C 1.18888 9.23927 -0.00583
C 34.39635 8.42007 -0.02302
C 34.32403 6.97236 -0.02849
C 1.16517 6.3989 0.02931
C 1.15868 4.9776 0.00628
C 34.39631 4.22949 -0.0345
C 34.42296 2.80367 -0.00931
C 1.21404 2.03888 -0.00939
C 1.25922 0.66552 -0.00468
C 34.37025 25.52397 -0.05239
C 31.96382 21.39106 -0.02383
C 1.1961 26.24522 -0.00598
C 0.02108 28.39094 -0.01037
C 33.14805 19.19344 -0.0136
C 33.18571 17.75146 0.00594
C 31.98024 17.02961 -0.02474
C 31.94132 15.65894 0.00369
C 33.16624 14.88824 0.00455
C 33.04805 13.47177 -0.00644
C 31.88081 12.69646 -0.01839
C 31.90291 11.29845 0.00137
C 33.13968 10.55746 0.00199
C 33.19543 9.11056 0.04381
C 31.95117 8.45701 0.02806
C 31.93537 6.97918 0.01504
C 33.12817 6.28815 -0.00069
C 33.16042 4.93952 0.04926
C 31.9915 4.16902 -0.03838
C 31.88274 2.70882 0.00349
C 33.20822 2.05025 -0.00323
C 33.16883 0.65194 -0.00841
C 31.98866 33.97436 0.0001
C 34.42028 32.51021 -0.02927
C 1.25646 31.86707 -0.01404
C 1.23239 30.49825 0.01027
C 34.43252 29.83073 0.01831
C 1.23697 27.70054 -0.00439
C 3.74103 31.86975 -0.03672
C 28.19266 10.61076 0.00194
C 27.02119 12.79321 0.02316
C 19.60036 8.56029 -0.00865
C 19.64866 7.06575 0.00675
C 20.9192 6.34277 -0.00311
C 20.81964 4.92551 0.00742
C 19.5709 4.28599 -0.01594
C 19.62244 2.76893 0.0106
C 20.85934 2.17108 -0.01154
C 20.84462 0.74711 -0.01721
C 19.61933 0.00873 -0.02422
C 22.03843 32.61079 0.01277
C 23.3896 32.07928 0.00096
C 23.37366 30.58071 -0.01527
C 22.25713 29.87909 0.01087
C 23.3186 22.10234 0.00199
C 22.10541 21.53198 0.01511
C 22.09588 20.06288 -0.00478
C 23.35621 19.32811 -0.01662
C 23.36356 17.88827 -0.01185
C 22.12234 17.15687 0.01126
C 22.1057 15.701 0.01852
C 23.41084 14.99621 -0.00381
C 23.40377 13.54834 0.03046
C 22.16732 12.82926 0.0296
C 20.82847 9.26876 0.0058
C 22.17168 11.35203 0.03374
C 20.89775 10.6882 -0.00652
C 19.69539 12.86585 -0.00703
C 18.42627 6.38191 -0.0258
C 18.4005 5.01277 -0.0331
C 17.20475 4.29011 -0.00316
C 17.17403 2.87907 0.02188
C 18.28739 2.12243 -0.01979
C 18.44073 0.67167 0.02691
C 17.191 0.00255 -0.01581
C 19.6727 32.58725 0.01452
C 20.85824 31.89948 0.04892
C 20.87894 30.45758 -0.00111
C 19.64568 29.7454 -0.03557
C 19.65047 28.30175 0.03754
C 19.75003 25.21114 0.01739
C 19.76564 23.78172 0.00755
C 20.64585 22.39401 -0.0054
C 19.69227 21.35891 0.00667
C 19.6653 19.92516 0.00143
C 20.9151 19.35993 -0.017
C 20.93693 17.82362 0.00364
C 19.67895 17.05719 -0.00831
C 19.65016 15.64392 -0.02957
C 20.89365 14.97889 -0.04422
C 20.92439 13.55347 0.00654
C 19.69476 11.36319 -0.04076
C 27.0275 11.3733 0.04185
C 23.36154 10.64829 -0.02845
C 22.1026 8.49194 0.02239
C 25.75665 4.91192 -0.00938
C 24.56113 4.17721 -0.0264
C 24.47077 2.7851 -0.01154
C 25.77812 2.07712 0.00684
C 25.84048 0.72724 -0.01052
C 24.56962 0.05048 -0.01679
C 26.95747 32.69498 0.00367
C 28.10281 31.91282 0.04306
C 28.13956 30.56494 0.00996
C 26.82864 29.81797 0.00195
C 26.94918 28.43573 -0.00802
C 28.15027 27.55936 -0.00218
C 28.18764 26.09316 -0.01654
C 28.22009 23.47897 -0.00037
C 28.34923 22.0539 -0.0032
C 27.14258 21.37943 0.00622
C 27.15565 19.94453 -0.02815
C 28.29999 19.21153 -0.00942
C 28.28855 17.78577 0.00487
C 27.01535 17.07976 0.00826
C 27.10629 15.56955 -0.00294
C 28.30393 14.90005 0.00152
C 28.2305 13.4592 0.01257
C 25.7577 6.30917 -0.00229
C 23.34369 9.24393 -0.03213
C 24.48443 7.18057 -0.01199
C 25.765 9.22616 -0.00285
C 22.02999 7.11061 0.01153
C 23.3663 6.42185 0.02734
C 23.32616 4.9668 -0.0055
C 22.03262 4.29599 0.01515
C 21.98758 2.88448 -0.00225
C 23.23443 2.14898 0.00071
C 23.27694 0.65032 -0.01107
C 21.95948 0.05008 -0.01586
C 24.54786 32.70992 -0.01971
C 25.74934 31.95088 -0.02118
C 25.50055 30.60324 0.00733
C 25.93422 22.14141 -0.00178
C 24.59619 21.53042 0.00768
C 24.62589 19.9789 -0.0276
C 25.86749 19.22872 0.03005
C 25.83921 17.80244 -0.04078
C 24.63384 17.13793 0.02117
C 24.56707 15.67019 0.02737
C 25.79981 14.88883 -0.00498
C 25.80363 13.44664 0.00135
C 24.62017 12.81684 0.03102
C 24.59226 11.34069 0.02555
C 25.8155 10.68202 0.01423
C 24.57036 8.59 -0.009
C 2.54542 32.59739 -0.04306
