346
Graphene
C 34.37852 34.05304 0.01295
C 12.22442 32.73342 -0.03113
C 13.48329 31.97382 0.02098
C 13.42999 30.58551 0.01848
C 12.25625 29.8737 -0.00619
C 13.59724 17.72334 -0.02162
C 12.36642 17.17269 0.00889
C 12.32677 15.65476 -0.00481
C 13.55975 14.87495 0.00979
C 13.58406 13.48207 0.01443
C 12.32314 12.7411 0.03505
C 12.3751 11.26541 -0.02815
C 13.65311 10.57752 -0.04147
C 13.57885 9.19826 -0.05302
C 12.28916 8.6284 0.00213
C 12.3869 7.08906 -0.00066
C 13.52118 6.34302 -0.00289
C 13.50564 4.91605 0.00028
C 9.79201 34.02924 0.0351
C 10.96095 0.649 0.00422
C 10.97271 2.0139 0.00798
C 9.75242 2.74035 0.00228
C 9.73191 32.61914 0.01416
C 11.05931 31.94703 0.03542
C 11.03318 30.46853 0.02299
C 9.70542 29.96886 0.00244
C 11.12841 17.75956 -0.01717
C 9.9372 17.07606 0.05265
C 9.80153 15.63749 -0.01952
C 11.05475 14.93796 -0.02813
C 12.26318 4.14085 -0.02213
C 11.05823 13.51026 0.00374
C 9.86575 11.42216 -0.03682
C 11.10033 10.74 0.01965
C 11.09529 9.27046 0.02058
C 9.88653 8.54901 -0.01957
C 9.92317 7.06841 -0.0108
C 11.13837 6.36469 -0.00368
C 11.09413 4.97299 -0.02696
C 9.93487 4.28483 -0.00114
C 9.82607 12.87145 0.00052
C 7.27962 0.04208 0.01945
C 12.23569 2.75174 0.03698
C 13.49611 0.78075 -0.00491
C 17.15722 32.6634 -0.04422
C 18.46368 31.93518 0.00654
C 18.37449 30.53654 -0.00703
C 17.14899 29.87823 -0.04076
C 17.15573 28.4271 -0.00652
C 18.36813 27.69684 0.0058
C 18.34356 26.27071 -0.00865
C 17.19682 25.51948 0.00675
C 17.23491 24.24159 -0.00311
C 18.33928 23.48714 0.00742
C 18.43705 22.05464 -0.01594
C 17.28274 21.34208 0.0106
C 17.28328 19.87232 -0.01154
C 18.36123 19.0679 -0.01721
C 17.33372 17.34554 -0.02422
C 18.45393 4.85333 0.01277
C 17.20739 4.29437 0.00096
C 14.70142 0.00656 -0.02957
C 15.96378 0.59127 -0.00831
C 15.94012 2.02483 0.00364
C 14.74348 2.80632 -0.017
C 12.33696 34.07142 0.03338
C 14.69274 32.71577 -0.0258
C 15.94509 32.06722 -0.0331
C 15.91362 30.60587 -0.00316
C 14.65574 29.80252 0.02188
C 14.92242 28.49306 -0.01979
C 15.93365 27.76539 0.02691
C 16.13082 19.19992 -0.01581
C 13.4626 2.1352 -0.00109
C 16.04827 17.76173 0.01452
C 14.5613 15.67831 -0.00111
C 14.64209 12.65939 -0.03557
C 14.7312 11.33222 0.03754
C 14.6844 8.36671 0.01739
C 14.93397 7.07963 0.00755
C 16.03256 6.31054 -0.0054
C 16.03491 4.96584 0.00667
C 14.79066 4.18454 0.00143
C 14.84498 17.07505 0.04892
C 8.51786 0.71946 -0.01454
C 8.50293 2.14274 0.01241
C 7.32099 2.95174 0.0076
C 2.45878 7.11818 0.0288
C 3.67454 6.34317 0.00393
C 3.66163 4.96733 0.00895
C 2.4752 4.18363 0.00685
C 2.45575 2.76829 0.02888
C 3.74916 2.18043 -0.00482
C 3.69834 0.73624 -0.01384
C 2.43983 0.02156 0.03693
C 4.9204 32.57129 0.01745
C 6.08815 31.99343 0.00488
C 6.08256 30.56194 -0.01004
C 4.91897 29.81374 -0.02896
C 4.95448 28.36622 -0.00131
C 6.26287 27.62996 -0.01118
C 6.01999 26.237 -0.014
C 4.85023 25.51598 0.02147
C 4.99214 24.0836 0.00373
C 2.49188 8.5169 -0.0008
C 3.69622 9.22917 -0.01362
C 3.69431 10.72725 -0.00892
C 2.48097 11.33546 -0.04848
C 3.6329 30.51204 -0.03337
C 2.38791 29.85951 0.01227
C 2.49005 28.42319 0.00873
C 3.66944 27.7472 -0.00049
C 3.58576 26.37973 0.00848
C 2.36402 25.60185 -0.01303
C 2.50162 24.14202 -0.01378
C 3.66674 23.441 0.02635
C 6.18475 23.34108 -0.00191
C 3.64413 21.98274 0.0127
C 2.42044 19.86913 0.01849
C 3.7223 19.15861 -0.01142
C 3.69997 17.77419 -0.00562
C 2.39094 17.05632 -0.00494
C 2.44743 15.66298 0.00054
C 3.67283 14.97302 0.03007
C 3.72679 13.50902 -0.00095
C 2.44374 12.76677 0.01572
C 2.41495 21.28713 0.01396
C 6.06405 22.06246 0.00438
C 4.97668 21.35464 0.01291
C 4.95215 19.85891 0.00093
C 7.28419 29.81811 0.03101
C 7.2779 28.49266 -0.01536
C 7.47179 19.8996 -0.02689
C 8.46502 19.08304 -0.01046
C 8.70396 17.78134 -0.00891
C 7.40354 17.1426 0.02819
C 7.40229 15.70729 0.00165
C 8.56653 14.93668 -0.02971
C 8.50089 30.50963 -0.00428
C 8.54342 13.5133 0.02894
C 7.42527 11.29279 0.00444
C 8.71035 10.67698 -0.00925
C 8.69233 9.20521 0.01877
C 7.38982 8.55604 0.01363
C 7.46195 7.19252 -0.02162
C 8.64576 6.40726 0.00415
C 8.67451 4.9896 -0.0014
C 7.41627 4.33197 0.02162
C 7.37334 12.80261 -0.01789
C 17.18107 2.80883 -0.01527
C 8.5524 31.85266 -0.02245
C 4.94543 0.04895 -0.01275
C 6.21757 19.33739 0.00057
C 6.1608 17.8427 -0.01634
C 4.89467 17.01543 -0.00334
C 4.91655 15.67686 0.02339
C 6.21953 14.93623 0.01641
C 6.1677 13.48456 -0.00719
C 4.8918 12.77897 0.01364
C 4.96098 11.38904 -0.01062
C 7.31654 32.64516 0.00985
C 6.16485 10.6507 -0.00033
C 4.931 8.59557 -0.02759
C 4.90207 7.10055 0.0402
C 6.12628 6.50379 0.00572
C 6.19878 5.02993 0.03592
C 4.94855 4.33721 0.00406
C 4.8617 2.91154 0.00943
C 6.12842 2.19757 0.02841
C 6.11251 0.74708 -0.01111
C 6.1405 9.2965 0.03589
C 18.49341 2.14551 0.01087
C 18.42815 0.7296 0.00199
C 17.23051 34.07614 0.01511
C 33.15576 30.54876 0.01428
C 31.97944 29.85491 -0.02142
C 32.00109 28.47204 0.0544
C 33.13898 27.70868 0.00026
C 33.10041 26.30786 0.00682
C 31.91096 25.55841 -0.01779
C 31.91686 24.1765 0.03794
C 33.13824 23.5064 0.01927
C 33.14887 22.05514 0.01574
C 31.93706 21.35461 -0.02383
C 32.01566 19.88807 -0.01429
C 33.25253 19.19945 -0.0136
C 33.17092 17.69137 0.00594
C 31.95119 17.07572 -0.02474
C 31.83922 15.67803 0.00369
C 33.1222 14.93784 0.00455
C 33.13135 13.56845 -0.00644
C 33.21254 31.93283 -0.01694
C 31.92823 32.61973 0.01713
C 29.50849 34.05697 0.00346
C 30.75619 0.74902 0.00307
C 29.48778 24.13243 0.01836
C 30.69993 23.4695 0.03531
C 30.65902 22.03798 -0.00669
C 29.44602 21.2917 0.0101
C 29.53785 19.89099 0.01705
C 30.82126 19.19741 -0.0405
C 30.74369 17.82558 -0.01303
C 29.49632 17.06379 -0.01461
C 31.91073 12.7833 -0.01839
C 29.45806 15.64399 -0.02155
C 30.63373 13.55919 -0.03735
C 29.66816 12.73351 -0.00971
C 29.66851 11.37099 0.01518
C 30.74831 10.61231 0.01908
C 30.76496 9.27255 0.07705
C 30.76045 4.96083 0.0103
C 29.55704 2.80945 0.02108
C 30.78104 2.18816 0.00716
C 30.60801 14.95809 -0.00944
C 31.99802 11.30503 0.00137
C 33.20193 10.57043 0.00199
C 33.20557 9.10363 0.04381
C 1.22259 19.22868 -0.01678
C 1.13797 17.82064 0.01223
C 34.40111 17.0758 0.00648
C 0.0424 15.5651 0.02114
C 1.20875 14.8586 -0.02957
C 1.20757 13.41902 0.00343
C 34.2989 12.75818 -0.02656
C 34.40261 11.33075 -0.02442
C 0.04641 19.93172 0.01951
C 1.23351 10.62714 -0.00027
C 0.05222 8.45596 -0.02302
C 0.0399 7.02856 -0.02849
C 1.28614 6.34242 0.02931
C 1.21781 4.96579 0.00628
C 0.01969 4.30764 -0.0345
C 0.05102 2.76308 -0.00931
C 1.22446 2.06772 -0.00939
C 1.25624 0.65233 -0.00468
C 1.23777 9.22804 -0.00583
C 29.54778 25.5923 -0.03039
C 34.38989 21.39472 -0.02213
C 1.21653 23.43723 0.00723
C 31.82386 8.46831 0.02806
C 32.04672 7.11856 0.01504
C 33.27519 6.35632 -0.00069
C 33.21086 4.9603 0.04926
C 31.96506 4.28242 -0.03838
C 31.9894 2.77609 0.00349
C 33.21767 2.08341 -0.00323
C 33.16179 0.69985 -0.00841
C 1.18599 22.05298 0.02712
C 31.88824 34.00796 0.0001
C 1.1729 31.9371 -0.01404
C 1.18651 30.61255 0.01027
C 34.40308 29.77609 0.01831
C 0.0041 28.34833 -0.01037
C 1.17127 27.67153 -0.00439
C 1.11811 26.29059 -0.00598
C 34.30538 25.55143 -0.05239
C 34.39493 24.19819 0.03076
C 34.42109 32.66686 -0.02927
C 3.68118 32.00096 -0.00966
C 30.71497 26.31708 -0.01415
C 29.49036 28.40432 -0.02049
C 22.11962 29.83802 0.00733
C 22.07885 28.4247 -0.00178
C 23.31201 27.6688 0.00768
C 23.38098 26.22598 -0.0276
C 22.09311 25.48444 0.03005
C 22.10253 24.14285 -0.04078
C 23.41451 23.51717 0.02117
C 23.38427 22.04719 0.02737
C 22.11533 21.36656 -0.00498
C 22.0834 19.86105 0.00135
C 23.34993 19.3995 0.03102
C 22.06858 4.32553 0.02555
C 22.16785 2.8862 0.01423
C 23.37417 2.12034 -0.00285
C 23.33864 0.69715 -0.009
C 22.11854 34.07972 -0.01199
C 24.64603 32.63925 -0.00229
C 23.35691 30.52977 -0.02118
C 23.36804 31.91125 -0.01971
C 22.06893 32.70012 -0.01586
C 19.6499 0.04196 -0.01107
C 19.69113 32.68172 -0.00478
C 20.84692 31.89763 -0.01662
C 20.82378 30.47187 -0.01185
C 19.63891 29.80704 0.01126
C 19.61786 28.31624 0.01852
C 20.83717 27.6411 -0.00381
C 20.86962 26.25402 0.03046
C 19.62849 25.5334 0.0296
C 25.84142 31.9119 -0.00938
C 19.55632 24.14215 0.03374
C 20.82557 21.99532 -0.03213
C 19.67376 21.19909 0.02239
C 19.63285 19.69614 0.01153
C 20.95227 19.17799 0.02734
C 19.57277 4.14505 -0.0055
C 19.69931 2.80984 0.01515
C 20.90193 2.14267 -0.00225
C 20.89978 0.67021 0.00071
C 20.90627 23.46529 -0.02845
C 25.80776 30.45694 -0.0264
C 24.50632 29.79632 -0.01154
C 24.56367 28.30462 0.00684
C 27.10271 25.54391 -0.00621
C 27.0384 24.1226 0.02611
C 28.3353 23.39524 0.02198
C 28.25775 22.02855 0.01094
C 27.00175 21.22468 0.00235
C 27.11144 19.8189 0.01495
C 28.34717 19.15674 0.01259
C 28.21041 17.74063 0.01799
C 28.30204 26.2972 0.00194
C 26.96106 17.19597 0.01699
C 27.07179 2.93189 0.01177
C 28.38614 2.1829 0.04266
C 28.31363 0.70651 0.01324
C 27.04117 0.06271 0.0014
C 29.51582 32.70174 0.00924
C 30.74761 31.91117 0.02326
C 30.7246 30.51059 0.00261
C 29.50631 29.82984 0.03265
C 26.88106 4.17638 -0.00416
C 30.71698 27.7986 -0.01854
C 28.30379 27.73594 0.04185
C 27.05283 29.8333 0.01257
C 25.80631 27.73568 -0.01052
C 25.89165 26.30029 -0.01679
C 24.63055 25.59646 0.00367
C 24.64961 24.17609 0.04306
C 25.80497 23.48998 0.00996
C 25.83863 21.98551 0.00195
C 24.5567 21.35464 -0.00802
C 24.59647 19.81067 -0.00218
C 27.07931 28.44787 0.02316
C 25.87391 19.18519 -0.01654
C 24.35609 4.27484 -0.0032
C 24.58899 2.91265 0.00622
C 25.81545 2.17192 -0.02815
C 25.83666 0.71413 -0.00942
C 24.63223 0.02145 0.00487
C 27.12626 32.58289 0.00826
C 28.37008 31.92907 -0.00294
C 28.27698 30.54255 0.00152
C 25.66533 4.61094 -0.00037
C 2.44131 32.65645 -0.02929
