382
Graphene
C 34.33089 0.06709 0.01295
C 15.24302 8.18492 0.01241
C 15.64451 2.23909 -0.01454
C 15.88972 0.87051 0.01945
C 14.68894 0.08958 0.01416
C 17.20348 32.77968 0.03542
C 18.42406 31.9169 0.02299
C 18.47201 30.47873 0.00244
C 17.26247 29.84619 -0.01717
C 17.20974 28.3284 0.05265
C 18.44723 27.6704 -0.01952
C 18.47425 26.25373 -0.02813
C 17.19062 25.53276 0.00374
C 17.24967 24.13409 0.00052
C 18.54056 23.34334 -0.03682
C 18.43233 21.89939 0.01965
C 17.15323 21.16159 0.02058
C 17.19211 19.78224 -0.01957
C 18.41725 19.15472 -0.0108
C 18.39794 17.68623 -0.00368
C 15.88366 9.37421 0.0076
C 15.92879 10.80323 0.02162
C 16.07932 13.62665 -0.0014
C 15.90999 14.99255 0.00415
C 12.2719 2.99472 -0.01111
C 13.45032 2.25723 -0.01275
C 13.47824 0.8185 0.00985
C 12.33085 0.07895 -0.02245
C 14.73677 32.73695 -0.00428
C 15.95129 31.98674 0.03101
C 16.03395 30.50812 -0.01536
C 14.74855 29.83527 -0.02689
C 14.7523 28.38504 -0.01046
C 17.1205 17.03351 -0.02696
C 16.01047 27.64422 -0.00891
C 14.80639 25.52506 0.00165
C 14.82333 24.13153 -0.02971
C 16.02249 23.3658 0.02894
C 15.98661 21.95864 -0.01789
C 14.74396 21.25762 0.00444
C 14.75177 19.89045 -0.00925
C 15.97696 19.07511 0.01877
C 15.86169 17.6367 0.01363
C 14.73333 16.75207 -0.02162
C 16.04595 26.22764 0.02819
C 17.1523 15.63735 -0.00114
C 18.40265 14.92404 0.00228
C 18.38475 13.56081 0.00798
C 19.68743 21.19991 -0.0258
C 19.687 19.77444 -0.0331
C 20.84314 19.09669 -0.00316
C 20.8841 17.73568 0.02188
C 19.6197 16.97103 -0.01979
C 19.65034 15.60723 0.02691
C 20.9799 14.9625 -0.01581
C 20.90835 13.51461 0.01452
C 19.69924 12.84233 0.04892
C 20.86615 21.88912 0.03338
C 19.73741 11.39467 -0.00111
C 20.9356 9.27298 0.03754
C 19.68381 8.51179 0.01739
C 19.69803 7.10412 0.00755
C 20.92906 6.31442 -0.0054
C 20.90882 4.909 0.00667
C 19.68647 4.17838 0.00143
C 19.53722 2.83151 -0.017
C 20.7779 2.09811 0.00364
C 20.79619 0.70151 -0.00831
C 20.94345 10.67358 -0.03557
C 11.99199 7.35272 0.02841
C 20.90543 23.28049 -0.00491
C 19.71182 25.45595 0.03698
C 17.17749 12.83876 0.00422
C 17.1743 11.44193 0.0351
C 18.39358 10.68688 -0.03113
C 18.41907 9.23981 0.02098
C 17.22663 8.50258 0.01848
C 17.18749 7.11812 -0.00619
C 18.4553 6.4333 -0.02162
C 18.4335 4.97375 0.00889
C 17.19697 4.35464 -0.00481
C 19.74721 24.01283 -0.00109
C 16.87437 2.9423 0.00979
C 18.35831 0.80274 0.03505
C 17.15345 0.09686 -0.02815
C 19.56812 32.62621 -0.04147
C 20.8399 31.931 -0.05302
C 20.83874 30.49002 0.00213
C 19.63832 29.80326 -0.00066
C 19.68686 28.37002 -0.00289
C 20.90792 27.6117 0.00028
C 20.97023 26.16455 -0.02213
C 18.23448 2.23534 0.01443
C 13.48262 19.21417 0.00943
C 12.56466 19.99377 0.00406
C 12.27598 21.44402 0.03592
C 6.11104 30.55018 0.02322
C 4.90778 29.86835 -0.00725
C 4.8377 28.47603 -0.05697
C 6.05287 27.79727 0.01087
C 6.11258 26.32602 -0.01343
C 4.89816 25.56515 0.00988
C 4.86897 24.10053 0.0276
C 6.15895 23.41161 0.01305
C 6.12852 21.99041 -0.00077
C 6.04065 32.02961 -0.00094
C 4.96026 21.25535 0.03368
C 5.02578 7.10539 -0.00966
C 6.26547 6.46072 -0.03337
C 6.11965 5.00469 0.01227
C 4.86424 4.35409 0.00873
C 4.84767 2.88877 -0.00049
C 6.02352 2.15465 0.00848
C 6.07971 0.73109 -0.01303
C 4.87418 0.02045 -0.01378
C 7.33196 32.66626 0.02635
C 4.85855 19.81279 -0.02929
C 8.58072 31.9879 0.0127
C 4.888 32.63919 -0.02566
C 3.67894 0.74989 0.017
C 3.61832 30.58456 0.01402
C 2.42686 29.84973 0.02379
C 2.39746 28.39466 0.00907
C 3.64515 27.75583 0.00643
C 3.63444 26.3185 -0.01509
C 2.4524 25.60331 0.03267
C 2.41663 24.21183 0.02374
C 3.70577 23.44268 0.00402
C 3.74533 21.9848 0.0073
C 2.43156 0.04196 -0.03113
C 2.55139 21.31515 0.0174
C 3.5706 19.17755 0.01226
C 2.71139 17.39254 -0.00279
C 2.3246 8.36659 0.01996
C 2.43481 7.11675 -0.03996
C 3.6818 6.42946 0.01465
C 3.64827 4.99834 -0.00074
C 2.41845 4.32874 -0.00518
C 2.43891 2.91688 0.0086
C 3.60845 2.17482 -0.00643
C 2.42056 19.92438 0.03828
C 19.59587 34.04425 -0.02957
C 8.54787 30.59498 0.01396
C 7.34747 28.44002 -0.01142
C 11.05625 22.09854 -0.014
C 9.93861 21.32654 0.02147
C 11.69948 6.05692 0.00373
C 11.06668 4.89415 -0.00191
C 9.67562 4.28511 0.00438
C 9.75482 2.89299 0.01291
C 11.09924 2.26397 0.00093
C 11.07096 0.77286 0.00057
C 9.8314 0.07511 -0.01634
C 11.04017 23.53538 -0.01118
C 12.34425 32.78944 -0.00334
C 13.53545 30.60603 0.01641
C 12.31872 29.88506 -0.00719
C 12.32885 28.47295 0.01364
C 13.53064 27.72896 -0.01062
C 13.62253 26.31959 -0.00033
C 12.38276 25.64318 0.03589
C 12.31942 24.24613 -0.02759
C 13.54879 23.45164 0.0402
C 13.58022 22.03145 0.00572
C 13.54199 32.06669 0.02339
C 7.32281 29.87743 0.01849
C 9.74838 24.23436 -0.00131
C 11.08625 26.3644 -0.01004
C 8.60795 27.79903 -0.00562
C 8.5733 26.3512 -0.00494
C 7.37628 25.69578 0.00054
C 7.34088 24.16844 0.03007
C 8.59262 23.37001 -0.00095
C 8.57931 21.91345 0.01572
C 7.32971 21.40638 -0.04848
C 8.20345 6.46088 -0.00892
C 8.48987 5.10775 -0.01362
C 9.79391 25.67459 -0.02896
C 7.33314 4.33465 -0.0008
C 8.52167 2.15981 0.00393
C 8.52689 0.6731 0.00895
C 7.29172 0.03102 0.00685
C 9.88157 32.73924 0.02888
C 11.14201 32.01732 -0.00482
C 11.11704 30.63292 -0.01384
C 9.86139 29.91629 0.03693
C 9.90094 28.54298 0.01745
C 11.06389 27.75833 0.00488
C 7.31915 2.89763 0.0288
C 22.0747 32.6476 -0.04422
C 23.2795 31.91841 0.00654
C 23.29846 30.43827 -0.00703
C 29.46329 4.23012 0.0103
C 29.47827 2.8959 0.02108
C 30.65688 2.1393 0.00716
C 30.76304 0.75191 0.00307
C 29.44518 0.01796 0.00346
C 31.95533 32.71259 0.01713
C 33.14948 31.99476 -0.01694
C 33.13936 30.56788 0.01428
C 31.96369 29.82373 -0.02142
C 30.69755 4.93566 0.07705
C 31.91737 28.40528 0.0544
C 33.15328 26.24508 0.00682
C 31.896 25.53401 -0.01779
C 31.92887 24.13864 0.03794
C 33.1498 23.46659 0.01927
C 33.16133 22.05628 0.01574
C 31.98972 21.2839 -0.02383
C 32.00846 19.88616 -0.01429
C 33.28061 19.23761 -0.0136
C 33.25015 17.83186 0.00594
C 33.13997 27.72335 0.00026
C 32.00936 17.09613 -0.02474
C 30.73237 6.35242 0.01908
C 29.43044 8.47924 -0.00971
C 29.48778 29.84926 0.0014
C 29.50936 28.43238 0.00924
C 30.7116 27.71666 0.02326
C 30.73855 26.26761 0.00261
C 29.42819 25.63495 0.03265
C 29.49804 24.12637 -0.02049
C 30.6473 23.41993 -0.01854
C 30.72145 22.04789 -0.01415
C 29.47801 21.32928 -0.03039
C 29.46284 7.09102 0.01518
C 29.42948 19.91038 0.01836
C 30.77884 17.79433 -0.00669
C 29.53529 17.06702 0.0101
C 29.48441 15.63989 0.01705
C 30.78747 14.90887 -0.0405
C 30.78438 13.45583 -0.01303
C 29.48503 12.81902 -0.01461
C 29.51642 11.34513 -0.02155
C 30.69082 10.64637 -0.00944
C 30.78328 9.24778 -0.03735
C 30.70602 19.2551 0.03531
C 30.75105 30.5509 0.01324
C 31.99609 15.61126 0.00369
C 33.26683 13.51733 -0.00644
C 34.36424 21.34812 -0.02213
C 0.02281 19.92315 0.01951
C 1.2464 19.21761 -0.01678
C 1.39143 17.79964 0.01223
C 0.14846 17.1418 0.00648
C 0.01725 15.70419 0.02114
C 1.16251 14.74562 -0.02957
C 1.08249 13.58122 0.00343
C 34.37069 12.71717 -0.02656
C 1.26112 22.00343 0.02712
C 34.42707 11.32652 -0.02442
C 1.34773 9.32264 -0.00583
C 0.07033 8.54382 -0.02302
C 0.04655 7.09467 -0.02849
C 1.18622 6.33152 0.02931
C 1.14476 4.98611 0.00628
C 34.33701 4.30544 -0.0345
C 34.27893 2.91951 -0.00931
C 1.20082 2.18148 -0.00939
C 1.17968 0.76209 -0.00468
C 1.17021 10.70161 -0.00027
C 33.24051 14.93787 0.00455
C 1.24177 23.42725 0.00723
C 34.39679 25.57412 -0.05239
C 31.99235 12.8018 -0.01839
C 31.95219 11.30167 0.00137
C 33.21369 10.64817 0.00199
C 33.28239 9.25084 0.04381
C 32.01602 8.47078 0.02806
C 31.93011 7.00975 0.01504
C 33.14815 6.38411 -0.00069
C 33.10141 4.98027 0.04926
C 31.88912 4.289 -0.03838
C 34.41718 24.19177 0.03076
C 31.90189 2.917 0.00349
C 33.12309 0.74099 -0.00841
C 31.93611 0.01692 0.0001
C 34.35085 32.69136 -0.02927
C 1.19418 32.00531 -0.01404
C 1.19577 30.54893 0.01027
C 34.34617 29.83821 0.01831
C 34.40496 28.44369 -0.01037
C 1.15211 27.6451 -0.00439
C 1.19799 26.2842 -0.00598
C 33.09502 2.16741 -0.00323
C 3.57532 31.99308 -0.003
C 30.76905 31.96418 0.04266
C 27.02323 34.05386 -0.00416
C 22.10467 4.18613 0.03046
C 22.03041 2.82908 0.0296
C 23.34393 2.09104 0.03374
C 23.31862 0.67276 -0.02845
C 22.07274 34.05001 -0.03213
C 24.52828 32.6355 0.02239
C 25.80874 31.9165 0.01153
C 25.80321 30.53279 0.02734
C 24.60817 29.79932 -0.0055
C 23.30536 4.90092 -0.00381
C 24.54962 28.39389 0.01515
C 25.77937 26.26536 0.00071
C 24.5592 25.48906 -0.01107
C 24.51433 24.07506 -0.01586
C 25.81179 23.37187 -0.01971
C 25.76654 22.01598 -0.02118
C 24.59037 21.25899 0.00733
C 24.61301 19.77048 -0.00178
C 25.80725 19.17334 0.00768
C 25.86161 17.75434 -0.0276
C 25.74445 27.64467 -0.00225
C 24.64577 17.06835 0.03005
C 23.32599 6.307 0.01852
C 22.13759 8.45662 -0.01185
C 22.07291 29.76845 -0.04076
C 22.06976 28.38346 -0.00652
C 23.28183 27.63644 0.0058
C 23.35513 26.17782 -0.00865
C 22.15768 25.48174 0.00675
C 22.11082 24.02792 -0.00311
C 23.34752 23.39865 0.00742
C 23.29765 21.94816 -0.01594
C 22.09568 21.22758 0.0106
C 22.12317 7.04286 0.01126
C 22.07742 19.84091 -0.01154
C 23.36618 17.7409 -0.02422
C 22.10032 17.02118 0.01277
C 22.17634 15.68229 0.00096
C 23.38986 14.94989 -0.01527
C 23.37888 13.49256 0.01087
C 22.10439 12.77316 0.00199
C 22.15206 11.35783 0.01511
C 23.35221 10.57977 -0.00478
C 23.34428 9.21949 -0.01662
C 23.3357 19.13416 -0.01721
C 29.45611 32.72499 0.01177
C 24.6315 15.60835 -0.04078
C 25.86598 13.4522 0.02737
C 26.98638 21.26613 0.00622
C 27.03933 19.84688 -0.02815
C 28.2555 19.17015 -0.00942
C 28.26244 17.77827 0.00487
C 27.0983 16.97617 0.00826
C 27.11006 15.6377 -0.00294
C 28.32631 14.86514 0.00152
C 28.31171 13.49542 0.01257
C 27.02665 12.76364 0.02316
C 28.26536 22.02665 -0.0032
C 27.07143 11.37178 0.04185
C 28.25485 9.22274 -0.00621
C 27.01152 8.49343 0.02611
C 27.06159 7.10845 0.02198
C 28.27838 6.37321 0.01094
C 28.23551 5.00241 0.00235
C 27.02209 4.21762 0.01495
C 26.98042 2.78478 0.01259
C 28.21236 2.1422 0.01799
C 28.22488 0.71541 0.01699
C 28.19507 10.59554 0.00194
C 25.88283 14.84805 0.02117
C 28.21273 23.40429 -0.00037
C 26.98535 25.49528 -0.00218
C 24.57752 12.7758 -0.00498
C 24.55596 11.33589 0.00135
C 25.81969 10.59066 0.03102
C 25.87223 9.18696 0.02555
C 24.66047 8.46394 0.01423
C 24.57607 7.09728 -0.00285
C 25.81465 6.37912 -0.009
C 25.79512 4.87806 -0.01199
C 24.59055 4.23806 -0.00229
C 27.02988 24.11769 -0.01654
C 24.5464 2.75988 -0.00938
C 25.77445 0.60483 -0.01154
C 24.53332 34.01279 0.00684
C 26.96795 32.62869 -0.01052
C 28.25869 31.91804 -0.01679
C 28.24115 30.56598 0.00367
C 27.04945 29.80126 0.04306
C 27.02829 28.3567 0.00996
C 28.2554 27.62688 0.00195
C 28.21672 26.27807 -0.00802
C 25.79434 2.07451 -0.0264
C 2.41073 32.6937 0.00031
