389
Graphene
C 0.01376 0.01799 0.01295
C 16.02476 30.49187 -0.02162
C 14.69956 29.86831 0.00415
C 14.76743 28.43161 -0.0014
C 16.01003 27.68061 0.02162
C 16.01821 26.27763 0.0076
C 14.76757 25.56527 0.01241
C 14.73368 24.09726 -0.01454
C 15.94388 23.42937 0.01945
C 15.96273 21.97145 0.01416
C 15.99849 31.9333 0.01363
C 16.01373 19.18776 0.03542
C 14.79855 17.00427 0.00244
C 14.78401 15.61611 -0.01717
C 16.03378 14.8733 0.05265
C 15.95273 13.51489 -0.01952
C 14.74903 12.75055 -0.02813
C 14.76034 11.30191 0.00374
C 15.93119 10.61988 0.00052
C 16.04605 9.20309 -0.03682
C 14.7351 8.50802 0.01965
C 16.00648 17.77645 0.02299
C 14.7673 7.04588 0.02058
C 14.73883 32.68771 0.01877
C 13.46994 0.74057 0.00444
C 13.53088 31.97012 0.00572
C 13.51499 30.56745 0.03592
C 12.29937 29.83971 0.00406
C 12.29947 28.39412 0.00943
C 13.50749 27.71953 0.02841
C 13.52716 26.25265 -0.01111
C 12.30162 25.63178 -0.01275
C 13.54405 14.95877 0.00985
C 13.5102 13.50867 -0.02245
C 12.2767 0.04415 -0.00925
C 12.29409 12.76031 -0.00428
C 13.52073 10.62661 -0.01536
C 13.54057 9.24309 -0.02689
C 12.37034 8.53758 -0.01046
C 12.32213 7.06224 -0.00891
C 13.54098 6.39958 0.02819
C 13.54484 4.95856 0.00165
C 12.26337 4.26617 -0.02971
C 12.30486 2.82671 0.02894
C 13.56805 2.15311 -0.01789
C 12.29589 11.37522 0.03101
C 15.99193 6.40147 -0.01957
C 15.96267 5.03046 -0.0108
C 14.75923 4.27857 -0.00368
C 18.42804 10.56364 -0.00109
C 18.44325 9.17729 -0.00491
C 17.20356 8.54224 0.03338
C 17.22826 7.08454 -0.0258
C 18.41704 6.38511 -0.0331
C 18.40851 5.0082 -0.00316
C 17.22296 4.24827 0.02188
C 17.27688 2.87539 -0.01979
C 18.4611 2.1358 0.02691
C 17.22234 11.37127 0.03698
C 18.4592 0.71073 -0.01581
C 19.70471 32.60846 0.04892
C 20.89453 31.96785 -0.00111
C 19.64375 25.52013 -0.03557
C 19.71071 24.12104 0.03754
C 20.93017 23.39418 0.01739
C 20.8824 22.02225 0.00755
C 19.6663 21.28863 -0.0054
C 19.64765 19.89378 0.00667
C 20.87732 19.1828 0.00143
C 17.20896 0.02713 0.01452
C 17.22597 12.78513 -0.02213
C 18.50947 13.47178 0.00028
C 18.45832 14.91168 -0.00289
C 14.77057 2.82784 -0.02696
C 15.99436 2.14649 -0.00114
C 16.01245 0.73951 0.00228
C 14.75384 34.07972 0.00798
C 17.18691 32.66074 0.00422
C 18.43868 31.90659 0.0351
C 18.42503 30.5029 -0.03113
C 17.24304 29.82279 0.02098
C 17.20817 28.37822 0.01848
C 18.43159 27.70834 -0.00619
C 18.42195 26.30735 -0.02162
C 17.20439 25.56164 0.00889
C 17.16314 24.15456 -0.00481
C 18.4233 23.43759 0.00979
C 18.48564 22.01931 0.01443
C 17.18333 21.27551 0.03505
C 17.20272 19.83644 -0.02815
C 18.43769 19.17873 -0.04147
C 18.44786 17.76239 -0.05302
C 17.18546 17.01367 0.00213
C 17.22357 15.59687 -0.00066
C 12.33364 32.68276 0.0402
C 9.81142 0.02481 -0.02759
C 11.06674 0.6842 0.03589
C 11.04193 2.14025 -0.00033
C 2.48378 4.2739 0.0086
C 2.46223 2.86666 -0.00643
C 3.69142 2.11679 0.017
C 3.69547 0.7163 -0.03113
C 2.45031 0.01942 -0.02566
C 4.89418 32.66585 -0.00094
C 6.1269 31.93029 0.02322
C 6.16359 30.53319 -0.00725
C 4.92738 29.80062 -0.05697
C 3.71512 4.99241 -0.00518
C 4.92797 28.42778 0.01087
C 6.14136 26.28778 0.00988
C 4.85835 25.62163 0.0276
C 4.92178 24.17738 0.01305
C 4.91723 15.61521 -0.00077
C 6.11991 14.92982 0.03368
C 6.14973 13.49528 -0.02929
C 4.94732 12.75695 -0.00966
C 4.93286 11.37077 -0.03337
C 6.13414 10.65026 0.01227
C 6.19858 27.66309 -0.01343
C 3.69156 6.38373 -0.00074
C 2.43043 7.0859 0.01465
C 2.44274 8.57815 -0.03996
C 3.7079 30.52717 -0.04999
C 2.49774 29.79303 0.04505
C 2.43643 28.38813 0.03284
C 3.70676 27.66534 -0.04307
C 3.64639 26.22699 0.03189
C 2.48856 25.54451 0.00031
C 2.39588 24.1344 -0.003
C 3.66189 23.48745 0.01402
C 3.65325 22.05708 0.02379
C 2.45631 21.338 0.00907
C 2.48295 19.91489 0.00643
C 3.66456 19.10741 -0.01509
C 3.72651 17.75121 0.03267
C 2.49805 17.08465 0.02374
C 2.49406 15.64038 0.00402
C 3.69118 14.91341 0.0073
C 3.66053 13.45813 0.0174
C 2.43265 12.75775 0.03828
C 2.49127 11.35022 0.01226
C 3.65157 10.66017 -0.00279
C 3.70511 9.254 0.01996
C 6.19129 9.29568 0.00873
C 20.88512 17.74511 -0.017
C 4.96344 8.50539 -0.00049
C 6.2105 6.39362 -0.01303
C 8.60168 0.74836 0.00488
C 7.31688 34.02119 -0.01004
C 9.81772 32.67726 -0.02896
C 11.04723 31.98749 -0.00131
C 11.05082 30.47092 -0.01118
C 9.8239 29.81535 -0.014
C 9.81916 28.42124 0.02147
C 11.05433 27.71586 0.00373
C 11.10887 26.25673 -0.00191
C 8.58846 2.13244 0.01745
C 11.09972 13.49711 0.00438
C 9.87718 11.37576 0.00093
C 11.06647 10.63947 0.00057
C 11.08061 9.25041 -0.01634
C 9.88361 8.55517 -0.00334
C 9.84286 7.12029 0.02339
C 11.05867 6.43637 0.01641
C 11.12285 4.97655 -0.00719
C 9.84024 4.3117 0.01364
C 9.85216 2.90112 -0.01062
C 9.83955 12.82985 0.01291
C 7.3611 2.8845 0.03693
C 7.34515 4.26087 -0.01384
C 8.61483 4.98192 -0.00482
C 6.11368 5.00177 -0.01378
C 4.94415 4.27777 0.02635
C 4.93575 2.84689 0.0127
C 6.16083 2.11255 0.01396
C 6.14053 0.75645 0.01849
C 4.92912 0.04149 -0.01142
C 7.37372 32.64602 -0.00562
C 8.57304 31.91415 -0.00494
C 8.59386 30.54872 0.00054
C 7.37781 29.77941 0.03007
C 7.39469 28.37608 -0.00095
C 8.55271 27.72687 0.01572
C 8.54852 26.27835 -0.04848
C 8.64799 13.51276 -0.00892
C 7.37052 12.75538 -0.01362
C 7.36268 11.40027 -0.0008
C 8.58882 10.64982 0.0288
C 8.62828 9.25254 0.00393
C 7.3752 8.55734 0.00895
C 7.32863 7.12055 0.00685
C 8.58408 6.37652 0.02888
C 4.89651 7.05932 0.00848
C 3.73226 31.96048 -0.03291
C 19.65192 17.07834 0.00364
C 20.91756 14.949 -0.02957
C 30.75144 4.95974 0.07705
C 29.4876 4.24647 0.0103
C 29.51825 2.87006 0.02108
C 30.76908 2.11271 0.00716
C 30.76328 0.72453 0.00307
C 29.50644 34.04863 0.00346
C 31.9426 32.65618 0.01713
C 33.19741 31.94865 -0.01694
C 33.17293 30.56088 0.01428
C 30.78018 6.40819 0.01908
C 31.98969 29.77941 -0.02142
C 33.24394 27.68562 0.00026
C 33.18361 26.28577 0.00682
C 31.96291 25.56448 -0.01779
C 31.99224 24.15518 0.03794
C 33.21273 23.41192 0.01927
C 33.21214 21.98469 0.01574
C 31.99035 21.326 -0.02383
C 32.00625 19.91519 -0.01429
C 33.21024 19.13251 -0.0136
C 32.01997 28.37216 0.0544
C 33.19235 17.7674 0.00594
C 29.52029 7.12027 0.01518
C 30.74836 9.23365 -0.03735
C 30.70851 30.53857 0.01324
C 29.54683 29.77989 0.0014
C 29.49034 28.35331 0.00924
C 30.74663 27.68041 0.02326
C 30.70062 26.24361 0.00261
C 29.48452 25.55503 0.03265
C 29.50526 24.09168 -0.02049
C 30.75957 23.40992 -0.01854
C 30.76324 22.02591 -0.01415
C 29.50073 8.54127 -0.00971
C 29.58588 21.30523 -0.03039
C 30.73108 19.11468 0.03531
C 30.75947 17.73375 -0.00669
C 29.52972 17.01837 0.0101
C 29.49618 15.60616 0.01705
C 30.78971 14.90823 -0.0405
C 30.74502 13.50075 -0.01303
C 29.4943 12.79751 -0.01461
C 29.54517 11.40375 -0.02155
C 30.74458 10.62808 -0.00944
C 29.55224 19.89315 0.01836
C 31.9548 17.06503 -0.02474
C 32.00138 15.5976 0.00369
C 33.21604 14.88115 0.00455
C 0.0209 21.32459 -0.02213
C 0.01701 19.88352 0.01951
C 1.22813 19.15762 -0.01678
C 1.22175 17.75978 0.01223
C 0.00525 17.02061 0.00648
C 0.00855 15.64771 0.02114
C 1.20381 14.85951 -0.02957
C 1.20851 13.48401 0.00343
C 34.42783 12.74789 -0.02656
C 1.24959 22.02881 0.02712
C 34.37491 11.34948 -0.02442
C 1.19968 9.23299 -0.00583
C 34.4138 8.49817 -0.02302
C 34.40907 7.10059 -0.02849
C 1.20701 6.33209 0.02931
C 1.22089 4.98773 0.00628
C 0.00692 4.25439 -0.0345
C 0.01113 2.8282 -0.00931
C 1.25775 2.13325 -0.00939
C 1.22757 0.69026 -0.00468
C 1.18134 10.69033 -0.00027
C 1.22849 23.46224 0.00723
C 0.01232 24.12068 0.03076
C 0.00151 25.57995 -0.05239
C 33.20566 13.49965 -0.00644
C 31.95999 12.80264 -0.01839
C 31.9572 11.37239 0.00137
C 33.16633 10.65106 0.00199
C 33.16163 9.23615 0.04381
C 31.98386 8.53304 0.02806
C 31.9669 7.12128 0.01504
C 33.20806 6.39826 -0.00069
C 33.1898 4.95244 0.04926
C 31.96504 4.25803 -0.03838
C 31.97035 2.87784 0.00349
C 33.18732 2.16296 -0.00323
C 33.20339 0.65448 -0.00841
C 31.97702 34.06409 0.0001
C 34.39357 32.64882 -0.02927
C 1.23272 31.9825 -0.01404
C 1.26211 30.52426 0.01027
C 34.37919 29.77898 0.01831
C 34.42003 28.41953 -0.01037
C 1.24112 27.66167 -0.00439
C 1.23598 26.2397 -0.00598
C 30.74578 31.94323 0.04266
C 29.50203 32.6324 0.01177
C 27.06597 34.06594 -0.00416
C 28.29805 0.71029 0.01699
C 23.33986 14.87584 0.01852
C 23.3841 13.43636 -0.00381
C 22.12811 12.75242 0.03046
C 22.12873 11.35157 0.0296
C 23.36062 10.63127 0.03374
C 23.39365 9.20164 -0.02845
C 22.12869 8.53334 -0.03213
C 22.09541 7.14753 0.02239
C 23.35132 6.37775 0.01153
C 22.16741 15.55689 0.01126
C 23.30266 4.95459 0.02734
C 22.15662 2.84238 0.01515
C 23.36797 2.13158 -0.00225
C 23.28551 0.74826 0.00071
C 22.09166 34.03365 -0.01107
C 24.60876 32.64708 -0.01586
C 25.82322 31.95035 -0.01971
C 25.83438 30.49677 -0.02118
C 25.83217 27.67417 0.00733
C 25.83785 26.23139 -0.00178
C 22.11161 4.25471 -0.0055
C 22.13927 16.98727 -0.01185
C 23.33024 17.73334 -0.01662
C 23.35999 19.19017 -0.00478
C 20.93239 13.4732 -0.04422
C 19.72829 12.78183 0.00654
C 19.64242 11.30233 -0.00703
C 20.9209 10.63762 -0.04076
C 20.94908 9.24896 -0.00652
C 19.68451 8.49883 0.0058
C 19.69688 7.09966 -0.00865
C 20.90434 6.39095 0.00675
C 20.89773 4.98483 -0.00311
C 19.71011 4.24975 0.00742
C 19.73664 2.81059 -0.01594
C 20.94179 2.13524 0.0106
C 20.90067 0.74552 -0.01154
C 19.68676 34.03418 -0.01721
C 22.09966 32.65382 -0.02422
C 23.38932 31.94899 0.01277
C 22.08942 24.14622 0.00096
C 23.33133 23.44101 -0.01527
C 23.37393 21.99755 0.01087
C 22.12188 21.30117 0.00199
C 22.11586 19.86193 0.01511
C 24.58903 25.56844 0.00768
C 19.68322 15.6711 -0.00831
C 24.58864 24.14638 -0.0276
C 25.81353 22.02438 -0.04078
C 28.32962 26.28339 -0.0032
C 27.07859 25.5371 0.00622
C 27.01507 24.09432 -0.02815
C 28.30276 23.43362 -0.00942
C 28.26302 21.97429 0.00487
C 27.12336 21.32652 0.00826
C 27.02243 15.65245 -0.00294
C 28.28262 14.89163 0.00152
C 28.29889 13.48699 0.01257
C 28.23027 27.68003 -0.00037
C 26.99502 12.76682 0.02316
C 28.26684 10.64693 0.00194
C 28.26684 9.24128 -0.00621
C 27.08838 8.50912 0.02611
C 26.99876 7.07021 0.02198
C 28.30244 6.38317 0.01094
C 28.26858 4.97966 0.00235
C 27.02078 4.23645 0.01495
C 27.03843 2.86789 0.01259
C 28.287 2.1245 0.01799
C 27.06145 11.33537 0.04185
C 27.03559 28.41193 -0.01654
C 27.06765 29.79514 -0.00218
C 28.30831 30.54102 -0.00802
C 24.57514 21.29255 0.02117
C 24.60597 19.89002 0.02737
C 24.68149 17.12046 -0.00498
C 24.60204 15.65111 0.00135
C 25.80465 14.86401 0.03102
C 25.80024 13.44667 0.02555
C 24.59157 12.8055 0.01423
C 24.57673 11.35618 -0.00285
C 25.827 10.63438 -0.009
C 25.87598 9.22704 -0.01199
C 24.59094 8.55079 -0.00229
C 24.61251 7.12932 -0.00938
C 25.79771 6.36722 -0.0264
C 25.84771 5.00892 -0.01154
C 24.58543 4.26373 0.00684
C 24.56754 2.79454 -0.01052
C 25.84023 2.10459 -0.01679
C 25.81628 0.70914 0.00367
C 24.59728 0.01295 0.04306
C 27.05028 32.65895 0.00996
C 28.29825 31.93458 0.00195
C 25.81287 23.47549 0.03005
C 2.50774 32.71932 0.02769
