408
Graphene
C 0.01435 0.02384 0.01295
C 13.56059 23.40018 -0.01536
C 13.4938 22.05829 -0.02689
C 12.31662 21.34685 -0.01046
C 12.35657 19.86121 -0.00891
C 13.5873 19.20077 0.02819
C 13.55131 17.77744 0.00165
C 12.25917 17.03135 -0.02971
C 12.26684 15.60609 0.02894
C 13.48341 14.8419 -0.01789
C 12.2809 2.80584 0.00444
C 13.56494 2.1753 -0.00925
C 13.55451 0.68064 0.01877
C 12.33882 34.06654 0.01363
C 14.78781 32.62686 -0.02162
C 15.94644 32.01694 0.00415
C 16.00146 30.51426 -0.0014
C 14.7652 29.7699 0.02162
C 14.71723 28.35376 0.0076
C 16.03275 27.62569 0.01241
C 15.95455 26.22699 -0.01454
C 14.72169 25.60326 0.01945
C 12.30018 24.10946 0.03101
C 12.25856 25.61171 -0.00428
C 13.45357 26.33047 -0.02245
C 13.54136 27.72789 0.00985
C 9.88286 24.15574 0.00438
C 11.07531 23.45149 0.01291
C 11.0993 22.022 0.00093
C 9.83674 21.31228 0.00057
C 9.85138 19.88727 -0.01634
C 11.11578 19.20721 -0.00334
C 11.08634 17.83642 0.02339
C 9.83265 17.06927 0.01641
C 9.84187 15.68711 -0.00719
C 11.07893 14.87865 0.01364
C 14.75636 24.15296 0.01416
C 11.0821 13.53798 -0.01062
C 9.89096 4.23745 0.03589
C 9.81509 2.78802 -0.02759
C 11.06621 2.16491 0.0402
C 11.07631 0.67064 0.00572
C 9.75775 0.00625 0.03592
C 12.30915 32.65906 0.00406
C 13.58277 31.94497 0.00943
C 13.52184 30.55995 0.02841
C 12.30933 29.84142 -0.01111
C 12.26482 28.50106 -0.01275
C 9.83321 12.8262 -0.00033
C 9.82698 25.53266 -0.00191
C 15.97689 23.40397 0.03542
C 14.77893 21.33504 0.00244
C 17.22663 15.59708 0.01443
C 18.41626 14.9049 0.03505
C 17.2066 2.85039 -0.02815
C 18.47111 2.13664 -0.04147
C 18.48656 0.78692 -0.05302
C 17.21289 34.04254 0.00213
C 19.68538 32.66119 -0.00066
C 20.91623 31.9435 -0.00289
C 20.97155 30.49594 0.00028
C 19.65709 29.81715 -0.02213
C 19.65755 28.38577 0.03698
C 20.92064 27.61524 -0.00109
C 20.91629 26.21327 -0.00491
C 19.63979 25.5862 0.03338
C 19.64419 24.13621 -0.0258
C 20.86666 23.43248 -0.0331
C 20.82844 22.06395 -0.00316
C 19.65921 21.32757 0.02188
C 19.68424 19.89026 -0.01979
C 20.94001 19.1662 0.02691
C 20.92621 17.75053 -0.01581
C 17.20948 17.05709 0.00979
C 18.42929 17.78848 -0.00481
C 18.47708 19.20061 0.00889
C 17.21237 19.90315 -0.02162
C 14.77929 19.8495 -0.01717
C 15.97966 19.13236 0.05265
C 15.96525 17.72372 -0.01952
C 14.77734 17.05494 -0.02813
C 14.73364 15.5935 0.00374
C 15.94203 14.91741 0.00052
C 14.74854 2.86481 -0.03682
C 15.99113 2.13244 0.01965
C 15.94434 0.68044 0.02058
C 14.74641 0.01493 -0.01957
C 16.05216 21.99572 0.02299
C 17.195 32.65278 -0.0108
C 18.44624 30.45946 -0.02696
C 17.18722 29.79883 -0.00114
C 17.22156 28.3911 0.00228
C 18.40564 27.67369 0.00798
C 18.43719 26.27443 0.00422
C 17.26192 25.54982 0.0351
C 17.18175 24.16122 -0.03113
C 18.46123 23.38446 0.02098
C 18.42908 21.99976 0.01848
C 17.21618 21.31327 -0.00619
C 18.45955 31.98383 -0.00368
C 19.68577 16.99225 0.01452
C 11.04825 26.29712 0.00373
C 9.80247 28.41961 -0.014
C 2.41938 2.85749 0.01402
C 3.67762 2.15949 0.02379
C 3.6886 0.78274 0.00907
C 2.48003 34.04764 0.00643
C 4.90843 32.69266 -0.01509
C 6.16579 31.95435 0.03267
C 6.17495 30.55095 0.02374
C 4.90287 29.87456 0.00402
C 4.94096 28.42628 0.0073
C 6.13463 27.66775 0.0174
C 6.11732 26.25165 0.03828
C 4.89552 25.57532 0.01226
C 4.91256 24.12012 -0.00279
C 6.20009 23.45821 0.01996
C 6.13773 22.00624 -0.03996
C 4.98578 21.28043 0.01465
C 4.92607 19.86961 -0.00074
C 6.11201 19.15876 -0.00518
C 6.15474 17.82596 0.0086
C 4.91777 17.04731 -0.00643
C 4.94649 15.62209 0.017
C 2.43617 4.29753 -0.003
C 3.73051 4.95489 0.00031
C 3.6486 6.33889 0.03189
C 2.4791 7.06158 -0.04307
C 3.63385 30.48753 0.00558
C 2.4353 29.8889 -0.0059
C 2.44234 28.41667 -0.01386
C 3.66954 27.69275 -0.02805
C 3.72214 26.30099 0.00081
C 2.46716 25.49073 0.00245
C 2.49322 24.151 0.02728
C 3.68791 23.4685 -0.00039
C 3.6689 22.03035 0.0064
C 2.45184 21.28373 0.00211
C 6.12896 14.85805 -0.03113
C 2.46438 19.84944 -0.00449
C 3.70299 17.74932 0.02784
C 2.43925 17.00984 -0.01977
C 2.45695 15.62995 -0.00561
C 3.70679 14.96947 0.00208
C 3.66857 13.51216 0.01707
C 2.51732 12.80362 0.02769
C 2.53907 11.34611 -0.03291
C 3.72499 10.67015 -0.04999
C 3.66759 9.12962 0.04505
C 2.43719 8.47997 0.03284
C 3.66755 19.16118 -0.01979
C 11.01479 27.6545 0.02147
C 6.159 13.48 -0.02566
C 4.89762 11.36782 0.02322
C 7.36452 17.04564 0.03007
C 7.39999 15.55928 -0.00095
C 8.58168 14.94491 0.01572
C 8.57673 13.50414 -0.04848
C 7.40266 12.78825 -0.00892
C 7.35169 11.35186 -0.01362
C 8.60059 10.65983 -0.0008
C 8.64823 9.29156 0.0288
C 7.38927 8.54544 0.00393
C 7.36091 7.14345 0.00895
C 8.63226 6.40012 0.00685
C 8.63697 5.00062 0.02888
C 7.36593 4.28716 -0.00482
C 7.38998 2.86276 -0.01384
C 8.57518 2.18891 0.03693
C 8.57286 0.73189 0.01745
C 7.37985 0.01408 0.00488
C 9.74821 32.6728 -0.01004
C 11.06005 32.0131 -0.02896
C 11.08522 30.54648 -0.00131
C 9.87268 29.79269 -0.01118
C 8.59573 17.77409 0.00054
C 8.58755 19.18368 -0.00494
C 7.38662 19.87727 -0.00562
C 7.35517 21.30495 -0.01142
C 6.12203 10.65901 -0.00725
C 6.145 9.22005 -0.05697
C 4.93484 8.51652 0.01087
C 4.87396 7.13485 -0.01343
C 6.11069 6.42025 0.00988
C 6.16811 5.04179 0.0276
C 4.93287 4.23745 0.01305
C 4.90615 2.8731 -0.00077
C 6.10593 2.13556 0.03368
C 6.17033 0.69966 -0.02929
C 4.8934 12.81302 -0.00094
C 4.85712 0.0125 -0.00966
C 8.56181 31.95594 0.01227
C 8.61981 30.50191 0.00873
C 7.39888 29.85558 -0.00049
C 7.33093 28.39467 0.00848
C 8.62944 27.73077 -0.01303
C 8.61469 26.27355 -0.01378
C 7.38469 25.56015 0.02635
C 7.38428 24.17339 0.0127
C 8.64702 23.43062 0.01396
C 8.63547 22.06904 0.01849
C 7.34754 32.64625 -0.03337
C 19.66143 15.60415 0.04892
C 20.90148 14.9127 -0.00111
C 20.84299 13.51583 -0.03557
C 29.54032 8.51816 -0.00971
C 29.53145 7.0612 0.01518
C 30.79421 6.38074 0.01908
C 30.74111 4.99847 0.07705
C 29.495 4.27367 0.0103
C 29.5359 2.85199 0.02108
C 30.7335 2.11084 0.00716
C 30.73963 0.68245 0.00307
C 29.49736 0.00104 0.00346
C 31.99374 32.68705 0.01713
C 33.2116 31.88872 -0.01694
C 33.23198 30.49735 0.01428
C 31.99605 29.82163 -0.02142
C 31.99 28.42772 0.0544
C 33.21198 27.66424 0.00026
C 33.14961 26.28666 0.00682
C 32.0038 25.51141 -0.01779
C 31.95005 24.11231 0.03794
C 33.19042 23.4387 0.01927
C 33.18878 21.97934 0.01574
C 31.96363 21.33497 -0.02383
C 30.73342 9.252 -0.03735
C 30.75836 10.58918 -0.00944
C 29.55718 11.3534 -0.02155
C 29.50341 12.81845 -0.01461
C 28.34079 2.10748 0.01799
C 28.27684 0.63963 0.01699
C 27.0642 34.07082 -0.00416
C 29.52857 32.63526 0.01177
C 30.73269 31.92504 0.04266
C 30.75316 30.5085 0.01324
C 29.51345 29.82093 0.0014
C 29.50462 28.39445 0.00924
C 30.78101 27.72468 0.02326
C 30.71075 26.25977 0.00261
C 32.00627 19.92971 -0.01429
C 29.47211 25.55717 0.03265
C 30.75197 23.44434 -0.01854
C 30.74552 22.0259 -0.01415
C 29.58248 21.34833 -0.03039
C 29.54928 19.8612 0.01836
C 30.71833 19.12447 0.03531
C 30.74598 17.75744 -0.00669
C 29.50634 17.04818 0.0101
C 29.54481 15.66093 0.01705
C 30.7393 14.85325 -0.0405
C 30.7171 13.47347 -0.01303
C 29.50117 24.09228 -0.02049
C 27.115 2.84734 0.01259
C 33.15571 19.14653 -0.0136
C 31.93665 17.05549 -0.02474
C 1.20072 21.98948 0.02712
C 34.39989 21.29335 -0.02213
C 34.42014 19.83878 0.01951
C 1.23958 19.23162 -0.01678
C 1.2264 17.77874 0.01223
C 0.00124 17.01586 0.00648
C 34.42423 15.59833 0.02114
C 1.18785 14.88283 -0.02957
C 1.18618 13.5091 0.00343
C 0.00756 12.77187 -0.02656
C 0.01291 11.32965 -0.02442
C 1.2335 10.6681 -0.00027
C 1.20116 9.25973 -0.00583
C 34.42772 8.54887 -0.02302
C 34.41812 7.15074 -0.02849
C 1.19033 6.38271 0.02931
C 1.19318 4.95244 0.00628
C 0.00072 4.26197 -0.0345
C 0.02122 2.82779 -0.00931
C 1.26304 2.14047 -0.00939
C 1.23514 0.68377 -0.00468
C 1.21074 23.43868 0.00723
C 34.40951 24.16664 0.03076
C 34.41329 25.64594 -0.05239
C 1.24618 26.22094 -0.00598
C 31.99318 15.57493 0.00369
C 33.17196 14.8797 0.00455
C 33.22188 13.49146 -0.00644
C 31.99318 12.78311 -0.01839
C 31.91136 11.29223 0.00137
C 33.15774 10.6406 0.00199
C 33.19724 9.23917 0.04381
C 31.96905 8.47783 0.02806
C 31.93734 7.13126 0.01504
C 33.2217 6.36735 -0.00069
C 33.19557 17.74916 0.00594
C 33.23217 4.98509 0.04926
C 31.95985 2.84825 0.00349
C 33.21458 2.07276 -0.00323
C 33.18792 0.67166 -0.00841
C 31.94685 34.06903 0.0001
C 0.0043 32.65599 -0.02927
C 1.2682 31.94143 -0.01404
C 1.21759 30.56006 0.01027
C 34.36551 29.81275 0.01831
C 34.38515 28.3978 -0.01037
C 1.23656 27.6146 -0.00439
C 31.94426 4.27797 -0.03838
C 27.08213 4.23954 0.01495
C 28.31067 4.96521 0.00235
C 28.22705 6.39366 0.01094
C 22.06452 15.5548 0.00096
C 23.35989 14.90078 -0.01527
C 23.3811 13.45314 0.01087
C 22.17704 12.72551 0.00199
C 22.15136 11.31372 0.01511
C 23.39571 10.63997 -0.00478
C 23.33877 9.23932 -0.01662
C 22.13639 8.45723 -0.01185
C 22.12288 7.05101 0.01126
C 23.34577 6.38676 0.01852
C 23.40291 4.91376 -0.00381
C 22.20615 4.21594 0.03046
C 22.12752 2.81017 0.0296
C 23.35673 2.10396 0.03374
C 23.37566 0.70499 -0.02845
C 22.13521 34.05159 -0.03213
C 24.6361 32.71159 0.02239
C 25.8125 31.9351 0.01153
C 25.7981 30.52753 0.02734
C 24.61315 29.80252 -0.0055
C 24.64364 28.42103 0.01515
C 22.1554 17.05486 0.01277
C 23.34545 17.77607 -0.02422
C 23.37969 19.11153 -0.01721
C 22.1208 19.89892 -0.01154
C 19.7221 12.80368 0.03754
C 20.89944 10.65605 0.01739
C 20.86669 9.25001 0.00755
C 20.9366 6.40304 -0.0054
C 20.86072 5.00806 0.00667
C 19.68915 4.22561 0.00143
C 19.70913 2.86094 -0.017
C 20.90547 2.21334 0.00364
C 20.9213 0.6869 -0.00831
C 19.70211 0.06104 -0.02957
C 25.84352 27.69916 -0.00225
C 22.17183 32.64942 -0.04422
C 23.30336 30.48373 -0.00703
C 22.17391 29.82718 -0.04076
C 22.15041 28.3778 -0.00652
C 23.48757 27.72161 0.0058
C 23.33761 26.28979 -0.00865
C 22.15171 25.54938 0.00675
C 22.13768 24.1238 -0.00311
C 23.30056 23.42951 0.00742
C 23.32032 21.98892 -0.01594
C 22.10521 21.2871 0.0106
C 23.34432 31.97116 0.00654
C 25.82974 26.26619 0.00071
C 24.51882 25.51324 -0.01107
C 24.59246 24.13374 -0.01586
C 27.03758 29.85055 0.04306
C 27.01813 28.38315 0.00996
C 28.25481 27.71408 0.00195
C 28.28442 26.28668 -0.00802
C 27.05584 25.57128 -0.00218
C 27.03847 24.15715 -0.01654
C 28.29095 23.34714 -0.00037
C 28.32539 22.01002 -0.0032
C 27.03891 21.27567 0.00622
C 27.05484 19.85752 -0.02815
C 28.34676 30.59967 0.00367
C 28.2941 19.16795 -0.00942
C 27.00443 16.9933 0.00826
C 27.03143 15.61034 -0.00294
C 28.28006 14.93313 0.00152
C 28.25245 13.5165 0.01257
C 27.04761 12.74706 0.02316
C 27.10266 11.37401 0.04185
C 28.32257 10.663 0.00194
C 28.27334 9.24912 -0.00621
C 27.0445 8.48681 0.02611
C 27.04782 7.12793 0.02198
C 28.27694 17.7404 0.00487
C 3.65273 31.96161 -0.02375
C 28.28464 31.92549 -0.01679
C 24.59358 34.07525 0.00684
C 25.80353 23.43381 -0.01971
C 25.81892 22.00279 -0.02118
C 24.59596 21.28089 0.00733
C 24.57934 19.89777 -0.00178
C 25.83986 19.19761 0.00768
C 25.78258 17.76862 -0.0276
C 24.59638 17.02931 0.03005
C 24.56984 15.62395 -0.04078
C 25.81536 14.96508 0.02117
C 25.85888 13.48416 0.02737
C 27.03857 32.59221 -0.01052
C 24.69188 12.80688 -0.00498
C 25.79758 10.67968 0.03102
C 25.82237 9.22208 0.02555
C 24.59667 8.55033 0.01423
C 24.60141 7.06922 -0.00285
C 25.83613 6.3321 -0.009
C 25.79892 4.9186 -0.01199
C 24.62481 4.26639 -0.00229
C 24.59861 2.84043 -0.00938
C 25.78014 2.15924 -0.0264
C 25.84465 0.71892 -0.01154
C 24.56707 11.39 0.00135
C 2.47973 32.666 0.00828
