337
Graphene
C 34.42401 34.07271 0.01295
C 11.05082 5.03499 -0.00481
C 9.78893 4.33445 0.00979
C 9.81268 2.88497 0.01443
C 11.08628 2.12348 0.03505
C 11.06183 0.7051 -0.02815
C 9.79948 0.05246 -0.04147
C 12.33741 32.61801 -0.05302
C 13.48966 31.81556 0.00213
C 13.29303 30.36226 -0.00066
C 11.9895 29.65569 -0.00289
C 13.50628 13.52602 0.00028
C 12.29044 12.87443 -0.02213
C 12.39692 11.31615 0.03698
C 13.53752 10.61525 -0.00109
C 13.59483 9.24787 -0.00491
C 12.37734 8.59503 0.03338
C 12.28082 7.14342 -0.0258
C 11.0549 6.43589 0.00889
C 13.5523 6.41605 -0.0331
C 9.85725 7.18348 -0.02162
C 11.14606 9.27999 0.01848
C 8.57191 5.07313 -0.02813
C 7.29726 4.31418 0.00374
C 7.34627 2.9394 0.00052
C 8.56091 2.16324 -0.03682
C 8.56283 0.72601 0.01965
C 7.36149 0.11394 0.02058
C 9.86003 32.78002 -0.01957
C 11.07305 31.96349 -0.0108
C 10.95548 30.54522 -0.00368
C 9.71491 29.97424 -0.02696
C 9.91001 28.49924 -0.00114
C 9.73344 15.64711 0.00228
C 10.93339 14.99928 0.00798
C 11.08885 13.53869 0.00422
C 9.8686 12.83677 0.0351
C 9.94947 11.41965 -0.03113
C 11.15867 10.65401 0.02098
C 9.88609 8.58896 -0.00619
C 8.62284 6.50843 -0.01952
C 13.56164 5.00357 -0.00316
C 12.23827 2.83847 -0.01979
C 18.51203 13.62665 0.0058
C 17.31531 12.73697 -0.00865
C 17.27655 11.27908 0.00675
C 18.46272 10.65491 -0.00311
C 18.49456 9.25016 0.00742
C 17.17907 8.66564 -0.01594
C 17.14272 7.16537 0.0106
C 18.39296 6.46549 -0.01154
C 18.4113 5.05354 -0.01721
C 17.202 4.19597 -0.02422
C 17.16465 2.76171 0.01277
C 18.40225 2.01559 0.00096
C 18.43146 0.62516 -0.01527
C 17.18696 34.06619 0.01087
C 19.61356 32.62534 0.00199
C 21.2255 15.09691 0.01511
C 20.97987 13.64135 -0.00478
C 18.40978 32.03618 -0.00652
C 12.28724 4.28798 0.02188
C 17.16443 32.62381 -0.04076
C 15.95881 0.54136 0.00654
C 13.51874 2.04238 0.02691
C 13.48208 0.62092 -0.01581
C 12.24888 0.00361 0.01452
C 14.72959 32.53103 0.04892
C 15.97419 31.8811 -0.00111
C 15.74214 30.56302 -0.03557
C 14.63576 29.82295 0.03754
C 16.03647 12.79023 0.01739
C 14.78802 13.45251 0.00755
C 16.05998 9.38273 -0.0054
C 14.87477 8.52749 0.00667
C 14.74163 7.12596 0.00143
C 15.97115 6.45642 -0.017
C 15.98066 4.93307 0.00364
C 14.72657 4.27264 -0.00831
C 14.77917 2.79435 -0.02957
C 15.96101 2.01039 -0.04422
C 14.72782 33.95342 -0.00703
C 7.28409 7.19959 0.05265
C 7.34014 8.58053 -0.01717
C 8.64713 9.25015 0.00244
C 2.47623 8.5277 0.01745
C 2.37907 7.0636 0.00488
C 3.60127 6.40221 -0.01004
C 3.64129 5.00437 -0.02896
C 2.45316 4.26916 -0.00131
C 2.44683 2.93754 -0.01118
C 3.67377 2.19424 -0.014
C 3.69633 0.77002 0.02147
C 2.451 0.10719 0.00373
C 4.94496 32.69619 -0.00191
C 6.19783 32.0668 0.00438
C 6.17666 30.62699 0.01291
C 4.9392 29.87772 0.00093
C 4.93076 28.4661 0.00057
C 6.22594 27.75325 -0.01634
C 6.20126 26.23473 -0.00334
C 4.96396 25.49848 0.02339
C 3.6625 9.25829 0.03693
C 4.93573 24.09149 0.01641
C 3.69668 10.71397 -0.01384
C 2.3234 12.83685 0.02888
C 3.69751 30.59825 0.01396
C 2.39554 29.91004 0.01849
C 2.4156 28.50832 -0.01142
C 3.6941 27.72866 -0.00562
C 3.69908 26.32852 -0.00494
C 2.44451 25.58839 0.00054
C 2.49792 24.16186 0.03007
C 3.662 23.42472 -0.00095
C 3.64107 21.99232 0.01572
C 2.47135 21.25404 -0.04848
C 2.39178 19.87439 -0.00892
C 3.64672 19.19585 -0.01362
C 3.69907 17.78323 -0.0008
C 2.44144 17.05605 0.0288
C 2.4408 15.58136 0.00393
C 3.70337 14.87314 0.00895
C 3.64974 13.4149 0.00685
C 2.44729 11.34342 -0.00482
C 6.14811 23.40351 -0.00719
C 6.22626 22.02446 0.01364
C 4.87136 21.26801 -0.01062
C 8.47626 30.68947 0.02894
C 7.35555 29.83218 -0.01789
C 7.44088 28.45434 0.00444
C 8.71547 27.65738 -0.00925
C 8.50667 26.35118 0.01877
C 7.35858 25.51701 0.01363
C 7.33215 24.09934 -0.02162
C 7.22479 21.11208 0.00415
C 7.41165 19.86469 -0.0014
C 8.51341 17.87222 0.02162
C 7.41488 17.10305 0.0076
C 7.34066 15.57686 0.01241
C 8.5563 14.99448 -0.01454
C 8.69692 13.5033 0.01945
C 7.44547 12.74438 0.01416
C 7.43276 11.33895 0.03542
C 8.6809 10.68996 0.02299
C 8.59027 32.08236 -0.02971
C 7.30726 32.82548 0.00165
C 4.93721 0.08222 0.02819
C 6.12339 0.7879 -0.00891
C 4.84085 19.84913 -0.00033
C 6.1123 19.1154 0.03589
C 6.03061 17.7055 -0.02759
C 4.84294 16.97764 0.0402
C 4.90531 15.61752 0.00572
C 6.13044 14.9171 0.03592
C 6.19914 13.51565 0.00406
C 4.96226 12.77345 0.00943
C 19.68667 12.8873 -0.01662
C 4.92258 11.33266 0.02841
C 6.1126 9.26346 -0.01275
C 4.86586 8.55992 0.00985
C 4.756 7.14032 -0.02245
C 6.02586 6.4546 -0.00428
C 6.07121 5.04878 0.03101
C 4.85785 4.32822 -0.01536
C 4.90945 2.87233 -0.02689
C 6.10296 2.17039 -0.01046
C 6.12977 10.72951 -0.01111
C 3.69378 31.97875 0.0127
C 19.68684 11.38492 -0.01185
C 20.97101 9.23311 0.01852
C 31.97416 28.37817 0.0544
C 33.21283 27.67653 0.00026
C 33.23912 26.29476 0.00682
C 32.06513 25.53591 -0.01779
C 32.05795 24.12538 0.03794
C 33.21283 23.38876 0.01927
C 33.18644 22.01314 0.01574
C 32.03486 21.23854 -0.02383
C 32.01117 19.8529 -0.01429
C 33.21392 19.17559 -0.0136
C 33.09698 17.73561 0.00594
C 31.87088 16.98181 -0.02474
C 31.86699 15.56668 0.00369
C 33.07091 14.76468 0.00455
C 33.04269 13.32084 -0.00644
C 31.8005 12.47813 -0.01839
C 31.89245 11.07035 0.00137
C 31.9135 29.8032 -0.02142
C 33.20725 10.58405 0.00199
C 33.10318 30.54186 0.01428
C 31.90114 32.63521 0.01713
C 30.70143 19.26744 0.0101
C 30.65694 17.83107 0.01705
C 29.37634 17.02659 -0.0405
C 29.44964 15.52886 -0.01303
C 30.68565 14.80069 -0.01461
C 30.57344 13.28397 -0.02155
C 29.25593 12.59082 -0.00944
C 30.95864 9.52446 -0.03735
C 29.65456 8.79857 -0.00971
C 29.54424 7.31283 0.01518
C 30.68098 6.44603 0.01908
C 30.65814 4.98431 0.07705
C 29.44579 4.31285 0.0103
C 29.47772 2.85151 0.02108
C 30.7125 2.11207 0.00716
C 30.67062 0.68339 0.00307
C 29.42532 0.01082 0.00346
C 33.12071 31.94391 -0.01694
C 29.44521 19.96285 -0.00669
C 33.37501 9.10913 0.04381
C 32.01915 7.05756 0.01504
C 1.1027 17.73287 0.01223
C 34.24274 17.00044 0.00648
C 34.33729 15.54514 0.02114
C 1.17327 14.93015 -0.02957
C 1.09083 13.53138 0.00343
C 34.35434 12.7984 -0.02656
C 0.00437 11.33022 -0.02442
C 1.26192 10.58367 -0.00027
C 1.28461 9.22638 -0.00583
C 0.09975 8.48196 -0.02302
C 0.00262 7.06861 -0.02849
C 1.16831 6.35334 0.02931
C 1.22635 4.9378 0.00628
C 34.38078 4.25061 -0.0345
C 34.34653 2.79616 -0.00931
C 1.19521 2.13082 -0.00939
C 1.21244 0.71825 -0.00468
C 1.16565 19.17561 -0.01678
C 31.96525 8.5893 0.02806
C 34.432 19.92472 0.01951
C 1.2527 21.98108 0.02712
C 33.21086 6.35235 -0.00069
C 33.18027 4.96556 0.04926
C 31.90028 4.27715 -0.03838
C 31.905 2.78706 0.00349
C 33.12459 2.12449 -0.00323
C 33.15285 0.70124 -0.00841
C 31.85957 34.03083 0.0001
C 0.00852 32.6338 -0.02927
C 1.247 32.00295 -0.01404
C 1.14863 30.63656 0.01027
C 34.38284 29.93023 0.01831
C 34.35609 28.51103 -0.01037
C 1.17812 27.91835 -0.00439
C 1.23793 26.37033 -0.00598
C 0.02593 25.56498 -0.05239
C 34.4131 24.12762 0.03076
C 1.23027 23.45161 0.00723
C 34.42616 21.34175 -0.02213
C 29.37671 21.40445 0.03531
C 30.85876 21.99806 0.01836
C 30.8077 23.40332 -0.03039
C 23.24559 4.98529 0.03005
C 22.07766 4.26899 -0.04078
C 22.10397 2.86771 0.02117
C 23.25923 2.16069 0.02737
C 23.3044 0.75222 -0.00498
C 22.20084 33.8839 0.00135
C 24.46195 32.64133 0.03102
C 25.63648 32.03171 0.02555
C 25.95877 19.17374 0.01423
C 25.48329 17.79415 -0.00285
C 24.23103 17.00418 -0.009
C 24.55791 15.64345 -0.01199
C 25.83088 14.9864 -0.00229
C 25.72087 13.57098 -0.00938
C 24.62346 12.76669 -0.0264
C 24.49841 11.3417 -0.01154
C 25.76795 10.58176 0.00684
C 23.30855 6.41622 -0.0276
C 25.8676 9.20866 -0.01052
C 22.10899 7.09383 0.00768
C 23.29493 9.22471 0.00733
C 19.65674 8.59107 -0.00381
C 19.66298 7.12584 0.03046
C 20.8426 6.36186 0.0296
C 20.88673 5.01251 0.03374
C 19.63117 4.35039 -0.02845
C 19.6006 2.77842 -0.03213
C 20.88345 2.03642 0.02239
C 20.84703 0.72021 0.01153
C 19.67403 34.06408 0.02734
C 22.44023 32.49463 -0.0055
C 22.81624 16.98246 0.01515
C 22.18942 15.93591 -0.00225
C 23.42715 14.83812 0.00071
C 23.39912 13.511 -0.01107
C 22.13754 12.84287 -0.01586
C 22.13171 11.42646 -0.01971
C 23.29521 10.67806 -0.02118
C 22.11458 8.48954 -0.00178
C 24.51771 8.55587 -0.01679
C 24.60247 7.12945 0.00367
C 25.78914 6.40207 0.04306
C 27.0574 7.18354 0.00235
C 28.33002 6.47538 0.01495
C 28.17292 4.97883 0.01259
C 26.96098 4.23797 0.01799
C 27.04112 2.81669 0.01699
C 28.26523 2.09412 -0.00416
C 28.24508 0.67108 0.01177
C 26.97126 34.07581 0.04266
C 29.49474 32.67598 0.01324
C 30.65882 31.9472 0.0014
C 30.64645 30.47536 0.00924
C 29.36115 29.72211 0.02326
C 29.40163 28.18045 0.00261
C 30.69486 27.70063 0.03265
C 30.80561 26.28222 -0.02049
C 29.70703 25.34859 -0.01854
C 29.42502 24.03065 -0.01415
C 27.15589 8.63186 0.01094
C 28.3735 9.49167 0.02198
C 28.32513 11.00431 0.02611
C 26.96291 11.41852 -0.00621
C 25.77181 4.94763 0.00996
C 24.54676 4.1902 0.00195
C 24.55376 2.78618 -0.00802
C 25.83394 2.0589 -0.00218
C 25.80214 0.68954 -0.01654
C 24.55879 0.05186 -0.00037
C 26.98989 32.63257 -0.0032
C 28.27105 31.81504 0.00622
C 20.90746 10.69634 0.01126
C 28.15106 30.45259 -0.02815
C 27.00647 19.95298 0.00487
C 28.28756 19.21467 0.00826
C 28.19635 17.7615 -0.00294
C 26.86676 17.10288 0.00152
C 26.91914 15.70615 0.01257
C 28.16845 14.9705 0.02316
C 28.1813 13.46481 0.04185
C 26.87704 12.84765 0.00194
C 28.36735 22.33254 -0.00942
C 2.4657 32.79632 0.02635
