358
Graphene
C 34.3757 0.01802 0.01295
C 11.05446 13.42146 -0.01957
C 9.82727 12.7875 -0.0108
C 9.78391 11.38578 -0.00368
C 11.03844 10.73133 -0.02696
C 11.04144 9.26287 -0.00114
C 9.82239 8.50022 0.00228
C 9.77637 7.11689 0.00798
C 11.00313 6.34374 0.00422
C 11.09381 14.92779 0.02058
C 11.04816 4.98003 0.0351
C 9.86957 2.76497 0.02098
C 11.10416 2.10612 0.01848
C 11.08679 0.70633 -0.00619
C 9.89034 0.02252 -0.02162
C 12.32583 32.65314 0.00889
C 13.49841 31.8707 -0.00481
C 13.45917 30.44446 0.00979
C 12.19721 29.75145 0.01443
C 9.88911 4.21755 -0.03113
C 12.22375 28.36481 0.03505
C 9.9001 15.63047 0.01965
C 11.09593 17.77978 0.00052
C 7.2552 2.94817 0.01363
C 8.58647 2.2503 -0.02162
C 8.68559 0.79077 0.00415
C 7.4184 0.07157 -0.0014
C 9.8375 32.67693 0.02162
C 11.07854 32.02042 0.0076
C 11.05057 30.58233 0.01241
C 9.80461 29.96746 -0.01454
C 9.78685 17.05552 -0.03682
C 9.85033 28.45166 0.01945
C 11.10254 26.24613 0.03542
C 9.79178 25.55003 0.02299
C 9.77338 24.11863 0.00244
C 11.04371 23.43828 -0.01717
C 11.11144 21.99572 0.05265
C 9.91263 21.27361 -0.01952
C 9.87852 19.87769 -0.02813
C 11.10205 19.13051 0.00374
C 10.99792 27.66294 0.01416
C 13.46846 27.68514 -0.02815
C 13.54485 26.26612 -0.04147
C 12.29448 25.57119 -0.05302
C 12.31447 0.03297 -0.0054
C 14.66383 32.61026 0.00667
C 15.9474 31.98865 0.00143
C 15.8813 30.58679 -0.017
C 14.70126 29.73997 0.00364
C 14.65746 28.32026 -0.00831
C 15.91949 27.58373 -0.02957
C 16.03239 26.22276 -0.04422
C 13.55473 0.71471 0.00755
C 14.81889 25.4968 0.00654
C 15.99213 23.48172 -0.04076
C 15.94728 22.00553 -0.00652
C 14.78406 21.35604 0.0058
C 14.80092 19.87727 -0.00865
C 16.0055 19.14743 0.00675
C 15.96902 17.73818 -0.00311
C 14.74433 17.01243 0.00742
C 14.73826 15.64396 -0.01594
C 14.73748 24.17644 -0.00703
C 13.48759 2.159 0.01739
C 12.29505 2.80283 0.03754
C 12.26783 4.26349 -0.03557
C 12.26842 24.20504 0.00213
C 13.50715 23.47198 -0.00066
C 13.53196 22.03143 -0.00289
C 12.32486 21.27097 0.00028
C 12.30252 19.87958 -0.02213
C 13.58724 19.16521 0.03698
C 13.53026 17.77733 -0.00109
C 12.33223 17.04048 -0.00491
C 12.30928 15.58902 0.03338
C 13.50811 14.85227 -0.0258
C 13.44301 13.48371 -0.0331
C 12.336 12.68524 -0.00316
C 12.32242 11.31018 0.02188
C 13.50126 10.64562 -0.01979
C 13.53064 9.1754 0.02691
C 12.28163 8.52458 -0.01581
C 12.20613 7.08078 0.01452
C 13.40485 6.38265 0.04892
C 13.46901 4.93466 -0.00111
C 7.34061 4.37528 0.01877
C 8.66617 4.89249 -0.00925
C 8.60398 6.30036 0.00444
C 7.39982 7.07771 -0.01789
C 3.63241 6.39186 -0.01142
C 3.62413 4.99146 -0.00562
C 2.43525 4.27416 -0.00494
C 2.45919 2.83567 0.00054
C 3.72004 2.19984 0.03007
C 3.72779 0.73914 -0.00095
C 2.49013 0.00983 0.01572
C 4.93077 32.68962 -0.04848
C 2.43265 7.10823 0.01849
C 6.126 31.99597 -0.00892
C 4.93494 29.82628 -0.0008
C 4.88391 28.38197 0.0288
C 6.0994 27.69827 0.00393
C 6.13492 26.32459 0.00895
C 4.92992 25.57324 0.00685
C 4.94029 24.15108 0.02888
C 6.13084 23.47327 -0.00482
C 6.15081 21.97659 -0.01384
C 6.18472 30.55782 -0.01362
C 2.43476 8.57412 0.01396
C 3.65871 9.33586 0.0127
C 3.58562 10.79968 0.02635
C 3.69137 30.50094 0.02322
C 2.40014 29.83882 -0.00725
C 2.44783 28.34764 -0.05697
C 3.65715 27.70004 0.01087
C 3.6674 26.25924 -0.01343
C 2.46219 25.53608 0.00988
C 2.49724 24.12464 0.0276
C 3.74871 23.42692 0.01305
C 3.69837 22.02409 -0.00077
C 2.40481 21.30399 0.03368
C 2.39856 19.95542 -0.02929
C 3.62757 19.18667 -0.00966
C 3.69898 17.73526 -0.03337
C 2.43514 17.00335 0.01227
C 2.51027 15.58534 0.00873
C 3.72489 14.90492 -0.00049
C 3.75759 13.54531 0.00848
C 2.40369 12.78861 -0.01303
C 2.38131 11.39674 -0.01378
C 4.85063 21.27488 0.03693
C 16.01775 14.95698 0.0106
C 4.89732 19.91271 0.01745
C 6.15726 17.79597 -0.01004
C 8.61909 26.36953 0.03592
C 7.38383 25.61882 0.00406
C 7.37667 24.17448 0.00943
C 8.60585 23.37648 0.02841
C 8.69111 21.93662 -0.01111
C 7.37729 21.24186 -0.01275
C 7.35378 19.90268 0.00985
C 8.56895 19.14422 -0.02245
C 8.62366 27.81387 0.00572
C 8.59852 17.75385 -0.00428
C 7.42373 15.65711 -0.01536
C 8.64456 14.9586 -0.02689
C 8.54335 13.48005 -0.01046
C 7.35337 12.78795 -0.00891
C 7.32543 11.31727 0.02819
C 8.59847 10.60381 0.00165
C 8.62543 9.2114 -0.02971
C 7.37562 8.45614 0.02894
C 7.3765 17.02796 0.03101
C 7.33864 28.40231 0.0402
C 7.37327 29.89889 -0.02759
C 8.61114 30.58921 0.03589
C 4.95561 17.06708 -0.02896
C 4.96018 15.63115 -0.00131
C 6.22091 14.94348 -0.01118
C 6.1783 13.4772 -0.014
C 4.91203 12.7971 0.02147
C 4.90255 11.42841 0.00373
C 6.11639 10.62343 -0.00191
C 6.11903 9.27463 0.00438
C 4.89986 8.61738 0.01291
C 4.84707 7.20604 0.00093
C 6.06234 6.49903 0.00057
C 6.1178 5.07402 -0.01634
C 4.90452 4.32593 -0.00334
C 4.91949 2.92907 0.02339
C 6.12449 2.17969 0.01641
C 6.13085 0.73218 -0.00719
C 4.9185 0.03407 0.01364
C 7.3578 32.71547 -0.01062
C 8.63179 31.98564 -0.00033
C 6.18658 19.1699 0.00488
C 15.93198 13.5297 -0.01154
C 14.74556 12.82291 -0.01721
C 14.80385 11.39465 -0.02422
C 29.56824 8.49266 0.01713
C 29.49711 7.15106 -0.01694
C 30.79965 6.4625 0.01428
C 30.75651 5.07562 -0.02142
C 29.49846 4.26841 0.0544
C 29.53529 2.86275 0.00026
C 30.79373 2.12491 0.00682
C 30.71734 0.75132 -0.01779
C 30.6717 9.21591 0.00346
C 29.47412 0.01916 0.03794
C 33.12869 31.96692 0.01574
C 33.12239 30.52588 -0.02383
C 31.94754 29.77927 -0.01429
C 31.86987 28.32023 -0.0136
C 33.18522 27.76081 0.00594
C 33.20664 26.41815 -0.02474
C 31.96415 15.42423 0.00369
C 33.20473 14.83342 0.00455
C 31.8616 32.6245 0.01927
C 30.68774 10.63567 0.00307
C 29.69135 11.45516 0.00716
C 29.59363 12.75394 0.02108
C 28.28811 31.98439 -0.01854
C 28.27836 30.55557 -0.01415
C 27.05316 29.85285 -0.03039
C 27.13892 28.51792 0.01836
C 27.12951 6.84341 0.03531
C 28.31707 6.42608 -0.00669
C 28.34228 4.98513 0.0101
C 27.09977 4.27281 0.01705
C 27.04921 2.85692 -0.0405
C 28.29893 2.11457 -0.01303
C 28.22873 0.70574 -0.01461
C 27.02299 34.04494 -0.02155
C 29.51994 32.67858 -0.00944
C 30.73526 31.89562 -0.03735
C 30.72752 30.47407 -0.00971
C 29.46398 29.82221 0.01518
C 29.65658 28.44683 0.01908
C 30.62262 27.73895 0.07705
C 30.67717 13.54377 0.0103
C 33.18163 13.39928 -0.00644
C 27.01111 32.72142 -0.02049
C 31.90726 12.78199 -0.01839
C 33.22144 10.64774 0.00199
C 1.17389 19.14828 -0.01678
C 1.18981 17.73715 0.01223
C 0.08478 16.96185 0.00648
C 0.01114 15.58468 0.02114
C 1.26698 14.88349 -0.02957
C 1.15925 13.53879 0.00343
C 0.03377 12.76203 -0.02656
C 34.41439 11.25838 -0.02442
C 0.12699 20.02305 0.01951
C 1.22289 10.60354 -0.00027
C 34.41148 8.50394 -0.02302
C 34.35977 7.05609 -0.02849
C 1.21186 6.46769 0.02931
C 1.20604 5.00971 0.00628
C 34.42419 4.33783 -0.0345
C 34.39907 2.86443 -0.00931
C 1.23917 2.12075 -0.00939
C 1.20033 0.72016 -0.00468
C 1.2035 9.23371 -0.00583
C 0.16317 21.26053 -0.02213
C 1.15699 22.07963 0.02712
C 1.18404 23.48678 0.00723
C 33.23417 9.20398 0.04381
C 31.97796 8.5704 0.02806
C 31.98401 7.10643 0.01504
C 33.16529 6.36373 -0.00069
C 33.1543 4.92195 0.04926
C 31.92206 4.24729 -0.03838
C 31.93883 2.82554 0.00349
C 33.23346 2.1424 -0.00323
C 33.14272 0.69604 -0.00841
C 31.86053 0.0057 0.0001
C 34.37033 32.66937 -0.02927
C 1.17144 32.01492 -0.01404
C 1.19426 30.53884 0.01027
C 34.39803 29.86915 0.01831
C 34.41034 28.43258 -0.01037
C 1.16188 27.68715 -0.00439
C 1.15032 26.2244 -0.00598
C 34.18402 25.48786 -0.05239
C 0.08107 24.1973 0.03076
C 31.92547 11.41225 0.00137
C 3.67437 31.89898 -0.00094
C 24.59941 0.04426 0.03265
C 25.84904 2.15694 0.02326
C 17.23547 19.88768 0.00071
C 18.48175 19.23466 -0.01107
C 18.48027 17.84862 -0.01586
C 17.2637 17.02128 -0.01971
C 17.35105 15.64193 -0.02118
C 18.67575 14.79798 0.00733
C 18.38638 13.55289 -0.00178
C 17.21243 12.82999 0.00768
C 17.24613 21.36271 -0.00225
C 17.24631 11.31471 -0.0276
C 18.40793 9.2087 -0.04078
C 17.1877 8.4541 0.02117
C 17.1297 7.05384 0.02737
C 18.3917 6.4488 -0.00498
C 18.35383 5.02463 0.00135
C 17.18978 4.22275 0.03102
C 17.12614 2.75439 0.02555
C 18.36669 2.04723 0.01423
C 18.2852 10.43179 0.03005
C 18.46591 22.04811 0.01515
C 18.54778 23.46706 -0.0055
C 17.31259 24.13255 0.02734
C 15.97508 10.68915 0.01277
C 16.00663 9.24072 0.00096
C 14.72167 8.46322 -0.01527
C 14.68023 7.03883 0.01087
C 15.9262 6.34536 0.00199
C 15.96746 4.93462 0.01511
C 14.70073 4.28039 -0.00478
C 14.7087 2.83648 -0.01662
C 15.89465 2.07959 -0.01185
C 15.87641 0.69688 0.01126
C 14.67524 34.06443 0.01852
C 17.19188 32.70029 -0.00381
C 18.32798 31.89129 0.03046
C 18.39116 30.47854 0.0296
C 17.16072 29.82869 0.03374
C 17.18218 28.4314 -0.02845
C 18.43402 27.72084 -0.03213
C 18.54542 26.18242 0.02239
C 17.25475 25.53397 0.01153
C 18.4572 0.66876 -0.00285
C 25.8207 0.74973 0.00261
C 17.19269 0.00627 -0.009
C 20.89893 31.89884 -0.00229
C 22.1283 28.4196 0.02316
C 23.34688 27.80792 0.04185
C 23.41242 4.8461 0.00194
C 22.19707 4.19188 -0.00621
C 22.09328 2.74701 0.02611
C 23.36974 2.1225 0.02198
C 23.31041 0.72389 0.01094
C 22.09261 0.03576 0.00235
C 22.14947 29.77028 0.01257
C 24.52463 32.73881 0.01495
C 25.7913 30.59877 0.01799
C 24.62 29.82693 0.01699
C 24.62124 28.28374 -0.00416
C 26.01064 27.88998 0.01177
C 25.91696 6.35507 0.04266
C 25.82926 4.98661 0.01324
C 24.66265 4.2282 0.0014
C 24.6027 2.82492 0.00924
C 25.73743 31.9787 0.01259
C 23.40946 30.54054 0.00152
C 23.30009 31.95362 -0.00294
C 22.10414 32.64361 0.00826
C 20.96896 30.48045 -0.00938
C 19.68688 29.83938 -0.0264
C 19.62193 28.41876 -0.01154
C 20.87103 27.75524 0.00684
C 20.95863 26.34929 -0.01052
C 19.84987 25.46632 -0.01679
C 19.74879 24.07748 0.00367
C 19.37629 21.20974 0.04306
C 19.65381 19.92127 0.00996
C 19.46191 16.98314 0.00195
C 19.94833 15.69032 -0.00802
C 19.72546 7.0711 -0.00218
C 20.69979 6.37531 -0.01654
C 20.97634 5.00736 -0.00037
C 19.6403 4.27753 -0.0032
C 19.59136 2.85821 0.00622
C 20.7873 2.14243 -0.02815
C 20.87553 0.68827 -0.00942
C 19.68058 33.98105 0.00487
C 19.67558 32.58154 -0.01199
C 2.43793 32.60975 -0.02566
