409
Graphene
C 34.37658 34.02216 0.01295
C 12.15852 29.89013 -0.01536
C 12.32313 28.46848 -0.02689
C 13.57683 27.63624 -0.01046
C 13.514 26.09165 -0.00891
C 12.27897 25.45329 0.02819
C 12.25173 24.00473 0.00165
C 13.49034 23.34096 -0.02971
C 13.40397 21.94187 0.02894
C 12.23395 21.20543 -0.01789
C 12.39329 19.79818 0.00444
C 13.70918 19.194 -0.00925
C 13.77653 17.50319 0.01877
C 12.3717 17.0208 0.01363
C 12.3195 15.62666 -0.02162
C 13.59558 15.04203 0.00415
C 13.52282 13.55798 -0.0014
C 12.24509 12.84967 0.02162
C 12.24018 11.48667 0.0076
C 13.56241 10.63197 0.01241
C 13.54757 9.26783 -0.01454
C 12.35823 8.55725 0.01945
C 13.40586 30.53802 0.03101
C 13.50992 32.01676 -0.00428
C 12.28153 32.75224 -0.02245
C 9.77783 0.1389 0.00985
C 10.98851 23.36483 0.00438
C 11.04226 21.93001 0.01291
C 9.80148 21.23931 0.00093
C 9.91713 19.85925 0.00057
C 11.13267 19.14696 -0.01634
C 11.04301 17.77469 -0.00334
C 9.78773 17.03905 0.02339
C 9.80578 15.59815 0.01641
C 11.08242 14.98516 -0.00719
C 11.08827 13.52984 0.01364
C 12.329 7.13458 0.01416
C 9.80401 12.77978 -0.01062
C 11.09548 10.60829 0.03589
C 11.11176 9.19439 -0.02759
C 9.81668 8.55073 0.0402
C 9.8821 7.13986 0.00572
C 11.07606 6.43799 0.03592
C 11.06176 5.06846 0.00406
C 9.83874 4.3485 0.00943
C 9.80333 2.92431 0.02841
C 11.02827 2.22994 -0.01111
C 10.99647 0.79412 -0.01275
C 9.84566 11.37154 -0.00033
C 9.84697 24.18148 -0.00191
C 13.54853 6.38291 0.03542
C 12.25595 4.35928 0.00244
C 14.75372 4.28333 0.01443
C 14.80413 2.9439 0.03505
C 15.98569 2.13054 -0.02815
C 15.90298 0.69561 -0.04147
C 14.69474 0.04515 -0.05302
C 17.18936 32.70342 0.00213
C 18.42421 32.07236 -0.00066
C 18.36063 30.62158 -0.00289
C 17.14778 29.84854 0.00028
C 17.19407 28.46189 -0.02213
C 17.93826 18.66076 0.03698
C 18.05385 17.36487 -0.00109
C 17.43609 15.98128 -0.00491
C 18.46997 14.94856 0.03338
C 18.41035 13.50766 -0.0258
C 17.20982 12.89976 -0.0331
C 17.21491 11.45291 -0.00316
C 18.41599 10.69298 0.02188
C 18.43095 9.26345 -0.01979
C 17.19133 8.58146 0.02691
C 17.14842 7.17135 -0.01581
C 15.98349 4.98264 0.00979
C 15.96113 6.40286 -0.00481
C 14.73724 7.08712 0.00889
C 14.78764 8.48742 -0.02162
C 12.31629 2.8642 -0.01717
C 13.51968 2.20638 0.05265
C 13.4573 0.7953 -0.01952
C 12.21937 0.05212 -0.02813
C 14.72684 32.74889 0.00374
C 15.95782 32.03275 0.00052
C 15.84327 30.61533 -0.03682
C 14.66486 29.89622 0.01965
C 14.78284 28.45095 0.02058
C 15.99428 27.61213 -0.01957
C 13.48055 4.97207 0.02299
C 15.81954 26.20775 -0.0108
C 14.77459 23.80669 -0.02696
C 15.67971 21.93017 -0.00114
C 14.67659 21.03677 0.00228
C 14.55345 15.95546 0.00798
C 16.00938 15.33546 0.00422
C 16.01447 13.65633 0.0351
C 14.78419 12.87709 -0.03113
C 14.78653 11.32735 0.02098
C 16.02096 10.74187 0.01848
C 15.93869 9.30022 -0.00619
C 14.75735 25.30901 -0.00368
C 9.82771 25.6183 0.00373
C 11.06962 26.28227 0.02147
C 11.09826 27.72987 -0.014
C 2.43215 2.83624 -0.003
C 3.68382 2.1555 0.01402
C 3.64937 0.72481 0.02379
C 2.37006 0.02673 0.00907
C 4.82453 32.71909 0.00643
C 6.11831 32.02397 -0.01509
C 6.07076 30.60867 0.03267
C 4.80306 29.87348 0.02374
C 4.7883 28.4499 0.00402
C 6.0572 27.75354 0.0073
C 6.14314 26.32936 0.0174
C 4.92075 25.67411 0.03828
C 4.83554 24.22958 0.01226
C 6.10183 23.43494 -0.00279
C 6.08206 22.07364 0.01996
C 4.93599 21.32555 -0.03996
C 4.90416 19.88269 0.01465
C 6.13552 19.18167 -0.00074
C 6.06863 17.80049 -0.00518
C 4.82231 17.07376 0.0086
C 4.84475 15.64298 -0.00643
C 2.43697 4.261 0.00031
C 3.62103 5.04217 0.03189
C 3.61203 6.4145 -0.04307
C 2.44749 7.1493 0.03284
C 3.62237 30.56511 -0.02375
C 2.42194 29.81127 0.00558
C 2.37368 28.34855 -0.0059
C 3.58178 27.67414 -0.01386
C 3.70836 26.30575 -0.02805
C 2.41753 25.56801 0.00081
C 2.48826 24.22606 0.00245
C 3.64866 23.53886 0.02728
C 3.62246 22.10011 -0.00039
C 2.40855 21.28925 0.0064
C 6.12051 14.98349 0.017
C 2.37346 19.87832 0.00211
C 3.61581 17.80746 -0.01979
C 2.38774 17.05239 0.02784
C 2.46914 15.64952 -0.01977
C 3.63472 14.87264 -0.00561
C 3.66668 13.42167 0.00208
C 2.40608 12.79429 0.01707
C 2.41989 11.34301 0.02769
C 3.62277 10.7074 -0.03291
C 3.6737 9.22618 -0.04999
C 2.49309 8.53372 0.04505
C 3.61395 19.23437 -0.00449
C 6.13259 13.60662 -0.03113
C 4.96423 12.79817 -0.02566
C 4.89713 11.41781 -0.00094
C 7.36261 17.10619 0.00054
C 7.43173 15.68099 0.03007
C 8.60694 14.87996 -0.00095
C 8.60705 13.50447 0.01572
C 7.44279 12.83523 -0.04848
C 7.34753 11.38058 -0.00892
C 8.61829 10.64171 -0.01362
C 8.57078 9.2076 -0.0008
C 7.28987 8.54717 0.0288
C 7.3682 7.1729 0.00393
C 8.62259 17.76402 -0.00494
C 8.60425 6.47953 0.00895
C 7.32483 4.33343 0.02888
C 7.37812 2.95029 -0.00482
C 8.55251 2.27907 -0.01384
C 8.53717 0.81713 0.03693
C 7.33446 0.14767 0.01745
C 9.78595 32.77078 0.00488
C 11.02707 32.10287 -0.01004
C 10.91137 30.61917 -0.02896
C 9.68851 29.87995 -0.00131
C 9.776 28.44353 -0.01118
C 8.53406 5.08934 0.00685
C 18.43048 6.48162 0.01452
C 8.67617 19.16149 -0.00562
C 7.34888 21.33614 0.01849
C 6.13529 10.69191 0.02322
C 6.11569 9.31451 -0.00725
C 4.89747 8.58345 -0.05697
C 4.8381 7.17691 0.01087
C 6.14598 6.49035 -0.01343
C 6.12783 4.97903 0.00988
C 4.85617 4.34414 0.0276
C 4.82793 2.91831 0.01305
C 6.1271 2.23908 -0.00077
C 6.05619 0.8034 0.03368
C 7.36255 19.87222 -0.01142
C 4.82093 0.08991 -0.02929
C 8.52588 32.07745 -0.03337
C 8.51316 30.69753 0.01227
C 7.25792 29.89687 0.00873
C 7.26974 28.51436 -0.00049
C 8.5522 27.77308 0.00848
C 8.59168 26.35222 -0.01303
C 7.41557 25.58232 -0.01378
C 7.33864 24.17571 0.02635
C 8.63962 23.45594 0.0127
C 8.64921 22.02794 0.01396
C 7.25582 32.77012 -0.00966
C 3.54218 32.00582 0.00828
C 18.46474 5.03201 0.04892
C 17.25012 2.8329 -0.03557
C 29.51683 8.46705 -0.00971
C 29.5349 7.05854 0.01518
C 30.68064 6.29534 0.01908
C 30.67675 4.89011 0.07705
C 29.50712 4.18773 0.0103
C 29.53602 2.70718 0.02108
C 30.73097 2.05297 0.00716
C 30.69976 0.66921 0.00307
C 29.46245 34.02745 0.00346
C 31.96196 32.69331 0.01713
C 33.07975 31.87756 -0.01694
C 33.06956 30.52006 0.01428
C 31.87661 29.80028 -0.02142
C 31.8823 28.35268 0.0544
C 33.16626 27.69846 0.00026
C 33.15601 26.26884 0.00682
C 31.86969 25.58846 -0.01779
C 31.89921 24.09478 0.03794
C 33.1909 23.45504 0.01927
C 33.16361 21.97577 0.01574
C 31.8881 21.293 -0.02383
C 30.74877 9.13486 -0.03735
C 30.77445 10.59708 -0.00944
C 29.52759 11.28734 -0.02155
C 29.48972 12.69101 -0.01461
C 28.26507 2.081 0.01799
C 28.26987 0.66956 0.01699
C 27.04012 34.00753 -0.00416
C 29.4855 32.60044 0.01177
C 30.67124 31.92641 0.04266
C 30.67881 30.47078 0.01324
C 29.38629 29.81017 0.0014
C 29.46506 28.37144 0.00924
C 30.69378 27.66598 0.02326
C 30.63201 26.26923 0.00261
C 31.92054 19.83381 -0.01429
C 29.45386 25.55695 0.03265
C 30.71784 23.4356 -0.01854
C 30.75825 22.0472 -0.01415
C 29.50117 21.27209 -0.03039
C 29.54166 19.85034 0.01836
C 30.75086 19.12509 0.03531
C 30.65278 17.74414 -0.00669
C 29.43876 17.08917 0.0101
C 29.52084 15.56803 0.01705
C 30.73333 14.86421 -0.0405
C 30.67715 13.45402 -0.01303
C 29.53887 24.20697 -0.02049
C 27.06047 2.79262 0.01259
C 33.16136 19.16196 -0.0136
C 31.87005 16.98023 -0.02474
C 1.20285 21.97988 0.02712
C 34.42347 21.28182 -0.02213
C 34.39777 19.92843 0.01951
C 1.14381 19.25355 -0.01678
C 1.09899 17.79615 0.01223
C 34.33498 17.01852 0.00648
C 34.41973 15.60902 0.02114
C 1.16871 14.96736 -0.02957
C 1.14924 13.54565 0.00343
C 34.4219 12.82663 -0.02656
C 34.38793 11.35614 -0.02442
C 1.15331 10.63751 -0.00027
C 1.17667 9.24444 -0.00583
C 34.40962 8.44832 -0.02302
C 34.3943 7.02295 -0.02849
C 1.2291 6.36389 0.02931
C 1.20178 4.92728 0.00628
C 34.39096 4.23413 -0.0345
C 34.38818 2.81422 -0.00931
C 1.18178 2.15523 -0.00939
C 1.12391 0.7613 -0.00468
C 1.2848 23.47528 0.00723
C 0.05211 24.14791 0.03076
C 34.40879 25.54238 -0.05239
C 1.17425 26.21482 -0.00598
C 31.95805 15.65926 0.00369
C 33.23035 14.97435 0.00455
C 33.1775 13.51534 -0.00644
C 31.8619 12.71765 -0.01839
C 31.97253 11.32069 0.00137
C 33.24668 10.6485 0.00199
C 33.19308 9.20881 0.04381
C 31.91715 8.48051 0.02806
C 31.92724 7.01391 0.01504
C 33.14852 6.36112 -0.00069
C 33.1526 17.71674 0.00594
C 33.196 4.95779 0.04926
C 31.92747 2.76063 0.00349
C 33.14398 2.12647 -0.00323
C 33.19259 0.74635 -0.00841
C 31.95813 0.03171 0.0001
C 34.35282 32.58136 -0.02927
C 1.14623 31.89567 -0.01404
C 1.1868 30.50604 0.01027
C 34.37656 29.79833 0.01831
C 34.33685 28.39145 -0.01037
C 1.10946 27.70832 -0.00439
C 31.98317 4.27494 -0.03838
C 27.0347 4.24799 0.01495
C 28.19156 4.87291 0.00235
C 28.24789 6.26959 0.01094
C 23.38716 31.97742 0.00096
C 23.32036 30.53162 -0.01527
C 22.17285 29.69687 0.01087
C 23.55787 19.05737 0.00199
C 23.41474 17.72115 0.01511
C 22.07046 17.01787 -0.00478
C 22.22137 15.53256 -0.01662
C 23.41894 14.79982 -0.01185
C 23.37864 13.411 0.01126
C 22.16343 12.73941 0.01852
C 22.09805 11.33139 -0.00381
C 23.29898 10.6567 0.03046
C 23.38867 9.24324 0.0296
C 22.18148 8.50595 0.03374
C 22.12997 7.09401 -0.02845
C 23.35275 6.40089 -0.03213
C 23.29611 4.93068 0.02239
C 22.07395 4.27543 0.01153
C 22.08955 2.85154 0.02734
C 23.28404 2.09883 -0.0055
C 23.33048 0.66928 0.01515
C 22.13248 32.59342 0.01277
C 19.74166 34.04522 -0.02422
C 20.86059 0.75249 -0.01721
C 20.76573 2.14902 -0.01154
C 18.42179 2.16133 0.03754
C 18.41525 0.74476 0.01739
C 17.21869 0.03501 0.00755
C 19.66032 32.6772 -0.0054
C 20.9029 31.85807 0.00667
C 20.84642 30.39024 0.00143
C 19.53884 29.94442 -0.017
C 20.8032 17.63311 0.00364
C 19.69387 16.88988 -0.00831
C 19.74817 15.49535 -0.02957
C 22.09147 34.01295 -0.00225
C 20.98872 14.92138 -0.04422
C 19.69195 12.82006 -0.00703
C 19.69376 11.34482 -0.04076
C 20.90586 10.60289 -0.00652
C 20.87848 9.24712 0.0058
C 19.6604 8.51798 -0.00865
C 19.62834 7.14741 0.00675
C 20.81964 6.44705 -0.00311
C 20.87866 5.03775 0.00742
C 19.70978 4.26422 -0.01594
C 19.60363 2.86558 0.0106
C 20.92915 13.50633 0.00654
C 24.58191 32.58999 0.00071
C 25.78461 31.87734 -0.01107
C 25.81647 30.46043 -0.01586
C 27.072 29.81271 0.04306
C 27.03072 28.42658 0.00996
C 28.23568 27.71146 0.00195
C 28.25302 26.26787 -0.00802
C 27.14007 25.40394 -0.00218
C 27.15673 24.25068 -0.01654
C 28.35339 23.40482 -0.00037
C 28.24337 21.96256 -0.0032
C 27.0818 21.33344 0.00622
C 27.13035 20.00155 -0.02815
C 28.27655 30.58682 0.00367
C 28.29975 19.17987 -0.00942
C 27.05542 17.06499 0.00826
C 27.05576 15.64728 -0.00294
C 28.23844 14.90942 0.00152
C 28.221 13.42377 0.01257
C 27.06882 12.74891 0.02316
C 27.07666 11.32825 0.04185
C 28.25467 10.60655 0.00194
C 28.25205 9.15732 -0.00621
C 27.07262 8.4551 0.02611
C 27.08277 7.04368 0.02198
C 28.22009 17.80881 0.00487
C 17.16713 4.23858 -0.00111
C 28.2085 31.9919 -0.01679
C 24.55686 0.02465 0.00684
C 24.54627 29.83739 -0.01971
C 24.69116 28.42788 -0.02118
C 25.8089 27.77402 0.00733
C 24.57901 19.8562 -0.00178
C 25.87082 19.20134 0.00768
C 25.83575 17.71918 -0.0276
C 24.64872 17.03989 0.03005
C 24.61751 15.64834 -0.04078
C 25.83171 14.88924 0.02117
C 25.86423 13.474 0.02737
C 27.05142 32.63601 -0.01052
C 24.65329 12.75803 -0.00498
C 25.87351 10.54358 0.03102
C 25.88121 9.16905 0.02555
C 24.63424 8.46762 0.01423
C 24.52399 7.06916 -0.00285
C 25.75872 6.32683 -0.009
C 25.75754 4.95218 -0.01199
C 24.52045 4.17236 -0.00229
C 24.48773 2.76349 -0.00938
C 25.85842 2.09435 -0.0264
C 25.79069 0.65462 -0.01154
C 24.63282 11.29111 0.00135
C 2.33713 32.71419 0.00088
