339
Graphene
C 34.38628 0.05531 0.01295
C 10.99478 19.24972 -0.02162
C 10.90888 17.86849 0.00889
C 9.7452 17.10099 -0.00481
C 11.12713 9.13751 0.00979
C 9.83916 8.6463 0.01443
C 9.86676 7.19849 0.03505
C 11.07476 6.39474 -0.02815
C 10.9745 4.93449 -0.04147
C 9.74227 4.26104 -0.05302
C 9.88335 2.7494 0.00213
C 11.14537 2.10288 -0.00066
C 11.12092 0.72961 -0.00289
C 9.89453 0.02423 0.00028
C 12.37348 32.65093 -0.02213
C 13.59402 31.84673 0.03698
C 13.53421 30.49441 -0.00109
C 12.32622 29.80087 -0.00491
C 9.77485 19.80804 -0.00619
C 12.26449 28.36895 0.03338
C 9.76633 21.21094 0.01848
C 11.06727 23.38619 -0.03113
C 7.3668 7.18504 0.05265
C 8.65284 6.47918 -0.01952
C 8.61671 5.00992 -0.02813
C 7.32683 4.33671 0.00374
C 7.40352 2.90209 0.00052
C 8.6756 2.11571 -0.03682
C 8.60308 0.70647 0.01965
C 7.39099 0.04537 0.02058
C 9.90864 32.67151 -0.01957
C 11.14696 31.92924 -0.0108
C 11.14531 30.46719 -0.00368
C 9.88251 29.87197 -0.02696
C 9.86747 28.43862 -0.00114
C 11.02802 27.70822 0.00228
C 11.11607 26.2152 0.00798
C 9.81238 25.60956 0.00422
C 9.85812 24.16988 0.0351
C 10.95195 22.02514 0.02098
C 13.56178 27.5296 -0.0258
C 13.5309 26.16682 -0.0331
C 12.34725 25.53728 -0.00316
C 14.75815 25.56193 -0.00652
C 14.75342 24.12389 0.0058
C 16.04001 23.47516 -0.00865
C 15.93322 22.0792 0.00675
C 14.70443 21.33341 -0.00311
C 14.73659 19.79336 0.00742
C 15.95482 19.22441 -0.01594
C 14.81023 7.07618 0.0106
C 15.93967 6.30775 -0.01154
C 16.00759 4.93518 -0.01721
C 14.72335 4.29603 -0.02422
C 14.80533 2.83638 0.01277
C 16.00118 2.18006 0.00096
C 15.96817 0.71703 -0.01527
C 14.79131 0.00523 0.01087
C 17.24253 32.65765 0.00199
C 18.46435 31.95795 0.01511
C 15.96754 26.31345 -0.04076
C 16.05149 27.68282 -0.00703
C 14.79386 28.33304 0.00654
C 14.71184 29.7867 -0.04422
C 12.30047 24.11478 0.02188
C 13.56181 23.42918 -0.01979
C 13.46479 22.09148 0.02691
C 12.20597 21.36205 -0.01581
C 12.25689 19.93037 0.01452
C 13.47397 19.44073 0.04892
C 12.26341 8.40364 -0.00111
C 12.30022 7.05614 -0.03557
C 7.38518 8.61456 -0.01717
C 13.53512 6.43319 0.03754
C 12.21596 4.28042 0.00755
C 12.36806 2.8745 -0.0054
C 13.55735 2.10939 0.00667
C 13.57859 0.72876 0.00143
C 12.37043 0.00204 -0.017
C 14.79989 32.66211 0.00364
C 15.98611 31.90998 -0.00831
C 15.97148 30.49834 -0.02957
C 13.52315 5.03658 0.01739
C 18.44711 30.51871 -0.00478
C 8.64022 9.37224 0.00244
C 7.40033 11.44604 0.03542
C 2.37553 8.43854 -0.01384
C 2.32317 6.99785 0.03693
C 3.59654 6.21414 0.01745
C 3.57089 4.76841 0.00488
C 2.66765 2.92084 -0.01004
C 3.79351 2.09926 -0.02896
C 3.71802 0.72456 -0.00131
C 2.40702 0.05306 -0.01118
C 4.96564 32.69491 -0.014
C 6.23758 31.94817 0.02147
C 6.11758 30.62724 0.00373
C 4.87307 29.92178 -0.00191
C 4.87697 28.4431 0.00438
C 6.05376 27.68214 0.01291
C 6.14355 26.32735 0.00093
C 4.88188 25.6037 0.00057
C 4.8977 24.15972 -0.01634
C 3.66831 9.24765 -0.00482
C 6.11804 23.42661 -0.00334
C 3.65876 10.61264 0.02888
C 2.44188 12.78031 0.00895
C 3.69195 30.57265 0.02635
C 2.46018 29.94966 0.0127
C 2.41136 28.49404 0.01396
C 3.65094 27.73235 0.01849
C 3.65216 26.33433 -0.01142
C 2.44161 25.61919 -0.00562
C 2.44646 24.17366 -0.00494
C 3.6742 23.41523 0.00054
C 3.71996 22.03571 0.03007
C 2.51699 21.24391 -0.00095
C 2.61028 19.87524 0.01572
C 3.68729 19.13345 -0.04848
C 3.68587 17.75192 -0.00892
C 2.44782 17.09906 -0.01362
C 2.46847 15.58118 -0.0008
C 3.66205 14.85723 0.0288
C 3.65796 13.48578 0.00393
C 2.38552 11.34353 0.00685
C 6.12382 22.00748 0.02339
C 4.98338 21.27594 0.01641
C 4.97086 19.81326 -0.00719
C 7.38319 29.92388 0.00165
C 7.32811 28.41874 -0.02971
C 8.6158 27.75261 0.02894
C 8.64274 26.34356 -0.01789
C 7.39654 25.53054 0.00444
C 7.42589 24.17406 -0.00925
C 8.67006 23.47272 0.01877
C 8.61181 22.00548 0.01363
C 7.395 21.30604 -0.02162
C 7.36415 19.88251 0.00415
C 8.55989 19.0761 -0.0014
C 8.51935 17.65659 0.02162
C 7.26262 16.97701 0.0076
C 7.36406 15.69578 0.01241
C 8.56458 14.95166 -0.01454
C 8.43803 13.64428 0.01945
C 7.4304 12.83532 0.01416
C 8.5583 30.60105 0.02819
C 8.62298 32.00154 -0.00891
C 7.44699 32.71436 -0.01046
C 4.95911 0.09675 -0.02689
C 6.16511 19.10206 0.01364
C 6.11918 17.65931 -0.01062
C 4.87255 17.01257 -0.00033
C 4.87473 15.59785 0.03589
C 6.18079 14.91229 -0.02759
C 6.19811 13.52157 0.0402
C 4.91508 12.80524 0.00572
C 4.92914 11.35368 0.03592
C 8.49502 10.67302 0.02299
C 6.14063 10.64282 0.00406
C 4.9 8.5553 0.02841
C 4.85351 7.04467 -0.01111
C 6.08888 6.41522 -0.01275
C 6.06493 4.97619 0.00985
C 4.91739 4.18852 -0.02245
C 4.96219 2.84291 -0.00428
C 6.21084 2.1678 0.03101
C 6.16585 0.77591 -0.01536
C 6.12217 9.20625 0.00943
C 3.74515 32.00687 -0.01378
C 17.18124 29.81112 -0.01662
C 18.41015 27.72481 0.01126
C 31.94659 32.67838 -0.02142
C 33.1707 31.98712 0.0544
C 33.2033 30.59992 0.00026
C 31.93991 29.8856 0.00682
C 31.92205 28.38691 -0.01779
C 33.17266 27.69623 0.03794
C 33.16178 26.29125 0.01927
C 31.97844 25.61939 0.01574
C 31.97157 24.16735 -0.02383
C 33.14223 23.38638 -0.01429
C 33.21187 21.98459 -0.0136
C 31.98548 21.27419 0.00594
C 31.97463 19.9073 -0.02474
C 33.14339 19.13153 0.00369
C 33.18557 17.79943 0.00455
C 31.96958 17.07059 -0.00644
C 31.87763 15.63202 -0.01839
C 29.4522 34.01852 0.01428
C 33.14614 14.89317 0.00137
C 30.70404 0.77459 -0.01694
C 29.48602 2.94326 0.00346
C 30.69043 30.54844 -0.00669
C 29.38502 29.80296 0.0101
C 29.43093 28.42319 0.01705
C 30.63626 27.72595 -0.0405
C 30.67266 26.33915 -0.01303
C 29.48129 25.53959 -0.01461
C 29.39697 24.11247 -0.02155
C 30.61229 23.45474 -0.00944
C 30.69984 22.05174 -0.03735
C 29.46714 21.31229 -0.00971
C 29.50385 19.85891 0.01518
C 30.73889 19.22317 0.01908
C 30.82985 17.78526 0.07705
C 29.66908 17.00745 0.0103
C 30.76017 14.72647 0.02108
C 30.79293 4.90262 0.00716
C 29.57406 4.28554 0.00307
C 30.67969 2.21218 0.01713
C 33.16587 13.46871 0.00199
C 31.96215 12.83504 0.04381
C 33.14799 10.56206 0.02806
C 1.31106 19.18151 0.01223
C 1.19077 17.74007 0.00648
C 34.41078 17.06859 0.02114
C 34.39213 15.58322 -0.02957
C 1.21944 14.86686 0.00343
C 1.25576 13.42677 -0.02656
C 34.43213 12.76391 -0.02442
C 34.39699 11.27687 -0.00027
C 1.11091 10.58886 -0.00583
C 1.14303 9.19446 -0.02302
C 34.29123 8.50484 -0.02849
C 34.32899 7.16359 0.02931
C 1.09559 6.38238 0.00628
C 0.038 4.4004 -0.0345
C 0.05454 3.03103 -0.00931
C 1.3122 2.26497 -0.00939
C 1.18737 0.79839 -0.00468
C 0.00337 19.89457 -0.01678
C 0.04336 21.32139 0.01951
C 1.28564 21.92484 -0.02213
C 1.19872 23.40034 0.02712
C 33.05204 9.2138 0.01504
C 31.90077 7.13689 -0.00069
C 33.1365 6.42329 0.04926
C 33.20281 5.0358 -0.03838
C 32.00467 4.28491 0.00349
C 31.97445 2.92211 -0.00323
C 33.17124 2.19409 -0.00841
C 33.16511 0.7891 0.0001
C 30.67278 31.92675 0.03531
C 31.8703 0.06037 -0.02927
C 1.20926 31.99495 0.01027
C 1.22932 30.6084 0.01831
C 0.05908 29.94478 -0.01037
C 34.40424 28.39821 -0.00439
C 1.19252 27.73766 -0.00598
C 1.17341 26.23565 -0.05239
C 0.00136 25.58107 0.03076
C 34.42668 24.07361 0.00723
C 34.42964 32.75162 -0.01404
C 17.14327 28.44358 -0.01185
C 29.48794 32.60345 0.01836
C 28.23883 0.64144 -0.01415
C 19.66215 29.85352 -0.0276
C 19.66053 28.39798 0.03005
C 20.90577 27.74262 -0.04078
C 20.87643 26.20296 0.02117
C 19.66214 25.51217 0.02737
C 19.63269 24.09324 -0.00498
C 20.84254 23.46135 0.00135
C 19.11444 16.7401 0.03102
C 19.50435 15.47935 0.02555
C 19.69825 4.21343 0.01423
C 19.6961 2.88777 -0.00285
C 20.92307 2.18429 -0.009
C 20.86274 0.7065 -0.01199
C 19.65085 34.03269 -0.00229
C 22.16538 32.72834 -0.00938
C 23.35741 31.951 -0.0264
C 23.33449 30.54546 -0.01154
C 20.87716 30.51445 0.00768
C 22.0763 29.84067 0.00684
C 20.94912 31.95175 -0.00178
C 17.24753 0.02156 -0.02118
C 18.45362 26.33479 0.01852
C 17.25857 25.59747 -0.00381
C 17.33239 24.1078 0.03046
C 18.44892 23.38575 0.0296
C 18.36052 21.98412 0.03374
C 17.20607 21.30299 -0.02845
C 17.12542 19.78873 -0.03213
C 18.17893 19.09197 0.02239
C 18.72839 17.96567 0.01153
C 16.91187 8.46909 0.02734
C 17.40067 7.1776 -0.0055
C 18.40006 6.32095 0.01515
C 18.57535 4.94412 -0.00225
C 17.20002 4.27996 0.00071
C 17.27728 2.82863 -0.01107
C 18.47497 2.08427 -0.01586
C 18.50388 0.71762 -0.01971
C 19.69957 32.70196 0.00733
C 22.10656 28.44876 -0.01052
C 23.31414 27.6849 -0.01679
C 23.26983 26.25324 0.00367
C 27.02769 32.67103 0.01094
C 28.23669 31.91098 0.00235
C 28.19306 30.46533 0.01495
C 26.97435 29.80112 0.01259
C 27.00649 28.37519 0.01799
C 28.25877 27.66673 0.01699
C 28.29224 26.25879 -0.00416
C 27.04188 25.5482 0.01177
C 27.06959 24.14913 0.04266
C 28.19044 23.43008 0.01324
C 28.15729 21.96339 0.0014
C 26.83225 21.16995 0.00924
C 27.21623 19.86241 0.02326
C 28.23559 19.01852 0.00261
C 28.48639 17.66333 0.03265
C 27.1379 2.85263 -0.02049
C 28.30146 2.15786 -0.01854
C 24.57653 0.00253 0.02198
C 25.80835 0.6122 0.02611
C 25.93968 2.12316 -0.00621
C 24.71497 2.67228 0.00194
C 22.1184 25.47271 0.04306
C 22.10591 23.93203 0.00996
C 23.38217 23.48756 0.00195
C 22.20295 2.75097 -0.00802
C 23.44207 2.2988 -0.00218
C 23.38278 0.80298 -0.01654
C 22.08061 0.08385 -0.00037
C 24.58383 32.65695 -0.0032
C 26.99139 34.05462 -0.03039
C 25.80572 31.94326 0.00622
C 24.50072 29.81213 -0.00942
C 24.49589 28.42766 0.00487
C 25.77535 27.62887 0.00826
C 25.8387 26.2329 -0.00294
C 24.59871 25.56613 0.00152
C 24.56584 24.243 0.01257
C 25.71723 23.45129 0.02316
C 25.7986 22.06071 0.04185
C 25.77413 30.53755 -0.02815
C 2.45505 32.73491 -0.01303
