399
Graphene
C 0.00781 0.03601 0.01295
C 9.89486 34.07202 -0.02971
C 12.23247 32.72821 0.02894
C 13.51598 31.99943 -0.01789
C 13.56501 30.51153 0.00444
C 12.35449 29.86495 -0.00925
C 12.32735 28.43192 0.01877
C 13.46373 27.63508 0.01363
C 13.47561 26.23368 -0.02162
C 12.25969 25.44848 0.00415
C 12.30353 24.10861 -0.0014
C 13.58417 23.45287 0.02162
C 13.5497 21.97596 0.0076
C 12.33131 21.27215 0.01241
C 12.33024 19.85924 -0.01454
C 13.51717 19.2531 0.01945
C 13.5255 17.73809 0.01416
C 12.29267 16.96791 0.03542
C 12.26067 15.56774 0.02299
C 13.60278 14.83528 0.00244
C 13.47605 13.45593 -0.01717
C 12.27103 12.81228 0.05265
C 11.07252 0.67971 0.00165
C 12.26199 11.39257 -0.01952
C 10.99561 2.19435 0.02819
C 9.88279 4.31249 -0.01046
C 11.10086 26.3084 0.01641
C 9.86802 25.59494 -0.00719
C 9.85077 24.1689 0.01364
C 11.05439 23.45715 -0.01062
C 11.08724 22.01361 -0.00033
C 9.8647 21.33216 0.03589
C 9.84452 19.96179 -0.02759
C 11.04254 19.18716 0.0402
C 11.03584 17.81508 0.00572
C 9.84805 16.98589 0.03592
C 9.8508 15.6019 0.00406
C 11.09733 14.93814 0.00943
C 11.1425 13.48154 0.02841
C 9.80848 12.74473 -0.01111
C 9.82533 11.38116 -0.01275
C 11.07611 10.61712 0.00985
C 10.99015 9.21317 -0.02245
C 9.84316 8.51556 -0.00428
C 9.9182 7.11917 0.03101
C 11.08153 6.4121 -0.01536
C 11.10172 5.00113 -0.02689
C 9.81906 2.9561 -0.00891
C 11.07055 27.74136 0.02339
C 13.51086 10.58399 -0.02813
C 12.28897 8.48843 0.00052
C 15.99782 14.97176 0.00213
C 15.98994 13.46537 -0.00066
C 14.72132 12.78697 -0.00289
C 14.74925 11.38067 0.00028
C 16.01412 10.64574 -0.02213
C 16.03808 9.28878 0.03698
C 14.7664 8.46536 -0.00109
C 14.77275 7.07283 -0.00491
C 16.00475 6.36215 0.03338
C 16.02571 4.91586 -0.0258
C 14.70296 4.25371 -0.0331
C 14.72292 2.81494 -0.00316
C 15.98807 2.07575 0.02188
C 16.00915 0.68046 -0.01979
C 14.74536 0.05365 0.02691
C 17.16148 32.64113 -0.01581
C 18.41318 31.97695 0.01452
C 18.37729 30.58158 0.04892
C 17.18078 29.85924 -0.00111
C 17.19398 28.40861 -0.03557
C 18.47893 27.63813 0.03754
C 14.77599 15.63314 -0.05302
C 13.53656 9.21974 0.00374
C 14.74639 17.09303 -0.04147
C 16.04416 19.1914 0.03505
C 12.30857 7.10031 -0.03682
C 13.53735 6.32748 0.01965
C 13.48695 4.9307 0.02058
C 12.28292 4.253 -0.01957
C 12.33621 2.87062 -0.0108
C 13.48972 2.12541 -0.00368
C 13.48846 0.7205 -0.02696
C 12.25047 0.021 -0.00114
C 14.74018 32.67557 0.00228
C 15.90951 31.96273 0.00798
C 15.97397 30.55623 0.00422
C 14.79725 29.78089 0.0351
C 14.72964 28.35892 -0.03113
C 15.96989 27.60762 0.02098
C 15.95261 26.22942 0.01848
C 14.7566 25.53321 -0.00619
C 14.72391 24.13053 -0.02162
C 16.0175 23.41891 0.00889
C 16.03406 22.03887 -0.00481
C 14.73895 21.35094 0.00979
C 14.79016 19.8503 0.01443
C 15.96649 17.77534 -0.02815
C 18.438 26.26993 0.01739
C 9.85245 28.44472 -0.00334
C 11.07646 30.46439 0.00057
C 2.45243 4.28919 0.0073
C 2.43161 2.88116 0.0174
C 3.65987 2.1315 0.03828
C 3.67266 0.7238 0.01226
C 2.44754 0.0734 -0.00279
C 4.93205 32.60893 0.01996
C 6.17122 31.98281 -0.03996
C 6.16585 30.55272 0.01465
C 4.93344 29.83974 -0.00074
C 4.86131 28.47795 -0.00518
C 6.15758 27.70042 0.0086
C 6.13536 26.24768 -0.00643
C 4.8689 25.56507 0.017
C 4.88294 24.17459 -0.03113
C 6.17987 23.37817 -0.02566
C 6.19201 22.02013 -0.00094
C 4.9072 21.27636 0.02322
C 4.9929 19.84126 -0.00725
C 6.18231 19.16249 -0.05697
C 6.08265 17.74357 0.01087
C 4.8785 17.12967 -0.01343
C 3.69004 4.98954 0.00402
C 4.94037 15.61046 0.00988
C 3.6863 6.41596 0.02374
C 2.50868 8.51244 -0.01509
C 3.65785 30.48717 0.00211
C 2.50133 29.77164 -0.00449
C 2.35367 28.33384 -0.01979
C 3.658 27.77209 0.02784
C 3.62761 26.3306 -0.01977
C 2.44143 25.57089 -0.00561
C 2.50046 24.1741 0.00208
C 3.70281 23.37704 0.01707
C 3.74538 22.01617 0.02769
C 2.50352 21.3562 -0.03291
C 2.47627 19.91215 -0.04999
C 3.68487 19.14197 0.04505
C 3.62422 17.68037 0.03284
C 2.41574 16.99439 -0.04307
C 2.48683 15.60166 0.03189
C 3.69733 14.88899 0.00031
C 3.6773 13.52861 -0.003
C 2.4579 12.86549 0.01402
C 2.41483 11.38946 0.02379
C 3.74582 10.66269 0.00907
C 3.73784 9.2466 0.00643
C 2.48499 7.13947 0.03267
C 9.79406 29.73376 -0.01634
C 6.12994 14.90649 0.0276
C 4.86701 12.82509 -0.00077
C 8.55125 19.13065 0.0288
C 8.60718 17.74718 0.00393
C 7.35728 17.081 0.00895
C 7.35506 15.65985 0.00685
C 8.6381 14.85455 0.02888
C 8.57651 13.49827 -0.00482
C 7.35625 12.80678 -0.01384
C 7.41418 11.37391 0.03693
C 8.60007 10.64466 0.01745
C 8.60025 9.23165 0.00488
C 7.38937 8.57619 -0.01004
C 7.37929 7.13631 -0.02896
C 8.58026 6.44872 -0.00131
C 8.65826 4.97298 -0.01118
C 7.3863 4.31885 -0.014
C 7.37688 2.88958 0.02147
C 8.64927 2.21794 0.00373
C 8.57978 0.82018 -0.00191
C 7.36988 0.04892 0.00438
C 9.85238 32.69135 0.01291
C 10.99237 31.93966 0.00093
C 7.38336 19.92002 -0.0008
C 6.14836 13.48698 0.01305
C 7.39477 21.29571 -0.01362
C 8.56745 23.4699 -0.04848
C 4.90106 11.43051 0.03368
C 6.17472 10.66968 -0.02929
C 6.07215 9.23401 -0.00966
C 4.86921 8.55458 -0.03337
C 4.9275 7.08258 0.01227
C 6.17742 6.38716 0.00873
C 6.10148 5.03982 -0.00049
C 4.90001 4.28719 0.00848
C 4.97226 2.9037 -0.01303
C 6.18084 2.09185 -0.01378
C 6.149 0.73026 0.02635
C 4.87959 34.0679 0.0127
C 7.3929 32.67408 0.01396
C 8.5845 31.99798 0.01849
C 8.51511 30.53558 -0.01142
C 7.32636 29.81052 -0.00562
C 7.37153 28.33146 -0.00494
C 8.63451 27.73185 0.00054
C 8.56962 26.27174 0.03007
C 7.37507 25.59389 -0.00095
C 7.36604 24.11162 0.01572
C 8.59404 22.0131 -0.00892
C 3.66622 31.9753 0.0064
C 17.26202 25.54062 0.00755
C 18.48612 23.45207 0.00667
C 29.48009 7.07398 0.01518
C 30.73155 6.40225 0.01908
C 30.71665 4.98231 0.07705
C 29.47273 4.30691 0.0103
C 29.56377 2.827 0.02108
C 30.7688 2.07839 0.00716
C 30.80832 0.65867 0.00307
C 29.51923 34.07431 0.00346
C 31.96118 32.6666 0.01713
C 33.2139 31.95289 -0.01694
C 33.18978 30.51419 0.01428
C 31.97038 29.80077 -0.02142
C 31.96725 28.42138 0.0544
C 33.24987 27.74098 0.00026
C 33.20579 26.20053 0.00682
C 32.0107 25.53164 -0.01779
C 31.97285 24.13232 0.03794
C 33.21456 23.46125 0.01927
C 33.19624 21.95875 0.01574
C 31.93748 21.26465 -0.02383
C 32.03822 19.91101 -0.01429
C 29.45815 8.4728 -0.00971
C 33.17446 19.20862 -0.0136
C 30.69746 9.20071 -0.03735
C 29.47148 11.39064 -0.02155
C 27.0227 7.0942 -0.00416
C 28.28756 6.32145 0.01177
C 28.2946 4.95715 0.04266
C 27.06564 4.2841 0.01324
C 27.11521 2.81845 0.0014
C 28.29707 2.04218 0.00924
C 28.30316 0.69063 0.02326
C 27.09291 34.057 0.00261
C 29.46856 32.61534 0.03265
C 30.7501 31.92231 -0.02049
C 30.74614 30.52145 -0.01854
C 29.51401 29.85421 -0.01415
C 29.57201 28.48784 -0.03039
C 30.74258 27.69451 0.01836
C 30.78033 26.30164 0.03531
C 29.43357 25.61408 -0.00669
C 30.75454 23.44751 0.0101
C 29.51805 15.57235 0.01705
C 30.77392 14.95173 -0.0405
C 30.77678 13.49212 -0.01303
C 29.47239 12.74583 -0.01461
C 30.73355 10.68519 -0.00944
C 27.04626 8.53585 0.01699
C 33.2167 17.81495 0.00594
C 31.96727 15.55686 0.00369
C 1.19299 21.99618 0.02712
C 34.42341 21.28486 -0.02213
C 0.06491 19.89167 0.01951
C 1.17628 19.13368 -0.01678
C 1.16128 17.7492 0.01223
C 34.40468 16.98332 0.00648
C 34.39259 15.59706 0.02114
C 1.20863 14.86574 -0.02957
C 1.22098 13.5494 0.00343
C 0.00862 12.82103 -0.02656
C 34.42037 11.35444 -0.02442
C 1.21811 10.64475 -0.00027
C 1.17297 9.20115 -0.00583
C 34.35906 8.53783 -0.02302
C 0.00595 7.11836 -0.02849
C 1.26934 6.33292 0.02931
C 1.22765 4.94231 0.00628
C 34.37822 4.28781 -0.0345
C 0.00474 2.85629 -0.00931
C 1.21944 2.20684 -0.00939
C 1.19052 0.76345 -0.00468
C 1.20359 23.43529 0.00723
C 31.99432 17.08399 -0.02474
C 0.0104 24.1569 0.03076
C 1.23961 26.26506 -0.00598
C 33.18749 14.85118 0.00455
C 33.19382 13.46133 -0.00644
C 31.9519 12.79649 -0.01839
C 31.94952 11.42819 0.00137
C 33.18693 10.59652 0.00199
C 33.17581 9.19491 0.04381
C 31.89697 8.52118 0.02806
C 31.97018 7.12933 0.01504
C 33.23628 6.395 -0.00069
C 33.13001 4.9134 0.04926
C 31.92313 4.26464 -0.03838
C 31.99578 2.83882 0.00349
C 33.1882 2.07807 -0.00323
C 33.17641 0.71618 -0.00841
C 32.00515 34.02273 0.0001
C 0.01802 32.66235 -0.02927
C 1.26106 31.96625 -0.01404
C 1.2193 30.50772 0.01027
C 0.02095 29.76674 0.01831
C 34.42576 28.37206 -0.01037
C 1.1842 27.6621 -0.00439
C 0.01092 25.57265 -0.05239
C 17.25189 24.11663 -0.0054
C 28.26227 9.27374 0.01799
C 26.96121 11.35246 0.01495
C 19.59356 29.78881 0.01511
C 19.66489 28.33297 -0.00478
C 20.87089 27.68826 -0.01662
C 20.94841 26.27838 -0.01185
C 19.76662 25.50858 0.01126
C 19.53838 24.16317 0.01852
C 19.65196 15.48694 -0.00381
C 20.85708 14.91554 0.03046
C 20.90706 13.47574 0.0296
C 19.71739 12.71774 0.03374
C 19.7197 11.29542 -0.02845
C 20.95221 10.64943 -0.03213
C 20.90133 9.22831 0.02239
C 19.7115 8.4489 0.01153
C 19.64145 7.0632 0.02734
C 20.86693 6.40509 -0.0055
C 20.96561 4.91749 0.01515
C 19.76797 4.21865 -0.00225
C 19.63739 2.79982 0.00071
C 20.88585 2.11748 -0.01107
C 20.92514 0.72863 -0.01586
C 20.88059 30.48963 0.00199
C 19.72724 0.02321 -0.01971
C 20.87729 31.91666 0.01087
C 17.2216 34.07702 0.00096
C 18.5059 21.98599 0.00143
C 17.2971 21.34908 -0.017
C 17.27566 19.93129 0.00364
C 18.45689 19.15481 -0.00831
C 18.4891 17.73229 -0.02957
C 17.21454 17.06577 -0.04422
C 17.2268 15.65166 0.00654
C 18.41109 14.97793 -0.00703
C 18.43822 13.48275 -0.04076
C 17.22591 12.80638 -0.00652
C 17.19836 11.39745 0.0058
C 18.44516 10.63312 -0.00865
C 18.50105 9.24015 0.00675
C 17.21015 8.5915 -0.00311
C 17.21162 7.05259 0.00742
C 18.45541 6.41236 -0.01594
C 18.50777 4.95723 0.0106
C 17.2785 4.22929 -0.01154
C 17.13067 2.80317 -0.01721
C 18.4459 2.14964 -0.02422
C 18.41969 0.67382 0.01277
C 19.8233 32.71283 -0.01527
C 28.24132 10.69529 0.01259
C 22.12266 32.65493 -0.02118
C 23.37501 30.51033 -0.00178
C 24.50096 11.38767 -0.00802
C 25.7231 10.6754 -0.00218
C 25.76584 9.23273 -0.01654
C 24.56147 8.51849 -0.00037
C 24.61868 7.06521 -0.0032
C 25.73784 6.3286 0.00622
C 25.80869 4.95676 -0.02815
C 24.55325 4.26219 -0.00942
C 24.54014 2.81559 0.00487
C 25.77962 2.16067 0.00826
C 25.81059 0.71856 -0.00294
C 24.60202 34.06419 0.00152
C 27.03385 32.65843 0.01257
C 28.28772 31.85244 0.02316
C 28.30223 30.50693 0.04185
C 27.05612 29.79331 0.00194
C 27.06776 28.39453 -0.00621
C 28.39284 27.79114 0.02611
C 28.35493 26.27253 0.02198
C 28.26477 13.41064 0.01094
C 27.03555 12.77945 0.00235
C 24.57464 12.87161 0.00195
C 23.31587 31.96953 0.00733
C 25.82458 13.44072 0.00996
C 24.65153 28.40547 0.00367
C 22.16617 29.83414 0.00768
C 22.11696 28.41161 -0.0276
C 23.31766 27.65668 0.03005
C 23.32458 13.51404 -0.04078
C 22.14668 12.78894 0.02117
C 22.11171 11.34602 0.02737
C 23.33111 10.64199 -0.00498
C 23.36121 9.20539 0.00135
C 22.10723 8.51146 0.03102
C 22.13643 7.08693 0.02555
C 23.39313 6.37041 0.01423
C 23.36368 5.02916 -0.00285
C 22.19066 4.28632 -0.009
C 22.07803 2.83603 -0.01199
C 23.36859 2.10005 -0.00229
C 23.37659 0.73318 -0.00938
C 22.15439 0.06369 -0.0264
C 24.60675 32.62487 -0.01154
C 25.81614 31.89575 0.00684
C 25.9156 30.52177 -0.01052
C 24.57209 29.87387 -0.01679
C 25.86677 27.73726 0.04306
C 2.45385 32.72718 -0.00039
