339
Graphene
C 0.02669 0.05121 0.01295
C 11.1332 19.18271 -0.02162
C 11.01444 17.83159 0.00889
C 9.84025 17.07232 -0.00481
C 9.87845 15.62079 0.00979
C 11.10098 14.94558 0.01443
C 11.09626 13.51339 0.03505
C 9.75541 12.76896 -0.02815
C 9.79128 11.32075 -0.04147
C 11.03746 10.52707 -0.05302
C 11.08926 9.19198 0.00213
C 9.90068 8.52372 -0.00066
C 9.87558 7.04658 -0.00289
C 11.11371 6.36078 0.00028
C 11.11614 4.95475 -0.02213
C 9.83305 4.34116 0.03698
C 9.86847 2.80744 -0.00109
C 11.09113 2.0341 -0.00491
C 9.75771 19.82147 -0.00619
C 11.13281 0.61888 0.03338
C 9.77419 21.25144 0.01848
C 11.03304 23.28897 -0.03113
C 7.37581 8.48963 0.05265
C 7.32892 7.14967 -0.01952
C 8.52457 6.46063 -0.02813
C 8.60834 5.04133 0.00374
C 7.40853 4.3003 0.00052
C 7.39269 2.85947 -0.03682
C 8.62991 2.12194 0.01965
C 8.58595 0.73769 0.02058
C 7.40487 34.04241 -0.01957
C 9.88625 32.69651 -0.0108
C 11.07641 32.01086 -0.00368
C 11.0096 30.56756 -0.02696
C 9.83362 29.901 -0.00114
C 9.88159 28.31008 0.00228
C 11.05322 27.63583 0.00798
C 9.86221 25.64125 0.00422
C 9.98762 24.20403 0.0351
C 11.00346 22.01526 0.02098
C 9.81664 0.03142 -0.0258
C 12.30143 32.61667 -0.0331
C 13.52408 32.00253 -0.00316
C 14.80131 17.04419 -0.00652
C 14.8463 15.63499 0.0058
C 16.03874 14.93354 -0.00865
C 16.001 13.51476 0.00675
C 14.74137 12.89225 -0.00311
C 14.74326 11.38671 0.00742
C 15.96866 10.58783 -0.01594
C 15.97565 9.16927 0.0106
C 14.75069 8.56626 -0.01154
C 14.736 7.08609 -0.01721
C 15.94763 6.39634 -0.02422
C 15.92864 4.9997 0.01277
C 14.77656 4.25359 0.00096
C 14.83227 2.87123 -0.01527
C 15.99576 2.0921 0.01087
C 16.0124 0.66913 0.00199
C 14.78066 34.02751 0.01511
C 16.00054 17.67017 -0.04076
C 14.53367 32.61608 -0.00703
C 12.30764 34.02777 0.00654
C 13.53704 0.65328 -0.04422
C 12.39059 19.78652 0.02188
C 13.44051 19.26555 -0.01979
C 13.50156 17.75849 0.02691
C 12.22894 17.10035 -0.01581
C 12.25291 15.70444 0.01452
C 13.51219 14.98127 0.04892
C 13.4804 13.5305 -0.00111
C 12.33323 12.75671 -0.03557
C 8.63105 9.20408 -0.01717
C 12.29399 11.35079 0.03754
C 13.54437 9.28351 0.00755
C 12.34262 8.53753 -0.0054
C 12.34362 7.10907 0.00667
C 13.53008 6.33069 0.00143
C 13.5029 4.92912 -0.017
C 12.3004 4.23188 0.00364
C 12.33725 2.86446 -0.00831
C 13.5207 2.13833 -0.02957
C 13.50013 10.68285 0.01739
C 18.40271 17.74826 -0.00478
C 8.60797 10.63326 0.00244
C 7.32523 12.77863 0.03542
C 2.47185 8.52458 -0.01384
C 2.47949 7.04986 0.03693
C 3.68066 6.37037 0.01745
C 3.65259 4.88545 0.00488
C 2.39696 4.24527 -0.01004
C 2.47577 2.82282 -0.02896
C 3.64835 2.10907 -0.00131
C 3.7209 0.7253 -0.01118
C 2.54837 0.02513 -0.014
C 4.90437 32.75598 0.02147
C 6.18456 31.94186 0.00373
C 6.11775 30.56157 -0.00191
C 4.8987 29.86077 0.00438
C 4.94077 28.45478 0.01291
C 6.1468 27.63522 0.00093
C 6.1337 26.26912 0.00057
C 4.88932 25.60214 -0.01634
C 3.64103 9.23839 -0.00482
C 4.92013 24.1585 -0.00334
C 3.67718 10.72383 0.02888
C 2.49099 12.74748 0.00895
C 3.71257 30.60284 0.02635
C 2.50473 29.85666 0.0127
C 2.43645 28.43879 0.01396
C 3.63217 27.77993 0.01849
C 3.68363 26.32813 -0.01142
C 2.47162 25.52338 -0.00562
C 2.41411 24.12597 -0.00494
C 3.66186 23.44083 0.00054
C 3.77406 21.95468 0.03007
C 2.51997 21.32616 -0.00095
C 2.47217 19.86644 0.01572
C 3.7629 19.13468 -0.04848
C 3.67438 17.73382 -0.00892
C 2.38004 17.06016 -0.01362
C 2.42142 15.70249 -0.0008
C 3.67251 14.94659 0.0288
C 3.70375 13.49168 0.00393
C 2.42198 11.38365 0.00685
C 6.21491 23.42327 0.02339
C 6.13334 21.98975 0.01641
C 4.96666 21.26907 -0.00719
C 8.51987 30.49714 0.00165
C 7.31604 29.91542 -0.02971
C 7.32965 28.47296 0.02894
C 8.56051 27.7297 -0.01789
C 8.64199 26.31042 0.00444
C 7.37538 25.48315 -0.00925
C 7.45837 24.14171 0.01877
C 8.66914 23.47124 0.01363
C 8.59203 22.06457 -0.02162
C 7.36957 21.28792 0.00415
C 7.32592 19.83097 -0.0014
C 8.58112 19.13027 0.02162
C 8.6247 17.75605 0.0076
C 7.37492 17.0029 0.01241
C 7.36265 15.66402 -0.01454
C 8.62285 14.97694 0.01945
C 8.53292 13.50615 0.01416
C 8.70046 31.93198 0.02819
C 7.47024 32.64369 -0.00891
C 4.92274 0.02817 -0.01046
C 6.14882 0.61709 -0.02689
C 4.90984 19.86344 0.01364
C 6.07522 19.16597 -0.01062
C 6.08808 17.69292 -0.00033
C 4.90573 17.01933 0.03589
C 4.90187 15.6419 -0.02759
C 6.12565 14.92436 0.0402
C 6.14622 13.44907 0.00572
C 4.91648 12.81199 0.03592
C 7.37183 11.38308 0.02299
C 4.9473 11.40458 0.00406
C 6.14608 9.2181 0.02841
C 4.91566 8.56115 -0.01111
C 4.94807 7.12031 -0.01275
C 6.11512 6.41825 0.00985
C 6.10401 5.02492 -0.02245
C 4.95386 4.26387 -0.00428
C 4.92972 2.89412 0.03101
C 6.15465 2.15813 -0.01536
C 6.19901 10.71632 0.00943
C 3.67313 32.05011 -0.01378
C 17.22069 17.11129 -0.01662
C 18.45946 14.91017 0.01126
C 29.46353 2.8414 -0.02142
C 30.7543 2.19698 0.0544
C 30.75384 0.71161 0.00026
C 29.51707 34.04121 0.00682
C 31.91821 32.70637 -0.01779
C 33.15041 31.98668 0.03794
C 33.26405 30.57389 0.01927
C 33.15237 27.64735 0.01574
C 33.18861 22.09187 -0.02383
C 31.91402 19.78446 -0.01429
C 33.21538 19.17666 -0.0136
C 33.15453 17.80587 0.00594
C 31.96044 17.05756 -0.02474
C 32.04176 15.68058 0.00369
C 33.22866 14.84406 0.00455
C 33.17736 13.47127 -0.00644
C 31.91114 12.77254 -0.01839
C 29.4931 4.23594 0.01428
C 31.93871 11.40905 0.00137
C 30.64182 4.97998 -0.01694
C 29.47897 7.12829 0.00346
C 26.98862 2.76724 -0.00669
C 28.2851 2.15606 0.0101
C 28.26346 0.74327 0.01705
C 27.05957 34.07358 -0.0405
C 29.57378 32.59627 -0.01303
C 30.65408 32.00987 -0.01461
C 30.83764 19.24423 -0.02155
C 30.7695 17.79013 -0.00944
C 29.51464 17.11834 -0.03735
C 29.49271 15.61924 -0.00971
C 30.74618 14.94592 0.01518
C 30.70307 13.50225 0.01908
C 29.45995 12.8306 0.07705
C 29.56853 11.36006 0.0103
C 30.75153 10.57592 0.02108
C 30.80112 9.18769 0.00716
C 29.51208 8.53535 0.00307
C 30.71476 6.41221 0.01713
C 33.19393 10.65387 0.00199
C 33.18022 9.2159 0.04381
C 31.96011 8.48895 0.02806
C 1.19462 17.79233 0.01223
C 0.01695 17.08564 0.00648
C 0.02953 15.51965 0.02114
C 1.27276 14.88582 -0.02957
C 1.26521 13.48256 0.00343
C 34.43216 12.82525 -0.02656
C 34.41457 11.30731 -0.02442
C 1.17718 10.65268 -0.00027
C 1.2487 9.1844 -0.00583
C 34.37897 8.48417 -0.02302
C 34.3782 7.11159 -0.02849
C 1.18286 6.37545 0.02931
C 1.14328 4.9932 0.00628
C 34.39276 4.2457 -0.0345
C 0.01943 2.75693 -0.00931
C 1.27442 2.11244 -0.00939
C 1.25116 0.75951 -0.00468
C 1.26644 19.14952 -0.01678
C 0.02196 19.78831 0.01951
C 34.41433 21.32242 -0.02213
C 1.3023 21.97811 0.02712
C 31.92494 7.06226 0.01504
C 33.19042 6.37122 -0.00069
C 33.19761 4.98069 0.04926
C 31.94188 4.32034 -0.03838
C 32.00312 2.92413 0.00349
C 33.1959 2.14266 -0.00323
C 33.24709 0.77306 -0.00841
C 31.92859 0.03157 0.0001
C 27.06652 4.21849 0.03531
C 0.00074 32.66852 -0.02927
C 1.29428 30.60389 0.01027
C 0.03141 29.83046 0.01831
C 34.36686 28.3075 -0.01037
C 1.2369 27.73992 -0.00439
C 1.23854 26.2726 -0.00598
C 0.01764 25.60677 -0.05239
C 34.34886 24.09378 0.03076
C 1.14563 23.39487 0.00723
C 1.2312 31.96266 -0.01404
C 17.30918 15.60763 -0.01185
C 28.23056 4.93697 0.01836
C 26.99665 7.07903 -0.01415
C 20.86379 10.59602 -0.0276
C 20.85209 9.21461 0.03005
C 19.65371 8.49708 -0.04078
C 19.68789 7.14764 0.02117
C 20.90057 6.45563 0.02737
C 20.91539 4.99734 -0.00498
C 19.68404 4.24018 0.00135
C 19.59812 2.81214 0.03102
C 20.82018 2.1647 0.02555
C 20.88442 0.71503 0.01423
C 19.75074 34.02924 -0.00285
C 22.16135 32.69161 -0.009
C 23.35177 17.76246 -0.01199
C 22.14936 17.15502 -0.00229
C 22.0935 15.69047 -0.00938
C 23.32479 14.94432 -0.0264
C 23.30946 13.49102 -0.01154
C 19.67516 11.37751 0.00768
C 22.15839 12.76209 0.00684
C 19.67164 12.78777 -0.00178
C 20.88134 14.88799 -0.02118
C 18.44274 13.46708 0.01852
C 17.18916 12.79835 -0.00381
C 17.19624 11.40233 0.03046
C 18.43602 10.582 0.0296
C 18.42233 9.17435 0.03374
C 17.15659 8.48024 -0.02845
C 17.20005 7.1157 -0.03213
C 18.47637 6.37879 0.02239
C 18.35772 4.91231 0.01153
C 17.16532 4.25116 0.02734
C 17.21816 2.81648 -0.0055
C 18.41875 2.0817 0.01515
C 18.41594 0.66189 -0.00225
C 17.24051 34.0658 0.00071
C 20.90068 17.70594 -0.01107
C 19.70342 17.11669 -0.01586
C 19.66477 15.58283 -0.01971
C 20.92791 13.41224 0.00733
C 22.12115 11.33429 -0.01052
C 23.3112 10.63322 -0.01679
C 23.39262 9.20977 0.00367
C 25.86583 4.93644 0.01094
C 24.59311 4.29406 0.00235
C 24.50071 2.86514 0.01495
C 25.72168 2.07159 0.01259
C 25.81768 0.63434 0.01799
C 24.57552 34.03083 0.01699
C 27.13473 32.66351 -0.00416
C 28.32018 17.71679 0.01177
C 26.93641 17.0886 0.04266
C 26.99774 15.54345 0.01324
C 28.27552 14.8916 0.0014
C 28.27657 13.46871 0.00924
C 27.08422 12.7125 0.02326
C 27.11323 11.28173 0.00261
C 28.33037 10.60297 0.03265
C 28.2928 9.22723 -0.02049
C 27.08435 8.43563 -0.01854
C 25.78331 6.35365 0.02198
C 24.56695 7.11926 0.02611
C 24.66929 8.48373 -0.00621
C 25.92114 9.19034 0.00194
C 22.08795 8.49133 0.04306
C 22.14888 7.10136 0.00996
C 23.37736 6.4125 0.00195
C 23.39413 4.9744 -0.00802
C 22.18561 4.27288 -0.00218
C 22.07153 2.83676 -0.01654
C 23.3297 2.15081 -0.00037
C 23.40308 0.70818 -0.0032
C 28.2946 6.37676 -0.03039
C 22.18926 0.02665 0.00622
C 25.8078 17.77539 -0.00942
C 24.62989 16.98744 0.00487
C 24.56672 15.595 0.00826
C 25.81515 14.91454 -0.00294
C 25.81329 13.54818 0.00152
C 24.56082 12.78724 0.01257
C 24.60124 11.39152 0.02316
C 25.78646 10.66587 0.04185
C 24.58123 32.64464 -0.02815
C 2.46553 32.72233 -0.01303
