420
Graphene
C 34.37349 34.05165 0.01295
C 13.46453 27.75083 0.00406
C 13.46358 26.39343 0.00943
C 12.30512 25.59487 0.02841
C 12.26364 24.18287 -0.01111
C 13.43287 23.40585 -0.01275
C 13.51114 22.00598 0.00985
C 12.20483 21.31211 -0.02245
C 12.30843 19.90604 -0.00428
C 13.5401 19.1604 0.03101
C 13.53633 17.76052 -0.01536
C 12.27711 28.5251 0.03592
C 12.26949 17.10906 -0.02689
C 13.52489 14.8625 -0.00891
C 13.51803 13.42853 0.02819
C 12.31173 12.69815 0.00165
C 12.3192 11.24995 -0.02971
C 13.57397 10.58891 0.02894
C 13.51403 9.22837 -0.01789
C 12.36024 8.51134 0.00444
C 12.2654 7.06138 -0.00925
C 13.49095 6.36119 0.01877
C 13.55516 4.88539 0.01363
C 12.23052 15.655 -0.01046
C 12.25206 4.21565 -0.02162
C 12.27679 29.94174 0.00572
C 13.50406 32.00471 -0.02759
C 9.9189 21.32825 0.00488
C 9.87677 19.95657 -0.01004
C 11.04441 19.24702 -0.02896
C 11.03371 17.76205 -0.00131
C 9.82206 17.06717 -0.01118
C 9.89194 15.57846 -0.014
C 11.07074 14.86401 0.02147
C 11.13932 13.46147 0.00373
C 9.86855 12.79768 -0.00191
C 9.78634 11.46527 0.00438
C 13.49517 30.59124 0.0402
C 11.08553 10.69955 0.01291
C 9.82917 8.54754 0.00057
C 9.77166 7.0785 -0.01634
C 11.01444 6.34332 -0.00334
C 11.00848 4.91872 0.02339
C 9.76346 4.2645 0.01641
C 9.7281 2.90916 -0.00719
C 10.97178 2.19666 0.01364
C 11.05899 0.78296 -0.01062
C 9.83515 0.0877 -0.00033
C 12.25067 32.75872 0.03589
C 11.08941 9.21843 0.00093
C 12.23635 2.79575 0.00415
C 13.48849 2.17931 -0.0014
C 13.51771 0.76838 0.02162
C 15.96821 4.94866 0.02098
C 14.79003 4.25053 0.01848
C 14.73913 2.86405 -0.00619
C 15.95161 2.1717 -0.02162
C 15.99386 0.73376 0.00889
C 14.76542 0.04113 -0.00481
C 17.20721 32.69414 0.00979
C 18.36713 31.88402 0.01443
C 18.44909 30.527 0.03505
C 17.20042 29.85999 -0.02815
C 15.98756 6.37228 -0.03113
C 17.14483 28.41152 -0.04147
C 18.28389 26.29149 0.00213
C 17.12697 25.52024 -0.00066
C 17.17847 24.11589 -0.00289
C 18.45646 23.40163 0.00028
C 18.23103 21.98182 -0.02213
C 17.02801 21.2861 0.03698
C 17.19331 19.82604 -0.00109
C 18.47577 19.30247 -0.00491
C 18.59368 17.88506 0.03338
C 17.35996 17.12432 -0.0258
C 18.32615 27.66402 -0.05302
C 14.69747 7.09336 0.0351
C 14.80323 8.4425 0.00422
C 16.05814 9.13276 0.00798
C 12.31362 0.10466 0.0076
C 14.73625 32.68825 0.01241
C 15.93657 32.0105 -0.01454
C 15.96117 30.57086 0.01945
C 14.7203 29.9171 0.01416
C 14.69251 28.433 0.03542
C 15.86932 27.70771 0.02299
C 15.90938 26.24869 0.00244
C 14.70763 25.52485 -0.01717
C 14.64909 24.1193 0.05265
C 15.93532 23.42721 -0.01952
C 15.85192 22.08429 -0.02813
C 14.69728 21.3363 0.00374
C 14.76176 19.91257 0.00052
C 15.95999 19.11856 -0.03682
C 16.08625 17.75497 0.01965
C 14.71547 17.06617 0.02058
C 14.8008 15.52342 -0.01957
C 16.0323 14.88356 -0.0108
C 15.97329 13.46795 -0.00368
C 14.76203 12.81702 -0.02696
C 14.79346 11.29121 -0.00114
C 15.97788 10.57155 0.00228
C 11.01861 22.10269 0.01745
C 17.25042 15.67014 -0.0331
C 11.01285 23.48416 0.03693
C 9.85069 25.70859 -0.00482
C 2.39145 2.88948 -0.00561
C 3.61505 2.1882 0.00208
C 3.57588 0.75132 0.01707
C 2.31531 34.05025 0.02769
C 4.84308 32.70689 -0.03291
C 6.168 32.01043 -0.04999
C 6.12833 30.57273 0.04505
C 4.89782 29.84045 0.03284
C 4.82107 28.38123 -0.04307
C 6.18754 27.73375 0.03189
C 2.3679 4.36422 -0.01977
C 6.16562 26.30506 0.00031
C 4.89313 24.1774 0.01402
C 6.06487 23.50109 0.02379
C 6.06255 22.06889 0.00907
C 4.86271 21.37414 0.00643
C 4.89726 19.87931 -0.01509
C 6.12985 19.20479 0.03267
C 6.13195 17.7963 0.02374
C 4.92785 17.07948 0.00402
C 4.88608 15.64186 0.0073
C 6.12464 14.8988 0.0174
C 4.93777 25.52955 -0.003
C 6.158 13.52566 0.03828
C 3.5997 5.02011 0.02784
C 2.42693 7.07082 -0.00449
C 3.68524 30.55808 0.00748
C 2.44437 29.79874 0.00662
C 2.52053 28.36253 -0.0154
C 3.70421 27.62988 -0.01299
C 3.71002 26.18906 -0.00407
C 2.46846 25.56556 0.01138
C 2.38395 24.11274 0.03278
C 3.6407 23.41645 -0.00177
C 3.65856 21.97302 0.04421
C 2.46309 21.23501 0.00088
C 3.65811 6.43609 -0.01979
C 2.44884 19.89376 0.00828
C 3.63648 17.76371 0.00558
C 2.5076 17.01981 -0.0059
C 2.4416 15.65071 -0.01386
C 3.68211 15.00764 -0.02805
C 3.61516 13.40751 0.00081
C 2.45263 12.73863 0.00245
C 2.43166 11.33102 0.02728
C 3.66591 10.68885 -0.00039
C 3.62438 9.30358 0.0064
C 2.38566 8.52304 0.00211
C 3.65365 19.15588 -0.02375
C 4.89676 12.82666 0.01226
C 4.95338 11.40144 -0.00279
C 6.12512 10.7067 0.01996
C 8.60407 14.96893 -0.01303
C 8.64059 13.53416 -0.01378
C 7.39192 12.8278 0.02635
C 7.46286 11.35405 0.0127
C 8.63716 10.67918 0.01396
C 8.57585 9.26321 0.01849
C 7.38567 8.55127 -0.01142
C 7.34389 7.15626 -0.00562
C 8.50958 6.41713 -0.00494
C 8.49054 4.97391 0.00054
C 7.36734 15.67005 0.00848
C 7.28284 4.35103 0.03007
C 8.55327 2.14692 0.01572
C 8.55869 0.76522 -0.04848
C 7.30415 0.1103 -0.00892
C 9.79061 32.66704 -0.01362
C 11.05067 32.03573 -0.0008
C 11.03171 30.70272 0.0288
C 9.79992 29.94935 0.00393
C 9.8195 28.45095 0.00895
C 11.01014 27.74917 0.00685
C 11.08197 26.38382 0.02888
C 7.33764 2.93371 -0.00095
C 7.36381 17.09947 -0.00049
C 8.55223 17.82147 0.00873
C 8.53595 19.2905 0.01227
C 6.13214 9.2556 -0.03996
C 4.79711 8.57002 0.01465
C 4.86109 7.18315 -0.00074
C 6.05526 6.51168 -0.00518
C 6.06902 5.07658 0.0086
C 4.85987 4.33515 -0.00643
C 4.86893 2.9127 0.017
C 6.10529 2.24409 -0.03113
C 6.12419 0.82227 -0.02566
C 4.86125 0.02951 -0.00094
C 7.33345 32.80777 0.02322
C 8.48983 32.05293 -0.00725
C 8.58255 30.61413 -0.05697
C 7.34975 29.92348 0.01087
C 7.34611 28.50596 -0.01343
C 8.59624 27.72444 0.00988
C 8.59454 26.31986 0.0276
C 7.34529 25.57592 0.01305
C 7.34353 24.17038 -0.00077
C 8.57693 23.43863 0.03368
C 8.61967 22.09993 -0.02929
C 7.40292 21.37426 -0.00966
C 7.36383 19.93762 -0.03337
C 9.85761 24.21818 -0.01384
C 18.4553 14.80953 -0.00316
C 18.46937 13.40451 0.02188
C 17.22963 12.70205 -0.01979
C 29.5277 11.34295 -0.02155
C 30.72664 10.64343 -0.00944
C 30.7094 9.16226 -0.03735
C 29.48889 8.56261 -0.00971
C 29.4922 7.02762 0.01518
C 30.70975 6.31458 0.01908
C 30.70421 4.94963 0.07705
C 29.46185 4.2707 0.0103
C 29.41157 2.7474 0.02108
C 30.65292 2.16106 0.00716
C 29.50289 12.72182 -0.01461
C 30.73318 0.66477 0.00307
C 32.01012 32.60267 0.01713
C 33.26799 31.8826 -0.01694
C 33.2164 30.55238 0.01428
C 31.9697 29.84911 -0.02142
C 31.92206 28.29875 0.0544
C 33.18018 27.64209 0.00026
C 33.12655 26.22087 0.00682
C 31.8911 25.53361 -0.01779
C 31.82148 24.05474 0.03794
C 33.04732 23.35253 0.01927
C 29.47582 34.07416 0.00346
C 33.04307 21.94996 0.01574
C 30.69924 13.45558 -0.01303
C 29.53633 15.58501 0.01705
C 28.22555 4.96844 0.00235
C 27.03617 4.25717 0.01495
C 26.99913 2.82879 0.01259
C 28.17482 2.14528 0.01799
C 28.21211 0.76405 0.01699
C 26.98929 0.04765 -0.00416
C 29.40991 32.67586 0.01177
C 30.66211 31.99555 0.04266
C 30.75492 30.51052 0.01324
C 29.44897 29.71166 0.0014
C 30.71179 14.90801 -0.0405
C 29.46643 28.32391 0.00924
C 30.66655 26.22196 0.00261
C 29.40478 25.4197 0.03265
C 29.38589 24.04395 -0.02049
C 30.62736 23.40096 -0.01854
C 30.68552 21.98827 -0.01415
C 29.27442 21.18734 -0.03039
C 29.39936 19.94991 0.01836
C 30.66229 19.17554 0.03531
C 30.72459 17.79718 -0.00669
C 29.55008 16.98395 0.0101
C 30.66223 27.64431 0.02326
C 31.8242 21.25944 -0.02383
C 31.87194 19.86577 -0.01429
C 33.0991 19.14767 -0.0136
C 1.2241 23.38827 0.00723
C 1.18157 22.01205 0.02712
C 34.35149 21.33498 -0.02213
C 34.39217 19.85891 0.01951
C 1.16072 19.19091 -0.01678
C 1.1927 17.79713 0.01223
C 0.02276 17.00631 0.00648
C 34.42926 15.58087 0.02114
C 1.20427 14.86413 -0.02957
C 1.21935 13.4427 0.00343
C 34.38803 24.05369 0.03076
C 34.42336 12.8474 -0.02656
C 1.20614 10.6365 -0.00027
C 1.13502 9.18082 -0.00583
C 34.33256 8.42752 -0.02302
C 34.3848 7.04141 -0.02849
C 1.19256 6.43325 0.02931
C 1.12721 4.96663 0.00628
C 34.40523 4.21844 -0.0345
C 34.37397 2.82556 -0.00931
C 1.15376 2.11228 -0.00939
C 1.10181 0.73009 -0.00468
C 34.37003 11.35723 -0.02442
C 34.35278 25.46885 -0.05239
C 1.20779 26.26738 -0.00598
C 1.19559 27.74834 -0.00439
C 33.20593 17.72215 0.00594
C 31.95827 17.05207 -0.02474
C 31.94948 15.64084 0.00369
C 33.18035 14.95596 0.00455
C 33.17982 13.53659 -0.00644
C 31.9794 12.75867 -0.01839
C 31.95662 11.36234 0.00137
C 33.14583 10.65454 0.00199
C 33.14466 9.15448 0.04381
C 31.9262 8.422 0.02806
C 31.97182 7.01214 0.01504
C 33.14105 6.30836 -0.00069
C 33.18721 4.90344 0.04926
C 31.9726 4.24648 -0.03838
C 31.90326 2.84057 0.00349
C 33.22362 2.10234 -0.00323
C 33.21078 0.68567 -0.00841
C 31.90207 33.97628 0.0001
C 34.42024 32.62647 -0.02927
C 1.20827 31.92966 -0.01404
C 1.18482 30.51153 0.01027
C 0.02788 29.80288 0.01831
C 34.41015 28.3473 -0.01037
C 28.23581 6.37545 0.01094
C 27.05033 7.1392 0.02198
C 27.05959 8.51778 0.02611
C 28.3069 9.22763 -0.00621
C 20.96341 10.75451 0.0106
C 20.9726 9.25564 -0.01154
C 19.78473 8.53342 -0.01721
C 19.73316 7.05944 -0.02422
C 20.94641 6.36882 0.01277
C 20.93792 5.0004 0.00096
C 19.70336 4.23123 -0.01527
C 19.72659 2.87916 0.01087
C 20.87043 2.08115 0.00199
C 20.82554 0.66579 0.01511
C 19.74811 11.30429 -0.01594
C 19.69082 33.99168 -0.00478
C 23.34755 31.89528 -0.01185
C 23.31238 30.51144 0.01126
C 22.0968 29.81586 0.01852
C 22.04416 28.45025 -0.00381
C 23.35881 27.74449 0.03046
C 23.16453 26.22664 0.0296
C 22.12892 25.67327 0.03374
C 22.02445 15.74423 -0.02845
C 23.30348 15.14966 -0.03213
C 23.40893 13.72936 0.02239
C 22.10222 32.62844 -0.01662
C 19.67689 12.72822 0.00742
C 20.92919 13.4454 -0.00311
C 20.92131 14.9694 0.00675
C 17.24135 11.30897 0.02691
C 18.4916 10.64035 -0.01581
C 18.50242 9.27193 0.01452
C 17.38605 8.52459 0.04892
C 17.21468 7.05348 -0.00111
C 18.52409 6.42554 -0.03557
C 18.43416 4.96959 0.03754
C 17.22177 4.23034 0.01739
C 17.21046 2.81265 0.00755
C 18.38246 2.11061 -0.0054
C 18.48854 0.71327 0.00667
C 17.20571 0.03771 0.00143
C 19.59672 32.6203 -0.017
C 20.81314 31.92566 0.00364
C 20.78505 30.55268 -0.00831
C 19.65927 29.75488 -0.02957
C 19.56569 28.32993 -0.04422
C 20.78883 27.64406 0.00654
C 20.75905 26.32061 -0.00703
C 19.49787 25.57604 -0.04076
C 19.54001 24.20172 -0.00652
C 19.78649 17.03402 0.0058
C 19.66766 15.57124 -0.00865
C 22.22037 12.92263 0.01153
C 3.63221 31.93976 0.03345
C 22.24755 11.47226 0.02734
C 23.39727 9.23679 0.01515
C 24.60126 4.26489 -0.01052
C 24.54074 2.88225 -0.01679
C 25.79373 2.15042 0.00367
C 25.76773 0.77887 0.04306
C 24.58927 34.06604 0.00996
C 27.04422 32.65978 0.00195
C 28.20255 31.96678 -0.00802
C 28.24867 30.49548 -0.00218
C 26.99868 29.75333 -0.01654
C 27.0018 28.31425 -0.00037
C 25.8177 4.92775 0.00684
C 28.23002 27.65583 -0.0032
C 26.90902 25.58306 -0.02815
C 28.29193 23.21388 -0.00942
C 28.2168 17.64386 0.00487
C 27.1461 17.05627 0.00826
C 27.12444 15.5493 -0.00294
C 28.35226 14.86453 0.00152
C 28.20862 13.4391 0.01257
C 27.03512 12.78689 0.02316
C 27.092 11.33813 0.04185
C 28.32191 10.63079 0.00194
C 28.30338 26.27944 0.00622
C 25.82433 6.3557 -0.01154
C 24.71317 7.07757 -0.0264
C 24.59374 8.56258 -0.00938
C 22.16583 8.5515 -0.00225
C 22.23296 7.07135 0.00071
C 23.50491 6.35372 -0.01107
C 23.36334 4.95084 -0.01586
C 22.10684 4.25059 -0.01971
C 22.11712 2.84103 -0.02118
C 23.39277 2.17319 0.00733
C 23.33703 0.73951 -0.00178
C 22.04287 34.02218 0.00768
C 24.55497 32.54845 -0.0276
C 25.87004 31.90729 0.03005
C 25.8259 30.5341 -0.04078
C 24.58978 29.8213 0.02117
C 24.53992 28.43121 0.02737
C 25.7444 27.6888 -0.00498
C 25.86339 26.18047 0.00135
C 24.66499 15.68936 0.03102
C 25.86477 14.9265 0.02555
C 25.84715 13.52598 0.01423
C 24.61074 12.93868 -0.00285
C 24.66833 11.34032 -0.009
C 25.87515 10.69546 -0.01199
C 25.92781 9.24801 -0.00229
C 23.4166 10.6288 -0.0055
C 2.39738 32.66012 -0.00112
