370
Graphene
C 0.00678 0.07402 0.01295
C 13.42618 22.10038 0.05265
C 12.25206 21.29942 -0.01952
C 12.29977 19.86423 -0.02813
C 13.55052 19.12254 0.00374
C 13.63363 17.79212 0.00052
C 12.33028 17.05116 -0.03682
C 12.14672 15.61943 0.01965
C 12.10903 4.19757 0.02058
C 12.31965 2.68697 -0.01957
C 13.56995 2.02745 -0.0108
C 13.54184 0.63559 -0.00368
C 12.24708 34.00787 -0.02696
C 14.74063 32.63371 -0.00114
C 15.96384 31.83667 0.00228
C 15.9484 30.4824 0.00798
C 14.72965 29.78475 0.00422
C 14.685 28.39253 0.0351
C 15.91332 27.68551 -0.03113
C 15.98488 26.24718 0.02098
C 13.31797 23.4733 -0.01717
C 14.73997 25.52196 0.01848
C 11.9691 24.16621 0.00244
C 13.43728 26.24506 0.03542
C 9.80138 17.08974 -0.00891
C 9.78898 15.65701 0.02819
C 11.02278 14.99976 0.00165
C 9.81098 12.82125 -0.02971
C 9.82618 11.65414 0.02894
C 9.86157 8.41425 -0.01789
C 9.84359 7.23051 0.00444
C 11.07409 4.92251 -0.00925
C 9.83753 4.26793 0.01877
C 9.91626 2.82222 0.01363
C 11.11892 2.16606 -0.02162
C 11.06888 0.65951 0.00415
C 9.84017 0.01519 -0.0014
C 12.28679 32.63143 0.02162
C 13.55477 31.97786 0.0076
C 13.48164 30.5005 0.01241
C 12.31171 29.81878 -0.01454
C 12.17583 28.34149 0.01945
C 13.39018 27.63894 0.01416
C 12.1903 25.57208 0.02299
C 11.18375 17.81415 -0.01046
C 14.66888 24.10438 -0.00619
C 15.91496 22.03835 0.00889
C 18.30951 17.7793 0.01452
C 17.25871 2.70161 0.04892
C 18.49212 2.29716 -0.00111
C 18.52345 0.78118 -0.03557
C 17.22876 0.11444 0.03754
C 19.63715 32.62863 0.01739
C 20.83541 31.87227 0.00755
C 20.85422 30.45752 -0.0054
C 19.6638 29.72459 0.00667
C 19.62157 28.37713 0.00143
C 20.8351 27.64891 -0.017
C 20.89645 26.19864 0.00364
C 19.6719 25.49252 -0.00831
C 19.71132 24.03913 -0.02957
C 20.90124 23.34741 -0.04422
C 20.92402 21.9054 0.00654
C 19.69859 21.29227 -0.00703
C 19.67195 19.83202 -0.04076
C 20.78729 19.12612 -0.00652
C 18.35284 19.24877 -0.01581
C 15.93222 23.40696 -0.02162
C 17.18263 20.01699 0.02691
C 18.4032 22.03535 0.02188
C 14.64141 21.41284 -0.00481
C 14.72259 19.9399 0.00979
C 15.98386 19.32075 0.01443
C 16.09765 17.78086 0.03505
C 15.00627 17.23813 -0.02815
C 14.721 2.86206 -0.04147
C 15.98275 2.24916 -0.05302
C 16.05207 0.76248 0.00213
C 14.81133 0.01751 -0.00066
C 17.18419 32.62288 -0.00289
C 18.42077 31.939 0.00028
C 18.41008 30.49252 -0.02213
C 17.22217 29.7157 0.03698
C 17.20787 28.33344 -0.00109
C 18.41132 27.57625 -0.00491
C 18.3967 26.20438 0.03338
C 17.17241 25.57968 -0.0258
C 17.1894 24.15808 -0.0331
C 18.38812 23.39347 -0.00316
C 17.14599 21.42423 -0.01979
C 11.04218 19.23348 -0.02689
C 9.85934 19.97063 -0.01536
C 9.71739 21.34905 0.03101
C 3.61538 0.83238 -0.00966
C 2.44645 0.0491 -0.03337
C 4.52916 32.77439 0.01227
C 5.91317 31.91919 0.00873
C 6.10293 30.47759 -0.00049
C 6.81402 27.43616 0.00848
C 5.55246 26.67983 -0.01303
C 4.85842 25.41743 -0.01378
C 5.09133 23.99063 0.02635
C 6.39264 23.31223 0.0127
C 6.12924 21.95147 0.01396
C 4.84404 21.34154 0.01849
C 4.81877 19.93729 -0.01142
C 6.11737 19.20477 -0.00562
C 6.09781 17.83037 -0.00494
C 4.9016 17.06036 0.00054
C 4.97695 15.6853 0.03007
C 6.13418 14.93168 -0.00095
C 6.18335 13.48071 0.01572
C 3.67963 2.20041 -0.02929
C 4.91017 12.8404 -0.04848
C 2.41023 2.91104 0.03368
C 3.70067 4.99043 0.01305
C 2.47908 25.71557 -0.00279
C 2.39449 24.28443 0.01996
C 3.72188 23.48279 -0.03996
C 3.63633 22.08369 0.01465
C 2.39811 21.28982 -0.00074
C 2.39538 19.90568 -0.00518
C 3.64476 19.19309 0.0086
C 3.69833 17.75862 -0.00643
C 2.44625 17.06809 0.017
C 2.42733 15.69735 -0.03113
C 3.69236 15.01964 -0.02566
C 3.73209 13.61592 -0.00094
C 2.40828 12.85037 0.02322
C 2.45618 11.48095 -0.00725
C 3.72047 10.69193 -0.05697
C 3.6783 9.28169 0.01087
C 2.45061 8.65025 -0.01343
C 2.42572 7.17064 0.00988
C 3.71431 6.52857 0.0276
C 2.46225 4.30194 -0.00077
C 4.91924 11.4209 -0.00892
C 6.18814 10.73814 -0.01362
C 6.20108 9.2643 -0.0008
C 7.40826 12.82694 0.02339
C 7.45409 11.44865 0.01641
C 8.62945 10.73083 -0.00719
C 8.64256 9.3159 0.01364
C 7.4499 8.63123 -0.01062
C 7.40962 7.18401 -0.00033
C 8.65869 6.38384 0.03589
C 8.67912 5.01169 -0.02759
C 7.41763 4.40945 0.0402
C 7.38293 2.91553 0.00572
C 8.64529 2.20577 0.03592
C 8.59622 0.79604 0.00406
C 7.3675 33.97794 0.00943
C 9.86067 32.59597 0.02841
C 11.06546 31.94707 -0.01111
C 11.12006 30.49747 -0.01275
C 9.93826 29.82532 0.00985
C 10.80873 23.38349 -0.02245
C 10.9983 22.01714 -0.00428
C 8.60263 13.62433 -0.00334
C 8.54163 14.96508 -0.01634
C 7.34488 15.71215 0.00057
C 7.36663 17.11649 0.00093
C 4.96704 8.59665 0.0288
C 4.96266 7.19964 0.00393
C 6.24185 6.40842 0.00895
C 6.19545 5.0719 0.00685
C 4.92647 4.33908 0.02888
C 5.00173 2.92435 -0.00482
C 6.21144 2.2467 -0.01384
C 6.14807 0.71805 0.03693
C 4.8357 0.08313 0.01745
C 20.80647 17.69893 0.0058
C 7.23611 32.60122 0.00488
C 8.76131 30.58033 -0.02896
C 7.38409 30.00857 -0.00131
C 6.71445 28.81481 -0.01118
C 8.37362 23.44612 -0.014
C 8.54391 22.08601 0.02147
C 7.31207 21.27387 0.00373
C 7.34591 19.91583 -0.00191
C 8.63316 19.23138 0.00438
C 8.6616 17.78347 0.01291
C 8.55748 32.03063 -0.01004
C 19.40167 17.24254 -0.00865
C 19.83944 2.81176 0.00675
C 20.96495 2.05309 -0.00311
C 30.75831 6.49398 0.00716
C 30.67286 5.00683 0.00307
C 29.50814 4.26037 0.00346
C 29.47335 2.86388 0.01713
C 30.6622 2.17091 -0.01694
C 30.64304 0.72874 0.01428
C 29.40054 34.06074 -0.02142
C 31.95962 32.68378 0.0544
C 33.1993 32.03609 0.00026
C 33.22456 30.65291 0.00682
C 31.98775 29.8753 -0.01779
C 31.98928 28.46522 0.03794
C 33.16947 27.66933 0.01927
C 33.21243 26.24351 0.01574
C 32.01132 25.51612 -0.02383
C 32.00596 24.06393 -0.01429
C 33.25405 23.46065 -0.0136
C 33.23775 22.0137 0.00594
C 31.99367 21.26778 -0.02474
C 29.48433 7.1294 0.02108
C 31.94729 19.71624 0.00369
C 29.47827 8.58894 0.0103
C 30.69387 10.80467 0.01908
C 30.72188 31.97421 0.00261
C 30.71433 30.56375 0.03265
C 29.47555 29.84238 -0.02049
C 29.57054 28.38068 -0.01854
C 30.81062 27.72172 -0.01415
C 30.80329 26.31504 -0.03039
C 29.48723 25.60728 0.01836
C 29.59707 24.16794 0.03531
C 30.79143 23.44542 -0.00669
C 30.79521 21.95855 0.0101
C 29.57956 21.16354 0.01705
C 29.55217 19.74786 -0.0405
C 30.8648 18.93385 -0.01303
C 30.95324 17.43594 -0.01461
C 29.70851 16.72171 -0.02155
C 29.49225 15.23387 -0.00944
C 30.39581 13.70661 -0.03735
C 29.37227 12.80015 -0.00971
C 29.43371 11.35953 0.01518
C 30.71439 9.31425 0.07705
C 33.16727 19.12651 0.00455
C 33.30088 17.69516 -0.00644
C 32.25663 16.66421 -0.01839
C 34.35917 19.86504 0.01951
C 1.19879 19.1727 -0.01678
C 1.26109 17.80165 0.01223
C 0.1261 17.17249 0.00648
C 34.40378 15.81111 0.02114
C 1.15857 15.01194 -0.02957
C 1.1124 13.5458 0.00343
C 34.19888 12.97159 -0.02656
C 34.27623 11.52971 -0.02442
C 1.13868 10.78095 -0.00027
C 1.18525 9.30765 -0.00583
C 34.41347 8.52909 -0.02302
C 0.04638 7.17037 -0.02849
C 1.26571 6.4867 0.02931
C 1.26064 5.0256 0.00628
C 0.03272 4.30428 -0.0345
C 34.38545 2.87702 -0.00931
C 1.18027 2.22964 -0.00939
C 1.18357 0.73946 -0.00468
C 34.39779 21.28658 -0.02213
C 1.2594 22.01057 0.02712
C 1.30121 23.51017 0.00723
C 34.41244 24.22172 0.03076
C 33.03088 15.43194 0.00137
C 32.94769 13.89263 0.00199
C 31.74413 13.1407 0.04381
C 31.85538 11.53202 0.02806
C 33.05183 10.77451 0.01504
C 33.17726 9.33536 -0.00069
C 31.97562 8.57861 0.04926
C 32.01429 7.13258 -0.03838
C 33.19267 6.35395 0.00349
C 29.41484 32.6838 0.02326
C 33.22425 4.9934 -0.00323
C 31.93804 2.88276 0.0001
C 33.11044 2.1889 -0.02927
C 33.09309 0.79035 -0.01404
C 31.93699 0.01349 0.01027
C 0.05069 32.79284 0.01831
C 0.00461 29.71126 -0.01037
C 0.01164 28.48112 -0.00439
C 1.1955 26.36923 -0.00598
C 0.03992 25.6624 -0.05239
C 31.97159 4.32002 -0.00841
C 3.78735 26.28265 0.01226
C 26.99833 34.03381 0.00924
C 28.21379 2.14186 0.01324
C 22.00559 4.15617 0.02239
C 22.12271 2.66917 0.01153
C 23.3847 2.04962 0.02734
C 23.34898 0.66677 -0.0055
C 22.17008 0.00617 0.01515
C 24.54784 32.59434 -0.00225
C 25.70414 31.83458 0.00071
C 25.75382 30.48094 -0.01107
C 24.61875 29.71298 -0.01586
C 24.58224 28.24928 -0.01971
C 25.84597 27.63297 -0.02118
C 25.8651 26.12088 0.00733
C 24.64071 25.45444 -0.00178
C 24.6476 24.04124 0.00768
C 25.88414 23.36559 -0.0276
C 25.83557 21.94667 0.03005
C 24.62166 21.22892 -0.04078
C 24.56414 19.79086 0.02117
C 25.80559 19.07008 0.02737
C 23.08983 4.96602 -0.03213
C 25.73557 17.66218 -0.00498
C 23.22668 6.35215 -0.02845
C 23.18558 14.94722 0.0296
C 20.92607 0.66732 0.00742
C 19.65404 0.04515 -0.01594
C 22.0701 32.64181 0.0106
C 23.2928 31.84413 -0.01154
C 23.33229 30.45153 -0.01721
C 22.12523 29.73244 -0.02422
C 22.07579 28.3321 0.01277
C 23.34044 27.63936 0.00096
C 23.38859 26.11044 -0.01527
C 22.16014 25.45338 0.01087
C 22.15973 24.05153 0.00199
C 23.38176 23.32982 0.01511
C 23.40151 21.84862 -0.00478
C 22.13799 21.13338 -0.01662
C 22.03702 19.77446 -0.01185
C 23.35223 19.12414 0.01126
C 23.31139 17.73171 0.01852
C 22.04836 16.97299 -0.00381
C 21.92735 15.62747 0.03046
C 23.39264 13.54686 0.03374
C 24.42202 16.97126 0.00135
C 24.4762 15.58597 0.03102
C 25.69936 14.88663 0.02555
C 28.32175 21.97297 0.00826
C 27.0808 21.1985 -0.00294
C 27.13227 19.7593 0.00152
C 28.37176 19.03923 0.01257
C 28.47376 17.59687 0.02316
C 27.11356 16.94054 0.04185
C 26.94439 15.58803 0.00194
C 28.16488 14.84507 -0.00621
C 28.03713 13.40696 0.02611
C 26.91086 12.66949 0.02198
C 27.00016 11.29719 0.01094
C 28.20777 10.66493 0.00235
C 28.16405 9.23881 0.01495
C 27.06145 8.48674 0.01259
C 26.92239 7.15437 0.01799
C 28.18104 6.37789 0.01699
C 28.27009 5.0245 -0.00416
C 27.0183 4.3339 0.01177
C 26.98288 2.87937 0.04266
C 28.35781 23.39345 0.00487
C 27.1474 24.05835 -0.00942
C 27.01847 25.42992 -0.02815
C 28.30406 26.30209 0.00622
C 25.71852 13.44564 0.01423
C 24.47493 12.69601 -0.00285
C 24.49921 11.14313 -0.009
C 25.69422 10.61566 -0.01199
C 25.80833 9.21625 -0.00229
C 24.60764 8.60653 -0.00938
C 24.40995 7.21315 -0.0264
C 25.68516 6.51318 -0.01154
C 25.64176 5.08771 0.00684
C 28.17709 0.69568 0.0014
C 24.54545 4.29531 -0.01052
C 25.78348 2.10026 0.00367
C 25.74469 0.67815 0.04306
C 24.59471 34.02404 0.00996
C 26.99221 32.59873 0.00195
C 28.25264 31.96303 -0.00802
C 28.2038 30.44444 -0.00218
C 27.01857 29.73067 -0.01654
C 27.09299 28.31808 -0.00037
C 28.35808 27.66397 -0.0032
C 24.57421 2.9122 -0.01679
C 2.70836 32.75583 0.03828
