432
Graphene
C 0.0138 0.01552 0.01295
C 13.55049 23.43516 0.01364
C 13.52064 22.08724 -0.01062
C 12.28726 21.32636 -0.00033
C 12.2974 19.86694 0.03589
C 13.54899 19.18214 -0.02759
C 13.54417 17.77368 0.0402
C 12.25831 17.01689 0.00572
C 12.24946 15.63978 0.03592
C 13.49899 14.85991 0.00406
C 13.51469 13.4638 0.00943
C 12.31523 12.8147 0.02841
C 12.30635 11.33108 -0.01111
C 13.55257 10.68169 -0.01275
C 13.56002 9.22124 0.00985
C 12.27978 8.57714 -0.02245
C 12.2854 7.10303 -0.00428
C 13.52234 6.35318 0.03101
C 13.47873 4.93235 -0.01536
C 12.32213 4.21906 -0.02689
C 12.29292 2.8515 -0.01046
C 13.55256 2.14462 -0.00891
C 13.54999 0.67477 0.02819
C 12.28816 0.04176 0.00165
C 12.28209 24.18295 -0.00719
C 14.77232 32.695 -0.02971
C 12.32466 25.59038 0.01641
C 13.56083 27.71293 -0.00334
C 11.08873 17.75652 0.0288
C 9.84094 17.07202 0.00393
C 9.85198 15.62659 0.00895
C 11.07881 14.94147 0.00685
C 11.07907 13.51598 0.02888
C 9.82153 12.78894 -0.00482
C 9.81143 11.3732 -0.01384
C 11.08833 10.61017 0.03693
C 11.066 9.20217 0.01745
C 9.83602 8.54583 0.00488
C 9.84294 7.1045 -0.01004
C 11.04124 6.39218 -0.02896
C 11.06888 5.01567 -0.00131
C 9.8713 4.21505 -0.01118
C 9.78659 2.83205 -0.014
C 11.07178 2.12815 0.02147
C 11.1179 0.72661 0.00373
C 9.84267 0.04308 -0.00191
C 12.34393 32.66616 0.00438
C 13.48693 32.01313 0.01291
C 13.53805 30.54899 0.00093
C 12.29457 29.78014 0.00057
C 12.30194 28.39937 -0.01634
C 13.54248 26.31902 0.02339
C 11.05607 19.18563 -0.0008
C 15.96362 31.95347 0.02894
C 14.74007 29.83135 0.00444
C 14.77375 34.03879 -0.02696
C 17.24974 32.69023 -0.00114
C 18.44858 31.94796 0.00228
C 18.45283 30.52342 0.00798
C 17.18615 29.84535 0.00422
C 17.24461 28.35337 0.0351
C 18.40624 27.66717 -0.03113
C 18.43283 26.24762 0.02098
C 17.23321 25.51429 0.01848
C 17.23761 24.13106 -0.00619
C 18.43056 23.47059 -0.02162
C 18.41546 22.01876 0.00889
C 17.17398 21.31793 -0.00481
C 17.16122 19.89747 0.00979
C 18.44979 19.21046 0.01443
C 18.42158 17.74238 0.03505
C 17.2271 17.01614 -0.02815
C 17.24363 15.63998 -0.04147
C 18.44875 14.94748 -0.05302
C 18.43911 13.49875 0.00213
C 17.23239 12.7791 -0.00066
C 17.21803 11.36562 -0.00289
C 18.49669 10.62748 0.00028
C 15.98522 0.69706 -0.00368
C 15.97021 30.54974 -0.01789
C 16.01017 2.14903 -0.0108
C 14.74631 4.23304 0.02058
C 14.73172 28.40937 -0.00925
C 15.96361 27.69977 0.01877
C 16.00219 26.2596 0.01363
C 14.72973 25.54085 -0.02162
C 14.72993 24.15948 0.00415
C 16.02337 23.42862 -0.0014
C 15.98064 22.01353 0.02162
C 14.75522 21.24619 0.0076
C 14.73082 19.86507 0.01241
C 16.00216 19.13027 -0.01454
C 15.95271 17.74689 0.01945
C 14.75893 17.06039 0.01416
C 14.77479 15.6282 0.03542
C 16.013 14.93976 0.02299
C 16.01249 13.45795 0.00244
C 14.75106 12.78673 -0.01717
C 14.76564 11.3516 0.05265
C 15.9769 10.65143 -0.01952
C 15.98235 9.18322 -0.02813
C 14.75174 8.51539 0.00374
C 14.71638 7.10249 0.00052
C 15.99223 6.40359 -0.03682
C 15.99253 4.97766 0.01965
C 14.74335 2.87327 -0.01957
C 18.47919 9.19705 -0.02213
C 9.81916 19.89915 -0.01362
C 11.04493 22.01252 -0.04848
C 3.68464 2.12276 -0.02805
C 3.66396 0.74615 0.00081
C 2.47435 0.00854 0.00245
C 4.92196 32.65009 0.02728
C 6.10403 31.95253 -0.00039
C 6.10362 30.53845 0.0064
C 4.94854 29.76993 0.00211
C 4.96722 28.39243 -0.00449
C 6.15223 27.65604 -0.01979
C 6.17176 26.25565 0.02784
C 4.89464 25.55344 -0.01977
C 4.88208 24.11421 -0.00561
C 6.14643 23.48909 0.00208
C 6.1605 22.02723 0.01707
C 4.95598 21.32852 0.02769
C 4.94859 19.87048 -0.03291
C 6.19607 19.15452 -0.04999
C 6.14662 17.71572 0.04505
C 4.93639 17.00271 0.03284
C 4.85139 15.57166 -0.04307
C 6.11823 14.92788 0.03189
C 6.12621 13.51114 0.00031
C 4.90461 12.80717 -0.003
C 2.50891 2.84474 -0.01386
C 4.89595 11.32628 0.01402
C 2.47285 4.2813 -0.0059
C 3.68876 6.45026 -0.02375
C 3.69499 30.53066 -0.04306
C 2.43838 29.79623 -0.03672
C 2.43304 28.37752 0.01913
C 3.68487 27.67758 0.00267
C 3.711 26.31096 0.00787
C 2.44671 25.53814 0.02426
C 2.48075 24.17407 0.01218
C 3.69116 23.44885 -0.01471
C 3.6517 22.0156 -0.02827
C 2.49724 21.29478 0.01078
C 2.50297 19.86492 -0.00112
C 3.72728 19.17151 0.03345
C 3.68158 17.6528 0.00748
C 2.4532 17.00061 0.00662
C 2.41257 15.62603 -0.0154
C 3.64452 14.85834 -0.01299
C 3.71744 13.47965 -0.00407
C 2.48281 12.78365 0.01138
C 2.49146 11.36232 0.03278
C 3.69891 10.59343 -0.00177
C 3.67526 9.25989 0.04421
C 2.44862 8.5327 0.00088
C 2.47755 7.12346 0.00828
C 3.70355 4.95396 0.00558
C 9.8537 21.28932 -0.00892
C 6.16248 10.68934 0.02379
C 4.9138 8.52888 0.00643
C 7.35293 12.82052 0.01305
C 7.39477 11.37422 -0.00077
C 8.61598 10.69376 0.03368
C 8.63052 9.22867 -0.02929
C 7.40459 8.55741 -0.00966
C 7.33505 7.14114 -0.03337
C 8.59397 6.4154 0.01227
C 8.65664 5.00555 0.00873
C 7.35383 4.25052 -0.00049
C 7.37718 2.85565 0.00848
C 8.64277 2.128 -0.01303
C 8.62335 0.73532 -0.01378
C 7.37943 0.01682 0.02635
C 9.82874 32.70425 0.0127
C 11.08034 31.94806 0.01396
C 11.04491 30.55088 0.01849
C 9.84398 29.85346 -0.01142
C 9.82771 28.36722 -0.00562
C 11.08344 27.6457 -0.00494
C 11.05491 26.29187 0.00054
C 9.822 25.55157 0.03007
C 9.87208 24.15725 -0.00095
C 11.05256 23.41537 0.01572
C 8.57687 13.52761 0.0276
C 6.12722 9.25593 0.00907
C 8.60287 14.9195 0.00988
C 7.36546 17.08025 0.01087
C 4.85261 7.10681 -0.01509
C 6.13014 6.37602 0.03267
C 6.1544 4.95572 0.02374
C 4.96648 4.28751 0.00402
C 4.89825 2.84184 0.0073
C 6.14959 2.15648 0.0174
C 6.13214 0.68185 0.03828
C 4.93265 34.06155 0.01226
C 7.32365 32.71073 -0.00279
C 8.64272 31.95858 0.01996
C 8.62106 30.56131 -0.03996
C 7.37911 29.81302 0.01465
C 7.36953 28.40219 -0.00074
C 8.61592 27.69448 -0.00518
C 8.61096 26.30797 0.0086
C 7.39849 25.55619 -0.00643
C 7.37924 24.14169 0.017
C 8.65627 23.40549 -0.03113
C 8.61129 22.02453 -0.02566
C 7.36716 21.31919 -0.00094
C 7.37116 19.8609 0.02322
C 8.61616 19.13747 -0.00725
C 8.59887 17.75364 -0.05697
C 7.36799 15.62889 -0.01343
C 17.23962 8.55523 0.03698
C 17.21702 7.01366 -0.00109
C 18.46016 6.34262 -0.00491
C 29.52473 15.63465 -0.01303
C 30.72833 14.9427 -0.01461
C 30.76433 13.46467 -0.02155
C 29.49877 12.76556 -0.00944
C 29.54177 11.36964 -0.03735
C 30.70705 10.62096 -0.00971
C 30.73552 9.23906 0.01518
C 29.5066 8.5254 0.01908
C 29.49907 7.12758 0.07705
C 30.71147 6.38165 0.0103
C 30.75852 4.95529 0.02108
C 29.53374 4.23428 0.00716
C 29.5223 2.84209 0.00307
C 30.78175 2.10139 0.00346
C 30.71572 0.66091 0.01713
C 29.52373 34.07975 -0.01694
C 32.00618 32.64382 0.01428
C 33.19609 31.92857 -0.02142
C 33.23391 30.51399 0.0544
C 31.976 29.84185 0.00026
C 31.94988 28.40564 0.00682
C 33.21123 27.71886 -0.01779
C 33.20275 26.28578 0.03794
C 29.58663 17.08337 -0.0405
C 31.97178 25.55574 0.01927
C 30.73981 17.73511 0.01705
C 30.75259 26.23885 -0.00669
C 27.09639 17.07674 0.02611
C 27.07046 15.61691 0.02198
C 28.29053 14.87428 0.01094
C 28.29281 13.50644 0.00235
C 27.0461 12.77866 0.01495
C 27.0776 11.40743 0.01259
C 28.26544 10.5953 0.01799
C 28.25551 9.20691 0.01699
C 27.0505 8.50704 -0.00416
C 27.05876 7.09676 0.01177
C 28.27543 6.35032 0.04266
C 28.24931 4.97671 0.01324
C 27.04934 4.2254 0.0014
C 27.03994 2.821 0.00924
C 28.30235 2.07337 0.02326
C 28.25995 0.73388 0.00261
C 27.05166 0.00325 0.03265
C 29.51377 32.6049 -0.02049
C 30.75395 31.95534 -0.01854
C 30.71288 30.53777 -0.01415
C 29.51653 29.84559 -0.03039
C 29.52441 28.39085 0.01836
C 30.75691 27.65072 0.03531
C 29.5081 25.55534 0.0101
C 27.02693 25.59925 -0.00621
C 31.99264 24.14155 0.01574
C 33.2067 22.04955 -0.01429
C 34.41093 24.16023 0.03076
C 1.21083 23.44752 0.00723
C 1.21052 22.04835 0.02712
C 34.43033 21.30123 -0.02213
C 0.00268 19.88864 0.01951
C 1.23439 19.16678 -0.01678
C 1.21244 17.73295 0.01223
C 34.42815 17.01975 0.00648
C 34.41123 15.65159 0.02114
C 1.22748 14.87513 -0.02957
C 1.23447 13.4834 0.00343
C 34.40553 12.743 -0.02656
C 34.41194 11.3845 -0.02442
C 1.24318 10.68465 -0.00027
C 1.19551 9.18934 -0.00583
C 34.40324 8.52133 -0.02302
C 0.00508 7.10386 -0.02849
C 1.2067 6.33855 0.02931
C 1.20111 4.96337 0.00628
C 0.01939 4.20433 -0.0345
C 0.01782 2.82409 -0.00931
C 1.27958 2.15266 -0.00939
C 1.24338 0.69989 -0.00468
C 0.00913 25.55704 -0.05239
C 33.22116 23.4238 -0.02383
C 1.22311 26.26329 -0.00598
C 0.01009 28.42295 -0.01037
C 33.23729 19.16015 -0.0136
C 33.17288 17.78401 0.00594
C 31.93422 17.05284 -0.02474
C 31.95849 15.582 0.00369
C 33.2194 14.85095 0.00455
C 33.20761 13.48138 -0.00644
C 31.97997 12.77829 -0.01839
C 31.97686 11.33057 0.00137
C 33.13161 10.64749 0.00199
C 33.1438 9.20822 0.04381
C 31.99211 8.50018 0.02806
C 31.95321 7.10727 0.01504
C 33.21912 6.37139 -0.00069
C 33.2272 4.94539 0.04926
C 31.99853 4.2563 -0.03838
C 31.97287 2.87463 0.00349
C 33.21043 2.07948 -0.00323
C 33.17749 0.66955 -0.00841
C 31.96522 0.01905 0.0001
C 0.02141 32.62414 -0.02927
C 1.27756 31.94565 -0.01404
C 1.21905 30.50015 0.01027
C 34.41761 29.80621 0.01831
C 1.23939 27.66286 -0.00439
C 28.29006 26.24733 0.00194
C 28.31796 27.68651 0.04185
C 27.01925 28.37198 0.02316
C 20.91632 10.65454 0.0058
C 20.92546 9.21628 -0.00865
C 19.72755 8.53137 0.00675
C 19.68404 7.12158 -0.00311
C 20.91727 6.40594 0.00742
C 20.94648 4.88622 -0.01594
C 19.68071 4.24524 0.0106
C 19.68133 2.86711 -0.01154
C 20.87817 2.16509 -0.01721
C 20.86026 0.70894 -0.02422
C 19.68011 0.00073 0.01277
C 22.08638 32.65073 0.00096
C 23.34636 31.94787 -0.01527
C 23.39887 30.5144 0.01087
C 22.13334 29.83909 0.00199
C 22.11703 28.36484 0.01511
C 23.3832 27.72338 -0.00478
C 23.37272 26.27284 -0.01662
C 22.15432 25.53573 -0.01185
C 22.12885 24.09394 0.01126
C 23.36715 23.4182 0.01852
C 23.36733 21.97305 -0.00381
C 22.21602 21.30904 0.03046
C 19.69708 11.39156 -0.00652
C 22.15388 19.87421 0.0296
C 19.70222 12.76425 -0.04076
C 20.85758 14.94569 0.00654
C 18.38693 4.96993 0.03338
C 17.20373 4.25776 -0.0258
C 17.19089 2.82358 -0.0331
C 18.43414 2.13601 -0.00316
C 18.39543 0.68952 0.02188
C 17.24097 34.07439 -0.01979
C 19.6624 32.70205 0.02691
C 20.89028 31.93748 -0.01581
C 20.88785 30.54686 0.01452
C 19.67784 29.80457 0.04892
C 19.69838 28.39836 -0.00111
C 20.88496 27.67524 -0.03557
C 20.93636 26.22606 0.03754
C 19.70301 25.54246 0.01739
C 19.65572 24.12003 0.00755
C 20.92191 23.41879 -0.0054
C 20.94622 22.06011 0.00667
C 19.69252 21.29317 0.00143
C 19.65792 19.84181 -0.017
C 20.91203 19.19338 0.00364
C 20.92189 17.77992 -0.00831
C 19.65527 17.06913 -0.02957
C 19.67254 15.62576 -0.04422
C 20.91708 13.48128 -0.00703
C 23.36902 19.15753 0.03374
C 23.36192 17.744 -0.02845
C 22.12059 16.99883 -0.03213
C 25.85307 19.21424 -0.00938
C 25.82026 17.7696 -0.0264
C 24.60556 17.04484 -0.01154
C 24.56704 15.60993 0.00684
C 25.81563 14.86026 -0.01052
C 25.84349 13.46953 -0.01679
C 24.58747 12.79386 0.00367
C 24.6299 11.36493 0.04306
C 25.80821 10.68331 0.00996
C 25.85434 9.25017 0.00195
C 24.57664 8.53442 -0.00802
C 24.61034 7.11186 -0.00218
C 25.82183 6.40645 -0.01654
C 25.83061 4.98498 -0.00037
C 24.62693 4.2574 -0.0032
C 24.5736 2.81256 0.00622
C 25.87194 2.10649 -0.02815
C 25.80724 0.72524 -0.00942
C 24.59198 34.07364 0.00487
C 27.04184 32.67573 0.00826
C 28.27081 31.95345 -0.00294
C 28.2913 30.47953 0.00152
C 27.03905 29.80844 0.01257
C 24.60242 19.89845 -0.00229
C 24.60539 21.26296 -0.01199
C 25.79256 23.44648 -0.009
C 24.60523 24.11411 -0.00285
C 22.11613 15.67464 0.02239
C 23.40216 14.90019 0.01153
C 23.29373 13.42317 0.02734
C 22.10528 12.76581 -0.0055
C 22.12861 11.38808 0.01515
C 23.36273 10.68835 -0.00225
C 23.33164 9.21405 0.00071
C 22.15089 8.50214 -0.01107
C 22.14072 7.12429 -0.01586
C 23.35687 6.40706 -0.01971
C 23.34582 4.99263 -0.02118
C 3.70385 31.9757 -0.00012
C 22.12483 4.24956 0.00733
C 23.34174 2.12341 0.00768
C 23.36338 0.73676 -0.0276
C 22.12998 34.07671 0.03005
C 24.58152 32.65441 -0.04078
C 25.80344 31.9574 0.02117
C 25.85068 30.56466 0.02737
C 24.61735 29.84246 -0.00498
C 24.57657 28.44809 0.00135
C 25.81484 27.65858 0.03102
C 25.77172 26.23468 0.02555
C 24.56057 25.56993 0.01423
C 22.12383 2.80667 -0.00178
C 2.49322 32.70526 -0.00198
