401
Graphene
C 0.01828 0.01193 0.01295
C 12.20718 32.74494 0.00165
C 13.53715 31.96573 -0.02971
C 13.49 30.59712 0.02894
C 12.27927 29.89889 -0.01789
C 12.34552 28.42978 0.00444
C 13.55795 27.66349 -0.00925
C 13.44967 26.23385 0.01877
C 12.20809 25.48319 0.01363
C 12.29424 24.12036 -0.02162
C 13.5558 23.38038 0.00415
C 13.59108 21.95275 -0.0014
C 12.36797 21.31266 0.02162
C 12.36842 19.92208 0.0076
C 13.56495 19.24684 0.01241
C 13.50094 17.74808 -0.01454
C 12.25791 17.02347 0.01945
C 12.30757 15.55489 0.01416
C 13.56475 14.81178 0.03542
C 13.48168 13.42679 0.02299
C 12.31847 12.79249 0.00244
C 12.21542 11.36364 -0.01717
C 9.77772 0.08962 0.02819
C 13.4377 10.64724 0.05265
C 10.9715 0.82422 -0.00891
C 9.80613 3.003 -0.02689
C 9.80466 25.60159 0.02339
C 9.83243 24.16907 0.01641
C 11.00951 23.3669 -0.00719
C 11.11305 21.95142 0.01364
C 9.82179 21.33627 -0.01062
C 9.85922 19.93767 -0.00033
C 11.12543 19.2225 0.03589
C 11.05151 17.83643 -0.02759
C 9.79045 17.0245 0.0402
C 9.82073 15.66191 0.00572
C 11.06392 14.87247 0.03592
C 11.10287 13.46998 0.00406
C 9.88368 12.7412 0.00943
C 9.87408 11.34192 0.02841
C 11.05191 10.58224 -0.01111
C 11.02503 9.17988 -0.01275
C 9.81983 8.48771 0.00985
C 9.87885 7.08033 -0.02245
C 11.09701 6.36805 -0.00428
C 11.10044 4.98961 0.03101
C 9.82265 4.41462 -0.01536
C 11.01307 2.1961 -0.01046
C 11.03547 26.30469 -0.00334
C 13.57108 9.27955 -0.01952
C 12.37257 7.11449 0.00374
C 15.99472 13.51875 -0.05302
C 14.8195 12.77898 0.00213
C 14.73118 11.34886 -0.00066
C 15.96114 10.68046 -0.00289
C 15.99985 9.30982 0.00028
C 14.75912 8.48578 -0.02213
C 14.81802 7.08758 0.03698
C 16.01203 6.35737 -0.00109
C 16.08066 4.92628 -0.00491
C 14.80842 4.22919 0.03338
C 14.76124 2.79231 -0.0258
C 15.90805 2.03982 -0.0331
C 16.05327 0.63623 -0.00316
C 14.74921 0.00554 0.02188
C 17.18261 32.68743 -0.01979
C 18.40382 31.93987 0.02691
C 18.39024 30.52993 -0.01581
C 17.13464 29.8453 0.01452
C 17.13902 28.43606 0.04892
C 18.3784 27.67733 -0.00111
C 18.47991 26.3021 -0.03557
C 15.95083 14.98268 -0.04147
C 12.3124 8.4714 -0.02813
C 14.70827 15.63488 -0.02815
C 15.96756 17.75924 0.01443
C 13.59392 6.32739 0.00052
C 13.53599 4.90147 -0.03682
C 12.29506 4.25878 0.01965
C 12.28126 2.86513 0.02058
C 13.45928 2.10016 -0.01957
C 13.51434 0.70752 -0.0108
C 12.20767 0.08236 -0.00368
C 14.73967 32.68422 -0.02696
C 15.92556 32.02969 -0.00114
C 15.90769 30.58577 0.00228
C 14.67973 29.84158 0.00798
C 14.77645 28.38115 0.00422
C 15.99662 27.64102 0.0351
C 15.92439 26.24557 -0.03113
C 14.68375 25.5041 0.02098
C 14.71393 24.10316 0.01848
C 16.00049 23.42419 -0.00619
C 16.0988 22.01219 -0.02162
C 14.84559 21.31937 0.00889
C 14.86601 19.8886 -0.00481
C 16.04388 19.25062 0.00979
C 14.74888 17.11323 0.03505
C 11.12296 27.74902 -0.01634
C 9.83665 28.39561 0.00057
C 9.7181 29.89738 0.00093
C 2.39123 4.31062 0.02374
C 2.38563 2.89266 0.00402
C 3.69243 2.22134 0.0073
C 3.65944 0.76562 0.0174
C 2.45005 34.07998 0.03828
C 4.91632 32.69099 0.01226
C 6.23656 31.97476 -0.00279
C 6.11116 30.58129 0.01996
C 4.90868 29.9011 -0.03996
C 4.88413 28.46879 0.01465
C 6.04915 27.67657 -0.00074
C 6.07804 26.2777 -0.00518
C 4.81209 25.59081 0.0086
C 4.9209 24.1089 -0.00643
C 6.15573 23.42193 0.017
C 6.16981 21.95212 -0.03113
C 5.01458 21.24395 -0.02566
C 4.95047 19.83772 -0.00094
C 6.21904 19.14026 0.02322
C 6.10426 17.77165 -0.00725
C 4.83966 16.97591 -0.05697
C 3.60963 5.03959 0.03267
C 4.9201 15.59608 0.01087
C 3.70022 6.41512 -0.01509
C 2.4387 8.58088 0.00907
C 3.71525 30.49777 -0.00039
C 2.43357 29.73834 0.0064
C 2.39016 28.4011 0.00211
C 3.59862 27.76218 -0.00449
C 3.64603 26.3857 -0.01979
C 2.48256 25.60281 0.02784
C 2.50726 24.1494 -0.01977
C 3.7159 23.46939 -0.00561
C 3.73722 21.96749 0.00208
C 2.48548 21.33598 0.01707
C 2.41022 19.89514 0.02769
C 3.63627 19.19287 -0.03291
C 3.58436 17.78237 -0.04999
C 2.38519 17.01334 0.04505
C 2.49425 15.62409 0.03284
C 3.73486 14.9714 -0.04307
C 3.66511 13.5427 0.03189
C 2.3873 12.82264 0.00031
C 2.42188 11.37401 -0.003
C 3.66121 10.70661 0.01402
C 3.67399 9.29387 0.02379
C 2.45033 7.14467 0.00643
C 6.12375 14.88161 -0.01343
C 6.10448 13.42619 0.00988
C 4.87718 12.78892 0.0276
C 8.56796 17.76402 -0.0008
C 7.24592 16.99651 0.0288
C 7.30592 15.52744 0.00393
C 8.60391 14.85563 0.00895
C 8.65779 13.45778 0.00685
C 7.38505 12.78189 0.02888
C 7.37246 11.3881 -0.00482
C 8.55958 10.6563 -0.01384
C 8.54837 9.26611 0.03693
C 7.30452 8.59173 0.01745
C 7.39497 7.1527 0.00488
C 8.6527 6.44094 -0.01004
C 8.62155 5.00253 -0.02896
C 7.32292 4.32636 -0.00131
C 7.3855 2.87843 -0.01118
C 8.66326 2.24173 -0.014
C 8.59794 0.79374 0.02147
C 7.36511 0.09161 0.00373
C 9.83241 32.63895 -0.00191
C 11.01422 31.96517 0.00438
C 11.05761 30.53193 0.01291
C 8.65674 19.16459 -0.01362
C 7.42287 19.87359 -0.00892
C 7.43613 21.2944 -0.04848
C 8.65352 22.01225 0.01572
C 4.90699 11.39321 0.01305
C 6.09936 10.69038 -0.00077
C 6.11428 9.27822 0.03368
C 4.91291 8.49882 -0.02929
C 4.90748 7.11995 -0.00966
C 6.16931 6.4671 -0.03337
C 6.15103 4.99703 0.01227
C 4.87364 4.32154 0.00873
C 4.92856 2.87719 -0.00049
C 6.16655 2.21536 0.00848
C 17.20544 25.57845 0.03754
C 6.08404 0.74523 -0.01303
C 7.37735 32.81449 0.02635
C 8.57631 31.97316 0.0127
C 8.52853 30.56073 0.01396
C 7.28536 29.78026 0.01849
C 7.33074 28.41613 -0.01142
C 8.6022 27.71803 -0.00562
C 8.62724 26.35842 -0.00494
C 7.32677 25.55032 0.00054
C 7.38726 24.17347 0.03007
C 8.63376 23.49591 -0.00095
C 4.83894 34.02893 -0.01378
C 3.67523 31.88544 0.02728
C 17.13097 24.15665 0.01739
C 18.51061 22.04768 -0.0054
C 29.50163 25.56727 0.01518
C 29.47043 24.14309 0.01908
C 30.72567 23.41516 0.07705
C 30.71123 22.07896 0.0103
C 29.54496 21.27848 0.02108
C 29.51547 19.89407 0.00716
C 30.78016 19.19636 0.00307
C 30.70119 17.78291 0.00346
C 29.50117 17.0532 0.01713
C 29.53949 15.63553 -0.01694
C 30.62869 14.99649 0.01428
C 29.55332 2.83441 -0.02142
C 30.65832 2.11388 0.0544
C 30.79502 0.68359 0.00026
C 29.5671 34.0512 0.00682
C 31.98676 32.62686 -0.01779
C 33.24028 31.93061 0.03794
C 33.16313 30.55483 0.01927
C 31.96408 29.79814 0.01574
C 31.90284 28.3899 -0.02383
C 33.15847 27.57424 -0.01429
C 30.7212 26.28336 -0.00971
C 33.14347 26.14134 -0.0136
C 30.73355 27.6888 -0.03735
C 29.48424 29.89512 -0.02155
C 27.09375 29.82224 -0.00416
C 27.05801 28.34381 0.01177
C 28.31123 27.67139 0.04266
C 28.24221 26.269 0.01324
C 27.06003 25.53875 0.0014
C 27.06661 24.04967 0.00924
C 28.26259 23.37504 0.02326
C 28.34878 21.93022 0.00261
C 27.02229 21.31096 0.03265
C 27.04122 19.91292 -0.02049
C 28.31357 19.21596 -0.01854
C 28.3324 17.76455 -0.01415
C 27.09667 17.06622 -0.03039
C 27.20585 15.73124 0.01836
C 27.02738 2.80055 0.03531
C 28.24912 2.29421 -0.00669
C 28.36666 0.71217 0.0101
C 27.00249 0.04214 0.01705
C 29.47323 32.62958 -0.0405
C 30.77002 31.95392 -0.01303
C 30.7334 30.49551 -0.01461
C 29.46918 28.49111 -0.00944
C 28.26579 30.59946 0.01699
C 31.92251 25.54351 0.00594
C 33.18856 23.42629 0.00369
C 1.29771 22.06979 0.02712
C 34.42992 21.26539 -0.02213
C 34.39234 19.83273 0.01951
C 1.18267 19.11707 -0.01678
C 1.16181 17.73629 0.01223
C 34.37762 16.99141 0.00648
C 34.42588 15.62027 0.02114
C 1.26929 14.94504 -0.02957
C 1.17708 13.56365 0.00343
C 34.29217 12.77458 -0.02656
C 34.43263 11.38822 -0.02442
C 1.15404 10.63257 -0.00027
C 1.13076 9.21193 -0.00583
C 0.05044 8.36892 -0.02302
C 0.1115 7.1772 -0.02849
C 1.24786 6.45559 0.02931
C 1.22336 5.03327 0.00628
C 34.3756 4.41742 -0.0345
C 34.37458 2.92936 -0.00931
C 1.14748 2.19282 -0.00939
C 1.22407 0.79257 -0.00468
C 1.26003 23.45827 0.00723
C 31.90357 24.07456 -0.02474
C 34.41014 24.10227 0.03076
C 1.18603 26.24307 -0.00598
C 33.23808 22.01354 0.00455
C 31.96717 21.35422 -0.00644
C 31.98216 19.86587 -0.01839
C 33.11503 19.14199 0.00137
C 33.12195 17.68152 0.00199
C 31.916 17.00091 0.04381
C 31.91305 15.55682 0.02806
C 33.14963 14.78189 0.01504
C 33.07982 13.43631 -0.00069
C 33.16044 4.93145 0.04926
C 32.07199 4.21052 -0.03838
C 31.95604 2.86799 0.00349
C 33.22456 2.15129 -0.00323
C 33.21397 0.75467 -0.00841
C 32.01597 34.05073 0.0001
C 0.03297 32.66465 -0.02927
C 1.25414 31.85459 -0.01404
C 1.21972 30.4496 0.01027
C 34.41519 29.73896 0.01831
C 34.35905 28.28757 -0.01037
C 1.09832 27.6274 -0.00439
C 34.36347 25.49411 -0.05239
C 28.21762 32.03442 0.01799
C 26.97587 32.69628 0.01259
C 24.50224 0.00943 0.01495
C 19.63173 28.42067 0.00199
C 20.91169 27.62598 0.01511
C 20.9634 26.23987 -0.00478
C 19.73885 25.55349 -0.01662
C 19.64938 24.13882 -0.01185
C 20.77673 23.42508 0.01126
C 20.87553 21.98819 0.01852
C 19.70742 21.24111 -0.00381
C 19.74465 19.82464 0.03046
C 21.0024 19.12885 0.0296
C 21.0009 17.70855 0.03374
C 19.78011 16.98908 -0.02845
C 19.66723 15.63573 -0.03213
C 20.91742 14.89142 0.02239
C 20.95921 13.45604 0.01153
C 19.73805 12.76613 0.02734
C 19.77576 11.36363 -0.0055
C 20.88171 10.51642 0.01515
C 20.86836 9.19529 -0.00225
C 19.77478 8.4759 0.00071
C 19.70566 7.14196 -0.01107
C 19.62469 29.82616 0.01087
C 20.80153 6.33625 -0.01586
C 20.89805 30.54441 -0.01527
C 19.58975 32.69267 0.01277
C 17.28043 21.30569 0.00667
C 17.26589 19.90063 0.00143
C 18.50813 19.12707 -0.017
C 18.47682 17.7302 0.00364
C 17.24107 17.06111 -0.00831
C 17.19337 15.6659 -0.02957
C 18.44295 14.8841 -0.04422
C 18.49839 13.47588 0.00654
C 17.21125 12.85885 -0.00703
C 17.18866 11.42237 -0.04076
C 18.43635 10.6998 -0.00652
C 18.4886 9.24526 0.0058
C 17.27521 8.52589 -0.00865
C 17.22536 7.13638 0.00675
C 18.4443 6.37166 -0.00311
C 18.49503 4.99322 0.00742
C 17.23969 4.24043 -0.01594
C 17.154 2.79908 0.0106
C 18.34072 2.09856 -0.01154
C 18.54623 0.79043 -0.01721
C 17.23601 34.07867 -0.02422
C 20.91469 31.99242 0.00096
C 21.04061 5.00535 -0.01971
C 19.72913 4.2854 -0.02118
C 19.68238 2.85161 0.00733
C 22.0459 34.05691 -0.00802
C 24.4762 32.60289 -0.00218
C 25.73125 31.88602 -0.01654
C 25.7749 30.47092 -0.00037
C 24.53584 29.79064 -0.0032
C 24.54571 28.3621 0.00622
C 25.82198 27.65501 -0.02815
C 25.80727 26.23873 -0.00942
C 24.59235 25.517 0.00487
C 24.55535 24.11656 0.00826
C 25.80645 23.38488 -0.00294
C 25.80149 21.96057 0.00152
C 24.6115 21.24362 0.01257
C 24.62045 19.78304 0.02316
C 25.87121 19.16447 0.04185
C 25.89655 17.77253 0.00194
C 24.66513 17.00243 -0.00621
C 24.50618 15.65878 0.02611
C 24.53074 2.6727 0.02198
C 25.76117 2.24562 0.01094
C 25.73809 0.68395 0.00235
C 23.23681 0.66822 0.00195
C 23.28226 2.10848 0.00996
C 22.08922 2.87337 0.04306
C 22.22271 4.24384 0.00367
C 20.85731 2.20736 -0.00178
C 20.83925 0.78259 0.00768
C 19.65551 34.04818 -0.0276
C 22.06827 32.67502 0.03005
C 23.28676 31.93405 -0.04078
C 23.29134 30.49308 0.02117
C 22.05399 29.77359 0.02737
C 22.08342 28.34039 -0.00498
C 23.31947 27.65933 0.00135
C 23.36819 26.30955 0.03102
C 18.37171 23.43902 0.00755
C 22.16948 25.52335 0.02555
C 23.34341 23.37878 -0.00285
C 23.4024 21.95971 -0.009
C 22.16357 21.32398 -0.01199
C 22.20816 19.8391 -0.00229
C 23.38119 19.14223 -0.00938
C 23.49883 17.75428 -0.0264
C 22.17533 17.00177 -0.01154
C 22.16331 15.56173 0.00684
C 23.43617 15.04187 -0.01052
C 22.16408 12.98324 -0.01679
C 22.03378 24.08169 0.01423
C 2.46706 32.64297 0.00245
