339
Graphene
C 34.38332 0.13145 0.01295
C 12.24851 25.66201 -0.02162
C 12.33697 24.20279 0.00889
C 13.50566 23.43317 -0.00481
C 13.40916 22.03927 0.00979
C 12.18201 21.26144 0.01443
C 12.34676 19.89036 0.03505
C 13.64052 19.23681 -0.02815
C 13.58724 17.79163 -0.04147
C 12.34701 17.10705 -0.05302
C 12.25968 15.67413 0.00213
C 13.4043 14.91311 -0.00066
C 13.5335 13.51206 -0.00289
C 12.37508 12.73084 0.00028
C 13.53106 10.62803 -0.02213
C 13.59566 9.3536 0.03698
C 13.44302 6.37355 -0.00109
C 13.52766 5.00647 -0.00491
C 13.53431 26.32963 -0.00619
C 12.30329 4.30512 0.03338
C 13.53467 27.72572 0.01848
C 12.26081 29.84221 -0.03113
C 9.74182 21.35144 0.05265
C 9.8352 19.86405 -0.01952
C 11.13903 19.20206 -0.02813
C 11.07334 17.74199 0.00374
C 9.74941 17.07959 0.00052
C 9.78078 15.57172 -0.03682
C 11.03833 14.86007 0.01965
C 11.14743 13.52659 0.02058
C 11.12524 4.93001 -0.01957
C 10.06507 4.20812 -0.0108
C 9.7915 2.8652 -0.00368
C 11.07956 2.25138 -0.02696
C 11.13854 0.77562 -0.00114
C 9.83892 0.13699 0.00228
C 12.34274 32.66598 0.00798
C 13.53381 31.87008 0.00422
C 13.44917 30.51596 0.0351
C 12.30053 28.4517 0.02098
C 12.31766 2.82496 -0.0258
C 13.50917 2.1176 -0.0331
C 13.65064 0.72517 -0.00316
C 15.94362 10.61551 -0.00652
C 15.90662 9.16365 0.0058
C 14.70979 8.45725 -0.00865
C 14.6407 6.98647 0.00675
C 15.98587 6.28086 -0.00311
C 16.03458 4.92734 0.00742
C 14.78558 4.27437 -0.01594
C 14.72935 2.81292 0.0106
C 15.92639 2.03927 -0.01154
C 15.99429 0.68428 -0.01721
C 14.74672 34.01327 -0.02422
C 17.27195 32.67255 0.01277
C 18.5102 32.10612 0.00096
C 18.74981 30.60147 -0.01527
C 17.45312 29.89515 0.01087
C 17.17869 28.50111 0.00199
C 17.04599 25.53392 0.01511
C 14.72955 11.41101 -0.04076
C 14.86876 12.7502 -0.00703
C 16.07702 13.49421 0.00654
C 15.94664 14.9188 -0.04422
C 12.35909 0.05558 0.02188
C 14.79116 32.56284 -0.01979
C 16.02385 31.98551 0.02691
C 16.08665 30.56476 -0.01581
C 14.81054 29.92194 0.01452
C 14.70036 28.49978 0.04892
C 15.98197 27.77457 -0.00111
C 15.95819 26.37317 -0.03557
C 10.97852 22.04021 -0.01717
C 14.67365 25.56409 0.03754
C 16.00412 23.46868 0.00755
C 15.94278 22.0747 -0.0054
C 14.70475 21.34145 0.00667
C 14.83277 19.90508 0.00143
C 16.02478 19.15361 -0.017
C 15.89016 17.78154 0.00364
C 14.70165 17.04794 -0.00831
C 14.74087 15.62553 -0.02957
C 14.70869 24.20082 0.01739
C 17.06527 24.30027 -0.00478
C 11.08514 23.51895 0.00244
C 9.81011 25.62767 0.03542
C 3.65265 6.28672 -0.01384
C 3.9472 5.00363 0.03693
C 2.57429 4.3193 0.01745
C 2.41605 2.95103 0.00488
C 3.7016 2.21718 -0.01004
C 3.6708 0.77039 -0.02896
C 2.42656 0.13667 -0.00131
C 4.90371 32.72098 -0.01118
C 6.1422 32.04098 -0.014
C 6.11087 30.54793 0.02147
C 4.82764 29.91185 0.00373
C 4.89157 28.45489 -0.00191
C 6.13445 27.74658 0.00438
C 6.01685 26.31107 0.01291
C 4.80081 25.65769 0.00093
C 4.8684 24.17309 0.00057
C 6.12983 23.48137 -0.01634
C 2.5713 7.19563 -0.00482
C 6.09164 22.05485 -0.00334
C 2.37927 8.6509 0.02888
C 2.51419 12.66482 0.00895
C 3.56017 30.50284 0.02635
C 2.29917 29.80815 0.0127
C 2.28713 28.45081 0.01396
C 3.64283 27.7447 0.01849
C 3.58015 26.35763 -0.01142
C 2.38793 25.64442 -0.00562
C 2.49313 24.2141 -0.00494
C 3.70613 23.48125 0.00054
C 3.61038 22.15499 0.03007
C 2.44782 21.31859 -0.00095
C 2.44712 19.91286 0.01572
C 3.59961 19.21007 -0.04848
C 3.66462 17.74699 -0.00892
C 2.5622 17.00356 -0.01362
C 2.437 15.48595 -0.0008
C 3.62202 14.8204 0.0288
C 3.7102 13.42148 0.00393
C 2.43582 11.19615 0.00685
C 4.82301 21.30586 0.02339
C 4.94807 19.87642 0.01641
C 6.1736 19.18587 -0.00719
C 8.69099 19.16392 0.00165
C 8.59196 17.67478 -0.02971
C 7.42802 17.01031 0.02894
C 7.31667 15.43347 -0.01789
C 8.52907 14.81659 0.00444
C 6.5486 4.42763 -0.00925
C 7.24825 3.08502 0.01877
C 8.48835 2.33977 0.01363
C 8.53302 0.82373 -0.02162
C 7.36649 0.00822 0.00415
C 9.80758 32.74958 -0.0014
C 11.03382 32.05873 0.02162
C 10.98594 30.56035 0.0076
C 9.78347 29.90166 0.01241
C 9.80916 28.3478 -0.01454
C 11.02444 27.68229 0.01945
C 11.08677 26.3087 0.01416
C 7.38122 19.89255 0.02819
C 7.30801 21.32621 -0.00891
C 8.5641 21.97949 -0.01046
C 8.59861 23.53969 -0.02689
C 6.18106 17.7511 0.01364
C 4.9836 17.00756 -0.01062
C 4.89577 15.63078 -0.00033
C 6.04642 14.78548 0.03589
C 5.24273 4.26182 -0.02759
C 4.92917 2.84794 0.0402
C 6.13288 2.16463 0.00572
C 6.16188 0.69443 0.03592
C 9.82243 24.20437 0.02299
C 4.87474 0.03872 0.00406
C 8.58578 32.01149 0.02841
C 8.59127 30.59305 -0.01111
C 7.34806 29.90839 -0.01275
C 7.34671 28.48294 0.00985
C 8.6019 27.66623 -0.02245
C 8.48352 26.30122 -0.00428
C 7.2456 25.61083 0.03101
C 7.35639 24.2241 -0.01536
C 7.37704 32.64442 0.00943
C 3.64865 31.98616 -0.01378
C 17.21676 21.33924 -0.01662
C 18.39986 19.0953 0.01126
C 29.37516 2.8076 -0.02142
C 30.55911 2.08696 0.0544
C 30.56407 0.68498 0.00026
C 29.34463 33.98064 0.00682
C 31.8808 32.68683 -0.01779
C 33.12609 32.07302 0.03794
C 33.06391 30.61976 0.01927
C 32.00197 29.79414 0.01574
C 32.96817 28.07946 -0.02383
C 33.38667 22.3459 -0.01429
C 33.2914 19.2307 -0.0136
C 33.23027 17.83139 0.00594
C 32.0171 17.13279 -0.02474
C 31.93436 15.66091 0.00369
C 33.17133 14.93518 0.00455
C 33.21556 13.50066 -0.00644
C 32.08713 12.79034 -0.01839
C 29.3958 4.15533 0.01428
C 31.93711 11.37406 0.00137
C 30.68045 4.96035 -0.01694
C 29.47685 7.07146 0.00346
C 26.98901 4.1808 -0.00669
C 26.92552 2.73915 0.0101
C 28.17277 2.05576 0.01705
C 28.15548 0.59584 -0.0405
C 26.87305 33.97391 -0.01303
C 29.56213 32.63994 -0.01461
C 30.77116 32.00469 -0.02155
C 30.69933 17.66809 -0.00944
C 29.57682 17.02875 -0.03735
C 29.48573 15.67133 -0.00971
C 30.7713 14.91699 0.01518
C 30.82945 13.42823 0.01908
C 29.57877 12.74285 0.07705
C 29.45869 11.37988 0.0103
C 30.68657 10.71109 0.02108
C 30.62445 9.25577 0.00716
C 29.47435 8.48003 0.00307
C 30.67361 6.34401 0.01713
C 33.08576 10.63043 0.00199
C 33.0644 9.1611 0.04381
C 31.87443 8.50298 0.02806
C 1.3511 17.7313 0.01223
C 0.02097 17.0929 0.00648
C 0.02746 15.60797 0.02114
C 1.20253 14.83929 -0.02957
C 1.22655 13.43261 0.00343
C 34.42431 12.77492 -0.02656
C 34.35493 11.40431 -0.02442
C 1.20754 10.63989 -0.00027
C 1.03309 9.29211 -0.00583
C 34.33955 8.49139 -0.02302
C 34.39518 7.03662 -0.02849
C 1.27517 6.50178 0.02931
C 1.33796 5.04904 0.00628
C 0.01213 4.31527 -0.0345
C 34.3951 2.94988 -0.00931
C 1.14802 2.22466 -0.00939
C 1.1873 0.81935 -0.00468
C 1.22486 19.1393 -0.01678
C 0.0503 19.94473 0.01951
C 0.04811 21.39609 -0.02213
C 1.28833 22.07321 0.02712
C 31.92763 7.1159 0.01504
C 33.1345 6.41169 -0.00069
C 33.14756 5.01183 0.04926
C 31.90207 4.24913 -0.03838
C 31.85764 2.80587 0.00349
C 33.18399 2.17863 -0.00323
C 33.08491 0.74148 -0.00841
C 31.91065 0.01103 0.0001
C 28.1967 4.8672 0.03531
C 0.00931 32.78329 -0.02927
C 1.16304 30.56238 0.01027
C 34.36905 29.94189 0.01831
C 34.30669 28.45985 -0.01037
C 1.0441 27.7201 -0.00439
C 1.04409 26.2998 -0.00598
C 34.32874 25.2606 -0.05239
C 0.01232 24.0029 0.03076
C 1.34911 23.46666 0.00723
C 1.19886 32.03433 -0.01404
C 17.24926 19.95407 -0.01185
C 28.23225 6.3413 0.01836
C 26.95353 8.53142 -0.01415
C 20.91481 17.55849 -0.0276
C 19.64472 16.98209 0.03005
C 19.68407 15.55733 -0.04078
C 20.84954 14.78665 0.02117
C 20.90005 13.42333 0.02737
C 19.72332 12.70374 -0.00498
C 19.67029 11.29651 0.00135
C 20.91522 10.67422 0.03102
C 20.91806 9.20403 0.02555
C 19.58342 8.48534 0.01423
C 19.55838 7.08485 -0.00285
C 20.75964 6.35711 -0.009
C 20.85028 4.94222 -0.01199
C 19.52001 2.87918 -0.00229
C 20.7699 2.26725 -0.00938
C 20.8952 0.78348 -0.0264
C 19.69349 0.04621 -0.01154
C 20.18976 30.56625 0.00768
C 22.06156 32.58148 0.00684
C 20.79834 31.90185 -0.00178
C 17.25106 0.05088 -0.02118
C 18.37176 17.77361 0.01852
C 17.13037 17.0884 -0.00381
C 17.16526 15.61447 0.03046
C 18.41471 14.88698 0.0296
C 18.44782 13.38795 0.03374
C 17.28458 12.76077 -0.02845
C 17.21686 11.32837 -0.03213
C 18.39074 10.57523 0.02239
C 18.38513 9.1682 0.01153
C 17.18986 8.44188 0.02734
C 17.18238 7.06887 -0.0055
C 18.40684 6.31837 0.01515
C 18.49222 4.89258 -0.00225
C 17.30569 4.19497 0.00071
C 17.17033 2.80086 -0.01107
C 18.37616 2.25786 -0.01586
C 18.42378 0.82656 -0.01971
C 19.65869 32.7642 0.00733
C 22.00447 16.89981 -0.01052
C 22.05372 15.54651 -0.01679
C 23.28215 14.88613 0.00367
C 24.53461 8.4799 0.01094
C 24.48729 7.02917 0.00235
C 25.78716 6.39242 0.01495
C 25.81294 4.92274 0.01259
C 24.49039 4.2452 0.01799
C 24.50895 2.83317 0.01699
C 25.66819 2.1174 -0.00416
C 25.58732 0.63986 0.01177
C 24.36101 33.97558 0.04266
C 26.71956 32.54891 0.01324
C 27.06658 15.60989 0.0014
C 28.23074 14.90229 0.00924
C 28.27411 13.50692 0.02326
C 27.03587 12.82496 0.00261
C 26.97988 11.39888 0.03265
C 28.21178 10.682 -0.02049
C 28.2054 9.22645 -0.01854
C 25.76065 9.27024 0.02198
C 25.79486 10.62016 0.02611
C 24.57133 11.39368 -0.00621
C 24.53121 12.78847 0.00194
C 23.36055 13.4374 0.04306
C 22.06829 12.72035 0.00996
C 22.0972 11.2867 0.00195
C 23.40879 10.63118 -0.00802
C 23.3868 9.16523 -0.00218
C 22.16965 8.52193 -0.01654
C 22.02117 7.00525 -0.00037
C 23.23539 6.3457 -0.0032
C 26.92833 7.09143 -0.03039
C 23.25504 4.91459 0.00622
C 22.03944 2.79116 -0.00942
C 23.29657 2.14343 0.00487
C 23.28686 0.73213 0.00826
C 22.1295 34.07889 -0.00294
C 24.16692 32.58079 0.00152
C 24.56005 15.56762 0.01257
C 25.83275 14.95314 0.02316
C 25.82223 13.50909 0.04185
C 22.02532 4.24312 -0.02815
C 2.34245 32.72418 -0.01303
