332
Graphene
C 0.02108 0.07258 0.01295
C 10.95189 21.99275 0.03505
C 9.81231 21.20895 -0.02815
C 9.89896 19.74578 -0.04147
C 9.34958 16.31682 -0.05302
C 11.25224 13.29408 0.00213
C 9.8573 12.87576 -0.00066
C 10.022 11.41185 -0.00289
C 10.97957 23.40892 0.01443
C 11.22967 10.78858 0.00028
C 9.87201 8.72156 0.03698
C 9.83592 7.18 -0.00109
C 11.00876 6.43271 -0.00491
C 10.99897 5.01099 0.03338
C 9.79422 4.23398 -0.0258
C 9.85811 2.75662 -0.0331
C 11.02183 2.12158 -0.00316
C 11.12949 9.34618 -0.02213
C 9.73332 24.1008 0.00979
C 9.70629 25.61694 -0.00481
C 10.87592 26.26796 0.00889
C 8.74494 10.66943 -0.03682
C 8.60842 9.31324 0.01965
C 7.42092 8.52917 0.02058
C 7.41863 7.11283 -0.01957
C 8.6462 6.42538 -0.0108
C 8.56637 4.98921 -0.00368
C 7.34506 4.21742 -0.02696
C 7.38941 2.84865 -0.00114
C 8.61835 2.06995 0.00228
C 8.69407 0.67953 0.00798
C 7.36579 0.11181 0.00422
C 9.91537 32.56064 0.0351
C 11.04975 31.79998 -0.03113
C 11.25895 30.39279 0.02098
C 9.8907 29.8315 0.01848
C 9.89556 28.43746 -0.00619
C 10.9747 27.61466 -0.02162
C 11.12686 0.69824 0.02188
C 9.93272 34.06214 -0.01979
C 12.34682 32.55713 0.02691
C 13.53309 31.84513 -0.01581
C 12.33475 33.96692 0.00675
C 14.67487 32.63495 -0.00311
C 15.89167 31.87387 0.00742
C 14.52365 24.63917 -0.01594
C 15.78641 25.13858 0.0106
C 15.98759 21.27772 -0.01154
C 14.79366 21.59921 -0.01721
C 15.08882 10.63423 -0.02422
C 15.88821 9.34322 0.01277
C 14.75763 8.41854 0.00096
C 14.75768 6.99051 -0.01527
C 16.04585 6.31678 0.01087
C 16.04271 4.8433 0.00199
C 14.6689 4.21237 0.01511
C 14.75394 2.79223 -0.00478
C 16.00311 2.12713 -0.01662
C 15.9983 0.70771 -0.01185
C 13.52599 0.68427 -0.00865
C 7.40688 11.30797 0.00052
C 13.52035 2.05712 0.0058
C 12.25897 4.20304 -0.04076
C 13.54452 30.4402 0.01452
C 12.55753 29.47219 0.04892
C 12.47803 28.01242 -0.00111
C 13.05384 26.84308 -0.03557
C 12.1216 25.69012 0.03754
C 12.16337 24.22616 0.01739
C 13.42189 23.78792 0.00755
C 13.43971 22.0879 -0.0054
C 12.21604 21.36553 0.00667
C 12.27416 12.76064 0.00143
C 12.72075 11.44398 -0.017
C 13.74688 10.61493 0.00364
C 13.57915 9.09778 -0.00831
C 12.3277 8.55907 -0.02957
C 12.28148 7.13546 -0.04422
C 13.48701 6.42545 0.00654
C 13.47793 4.96313 -0.00703
C 12.35858 2.84041 -0.00652
C 14.76995 34.04703 0.01126
C 7.3417 12.78029 0.00374
C 8.61204 15.04069 -0.01952
C 2.42832 8.50707 -0.01118
C 2.44731 7.12281 -0.014
C 3.67464 6.38167 0.02147
C 3.69619 5.00218 0.00373
C 2.4677 4.28251 -0.00191
C 2.50366 2.81116 0.00438
C 3.72516 2.18706 0.01291
C 3.64015 9.23776 -0.00131
C 3.71326 0.73411 0.00093
C 4.9029 32.72873 -0.01634
C 6.16068 31.98813 -0.00334
C 6.16528 30.584 0.02339
C 4.89297 29.91176 0.01641
C 4.90401 28.47976 -0.00719
C 6.10163 27.76725 0.01364
C 6.05396 26.31764 -0.01062
C 2.41134 0.09857 0.00057
C 3.64945 10.70845 -0.02896
C 2.3649 11.41248 -0.01004
C 2.41136 12.87193 0.00488
C 3.7212 30.66892 0.00054
C 2.46015 29.92197 0.03007
C 2.45775 28.47212 -0.00095
C 3.67183 27.78521 0.01572
C 3.63445 26.34336 -0.04848
C 2.46588 25.67617 -0.00892
C 2.47923 24.1854 -0.01362
C 3.66601 23.44529 -0.0008
C 3.65232 21.97679 0.0288
C 2.416 21.26935 0.00393
C 2.3907 19.86667 0.00895
C 3.5889 19.21314 0.00685
C 3.58011 17.74138 0.02888
C 2.31257 17.10531 -0.00482
C 2.33755 15.60418 -0.01384
C 3.61941 14.99782 0.03693
C 3.66184 13.52691 0.01745
C 4.88188 25.55501 -0.00033
C 4.87769 24.13255 0.03589
C 6.11149 23.38373 -0.02759
C 6.15809 21.9265 0.0402
C 7.38784 32.74747 -0.00925
C 8.63751 31.96214 0.01877
C 8.62421 30.6054 0.01363
C 7.42882 29.88939 -0.02162
C 7.34015 28.52 0.00415
C 8.5788 27.74151 -0.0014
C 8.49463 26.2812 0.02162
C 7.24341 25.52307 0.0076
C 7.26089 24.14834 0.01241
C 8.54225 23.39444 -0.01454
C 8.52332 21.9991 0.01945
C 7.3798 21.21311 0.01416
C 7.36093 19.81728 0.03542
C 8.77513 18.91218 0.02299
C 8.71355 17.35555 0.00244
C 7.2242 16.91571 -0.01717
C 7.25195 15.58455 0.05265
C 4.90638 0.01728 0.00444
C 8.59579 13.56162 -0.02813
C 6.16688 0.77592 -0.01789
C 4.96329 2.88123 -0.02971
C 4.89254 21.25521 0.00572
C 4.85999 19.89905 0.03592
C 6.16611 19.16906 0.00406
C 6.1611 17.68538 0.00943
C 4.89479 17.04154 0.02841
C 4.8747 15.63808 -0.01111
C 6.0583 14.94668 -0.01275
C 6.08498 13.46794 0.00985
C 4.8922 12.75191 -0.02245
C 4.91645 11.34973 -0.00428
C 6.22478 10.63197 0.03101
C 6.17971 9.13876 -0.01536
C 4.90439 8.4993 -0.02689
C 4.93899 7.11933 -0.01046
C 6.17594 6.35408 -0.00891
C 6.12732 4.91641 0.02819
C 4.88482 4.27474 0.00165
C 6.14363 2.15393 0.02894
C 17.16357 32.51505 0.01852
C 18.3816 31.83975 -0.00381
C 18.81181 30.50719 0.03046
C 29.49876 2.84733 0.00026
C 30.72412 2.14326 0.00682
C 30.71951 0.7303 -0.01779
C 29.44873 0.04385 0.03794
C 31.90252 32.66623 0.01927
C 33.09681 31.96102 0.01574
C 33.01839 30.57997 -0.02383
C 29.52622 4.21841 0.0544
C 31.42222 19.17677 -0.01429
C 33.11095 17.81858 0.00594
C 31.96377 17.0962 -0.02474
C 31.82141 15.73369 0.00369
C 33.07536 14.96551 0.00455
C 33.11264 13.54147 -0.00644
C 31.89528 12.84206 -0.01839
C 32.00726 11.4288 0.00137
C 32.94865 19.23528 -0.0136
C 30.73825 4.9495 -0.02142
C 30.70106 6.37216 0.01428
C 29.49308 7.10305 -0.01694
C 27.03868 4.21986 0.01705
C 27.02042 2.82493 -0.0405
C 28.23189 2.13201 -0.01303
C 28.23228 0.72792 -0.01461
C 26.99462 0.02845 -0.02155
C 29.57128 32.73499 -0.00944
C 30.53905 32.06273 -0.03735
C 30.9084 18.0691 -0.00971
C 29.51732 17.42045 0.01518
C 29.44543 15.74098 0.01908
C 30.6707 15.00141 0.07705
C 30.67962 13.52899 0.0103
C 29.45727 12.87224 0.02108
C 29.4926 11.37689 0.00716
C 30.7635 10.67447 0.00307
C 30.7458 9.25726 0.00346
C 29.47799 8.51459 0.01713
C 33.22497 10.63788 0.00199
C 33.18518 9.20893 0.04381
C 31.93611 8.50696 0.02806
C 31.96869 7.07483 0.01504
C 1.1116 17.86772 0.01223
C 34.34406 17.09151 0.00648
C 34.33128 15.59708 0.02114
C 1.16163 14.90663 -0.02957
C 1.19376 13.52659 0.00343
C 34.33785 12.78341 -0.02656
C 0.01424 11.39921 -0.02442
C 1.18797 10.68996 -0.00027
C 1.18947 9.22373 -0.00583
C 34.41792 8.46665 -0.02302
C 0.02449 7.04229 -0.02849
C 1.24729 6.37012 0.02931
C 1.1776 4.95162 0.00628
C 34.36213 4.29704 -0.0345
C 34.36703 2.91974 -0.00931
C 1.22701 2.18238 -0.00939
C 1.22416 0.73992 -0.00468
C 1.07444 19.2286 -0.01678
C 28.27783 4.92713 0.0101
C 34.16152 20.0419 0.01951
C 1.13796 22.087 0.02712
C 33.21249 6.33488 -0.00069
C 33.09826 5.0161 0.04926
C 31.92695 4.25356 -0.03838
C 31.97929 2.89595 0.00349
C 33.14837 2.17592 -0.00323
C 33.19047 0.75894 -0.00841
C 31.95914 0.07045 0.0001
C 34.28053 32.75181 -0.02927
C 1.1285 32.07095 -0.01404
C 1.14844 30.55771 0.01027
C 34.21135 29.86369 0.01831
C 34.41745 28.43946 -0.01037
C 1.22422 27.7452 -0.00439
C 1.20371 26.39622 -0.00598
C 0.14005 25.54807 -0.05239
C 0.03642 24.40866 0.03076
C 1.13605 23.45419 0.00723
C 0.0019 21.39842 -0.02213
C 28.29536 6.3205 -0.00669
C 27.05176 7.04159 0.03531
C 27.03063 8.46578 0.01836
C 20.57034 12.79235 0.02117
C 19.93085 11.54344 0.02737
C 20.96849 10.53386 -0.00498
C 20.8382 9.14774 0.00135
C 19.61144 8.55086 0.03102
C 19.67031 7.05917 0.02555
C 20.88228 6.28877 0.01423
C 20.9019 4.90475 -0.00285
C 19.67536 4.27587 -0.009
C 19.64345 2.82498 -0.01199
C 20.85062 2.15271 -0.00229
C 20.8393 0.67355 -0.00938
C 19.56842 34.05199 -0.0264
C 21.9617 32.56777 -0.01154
C 23.1788 17.56951 0.00684
C 22.08123 16.83912 -0.01052
C 21.80917 15.51205 -0.01679
C 20.47424 18.57002 -0.04078
C 23.14188 14.7695 0.00367
C 20.21094 19.98646 0.03005
C 19.76916 29.75994 0.00768
C 17.02165 24.34173 0.0296
C 18.17624 23.86232 0.03374
C 18.58067 22.26394 -0.02845
C 17.53118 21.32486 -0.03213
C 18.70106 10.75762 0.02239
C 18.43979 9.44765 0.01153
C 17.11653 8.76082 0.02734
C 17.1953 7.15136 -0.0055
C 18.43804 6.32519 0.01515
C 18.40637 4.96407 -0.00225
C 17.25598 4.23948 0.00071
C 17.25203 2.8606 -0.01107
C 18.41149 2.12241 -0.01586
C 18.36357 0.73202 -0.01971
C 17.1904 34.0263 -0.02118
C 19.55538 32.59753 0.00733
C 20.94098 32.08692 -0.00178
C 19.10244 20.84258 -0.0276
C 3.68641 32.03518 -0.00494
C 23.09505 13.3903 0.04306
C 22.22511 11.12705 0.00195
C 24.59863 7.0679 0.01495
C 25.8382 6.36541 0.01259
C 25.83443 4.92978 0.01799
C 24.54133 4.20912 0.01699
C 24.61213 2.79262 -0.00416
C 25.71328 2.11566 0.01177
C 25.74192 0.55352 0.04266
C 24.50917 34.03447 0.01324
C 28.33052 17.87143 0.0014
C 27.00555 17.27508 0.00924
C 26.93834 15.77913 0.02326
C 28.16068 15.08331 0.00261
C 28.16998 13.64189 0.03265
C 26.95899 12.80306 -0.02049
C 27.07913 11.35418 -0.01854
C 28.33639 10.65174 -0.01415
C 28.30114 9.2175 -0.03039
C 24.61152 8.48036 0.00235
C 21.898 12.59398 0.00996
C 25.79566 9.16615 0.01094
C 24.61289 11.3086 0.02611
C 23.41111 10.54477 -0.00802
C 23.38707 9.17791 -0.00218
C 22.07661 8.38676 -0.01654
C 22.11295 6.98118 -0.00037
C 23.33435 6.3444 -0.0032
C 23.28831 4.94187 0.00622
C 22.11973 4.21765 -0.02815
C 22.12279 2.84728 -0.00942
C 23.33976 2.10158 0.00487
C 23.35602 0.64149 0.00826
C 22.11214 34.02263 -0.00294
C 25.68566 17.76624 0.00152
C 24.4306 17.08322 0.01257
C 24.41018 15.52376 0.02316
C 25.67287 14.92209 0.04185
C 25.64439 13.46886 0.00194
C 24.45041 12.70127 -0.00621
C 25.81262 10.56685 0.02198
C 2.38381 32.75883 -0.00562
