350
Graphene
C 0.0167 0.03822 0.01295
C 16.03295 30.50212 0.00798
C 14.71169 29.88442 0.00422
C 14.75368 28.42799 0.0351
C 16.00452 27.66223 -0.03113
C 16.04031 26.29541 0.02098
C 14.79503 25.56497 0.01848
C 14.64419 24.09078 -0.00619
C 15.99168 6.40322 -0.02162
C 15.94149 4.87367 0.00889
C 14.72747 4.24248 -0.00481
C 14.80139 2.85846 0.00979
C 16.02023 2.09306 0.01443
C 16.02385 0.68141 0.03505
C 14.80316 34.0464 -0.02815
C 17.19674 32.74643 -0.04147
C 18.45295 31.93272 -0.05302
C 18.4404 30.45469 0.00213
C 15.95086 31.91829 0.00228
C 14.81842 32.59136 -0.00114
C 12.23861 34.05321 -0.02696
C 13.50479 0.73104 -0.00368
C 9.84956 2.78127 0.01241
C 11.04802 2.17068 -0.01454
C 10.98807 0.77078 0.01945
C 9.8533 0.0515 0.01416
C 12.33025 32.66716 0.03542
C 13.56854 31.96372 0.02299
C 13.5314 30.55314 0.00244
C 12.28409 29.8413 -0.01717
C 17.22202 29.7891 -0.00066
C 12.32796 28.42293 0.05265
C 13.52972 26.33148 -0.02813
C 12.2833 25.56745 0.00374
C 12.26189 24.16767 0.00052
C 13.62467 23.42075 -0.03682
C 13.54945 4.94517 0.01965
C 12.33103 4.30128 0.02058
C 12.36798 2.81885 -0.01957
C 13.5079 2.07745 -0.0108
C 13.52137 27.71396 -0.01952
C 17.23729 28.34676 -0.00289
C 18.41331 27.6783 0.00028
C 18.47634 26.22119 -0.02213
C 21.00347 6.41163 0.00364
C 20.9237 5.00428 -0.00831
C 19.70129 4.30446 -0.02957
C 19.63307 2.94988 -0.04422
C 20.88232 2.16886 0.00654
C 20.88917 0.63673 -0.00703
C 19.67931 34.0456 -0.04076
C 22.16483 32.70481 -0.00652
C 19.68102 7.07243 -0.017
C 23.34413 31.96535 0.0058
C 22.12356 29.84134 0.00675
C 22.15669 28.37566 -0.00311
C 23.41602 27.74201 0.00742
C 23.396 26.20818 -0.01594
C 22.16204 25.54512 0.0106
C 22.14917 24.15446 -0.01154
C 23.36516 23.36869 -0.01721
C 23.2981 22.00065 -0.02422
C 23.3443 30.51167 -0.00865
C 9.86008 4.20689 0.0076
C 19.72533 8.44814 0.00143
C 20.91729 10.68751 -0.0054
C 17.1682 25.57413 0.03698
C 17.11176 7.02508 -0.00109
C 18.37309 6.43134 -0.00491
C 18.41349 5.00375 0.03338
C 17.19628 4.2728 -0.0258
C 17.24217 2.80462 -0.0331
C 18.45105 2.13959 -0.00316
C 18.4701 0.74305 0.02188
C 20.87766 9.2838 0.00667
C 17.27834 0.02955 -0.01979
C 20.91751 31.96453 -0.01581
C 20.91194 30.49351 0.01452
C 19.65225 29.78286 0.04892
C 19.68353 28.38866 -0.00111
C 20.94745 27.70608 -0.03557
C 20.88975 26.26122 0.03754
C 19.67225 25.57076 0.01739
C 20.85782 13.48981 0.00755
C 19.67835 32.65006 0.02691
C 11.00562 4.95923 0.02162
C 11.06491 23.47328 -0.0014
C 9.88029 24.12187 0.00415
C 2.41266 7.07391 -0.04848
C 3.68469 6.33304 -0.00892
C 3.64484 4.95136 -0.01362
C 2.45823 4.24168 -0.0008
C 2.43359 2.82736 0.0288
C 3.72835 2.13381 0.00393
C 3.74819 0.74398 0.00895
C 2.43583 0.0729 0.00685
C 2.47297 8.48253 0.01572
C 4.89826 32.66529 0.02888
C 6.11958 30.52701 -0.01384
C 4.91153 29.85972 0.03693
C 4.91832 28.33952 0.01745
C 6.11408 27.716 0.00488
C 6.08947 26.3109 -0.01004
C 4.86132 25.58232 -0.02896
C 4.9182 24.16289 -0.00131
C 6.15138 23.47956 -0.01118
C 6.16308 31.89813 -0.00482
C 6.15091 22.03188 -0.014
C 3.70359 9.22446 -0.00095
C 2.47123 11.35491 0.00054
C 3.62753 30.61459 -0.00077
C 2.48165 29.84844 0.03368
C 2.45797 28.36481 -0.02929
C 3.66173 27.67909 -0.00966
C 3.63144 26.30715 -0.03337
C 2.49786 25.5174 0.01227
C 2.53392 24.16802 0.00873
C 3.68526 23.42044 -0.00049
C 3.78282 10.61801 0.03007
C 3.68856 21.99767 0.00848
C 2.40099 19.87466 -0.01378
C 3.65646 19.26131 0.02635
C 3.71766 17.75713 0.0127
C 2.49299 17.02019 0.01396
C 2.4585 15.63866 0.01849
C 3.77191 14.87386 -0.01142
C 3.65092 13.47238 -0.00562
C 2.51484 12.74272 -0.00494
C 2.37226 21.26133 -0.01303
C 23.35247 19.16553 0.01277
C 4.86742 21.3514 0.02147
C 6.12463 19.22099 -0.00191
C 8.59962 22.04245 0.00985
C 7.40946 21.24928 -0.02245
C 7.45003 7.10728 -0.00428
C 8.58924 6.45985 0.03101
C 8.60399 4.99998 -0.01536
C 7.35926 4.26204 -0.02689
C 7.36079 2.79804 -0.01046
C 8.61074 2.09764 -0.00891
C 8.64962 23.45387 -0.01275
C 8.61763 0.67738 0.02819
C 9.84485 32.7111 -0.02971
C 11.06934 32.01741 0.02894
C 11.02554 30.54822 -0.01789
C 9.87952 29.81354 0.00444
C 9.88686 28.3951 -0.00925
C 11.09822 27.72701 0.01877
C 11.03279 26.16039 0.01363
C 9.821 25.53089 -0.02162
C 7.34278 0.02766 0.00165
C 4.88245 19.83293 0.00373
C 7.37776 24.13538 -0.01111
C 8.58003 26.29173 0.00943
C 4.91532 17.07505 0.00438
C 4.92492 11.30034 0.01291
C 6.13752 9.26146 0.00093
C 4.93395 8.55432 0.00057
C 4.94895 7.11799 -0.01634
C 6.15387 6.40616 -0.00334
C 6.16583 4.98977 0.02339
C 4.95465 4.31677 0.01641
C 7.34761 25.57531 0.02841
C 4.90191 2.90895 -0.00719
C 6.1968 0.73441 -0.01062
C 4.94082 0.05184 -0.00033
C 7.36205 32.69186 0.03589
C 8.64083 32.00753 -0.02759
C 8.56632 30.61302 0.0402
C 7.34668 29.86591 0.00572
C 7.37143 28.43471 0.03592
C 8.53098 27.69685 0.00406
C 6.16494 2.19054 0.01364
C 23.35777 17.78403 0.00096
C 23.37317 14.88162 -0.01527
C 23.34382 13.52975 0.01087
C 33.17732 32.0002 -0.01694
C 33.21296 30.54199 0.01428
C 31.92133 29.81008 -0.02142
C 31.94244 28.4302 0.0544
C 33.2027 27.6699 0.00026
C 33.21258 26.25533 0.00682
C 31.91713 25.6081 -0.01779
C 31.95422 24.16454 0.03794
C 32.00967 32.71282 0.01713
C 33.22606 23.3784 0.01927
C 31.97261 21.3215 -0.02383
C 31.92848 19.88373 -0.01429
C 33.21086 19.17785 -0.0136
C 33.16484 17.79143 0.00594
C 31.89355 17.03739 -0.02474
C 31.94335 15.61171 0.00369
C 33.18128 14.84013 0.00455
C 33.22686 13.51647 -0.00644
C 33.16681 21.99921 0.01574
C 31.98425 12.82389 -0.01839
C 29.51656 34.02603 0.00346
C 30.74286 2.11367 0.00716
C 29.53396 21.3356 -0.03039
C 29.55138 19.8729 0.01836
C 30.7629 19.20518 0.03531
C 30.71917 17.72598 -0.00669
C 29.49311 17.03895 0.0101
C 29.49954 15.61862 0.01705
C 30.70399 14.97156 -0.0405
C 30.78921 13.50213 -0.01303
C 30.75288 0.65153 0.00307
C 29.57457 12.75557 -0.01461
C 30.74413 10.67112 -0.00944
C 30.73743 9.26029 -0.03735
C 29.52724 8.52862 -0.00971
C 29.51003 7.09531 0.01518
C 30.74052 6.38719 0.01908
C 30.72474 5.00534 0.07705
C 29.55145 4.30062 0.0103
C 29.52641 2.76655 0.02108
C 29.55619 11.32623 -0.02155
C 30.77411 22.0428 -0.01415
C 31.95858 11.39173 0.00137
C 33.20238 9.18134 0.04381
C 1.1842 19.18798 -0.01678
C 1.27482 17.68975 0.01223
C 34.38362 16.98503 0.00648
C 34.38662 15.62457 0.02114
C 1.19651 14.89098 -0.02957
C 1.19277 13.51642 0.00343
C 34.4237 12.77254 -0.02656
C 34.42226 11.30872 -0.02442
C 0.03179 19.87776 0.01951
C 1.2285 10.71061 -0.00027
C 0.05876 8.50813 -0.02302
C 34.42941 7.03216 -0.02849
C 1.22405 6.37232 0.02931
C 1.25582 4.92836 0.00628
C 34.40066 4.22645 -0.0345
C 0.01779 2.80424 -0.00931
C 1.24432 2.14616 -0.00939
C 1.22572 0.73333 -0.00468
C 1.24846 9.30589 -0.00583
C 33.1677 10.64257 0.00199
C 0.02492 21.34256 -0.02213
C 1.19376 23.47781 0.00723
C 31.97241 8.52599 0.02806
C 31.9627 7.10135 0.01504
C 33.23697 6.43517 -0.00069
C 33.23704 4.96495 0.04926
C 31.94646 4.23758 -0.03838
C 31.97032 2.87432 0.00349
C 33.20527 2.14077 -0.00323
C 33.23145 0.76003 -0.00841
C 1.18041 21.95419 0.02712
C 31.94593 34.05938 0.0001
C 1.21575 31.9564 -0.01404
C 1.29049 30.53033 0.01027
C 34.37275 29.78945 0.01831
C 34.38149 28.41225 -0.01037
C 1.22026 27.63961 -0.00439
C 1.20336 26.2544 -0.00598
C 34.41582 25.52783 -0.05239
C 34.42637 24.20449 0.03076
C 0.00095 32.70809 -0.02927
C 3.67618 31.97398 0.01305
C 30.75888 23.4279 -0.01854
C 29.45976 25.50357 0.03265
C 25.76375 23.45578 -0.01971
C 25.81758 22.02931 -0.02118
C 24.59876 21.26232 0.00733
C 24.57259 19.86399 -0.00178
C 25.78152 19.20542 0.00768
C 25.81933 17.79809 -0.0276
C 24.56594 17.10787 0.03005
C 24.53782 15.63403 -0.04078
C 24.56704 24.13183 -0.01586
C 25.8196 14.96325 0.02117
C 24.63121 12.79966 -0.00498
C 24.61935 11.37555 0.00135
C 25.80105 10.60926 0.03102
C 25.80134 9.20257 0.02555
C 24.56673 8.53542 0.01423
C 24.58401 7.16233 -0.00285
C 25.83768 6.3287 -0.009
C 25.83092 4.92431 -0.01199
C 25.78938 13.50607 0.02737
C 24.58399 4.29123 -0.00229
C 24.63973 25.54143 -0.01107
C 25.74229 27.64265 -0.00225
C 22.08926 12.77632 0.00199
C 22.13509 11.3485 0.01511
C 23.35759 10.60659 -0.00478
C 23.31829 9.25069 -0.01662
C 22.1634 8.47259 -0.01185
C 22.17575 7.08716 0.01126
C 23.4071 6.38576 0.01852
C 23.33272 4.95042 -0.00381
C 25.8296 26.23598 0.00071
C 22.12424 4.22979 0.03046
C 23.33624 2.10249 0.03374
C 23.37308 0.70014 -0.02845
C 22.1832 34.05428 -0.03213
C 24.58656 32.70621 0.02239
C 25.74667 31.94183 0.01153
C 25.73478 30.49767 0.02734
C 24.57246 29.7517 -0.0055
C 24.55347 28.41085 0.01515
C 22.17295 2.82039 0.0296
C 29.53618 24.09948 -0.02049
C 24.5071 2.8688 -0.00938
C 25.78868 0.66005 -0.01154
C 28.31024 10.64604 0.00194
C 28.28948 9.21948 -0.00621
C 27.09406 8.47348 0.02611
C 27.1028 7.04902 0.02198
C 28.33335 6.36885 0.01094
C 28.27462 4.96983 0.00235
C 27.07631 4.18678 0.01495
C 27.02972 2.80355 0.01259
C 27.03982 11.38068 0.04185
C 28.33352 2.06727 0.01799
C 27.13184 34.0283 -0.00416
C 29.49191 32.61436 0.01177
C 30.74403 31.93057 0.04266
C 30.75336 30.52977 0.01324
C 29.50973 29.79522 0.0014
C 29.56003 28.40253 0.00924
C 30.72525 27.66664 0.02326
C 30.72077 26.27431 0.00261
C 28.33534 0.68196 0.01699
C 25.8661 2.15009 -0.0264
C 27.0829 12.81121 0.02316
C 28.2969 14.94435 0.00152
C 24.62811 34.03239 0.00684
C 27.04314 32.63694 -0.01052
C 28.30992 31.95658 -0.01679
C 28.26065 30.59205 0.00367
C 27.01895 29.83304 0.04306
C 27.04478 28.42616 0.00996
C 28.25418 27.72418 0.00195
C 28.28188 26.26714 -0.00802
C 28.32539 13.51071 0.01257
C 27.03721 25.64726 -0.00218
C 28.27394 23.39022 -0.00037
C 28.32418 22.05809 -0.0032
C 27.0956 21.29938 0.00622
C 27.09504 19.84829 -0.02815
C 28.22471 19.12176 -0.00942
C 28.29693 17.76087 0.00487
C 27.02694 17.02345 0.00826
C 27.18009 15.67173 -0.00294
C 27.01698 24.18824 -0.01654
C 2.44581 32.68012 0.0276
