385
Graphene
C 34.35675 34.06138 0.01295
C 13.48138 4.99682 0.02162
C 12.21065 4.32911 0.0076
C 12.26307 2.85762 0.01241
C 13.5398 2.09409 -0.01454
C 13.49338 0.70895 0.01945
C 12.251 0.0063 0.01416
C 14.80024 32.58968 0.03542
C 16.03702 31.88384 0.02299
C 16.03354 30.36092 0.00244
C 13.48871 6.42621 -0.0014
C 14.78226 29.87703 -0.01717
C 15.93304 27.74582 -0.01952
C 16.15159 13.61304 -0.02813
C 14.96772 12.89922 0.00374
C 14.8767 11.09839 0.00052
C 16.19999 10.43189 -0.03682
C 14.62808 7.10637 0.01965
C 15.82265 6.48478 0.02058
C 15.92319 5.07702 -0.01957
C 14.65937 4.3455 -0.0108
C 14.88511 28.27757 0.05265
C 14.7121 2.82644 -0.00368
C 12.20762 7.14367 0.00415
C 13.50747 9.15638 0.01363
C 11.07208 10.73343 0.00943
C 11.03843 9.22343 0.02841
C 9.7664 8.58654 -0.01111
C 9.80046 7.1365 -0.01275
C 11.00936 6.47112 0.00985
C 11.033 5.00723 -0.02245
C 9.81032 4.3088 -0.00428
C 9.82797 2.92664 0.03101
C 11.02956 2.21268 -0.01536
C 12.29521 8.58804 -0.02162
C 11.09088 0.75107 -0.02689
C 12.28365 32.65195 -0.00891
C 13.57501 31.96081 0.02819
C 13.60882 30.59345 0.00165
C 12.30828 29.8007 -0.02971
C 12.1535 28.42337 0.02894
C 13.66269 13.23059 -0.01789
C 12.25882 12.9802 0.00444
C 12.2877 11.5016 -0.00925
C 13.54417 10.63526 0.01877
C 9.85531 0.08364 -0.01046
C 9.83496 11.39552 0.00406
C 15.90758 2.15041 -0.02696
C 14.69889 34.04336 0.00228
C 19.67094 29.71532 0.03338
C 19.73629 28.31602 -0.0258
C 20.89871 27.67629 -0.0331
C 20.76735 26.2008 -0.00316
C 19.30072 26.08077 0.02188
C 20.94291 23.10344 -0.01979
C 21.06237 19.13617 0.02691
C 21.11538 17.82347 -0.01581
C 19.57302 15.52812 0.01452
C 20.88268 30.52857 -0.00491
C 21.00073 14.89708 0.04892
C 19.72291 12.75516 -0.03557
C 19.7144 11.3581 0.03754
C 20.94297 10.61249 0.01739
C 20.91943 9.10699 0.00755
C 19.68422 8.41335 -0.0054
C 19.61918 7.01717 0.00667
C 20.96542 6.13055 0.00143
C 20.87822 4.71194 -0.017
C 19.54315 4.19715 0.00364
C 20.93536 13.47247 -0.00111
C 15.97532 0.60936 -0.00114
C 20.9327 31.88976 -0.00109
C 17.2498 33.96434 -0.02213
C 17.28418 32.62511 0.00798
C 18.42721 31.82151 0.00422
C 18.41927 30.37719 0.0351
C 17.23758 29.56966 -0.03113
C 17.44648 28.01527 0.02098
C 18.74426 27.22789 0.01848
C 18.58284 14.82239 -0.00619
C 18.39979 13.40296 -0.02162
C 17.13178 12.69931 0.00889
C 19.59149 32.53904 0.03698
C 17.29134 11.31779 -0.00481
C 18.43429 9.19332 0.01443
C 17.08382 8.65781 0.03505
C 17.04934 7.24129 -0.02815
C 18.34911 6.42606 -0.04147
C 18.33832 4.98144 -0.05302
C 17.07104 4.28365 0.00213
C 17.09569 2.85364 -0.00066
C 18.37401 2.02931 -0.00289
C 18.39547 0.59532 0.00028
C 18.62325 10.64454 0.00979
C 9.85973 12.79257 0.03592
C 10.97058 13.55649 0.00572
C 11.1512 27.79628 0.0402
C 3.64431 5.00495 -0.03113
C 2.3922 4.3432 -0.02566
C 2.31248 2.90469 -0.00094
C 3.64442 2.16898 0.02322
C 3.61657 0.83322 -0.00725
C 2.3894 0.11739 -0.05697
C 4.8834 32.72152 0.01087
C 6.14385 32.04192 -0.01343
C 6.09455 30.64486 0.00988
C 3.60411 6.37822 0.017
C 4.86899 29.91731 0.0276
C 6.18756 27.83778 -0.00077
C 6.11415 26.37681 0.03368
C 4.87543 25.58827 -0.02929
C 4.9999 24.11689 -0.00966
C 6.18407 23.39321 -0.03337
C 6.01293 22.07894 0.01227
C 4.89524 21.39288 0.00873
C 4.9495 19.93721 -0.00049
C 6.2275 19.45497 0.00848
C 4.86025 28.48968 0.01305
C 6.40318 17.91356 -0.01303
C 2.36046 7.10283 -0.00643
C 3.53411 9.23357 -0.00518
C 3.59786 30.61673 0.03189
C 2.39428 29.90235 0.00031
C 2.38596 28.44633 -0.003
C 3.63128 27.76993 0.01402
C 3.70762 26.2738 0.02379
C 2.42129 25.59607 0.00907
C 2.50747 24.19628 0.00643
C 3.63005 23.38324 -0.01509
C 3.64665 22.08058 0.03267
C 2.34666 8.54054 0.0086
C 2.41971 21.27994 0.02374
C 3.69367 19.29444 0.0073
C 3.76587 17.80407 0.0174
C 2.55491 17.0631 0.03828
C 2.45122 15.66226 0.01226
C 3.73003 14.95627 -0.00279
C 3.67924 13.53179 0.01996
C 2.44456 12.8096 -0.03996
C 2.36382 11.42402 0.01465
C 3.64173 10.68034 -0.00074
C 2.43223 19.86767 0.00402
C 5.06769 17.15456 -0.01378
C 5.09347 15.69261 0.02635
C 6.32211 14.90373 0.0127
C 8.7625 14.77631 -0.00131
C 8.56415 13.46392 -0.01118
C 7.32489 12.83672 -0.014
C 7.3527 11.35215 0.02147
C 8.58857 10.71362 0.00373
C 8.53057 9.32375 -0.00191
C 7.27097 8.58642 0.00438
C 7.33293 7.18078 0.01291
C 8.53238 6.51006 0.00093
C 7.56952 15.72032 -0.02896
C 8.54735 4.9896 0.00057
C 7.37991 2.88963 -0.00334
C 8.60022 2.16059 0.02339
C 8.64751 0.75581 0.01641
C 7.32227 0.0805 -0.00719
C 9.81836 32.69904 0.01364
C 11.07516 31.94041 -0.01062
C 11.09461 30.52685 -0.00033
C 9.88683 29.86836 0.03589
C 9.83451 28.43889 -0.02759
C 7.33998 4.30995 -0.01634
C 7.40271 17.07643 -0.01004
C 7.25098 24.28684 0.00488
C 7.36334 25.66604 0.01745
C 6.12807 13.53475 0.01396
C 4.93217 12.817 0.01849
C 4.83334 11.36763 -0.01142
C 6.16542 10.73828 -0.00562
C 6.09829 9.26436 -0.00494
C 4.82882 8.49356 0.00054
C 4.8394 7.11139 0.03007
C 6.06369 6.41559 -0.00095
C 6.12385 4.96308 0.01572
C 4.86821 4.28808 -0.04848
C 4.83711 2.9218 -0.00892
C 6.15045 2.18794 -0.01362
C 6.10437 0.78731 -0.0008
C 4.84686 0.14584 0.0288
C 7.35132 32.7456 0.00393
C 8.62425 32.02392 0.00895
C 8.68733 30.50138 0.00685
C 7.39081 29.96368 0.02888
C 7.34062 28.55834 -0.00482
C 8.56177 27.81462 -0.01384
C 8.54061 26.46261 0.03693
C 19.50068 2.72027 -0.00831
C 3.63255 31.96431 -0.04307
C 20.76019 2.0206 -0.02957
C 19.65912 33.98186 0.00654
C 29.41801 4.2319 0.0103
C 29.45009 2.85082 0.02108
C 30.66021 2.12834 0.00716
C 30.69008 0.73044 0.00307
C 29.47007 0.02913 0.00346
C 31.923 32.70219 0.01713
C 33.10493 31.98777 -0.01694
C 33.17495 30.50539 0.01428
C 31.95064 29.80426 -0.02142
C 30.58452 5.00103 0.07705
C 31.92109 28.43419 0.0544
C 33.17382 26.22782 0.00682
C 31.84707 25.59464 -0.01779
C 31.96905 24.1855 0.03794
C 33.10893 23.44564 0.01927
C 33.22354 21.99518 0.01574
C 31.98897 21.26034 -0.02383
C 31.97992 19.84751 -0.01429
C 33.23396 19.18969 -0.0136
C 33.26969 17.79875 0.00594
C 33.15485 27.66469 0.00026
C 32.02875 16.96596 -0.02474
C 30.63804 6.38261 0.01908
C 29.45226 8.54783 -0.00971
C 29.41606 29.82408 0.0014
C 29.50614 28.33091 0.00924
C 30.69384 27.76528 0.02326
C 30.70979 26.33771 0.00261
C 29.47779 25.56259 0.03265
C 29.54243 24.18339 -0.02049
C 30.74804 23.44037 -0.01854
C 30.7045 22.06833 -0.01415
C 29.42327 21.38074 -0.03039
C 29.44133 7.09613 0.01518
C 29.58932 19.9214 0.01836
C 30.75288 17.74712 -0.00669
C 29.56597 17.06222 0.0101
C 29.54603 15.62203 0.01705
C 30.70434 14.9072 -0.0405
C 30.67033 13.45574 -0.01303
C 29.42232 12.73192 -0.01461
C 29.47791 11.29405 -0.02155
C 30.69589 10.61955 -0.00944
C 30.66118 9.15825 -0.03735
C 30.79182 19.19388 0.03531
C 30.69493 30.51367 0.01324
C 31.98488 15.61936 0.00369
C 33.19707 13.53936 -0.00644
C 0.00617 21.28393 -0.02213
C 0.0284 19.91913 0.01951
C 1.23958 19.20932 -0.01678
C 1.30745 17.76593 0.01223
C 0.03418 17.03028 0.00648
C 0.03538 15.65575 0.02114
C 1.22344 14.9097 -0.02957
C 1.26403 13.53782 0.00343
C 34.43043 12.76223 -0.02656
C 1.20628 21.97327 0.02712
C 34.39058 11.38773 -0.02442
C 1.2156 9.22736 -0.00583
C 34.31518 8.45932 -0.02302
C 34.31815 7.11244 -0.02849
C 1.14187 6.41558 0.02931
C 1.13059 5.01571 0.00628
C 34.31474 4.31164 -0.0345
C 34.3543 2.95919 -0.00931
C 1.07656 2.19294 -0.00939
C 1.10878 0.74118 -0.00468
C 1.19029 10.64798 -0.00027
C 33.18147 14.93884 0.00455
C 1.17735 23.43433 0.00723
C 34.41481 25.60746 -0.05239
C 31.97242 12.76507 -0.01839
C 31.94876 11.32598 0.00137
C 33.15296 10.65969 0.00199
C 33.13007 9.18174 0.04381
C 31.86773 8.48763 0.02806
C 31.85602 7.0438 0.01504
C 33.10055 6.38004 -0.00069
C 33.05844 4.99213 0.04926
C 31.81265 4.30489 -0.03838
C 34.41444 24.1346 0.03076
C 31.85932 2.78958 0.00349
C 33.15158 0.73917 -0.00841
C 31.90681 0.0568 0.0001
C 34.31157 32.73416 -0.02927
C 1.20272 32.01094 -0.01404
C 1.21214 30.61594 0.01027
C 34.38182 29.84538 0.01831
C 34.30929 28.41147 -0.01037
C 1.17578 27.78554 -0.00439
C 1.1445 26.33831 -0.00598
C 33.11233 2.19269 -0.00323
C 30.65227 31.96638 0.04266
C 29.44877 32.63292 0.01177
C 26.9411 0.00755 -0.00416
C 22.21517 6.86513 -0.00381
C 23.49839 6.08633 0.03046
C 21.86936 2.9524 0.0296
C 23.10752 2.26476 0.03374
C 23.24192 0.7877 -0.02845
C 22.05208 0.07684 -0.03213
C 24.50404 32.64745 0.02239
C 25.77412 31.90104 0.01153
C 25.83675 30.4549 0.02734
C 22.13959 8.39227 0.01852
C 24.57812 29.72379 -0.0055
C 25.74765 27.61433 -0.00225
C 25.77886 26.15458 0.00071
C 24.52296 25.49113 -0.01107
C 24.52786 24.04561 -0.01586
C 25.78968 23.3922 -0.01971
C 25.8066 22.01362 -0.02118
C 24.64582 21.29611 0.00733
C 24.60395 19.92429 -0.00178
C 25.87868 19.2059 0.00768
C 24.59077 28.3297 0.01515
C 25.92241 17.79444 -0.0276
C 23.35329 9.1459 0.01126
C 22.11776 11.32713 -0.01662
C 22.15785 32.61207 -0.00703
C 23.33362 31.86636 -0.04076
C 23.36253 30.43995 -0.00652
C 22.12127 29.75629 0.0058
C 22.09129 28.30381 -0.00865
C 23.29555 27.63792 0.00675
C 23.26715 26.19308 -0.00311
C 21.98609 25.47511 0.00742
C 22.0041 23.98716 -0.01594
C 23.3553 10.61065 -0.01185
C 23.29285 23.40885 0.0106
C 22.0249 21.63855 -0.01721
C 21.99753 20.14725 -0.02422
C 23.37249 19.26466 0.01277
C 23.48482 17.82964 0.00096
C 22.23887 17.08443 -0.01527
C 22.26598 15.59118 0.01087
C 23.38305 14.88418 0.00199
C 23.37217 13.48997 0.01511
C 22.13642 12.76641 -0.00478
C 23.37611 22.01793 -0.01154
C 24.71807 17.08959 0.03005
C 24.63618 15.6526 -0.04078
C 25.8761 14.87664 0.02117
C 27.05537 21.20117 0.00622
C 27.10155 19.85248 -0.02815
C 28.3919 19.09258 -0.00942
C 28.28617 17.77298 0.00487
C 27.10124 17.03267 0.00826
C 27.14971 15.55731 -0.00294
C 28.33172 14.91733 0.00152
C 28.28706 13.52111 0.01257
C 27.04501 12.73591 0.02316
C 28.27075 22.01985 -0.0032
C 27.04339 11.35526 0.04185
C 28.25003 9.21444 -0.00621
C 27.03966 8.4906 0.02611
C 27.08958 7.10252 0.02198
C 28.27586 6.30938 0.01094
C 28.23002 4.90095 0.00235
C 26.97559 4.29817 0.01495
C 26.91723 2.8313 0.01259
C 28.11789 2.13476 0.01799
C 28.2415 0.72597 0.01699
C 28.27664 10.62003 0.00194
C 28.26023 23.39605 -0.00037
C 26.97319 24.0806 -0.01654
C 27.01561 25.49689 -0.00218
C 25.83376 13.47591 0.02737
C 24.547 12.85626 -0.00498
C 24.53213 11.34474 0.00135
C 25.78331 10.67532 0.03102
C 25.82862 9.24982 0.02555
C 24.59646 8.48487 0.01423
C 24.61628 7.10985 -0.00285
C 25.87594 6.4764 -0.009
C 25.69133 5.00559 -0.01199
C 24.401 4.56225 -0.00229
C 24.35776 3.05766 -0.00938
C 25.59948 2.20553 -0.0264
C 25.66435 0.65866 -0.01154
C 24.48945 0.04195 0.00684
C 27.04989 32.64324 -0.01052
C 28.20699 31.95638 -0.01679
C 28.20985 30.48599 0.00367
C 26.98728 29.78655 0.04306
C 27.01498 28.34317 0.00996
C 28.22205 27.62914 0.00195
C 28.23942 26.20695 -0.00802
C 20.80012 0.68067 -0.04422
C 2.43252 32.76704 0.03284
