324
Graphene
C 0.05234 0.02864 0.01295
C 9.73622 12.80119 -0.00066
C 9.81565 11.32277 -0.00289
C 11.0171 10.66189 0.00028
C 11.04909 9.32382 -0.02213
C 9.82418 8.56233 0.03698
C 9.75799 7.17689 -0.00109
C 10.95727 6.30148 -0.00491
C 11.11268 13.39845 0.00213
C 11.00969 4.88774 0.03338
C 9.86649 2.74994 -0.0331
C 11.12968 2.08496 -0.00316
C 11.12548 0.75367 0.02188
C 9.8771 0.09029 -0.01979
C 12.31699 32.599 0.02691
C 13.63463 32.22244 -0.01581
C 12.43456 21.1532 0.01452
C 9.77446 4.19642 -0.0258
C 12.0523 19.87458 0.04892
C 11.04999 14.84257 -0.05302
C 9.93773 16.95458 -0.02815
C 8.62066 9.23941 -0.02696
C 7.34004 8.62965 -0.00114
C 7.28153 7.14077 0.00228
C 8.60106 6.46837 0.00798
C 8.6289 5.0137 0.00422
C 7.41449 4.33819 0.0351
C 7.38606 2.9052 -0.03113
C 9.85161 15.5025 -0.04147
C 8.62466 2.11798 0.02098
C 7.39672 0.01425 -0.00619
C 9.84465 32.69514 -0.02162
C 11.07554 32.16055 0.00889
C 9.70602 21.26882 -0.00481
C 9.88056 19.86504 0.00979
C 11.05484 19.0915 0.01443
C 11.17548 17.61083 0.03505
C 8.63724 0.70218 0.01848
C 12.33615 16.97877 -0.00111
C 12.38923 15.6498 -0.03557
C 13.46103 14.80099 0.03754
C 14.70489 7.06129 -0.01154
C 14.55109 4.2352 -0.01721
C 14.86037 2.90343 -0.02422
C 16.03838 2.20046 0.01277
C 16.06527 0.76758 0.00096
C 14.84361 0.0439 -0.01527
C 17.23495 32.66916 0.01087
C 14.89367 8.43184 0.0106
C 18.42147 31.99953 0.00199
C 17.19562 29.7607 -0.00478
C 18.54358 27.87531 -0.01662
C 17.24126 11.27865 -0.01185
C 18.37298 10.5771 0.01126
C 18.45005 9.26083 0.01852
C 17.27834 2.81698 -0.00381
C 18.51076 2.33045 0.03046
C 18.38729 30.47036 0.01511
C 16.0868 9.22284 -0.01594
C 16.09497 10.59629 0.00742
C 14.8206 11.28342 -0.00311
C 13.64259 13.4992 0.01739
C 12.33556 12.71745 0.00755
C 12.30662 11.34534 -0.0054
C 13.55937 10.61388 0.00667
C 13.53782 9.13803 0.00143
C 12.2652 8.5196 -0.017
C 12.12876 7.06297 0.00364
C 13.44287 6.4359 -0.00831
C 13.42457 5.03152 -0.02957
C 12.29102 4.19558 -0.04422
C 12.37571 2.84192 0.00654
C 13.63755 2.1736 -0.00703
C 13.59265 0.72415 -0.04076
C 12.37301 0.00794 -0.00652
C 14.85742 32.59366 0.0058
C 16.10261 31.9392 -0.00865
C 14.65444 12.61974 0.00675
C 8.59715 10.68514 -0.00368
C 18.50072 0.78583 0.0296
C 7.32891 11.37202 -0.0108
C 8.58082 13.51629 0.02058
C 3.65762 9.12777 0.00093
C 2.37673 8.51504 0.00057
C 2.36515 7.14697 -0.01634
C 3.64035 6.3942 -0.00334
C 3.73354 4.96336 0.02339
C 2.47962 4.28023 0.01641
C 2.4835 2.86255 -0.00719
C 3.67762 10.5805 0.01291
C 3.70788 2.12867 0.01364
C 2.43692 0.03324 -0.00033
C 4.93981 32.6735 0.03589
C 6.14742 31.98157 -0.02759
C 6.15098 30.51714 0.0402
C 4.91677 29.86784 0.00572
C 4.9007 28.50023 0.03592
C 6.20408 27.75779 0.00406
C 3.68765 0.69197 -0.01062
C 6.11177 26.36615 0.00943
C 2.43953 11.31346 0.00438
C 3.64605 13.40895 0.00373
C 3.60309 30.51663 0.0288
C 2.41408 29.77768 0.00393
C 2.44319 28.37481 0.00895
C 3.70115 27.67849 0.00685
C 3.71921 26.36186 0.02888
C 2.47595 25.62624 -0.00482
C 2.40224 24.22278 -0.01384
C 2.44642 12.67128 -0.00191
C 3.64998 23.45201 0.03693
C 2.46534 21.33827 0.00488
C 2.40879 19.93062 -0.01004
C 3.66763 19.2021 -0.02896
C 3.73128 17.74272 -0.00131
C 2.4482 17.07316 -0.01118
C 2.46648 15.60446 -0.014
C 3.69307 14.83594 0.02147
C 3.65037 22.10161 0.01745
C 4.91846 25.6091 0.02841
C 4.87722 24.19874 -0.01111
C 6.09577 23.44839 -0.01275
C 4.90005 0.00617 0.0076
C 7.37636 32.70128 0.01241
C 8.66958 31.92788 -0.01454
C 8.66617 30.56264 0.01945
C 7.59595 29.70141 0.01416
C 7.39066 28.33118 0.03542
C 7.0636 25.51833 0.02299
C 6.17132 0.65997 0.02162
C 7.24314 24.20193 0.00244
C 7.30028 21.39727 0.05265
C 7.38867 19.91562 -0.01952
C 8.66643 19.28999 -0.02813
C 8.68174 17.73442 0.00374
C 7.43256 17.0252 0.00052
C 7.35463 15.61115 -0.03682
C 8.57749 14.91323 0.01965
C 8.5369 21.83804 -0.01717
C 6.19281 2.18536 -0.0014
C 4.89861 2.84936 0.00415
C 4.97585 4.32241 -0.02162
C 6.12832 22.12287 0.00985
C 4.96233 21.33194 -0.02245
C 4.95735 19.90785 -0.00428
C 6.15036 19.23551 0.03101
C 6.18763 17.80756 -0.01536
C 4.94308 17.03169 -0.02689
C 4.91602 15.64196 -0.01046
C 6.09352 14.89721 -0.00891
C 6.07146 13.42763 0.02819
C 4.84423 12.76249 0.00165
C 4.87583 11.29652 -0.02971
C 6.15528 10.67305 0.02894
C 6.14213 9.2657 -0.01789
C 4.87609 8.55184 0.00444
C 4.84942 7.07683 -0.00925
C 6.07047 6.39192 0.01877
C 6.15583 5.00602 0.01363
C 7.33399 12.81123 -0.01957
C 17.26089 0.11389 0.03374
C 19.5862 32.66896 -0.02845
C 20.83368 31.9537 -0.03213
C 33.24412 26.32245 0.00682
C 31.96202 25.61316 -0.01779
C 31.9915 24.16202 0.03794
C 33.2298 23.5109 0.01927
C 33.14732 22.07914 0.01574
C 31.84 21.4271 -0.02383
C 31.80927 20.02413 -0.01429
C 33.20755 27.72519 0.00026
C 33.07446 19.26615 -0.0136
C 31.92415 17.03582 -0.02474
C 31.99956 15.71627 0.00369
C 33.21204 14.97411 0.00455
C 33.22065 13.49294 -0.00644
C 31.97188 12.85254 -0.01839
C 31.90943 11.44497 0.00137
C 33.20992 10.65975 0.00199
C 33.14313 17.80262 0.00594
C 33.19169 9.22237 0.04381
C 31.93455 28.41229 0.0544
C 33.11999 30.53595 0.01428
C 30.78551 13.6347 -0.01303
C 29.58577 12.71725 -0.01461
C 29.50014 11.37363 -0.02155
C 30.72267 10.65737 -0.00944
C 30.75756 9.24627 -0.03735
C 29.47355 8.5217 -0.00971
C 29.44589 7.06347 0.01518
C 31.89232 29.80905 -0.02142
C 30.68239 6.39532 0.01908
C 29.51032 4.29372 0.0103
C 29.45419 2.80081 0.02108
C 30.71 2.14164 0.00716
C 30.72717 0.68401 0.00307
C 29.53945 34.04741 0.00346
C 31.97835 32.65395 0.01713
C 33.22898 32.00045 -0.01694
C 30.66741 4.98677 0.07705
C 31.92086 8.49031 0.02806
C 31.90506 7.11751 0.01504
C 33.14068 6.36008 -0.00069
C 34.38614 17.13986 0.00648
C 0.06532 15.65012 0.02114
C 1.24685 14.92995 -0.02957
C 1.2655 13.49812 0.00343
C 34.38793 12.81645 -0.02656
C 34.40359 11.33357 -0.02442
C 1.1747 10.60336 -0.00027
C 1.21819 17.72107 0.01223
C 1.15963 9.23583 -0.00583
C 34.37322 7.06218 -0.02849
C 1.19877 6.37527 0.02931
C 1.24824 4.95575 0.00628
C 0.02222 4.29056 -0.0345
C 34.38264 2.82029 -0.00931
C 1.21694 2.12241 -0.00939
C 1.27459 0.7226 -0.00468
C 34.39127 8.50022 -0.02302
C 1.22896 19.10294 -0.01678
C 34.29574 19.86115 0.01951
C 0.00049 21.32483 -0.02213
C 33.2037 4.91017 0.04926
C 31.95042 4.2627 -0.03838
C 31.93336 2.79835 0.00349
C 33.16455 2.0918 -0.00323
C 33.20282 0.74405 -0.00841
C 31.94588 0.00233 0.0001
C 0.07327 32.67419 -0.02927
C 1.22366 31.94604 -0.01404
C 1.1868 30.56208 0.01027
C 34.34591 29.82858 0.01831
C 34.41534 28.43347 -0.01037
C 1.26507 27.68234 -0.00439
C 1.21119 26.2981 -0.00598
C 34.41553 25.61877 -0.05239
C 0.00496 24.22742 0.03076
C 1.18294 23.47363 0.00723
C 1.23742 22.04989 0.02712
C 30.65257 15.04608 -0.0405
C 29.48821 15.66973 0.01705
C 30.79627 17.79043 0.0101
C 30.82225 19.11775 -0.00669
C 22.09787 7.132 0.03102
C 23.35511 6.4101 0.02555
C 23.26022 5.01335 0.01423
C 21.96386 4.35259 -0.00285
C 22.10744 2.92809 -0.009
C 23.27449 2.05507 -0.01199
C 23.34949 0.65713 -0.00229
C 22.10549 8.5763 0.00135
C 22.07939 34.04187 -0.00938
C 25.82336 31.85017 -0.01154
C 25.77801 30.441 0.00684
C 24.49973 29.75561 -0.01052
C 24.42594 28.18519 -0.01679
C 25.73992 27.65146 0.00367
C 24.58086 11.1678 0.04306
C 25.86151 10.84995 0.00996
C 24.64887 32.55836 -0.0264
C 23.27939 9.22229 -0.00498
C 23.30967 10.56415 0.02737
C 23.1923 27.67223 0.02117
C 20.81905 30.51711 0.02239
C 19.62368 29.67796 0.01153
C 19.75351 28.35594 0.02734
C 20.87396 10.66573 -0.0055
C 20.8515 9.28564 0.01515
C 19.5318 8.58335 -0.00225
C 20.85743 6.44394 0.00071
C 20.79662 5.17485 -0.01107
C 19.82263 2.98184 -0.01586
C 20.92617 2.18178 -0.01971
C 20.88814 0.77437 -0.02118
C 19.68448 0.06585 0.00733
C 22.10045 32.66452 -0.00178
C 23.38964 31.96375 0.00768
C 23.25782 30.51251 -0.0276
C 21.99685 29.77378 0.03005
C 22.10426 28.52863 -0.04078
C 25.85962 9.27691 0.00195
C 3.69733 31.96225 -0.0008
C 24.59235 8.51322 -0.00802
C 25.82542 6.35702 -0.01654
C 27.03057 4.22422 0.01699
C 27.03509 2.7524 -0.00416
C 28.24896 2.04898 0.01177
C 28.29553 0.68626 0.04266
C 27.07478 34.00063 0.01324
C 29.58511 32.61247 0.0014
C 30.76033 31.87616 0.00924
C 28.21417 4.87826 0.01799
C 30.60934 30.47363 0.02326
C 29.46939 28.35878 0.03265
C 30.74578 27.6545 -0.02049
C 30.76138 26.2227 -0.01854
C 29.4143 25.45347 -0.01415
C 29.63562 24.18359 -0.03039
C 30.76019 23.39753 0.01836
C 30.59411 22.04746 0.03531
C 29.44272 29.72636 0.00261
C 28.23589 6.37626 0.01259
C 27.10637 7.06645 0.01495
C 27.0558 8.53468 0.00235
C 25.71947 4.93806 -0.00037
C 24.54827 4.18804 -0.0032
C 24.58314 2.84106 0.00622
C 25.76147 2.08344 -0.02815
C 25.80087 0.68263 -0.00942
C 24.58254 34.0706 0.00487
C 27.1137 32.61772 0.00826
C 28.34399 31.86331 -0.00294
C 28.20358 30.42044 0.00152
C 26.92901 29.7539 0.01257
C 27.00594 28.30893 0.02316
C 28.24911 27.57936 0.04185
C 28.30468 26.30993 0.00194
C 28.38542 13.43644 -0.00621
C 27.15925 11.39285 0.02611
C 28.29975 10.64583 0.02198
C 28.28645 9.24241 0.01094
C 24.6458 7.10417 -0.00218
C 2.4311 32.67486 -0.01362
