388
Graphene
C 0.00671 0.04736 0.01295
C 13.58943 31.9485 -0.02162
C 13.49476 30.58321 0.00415
C 12.29022 29.84546 -0.0014
C 12.33404 28.38748 0.02162
C 13.56574 27.73058 0.0076
C 13.55442 26.28101 0.01241
C 12.23349 25.54362 -0.01454
C 12.23392 24.09857 0.01945
C 13.48267 23.31392 0.01416
C 12.28615 32.63656 0.01363
C 13.59719 22.04901 0.03542
C 12.32818 19.81876 0.00244
C 12.33012 16.91423 -0.01717
C 12.42277 15.6741 0.05265
C 13.40769 13.60251 -0.01952
C 13.51271 9.13957 -0.02813
C 12.32912 6.99588 0.00374
C 13.47576 6.33128 0.00052
C 13.55087 4.87224 -0.03682
C 12.24005 4.21125 0.01965
C 12.32924 21.31088 0.02299
C 12.27365 2.80103 0.02058
C 9.8106 0.06118 0.01877
C 11.00699 2.18468 0.00444
C 9.85971 28.46574 0.00572
C 11.11518 27.71919 0.03592
C 11.08169 26.29815 0.00406
C 9.8386 25.60018 0.00943
C 9.82589 24.15976 0.02841
C 11.06275 23.45131 -0.01111
C 11.11439 22.03843 -0.01275
C 9.87997 21.38479 0.00985
C 9.79798 19.90098 -0.02245
C 11.02684 0.79474 -0.00925
C 11.10743 19.12256 -0.00428
C 9.8631 17.02316 -0.01536
C 9.89115 15.65658 -0.02689
C 11.18985 14.84071 -0.01046
C 11.08122 13.43669 -0.00891
C 9.80292 7.14114 0.02819
C 11.07804 6.40238 0.00165
C 11.00169 4.93691 -0.02971
C 9.85733 4.26571 0.02894
C 9.89162 2.87739 -0.01789
C 11.10109 17.75392 0.03101
C 13.55946 2.16722 -0.01957
C 13.48889 0.80678 -0.0108
C 12.26157 0.05013 -0.00368
C 17.19801 29.74708 -0.00109
C 17.19146 28.31855 -0.00491
C 18.48429 27.7323 0.03338
C 18.44913 26.23249 -0.0258
C 17.17895 25.60288 -0.0331
C 17.19845 24.1155 -0.00316
C 18.44692 23.43082 0.02188
C 18.57697 10.72462 -0.01979
C 18.45737 9.24747 0.02691
C 18.44816 30.50515 0.03698
C 17.19385 8.52479 -0.01581
C 18.4952 6.34699 0.04892
C 18.39675 4.93391 -0.00111
C 17.19613 4.21575 -0.03557
C 17.23243 2.75408 0.03754
C 18.49227 2.09609 0.01739
C 18.42698 0.72306 0.00755
C 17.17636 34.05959 -0.0054
C 19.63211 32.65802 0.00667
C 20.81987 32.01562 0.00143
C 17.20601 7.12915 0.01452
C 18.43485 31.94412 -0.02213
C 17.24243 32.62828 0.00028
C 14.75233 34.07634 -0.00289
C 14.78451 32.6928 -0.02696
C 16.02973 31.99607 -0.00114
C 16.036 30.52734 0.00228
C 14.746 29.85566 0.00798
C 14.79435 28.35847 0.00422
C 15.93131 27.63848 0.0351
C 15.97516 26.2621 -0.03113
C 14.78721 25.56924 0.02098
C 14.70615 24.12637 0.01848
C 15.90908 23.47693 -0.00619
C 14.75729 11.38649 -0.02162
C 15.87185 10.69026 0.00889
C 15.92155 9.25967 -0.00481
C 14.71279 8.53536 0.00979
C 14.78541 7.0459 0.01443
C 15.96187 6.3631 0.03505
C 15.97762 4.88261 -0.02815
C 14.73535 4.20374 -0.04147
C 14.76995 2.80965 -0.05302
C 15.9485 2.09603 0.00213
C 15.99936 0.66988 -0.00066
C 9.88937 29.83743 0.0402
C 20.86012 30.5966 -0.017
C 11.10054 30.50464 -0.02759
C 9.7947 32.68873 -0.00033
C 3.65861 5.00172 0.0086
C 2.4807 4.30759 -0.00643
C 2.48936 2.78988 0.017
C 3.66681 2.14407 -0.03113
C 3.63813 0.73399 -0.02566
C 2.44146 34.07371 -0.00094
C 4.94335 32.67638 0.02322
C 6.152 32.03143 -0.00725
C 6.17216 30.49687 -0.05697
C 3.68168 6.43934 -0.00518
C 4.94749 29.82105 0.01087
C 6.18072 27.72747 0.00988
C 6.07009 26.36323 0.0276
C 4.92159 25.59367 0.01305
C 4.90295 24.14577 -0.00077
C 6.09244 23.422 0.03368
C 6.10614 22.05789 -0.02929
C 4.95499 21.25997 -0.00966
C 4.96914 19.88248 -0.03337
C 6.13467 19.17786 0.01227
C 4.98707 28.39326 -0.01343
C 6.16504 17.73983 0.00873
C 2.37366 7.0724 -0.00074
C 3.65686 9.33016 -0.03996
C 3.69743 30.53042 0.04505
C 2.50216 29.79481 0.03284
C 2.43746 28.39527 -0.04307
C 3.75465 27.67371 0.03189
C 3.6667 26.22802 0.00031
C 2.48756 25.5144 -0.003
C 2.34106 24.11188 0.01402
C 3.62973 23.54118 0.02379
C 3.66 22.09091 0.00907
C 2.41084 8.53135 0.01465
C 2.48583 21.38146 0.00643
C 3.69181 19.12956 0.03267
C 3.76039 17.74626 0.02374
C 2.49501 17.09819 0.00402
C 2.46924 15.68548 0.0073
C 3.66111 14.88788 0.0174
C 3.63546 13.43268 0.03828
C 2.39936 12.75675 0.01226
C 2.49845 11.32897 -0.00279
C 3.68835 10.67107 0.01996
C 2.49532 19.91363 -0.01509
C 4.96452 17.10405 -0.00049
C 4.87965 15.6352 0.00848
C 6.15542 14.89388 -0.01303
C 7.44432 21.30001 0.00488
C 7.39497 19.92579 -0.01004
C 8.54384 19.07365 -0.02896
C 8.57629 17.69552 -0.00131
C 7.33659 17.05076 -0.01118
C 7.35064 15.57356 -0.014
C 8.61995 14.88781 0.02147
C 8.60382 13.5726 0.00373
C 7.41687 12.79327 -0.00191
C 8.65863 21.97792 0.01745
C 7.33955 11.38249 0.00438
C 7.40804 8.57507 0.00093
C 7.40102 7.11874 0.00057
C 8.63598 6.40546 -0.01634
C 8.63102 4.97958 -0.00334
C 7.4213 4.31236 0.02339
C 7.37844 2.86585 0.01641
C 8.57778 2.20655 -0.00719
C 8.65227 0.7528 0.01364
C 7.36872 0.08758 -0.01062
C 8.56481 9.29403 0.01291
C 8.61438 23.48117 0.03693
C 7.32715 24.24985 -0.01384
C 7.28945 25.62589 -0.00482
C 6.14977 13.50554 -0.01378
C 4.84493 12.80318 0.02635
C 4.93952 11.39528 0.0127
C 6.21068 10.67287 0.01396
C 6.15526 9.20755 0.01849
C 4.88781 8.59641 -0.01142
C 4.89995 7.1816 -0.00562
C 6.16998 6.42127 -0.00494
C 6.08137 4.95831 0.00054
C 4.86893 4.28731 0.03007
C 4.90328 2.81936 -0.00095
C 6.17358 2.12723 0.01572
C 6.09412 0.7816 -0.04848
C 4.84755 0.0219 -0.00892
C 7.4399 32.77066 -0.01362
C 8.61382 31.91198 -0.0008
C 8.60182 30.55726 0.0288
C 7.34082 29.81088 0.00393
C 7.38443 28.42521 0.00895
C 8.58277 27.73464 0.00685
C 8.50395 26.29418 0.02888
C 11.01517 31.95423 0.03589
C 19.64369 29.7904 0.00364
C 19.6662 28.46456 -0.00831
C 20.84462 27.70878 -0.02957
C 30.72353 5.03238 0.07705
C 29.5164 4.19441 0.0103
C 29.50233 2.86895 0.02108
C 30.72114 2.16051 0.00716
C 30.81303 0.70404 0.00307
C 29.52448 0.08348 0.00346
C 31.95493 32.61078 0.01713
C 33.16794 31.9477 -0.01694
C 33.20093 30.53013 0.01428
C 30.70104 6.46847 0.01908
C 32.02497 29.77749 -0.02142
C 33.21164 27.60312 0.00026
C 33.27671 26.22222 0.00682
C 31.95797 25.60473 -0.01779
C 31.97059 24.16749 0.03794
C 33.2102 23.44175 0.01927
C 33.1916 22.00927 0.01574
C 31.95545 21.28797 -0.02383
C 31.97089 19.90696 -0.01429
C 33.26997 19.23564 -0.0136
C 31.98068 28.28753 0.0544
C 33.26936 17.75054 0.00594
C 29.47991 7.11591 0.01518
C 30.73058 9.26792 -0.03735
C 30.75963 30.4374 0.01324
C 29.47685 29.78756 0.0014
C 29.56715 28.34113 0.00924
C 30.70797 27.62687 0.02326
C 30.69276 26.24846 0.00261
C 29.46579 25.51716 0.03265
C 29.4474 24.15733 -0.02049
C 30.72593 23.44044 -0.01854
C 30.78794 21.9698 -0.01415
C 29.55299 8.53602 -0.00971
C 29.50817 21.32314 -0.03039
C 30.81091 19.1304 0.03531
C 30.74822 17.67219 -0.00669
C 29.52891 17.02296 0.0101
C 29.54605 15.58973 0.01705
C 30.71362 14.89148 -0.0405
C 30.73411 13.4844 -0.01303
C 29.49805 12.79419 -0.01461
C 29.47776 11.38105 -0.02155
C 30.75653 10.76072 -0.00944
C 29.52228 19.88656 0.01836
C 32.02928 17.071 -0.02474
C 31.95123 15.66005 0.00369
C 33.21 14.90105 0.00455
C 0.00212 21.30555 -0.02213
C 0.07763 19.92713 0.01951
C 1.26457 19.15928 -0.01678
C 1.22954 17.70886 0.01223
C 34.41949 17.06472 0.00648
C 0.01485 15.6313 0.02114
C 1.25988 14.97813 -0.02957
C 1.17278 13.40085 0.00343
C 34.39655 12.75798 -0.02656
C 1.20566 22.02334 0.02712
C 0.04245 11.33853 -0.02442
C 1.12956 9.19204 -0.00583
C 34.34052 8.52812 -0.02302
C 34.39857 7.06034 -0.02849
C 1.17615 6.36541 0.02931
C 1.21925 4.90523 0.00628
C 34.41855 4.32175 -0.0345
C 0.00826 2.88174 -0.00931
C 1.23153 2.12843 -0.00939
C 1.21707 0.7092 -0.00468
C 1.18031 10.59824 -0.00027
C 1.12159 23.43789 0.00723
C 34.42019 24.17488 0.03076
C 0.05603 25.51392 -0.05239
C 33.18935 13.47108 -0.00644
C 31.94825 12.82088 -0.01839
C 31.97844 11.43301 0.00137
C 33.1898 10.73066 0.00199
C 33.14968 9.26763 0.04381
C 31.91167 8.56587 0.02806
C 31.96588 7.14224 0.01504
C 33.19607 6.3892 -0.00069
C 33.21136 4.98408 0.04926
C 31.94015 4.25657 -0.03838
C 31.93441 2.82199 0.00349
C 33.18669 2.17066 -0.00323
C 33.19166 0.79398 -0.00841
C 31.97606 34.01281 0.0001
C 34.41972 32.64956 -0.02927
C 1.18408 31.9383 -0.01404
C 1.237 30.54927 0.01027
C 0.0506 29.81906 0.01831
C 34.3643 28.32603 -0.01037
C 1.17223 27.69486 -0.00439
C 1.26265 26.26572 -0.00598
C 30.69683 31.87458 0.04266
C 29.48334 32.67742 0.01177
C 27.09303 34.05511 -0.00416
C 28.33058 0.6821 0.01699
C 23.41412 22.06388 0.01852
C 22.0511 11.25412 -0.00381
C 23.38766 10.5942 0.03046
C 23.32312 9.18678 0.0296
C 22.10025 8.49371 0.03374
C 22.13763 7.08049 -0.02845
C 23.4367 6.42111 -0.03213
C 23.34465 4.99105 0.02239
C 22.05302 4.25078 0.01153
C 23.27566 23.39774 0.01126
C 22.17178 2.79222 0.02734
C 23.33547 0.71164 0.01515
C 22.15765 34.06756 -0.00225
C 24.59832 32.65555 0.00071
C 25.69665 31.95002 -0.01107
C 25.74319 30.4792 -0.01586
C 24.57034 29.78774 -0.01971
C 24.58493 28.37271 -0.02118
C 25.86651 27.6104 0.00733
C 25.86944 26.20613 -0.00178
C 23.3934 2.10337 -0.0055
C 22.10333 24.10645 -0.01185
C 22.13563 25.49362 -0.01662
C 23.29244 26.23975 -0.00478
C 20.88133 26.3006 -0.04422
C 19.73582 25.48925 0.00654
C 19.76715 24.02185 -0.00703
C 20.91187 23.36784 -0.04076
C 20.98716 10.65428 -0.00652
C 20.89581 9.24852 0.0058
C 19.69717 8.49785 -0.00865
C 19.71657 7.11065 0.00675
C 20.90357 6.37889 -0.00311
C 20.90949 4.98034 0.00742
C 19.72646 4.24839 -0.01594
C 19.74334 2.85424 0.0106
C 20.93737 2.13737 -0.01154
C 20.90351 0.73723 -0.01721
C 19.70735 34.02244 -0.02422
C 22.09708 32.67403 0.01277
C 23.38148 32.0016 0.00096
C 23.32878 30.58427 -0.01527
C 22.08457 29.84432 0.01087
C 22.11016 28.4289 0.00199
C 23.3227 27.70334 0.01511
C 24.58444 25.56759 0.00768
C 3.71935 31.95987 -0.04999
C 24.57285 24.1802 -0.0276
C 25.8229 21.97502 -0.04078
C 28.30499 26.30203 -0.0032
C 27.13424 25.54231 0.00622
C 27.09319 24.11118 -0.02815
C 28.21407 23.35726 -0.00942
C 28.30761 22.02126 0.00487
C 27.03896 21.28586 0.00826
C 27.23487 19.95095 -0.00294
C 28.29187 19.19427 0.00152
C 28.26469 17.73561 0.01257
C 28.31281 27.69636 -0.00037
C 26.94238 17.05022 0.02316
C 28.21872 14.92151 0.00194
C 28.21222 13.49584 -0.00621
C 27.01355 12.75091 0.02611
C 27.0655 11.3241 0.02198
C 28.20122 10.59785 0.01094
C 28.26546 9.20355 0.00235
C 27.04002 8.52945 0.01495
C 27.02433 7.03459 0.01259
C 28.25788 6.44455 0.01799
C 27.00151 15.62877 0.04185
C 27.05007 28.38262 -0.01654
C 27.02718 29.81134 -0.00218
C 28.28558 30.43861 -0.00802
C 24.55472 21.24578 0.02117
C 24.62808 19.8666 0.02737
C 25.80607 19.193 -0.00498
C 25.98501 17.89714 0.00135
C 25.85459 14.89321 0.03102
C 25.72115 13.44213 0.02555
C 24.55653 12.7031 0.01423
C 24.56954 11.40125 -0.00285
C 25.79454 10.66398 -0.009
C 25.81076 9.24244 -0.01199
C 24.66389 8.55318 -0.00229
C 24.61932 7.13818 -0.00938
C 25.82026 6.36977 -0.0264
C 25.77004 4.90892 -0.01154
C 24.60327 4.30635 0.00684
C 24.62492 2.85295 -0.01052
C 25.75551 2.10067 -0.01679
C 25.815 0.69681 0.00367
C 24.56156 34.07033 0.04306
C 27.00984 32.61355 0.00996
C 28.26763 31.9351 0.00195
C 25.83961 23.39537 0.03005
C 2.4387 32.72251 -0.03291
