398
Graphene
C 0.01349 34.07944 0.01295
C 9.84792 0.04 0.02894
C 12.31322 32.72294 -0.01789
C 13.47324 31.99589 0.00444
C 13.56478 30.61498 -0.00925
C 12.31321 29.88571 0.01877
C 12.24781 28.49231 0.01363
C 13.44978 27.65616 -0.02162
C 13.40249 26.25759 0.00415
C 12.36898 25.45912 -0.0014
C 11.1134 0.7026 -0.02971
C 12.34958 23.96835 0.02162
C 12.38186 20.00527 0.01241
C 13.63211 17.67406 -0.01454
C 12.37278 17.1671 0.01945
C 12.35284 15.58229 0.01416
C 13.52197 14.89209 0.03542
C 13.43668 13.43284 0.02299
C 12.29842 12.69178 0.00244
C 12.22342 11.29823 -0.01717
C 13.53426 10.61114 0.05265
C 12.1615 21.18349 0.0076
C 11.02795 2.14511 0.00165
C 9.82469 2.95091 0.02819
C 9.79838 4.37409 -0.00891
C 11.08438 26.30177 -0.00719
C 9.87717 25.61226 0.01364
C 9.86507 24.1509 -0.01062
C 11.13396 23.45283 -0.00033
C 11.11416 22.06286 0.03589
C 9.86421 21.34293 -0.02759
C 9.81437 19.8935 0.0402
C 11.13935 19.23187 0.00572
C 11.07888 17.84208 0.03592
C 9.81473 17.04385 0.00406
C 9.81601 15.64709 0.00943
C 11.10805 14.92938 0.02841
C 11.14127 13.47316 -0.01111
C 9.89442 12.71528 -0.01275
C 9.87409 11.35862 0.00985
C 11.05828 10.5643 -0.02245
C 10.96372 9.23831 -0.00428
C 9.80027 8.47907 0.03101
C 9.87451 7.10225 -0.01536
C 11.1073 6.42164 -0.02689
C 11.069 4.97099 -0.01046
C 13.55823 9.24332 -0.01952
C 12.31754 8.56533 -0.02813
C 12.34465 7.20504 0.00374
C 13.53219 6.45939 0.00052
C 16.00734 2.16383 0.00213
C 16.00451 0.68258 -0.00066
C 14.77359 0.00798 -0.00289
C 17.13666 32.68044 0.00028
C 18.41632 31.97852 -0.02213
C 18.51837 30.55346 0.03698
C 17.25104 29.83715 -0.00109
C 17.13107 28.41086 -0.00491
C 18.45826 14.84765 0.03338
C 18.4721 13.5158 -0.0258
C 17.21266 12.73668 -0.0331
C 17.18631 11.26468 -0.00316
C 18.38929 10.59345 0.02188
C 18.40384 9.23732 -0.01979
C 17.23786 8.51178 0.02691
C 17.1672 7.09941 -0.01581
C 18.38904 6.42297 0.01452
C 18.40779 5.02469 0.04892
C 17.19785 4.2692 -0.00111
C 17.18925 2.89256 -0.03557
C 18.4161 2.22499 0.03754
C 14.75435 2.80041 -0.05302
C 11.0629 27.76561 0.01641
C 14.78218 4.19817 -0.04147
C 15.93737 6.45895 0.03505
C 13.52193 4.92283 -0.03682
C 12.30722 4.22545 0.01965
C 12.27885 2.83722 0.02058
C 13.57408 2.10732 -0.01957
C 13.58538 0.70053 -0.0108
C 12.30963 0.0486 -0.00368
C 14.70621 32.69532 -0.02696
C 15.91847 31.95718 -0.00114
C 16.01087 30.50222 0.00228
C 14.75573 29.78316 0.00798
C 14.7316 28.26741 0.00422
C 15.97538 27.8796 0.0351
C 14.81381 15.48889 -0.03113
C 15.91708 14.77943 0.02098
C 16.00453 13.42544 0.01848
C 14.73529 12.67546 -0.00619
C 14.68468 11.27348 -0.02162
C 15.94852 10.58575 0.00889
C 16.05474 9.20518 -0.00481
C 14.7877 8.5493 0.00979
C 14.72571 7.10215 0.01443
C 15.94125 5.07531 -0.02815
C 9.78812 28.40888 0.02339
C 9.78938 29.86833 -0.00334
C 11.08416 30.57942 -0.01634
C 2.49682 4.30656 0.0174
C 2.4551 2.86394 0.03828
C 3.6663 2.16633 0.01226
C 3.68273 0.73892 -0.00279
C 2.41262 0.03754 0.01996
C 4.92698 32.68675 -0.03996
C 6.11231 32.03118 0.01465
C 6.12433 30.5459 -0.00074
C 4.91149 29.82846 -0.00518
C 4.77576 28.44854 0.0086
C 6.06168 27.72203 -0.00643
C 6.07144 26.31091 0.017
C 4.86633 25.63884 -0.03113
C 4.89253 24.17381 -0.02566
C 6.17694 23.42534 -0.00094
C 6.21218 22.06251 0.02322
C 4.95781 21.25583 -0.00725
C 4.99043 19.81153 -0.05697
C 6.10999 19.09175 0.01087
C 6.08581 17.70111 -0.01343
C 4.86562 17.04383 0.00988
C 3.6562 5.00053 0.0073
C 4.90351 15.58004 0.0276
C 3.66996 6.47207 0.00402
C 2.45598 8.54846 0.03267
C 3.67839 30.53969 -0.00449
C 2.50362 29.81118 -0.01979
C 2.3953 28.37563 0.02784
C 3.70608 27.72783 -0.01977
C 3.65012 26.24468 -0.00561
C 2.43334 25.56916 0.00208
C 2.42664 24.14272 0.01707
C 3.6299 23.369 0.02769
C 3.73711 22.05347 -0.03291
C 2.44193 21.31943 -0.04999
C 2.48033 19.90958 0.04505
C 3.70377 19.17492 0.03284
C 3.57132 17.74007 -0.04307
C 2.36298 16.99488 0.03189
C 2.42004 15.53305 0.00031
C 3.67439 14.86303 -0.003
C 3.71772 13.52015 0.01402
C 2.46537 12.81493 0.02379
C 2.41491 11.37726 0.00907
C 3.64776 10.70641 0.00643
C 3.63038 9.2967 -0.01509
C 2.44532 7.12212 0.02374
C 18.461 0.77717 0.01739
C 6.11903 14.93324 0.01305
C 4.90471 12.79438 0.03368
C 8.55727 19.14999 0.00393
C 8.53666 17.78444 0.00895
C 7.2907 16.97849 0.00685
C 7.30434 15.56922 0.02888
C 8.6046 14.85952 -0.00482
C 8.68002 13.4859 -0.01384
C 7.39785 12.80661 0.03693
C 7.35378 11.42151 0.01745
C 8.57162 10.66145 0.00488
C 8.58356 9.25871 -0.01004
C 7.34666 8.54776 -0.02896
C 7.36281 7.1183 -0.00131
C 8.61504 6.47536 -0.01118
C 8.57087 5.07449 -0.014
C 7.3813 4.3195 0.02147
C 7.41955 2.88311 0.00373
C 8.64587 2.20039 -0.00191
C 8.63118 0.78602 0.00438
C 7.44338 0.05085 0.01291
C 9.81101 32.6714 0.00093
C 11.04281 32.04471 0.00057
C 7.37494 19.86914 0.0288
C 6.11197 13.41284 -0.00077
C 7.4273 21.26816 -0.0008
C 8.61264 23.47217 -0.00892
C 4.81555 11.39045 -0.02929
C 6.09209 10.70252 -0.00966
C 6.11064 9.2979 -0.03337
C 4.94159 8.5648 0.01227
C 4.94759 7.09768 0.00873
C 6.17824 6.4358 -0.00049
C 6.14777 5.00999 0.00848
C 4.8661 4.32955 -0.01303
C 4.88191 2.90787 -0.01378
C 6.11157 2.2303 0.02635
C 6.11689 0.83753 0.0127
C 4.89392 0.07098 0.01396
C 7.37397 32.71621 0.01849
C 8.52327 32.00208 -0.01142
C 8.55407 30.57287 -0.00562
C 7.36756 29.85952 -0.00494
C 7.28563 28.43184 0.00054
C 8.53792 27.76244 0.03007
C 8.58097 26.2677 -0.00095
C 7.38695 25.60555 0.01572
C 7.37994 24.15613 -0.04848
C 8.65188 22.01883 -0.01362
C 17.25573 0.06494 0.00755
C 19.6781 32.69794 -0.0054
C 20.91081 31.96307 0.00667
C 29.52135 7.06256 0.01518
C 30.69806 6.35047 0.01908
C 30.67589 4.93997 0.07705
C 29.47456 4.29267 0.0103
C 29.58994 2.83248 0.02108
C 30.69525 2.1173 0.00716
C 30.72899 0.74113 0.00307
C 29.52119 34.07422 0.00346
C 31.9843 32.64438 0.01713
C 33.21552 31.96804 -0.01694
C 33.19674 30.5282 0.01428
C 31.99802 29.77737 -0.02142
C 31.93013 28.36752 0.0544
C 33.19785 27.68276 0.00026
C 33.18373 26.2811 0.00682
C 32.04574 25.52756 -0.01779
C 31.98017 24.07225 0.03794
C 33.24296 23.44235 0.01927
C 33.18002 22.01576 0.01574
C 31.93935 21.31842 -0.02383
C 31.94599 19.85734 -0.01429
C 29.5111 8.5207 -0.00971
C 33.1526 19.16843 -0.0136
C 30.74894 9.17393 -0.03735
C 29.5123 11.37554 -0.02155
C 27.05866 0.01709 -0.00416
C 29.61845 32.61163 0.01177
C 30.77026 31.93153 0.04266
C 30.76167 30.48384 0.01324
C 29.5745 29.76342 0.0014
C 29.5217 28.36228 0.00924
C 30.76046 27.62714 0.02326
C 30.8139 26.11663 0.00261
C 29.5066 25.50543 0.03265
C 29.46617 24.11507 -0.02049
C 30.7396 23.39154 -0.01854
C 30.75459 21.97112 -0.01415
C 29.46941 21.36173 -0.03039
C 29.45873 19.94048 0.01836
C 30.69787 19.24869 0.03531
C 30.65642 17.79625 -0.00669
C 29.49643 17.08885 0.0101
C 29.49059 15.66903 0.01705
C 30.75614 14.99433 -0.0405
C 30.761 13.51962 -0.01303
C 29.56161 12.78583 -0.01461
C 30.6894 10.66577 -0.00944
C 28.32843 0.6606 0.01699
C 33.12387 17.73983 0.00594
C 31.96763 15.6555 0.00369
C 1.22248 21.97616 0.02712
C 34.39123 21.24866 -0.02213
C 34.413 19.79141 0.01951
C 1.21729 19.13069 -0.01678
C 1.15761 17.72308 0.01223
C 34.34832 17.0152 0.00648
C 34.40526 15.60355 0.02114
C 1.20151 14.84771 -0.02957
C 1.20861 13.51812 0.00343
C 34.38518 12.81982 -0.02656
C 34.42978 11.40697 -0.02442
C 1.21678 10.66571 -0.00027
C 1.17845 9.25519 -0.00583
C 34.40961 8.51978 -0.02302
C 34.41798 7.07494 -0.02849
C 1.26933 6.39185 0.02931
C 1.26526 4.98144 0.00628
C 0.00486 4.31598 -0.0345
C 34.39156 2.8536 -0.00931
C 1.15489 2.20261 -0.00939
C 1.18456 0.77722 -0.00468
C 1.20282 23.39242 0.00723
C 31.94518 17.09373 -0.02474
C 0.00811 24.16407 0.03076
C 1.15885 26.2733 -0.00598
C 33.15615 14.89312 0.00455
C 33.14005 13.50669 -0.00644
C 31.96418 12.77555 -0.01839
C 31.8978 11.37763 0.00137
C 33.19485 10.69054 0.00199
C 33.15954 9.25822 0.04381
C 31.91607 8.5116 0.02806
C 31.93569 7.05489 0.01504
C 33.13198 6.35954 -0.00069
C 33.15503 4.96429 0.04926
C 31.94202 4.25409 -0.03838
C 31.97007 2.76939 0.00349
C 33.17812 2.09708 -0.00323
C 33.21084 0.72226 -0.00841
C 31.97455 34.04205 0.0001
C 0.04599 32.68073 -0.02927
C 1.29165 31.92088 -0.01404
C 1.2432 30.49276 0.01027
C 0.0503 29.8019 0.01831
C 34.42388 28.38113 -0.01037
C 1.2314 27.68075 -0.00439
C 34.43206 25.60254 -0.05239
C 3.72677 31.9806 0.00211
C 28.3721 2.12927 0.01799
C 27.06848 4.29572 0.01495
C 23.29347 14.8939 0.01511
C 23.27472 13.45196 -0.00478
C 22.06543 12.76496 -0.01662
C 22.16774 11.3141 -0.01185
C 23.31625 10.61396 0.01126
C 23.32573 9.19128 0.01852
C 22.0637 8.51138 -0.00381
C 22.08129 7.10422 0.03046
C 23.31123 6.35579 0.0296
C 23.36826 4.94793 0.03374
C 22.14355 4.19448 -0.02845
C 22.20043 2.77658 -0.03213
C 23.4323 2.02361 0.02239
C 23.40658 0.64552 0.01153
C 22.21598 34.07889 0.02734
C 24.5485 32.63841 -0.0055
C 25.77843 31.90952 0.01515
C 25.81236 30.5585 -0.00225
C 24.63928 29.7214 0.00071
C 24.59425 28.36153 -0.01107
C 25.78651 27.70083 -0.01586
C 22.06241 15.64689 0.00199
C 25.67373 26.2522 -0.01971
C 23.26315 27.71664 0.01087
C 22.18791 29.77138 0.00096
C 20.96355 30.55843 0.00143
C 19.74992 29.78486 -0.017
C 19.9337 28.4016 0.00364
C 20.95543 14.9182 -0.00831
C 20.88395 13.52121 -0.02957
C 19.72071 12.78272 -0.04422
C 19.64609 11.29957 0.00654
C 20.8694 10.70362 -0.00703
C 20.82812 9.26501 -0.04076
C 19.64681 8.52817 -0.00652
C 19.60013 7.10099 0.0058
C 20.8459 6.33821 -0.00865
C 20.93438 4.94313 0.00675
C 19.65751 4.30809 -0.00311
C 19.68252 2.8762 0.00742
C 20.91178 2.20244 -0.01594
C 20.97414 0.67295 0.0106
C 19.72319 0.03794 -0.01154
C 22.14225 32.61119 -0.01721
C 23.39176 31.86616 -0.02422
C 23.38653 30.40107 0.01277
C 22.14875 28.27112 -0.01527
C 27.14195 2.87 0.01259
C 24.46636 25.71087 -0.02118
C 25.89713 22.14175 -0.00178
C 28.23901 26.19967 -0.00802
C 26.99745 25.52447 -0.00218
C 26.89375 24.16933 -0.01654
C 28.13417 23.45779 -0.00037
C 28.18638 21.99671 -0.0032
C 26.98619 21.26652 0.00622
C 27.07156 19.90857 -0.02815
C 28.25924 19.20938 -0.00942
C 28.22492 17.7886 0.00487
C 26.99361 17.09144 0.00826
C 27.02077 15.61856 -0.00294
C 28.24905 14.92953 0.00152
C 28.28778 13.4636 0.01257
C 27.05864 12.71709 0.02316
C 27.04407 11.30604 0.04185
C 28.27909 10.57365 0.00194
C 28.33716 9.19886 -0.00621
C 27.07026 8.58043 0.02611
C 27.13136 7.14134 0.02198
C 28.32277 6.42278 0.01094
C 28.28435 5.05342 0.00235
C 28.29126 27.67932 0.00195
C 25.77379 23.32523 0.00733
C 27.03752 28.41034 0.00996
C 28.33082 30.50994 0.00367
C 25.7987 19.145 0.00768
C 25.64442 17.7985 -0.0276
C 24.57393 16.95079 0.03005
C 24.50958 15.652 -0.04078
C 25.77522 14.8925 0.02117
C 25.76471 13.48579 0.02737
C 24.51203 12.74769 -0.00498
C 24.59891 11.32872 0.00135
C 25.7992 10.60377 0.03102
C 25.82264 9.20551 0.02555
C 24.57122 8.45261 0.01423
C 24.58285 7.08749 -0.00285
C 25.93894 6.46344 -0.009
C 25.79025 5.07319 -0.01199
C 24.66312 4.26754 -0.00229
C 24.65382 2.85172 -0.00938
C 25.98063 2.22295 -0.0264
C 25.7971 0.74229 -0.01154
C 24.59759 34.07017 0.00684
C 27.05535 32.69667 -0.01052
C 28.25526 31.93002 -0.01679
C 27.09483 29.79864 0.04306
C 2.49962 32.68008 0.0064
