315
Graphene
C 34.3453 34.02939 0.01295
C 17.19824 29.88707 0.03338
C 17.2399 28.48639 -0.0258
C 18.37307 27.67836 -0.0331
C 18.43226 26.32302 -0.00316
C 17.19367 25.61055 0.02188
C 17.13391 24.14411 -0.01979
C 18.34141 23.42913 0.02691
C 18.2959 21.93197 -0.01581
C 17.08071 21.07387 0.01452
C 17.44912 19.61783 0.04892
C 18.54408 5.03532 -0.00111
C 17.31228 4.44352 -0.03557
C 17.22861 2.92456 0.03754
C 18.46019 2.20467 0.01739
C 18.50346 0.65203 0.00755
C 18.47888 30.56192 -0.00491
C 18.50319 31.94766 -0.00109
C 17.23472 32.63462 0.03698
C 14.73436 34.0641 -0.02213
C 13.58118 0.72629 0.02098
C 12.37976 0.00011 0.01848
C 14.61223 32.61691 -0.00619
C 15.8336 31.83208 -0.02162
C 16.00458 30.44105 0.00889
C 15.95566 27.84381 -0.00481
C 15.94092 26.42563 0.00979
C 17.19982 34.03079 -0.0054
C 14.94366 25.54153 0.01443
C 15.92991 23.29992 -0.02815
C 16.05402 21.94857 -0.04147
C 16.06555 4.82908 -0.05302
C 14.78425 4.566 0.00213
C 14.78426 2.91693 -0.00066
C 15.99641 2.11383 -0.00289
C 15.96472 0.73125 0.00028
C 14.87592 24.22253 0.03505
C 19.67662 32.62543 0.00667
C 20.87141 31.93333 0.00143
C 20.88966 30.52732 -0.017
C 23.25038 30.58616 -0.01527
C 22.09706 29.77126 0.01087
C 22.14858 28.33654 0.00199
C 23.39725 27.74194 0.01511
C 23.41196 26.29401 -0.00478
C 22.17589 25.58469 -0.01662
C 22.06737 24.19115 -0.01185
C 23.35405 31.94713 0.00096
C 23.3665 23.4843 0.01126
C 22.08149 21.36815 -0.00381
C 22.03668 19.91436 0.03046
C 23.25057 19.14497 0.0296
C 23.23432 17.73935 0.03374
C 21.97542 17.13423 -0.02845
C 23.41975 14.79035 -0.03213
C 23.49857 10.5362 0.02239
C 23.26866 22.04396 0.01852
C 13.5604 2.18888 -0.03113
C 22.14061 32.71757 0.01277
C 20.88795 0.7269 -0.01721
C 19.67901 29.79401 0.00364
C 19.66282 28.29696 -0.00831
C 20.88186 27.59779 -0.02957
C 20.94076 26.21376 -0.04422
C 19.68495 25.56046 0.00654
C 19.56726 24.03876 -0.00703
C 20.8782 23.42286 -0.04076
C 19.73902 34.01452 -0.02422
C 20.87046 22.02265 -0.00652
C 19.5608 19.92572 -0.00865
C 20.83473 19.23535 0.00675
C 21.16094 6.32341 -0.00311
C 20.95026 4.98631 0.00742
C 19.7183 4.29223 -0.01594
C 19.74057 2.87953 0.0106
C 20.90562 2.14352 -0.01154
C 19.55422 21.28548 0.0058
C 23.47952 9.14906 0.01153
C 12.29033 2.82652 0.0351
C 13.47488 5.01969 0.00798
C 3.70195 9.25653 -0.00033
C 2.47899 8.63281 0.03589
C 2.50237 7.14756 -0.02759
C 3.69889 6.38734 0.0402
C 3.65123 4.95754 0.00572
C 2.47005 4.25201 0.03592
C 2.38424 2.77819 0.00406
C 3.60597 2.00354 0.00943
C 3.62848 0.59942 0.02841
C 2.3504 34.01022 -0.01111
C 4.91426 32.55084 -0.01275
C 6.13169 31.94192 0.00985
C 4.74741 29.62915 -0.02245
C 4.95263 28.33742 -0.00428
C 6.18671 26.38463 0.03101
C 3.70623 10.71811 -0.01062
C 2.41106 11.41985 0.01364
C 2.43929 12.82613 -0.00719
C 3.66561 13.52232 0.01641
C 3.6666 30.49522 0.00488
C 2.41943 29.84981 -0.01004
C 2.49853 28.44211 -0.02896
C 3.76117 27.70842 -0.00131
C 3.75512 26.30218 -0.01118
C 2.47351 25.58517 -0.014
C 2.58925 24.09967 0.02147
C 4.99588 25.68662 -0.01536
C 3.91306 23.35062 0.00373
C 2.57655 21.33996 0.00438
C 2.43429 19.96146 0.01291
C 3.54347 19.14309 0.00093
C 3.68411 17.76792 0.00057
C 2.53192 17.11021 -0.01634
C 2.48439 15.68051 -0.00334
C 3.66536 14.91413 0.02339
C 3.80144 22.00617 -0.00191
C 5.04638 24.19531 -0.02689
C 4.85513 15.69571 -0.01046
C 6.18499 13.41857 -0.00891
C 8.59122 6.46679 0.00244
C 8.57353 5.03729 -0.01717
C 7.31359 4.24647 0.05265
C 7.34623 2.83215 -0.01952
C 8.55354 2.19203 -0.02813
C 8.58529 0.73408 0.00374
C 7.35062 34.00286 0.00052
C 7.39519 7.17135 0.02299
C 9.99107 8.6047 -0.03682
C 10.96308 6.24694 0.02058
C 10.98432 4.87726 -0.01957
C 9.77381 4.24123 -0.0108
C 9.79386 2.8278 -0.00368
C 11.02567 2.0903 -0.02696
C 11.04998 0.55212 -0.00114
C 9.75916 34.05227 0.00228
C 9.83924 7.1789 0.01965
C 12.24476 4.22634 0.00422
C 7.47119 8.55156 0.03542
C 8.40887 10.46819 0.01945
C 4.87254 12.87425 0.02819
C 4.9084 11.43526 0.00165
C 6.16606 10.74699 -0.02971
C 6.20621 9.23095 0.02894
C 4.93359 8.55596 -0.01789
C 4.87499 7.13984 0.00444
C 6.02483 6.43323 -0.00925
C 8.72826 9.26415 0.01416
C 5.99441 4.94077 0.01877
C 4.94343 2.79286 -0.02162
C 6.16457 2.04896 0.00415
C 6.16816 0.55224 -0.0014
C 4.92002 33.94729 0.02162
C 7.21411 32.66987 0.0076
C 7.29739 12.86571 0.01241
C 7.50168 11.41908 -0.01454
C 4.8404 4.24403 0.01363
C 3.61788 31.83497 0.01745
C 22.22034 7.08077 0.02734
C 23.37567 5.05148 0.01515
C 31.91175 24.17848 0.03794
C 33.20974 23.46437 0.01927
C 33.21729 22.01442 0.01574
C 32.01764 21.30651 -0.02383
C 31.97301 19.91453 -0.01429
C 33.21138 19.24393 -0.0136
C 33.23642 17.83776 0.00594
C 31.98867 17.1375 -0.02474
C 31.93504 15.65227 0.00369
C 33.20167 15.01905 0.00455
C 33.17633 13.61764 -0.00644
C 31.91507 12.83366 -0.01839
C 31.92502 11.36507 0.00137
C 33.14783 10.68269 0.00199
C 33.20837 9.27271 0.04381
C 31.89617 25.58627 -0.01779
C 33.19033 26.21027 0.00682
C 33.14982 27.63 0.00026
C 31.84757 28.33488 0.0544
C 29.402 11.30794 -0.02155
C 30.69901 10.61524 -0.00944
C 30.7688 9.28452 -0.03735
C 29.51407 8.52328 -0.00971
C 29.54598 7.09822 0.01518
C 30.78626 6.42314 0.01908
C 30.71875 4.99875 0.07705
C 32.04268 8.52976 0.02806
C 29.54086 4.24856 0.0103
C 30.68159 2.15805 0.00716
C 30.69339 0.7441 0.00307
C 29.49028 0.04035 0.00346
C 31.80631 32.56035 0.01713
C 33.10581 31.92647 -0.01694
C 33.17824 30.53424 0.01428
C 31.90283 29.79157 -0.02142
C 29.49153 2.88406 0.02108
C 31.99764 7.1233 0.01504
C 33.20659 6.39515 -0.00069
C 33.17822 4.96923 0.04926
C 0.09863 17.12513 0.00648
C 34.42303 15.73593 0.02114
C 1.18297 14.95262 -0.02957
C 1.18695 13.56854 0.00343
C 34.35064 12.86558 -0.02656
C 34.35961 11.45371 -0.02442
C 1.20015 10.71765 -0.00027
C 1.30274 17.81171 0.01223
C 1.25606 9.25277 -0.00583
C 34.391 7.14288 -0.02849
C 1.20088 6.42515 0.02931
C 1.24644 4.9608 0.00628
C 34.39064 4.24264 -0.0345
C 34.37771 2.83605 -0.00931
C 1.16869 2.12494 -0.00939
C 1.18412 0.66953 -0.00468
C 34.42671 8.5423 -0.02302
C 29.42709 12.79065 -0.01461
C 1.26497 19.2485 -0.01678
C 0.08058 21.34011 -0.02213
C 31.92069 4.23805 -0.03838
C 31.91964 2.89674 0.00349
C 33.1341 2.10436 -0.00323
C 33.09014 0.68269 -0.00841
C 31.87897 34.05611 0.0001
C 34.32306 32.62588 -0.02927
C 1.08701 31.90664 -0.01404
C 0.0621 19.93981 0.01951
C 1.20403 30.4571 0.01027
C 34.34156 28.42691 -0.01037
C 1.20271 27.67344 -0.00439
C 1.20395 26.26516 -0.00598
C 34.4097 25.56054 -0.05239
C 0.02898 24.18175 0.03076
C 1.33242 23.47719 0.00723
C 1.27762 22.06339 0.02712
C 34.38008 29.79084 0.01831
C 23.40671 6.48385 -0.0055
C 30.68284 13.4754 -0.01303
C 29.52234 15.62296 0.01705
C 25.84485 14.93891 -0.009
C 25.81849 13.48629 -0.01199
C 24.39677 12.98221 -0.00229
C 24.33896 11.59193 -0.00938
C 25.67772 10.67107 -0.0264
C 25.8424 9.21819 -0.01154
C 24.62248 8.45071 0.00684
C 24.62246 7.07376 -0.01052
C 25.88124 6.36837 -0.01679
C 25.83783 4.96308 0.00367
C 24.60867 4.28448 0.04306
C 24.61567 2.85796 0.00996
C 25.81621 2.11964 0.00195
C 25.75955 0.66354 -0.00802
C 24.50613 0.00894 -0.00218
C 24.5718 15.60535 -0.00285
C 24.5074 17.04824 0.01423
C 25.70294 17.712 0.02555
C 25.72871 19.18744 0.03102
C 22.17829 4.28147 -0.00225
C 22.17206 2.90174 0.00071
C 23.41296 2.14221 -0.01107
C 23.35586 0.75429 -0.01586
C 22.13026 0.1226 -0.01971
C 24.62139 32.64665 -0.02118
C 24.41098 29.83233 0.00733
C 28.2587 26.31511 -0.01654
C 24.75698 28.46477 -0.00178
C 25.82992 26.30439 -0.0276
C 24.60609 25.61377 0.03005
C 24.60629 24.1617 -0.04078
C 25.79903 23.4375 0.02117
C 25.79632 22.04612 0.02737
C 24.5918 21.34897 -0.00498
C 24.50821 19.92795 0.00135
C 25.85487 27.66172 0.00768
C 27.04753 25.54517 -0.00037
C 27.04649 24.14902 -0.0032
C 28.25327 23.41011 0.00622
C 28.18928 0.74243 0.01177
C 27.02408 34.07411 0.04266
C 29.47341 32.76245 0.01324
C 30.37271 31.81265 0.0014
C 30.64218 30.46372 0.00924
C 30.65177 27.69118 0.02326
C 30.66427 26.27531 0.00261
C 28.2061 2.13536 -0.00416
C 29.49213 25.62768 0.03265
C 30.67958 23.41272 -0.01854
C 30.67906 21.97295 -0.01415
C 29.50351 21.24712 -0.03039
C 29.44906 19.80583 0.01836
C 30.67352 19.21562 0.03531
C 30.72057 17.81438 -0.00669
C 29.462 17.02868 0.0101
C 29.45603 24.13673 -0.02049
C 30.74733 14.96263 -0.0405
C 26.9681 2.81272 0.01699
C 28.31645 4.94451 0.01259
C 28.26118 21.95266 -0.02815
C 26.97018 21.32242 -0.00942
C 26.94683 19.86424 0.00487
C 28.23017 19.11364 0.00826
C 28.23443 17.74041 -0.00294
C 26.98191 17.04208 0.00152
C 27.11382 15.63083 0.01257
C 27.05416 4.19204 0.01799
C 28.30327 14.86596 0.02316
C 27.03875 12.78978 0.00194
C 26.92343 11.36786 -0.00621
C 28.14435 10.60498 0.02611
C 28.23675 9.18062 0.02198
C 27.05468 8.49386 0.01094
C 27.03524 7.09264 0.00235
C 28.26298 6.3305 0.01495
C 28.23554 13.46148 0.04185
C 2.31917 32.61681 0.03693
