434
Graphene
C 0.03985 0.00172 0.01295
C 13.56759 22.01764 -0.00719
C 12.30181 21.37884 0.01364
C 12.29204 19.92078 -0.01062
C 13.55298 19.17042 -0.00033
C 13.57102 17.78495 0.03589
C 12.32524 17.06932 -0.02759
C 12.2506 15.59895 0.0402
C 13.47336 14.86494 0.00572
C 13.51057 13.34562 0.03592
C 12.28222 12.73867 0.00406
C 12.35347 11.38489 0.00943
C 13.57547 10.59365 0.02841
C 13.60032 9.21107 -0.01111
C 12.35082 8.50434 -0.01275
C 12.2809 7.18457 0.00985
C 13.50584 6.34273 -0.02245
C 13.49628 4.88217 -0.00428
C 12.20601 4.17292 0.03101
C 12.31271 2.75771 -0.01536
C 13.49583 2.11605 -0.02689
C 13.50088 0.7197 -0.01046
C 12.30893 34.05903 -0.00891
C 14.74034 32.73223 0.02819
C 13.46983 23.48571 0.01641
C 16.00142 31.99295 0.00165
C 12.30886 24.20784 0.02339
C 13.56417 26.28704 -0.01634
C 9.83833 17.03711 -0.0008
C 9.81981 15.65455 0.0288
C 11.06085 14.90681 0.00393
C 11.09187 13.5368 0.00895
C 9.84456 12.88592 0.00685
C 9.81921 11.42619 0.02888
C 11.05404 10.70783 -0.00482
C 11.10732 9.18593 -0.01384
C 9.84704 8.50455 0.03693
C 9.88557 7.13494 0.01745
C 11.15776 6.37984 0.00488
C 11.04754 4.9202 -0.01004
C 9.78002 4.29614 -0.02896
C 9.85161 2.81237 -0.00131
C 10.9995 2.09629 -0.01118
C 11.12935 0.67485 -0.014
C 9.92475 0.02795 0.02147
C 12.30871 32.679 0.00373
C 13.55791 31.98829 -0.00191
C 13.4639 30.65538 0.00438
C 12.29553 29.85792 0.01291
C 12.27595 28.33306 0.00093
C 13.53953 27.67578 0.00057
C 12.31442 25.63718 -0.00334
C 11.09504 17.71479 -0.01362
C 15.96566 30.56133 -0.02971
C 14.73154 28.42934 -0.01789
C 17.2724 32.60512 -0.00368
C 18.46956 32.03462 -0.02696
C 17.20218 29.72857 -0.00114
C 17.23103 28.45384 0.00228
C 18.43287 26.21951 0.00798
C 17.2903 25.52234 0.00422
C 17.13629 24.13107 0.0351
C 18.42444 23.39339 -0.03113
C 18.46931 21.92691 0.02098
C 17.236 21.27726 0.01848
C 17.16378 19.88537 -0.00619
C 18.39293 19.17505 -0.02162
C 18.38064 17.76343 0.00889
C 17.15108 17.08983 -0.00481
C 17.21731 15.69868 0.00979
C 18.42338 14.91835 0.01443
C 18.48099 13.46276 0.03505
C 17.22124 12.81134 -0.02815
C 17.21017 11.39129 -0.04147
C 18.44803 10.67894 -0.05302
C 18.48572 9.27376 0.00213
C 17.239 8.52867 -0.00066
C 17.236 7.03459 -0.00289
C 14.72862 0.01382 -0.0108
C 14.73714 29.85916 0.02894
C 16.01742 0.73594 -0.01957
C 14.71464 2.84275 0.01965
C 15.9509 27.72607 0.00444
C 15.9126 26.30453 -0.00925
C 14.74769 25.55107 0.01877
C 14.67396 24.14644 0.01363
C 15.964 23.44642 -0.02162
C 16.05337 21.9706 0.00415
C 14.75702 21.26028 -0.0014
C 14.7459 19.79714 0.02162
C 15.94122 19.14706 0.0076
C 15.93898 17.72192 0.01241
C 14.69721 17.01687 -0.01454
C 14.75724 15.57637 0.01945
C 16.03042 14.9335 0.01416
C 15.9707 13.56979 0.03542
C 14.75863 12.73631 0.02299
C 14.74493 11.35635 0.00244
C 15.97928 10.66605 -0.01717
C 15.98793 9.27465 0.05265
C 14.7857 8.46676 -0.01952
C 14.72982 7.08274 -0.02813
C 15.93968 6.4043 0.00374
C 15.9772 4.9804 0.00052
C 14.71365 4.2409 -0.03682
C 15.96359 2.20442 0.02058
C 11.09315 19.14266 -0.00892
C 9.85592 19.90948 -0.04848
C 9.85035 21.31581 0.01572
C 3.71377 2.15084 -0.0059
C 3.61631 0.80118 -0.01386
C 2.51038 0.02483 -0.02805
C 4.89319 32.63583 0.00081
C 6.11171 31.95412 0.00245
C 6.09093 30.54638 0.02728
C 4.96789 29.76378 -0.00039
C 4.97609 28.39189 0.0064
C 6.14933 27.67078 0.00211
C 6.24735 26.22176 -0.00449
C 4.94987 25.55567 -0.01979
C 4.84326 24.13434 0.02784
C 6.12327 23.53547 -0.01977
C 6.16111 22.05092 -0.00561
C 4.95133 21.29841 0.00208
C 4.93103 19.90164 0.01707
C 6.20966 19.13947 0.02769
C 6.12602 17.73139 -0.03291
C 4.95476 16.97061 -0.04999
C 4.79176 15.54432 0.04505
C 6.09981 14.9969 0.03284
C 6.06943 13.55337 -0.04307
C 4.87827 12.76893 0.03189
C 2.49447 2.9157 0.00558
C 4.91473 11.26733 0.00031
C 2.52587 4.26924 -0.02375
C 3.69141 6.44338 0.00088
C 3.67858 30.55401 -0.00198
C 2.45068 29.79475 -0.00012
C 2.41493 28.34074 -0.04306
C 3.67841 27.67007 -0.03672
C 3.75422 26.24546 0.01913
C 2.47449 25.56521 0.00267
C 2.44776 24.16573 0.00787
C 3.65443 23.4957 0.02426
C 3.65647 22.02619 0.01218
C 2.52141 21.306 -0.01471
C 2.54405 19.8711 -0.02827
C 3.72481 19.18775 0.01078
C 3.67586 17.61675 -0.00112
C 2.41842 16.98486 0.03345
C 2.3931 15.60319 0.00748
C 3.59404 14.82949 0.00662
C 3.66769 13.43368 -0.0154
C 2.41926 12.79645 -0.01299
C 2.4266 11.36908 -0.00407
C 3.71214 10.58217 0.01138
C 3.64857 9.23874 0.03278
C 2.44912 8.56794 -0.00177
C 2.46871 7.12018 0.04421
C 3.69007 4.99441 0.00828
C 6.16342 10.66141 -0.003
C 6.19613 9.28348 0.01402
C 4.92515 8.53961 0.02379
C 7.34349 11.42681 0.0276
C 8.62892 10.67556 0.01305
C 8.63228 9.29293 -0.00077
C 7.38052 8.5841 0.03368
C 7.3701 7.20178 -0.02929
C 8.57801 6.4847 -0.00966
C 8.5656 5.06318 -0.03337
C 7.37636 4.29484 0.01227
C 7.33309 2.85452 0.00873
C 8.62271 2.17685 -0.00049
C 8.66095 0.71648 0.00848
C 7.39336 34.04954 -0.01303
C 9.82777 32.70536 -0.01378
C 11.02811 32.04004 0.02635
C 11.05409 30.55897 0.0127
C 9.75377 29.86209 0.01396
C 9.79359 28.4374 0.01849
C 11.04805 27.65342 -0.01142
C 11.08454 26.25456 -0.00562
C 9.7659 25.6354 -0.00494
C 9.825 24.1689 0.00054
C 11.13231 23.5137 0.03007
C 11.0538 22.00278 -0.00095
C 7.3246 12.82848 0.00988
C 8.54575 13.52064 -0.01343
C 8.60031 14.91928 0.01087
C 7.34722 15.65288 -0.05697
C 4.8386 7.12306 0.00907
C 6.08326 6.40376 0.00643
C 6.13095 4.93375 -0.01509
C 4.89292 4.31115 0.03267
C 4.8801 2.84304 0.02374
C 6.14149 2.17728 0.00402
C 6.16835 0.68257 0.0073
C 4.91181 34.07903 0.0174
C 7.38733 32.67561 0.03828
C 8.63301 32.01244 0.01226
C 8.63585 30.58209 -0.00279
C 18.44931 6.36075 0.00028
C 7.34343 29.86624 0.01996
C 8.58763 27.72912 0.01465
C 8.56314 26.35378 -0.00074
C 7.45393 25.5309 -0.00518
C 7.38931 24.09152 0.0086
C 8.67805 23.40875 -0.00643
C 8.60253 22.02599 0.017
C 7.37139 21.35487 -0.03113
C 7.4087 19.90765 -0.02566
C 8.59532 19.1457 -0.00094
C 8.60172 17.7494 0.02322
C 7.34761 17.07043 -0.00725
C 7.42614 28.46243 -0.03996
C 18.43657 4.89942 -0.02213
C 17.2447 4.19513 0.03698
C 17.22323 2.86325 -0.00109
C 30.71132 14.94259 -0.0405
C 30.70303 13.47181 -0.01303
C 29.48805 12.76555 -0.01461
C 29.54552 11.31386 -0.02155
C 30.69117 10.59821 -0.00944
C 30.69773 9.17321 -0.03735
C 29.48983 8.50896 -0.00971
C 29.47657 7.13506 0.01518
C 30.73057 6.39564 0.01908
C 30.77207 4.90803 0.07705
C 29.56641 4.27643 0.0103
C 29.52047 2.84086 0.02108
C 30.7945 2.08474 0.00716
C 30.77987 0.60502 0.00307
C 29.53116 34.07499 0.00346
C 32.02111 32.60748 0.01713
C 33.16606 31.90819 -0.01694
C 33.21049 30.49162 0.01428
C 31.9632 29.83949 -0.02142
C 31.96631 28.42868 0.0544
C 33.24655 27.77241 0.00026
C 33.20116 26.32137 0.00682
C 32.00445 25.62604 -0.01779
C 29.47222 15.63865 0.01705
C 31.97428 24.16046 0.03794
C 29.50489 17.02122 0.0101
C 30.80033 19.21739 0.03531
C 28.3071 9.20387 -0.00621
C 27.02019 8.48922 0.02611
C 27.04665 7.12444 0.02198
C 28.27625 6.42384 0.01094
C 28.30732 5.0222 0.00235
C 27.00196 4.18735 0.01495
C 27.00523 2.77466 0.01259
C 28.27845 2.1289 0.01799
C 28.34669 0.70432 0.01699
C 26.99693 34.0231 -0.00416
C 29.49344 32.6726 0.01177
C 30.69221 31.90884 0.04266
C 30.7117 30.4956 0.01324
C 29.49168 29.78722 0.0014
C 29.52743 28.44308 0.00924
C 30.74228 27.73876 0.02326
C 30.74644 26.26409 0.00261
C 29.50296 25.53342 0.03265
C 29.47867 24.13724 -0.02049
C 30.69057 23.45868 -0.01854
C 30.77109 22.04758 -0.01415
C 29.55275 21.24621 -0.03039
C 29.53307 19.86397 0.01836
C 30.69764 17.79706 -0.00669
C 33.18904 23.47509 0.01927
C 33.20193 22.0861 0.01574
C 31.94471 21.35753 -0.02383
C 34.40721 24.1608 0.03076
C 1.22138 23.49302 0.00723
C 1.26818 22.02697 0.02712
C 0.01992 21.31167 -0.02213
C 34.39255 19.83914 0.01951
C 1.20111 19.154 -0.01678
C 1.21051 17.769 0.01223
C 34.38149 17.12796 0.00648
C 0.02021 15.56678 0.02114
C 1.21373 14.86484 -0.02957
C 1.16162 13.46203 0.00343
C 34.42696 12.80186 -0.02656
C 0.02191 11.347 -0.02442
C 1.16276 10.57975 -0.00027
C 1.17508 9.22412 -0.00583
C 0.00424 8.50823 -0.02302
C 34.42001 7.04947 -0.02849
C 1.20499 6.40076 0.02931
C 1.25523 4.93426 0.00628
C 0.01723 4.25717 -0.0345
C 0.03193 2.8314 -0.00931
C 1.24098 2.10111 -0.00939
C 1.25332 0.66067 -0.00468
C 34.39005 25.53947 -0.05239
C 1.18628 26.23399 -0.00598
C 1.23829 27.67268 -0.00439
C 0.06476 28.3633 -0.01037
C 31.95388 19.96016 -0.01429
C 33.09167 19.16894 -0.0136
C 33.11709 17.73286 0.00594
C 31.9403 16.95196 -0.02474
C 31.95507 15.61732 0.00369
C 33.24983 14.86319 0.00455
C 33.20409 13.45841 -0.00644
C 31.88253 12.74364 -0.01839
C 31.89331 11.29216 0.00137
C 33.19763 10.64499 0.00199
C 33.22446 9.20056 0.04381
C 28.35258 10.60549 0.00194
C 31.99552 8.50256 0.02806
C 33.22652 6.3626 -0.00069
C 33.20058 4.9582 0.04926
C 31.99781 4.19903 -0.03838
C 31.94867 2.77006 0.00349
C 33.19626 2.14879 -0.00323
C 33.27471 0.67124 -0.00841
C 32.07192 33.99116 0.0001
C 34.39895 32.62102 -0.02927
C 1.22204 31.93916 -0.01404
C 1.2377 30.54981 0.01027
C 0.02814 29.79743 0.01831
C 32.03574 7.09186 0.01504
C 3.65423 31.95369 0.00535
C 27.06689 11.3647 0.04185
C 28.29369 13.46622 0.01257
C 20.964 0.70726 -0.00652
C 19.7241 0.07291 0.0058
C 22.12945 32.59093 -0.00865
C 23.44405 31.84534 0.00675
C 22.15812 24.13325 -0.00311
C 23.36908 23.46541 0.00742
C 23.31115 22.08433 -0.01594
C 22.08683 21.33663 0.0106
C 22.1175 19.88948 -0.01154
C 23.31195 19.19507 -0.01721
C 23.36758 17.75666 -0.02422
C 22.16924 17.06305 0.01277
C 22.1613 15.71068 0.00096
C 23.32706 14.86986 -0.01527
C 23.38258 13.55476 0.01087
C 22.18403 12.78179 0.00199
C 22.17536 11.33895 0.01511
C 23.29589 10.6054 -0.00478
C 23.38814 9.23599 -0.01662
C 22.1312 8.50843 -0.01185
C 22.26672 7.16833 0.01126
C 23.39744 6.38509 0.01852
C 23.30115 4.95208 -0.00381
C 20.89863 2.11201 -0.04076
C 22.01892 4.25993 0.03046
C 19.59871 2.85268 -0.00703
C 20.84729 4.98867 -0.04422
C 18.39787 2.09676 -0.00491
C 18.48234 0.63966 0.03338
C 17.12336 34.02174 -0.0258
C 19.67432 32.65111 -0.0331
C 20.87238 32.018 -0.00316
C 19.56299 24.07978 0.02188
C 20.84937 23.54734 -0.01979
C 20.89696 22.00415 0.02691
C 19.69212 21.2799 -0.01581
C 19.66401 19.86404 0.01452
C 20.91564 19.09731 0.04892
C 20.92509 17.69829 -0.00111
C 19.6597 17.03671 -0.03557
C 19.67729 15.60981 0.03754
C 20.97306 14.98302 0.01739
C 20.94209 13.49397 0.00755
C 19.6326 12.71292 -0.0054
C 19.67723 11.31749 0.00667
C 20.89533 10.69076 0.00143
C 20.86463 9.26766 -0.017
C 19.6725 8.5113 0.00364
C 19.75972 7.14925 -0.00831
C 20.99344 6.42453 -0.02957
C 19.65269 4.2337 0.00654
C 22.09224 2.78892 0.0296
C 23.36493 2.16162 0.03374
C 23.35445 0.70755 -0.02845
C 24.55859 4.22476 -0.00229
C 24.53602 2.81403 -0.00938
C 25.81903 2.10076 -0.0264
C 25.78281 0.68948 -0.01154
C 24.60186 0.03178 0.00684
C 27.0725 32.63192 -0.01052
C 28.25768 31.9976 -0.01679
C 28.34352 30.56225 0.00367
C 26.98976 29.82995 0.04306
C 27.06517 28.398 0.00996
C 28.29946 27.73197 0.00195
C 28.30422 26.32792 -0.00802
C 27.06081 25.52812 -0.00218
C 27.06019 24.10292 -0.01654
C 28.33078 23.41824 -0.00037
C 28.26393 22.0329 -0.0032
C 27.07365 21.32666 0.00622
C 27.07147 19.92995 -0.02815
C 28.28531 19.11866 -0.00942
C 28.26389 17.6658 0.00487
C 26.99357 16.99587 0.00826
C 27.08327 15.59196 -0.00294
C 28.2737 14.88977 0.00152
C 25.73834 4.98948 -0.01199
C 25.81285 6.37794 -0.009
C 24.54783 7.11145 -0.00285
C 24.61652 8.5122 0.01423
C 22.10804 34.00561 -0.03213
C 24.54722 32.62884 0.02239
C 25.80552 31.98597 0.01153
C 25.8031 30.60044 0.02734
C 24.58234 29.6604 -0.0055
C 24.62293 28.46477 0.01515
C 25.80654 27.76505 -0.00225
C 25.78363 26.28391 0.00071
C 24.59306 25.60522 -0.01107
C 24.61411 24.14622 -0.01586
C 25.84751 23.38281 -0.01971
C 27.08004 12.76942 0.02316
C 25.81082 21.99464 -0.02118
C 24.57404 19.85474 -0.00178
C 25.87945 19.19966 0.00768
C 25.80162 17.74146 -0.0276
C 24.5821 17.08353 0.03005
C 24.54153 15.63378 -0.04078
C 25.7745 14.95686 0.02117
C 25.79512 13.46819 0.02737
C 24.52917 12.76147 -0.00498
C 24.51241 11.35953 0.00135
C 25.794 10.68665 0.03102
C 25.86973 9.31073 0.02555
C 24.57007 21.2507 0.00733
C 2.4737 32.70311 0.01984
