443
Graphene
C 0.01557 0.02237 0.01295
C 13.58246 19.15229 0.00093
C 13.50115 17.79293 0.00057
C 12.29986 17.0838 -0.01634
C 12.33615 15.61548 -0.00334
C 13.57043 14.95999 0.02339
C 13.55348 13.52653 0.01641
C 12.28873 12.76765 -0.00719
C 12.26207 11.3682 0.01364
C 13.52151 10.6107 -0.01062
C 13.516 9.22028 -0.00033
C 12.32442 8.53823 0.03589
C 12.32077 7.06317 -0.02759
C 13.5587 6.38242 0.0402
C 13.54641 4.94706 0.00572
C 12.25378 4.34194 0.03592
C 12.29352 2.83029 0.00406
C 13.51878 2.072 0.00943
C 13.47423 0.69854 0.02841
C 12.33062 34.02027 -0.01111
C 14.72351 32.67871 -0.01275
C 15.96918 31.98045 0.00985
C 15.98202 30.50919 -0.02245
C 14.71727 29.8703 -0.00428
C 12.22663 19.93448 0.01291
C 12.34767 21.32594 0.00438
C 13.55668 22.04914 -0.00191
C 13.54826 23.45814 0.00373
C 11.09808 14.90997 0.00054
C 11.06068 13.48279 0.03007
C 9.85081 12.7592 -0.00095
C 9.83317 11.38596 0.01572
C 11.04555 10.70173 -0.04848
C 11.05878 9.22836 -0.00892
C 9.8012 8.57201 -0.01362
C 9.84017 7.08494 -0.0008
C 11.08797 6.3857 0.0288
C 11.09372 5.0152 0.00393
C 9.90341 4.26749 0.00895
C 14.73634 28.36598 0.03101
C 9.82868 2.88351 0.00685
C 11.07844 0.67616 -0.00482
C 9.77179 34.05319 -0.01384
C 12.32258 32.64218 0.03693
C 13.57763 31.93977 0.01745
C 13.50692 30.55628 0.00488
C 12.28019 29.84475 -0.01004
C 12.26247 28.4979 -0.02896
C 13.51704 27.73165 -0.00131
C 13.53196 26.20509 -0.01118
C 12.2867 25.53722 -0.014
C 12.2963 24.18203 0.02147
C 11.07317 2.09105 0.02888
C 15.95044 27.68775 -0.01536
C 15.97176 26.28951 -0.02689
C 14.79148 25.56108 -0.01046
C 17.27912 28.45981 -0.03682
C 18.4558 27.66209 0.01965
C 18.46377 26.24687 0.02058
C 17.21214 25.55613 -0.01957
C 17.24294 24.11285 -0.0108
C 18.41735 23.43431 -0.00368
C 18.43511 21.97408 -0.02696
C 17.23186 21.26308 -0.00114
C 17.22798 19.8716 0.00228
C 18.4316 19.19469 0.00798
C 18.38428 17.77009 0.00422
C 17.17193 29.821 0.00052
C 17.17428 17.05187 0.0351
C 18.43165 14.92267 0.02098
C 18.43826 13.48381 0.01848
C 17.24897 12.76327 -0.00619
C 17.22098 11.37589 -0.02162
C 18.44645 10.67805 0.00889
C 18.42724 9.26865 -0.00481
C 17.23209 8.5277 0.00979
C 17.23087 7.12377 0.01443
C 18.44042 6.34625 0.03505
C 18.42238 4.94591 -0.02815
C 17.21897 4.27883 -0.04147
C 17.2395 15.61776 -0.03113
C 9.82505 15.58979 -0.00494
C 18.42886 30.52274 0.00374
C 17.17088 32.65386 -0.01952
C 14.79119 24.12722 -0.00891
C 15.96646 23.42346 0.02819
C 15.99224 22.03642 0.00165
C 14.79156 21.3056 -0.02971
C 14.73841 19.86897 0.02894
C 15.97422 19.14477 -0.01789
C 15.94959 17.73174 0.00444
C 14.75497 17.02338 -0.00925
C 14.73227 15.60743 0.01877
C 16.01912 14.89094 0.01363
C 16.02887 13.48137 -0.02162
C 18.41466 31.97931 -0.02813
C 14.75288 12.75898 0.00415
C 15.97845 10.66409 0.02162
C 15.97334 9.21903 0.0076
C 14.75773 8.54889 0.01241
C 14.77301 7.03621 -0.01454
C 15.96793 6.4152 0.01945
C 15.95132 5.01707 0.01416
C 14.72382 4.25776 0.03542
C 14.7916 2.84091 0.02299
C 15.99856 2.16281 0.00244
C 16.01001 0.67558 -0.01717
C 14.77841 0.01537 0.05265
C 14.78087 11.3804 -0.0014
C 17.22034 2.86976 -0.05302
C 9.78796 17.06805 -0.00562
C 11.08455 19.21006 0.01849
C 3.70841 0.68458 0.01138
C 2.4811 34.06052 0.03278
C 4.88077 32.66478 -0.00177
C 6.17232 31.92558 0.04421
C 6.18498 30.54669 0.00088
C 4.90729 29.82645 0.00828
C 4.967 28.41876 -0.02375
C 6.17498 27.67593 0.00558
C 6.0985 26.26623 -0.0059
C 4.92118 25.60681 -0.01386
C 4.91471 24.13345 -0.02805
C 6.1791 23.41574 0.00081
C 6.12998 22.02546 0.00245
C 4.96272 21.29389 0.02728
C 4.87095 19.85525 -0.00039
C 6.16366 19.14813 0.0064
C 6.093 17.69996 0.00211
C 4.91619 17.07463 -0.00449
C 4.90173 15.63132 -0.01979
C 6.12047 14.91949 0.02784
C 6.14451 13.52045 -0.01977
C 4.91502 12.71164 -0.00561
C 4.95677 11.37003 0.00208
C 3.72935 2.15108 -0.00407
C 2.45054 2.85004 -0.01299
C 2.42924 4.25429 -0.0154
C 3.66009 4.90218 0.00662
C 3.67804 30.5232 -0.00141
C 2.48189 29.81129 -0.00374
C 2.46475 28.3536 -0.0213
C 3.70616 27.73289 0.01116
C 3.71322 26.32279 -0.0005
C 2.42116 25.56248 -0.00018
C 2.49622 24.12031 0.01073
C 3.7357 23.41586 0.01984
C 3.72322 22.03565 0.00535
C 2.44379 21.23453 -0.00198
C 2.45658 19.89683 -0.00012
C 6.13057 10.67554 0.01707
C 3.65231 19.11084 -0.04306
C 2.45358 17.04242 0.01913
C 2.44928 15.63578 0.00267
C 3.67573 14.96216 0.00787
C 3.69841 13.44642 0.02426
C 2.46332 12.81722 0.01218
C 2.44887 11.36906 -0.01471
C 3.69834 10.66714 -0.02827
C 3.69186 9.22069 0.01078
C 2.47452 8.50805 -0.00112
C 2.5033 7.09936 0.03345
C 3.70119 6.35584 0.00748
C 3.65121 17.75738 -0.03672
C 6.19576 9.25609 0.02769
C 4.96495 8.53713 -0.03291
C 4.93532 7.11132 -0.04999
C 8.63577 10.68597 -0.02566
C 8.56523 9.29291 -0.00094
C 7.34695 8.52875 0.02322
C 7.403 7.0858 -0.00725
C 8.56097 6.40061 -0.05697
C 8.61617 5.01429 0.01087
C 7.3936 4.2448 -0.01343
C 7.37795 2.83478 0.00988
C 8.56608 2.18514 0.0276
C 8.57941 0.76189 0.01305
C 7.38179 0.02991 -0.00077
C 7.35033 11.35495 -0.03113
C 9.8112 32.70072 0.03368
C 11.06472 30.51885 -0.00966
C 9.83456 29.8076 -0.03337
C 9.80644 28.44186 0.01227
C 11.07654 27.73281 0.00873
C 11.1113 26.3104 -0.00049
C 9.85031 25.52159 0.00848
C 9.85309 24.15621 -0.01303
C 11.03798 23.45406 -0.01378
C 11.09535 22.00625 0.02635
C 9.83165 21.33751 0.0127
C 9.77761 19.87194 0.01396
C 11.0578 31.93928 -0.02929
C 11.07144 17.72168 -0.01142
C 7.37631 12.8396 0.017
C 8.59958 14.90887 0.0086
C 6.17306 6.40371 0.04505
C 6.13824 4.92404 0.03284
C 4.89835 4.23673 -0.04307
C 4.90067 2.83754 0.03189
C 6.17494 2.12974 0.00031
C 6.1569 0.76749 -0.003
C 4.89298 34.0756 0.01402
C 7.36529 32.68501 0.02379
C 8.60015 31.9785 0.00907
C 8.56232 30.58043 0.00643
C 7.39422 29.82225 -0.01509
C 8.61241 13.45589 -0.00643
C 7.43036 28.36101 0.03267
C 8.6376 26.28742 0.00402
C 7.38295 25.58518 0.0073
C 7.38719 24.1484 0.0174
C 8.58436 23.41384 0.03828
C 8.61239 21.98746 0.01226
C 7.32503 21.34988 -0.00279
C 7.41945 19.92105 0.01996
C 8.61085 19.11874 -0.03996
C 8.63946 17.72458 0.01465
C 7.38909 17.04941 -0.00074
C 7.38762 15.65178 -0.00518
C 8.63346 27.67043 0.02374
C 3.6584 31.96025 -0.03951
C 18.47127 2.08984 0.00213
C 17.18568 34.04745 -0.00289
C 30.73061 19.1797 0.01705
C 30.75658 14.89142 -0.0405
C 30.71559 13.52405 -0.01303
C 29.4935 12.79014 -0.01461
C 29.53675 11.32266 -0.02155
C 30.77616 10.62149 -0.00944
C 30.74612 9.28078 -0.03735
C 29.54918 8.50664 -0.00971
C 29.5191 7.045 0.01518
C 30.75871 6.4101 0.01908
C 30.77969 4.96169 0.07705
C 29.4714 4.24163 0.0103
C 29.52811 2.83737 0.02108
C 30.74439 2.12407 0.00716
C 30.74068 0.70401 0.00307
C 29.5356 0.0264 0.00346
C 31.94119 32.6539 0.01713
C 33.2371 31.98706 -0.01694
C 33.18215 30.54715 0.01428
C 31.9888 29.80724 -0.02142
C 31.99213 28.38529 0.0544
C 33.2434 27.73591 0.00026
C 33.21451 26.27002 0.00682
C 29.48029 19.8345 0.0101
C 29.52246 21.30521 -0.00669
C 30.7404 22.00959 0.03531
C 30.7758 23.45887 0.01836
C 28.25009 14.84464 0.04185
C 28.26281 13.47422 0.00194
C 27.04545 12.78929 -0.00621
C 27.1147 11.37358 0.02611
C 28.24219 10.6216 0.02198
C 28.26306 9.22738 0.01094
C 27.0519 8.49262 0.00235
C 27.02902 7.09703 0.01495
C 28.28186 6.36018 0.01259
C 28.28376 5.00479 0.01799
C 27.04934 4.28358 0.01699
C 31.97155 25.55016 -0.01779
C 27.05696 2.8236 -0.00416
C 28.27289 0.67007 0.04266
C 27.00927 0.0123 0.01324
C 29.52214 32.66457 0.0014
C 30.7706 31.89624 0.00924
C 30.76806 30.49575 0.02326
C 29.46598 29.84354 0.00261
C 29.5167 28.4003 0.03265
C 30.7388 27.68868 -0.02049
C 30.72979 26.288 -0.01854
C 29.48435 25.57859 -0.01415
C 29.54815 24.18532 -0.03039
C 28.27046 2.12489 0.01177
C 31.99531 24.15135 0.03794
C 33.20536 23.39761 0.01927
C 33.19787 21.98894 0.01574
C 34.41794 25.59753 -0.05239
C 34.41134 24.20393 0.03076
C 1.23046 23.40866 0.00723
C 1.20925 22.00123 0.02712
C 34.3855 21.2913 -0.02213
C 34.42716 19.90035 0.01951
C 1.27394 19.18787 -0.01678
C 1.17433 17.69931 0.01223
C 34.41049 17.00914 0.00648
C 0.00309 15.61332 0.02114
C 1.21908 14.86936 -0.02957
C 1.21673 26.28515 -0.00598
C 1.25379 13.47079 0.00343
C 34.42295 11.36218 -0.02442
C 1.2431 10.68972 -0.00027
C 1.21794 9.21264 -0.00583
C 0.00604 8.48237 -0.02302
C 34.41601 7.08432 -0.02849
C 1.19099 6.35899 0.02931
C 1.2232 4.95262 0.00628
C 0.03409 4.21113 -0.0345
C 34.43191 2.85434 -0.00931
C 1.19888 2.13749 -0.00939
C 1.21104 0.69356 -0.00468
C 0.00714 12.70711 -0.02656
C 27.01549 15.60258 0.02316
C 1.26221 27.65178 -0.00439
C 0.0111 29.81122 0.01831
C 31.93167 21.31714 -0.02383
C 31.92607 19.83944 -0.01429
C 33.21987 19.17266 -0.0136
C 33.17763 17.74356 0.00594
C 32.01069 17.0252 -0.02474
C 32.01591 15.56949 0.00369
C 33.24775 14.87599 0.00455
C 33.21543 13.47793 -0.00644
C 31.97456 12.73703 -0.01839
C 31.93774 11.31705 0.00137
C 33.17036 10.66319 0.00199
C 0.04253 28.38225 -0.01037
C 33.23917 9.21112 0.04381
C 31.93871 7.08889 0.01504
C 33.19168 6.38625 -0.00069
C 33.21602 4.97613 0.04926
C 31.9783 4.24953 -0.03838
C 32.01057 2.87461 0.00349
C 33.17469 2.11082 -0.00323
C 33.20374 0.7035 -0.00841
C 32.00578 34.07247 0.0001
C 0.03719 32.66908 -0.02927
C 1.25333 31.99074 -0.01404
C 1.23687 30.55174 0.01027
C 32.008 8.45727 0.02806
C 18.42894 0.70357 -0.00066
C 28.30638 19.19903 0.01257
C 27.021 21.36007 -0.00294
C 19.65395 2.86204 0.00654
C 20.89578 2.12517 -0.00703
C 20.90099 0.72701 -0.04076
C 19.70322 0.00029 -0.00652
C 22.16654 32.67046 0.0058
C 23.34675 31.98908 -0.00865
C 23.37951 30.50407 0.00675
C 22.14727 29.86271 -0.00311
C 22.173 28.39573 0.00742
C 23.42489 27.63262 -0.01594
C 23.32971 26.22164 0.0106
C 22.14919 25.59208 -0.01154
C 22.10594 24.12136 -0.01721
C 23.43369 23.45666 -0.02422
C 23.33975 22.0183 0.01277
C 22.11336 21.26587 0.00096
C 22.13274 19.86942 -0.01527
C 23.31394 19.15263 0.01087
C 23.3188 17.74457 0.00199
C 22.09337 17.02374 0.01511
C 22.11557 15.61823 -0.00478
C 23.37444 14.88466 -0.01662
C 23.2966 13.45019 -0.01185
C 19.6701 4.27873 -0.04422
C 20.8802 4.99882 -0.02957
C 20.89447 6.37902 -0.00831
C 19.65753 7.14915 0.00364
C 19.71125 32.66738 0.00028
C 20.92368 31.93344 -0.02213
C 20.88932 30.54454 0.03698
C 19.68024 29.71827 -0.00109
C 19.68852 28.36839 -0.00491
C 20.88457 27.66708 0.03338
C 20.9171 26.27002 -0.0258
C 19.73067 25.60237 -0.0331
C 19.65458 24.1689 -0.00316
C 20.87108 23.3901 0.02188
C 20.91785 21.98492 -0.01979
C 22.15518 12.77752 0.01126
C 19.65441 21.34302 0.02691
C 20.90821 19.15696 0.01452
C 20.94604 17.75995 0.04892
C 19.71562 17.0594 -0.00111
C 19.65571 15.61309 -0.03557
C 20.90738 14.87378 0.03754
C 20.91458 13.50119 0.01739
C 19.67027 12.77573 0.00755
C 19.66437 11.34105 -0.0054
C 20.8763 10.63594 0.00667
C 20.92037 9.19917 0.00143
C 19.65782 8.51348 -0.017
C 19.69158 19.88502 -0.01581
C 22.13919 11.31849 0.01852
C 23.36442 10.67125 -0.00381
C 23.40505 9.24011 0.03046
C 24.57005 12.76102 -0.00285
C 24.60759 11.33672 -0.009
C 25.84953 10.64811 -0.01199
C 25.81235 9.28858 -0.00229
C 24.62973 8.51651 -0.00938
C 24.57484 7.07917 -0.0264
C 25.90154 6.40405 -0.01154
C 25.78656 5.00776 0.00684
C 24.59651 4.23594 -0.01052
C 24.62682 2.85019 -0.01679
C 25.81849 2.12881 0.00367
C 25.83245 13.44697 0.01423
C 25.80528 0.7007 0.04306
C 27.0919 32.65714 0.00195
C 28.28221 31.94895 -0.00802
C 28.25131 30.57116 -0.00218
C 27.04421 29.81955 -0.01654
C 27.02516 28.39447 -0.00037
C 28.31828 27.6924 -0.0032
C 28.22974 26.21392 0.00622
C 27.03124 25.53589 -0.02815
C 27.05562 24.15431 -0.00942
C 28.29241 23.45784 0.00487
C 28.2578 21.94027 0.00826
C 24.60615 0.00247 0.00996
C 27.06347 19.91452 0.00152
C 25.79537 14.88829 0.02555
C 24.60316 17.09845 0.00135
C 22.16016 8.49592 0.0296
C 22.13912 7.06104 0.03374
C 23.37587 6.36773 -0.02845
C 23.36359 4.95576 -0.03213
C 22.14167 4.28581 0.02239
C 22.17944 2.85707 0.01153
C 23.33115 2.09997 0.02734
C 23.36191 0.72437 -0.0055
C 22.11465 34.07527 0.01515
C 24.55224 32.7007 -0.00225
C 25.78934 31.95623 0.00071
C 24.54823 15.60021 0.03102
C 25.78174 30.52115 -0.01107
C 24.58568 28.41193 -0.01971
C 25.8321 27.73706 -0.02118
C 25.78682 26.26597 0.00733
C 24.60224 25.55279 -0.00178
C 24.55901 24.11761 0.00768
C 25.83799 23.41157 -0.0276
C 25.80659 22.04135 0.03005
C 24.55275 21.31389 -0.04078
C 24.61239 19.8872 0.02117
C 25.89528 19.17819 0.02737
C 25.88908 17.79422 -0.00498
C 24.59185 29.78641 -0.01586
C 2.51576 32.63838 -0.02419
