357
Graphene
C 34.41874 0.1181 0.01295
C 14.76875 7.06855 -0.0108
C 16.05033 6.42098 -0.00368
C 15.98502 5.07324 -0.02696
C 14.81992 4.30704 -0.00114
C 14.80455 2.84565 0.00228
C 16.02279 2.17069 0.00798
C 15.94656 0.52725 0.00422
C 14.62992 0.00058 0.0351
C 14.64591 8.49918 -0.01957
C 17.24834 21.17073 -0.03113
C 18.55291 19.1185 0.01848
C 18.48141 17.74349 -0.00619
C 17.276 16.99983 -0.02162
C 17.23963 15.62703 0.00889
C 18.47386 14.91623 -0.00481
C 18.40947 13.49498 0.00979
C 17.17564 12.66516 0.01443
C 17.2004 11.31982 0.03505
C 17.32402 19.85081 0.02098
C 18.38005 10.6385 -0.02815
C 15.89445 9.23404 0.02058
C 14.7284 11.32056 -0.03682
C 13.49642 10.6871 -0.02162
C 13.40823 9.26332 0.00415
C 13.61539 6.41025 -0.0014
C 13.48672 5.06142 0.02162
C 12.39556 4.25442 0.0076
C 12.33116 2.88937 0.01241
C 13.57732 2.20829 -0.01454
C 13.54513 0.72868 0.01945
C 15.91793 10.61073 0.01965
C 12.27138 0.04356 0.01416
C 14.74547 19.88089 0.02299
C 15.98858 19.1625 0.00244
C 16.01574 17.71527 -0.01717
C 14.73109 17.0261 0.05265
C 14.83599 15.59717 -0.01952
C 16.06498 14.85956 -0.02813
C 15.98357 13.42936 0.00374
C 14.73756 12.77718 0.00052
C 14.71601 21.2413 0.03542
C 18.37266 9.20934 -0.04147
C 17.18559 8.49087 -0.05302
C 17.25269 7.14919 0.00213
C 19.61468 8.54737 0.00667
C 19.62288 7.19221 0.00143
C 20.86005 6.45089 -0.017
C 20.86372 4.9697 0.00364
C 19.62167 4.24734 -0.00831
C 19.64764 2.79285 -0.02957
C 20.859 2.11394 -0.04422
C 20.90267 0.64995 0.00654
C 20.82548 9.22583 -0.0054
C 19.66629 34.07364 -0.00703
C 23.40704 31.95023 -0.00652
C 23.3604 30.56705 0.0058
C 22.22933 29.71746 -0.00865
C 22.22419 28.50705 0.00675
C 23.36772 27.63448 -0.00311
C 23.30629 26.21306 0.00742
C 22.10661 25.58268 -0.01594
C 22.00605 24.17619 0.0106
C 22.16056 32.57599 -0.04076
C 20.93037 10.64657 0.00755
C 19.61023 11.35145 0.01739
C 19.5768 12.75946 0.03754
C 18.47972 6.42634 -0.00066
C 18.41259 4.99613 -0.00289
C 17.14491 4.30676 0.00028
C 17.23629 2.85589 -0.02213
C 18.46067 2.07533 0.03698
C 18.4053 0.70845 -0.00109
C 17.18857 0.09448 -0.00491
C 19.87528 32.64584 0.03338
C 20.85499 32.08715 -0.0258
C 20.92408 23.35896 -0.0331
C 20.80831 21.9621 -0.00316
C 19.56992 21.22918 0.02188
C 19.70767 19.89994 -0.01979
C 20.92428 19.14068 0.02691
C 20.90168 17.75096 -0.01581
C 19.68659 17.0321 0.01452
C 19.64709 15.66511 0.04892
C 20.83204 14.86199 -0.00111
C 20.85125 13.48832 -0.03557
C 12.26604 11.37609 0.01363
C 12.25928 12.7923 0.01877
C 13.52908 13.46099 -0.00925
C 13.5051 14.88535 0.00444
C 4.88005 32.64209 -0.00562
C 6.08654 31.92024 -0.00494
C 6.11301 30.49661 0.00054
C 4.91054 29.79977 0.03007
C 4.92529 28.40362 -0.00095
C 6.21666 27.69558 0.01572
C 6.19167 26.28925 -0.04848
C 4.91689 25.59476 -0.00892
C 2.40013 0.01052 -0.01142
C 4.95304 24.16049 -0.01362
C 6.13983 21.86074 0.0288
C 4.83612 21.39269 0.00393
C 4.84797 8.39712 0.00895
C 4.74273 7.21559 0.00685
C 4.87114 4.31105 0.02888
C 4.91718 2.90798 -0.00482
C 6.17225 2.17177 -0.01384
C 6.11481 0.6885 0.03693
C 6.16186 23.45234 -0.0008
C 3.66176 0.73625 0.01849
C 3.67074 2.24263 0.01396
C 2.45116 2.96674 0.0127
C 3.67031 30.50113 -0.00725
C 2.43761 29.8079 -0.05697
C 2.39799 28.37721 0.01087
C 3.70878 27.70789 -0.01343
C 3.70786 26.27024 0.00988
C 2.51445 25.54761 0.0276
C 2.50592 24.14046 0.01305
C 3.74396 23.42551 -0.00077
C 3.66599 22.01178 0.03368
C 2.3707 21.35884 -0.02929
C 2.28653 19.86913 -0.00966
C 2.49708 11.24139 -0.03337
C 3.60829 10.65441 0.01227
C 3.82386 9.3223 0.00873
C 2.46651 8.5038 -0.00049
C 2.46192 7.09892 0.00848
C 3.66768 6.40152 -0.01303
C 3.69529 4.94883 -0.01378
C 2.43117 4.36426 0.02635
C 4.89779 0.01157 0.01745
C 23.39044 23.43853 -0.01154
C 7.33089 32.62945 0.00488
C 8.64894 30.56599 -0.02896
C 9.9187 20.08393 0.00406
C 10.95135 19.16767 0.00943
C 11.05297 17.77521 0.02841
C 11.04033 13.33632 -0.01111
C 9.93771 11.23726 -0.01275
C 11.02657 10.80536 0.00985
C 9.91498 2.7887 -0.02245
C 11.08113 2.18437 -0.00428
C 9.86087 21.33629 0.03592
C 10.99739 0.75833 0.03101
C 12.37003 32.78169 -0.02689
C 13.72593 21.91711 -0.01046
C 12.37167 21.36877 -0.00891
C 12.28265 19.83556 0.02819
C 13.50492 19.10879 0.00165
C 13.49224 17.69092 -0.02971
C 12.10411 16.93474 0.02894
C 12.32815 15.48664 -0.01789
C 9.78357 0.09814 -0.01536
C 11.17088 22.05966 0.00572
C 11.03361 23.37696 0.0402
C 9.93354 24.25954 -0.02759
C 7.40895 29.84447 -0.00131
C 7.36926 28.49037 -0.01118
C 8.64198 27.71365 -0.014
C 8.62176 26.31153 0.02147
C 7.38466 25.58826 0.00373
C 7.35838 24.17397 -0.00191
C 8.53616 23.50287 0.00438
C 8.629 22.07558 0.01291
C 7.4463 21.44157 0.00093
C 7.30954 2.84723 0.00057
C 8.60838 2.35584 -0.01634
C 8.51542 0.82949 -0.00334
C 7.34833 0.02874 0.02339
C 9.78252 32.73266 0.01641
C 11.06479 31.98326 -0.00719
C 11.03178 30.62919 0.01364
C 9.94609 29.73696 -0.01062
C 9.8047 28.37625 -0.00033
C 9.77926 25.60326 0.03589
C 8.64821 32.00228 -0.01004
C 3.64663 31.91006 0.02322
C 23.31978 22.0417 -0.01721
C 22.14353 19.89663 0.01277
C 30.74558 2.07084 0.01713
C 30.75335 0.65651 -0.01694
C 29.54281 0.01461 0.01428
C 31.97855 32.60218 -0.02142
C 33.22771 32.00616 0.0544
C 33.22323 30.51085 0.00026
C 31.96895 29.80892 0.00682
C 31.93088 28.42405 -0.01779
C 29.52596 2.86801 0.00346
C 33.10714 27.70801 0.03794
C 31.92095 25.5665 0.01574
C 31.8647 24.13394 -0.02383
C 33.15039 23.44465 -0.01429
C 33.15086 22.01109 -0.0136
C 31.98446 21.32358 0.00594
C 31.99251 19.88931 -0.02474
C 33.18044 19.17058 0.00369
C 33.26718 17.74127 0.00455
C 33.14737 26.33297 0.01927
C 32.00979 17.01502 -0.00644
C 29.52762 4.29379 0.00307
C 30.71431 6.33027 0.02108
C 29.47202 25.55717 -0.01415
C 29.38072 24.15245 -0.03039
C 30.66113 23.48903 0.01836
C 30.70579 22.04619 0.03531
C 29.48702 21.28441 -0.00669
C 29.54556 19.85059 0.0101
C 30.8031 19.18919 0.01705
C 30.74451 17.74488 -0.0405
C 30.75407 4.98189 0.00716
C 29.48862 17.06481 -0.01303
C 30.70286 14.9382 -0.02155
C 30.71116 13.55112 -0.00944
C 29.51178 12.7275 -0.03735
C 29.61708 11.31165 -0.00971
C 30.7921 10.62581 0.01518
C 30.75545 9.17923 0.01908
C 29.51783 8.50719 0.07705
C 29.57077 7.11403 0.0103
C 29.48469 15.6025 -0.01461
C 32.0229 15.56743 -0.01839
C 33.24221 14.85868 0.00137
C 33.21926 13.40351 0.00199
C 1.14577 22.00426 -0.01678
C 34.38887 21.30729 0.01223
C 0.00037 19.85539 0.00648
C 1.35392 19.17166 0.02114
C 0.0525 16.95307 -0.02957
C 34.3431 15.73678 0.00343
C 0.02986 12.75228 -0.02656
C 0.05001 11.31374 -0.02442
C 1.24736 23.44627 0.01951
C 1.28796 10.62 -0.00027
C 34.41211 8.53885 -0.02302
C 34.42061 7.09605 -0.02849
C 1.24208 6.4207 0.02931
C 1.22707 5.03714 0.00628
C 0.00774 4.30935 -0.0345
C 34.41707 2.85608 -0.00931
C 1.22713 2.20698 -0.00939
C 1.21382 0.81659 -0.00468
C 1.24918 9.22083 -0.00583
C 0.00833 24.16513 -0.02213
C 0.03618 25.59472 0.02712
C 1.25369 26.301 0.00723
C 31.94289 12.76308 0.04381
C 31.94651 11.37733 0.02806
C 33.19992 10.66651 0.01504
C 33.18117 9.24871 -0.00069
C 31.94873 8.4633 0.04926
C 31.92402 7.04152 -0.03838
C 33.18056 6.33583 0.00349
C 33.22123 4.98159 -0.00323
C 31.95433 4.24578 -0.00841
C 31.89796 2.79273 0.0001
C 33.15908 2.11847 -0.02927
C 33.15505 0.66616 -0.01404
C 31.94794 34.02332 0.01027
C 0.03523 32.79403 0.01831
C 1.14963 31.9531 -0.01037
C 1.20287 30.59463 -0.00439
C 34.42926 29.79686 -0.00598
C 34.3531 28.3789 -0.05239
C 1.16668 27.72538 0.03076
C 30.69526 26.2216 -0.01854
C 30.76058 27.71122 -0.02049
C 29.63177 28.45334 0.03265
C 29.47988 29.82596 0.00261
C 24.55702 28.44937 -0.01107
C 25.81468 27.76241 -0.01586
C 25.79856 26.29611 -0.01971
C 24.62568 25.58079 -0.02118
C 24.63585 24.15135 0.00733
C 25.81266 23.46796 -0.00178
C 25.7853 22.0144 0.00768
C 24.50639 21.28471 -0.0276
C 24.5863 29.8028 0.00071
C 24.54422 19.88712 0.03005
C 25.79583 17.7978 0.02117
C 24.58725 17.00892 0.02737
C 24.52709 15.55927 -0.00498
C 25.79012 14.88577 0.00135
C 25.78942 13.50214 0.03102
C 24.60741 12.75883 0.02555
C 24.57914 11.29414 0.01423
C 25.82037 10.61479 -0.00285
C 25.79602 19.25501 -0.04078
C 25.80989 30.51914 -0.00225
C 25.86885 31.93782 0.01515
C 24.64537 32.69786 -0.0055
C 23.38076 19.1975 0.00096
C 23.38738 17.70729 -0.01527
C 22.10924 17.02132 0.01087
C 22.12458 15.56181 0.00199
C 23.38243 14.85397 0.01511
C 23.34081 13.43843 -0.00478
C 22.0999 12.74631 -0.01662
C 22.14145 11.34669 -0.01185
C 23.29006 10.60569 0.01126
C 23.29288 9.19836 0.01852
C 22.03838 8.46591 -0.00381
C 22.10295 7.06982 0.03046
C 23.35531 6.34016 0.0296
C 23.40128 4.96934 0.03374
C 22.13269 4.31122 -0.02845
C 22.06533 2.89617 -0.03213
C 23.26654 2.06327 0.02239
C 23.32672 0.70671 0.01153
C 22.17128 34.04148 0.02734
C 25.84692 9.18245 -0.009
C 22.13625 21.291 -0.02422
C 24.57616 8.51353 -0.01199
C 25.81268 6.38821 -0.00938
C 28.24613 14.8698 0.04185
C 28.26929 13.43011 0.00194
C 27.02699 12.73814 -0.00621
C 27.08892 11.28932 0.02611
C 28.36207 10.56169 0.02198
C 28.27679 9.17725 0.01094
C 27.06795 8.47016 0.00235
C 27.1052 7.10026 0.01495
C 27.04563 15.62732 0.02316
C 28.30429 6.37305 0.01259
C 27.0356 4.29877 0.01699
C 27.04829 2.86634 -0.00416
C 28.35561 2.15811 0.01177
C 28.30443 0.78331 0.04266
C 27.1517 0.02153 0.01324
C 29.5602 32.67358 0.0014
C 30.76931 31.91803 0.00924
C 30.67396 30.50778 0.02326
C 28.29171 4.9889 0.01799
C 26.98352 17.08103 0.01257
C 28.2483 17.80966 0.00152
C 28.27638 19.17572 -0.00294
C 25.81953 4.99818 -0.0264
C 24.58366 4.24976 -0.01154
C 24.58378 2.84473 0.00684
C 25.83342 2.19413 -0.01052
C 25.83601 0.74299 -0.01679
C 24.65005 0.00595 0.00367
C 27.10814 32.66403 0.04306
C 28.35593 31.93816 0.00996
C 28.24648 30.53031 0.00195
C 26.9854 29.789 -0.00802
C 27.09778 28.39188 -0.00218
C 28.35999 27.71493 -0.01654
C 28.27733 26.34183 -0.00037
C 26.99655 25.57166 -0.0032
C 27.01858 24.15312 0.00622
C 28.21416 23.42754 -0.02815
C 28.18859 21.98078 -0.00942
C 26.97855 21.29163 0.00487
C 27.02641 19.88827 0.00826
C 24.61461 7.05941 -0.00229
C 2.42731 32.66122 -0.00094
