369
Graphene
C 34.40404 0.04454 0.01295
C 18.43959 27.67124 -0.01952
C 18.41548 26.30584 -0.02813
C 17.22039 25.56748 0.00374
C 17.14889 24.14034 0.00052
C 18.3987 23.47541 -0.03682
C 18.46006 22.01426 0.01965
C 17.16051 21.26594 0.02058
C 17.15631 19.91509 -0.01957
C 18.38596 19.17079 -0.0108
C 18.39746 17.77119 -0.00368
C 17.19898 17.09597 -0.02696
C 17.13829 15.66107 -0.00114
C 18.37119 14.94534 0.00228
C 18.47517 13.38522 0.00798
C 17.16053 12.79233 0.00422
C 17.14643 11.30683 0.0351
C 18.40126 10.66177 -0.03113
C 18.42089 9.28385 0.02098
C 17.25921 8.48966 0.01848
C 17.17171 28.44158 0.05265
C 17.24786 7.1097 -0.00619
C 17.2029 29.82351 -0.01717
C 18.41483 31.87288 0.02299
C 14.62266 19.54759 0.02819
C 16.05009 19.14225 0.00165
C 16.01158 17.74766 -0.02971
C 14.79184 17.11614 0.02894
C 14.76963 15.76985 -0.01789
C 15.93735 14.99411 0.00444
C 16.0257 13.55613 -0.00925
C 14.70293 12.93119 0.01877
C 14.8073 11.54715 0.01363
C 15.91529 10.60907 -0.02162
C 15.93665 9.27439 0.00415
C 16.00597 6.35874 -0.0014
C 15.92913 4.92958 0.02162
C 14.71297 4.13565 0.0076
C 14.84248 2.71727 0.01241
C 16.07238 2.06155 -0.01454
C 15.98127 0.70247 0.01945
C 14.73233 34.00769 0.01416
C 17.1925 32.62816 0.03542
C 18.41576 30.51832 0.00244
C 14.6288 21.06218 -0.00891
C 18.44156 6.35245 -0.02162
C 17.21188 4.25926 -0.00481
C 19.6684 12.65306 0.04892
C 19.71202 11.26267 -0.00111
C 20.92671 10.58327 -0.03557
C 20.91535 9.21491 0.03754
C 19.68206 8.49798 0.01739
C 19.67541 6.97705 0.00755
C 20.97592 6.37504 -0.0054
C 20.88041 4.98068 0.00667
C 19.70972 4.18487 0.00143
C 19.6467 2.87005 -0.017
C 20.85449 2.14302 0.00364
C 20.88325 0.67687 -0.00831
C 19.60664 33.99477 -0.02957
C 22.08861 32.56993 -0.04422
C 23.28902 31.93669 0.00654
C 23.31707 30.49424 -0.00703
C 22.13784 29.79193 -0.04076
C 22.11149 28.39067 -0.00652
C 23.30942 27.68625 0.0058
C 20.86749 13.37154 0.01452
C 18.45581 4.93223 0.00889
C 20.91751 14.85955 -0.01581
C 19.64789 16.99467 -0.01979
C 17.25978 2.84727 0.00979
C 18.46043 2.08514 0.01443
C 18.41577 0.68325 0.03505
C 17.22501 34.04711 -0.02815
C 19.59057 32.57097 -0.04147
C 20.83822 31.92795 -0.05302
C 20.87606 30.53333 0.00213
C 19.63991 29.8587 -0.00066
C 19.61549 28.45739 -0.00289
C 20.86793 27.66156 0.00028
C 20.89589 26.22544 -0.02213
C 19.61278 25.54547 0.03698
C 19.60621 24.08754 -0.00109
C 20.82467 23.4194 -0.00491
C 20.77911 22.00617 0.03338
C 19.58523 21.2608 -0.0258
C 19.64467 19.87224 -0.0331
C 20.81784 19.07923 -0.00316
C 20.89742 17.64546 0.02188
C 19.66757 15.4951 0.02691
C 15.94164 21.968 -0.01046
C 15.9388 23.39001 -0.02689
C 14.71029 24.07534 -0.01536
C 2.39323 2.9049 -0.03337
C 3.67073 2.17933 0.01227
C 3.71052 0.76431 0.00873
C 2.43024 0.03375 -0.00049
C 4.97006 32.71764 0.00848
C 6.19211 31.97876 -0.01303
C 6.15831 30.57589 -0.01378
C 4.88174 29.84474 0.02635
C 4.86944 28.47606 0.0127
C 6.08374 27.6739 0.01396
C 6.02918 13.60719 0.01849
C 4.80569 12.82851 -0.01142
C 4.93709 11.4025 -0.00562
C 4.99148 4.23419 -0.00494
C 4.9038 2.9483 0.00054
C 6.15591 2.21797 0.03007
C 6.16052 0.80975 -0.00095
C 4.94197 0.08256 0.01572
C 7.32483 32.78819 -0.04848
C 2.56382 4.38068 -0.00966
C 8.49076 32.04151 -0.00892
C 3.8556 5.08948 -0.02929
C 2.5074 7.12557 -0.00077
C 3.67482 30.60671 0.01996
C 2.43241 29.86922 -0.03996
C 2.406 28.47365 0.01465
C 3.55849 27.75622 -0.00074
C 3.6112 26.26745 -0.00518
C 2.42402 25.61646 0.0086
C 2.43057 24.15463 -0.00643
C 3.575 23.37047 0.017
C 2.45321 21.29768 -0.03113
C 2.45517 19.94591 -0.02566
C 2.37825 17.16166 -0.00094
C 2.47078 15.69045 0.02322
C 3.66269 14.86898 -0.00725
C 3.56165 13.52967 -0.05697
C 2.38978 12.75628 0.01087
C 2.52943 11.28112 -0.01343
C 3.8162 10.52528 0.00988
C 3.68704 9.18195 0.0276
C 2.49574 8.58326 0.01305
C 3.72932 6.52083 0.03368
C 8.55736 30.60523 -0.01362
C 7.35586 29.77253 -0.0008
C 7.39137 28.29068 0.0288
C 12.34098 24.23623 0.01641
C 13.29902 23.34644 -0.00719
C 13.55068 21.98998 0.01364
C 13.69351 17.99798 -0.01062
C 12.44672 16.11003 -0.00033
C 13.51894 15.17691 0.03589
C 13.45609 13.70218 -0.02759
C 12.55086 2.86815 0.0402
C 13.61166 2.04431 0.00572
C 13.53479 0.69152 0.03592
C 12.28784 0.119 0.00406
C 14.69158 32.58399 0.00943
C 15.95063 31.92973 0.02841
C 15.94509 30.51722 -0.01111
C 14.70524 29.80699 -0.01275
C 14.69822 28.3748 0.00985
C 15.99334 27.65981 -0.02245
C 15.94618 26.29728 -0.00428
C 14.67803 25.52752 0.03101
C 12.12483 25.5531 0.02339
C 13.43445 26.27259 -0.00334
C 13.4391 27.70487 -0.01634
C 12.29664 28.5333 0.00057
C 8.6881 27.77072 0.00393
C 7.29983 3.00914 0.00895
C 8.59977 2.39159 0.00685
C 8.52634 0.90575 0.02888
C 7.32042 0.12045 -0.00482
C 9.74217 32.81151 -0.01384
C 10.93274 32.06741 0.03693
C 10.99019 30.58591 0.01745
C 9.78416 29.89275 0.00488
C 23.24498 26.15919 -0.00865
C 9.85088 28.48454 -0.01004
C 11.04262 26.36823 -0.00131
C 9.90755 2.86637 -0.01118
C 11.15529 2.38679 -0.014
C 11.06832 0.89424 0.02147
C 9.78605 0.23477 0.00373
C 12.184 32.75034 -0.00191
C 13.43799 31.94903 0.00438
C 13.4496 30.53107 0.01291
C 12.24694 29.8958 0.00093
C 11.06553 27.81861 -0.02896
C 3.67703 32.02118 -0.00279
C 22.10041 25.5329 0.00675
C 23.34442 23.39056 0.00742
C 30.7225 0.74602 0.00307
C 29.42788 0.04493 0.00346
C 31.93278 32.63996 0.01713
C 33.18158 32.01144 -0.01694
C 33.17719 30.57261 0.01428
C 31.91248 29.92126 -0.02142
C 31.88712 28.43782 0.0544
C 33.14517 27.77034 0.00026
C 33.13701 26.26516 0.00682
C 31.94823 25.61196 -0.01779
C 31.94304 24.1874 0.03794
C 33.23139 23.44283 0.01927
C 33.24684 21.98855 0.01574
C 32.02721 21.25364 -0.02383
C 32.07443 19.88962 -0.01429
C 33.30673 19.15781 -0.0136
C 33.14886 17.77089 0.00594
C 31.91993 17.02466 -0.02474
C 31.89499 15.60495 0.00369
C 30.66946 2.17138 0.00716
C 33.17036 14.90345 0.00455
C 29.43596 2.86746 0.02108
C 30.74076 4.97604 0.07705
C 29.44201 25.56314 0.03265
C 29.45719 24.13592 -0.02049
C 30.66489 23.48143 -0.01854
C 30.70667 22.01285 -0.01415
C 29.50062 21.24884 -0.03039
C 29.51923 19.82806 0.01836
C 30.7576 19.17099 0.03531
C 30.78673 17.79354 -0.00669
C 29.54903 17.05996 0.0101
C 29.48856 15.61885 0.01705
C 30.75183 14.84039 -0.0405
C 30.71862 13.47733 -0.01303
C 29.53665 12.78369 -0.01461
C 29.4907 11.30863 -0.02155
C 30.74775 10.6288 -0.00944
C 30.72027 9.16678 -0.03735
C 29.44873 8.51093 -0.00971
C 29.50711 7.04798 0.01518
C 30.77617 6.36545 0.01908
C 29.50062 4.2688 0.0103
C 30.66558 26.29053 0.00261
C 33.18703 13.53521 -0.00644
C 31.97973 11.27256 0.00137
C 0.1161 19.91342 0.01951
C 1.28191 19.19516 -0.01678
C 1.12654 17.84572 0.01223
C 34.41184 17.04592 0.00648
C 34.38709 15.68137 0.02114
C 1.22536 14.97399 -0.02957
C 1.21457 13.53989 0.00343
C 34.30857 12.77916 -0.02656
C 0.00072 11.38347 -0.02442
C 1.2528 10.70757 -0.00027
C 1.27771 9.2323 -0.00583
C 34.42789 8.52936 -0.02302
C 0.03677 7.11936 -0.02849
C 1.26262 6.42 0.02931
C 1.27834 5.00026 0.00628
C 0.05648 4.28609 -0.0345
C 0.03444 2.90342 -0.00931
C 1.21106 2.2651 -0.00939
C 1.13871 0.75088 -0.00468
C 0.05247 21.28085 -0.02213
C 31.95386 12.76326 -0.01839
C 1.24798 22.07468 0.02712
C 0.01168 24.14844 0.03076
C 33.14531 10.65571 0.00199
C 33.19987 9.22914 0.04381
C 31.99633 8.53852 0.02806
C 31.97815 7.10487 0.01504
C 33.21405 6.3991 -0.00069
C 33.23723 4.96817 0.04926
C 31.98482 4.26785 -0.03838
C 31.98843 2.86668 0.00349
C 33.22225 2.16078 -0.00323
C 33.18443 0.7271 -0.00841
C 31.97695 0.04808 0.0001
C 34.4123 32.67137 -0.02927
C 1.20527 31.96891 -0.01404
C 1.23928 30.59792 0.01027
C 0.00967 29.86807 0.01831
C 34.33786 28.50838 -0.01037
C 1.13684 27.77095 -0.00439
C 1.17097 26.33487 -0.00598
C 34.42589 25.6423 -0.05239
C 1.26496 23.49031 0.00723
C 30.66365 27.70993 0.02326
C 29.40486 28.40635 0.00924
C 29.37685 29.84922 0.0014
C 25.80935 31.97685 0.01153
C 25.80161 30.57257 0.02734
C 24.58018 29.8224 -0.0055
C 24.57584 28.40446 0.01515
C 25.75841 27.62497 -0.00225
C 25.7619 26.17893 0.00071
C 24.56269 25.45134 -0.01107
C 24.51503 24.04114 -0.01586
C 25.75774 23.35561 -0.01971
C 25.75248 21.95837 -0.02118
C 24.53119 21.21865 0.00733
C 24.59265 19.78865 -0.00178
C 25.86354 19.08375 0.00768
C 25.77629 17.67102 -0.0276
C 24.55694 16.9368 0.03005
C 24.53352 15.49438 -0.04078
C 25.83174 14.83787 0.02117
C 25.82562 13.44602 0.02737
C 24.59053 12.72881 -0.00498
C 24.57158 32.68383 0.02239
C 24.59875 11.29062 0.00135
C 22.08938 34.02619 -0.03213
C 23.32873 2.13979 0.03374
C 23.2837 21.94308 -0.01594
C 22.07283 21.19337 0.0106
C 22.03552 19.83357 -0.01154
C 23.38725 19.06051 -0.01721
C 23.35183 17.65669 -0.02422
C 22.11494 17.01476 0.01277
C 22.1273 15.55562 0.00096
C 23.33816 14.85402 -0.01527
C 23.3469 13.41389 0.01087
C 22.13586 12.70788 0.00199
C 22.13623 11.31146 0.01511
C 23.34765 10.56119 -0.00478
C 23.38637 9.17115 -0.01662
C 22.14493 8.49292 -0.01185
C 22.20089 7.0833 0.01126
C 23.36583 6.38388 0.01852
C 23.34801 4.96866 -0.00381
C 22.1594 4.30123 0.03046
C 22.09388 2.89528 0.0296
C 23.29773 0.6689 -0.02845
C 25.84979 10.70874 0.03102
C 25.86815 9.26403 0.02555
C 24.69623 8.5087 0.01423
C 27.04625 15.57076 -0.00294
C 28.30896 14.86431 0.00152
C 28.28807 13.48257 0.01257
C 27.07358 12.76988 0.02316
C 27.10472 11.39231 0.04185
C 28.30397 10.67306 0.00194
C 28.2947 9.18475 -0.00621
C 27.06046 8.53383 0.02611
C 27.09197 7.08279 0.02198
C 28.30414 6.3364 0.01094
C 28.29507 4.93315 0.00235
C 27.07294 4.24844 0.01495
C 27.01244 2.86589 0.01259
C 28.18747 2.14405 0.01799
C 28.23792 0.75688 0.01699
C 26.96981 0.09328 -0.00416
C 29.45009 32.67545 0.01177
C 30.70461 31.96018 0.04266
C 30.67036 30.53433 0.01324
C 27.11385 16.98578 0.00826
C 28.27766 17.72133 0.00487
C 28.31633 19.14311 -0.00942
C 27.07099 19.82136 -0.02815
C 24.64302 7.09368 -0.00285
C 25.76816 6.41241 -0.009
C 25.85661 4.94873 -0.01199
C 24.56603 4.29561 -0.00229
C 24.60595 2.85975 -0.00938
C 25.81985 2.10699 -0.0264
C 25.76807 0.69532 -0.01154
C 24.5153 34.07834 0.00684
C 26.99397 32.689 -0.01052
C 22.02893 24.10463 -0.00311
C 28.22819 32.00006 -0.01679
C 26.99801 29.81936 0.04306
C 27.00228 28.3565 0.00996
C 28.19205 27.7102 0.00195
C 28.21711 26.26894 -0.00802
C 27.01031 25.46577 -0.00218
C 26.96952 24.07274 -0.01654
C 28.24764 23.39491 -0.00037
C 28.31945 22.04695 -0.0032
C 27.02046 21.26221 0.00622
C 28.19619 30.57021 0.00367
C 2.49441 32.72354 0.01226
