424
Graphene
C 0.01929 0.02624 0.01295
C 13.56892 13.47024 0.00572
C 12.23838 12.85573 0.03592
C 12.28578 11.41289 0.00406
C 13.53443 10.62807 0.00943
C 13.55482 9.28128 0.02841
C 12.31033 8.54892 -0.01111
C 12.25132 7.0969 -0.01275
C 13.49344 6.38381 0.00985
C 13.50001 4.87725 -0.02245
C 12.28338 4.24646 -0.00428
C 13.5711 14.9358 0.0402
C 12.31644 2.81527 0.03101
C 13.56104 0.69532 -0.02689
C 12.35792 34.07268 -0.01046
C 14.76817 32.72431 -0.00891
C 16.01653 31.91843 0.02819
C 15.98612 30.47401 0.00165
C 14.70718 29.79767 -0.02971
C 14.79767 28.34605 0.02894
C 15.95102 27.68477 -0.01789
C 15.95118 26.29601 0.00444
C 14.75856 25.52549 -0.00925
C 13.48995 2.15695 -0.01536
C 12.23006 15.66983 -0.02759
C 12.28096 17.08922 0.03589
C 12.31307 25.59602 -0.00033
C 9.84958 15.62127 -0.01384
C 11.08124 14.91348 0.03693
C 11.03877 13.49599 0.01745
C 9.83529 12.78101 0.00488
C 9.8346 11.39785 -0.01004
C 11.06674 10.75567 -0.02896
C 11.0515 9.26474 -0.00131
C 9.83858 8.56718 -0.01118
C 9.84881 7.04605 -0.014
C 11.07527 6.38869 0.02147
C 11.09574 5.00785 0.00373
C 9.91491 4.27244 -0.00191
C 9.82859 2.79366 0.00438
C 11.05403 2.16005 0.01291
C 11.09892 0.67702 0.00093
C 9.79279 34.05875 0.00057
C 12.32319 32.66384 -0.01634
C 13.62067 31.97284 -0.00334
C 13.53683 30.57104 0.02339
C 12.32355 29.86358 0.01641
C 12.27759 28.50109 -0.00719
C 13.50797 27.73536 0.01364
C 13.52162 26.22909 -0.01062
C 15.95488 17.6905 0.01877
C 9.85704 17.08879 -0.00482
C 14.81156 17.02151 0.01363
C 15.93797 14.92853 0.00415
C 18.44182 14.92106 0.0351
C 18.46093 13.45272 -0.03113
C 17.26229 12.82537 0.02098
C 17.21999 11.31272 0.01848
C 18.46824 10.65992 -0.00619
C 18.4557 9.23699 -0.02162
C 17.2445 8.48951 0.00889
C 17.15156 7.11015 -0.00481
C 18.40724 6.36943 0.00979
C 18.47023 4.93961 0.01443
C 17.20507 15.60185 0.00422
C 17.2011 4.27966 0.03505
C 18.41617 2.13954 -0.04147
C 18.40429 0.74082 -0.05302
C 17.14981 0.03097 0.00213
C 19.65109 32.68779 -0.00066
C 20.88721 31.9676 -0.00289
C 20.97207 30.50026 0.00028
C 19.71335 29.81264 -0.02213
C 19.69771 28.41563 0.03698
C 20.89511 27.6865 -0.00109
C 20.9448 23.41204 -0.00491
C 17.21068 2.84373 -0.02815
C 17.21931 17.00406 0.00798
C 18.41934 17.74099 0.00228
C 18.44182 19.15429 -0.00114
C 16.03492 13.52242 -0.0014
C 14.74392 12.78122 0.02162
C 14.72692 11.35584 0.0076
C 15.94634 10.65585 0.01241
C 15.98439 9.19984 -0.01454
C 14.69945 8.53517 0.01945
C 14.74124 7.13856 0.01416
C 16.00876 6.37746 0.03542
C 15.98908 4.95623 0.02299
C 14.7617 4.19701 0.00244
C 14.72883 2.81562 -0.01717
C 16.00611 2.09026 0.05265
C 15.93242 0.67197 -0.01952
C 14.76705 34.0557 -0.02813
C 17.26062 32.6691 0.00374
C 18.41206 31.98691 0.00052
C 18.49019 30.50875 -0.03682
C 17.20926 29.81408 0.01965
C 17.20443 28.39911 0.02058
C 17.18511 25.57235 -0.01957
C 17.27092 24.12673 -0.0108
C 18.41508 23.41298 -0.00368
C 18.43447 22.02696 -0.02696
C 14.71803 15.61546 -0.02162
C 20.89704 22.02778 0.03338
C 11.09333 17.76723 0.02888
C 9.85971 24.1154 0.00895
C 3.70735 2.13909 -0.01979
C 3.68781 0.72241 0.02784
C 2.45344 0.0074 -0.01977
C 4.86022 32.70908 -0.00561
C 6.17339 31.98469 0.00208
C 6.15001 30.52477 0.01707
C 4.90772 29.83723 0.02769
C 4.91677 28.4162 -0.03291
C 6.19827 27.63072 -0.04999
C 6.20804 26.27733 0.04505
C 2.45481 2.81828 -0.00449
C 4.98677 25.52261 0.03284
C 6.14267 23.40344 0.03189
C 6.0932 21.98915 0.00031
C 4.89496 21.39041 -0.003
C 4.90104 19.89904 0.01402
C 6.17383 19.1761 0.02379
C 6.13965 17.79291 0.00907
C 4.97002 17.03624 0.00643
C 4.87709 15.58631 -0.01509
C 6.19133 14.883 0.03267
C 6.09664 13.4554 0.02374
C 4.88975 24.18534 -0.04307
C 2.42584 4.28029 0.00211
C 3.65239 4.97482 0.0064
C 3.69367 6.428 -0.00039
C 3.68185 30.46514 -0.02827
C 2.49946 29.82271 0.01078
C 2.4944 28.42363 -0.00112
C 3.70704 27.69992 0.03345
C 3.68867 26.23403 0.00748
C 2.42915 25.48676 0.00662
C 2.43424 24.10947 -0.0154
C 3.71136 23.4217 -0.01299
C 3.7071 21.98448 -0.00407
C 2.48347 21.3201 0.01138
C 2.49569 19.93046 0.03278
C 3.65581 19.15922 -0.00177
C 3.73856 17.74525 0.04421
C 2.51104 17.04339 0.00088
C 2.4792 15.66913 0.00828
C 3.64299 14.83534 -0.02375
C 3.68731 13.46352 0.00558
C 2.42024 12.79951 -0.0059
C 2.42228 11.29779 -0.01386
C 3.69097 10.6349 -0.02805
C 3.68266 9.24951 0.00081
C 2.44326 8.54078 0.00245
C 2.47773 7.04796 0.02728
C 4.92895 12.80443 0.00402
C 9.81276 19.92523 0.00685
C 4.95078 11.3842 0.0073
C 6.13104 9.21212 0.03828
C 8.63869 13.51537 0.00873
C 7.42156 12.80789 -0.00049
C 7.37059 11.36219 0.00848
C 8.58859 10.69403 -0.01303
C 8.65634 9.24442 -0.01378
C 7.40176 8.56845 0.02635
C 7.38169 7.1394 0.0127
C 8.63575 6.43433 0.01396
C 8.58425 5.05774 0.01849
C 7.37493 4.30349 -0.01142
C 8.6187 14.9318 0.01227
C 7.31596 2.83181 -0.00562
C 8.62794 0.73568 0.00054
C 7.39838 34.06854 0.03007
C 9.84704 32.63551 -0.00095
C 11.03324 31.99347 0.01572
C 11.02191 30.57384 -0.04848
C 9.85328 29.81996 -0.00892
C 9.7705 28.40107 -0.01362
C 11.02184 27.75746 -0.0008
C 11.08116 26.24942 0.0288
C 9.86634 25.55071 0.00393
C 8.56486 2.15373 -0.00494
C 7.34142 15.63933 -0.03337
C 7.429 17.10438 -0.00966
C 8.64239 17.69628 -0.02929
C 4.9163 8.53059 0.01226
C 4.8399 7.11667 -0.00279
C 6.15984 6.40417 0.01996
C 6.12952 5.00955 -0.03996
C 4.84346 4.26088 0.01465
C 4.87607 2.84337 -0.00074
C 6.12867 2.08423 -0.00518
C 6.18139 0.75159 0.0086
C 4.8664 34.07941 -0.00643
C 7.388 32.70705 0.017
C 8.6191 31.91532 -0.03113
C 8.60684 30.52635 -0.02566
C 7.36719 29.8425 -0.00094
C 7.40704 28.38453 0.02322
C 8.62786 27.71268 -0.00725
C 8.59232 26.26375 -0.05697
C 7.37305 25.57393 0.01087
C 7.34859 24.13954 -0.01343
C 8.56514 23.48226 0.00988
C 8.6125 22.02438 0.0276
C 7.3924 21.28079 0.01305
C 7.41816 19.86928 -0.00077
C 8.62027 19.21418 0.03368
C 6.13712 10.67131 0.0174
C 19.67954 21.29594 -0.0258
C 19.64125 19.8629 -0.0331
C 20.87952 19.16945 -0.00316
C 29.51215 11.39099 -0.02155
C 30.79302 10.6748 -0.00944
C 30.74516 9.18238 -0.03735
C 29.53901 8.48643 -0.00971
C 29.53555 7.11248 0.01518
C 30.7409 6.43123 0.01908
C 30.75189 4.93629 0.07705
C 29.4607 4.26565 0.0103
C 29.56025 2.80285 0.02108
C 30.70721 2.07701 0.00716
C 29.47897 12.81594 -0.01461
C 30.72087 0.66709 0.00307
C 31.92514 32.68512 0.01713
C 33.19224 31.95495 -0.01694
C 33.21729 30.47919 0.01428
C 32.01059 29.79892 -0.02142
C 31.99437 28.42426 0.0544
C 33.26526 27.68461 0.00026
C 33.18688 26.21045 0.00682
C 31.97577 25.55647 -0.01779
C 32.01549 24.12647 0.03794
C 33.18649 23.40851 0.01927
C 29.52459 34.04218 0.00346
C 30.74061 13.50653 -0.01303
C 30.75734 14.92566 -0.0405
C 29.53966 15.67363 0.01705
C 28.28594 6.38809 0.01094
C 28.31901 5.01723 0.00235
C 27.01643 4.27922 0.01495
C 27.06632 2.85404 0.01259
C 28.2872 2.11653 0.01799
C 28.32456 0.73757 0.01699
C 27.08885 34.06262 -0.00416
C 29.48221 32.61956 0.01177
C 30.74662 31.96201 0.04266
C 30.75047 30.53911 0.01324
C 29.54351 29.86411 0.0014
C 29.48383 28.31886 0.00924
C 30.72709 27.6501 0.02326
C 30.71842 26.25266 0.00261
C 29.56068 25.53426 0.03265
C 29.45671 24.06825 -0.02049
C 30.70372 23.44983 -0.01854
C 30.73504 21.99591 -0.01415
C 29.5115 21.3064 -0.03039
C 29.50937 19.82007 0.01836
C 30.73968 19.21155 0.03531
C 30.75706 17.77569 -0.00669
C 29.50913 17.03883 0.0101
C 33.20948 21.98876 0.01574
C 27.01616 7.07401 0.02198
C 31.93935 21.31897 -0.02383
C 33.20805 19.19709 -0.0136
C 1.25223 23.39867 0.00723
C 1.22559 22.00993 0.02712
C 34.3969 21.33585 -0.02213
C 0.00485 19.9138 0.01951
C 1.2349 19.23912 -0.01678
C 1.20239 17.76024 0.01223
C 34.40378 17.01954 0.00648
C 34.42761 15.64044 0.02114
C 1.24318 14.91761 -0.02957
C 1.24171 13.50238 0.00343
C 34.4047 24.12265 0.03076
C 34.41888 12.74933 -0.02656
C 1.205 10.68364 -0.00027
C 1.21211 9.29594 -0.00583
C 34.42564 8.478 -0.02302
C 34.42297 7.07419 -0.02849
C 1.16717 6.36064 0.02931
C 1.21843 4.97141 0.00628
C 0.03671 4.23355 -0.0345
C 34.37428 2.76952 -0.00931
C 1.22098 2.13295 -0.00939
C 1.25782 0.71843 -0.00468
C 34.40329 11.32249 -0.02442
C 34.4026 25.59601 -0.05239
C 1.26537 26.2303 -0.00598
C 1.25327 27.66202 -0.00439
C 33.21888 17.77455 0.00594
C 31.9598 17.03067 -0.02474
C 32.01467 15.5513 0.00369
C 33.20609 14.86703 0.00455
C 33.18903 13.46047 -0.00644
C 31.96875 12.78049 -0.01839
C 32.0064 11.3231 0.00137
C 33.17761 10.67359 0.00199
C 33.11459 9.23135 0.04381
C 31.91431 8.49603 0.02806
C 31.96289 7.05723 0.01504
C 33.16137 6.40314 -0.00069
C 33.24596 4.95749 0.04926
C 32.00255 4.26246 -0.03838
C 31.88922 2.86414 0.00349
C 33.13345 2.06789 -0.00323
C 33.21398 0.68011 -0.00841
C 31.97404 34.06207 0.0001
C 0.03159 32.61778 -0.02927
C 1.2732 31.91724 -0.01404
C 1.26587 30.51522 0.01027
C 34.42009 29.82081 0.01831
C 0.02978 28.35286 -0.01037
C 31.94026 19.86515 -0.01429
C 27.04523 8.55189 0.02611
C 28.32998 9.18882 -0.00621
C 28.36833 10.61583 0.00194
C 23.34936 23.38616 0.00742
C 23.36871 21.97206 -0.01594
C 22.15714 21.29125 0.0106
C 22.127 19.87269 -0.01154
C 23.37978 19.17677 -0.01721
C 23.31686 17.74097 -0.02422
C 22.13288 17.0405 0.01277
C 22.15557 15.59398 0.00096
C 23.39374 14.91583 -0.01527
C 23.40506 13.50492 0.01087
C 22.11086 24.18309 -0.00311
C 22.17603 12.70459 0.00199
C 23.35484 10.66328 -0.00478
C 23.37691 9.24731 -0.01662
C 22.10997 8.56674 -0.01185
C 22.12363 7.08173 0.01126
C 23.36439 6.39122 0.01852
C 23.33249 4.98365 -0.00381
C 22.13195 4.24029 0.03046
C 22.17659 2.86206 0.0296
C 23.35379 2.17559 0.03374
C 23.36281 0.67192 -0.02845
C 22.14196 11.39041 0.01511
C 22.19955 25.57656 0.00675
C 23.39818 26.2342 -0.00865
C 23.314 27.65365 0.0058
C 20.93154 17.78064 0.02188
C 19.68032 17.02391 -0.01979
C 19.8055 15.6765 0.02691
C 20.88659 14.9344 -0.01581
C 20.91295 13.47688 0.01452
C 19.69554 12.75355 0.04892
C 19.61621 11.37348 -0.00111
C 20.83184 10.65147 -0.03557
C 20.87521 9.22718 0.03754
C 19.65477 8.50573 0.01739
C 19.68648 7.05946 0.00755
C 20.83898 6.3448 -0.0054
C 20.89711 4.96991 0.00667
C 19.65155 4.26691 0.00143
C 19.64918 2.81552 -0.017
C 20.88428 2.18141 0.00364
C 20.91632 0.73092 -0.00831
C 19.6755 5e-05 -0.02957
C 22.12056 32.68274 -0.04422
C 23.37747 31.89633 0.00654
C 23.3811 30.50953 -0.00703
C 22.14741 29.79134 -0.04076
C 22.15288 28.39179 -0.00652
C 22.20561 0.06029 -0.03213
C 24.60587 32.70357 0.02239
C 25.79753 31.88937 0.01153
C 25.78864 30.48516 0.02734
C 25.84412 0.75525 -0.01154
C 24.55699 0.03649 0.00684
C 27.05757 32.60865 -0.01052
C 28.34167 31.96529 -0.01679
C 28.31237 30.55176 0.00367
C 27.04973 29.841 0.04306
C 27.02087 28.3553 0.00996
C 28.27319 27.72216 0.00195
C 28.29925 26.28174 -0.00802
C 27.02965 25.56834 -0.00218
C 27.02099 24.12877 -0.01654
C 28.27424 23.39244 -0.00037
C 28.27518 22.00206 -0.0032
C 27.05474 21.29102 0.00622
C 27.0676 19.84412 -0.02815
C 28.27805 19.20567 -0.00942
C 28.31251 17.76874 0.00487
C 27.00413 17.04038 0.00826
C 27.0538 15.60741 -0.00294
C 28.29069 14.92723 0.00152
C 28.29162 13.5438 0.01257
C 27.06075 12.74055 0.02316
C 27.05005 11.30296 0.04185
C 25.89633 2.14656 -0.0264
C 3.65171 31.98203 -0.01471
C 24.62449 2.87132 -0.00938
C 25.83748 4.98769 -0.01199
C 24.57914 29.78743 -0.0055
C 24.58851 28.34304 0.01515
C 25.76806 27.66532 -0.00225
C 25.85436 26.2805 0.00071
C 24.58656 25.52727 -0.01107
C 24.54838 24.15153 -0.01586
C 25.81634 23.4324 -0.01971
C 25.77172 22.01501 -0.02118
C 24.60427 21.28175 0.00733
C 24.53654 19.79249 -0.00178
C 25.78148 19.16595 0.00768
C 25.81287 17.79739 -0.0276
C 24.59783 17.09915 0.03005
C 24.55894 15.53514 -0.04078
C 25.83958 14.91993 0.02117
C 25.84097 13.55486 0.02737
C 24.61219 12.81011 -0.00498
C 24.597 11.42302 0.00135
C 25.83475 10.61168 0.03102
C 25.8253 9.18695 0.02555
C 24.59815 8.50532 0.01423
C 24.59631 7.08603 -0.00285
C 25.83013 6.35925 -0.009
C 24.61333 4.29899 -0.00229
C 2.46583 32.66558 0.01218
