406
Graphene
C 0.00913 0.09197 0.01295
C 13.39431 5.2005 -0.02689
C 12.28694 4.48493 -0.01046
C 12.33617 3.08608 -0.00891
C 13.49504 2.29684 0.02819
C 13.44889 0.78893 0.00165
C 12.26688 0.00462 -0.02971
C 14.80952 32.68694 0.02894
C 16.01313 32.01687 -0.01789
C 15.99738 30.62356 0.00444
C 14.81028 29.91058 -0.00925
C 14.78922 28.4511 0.01877
C 15.94176 27.64857 0.01363
C 15.8932 26.26539 -0.02162
C 14.69007 25.5348 0.00415
C 14.77401 24.11597 -0.0014
C 15.96442 23.44603 0.02162
C 15.94355 21.99766 0.0076
C 14.59521 21.35238 0.01241
C 14.60357 19.87732 -0.01454
C 15.70553 19.24267 0.01945
C 14.79383 7.27222 0.01416
C 13.50095 6.76584 -0.01536
C 15.95289 6.54456 0.03542
C 12.274 7.24082 0.03101
C 12.21223 21.30851 -0.02245
C 9.82121 20.00798 0.00093
C 11.15109 19.31608 0.00057
C 9.73865 7.41868 -0.01634
C 10.99055 6.67523 -0.00334
C 10.98492 5.1999 0.02339
C 9.77339 4.41938 0.01641
C 9.84922 2.96828 -0.00719
C 11.05882 2.34852 0.01364
C 11.10176 0.7998 -0.01062
C 9.80151 0.10994 -0.00033
C 12.27162 32.71861 0.03589
C 13.51748 32.02096 -0.02759
C 13.51509 30.60695 0.0402
C 12.29844 29.91391 0.00572
C 12.2899 28.41761 0.03592
C 13.55788 27.72393 0.00406
C 13.5805 26.30785 0.00943
C 12.26079 25.61919 0.02841
C 12.23027 24.22296 -0.01111
C 13.49646 23.4421 -0.01275
C 13.38993 22.06915 0.00985
C 12.41567 19.8086 -0.00428
C 15.98726 5.05948 0.02299
C 14.65019 4.47017 0.00244
C 14.7168 3.05474 -0.01717
C 18.47719 0.6529 0.03505
C 17.22597 0.11794 -0.02815
C 19.72132 32.63973 -0.04147
C 20.92335 31.91925 -0.05302
C 20.85439 30.46816 0.00213
C 19.65812 29.72978 -0.00066
C 19.61081 28.36859 -0.00289
C 20.93841 27.63225 0.00028
C 20.80143 26.23102 -0.02213
C 19.62683 25.52053 0.03698
C 19.65966 24.04928 -0.00109
C 20.8724 23.3419 -0.00491
C 20.8056 21.93933 0.03338
C 19.62412 21.19254 -0.0258
C 19.54074 19.67154 -0.0331
C 20.79894 19.08278 -0.00316
C 20.79935 17.67522 0.02188
C 19.48855 16.83948 -0.01979
C 19.53432 15.51005 0.02691
C 20.81149 14.82723 -0.01581
C 20.76506 13.4223 0.01452
C 18.41227 2.11273 0.01443
C 17.196 2.87451 0.00979
C 17.22746 4.32762 -0.00481
C 18.46677 5.02125 0.00889
C 15.93449 2.27856 0.05265
C 15.92968 0.90472 -0.01952
C 14.75527 0.08972 -0.02813
C 17.21266 32.65512 0.00374
C 18.38138 31.90557 0.00052
C 18.41548 30.38765 -0.03682
C 17.17064 29.76456 0.01965
C 17.1683 28.28035 0.02058
C 18.41483 27.61449 -0.01957
C 18.41841 26.17606 -0.0108
C 9.73624 21.44975 0.01291
C 17.15685 25.5003 -0.00368
C 18.41638 23.37274 -0.00114
C 18.44274 21.96676 0.00228
C 17.17531 21.18543 0.00798
C 17.02781 19.71515 0.00422
C 18.30702 19.01484 0.0351
C 18.32023 17.6358 -0.03113
C 18.60816 9.34565 0.02098
C 17.31253 8.66252 0.01848
C 17.3015 7.32028 -0.00619
C 18.50414 6.43774 -0.02162
C 17.18353 24.10156 -0.02696
C 11.07725 22.04439 0.00438
C 11.02951 23.55283 -0.00191
C 9.80372 24.273 0.00373
C 2.44686 2.84525 0.00907
C 3.72087 2.23663 0.00643
C 3.6515 0.8262 -0.01509
C 2.45444 0.09997 0.03267
C 4.93663 32.84379 0.02374
C 6.12804 32.02423 0.00402
C 6.04743 30.63732 0.0073
C 4.80079 29.90499 0.0174
C 4.87743 28.47823 0.03828
C 6.14812 27.76517 0.01226
C 6.03246 26.38885 -0.00279
C 4.87366 25.58622 0.01996
C 4.89702 24.14301 -0.03996
C 6.07047 23.52516 0.01465
C 6.05539 22.1087 -0.00074
C 4.8985 21.36225 -0.00518
C 4.90597 19.91982 0.0086
C 6.07931 19.14491 -0.00643
C 6.18117 17.72364 0.017
C 4.92532 16.93382 -0.03113
C 4.84609 15.60104 -0.02566
C 2.47576 4.28056 0.02379
C 3.61229 5.02503 0.01402
C 3.61301 6.48327 -0.003
C 2.40859 7.19274 0.00031
C 3.59729 30.59439 -0.01386
C 2.39015 29.86555 -0.02805
C 2.39564 28.39108 0.00081
C 3.60517 27.663 0.00245
C 3.6012 26.28944 0.02728
C 2.33478 25.5107 -0.00039
C 2.32417 24.16413 0.0064
C 3.63448 23.47754 0.00211
C 3.61045 22.08369 -0.00449
C 2.43867 21.22344 -0.01979
C 6.19484 14.85967 -0.00094
C 2.43139 19.83235 0.02784
C 3.76578 17.69032 -0.00561
C 2.52143 17.02095 0.00208
C 2.40616 15.60744 0.01707
C 3.65932 14.8887 0.02769
C 3.72189 13.32486 -0.03291
C 2.48095 12.74291 -0.04999
C 2.38889 11.33948 0.04505
C 3.6374 10.62896 0.03284
C 3.59616 9.25959 -0.04307
C 2.44309 8.61052 0.03189
C 3.76056 19.12767 -0.01977
C 19.70185 12.6178 0.04892
C 6.13154 13.48296 0.02322
C 4.98578 11.33586 -0.05697
C 7.46091 17.02811 0.01572
C 7.35925 15.57948 -0.04848
C 7.49807 10.90414 -0.00892
C 8.16238 9.73163 -0.01362
C 7.21203 8.63863 -0.0008
C 7.34223 7.24596 0.0288
C 8.60827 6.59885 0.00393
C 8.62877 5.17309 0.00895
C 7.32405 4.47774 0.00685
C 7.42334 2.96548 0.02888
C 8.65968 2.23583 -0.00482
C 8.58323 0.81419 -0.01384
C 7.3357 0.10114 0.03693
C 9.79893 32.70588 0.01745
C 11.00365 32.04267 0.00488
C 11.02615 30.5557 -0.01004
C 9.74197 29.8 -0.02896
C 9.75418 28.46969 -0.00131
C 11.06761 27.70214 -0.01118
C 11.02718 26.32992 -0.014
C 9.74917 25.67357 0.02147
C 8.72658 17.83924 -0.00095
C 8.59268 19.22554 0.03007
C 7.35928 19.93054 0.00054
C 7.28826 21.38759 -0.00494
C 6.15865 10.60662 0.01087
C 6.02977 9.20739 -0.01343
C 4.77652 8.53598 0.00988
C 4.79399 7.19944 0.0276
C 6.07631 6.47765 0.01305
C 6.06721 5.05667 -0.00077
C 4.81761 4.31037 0.03368
C 4.88563 2.93249 -0.02929
C 6.16623 2.29979 -0.00966
C 6.13557 0.814 -0.03337
C 4.95655 12.69277 -0.00725
C 4.86302 0.14927 0.01227
C 8.60359 32.04448 -0.00049
C 8.56783 30.62764 0.00848
C 7.33333 29.97847 -0.01303
C 7.35178 28.60689 -0.01378
C 8.54529 27.78515 0.02635
C 8.53559 26.43336 0.0127
C 7.32838 25.63013 0.01396
C 7.27029 24.23419 0.01849
C 8.51464 23.50709 -0.01142
C 8.47515 22.14856 -0.00562
C 7.31467 32.75495 0.00873
C 19.692 11.22828 -0.00111
C 20.95544 10.61626 -0.03557
C 20.95595 9.18358 0.03754
C 29.48709 8.42993 -0.00971
C 29.46518 7.03496 0.01518
C 30.71515 6.41486 0.01908
C 30.70337 5.00882 0.07705
C 29.53596 4.17989 0.0103
C 29.57791 2.81832 0.02108
C 30.74776 2.08418 0.00716
C 30.75026 0.68772 0.00307
C 29.54563 0.00292 0.00346
C 31.91566 32.65841 0.01713
C 33.16093 31.89683 -0.01694
C 33.1223 30.51413 0.01428
C 31.89476 29.82371 -0.02142
C 31.94484 28.37614 0.0544
C 33.16093 27.67192 0.00026
C 33.07549 26.29744 0.00682
C 31.87206 25.50309 -0.01779
C 31.92474 24.11319 0.03794
C 33.14582 23.3846 0.01927
C 33.17307 21.97704 0.01574
C 31.95964 21.28912 -0.02383
C 30.74968 9.27247 -0.03735
C 30.71209 10.62401 -0.00944
C 29.46755 11.3417 -0.02155
C 29.43911 12.7689 -0.01461
C 28.31041 2.05456 0.01799
C 28.27721 0.67749 0.01699
C 27.03769 0.02241 -0.00416
C 29.48368 32.69859 0.01177
C 30.79768 31.9721 0.04266
C 30.70573 30.60094 0.01324
C 29.51408 29.79084 0.0014
C 29.47989 28.40413 0.00924
C 30.7189 27.65757 0.02326
C 30.67027 26.20433 0.00261
C 31.9646 19.91146 -0.01429
C 29.41553 25.5193 0.03265
C 30.75187 23.36825 -0.01854
C 30.6777 21.97848 -0.01415
C 29.47202 21.22737 -0.03039
C 29.36722 19.80839 0.01836
C 30.63116 19.17693 0.03531
C 30.67899 17.7478 -0.00669
C 29.42998 17.03115 0.0101
C 29.44312 15.57502 0.01705
C 30.73831 14.88795 -0.0405
C 30.74859 13.4818 -0.01303
C 29.51254 24.04326 -0.02049
C 27.05089 2.69696 0.01259
C 33.13775 19.20107 -0.0136
C 31.94753 17.06905 -0.02474
C 1.14988 22.05448 0.02712
C 34.40475 21.3347 -0.02213
C 34.35747 19.9672 0.01951
C 1.18494 19.16524 -0.01678
C 1.24746 17.63022 0.01223
C 0.00113 16.99132 0.00648
C 34.34453 15.59859 0.02114
C 1.13013 14.91604 -0.02957
C 1.25689 13.51223 0.00343
C 34.36312 12.80537 -0.02656
C 34.30908 11.41539 -0.02442
C 1.0271 10.65396 -0.00027
C 1.19492 9.22242 -0.00583
C 34.4197 8.4174 -0.02302
C 34.429 7.02169 -0.02849
C 1.19614 6.3762 0.02931
C 1.21494 4.97558 0.00628
C 0.00067 4.23203 -0.0345
C 0.01309 2.86051 -0.00931
C 1.21302 2.13467 -0.00939
C 1.23455 0.76467 -0.00468
C 1.13061 23.45927 0.00723
C 34.31562 24.14859 0.03076
C 34.32942 25.63021 -0.05239
C 1.16753 26.22974 -0.00598
C 31.98655 15.53216 0.00369
C 33.15552 14.84672 0.00455
C 33.12415 13.40756 -0.00644
C 31.87877 12.7129 -0.01839
C 31.8792 11.27522 0.00137
C 33.16184 10.61416 0.00199
C 33.21429 9.19729 0.04381
C 31.95675 8.48417 0.02806
C 31.98144 7.09719 0.01504
C 33.24161 6.38662 -0.00069
C 33.10433 17.79366 0.00594
C 33.17361 4.97183 0.04926
C 31.95342 2.89393 0.00349
C 33.18367 2.19773 -0.00323
C 33.15388 0.82047 -0.00841
C 31.98731 0.07564 0.0001
C 34.36032 32.71112 -0.02927
C 1.10424 32.02818 -0.01404
C 1.17273 30.52314 0.01027
C 34.37036 29.79589 0.01831
C 0.00624 28.45495 -0.01037
C 1.20157 27.71946 -0.00439
C 31.85593 4.28472 -0.03838
C 3.63458 32.11401 -0.0059
C 27.0517 4.12467 0.01495
C 28.24852 6.28781 0.01094
C 23.37786 14.91818 -0.01527
C 23.36519 13.44826 0.01087
C 22.09604 12.78798 0.00199
C 22.15824 11.38099 0.01511
C 23.34776 10.72618 -0.00478
C 23.31335 9.28535 -0.01662
C 22.11748 8.46863 -0.01185
C 22.19768 7.01932 0.01126
C 23.37978 6.39287 0.01852
C 23.43575 4.96425 -0.00381
C 22.13893 4.2174 0.03046
C 22.138 2.83644 0.0296
C 23.3419 2.14814 0.03374
C 23.36646 0.74423 -0.02845
C 22.09132 34.01291 -0.03213
C 24.61187 32.72649 0.02239
C 25.81044 31.9184 0.01153
C 25.74907 30.48279 0.02734
C 24.601 29.76684 -0.0055
C 24.55121 28.3045 0.01515
C 25.73183 27.55931 -0.00225
C 22.00761 15.52176 0.00096
C 22.03416 16.96922 0.01277
C 23.25447 17.6777 -0.02422
C 23.26766 19.10453 -0.01721
C 19.68295 8.52086 0.01739
C 19.65387 7.10164 0.00755
C 20.93066 6.37135 -0.0054
C 20.8462 5.0012 0.00667
C 19.64582 4.29599 0.00143
C 19.61887 2.86855 -0.017
C 20.90081 2.19232 0.00364
C 20.87237 0.69386 -0.00831
C 19.70797 34.02098 -0.02957
C 22.12496 32.61373 -0.04422
C 25.6866 26.16144 0.00071
C 23.39369 31.95875 0.00654
C 22.15076 29.79895 -0.04076
C 22.11705 28.31591 -0.00652
C 23.35756 27.5729 0.0058
C 23.25583 26.2285 -0.00865
C 22.00696 25.43854 0.00675
C 22.04978 24.03307 -0.00311
C 23.30622 23.40214 0.00742
C 23.26014 21.94919 -0.01594
C 22.12211 21.17282 0.0106
C 22.12477 19.79088 -0.01154
C 23.3428 30.48852 -0.00703
C 28.34499 4.8714 0.00235
C 24.4759 25.53394 -0.01107
C 25.8284 23.50504 -0.01971
C 27.03972 28.33987 0.00996
C 28.29583 27.63077 0.00195
C 28.20037 26.25543 -0.00802
C 26.976 25.574 -0.00218
C 27.03321 24.17381 -0.01654
C 28.2371 23.35595 -0.00037
C 28.26587 21.94976 -0.0032
C 26.95447 21.26198 0.00622
C 26.95745 19.84405 -0.02815
C 28.16255 19.11798 -0.00942
C 28.18507 17.67148 0.00487
C 26.88555 17.00489 0.00826
C 26.94678 15.5986 -0.00294
C 28.26414 14.96928 0.00152
C 28.24259 13.48243 0.01257
C 26.96003 12.66278 0.02316
C 27.01491 11.26185 0.04185
C 28.1807 10.63044 0.00194
C 28.16403 9.17388 -0.00621
C 27.00185 8.42694 0.02611
C 27.018 6.99097 0.02198
C 27.07793 29.80145 0.04306
C 28.28537 30.52599 0.00367
C 28.31008 31.91934 -0.01679
C 27.04113 32.65109 -0.01052
C 25.81987 22.05407 -0.02118
C 24.51312 21.29449 0.00733
C 24.53452 19.81681 -0.00178
C 25.76692 19.14755 0.00768
C 25.74581 17.7846 -0.0276
C 24.50289 17.01372 0.03005
C 24.50226 15.54077 -0.04078
C 25.7279 14.90666 0.02117
C 25.7586 13.45113 0.02737
C 24.51112 12.78205 -0.00498
C 24.52559 24.07985 -0.01586
C 24.4806 11.39349 0.00135
C 25.74492 9.21533 0.02555
C 24.53922 8.55341 0.01423
C 24.6065 7.08008 -0.00285
C 25.82453 6.34962 -0.009
C 25.89856 4.88179 -0.01199
C 24.63931 4.26034 -0.00229
C 24.63859 2.86248 -0.00938
C 25.7765 2.12044 -0.0264
C 25.82901 0.73884 -0.01154
C 24.59065 0.03582 0.00684
C 25.77745 10.62865 0.03102
C 2.43922 32.72225 0.00558
