389
Graphene
C 4e-05 34.07643 0.01295
C 14.81034 25.67994 -0.02162
C 14.79669 24.37174 0.00415
C 16.07341 23.61014 -0.0014
C 15.79915 22.24695 0.02162
C 14.83896 21.35119 0.0076
C 15.22334 20.09937 0.01241
C 15.25368 18.78983 -0.01454
C 15.86834 17.57807 0.01945
C 14.66992 16.81399 0.01416
C 15.9933 26.38065 0.01363
C 14.582 15.5478 0.03542
C 15.98388 13.46828 0.00244
C 14.84104 12.70875 -0.01717
C 14.8171 11.24402 0.05265
C 15.93756 10.52951 -0.01952
C 15.87321 9.0311 -0.02813
C 14.84449 8.07435 0.00374
C 15.85083 6.44194 0.00052
C 15.72856 5.0654 -0.03682
C 14.6529 4.10208 0.01965
C 15.90183 14.87071 0.02299
C 14.8595 2.72728 0.02058
C 16.07365 27.82301 0.01877
C 14.71297 29.85793 0.00444
C 12.21534 29.88534 0.00572
C 12.25685 28.48252 0.03592
C 13.54296 27.79817 0.00406
C 13.51798 26.40263 0.00943
C 12.29924 25.70966 0.02841
C 12.34843 24.26885 -0.01111
C 13.66765 23.60555 -0.01275
C 13.70647 22.3022 0.00985
C 13.44149 14.68208 -0.02245
C 14.83216 28.44031 -0.00925
C 13.58469 13.28655 -0.00428
C 12.31753 11.20891 -0.01536
C 13.5815 10.62772 -0.02689
C 12.47587 2.93528 -0.01046
C 13.51232 2.0266 -0.00891
C 13.48596 0.66443 0.02819
C 12.19099 0.08001 0.00165
C 14.72233 32.64616 -0.02971
C 16.02501 32.01298 0.02894
C 16.04083 30.60594 -0.01789
C 12.32287 12.68123 0.03101
C 16.10037 2.0348 -0.01957
C 15.93237 0.71951 -0.0108
C 14.73358 34.06633 -0.00368
C 18.45938 0.72603 -0.00109
C 17.25286 0.00622 -0.00491
C 19.57448 32.66522 0.03338
C 20.84257 31.88039 -0.0258
C 20.94396 30.50163 -0.0331
C 19.69949 29.86177 -0.00316
C 19.70205 28.39699 0.02188
C 20.89135 27.72012 -0.01979
C 20.95755 26.26088 0.02691
C 18.4938 2.16506 0.03698
C 19.78259 25.51628 -0.01581
C 19.62725 17.2167 0.04892
C 19.63164 15.74219 -0.00111
C 20.86161 14.94613 -0.03557
C 20.87983 13.44915 0.03754
C 19.65371 12.68661 0.01739
C 19.66088 11.30219 0.00755
C 20.8591 10.56377 -0.0054
C 20.80353 9.16659 0.00667
C 19.5535 8.464 0.00143
C 20.87673 17.7385 0.01452
C 17.24193 2.86702 -0.02213
C 17.12746 4.24615 0.00028
C 18.36782 4.89042 -0.00289
C 17.23132 32.71585 -0.02696
C 18.36585 31.92575 -0.00114
C 18.48501 30.50699 0.00228
C 17.19867 29.8778 0.00798
C 17.29353 28.45156 0.00422
C 18.48869 27.7035 0.0351
C 18.53451 26.25967 -0.03113
C 17.24736 25.69453 0.02098
C 17.24294 24.30182 0.01848
C 18.24225 17.64211 -0.00619
C 17.12844 16.9434 -0.02162
C 17.15858 15.50138 0.00889
C 18.42517 14.92857 -0.00481
C 18.38836 13.49441 0.00979
C 17.16336 12.7504 0.01443
C 17.11425 11.30067 0.03505
C 18.3729 10.56776 -0.02815
C 18.32963 9.13879 -0.04147
C 17.16121 8.43684 -0.05302
C 17.13682 6.98135 0.00213
C 18.43528 6.27778 -0.00066
C 13.53086 30.54249 0.0402
C 13.46542 32.06545 -0.02759
C 12.23513 32.71803 0.03589
C 9.80392 0.07473 -0.00033
C 4.82457 32.70367 0.0086
C 6.04397 32.00302 -0.00643
C 6.07411 30.5049 0.017
C 4.8546 29.85327 -0.03113
C 4.86766 28.45097 -0.02566
C 6.12363 27.72816 -0.00094
C 6.21062 26.283 0.02322
C 4.96153 25.62415 -0.00725
C 5.00238 24.14074 -0.05697
C 2.38041 0.06964 -0.00518
C 6.16323 23.49648 0.01087
C 5.16141 21.43536 0.00988
C 4.75835 20.11597 0.0276
C 4.77765 16.95076 0.01305
C 5.56956 16.01928 -0.00077
C 5.32478 14.40866 0.03368
C 6.15985 13.50492 -0.02929
C 4.793 11.24546 -0.00966
C 6.09703 10.67965 -0.03337
C 6.09467 9.14164 0.01227
C 6.33069 22.13663 -0.01343
C 3.61128 0.75176 -0.00074
C 3.61483 2.11126 0.01465
C 2.40655 2.92606 -0.03996
C 3.65365 30.5303 -0.04999
C 2.47685 29.80471 0.04505
C 2.43526 28.43378 0.03284
C 3.71986 27.70017 -0.04307
C 3.71275 26.28096 0.03189
C 2.4884 25.60717 0.00031
C 2.5103 24.09648 -0.003
C 3.81547 23.40569 0.01402
C 3.83601 21.95633 0.02379
C 2.49414 21.36105 0.00907
C 2.39471 19.9857 0.00643
C 3.67264 19.3746 -0.01509
C 3.57694 17.9337 0.03267
C 2.43405 17.13324 0.02374
C 3.6667 10.60866 0.00402
C 3.62968 9.26618 0.0073
C 2.3933 8.55097 0.0174
C 2.42238 7.21915 0.03828
C 3.61277 6.46119 0.01226
C 3.63118 4.98189 -0.00279
C 2.40854 4.29154 0.01996
C 4.84828 8.61495 0.00873
C 19.60741 7.0033 -0.017
C 4.828 7.14409 -0.00049
C 6.16589 5.02041 -0.01303
C 8.62917 2.24606 0.00488
C 8.59998 0.73234 -0.01004
C 7.3866 0.08916 -0.02896
C 9.75905 32.71306 -0.00131
C 10.9915 31.95067 -0.01118
C 11.01101 30.56185 -0.014
C 9.8062 29.86292 0.02147
C 9.7691 28.48266 0.00373
C 11.03559 27.7112 -0.00191
C 7.3755 2.90511 0.01745
C 11.06012 26.32693 0.00438
C 9.87767 24.00424 0.00093
C 11.17506 23.53485 0.00057
C 11.22931 13.51505 -0.01634
C 9.9197 13.38107 -0.00334
C 9.85845 11.2203 0.02339
C 10.98818 10.7838 0.01641
C 9.81518 2.95432 -0.00719
C 11.03483 2.31951 0.01364
C 10.99301 0.88306 -0.01062
C 9.91359 25.4795 0.01291
C 7.40809 4.40259 0.03693
C 8.40231 5.38014 -0.01384
C 7.48353 6.89323 -0.00482
C 4.844 4.30338 -0.01378
C 4.93038 2.90237 0.02635
C 6.18488 2.20035 0.0127
C 6.15421 0.81374 0.01396
C 4.85192 0.12093 0.01849
C 7.26526 32.72373 -0.01142
C 8.56604 31.94747 -0.00562
C 8.5781 30.50334 -0.00494
C 7.32119 29.95986 0.00054
C 7.35179 28.46111 0.03007
C 8.60508 27.71114 -0.00095
C 8.6182 26.30219 0.01572
C 7.4094 25.61318 -0.04848
C 7.3784 24.24589 -0.00892
C 8.55214 23.5964 -0.01362
C 8.6348 13.43844 -0.0008
C 7.39125 12.78282 0.0288
C 7.30017 11.39378 0.00393
C 8.50541 10.75165 0.00895
C 8.4428 9.31454 0.00685
C 7.45134 8.35231 0.02888
C 6.02692 6.4309 0.00848
C 3.62738 32.02222 -0.03291
C 20.82588 6.31225 0.00364
C 19.62623 4.20003 -0.02957
C 29.4904 7.12548 0.07705
C 30.71539 6.42103 0.0103
C 30.68872 4.96782 0.02108
C 29.47701 4.26953 0.00716
C 29.4889 2.8681 0.00307
C 30.70698 2.13193 0.00346
C 30.70708 0.6993 0.01713
C 29.42251 34.06997 -0.01694
C 31.90455 32.60902 0.01428
C 29.46263 8.54058 0.01908
C 33.18986 31.88036 -0.02142
C 31.96801 29.80524 0.00026
C 31.97462 28.37119 0.00682
C 33.2507 27.64954 -0.01779
C 33.21775 26.24408 0.03794
C 31.95607 25.57185 0.01927
C 31.99776 24.16693 0.01574
C 33.16519 23.44498 -0.02383
C 33.24517 22.06735 -0.01429
C 32.04373 21.22016 -0.0136
C 33.17153 30.49692 0.0544
C 32.09212 19.88276 0.00594
C 30.62411 9.22901 0.01518
C 29.42973 11.36829 -0.03735
C 29.44779 32.64175 0.01324
C 30.73734 31.8848 0.0014
C 30.68972 30.50607 0.00924
C 29.50357 29.79035 0.02326
C 29.47924 28.33453 0.00261
C 30.67119 27.64365 0.03265
C 30.74601 26.23359 -0.02049
C 29.56135 25.47872 -0.01854
C 29.55438 24.11687 -0.01415
C 30.66256 10.66831 -0.00971
C 30.83697 23.41515 -0.03039
C 29.61714 21.2379 0.03531
C 29.50487 19.91292 -0.00669
C 30.77888 19.21465 0.0101
C 30.72665 17.80085 0.01705
C 29.54416 17.06728 -0.0405
C 29.49638 15.66572 -0.01303
C 30.68648 14.88598 -0.01461
C 30.62728 13.51856 -0.02155
C 29.39557 12.78593 -0.00944
C 30.88434 22.03899 0.01836
C 33.28064 19.15856 -0.02474
C 33.2706 17.69675 0.00369
C 31.97384 17.03959 0.00455
C 1.29829 23.50085 -0.02213
C 1.2899 22.04553 0.01951
C 34.40712 21.29487 -0.01678
C 0.0513 19.92445 0.01223
C 1.21531 19.13043 0.00648
C 1.23197 17.8074 0.02114
C 0.02238 17.00003 -0.02957
C 34.42407 15.64212 0.00343
C 34.29605 12.89766 -0.02656
C 0.03563 24.12586 0.02712
C 0.08507 11.48565 -0.02442
C 1.1325 9.22739 -0.00583
C 34.30167 8.52343 -0.02302
C 34.35441 7.16129 -0.02849
C 1.19878 6.43533 0.02931
C 1.18801 5.03538 0.00628
C 34.36414 4.30658 -0.0345
C 34.35339 2.86991 -0.00931
C 1.15688 2.18346 -0.00939
C 1.14516 0.74501 -0.00468
C 1.13809 10.6051 -0.00027
C 34.39116 25.55068 0.00723
C 1.20765 26.2901 0.03076
C 1.23276 27.72877 -0.05239
C 31.88377 15.685 -0.00644
C 33.18139 14.98609 -0.01839
C 33.06315 13.56072 0.00137
C 31.80437 12.80941 0.00199
C 31.90966 11.35627 0.04381
C 33.22701 10.74317 0.02806
C 33.10557 9.30799 0.01504
C 31.88425 8.5464 -0.00069
C 31.92609 7.09957 0.04926
C 33.15238 6.41544 -0.03838
C 33.1297 4.96828 0.00349
C 31.91578 4.3298 -0.00323
C 31.94092 2.80278 -0.00841
C 33.13305 2.15333 0.0001
C 33.12782 0.70928 -0.02927
C 31.96738 34.01699 -0.01404
C 34.42975 32.62276 0.01027
C 1.1333 31.92443 0.01831
C 1.20291 30.54855 -0.01037
C 34.41447 29.83605 -0.00439
C 0.01131 28.36195 -0.00598
C 26.96674 0.04413 0.04266
C 28.22549 0.6957 0.01177
C 28.2303 2.12791 -0.00416
C 27.04831 2.83159 0.01699
C 22.02782 8.50955 0.01852
C 22.04535 7.06324 -0.00381
C 23.26023 6.38696 0.03046
C 23.33436 4.99635 0.0296
C 22.18448 4.25981 0.03374
C 22.13741 2.82258 -0.02845
C 23.3033 2.09576 -0.03213
C 23.31232 0.68574 0.02239
C 22.08199 34.03763 0.01153
C 23.25639 9.22232 0.01126
C 24.55808 32.65957 0.02734
C 25.78387 30.49064 0.01515
C 24.57322 29.83494 -0.00225
C 24.59151 28.39733 0.00071
C 25.85841 27.53199 -0.01107
C 25.89242 26.12958 -0.01586
C 24.56861 25.50299 -0.01971
C 24.555 24.04682 -0.02118
C 25.81274 23.33859 0.00733
C 25.94667 21.97039 -0.00178
C 25.79041 31.93218 -0.0055
C 23.31619 10.63498 -0.01185
C 22.02617 11.29431 -0.01662
C 22.0651 12.76726 -0.00478
C 19.68779 2.80206 -0.04422
C 20.92255 2.14764 0.00654
C 20.90367 0.68327 -0.00703
C 19.63769 34.06164 -0.04076
C 22.1261 32.62216 -0.00652
C 23.34377 31.93723 0.0058
C 23.40755 30.55362 -0.00865
C 22.14897 29.77745 0.00675
C 22.08506 28.39221 -0.00311
C 23.41594 27.71675 0.00742
C 23.4124 26.25604 -0.01594
C 22.14617 25.55629 0.0106
C 22.25836 24.22457 -0.01154
C 23.34606 23.26469 -0.01721
C 23.40154 21.92708 -0.02422
C 23.36134 19.28526 0.01277
C 23.34845 17.87674 0.00096
C 22.08233 17.07964 -0.01527
C 22.09118 15.64245 0.01087
C 23.24481 14.94999 0.00199
C 23.28429 13.47199 0.01511
C 24.68403 21.28455 0.00768
C 20.85166 4.91845 -0.00831
C 24.67017 19.80713 -0.0276
C 25.83593 17.7857 -0.04078
C 27.09256 24.03698 -0.0032
C 28.35251 23.38906 0.00622
C 28.37803 21.98525 -0.02815
C 27.23231 21.31485 -0.00942
C 27.0799 19.85926 0.00487
C 28.37486 19.20419 0.00826
C 28.26497 17.78242 -0.00294
C 27.02106 17.02754 0.00152
C 26.94585 15.60516 0.01257
C 27.07427 25.43637 -0.00037
C 28.14126 14.98721 0.02316
C 26.9959 12.76486 0.00194
C 26.96049 11.35869 -0.00621
C 28.24528 10.68355 0.02611
C 28.18409 9.26665 0.02198
C 27.06921 8.4715 0.01094
C 26.97651 7.07709 0.00235
C 28.23867 6.40573 0.01495
C 28.21599 5.01629 0.01259
C 27.06264 4.23533 0.01799
C 28.22207 13.51052 0.04185
C 28.31416 26.2302 -0.01654
C 28.26655 27.58701 -0.00218
C 27.07321 28.3544 -0.00802
C 24.54784 17.08823 0.02117
C 24.49008 15.67924 0.02737
C 25.73007 14.95916 -0.00498
C 25.78994 13.45229 0.00135
C 24.48904 12.76152 0.03102
C 24.49814 11.37274 0.02555
C 25.71311 10.63566 0.01423
C 25.72171 9.1749 -0.00285
C 24.49022 8.44454 -0.009
C 24.49812 7.07356 -0.01199
C 25.77589 6.35772 -0.00229
C 25.82203 4.91005 -0.00938
C 24.59027 4.18979 -0.0264
C 24.5594 2.81887 -0.01154
C 25.80401 2.12716 0.00684
C 25.7859 0.69775 -0.01052
C 24.61218 34.06585 -0.01679
C 27.0376 32.67406 0.00367
C 28.21873 31.91174 0.04306
C 28.26151 30.43973 0.00996
C 26.97697 29.74765 0.00195
C 25.88667 19.17542 0.03005
C 2.44192 32.73607 0.02769
