401
Graphene
C 34.35491 0.06564 0.01295
C 12.17069 32.7325 0.00165
C 13.48071 31.89772 -0.02971
C 13.42562 30.55832 0.02894
C 12.19396 29.89437 -0.01789
C 12.07834 28.39497 0.00444
C 13.40136 27.7531 -0.00925
C 13.52101 26.3572 0.01877
C 12.29564 25.60774 0.01363
C 12.32773 24.24182 -0.02162
C 13.55229 23.5219 0.00415
C 13.50047 22.02906 -0.0014
C 12.30574 21.29187 0.02162
C 12.32894 19.80337 0.0076
C 13.53402 19.1756 0.01241
C 13.62534 17.71376 -0.01454
C 12.32549 17.07815 0.01945
C 12.27387 15.66539 0.01416
C 13.50966 14.93841 0.03542
C 13.39758 13.56533 0.02299
C 12.30029 12.83038 0.00244
C 12.35368 11.40637 -0.01717
C 9.73668 0.17286 0.02819
C 13.59302 10.59046 0.05265
C 11.02073 0.76225 -0.00891
C 9.73228 2.87104 -0.02689
C 9.782 25.62053 0.02339
C 9.76019 24.16559 0.01641
C 11.06019 23.48018 -0.00719
C 11.08423 22.01554 0.01364
C 9.86073 21.29912 -0.01062
C 9.81977 19.85586 -0.00033
C 11.09459 19.08385 0.03589
C 11.12281 17.72599 -0.02759
C 9.90337 16.92801 0.0402
C 9.84934 15.59056 0.00572
C 11.08603 14.87343 0.03592
C 11.05764 13.47746 0.00406
C 9.80648 12.74843 0.00943
C 9.87178 11.39614 0.02841
C 11.14389 10.67305 -0.01111
C 11.08666 9.30548 -0.01275
C 9.92601 8.56958 0.00985
C 9.84818 7.14411 -0.02245
C 10.99736 6.41241 -0.00428
C 11.07415 5.02329 0.03101
C 9.81911 4.31027 -0.01536
C 11.06969 2.15197 -0.01046
C 10.98946 26.25592 -0.00334
C 13.60858 9.21773 -0.01952
C 12.32704 7.13451 0.00374
C 16.06397 13.43083 -0.05302
C 14.75433 12.8111 0.00213
C 14.85251 11.3608 -0.00066
C 16.05358 10.63731 -0.00289
C 16.03247 9.28498 0.00028
C 14.82288 8.52034 -0.02213
C 14.78078 7.15482 0.03698
C 15.95845 6.3821 -0.00109
C 16.01764 4.99534 -0.00491
C 14.76293 4.34236 0.03338
C 14.80855 2.9318 -0.0258
C 15.9789 2.18177 -0.0331
C 15.88025 0.79277 -0.00316
C 14.63732 0.04608 0.02188
C 17.06099 32.63692 -0.01979
C 18.35223 31.98252 0.02691
C 18.38975 30.51194 -0.01581
C 17.16106 29.81722 0.01452
C 17.09489 28.40063 0.04892
C 18.31426 27.66948 -0.00111
C 18.33579 26.23832 -0.03557
C 16.07319 14.89752 -0.04147
C 12.33316 8.55182 -0.02813
C 14.79736 15.58481 -0.02815
C 16.08616 17.66844 0.01443
C 13.55213 6.41666 0.00052
C 13.52579 5.0264 -0.03682
C 12.28325 4.35341 0.01965
C 12.32938 2.9041 0.02058
C 13.50018 2.22353 -0.01957
C 13.42696 0.77761 -0.0108
C 12.18622 0.03273 -0.00368
C 14.65007 32.62373 -0.02696
C 15.83192 31.91581 -0.00114
C 15.87845 30.49897 0.00228
C 14.61061 29.84805 0.00798
C 14.63055 28.4926 0.00422
C 15.94472 27.71456 0.0351
C 15.9554 26.30472 -0.03113
C 14.73026 25.61972 0.02098
C 14.80097 24.16682 0.01848
C 16.0646 23.42487 -0.00619
C 15.99921 21.98984 -0.02162
C 14.70296 21.30451 0.00889
C 14.82524 19.84476 -0.00481
C 16.00933 19.13448 0.00979
C 14.86505 17.07554 0.03505
C 10.90453 27.69985 -0.01634
C 9.68586 28.37306 0.00057
C 9.7946 29.89601 0.00093
C 2.47953 4.34034 0.02374
C 2.41873 2.86556 0.00402
C 3.6412 2.20714 0.0073
C 3.62433 0.78806 0.0174
C 2.40016 0.05594 0.03828
C 4.84606 32.81537 0.01226
C 5.97328 32.01171 -0.00279
C 6.0226 30.53501 0.01996
C 4.78348 29.89436 -0.03996
C 4.83759 28.39868 0.01465
C 6.09396 27.80202 -0.00074
C 6.11012 26.33207 -0.00518
C 4.87884 25.58994 0.0086
C 4.88984 24.06464 -0.00643
C 6.08849 23.46764 0.017
C 6.13259 22.04469 -0.03113
C 4.929 21.3545 -0.02566
C 4.92704 19.92462 -0.00094
C 6.13127 19.18364 0.02322
C 6.25024 17.79414 -0.00725
C 4.92949 16.95588 -0.05697
C 3.69253 5.11543 0.03267
C 4.81351 15.62044 0.01087
C 3.65843 6.48888 -0.01509
C 2.36496 8.62005 0.00907
C 3.60875 30.5935 -0.00039
C 2.38891 29.80772 0.0064
C 2.41321 28.41813 0.00211
C 3.58476 27.60612 -0.00449
C 3.606 26.17875 -0.01979
C 2.40713 25.44222 0.02784
C 2.37437 24.01451 -0.01977
C 3.61827 23.41497 -0.00561
C 3.6035 22.01731 0.00208
C 2.45515 21.24331 0.01707
C 2.44761 19.86049 0.02769
C 3.72212 19.16111 -0.03291
C 3.67127 17.68869 -0.04999
C 2.36906 16.95187 0.04505
C 2.24888 15.50799 0.03284
C 3.53507 14.92149 -0.04307
C 3.59354 13.51305 0.03189
C 2.35457 12.78671 0.00031
C 2.44093 11.38829 -0.003
C 3.62026 10.72818 0.01402
C 3.63335 9.3155 0.02379
C 2.37155 7.11337 0.00643
C 6.09357 14.96678 -0.01343
C 6.01843 13.52404 0.00988
C 4.80841 12.81418 0.0276
C 8.70043 17.78614 -0.0008
C 7.38847 17.12543 0.0288
C 7.31653 15.64607 0.00393
C 8.61411 14.86678 0.00895
C 8.54685 13.51773 0.00685
C 7.2883 12.76128 0.02888
C 7.34674 11.37661 -0.00482
C 8.54815 10.61009 -0.01384
C 8.60821 9.2301 0.03693
C 7.33478 8.55939 0.01745
C 7.31913 7.16484 0.00488
C 8.60628 6.43946 -0.01004
C 8.6744 5.04505 -0.02896
C 7.29249 4.42397 -0.00131
C 7.24744 2.97303 -0.01118
C 8.44863 2.2259 -0.014
C 8.5147 0.76786 0.02147
C 7.26513 0.07321 0.00373
C 9.7102 32.78202 -0.00191
C 10.95055 32.05153 0.00438
C 11.03558 30.6133 0.01291
C 8.57123 19.15684 -0.01362
C 7.31162 19.85637 -0.00892
C 7.31126 21.27258 -0.04848
C 8.62746 21.94981 0.01572
C 4.886 11.39027 0.01305
C 6.07741 10.68859 -0.00077
C 6.1335 9.26652 0.03368
C 4.90637 8.54153 -0.02929
C 4.85485 7.25533 -0.00966
C 6.04858 6.53851 -0.03337
C 6.10661 5.07434 0.01227
C 4.88392 4.34711 0.00873
C 4.80168 2.88837 -0.00049
C 6.03918 2.29111 0.00848
C 17.1616 25.58679 0.03754
C 6.11946 0.83532 -0.01303
C 7.21532 32.74832 0.02635
C 8.50395 32.06599 0.0127
C 8.6119 30.62673 0.01396
C 7.32818 29.90336 0.01849
C 7.3797 28.57085 -0.01142
C 8.52862 27.71381 -0.00562
C 8.60883 26.32163 -0.00494
C 7.36408 25.54938 0.00054
C 7.37288 24.15091 0.03007
C 8.63618 23.44433 -0.00095
C 4.83476 0.12385 -0.01378
C 3.59497 32.06193 0.02728
C 17.20477 24.1106 0.01739
C 18.4827 22.03185 -0.0054
C 29.44699 25.50895 0.01518
C 29.49306 24.14635 0.01908
C 30.77181 23.36139 0.07705
C 30.67059 22.01317 0.0103
C 29.51684 21.3535 0.02108
C 29.55916 19.8998 0.00716
C 30.78875 19.13994 0.00307
C 30.72706 17.804 0.00346
C 29.46766 17.08817 0.01713
C 29.07784 15.67591 -0.01694
C 30.40698 15.04201 0.01428
C 29.49593 2.87397 -0.02142
C 30.66284 2.12176 0.0544
C 30.61274 0.73385 0.00026
C 29.34274 0.02811 0.00682
C 31.90949 32.64354 -0.01779
C 33.11414 31.9344 0.03794
C 33.10212 30.52249 0.01927
C 31.778 29.79623 0.01574
C 31.85345 28.39009 -0.02383
C 33.17549 27.71028 -0.01429
C 30.69586 26.20797 -0.00971
C 33.1582 26.24902 -0.0136
C 30.63285 27.63527 -0.03735
C 29.43376 29.77643 -0.02155
C 26.99264 29.86628 -0.00416
C 26.90749 28.37834 0.01177
C 28.18925 27.66351 0.04266
C 28.16398 26.27528 0.01324
C 26.98484 25.63366 0.0014
C 26.99917 24.14972 0.00924
C 28.2332 23.45985 0.02326
C 28.27775 22.01017 0.00261
C 27.01248 21.30537 0.03265
C 27.04317 19.88657 -0.02049
C 28.30919 19.23551 -0.01854
C 28.29185 17.77207 -0.01415
C 27.17494 16.9256 -0.03039
C 27.75125 15.5718 0.01836
C 26.88566 2.79039 0.03531
C 28.1557 2.25748 -0.00669
C 28.19215 0.77379 0.0101
C 26.94892 0.05879 0.01705
C 29.42011 32.71976 -0.0405
C 30.6845 32.03751 -0.01303
C 30.60057 30.53227 -0.01461
C 29.38869 28.35474 -0.00944
C 28.22322 30.48942 0.01699
C 31.88176 25.57481 0.00594
C 33.21118 23.37432 0.00369
C 1.22015 21.99304 0.02712
C 34.37139 21.26494 -0.02213
C 34.3692 19.9131 0.01951
C 1.22754 19.16893 -0.01678
C 1.18853 17.76784 0.01223
C 34.43013 16.99408 0.00648
C 34.25967 15.63725 0.02114
C 1.01771 14.85868 -0.02957
C 1.05396 13.49947 0.00343
C 34.15844 12.69329 -0.02656
C 34.31025 11.35646 -0.02442
C 1.1596 10.70635 -0.00027
C 1.136 9.25576 -0.00583
C 34.42603 8.59379 -0.02302
C 0.02603 7.22225 -0.02849
C 1.11296 6.42361 0.02931
C 1.22307 4.99193 0.00628
C 34.36709 4.31941 -0.0345
C 34.38088 2.82719 -0.00931
C 1.14486 2.15568 -0.00939
C 1.19227 0.76238 -0.00468
C 1.20315 23.31668 0.00723
C 31.94496 24.10251 -0.02474
C 34.37862 24.09832 0.03076
C 1.20832 26.30689 -0.00598
C 33.18035 21.95324 0.00455
C 31.95083 21.24369 -0.00644
C 31.99637 19.79103 -0.01839
C 33.16718 19.15211 0.00137
C 33.19684 17.73836 0.00199
C 31.9482 17.11521 0.04381
C 31.74873 15.65957 0.02806
C 32.92129 14.89737 0.01504
C 33.06501 13.51544 -0.00069
C 33.15236 4.97236 0.04926
C 32.03438 4.2931 -0.03838
C 31.98592 2.93428 0.00349
C 33.25717 2.11429 -0.00323
C 33.11989 0.74599 -0.00841
C 31.90684 0.02241 0.0001
C 34.30021 32.6824 -0.02927
C 1.11927 32.03457 -0.01404
C 1.17394 30.56859 0.01027
C 34.38944 29.84129 0.01831
C 0.01523 28.40256 -0.01037
C 1.17585 27.6666 -0.00439
C 34.35463 25.55078 -0.05239
C 28.26117 31.95667 0.01799
C 27.07966 32.75189 0.01259
C 24.56847 0.01015 0.01495
C 19.55883 28.35123 0.00199
C 20.86136 27.66965 0.01511
C 20.76023 26.29239 -0.00478
C 19.60114 25.53431 -0.01662
C 19.77901 24.08532 -0.01185
C 20.9658 23.41665 0.01126
C 20.92035 21.994 0.01852
C 19.74167 21.31546 -0.00381
C 19.76604 19.90248 0.03046
C 20.98847 19.16622 0.0296
C 20.87021 17.72431 0.03374
C 19.72872 17.01376 -0.02845
C 19.71695 15.64352 -0.03213
C 21.00988 14.98072 0.02239
C 21.19237 13.49632 0.01153
C 19.82623 12.80755 0.02734
C 19.76768 11.45146 -0.0055
C 20.84516 10.55223 0.01515
C 20.87396 9.26446 -0.00225
C 19.80559 8.52285 0.00071
C 19.78466 7.1344 -0.01107
C 19.54201 29.72976 0.01087
C 21.00865 6.42821 -0.01586
C 20.83872 30.48659 -0.01527
C 19.53155 32.62721 0.01277
C 17.1904 21.28022 0.00667
C 17.22465 19.87243 0.00143
C 18.49259 19.14097 -0.017
C 18.47819 17.79069 0.00364
C 17.31264 16.96311 -0.00831
C 17.29319 15.59219 -0.02957
C 18.5005 14.90156 -0.04422
C 18.52913 13.53167 0.00654
C 17.23439 12.70501 -0.00703
C 17.29105 11.3372 -0.04076
C 18.49308 10.66797 -0.00652
C 18.48506 9.15733 0.0058
C 17.23327 8.4903 -0.00865
C 17.21029 7.10284 0.00675
C 18.46 6.38498 -0.00311
C 18.50008 5.0108 0.00742
C 17.26629 4.30725 -0.01594
C 17.22021 2.91075 0.0106
C 18.3986 2.09932 -0.01154
C 18.3811 0.77686 -0.01721
C 17.05555 0.05407 -0.02422
C 20.83753 31.9086 0.00096
C 21.08667 5.03848 -0.01971
C 19.77374 4.29542 -0.02118
C 19.71432 2.86615 0.00733
C 22.0478 33.91528 -0.00802
C 24.51164 32.68169 -0.00218
C 25.74035 31.97027 -0.01654
C 25.66132 30.56882 -0.00037
C 24.49358 29.83302 -0.0032
C 24.47022 28.35458 0.00622
C 25.71892 27.65465 -0.02815
C 25.72995 26.26011 -0.00942
C 24.51247 25.50813 0.00487
C 24.61431 24.09256 0.00826
C 25.85366 23.43048 -0.00294
C 25.81409 22.00147 0.00152
C 24.64594 21.29577 0.01257
C 24.60502 19.82152 0.02316
C 25.90701 19.11541 0.04185
C 25.90344 17.62953 0.00194
C 24.66284 16.86059 -0.00621
C 24.60034 15.42839 0.02611
C 24.4047 2.96447 0.02198
C 25.59004 2.25763 0.01094
C 25.71967 0.75274 0.00235
C 23.32271 0.59055 0.00195
C 23.29653 2.04179 0.00996
C 22.10416 2.7054 0.04306
C 22.21833 4.09696 0.00367
C 20.88565 2.07101 -0.00178
C 20.75944 0.6417 0.00768
C 19.51895 34.04294 -0.0276
C 22.0752 32.54324 0.03005
C 23.2885 31.89283 -0.04078
C 23.24906 30.54005 0.02117
C 22.05126 29.76503 0.02737
C 22.1224 28.33643 -0.00498
C 23.30593 27.63423 0.00135
C 23.29556 26.26363 0.03102
C 18.48077 23.38818 0.00755
C 21.99941 25.57944 0.02555
C 23.41987 23.35718 -0.00285
C 23.41308 21.98994 -0.009
C 22.19256 21.22676 -0.01199
C 22.15939 19.80048 -0.00229
C 23.45344 19.15119 -0.00938
C 23.46736 17.74804 -0.0264
C 22.14478 17.11357 -0.01154
C 22.1945 15.5826 0.00684
C 23.37745 14.63133 -0.01052
C 22.56943 13.19445 -0.01679
C 22.10031 24.17012 0.01423
C 2.34135 32.7231 0.00245
