368
Graphene
C 0.02325 0.03845 0.01295
C 16.02852 19.1345 -0.01952
C 15.94324 17.788 -0.02813
C 14.75392 17.05918 0.00374
C 14.77552 15.59548 0.00052
C 16.03849 14.95868 -0.03682
C 16.01483 13.51793 0.01965
C 14.70806 12.73558 0.02058
C 14.70341 11.33962 -0.01957
C 15.95538 10.55303 -0.0108
C 15.9974 9.20116 -0.00368
C 14.8204 8.521 -0.02696
C 14.78401 7.06128 -0.00114
C 16.02783 6.38176 0.00228
C 16.01893 4.94774 0.00798
C 14.7193 4.34404 0.00422
C 14.76995 2.80206 0.0351
C 15.97341 2.04384 -0.03113
C 15.92696 0.66604 0.02098
C 14.80893 34.00128 0.01848
C 14.7275 19.85433 0.05265
C 17.19851 32.70095 -0.00619
C 14.76692 21.23762 -0.01717
C 15.94956 30.55331 0.02299
C 13.47923 19.20738 0.02819
C 13.5573 17.79837 0.00165
C 12.30732 17.06377 -0.02971
C 12.31996 15.6446 0.02894
C 13.51849 14.92214 -0.01789
C 13.51921 13.49728 0.00444
C 13.53921 10.64338 -0.00925
C 13.54477 9.25792 0.01877
C 12.33807 8.58598 0.01363
C 12.2485 7.10636 -0.02162
C 13.50062 6.44998 0.00415
C 13.53726 4.93603 -0.0014
C 12.32796 4.24099 0.02162
C 12.32189 2.84824 0.0076
C 13.59992 2.10485 0.01241
C 13.51695 0.63397 -0.01454
C 12.2765 0.03674 0.01945
C 14.759 32.62789 0.01416
C 15.9262 31.93458 0.03542
C 14.82625 29.83582 0.00244
C 12.39836 19.89603 -0.00891
C 18.43825 32.00246 -0.02162
C 18.43547 19.20436 -0.00481
C 20.85805 19.22794 0.04892
C 20.90688 17.77656 -0.00111
C 19.65179 16.97265 -0.03557
C 19.69391 15.58854 0.03754
C 20.92341 14.9371 0.01739
C 20.89906 13.45673 0.00755
C 19.65118 12.78788 -0.0054
C 19.65693 11.38245 0.00667
C 20.93376 10.62212 0.00143
C 20.96488 9.27819 -0.017
C 19.69163 8.51504 0.00364
C 19.70626 7.1142 -0.00831
C 20.92537 6.3913 -0.02957
C 20.93474 4.94289 -0.04422
C 19.62909 4.27481 0.00654
C 19.64943 2.80177 -0.00703
C 20.93847 2.09011 -0.04076
C 20.94516 0.69281 -0.00652
C 19.66515 0.03317 0.0058
C 19.6368 19.89297 0.01452
C 17.17092 19.89003 0.00889
C 19.62871 21.33918 -0.01581
C 20.90279 31.96939 -0.01979
C 18.41629 17.75719 0.00979
C 17.24566 17.02081 0.01443
C 17.2345 15.61423 0.03505
C 18.45627 14.93029 -0.02815
C 18.46382 13.53752 -0.04147
C 17.25787 12.81611 -0.05302
C 17.20812 11.36153 0.00213
C 18.44173 10.60879 -0.00066
C 18.4301 9.20716 -0.00289
C 17.24079 8.51393 0.00028
C 17.27209 7.12562 -0.02213
C 18.42713 6.38974 0.03698
C 18.40542 4.95041 -0.00109
C 17.16909 4.24588 -0.00491
C 17.19053 2.81282 0.03338
C 18.3955 2.12673 -0.0258
C 18.43916 0.71837 -0.0331
C 17.23499 0.00335 -0.00316
C 19.64984 32.64676 0.02188
C 20.91745 30.51001 0.02691
C 22.10073 32.64177 -0.00865
C 12.32354 21.29537 -0.01046
C 13.45231 23.38993 -0.01536
C 6.1758 30.52537 0.01227
C 4.98954 29.8516 0.00873
C 4.90388 28.44974 -0.00049
C 6.16794 27.65328 0.00848
C 6.14083 26.28451 -0.01303
C 4.91169 25.59217 -0.01378
C 4.94349 24.18243 0.02635
C 6.17101 23.38297 0.0127
C 6.13441 22.02182 0.01396
C 4.89675 21.34064 0.01849
C 4.91939 19.88507 -0.01142
C 6.12714 19.17091 -0.00562
C 4.8869 4.29291 -0.00494
C 4.95335 2.79438 0.00054
C 6.15709 2.13284 0.03007
C 6.16417 0.71915 -0.00095
C 4.91204 0.01948 0.01572
C 7.29547 32.71097 -0.04848
C 8.62225 31.96796 -0.00892
C 6.12001 31.9275 -0.03337
C 8.57046 30.5283 -0.01362
C 4.88204 32.69976 -0.00966
C 3.72763 0.68123 0.03368
C 3.747 30.55431 -0.03996
C 2.45393 29.80968 0.01465
C 2.53032 28.38059 -0.00074
C 3.71621 27.68611 -0.00518
C 3.65673 26.26034 0.0086
C 2.42695 25.64829 -0.00643
C 2.46222 24.1683 0.017
C 3.73503 23.41301 -0.03113
C 3.67654 22.03277 -0.02566
C 2.50084 21.28544 -0.00094
C 2.42336 19.82496 0.02322
C 3.75636 19.12562 -0.00725
C 3.55127 17.69851 -0.05697
C 2.47341 17.167 0.01087
C 2.41791 7.11916 -0.01343
C 3.68765 4.97707 0.00988
C 2.47684 4.3166 0.0276
C 2.46371 2.79027 0.01305
C 3.71981 2.15425 -0.00077
C 2.50313 0.03212 -0.02929
C 13.54222 22.0512 -0.02689
C 7.35911 29.83507 -0.0008
C 8.575 27.66089 0.00393
C 11.07545 22.01347 0.01641
C 9.89016 21.31625 -0.00719
C 9.8376 19.8643 0.01364
C 11.08728 19.22924 -0.01062
C 11.07767 17.83344 -0.00033
C 11.02311 6.38564 0.03589
C 11.10402 4.96154 -0.02759
C 9.89826 4.25305 0.0402
C 9.84767 2.89496 0.00572
C 11.01545 2.0511 0.03592
C 11.03757 0.70088 0.00406
C 9.79541 0.00355 0.00943
C 12.23602 32.62689 0.02841
C 13.52133 31.95324 -0.01111
C 13.52243 30.56918 -0.01275
C 12.28929 29.84543 0.00985
C 12.31963 28.35916 -0.02245
C 12.25526 25.60282 -0.00428
C 12.30943 24.18358 0.03101
C 11.09707 23.46492 0.02339
C 7.36903 28.39202 0.0288
C 9.86528 24.15736 -0.00334
C 11.1074 26.30165 0.00057
C 8.60699 26.28146 0.00895
C 7.35313 25.6072 0.00685
C 7.42226 24.12055 0.02888
C 8.62451 23.47273 -0.00482
C 8.60248 22.02293 -0.01384
C 7.41247 21.341 0.03693
C 7.32609 19.91579 0.01745
C 8.57851 19.23356 0.00488
C 7.35066 4.27613 -0.01004
C 7.31173 2.88232 -0.02896
C 8.61749 2.17926 -0.00131
C 8.62725 0.6922 -0.01118
C 7.38181 34.06077 -0.014
C 9.80497 32.69683 0.02147
C 11.03634 32.00753 0.00373
C 11.08456 30.5608 -0.00191
C 9.80447 29.82009 0.00438
C 9.7888 28.44953 0.01291
C 11.08585 27.67573 0.00093
C 9.86118 25.55852 -0.01634
C 23.32927 32.0008 0.00675
C 23.33952 30.55627 -0.00311
C 22.1676 29.85565 0.00742
C 30.75508 4.91699 0.00307
C 29.50542 4.25755 0.00346
C 29.45395 2.82372 0.01713
C 30.75416 2.13048 -0.01694
C 30.72208 0.74088 0.01428
C 29.4454 34.06676 -0.02142
C 31.94746 32.66154 0.0544
C 33.18494 31.91722 0.00026
C 33.19683 30.57597 0.00682
C 31.92166 29.8141 -0.01779
C 31.99439 28.44217 0.03794
C 33.22197 27.65344 0.01927
C 33.20739 26.25519 0.01574
C 31.98378 25.59171 -0.02383
C 32.01203 24.1497 -0.01429
C 33.22239 23.47428 -0.0136
C 33.17492 22.00604 0.00594
C 31.96926 21.30425 -0.02474
C 31.98766 19.8617 0.00369
C 30.69754 6.42668 0.00716
C 33.25513 19.14721 0.00455
C 29.52355 7.06527 0.02108
C 30.79418 9.21251 0.07705
C 29.49544 29.81996 0.03265
C 29.50492 28.38506 -0.02049
C 30.76685 27.7055 -0.01854
C 30.73837 26.2852 -0.01415
C 29.53525 25.55271 -0.03039
C 29.50091 24.14949 0.01836
C 30.78286 23.45695 0.03531
C 30.75359 21.93049 -0.00669
C 29.53663 21.25883 0.0101
C 29.5313 19.88166 0.01705
C 30.76442 19.20722 -0.0405
C 30.74567 17.71331 -0.01303
C 29.4666 17.06164 -0.01461
C 29.57076 15.58299 -0.02155
C 30.71875 14.8617 -0.00944
C 30.7096 13.51859 -0.03735
C 29.4764 12.76449 -0.00971
C 29.48853 11.38757 0.01518
C 30.73314 10.67081 0.01908
C 29.51087 8.46655 0.0103
C 30.75147 30.50661 0.00261
C 33.21549 17.76567 -0.00644
C 32.01259 15.59135 0.00137
C 34.43139 24.07749 0.01951
C 1.25207 23.44683 -0.01678
C 1.26391 21.97998 0.01223
C 34.39925 21.26895 0.00648
C 0.00449 19.85339 0.02114
C 1.22298 19.17617 -0.02957
C 1.21695 17.75838 0.00343
C 0.02491 17.0671 -0.02656
C 34.3844 15.63153 -0.02442
C 0.01725 12.81688 -0.00027
C 34.38683 11.43046 -0.00583
C 34.41663 8.52137 -0.02302
C 34.42414 7.10199 -0.02849
C 1.26841 6.4143 0.02931
C 1.24037 4.94853 0.00628
C 34.40798 4.19678 -0.0345
C 0.00722 2.85196 -0.00931
C 1.25367 2.15037 -0.00939
C 1.28637 0.76911 -0.00468
C 34.38979 25.48227 -0.02213
C 31.93426 17.01697 -0.01839
C 1.1954 26.28309 0.02712
C 0.0493 28.41445 0.03076
C 33.13935 14.87796 0.00199
C 33.14111 13.50594 0.04381
C 31.96131 12.73969 0.02806
C 31.93476 11.3747 0.01504
C 33.19548 10.61088 -0.00069
C 33.21154 9.28341 0.04926
C 31.98628 8.56362 -0.03838
C 31.97866 7.11815 0.00349
C 33.19608 6.36527 -0.00323
C 33.15791 4.9216 -0.00841
C 31.92408 4.2698 0.0001
C 31.97511 2.85457 -0.02927
C 33.23945 2.09618 -0.01404
C 33.21037 0.69726 0.01027
C 31.93208 0.03148 0.01831
C 0.00901 32.69897 -0.01037
C 1.21521 31.98975 -0.00439
C 1.21647 30.54342 -0.00598
C 34.40256 29.839 -0.05239
C 1.23294 27.74094 0.00723
C 30.77663 31.93159 0.02326
C 29.53184 32.64696 0.00924
C 27.03179 34.04936 0.0014
C 23.3547 2.11455 0.01153
C 23.3277 0.70673 0.02734
C 22.11394 0.05152 -0.0055
C 24.59903 32.62792 0.01515
C 25.80687 31.93391 -0.00225
C 25.75684 30.54274 0.00071
C 24.58411 29.83058 -0.01107
C 24.63794 28.39923 -0.01586
C 25.76482 27.64578 -0.01971
C 25.7811 26.26287 -0.02118
C 24.58223 25.56428 0.00733
C 24.5621 24.07407 -0.00178
C 25.78168 23.44364 0.00768
C 25.84637 21.995 -0.0276
C 24.60743 21.30145 0.03005
C 24.59254 19.8854 -0.04078
C 25.79254 19.16697 0.02117
C 25.86006 17.71208 0.02737
C 24.61248 17.04236 -0.00498
C 22.11227 2.85534 0.02239
C 24.61118 15.6359 0.00135
C 22.1703 4.23419 -0.03213
C 23.36173 6.4052 0.03374
C 22.09175 28.37027 -0.01594
C 23.30112 27.64871 0.0106
C 23.37141 26.21753 -0.01154
C 23.32098 23.44349 -0.01721
C 23.36135 22.00482 -0.02422
C 22.1542 21.26214 0.01277
C 22.0319 19.88448 0.00096
C 23.28836 19.11564 -0.01527
C 23.3898 17.7219 0.01087
C 22.14614 17.00764 0.00199
C 22.16448 15.56866 0.01511
C 23.40709 14.87147 -0.00478
C 23.38374 13.47757 -0.01662
C 22.11557 12.7739 -0.01185
C 22.17192 11.28477 0.01126
C 23.3328 10.59864 0.01852
C 23.34397 9.23829 -0.00381
C 22.1835 8.45989 0.03046
C 22.21581 7.06534 0.0296
C 23.34089 4.92765 -0.02845
C 25.82384 14.88939 0.03102
C 25.82899 13.47571 0.02555
C 24.58994 12.75371 0.01423
C 27.07858 19.90309 -0.00294
C 28.25596 19.15774 0.00152
C 28.28739 17.77161 0.01257
C 27.08839 17.0157 0.02316
C 27.11208 15.61968 0.04185
C 28.32705 14.9467 0.00194
C 28.28742 13.53304 -0.00621
C 27.09311 12.72322 0.02611
C 27.05678 11.36763 0.02198
C 28.3227 10.65907 0.01094
C 28.26766 9.28154 0.00235
C 27.02049 8.51553 0.01495
C 27.05824 7.12706 0.01259
C 28.25672 6.408 0.01799
C 28.27831 4.95027 0.01699
C 27.0819 4.27416 -0.00416
C 27.01659 2.89121 0.01177
C 28.2855 2.08244 0.04266
C 28.30073 0.74737 0.01324
C 27.0811 21.30272 0.00826
C 28.32229 21.97231 0.00487
C 28.22481 23.38422 -0.00942
C 27.07508 24.14779 -0.02815
C 24.58385 11.31594 -0.00285
C 25.9477 10.68214 -0.009
C 25.80609 9.24453 -0.01199
C 24.586 8.52738 -0.00229
C 24.61135 7.10528 -0.00938
C 25.74696 6.40868 -0.0264
C 25.77648 4.99513 -0.01154
C 24.55213 4.25099 0.00684
C 24.56485 2.81064 -0.01052
C 3.72042 31.9313 0.01996
C 25.76467 2.08605 -0.01679
C 24.59797 0.01349 0.04306
C 27.00915 32.67457 0.00996
C 28.25307 31.93071 0.00195
C 28.25692 30.56143 -0.00802
C 27.04602 29.84789 -0.00218
C 27.04642 28.3941 -0.01654
C 28.26753 27.68307 -0.00037
C 28.31219 26.19966 -0.0032
C 27.07108 25.55234 0.00622
C 25.81262 0.69483 0.00367
C 2.42814 32.67578 -0.00279
