262
Graphene
C 34.42385 0.06548 0.01295
C 14.73616 32.36581 0.01852
C 12.34987 34.0605 0.01126
C 13.57348 0.63726 -0.01185
C 13.54766 2.20163 -0.01662
C 12.319 2.92375 -0.00478
C 12.31647 4.35526 0.01511
C 13.51279 32.0277 0.00199
C 12.27381 32.64423 0.01087
C 9.82963 34.00652 -0.01527
C 11.01814 0.68558 0.00096
C 11.06751 2.13558 0.01277
C 9.8365 2.83767 -0.02422
C 9.75885 4.2052 -0.01721
C 16.0467 31.85037 -0.00381
C 9.97306 17.51633 -0.01154
C 11.01522 31.80297 -0.01594
C 9.75321 32.55834 0.00742
C 7.30944 33.97002 -0.00311
C 8.58314 0.58497 0.00675
C 8.64968 2.0286 -0.00865
C 7.39423 2.77926 0.0058
C 7.39204 4.31698 -0.00652
C 8.67608 4.89362 -0.04076
C 7.25563 7.38533 -0.00703
C 7.19789 15.77191 0.00654
C 7.46387 17.0213 -0.04422
C 8.68438 17.83938 -0.02957
C 7.36996 28.43653 -0.00831
C 10.82587 30.36683 0.0106
C 16.00142 4.97222 0.03046
C 14.75527 4.31218 0.0296
C 14.79171 2.8539 0.03374
C 20.94416 2.1605 -0.01199
C 19.65606 2.85271 -0.009
C 19.68756 4.28338 -0.00285
C 20.93986 4.97344 0.01423
C 20.89484 6.32107 0.02555
C 19.58097 7.0965 0.03102
C 19.76048 8.41999 0.00135
C 20.93096 9.13135 -0.00498
C 20.72863 10.59319 0.02737
C 19.60456 11.35744 0.02117
C 19.60306 12.67311 -0.04078
C 20.29115 28.56196 0.03005
C 19.55143 29.78166 -0.0276
C 20.85466 30.79333 0.00768
C 20.89759 32.10464 -0.00178
C 19.66537 32.79693 0.00733
C 17.18148 0.04173 -0.02118
C 18.38931 0.78834 -0.01971
C 18.38044 2.14848 -0.01586
C 17.16153 2.88765 -0.01107
C 17.22522 4.2939 0.00071
C 18.46568 4.93526 -0.00225
C 18.53937 6.27498 0.01515
C 18.5406 30.65267 -0.0055
C 18.48841 32.01056 0.02734
C 17.2436 32.64304 0.01153
C 14.75309 33.90602 0.02239
C 15.92879 0.6624 -0.03213
C 15.9818 2.13375 -0.02845
C 7.53381 29.82717 0.00364
C 8.77519 30.46323 -0.017
C 8.50025 31.8048 0.00143
C 7.33087 32.51569 0.00667
C 3.60261 0.82034 -0.00619
C 3.59367 2.21686 0.01848
C 2.37526 2.97478 0.02098
C 2.40065 4.37865 -0.03113
C 3.69764 5.00212 0.0351
C 3.65666 6.48658 0.00422
C 2.49182 7.15702 0.00798
C 2.51992 8.58169 0.00228
C 3.75166 9.28062 -0.00114
C 3.70131 10.67785 -0.02696
C 2.44205 11.37047 -0.00368
C 2.40026 12.80211 -0.0108
C 3.64832 13.52257 -0.01957
C 3.68126 14.92246 0.02058
C 2.37071 15.66031 0.01965
C 2.45435 17.08351 -0.03682
C 3.68171 17.74586 0.00052
C 3.70506 19.17663 0.00374
C 2.40555 19.88322 -0.02813
C 2.49086 21.30708 -0.01952
C 3.74184 21.97301 0.05265
C 3.66888 23.45834 -0.01717
C 2.42782 24.1115 0.00244
C 2.38804 25.54786 0.02299
C 3.59101 26.18941 0.03542
C 3.64233 27.6231 0.01416
C 2.44674 28.41717 0.01945
C 2.46973 29.81442 -0.01454
C 3.65394 30.52769 0.01241
C 2.39653 0.06971 -0.02162
C 20.85929 0.81913 -0.00229
C 4.86417 32.72193 0.00889
C 6.17697 30.45309 0.00979
C 4.83994 0.06755 -0.0054
C 6.07254 0.74391 0.00755
C 6.0725 2.13899 0.01739
C 4.84308 2.88982 0.03754
C 4.865 4.24393 -0.03557
C 6.15264 5.00667 -0.00111
C 6.18421 6.42245 0.04892
C 4.9168 7.16572 0.01452
C 4.94663 8.55646 -0.01581
C 6.08545 9.31449 0.02691
C 6.04148 10.60759 -0.01979
C 4.9761 11.42449 0.02188
C 4.90048 12.85239 -0.00316
C 6.11845 13.50957 -0.0331
C 6.29652 14.87342 -0.0258
C 4.96561 15.58846 0.03338
C 4.92072 17.05768 -0.00491
C 6.12689 17.67605 -0.00109
C 6.14462 19.16156 0.03698
C 4.91065 19.84507 -0.02213
C 4.92439 21.25841 0.00028
C 5.89609 22.11892 -0.00289
C 6.10994 23.49391 -0.00066
C 4.89978 24.17577 0.00213
C 4.83321 25.59864 -0.05302
C 6.03031 26.29305 -0.04147
C 6.32432 27.57701 -0.02815
C 4.95971 28.2728 0.03505
C 4.94806 29.76233 0.01443
C 6.10265 31.93438 -0.00481
C 19.675 0.1003 -0.00938
C 22.12113 32.76252 -0.0264
C 23.28676 31.91142 -0.01154
C 33.23804 2.22148 -0.00323
C 32.04748 2.89237 0.00349
C 31.95897 4.21718 -0.03838
C 33.14081 5.02215 0.04926
C 33.1649 6.43335 -0.00069
C 31.88522 7.10552 0.01504
C 31.93336 8.50685 0.02806
C 33.14562 9.25544 0.04381
C 33.17964 10.67014 0.00199
C 31.94397 11.42576 0.00137
C 31.90301 12.83603 -0.01839
C 33.16105 13.51601 -0.00644
C 33.13356 14.98927 0.00455
C 31.84349 15.70158 0.00369
C 33.31065 17.84173 -0.02474
C 33.29043 19.21346 0.00594
C 33.08144 21.87117 -0.0136
C 32.99524 23.20411 -0.01429
C 31.93798 24.10237 -0.02383
C 31.72818 25.49065 0.01574
C 33.02839 26.16757 0.01927
C 33.06571 27.63694 0.03794
C 31.85467 28.42508 -0.01779
C 31.9897 29.87775 0.00682
C 33.24783 30.62301 0.00026
C 33.26073 32.01649 0.0544
C 32.02287 32.74665 -0.02142
C 29.49885 0.02925 0.01428
C 30.75718 0.71714 -0.01694
C 33.23232 0.79373 -0.00841
C 30.77743 2.12883 0.01713
C 32.03368 0.11945 0.0001
C 1.19282 31.99064 -0.01404
C 1.18449 0.78907 -0.00468
C 1.17687 2.30035 -0.00939
C 34.4033 3.03137 -0.00931
C 0.00059 4.42237 -0.0345
C 1.21003 5.16663 0.00628
C 1.22025 6.55217 0.02931
C 0.00362 7.18008 -0.02849
C 34.41926 8.56372 -0.02302
C 1.23513 9.22351 -0.00583
C 1.21232 10.66809 -0.00027
C 0.02591 11.3854 -0.02442
C 34.40196 12.76905 -0.02656
C 1.18808 13.53902 0.00343
C 1.19826 14.91843 -0.02957
C 0.00534 15.65718 0.02114
C 0.0026 17.0305 0.00648
C 1.17581 17.78024 0.01223
C 1.20292 19.20557 -0.01678
C 34.4254 19.92034 0.01951
C 34.37491 21.31327 -0.02213
C 1.20862 22.02075 0.02712
C 1.18371 23.41134 0.00723
C 34.34671 24.03985 0.03076
C 34.26329 25.48292 -0.05239
C 1.11127 26.22833 -0.00598
C 1.17358 27.66955 -0.00439
C 34.34785 28.44115 -0.01037
C 0.01068 29.85511 0.01831
C 1.23727 30.52202 0.01027
C 0.03055 32.72163 -0.02927
C 3.65018 31.94544 0.0076
C 29.53555 2.80247 0.00346
C 30.72445 4.85284 0.00716
C 25.82201 0.70926 0.01495
C 25.78978 2.10112 0.00235
C 24.61171 2.84144 0.01094
C 24.56784 4.24685 0.02198
C 25.80514 4.99147 0.02611
C 25.78634 6.37444 -0.00621
C 24.59916 7.08054 0.00194
C 24.54689 8.53546 0.04185
C 25.78401 9.24894 0.02316
C 25.81803 10.69903 0.01257
C 24.58944 11.22451 0.00152
C 24.5975 30.02667 -0.00294
C 25.88013 30.452 0.00826
C 25.8193 31.9369 0.00487
C 24.51551 32.60721 -0.00942
C 22.17891 0.05106 -0.02815
C 23.41174 0.70254 0.00622
C 23.42693 2.16009 -0.0032
C 22.18057 2.83216 -0.00037
C 22.15145 4.19221 -0.01654
C 23.35016 4.95175 -0.00218
C 23.39872 6.36876 -0.00802
C 22.15912 7.10938 0.00195
C 22.09604 8.5232 0.00996
C 23.33635 9.34112 0.04306
C 23.32081 10.82056 0.00367
C 22.01649 11.15377 -0.01679
C 21.98235 29.93979 -0.01052
C 23.27851 30.42645 0.00684
C 24.63427 34.05448 0.01259
C 29.48041 4.21975 0.00307
C 27.06997 32.67174 0.01799
C 28.3133 30.60821 -0.00416
C 30.74114 6.31694 0.02108
C 29.47449 7.00772 0.0103
C 29.42129 8.44463 0.07705
C 30.65729 9.23491 0.01908
C 30.70262 10.69653 0.01518
C 29.47893 11.39549 -0.00971
C 29.72927 12.73224 -0.03735
C 30.76113 13.59233 -0.00944
C 30.71818 26.39834 -0.02155
C 30.50322 27.76532 -0.01461
C 29.29732 28.46753 -0.01303
C 29.55332 29.90661 -0.0405
C 30.78811 30.59171 0.01705
C 30.76438 32.01135 0.0101
C 29.57276 32.69531 -0.00669
C 27.05238 0.02394 0.03531
C 28.28047 0.67891 0.01836
C 28.33905 2.08437 -0.03039
C 27.02346 2.81833 -0.01415
C 27.05918 4.29963 -0.01854
C 28.28423 4.93369 -0.02049
C 28.2987 6.3353 0.03265
C 27.00018 7.02679 0.00261
C 27.08694 8.46471 0.02326
C 28.28617 9.17317 0.00924
C 28.29653 10.6759 0.0014
C 27.07709 11.30988 0.01324
C 27.3449 28.40893 0.04266
C 27.16352 29.75149 0.01177
C 28.30507 31.99829 0.01699
C 2.40253 32.70617 0.02162
