385
Graphene
C 0.01927 0.03191 0.01295
C 14.94391 8.46012 0.02162
C 14.5494 7.21131 0.0076
C 15.94161 6.4338 0.01241
C 15.95746 5.07981 -0.01454
C 14.77969 4.31117 0.01945
C 14.79149 2.89683 0.01416
C 15.96961 2.0906 0.03542
C 15.88128 0.62873 0.02299
C 14.6991 34.03689 0.00244
C 15.89802 9.35607 -0.0014
C 17.19679 32.64113 -0.01717
C 18.48945 30.52149 -0.01952
C 17.26542 29.79705 -0.02813
C 17.16269 28.40781 0.00374
C 18.47948 27.65011 0.00052
C 18.427 26.2008 -0.03682
C 17.24569 25.47372 0.01965
C 17.30039 24.06088 0.02058
C 18.43937 23.32466 -0.01957
C 18.43733 21.93388 -0.0108
C 18.44233 31.88492 0.05265
C 17.18551 21.30644 -0.00368
C 15.9172 10.73132 0.00415
C 15.91977 14.85554 0.01363
C 13.58311 2.20139 0.00943
C 13.54687 0.73562 0.02841
C 12.29999 0.0189 -0.01111
C 14.69504 32.50025 -0.01275
C 16.03002 31.93898 0.00985
C 16.07483 30.55921 -0.02245
C 14.8187 29.9084 -0.00428
C 14.81531 28.47039 0.03101
C 16.00558 27.68491 -0.01536
C 16.09019 13.53737 -0.02162
C 16.01623 26.2358 -0.02689
C 14.737 24.1585 -0.00891
C 15.97764 23.37516 0.02819
C 15.97779 21.98101 0.00165
C 14.80888 21.31023 -0.02971
C 14.73489 19.85709 0.02894
C 15.92952 19.16368 -0.01789
C 15.97388 17.76588 0.00444
C 14.63355 17.0137 -0.00925
C 14.84067 15.74633 0.01877
C 14.7378 25.53761 -0.01046
C 12.35275 2.8925 0.00406
C 17.16742 19.83514 -0.02696
C 18.46379 17.77645 0.00228
C 19.6825 25.49094 0.03338
C 19.64938 24.04739 -0.0258
C 20.88637 23.38025 -0.0331
C 20.93336 21.98173 -0.00316
C 19.66107 21.29525 0.02188
C 19.64823 19.90044 -0.01979
C 20.95536 19.2015 0.02691
C 20.96832 17.71992 -0.01581
C 19.71703 17.08755 0.01452
C 20.89378 26.19106 -0.00491
C 19.69986 15.65957 0.04892
C 20.86589 13.48759 -0.03557
C 19.63886 12.74409 0.03754
C 19.6671 11.32181 0.01739
C 20.9858 10.60366 0.00755
C 20.93354 9.15729 -0.0054
C 19.68626 8.51419 0.00667
C 19.59651 7.15881 0.00143
C 20.84257 6.42325 -0.017
C 20.79668 4.92312 0.00364
C 20.89966 14.84818 -0.00111
C 18.41109 19.24146 -0.00114
C 20.86244 27.6461 -0.00109
C 19.68933 29.77381 -0.02213
C 17.17827 17.09673 0.00798
C 17.29811 15.65586 0.00422
C 18.42899 14.94994 0.0351
C 18.42352 13.517 -0.03113
C 17.14554 12.80256 0.02098
C 17.13448 11.34429 0.01848
C 18.41481 10.63618 -0.00619
C 18.43801 9.23212 -0.02162
C 17.23955 8.56179 0.00889
C 19.71291 28.35345 0.03698
C 17.19207 7.13453 -0.00481
C 18.32834 4.94195 0.01443
C 17.20002 4.23621 0.03505
C 17.18492 2.78587 -0.02815
C 18.38821 2.04755 -0.04147
C 18.46129 0.61685 -0.05302
C 17.19842 0.01086 0.00213
C 19.68752 32.59384 -0.00066
C 20.85236 31.85587 -0.00289
C 20.94855 30.45302 0.00028
C 18.38064 6.3899 0.00979
C 12.29189 4.31435 0.03592
C 13.55695 4.9989 0.00572
C 13.57223 6.3791 0.0402
C 4.88808 28.41622 -0.03113
C 6.15681 27.74623 -0.02566
C 6.14566 26.31772 -0.00094
C 4.94892 25.58357 0.02322
C 4.80478 24.12211 -0.00725
C 6.06983 23.44713 -0.05697
C 6.07751 22.07102 0.01087
C 4.89442 21.39858 -0.01343
C 4.88692 20.02178 0.00988
C 4.91677 29.84968 0.017
C 6.13453 4.98553 0.0276
C 4.87322 2.82091 -0.00077
C 6.10948 2.20949 0.03368
C 6.06599 0.77995 -0.02929
C 4.85768 34.07367 -0.00966
C 7.2794 32.70157 -0.03337
C 8.51721 31.99321 0.01227
C 8.53636 30.55917 0.00873
C 7.3905 29.82308 -0.00049
C 7.47277 28.36132 0.00848
C 4.95448 4.30484 0.01305
C 8.67893 27.71738 -0.01303
C 6.16022 30.49749 -0.00643
C 4.82243 32.69099 -0.00518
C 3.69786 30.55798 0.03189
C 2.47858 29.84619 0.00031
C 2.47082 28.3882 -0.003
C 3.72723 27.63457 0.01402
C 3.68933 26.22695 0.02379
C 2.42275 25.56004 0.00907
C 2.38431 24.16131 0.00643
C 3.66207 23.46391 -0.01509
C 3.64388 21.98569 0.03267
C 6.01799 31.90923 0.0086
C 2.47239 21.26336 0.02374
C 3.79534 19.35068 0.0073
C 2.43895 6.801 0.0174
C 3.64788 6.48366 0.03828
C 3.70039 5.06728 0.01226
C 2.51262 4.29691 -0.00279
C 2.46076 2.89356 0.01996
C 3.66978 2.12758 -0.03996
C 3.68178 0.68773 0.01465
C 2.43732 34.07202 -0.00074
C 2.48449 19.85825 0.00402
C 8.65982 26.28015 -0.01378
C 7.36448 25.65744 0.02635
C 7.28662 24.24978 0.0127
C 9.91489 4.33462 -0.00131
C 9.87061 2.87422 -0.01118
C 11.14211 2.08361 -0.014
C 11.07217 0.67627 0.02147
C 9.7383 34.06512 0.00373
C 12.24647 32.63884 -0.00191
C 13.43223 31.93071 0.00438
C 13.52207 30.51937 0.01291
C 12.29705 29.7859 0.00093
C 11.18534 5.02722 -0.02896
C 12.33904 28.46505 0.00057
C 13.54512 26.35279 -0.00334
C 12.3351 25.59722 0.02339
C 12.32014 24.17695 0.01641
C 13.54718 23.45313 -0.00719
C 13.57765 22.01999 0.01364
C 12.25328 21.30711 -0.01062
C 12.24322 19.91088 -0.00033
C 13.49298 19.15795 0.03589
C 13.57712 17.86781 -0.02759
C 13.617 27.7529 -0.01634
C 10.99535 19.37407 -0.01004
C 9.9346 20.07086 0.00488
C 9.79741 21.4242 0.01745
C 8.50781 23.49953 0.01396
C 8.4996 22.09181 0.01849
C 7.27267 21.30119 -0.01142
C 7.39703 19.99248 -0.00562
C 8.66932 4.81974 -0.00494
C 7.3635 4.42127 0.00054
C 7.36798 2.90462 0.03007
C 8.60503 2.20413 -0.00095
C 8.53516 0.73838 0.01572
C 7.32761 0.05432 -0.04848
C 9.74354 32.63764 -0.00892
C 11.0245 31.97043 -0.01362
C 11.0441 30.52752 -0.0008
C 9.79623 29.90619 0.0288
C 9.91197 28.49875 0.00393
C 11.08894 27.70741 0.00895
C 11.06774 26.30783 0.00685
C 9.84262 25.57996 0.02888
C 9.81504 24.18681 -0.00482
C 11.07625 23.54385 -0.01384
C 11.05779 22.09517 0.03693
C 19.58383 4.21554 -0.00831
C 3.60134 32.02784 -0.04307
C 19.64938 2.81008 -0.02957
C 20.92545 0.61478 0.00654
C 29.49877 7.11152 0.0103
C 30.71263 6.40008 0.02108
C 30.6861 5.0127 0.00716
C 29.43521 4.25426 0.00307
C 29.49009 2.82231 0.00346
C 30.74751 2.15839 0.01713
C 30.76201 0.70958 -0.01694
C 29.5503 0.03123 0.01428
C 31.86482 32.66044 -0.02142
C 29.41776 8.52414 0.07705
C 33.13878 32.00927 0.0544
C 32.02804 29.79367 0.00682
C 32.01309 28.38495 -0.01779
C 33.226 27.66623 0.03794
C 33.15883 26.26778 0.01927
C 31.93515 25.60056 0.01574
C 31.98962 24.17706 -0.02383
C 33.21818 23.39284 -0.01429
C 33.21835 21.96534 -0.0136
C 31.98728 21.2479 0.00594
C 33.18104 30.57002 0.00026
C 31.96786 19.83637 -0.02474
C 30.68816 9.18396 0.01908
C 29.50107 11.33983 -0.00971
C 29.52748 32.6464 0.0014
C 30.68691 31.93696 0.00924
C 30.73813 30.46398 0.02326
C 29.47995 29.74677 0.00261
C 29.47517 28.37386 0.03265
C 30.71949 27.69221 -0.02049
C 30.70734 26.26405 -0.01854
C 29.50695 25.54324 -0.01415
C 29.49429 24.17291 -0.03039
C 30.72296 10.65432 0.01518
C 30.75717 23.54797 0.01836
C 29.55179 21.32549 -0.00669
C 29.5994 19.86553 0.0101
C 30.79578 19.11891 0.01705
C 30.69204 17.65738 -0.0405
C 29.49141 16.98634 -0.01303
C 29.51824 15.59056 -0.01461
C 30.71183 14.91651 -0.02155
C 30.68381 13.52003 -0.00944
C 29.47716 12.77018 -0.03735
C 30.76658 22.06761 0.03531
C 27.03303 0.02433 0.01324
C 33.17454 19.13284 0.00369
C 31.96088 16.97354 -0.00644
C 34.42483 24.11986 -0.02213
C 1.23655 23.46616 0.01951
C 1.23109 22.00387 -0.01678
C 0.04632 21.30384 0.01223
C 0.04607 19.94001 0.00648
C 1.28602 19.15839 0.02114
C 1.21418 17.82771 -0.02957
C 0.11457 16.94002 0.00343
C 34.42135 15.5777 -0.02656
C 34.38712 25.54437 0.02712
C 34.29485 12.67789 -0.02442
C 1.24974 9.12626 -0.00583
C 0.03969 8.57444 -0.02302
C 34.36143 7.04613 -0.02849
C 1.14921 6.4187 0.02931
C 1.17518 4.96528 0.00628
C 34.35318 4.32532 -0.0345
C 34.40246 2.83166 -0.00931
C 1.20187 2.15308 -0.00939
C 1.25498 0.7699 -0.00468
C 34.37152 11.43187 -0.00027
C 33.19611 17.75613 0.00455
C 1.1722 26.25582 0.00723
C 0.02018 28.3686 -0.05239
C 31.94861 15.61044 -0.01839
C 33.18013 14.91146 0.00137
C 33.21072 13.48845 0.00199
C 31.95278 12.83143 0.04381
C 31.92999 11.39712 0.02806
C 33.21334 10.68491 0.01504
C 33.17772 9.30957 -0.00069
C 31.98005 8.51019 0.04926
C 31.94948 7.11731 -0.03838
C 1.24225 27.70459 0.03076
C 33.1389 6.31952 0.00349
C 31.91429 4.28365 -0.00841
C 31.96104 2.86651 0.0001
C 33.19742 2.14741 -0.02927
C 33.19621 0.72866 -0.01404
C 31.96286 0.00898 0.01027
C 34.39356 32.72786 0.01831
C 1.13663 31.93251 -0.01037
C 1.19324 30.55585 -0.00439
C 0.0027 29.86092 -0.00598
C 33.14393 4.92571 -0.00323
C 28.26013 0.69419 0.04266
C 28.294 2.13739 0.01177
C 27.04975 2.83584 -0.00416
C 22.17008 8.48065 -0.00381
C 22.14304 7.05529 0.03046
C 23.33826 6.30635 0.0296
C 23.3353 4.9355 0.03374
C 22.05597 4.26579 -0.02845
C 22.11793 2.81594 -0.03213
C 23.38605 2.08572 0.02239
C 23.35079 0.69624 0.01153
C 22.16583 0.00414 0.02734
C 23.37534 9.20897 0.01852
C 24.57753 32.61218 -0.0055
C 25.796 30.48273 -0.00225
C 24.60553 29.72611 0.00071
C 24.59453 28.30066 -0.01107
C 25.79907 27.65651 -0.01586
C 25.85533 26.21504 -0.01971
C 24.61092 25.51399 -0.02118
C 24.55837 24.10399 0.00733
C 25.80787 23.47966 -0.00178
C 25.87639 22.02744 0.00768
C 25.77788 31.92635 0.01515
C 24.60234 21.31594 -0.0276
C 23.39912 10.66305 0.01126
C 22.17823 12.77558 -0.01662
C 19.69473 34.06526 -0.00703
C 22.08128 32.63117 -0.04076
C 23.26651 31.86099 -0.00652
C 23.38949 30.48193 0.0058
C 22.17508 29.73879 -0.00865
C 22.12768 28.3213 0.00675
C 23.34094 27.64451 -0.00311
C 23.30385 26.25471 0.00742
C 22.10758 25.56188 -0.01594
C 22.20495 11.33531 -0.01185
C 22.09759 24.14994 0.0106
C 23.40114 21.98251 -0.01721
C 22.17623 21.31949 -0.02422
C 22.18372 19.92251 0.01277
C 23.42209 19.21759 0.00096
C 23.41543 17.75343 -0.01527
C 22.17936 17.08809 0.01087
C 22.14814 15.60246 0.00199
C 23.37311 14.95472 0.01511
C 23.3642 13.512 -0.00478
C 23.2879 23.36873 -0.01154
C 24.62645 19.89393 0.03005
C 25.89225 19.21121 -0.04078
C 25.82471 17.77845 0.02117
C 27.07864 24.18041 0.00622
C 28.31875 23.45401 -0.02815
C 28.31553 22.06949 -0.00942
C 27.09617 21.29572 0.00487
C 27.11009 19.8938 0.00826
C 28.35264 19.12772 -0.00294
C 28.32981 17.72708 0.00152
C 26.97241 16.99363 0.01257
C 26.99422 15.62966 0.02316
C 27.0321 25.53573 -0.0032
C 28.23129 14.94534 0.04185
C 27.06486 12.78355 -0.00621
C 27.08072 11.42603 0.02611
C 28.3021 10.65064 0.02198
C 28.18195 9.25406 0.01094
C 26.97726 8.51178 0.00235
C 27.05639 7.08829 0.01495
C 28.2001 6.31994 0.01259
C 28.22673 4.92823 0.01799
C 26.92751 4.26273 0.01699
C 28.23908 13.53162 0.00194
C 28.33626 26.37791 -0.00037
C 28.22412 27.69522 -0.01654
C 26.98937 28.39308 -0.00218
C 24.5893 17.04415 0.02737
C 24.61121 15.57541 -0.00498
C 25.80126 14.8485 0.00135
C 25.79698 13.40244 0.03102
C 24.57195 12.80764 0.02555
C 24.64784 11.35913 0.01423
C 25.82385 10.67666 -0.00285
C 25.76881 9.26265 -0.009
C 24.56296 8.54702 -0.01199
C 24.57752 7.07034 -0.00229
C 25.78989 6.38269 -0.00938
C 25.7861 5.00635 -0.0264
C 24.54708 4.2697 -0.01154
C 24.61218 2.83227 0.00684
C 25.81864 2.15375 -0.01052
C 25.76278 0.70284 -0.01679
C 24.59051 34.05664 0.00367
C 27.02022 32.62852 0.04306
C 28.28399 31.94552 0.00996
C 28.2554 30.49861 0.00195
C 26.97637 29.82393 -0.00802
C 20.87754 2.09014 -0.04422
C 2.37846 32.70712 0.03284
