328
Graphene
C 0.06859 34.05557 0.01295
C 10.98709 23.49447 -0.05302
C 11.1355 21.96138 0.00213
C 9.89188 21.2692 -0.00066
C 9.86457 19.89995 -0.00289
C 11.07362 19.15101 0.00028
C 11.01861 17.71355 -0.02213
C 9.86709 16.97941 0.03698
C 9.80015 24.12836 -0.04147
C 9.86071 15.57605 -0.00109
C 11.0659 13.4536 0.03338
C 9.86449 12.62107 -0.0258
C 9.8651 11.2857 -0.0331
C 9.71906 8.51231 -0.00316
C 9.91331 7.11417 0.02188
C 9.65593 3.28719 -0.01979
C 11.1735 0.662 0.02691
C 11.31814 14.88394 -0.00491
C 9.76722 25.555 -0.02815
C 10.88894 26.22822 0.03505
C 11.05712 27.60296 0.01443
C 7.34506 11.32593 -0.01957
C 8.60707 10.68435 -0.0108
C 8.66026 9.24089 -0.00368
C 7.43685 8.5294 -0.02696
C 7.45766 7.10478 -0.00114
C 8.84496 6.27438 0.00228
C 8.68557 4.86456 0.00798
C 7.38201 4.30767 0.00422
C 7.38445 2.87743 0.0351
C 8.66095 2.29197 -0.03113
C 8.73419 0.83365 0.02098
C 7.48065 0.05136 0.01848
C 9.88397 32.66996 -0.00619
C 11.12599 31.9171 -0.02162
C 11.13414 30.57294 0.00889
C 9.89267 29.84136 -0.00481
C 9.81502 28.3755 0.00979
C 9.88455 0.07207 -0.01581
C 7.33264 12.77426 0.02058
C 12.3553 32.66826 0.01452
C 13.50018 30.49008 -0.00111
C 15.89896 17.63132 -0.01594
C 14.70005 16.96573 0.0106
C 14.9257 15.63812 -0.01154
C 14.85292 34.0029 -0.01721
C 17.10952 32.67958 -0.02422
C 18.484 32.00311 0.01277
C 18.24902 30.77571 0.00096
C 14.94234 19.68979 0.00742
C 17.28064 29.90224 -0.01527
C 18.54709 2.11408 0.00199
C 18.17039 0.84886 0.01511
C 17.01386 0.01911 -0.00478
C 19.65035 32.68491 -0.01662
C 20.87575 32.04247 -0.01185
C 21.19853 30.62165 0.01126
C 19.6448 15.25472 0.01852
C 17.22108 17.22337 0.01087
C 14.78947 28.34554 -0.00311
C 14.73419 29.76605 0.00675
C 16.04124 30.43498 -0.00865
C 12.31347 29.69192 -0.03557
C 12.27221 28.27502 0.03754
C 13.70181 27.54714 0.01739
C 13.38027 26.24203 0.00755
C 12.23517 25.57159 -0.0054
C 12.23649 24.22761 0.00667
C 13.35281 23.43104 0.00143
C 13.37447 22.12175 -0.017
C 12.36102 21.32518 0.00364
C 12.34255 19.92717 -0.00831
C 13.59691 19.1273 -0.02957
C 13.4899 17.69327 -0.04422
C 12.26287 17.03665 0.00654
C 12.43052 15.63748 -0.00703
C 12.41635 0.00897 -0.04076
C 14.69929 32.68027 -0.00652
C 15.96951 31.90404 0.0058
C 13.47349 31.90172 0.04892
C 20.99372 15.21792 -0.00381
C 8.54587 13.44109 0.01965
C 7.25451 15.57562 0.00052
C 2.36947 8.51485 -0.00191
C 2.45373 7.11537 0.00438
C 3.68205 6.44742 0.01291
C 3.69293 5.00255 0.00093
C 2.4531 4.19564 0.00057
C 2.46734 2.78931 -0.01634
C 3.71816 2.16094 -0.00334
C 3.61355 9.20912 0.00373
C 3.74613 0.71992 0.02339
C 4.96651 32.63601 -0.00719
C 6.14598 31.97024 0.01364
C 6.10697 30.54163 -0.01062
C 4.92135 29.82769 -0.00033
C 4.84818 28.49765 0.03589
C 6.06585 27.66651 -0.02759
C 6.10882 26.24466 0.0402
C 2.48645 0.02187 0.01641
C 3.57631 10.65274 0.02147
C 2.42711 11.38959 -0.014
C 2.43565 12.74797 -0.01118
C 3.67557 30.54796 -0.04848
C 2.46088 29.85079 -0.00892
C 2.47382 28.43813 -0.01362
C 3.65899 27.77875 -0.0008
C 3.66068 26.27598 0.0288
C 2.37335 25.65172 0.00393
C 2.38806 24.22762 0.00895
C 3.68249 23.45748 0.00685
C 3.63834 22.03535 0.02888
C 2.41945 21.37196 -0.00482
C 2.42148 19.88613 -0.01384
C 3.72938 19.15957 0.03693
C 3.68747 17.77571 0.01745
C 2.46288 17.03865 0.00488
C 2.5216 15.61889 -0.01004
C 3.64416 14.85851 -0.02896
C 3.62562 13.4366 -0.00131
C 4.89606 25.54662 0.00572
C 8.52947 14.79578 -0.03682
C 4.92698 24.13833 0.03592
C 6.16169 22.08765 0.00943
C 7.42217 32.72656 0.00415
C 8.59596 31.9456 -0.0014
C 8.65163 30.52196 0.02162
C 7.3274 29.80641 0.0076
C 7.32543 28.45161 0.01241
C 8.59453 27.73709 -0.01454
C 8.58153 26.34483 0.01945
C 4.96043 34.0308 -0.02162
C 7.34593 25.58344 0.01416
C 8.60129 23.45539 0.02299
C 8.62139 21.98505 0.00244
C 7.39268 21.31552 -0.01717
C 7.45255 19.86618 0.05265
C 8.67425 19.13948 -0.01952
C 8.59315 17.72039 -0.02813
C 7.32517 17.03275 0.00374
C 7.37531 24.19311 0.03542
C 6.16525 0.77723 0.01363
C 6.1253 2.17713 0.01877
C 4.88411 2.85748 -0.00925
C 4.96804 21.37045 0.02841
C 4.91359 19.89515 -0.01111
C 6.15364 19.20788 -0.01275
C 6.08539 17.72009 0.00985
C 4.94769 17.05421 -0.02245
C 4.88629 15.5302 -0.00428
C 6.12674 14.81619 0.03101
C 6.1049 13.45412 -0.01536
C 4.84546 12.6961 -0.02689
C 4.8256 11.31742 -0.01046
C 6.08738 10.64129 -0.00891
C 6.01783 9.31254 0.02819
C 4.836 8.51202 0.00165
C 4.9198 7.0985 -0.02971
C 6.17557 6.44309 0.02894
C 6.22263 5.06379 -0.01789
C 4.92684 4.33069 0.00444
C 6.17599 23.46676 0.00406
C 20.89588 4.95418 0.03046
C 19.67541 4.32841 0.0296
C 19.54568 3.01755 0.03374
C 33.23686 26.38543 0.00682
C 32.02801 25.64654 -0.01779
C 31.82605 24.21944 0.03794
C 33.17125 23.56307 0.01927
C 33.13691 22.12767 0.01574
C 31.93178 21.29397 -0.02383
C 31.97482 19.83994 -0.01429
C 33.12519 27.78483 0.00026
C 33.1412 19.1217 -0.0136
C 32.00738 17.04258 -0.02474
C 31.94655 15.57294 0.00369
C 33.18883 14.90614 0.00455
C 33.13681 13.5361 -0.00644
C 31.9491 12.83161 -0.01839
C 31.93994 11.35448 0.00137
C 33.14398 10.66199 0.00199
C 33.22738 17.72007 0.00594
C 31.94612 28.45201 0.0544
C 32.00033 29.86599 -0.02142
C 33.19894 30.55575 0.01428
C 30.69175 14.94419 -0.0405
C 30.69541 13.48052 -0.01303
C 29.49145 12.78806 -0.01461
C 29.42448 11.39392 -0.02155
C 30.64978 10.65295 -0.00944
C 30.6148 9.28265 -0.03735
C 29.3987 8.47094 -0.00971
C 29.47266 7.075 0.01518
C 30.74284 6.37156 0.01908
C 30.77222 4.96485 0.07705
C 29.47949 4.19175 0.0103
C 29.51605 2.85775 0.02108
C 30.7516 2.11628 0.00716
C 30.81696 0.70257 0.00307
C 29.55273 34.06307 0.00346
C 31.9803 32.59466 0.01713
C 33.27772 32.00189 -0.01694
C 33.10519 9.21561 0.04381
C 29.51186 15.62784 0.01705
C 31.88439 8.52015 0.02806
C 33.16621 6.37824 -0.00069
C 0.06378 17.04475 0.00648
C 34.41103 15.64249 0.02114
C 1.28432 14.91054 -0.02957
C 1.18525 13.51144 0.00343
C 34.34061 12.79988 -0.02656
C 34.40257 11.40455 -0.02442
C 1.19971 10.67574 -0.00027
C 1.26267 17.72673 0.01223
C 1.101 9.16805 -0.00583
C 0.01495 7.07087 -0.02849
C 1.2131 6.34186 0.02931
C 1.27085 4.91032 0.00628
C 0.02414 4.24988 -0.0345
C 34.42585 2.91177 -0.00931
C 1.24293 2.13341 -0.00939
C 1.24448 0.73561 -0.00468
C 34.39795 8.47758 -0.02302
C 1.17188 19.20089 -0.01678
C 34.30461 19.95346 0.01951
C 34.36967 21.38972 -0.02213
C 33.16708 4.93809 0.04926
C 31.93578 4.25194 -0.03838
C 31.95301 2.82367 0.00349
C 33.22463 2.08624 -0.00323
C 33.23842 0.68848 -0.00841
C 32.03615 0.05454 0.0001
C 0.05222 32.68011 -0.02927
C 1.21505 32.01328 -0.01404
C 1.24599 30.58326 0.01027
C 34.40038 29.87825 0.01831
C 34.4072 28.50859 -0.01037
C 1.2508 27.78375 -0.00439
C 1.21837 26.39598 -0.00598
C 0.03721 25.7387 -0.05239
C 34.37926 24.25872 0.03076
C 1.20204 23.49017 0.00723
C 1.1741 22.05757 0.02712
C 31.94653 7.15111 0.01504
C 29.49014 16.99635 0.0101
C 30.74471 17.75199 -0.00669
C 30.71358 19.20489 0.03531
C 25.78549 31.90566 -0.00498
C 25.85298 30.50962 0.00135
C 24.58124 30.18754 0.03102
C 24.63992 15.50237 0.02555
C 25.87852 14.82755 0.01423
C 25.83196 13.40756 -0.00285
C 24.53868 12.74031 -0.009
C 24.52058 32.6415 0.02737
C 24.54895 11.30301 -0.01199
C 25.70371 9.1611 -0.00938
C 24.43915 8.44817 -0.0264
C 24.52594 7.09794 -0.01154
C 25.82505 6.4231 0.00684
C 25.79691 4.98265 -0.01052
C 24.59307 4.26825 -0.01679
C 24.61028 2.8342 0.00367
C 25.74854 10.60773 -0.00229
C 22.07125 0.10677 0.02117
C 23.29434 0.70611 -0.04078
C 23.37023 2.18427 0.03005
C 20.84986 2.2299 -0.02845
C 20.80251 0.78022 -0.03213
C 19.5471 0.06627 0.02239
C 22.09268 32.74121 0.01153
C 23.21903 31.97073 0.02734
C 23.2642 30.60446 -0.0055
C 22.21685 15.58332 0.01515
C 23.34414 15.00044 -0.00225
C 23.28591 13.32511 0.00071
C 22.20337 12.60499 -0.01107
C 23.24036 10.64478 -0.01586
C 23.29372 9.25137 -0.01971
C 22.25588 7.28619 -0.02118
C 23.21885 6.43281 0.00733
C 23.29688 4.95786 -0.00178
C 22.12376 4.27258 0.00768
C 22.17053 2.85798 -0.0276
C 25.7952 1.9877 0.04306
C 25.79636 0.61311 0.00996
C 24.51545 34.01171 0.00195
C 27.03954 32.60801 -0.00802
C 27.014 2.7747 0.01259
C 28.32368 2.06942 0.01799
C 28.29461 0.70314 0.01699
C 27.06492 34.03814 -0.00416
C 29.51875 32.63824 0.01177
C 30.79546 31.89175 0.04266
C 30.70746 30.53856 0.01324
C 29.53939 29.71786 0.0014
C 29.44928 28.29801 0.00924
C 30.68266 27.68436 0.02326
C 30.72696 26.31952 0.00261
C 29.51551 25.44808 0.03265
C 29.43966 24.06188 -0.02049
C 30.65737 23.42579 -0.01854
C 30.63923 22.00774 -0.01415
C 29.51923 21.27505 -0.03039
C 29.34803 19.93528 0.01836
C 26.969 4.19361 0.01495
C 3.67356 31.96287 0.01572
C 28.29212 4.93912 0.00235
C 27.0574 7.11719 0.02198
C 28.35141 31.90919 -0.00218
C 28.32491 30.50794 -0.01654
C 27.08457 29.81574 -0.00037
C 27.09816 28.44525 -0.0032
C 28.12994 27.5147 0.00622
C 28.34198 26.21349 -0.02815
C 28.29787 19.15047 -0.00942
C 28.166 17.76997 0.00487
C 27.19598 16.83103 0.00826
C 27.03663 15.4986 -0.00294
C 28.35269 14.83255 0.00152
C 28.29081 13.45476 0.01257
C 26.98944 12.7018 0.02316
C 26.98861 11.30509 0.04185
C 28.18585 10.64417 0.00194
C 28.1929 9.24575 -0.00621
C 26.97497 8.51864 0.02611
C 28.23246 6.33917 0.01094
C 2.41048 32.65824 -0.00095
