360
Graphene
C 34.35709 0.10147 0.01295
C 12.23342 28.42393 0.02058
C 13.44709 27.68936 -0.01957
C 13.42478 26.21337 -0.0108
C 12.22096 25.44408 -0.00368
C 12.15993 24.11215 -0.02696
C 13.37818 23.4177 -0.00114
C 13.41269 21.9997 0.00228
C 12.16816 21.40392 0.00798
C 12.3271 29.78275 0.01965
C 12.18905 19.93045 0.00422
C 13.57431 17.79218 -0.03113
C 12.30462 17.0256 0.02098
C 12.24448 15.63746 0.01848
C 13.47135 14.92649 -0.00619
C 13.46543 13.54661 -0.02162
C 12.22383 12.82595 0.00889
C 12.24139 11.35021 -0.00481
C 13.44719 10.68489 0.00979
C 13.46092 19.20931 0.0351
C 13.49504 30.47417 -0.03682
C 13.5516 31.91816 0.00052
C 12.30963 32.53913 0.00374
C 10.95509 19.21989 -0.00925
C 10.99682 17.76317 0.01877
C 9.83528 17.01282 0.01363
C 9.80485 15.63271 -0.02162
C 11.02586 14.99721 0.00415
C 11.04213 13.6038 -0.0014
C 9.83163 12.8748 0.02162
C 9.8244 11.44654 0.0076
C 11.00933 10.6467 0.01241
C 10.99287 9.29027 -0.01454
C 9.77848 8.56472 0.01945
C 9.82233 7.13295 0.01416
C 11.10309 6.35186 0.03542
C 11.11673 4.94732 0.02299
C 9.91055 4.30973 0.00244
C 9.91966 2.8213 -0.01717
C 11.13804 2.14968 0.05265
C 11.18317 0.75393 -0.01952
C 9.92961 0.02158 -0.02813
C 13.45077 9.23958 0.01443
C 9.85942 19.91657 0.00444
C 12.29135 8.5779 0.03505
C 13.45171 6.3253 -0.04147
C 15.95908 14.86202 0.00755
C 15.93111 13.49195 -0.0054
C 14.71317 12.81137 0.00667
C 14.71598 11.3266 0.00143
C 15.95361 10.63703 -0.017
C 15.92382 9.19339 0.00364
C 14.67562 8.45252 -0.00831
C 14.74874 6.99145 -0.02957
C 14.70806 15.61635 0.01739
C 16.00235 6.33252 -0.04422
C 14.77431 4.19839 -0.00703
C 14.83779 2.70086 -0.04076
C 15.98771 2.00112 -0.00652
C 15.9863 0.59438 0.0058
C 14.81022 33.96299 -0.00865
C 17.2692 32.44353 0.00675
C 18.57801 31.76121 -0.00311
C 17.0041 28.39866 0.00742
C 15.95648 4.91968 0.00654
C 14.7478 17.08425 0.03754
C 16.05166 17.83399 -0.03557
C 15.9891 19.24763 -0.00111
C 13.52413 4.92527 -0.05302
C 12.35612 4.26594 0.00213
C 12.38264 2.8735 -0.00066
C 13.59229 2.08077 -0.00289
C 13.58261 0.67071 0.00028
C 12.37849 34.05935 -0.02213
C 14.78005 32.5732 0.03698
C 16.09982 31.77191 -0.00109
C 16.02657 30.34846 -0.00491
C 14.79628 29.7521 0.03338
C 14.60908 28.31301 -0.0258
C 15.90334 27.61079 -0.0331
C 15.91185 26.12446 -0.00316
C 14.6367 25.43115 0.02188
C 14.54821 24.05733 -0.01979
C 15.82855 23.3947 0.02691
C 15.82534 22.01423 -0.01581
C 14.58509 21.24553 0.01452
C 14.7373 19.87715 0.04892
C 12.30354 7.09275 -0.02815
C 18.30071 27.73687 -0.01594
C 9.83848 21.24358 -0.01789
C 10.86005 23.38924 -0.02971
C 4.86254 32.70959 0.01396
C 6.07218 32.02767 0.01849
C 6.0396 30.65384 -0.01142
C 4.85967 29.79772 -0.00562
C 4.91692 28.47325 -0.00494
C 4.89932 19.7205 0.00054
C 6.18779 19.33494 0.03007
C 6.11912 17.86059 -0.00095
C 2.44432 0.06914 0.0127
C 4.88832 17.14857 0.01572
C 6.15224 14.95672 -0.00892
C 6.17083 13.52392 -0.01362
C 4.92305 12.75378 -0.0008
C 4.9468 11.4208 0.0288
C 6.11763 10.71642 0.00393
C 6.17745 9.23266 0.00895
C 4.91604 8.53287 0.00685
C 4.95432 7.18404 0.02888
C 4.93537 15.70699 -0.04848
C 3.63377 0.79826 0.02635
C 3.65556 2.15268 -0.01378
C 2.4406 2.95494 -0.01303
C 3.57032 30.57241 -0.02566
C 2.39565 29.80623 -0.00094
C 2.41876 28.32428 0.02322
C 2.40252 19.93829 -0.00725
C 3.63407 19.2951 -0.05697
C 3.63896 17.8491 0.01087
C 2.41836 17.03438 -0.01343
C 2.46531 15.58996 0.00988
C 3.71599 14.90423 0.0276
C 3.68392 13.43854 0.01305
C 2.38147 12.75442 -0.00077
C 2.39408 11.35556 0.03368
C 3.71725 10.74704 -0.02929
C 3.67669 9.27866 -0.00966
C 2.43171 8.58414 -0.03337
C 2.44316 7.1547 0.01227
C 3.67251 6.41162 0.00873
C 3.6865 5.03743 -0.00049
C 2.41394 4.36719 0.00848
C 6.17931 6.4424 -0.00482
C 10.97971 22.04266 0.02894
C 6.17519 5.04045 -0.01384
C 4.8994 2.89015 0.01745
C 7.44541 8.61311 0.0402
C 7.41321 7.19122 0.00572
C 8.58844 6.43624 0.03592
C 8.62176 5.04636 0.00406
C 7.39472 4.35293 0.00943
C 7.41773 2.86408 0.02841
C 8.63605 2.11073 -0.01111
C 8.63601 0.63109 -0.01275
C 8.60999 9.33682 -0.02759
C 7.40217 0.02023 0.00985
C 11.09579 31.96093 -0.00428
C 11.08884 30.53845 0.03101
C 9.73367 29.77141 -0.01536
C 9.64136 28.37115 -0.02689
C 10.90911 27.71833 -0.01046
C 10.94193 26.25974 -0.00891
C 9.78896 25.50097 0.02819
C 9.70021 24.09389 0.00165
C 9.86064 32.69103 -0.02245
C 8.60639 10.69298 0.03589
C 7.32615 11.45168 -0.00033
C 7.38373 12.82478 -0.01062
C 6.15579 2.24094 0.00488
C 6.14466 0.79384 -0.01004
C 4.92837 0.02195 -0.02896
C 7.4348 32.69939 -0.00131
C 8.62031 32.01875 -0.01118
C 8.56343 30.52622 -0.014
C 7.27879 29.86743 0.02147
C 7.07781 28.49467 0.00373
C 8.38378 27.64218 -0.00191
C 8.52734 26.21143 0.00438
C 8.43733 23.36055 0.01291
C 8.39621 22.03852 0.00093
C 7.51322 20.10631 0.00057
C 8.55464 19.26168 -0.01634
C 8.62418 17.79299 -0.00334
C 7.40463 17.09291 0.02339
C 7.41731 15.61476 0.01641
C 8.57175 14.93826 -0.00719
C 8.61418 13.56148 0.01364
C 4.90939 4.22886 0.03693
C 18.18289 26.33776 0.0106
C 17.14628 25.48018 -0.01154
C 17.12326 23.95849 -0.01721
C 29.48025 4.27883 0.01713
C 29.52834 2.87253 -0.01694
C 30.77954 2.1957 0.01428
C 30.75904 0.74215 -0.02142
C 29.46567 0.01027 0.0544
C 31.92858 32.66236 0.00026
C 33.16351 31.91647 0.00682
C 33.2543 30.50153 -0.01779
C 30.61326 5.04591 0.00346
C 31.9517 29.80831 0.03794
C 33.24465 27.83231 0.01574
C 33.11727 26.36815 -0.02383
C 31.56012 26.1995 -0.01429
C 33.28407 23.45035 -0.0136
C 33.70527 22.18562 0.00594
C 31.72463 19.52374 -0.02474
C 33.03632 18.9903 0.00369
C 33.19912 17.63363 0.00455
C 32.05775 28.38588 0.01927
C 30.56025 6.52835 0.00307
C 29.33137 7.1931 0.00716
C 30.61736 10.51266 0.02108
C 26.99414 6.98902 -0.01854
C 28.26208 6.368 -0.01415
C 28.19077 4.93491 -0.03039
C 26.96669 4.2696 0.01836
C 27.01927 2.85722 0.03531
C 28.27141 2.24756 -0.00669
C 28.25834 0.74242 0.0101
C 27.0479 34.07063 0.01705
C 29.50596 32.62488 -0.0405
C 30.73236 31.93713 -0.01303
C 30.65744 30.48582 -0.01461
C 29.57793 29.61607 -0.02155
C 31.08395 27.18821 -0.00944
C 30.65935 17.4325 -0.03735
C 29.70808 15.98199 -0.00971
C 30.69443 14.99359 0.01518
C 30.71754 13.45319 0.01908
C 29.43222 12.89344 0.07705
C 29.35039 11.31585 0.0103
C 31.87566 16.9413 -0.00644
C 27.15394 8.42102 -0.02049
C 31.99493 15.48371 -0.01839
C 33.14177 13.34915 0.00199
C 1.21056 19.16958 -0.01678
C 1.22811 17.66088 0.01223
C 34.42438 16.99377 0.00648
C 0.00361 15.6108 0.02114
C 1.24796 14.96054 -0.02957
C 1.19491 13.51976 0.00343
C 0.00582 12.80396 -0.02656
C 0.03497 11.3411 -0.02442
C 34.27498 19.6418 0.01951
C 1.16929 10.61112 -0.00027
C 34.35436 8.53388 -0.02302
C 34.3738 7.15517 -0.02849
C 1.22038 6.48405 0.02931
C 1.19693 5.04201 0.00628
C 34.37643 4.38321 -0.0345
C 34.38348 2.88891 -0.00931
C 1.22675 2.24138 -0.00939
C 1.20235 0.79402 -0.00468
C 1.1665 9.25325 -0.00583
C 34.14177 20.95761 -0.02213
C 33.88645 24.60795 0.02712
C 34.35427 25.88389 0.00723
C 31.92379 12.69937 0.04381
C 31.91131 11.35189 0.02806
C 33.22315 10.70339 0.01504
C 33.12942 9.30896 -0.00069
C 31.90782 8.78174 0.04926
C 31.81137 7.35561 -0.03838
C 33.01414 6.54031 0.00349
C 33.13113 5.18276 -0.00323
C 31.93857 4.41692 -0.00841
C 31.97189 2.93699 0.0001
C 33.1508 2.20682 -0.02927
C 33.10961 0.81255 -0.01404
C 31.95064 0.07422 0.01027
C 34.37506 32.68177 0.01831
C 1.18194 31.90173 -0.01037
C 1.22093 30.46332 -0.00439
C 0.02711 29.75245 -0.00598
C 0.04505 28.37798 -0.05239
C 1.28945 27.69864 0.03076
C 33.16563 14.77899 0.00137
C 27.29743 11.52563 0.03265
C 27.13657 12.90098 0.00261
C 28.29347 13.75885 0.02326
C 20.89599 30.54604 -0.00225
C 19.52925 30.11793 0.00071
C 19.10783 28.76781 -0.01107
C 19.73944 16.95665 -0.01586
C 19.61818 15.57993 -0.01971
C 20.8598 14.88159 -0.02118
C 20.94516 13.48227 0.00733
C 19.72669 12.85454 -0.00178
C 21.04162 31.99178 0.01515
C 19.67347 11.35085 0.00768
C 20.87659 9.23689 0.03005
C 19.61119 8.54938 -0.04078
C 19.65306 7.13044 0.02117
C 20.83184 6.35329 0.02737
C 20.88578 4.89257 -0.00498
C 19.68942 4.21581 0.00135
C 19.62599 2.8051 0.03102
C 20.9144 2.07411 0.02555
C 20.93196 10.69501 -0.0276
C 19.71565 32.521 -0.0055
C 17.23661 33.93242 0.02734
C 18.45243 0.5852 0.01153
C 17.05758 21.41551 -0.02422
C 17.22373 19.98053 0.01277
C 18.30757 19.16825 0.00096
C 18.57521 17.8177 -0.01527
C 17.29142 17.07076 0.01087
C 17.19281 15.58655 0.00199
C 18.3959 14.93899 0.01511
C 18.43014 13.49236 -0.00478
C 17.21184 12.76698 -0.01662
C 17.1636 11.35088 -0.01185
C 18.30097 10.66681 0.01126
C 18.4089 9.21023 0.01852
C 17.17204 8.50668 -0.00381
C 17.19625 7.05364 0.03046
C 18.43633 6.31047 0.0296
C 18.42847 4.92867 0.03374
C 17.12966 4.2416 -0.02845
C 17.18408 2.82476 -0.03213
C 18.4033 2.01282 0.02239
C 20.95156 0.63884 0.01423
C 19.74374 34.00526 -0.00285
C 22.19291 32.66337 -0.009
C 23.40191 31.9899 -0.01199
C 24.58601 12.75009 0.01257
C 24.60758 11.37997 0.02316
C 26.02122 10.74951 0.04185
C 26.04729 9.21537 0.00194
C 24.66008 8.52881 -0.00621
C 24.51078 7.09117 0.02611
C 25.75583 6.35358 0.02198
C 25.71526 4.93566 0.01094
C 24.53709 4.1877 0.00235
C 24.59925 2.83165 0.01495
C 25.82629 2.08564 0.01259
C 25.85853 0.72049 0.01799
C 24.63293 0.04168 0.01699
C 27.07 32.66345 -0.00416
C 28.33811 31.87755 0.01177
C 28.32867 30.41054 0.04266
C 26.92849 29.97218 0.01324
C 26.90596 15.66264 0.0014
C 28.35112 15.33227 0.00924
C 25.8238 13.56992 0.00152
C 3.58478 31.99093 -0.03113
C 25.86756 14.99229 -0.00294
C 25.82562 32.03842 0.00487
C 23.28554 30.64116 -0.00229
C 22.25789 29.89318 -0.00938
C 22.25698 15.42587 -0.0264
C 23.30532 14.84705 -0.01154
C 23.37343 13.39887 0.00684
C 22.099 12.72917 -0.01052
C 22.17784 11.38373 -0.01679
C 23.3935 10.59026 0.00367
C 23.45167 9.23204 0.04306
C 22.10949 8.44397 0.00996
C 22.01761 6.97307 0.00195
C 23.29895 6.32136 -0.00802
C 23.35164 4.91733 -0.00218
C 22.16572 4.21005 -0.01654
C 22.12659 2.77981 -0.00037
C 23.35676 2.10788 -0.0032
C 23.41786 0.73703 0.00622
C 22.16337 0.01247 -0.02815
C 24.58531 32.70936 -0.00942
C 25.83875 30.61347 0.00826
C 2.38436 32.6848 0.017
