415
Graphene
C 0.0027 34.07883 0.01295
C 12.34252 4.28289 -0.01275
C 12.24526 2.9182 0.00985
C 13.50468 2.17811 -0.02245
C 13.56814 0.72826 -0.00428
C 12.35264 0.04265 0.03101
C 14.76508 32.69416 -0.01536
C 15.93477 31.92009 -0.02689
C 15.91815 30.43936 -0.01046
C 14.72479 29.72148 -0.00891
C 14.772 28.32237 0.02819
C 13.58189 5.05386 -0.01111
C 16.05215 27.68703 0.00165
C 14.7708 25.55827 0.02894
C 14.7698 24.11722 -0.01789
C 15.97318 23.46151 0.00444
C 15.99184 21.97474 -0.00925
C 14.75305 21.17145 0.01877
C 14.72528 19.77358 0.01363
C 15.99329 19.08634 -0.02162
C 15.9485 17.69597 0.00415
C 14.67188 17.04552 -0.0014
C 14.68465 15.61962 0.02162
C 15.97856 26.31135 -0.02971
C 15.9286 14.98841 0.0076
C 13.54144 6.43733 0.02841
C 12.30139 8.55411 0.00406
C 11.09133 0.76265 -0.01118
C 9.88465 0.01292 -0.014
C 12.29905 32.68831 0.02147
C 13.53776 31.96967 0.00373
C 13.60405 30.52937 -0.00191
C 12.3158 29.94456 0.00438
C 12.28732 28.4335 0.01291
C 13.47913 27.70752 0.00093
C 13.57402 26.21895 0.00057
C 13.57756 23.28617 -0.01634
C 12.30471 7.15601 0.00943
C 13.70457 22.09818 -0.00334
C 13.4453 19.13178 0.01641
C 13.47479 17.73733 -0.00719
C 12.30064 17.04182 0.01364
C 12.24631 15.58271 -0.01062
C 13.53946 14.89763 -0.00033
C 13.6068 13.4995 0.03589
C 12.30058 12.85036 -0.02759
C 12.27296 11.42411 0.0402
C 13.50419 10.76349 0.00572
C 13.52435 9.2902 0.03592
C 12.30173 19.77217 0.02339
C 11.0453 2.1248 -0.00131
C 16.0059 13.5421 0.01241
C 14.75164 11.3483 0.01945
C 17.15594 17.0407 -0.02162
C 17.17702 15.6637 0.00889
C 18.45491 14.94853 -0.00481
C 18.48871 13.55403 0.00979
C 17.21779 12.76632 0.01443
C 17.24868 11.37529 0.03505
C 18.47803 10.63674 -0.02815
C 18.44628 9.18148 -0.04147
C 17.19348 8.49279 -0.05302
C 17.1807 7.09396 0.00213
C 18.55402 17.70112 -0.00619
C 18.47884 6.40595 -0.00066
C 17.17198 4.30247 0.00028
C 17.15963 2.86442 -0.02213
C 18.37911 2.13693 0.03698
C 18.35488 0.78731 -0.00109
C 17.15336 0.03129 -0.00491
C 19.67168 32.63305 0.03338
C 20.91452 31.91749 -0.0258
C 20.88975 30.54606 -0.0331
C 19.67874 29.84049 -0.00316
C 19.67176 28.46247 0.02188
C 18.44758 5.01075 -0.00289
C 14.79679 12.80693 -0.01454
C 18.41165 19.10411 0.01848
C 17.18884 21.25278 -0.03113
C 15.98353 10.64254 0.01416
C 16.01469 9.28384 0.03542
C 14.68633 8.56809 0.02299
C 14.71715 7.16342 0.00244
C 15.92174 6.37786 -0.01717
C 15.94894 4.9649 0.05265
C 14.74084 4.26994 -0.01952
C 14.76098 2.84949 -0.02813
C 15.99025 2.10869 0.00374
C 15.95692 0.69714 0.00052
C 17.26767 19.74931 0.02098
C 14.69074 34.04775 -0.03682
C 18.40917 31.94797 0.02058
C 18.41482 30.50792 -0.01957
C 17.2093 29.79937 -0.0108
C 17.2601 28.41127 -0.00368
C 18.47195 27.74714 -0.02696
C 18.508 26.19172 -0.00114
C 17.16765 25.59257 0.00228
C 17.2028 24.19615 0.00798
C 18.42386 23.49675 0.00422
C 18.4341 21.99267 0.0351
C 17.16952 32.64177 0.01965
C 20.87266 27.74746 -0.01979
C 9.83662 2.86885 -0.02896
C 11.05864 4.96681 0.00488
C 3.69233 0.72838 -0.04999
C 2.4761 34.07044 0.04505
C 4.95883 32.7294 0.03284
C 6.18309 31.97073 -0.04307
C 6.14381 30.56434 0.03189
C 4.88569 29.90067 0.00031
C 4.94721 28.45572 -0.003
C 6.11391 27.70755 0.01402
C 6.12734 26.25576 0.02379
C 4.85187 25.5744 0.00907
C 3.70583 2.14226 -0.03291
C 5.00335 24.16762 0.00643
C 6.24036 22.08481 0.03267
C 4.9821 21.21165 0.02374
C 4.87314 19.80713 0.00402
C 4.79311 12.79961 0.0073
C 4.88785 11.41508 0.0174
C 6.15766 10.66889 0.03828
C 6.13773 9.25845 0.01226
C 4.96965 8.48536 -0.00279
C 4.93297 7.10547 0.01996
C 6.1053 6.32542 -0.03996
C 6.19681 23.43211 -0.01509
C 6.05107 4.90951 0.01465
C 2.47831 2.84785 0.02769
C 3.66408 4.99069 0.00208
C 3.63818 30.56527 0.01138
C 2.406 29.82606 0.03278
C 2.47771 28.33289 -0.00177
C 3.74201 27.71677 0.04421
C 3.71698 26.35145 0.00088
C 2.46215 25.61809 0.00828
C 2.45998 24.13557 -0.02375
C 3.63676 23.40208 0.00558
C 3.7449 21.94947 -0.0059
C 2.46451 21.32026 -0.01386
C 2.44635 4.29025 0.01707
C 2.49314 19.88818 -0.02805
C 2.53049 17.04321 0.00245
C 2.39505 15.74283 0.02728
C 3.78724 13.49765 -0.00039
C 2.55991 12.84029 0.0064
C 2.49092 11.40122 0.00211
C 3.62547 10.57089 -0.00449
C 3.60415 9.16569 -0.01979
C 2.38908 8.4692 0.02784
C 2.38947 7.03337 -0.01977
C 3.67967 6.41438 -0.00561
C 3.76146 19.28773 0.00081
C 9.81489 4.32342 -0.01004
C 4.89022 4.17048 -0.00074
C 6.16067 2.1661 0.0086
C 8.62819 0.77689 0.01396
C 7.39869 0.0038 0.01849
C 9.81181 32.65083 -0.01142
C 11.09039 31.97602 -0.00562
C 11.11104 30.59139 -0.00494
C 9.80352 29.82912 0.00054
C 9.77661 28.33898 0.03007
C 11.11962 27.69343 -0.00095
C 9.80861 19.91366 0.01572
C 11.03851 19.33155 -0.04848
C 8.63521 2.17244 0.0127
C 11.00175 17.84684 -0.00892
C 9.76641 15.65982 -0.0008
C 11.02275 14.96245 0.0288
C 11.01863 13.52328 0.00393
C 9.82487 12.8105 0.00895
C 9.87985 11.36959 0.00685
C 11.08567 10.67763 0.02888
C 11.02555 9.25907 -0.00482
C 9.81513 8.59363 -0.01384
C 9.79008 7.14654 0.03693
C 11.01669 6.41288 0.01745
C 9.76824 17.14354 -0.01362
C 4.93852 2.77773 -0.00518
C 7.41626 2.89786 0.02635
C 8.50647 5.09995 -0.01303
C 6.18273 0.78305 -0.00643
C 4.96269 0.05294 0.017
C 7.39266 32.64863 -0.03113
C 8.61026 31.95017 -0.02566
C 8.56614 30.51425 -0.00094
C 7.36489 29.83939 0.02322
C 7.29977 28.432 -0.00725
C 8.45025 27.69319 -0.05697
C 7.26038 25.60821 0.01087
C 7.23683 21.12903 -0.01343
C 7.35981 4.29501 -0.01378
C 7.31485 19.93595 0.00988
C 8.66762 17.88738 0.01305
C 8.65283 14.90727 -0.00077
C 8.52616 13.53801 0.03368
C 7.35083 12.77821 -0.02929
C 7.39444 11.40639 -0.00966
C 8.67202 10.71143 -0.03337
C 8.58668 9.26221 0.01227
C 7.34271 8.48737 0.00873
C 7.30665 7.12784 -0.00049
C 8.55841 6.50084 0.00848
C 8.58066 19.20442 0.0276
C 3.69318 31.95631 -0.00407
C 20.93529 26.1916 0.02691
C 20.88458 22.01317 0.01452
C 30.75926 10.6883 -0.00944
C 30.74992 9.19211 -0.03735
C 29.52938 8.50893 -0.00971
C 29.48543 7.09466 0.01518
C 30.71205 6.41744 0.01908
C 30.76171 5.02876 0.07705
C 29.5732 4.18402 0.0103
C 29.53383 2.7568 0.02108
C 30.74767 2.1426 0.00716
C 30.70981 0.74884 0.00307
C 29.51766 11.31761 -0.02155
C 29.4605 0.07892 0.00346
C 33.25534 31.86623 -0.01694
C 33.13069 30.45289 0.01428
C 31.88529 29.82552 -0.02142
C 31.89196 28.37313 0.0544
C 33.15839 27.71098 0.00026
C 33.15402 26.29275 0.00682
C 31.96537 25.52856 -0.01779
C 32.02624 24.10419 0.03794
C 33.22027 23.44299 0.01927
C 33.24828 22.0469 0.01574
C 32.00227 32.56392 0.01713
C 31.96887 21.34341 -0.02383
C 29.57656 12.73196 -0.01461
C 30.684 14.86959 -0.0405
C 27.06445 4.2417 0.01495
C 27.0406 2.82159 0.01259
C 28.27548 2.17842 0.01799
C 28.26992 0.78864 0.01699
C 27.04159 0.01805 -0.00416
C 29.57069 32.73146 0.01177
C 30.6837 31.97284 0.04266
C 30.71392 30.53648 0.01324
C 29.51288 29.82044 0.0014
C 29.57452 28.42045 0.00924
C 30.78421 13.47415 -0.01303
C 30.70515 27.64013 0.02326
C 29.46333 25.56581 0.03265
C 29.51298 24.19275 -0.02049
C 30.76893 23.45587 -0.01854
C 30.73647 21.95008 -0.01415
C 29.44973 21.236 -0.03039
C 29.51037 19.85539 0.01836
C 30.81838 19.16156 0.03531
C 30.66976 17.71199 -0.00669
C 29.43545 16.98898 0.0101
C 29.46682 15.56162 0.01705
C 30.71918 26.21372 0.00261
C 28.29354 4.8523 0.00235
C 32.00341 19.93935 -0.01429
C 33.23405 17.79588 0.00594
C 1.20891 23.4301 0.00723
C 1.25173 21.98338 0.02712
C 34.43239 21.27681 -0.02213
C 34.41639 19.87755 0.01951
C 1.1924 19.18436 -0.01678
C 1.29515 17.72022 0.01223
C 34.42703 17.07271 0.00648
C 34.38491 15.66291 0.02114
C 1.23765 14.97955 -0.02957
C 1.21433 13.53156 0.00343
C 34.40633 24.1521 0.03076
C 0.01023 12.81846 -0.02656
C 1.23127 10.70438 -0.00027
C 1.20642 9.29471 -0.00583
C 0.02337 8.50542 -0.02302
C 34.40426 7.07306 -0.02849
C 1.16341 6.35799 0.02931
C 1.20053 4.96987 0.00628
C 34.41134 4.30229 -0.0345
C 34.40219 2.76133 -0.00931
C 1.24013 2.10352 -0.00939
C 1.21127 0.6935 -0.00468
C 34.41861 11.34564 -0.02442
C 33.20443 19.19859 -0.0136
C 34.34156 25.51836 -0.05239
C 1.18835 27.68062 -0.00439
C 31.97673 17.00934 -0.02474
C 31.94777 15.59112 0.00369
C 33.17498 14.88731 0.00455
C 33.19922 13.45991 -0.00644
C 32.03796 12.75671 -0.01839
C 31.99965 11.39011 0.00137
C 33.19405 10.60988 0.00199
C 33.22894 9.14788 0.04381
C 31.93713 8.50383 0.02806
C 31.96541 7.06922 0.01504
C 1.1791 26.24316 -0.00598
C 33.20465 6.3514 -0.00069
C 31.95267 4.32719 -0.03838
C 31.8938 2.84709 0.00349
C 33.10974 2.08299 -0.00323
C 33.16502 0.645 -0.00841
C 31.9061 34.02116 0.0001
C 0.06992 32.64958 -0.02927
C 1.25594 31.92508 -0.01404
C 1.13079 30.52381 0.01027
C 34.35431 29.75702 0.01831
C 34.41328 28.33872 -0.01037
C 33.20481 4.96035 0.04926
C 19.70387 25.48707 -0.01581
C 28.30787 6.30064 0.01094
C 27.06951 8.47804 0.02611
C 22.15751 24.14007 -0.01721
C 23.32529 23.32018 -0.02422
C 23.28647 21.97667 0.01277
C 22.17206 15.64389 0.00096
C 23.38174 14.81008 -0.01527
C 23.42364 13.4403 0.01087
C 22.1503 12.70911 0.00199
C 22.1292 11.31351 0.01511
C 23.3513 10.64253 -0.00478
C 23.39144 9.19586 -0.01662
C 22.19685 25.49653 -0.01154
C 22.18571 8.48944 -0.01185
C 23.35199 6.38043 0.01852
C 23.39736 4.98628 -0.00381
C 22.17127 4.29931 0.03046
C 22.13654 2.87538 0.0296
C 23.37543 2.12791 0.03374
C 23.3428 0.65977 -0.02845
C 22.14184 34.06103 -0.03213
C 24.59244 32.64423 0.02239
C 25.79491 32.016 0.01153
C 25.79477 30.58087 0.02734
C 22.11407 7.1164 0.01126
C 24.52386 29.85153 -0.0055
C 23.39117 26.2569 0.0106
C 22.17153 28.41692 0.00742
C 19.79249 21.46486 0.04892
C 19.67454 16.95198 -0.00111
C 19.73677 15.66308 -0.03557
C 20.93929 14.892 0.03754
C 20.94784 13.44166 0.01739
C 19.65078 12.76437 0.00755
C 19.6567 11.36287 -0.0054
C 20.92762 10.62562 0.00667
C 21.00659 9.2845 0.00143
C 19.72304 8.56163 -0.017
C 23.37564 27.68525 -0.01594
C 19.68361 7.08499 0.00364
C 20.81875 4.98115 -0.02957
C 19.61823 4.25795 -0.04422
C 19.59808 2.81448 0.00654
C 20.87771 2.15422 -0.00703
C 20.8773 0.66828 -0.04076
C 19.52941 34.02729 -0.00652
C 22.11496 32.65384 0.0058
C 23.35733 31.97644 -0.00865
C 23.2689 30.54029 0.00675
C 22.11007 29.82019 -0.00311
C 20.89299 6.40312 -0.00831
C 27.08237 7.06261 0.02198
C 24.60271 28.39581 0.01515
C 25.85731 26.21051 0.00071
C 28.31563 31.95811 -0.01679
C 28.30286 30.50526 0.00367
C 27.00868 29.86478 0.04306
C 27.17388 28.48704 0.00996
C 28.32812 27.70293 0.00195
C 28.23188 26.22704 -0.00802
C 27.01315 25.52 -0.00218
C 27.03735 24.15616 -0.01654
C 28.24021 23.45817 -0.00037
C 28.2617 21.99519 -0.0032
C 27.14925 32.71358 -0.01052
C 27.08936 21.32533 0.00622
C 28.25399 19.16735 -0.00942
C 28.22788 17.72592 0.00487
C 27.00723 17.07522 0.00826
C 27.06147 15.64382 -0.00294
C 28.23302 14.88143 0.00152
C 28.25246 13.41631 0.01257
C 27.07232 12.73272 0.02316
C 27.02144 11.31271 0.04185
C 28.29432 10.63257 0.00194
C 28.31005 9.20149 -0.00621
C 27.04042 19.95997 -0.02815
C 25.90693 27.74777 -0.00225
C 24.57973 34.07635 0.00684
C 25.85389 2.06754 -0.0264
C 24.60663 25.57774 -0.01107
C 24.60271 24.16248 -0.01586
C 25.82643 23.39065 -0.01971
C 25.85989 21.99864 -0.02118
C 24.59387 21.24152 0.00733
C 24.56104 19.93081 -0.00178
C 25.80762 19.24696 0.00768
C 25.76648 17.78074 -0.0276
C 24.62584 16.97593 0.03005
C 24.63158 15.58059 -0.04078
C 25.75177 0.65596 -0.01154
C 25.90638 14.89107 0.02117
C 24.63616 12.74277 -0.00498
C 24.56169 11.36317 0.00135
C 25.7686 10.64162 0.03102
C 25.80976 9.23576 0.02555
C 24.57047 8.44533 0.01423
C 24.53958 7.03247 -0.00285
C 25.79859 6.37375 -0.009
C 25.82095 5.01953 -0.01199
C 24.67036 4.26314 -0.00229
C 24.56905 2.75369 -0.00938
C 25.8822 13.47705 0.02737
C 2.51145 32.67384 -0.01299
