394
Graphene
C 0.0126 34.02793 0.01295
C 11.05885 0.80289 -0.00925
C 9.79939 0.08593 0.01877
C 12.27835 32.74239 0.01363
C 13.51038 31.94125 -0.02162
C 13.44187 30.54334 0.00415
C 12.15664 29.89222 -0.0014
C 12.1892 28.45008 0.02162
C 13.42401 27.84596 0.0076
C 13.60955 26.36881 0.01241
C 10.95274 2.23616 0.00444
C 12.39766 25.61722 -0.01454
C 12.20978 21.2111 0.01416
C 12.23175 19.95847 0.03542
C 12.34204 17.01678 0.02299
C 12.23908 15.71777 0.00244
C 13.50466 14.87218 -0.01717
C 13.55814 13.45858 0.05265
C 12.35329 12.82226 -0.01952
C 12.32776 11.3516 -0.02813
C 13.49113 10.59219 0.00374
C 12.21616 24.23113 0.01945
C 9.7729 2.93193 -0.01789
C 9.90041 4.39027 0.02894
C 11.08629 5.04802 -0.02971
C 11.05246 27.74884 -0.00033
C 10.98467 26.28323 0.03589
C 9.72897 25.57529 -0.02759
C 9.76244 24.20375 0.0402
C 10.98707 23.55227 0.00572
C 10.95882 22.01015 0.03592
C 9.8472 21.26564 0.00406
C 9.87044 19.93556 0.00943
C 10.99953 19.12551 0.02841
C 11.06931 17.75841 -0.01111
C 9.85521 16.9921 -0.01275
C 9.89578 15.62012 0.00985
C 11.09189 14.95445 -0.02245
C 11.18853 13.50498 -0.00428
C 9.86435 12.72277 0.03101
C 9.83816 11.37025 -0.01536
C 11.09773 10.67073 -0.02689
C 11.04897 9.23667 -0.01046
C 9.83612 8.54299 -0.00891
C 9.75633 7.13837 0.02819
C 11.01733 6.40833 0.00165
C 13.55352 9.18451 0.00052
C 9.82731 28.54102 -0.01062
C 12.27852 8.45396 -0.03682
C 13.5428 6.32283 0.02058
C 14.6946 2.92204 0.00028
C 15.98525 2.25972 -0.02213
C 15.95697 0.76905 0.03698
C 14.76551 34.06882 -0.00109
C 17.21622 32.81111 -0.00491
C 17.19673 27.67665 0.03338
C 18.24676 28.57926 -0.0258
C 18.42405 13.40729 -0.0331
C 17.26264 12.62237 -0.00316
C 14.69563 4.30949 -0.00289
C 17.28113 11.15103 0.02188
C 18.4818 9.20882 0.02691
C 17.22655 8.55553 -0.01581
C 17.20042 7.07631 0.01452
C 18.42686 6.37728 0.04892
C 18.411 4.96763 -0.00111
C 17.21441 4.22811 -0.03557
C 17.2059 2.82771 0.03754
C 18.41505 2.09775 0.01739
C 18.46856 0.68393 0.00755
C 18.51174 10.65311 -0.01979
C 15.97694 4.90302 -0.00066
C 16.01719 6.3906 0.00213
C 14.79258 7.05874 -0.05302
C 13.5136 4.9733 -0.01957
C 12.3401 4.30204 -0.0108
C 12.25323 2.89411 -0.00368
C 13.52508 2.12946 -0.02696
C 13.52168 0.71254 -0.00114
C 12.27414 0.093 0.00228
C 14.82039 32.59364 0.00798
C 16.0903 31.92305 0.00422
C 15.89135 30.44761 0.0351
C 14.66871 29.89133 -0.03113
C 14.70339 28.42269 0.02098
C 15.75052 27.32046 0.01848
C 15.0767 26.03319 -0.00619
C 14.73777 15.30576 -0.02162
C 15.9185 14.65394 0.00889
C 15.9438 13.33766 -0.00481
C 14.76592 12.70848 0.00979
C 14.7456 11.27465 0.01443
C 15.97218 10.53377 0.03505
C 15.97744 9.13427 -0.02815
C 14.76774 8.47407 -0.04147
C 12.29191 7.04488 0.01965
C 9.76725 29.89115 0.01364
C 10.93966 30.52998 -0.00719
C 11.06536 31.95908 0.01641
C 2.3617 4.34024 0.01996
C 2.40191 2.79111 -0.03996
C 3.61945 2.16122 0.01465
C 3.63353 0.74194 -0.00074
C 2.42188 0.0369 -0.00518
C 4.91943 32.7251 0.0086
C 6.16307 32.04438 -0.00643
C 6.08814 30.54946 0.017
C 4.91338 29.86356 -0.03113
C 3.61951 5.03808 -0.00279
C 4.93176 28.4644 -0.02566
C 6.07555 26.32248 0.02322
C 4.84984 25.67369 -0.00725
C 4.8219 24.15351 -0.05697
C 6.0408 23.44488 0.01087
C 6.09248 22.04404 -0.01343
C 4.88934 21.24904 0.00988
C 4.83722 19.87267 0.0276
C 6.11484 19.22 0.01305
C 6.24441 17.74603 -0.00077
C 6.14824 27.66218 -0.00094
C 3.65391 6.46548 0.01226
C 2.44218 7.11114 0.03828
C 2.37637 8.50527 0.0174
C 3.70167 30.59883 -0.00561
C 2.46075 29.82553 0.00208
C 2.3379 28.40809 0.01707
C 3.62561 27.73103 0.02769
C 3.64866 26.3811 -0.03291
C 2.42441 25.56613 -0.04999
C 2.43516 24.17979 0.04505
C 3.6487 23.47855 0.03284
C 3.65084 22.04907 -0.04307
C 2.48156 21.39067 0.03189
C 2.53397 19.90796 0.00031
C 3.63268 19.09535 -0.003
C 3.62866 17.67699 0.01402
C 2.43833 16.95475 0.02379
C 2.44074 15.54392 0.00907
C 3.64444 14.86157 0.00643
C 3.64761 13.49101 -0.01509
C 2.46209 12.87062 0.03267
C 2.41833 11.35543 0.02374
C 3.62566 10.69878 0.00402
C 3.61551 9.27767 0.0073
C 4.86925 16.97621 0.03368
C 4.92196 15.5655 -0.02929
C 6.18095 14.8943 -0.00966
C 6.12864 13.53035 -0.03337
C 7.3914 19.84021 0.02888
C 8.64224 19.17182 -0.00482
C 8.65702 17.83844 -0.01384
C 7.42153 16.99216 0.03693
C 7.3977 15.59048 0.01745
C 8.64128 14.92359 0.00488
C 8.68578 13.47429 -0.01004
C 7.39865 12.77606 -0.02896
C 7.37547 11.38162 -0.00131
C 8.56644 10.72391 -0.01118
C 8.6054 9.25444 -0.014
C 7.28628 8.57366 0.02147
C 7.28854 7.18966 0.00373
C 8.51213 6.43096 -0.00191
C 8.58885 5.0432 0.00438
C 7.33781 4.40384 0.01291
C 7.3777 2.96795 0.00093
C 8.58727 2.27675 0.00057
C 8.5602 0.79246 -0.01634
C 7.32141 0.13516 -0.00334
C 9.83574 32.7447 0.02339
C 7.45541 21.3833 0.00685
C 17.18572 0.06828 -0.0054
C 8.61805 22.0589 0.00895
C 7.34518 24.18073 0.0288
C 4.8727 12.81379 0.01227
C 4.90911 11.33215 0.00873
C 6.1261 10.68487 -0.00049
C 6.07957 9.271 0.00848
C 4.84938 8.60612 -0.01303
C 4.91624 7.15733 -0.01378
C 6.0817 6.55225 0.02635
C 6.02367 5.06844 0.0127
C 4.80691 4.33521 0.01396
C 4.85853 2.94011 0.01849
C 6.11578 2.22235 -0.01142
C 6.11289 0.82774 -0.00562
C 4.88218 0.03649 -0.00494
C 7.32872 32.76632 0.00054
C 8.59282 32.0812 0.03007
C 8.55645 30.68228 -0.00095
C 7.3378 29.96565 0.01572
C 7.38703 28.47672 -0.04848
C 8.58871 27.77802 -0.00892
C 8.53336 26.25205 -0.01362
C 7.29847 25.58573 -0.0008
C 8.5599 23.44167 0.00393
C 20.89785 32.0243 0.00667
C 20.87356 30.7161 0.00143
C 19.60367 27.98545 -0.017
C 30.64017 6.3795 0.01908
C 30.71343 4.90225 0.07705
C 29.48804 4.28028 0.0103
C 29.45263 2.76459 0.02108
C 30.72954 2.09498 0.00716
C 30.7548 0.69742 0.00307
C 29.48815 0.01641 0.00346
C 31.94929 32.71348 0.01713
C 33.08338 31.91851 -0.01694
C 29.48041 7.12799 0.01518
C 33.1545 30.54734 0.01428
C 31.95127 28.44233 0.0544
C 33.14446 27.73151 0.00026
C 33.19138 26.2875 0.00682
C 31.92161 25.61038 -0.01779
C 31.97783 24.17284 0.03794
C 33.21189 23.46734 0.01927
C 33.2079 21.9243 0.01574
C 31.96575 21.29845 -0.02383
C 31.98103 19.88161 -0.01429
C 31.96843 29.84966 -0.02142
C 29.49497 8.59008 -0.00971
C 30.71559 9.23051 -0.03735
C 30.70024 10.64366 -0.00944
C 29.48209 32.64549 0.01177
C 30.64254 31.98292 0.04266
C 30.74709 30.48401 0.01324
C 29.47117 29.85446 0.0014
C 29.4935 28.39176 0.00924
C 30.74303 27.70591 0.02326
C 30.75018 26.31251 0.00261
C 29.57459 25.54017 0.03265
C 29.55653 24.10355 -0.02049
C 30.74459 23.36042 -0.01854
C 30.71634 22.00264 -0.01415
C 29.51969 21.26436 -0.03039
C 29.50881 19.8611 0.01836
C 30.73377 19.15798 0.03531
C 30.61811 17.78464 -0.00669
C 29.42295 17.01009 0.0101
C 29.4887 15.67258 0.01705
C 30.69687 14.9307 -0.0405
C 30.69048 13.55077 -0.01303
C 29.43925 12.78258 -0.01461
C 29.42443 11.3253 -0.02155
C 33.183 19.11447 -0.0136
C 33.20412 17.70474 0.00594
C 31.88393 17.07279 -0.02474
C 31.88993 15.65262 0.00369
C 1.205 22.00481 0.02712
C 34.42307 21.25964 -0.02213
C 0.03943 19.8885 0.01951
C 1.28977 19.21906 -0.01678
C 1.27979 17.77918 0.01223
C 0.02734 17.05033 0.00648
C 0.02869 15.59125 0.02114
C 1.18389 14.90222 -0.02957
C 1.20541 13.52782 0.00343
C 0.00459 12.86678 -0.02656
C 34.36785 11.399 -0.02442
C 1.16299 10.63489 -0.00027
C 1.13115 9.2573 -0.00583
C 34.36378 8.58369 -0.02302
C 34.3794 7.10584 -0.02849
C 1.19445 6.41912 0.02931
C 1.18712 5.00485 0.00628
C 34.43101 4.30137 -0.0345
C 34.3622 2.86713 -0.00931
C 1.16655 2.05471 -0.00939
C 1.22964 0.68244 -0.00468
C 1.22585 23.4358 0.00723
C 27.03395 34.06079 -0.00416
C 0.01159 24.17845 0.03076
C 1.18132 26.27223 -0.00598
C 33.11042 14.90232 0.00455
C 33.11707 13.48861 -0.00644
C 31.89937 12.77809 -0.01839
C 31.88564 11.36502 0.00137
C 33.11936 10.71558 0.00199
C 33.17981 9.23245 0.04381
C 31.94638 8.54514 0.02806
C 31.88492 7.09334 0.01504
C 33.16326 6.34487 -0.00069
C 33.29168 4.95883 0.04926
C 32.01098 4.27717 -0.03838
C 31.92988 2.84325 0.00349
C 33.18484 2.10808 -0.00323
C 33.17874 0.64801 -0.00841
C 31.96804 34.0714 0.0001
C 34.40166 32.58461 -0.02927
C 1.20911 31.87362 -0.01404
C 1.243 30.51565 0.01027
C 0.00501 29.8803 0.01831
C 34.33293 28.44382 -0.01037
C 1.12725 27.76448 -0.00439
C 34.39231 25.55873 -0.05239
C 3.71604 32.01738 -0.01977
C 28.31334 0.70035 0.01699
C 26.99997 2.85083 0.01259
C 22.0958 11.30691 -0.01662
C 23.39261 10.56161 -0.01185
C 23.33982 9.20841 0.01126
C 22.06878 8.52989 0.01852
C 22.11592 7.11883 -0.00381
C 23.39473 6.31177 0.03046
C 23.27902 4.94157 0.0296
C 22.1108 4.24008 0.03374
C 22.12988 2.81225 -0.02845
C 22.13841 12.73405 -0.00478
C 23.32987 2.12223 -0.03213
C 22.16145 0.0212 0.01153
C 24.58008 32.64018 0.02734
C 25.85069 31.94279 -0.0055
C 25.81733 30.49091 0.01515
C 24.54434 29.9002 -0.00225
C 24.58865 28.4114 0.00071
C 25.81379 27.57519 -0.01107
C 25.81511 26.14814 -0.01586
C 24.40188 25.53698 -0.01971
C 23.30656 0.67111 0.02239
C 23.39572 13.44572 0.01511
C 23.19495 14.78713 0.00199
C 23.23623 26.28652 0.01087
C 20.79524 27.89439 0.00364
C 21.04678 13.49319 -0.00831
C 19.76538 12.88492 -0.02957
C 19.68218 11.4325 -0.04422
C 20.84752 10.66058 0.00654
C 20.89882 9.21224 -0.00703
C 19.69235 8.42417 -0.04076
C 19.65636 7.05315 -0.00652
C 20.91111 6.47051 0.0058
C 20.91154 4.94168 -0.00865
C 19.66444 4.25604 0.00675
C 19.68955 2.81895 -0.00311
C 20.87234 2.12754 0.00742
C 20.84739 0.6347 -0.01594
C 19.71036 34.04476 0.0106
C 22.17531 32.71929 -0.01154
C 23.34643 31.90476 -0.01721
C 23.33196 30.59122 -0.02422
C 22.06334 30.00657 0.01277
C 22.16423 28.46395 0.00096
C 23.34771 27.73318 -0.01527
C 24.86056 24.28119 -0.02118
C 25.84744 23.37466 0.00733
C 25.80698 21.94707 -0.00178
C 25.81052 19.35011 0.00768
C 27.05407 25.40582 -0.00218
C 27.15417 24.08356 -0.01654
C 28.28204 23.42544 -0.00037
C 28.29439 21.99167 -0.0032
C 27.10744 21.27011 0.00622
C 27.02368 19.86936 -0.02815
C 28.29515 19.13994 -0.00942
C 28.20801 17.76097 0.00487
C 26.90953 17.16558 0.00826
C 26.87287 15.65892 -0.00294
C 28.10788 14.97974 0.00152
C 28.22382 13.55807 0.01257
C 27.04835 12.85854 0.02316
C 27.06484 11.34354 0.04185
C 28.24859 10.61674 0.00194
C 28.19137 9.17831 -0.00621
C 26.96939 8.45563 0.02611
C 26.97961 7.07166 0.02198
C 28.24279 6.39757 0.01094
C 28.2594 5.00086 0.00235
C 27.03341 4.27855 0.01495
C 28.29871 26.14974 -0.00802
C 28.27378 2.17841 0.01799
C 28.31946 27.62697 0.00195
C 26.98477 29.759 0.04306
C 25.59499 17.81432 -0.0276
C 24.46615 17.04769 0.03005
C 24.40435 15.62324 -0.04078
C 25.6344 14.88934 0.02117
C 25.75062 13.49296 0.02737
C 24.53225 12.71871 -0.00498
C 24.57593 11.25937 0.00135
C 25.84101 10.55344 0.03102
C 25.8101 9.19168 0.02555
C 24.59037 8.48435 0.01423
C 24.5705 7.0533 -0.00285
C 25.76136 6.33108 -0.009
C 25.79013 4.95188 -0.01199
C 24.602 4.2096 -0.00229
C 24.59251 2.79947 -0.00938
C 25.85293 2.06643 -0.0264
C 25.75863 0.66388 -0.01154
C 24.53501 0.01345 0.00684
C 27.07589 32.67508 -0.01052
C 28.27496 31.92547 -0.01679
C 28.3146 30.54056 0.00367
C 27.07994 28.3381 0.00996
C 2.45636 32.67704 0.02784
