331
Graphene
C 0.01062 0.0294 0.01295
C 12.34514 2.81078 -0.02815
C 13.50806 2.20709 -0.04147
C 13.52195 0.76405 -0.05302
C 12.31766 34.05498 0.00213
C 14.79313 32.70009 -0.00066
C 16.01018 31.95942 -0.00289
C 15.95957 30.49715 0.00028
C 12.2397 4.23729 0.03505
C 14.74662 29.70322 -0.02213
C 15.97686 27.61084 -0.00109
C 16.04524 26.27814 -0.00491
C 14.76846 8.45984 0.03338
C 14.79593 7.09478 -0.0258
C 16.03453 6.3671 -0.0331
C 15.93845 5.0541 -0.00316
C 14.76426 4.23315 0.02188
C 14.75235 28.32727 0.03698
C 13.46682 4.93543 0.01443
C 13.56681 6.31797 0.00979
C 12.23911 7.09143 -0.00481
C 9.81811 7.12916 0.01965
C 11.06227 6.34228 0.02058
C 11.02484 4.99781 -0.01957
C 9.75734 4.32333 -0.0108
C 9.86929 2.88148 -0.00368
C 11.10307 2.12841 -0.02696
C 11.0933 0.72 -0.00114
C 9.86164 0.02022 0.00228
C 12.27217 32.67003 0.00798
C 13.52366 31.9491 0.00422
C 13.56012 30.5383 0.0351
C 12.31431 29.88225 -0.03113
C 12.27391 28.39755 0.02098
C 13.51693 27.73101 0.01848
C 13.515 26.19496 -0.00619
C 12.3551 25.59905 -0.02162
C 12.28057 8.57323 0.00889
C 14.85101 2.83732 -0.01979
C 15.98787 2.09043 0.02691
C 15.98197 0.74134 -0.01581
C 14.77448 34.05349 0.01452
C 20.82911 27.66689 -0.00311
C 20.93357 26.24722 0.00742
C 19.74268 25.55516 -0.01594
C 20.87972 9.21818 0.0106
C 19.7277 8.56905 -0.01154
C 19.62135 7.2062 -0.01721
C 20.8655 6.41199 -0.02422
C 20.88107 4.88805 0.01277
C 19.66072 4.22031 0.00096
C 19.67852 2.87856 -0.01527
C 20.912 2.08642 0.01087
C 20.86882 0.70643 0.00199
C 19.6483 0.01793 0.01511
C 22.15837 32.64594 -0.00478
C 23.397 32.00293 -0.01662
C 23.37259 30.48449 -0.01185
C 22.15821 29.80143 0.01126
C 19.68084 28.39785 0.00675
C 9.88355 8.48787 -0.03682
C 19.62336 29.82157 -0.00865
C 20.91428 31.9382 -0.00652
C 17.24664 32.59911 0.04892
C 18.48779 31.91683 -0.00111
C 18.42883 30.55536 -0.03557
C 17.18692 29.80663 0.03754
C 17.17943 28.40386 0.01739
C 18.37241 27.71846 0.00755
C 18.4909 26.2787 -0.0054
C 17.18831 8.52521 0.00667
C 17.25923 7.07232 0.00143
C 18.47048 6.38895 -0.017
C 18.46464 5.00989 0.00364
C 17.22792 4.31568 -0.00831
C 17.2634 2.88034 -0.02957
C 18.44618 2.15093 -0.04422
C 18.44148 0.68227 0.00654
C 17.18071 34.03131 -0.00703
C 19.68696 32.6536 -0.04076
C 20.96296 30.54511 0.0058
C 22.11183 28.37265 0.01852
C 11.07136 9.21189 0.00052
C 9.78077 25.55742 -0.02813
C 3.66475 4.95073 -0.014
C 2.39188 4.2676 0.02147
C 2.46355 2.8726 0.00373
C 3.73204 2.12805 -0.00191
C 3.67011 0.70411 0.00438
C 2.45064 34.0119 0.01291
C 4.89566 32.64921 0.00093
C 3.70886 6.36664 -0.01118
C 6.11087 31.92558 0.00057
C 4.96011 29.80883 -0.00334
C 4.96852 28.43091 0.02339
C 6.13806 27.75534 0.01641
C 6.18263 26.25615 -0.00719
C 4.90278 25.58582 0.01364
C 4.89661 24.17222 -0.01062
C 6.18877 13.50543 -0.00033
C 6.17286 30.48394 -0.01634
C 2.44062 7.12561 -0.00131
C 2.41812 8.55622 -0.02896
C 3.63065 9.24275 -0.01004
C 3.69773 30.52037 0.03007
C 2.45513 29.86484 -0.00095
C 2.4558 28.35306 0.01572
C 3.68449 27.72204 -0.04848
C 3.70197 26.28986 -0.00892
C 2.4595 25.5833 -0.01362
C 2.39709 24.21918 -0.0008
C 3.73812 23.48232 0.0288
C 2.45161 21.26563 0.00393
C 2.43668 19.92523 0.00895
C 2.40065 17.08404 0.00685
C 2.52272 15.56405 0.02888
C 3.74404 14.91919 -0.00482
C 3.65795 13.48043 -0.01384
C 2.52486 12.74508 0.03693
C 2.45173 11.34125 0.01745
C 3.61655 10.63037 0.00488
C 4.88465 12.88126 0.03589
C 4.91731 11.35997 -0.02759
C 6.17045 10.63348 0.0402
C 6.12794 9.24818 0.00572
C 8.66397 9.22684 0.01877
C 7.35576 8.47779 0.01363
C 7.40426 7.06602 -0.02162
C 8.5158 6.35524 0.00415
C 8.58234 5.04557 -0.0014
C 7.34332 4.3074 0.02162
C 7.36662 2.84543 0.0076
C 8.64623 2.16264 0.01241
C 8.61126 0.62491 -0.01454
C 7.40775 0.00961 0.01945
C 9.85361 32.72156 0.01416
C 11.05094 31.98668 0.03542
C 11.07202 30.53028 0.02299
C 9.81138 29.75989 0.00244
C 9.84153 28.37638 -0.01717
C 11.11714 27.67512 0.05265
C 11.07119 26.20296 -0.01952
C 8.5909 10.66842 -0.00925
C 9.84814 24.20378 0.00374
C 7.36289 11.37624 0.00444
C 7.43299 24.13946 0.02894
C 4.94419 8.54006 0.03592
C 4.93803 7.14832 0.00406
C 6.09869 6.29049 0.00943
C 6.11642 4.94645 0.02841
C 4.86138 4.27498 -0.01111
C 4.87174 2.80936 -0.01275
C 6.15049 2.12984 0.00985
C 6.13262 0.74596 -0.02245
C 4.89866 0.03293 -0.00428
C 7.3988 32.60435 0.03101
C 8.58657 31.97648 -0.01536
C 8.60645 30.55547 -0.02689
C 7.42308 29.85092 -0.01046
C 7.39502 28.39655 -0.00891
C 8.63467 27.68654 0.02819
C 8.64042 26.31724 0.00165
C 7.38196 25.55734 -0.02971
C 7.26186 12.87125 -0.01789
C 3.74642 31.9202 0.00054
C 23.36565 27.73648 -0.00381
C 22.13633 25.58115 0.0296
C 33.24939 27.75018 0.00026
C 33.15253 26.35734 0.00682
C 31.94469 25.59359 -0.01779
C 32.00217 24.16057 0.03794
C 33.15437 23.42636 0.01927
C 33.22278 22.03665 0.01574
C 31.9983 21.30081 -0.02383
C 32.00394 28.37886 0.0544
C 31.94775 19.92416 -0.01429
C 33.16208 17.80461 0.00594
C 31.99303 17.04936 -0.02474
C 31.94142 15.6063 0.00369
C 33.17144 14.92531 0.00455
C 33.2097 13.44932 -0.00644
C 31.98016 12.76409 -0.01839
C 31.91098 11.39626 0.00137
C 33.16811 19.19612 -0.0136
C 32.03007 29.86327 -0.02142
C 33.22614 30.4871 0.01428
C 33.19647 31.96426 -0.01694
C 29.46026 15.60713 0.01705
C 30.76766 14.90866 -0.0405
C 30.71863 13.53379 -0.01303
C 29.41097 12.78634 -0.01461
C 29.48665 11.36532 -0.02155
C 30.71434 10.60137 -0.00944
C 30.75176 9.2698 -0.03735
C 29.46006 8.52681 -0.00971
C 29.53278 7.13781 0.01518
C 30.7541 6.37045 0.01908
C 30.73887 4.97199 0.07705
C 29.5017 4.28077 0.0103
C 29.55489 2.84099 0.02108
C 30.77138 2.16818 0.00716
C 30.73222 0.68607 0.00307
C 29.50124 34.06507 0.00346
C 31.95001 32.65259 0.01713
C 33.12869 10.70903 0.00199
C 33.2311 9.23595 0.04381
C 31.98876 8.48103 0.02806
C 32.01642 7.07872 0.01504
C 1.2168 17.77295 0.01223
C 34.41807 17.04698 0.00648
C 0.00625 15.61801 0.02114
C 1.20797 14.89308 -0.02957
C 1.23053 13.47457 0.00343
C 34.42177 12.7951 -0.02656
C 0.02573 11.40302 -0.02442
C 1.21999 10.59288 -0.00027
C 1.2471 9.20236 -0.00583
C 0.0108 8.54155 -0.02302
C 34.41965 7.13823 -0.02849
C 1.22365 6.3381 0.02931
C 1.16921 4.96452 0.00628
C 0.04209 4.1884 -0.0345
C 34.40301 2.77566 -0.00931
C 1.21874 2.15907 -0.00939
C 1.21556 0.6896 -0.00468
C 1.20656 19.21084 -0.01678
C 29.4877 17.04409 0.0101
C 0.00508 19.835 0.01951
C 1.25784 22.01014 0.02712
C 33.20314 6.42736 -0.00069
C 33.26821 4.95188 0.04926
C 31.97611 4.20547 -0.03838
C 31.99395 2.85185 0.00349
C 33.23468 2.09159 -0.00323
C 33.17113 0.68412 -0.00841
C 31.97965 34.05342 0.0001
C 34.42532 32.67757 -0.02927
C 1.21537 31.96266 -0.01404
C 1.25029 30.59579 0.01027
C 34.42405 29.82829 0.01831
C 0.04678 28.46259 -0.01037
C 1.1886 27.70393 -0.00439
C 1.23039 26.27878 -0.00598
C 34.41956 25.57576 -0.05239
C 0.03769 24.19388 0.03076
C 1.25197 23.44762 0.00723
C 34.40417 21.25089 -0.02213
C 23.3684 26.31681 0.03046
C 30.7522 17.7512 -0.00669
C 29.55121 19.92297 0.01836
C 24.56794 24.07224 0.02737
C 25.80654 23.42899 -0.00498
C 25.82446 22.01834 0.00135
C 24.63385 21.2859 0.03102
C 24.57203 19.78901 0.02555
C 25.71439 19.23978 0.01423
C 25.84732 10.60199 -0.00285
C 24.56343 25.5706 0.02117
C 25.82122 9.17087 -0.009
C 24.58102 7.16033 -0.00229
C 25.84043 6.45278 -0.00938
C 25.82717 4.9852 -0.0264
C 24.60425 4.26567 -0.01154
C 24.53928 2.814 0.00684
C 25.76023 2.12793 -0.01052
C 25.84133 0.71737 -0.01679
C 24.63558 8.46764 -0.01199
C 25.82298 26.23387 -0.04078
C 24.54523 29.88414 0.03005
C 25.81805 30.56016 -0.0276
C 22.12125 24.20354 0.03374
C 23.31672 23.42095 -0.02845
C 23.35158 21.99366 -0.03213
C 22.18322 11.44274 0.02239
C 23.38274 10.65329 0.01153
C 23.37043 9.22444 0.02734
C 22.09672 8.48529 -0.0055
C 22.09462 7.09142 0.01515
C 23.33207 6.42459 -0.00225
C 23.3369 5.06216 0.00071
C 22.13689 4.19982 -0.01107
C 22.13225 2.79808 -0.01586
C 23.30681 2.12487 -0.01971
C 23.35375 0.73471 -0.02118
C 22.16054 0.00465 0.00733
C 24.52524 32.59483 -0.00178
C 25.77472 31.95195 0.00768
C 24.60534 0.00866 0.00367
C 27.03854 32.62046 0.04306
C 28.24239 31.96477 0.00996
C 28.32172 30.49497 0.00195
C 27.05953 4.25548 0.01495
C 27.08388 2.85829 0.01259
C 28.27118 2.10676 0.01799
C 28.29859 0.646 0.01699
C 27.05174 34.04361 -0.00416
C 29.46117 32.6394 0.01177
C 30.75136 31.93179 0.04266
C 30.79503 30.49866 0.01324
C 29.5074 29.84508 0.0014
C 29.44361 28.38568 0.00924
C 30.69232 27.65065 0.02326
C 30.72203 26.19575 0.00261
C 29.45905 25.54095 0.03265
C 29.55715 24.08856 -0.02049
C 30.78268 23.43277 -0.01854
C 30.65905 22.0406 -0.01415
C 29.47008 21.2549 -0.03039
C 28.29759 4.95737 0.00235
C 30.74349 19.14425 0.03531
C 28.34015 6.34349 0.01094
C 27.1088 8.49412 0.02611
C 27.08799 29.80819 -0.00802
C 27.06101 28.4204 -0.00218
C 28.28225 27.62897 -0.01654
C 28.25643 26.22813 -0.00037
C 27.02522 25.59833 -0.0032
C 27.10873 24.08941 0.00622
C 28.36355 23.36375 -0.02815
C 28.26047 21.95126 -0.00942
C 27.02999 21.28459 0.00487
C 27.05053 19.86756 0.00826
C 28.27823 19.1466 -0.00294
C 28.33346 17.76585 0.00152
C 28.25861 14.86191 0.01257
C 28.26848 13.53113 0.02316
C 27.08109 11.32095 0.04185
C 28.34383 10.6761 0.00194
C 28.31231 9.27436 -0.00621
C 27.07467 7.13614 0.02198
C 2.49891 32.56526 -0.00494
