334
Graphene
C 0.01495 0.0266 0.01295
C 16.04347 31.94185 0.01443
C 15.90725 30.55186 0.03505
C 14.76941 29.85947 -0.02815
C 14.77133 17.0356 -0.04147
C 14.79911 15.69858 -0.05302
C 15.99558 14.91371 0.00213
C 15.94044 13.45608 -0.00066
C 14.71569 32.64615 0.00979
C 14.72941 12.70042 -0.00289
C 16.00232 10.62994 -0.02213
C 16.02251 9.2558 0.03698
C 14.77499 8.45138 -0.00109
C 14.77558 7.05741 -0.00491
C 16.00367 6.36504 0.03338
C 15.97699 5.02535 -0.0258
C 14.75925 4.22797 -0.0331
C 14.79951 11.30561 0.00028
C 12.24166 34.06317 -0.00481
C 13.5623 0.67462 0.00889
C 13.48363 2.13136 -0.02162
C 9.79943 0.01901 0.00052
C 12.32091 32.64238 -0.03682
C 13.51281 31.98489 0.01965
C 13.4754 30.53959 0.02058
C 12.30112 29.84554 -0.01957
C 12.31359 28.42655 -0.0108
C 13.57352 17.76026 -0.00368
C 13.5483 13.46059 -0.02696
C 12.29402 11.36165 -0.00114
C 13.53277 10.66062 0.00228
C 13.54688 9.23414 0.00798
C 12.26707 8.60885 0.00422
C 12.28845 7.08828 0.0351
C 13.50307 6.41129 -0.03113
C 13.53786 4.9127 0.02098
C 12.31383 4.23401 0.01848
C 12.31992 2.8656 -0.00619
C 14.78794 2.85013 -0.00316
C 15.96711 2.09144 0.02188
C 16.00331 0.72657 -0.01979
C 14.77782 34.0786 0.02691
C 20.85376 14.90235 -0.00865
C 20.93819 13.48022 0.00675
C 19.72663 12.78444 -0.00311
C 19.68644 11.3699 0.00742
C 20.948 10.62405 -0.01594
C 20.88968 9.274 0.0106
C 19.66158 8.55121 -0.01154
C 19.652 7.05843 -0.01721
C 20.88196 6.36539 -0.02422
C 20.91002 4.9906 0.01277
C 19.65101 4.21997 0.00096
C 19.63893 2.85182 -0.01527
C 20.90309 2.12355 0.01087
C 20.92346 0.67363 0.00199
C 19.70118 0.04515 0.01511
C 22.14232 32.62696 -0.00478
C 23.36528 31.94556 -0.01662
C 19.68868 15.59842 0.0058
C 11.09225 0.66689 0.00374
C 20.90645 31.97478 -0.00652
C 17.19071 34.04159 -0.00703
C 17.24656 32.62601 -0.01581
C 18.46445 31.93228 0.01452
C 17.20327 15.61977 0.04892
C 18.44157 14.92669 -0.00111
C 18.41073 13.47774 -0.03557
C 17.18487 12.81635 0.03754
C 17.21884 11.37314 0.01739
C 18.4211 10.65405 0.00755
C 18.48167 9.19908 -0.0054
C 17.22104 8.52293 0.00667
C 17.23327 7.10401 0.00143
C 18.45133 6.41263 -0.017
C 18.48743 5.01412 0.00364
C 17.23614 4.27812 -0.00831
C 17.22215 2.8227 -0.02957
C 18.42055 2.12448 -0.04422
C 18.43643 0.72862 0.00654
C 19.72735 32.66184 -0.04076
C 11.03539 2.11845 -0.02813
C 9.80285 2.82541 -0.01952
C 9.82453 4.25796 0.05265
C 2.44658 0.02004 -0.02896
C 4.89069 32.68815 -0.00131
C 6.16018 31.94071 -0.01118
C 6.16008 30.51491 -0.014
C 4.8901 29.81395 0.02147
C 4.91505 28.36629 0.00373
C 6.12585 27.69786 -0.00191
C 6.18805 26.25197 0.00438
C 4.87264 25.55127 0.01291
C 4.9537 24.13269 0.00093
C 6.19152 23.43309 0.00057
C 6.12474 22.07751 -0.01634
C 6.18858 9.20468 -0.00334
C 4.91171 8.55859 0.02339
C 4.91607 7.12316 0.01641
C 6.18735 6.44007 -0.00719
C 6.15655 4.9476 0.01364
C 3.64271 0.73572 -0.01004
C 4.90862 4.31751 -0.01062
C 3.64651 2.13994 0.00488
C 2.46211 4.25875 0.03693
C 3.67371 30.55629 -0.00562
C 2.47513 29.75499 -0.00494
C 2.48461 28.4133 0.00054
C 3.70432 27.68212 0.03007
C 3.69245 26.26243 -0.00095
C 2.38843 25.61836 0.01572
C 2.44278 24.15557 -0.04848
C 3.69482 23.39716 -0.00892
C 3.64628 22.01593 -0.01362
C 2.42362 21.34585 -0.0008
C 2.49436 19.84214 0.0288
C 2.50858 11.39831 0.00393
C 3.67191 9.23169 0.00895
C 2.51906 8.52103 0.00685
C 2.469 7.07216 0.02888
C 3.64509 6.37742 -0.00482
C 3.65321 5.01656 -0.01384
C 2.45225 2.82999 0.01745
C 23.37905 30.51417 -0.01185
C 4.8929 2.86508 -0.00033
C 6.18373 0.69205 -0.02759
C 7.34765 34.04584 0.00444
C 9.85957 32.65045 -0.00925
C 11.00646 31.91784 0.01877
C 11.0657 30.58231 0.01363
C 9.80941 29.83443 -0.02162
C 9.79652 28.41557 0.00415
C 11.11542 27.72363 -0.0014
C 11.06984 26.21928 0.02162
C 9.87534 25.55646 0.0076
C 9.86018 24.16708 0.01241
C 11.06656 23.4058 -0.01454
C 11.04751 22.04307 0.01945
C 11.03017 9.2217 0.01416
C 9.81188 8.51606 0.03542
C 9.91078 7.09787 0.02299
C 11.08969 6.35508 0.00244
C 11.07709 4.98508 -0.01717
C 8.6031 0.76801 -0.01789
C 6.10754 2.13466 0.03589
C 8.63937 2.11918 0.02894
C 7.42446 4.2714 0.00165
C 4.93585 0.04795 0.0402
C 7.33781 32.57842 0.00572
C 8.57355 31.95687 0.03592
C 8.56371 30.55237 0.00406
C 7.32721 29.76814 0.00943
C 7.36764 28.41069 0.02841
C 8.58557 27.70449 -0.01111
C 8.59951 26.32526 -0.01275
C 7.41047 25.523 0.00985
C 7.36592 24.17435 -0.02245
C 8.58201 23.46192 -0.00428
C 8.6284 22.03861 0.03101
C 8.5827 9.1964 -0.01536
C 7.37862 8.52809 -0.02689
C 7.4338 7.1429 -0.01046
C 8.647 6.3898 -0.00891
C 8.60256 4.99342 0.02819
C 7.4105 2.84653 -0.02971
C 22.17656 15.62477 0.01126
C 23.34979 14.90873 0.01852
C 23.39686 13.50253 -0.00381
C 31.96497 29.87325 0.0544
C 31.95668 28.43933 0.00026
C 33.20098 27.69775 0.00682
C 33.15056 26.25998 -0.01779
C 31.98413 25.59485 0.03794
C 32.00404 24.11913 0.01927
C 33.22902 23.4045 0.01574
C 33.21108 22.04346 -0.02383
C 31.9607 21.34218 -0.01429
C 31.98665 19.89639 -0.0136
C 33.14295 19.17746 0.00594
C 33.16908 17.79067 -0.02474
C 31.99067 16.99288 0.00369
C 32.00306 15.585 0.00455
C 33.1967 14.93592 -0.00644
C 33.16372 13.50417 -0.01839
C 31.99918 12.80503 0.00137
C 33.22626 30.48385 -0.02142
C 31.95206 11.36749 0.00199
C 33.17489 31.93974 0.01428
C 29.50073 34.06827 0.01713
C 30.71699 17.76926 0.0101
C 29.45404 17.03213 0.01705
C 29.5134 15.63342 -0.0405
C 30.72976 14.87114 -0.01303
C 30.73924 13.53457 -0.01461
C 29.48922 12.77918 -0.02155
C 29.53138 11.37052 -0.00944
C 30.74339 10.65833 -0.03735
C 30.72623 9.23081 -0.00971
C 29.5176 8.53767 0.01518
C 29.55251 7.11585 0.01908
C 30.7656 6.43367 0.07705
C 30.71175 4.95083 0.0103
C 29.50792 4.27491 0.02108
C 29.50246 2.82325 0.00716
C 30.70658 2.15442 0.00307
C 30.77505 0.68938 0.00346
C 31.9873 32.62685 -0.01694
C 30.79551 19.12976 -0.00669
C 33.17464 10.67467 0.04381
C 31.95155 8.55539 0.01504
C 1.24669 19.15317 0.01223
C 1.21659 17.71621 0.00648
C 34.42388 17.01708 0.02114
C 34.4096 15.6306 -0.02957
C 1.26021 13.53782 0.00343
C 0.0088 12.70726 -0.02656
C 0.00147 11.34196 -0.02442
C 1.24093 10.69422 -0.00027
C 1.22703 9.25128 -0.00583
C 0.00076 8.48673 -0.02302
C 34.39291 7.10991 -0.02849
C 1.24889 6.33172 0.02931
C 1.19101 4.91709 0.00628
C 34.41002 4.24442 -0.0345
C 34.41809 2.8104 -0.00931
C 1.22243 2.16273 -0.00939
C 1.23941 0.72022 -0.00468
C 0.0177 19.85694 -0.01678
C 33.23363 9.21199 0.02806
C 34.43065 21.33016 0.01951
C 1.2522 23.4336 0.02712
C 31.96701 7.05552 -0.00069
C 33.21073 6.39728 0.04926
C 33.23701 4.9526 -0.03838
C 31.95291 4.27898 0.00349
C 31.97703 2.8158 -0.00323
C 33.19701 2.1175 -0.00841
C 33.19698 0.71884 0.0001
C 31.98721 0.04037 -0.02927
C 34.42325 32.67586 -0.01404
C 1.26571 31.98408 0.01027
C 1.19225 30.54193 0.01831
C 0.00738 29.83958 -0.01037
C 34.43221 28.36354 -0.00439
C 1.27546 27.72629 -0.00598
C 1.24805 26.29524 -0.05239
C 34.3997 25.53919 0.03076
C 34.4275 24.17928 0.00723
C 1.21782 22.02533 -0.02213
C 3.73651 32.00919 -0.01142
C 29.47605 19.80727 0.03531
C 30.74841 22.01089 -0.03039
C 24.55787 17.01443 -0.04078
C 24.62395 15.63185 0.02117
C 25.79911 14.89888 0.02737
C 25.81966 13.52471 -0.00498
C 24.59347 12.76827 0.00135
C 24.57576 11.34784 0.03102
C 25.80014 10.59114 0.02555
C 25.82541 9.27488 0.01423
C 24.60906 8.53604 -0.00285
C 24.60381 7.09776 -0.009
C 25.84722 6.36008 -0.01199
C 25.76986 4.9693 -0.00229
C 24.56897 4.28794 -0.00938
C 24.58881 2.86675 -0.0264
C 25.87725 2.11131 -0.01154
C 25.8115 0.70471 0.00684
C 24.55347 0.00279 -0.01052
C 25.80963 17.79056 0.03005
C 27.07468 32.69488 -0.01679
C 25.81189 19.20772 -0.0276
C 24.59604 28.34834 -0.00178
C 22.14244 12.79468 0.03046
C 22.16195 11.35808 0.0296
C 23.36948 10.63431 0.03374
C 23.35252 9.19314 -0.02845
C 22.11913 8.50607 -0.03213
C 22.1277 7.15119 0.02239
C 23.37308 6.44142 0.01153
C 23.33555 4.91118 0.02734
C 22.12118 4.22953 -0.0055
C 22.08685 2.83867 0.01515
C 23.35129 2.15718 -0.00225
C 23.37357 0.7398 0.00071
C 22.08527 34.02331 -0.01107
C 24.57869 32.64808 -0.01586
C 25.83931 31.96581 -0.01971
C 25.80085 30.48987 -0.02118
C 24.53508 29.83914 0.00733
C 25.79928 27.67436 0.00768
C 29.53065 21.27301 0.01836
C 28.30454 31.97464 0.00367
C 27.0246 29.81112 0.00996
C 28.31323 6.34902 0.00235
C 28.25994 4.94725 0.01495
C 27.02828 4.26311 0.01259
C 27.06992 2.83364 0.01799
C 28.31175 2.09946 0.01699
C 28.27332 0.72572 -0.00416
C 26.97013 34.0769 0.01177
C 29.48916 32.62958 0.04266
C 30.74148 31.90313 0.01324
C 30.719 30.52947 0.0014
C 29.54682 29.79368 0.00924
C 29.54845 28.37615 0.02326
C 30.66035 27.68554 0.00261
C 30.69162 26.20743 0.03265
C 29.52293 25.50655 -0.02049
C 29.52259 24.1342 -0.01854
C 30.76874 23.41887 -0.01415
C 27.10546 7.05775 0.01094
C 28.33069 30.53563 0.04306
C 27.04452 8.52447 0.02198
C 28.30234 10.61505 -0.00621
C 27.02629 28.37439 0.00195
C 28.27876 27.72577 -0.00802
C 28.32182 26.25464 -0.00218
C 27.11414 25.51815 -0.01654
C 27.03775 24.11802 -0.00037
C 28.29753 23.43244 -0.0032
C 28.28254 22.00962 0.00622
C 27.06656 21.26076 -0.02815
C 27.08106 19.88637 -0.00942
C 28.25492 19.14578 0.00487
C 28.27117 17.75877 0.00826
C 27.07313 17.04513 -0.00294
C 27.09674 15.62206 0.00152
C 28.3205 14.94615 0.01257
C 28.27554 13.50017 0.02316
C 27.08665 12.71349 0.04185
C 27.04644 11.3564 0.00194
C 28.31379 9.25269 0.02611
C 2.45348 32.72919 0.01849
