376
Graphene
C 34.32283 0.05848 0.01295
C 15.95893 0.72522 0.03542
C 14.76972 0.02949 0.02299
C 17.21623 32.64558 0.00244
C 18.41494 31.9977 -0.01717
C 18.43228 30.54209 0.05265
C 17.25456 29.84643 -0.01952
C 17.22974 28.44033 -0.02813
C 18.3911 27.57472 0.00374
C 18.49738 26.21424 0.00052
C 17.26293 25.50726 -0.03682
C 17.26984 24.07494 0.01965
C 18.50086 23.43785 0.02058
C 18.47475 22.0462 -0.01957
C 17.25336 21.3144 -0.0108
C 17.28704 19.85313 -0.00368
C 18.2314 19.03115 -0.02696
C 18.42003 17.66217 -0.00114
C 18.42326 14.79994 0.00228
C 18.38953 13.46331 0.00798
C 16.00529 2.14172 0.01416
C 14.75334 2.83202 0.01945
C 14.7782 4.31297 -0.01454
C 16.0357 4.97773 0.01241
C 12.32784 2.94202 -0.00428
C 13.45846 2.23621 0.03101
C 13.50466 0.8477 -0.01536
C 12.31838 0.05583 -0.02689
C 14.67955 32.69779 -0.01046
C 15.97883 31.99604 -0.00891
C 16.02054 30.60906 0.02819
C 14.72794 29.90269 0.00165
C 14.70527 28.45637 -0.02971
C 17.30937 12.74346 0.00422
C 15.94383 27.71117 0.02894
C 14.82855 25.52154 0.00444
C 14.81093 24.03493 -0.00925
C 16.08515 23.38699 0.01877
C 16.17142 22.11053 0.01363
C 16.05168 10.58917 -0.02162
C 16.02513 9.14748 0.00415
C 14.73603 8.51718 -0.0014
C 14.71453 7.07458 0.02162
C 15.94426 6.44421 0.0076
C 15.96518 26.28113 -0.01789
C 12.25004 4.37198 -0.02245
C 17.01154 11.44478 0.0351
C 18.49684 9.28 0.02098
C 19.62098 16.92072 -0.01979
C 19.60363 15.50734 0.02691
C 20.91095 14.89466 -0.01581
C 20.95027 13.40824 0.01452
C 19.73123 12.78378 0.04892
C 19.71967 11.3836 -0.00111
C 20.92632 10.62401 -0.03557
C 20.94397 9.2744 0.03754
C 19.66469 8.55088 0.01739
C 19.72201 7.18392 0.00755
C 20.89929 6.35308 -0.0054
C 20.94765 4.9184 0.00667
C 19.68406 4.26039 0.00143
C 19.62932 2.76549 -0.017
C 20.84296 2.06316 0.00364
C 20.89583 0.67365 -0.00831
C 19.68486 34.03571 -0.02957
C 22.08917 32.6374 -0.04422
C 23.25333 31.87905 0.00654
C 20.83478 17.78544 0.02188
C 20.87302 19.17529 -0.00316
C 19.5585 19.84349 -0.0331
C 19.69124 21.24397 -0.0258
C 17.25864 8.56144 0.01848
C 17.23572 7.10641 -0.00619
C 18.5075 6.39264 -0.02162
C 18.52544 4.96984 0.00889
C 17.2419 4.27885 -0.00481
C 17.19288 2.84276 0.00979
C 18.36098 2.09399 0.01443
C 18.49279 0.65699 0.03505
C 17.25599 34.06541 -0.02815
C 18.37349 10.73829 -0.03113
C 19.69557 32.61929 -0.04147
C 20.86355 30.52449 0.00213
C 19.66036 29.7996 -0.00066
C 19.53208 28.38217 -0.00289
C 20.79325 27.66453 0.00028
C 20.82464 26.22064 -0.02213
C 19.67706 25.47053 0.03698
C 19.75839 24.07699 -0.00109
C 20.92351 23.33716 -0.00491
C 20.95806 21.90749 0.03338
C 20.86859 31.96375 -0.05302
C 23.31 30.49544 -0.00703
C 13.49669 4.97939 0.00985
C 12.12974 7.18132 -0.01111
C 3.72008 0.70399 0.0276
C 2.44999 0.04987 0.01305
C 4.86336 32.68998 -0.00077
C 6.08201 32.00397 0.03368
C 6.1404 30.59326 -0.02929
C 4.96974 29.86943 -0.00966
C 4.8973 28.40297 -0.03337
C 6.13115 27.72163 0.01227
C 6.14518 26.31946 0.00873
C 4.90474 25.59678 -0.00049
C 4.96662 24.07031 0.00848
C 6.13863 23.41099 -0.01303
C 5.03397 8.50464 -0.01378
C 4.93574 7.16472 0.02635
C 6.21962 6.53385 0.0127
C 6.18074 5.04217 0.01396
C 4.88581 4.27404 0.01849
C 4.9123 2.88584 -0.01142
C 6.15499 2.16753 -0.00562
C 3.73146 2.13349 0.00988
C 2.44779 2.87229 -0.01343
C 2.40955 4.22566 0.01087
C 3.70449 5.01786 -0.05697
C 3.66073 30.49194 0.02374
C 2.43127 29.8401 0.00402
C 2.37692 28.44205 0.0073
C 3.62396 27.70479 0.0174
C 3.67328 26.36744 0.03828
C 2.43961 25.57933 0.01226
C 2.50013 24.0585 -0.00279
C 3.68012 23.34815 0.01996
C 3.49265 22.00326 -0.03996
C 6.09131 0.74961 -0.00494
C 2.45513 21.16964 0.01465
C 2.34324 17.16034 -0.00518
C 2.21202 15.85948 0.0086
C 2.38687 12.82464 -0.00643
C 2.6738 11.48114 0.017
C 3.57891 10.59041 -0.03113
C 3.81932 9.22263 -0.02566
C 2.47971 8.54967 -0.00094
C 2.48466 7.16865 0.02322
C 3.69488 6.47054 -0.00725
C 2.36481 19.81214 -0.00074
C 13.47116 6.36061 -0.01275
C 4.85253 0.03825 0.00054
C 8.58019 31.97901 -0.00095
C 11.01567 6.49518 0.01291
C 10.98958 5.08158 0.00093
C 9.82937 4.30852 0.00057
C 9.81574 2.86509 -0.01634
C 11.05312 2.14499 -0.00334
C 11.03956 0.65126 0.02339
C 9.80043 0.00244 0.01641
C 12.29602 32.72227 -0.00719
C 13.51111 31.934 0.01364
C 13.5064 30.57858 -0.01062
C 12.20466 29.84549 -0.00033
C 12.33006 28.4307 0.03589
C 13.55392 27.72324 -0.02759
C 13.54623 26.28277 0.0402
C 12.27236 25.61172 0.00572
C 12.32396 24.22609 0.03592
C 13.47885 23.63249 0.00406
C 13.59411 9.09522 0.00943
C 12.39366 8.48182 0.02841
C 10.02586 24.26546 0.00438
C 9.79428 25.61744 -0.00191
C 11.06547 26.33843 0.00373
C 11.05805 27.78894 0.02147
C 8.58143 30.56387 0.01572
C 7.35879 29.9454 -0.04848
C 7.28498 28.53342 -0.00892
C 8.65538 27.81037 -0.01362
C 8.58679 26.37738 -0.0008
C 7.35202 25.60556 0.0288
C 7.2045 24.28028 0.00393
C 7.51982 7.12701 0.00895
C 8.57726 6.40833 0.00685
C 7.33821 32.67367 0.03007
C 8.59881 4.9974 0.02888
C 7.39601 2.83464 -0.01384
C 8.5933 2.14834 0.03693
C 8.61261 0.709 0.01745
C 7.38747 34.04231 0.00488
C 9.8304 32.60597 -0.01004
C 11.06823 31.95249 -0.02896
C 11.0553 30.53225 -0.00131
C 9.83777 29.91026 -0.01118
C 9.84959 28.51686 -0.014
C 7.32017 4.37541 -0.00482
C 22.02527 29.79086 -0.04076
C 22.01492 28.39799 -0.00652
C 23.22858 27.66702 0.0058
C 30.69062 2.15483 0.00716
C 30.71214 0.77824 0.00307
C 29.5453 34.04852 0.00346
C 31.88757 32.72944 0.01713
C 33.1322 31.97087 -0.01694
C 33.23629 30.58341 0.01428
C 31.95147 29.78453 -0.02142
C 31.95721 28.43233 0.0544
C 33.20539 27.72413 0.00026
C 33.24022 26.29261 0.00682
C 31.99599 25.62298 -0.01779
C 31.96478 24.1594 0.03794
C 33.16011 23.4474 0.01927
C 33.1062 22.03123 0.01574
C 31.92904 21.28862 -0.02383
C 31.94549 19.82179 -0.01429
C 33.11527 19.17469 -0.0136
C 33.22108 17.7688 0.00594
C 31.96992 16.97873 -0.02474
C 29.49987 2.91191 0.02108
C 29.54958 4.26838 0.0103
C 30.79095 4.90157 0.07705
C 30.73638 6.30785 0.01908
C 30.75959 27.67759 0.02326
C 30.80687 26.24788 0.00261
C 29.51886 25.4845 0.03265
C 29.52082 24.16951 -0.02049
C 30.7698 23.45375 -0.01854
C 30.69277 21.99331 -0.01415
C 29.43846 21.27779 -0.03039
C 29.46034 19.92058 0.01836
C 30.74767 19.11925 0.03531
C 31.91356 15.58257 0.00369
C 30.79211 17.72253 -0.00669
C 29.4488 15.60829 0.01705
C 30.65946 14.92941 -0.0405
C 30.69667 13.47428 -0.01303
C 29.48575 12.75385 -0.01461
C 29.53716 11.3867 -0.02155
C 30.78552 10.69731 -0.00944
C 30.78688 9.20798 -0.03735
C 29.55115 8.45392 -0.00971
C 29.53151 7.08168 0.01518
C 29.48918 17.01859 0.0101
C 29.46227 28.30447 0.00924
C 33.2648 14.93924 0.00455
C 31.91078 12.88205 -0.01839
C 34.33439 19.91017 0.01951
C 1.12368 19.22582 -0.01678
C 1.2156 17.83211 0.01223
C 0.09044 17.13041 0.00648
C 0.01715 15.65944 0.02114
C 1.3129 14.97242 -0.02957
C 1.20889 13.5617 0.00343
C 34.40502 12.86088 -0.02656
C 0.08706 11.38468 -0.02442
C 1.31932 10.65677 -0.00027
C 1.28736 9.29121 -0.00583
C 34.40814 8.54608 -0.02302
C 34.38648 7.12687 -0.02849
C 1.19306 6.39293 0.02931
C 1.23562 5.00843 0.00628
C 34.42557 4.26805 -0.0345
C 0.04088 2.83266 -0.00931
C 1.1992 2.09051 -0.00939
C 1.25305 0.71538 -0.00468
C 34.36536 21.31474 -0.02213
C 1.15013 21.97672 0.02712
C 1.22381 23.36236 0.00723
C 34.38755 24.13499 0.03076
C 32.02247 11.41812 0.00137
C 33.27313 10.71356 0.00199
C 33.19686 9.30672 0.04381
C 31.97756 8.52462 0.02806
C 31.93288 7.10242 0.01504
C 33.18945 6.40433 -0.00069
C 33.17022 4.97607 0.04926
C 31.97309 4.24957 -0.03838
C 31.94467 2.83606 0.00349
C 33.19458 13.49613 -0.00644
C 33.20583 2.17455 -0.00323
C 31.87654 0.03157 0.0001
C 34.38377 32.73721 -0.02927
C 1.20278 32.03723 -0.01404
C 1.24183 30.57689 0.01027
C 0.01351 29.8705 0.01831
C 34.40126 28.41899 -0.01037
C 1.16702 27.66539 -0.00439
C 1.19204 26.21656 -0.00598
C 34.405 25.48458 -0.05239
C 33.13303 0.75687 -0.00841
C 29.54604 29.72341 0.0014
C 30.7065 30.47091 0.01324
C 30.70809 31.87823 0.04266
C 23.43032 0.68016 -0.02845
C 22.14872 0.01316 -0.03213
C 24.50705 32.55868 0.02239
C 25.76101 31.94398 0.01153
C 25.83899 30.54062 0.02734
C 24.58279 29.84502 -0.0055
C 24.58004 28.33362 0.01515
C 25.83697 27.73006 -0.00225
C 25.80612 26.28824 0.00071
C 24.50986 25.56064 -0.01107
C 24.58284 24.13318 -0.01586
C 25.74427 23.42532 -0.01971
C 25.77354 21.96798 -0.02118
C 24.58843 21.24124 0.00733
C 24.60384 19.8118 -0.00178
C 25.81832 19.19618 0.00768
C 25.76751 17.70941 -0.0276
C 24.57272 16.98143 0.03005
C 24.5789 15.59155 -0.04078
C 23.3315 2.16729 0.03374
C 22.11237 2.77384 0.0296
C 22.14243 4.23563 0.03046
C 23.35824 4.99043 -0.00381
C 23.30391 26.22183 -0.00865
C 22.06073 25.49956 0.00675
C 22.08923 24.00909 -0.00311
C 23.35928 23.37284 0.00742
C 23.33564 21.98331 -0.01594
C 22.11737 21.25227 0.0106
C 22.11258 19.80935 -0.01154
C 23.374 19.09261 -0.01721
C 23.27204 17.7564 -0.02422
C 25.80313 14.99347 0.02117
C 22.06804 17.03372 0.01277
C 23.33751 14.84754 -0.01527
C 23.36064 13.40795 0.01087
C 22.20068 12.75797 0.00199
C 22.14906 11.35372 0.01511
C 23.38194 10.67027 -0.00478
C 23.39482 9.26676 -0.01662
C 22.13541 8.51187 -0.01185
C 22.13879 7.11709 0.01126
C 23.31852 6.38946 0.01852
C 22.12601 15.59288 0.00096
C 25.84042 13.53812 0.02737
C 24.68444 12.748 -0.00498
C 24.62225 11.34152 0.00135
C 28.244 19.2308 -0.00942
C 28.29021 17.7423 0.00487
C 26.97881 17.08229 0.00826
C 26.98128 15.65618 -0.00294
C 28.19064 14.98093 0.00152
C 28.26964 13.51039 0.01257
C 27.10426 12.76879 0.02316
C 27.05762 11.34813 0.04185
C 28.27468 10.57705 0.00194
C 27.08039 19.86097 -0.02815
C 28.36693 9.19713 -0.00621
C 27.05708 7.02947 0.02198
C 28.24265 6.35449 0.01094
C 28.21797 4.96373 0.00235
C 27.04734 4.26887 0.01495
C 27.00839 2.7709 0.01259
C 28.31635 2.19741 0.01799
C 28.23131 0.73149 0.01699
C 27.15042 34.06983 -0.00416
C 29.45224 32.63834 0.01177
C 27.07356 8.51647 0.02611
C 3.73058 31.9083 0.03267
C 27.03562 21.30618 0.00622
C 28.23613 23.46106 -0.00037
C 25.82908 10.61109 0.03102
C 25.77576 9.20146 0.02555
C 24.62198 8.50576 0.01423
C 24.56335 7.06794 -0.00285
C 25.83612 6.40106 -0.009
C 25.78804 5.02105 -0.01199
C 24.57048 4.19561 -0.00229
C 24.58387 2.78061 -0.00938
C 25.80524 2.04017 -0.0264
C 28.18514 22.01314 -0.0032
C 25.81038 0.66246 -0.01154
C 27.01412 32.68872 -0.01052
C 28.26953 31.93724 -0.01679
C 28.37177 30.49035 0.00367
C 27.06367 29.79447 0.04306
C 27.08102 28.42736 0.00996
C 28.30413 27.64989 0.00195
C 28.28306 26.2029 -0.00802
C 27.02207 25.49781 -0.00218
C 27.00116 24.1135 -0.01654
C 24.56855 33.9531 0.00684
C 2.3874 32.65632 -0.01509
