435
Graphene
C 0.02292 0.02326 0.01295
C 12.36513 8.51039 0.01641
C 12.2628 7.17175 -0.00719
C 13.51323 6.44104 0.01364
C 13.56431 4.9728 -0.01062
C 12.3432 4.31741 -0.00033
C 12.30832 2.87246 0.03589
C 13.46462 2.09099 -0.02759
C 13.4761 0.70177 0.0402
C 12.26259 33.98759 0.00572
C 14.73514 32.66684 0.03592
C 16.02389 31.98337 0.00406
C 16.01439 30.49359 0.00943
C 14.78201 29.81275 0.02841
C 14.78933 28.38475 -0.01111
C 15.96819 27.78502 -0.01275
C 15.99729 26.25307 0.00985
C 14.75993 25.49739 -0.02245
C 14.69258 24.11156 -0.00428
C 16.03035 23.35535 0.03101
C 15.93131 21.97339 -0.01536
C 14.7188 21.3363 -0.02689
C 14.77549 19.85226 -0.01046
C 15.97856 19.21076 -0.00891
C 13.469 9.29993 0.02339
C 16.03056 17.78042 0.02819
C 13.55939 10.68266 -0.00334
C 12.32583 12.80214 0.00057
C 9.83518 2.84394 -0.01362
C 11.04478 2.16535 -0.0008
C 11.08543 0.70716 0.0288
C 9.86783 0.03634 0.00393
C 12.30789 32.72764 0.00895
C 13.50108 31.97329 0.00685
C 13.51009 30.58672 0.02888
C 12.31013 29.76093 -0.00482
C 12.30892 28.3796 -0.01384
C 13.56064 27.70094 0.03693
C 13.59768 26.24645 0.01745
C 12.26827 25.51109 0.00488
C 12.26063 24.18304 -0.01004
C 13.52155 23.4152 -0.02896
C 13.46567 22.0143 -0.00131
C 12.33361 21.28178 -0.01118
C 12.37133 19.88579 -0.014
C 13.53694 19.19881 0.02147
C 13.55503 17.78126 0.00373
C 12.26988 17.1516 -0.00191
C 12.29131 15.65498 0.00438
C 13.50428 14.85844 0.01291
C 13.53544 13.45913 0.00093
C 12.3126 11.42284 -0.01634
C 14.76857 17.02933 0.00165
C 14.7174 15.64541 -0.02971
C 15.96203 14.94076 0.02894
C 18.47742 17.72617 -0.00368
C 17.2797 17.08451 -0.02696
C 17.22135 15.57887 -0.00114
C 18.4686 14.9209 0.00228
C 18.4528 13.47988 0.00798
C 17.22781 12.75239 0.00422
C 17.16309 11.3508 0.0351
C 18.41947 10.61393 -0.03113
C 18.47019 9.16894 0.02098
C 17.2414 8.48416 0.01848
C 17.1968 7.13455 -0.00619
C 18.39303 6.39339 -0.02162
C 18.39597 4.98738 0.00889
C 17.13933 4.31227 -0.00481
C 17.19348 2.8786 0.00979
C 18.43014 2.15319 0.01443
C 18.46647 0.67299 0.03505
C 17.22404 34.06305 -0.02815
C 19.69822 32.70468 -0.04147
C 20.90682 31.9971 -0.05302
C 20.93349 30.5493 0.00213
C 19.67474 29.8173 -0.00066
C 19.68809 28.35264 -0.00289
C 18.41204 19.14101 -0.0108
C 17.21034 19.87636 -0.01957
C 17.25806 21.31107 0.02058
C 18.42677 22.01908 0.01965
C 15.93995 13.51389 -0.01789
C 14.71501 12.79519 0.00444
C 14.75184 11.35469 -0.00925
C 15.93005 10.64808 0.01877
C 15.99852 9.24269 0.01363
C 14.79978 8.49874 -0.02162
C 14.72372 7.09126 0.00415
C 15.97926 6.34217 -0.0014
C 15.9432 4.95972 0.02162
C 14.76615 4.22442 0.0076
C 14.70954 2.80301 0.01241
C 9.86213 4.233 -0.00892
C 16.03705 2.12541 -0.01454
C 14.71248 0.0781 0.01416
C 17.24271 32.61617 0.03542
C 18.45234 31.95938 0.02299
C 18.44028 30.54039 0.00244
C 17.23551 29.85961 -0.01717
C 17.23816 28.344 0.05265
C 18.42339 27.68417 -0.01952
C 18.4054 26.28001 -0.02813
C 17.17816 25.54765 0.00374
C 17.20271 24.13717 0.00052
C 18.44497 23.48853 -0.03682
C 16.00329 0.66474 0.01945
C 20.95345 27.72658 0.00028
C 11.07 4.98797 -0.04848
C 9.84055 7.0992 -0.00095
C 2.41325 0.04816 0.00558
C 4.93339 32.69291 -0.0059
C 6.15209 31.92464 -0.01386
C 6.10916 30.48761 -0.02805
C 4.86585 29.86222 0.00081
C 6.20191 21.93334 0.00245
C 4.98344 21.33637 0.02728
C 4.90252 19.8779 -0.00039
C 6.20746 19.13951 0.0064
C 6.16431 17.72509 0.00211
C 4.86806 17.01076 -0.00449
C 4.8891 15.68454 -0.01979
C 6.13 14.91425 0.02784
C 6.16858 13.4658 -0.01977
C 4.90336 12.78617 -0.00561
C 4.96865 11.34982 0.00208
C 6.13099 10.62498 0.01707
C 6.20516 9.22996 0.02769
C 4.86588 8.4715 -0.03291
C 4.92606 7.15741 -0.04999
C 6.12343 6.42493 0.04505
C 6.11907 4.97287 0.03284
C 4.93643 4.27672 -0.04307
C 3.67002 0.66425 -0.02375
C 4.95485 2.84385 0.03189
C 3.71371 2.17862 0.00828
C 2.44919 4.29683 0.04421
C 3.69175 30.51526 0.00535
C 2.43454 29.76592 -0.00198
C 2.43654 28.40412 -0.00012
C 2.49583 25.54668 -0.04306
C 2.4769 24.1021 -0.03672
C 3.68608 23.45513 0.01913
C 3.70698 22.0859 0.00267
C 2.41714 21.33219 0.00787
C 2.50722 19.87829 0.02426
C 3.74496 19.16986 0.01218
C 3.70955 17.78149 -0.01471
C 2.4083 16.94427 -0.02827
C 2.44189 15.5884 0.01078
C 3.65082 14.90908 -0.00112
C 3.64262 13.41445 0.03345
C 2.4686 12.75071 0.00748
C 2.43712 11.36463 0.00662
C 3.66744 10.66442 -0.0154
C 3.72259 9.16132 -0.01299
C 2.45626 8.53741 -0.00407
C 2.47338 7.10569 0.01138
C 3.74602 6.39855 0.03278
C 3.67656 4.94767 -0.00177
C 2.47307 2.85163 0.00088
C 6.18241 2.16479 0.00031
C 6.13544 0.73048 -0.003
C 4.8679 0.05532 0.01402
C 11.10111 31.95613 0.00988
C 11.07054 30.58989 0.0276
C 9.82033 29.86386 0.01305
C 9.87334 28.47637 -0.00077
C 11.01151 27.7769 0.03368
C 11.04431 26.30503 -0.02929
C 9.87894 25.58606 -0.00966
C 9.73542 24.15671 -0.03337
C 11.07214 23.46884 0.01227
C 11.11125 22.01063 0.00873
C 9.87584 21.28571 -0.00049
C 9.81468 19.91466 0.00848
C 11.05081 19.23059 -0.01303
C 11.08138 17.79205 -0.01378
C 9.78881 17.0463 0.02635
C 9.80137 15.66023 0.0127
C 11.07072 14.89055 0.01396
C 11.09818 13.48495 0.01849
C 9.80561 12.83958 -0.01142
C 9.81867 11.37926 -0.00562
C 11.12081 10.68909 -0.00494
C 11.09776 9.1759 0.00054
C 9.8401 8.5256 0.03007
C 9.79223 32.65965 -0.01343
C 7.37789 0.01945 0.01087
C 8.58586 0.75038 -0.05697
C 8.52976 2.12199 -0.00725
C 7.32973 32.67792 0.02379
C 8.57482 31.92146 0.00907
C 8.59773 30.58297 0.00643
C 7.32186 29.83471 -0.01509
C 8.62853 23.43833 0.03267
C 8.63199 21.99752 0.02374
C 7.40023 21.30443 0.00402
C 7.37498 19.90365 0.0073
C 8.63938 19.17036 0.0174
C 8.62317 17.79165 0.03828
C 7.36831 17.02292 0.01226
C 11.04652 6.40574 0.01572
C 7.33394 15.62765 -0.00279
C 8.55984 13.54889 -0.03996
C 7.41962 12.77319 0.01465
C 7.39737 11.31835 -0.00074
C 8.66875 10.62127 -0.00518
C 8.62589 9.25282 0.0086
C 7.37985 8.5565 -0.00643
C 7.39062 7.11606 0.017
C 8.60053 6.37766 -0.03113
C 8.60522 4.95357 -0.02566
C 7.35207 4.28874 -0.00094
C 7.41286 2.87863 0.02322
C 8.60711 14.85989 0.01996
C 3.72819 31.9131 0.01984
C 20.93682 26.29057 -0.02213
C 19.67918 24.15977 -0.00109
C 30.77654 14.86961 -0.0405
C 30.69436 13.50471 -0.01303
C 29.55517 12.73918 -0.01461
C 29.48677 11.31527 -0.02155
C 30.71598 10.66133 -0.00944
C 30.71185 9.21609 -0.03735
C 29.4687 8.55191 -0.00971
C 29.51322 7.11171 0.01518
C 30.7565 6.34589 0.01908
C 30.77493 4.96678 0.07705
C 29.50606 4.28962 0.0103
C 29.58445 2.8261 0.02108
C 30.74706 2.05493 0.00716
C 30.75807 0.69656 0.00307
C 29.5484 34.03772 0.00346
C 31.92639 32.64096 0.01713
C 33.21323 31.92786 -0.01694
C 33.20305 30.54057 0.01428
C 31.96721 29.82597 -0.02142
C 32.01115 28.45995 0.0544
C 33.19944 27.70985 0.00026
C 33.22622 26.32849 0.00682
C 31.92984 25.58314 -0.01779
C 29.52442 15.62081 0.01705
C 31.97559 24.14146 0.03794
C 29.54917 17.07505 0.0101
C 30.76686 19.15779 0.03531
C 28.25484 9.19716 -0.00621
C 27.04601 8.55282 0.02611
C 27.06141 7.11727 0.02198
C 28.32536 6.43861 0.01094
C 28.24114 4.89376 0.00235
C 27.01257 4.22749 0.01495
C 27.04763 2.83518 0.01259
C 28.35315 2.12359 0.01799
C 28.22795 0.6632 0.01699
C 27.00199 0.00159 -0.00416
C 29.50432 32.61671 0.01177
C 30.71707 31.92742 0.04266
C 30.73401 30.47134 0.01324
C 29.50513 29.87296 0.0014
C 29.53062 28.43567 0.00924
C 30.76329 27.67506 0.02326
C 30.72488 26.24286 0.00261
C 29.45971 25.50525 0.03265
C 29.45504 24.12154 -0.02049
C 30.75172 23.45704 -0.01854
C 30.79326 21.98698 -0.01415
C 29.54486 21.30049 -0.03039
C 29.48413 19.90493 0.01836
C 30.75308 17.7653 -0.00669
C 33.20453 23.48233 0.01927
C 33.18791 22.02007 0.01574
C 31.95991 21.30115 -0.02383
C 34.42943 24.19422 0.03076
C 1.22658 23.44174 0.00723
C 1.22545 22.03168 0.02712
C 34.40338 21.2686 -0.02213
C 34.40493 19.87354 0.01951
C 1.22145 19.19721 -0.01678
C 1.20369 17.81188 0.01223
C 0.00107 16.97141 0.00648
C 34.42985 15.57702 0.02114
C 1.17371 14.89581 -0.02957
C 1.2347 13.50831 0.00343
C 0.03686 12.7663 -0.02656
C 34.35004 11.30548 -0.02442
C 1.18088 10.65792 -0.00027
C 1.24739 9.23541 -0.00583
C 34.41892 8.47678 -0.02302
C 34.39731 7.11446 -0.02849
C 1.25065 6.33907 0.02931
C 1.23483 4.9504 0.00628
C 0.03161 4.24937 -0.0345
C 34.42276 2.80652 -0.00931
C 1.26821 2.07906 -0.00939
C 1.23252 0.69007 -0.00468
C 34.3957 25.57144 -0.05239
C 1.26081 26.25593 -0.00598
C 1.29191 27.65514 -0.00439
C 34.4325 28.44742 -0.01037
C 31.89976 19.88491 -0.01429
C 33.13466 19.15314 -0.0136
C 33.19342 17.68912 0.00594
C 31.94131 17.04708 -0.02474
C 32.03658 15.59005 0.00369
C 33.24162 14.87856 0.00455
C 33.12404 13.4795 -0.00644
C 31.89761 12.72176 -0.01839
C 31.9751 11.33314 0.00137
C 33.18269 10.62073 0.00199
C 33.22759 9.18697 0.04381
C 28.33349 10.60308 0.00194
C 32.00419 8.50835 0.02806
C 33.17829 6.39802 -0.00069
C 33.22892 4.90556 0.04926
C 31.94067 4.24038 -0.03838
C 31.95822 2.86921 0.00349
C 33.24452 2.06787 -0.00323
C 33.27593 0.65524 -0.00841
C 31.95249 34.03422 0.0001
C 34.42543 32.64995 -0.02927
C 1.24074 31.95916 -0.01404
C 1.22934 30.5061 0.01027
C 0.03991 29.83837 0.01831
C 31.93355 7.09987 0.01504
C 19.6788 25.58741 0.03698
C 27.1077 11.33872 0.04185
C 28.33934 13.50433 0.01257
C 22.19288 28.44488 -0.00652
C 23.38338 27.72157 0.0058
C 23.40171 26.18906 -0.00865
C 22.13227 25.56469 0.00675
C 22.15465 24.15206 -0.00311
C 23.34673 23.48145 0.00742
C 23.34179 21.99291 -0.01594
C 22.13896 21.31312 0.0106
C 22.09058 19.91659 -0.01154
C 23.34485 19.16077 -0.01721
C 23.37671 17.7696 -0.02422
C 22.1083 17.09177 0.01277
C 22.11388 15.56936 0.00096
C 23.3679 14.95758 -0.01527
C 23.4122 13.48411 0.01087
C 22.19231 12.73478 0.00199
C 22.06227 11.31329 0.01511
C 23.38939 10.67739 -0.00478
C 23.35183 9.20977 -0.01662
C 22.26432 8.55154 -0.01185
C 22.12567 7.11426 0.01126
C 23.36747 6.35499 0.01852
C 23.36044 4.94025 -0.00381
C 22.05963 29.83038 -0.04076
C 22.06835 4.27171 0.03046
C 23.31273 30.51663 -0.00703
C 22.10356 32.66455 -0.04422
C 20.93011 23.3746 -0.00491
C 20.81862 21.96062 0.03338
C 19.65972 21.29681 -0.0258
C 19.62113 19.89208 -0.0331
C 20.84714 19.16179 -0.00316
C 20.87289 17.78492 0.02188
C 19.68801 17.04723 -0.01979
C 19.68171 15.62208 0.02691
C 20.88364 14.91002 -0.01581
C 20.92813 13.40478 0.01452
C 19.70476 12.76244 0.04892
C 19.66996 11.33176 -0.00111
C 20.89401 10.6367 -0.03557
C 21.00675 9.29466 0.03754
C 19.70258 8.51705 0.01739
C 19.6302 7.03808 0.00755
C 20.90252 6.36513 -0.0054
C 20.89218 5.0032 0.00667
C 19.62986 4.28008 0.00143
C 19.68421 2.82348 -0.017
C 20.96863 2.18594 0.00364
C 20.94761 0.7437 -0.00831
C 19.67367 0.0326 -0.02957
C 23.34042 31.91458 0.00654
C 22.14519 2.88499 0.0296
C 23.3736 2.12212 0.03374
C 23.32911 0.68421 -0.02845
C 24.56114 4.24518 -0.00229
C 24.59865 2.83043 -0.00938
C 25.80237 2.12943 -0.0264
C 25.84603 0.72192 -0.01154
C 24.61538 34.07984 0.00684
C 27.05168 32.69107 -0.01052
C 28.33174 31.96857 -0.01679
C 28.24444 30.54115 0.00367
C 27.06512 29.79761 0.04306
C 27.05599 28.42084 0.00996
C 28.29346 27.74676 0.00195
C 28.30171 26.2523 -0.00802
C 27.03967 25.54735 -0.00218
C 27.12263 24.15596 -0.01654
C 28.24776 23.46073 -0.00037
C 28.31347 22.02771 -0.0032
C 27.06077 21.32567 0.00622
C 27.05597 19.84856 -0.02815
C 28.29302 19.09567 -0.00942
C 28.2343 17.69987 0.00487
C 27.08629 17.03039 0.00826
C 27.02149 15.60453 -0.00294
C 28.23436 14.93007 0.00152
C 25.81566 4.94995 -0.01199
C 25.7932 6.39049 -0.009
C 24.61229 7.07355 -0.00285
C 24.53267 8.4413 0.01423
C 22.10634 34.06917 -0.03213
C 24.59659 32.71649 0.02239
C 25.84535 31.99394 0.01153
C 25.79099 30.43135 0.02734
C 24.59974 29.8108 -0.0055
C 24.58415 28.45799 0.01515
C 25.79644 27.71365 -0.00225
C 25.802 26.3361 0.00071
C 24.60988 25.52228 -0.01107
C 24.6153 24.10364 -0.01586
C 25.84347 23.42179 -0.01971
C 27.05007 12.77032 0.02316
C 25.81885 21.98395 -0.02118
C 24.61165 19.88926 -0.00178
C 25.80762 19.16396 0.00768
C 25.82908 17.79267 -0.0276
C 24.56245 17.03969 0.03005
C 24.53461 15.66459 -0.04078
C 25.78299 14.89063 0.02117
C 25.77763 13.48995 0.02737
C 24.56452 12.8019 -0.00498
C 24.59239 11.38273 0.00135
C 25.8572 10.71107 0.03102
C 25.78636 9.20264 0.02555
C 24.60205 21.326 0.00733
C 2.44884 32.62722 0.01073
