268
Graphene
C 0.02184 0.05703 0.01295
C 15.96536 26.18654 -0.00478
C 15.94753 27.7307 0.01511
C 14.7428 28.41953 0.00199
C 14.78555 29.80902 0.01087
C 16.03548 30.55657 -0.01527
C 16.00971 31.97599 0.00096
C 14.69449 32.61819 0.01277
C 12.24791 34.06683 -0.02422
C 13.48589 0.57308 -0.01721
C 13.5325 2.05764 -0.01154
C 12.36222 2.84642 0.0106
C 12.33619 4.23529 -0.01594
C 13.56814 4.94045 0.00742
C 13.70088 6.37914 -0.00311
C 13.44966 23.59564 0.00675
C 12.35557 24.06801 -0.00865
C 12.26761 25.44929 0.0058
C 13.47519 26.19109 -0.00652
C 13.58883 27.60238 -0.04076
C 12.26106 28.38083 -0.00703
C 12.26369 29.85106 0.00654
C 13.54226 30.48563 -0.04422
C 13.4675 31.99733 -0.02957
C 12.20312 32.73656 -0.00831
C 9.86071 0.04808 0.00364
C 11.08499 0.75423 -0.017
C 11.10287 2.16149 0.00143
C 9.87613 2.83106 0.00667
C 9.84665 4.28822 -0.0054
C 14.85556 25.61227 -0.01662
C 14.71986 7.047 -0.01185
C 15.98859 6.48935 0.01126
C 15.95462 4.97619 0.01852
C 19.6412 8.58126 0.01423
C 20.91798 9.17481 0.02555
C 20.93886 10.58783 0.03102
C 19.62932 28.41873 0.00135
C 19.78457 29.80243 -0.00498
C 20.90985 30.50535 0.02737
C 20.88657 31.95745 0.02117
C 19.698 32.64247 -0.04078
C 17.16019 34.04633 0.03005
C 18.46552 0.68976 -0.0276
C 18.54336 2.13469 0.00768
C 17.21291 2.86817 -0.00178
C 17.22468 4.26961 0.00733
C 18.39242 5.0582 -0.02118
C 11.06099 4.96752 0.00755
C 18.44108 6.33851 -0.01971
C 17.22748 8.45349 -0.01107
C 18.40614 9.30925 0.00071
C 18.45882 10.63938 -0.00225
C 18.4909 27.79706 0.01515
C 17.18042 28.40781 -0.0055
C 17.26285 29.81407 0.02734
C 18.52224 30.59746 0.01153
C 18.44193 31.9066 0.02239
C 17.21693 32.66869 -0.03213
C 14.75064 34.04203 -0.02845
C 15.99921 0.65954 0.03374
C 15.92872 2.10813 0.0296
C 14.72932 2.79038 0.03046
C 14.78157 4.19638 -0.00381
C 17.25579 7.07591 -0.01586
C 19.6544 7.16092 -0.00285
C 9.70349 24.09499 0.01739
C 11.04609 26.27747 -0.03557
C 6.0641 26.33116 0.00798
C 6.13074 27.72698 0.00228
C 4.9026 28.40721 -0.00114
C 4.96619 29.78134 -0.02696
C 6.15049 30.53145 -0.00368
C 6.1551 31.98035 -0.0108
C 4.92531 32.71623 -0.01957
C 2.5092 0.02761 0.02058
C 3.702 0.72792 0.01965
C 3.69265 2.08707 -0.03682
C 2.45742 2.81458 0.00052
C 2.43652 4.24579 0.00374
C 3.71196 4.98591 -0.02813
C 3.65395 6.40089 -0.01952
C 2.40236 7.09334 0.05265
C 2.43082 8.55143 -0.01717
C 3.67027 9.18292 0.00244
C 2.38882 11.35334 0.02299
C 2.41432 19.93838 0.03542
C 2.52986 21.26036 0.01416
C 3.64012 22.01332 0.01945
C 3.68351 23.34534 -0.01454
C 2.41176 24.0973 0.01241
C 2.46202 25.52089 0.0076
C 3.61495 26.25634 0.02162
C 3.70397 27.66944 -0.0014
C 2.52166 28.41426 0.00415
C 2.43773 29.87949 -0.02162
C 3.7332 30.46926 0.01363
C 4.88335 25.56882 0.00422
C 4.89542 24.13611 0.0351
C 6.15337 23.51703 -0.03113
C 4.94971 6.96673 0.02098
C 11.01874 27.69124 -0.00111
C 9.80441 28.43768 0.04892
C 9.79261 29.83676 0.01452
C 11.04935 30.56464 -0.01581
C 11.06815 32.00818 0.02691
C 9.85379 32.64514 -0.01979
C 7.39384 0.02363 0.02188
C 8.63031 0.74002 -0.00316
C 8.60529 2.17103 -0.0331
C 7.28117 2.91612 -0.0258
C 7.36336 4.28971 0.03338
C 8.58723 4.94877 -0.00491
C 8.54021 6.3099 -0.00109
C 8.66382 23.53932 0.03698
C 9.89555 25.45917 0.03754
C 7.41906 24.12824 -0.02213
C 8.60301 26.24021 -0.00289
C 8.68796 27.65445 -0.00066
C 7.39796 28.39575 0.00213
C 7.32676 29.80085 -0.05302
C 8.56552 30.62364 -0.04147
C 8.62761 31.98249 -0.02815
C 7.41576 32.65188 0.03505
C 4.89964 0.02858 0.01443
C 6.20633 0.70432 0.00979
C 6.12142 2.09142 -0.00481
C 4.95767 2.82341 0.00889
C 4.8304 4.21574 -0.02162
C 6.11221 5.0682 -0.00619
C 6.05867 6.47574 0.01848
C 7.34401 25.58962 0.00028
C 20.94127 6.42006 -0.009
C 20.90448 4.88304 -0.01199
C 19.7067 4.26286 -0.00229
C 32.02489 2.89523 0.00349
C 31.95468 4.32007 -0.03838
C 33.17769 4.9582 0.04926
C 33.159 6.34223 -0.00069
C 31.94866 7.08752 0.01504
C 32.09712 8.53893 0.02806
C 33.15295 9.16183 0.04381
C 33.19478 14.95548 0.00199
C 31.93754 17.12342 0.00137
C 33.14606 17.7335 -0.01839
C 33.26947 19.14212 -0.00644
C 32.03606 19.86361 0.00455
C 31.96806 21.33156 0.00369
C 33.15727 21.90674 -0.02474
C 33.15958 23.39722 0.00594
C 31.93623 24.17545 -0.0136
C 31.90639 25.52198 -0.01429
C 33.1813 26.26942 -0.02383
C 33.18729 27.72131 0.01574
C 31.9644 28.41547 0.01927
C 32.01521 29.74854 0.03794
C 33.1811 30.57545 -0.01779
C 33.19765 31.99135 0.00682
C 32.00527 32.69804 0.00026
C 29.51331 34.06884 0.0544
C 30.76267 0.72401 -0.02142
C 30.79447 2.18489 0.01428
C 29.50361 2.84063 -0.01694
C 29.48353 4.29945 0.01713
C 33.26067 2.1275 -0.00323
C 33.2216 0.76447 -0.00841
C 31.97918 0.03912 0.0001
C 0.03837 32.71946 -0.02927
C 1.20193 0.80375 -0.00468
C 1.19917 2.17159 -0.00939
C 0.01292 2.84656 -0.00931
C 34.35302 4.2552 -0.0345
C 1.23024 4.97756 0.00628
C 1.24626 6.37324 0.02931
C 34.43026 7.07165 -0.02849
C 34.39416 8.58751 -0.02302
C 1.18348 9.30352 -0.00583
C 1.23879 10.70183 -0.00027
C 34.32038 11.40473 -0.02442
C 34.3983 12.79037 -0.02656
C 1.18586 13.49736 0.00343
C 1.23863 14.80559 -0.02957
C 30.67337 5.01653 0.00346
C 34.37975 15.62427 0.02114
C 1.24447 17.79303 0.01223
C 1.30643 19.111 -0.01678
C 0.0025 19.90515 0.01951
C 34.38188 21.29183 -0.02213
C 1.2122 22.03424 0.02712
C 1.16707 23.47956 0.00723
C 34.30169 24.15344 0.03076
C 34.37716 25.5587 -0.05239
C 1.20307 26.1966 -0.00598
C 1.23862 27.74467 -0.00439
C 34.37651 28.40272 -0.01037
C 0.00148 29.87595 0.01831
C 1.22149 30.50845 0.01027
C 1.22028 31.94173 -0.01404
C 0.01655 17.08541 0.00648
C 30.75535 6.39799 0.00307
C 29.53883 7.14208 0.00716
C 30.78964 17.8038 0.02108
C 25.78408 6.38095 0.01094
C 24.58536 7.1135 0.02198
C 24.5752 8.60537 0.02611
C 25.97286 9.15615 -0.00621
C 25.79098 27.67496 0.00194
C 24.748 28.33429 0.04185
C 24.56444 29.83048 0.02316
C 25.80772 30.54334 0.01257
C 25.80904 31.96092 0.00152
C 24.58178 32.65736 -0.00294
C 22.12529 34.03932 0.00826
C 23.32853 0.73645 0.00487
C 23.40312 2.14965 -0.00942
C 22.16486 2.76587 -0.02815
C 25.8653 4.90947 0.00235
C 22.1771 4.24271 0.00622
C 23.3652 6.43888 -0.00037
C 22.14454 7.068 -0.01654
C 22.0917 8.51266 -0.00218
C 23.39323 9.21609 -0.00802
C 23.27555 10.57281 0.00195
C 22.06136 28.45525 0.00996
C 22.10064 29.76743 0.04306
C 23.33767 30.56504 0.00367
C 23.34584 31.9574 -0.01679
C 22.14171 32.59641 -0.01052
C 19.71754 34.07115 0.00684
C 20.90109 0.7356 -0.01154
C 20.98188 2.11228 -0.0264
C 19.68113 2.78166 -0.00938
C 23.3707 4.98313 -0.0032
C 3.7442 31.91109 0.01877
C 24.5715 4.23402 0.01495
C 25.84031 2.10336 0.01799
C 30.75911 19.1005 0.0103
C 30.76621 22.03792 0.07705
C 30.72179 23.49464 0.01908
C 29.524 24.17576 0.01518
C 29.503 25.60447 -0.00971
C 30.70618 26.29473 -0.03735
C 30.75357 27.72648 -0.00944
C 29.5235 28.38912 -0.02155
C 29.57341 29.86822 -0.01461
C 30.80262 30.52532 -0.01303
C 30.72797 31.91204 -0.0405
C 29.52297 32.67713 0.01705
C 27.05627 0.00771 0.0101
C 28.32333 0.75277 -0.00669
C 24.57109 2.75558 0.01259
C 28.27143 2.0934 0.03531
C 27.06227 4.23926 -0.03039
C 28.34375 4.9854 -0.01415
C 28.23914 6.37155 -0.01854
C 27.00798 7.1072 -0.02049
C 26.91613 8.47352 0.03265
C 28.23476 26.26393 0.00261
C 28.27166 27.61734 0.02326
C 27.06666 28.45069 0.00924
C 27.05028 29.87161 0.0014
C 28.3043 30.52966 0.01324
C 28.27598 31.94034 0.04266
C 27.01522 32.62895 0.01177
C 24.51232 0.02077 -0.00416
C 25.81866 0.72325 0.01699
C 27.09025 2.78817 0.01836
C 2.47953 32.63877 -0.00925
