430
Graphene
C 0.03036 0.02438 0.01295
C 13.6177 23.45654 -0.00033
C 13.49222 22.04989 0.03589
C 12.26821 21.36589 -0.02759
C 12.30229 19.87378 0.0402
C 13.53844 19.1926 0.00572
C 13.55963 17.73554 0.03592
C 12.27198 17.0073 0.00406
C 12.25988 15.58977 0.00943
C 13.50098 14.80327 0.02841
C 13.53078 13.442 -0.01111
C 12.38065 24.20356 -0.01062
C 12.30571 12.73525 -0.01275
C 13.53791 10.62952 -0.02245
C 13.55776 9.23194 -0.00428
C 12.29074 8.57561 0.03101
C 12.35633 7.09777 -0.01536
C 13.52688 6.33175 -0.02689
C 13.48891 4.87223 -0.01046
C 12.28737 4.14547 -0.00891
C 12.22168 2.78608 0.02819
C 13.49409 2.12528 0.00165
C 13.53786 0.67286 -0.02971
C 12.25914 11.39126 0.00985
C 12.29527 25.63838 0.01364
C 13.49355 26.35076 -0.00719
C 13.54305 27.71513 0.01641
C 11.05992 17.77081 0.00895
C 9.85121 17.04205 0.00685
C 9.78931 15.65708 0.02888
C 11.03701 14.89252 -0.00482
C 11.13058 13.53458 -0.01384
C 9.84709 12.86234 0.03693
C 9.8264 11.45584 0.01745
C 11.04599 10.72477 0.00488
C 11.08428 9.24501 -0.01004
C 9.84676 8.50462 -0.02896
C 9.90309 7.11016 -0.00131
C 11.12812 6.35516 -0.01118
C 11.10617 4.87134 -0.014
C 9.8061 4.29227 0.02147
C 9.8142 2.83362 0.00373
C 11.01543 2.06596 -0.00191
C 11.09989 0.71451 0.00438
C 9.9478 0.03601 0.01291
C 12.2899 32.67013 0.00093
C 13.55918 32.05792 0.00057
C 13.48368 30.61945 -0.01634
C 12.24856 29.85278 -0.00334
C 12.27492 28.33856 0.02339
C 12.3456 34.06777 0.02894
C 14.80484 32.6892 -0.01789
C 16.00342 31.9749 0.00444
C 15.94713 30.52121 -0.00925
C 15.97075 0.70707 -0.00114
C 14.77294 0.00832 0.00228
C 17.2497 32.707 0.00798
C 18.46737 31.89828 0.00422
C 18.42257 30.51856 0.0351
C 17.22317 29.80124 -0.03113
C 17.20323 28.35166 0.02098
C 18.42448 27.66308 0.01848
C 18.42626 26.21638 -0.00619
C 17.21559 25.49943 -0.02162
C 17.22122 24.10536 0.00889
C 18.44444 23.43825 -0.00481
C 18.40965 22.03745 0.00979
C 17.12312 21.29684 0.01443
C 17.11545 19.9549 0.03505
C 18.4571 19.19329 -0.02815
C 18.36332 17.75025 -0.04147
C 17.28083 17.00703 -0.05302
C 17.2219 15.6395 0.00213
C 18.50218 14.99036 -0.00066
C 18.45906 13.55175 -0.00289
C 17.26211 12.80227 0.00028
C 17.22347 11.37999 -0.02213
C 15.98315 2.11924 -0.02696
C 11.05738 19.16829 0.00393
C 14.7408 2.84007 -0.00368
C 15.97002 4.99605 -0.01957
C 14.67877 29.86667 0.01877
C 14.71877 28.46003 0.01363
C 15.93409 27.70625 -0.02162
C 15.9846 26.24561 0.00415
C 14.68912 25.55972 -0.0014
C 14.79783 24.14123 0.02162
C 16.0079 23.42089 0.0076
C 15.91698 21.97685 0.01241
C 14.68789 21.27872 -0.01454
C 14.75366 19.8486 0.01945
C 15.95661 19.11258 0.01416
C 15.99224 17.74229 0.03542
C 14.71911 17.02238 0.02299
C 14.75249 15.61537 0.00244
C 16.00166 14.92149 -0.01717
C 15.99731 13.44825 0.05265
C 14.77936 12.78828 -0.01952
C 14.75522 11.3692 -0.02813
C 15.99786 10.69273 0.00374
C 16.04903 9.20102 0.00052
C 14.71824 8.49757 -0.03682
C 14.68501 7.10144 0.01965
C 15.90767 6.42808 0.02058
C 14.76353 4.25857 -0.0108
C 9.83547 19.9095 0.0288
C 9.89774 21.27769 -0.0008
C 11.10311 22.09387 -0.01362
C 3.71176 2.15104 0.00245
C 3.6776 0.71779 0.02728
C 2.45625 0.04621 -0.00039
C 4.9606 32.66701 0.0064
C 6.1214 31.92144 0.00211
C 6.11358 30.51183 -0.00449
C 4.87487 29.82664 -0.01979
C 4.93568 28.32454 0.02784
C 6.21362 27.70346 -0.01977
C 6.14619 26.30875 -0.00561
C 4.97221 25.52739 0.00208
C 4.9248 24.14609 0.01707
C 6.11797 23.43587 0.02769
C 6.10234 22.10547 -0.03291
C 4.93438 21.32768 -0.04999
C 4.96439 19.88277 0.04505
C 6.18344 19.16445 0.03284
C 6.1677 17.73389 -0.04307
C 4.90517 17.0171 0.03189
C 4.86544 15.59138 0.00031
C 6.08321 14.89738 -0.003
C 6.11702 13.53816 0.01402
C 4.8923 12.83797 0.02379
C 2.4734 2.80048 0.00081
C 4.93797 11.41998 0.00907
C 2.47865 4.21175 -0.02805
C 3.74086 6.40864 -0.0059
C 3.71793 30.57853 0.01913
C 2.52042 29.84966 0.00267
C 2.4268 28.35963 0.00787
C 3.65082 27.62814 0.02426
C 3.69392 26.19496 0.01218
C 2.49586 25.53742 -0.01471
C 2.46852 24.10727 -0.02827
C 3.69413 23.46954 0.01078
C 3.6984 22.07105 -0.00112
C 2.4164 21.32101 0.03345
C 2.54563 19.88525 0.00748
C 3.79336 19.16907 0.00662
C 3.69882 17.71433 -0.0154
C 2.40829 16.95573 -0.01299
C 2.41632 15.54725 -0.00407
C 3.63713 14.86935 0.01138
C 3.57737 13.4756 0.03278
C 2.43318 12.78324 -0.00177
C 2.42999 11.36076 0.04421
C 3.6962 10.69556 0.00088
C 3.72192 9.21274 0.00828
C 2.47395 8.52519 -0.02375
C 2.42039 7.14091 0.00558
C 3.67864 4.99802 -0.01386
C 18.43959 10.60695 0.03698
C 6.15685 10.69662 0.00643
C 4.95369 8.59284 0.03267
C 7.34057 12.8028 0.03368
C 7.33437 11.43407 -0.02929
C 8.61805 10.67637 -0.00966
C 8.63169 9.2941 -0.03337
C 7.37667 8.61962 0.01227
C 7.35308 7.18386 0.00873
C 8.61541 6.52965 -0.00049
C 8.59034 5.08076 0.00848
C 7.33368 4.30658 -0.01303
C 7.31384 2.83164 -0.01378
C 8.56885 2.17966 0.02635
C 8.64359 0.70822 0.0127
C 7.3909 0.0176 0.01396
C 9.81772 32.71927 0.01849
C 11.01476 32.00531 -0.01142
C 11.06094 30.57908 -0.00562
C 9.80711 29.84384 -0.00494
C 9.7783 28.40516 0.00054
C 11.04735 27.67676 0.03007
C 10.98389 26.28412 -0.00095
C 9.76326 25.5967 0.01572
C 9.82834 24.20202 -0.04848
C 11.12476 23.5711 -0.00892
C 8.60466 13.46712 -0.00077
C 6.1724 9.2925 -0.01509
C 8.52799 14.89785 0.01305
C 7.39744 17.02158 0.00988
C 4.90711 7.15045 0.02374
C 6.05367 6.42104 0.00402
C 6.08815 4.98456 0.0073
C 4.90141 4.24211 0.0174
C 4.9101 2.86372 0.03828
C 6.067 2.18876 0.01226
C 6.19067 0.70703 -0.00279
C 4.9055 34.06629 0.01996
C 7.35992 32.63862 -0.03996
C 8.60708 32.00496 0.01465
C 8.64553 30.58183 -0.00074
C 7.39789 29.86703 -0.00518
C 7.35861 28.43647 0.0086
C 8.5872 27.72351 -0.00643
C 8.53585 26.30124 0.017
C 7.32502 25.61018 -0.03113
C 7.40349 24.1562 -0.02566
C 8.63286 23.3562 -0.00094
C 8.67429 21.96421 0.02322
C 7.35972 21.37183 -0.00725
C 7.37014 19.89349 -0.05697
C 8.61409 19.18688 0.01087
C 8.60689 17.77638 -0.01343
C 7.33181 15.58457 0.0276
C 18.4952 9.27402 -0.00109
C 17.26516 8.51498 -0.00491
C 17.16616 7.04603 0.03338
C 30.76693 13.49155 -0.01303
C 29.56818 12.80138 -0.01461
C 29.51653 11.39695 -0.02155
C 30.73448 10.66019 -0.00944
C 30.6743 9.14841 -0.03735
C 29.53817 8.46505 -0.00971
C 29.45448 7.0673 0.01518
C 30.68966 6.35901 0.01908
C 30.7117 4.94186 0.07705
C 29.49493 4.30074 0.0103
C 29.4759 2.80464 0.02108
C 30.76289 2.10334 0.00716
C 30.75659 0.6691 0.00307
C 29.51382 0.03666 0.00346
C 31.99409 32.56464 0.01713
C 33.22789 31.90429 -0.01694
C 33.20132 30.48363 0.01428
C 32.07176 29.79183 -0.02142
C 31.90208 28.42909 0.0544
C 33.19035 27.66449 0.00026
C 33.18586 26.30332 0.00682
C 31.95318 25.61503 -0.01779
C 32.01495 24.19862 0.03794
C 30.6635 14.8838 -0.0405
C 33.21655 23.53942 0.01927
C 29.48848 15.63608 0.01705
C 30.73757 17.7889 -0.00669
C 28.2942 10.66855 0.02611
C 28.36707 9.25164 0.02198
C 27.07202 8.52498 0.01094
C 26.98255 7.06 0.00235
C 28.24413 6.41363 0.01495
C 28.26172 5.00895 0.01259
C 27.062 4.28696 0.01799
C 26.99531 2.7617 0.01699
C 28.22147 2.10632 -0.00416
C 28.33816 0.70314 0.01177
C 27.06319 34.06212 0.04266
C 29.50273 32.60398 0.01324
C 30.72671 31.98354 0.0014
C 29.44356 28.30738 0.00924
C 30.64306 27.70985 0.02326
C 30.7243 26.22263 0.00261
C 29.48365 25.59646 0.03265
C 29.51304 24.20269 -0.02049
C 30.77375 23.43908 -0.01854
C 30.77453 21.97381 -0.01415
C 29.46634 21.25363 -0.03039
C 29.45443 19.90667 0.01836
C 30.73563 19.2044 0.03531
C 29.54073 17.02133 0.0101
C 27.03867 11.3198 -0.00621
C 33.17374 22.10236 0.01574
C 31.98922 19.86596 -0.01429
C 0.00975 24.22825 0.03076
C 1.18721 23.45857 0.00723
C 1.2036 22.02247 0.02712
C 34.40627 21.35504 -0.02213
C 0.04638 19.90016 0.01951
C 1.26904 19.13245 -0.01678
C 1.20208 17.6862 0.01223
C 34.39244 17.03105 0.00648
C 34.37203 15.60414 0.02114
C 1.17914 14.94359 -0.02957
C 1.21272 13.43797 0.00343
C 34.4305 12.74708 -0.02656
C 34.39655 11.30705 -0.02442
C 1.19576 10.65929 -0.00027
C 1.19554 9.28177 -0.00583
C 34.30857 8.4838 -0.02302
C 34.38622 7.06047 -0.02849
C 1.25577 6.38002 0.02931
C 1.22884 4.89734 0.00628
C 34.42265 4.22852 -0.0345
C 0.01682 2.77519 -0.00931
C 1.24327 2.1187 -0.00939
C 1.20953 0.77833 -0.00468
C 34.39035 25.58679 -0.05239
C 31.96737 21.2866 -0.02383
C 1.22029 26.23664 -0.00598
C 34.39611 28.34443 -0.01037
C 33.23539 19.16365 -0.0136
C 33.24748 17.738 0.00594
C 31.97479 17.06024 -0.02474
C 31.88057 15.64872 0.00369
C 33.1007 14.84818 0.00455
C 33.16229 13.40798 -0.00644
C 31.97919 12.72018 -0.01839
C 31.99642 11.34713 0.00137
C 33.18711 10.62272 0.00199
C 33.06679 9.18657 0.04381
C 31.83553 8.49117 0.02806
C 31.97361 7.03857 0.01504
C 33.18643 6.33173 -0.00069
C 33.2219 4.92077 0.04926
C 32.00393 4.21975 -0.03838
C 32.00305 2.76316 0.00349
C 33.23231 2.07993 -0.00323
C 33.20529 0.64808 -0.00841
C 31.96727 33.97833 0.0001
C 34.42693 32.66172 -0.02927
C 1.25282 31.86394 -0.01404
C 1.27521 30.48173 0.01027
C 0.01876 29.77256 0.01831
C 1.21209 27.7021 -0.00439
C 3.70039 32.02576 -0.03672
C 27.03699 12.80465 0.00194
C 28.31733 14.91605 0.02316
C 19.66159 7.10989 -0.00865
C 20.8849 6.42043 0.00675
C 20.98047 4.9827 -0.00311
C 19.71132 4.29359 0.00742
C 19.71171 2.90933 -0.01594
C 20.87801 2.10196 0.0106
C 20.9074 0.62882 -0.01154
C 19.63629 34.07666 -0.01721
C 22.14168 32.70524 -0.02422
C 23.29852 31.98105 0.01277
C 23.32183 30.57412 0.00096
C 22.0948 29.82748 -0.01527
C 22.08337 28.43796 0.01087
C 23.34732 27.71415 0.00199
C 23.41288 26.29313 0.01511
C 22.15417 25.58411 -0.00478
C 22.14673 24.13341 -0.01662
C 23.37911 23.47776 -0.01185
C 23.43 21.92689 0.01126
C 22.22113 21.29586 0.01852
C 23.31687 13.38706 -0.00381
C 22.08625 12.88511 0.03046
C 22.06961 11.32905 0.0296
C 19.8038 8.53238 0.0058
C 23.32769 10.69552 0.03374
C 21.00332 9.21405 -0.00652
C 19.69812 11.35845 -0.00703
C 18.33962 6.35579 -0.0258
C 18.36993 4.97545 -0.0331
C 17.17694 4.21367 -0.00316
C 17.2025 2.81123 0.02188
C 18.45384 2.1243 -0.01979
C 18.37824 0.66903 0.02691
C 17.15778 0.0149 -0.01581
C 19.60874 32.67007 0.01452
C 20.84157 31.98464 0.04892
C 20.82496 30.53275 -0.00111
C 19.68127 29.81807 -0.03557
C 19.64138 28.35716 0.03754
C 20.87812 27.67121 0.01739
C 20.92545 26.21161 0.00755
C 19.66157 25.51475 -0.0054
C 19.66803 24.10545 0.00667
C 20.90468 23.46821 0.00143
C 21.05583 22.04575 -0.017
C 19.69265 21.2782 0.00364
C 19.60712 19.90759 -0.00831
C 19.65162 15.56385 -0.02957
C 20.81706 13.55426 -0.04422
C 19.67721 12.80514 0.00654
C 20.88663 10.63547 -0.04076
C 28.35665 13.52405 0.04185
C 23.39024 9.26818 -0.02845
C 22.14231 7.07789 0.02239
C 25.77935 4.91089 -0.00938
C 24.56749 4.28809 -0.0264
C 24.53107 2.86802 -0.01154
C 25.75592 2.05634 0.00684
C 25.82073 0.66181 -0.01052
C 24.53544 34.00239 -0.01679
C 27.07431 32.62814 0.00367
C 28.24557 31.838 0.04306
C 28.29892 30.47456 0.00996
C 27.05615 29.91587 0.00195
C 27.03802 28.45275 -0.00802
C 28.24969 27.68771 -0.00218
C 28.28386 26.26996 -0.01654
C 27.07625 25.61176 -0.00037
C 27.05227 24.16933 -0.0032
C 28.31773 23.39322 0.00622
C 28.32777 21.9852 -0.02815
C 27.10953 21.28517 -0.00942
C 26.99939 19.95275 0.00487
C 28.21427 19.2063 0.00826
C 28.26701 17.74513 -0.00294
C 27.08193 16.85979 0.00152
C 27.09409 15.59982 0.01257
C 25.79543 6.30203 -0.00229
C 22.23006 8.55543 -0.03213
C 24.52047 7.08177 -0.01199
C 25.76385 9.22245 -0.00285
C 23.29375 6.37378 0.01153
C 23.34043 4.99717 0.02734
C 22.12633 4.20385 -0.0055
C 22.09469 2.76743 0.01515
C 23.34826 2.15524 -0.00225
C 23.40143 0.72303 0.00071
C 22.16877 0.06036 -0.01107
C 24.56198 32.57213 -0.01586
C 25.83501 31.94004 -0.01971
C 25.80403 30.60016 -0.02118
C 24.56242 29.84489 0.00733
C 24.57452 28.46811 -0.00178
C 25.88261 27.69902 0.00768
C 25.83036 26.22203 -0.0276
C 24.61877 25.53601 0.03005
C 24.62601 24.16327 -0.04078
C 25.8525 23.44607 0.02117
C 25.90201 22.02251 0.02737
C 24.70166 21.34441 -0.00498
C 25.89493 13.54378 0.00135
C 24.54903 12.87501 0.03102
C 24.5517 11.40547 0.02555
C 25.76499 10.62436 0.01423
C 24.54862 8.47704 -0.009
C 2.39553 32.70451 -0.04306
