406
Graphene
C 34.42286 0.0439 0.01295
C 13.40205 31.99305 -0.02689
C 13.48114 30.54629 -0.01046
C 12.2361 29.92816 -0.00891
C 12.19841 28.48859 0.02819
C 13.44425 27.69633 0.00165
C 13.49108 26.26577 -0.02971
C 12.30268 25.63392 0.02894
C 12.36039 24.14517 -0.01789
C 13.53335 23.389 0.00444
C 13.46639 21.99168 -0.00925
C 12.23224 21.34096 0.01877
C 12.46183 19.99715 0.01363
C 13.88465 19.87017 -0.02162
C 12.22979 16.98694 0.00415
C 12.31276 15.76117 -0.0014
C 12.30506 12.78081 0.02162
C 12.4088 11.3977 0.0076
C 13.64017 10.53809 0.01241
C 13.40149 9.14944 -0.01454
C 12.23406 8.49605 0.01945
C 12.27785 7.047 0.01416
C 12.20476 32.75018 -0.01536
C 13.50122 6.24177 0.03542
C 9.86244 0.08922 0.03101
C 10.94916 2.27536 -0.02245
C 9.85334 24.16318 0.00093
C 11.05897 23.46856 0.00057
C 11.03052 22.08676 -0.01634
C 9.83698 21.3588 -0.00334
C 9.90191 19.9634 0.02339
C 11.20638 19.27705 0.01641
C 11.11414 17.78122 -0.00719
C 9.921 17.0576 0.01364
C 9.89692 15.59332 -0.01062
C 11.1471 14.97642 -0.00033
C 11.09806 13.53161 0.03589
C 9.83862 12.75942 -0.02759
C 9.87634 11.34791 0.0402
C 11.17907 10.64869 0.00572
C 11.09014 9.18562 0.03592
C 9.83141 8.64253 0.00406
C 9.87067 7.22631 0.00943
C 10.96384 6.40922 0.02841
C 10.90353 4.91835 -0.01111
C 9.75041 4.25338 -0.01275
C 9.70007 2.84524 0.00985
C 11.04807 0.83798 -0.00428
C 13.48927 4.8141 0.02299
C 12.19456 4.26197 0.00244
C 12.17939 2.90173 -0.01717
C 18.33185 31.98229 0.03505
C 18.45621 30.61964 -0.02815
C 17.19904 29.87491 -0.04147
C 17.17156 28.38915 -0.05302
C 18.36482 27.68422 0.00213
C 18.34923 26.07454 -0.00066
C 17.13561 25.43346 -0.00289
C 17.14075 23.94036 0.00028
C 18.48788 23.32459 -0.02213
C 18.38557 21.83584 0.03698
C 17.12399 21.21737 -0.00109
C 18.47297 9.15805 -0.00491
C 17.11885 8.62937 0.03338
C 17.15925 7.11862 -0.0258
C 18.45956 6.44302 -0.0331
C 18.42198 4.99743 -0.00316
C 17.24616 4.21349 0.02188
C 17.27325 2.79209 -0.01979
C 18.50634 2.11155 0.02691
C 18.39281 0.6965 -0.01581
C 17.0702 0.08952 0.01452
C 17.09269 32.72549 0.01443
C 14.70956 0.0298 0.00979
C 15.92497 0.7413 -0.00481
C 15.94696 2.13451 0.00889
C 13.44017 2.23799 0.05265
C 13.50066 0.88232 -0.01952
C 12.30408 0.09772 -0.02813
C 14.66273 32.72177 0.00374
C 15.85415 32.0017 0.00052
C 15.91298 30.59132 -0.03682
C 14.66148 29.84596 0.01965
C 14.7304 28.44176 0.02058
C 15.92808 27.72314 -0.01957
C 16.02038 26.23983 -0.0108
C 9.82603 25.55305 0.01291
C 14.70965 25.54811 -0.00368
C 15.89907 23.27729 -0.00114
C 15.81556 21.66201 0.00228
C 14.56243 21.13605 0.00798
C 15.80614 9.28219 0.00422
C 14.74255 8.43428 0.0351
C 14.76166 7.00196 -0.03113
C 15.98484 6.33092 0.02098
C 16.0843 4.92329 0.01848
C 14.82295 4.27725 -0.00619
C 14.76917 2.83897 -0.02162
C 14.69723 24.0788 -0.02696
C 11.02671 26.2895 0.00438
C 10.96298 27.78246 -0.00191
C 9.75891 28.48034 0.00373
C 2.42486 2.82431 0.00907
C 3.6428 2.21896 0.00643
C 3.64152 0.84635 -0.01509
C 2.41269 0.082 0.03267
C 4.8724 32.88415 0.02374
C 6.07215 32.04099 0.00402
C 6.00568 30.57499 0.0073
C 4.8014 29.86373 0.0174
C 4.88877 28.43672 0.03828
C 6.14168 27.82347 0.01226
C 6.071 26.37255 -0.00279
C 4.80748 25.54897 0.01996
C 4.84596 24.15021 -0.03996
C 6.08132 23.55155 0.01465
C 6.1056 22.06942 -0.00074
C 4.90937 21.38732 -0.00518
C 4.89366 19.95405 0.0086
C 6.1861 19.20785 -0.00643
C 6.1772 17.82115 0.017
C 4.93008 17.02397 -0.03113
C 4.88153 15.64147 -0.02566
C 2.42871 4.29704 0.02379
C 3.64492 5.10348 0.01402
C 3.63905 6.52707 -0.003
C 2.44643 7.17331 0.00031
C 3.54712 30.60337 -0.01386
C 2.42146 29.89463 -0.02805
C 2.39417 28.33722 0.00081
C 3.61139 27.66561 0.00245
C 3.60755 26.31703 0.02728
C 2.37996 25.51621 -0.00039
C 2.37694 24.17468 0.0064
C 3.60542 23.49827 0.00211
C 3.61763 22.12724 -0.00449
C 2.43165 21.31195 -0.01979
C 6.16091 14.93842 -0.00094
C 2.40864 19.8313 0.02784
C 3.73037 17.742 -0.00561
C 2.44801 17.06223 0.00208
C 2.36834 15.61994 0.01707
C 3.64044 14.88754 0.02769
C 3.71745 13.41903 -0.03291
C 2.47674 12.73375 -0.04999
C 2.36757 11.33953 0.04505
C 3.6457 10.76021 0.03284
C 3.63527 9.32201 -0.04307
C 2.42866 8.65561 0.03189
C 3.75943 19.14312 -0.01977
C 19.60419 32.65438 0.04892
C 6.17981 13.53837 0.02322
C 4.86139 11.44405 -0.05697
C 7.40516 17.12635 0.01572
C 7.46239 15.69087 -0.04848
C 8.62578 14.99923 -0.00892
C 8.64675 13.46385 -0.01362
C 7.40857 12.84908 -0.0008
C 7.29358 11.46522 0.0288
C 8.6356 10.72921 0.00393
C 8.60408 9.25224 0.00895
C 7.30497 8.52264 0.00685
C 7.33323 7.13735 0.02888
C 8.63548 6.4699 -0.00482
C 8.53671 5.03287 -0.01384
C 7.28487 4.3792 0.03693
C 7.38625 2.90962 0.01745
C 8.53048 2.13563 0.00488
C 8.57388 0.6951 -0.01004
C 7.32247 0.08605 -0.02896
C 9.71272 32.73155 -0.00131
C 11.02663 32.03437 -0.01118
C 11.01276 30.64801 -0.014
C 9.75491 29.95725 0.02147
C 8.66882 17.83907 -0.00095
C 8.70635 19.1809 0.03007
C 7.43196 19.88364 0.00054
C 7.30848 21.33689 -0.00494
C 6.09884 10.73469 0.01087
C 6.10504 9.26462 -0.01343
C 4.86984 8.59178 0.00988
C 4.85985 7.16986 0.0276
C 6.14829 6.44929 0.01305
C 6.08103 5.07103 -0.00077
C 4.78333 4.3593 0.03368
C 4.81178 2.9792 -0.02929
C 6.11182 2.24745 -0.00966
C 6.16888 0.84126 -0.03337
C 4.9434 12.80094 -0.00725
C 4.87775 0.2059 0.01227
C 8.54466 32.06253 -0.00049
C 8.44553 30.65509 0.00848
C 7.25571 29.93745 -0.01303
C 7.31743 28.52644 -0.01378
C 8.55274 27.76487 0.02635
C 8.58007 26.32046 0.0127
C 7.35049 25.64798 0.01396
C 7.32738 24.182 0.01849
C 8.57756 23.46017 -0.01142
C 8.50212 22.06159 -0.00562
C 7.24876 32.78358 0.00873
C 20.85006 31.9996 -0.00111
C 20.89035 30.53707 -0.03557
C 19.66678 29.85482 0.03754
C 29.499 8.41882 -0.00971
C 29.43164 7.057 0.01518
C 30.70447 6.39053 0.01908
C 30.68935 4.97991 0.07705
C 29.55816 4.17848 0.0103
C 29.56892 2.77404 0.02108
C 30.77399 2.04866 0.00716
C 30.75873 0.6678 0.00307
C 29.6056 34.0709 0.00346
C 31.96754 32.66951 0.01713
C 33.11506 31.9109 -0.01694
C 33.11659 30.55066 0.01428
C 31.81556 29.80106 -0.02142
C 31.84369 28.36268 0.0544
C 33.10966 27.6575 0.00026
C 32.93465 26.30268 0.00682
C 31.70493 25.53573 -0.01779
C 31.69465 24.1379 0.03794
C 33.05726 23.43364 0.01927
C 33.14004 21.97133 0.01574
C 31.89796 21.35982 -0.02383
C 30.72953 9.19402 -0.03735
C 30.66995 10.63915 -0.00944
C 29.38939 11.35605 -0.02155
C 29.39001 12.74516 -0.01461
C 28.30017 2.06894 0.01799
C 28.2805 0.6881 0.01699
C 27.08283 34.07619 -0.00416
C 29.51368 32.669 0.01177
C 30.75134 31.9939 0.04266
C 30.68946 30.5831 0.01324
C 29.46114 29.84927 0.0014
C 29.41259 28.38485 0.00924
C 30.64238 27.67994 0.02326
C 30.36848 26.18934 0.00261
C 31.98872 19.90138 -0.01429
C 29.00684 25.50542 0.03265
C 30.51568 23.42437 -0.01854
C 30.64393 22.04669 -0.01415
C 29.43341 21.32533 -0.03039
C 29.39453 19.77226 0.01836
C 30.70119 19.15973 0.03531
C 30.69517 17.74334 -0.00669
C 29.49115 17.01365 0.0101
C 29.46728 15.63063 0.01705
C 30.69557 14.89336 -0.0405
C 30.78229 13.52013 -0.01303
C 29.0776 24.12559 -0.02049
C 27.0996 2.83569 0.01259
C 33.1754 19.17878 -0.0136
C 31.95988 16.99463 -0.02474
C 1.16507 22.04046 0.02712
C 34.41601 21.34407 -0.02213
C 34.40809 19.92369 0.01951
C 1.12335 19.15616 -0.01678
C 1.2259 17.67628 0.01223
C 0.01695 16.99886 0.00648
C 34.31097 15.55283 0.02114
C 1.13359 14.9 -0.02957
C 1.26061 13.48844 0.00343
C 34.39261 12.82134 -0.02656
C 34.29722 11.36874 -0.02442
C 1.0816 10.63245 -0.00027
C 1.14863 9.19753 -0.00583
C 0.02994 8.43096 -0.02302
C 34.40129 7.06222 -0.02849
C 1.21947 6.36565 0.02931
C 1.22655 4.98659 0.00628
C 0.00321 4.27447 -0.0345
C 34.42213 2.82178 -0.00931
C 1.18739 2.10971 -0.00939
C 1.21255 0.76455 -0.00468
C 1.08496 23.44828 0.00723
C 34.25861 24.10992 0.03076
C 34.25097 25.53451 -0.05239
C 1.1317 26.24711 -0.00598
C 31.98712 15.5783 0.00369
C 33.1273 14.78711 0.00455
C 33.16741 13.41663 -0.00644
C 31.98465 12.68303 -0.01839
C 31.87395 11.31973 0.00137
C 33.18178 10.62058 0.00199
C 33.26251 9.18417 0.04381
C 31.96015 8.50879 0.02806
C 31.96622 7.12562 0.01504
C 33.20787 6.32597 -0.00069
C 33.13397 17.75266 0.00594
C 33.13239 4.94399 0.04926
C 31.91358 2.87652 0.00349
C 33.18053 2.17081 -0.00323
C 33.1217 0.80468 -0.00841
C 31.97764 0.01833 0.0001
C 34.40016 32.70908 -0.02927
C 1.10248 31.99175 -0.01404
C 1.13106 30.56246 0.01027
C 34.39002 29.7831 0.01831
C 0.01665 28.41455 -0.01037
C 1.19156 27.75197 -0.00439
C 31.91202 4.31027 -0.03838
C 3.63286 32.07921 -0.0059
C 27.01155 4.20899 0.01495
C 28.2517 6.34498 0.01094
C 22.31247 23.98228 -0.01527
C 23.5495 23.39752 0.01087
C 23.39279 21.95739 0.00199
C 22.16405 21.24446 0.01511
C 22.3011 19.79935 -0.00478
C 23.48376 19.12755 -0.01662
C 23.27057 10.52992 -0.01185
C 23.4382 9.15379 0.01126
C 22.24568 8.4733 0.01852
C 22.22817 7.05353 -0.00381
C 23.36998 6.27045 0.03046
C 23.40764 4.9309 0.0296
C 22.11963 4.20898 0.03374
C 22.14478 2.82451 -0.02845
C 23.39347 2.16983 -0.03213
C 23.33791 0.70313 0.02239
C 22.13466 0.02486 0.01153
C 24.61182 32.66595 0.02734
C 25.85145 31.91771 -0.0055
C 25.80227 30.5499 0.01515
C 24.5464 29.80955 -0.00225
C 22.21089 25.47342 0.00096
C 23.4779 26.18749 0.01277
C 23.30802 27.63579 -0.02422
C 22.08297 28.44885 -0.01721
C 19.59412 28.42944 0.01739
C 20.80637 27.72828 0.00755
C 20.88077 26.20576 -0.0054
C 19.65066 25.43527 0.00667
C 19.70209 24.0203 0.00143
C 20.93119 23.33974 -0.017
C 20.85674 21.89912 0.00364
C 19.62291 21.18637 -0.00831
C 21.12165 9.22262 -0.02957
C 19.73709 8.54641 -0.04422
C 24.51029 28.28922 0.00071
C 19.65931 7.13488 0.00654
C 20.93292 5.03012 -0.04076
C 19.70963 4.34256 -0.00652
C 19.68854 2.84669 0.0058
C 20.8823 2.15608 -0.00865
C 20.79024 0.70065 0.00675
C 19.67476 34.0587 -0.00311
C 22.09159 32.71569 0.00742
C 23.35737 32.04249 -0.01594
C 23.35937 30.555 0.0106
C 22.12415 29.80088 -0.01154
C 20.95535 6.40472 -0.00703
C 28.33628 4.9034 0.00235
C 25.77191 27.75915 -0.01107
C 24.91643 25.59258 -0.01971
C 28.25197 30.58521 0.00996
C 27.06501 29.88879 0.00195
C 26.96515 28.55629 -0.00802
C 28.15524 27.71416 -0.00218
C 27.78824 26.3451 -0.01654
C 27.7844 23.35166 -0.00037
C 28.14975 21.97035 -0.0032
C 27.02335 21.24562 0.00622
C 27.13285 19.80231 -0.02815
C 28.28393 18.99874 -0.00942
C 28.33819 17.62526 0.00487
C 27.10592 16.97707 0.00826
C 27.01396 15.60863 -0.00294
C 28.2709 14.93148 0.00152
C 28.1855 13.46667 0.01257
C 26.94098 12.74285 0.02316
C 26.9646 11.34404 0.04185
C 28.15144 10.63327 0.00194
C 28.18613 9.20148 -0.00621
C 26.9798 8.55955 0.02611
C 27.08701 7.07678 0.02198
C 28.28501 32.01228 0.04306
C 26.98212 32.56729 0.00367
C 24.54755 34.02034 -0.01679
C 25.84832 0.68992 -0.01052
C 24.93298 24.13117 -0.02118
C 26.13311 23.33069 0.00733
C 25.85886 21.91283 -0.00178
C 24.60215 21.174 0.00768
C 24.64031 19.76355 -0.0276
C 25.93344 19.12918 0.03005
C 25.95068 17.75312 -0.04078
C 24.60354 17.15516 0.02117
C 24.64504 15.73015 0.02737
C 25.72701 14.90853 -0.00498
C 26.27905 26.34602 -0.01586
C 25.72163 13.53705 0.00135
C 24.3605 11.47406 0.02555
C 25.63695 10.61659 0.01423
C 25.79499 9.17778 -0.00285
C 24.60177 8.46619 -0.009
C 24.63382 6.99887 -0.01199
C 25.86287 6.28584 -0.00229
C 25.81524 4.89745 -0.00938
C 24.63542 4.2435 -0.0264
C 24.61754 2.86101 -0.01154
C 25.90207 2.09562 0.00684
C 24.47958 12.86261 0.03102
C 2.35926 32.76162 0.00558
