392
Graphene
C 34.35303 34.06884 0.01295
C 13.5358 15.09361 0.01877
C 13.57225 13.622 0.01363
C 12.3505 12.88823 -0.02162
C 12.35011 11.38525 0.00415
C 13.56403 10.68932 -0.0014
C 13.53452 9.24863 0.02162
C 12.26455 8.54001 0.0076
C 12.26407 7.1506 0.01241
C 13.55034 6.39187 -0.01454
C 12.18985 15.66892 -0.00925
C 13.5622 4.9994 0.01945
C 12.30992 2.76613 0.03542
C 13.5855 2.11458 0.02299
C 13.60208 0.70314 0.00244
C 12.29257 34.07478 -0.01717
C 14.78915 32.59254 0.05265
C 15.99414 31.77258 -0.01952
C 15.84563 30.37092 -0.02813
C 14.62188 29.63985 0.00374
C 14.15819 28.24662 0.00052
C 12.24161 4.23817 0.01416
C 12.31534 28.40482 0.00444
C 12.26326 29.92824 -0.01789
C 13.45379 30.54502 0.02894
C 9.79755 28.40921 0.03589
C 11.14147 28.01463 -0.02759
C 9.92442 16.968 0.0402
C 9.87882 15.61777 0.00572
C 11.04624 14.96348 0.03592
C 11.08315 13.52041 0.00406
C 9.86724 12.78697 0.00943
C 9.88809 11.38011 0.02841
C 11.11974 10.69639 -0.01111
C 11.09706 9.34857 -0.01275
C 9.87769 8.53463 0.00985
C 9.76548 7.1398 -0.02245
C 11.07624 6.45828 -0.00428
C 11.15078 4.93944 0.03101
C 9.78982 4.26516 -0.01536
C 9.78567 2.93536 -0.02689
C 11.04335 2.13087 -0.01046
C 11.06397 0.7341 -0.00891
C 9.88767 0.05746 0.02819
C 12.27378 32.58972 0.00165
C 13.50483 31.89677 -0.02971
C 14.77588 15.69336 -0.03682
C 9.83208 29.84781 -0.00033
C 16.00796 15.05322 0.01965
C 14.82834 12.84984 -0.01957
C 17.14454 8.48285 -0.02213
C 17.15249 7.10949 0.03698
C 18.43861 6.37679 -0.00109
C 18.49509 4.97439 -0.00491
C 17.31948 4.29165 0.03338
C 17.30167 2.82794 -0.0258
C 18.48781 2.11806 -0.0331
C 18.4327 0.65625 -0.00316
C 17.27885 34.01334 0.02188
C 18.37459 9.24559 0.00028
C 19.63645 32.56858 -0.01979
C 20.86137 30.45817 -0.01581
C 19.65051 29.74779 0.01452
C 19.68707 28.33786 0.04892
C 20.92647 27.64829 -0.00111
C 20.89325 26.27581 -0.03557
C 20.99969 23.32323 0.03754
C 21.02533 22.18928 0.01739
C 20.87298 19.26732 0.00755
C 20.62585 17.92152 -0.0054
C 20.84023 31.89522 0.02691
C 18.43438 10.66455 -0.00289
C 17.17616 11.35049 -0.00066
C 17.16588 12.75485 0.00213
C 14.75416 11.42059 -0.0108
C 16.00323 10.66616 -0.00368
C 15.94797 9.24158 -0.02696
C 14.75365 8.55202 -0.00114
C 14.79669 7.14623 0.00228
C 15.95291 6.35885 0.00798
C 16.07864 4.92296 0.00422
C 14.75616 4.23988 0.0351
C 14.82884 2.80977 -0.03113
C 16.06684 2.0982 0.02098
C 16.08397 0.65942 0.01848
C 14.77224 0.00837 -0.00619
C 17.21976 32.60217 -0.02162
C 18.39856 31.79344 0.00889
C 18.37421 30.3714 -0.00481
C 17.11066 29.61275 0.00979
C 17.22073 28.2037 0.01443
C 18.30824 27.71752 0.03505
C 17.26913 15.65923 -0.02815
C 18.48458 14.85282 -0.04147
C 18.43227 13.43395 -0.05302
C 16.05223 13.58838 0.02058
C 19.70463 16.90809 0.00667
C 11.03928 30.55762 -0.01062
C 9.79485 32.76284 -0.00719
C 2.32948 4.36118 0.01465
C 2.40505 2.87052 -0.00074
C 3.60162 2.19734 -0.00518
C 3.63343 0.74994 0.0086
C 2.39217 0.00331 -0.00643
C 4.8761 32.71188 0.017
C 6.1265 32.09394 -0.03113
C 6.09096 30.60209 -0.02566
C 4.82847 29.90383 -0.00094
C 3.57839 5.05711 -0.03996
C 4.8744 28.44613 0.02322
C 5.99665 26.31997 -0.05697
C 4.81645 25.62747 0.01087
C 4.87624 24.08484 -0.01343
C 6.12826 23.40545 0.00988
C 6.07166 22.01593 0.0276
C 4.89226 21.28863 0.01305
C 4.88443 19.90618 -0.00077
C 6.10401 19.20168 0.03368
C 6.23893 17.75799 -0.02929
C 6.12445 27.65279 -0.00725
C 3.61362 6.43717 0.01996
C 2.4213 7.1551 -0.00279
C 2.4424 8.52757 0.01226
C 3.64997 30.59779 0.01707
C 2.4496 29.82658 0.02769
C 2.43943 28.38509 -0.03291
C 3.62326 27.73598 -0.04999
C 3.65997 26.36718 0.04505
C 2.34718 25.54868 0.03284
C 2.41271 24.19011 -0.04307
C 3.6276 23.41083 0.03189
C 3.65062 22.00433 0.00031
C 2.48209 21.38523 -0.003
C 2.43593 19.87107 0.01402
C 3.64371 19.14446 0.02379
C 3.6596 17.73485 0.00907
C 2.45249 16.9965 0.00643
C 2.48742 15.60187 -0.01509
C 3.66995 14.904 0.03267
C 3.62685 13.5403 0.02374
C 2.43504 12.83216 0.00402
C 2.44553 11.3853 0.0073
C 3.68821 10.72683 0.0174
C 3.68289 9.30705 0.03828
C 4.8544 16.99679 -0.00966
C 11.01572 31.95798 0.01364
C 4.94063 15.59087 -0.03337
C 6.13196 13.5433 0.00873
C 7.33285 19.80542 -0.01384
C 8.48256 19.12105 0.03693
C 8.73594 17.82228 0.01745
C 7.42681 17.0752 0.00488
C 7.40386 15.6908 -0.01004
C 8.62257 14.9759 -0.02896
C 8.61866 13.54083 -0.00131
C 7.41456 12.84365 -0.01118
C 7.39263 11.47698 -0.014
C 7.32394 21.28645 -0.00482
C 8.63957 10.69463 0.02147
C 7.36504 8.57545 -0.00191
C 7.32857 7.16404 0.00438
C 8.53256 6.47745 0.01291
C 8.60651 5.03543 0.00093
C 7.37908 4.38501 0.00057
C 7.42081 2.91328 -0.01634
C 8.60307 2.21745 -0.00334
C 8.54063 0.77065 0.02339
C 7.32832 0.11808 0.01641
C 8.56535 9.31943 0.00373
C 8.36143 22.23771 0.02888
C 8.4391 23.37113 0.00685
C 7.25281 24.26421 0.00895
C 4.87171 12.86875 -0.00049
C 4.95098 11.38988 0.00848
C 6.20773 10.72353 -0.01303
C 6.13412 9.32819 -0.01378
C 4.8507 8.62533 0.02635
C 4.91911 7.14213 0.0127
C 6.07227 6.4632 0.01396
C 6.10335 5.10838 0.01849
C 4.838 4.35883 -0.01142
C 4.86661 2.91035 -0.00562
C 6.08188 2.23065 -0.00494
C 6.07432 0.77848 0.00054
C 4.91657 0.05593 0.03007
C 7.3667 32.70566 -0.00095
C 8.58006 32.07168 0.01572
C 8.58896 30.57545 -0.04848
C 7.33346 29.913 -0.00892
C 7.35802 28.46846 -0.01362
C 8.53159 27.71562 -0.0008
C 8.50667 26.3582 0.0288
C 7.29215 25.6301 0.00393
C 6.13817 14.97717 0.01227
C 19.68452 15.55255 0.00143
C 20.88024 14.84927 -0.017
C 20.84372 13.45277 0.00364
C 30.76165 4.96805 0.07705
C 29.53096 4.27254 0.0103
C 29.54053 2.82405 0.02108
C 30.72872 2.13137 0.00716
C 30.71892 0.6728 0.00307
C 29.53156 34.06799 0.00346
C 31.96612 32.62527 0.01713
C 33.13598 31.91474 -0.01694
C 33.17325 30.49249 0.01428
C 30.71558 6.40165 0.01908
C 31.97162 29.79883 -0.02142
C 33.2032 27.69929 0.00026
C 33.16094 26.23881 0.00682
C 31.89662 25.56305 -0.01779
C 31.85648 24.13035 0.03794
C 33.118 23.37543 0.01927
C 33.12819 21.94371 0.01574
C 31.92275 21.2288 -0.02383
C 31.87284 19.70255 -0.01429
C 33.18403 19.12952 -0.0136
C 32.01914 28.43012 0.0544
C 29.42826 7.15186 0.01518
C 29.45395 8.53775 -0.00971
C 30.65281 9.27266 -0.03735
C 29.5637 32.65749 0.04266
C 30.69838 31.94589 0.01324
C 30.68633 30.59379 0.0014
C 29.55728 29.74892 0.00924
C 29.52583 28.38587 0.02326
C 30.78298 27.71722 0.00261
C 30.69324 26.24511 0.03265
C 29.54057 25.48312 -0.02049
C 29.47938 24.12004 -0.01854
C 30.69834 23.41351 -0.01415
C 30.69421 21.94061 -0.03039
C 29.48101 21.27403 0.01836
C 29.51394 19.84774 0.03531
C 30.61402 19.00422 -0.00669
C 30.64955 17.51067 0.0101
C 29.62705 15.97082 0.01705
C 30.67282 14.99686 -0.0405
C 30.69346 13.58747 -0.01303
C 29.35923 12.83051 -0.01461
C 29.44699 11.39329 -0.02155
C 30.6799 10.67497 -0.00944
C 33.25501 17.72663 0.00594
C 27.06697 34.07626 0.01177
C 32.00315 17.03638 -0.02474
C 33.25292 14.88481 0.00455
C 34.419 21.27827 -0.02213
C 0.02415 19.90577 0.01951
C 1.27498 19.18791 -0.01678
C 1.35942 17.79572 0.01223
C 0.05885 16.98544 0.00648
C 0.04454 15.61974 0.02114
C 1.25709 14.91151 -0.02957
C 1.247 13.50373 0.00343
C 34.37244 12.76991 -0.02656
C 1.21669 22.04718 0.02712
C 34.35755 11.4015 -0.02442
C 1.16877 9.29407 -0.00583
C 34.33754 8.54 -0.02302
C 34.40405 7.16289 -0.02849
C 1.20475 6.43303 0.02931
C 1.15882 5.01214 0.00628
C 34.40814 4.33703 -0.0345
C 34.41922 2.91453 -0.00931
C 1.1753 2.17526 -0.00939
C 1.17018 0.71177 -0.00468
C 1.18555 10.70431 -0.00027
C 1.22867 23.40805 0.00723
C 34.39225 24.14821 0.03076
C 34.42863 25.57112 -0.05239
C 33.23372 13.52143 -0.00644
C 31.92231 12.80953 -0.01839
C 31.92051 11.35732 0.00137
C 33.14384 10.71463 0.00199
C 33.07889 9.24934 0.04381
C 31.88932 8.5486 0.02806
C 31.89842 7.11687 0.01504
C 33.11934 6.40139 -0.00069
C 33.15097 4.97621 0.04926
C 31.94564 4.29112 -0.03838
C 31.90941 2.78257 0.00349
C 33.17998 2.19225 -0.00323
C 33.10321 0.73778 -0.00841
C 31.95033 34.06637 0.0001
C 0.00451 32.63365 -0.02927
C 1.19568 31.95296 -0.01404
C 1.22013 30.56656 0.01027
C 34.41088 29.89428 0.01831
C 34.37771 28.4304 -0.01037
C 1.14963 27.74742 -0.00439
C 1.20664 26.27007 -0.00598
C 32.00206 15.55303 0.00369
C 28.31112 0.71798 -0.00416
C 28.2678 2.1213 0.01699
C 27.06531 2.82744 0.01799
C 21.99858 19.89205 -0.01185
C 23.4945 19.03064 0.01126
C 23.3313 17.68329 0.01852
C 22.14992 17.0015 -0.00381
C 22.08366 15.57235 0.03046
C 23.29653 14.83632 0.0296
C 23.19082 13.37328 0.03374
C 22.04115 12.68502 -0.02845
C 22.04129 11.30746 -0.03213
C 22.14061 21.26742 -0.01662
C 23.32694 10.60569 0.02239
C 22.07331 8.46171 0.02734
C 22.12373 6.99561 -0.0055
C 23.35307 6.33711 0.01515
C 23.41061 4.93904 -0.00225
C 22.16838 4.24261 0.00071
C 22.22641 2.80087 -0.01107
C 23.47132 2.09091 -0.01586
C 23.4267 0.68865 -0.01971
C 22.16472 34.00957 -0.02118
C 23.35462 9.17156 0.01153
C 23.25424 22.061 -0.00478
C 23.21611 23.40616 0.01511
C 22.08557 24.21386 0.00199
C 19.61871 12.73136 -0.00831
C 19.67063 11.31838 -0.02957
C 20.903 10.54665 -0.04422
C 20.85638 9.08903 0.00654
C 19.6266 8.48162 -0.00703
C 19.66482 7.03807 -0.04076
C 20.97589 6.36787 -0.00652
C 20.93218 4.92787 0.0058
C 19.75341 4.16012 -0.00865
C 19.69598 2.76279 0.00675
C 20.95171 2.18794 -0.00311
C 20.94347 0.66303 0.00742
C 19.68187 0.003 -0.01594
C 22.14395 32.59936 0.0106
C 23.39487 31.94196 -0.01154
C 23.35644 30.47469 -0.01721
C 22.1579 29.79304 -0.02422
C 22.10006 28.40332 0.01277
C 23.37288 27.71971 0.00096
C 23.36589 26.32073 -0.01527
C 22.12239 25.6505 0.01087
C 24.63579 32.61389 0.00733
C 25.83941 31.93831 -0.00178
C 25.81094 30.51046 0.00768
C 24.62297 29.81798 -0.0276
C 28.26228 31.95055 -0.01654
C 28.33297 30.53024 -0.00037
C 26.99636 29.78349 -0.0032
C 27.14719 28.42241 0.00622
C 28.27143 27.70726 -0.02815
C 28.29311 26.22207 -0.00942
C 27.04138 25.56301 0.00487
C 27.07721 24.13159 0.00826
C 28.27926 23.38915 -0.00294
C 28.22623 21.96924 0.00152
C 27.01538 21.26316 0.01257
C 28.23417 13.60593 0.02316
C 26.86252 13.13 0.04185
C 26.93657 11.50487 0.00194
C 28.11197 10.75417 -0.00621
C 28.18295 9.29118 0.02611
C 26.97653 8.57371 0.02198
C 27.01047 7.09077 0.01094
C 28.25837 6.36271 0.00235
C 28.30722 4.99131 0.01495
C 27.1161 4.25826 0.01259
C 27.06141 32.66331 -0.00218
C 3.66262 31.99165 0.00208
C 24.67916 34.06415 -0.00802
C 25.95096 2.11382 0.00996
C 24.6314 28.47786 0.03005
C 25.72903 27.66822 -0.04078
C 25.77525 26.27628 0.02117
C 24.56738 25.62532 0.02737
C 24.48484 24.15194 -0.00498
C 25.86456 23.41835 0.00135
C 25.82965 21.97666 0.03102
C 24.52666 21.31661 0.02555
C 24.44932 19.96196 0.01423
C 24.7652 15.07785 -0.00285
C 25.45483 13.77548 -0.009
C 24.46081 12.69013 -0.01199
C 24.4658 11.32006 -0.00229
C 25.72813 10.67551 -0.00938
C 25.76168 9.19872 -0.0264
C 24.54317 8.44376 -0.01154
C 24.51784 7.04682 0.00684
C 25.77629 6.33653 -0.01052
C 25.83463 4.99755 -0.01679
C 24.69599 4.20587 0.00367
C 24.65071 2.76394 0.04306
C 25.88728 0.63732 0.00195
C 2.46215 32.72057 -0.00561
