330
Graphene
C 34.40834 0.04992 0.01295
C 10.92803 22.05918 -0.04147
C 9.83888 21.24874 -0.05302
C 9.91782 19.83194 0.00213
C 11.3116 19.024 -0.00066
C 11.03492 17.64242 -0.00289
C 9.86989 16.91421 0.00028
C 9.86331 15.46276 -0.02213
C 11.03146 23.50478 -0.02815
C 10.95811 14.73655 0.03698
C 9.89313 12.64013 -0.00491
C 9.86532 11.2233 0.03338
C 11.21384 10.52016 -0.0258
C 11.0919 9.1473 -0.0331
C 9.84994 8.48989 -0.00316
C 9.8456 7.01976 0.02188
C 11.02011 6.40083 -0.01979
C 11.06783 13.29326 -0.00109
C 9.82824 24.13616 0.03505
C 9.79077 25.59658 0.01443
C 11.11192 26.38799 0.00979
C 8.58448 10.5328 0.02058
C 8.5889 9.17133 -0.01957
C 7.33433 8.4315 -0.0108
C 7.4231 7.05254 -0.00368
C 8.58415 6.35931 -0.02696
C 8.56708 4.91256 -0.00114
C 7.27257 4.28805 0.00228
C 7.33541 2.92543 0.00798
C 8.58553 2.12945 0.00422
C 8.59161 0.71678 0.0351
C 7.35409 0.00279 -0.03113
C 9.84634 32.68397 0.02098
C 11.05714 31.99666 0.01848
C 11.02449 30.50017 -0.00619
C 9.76789 29.87389 -0.02162
C 9.74845 28.47647 0.00889
C 10.99979 27.78706 -0.00481
C 10.99148 4.99177 0.02691
C 7.32787 11.31997 0.01965
C 9.83531 4.26848 -0.01581
C 11.05128 2.29295 0.04892
C 12.35827 4.3483 0.00742
C 12.34576 2.94841 -0.01594
C 13.50047 2.16862 0.0106
C 13.5259 0.74497 -0.01154
C 12.24323 0.05866 -0.01721
C 14.72096 32.69972 -0.02422
C 15.94143 31.93313 0.01277
C 13.60938 5.01847 -0.00311
C 15.88789 30.51269 0.00096
C 14.65695 28.46902 0.01087
C 15.90759 27.82115 0.00199
C 15.87622 26.33881 0.01511
C 14.65464 25.59963 -0.00478
C 14.70742 24.21539 -0.01662
C 15.9242 23.51743 -0.01185
C 15.9892 22.18141 0.01126
C 14.66378 29.85084 -0.01527
C 13.57503 6.40074 0.00675
C 12.24345 7.10488 -0.00865
C 12.40222 8.48539 0.0058
C 11.03168 0.80026 -0.00111
C 9.78627 0.06292 -0.03557
C 12.19244 32.78535 0.03754
C 13.46956 32.01042 0.01739
C 13.50172 30.60181 0.00755
C 12.25791 29.79955 -0.0054
C 12.29193 28.37018 0.00667
C 13.46931 27.70025 0.00143
C 13.45365 26.27841 -0.017
C 12.20907 25.62119 0.00364
C 12.22169 24.179 -0.00831
C 13.50838 23.45582 -0.02957
C 13.56753 22.0158 -0.04422
C 12.291 21.21115 0.00654
C 12.34646 19.88345 -0.00703
C 12.45692 11.10805 -0.04076
C 13.67416 8.9208 -0.00652
C 9.81557 2.89991 0.01452
C 7.37134 12.65646 -0.03682
C 8.67256 13.37649 0.00052
C 8.6647 14.81353 0.00374
C 2.41262 8.44545 0.02147
C 2.48308 7.1201 0.00373
C 3.73406 6.35451 -0.00191
C 3.7421 4.90911 0.00438
C 2.51361 4.19881 0.01291
C 2.46078 2.81214 0.00093
C 3.69173 2.18903 0.00057
C 3.64305 9.17962 -0.014
C 3.68299 0.78371 -0.01634
C 4.95559 32.7543 0.02339
C 6.09723 32.01298 0.01641
C 6.11968 30.57815 -0.00719
C 4.89592 29.87014 0.01364
C 4.83488 28.47331 -0.01062
C 6.14624 27.71402 -0.00033
C 6.06775 26.3494 0.03589
C 2.42112 0.06475 -0.00334
C 3.5995 10.63251 -0.01118
C 2.37034 11.28082 -0.00131
C 2.38693 12.71337 -0.02896
C 3.63161 30.60362 -0.00095
C 2.36118 29.94745 0.01572
C 2.39984 28.5439 -0.04848
C 3.54863 27.77772 -0.00892
C 3.59162 26.27075 -0.01362
C 2.371 25.55425 -0.0008
C 2.39858 24.20876 0.0288
C 3.6512 23.4537 0.00393
C 3.57751 22.06015 0.00895
C 2.38226 21.36887 0.00685
C 2.46624 19.92841 0.02888
C 3.75606 19.13363 -0.00482
C 3.71507 17.76567 -0.01384
C 2.42287 17.06811 0.03693
C 2.46062 15.63351 0.01745
C 3.67156 14.92776 0.00488
C 3.64532 13.48341 -0.01004
C 4.86213 25.68838 -0.02759
C 4.84696 24.16918 0.0402
C 6.13516 23.42261 0.00572
C 6.15943 21.94064 0.03592
C 7.34578 32.6722 0.01363
C 8.56475 32.03998 -0.02162
C 8.59545 30.58274 0.00415
C 7.30385 29.82662 -0.0014
C 7.39644 28.46535 0.02162
C 8.56713 27.70135 0.0076
C 8.57066 26.27942 0.01241
C 7.29087 25.5919 -0.01454
C 7.38877 24.03439 0.01945
C 8.63481 23.37861 0.01416
C 8.57414 21.98605 0.03542
C 7.38213 21.29382 0.02299
C 7.46257 19.89708 0.00244
C 8.72538 19.07693 -0.01717
C 8.66019 17.69154 0.05265
C 7.42955 16.99304 -0.01952
C 7.43657 15.57928 -0.02813
C 4.9388 0.12871 0.01877
C 14.8023 21.46247 0.01852
C 6.22022 0.73459 -0.00925
C 5.00752 2.79344 -0.01789
C 4.8666 21.30057 0.00406
C 4.91554 19.89398 0.00943
C 6.2112 19.14219 0.02841
C 6.1743 17.73912 -0.01111
C 4.93883 16.98001 -0.01275
C 4.94311 15.59749 0.00985
C 6.20213 14.94727 -0.02245
C 6.14509 13.44196 -0.00428
C 4.91112 12.7361 0.03101
C 4.90804 11.31311 -0.01536
C 6.09906 10.60723 -0.02689
C 6.11405 9.17553 -0.01046
C 4.88374 8.54251 -0.00891
C 4.90371 7.11564 0.02819
C 6.17056 6.44328 0.00165
C 6.08847 5.02349 -0.02971
C 4.93977 4.2522 0.02894
C 6.23147 2.15211 0.00444
C 14.81048 7.2711 -0.00381
C 16.00984 6.47974 0.03046
C 15.97505 5.06822 0.0296
C 29.48487 34.05791 0.00026
C 31.83405 32.75652 0.00682
C 33.10576 32.02834 -0.01779
C 33.15826 30.63678 0.03794
C 31.88576 29.90291 0.01927
C 31.85695 28.53173 0.01574
C 33.01792 27.79769 -0.02383
C 30.59171 0.7879 0.0544
C 33.07765 26.42617 -0.01429
C 31.89014 24.13848 0.00594
C 33.14579 23.46906 -0.02474
C 33.14966 22.08815 0.00369
C 31.8767 21.37012 0.00455
C 31.88872 19.89866 -0.00644
C 33.23287 19.24902 -0.01839
C 33.1966 17.84865 0.00137
C 31.95576 25.54402 -0.0136
C 30.70869 10.617 -0.02142
C 29.87026 11.53417 0.01428
C 29.52363 12.77632 -0.01694
C 30.68513 30.6062 0.01705
C 29.44974 29.88048 -0.0405
C 29.39472 28.46986 -0.01303
C 30.66286 27.77925 -0.01461
C 30.77416 26.3862 -0.02155
C 29.50362 25.65783 -0.00944
C 29.47971 24.17046 -0.03735
C 30.6298 23.39405 -0.00971
C 30.62983 22.02646 0.01518
C 29.35642 21.26566 0.01908
C 29.46716 19.89556 0.07705
C 30.68777 19.20165 0.0103
C 30.74477 17.75092 0.02108
C 29.48401 16.93396 0.00716
C 29.56524 15.48435 0.00307
C 30.75772 14.9 0.00346
C 30.71509 13.4655 0.01713
C 31.96986 17.15679 0.00199
C 32.03153 15.66691 0.04381
C 33.18272 14.87832 0.02806
C 33.27935 13.46426 0.01504
C 1.15922 17.8706 0.01223
C 34.41462 17.09949 0.00648
C 0.01325 15.63382 0.02114
C 1.19434 14.86582 -0.02957
C 1.15994 13.45836 0.00343
C 0.00721 12.78667 -0.02656
C 0.03879 11.38635 -0.02442
C 1.07774 10.52985 -0.00027
C 1.06066 9.12947 -0.00583
C 34.22601 8.28938 -0.02302
C 34.39987 6.90284 -0.02849
C 1.26242 6.42807 0.02931
C 1.29831 5.04926 0.00628
C 0.00375 4.46623 -0.0345
C 34.35006 2.97072 -0.00931
C 1.17929 2.24521 -0.00939
C 1.18113 0.80521 -0.00468
C 1.23583 19.27501 -0.01678
C 30.7147 32.02844 0.0101
C 0.00598 19.93808 0.01951
C 1.16019 22.11222 0.02712
C 31.97182 12.80779 -0.00069
C 31.91224 11.35482 0.04926
C 33.14826 10.6123 -0.03838
C 33.16098 9.20311 0.00349
C 33.15722 2.22161 -0.00323
C 33.09035 0.85465 -0.00841
C 31.84496 0.10608 0.0001
C 34.34079 32.74076 -0.02927
C 1.19264 32.00353 -0.01404
C 1.14719 30.62232 0.01027
C 34.34386 29.90153 0.01831
C 34.30934 28.52235 -0.01037
C 1.08359 27.79083 -0.00439
C 1.1345 26.33892 -0.00598
C 34.30401 25.68906 -0.05239
C 34.34193 24.30445 0.03076
C 1.13472 23.51868 0.00723
C 34.40064 21.39788 -0.02213
C 3.7484 32.05031 0.03007
C 29.36442 32.76343 -0.00669
C 28.29916 17.65674 0.01836
C 17.22639 34.05305 0.02737
C 19.72163 32.74607 -0.00498
C 20.86251 31.92076 0.00135
C 20.85471 30.49566 0.03102
C 19.58716 29.74462 0.02555
C 19.69202 28.33372 0.01423
C 20.87959 27.55521 -0.00285
C 18.53979 0.78444 0.02117
C 20.88128 26.16918 -0.009
C 19.58367 24.04519 -0.00229
C 20.84585 23.45858 -0.00938
C 20.82634 4.83389 -0.0264
C 19.57722 4.32563 -0.01154
C 19.67817 2.79899 0.00684
C 20.96257 2.10902 -0.01052
C 20.98832 0.71913 -0.01679
C 19.62172 25.54382 -0.01199
C 18.45451 2.16319 -0.04078
C 17.19583 2.99213 0.03005
C 17.19867 4.33798 -0.0276
C 14.82435 4.31011 0.03374
C 14.75502 2.87135 -0.02845
C 15.97547 2.17696 -0.03213
C 15.98406 0.7125 0.02239
C 14.75922 0.02851 0.01153
C 17.22298 32.71262 0.02734
C 18.45682 31.97753 -0.0055
C 18.40415 30.52939 0.01515
C 17.15259 29.81944 -0.00225
C 17.17242 28.43452 0.00071
C 18.38174 27.69109 -0.01107
C 18.41187 26.31066 -0.01586
C 17.16192 25.64136 -0.01971
C 17.24686 24.22027 -0.02118
C 18.3136 23.33642 0.00733
C 18.07995 6.64638 -0.00178
C 18.42365 5.23314 0.00768
C 19.7642 0.05084 0.00367
C 22.14216 32.55751 0.04306
C 23.39183 31.90982 0.00996
C 23.33181 30.44469 0.00195
C 25.71346 23.42128 0.01495
C 25.61287 22.04378 0.01259
C 24.88243 33.93536 0.01799
C 26.84228 32.75736 0.01699
C 28.15475 32.09553 -0.00416
C 28.19279 30.57611 0.01177
C 27.01931 29.78512 0.04266
C 26.92605 28.35406 0.01324
C 28.1711 27.75518 0.0014
C 28.19982 26.30815 0.00924
C 27.03075 25.5265 0.02326
C 27.01967 24.11148 0.00261
C 28.20389 23.43851 0.03265
C 28.16852 21.99999 -0.02049
C 26.73638 21.22359 -0.01854
C 26.86374 19.85829 -0.01415
C 28.12864 19.0778 -0.03039
C 24.56396 24.13884 0.00235
C 26.3468 0.07877 0.03531
C 24.526 25.53733 0.01094
C 25.6923 27.64656 0.02611
C 22.04337 29.79432 -0.00802
C 22.02524 28.35296 -0.00218
C 23.30484 27.59998 -0.01654
C 23.26616 26.21196 -0.00037
C 22.06143 25.40565 -0.0032
C 22.13581 23.9734 0.00622
C 23.40223 23.27635 -0.02815
C 22.12135 4.12909 -0.00942
C 22.29355 2.75576 0.00487
C 23.48352 2.01876 0.00826
C 23.63299 0.5519 -0.00294
C 22.31131 34.0381 0.00152
C 24.57005 32.50832 0.01257
C 25.78718 31.81856 0.02316
C 25.77739 30.42902 0.04185
C 24.51902 29.77513 0.00194
C 24.47124 28.34029 -0.00621
C 25.7112 26.22564 0.02198
C 2.49859 32.72621 0.00054
