311
Graphene
C 34.4042 34.03616 0.01295
C 13.62183 30.4544 -0.00316
C 12.34518 29.72761 0.02188
C 12.32487 28.30249 -0.01979
C 13.52052 27.6285 0.02691
C 13.5379 26.22876 -0.01581
C 12.33744 25.51324 0.01452
C 12.24722 24.14362 0.04892
C 13.41251 23.45095 -0.00111
C 13.47145 21.98258 -0.03557
C 12.27021 21.29646 0.03754
C 12.27987 19.88937 0.01739
C 13.53483 19.20172 0.00755
C 13.50986 17.77286 -0.0054
C 12.34059 17.00366 0.00667
C 12.37317 15.49546 0.00143
C 13.63554 31.91528 -0.0331
C 12.33111 32.56291 -0.0258
C 9.79883 0.04218 0.03338
C 11.20458 0.41436 -0.00491
C 11.12684 30.49109 -0.02162
C 9.84563 29.88094 0.00889
C 9.85493 28.36878 -0.00481
C 11.05573 27.65929 0.00979
C 11.10205 26.24503 0.01443
C 9.9385 25.54085 0.03505
C 9.83392 24.14452 -0.02815
C 13.68437 15.03927 -0.017
C 11.08178 23.4801 -0.04147
C 9.7961 21.36542 0.00213
C 9.89836 19.89477 -0.00066
C 11.07391 19.11784 -0.00289
C 11.05615 17.70819 0.00028
C 9.82183 16.97324 -0.02213
C 9.84552 15.58703 0.03698
C 11.15727 15.03782 -0.00109
C 11.05071 22.07142 -0.05302
C 11.08556 31.9673 -0.00619
C 13.74223 0.53616 0.00364
C 14.86885 32.56214 -0.02957
C 17.30021 19.93231 0.01511
C 18.2336 19.20389 -0.00478
C 18.44643 17.71266 -0.01662
C 17.23284 17.14358 -0.01185
C 17.21503 15.78038 0.01126
C 18.38678 15.01489 0.01852
C 18.3747 13.66893 -0.00381
C 17.13122 12.99037 0.03046
C 17.35707 11.60268 0.0296
C 18.27692 10.62786 0.03374
C 18.61706 9.41452 -0.02845
C 18.76691 6.25551 -0.03213
C 18.39481 4.87133 0.02239
C 17.15989 4.32186 0.01153
C 17.03597 2.89293 0.02734
C 18.62077 32.15142 0.00199
C 17.30564 32.56959 0.01087
C 14.87712 33.96506 -0.01527
C 16.10695 0.60225 0.00096
C 16.06753 31.86236 -0.04422
C 16.07318 30.46955 0.00654
C 14.94546 29.6881 -0.00703
C 14.6606 28.34314 -0.04076
C 14.64915 25.20374 -0.00652
C 14.82334 23.89782 0.0058
C 15.73964 22.43241 -0.00865
C 12.41985 33.99759 -0.00831
C 14.7256 21.41633 0.00675
C 15.93346 19.24071 0.00742
C 15.97733 17.83671 -0.01594
C 14.7524 17.18231 0.0106
C 14.79602 15.76025 -0.01154
C 15.95403 14.94814 -0.01721
C 15.90006 13.54778 -0.02422
C 15.99085 2.00081 0.01277
C 14.7966 19.96567 -0.00311
C 18.29359 2.22051 -0.0055
C 9.79502 32.64401 0.01848
C 8.48236 0.6926 -0.03113
C 3.57432 9.08544 0.00572
C 2.3033 8.55787 0.03592
C 2.28085 7.09546 0.00406
C 3.54804 6.52252 0.00943
C 3.70441 5.08811 0.02841
C 2.397 4.35921 -0.01111
C 2.44971 2.87905 -0.01275
C 3.72174 2.10073 0.00985
C 3.65736 0.63576 -0.02245
C 2.38904 34.03791 -0.00428
C 4.89562 32.51911 0.03101
C 6.06583 31.88957 -0.01536
C 6.08727 30.54038 -0.02689
C 4.87037 29.7546 -0.01046
C 4.87322 28.36066 -0.00891
C 3.80407 10.59718 0.0402
C 2.51305 11.34842 -0.02759
C 2.6308 12.71942 0.03589
C 3.8526 13.45755 -0.00033
C 3.62411 30.47663 -0.01118
C 2.36229 29.8347 -0.014
C 2.35626 28.32961 0.02147
C 3.59034 27.67146 0.00373
C 3.69181 26.22852 -0.00191
C 2.45273 25.58751 0.00438
C 2.45519 24.19098 0.01291
C 6.05836 27.69448 0.02819
C 3.71563 23.44635 0.00093
C 2.51088 21.3379 -0.01634
C 2.48485 19.87653 -0.00334
C 3.64271 19.11681 0.02339
C 3.62731 17.76424 0.01641
C 2.47448 17.08567 -0.00719
C 2.50612 15.64128 0.01364
C 3.7196 14.89925 -0.01062
C 3.72835 22.10503 0.00057
C 7.35645 33.96226 0.02098
C 6.08213 26.24129 0.00165
C 4.94195 24.14396 0.02894
C 7.3554 29.80078 -0.02813
C 7.31749 28.3806 0.00374
C 8.56082 27.65438 0.00052
C 8.57845 26.27258 -0.03682
C 7.3007 25.55049 0.01965
C 7.37097 24.13127 0.02058
C 8.56431 23.46268 -0.01957
C 8.61871 22.08231 -0.0108
C 7.38625 21.37214 -0.00368
C 7.44639 19.9666 -0.02696
C 8.61625 19.21371 -0.00114
C 8.67296 17.85308 0.00228
C 7.35514 17.18362 0.00798
C 7.33452 15.74007 0.00422
C 8.5614 15.16881 0.0351
C 8.56723 30.48731 -0.01952
C 8.5957 31.96246 0.05265
C 7.36001 32.62875 -0.01717
C 4.81857 33.99397 0.00244
C 6.15573 23.47967 -0.01789
C 6.16014 22.0843 0.00444
C 4.96891 21.37501 -0.00925
C 4.8417 19.95579 0.01877
C 6.09481 19.20643 0.01363
C 6.09449 17.79899 -0.02162
C 4.88433 17.0702 0.00415
C 4.85464 25.51445 -0.02971
C 4.93139 15.65915 -0.0014
C 6.23988 13.65353 0.0076
C 5.17621 12.7928 0.01241
C 4.81807 11.32554 -0.01454
C 4.80891 4.2163 0.01945
C 4.93824 2.86277 0.01416
C 6.08532 1.94137 0.03542
C 6.04039 0.61177 0.02299
C 6.0841 15.01133 0.02162
C 3.66157 31.89626 -0.00131
C 18.45805 0.72225 0.01515
C 19.63126 32.71598 0.00071
C 33.16602 23.44618 0.01927
C 33.1659 22.02942 0.01574
C 31.89368 21.31086 -0.02383
C 31.93716 19.91919 -0.01429
C 33.1975 19.22685 -0.0136
C 33.20529 17.81614 0.00594
C 31.94842 17.14823 -0.02474
C 31.93165 15.6967 0.00369
C 33.18974 15.05628 0.00455
C 33.13145 13.56241 -0.00644
C 31.93223 12.85557 -0.01839
C 31.89291 11.45503 0.00137
C 33.10575 10.70723 0.00199
C 33.06148 9.31046 0.04381
C 31.8071 8.58654 0.02806
C 31.9373 24.14675 0.03794
C 31.8811 25.50261 -0.01779
C 33.11342 26.2321 0.00682
C 33.16801 27.70745 0.00026
C 29.37035 13.0543 -0.00944
C 30.64921 10.74178 -0.03735
C 30.6477 9.46154 -0.00971
C 29.23056 7.00205 0.01518
C 30.60169 6.43844 0.01908
C 30.71968 4.92378 0.07705
C 29.49665 4.18707 0.0103
C 31.83728 7.19085 0.01504
C 29.49338 2.74355 0.02108
C 30.72262 0.6587 0.00307
C 29.42548 34.07988 0.00346
C 31.89699 32.6133 0.01713
C 33.189 31.88806 -0.01694
C 33.13108 30.54043 0.01428
C 31.85673 29.81121 -0.02142
C 31.91093 28.38465 0.0544
C 30.71449 2.09093 0.00716
C 30.65791 13.62343 -0.02155
C 33.02241 6.44624 -0.00069
C 31.91197 4.35454 -0.03838
C 0.01804 15.717 0.02114
C 1.23447 14.98363 -0.02957
C 1.28034 13.53934 0.00343
C 0.01621 12.843 -0.02656
C 34.38469 11.44318 -0.02442
C 1.18591 10.69926 -0.00027
C 1.02538 9.3085 -0.00583
C 34.22938 8.57447 -0.02302
C 34.23481 7.21075 -0.02849
C 1.11246 6.4393 0.02931
C 1.13162 4.99819 0.00628
C 34.37131 4.30182 -0.0345
C 34.39589 2.85536 -0.00931
C 1.2466 2.1328 -0.00939
C 1.19736 0.65275 -0.00468
C 0.00881 17.13523 0.00648
C 1.27006 17.81652 0.01223
C 1.18993 19.25481 -0.01678
C 0.00882 19.93999 0.01951
C 31.92954 2.82581 0.00349
C 33.16014 2.09529 -0.00323
C 33.1815 0.66987 -0.00841
C 31.91997 34.07262 0.0001
C 34.404 32.5786 -0.02927
C 1.16708 31.94346 -0.01404
C 1.13941 30.4943 0.01027
C 33.05372 4.99001 0.04926
C 34.3171 29.83843 0.01831
C 1.12606 27.7006 -0.00439
C 1.2165 26.32967 -0.00598
C 34.3868 25.62156 -0.05239
C 34.40324 24.13479 0.03076
C 1.20517 23.47398 0.00723
C 1.2207 22.05781 0.02712
C 34.41753 21.30611 -0.02213
C 34.34856 28.37502 -0.01037
C 17.30628 33.9835 -0.00225
C 30.73907 14.97337 -0.01461
C 29.4902 17.04019 -0.0405
C 22.26087 15.67398 -0.00229
C 23.20215 5.10345 -0.00938
C 22.10612 4.28175 -0.0264
C 22.12619 2.93824 -0.01154
C 23.40082 2.25535 0.00684
C 23.43785 0.8998 -0.01052
C 22.27573 0.03459 -0.01679
C 24.38145 32.72722 0.00367
C 25.68135 31.95257 0.04306
C 25.52185 19.04503 0.00996
C 25.6592 17.64808 0.00195
C 24.4462 16.8397 -0.00802
C 24.4401 15.6009 -0.00218
C 25.87326 4.97965 -0.01654
C 24.56238 4.55164 -0.00037
C 22.1764 17.0158 -0.01199
C 23.38636 17.80913 -0.009
C 23.79143 19.11681 -0.00285
C 22.66602 32.7108 0.01423
C 20.88456 17.48856 -0.01107
C 19.66499 16.94679 -0.01586
C 19.70464 15.48276 -0.01971
C 21.02382 14.81912 -0.02118
C 20.85957 13.31354 0.00733
C 19.55878 12.90174 -0.00178
C 19.18966 11.62955 0.00768
C 24.65167 3.10572 -0.0032
C 19.44667 8.48538 -0.0276
C 20.71381 6.22413 -0.04078
C 20.77731 4.82213 0.02117
C 19.60993 4.23287 0.02737
C 19.58094 2.82547 -0.00498
C 20.84564 2.12276 0.00135
C 20.9813 0.75656 0.03102
C 19.77885 0.11257 0.02555
C 19.63264 7.17666 0.03005
C 29.44216 15.66856 -0.01303
C 25.80493 2.23986 0.00622
C 24.62273 0.13377 -0.00942
C 29.36349 32.62541 0.01324
C 30.64954 31.95582 0.0014
C 30.64094 30.4733 0.00924
C 29.35392 29.7549 0.02326
C 29.39687 28.28709 0.00261
C 30.73456 27.75765 0.03265
C 30.70584 26.258 -0.02049
C 29.39798 25.80354 -0.01854
C 29.46778 24.25665 -0.01415
C 30.71502 23.47617 -0.03039
C 30.69318 22.03035 0.01836
C 29.38916 21.30751 0.03531
C 29.43988 19.94352 -0.00669
C 30.69018 19.21161 0.0101
C 30.73263 17.75228 0.01705
C 27.02425 34.07748 0.04266
C 28.25378 0.66691 0.01177
C 28.20697 2.09094 -0.00416
C 27.1092 2.91702 0.01699
C 26.89035 32.66952 0.00487
C 28.11961 31.9009 0.00826
C 28.05812 30.50741 -0.00294
C 26.79553 29.81369 0.00152
C 28.29959 27.38456 0.01257
C 28.3989 23.38725 0.02316
C 28.11012 22.03388 0.04185
C 25.81621 0.74352 -0.02815
C 26.88114 21.16137 0.00194
C 28.20847 19.12568 0.02611
C 28.1918 17.74321 0.02198
C 26.94847 16.9364 0.01094
C 27.0374 15.4366 0.00235
C 28.18476 14.84793 0.01495
C 28.43434 5.10767 0.01259
C 27.17156 4.37239 0.01799
C 26.81196 19.78942 -0.00621
C 2.47208 32.63268 -0.02896
