355
Graphene
C 34.40081 0.07787 0.01295
C 15.97593 27.6651 -0.00368
C 16.03137 26.32957 -0.02696
C 14.70729 25.55026 -0.00114
C 14.62132 24.05717 0.00228
C 15.88388 23.43367 0.00798
C 15.97898 21.92291 0.00422
C 14.67626 21.28442 0.0351
C 14.64007 19.87087 -0.03113
C 14.72364 28.41104 -0.0108
C 15.91558 19.14275 0.02098
C 16.22896 0.77356 -0.00619
C 14.9735 0.10157 -0.02162
C 17.2868 32.53955 0.00889
C 18.46724 31.79518 -0.00481
C 18.51401 30.40253 0.00979
C 17.15001 29.81269 0.01443
C 17.22905 28.4299 0.03505
C 18.55103 28.04125 -0.02815
C 16.07123 17.79843 0.01848
C 18.63721 26.51647 -0.04147
C 14.73398 29.92322 -0.01957
C 16.06309 32.02166 0.01965
C 9.9591 0.08925 0.00415
C 12.36634 32.82947 -0.0014
C 13.6601 32.08432 0.02162
C 13.49619 30.636 0.0076
C 12.23365 29.80316 0.01241
C 12.19938 28.46274 -0.01454
C 13.42981 27.74004 0.01945
C 13.49178 26.27334 0.01416
C 15.99077 30.6471 0.02058
C 12.27928 25.61027 0.03542
C 13.46719 23.27436 0.00244
C 13.47151 21.90085 -0.01717
C 12.27399 21.15704 0.05265
C 12.26648 19.71966 -0.01952
C 13.47506 19.16807 -0.02813
C 13.65662 0.65967 0.00374
C 12.40739 0.23164 0.00052
C 14.88222 32.7785 -0.03682
C 12.2536 24.07207 0.02299
C 17.28331 25.6113 -0.05302
C 17.1576 24.21187 0.00213
C 18.34368 23.43249 -0.00066
C 20.78705 14.90386 0.00143
C 21.05358 13.50926 -0.017
C 20.728 6.61716 0.00364
C 20.71308 5.08875 -0.00831
C 19.71761 4.15046 -0.02957
C 19.54575 2.78096 -0.04422
C 20.84191 2.11148 0.00654
C 20.96205 0.72338 -0.00703
C 19.53306 15.63816 0.00667
C 19.74047 33.91355 -0.04076
C 23.3097 31.78768 0.0058
C 23.34007 30.4136 -0.00865
C 22.143 29.63642 0.00675
C 22.04724 24.19101 -0.00311
C 23.2889 23.48004 0.00742
C 23.30107 22.07506 -0.01594
C 22.1132 21.38087 0.0106
C 22.04739 19.93295 -0.01154
C 22.07937 32.50957 -0.00652
C 19.65568 17.02873 -0.0054
C 20.92336 17.76665 0.00755
C 20.85048 19.19006 0.01739
C 18.35874 21.99963 -0.00289
C 17.11133 21.2615 0.00028
C 17.15478 19.85728 -0.02213
C 18.47621 19.18215 0.03698
C 18.42717 17.75009 -0.00109
C 17.26239 17.08796 -0.00491
C 18.36412 1.95282 0.03338
C 18.5485 0.6247 -0.0258
C 17.3141 34.05773 -0.0331
C 19.67954 32.42239 -0.00316
C 20.83901 31.77063 0.02188
C 20.81557 30.21685 -0.01979
C 19.49419 29.38693 0.02691
C 19.74814 25.54389 -0.01581
C 19.59541 24.11529 0.01452
C 20.82843 23.39999 0.04892
C 20.83046 21.9813 -0.00111
C 19.62156 21.32936 -0.03557
C 19.6696 19.90969 0.03754
C 11.09367 0.94273 -0.02162
C 23.25437 19.25085 -0.01721
C 10.89007 19.06415 0.01363
C 9.78853 21.30804 -0.00925
C 2.40298 7.1466 -0.00494
C 3.62563 6.51671 0.00054
C 3.79819 5.10817 0.03007
C 2.52356 4.39025 -0.00095
C 2.46426 2.9559 0.01572
C 3.61644 2.19449 -0.04848
C 3.60694 0.79513 -0.00892
C 2.47172 0.09274 -0.01362
C 2.4444 8.63816 -0.00562
C 4.83348 32.71992 -0.0008
C 6.1417 30.5572 0.00393
C 4.90921 29.91137 0.00895
C 4.93718 28.47797 0.00685
C 6.1643 27.79179 0.02888
C 6.15859 26.33482 -0.00482
C 4.94328 25.67324 -0.01384
C 4.87127 24.16986 0.03693
C 6.11979 23.44066 0.01745
C 6.08547 32.05872 0.0288
C 6.1591 21.99246 0.00488
C 3.57156 9.34753 -0.01142
C 2.39646 11.45943 0.01396
C 3.66585 30.57457 0.01087
C 2.40437 29.88732 -0.01343
C 2.40397 28.44737 0.00988
C 3.73973 27.76974 0.0276
C 3.71063 26.36065 0.01305
C 2.48232 25.54121 -0.00077
C 2.43534 24.12289 0.03368
C 3.67604 23.46205 -0.02929
C 3.65163 10.75215 0.01849
C 3.66522 22.06828 -0.00966
C 2.4246 19.8877 0.01227
C 3.6094 19.13998 0.00873
C 3.71171 17.76647 -0.00049
C 2.46115 17.11886 0.00848
C 2.40242 15.6884 -0.01303
C 3.63264 14.93676 -0.01378
C 3.71484 13.52101 0.02635
C 2.40524 12.83081 0.0127
C 2.48365 21.32522 -0.03337
C 4.93677 21.36805 -0.01004
C 4.82437 19.90118 -0.02896
C 6.00583 19.20231 -0.00131
C 8.56901 19.18991 0.00943
C 8.509 17.72325 0.02841
C 7.36795 17.12502 -0.01111
C 7.37466 2.90534 -0.01275
C 8.50824 2.10715 0.00985
C 8.60127 0.78123 -0.02245
C 7.39032 0.0455 -0.00428
C 9.85596 32.64759 0.03101
C 7.30463 19.89124 0.00406
C 11.15978 32.12911 -0.01536
C 9.8302 29.86909 -0.01046
C 9.84203 28.46998 -0.00891
C 11.03823 27.75553 0.02819
C 11.04629 26.33365 0.00165
C 9.84374 25.55548 -0.02971
C 9.83249 24.19428 0.02894
C 11.05409 23.42008 -0.01789
C 11.04913 21.94546 0.00444
C 11.13782 30.66151 -0.02689
C 7.38676 21.36174 0.03592
C 8.63011 22.08189 0.00572
C 8.60949 23.47185 0.0402
C 6.02943 17.79119 -0.01118
C 4.90458 17.05165 -0.014
C 4.98276 15.60175 0.02147
C 6.02127 14.73183 0.00373
C 5.02397 12.91549 -0.00191
C 4.91078 4.2954 0.00438
C 4.8364 2.90986 0.01291
C 6.12936 2.16964 0.00093
C 6.10006 0.73204 0.00057
C 4.85026 0.03069 -0.01634
C 7.32122 32.74649 -0.00334
C 8.55947 31.96135 0.02339
C 8.54506 30.59278 0.01641
C 7.35616 29.87845 -0.00719
C 7.38451 28.45808 0.01364
C 8.59818 27.75163 -0.01062
C 8.64809 26.32596 -0.00033
C 7.43412 25.62191 0.03589
C 7.37501 24.19384 -0.02759
C 9.81168 19.86192 0.01877
C 3.65512 32.03047 -0.05697
C 23.32149 17.77149 -0.02422
C 22.00235 15.56291 0.00096
C 31.95942 32.7253 0.01713
C 33.18708 32.03015 -0.01694
C 33.1662 30.56427 0.01428
C 31.93632 29.87075 -0.02142
C 31.95614 28.4697 0.0544
C 33.20985 27.68493 0.00026
C 33.20509 26.25813 0.00682
C 31.94068 25.55212 -0.01779
C 29.45306 0.00307 0.00346
C 31.98137 24.13969 0.03794
C 33.18427 22.06581 0.01574
C 31.87146 21.31141 -0.02383
C 31.91344 19.85514 -0.01429
C 33.21339 19.1553 -0.0136
C 33.18658 17.76158 0.00594
C 31.9441 16.98665 -0.02474
C 31.84963 15.60575 0.00369
C 33.16639 14.9208 0.00455
C 33.17682 23.46892 0.01927
C 33.14167 13.50328 -0.00644
C 30.73704 0.72177 0.00307
C 29.51494 2.72629 0.02108
C 30.65154 22.03003 -0.01415
C 29.46044 21.3236 -0.03039
C 29.42454 19.95509 0.01836
C 30.69877 19.19911 0.03531
C 30.66193 17.72704 -0.00669
C 29.44201 17.04489 0.0101
C 29.44152 15.63297 0.01705
C 30.61854 14.91169 -0.0405
C 30.825 2.14133 0.00716
C 30.66666 13.48438 -0.01303
C 29.49756 11.34519 -0.02155
C 30.72589 10.60061 -0.00944
C 30.73829 9.14659 -0.03735
C 29.49134 8.55884 -0.00971
C 29.49725 7.05216 0.01518
C 30.72576 6.33193 0.01908
C 30.69495 4.92704 0.07705
C 29.53718 4.21878 0.0103
C 29.49453 12.72521 -0.01461
C 31.96111 12.76958 -0.01839
C 31.89258 11.34596 0.00137
C 33.15041 10.65418 0.00199
C 1.11709 19.21488 -0.01678
C 1.20788 17.80309 0.01223
C 34.37452 17.12697 0.00648
C 34.40657 15.61868 0.02114
C 1.1931 14.95748 -0.02957
C 1.20621 13.53937 0.00343
C 0.02472 12.83089 -0.02656
C 34.32434 11.37177 -0.02442
C 34.39209 19.90403 0.01951
C 1.12753 10.60794 -0.00027
C 34.3769 8.52151 -0.02302
C 34.38121 7.12346 -0.02849
C 1.13184 6.40933 0.02931
C 1.28593 4.98898 0.00628
C 0.09172 4.28342 -0.0345
C 0.02238 2.81297 -0.00931
C 1.24225 2.14388 -0.00939
C 1.16011 0.78108 -0.00468
C 1.13851 9.24707 -0.00583
C 34.42603 21.3235 -0.02213
C 1.22103 22.00185 0.02712
C 1.1619 23.44704 0.00723
C 33.19867 9.2398 0.04381
C 31.97509 8.5127 0.02806
C 32.00599 7.03471 0.01504
C 33.22609 6.40071 -0.00069
C 33.28902 4.95099 0.04926
C 31.9686 4.30581 -0.03838
C 31.97928 2.84221 0.00349
C 33.23476 2.16648 -0.00323
C 33.19383 0.78455 -0.00841
C 31.99686 0.02659 0.0001
C 0.02373 32.7233 -0.02927
C 1.28559 32.03292 -0.01404
C 1.20435 30.61738 0.01027
C 34.419 29.87671 0.01831
C 34.4324 28.40657 -0.01037
C 1.1916 27.79652 -0.00439
C 1.22779 26.31771 -0.00598
C 34.40587 25.56352 -0.05239
C 34.38784 24.21075 0.03076
C 30.74936 23.47087 -0.01854
C 22.03881 16.99157 0.01277
C 29.44528 24.2375 -0.02049
C 30.74565 26.35294 0.00261
C 24.60429 25.60478 -0.01107
C 24.54706 24.21373 -0.01586
C 25.77029 23.49974 -0.01971
C 25.66686 22.06073 -0.02118
C 24.49623 21.30998 0.00733
C 24.42386 19.99428 -0.00178
C 25.71321 19.19839 0.00768
C 25.83678 17.74724 -0.0276
C 25.78689 26.24032 0.00071
C 24.58663 17.08032 0.03005
C 25.78071 14.85052 0.02117
C 25.77204 13.42679 0.02737
C 24.51673 12.76784 -0.00498
C 24.6636 11.34188 0.00135
C 25.82339 10.55962 0.03102
C 25.86342 9.16917 0.02555
C 24.63213 8.39171 0.01423
C 24.53202 6.9934 -0.00285
C 24.56102 15.61388 -0.04078
C 25.80035 6.23863 -0.009
C 25.74387 27.71673 -0.00225
C 24.62179 29.78362 -0.0055
C 23.30566 14.83964 -0.01527
C 23.31741 13.46009 0.01087
C 22.08815 12.61931 0.00199
C 22.14787 11.11551 0.01511
C 23.42843 10.65711 -0.00478
C 23.40677 9.18731 -0.01662
C 22.14152 8.57048 -0.01185
C 22.02018 7.20053 0.01126
C 24.60137 28.37241 0.01515
C 23.24686 6.44098 0.01852
C 21.96498 4.32253 0.03046
C 22.04577 2.85704 0.0296
C 23.35846 2.10427 0.03374
C 23.32666 0.72084 -0.02845
C 22.13119 34.05031 -0.03213
C 24.49885 32.51764 0.02239
C 25.7783 31.92143 0.01153
C 25.85154 30.48589 0.02734
C 23.20956 5.04024 -0.00381
C 25.73834 4.8825 -0.01199
C 24.50579 4.26047 -0.00229
C 24.49012 2.83107 -0.00938
C 27.03575 11.29124 0.04185
C 28.28005 10.65982 0.00194
C 28.25805 9.19118 -0.00621
C 27.02857 8.41023 0.02611
C 27.02617 7.00252 0.02198
C 28.29119 6.29329 0.01094
C 28.27711 4.87693 0.00235
C 27.03455 4.2203 0.01495
C 27.05072 12.7321 0.02316
C 26.9883 2.79363 0.01259
C 28.25384 0.69659 0.01699
C 27.08419 34.03934 -0.00416
C 29.51515 32.66538 0.01177
C 30.69638 32.00835 0.04266
C 30.70573 30.52079 0.01324
C 29.45086 29.80247 0.0014
C 29.45869 28.40062 0.00924
C 30.71974 27.75552 0.02326
C 28.2581 2.09638 0.01799
C 28.21732 13.44823 0.01257
C 28.20489 14.94745 0.00152
C 26.98895 15.57135 -0.00294
C 25.75041 2.15374 -0.0264
C 25.74328 0.65664 -0.01154
C 24.54147 34.02007 0.00684
C 27.10423 32.69347 -0.01052
C 28.24342 31.93099 -0.01679
C 28.2808 30.52485 0.00367
C 27.01833 29.79988 0.04306
C 27.02514 28.42035 0.00996
C 28.23967 27.72978 0.00195
C 28.29344 26.32611 -0.00802
C 27.00625 25.60893 -0.00218
C 26.97768 24.22258 -0.01654
C 28.25085 23.52007 -0.00037
C 28.2068 22.07641 -0.0032
C 26.90946 21.3295 0.00622
C 26.91423 19.89275 -0.02815
C 28.20642 19.21943 -0.00942
C 28.16992 17.82361 0.00487
C 27.01522 17.03576 0.00826
C 29.55519 25.62787 0.03265
C 2.46298 32.81889 -0.00725
