336
Graphene
C 34.41027 34.0634 0.01295
C 13.49901 0.91771 -0.00481
C 12.30597 0.07679 0.00979
C 14.71536 32.76136 0.01443
C 15.95958 32.02079 0.03505
C 15.92114 30.63312 -0.02815
C 14.77107 29.78661 -0.04147
C 14.84987 28.30202 -0.05302
C 16.01308 27.54529 0.00213
C 16.06615 26.11752 -0.00066
C 14.84269 25.48695 -0.00289
C 14.8461 24.00757 0.00028
C 16.04073 23.31552 -0.02213
C 16.14144 21.64072 0.03698
C 14.78834 21.43003 -0.00109
C 14.69205 2.99131 -0.00491
C 15.94845 2.40241 0.03338
C 15.94399 0.81616 -0.0258
C 13.44056 2.39282 0.00889
C 14.70443 0.09211 -0.0331
C 12.20629 3.11134 -0.02162
C 13.76699 21.92288 0.01848
C 9.86518 7.04909 -0.02813
C 10.90539 5.03757 0.00374
C 9.68951 4.2117 0.00052
C 9.77405 2.82272 -0.03682
C 11.0105 2.26108 0.01965
C 11.07805 0.73019 0.02058
C 9.81373 0.13627 -0.01957
C 12.3565 32.71849 -0.0108
C 13.51304 31.99988 -0.00368
C 13.55453 30.54095 -0.02696
C 12.28661 29.86477 -0.00114
C 12.28431 28.39889 0.00228
C 13.59638 27.73287 0.00798
C 13.53535 26.28369 0.00422
C 12.27789 25.59268 0.0351
C 12.31867 24.07567 -0.03113
C 13.48927 23.34443 0.02098
C 12.09215 4.52856 -0.00619
C 11.09214 23.48471 -0.01952
C 17.18557 32.72237 -0.00316
C 18.41492 30.62713 -0.01979
C 19.67818 24.09221 0.0058
C 21.07809 23.61566 -0.00865
C 21.0747 22.27411 0.00675
C 19.91928 21.39996 -0.00311
C 20.4635 19.87339 0.00742
C 19.61315 2.99324 -0.01594
C 20.79903 2.22166 0.0106
C 20.88505 0.74388 -0.01154
C 19.58513 0.00309 -0.01721
C 22.09705 32.64148 -0.02422
C 23.35821 31.90893 0.01277
C 23.30276 30.49677 0.00096
C 22.07029 29.74613 -0.01527
C 22.13457 28.36931 0.01087
C 23.30761 27.66153 0.00199
C 23.35759 26.31284 0.01511
C 22.21622 25.60166 -0.00478
C 19.69093 25.45401 -0.00652
C 18.40174 32.05798 0.02188
C 20.89072 26.2085 -0.04076
C 19.61281 28.42383 0.00654
C 17.17807 29.90607 0.02691
C 17.21185 28.37258 -0.01581
C 18.42352 27.62436 0.01452
C 18.45305 26.11381 0.04892
C 17.26727 25.42298 -0.00111
C 17.24603 24.00987 -0.03557
C 18.49648 23.34015 0.03754
C 18.56139 21.99621 0.01739
C 17.35987 21.02363 0.00755
C 17.30734 2.84265 -0.0054
C 18.49209 2.17493 0.00667
C 18.3905 0.67449 0.00143
C 17.15667 0.03151 -0.017
C 19.61968 32.66473 0.00364
C 20.84719 31.96384 -0.00831
C 20.8297 30.54259 -0.02957
C 19.60164 29.84707 -0.04422
C 20.86533 27.63436 -0.00703
C 22.24943 24.24696 -0.01662
C 9.90921 24.15455 0.05265
C 11.07145 26.30646 0.00244
C 2.26877 7.04368 0.00488
C 3.57993 6.37821 -0.01004
C 3.57897 4.94024 -0.02896
C 2.36343 4.28745 -0.00131
C 2.36421 2.81178 -0.01118
C 3.54384 2.15476 -0.014
C 3.67233 0.69865 0.02147
C 2.3731 0.06414 0.00373
C 4.89232 32.72604 -0.00191
C 6.15984 32.03665 0.00438
C 6.15491 30.59346 0.01291
C 4.88603 29.88475 0.00093
C 4.8721 28.48196 0.00057
C 6.18231 27.74919 -0.01634
C 6.14191 26.38585 -0.00334
C 4.96328 25.61168 0.02339
C 4.92001 24.20588 0.01641
C 2.31574 8.49023 0.01745
C 6.20417 23.51407 -0.00719
C 3.57247 9.18607 0.03693
C 2.31206 11.44884 -0.00482
C 3.66266 30.59131 0.01849
C 2.44045 29.90301 -0.01142
C 2.4272 28.40393 -0.00562
C 3.68129 27.73676 -0.00494
C 3.70338 26.34889 0.00054
C 2.47679 25.57276 0.03007
C 2.48341 24.114 -0.00095
C 3.71385 23.4262 0.01572
C 3.74475 21.90583 -0.04848
C 2.61881 21.21049 -0.00892
C 2.49525 19.69241 -0.01362
C 3.20445 18.51855 -0.0008
C 2.35976 17.1083 0.0288
C 2.641 15.81372 0.00393
C 3.66721 14.9628 0.00895
C 3.56749 13.67693 0.00685
C 2.44702 12.81346 0.02888
C 3.50238 10.66947 -0.01384
C 9.82744 25.60703 -0.01717
C 6.06767 22.16701 0.01364
C 4.76679 11.21928 -0.00033
C 9.48967 10.01097 0.02894
C 8.46047 9.34403 -0.01789
C 7.25472 8.57914 0.00444
C 7.35121 7.16473 -0.00925
C 8.58122 6.38582 0.01877
C 8.528 4.90029 0.01363
C 7.2277 4.22511 -0.02162
C 7.29741 2.84573 0.00415
C 8.53767 2.15045 -0.0014
C 8.56252 0.777 0.02162
C 7.3493 0.10501 0.0076
C 9.92766 32.75184 0.01241
C 11.14056 32.00129 -0.01454
C 11.0334 30.59722 0.01945
C 9.77825 29.83953 0.01416
C 9.7957 28.45533 0.03542
C 11.05112 27.7543 0.02299
C 8.53116 23.48963 -0.02971
C 5.04305 21.47967 -0.01062
C 7.42277 24.29746 0.00165
C 8.6419 26.32987 -0.00891
C 5.805 10.63166 0.03589
C 6.0839 9.18858 -0.02759
C 4.87992 8.55364 0.0402
C 4.81599 7.02544 0.00572
C 6.12046 6.40044 0.03592
C 5.99905 4.99389 0.00406
C 4.79096 4.25298 0.00943
C 4.83634 2.8076 0.02841
C 6.07018 2.16176 -0.01111
C 6.12263 0.76328 -0.01275
C 4.88711 0.05327 0.00985
C 7.38951 32.7503 -0.02245
C 8.71131 32.04248 -0.00428
C 8.63515 30.60785 0.03101
C 7.43803 29.83076 -0.01536
C 7.39169 28.51566 -0.02689
C 8.62909 27.76402 -0.01046
C 7.34974 25.65126 0.02819
C 23.3913 23.49035 -0.01185
C 23.42083 22.08101 0.01126
C 22.14906 21.48374 0.01852
C 31.92211 28.3996 0.0544
C 33.15319 27.71937 0.00026
C 33.19603 26.20616 0.00682
C 32.03368 25.48331 -0.01779
C 31.99705 24.15945 0.03794
C 33.24602 23.43284 0.01927
C 33.22726 22.04135 0.01574
C 31.95403 21.32019 -0.02383
C 31.97325 19.90499 -0.01429
C 33.19208 19.22691 -0.0136
C 33.14906 17.8617 0.00594
C 31.90031 17.03272 -0.02474
C 31.94253 15.64216 0.00369
C 33.28362 15.02792 0.00455
C 33.16541 13.53996 -0.00644
C 31.88077 12.82759 -0.01839
C 31.87857 11.37353 0.00137
C 31.90662 29.78584 -0.02142
C 33.05858 10.69951 0.00199
C 33.12286 30.56573 0.01428
C 31.80858 32.63301 0.01713
C 29.45654 17.05489 0.0101
C 29.4835 15.62221 0.01705
C 30.72074 14.97494 -0.0405
C 30.70594 13.55546 -0.01303
C 29.45035 12.85181 -0.01461
C 29.53605 11.39514 -0.02155
C 30.71971 10.65189 -0.00944
C 30.67806 9.25737 -0.03735
C 29.43268 8.54222 -0.00971
C 29.36168 7.06407 0.01518
C 30.6225 6.44796 0.01908
C 30.68438 4.93648 0.07705
C 29.37982 4.25711 0.0103
C 29.37799 2.8136 0.02108
C 30.60165 2.17837 0.00716
C 30.66592 0.71908 0.00307
C 29.39951 0.00974 0.00346
C 33.11928 31.97273 -0.01694
C 30.73362 17.76997 -0.00669
C 33.13174 9.24359 0.04381
C 31.84643 7.13081 0.01504
C 1.12258 17.76982 0.01223
C 34.414 17.10422 0.00648
C 0.09736 15.73912 0.02114
C 1.36121 15.03173 -0.02957
C 1.2718 13.69672 0.00343
C 34.39688 12.88619 -0.02656
C 34.35804 11.41646 -0.02442
C 1.13816 10.71903 -0.00027
C 1.1168 9.22054 -0.00583
C 34.28558 8.56573 -0.02302
C 34.28655 7.08592 -0.02849
C 1.01379 6.34962 0.02931
C 1.09979 4.96621 0.00628
C 34.30476 4.21103 -0.0345
C 34.35533 2.83908 -0.00931
C 1.15177 2.17867 -0.00939
C 1.12873 0.73169 -0.00468
C 1.17603 19.17301 -0.01678
C 31.90995 8.53742 0.02806
C 0.02429 19.91754 0.01951
C 1.29969 21.93683 0.02712
C 33.02591 6.44196 -0.00069
C 33.1001 4.98469 0.04926
C 31.86219 4.23811 -0.03838
C 31.91568 2.8239 0.00349
C 33.13794 2.14628 -0.00323
C 33.13176 0.64847 -0.00841
C 31.88628 34.06933 0.0001
C 34.30715 32.64394 -0.02927
C 1.19956 31.97003 -0.01404
C 1.17881 30.51408 0.01027
C 34.42149 29.83008 0.01831
C 0.02064 28.38332 -0.01037
C 1.28056 27.64817 -0.00439
C 1.22937 26.26292 -0.00598
C 0.04325 25.4953 -0.05239
C 0.09635 23.98783 0.03076
C 1.3195 23.28231 0.00723
C 34.43028 21.34698 -0.02213
C 30.65296 19.11244 0.03531
C 29.44884 19.78956 0.01836
C 29.53633 21.273 -0.03039
C 24.41803 19.87412 0.03005
C 25.63264 19.11034 -0.04078
C 25.62351 17.75075 0.02117
C 24.23797 17.02119 0.02737
C 24.4311 15.7337 -0.00498
C 25.47261 14.76959 0.00135
C 25.65356 13.37912 0.03102
C 25.83365 10.50947 0.02555
C 25.71572 9.33152 0.01423
C 24.31073 6.92558 -0.00285
C 25.70568 6.40961 -0.009
C 25.7354 4.96828 -0.01199
C 24.55008 4.27702 -0.00229
C 24.55077 2.85839 -0.00938
C 25.74975 2.10105 -0.0264
C 25.70449 0.70506 -0.01154
C 24.45969 33.97121 0.00684
C 24.57382 21.35568 -0.0276
C 26.98381 32.6581 -0.01052
C 25.87441 21.96252 0.00768
C 24.59282 24.18829 0.00733
C 21.94292 20.08199 -0.00381
C 23.06818 19.28114 0.03046
C 23.13963 17.84979 0.0296
C 23.35859 5.04955 0.03374
C 22.32784 4.25745 -0.02845
C 22.11431 2.81065 -0.03213
C 23.2909 2.1599 0.02239
C 23.36046 0.67591 0.01153
C 22.07754 34.05609 0.02734
C 24.54215 32.5752 -0.0055
C 25.8257 31.96879 0.01515
C 25.75125 30.53356 -0.00225
C 24.53127 29.7996 0.00071
C 24.54906 28.386 -0.01107
C 25.84644 27.66404 -0.01586
C 25.84792 26.30684 -0.01971
C 24.60054 25.54953 -0.02118
C 25.83068 23.40971 -0.00178
C 28.27863 31.92905 -0.01679
C 28.26986 30.51286 0.00367
C 27.08756 29.85274 0.04306
C 28.14575 4.9525 0.00235
C 26.92208 4.26809 0.01495
C 26.97842 2.85156 0.01259
C 28.18137 2.0683 0.01799
C 28.1959 0.72237 0.01699
C 26.97981 0.01693 -0.00416
C 29.41551 32.70682 0.01177
C 30.69002 31.87214 0.04266
C 30.7059 30.53659 0.01324
C 29.53103 29.78867 0.0014
C 29.55439 28.38385 0.00924
C 30.74658 27.68942 0.02326
C 30.78845 26.24259 0.00261
C 29.51357 25.60634 0.03265
C 29.57649 24.09242 -0.02049
C 30.79779 23.43222 -0.01854
C 30.72602 22.00825 -0.01415
C 28.14034 6.3535 0.01094
C 26.88689 7.10743 0.02198
C 26.89042 8.50301 0.02611
C 28.20485 9.25742 -0.00621
C 27.07055 28.48963 0.00996
C 28.25336 27.72363 0.00195
C 28.30532 26.33033 -0.00802
C 27.06128 25.58923 -0.00218
C 27.00199 24.15028 -0.01654
C 28.28065 23.41054 -0.00037
C 28.30934 21.98507 -0.0032
C 27.10571 21.20521 0.00622
C 3.66746 31.99474 0.01396
C 26.88605 19.77305 -0.02815
C 28.16779 17.76637 0.00487
C 26.84878 17.02012 0.00826
C 26.89696 15.60651 -0.00294
C 28.19808 14.91462 0.00152
C 28.17441 13.49445 0.01257
C 26.89418 12.73352 0.02316
C 26.97493 11.29813 0.04185
C 28.27873 10.64941 0.00194
C 28.12642 19.11531 -0.00942
C 2.44996 32.7086 0.0127
