355
Graphene
C 34.40018 34.05305 0.01295
C 10.97019 2.21908 -0.00368
C 10.93717 0.80467 -0.02696
C 9.74147 0.02988 -0.00114
C 12.21291 32.63063 0.00228
C 13.41838 31.98301 0.00798
C 13.47831 30.60587 0.00422
C 12.29584 29.81548 0.0351
C 12.35596 28.39394 -0.03113
C 9.65865 2.90444 -0.0108
C 13.58435 27.70045 0.02098
C 12.33734 25.3079 -0.00619
C 12.0047 24.05432 -0.02162
C 12.75817 10.41467 0.00889
C 13.3223 8.9943 -0.00481
C 12.07766 8.40518 0.00979
C 12.26857 7.01819 0.01443
C 13.48407 6.32498 0.03505
C 13.4784 4.94354 -0.02815
C 13.77212 26.22608 0.01848
C 12.27421 4.22181 -0.04147
C 9.6752 4.29498 -0.01957
C 11.01434 6.35234 0.01965
C 7.17092 33.99076 0.00415
C 9.79716 32.66934 -0.0014
C 11.02814 31.92737 0.02162
C 11.03011 30.46961 0.0076
C 9.78437 29.76821 0.01241
C 9.79141 28.41296 -0.01454
C 11.04721 27.66963 0.01945
C 11.06519 26.24384 0.01416
C 10.95441 4.92516 0.02058
C 9.72693 25.73097 0.03542
C 10.91659 23.27283 0.00244
C 10.13301 22.03574 -0.01717
C 9.96109 12.69199 0.05265
C 10.2428 11.39542 -0.01952
C 11.34773 10.51577 -0.02813
C 10.98918 9.14151 0.00374
C 9.72026 8.45311 0.00052
C 9.78539 7.12209 -0.03682
C 9.71945 24.31829 0.02299
C 12.22551 2.82828 -0.05302
C 13.45389 2.04063 0.00213
C 13.40547 0.68636 -0.00066
C 17.16855 28.49746 0.00143
C 18.28568 27.59773 -0.017
C 17.8126 26.29283 0.00364
C 18.44525 9.2031 -0.00831
C 17.14035 8.68185 -0.02957
C 17.05822 7.15956 -0.04422
C 18.33707 6.49081 0.00654
C 18.38261 4.96649 -0.00703
C 17.19678 29.90167 0.00667
C 17.14933 4.31906 -0.04076
C 18.37998 2.16309 0.0058
C 18.35985 0.77665 -0.00865
C 17.16551 0.00298 0.00675
C 19.68686 32.76957 -0.00311
C 20.83097 31.99275 0.00742
C 20.86731 30.55521 -0.01594
C 19.63616 29.78085 0.0106
C 19.53705 28.31703 -0.01154
C 17.1324 2.85339 -0.00652
C 18.4752 30.55517 -0.0054
C 18.40894 32.07024 0.00755
C 17.15344 32.72274 0.01739
C 12.15462 34.03411 -0.00289
C 14.67285 32.68457 0.00028
C 15.96143 32.0101 -0.02213
C 15.94092 30.59544 0.03698
C 14.767 29.87119 -0.00109
C 14.77183 28.48845 -0.00491
C 15.90659 27.77837 0.03338
C 16.21681 26.33407 -0.0258
C 15.01908 25.90391 -0.0331
C 15.87942 9.13953 -0.00316
C 14.64033 8.61253 0.02188
C 14.62341 7.17465 -0.01979
C 15.79578 6.47688 0.02691
C 15.9314 4.98944 -0.01581
C 14.72816 4.23572 0.01452
C 14.68425 2.79261 0.04892
C 15.83233 2.08657 -0.00111
C 15.94821 0.68814 -0.03557
C 14.66233 0.04983 0.03754
C 8.45503 0.68412 -0.02162
C 20.77336 27.68013 -0.01721
C 8.52496 2.11643 0.01363
C 7.32142 4.27053 -0.00925
C 2.37118 4.27064 -0.00494
C 2.35091 2.84782 0.00054
C 3.55495 2.12949 0.03007
C 3.52024 0.66592 -0.00095
C 2.30596 33.95116 0.01572
C 4.74224 32.49892 -0.04848
C 6.05709 31.82495 -0.00892
C 6.07467 30.48312 -0.01362
C 3.65295 4.92591 -0.00562
C 4.94866 29.37505 -0.0008
C 5.56233 26.73086 0.00393
C 4.43139 25.69103 0.00895
C 4.65576 24.22739 0.00685
C 5.93332 23.6335 0.02888
C 6.05566 22.14234 -0.00482
C 4.76114 21.36228 -0.01384
C 4.85513 19.89776 0.03693
C 6.08129 19.24137 0.01745
C 5.77379 28.09885 0.0288
C 6.09141 17.79362 0.00488
C 3.69528 6.4758 -0.01142
C 2.45678 8.56879 0.01396
C 3.56331 29.86131 0.01087
C 2.27334 29.43387 -0.01343
C 2.86831 25.64171 0.00988
C 2.38282 24.21783 0.0276
C 3.55009 23.38307 0.01305
C 3.42385 21.92095 -0.00077
C 2.14811 21.28711 0.03368
C 2.23414 19.77941 -0.02929
C 2.43695 7.1319 0.01849
C 3.57574 19.232 -0.00966
C 2.34291 17.07159 0.01227
C 2.45073 15.69341 0.00873
C 3.62586 14.91897 -0.00049
C 3.72854 13.51555 0.00848
C 2.47316 12.87532 -0.01303
C 2.47342 11.46049 -0.01378
C 3.71619 10.71723 0.02635
C 3.69948 9.34887 0.0127
C 3.63089 17.71646 -0.03337
C 4.86649 16.997 -0.01004
C 4.92135 15.62052 -0.02896
C 6.21119 14.94737 -0.00131
C 8.42325 23.71393 0.00943
C 8.69143 22.26766 0.02841
C 7.46848 21.38971 -0.01111
C 7.39635 19.98884 -0.01275
C 8.59316 19.20419 0.00985
C 8.47341 17.97872 -0.02245
C 7.37055 17.12184 -0.00428
C 7.42073 15.67808 0.03101
C 7.10043 24.45112 0.00406
C 8.62844 14.95803 -0.01536
C 7.45275 12.80008 -0.01046
C 7.53074 11.36223 -0.00891
C 8.77449 10.62611 0.02819
C 8.59693 9.27525 0.00165
C 7.35348 8.60369 -0.02971
C 7.38252 7.19803 0.02894
C 8.54011 6.39564 -0.01789
C 8.52905 4.98651 0.00444
C 8.83274 13.58516 -0.02689
C 6.99534 25.90803 0.03592
C 8.38703 26.43366 0.00572
C 8.48253 27.89033 0.0402
C 6.24649 13.48367 -0.01118
C 4.9044 12.82561 -0.014
C 5.02893 11.43878 0.02147
C 6.21108 10.72897 0.00373
C 6.21401 9.37217 -0.00191
C 4.95021 8.60925 0.00438
C 4.94152 7.15573 0.01291
C 6.13316 6.47631 0.00093
C 6.06227 4.99466 0.00057
C 4.80928 4.25271 -0.01634
C 4.80368 2.86033 -0.00334
C 5.97423 2.02249 0.02339
C 5.97006 0.61057 0.01641
C 4.75836 33.97559 -0.00719
C 7.23642 32.60315 0.01364
C 8.57751 31.90807 -0.01062
C 8.60319 30.48931 -0.00033
C 7.33443 29.88164 0.03589
C 7.26493 28.57808 -0.02759
C 7.21895 2.80134 0.01877
C 3.64951 31.64535 -0.05697
C 21.03436 26.36913 -0.02422
C 19.64253 8.63967 0.00096
C 30.70449 2.18276 0.01713
C 30.64409 0.75815 -0.01694
C 29.4403 0.07115 0.01428
C 31.94349 32.71106 -0.02142
C 33.22565 31.94037 0.0544
C 33.20258 30.56781 0.00026
C 31.82411 29.81429 0.00682
C 31.9102 28.38043 -0.01779
C 29.44039 2.829 0.00346
C 33.29268 27.7757 0.03794
C 32.15699 25.76595 0.01574
C 32.01839 24.38829 -0.02383
C 33.12463 23.50974 -0.01429
C 32.68496 22.10283 -0.0136
C 33.14786 18.05099 0.00594
C 31.69712 17.03934 -0.02474
C 31.95644 15.64317 0.00369
C 33.20205 15.01579 0.00455
C 33.45825 26.41576 0.01927
C 33.24321 13.57135 -0.00644
C 29.53239 4.28736 0.00307
C 30.72078 6.39091 0.02108
C 29.46245 28.42197 -0.01415
C 30.70528 27.69935 -0.03039
C 30.77766 26.29069 0.01836
C 29.51009 25.6796 0.03531
C 29.53511 24.25993 -0.00669
C 30.72125 23.62904 0.0101
C 30.97282 22.17277 0.01705
C 29.73002 21.44655 -0.0405
C 30.73774 4.95886 0.00716
C 30.19101 16.994 -0.01303
C 30.80983 14.85154 -0.02155
C 30.76336 13.48682 -0.00944
C 29.5508 12.73195 -0.03735
C 29.44302 11.34318 -0.00971
C 30.62435 10.63953 0.01518
C 30.74814 9.26883 0.01908
C 29.46944 8.56908 0.07705
C 29.49206 7.1181 0.0103
C 29.69486 15.60396 -0.01461
C 31.92241 12.82234 -0.01839
C 31.96325 11.3576 0.00137
C 33.17703 10.75069 0.00199
C 1.04711 19.12222 -0.01678
C 1.1107 17.73707 0.01223
C 34.32415 17.13553 0.00648
C 34.35888 15.77817 0.02114
C 1.17005 14.97621 -0.02957
C 1.28563 13.59499 0.00343
C 0.04173 12.84522 -0.02656
C 0.04888 11.46641 -0.02442
C 33.91874 19.58265 0.01951
C 1.18346 10.71696 -0.00027
C 0.03903 8.6407 -0.02302
C 34.41237 7.23369 -0.02849
C 1.20793 6.48853 0.02931
C 1.18472 5.04672 0.00628
C 34.38211 4.2812 -0.0345
C 34.40999 2.90154 -0.00931
C 1.14456 2.09374 -0.00939
C 1.18313 0.65119 -0.00468
C 1.21755 9.27746 -0.00583
C 33.85056 21.08562 -0.02213
C 0.90106 21.9136 0.02712
C 1.10108 23.41053 0.00723
C 33.21971 9.30824 0.04381
C 31.92601 8.47489 0.02806
C 31.98458 7.05453 0.01504
C 33.26865 6.42689 -0.00069
C 33.21382 5.04867 0.04926
C 31.96397 4.2458 -0.03838
C 31.99312 2.89321 0.00349
C 33.14737 2.1361 -0.00323
C 33.18576 0.72206 -0.00841
C 31.87422 0.06373 0.0001
C 0.01038 32.64653 -0.02927
C 1.21293 31.80578 -0.01404
C 1.22958 30.44476 0.01027
C 34.40333 29.78358 0.01831
C 0.07559 28.50035 -0.01037
C 1.52426 28.04179 -0.00439
C 1.77515 26.61983 -0.00598
C 0.27703 25.8004 -0.05239
C 0.01789 24.20272 0.03076
C 29.41278 29.8474 -0.01854
C 20.97686 9.25405 0.01277
C 30.63402 30.58216 -0.02049
C 29.47178 32.80115 0.00261
C 22.02572 4.27038 -0.01107
C 22.12345 2.84887 -0.01586
C 23.32183 2.13723 -0.01971
C 23.25566 0.70657 -0.02118
C 22.0401 0.01005 0.00733
C 24.57134 32.62445 -0.00178
C 25.77886 31.89227 0.00768
C 25.7789 30.53519 -0.0276
C 23.2887 4.95274 0.00071
C 24.57115 29.83494 0.03005
C 25.72772 27.64636 0.02117
C 25.67414 26.24321 0.02737
C 24.46902 25.55226 -0.00498
C 24.55186 24.14227 0.00135
C 25.69576 23.32552 0.03102
C 25.95074 22.01821 0.02555
C 25.81514 14.89049 0.01423
C 25.82446 13.46646 -0.00285
C 24.52181 28.38481 -0.04078
C 24.62666 12.80013 -0.009
C 23.31964 6.31771 -0.00225
C 22.12449 8.43759 -0.0055
C 19.63858 7.11542 -0.01527
C 20.8324 6.3173 0.01087
C 20.83251 4.92483 0.00199
C 19.57362 4.31311 0.01511
C 19.69594 2.88543 -0.00478
C 20.88175 2.17223 -0.01662
C 20.85439 0.74338 -0.01185
C 19.63342 0.0371 0.01126
C 22.12666 6.98147 0.01515
C 22.04228 32.67841 0.01852
C 23.36621 30.59748 0.03046
C 22.06211 29.94182 0.0296
C 21.99449 28.45131 0.03374
C 23.20174 27.75458 -0.02845
C 23.24091 26.27333 -0.03213
C 21.95347 25.6951 0.02239
C 23.38297 10.47809 0.01153
C 23.38135 9.03975 0.02734
C 23.35173 31.97159 -0.00381
C 24.28517 11.41492 -0.01199
C 25.73192 10.6423 -0.00229
C 25.84198 9.21489 -0.00938
C 28.7727 17.59683 0.04185
C 27.61034 16.86985 0.00194
C 27.05358 15.49755 -0.00621
C 28.47144 14.93646 0.02611
C 28.36974 13.44104 0.02198
C 27.04815 12.77076 0.01094
C 27.02596 11.35516 0.00235
C 28.23493 10.60072 0.01495
C 27.99875 18.77481 0.02316
C 28.24438 9.2417 0.01259
C 27.03653 7.09462 0.01699
C 28.31253 6.42868 -0.00416
C 28.24751 4.96558 0.01177
C 27.05906 4.23046 0.04266
C 27.03137 2.81406 0.01324
C 28.24912 2.12879 0.0014
C 28.25157 0.71547 0.00924
C 27.00963 34.0773 0.02326
C 27.01756 8.48603 0.01799
C 27.52605 20.05569 0.01257
C 27.02112 21.27963 0.00152
C 28.54987 22.06034 -0.00294
C 24.63681 8.41493 -0.0264
C 24.58178 7.06601 -0.01154
C 25.74951 6.40751 0.00684
C 25.81203 4.92387 -0.01052
C 24.61373 4.23922 -0.01679
C 24.55796 2.84059 0.00367
C 25.77748 2.09655 0.04306
C 25.77758 0.73863 0.00996
C 24.55607 0.00922 0.00195
C 27.07307 32.7275 -0.00802
C 28.24118 32.04815 -0.00218
C 28.25356 30.57531 -0.01654
C 26.94381 29.78026 -0.00037
C 27.00332 28.43171 -0.0032
C 28.16494 27.73303 0.00622
C 28.27757 26.26939 -0.02815
C 26.99063 25.52654 -0.00942
C 27.05736 24.11661 0.00487
C 28.31267 23.46953 0.00826
C 30.61656 32.01594 0.03265
C 2.42748 32.43471 -0.00725
