432
Graphene
C 0.04056 34.02226 0.01295
C 13.54966 9.2371 0.01364
C 12.2835 8.58023 -0.01062
C 12.29004 7.08811 -0.00033
C 13.52066 6.36247 0.03589
C 13.52099 4.9386 -0.02759
C 12.29929 4.22158 0.0402
C 12.33274 2.75856 0.00572
C 13.5338 2.12553 0.03592
C 13.53153 0.68384 0.00406
C 12.31033 0.00292 0.00943
C 14.82053 32.67187 0.02841
C 16.06828 31.96611 -0.01111
C 16.03204 30.56466 -0.01275
C 14.80888 29.76851 0.00985
C 14.74856 28.35018 -0.02245
C 16.03786 27.64683 -0.00428
C 15.91844 26.23185 0.03101
C 14.67514 25.53435 -0.01536
C 14.76491 24.10802 -0.02689
C 15.92064 23.40328 -0.01046
C 16.01785 22.02971 -0.00891
C 14.75502 21.24363 0.02819
C 14.735 19.87828 0.00165
C 13.54018 10.69323 -0.00719
C 16.02048 19.19412 -0.02971
C 12.28709 11.36171 0.01641
C 13.44331 13.56299 -0.00334
C 9.84589 4.33086 0.0288
C 9.80853 2.94266 0.00393
C 11.08573 2.19687 0.00895
C 10.99709 0.74029 0.00685
C 9.77644 0.01631 0.02888
C 12.32033 32.65183 -0.00482
C 13.58062 31.99587 -0.01384
C 13.59877 30.54812 0.03693
C 12.33902 29.89605 0.01745
C 12.33779 28.48011 0.00488
C 13.53316 27.63688 -0.01004
C 13.47714 26.25259 -0.02896
C 12.24587 25.62487 -0.00131
C 12.25003 24.13964 -0.01118
C 13.38494 23.45664 -0.014
C 13.45143 22.01658 0.02147
C 12.23546 21.35729 0.00373
C 12.26259 19.94475 -0.00191
C 13.53059 19.14998 0.00438
C 13.42253 17.78488 0.01291
C 12.20219 17.1116 0.00093
C 12.23865 15.74883 0.00057
C 13.46605 15.01554 -0.01634
C 12.15649 12.83385 0.02339
C 11.05151 4.98122 -0.0008
C 15.9798 17.74917 0.02894
C 14.7495 15.67071 0.00444
C 17.16156 19.88339 -0.02696
C 18.36633 19.18241 -0.00114
C 18.39056 17.67925 0.00228
C 17.1834 17.00582 0.00798
C 17.14328 15.65102 0.00422
C 18.39918 14.85148 0.0351
C 18.41914 13.48237 -0.03113
C 17.20796 12.77905 0.02098
C 17.15477 11.34287 0.01848
C 18.4028 10.6033 -0.00619
C 18.39558 9.2097 -0.02162
C 17.15444 8.50761 0.00889
C 17.20819 7.10967 -0.00481
C 18.44759 6.42465 0.00979
C 18.43026 5.05014 0.01443
C 17.16886 4.3345 0.03505
C 17.17408 2.88508 -0.02815
C 18.40613 2.16417 -0.04147
C 18.39655 0.73501 -0.05302
C 17.1986 34.07758 0.00213
C 19.65971 32.61505 -0.00066
C 20.86746 31.94853 -0.00289
C 20.94093 30.49074 0.00028
C 17.20186 21.28309 -0.00368
C 14.74179 17.09021 -0.01789
C 18.42868 22.03318 -0.0108
C 17.12986 24.10603 0.02058
C 15.96178 14.90645 -0.00925
C 15.96464 13.52192 0.01877
C 14.7289 12.81165 0.01363
C 14.77571 11.34533 -0.02162
C 15.93654 10.64295 0.00415
C 15.97755 9.21829 -0.0014
C 14.70457 8.57543 0.02162
C 14.73536 7.11608 0.0076
C 15.93789 6.3913 0.01241
C 15.95621 4.92447 -0.01454
C 14.68873 4.1977 0.01945
C 14.72477 2.80745 0.01416
C 15.95632 2.13054 0.03542
C 16.00117 0.71392 0.02299
C 14.79626 34.03216 0.00244
C 17.28239 32.6847 -0.01717
C 18.46647 31.93486 0.05265
C 18.51009 30.52762 -0.01952
C 17.28952 29.76786 -0.02813
C 17.30046 28.37149 0.00374
C 18.4554 27.59658 0.00052
C 18.42392 26.19728 -0.03682
C 17.13068 25.5701 0.01965
C 18.36739 23.42994 -0.01957
C 19.72223 29.71746 -0.02213
C 11.07838 6.38127 -0.01362
C 9.87888 8.61439 -0.04848
C 6.14328 30.56017 -0.02805
C 4.87745 29.86947 0.00081
C 4.85135 28.44177 0.00245
C 6.0531 27.75873 0.02728
C 6.1321 26.34339 -0.00039
C 4.89807 25.63176 0.0064
C 4.87788 24.10518 0.00211
C 6.13091 23.4537 -0.00449
C 6.21226 21.99358 -0.01979
C 5.02239 21.27954 0.02784
C 4.98676 19.74432 -0.01977
C 6.27645 19.09566 -0.00561
C 4.88433 11.38921 0.00208
C 6.05328 10.72124 0.01707
C 6.09829 9.31423 0.02769
C 4.88664 8.51309 -0.03291
C 4.9021 7.09793 -0.04999
C 6.10833 6.46499 0.04505
C 6.19601 5.08395 0.03284
C 4.84251 4.33255 -0.04307
C 4.88045 2.91116 0.03189
C 6.11924 2.13621 0.00031
C 6.18951 0.75158 -0.003
C 6.14591 31.99422 -0.01386
C 4.92346 0.05969 0.01402
C 4.91373 32.79333 -0.0059
C 3.68691 0.76047 -0.02375
C 3.72455 30.52117 -0.04306
C 2.46121 29.78765 -0.03672
C 2.43022 28.36005 0.01913
C 3.6532 27.66586 0.00267
C 3.69874 26.28096 0.00787
C 2.42991 25.52382 0.02426
C 2.48575 24.13668 0.01218
C 3.69528 23.41734 -0.01471
C 3.72829 21.98204 -0.02827
C 2.52672 21.32754 0.01078
C 2.4588 19.93561 -0.00112
C 3.69333 19.27796 0.03345
C 2.33674 12.52586 0.00748
C 2.34414 11.18796 0.00662
C 3.6507 10.61692 -0.0154
C 3.64831 9.18455 -0.01299
C 2.45082 8.52033 -0.00407
C 2.41913 7.13817 0.01138
C 3.62215 6.46788 0.03278
C 3.6826 5.01471 -0.00177
C 2.47844 4.26474 0.04421
C 2.42316 2.79987 0.00088
C 3.67026 2.1201 0.00828
C 2.47888 34.03015 0.00558
C 9.91918 7.12968 -0.00892
C 7.40133 32.75962 0.02379
C 8.55518 30.66232 0.00643
C 9.81974 32.71683 0.01305
C 11.07986 31.98779 -0.00077
C 11.02882 30.58092 0.03368
C 9.76388 29.87216 -0.02929
C 9.80464 28.50424 -0.00966
C 11.04042 27.74756 -0.03337
C 10.97258 26.31974 0.01227
C 9.77324 25.66679 0.00873
C 9.83353 24.21816 -0.00049
C 11.05797 23.46704 0.00848
C 11.02944 22.0763 -0.01303
C 9.85829 21.36481 -0.01378
C 9.8384 19.90865 0.02635
C 11.02736 19.19801 0.0127
C 10.9651 17.769 0.01396
C 9.73461 17.14093 0.01849
C 9.81165 15.71406 -0.01142
C 11.00809 15.02692 -0.00562
C 10.92668 13.57966 -0.00494
C 9.71572 12.90125 0.00054
C 9.74893 11.45442 0.03007
C 11.03885 10.72923 -0.00095
C 11.11386 9.31193 0.01572
C 7.37565 0.11095 0.0276
C 8.58605 32.07393 0.00907
C 8.58858 0.77221 0.00988
C 7.32954 2.91559 0.01087
C 7.30095 29.90545 -0.01509
C 7.29595 28.47405 0.03267
C 8.52782 27.77884 0.02374
C 8.56257 26.38413 0.00402
C 7.33053 25.56464 0.0073
C 7.32794 24.16789 0.0174
C 8.63468 23.49297 0.03828
C 8.64179 22.08319 0.01226
C 7.41933 21.36642 -0.00279
C 7.4597 19.94838 0.01996
C 8.61391 19.22129 -0.03996
C 8.51424 17.81114 0.01465
C 8.5508 14.99771 -0.00074
C 8.27996 13.62988 -0.00518
C 7.28637 12.73402 0.0086
C 7.29719 11.3658 -0.00643
C 8.55684 10.74872 0.017
C 8.62619 9.25222 -0.03113
C 7.32354 8.54191 -0.02566
C 7.36998 7.12649 -0.00094
C 8.66719 6.42593 0.02322
C 8.61501 5.00748 -0.00725
C 7.34993 4.3024 -0.05697
C 8.57755 2.22319 -0.01343
C 19.7045 28.38482 0.03698
C 20.92008 27.67676 -0.00109
C 20.87856 26.34697 -0.00491
C 30.6598 13.42594 -0.01303
C 29.44471 12.7815 -0.01461
C 29.47886 11.33657 -0.02155
C 30.68047 10.59206 -0.00944
C 30.69097 9.18337 -0.03735
C 29.39101 8.47656 -0.00971
C 29.46801 7.02163 0.01518
C 30.74323 6.25542 0.01908
C 30.7345 4.85793 0.07705
C 29.47796 4.23248 0.0103
C 29.46718 2.80642 0.02108
C 30.78423 2.04712 0.00716
C 30.74093 0.62764 0.00307
C 29.51231 34.07454 0.00346
C 32.06786 32.57403 0.01713
C 33.26486 31.89558 -0.01694
C 33.24698 30.47981 0.01428
C 31.95979 29.8108 -0.02142
C 31.97786 28.39212 0.0544
C 33.15452 27.68188 0.00026
C 33.13061 26.21611 0.00682
C 31.89126 25.57749 -0.01779
C 31.8984 24.12631 0.03794
C 30.74739 14.84979 -0.0405
C 33.16776 23.44526 0.01927
C 29.48944 15.61716 0.01705
C 29.45073 21.1593 -0.00669
C 26.94552 11.3938 0.02611
C 28.18776 10.74433 0.02198
C 28.22972 9.27556 0.01094
C 27.05612 8.57134 0.00235
C 27.01588 7.05777 0.01495
C 28.26822 6.37016 0.01259
C 28.25318 4.9104 0.01799
C 27.0732 4.19751 0.01699
C 27.03389 2.79538 -0.00416
C 28.24134 2.10302 0.01177
C 28.24121 0.67994 0.04266
C 27.00355 0.04305 0.01324
C 29.5191 32.6568 0.0014
C 30.80923 32.00396 0.00924
C 30.75244 30.50763 0.02326
C 29.47186 29.87794 0.00261
C 29.47263 28.41749 0.03265
C 30.72031 27.7232 -0.02049
C 30.71653 26.37897 -0.01854
C 29.50011 25.60067 -0.01415
C 29.46385 24.14573 -0.03039
C 30.66026 23.36373 0.01836
C 30.62546 21.96519 0.03531
C 29.81794 17.06936 0.0101
C 27.03525 12.80256 -0.00621
C 33.19137 22.01261 0.01574
C 32.04249 20.01122 -0.01429
C 34.4242 24.1389 0.03076
C 1.24632 23.40481 0.00723
C 1.24758 22.03612 0.02712
C 0.01303 21.29971 -0.02213
C 0.03225 19.91091 0.01951
C 1.22408 19.18152 -0.01678
C 1.09852 17.70538 0.01223
C 34.27303 16.995 0.00648
C 34.32433 15.64049 0.02114
C 1.08851 14.86001 -0.02957
C 1.21396 13.51466 0.00343
C 34.42763 12.70881 -0.02656
C 34.36518 11.31616 -0.02442
C 1.09871 10.54561 -0.00027
C 1.10949 9.07189 -0.00583
C 34.34907 8.41453 -0.02302
C 34.36015 7.01693 -0.02849
C 1.16728 6.32399 0.02931
C 1.21944 4.94315 0.00628
C 34.42195 4.19375 -0.0345
C 34.42366 2.8134 -0.00931
C 1.23375 2.11913 -0.00939
C 1.25256 0.65455 -0.00468
C 34.43121 25.54072 -0.05239
C 31.9353 21.33643 -0.02383
C 1.20104 26.253 -0.00598
C 34.41824 28.38101 -0.01037
C 33.24625 19.1388 -0.0136
C 32.93631 17.7695 0.00594
C 31.64399 17.1039 -0.02474
C 31.82253 15.61736 0.00369
C 33.11563 14.94745 0.00455
C 33.19643 13.54077 -0.00644
C 31.92959 12.76417 -0.01839
C 31.96545 11.27083 0.00137
C 33.10473 10.60242 0.00199
C 33.10633 9.11419 0.04381
C 31.92202 8.40693 0.02806
C 31.94508 6.98919 0.01504
C 33.16866 6.26807 -0.00069
C 33.15517 4.88209 0.04926
C 31.96021 4.16325 -0.03838
C 32.00106 2.80563 0.00349
C 33.23997 2.03422 -0.00323
C 33.22388 0.59926 -0.00841
C 32.01634 34.02367 0.0001
C 0.01538 32.57526 -0.02927
C 1.26899 31.9583 -0.01404
C 1.23847 30.52425 0.01027
C 0.00766 29.8055 0.01831
C 1.25155 27.66453 -0.00439
C 28.26709 13.48392 0.00194
C 28.24085 14.91989 0.04185
C 26.98221 15.63316 0.02316
C 23.35571 30.51408 0.0058
C 22.14685 29.75792 -0.00865
C 22.19021 28.38465 0.00675
C 23.40515 27.66194 -0.00311
C 23.39661 26.21548 0.00742
C 22.10609 25.54311 -0.01594
C 22.10846 24.16507 0.0106
C 23.36455 23.42862 -0.01154
C 23.36133 21.97593 -0.01721
C 22.06813 21.30218 -0.02422
C 22.13228 19.89483 0.01277
C 23.34909 19.23148 0.00096
C 23.28063 17.79268 -0.01527
C 22.08627 17.07238 0.01087
C 22.01479 15.67718 0.00199
C 23.27716 14.92013 0.01511
C 23.29513 13.53352 -0.00478
C 22.05345 12.7916 -0.01662
C 22.17569 11.37937 -0.01185
C 23.37603 10.67315 0.01126
C 23.41231 9.24591 0.01852
C 22.11543 8.43513 -0.00381
C 22.14971 7.06218 0.03046
C 23.3311 31.93445 -0.00652
C 23.32274 6.36266 0.0296
C 22.10309 32.64316 -0.04076
C 20.84101 0.76371 0.00654
C 19.63039 25.57477 0.03338
C 19.62538 24.11858 -0.0258
C 20.84945 23.4751 -0.0331
C 20.88962 22.0955 -0.00316
C 19.60117 21.31807 0.02188
C 19.6316 19.87105 -0.01979
C 20.86433 19.24077 0.02691
C 20.84464 17.7594 -0.01581
C 19.63689 17.03705 0.01452
C 19.62348 15.55568 0.04892
C 20.87275 14.87133 -0.00111
C 20.83564 13.49891 -0.03557
C 19.70277 12.73413 0.03754
C 19.6519 11.34056 0.01739
C 20.88505 10.6236 0.00755
C 20.93888 9.19924 -0.0054
C 19.71001 8.50421 0.00667
C 19.70163 7.06539 0.00143
C 20.86658 6.39879 -0.017
C 20.84745 5.05208 0.00364
C 19.62863 4.30995 -0.00831
C 19.61041 2.85784 -0.02957
C 20.89882 2.17643 -0.04422
C 19.68662 34.05081 -0.00703
C 23.35661 4.92108 0.03374
C 22.06366 4.27225 -0.02845
C 22.11267 2.80355 -0.03213
C 25.83449 6.33553 -0.00938
C 25.81474 4.85818 -0.0264
C 24.54126 4.20007 -0.01154
C 24.50807 2.78493 0.00684
C 25.77478 2.09497 -0.01052
C 25.75928 0.71392 -0.01679
C 24.49122 0.00106 0.00367
C 27.01706 32.66815 0.04306
C 28.26019 32.00257 0.00996
C 28.28654 30.55953 0.00195
C 27.04475 29.8698 -0.00802
C 27.11617 28.48849 -0.00218
C 28.25322 27.72179 -0.01654
C 28.27281 26.27836 -0.00037
C 27.09119 25.61363 -0.0032
C 27.00317 24.19709 0.00622
C 28.27431 23.42302 -0.02815
C 28.22679 21.99446 -0.00942
C 27.00853 21.3037 0.00487
C 27.08386 19.90451 0.00826
C 28.38352 19.3207 -0.00294
C 28.54974 17.86026 0.00152
C 27.20761 17.13322 0.01257
C 24.65982 7.12317 -0.00229
C 24.63242 8.52741 -0.01199
C 25.81288 9.30269 -0.009
C 25.76946 10.66633 -0.00285
C 23.29389 2.13181 0.02239
C 23.32111 0.68895 0.01153
C 22.03412 34.01843 0.02734
C 24.52143 32.62866 -0.0055
C 25.77327 31.93103 0.01515
C 25.88887 30.58614 -0.00225
C 24.61707 29.85589 0.00071
C 24.65438 28.41719 -0.01107
C 25.87987 27.71629 -0.01586
C 25.85573 26.27027 -0.01971
C 24.62968 25.56845 -0.02118
C 3.68563 31.97031 -0.00012
C 24.58362 24.14608 0.00733
C 25.79106 22.05079 0.00768
C 24.6303 21.32206 -0.0276
C 24.64502 19.90958 0.03005
C 25.83567 19.18821 -0.04078
C 25.85148 17.76936 0.02117
C 24.58737 17.11629 0.02737
C 24.57223 15.66723 -0.00498
C 25.77599 14.95646 0.00135
C 25.82079 13.45036 0.03102
C 24.51581 12.79229 0.02555
C 24.5984 11.4288 0.01423
C 25.82243 23.46524 -0.00178
C 2.47057 32.69911 -0.00198
