440
Graphene
C 0.01462 0.01668 0.01295
C 12.33128 19.88434 -0.01634
C 13.52381 19.21862 -0.00334
C 13.53683 17.78959 0.02339
C 12.32417 17.04613 0.01641
C 12.353 15.65811 -0.00719
C 13.53191 14.94151 0.01364
C 13.51723 13.51294 -0.01062
C 12.26673 12.77828 -0.00033
C 12.26712 11.29946 0.03589
C 13.51976 10.62448 -0.02759
C 13.56143 9.25791 0.0402
C 12.30539 8.49616 0.00572
C 12.29101 7.11778 0.03592
C 13.54197 6.38648 0.00406
C 13.49948 5.0023 0.00943
C 12.29206 4.26096 0.02841
C 12.28738 2.79239 -0.01111
C 13.49931 2.15166 -0.01275
C 13.56586 0.67666 0.00985
C 12.2656 34.07914 -0.02245
C 14.7255 32.69873 -0.00428
C 15.98532 31.92644 0.03101
C 15.95441 30.53761 -0.01536
C 12.2606 21.32616 0.00057
C 13.56094 22.03356 0.00093
C 13.52332 23.4523 0.01291
C 12.34229 24.14839 0.00438
C 9.85286 15.60784 -0.00095
C 11.03524 14.93112 0.01572
C 11.04225 13.47783 -0.04848
C 9.86302 12.78097 -0.00892
C 9.81997 11.40748 -0.01362
C 11.03973 10.68573 -0.0008
C 11.06968 9.26841 0.0288
C 9.86065 8.50885 0.00393
C 9.85453 7.10426 0.00895
C 11.0806 6.42483 0.00685
C 11.11619 4.94495 0.02888
C 14.73498 29.7856 -0.02689
C 9.82931 4.28289 -0.00482
C 11.0875 2.10126 0.03693
C 11.02066 0.67992 0.01745
C 9.83055 0.00151 0.00488
C 12.30329 32.67333 -0.01004
C 13.51463 31.99758 -0.02896
C 13.54666 30.5659 -0.00131
C 12.29775 29.84885 -0.01118
C 12.2729 28.41764 -0.014
C 13.51042 27.6609 0.02147
C 13.53324 26.26366 0.00373
C 12.30686 25.61778 -0.00191
C 9.82259 2.79984 -0.01384
C 9.82064 17.02772 0.03007
C 14.7736 28.43861 -0.01046
C 16.01672 26.24643 0.02819
C 17.25282 29.83024 0.02058
C 17.2092 28.3821 -0.01957
C 18.45528 27.69561 -0.0108
C 18.46486 26.26828 -0.00368
C 17.24425 25.50489 -0.02696
C 17.18888 24.13311 -0.00114
C 18.43586 23.43931 0.00228
C 18.45357 21.97656 0.00798
C 17.19226 21.31081 0.00422
C 17.2151 19.88029 0.0351
C 18.4109 19.14218 -0.03113
C 18.42312 17.74372 0.02098
C 17.18616 17.04533 0.01848
C 17.21739 15.6499 -0.00619
C 18.42898 14.93862 -0.02162
C 18.45751 13.48326 0.00889
C 17.20276 12.79064 -0.00481
C 17.20343 11.36438 0.00979
C 18.46162 10.69035 0.01443
C 18.45622 9.22347 0.03505
C 17.20972 8.52109 -0.02815
C 17.23976 7.0985 -0.04147
C 18.42758 6.39892 -0.05302
C 18.45076 30.53223 0.01965
C 18.49501 31.9798 -0.03682
C 17.17935 32.65025 0.00052
C 14.74675 34.07371 0.00374
C 14.73957 25.58688 0.00165
C 14.75656 24.15229 -0.02971
C 15.94964 23.42563 0.02894
C 15.97515 22.04395 -0.01789
C 14.77349 21.28519 0.00444
C 14.73578 19.87554 -0.00925
C 15.983 19.13595 0.01877
C 15.982 17.73669 0.01363
C 14.76762 17.00673 -0.02162
C 14.70583 15.61555 0.00415
C 16.01364 14.90923 -0.0014
C 16.05545 27.6912 -0.00891
C 15.97797 13.53211 0.02162
C 14.76577 11.33273 0.01241
C 15.98094 10.62841 -0.01454
C 15.96711 9.24487 0.01945
C 14.75056 8.57741 0.01416
C 14.75401 7.06595 0.03542
C 16.01939 6.39875 0.02299
C 15.97957 4.97526 0.00244
C 14.74623 4.26189 -0.01717
C 14.77172 2.82955 0.05265
C 15.96912 2.13543 -0.01952
C 15.98492 0.66994 -0.02813
C 14.76525 12.77679 0.0076
C 18.44622 4.96856 0.00213
C 11.08664 17.74847 0.00054
C 9.7939 19.9013 -0.00562
C 3.69739 0.73798 0.04421
C 2.45443 34.06153 0.00088
C 4.90659 32.66869 0.00828
C 6.11219 32.00527 -0.02375
C 6.19235 30.48913 0.00558
C 4.941 29.84684 -0.0059
C 4.93436 28.37223 -0.01386
C 6.18282 27.6644 -0.02805
C 6.16447 26.26337 0.00081
C 4.88861 25.542 0.00245
C 4.91179 24.19737 0.02728
C 6.11973 23.44055 -0.00039
C 6.14581 21.98749 0.0064
C 4.91699 21.29238 0.00211
C 4.96563 19.85448 -0.00449
C 6.14688 19.12078 -0.01979
C 6.15575 17.73808 0.02784
C 4.83784 17.01183 -0.01977
C 4.90604 15.64832 -0.00561
C 6.13896 14.94122 0.00208
C 6.14815 13.51028 0.01707
C 4.95562 12.84457 0.02769
C 4.95779 11.29261 -0.03291
C 3.70504 2.11354 -0.00177
C 2.51975 2.8516 0.03278
C 2.48854 4.26872 0.01138
C 3.70854 4.96467 -0.00407
C 3.68125 30.52288 0.01116
C 2.46921 29.81647 -0.0005
C 2.46624 28.40154 -0.00018
C 3.691 27.65756 0.01073
C 3.69527 26.27295 0.01984
C 2.48068 25.58885 0.00535
C 2.45147 24.14569 -0.00198
C 3.72658 23.46562 -0.00012
C 3.72958 21.98922 -0.04306
C 2.45881 21.30473 -0.03672
C 2.43484 19.83264 0.01913
C 6.15882 10.62885 -0.04999
C 3.66932 19.17758 0.00267
C 2.40891 17.0035 0.02426
C 2.48106 15.63281 0.01218
C 3.67877 14.90941 -0.01471
C 3.66338 13.50843 -0.02827
C 2.48592 12.74696 0.01078
C 2.45736 11.36467 -0.00112
C 3.70597 10.64009 0.03345
C 3.71887 9.20648 0.00748
C 2.45527 8.48482 0.00662
C 2.44115 7.09654 -0.0154
C 3.69703 6.39176 -0.01299
C 3.68372 17.7895 0.00787
C 11.05017 19.15908 -0.00494
C 6.18749 9.20987 0.04505
C 4.90816 7.10815 -0.04307
C 8.62223 10.63819 -0.00725
C 8.62344 9.26751 -0.05697
C 7.35596 8.58331 0.01087
C 7.36767 7.1134 -0.01343
C 8.60609 6.40745 0.00988
C 8.54456 4.99616 0.0276
C 7.37859 4.29702 0.01305
C 7.37926 2.85422 -0.00077
C 8.61918 2.13529 0.03368
C 8.61802 0.71368 -0.02929
C 7.36891 0.03949 -0.00966
C 9.8283 32.66085 -0.03337
C 11.03249 31.95198 0.01227
C 11.08119 30.58055 0.00873
C 9.84777 29.79563 -0.00049
C 9.84311 28.38441 0.00848
C 11.06701 27.72507 -0.01303
C 11.0558 26.31802 -0.01378
C 9.88373 25.5875 0.02635
C 9.85637 24.12789 0.0127
C 11.06761 23.43261 0.01396
C 11.04965 22.03058 0.01849
C 9.87417 21.31087 -0.01142
C 7.34809 11.35979 0.02322
C 7.32305 12.78367 -0.00094
C 8.58887 13.49303 -0.02566
C 8.609 14.86863 -0.03113
C 6.13511 6.39435 0.03189
C 6.1197 4.96666 0.00031
C 4.92055 4.30559 -0.003
C 4.8975 2.83412 0.01402
C 6.13849 2.14963 0.02379
C 6.1513 0.75515 0.00907
C 4.93945 0.00822 0.00643
C 7.36981 32.69595 -0.01509
C 8.60775 31.92506 0.03267
C 8.62314 30.5503 0.02374
C 7.413 29.81879 0.00402
C 4.87743 8.52695 0.03284
C 7.41344 28.40232 0.0073
C 8.59999 26.23471 0.03828
C 7.42581 25.52836 0.01226
C 7.32226 24.1864 -0.00279
C 8.61706 23.45265 0.01996
C 8.6185 22.01594 -0.03996
C 7.38021 21.29647 0.01465
C 7.37182 19.86884 -0.00074
C 8.61244 19.19121 -0.00518
C 8.67021 17.78201 0.0086
C 7.37557 16.99573 -0.00643
C 7.3912 15.62441 0.017
C 8.61322 27.70067 0.0174
C 17.20218 4.27043 -0.00066
C 17.22026 2.8144 -0.00289
C 18.46378 2.14268 0.00028
C 29.57857 17.02411 -0.0405
C 29.49471 15.59751 -0.01303
C 30.71388 14.93459 -0.01461
C 30.7443 13.47733 -0.02155
C 29.50359 12.7751 -0.00944
C 29.50617 11.40114 -0.03735
C 30.73595 10.61478 -0.00971
C 30.77328 9.21833 0.01518
C 29.52411 8.56122 0.01908
C 29.55484 7.10155 0.07705
C 30.71756 6.33634 0.0103
C 30.75879 4.98976 0.02108
C 29.53824 4.22718 0.00716
C 29.50155 2.81694 0.00307
C 30.75479 2.09786 0.00346
C 30.7173 0.70834 0.01713
C 29.51019 0.00227 -0.01694
C 31.99356 32.69246 0.01428
C 33.20631 31.9366 -0.02142
C 33.24994 30.55577 0.0544
C 31.95801 29.8484 0.00026
C 31.96179 28.4028 0.00682
C 33.19521 27.67151 -0.01779
C 30.77394 17.76544 0.01705
C 30.751 19.16606 0.0101
C 29.50928 19.83213 -0.00669
C 29.50411 21.31302 0.03531
C 27.06209 17.04605 0.00194
C 27.07395 15.66702 -0.00621
C 28.27275 14.87975 0.02611
C 28.26181 13.47402 0.02198
C 27.07032 12.76748 0.01094
C 27.10052 11.35975 0.00235
C 28.23611 10.62304 0.01495
C 28.25969 9.25047 0.01259
C 27.05434 8.48589 0.01799
C 27.03156 7.08899 0.01699
C 28.2829 6.34908 -0.00416
C 33.21245 26.32275 0.03794
C 28.25714 4.98928 0.01177
C 27.05082 2.83963 0.01324
C 28.28774 2.11031 0.0014
C 28.25964 0.67548 0.00924
C 27.04502 34.06413 0.02326
C 29.49332 32.66342 0.00261
C 30.76067 31.90043 0.03265
C 30.74793 30.46974 -0.02049
C 29.4984 29.85704 -0.01854
C 29.51083 28.43041 -0.01415
C 30.77511 27.74847 -0.03039
C 30.74003 21.99158 0.01836
C 27.06202 4.236 0.04266
C 28.29737 17.75729 0.04185
C 33.23654 23.41286 0.01927
C 32.01202 21.31122 -0.02383
C 34.40558 24.1318 0.03076
C 1.217 23.44297 0.00723
C 1.19934 22.0343 0.02712
C 34.41718 21.33906 -0.02213
C 34.43277 19.85638 0.01951
C 1.24478 19.16885 -0.01678
C 1.18958 17.73228 0.01223
C 0.00155 17.02349 0.00648
C 0.01153 15.61243 0.02114
C 1.19014 14.8731 -0.02957
C 1.21548 13.49865 0.00343
C 0.01419 12.75052 -0.02656
C 34.40647 11.34439 -0.02442
C 1.20091 10.69408 -0.00027
C 1.25187 9.19985 -0.00583
C 34.43068 8.5199 -0.02302
C 0.01358 7.11144 -0.02849
C 1.19882 6.35592 0.02931
C 1.23188 4.91756 0.00628
C 34.42804 4.21412 -0.0345
C 34.42347 2.82163 -0.00931
C 1.26531 2.14391 -0.00939
C 1.28188 0.69224 -0.00468
C 34.42212 25.61088 -0.05239
C 1.20179 26.27 -0.00598
C 1.19369 27.64828 -0.00439
C 0.00708 28.38618 -0.01037
C 31.95533 19.89325 -0.01429
C 33.22937 19.16811 -0.0136
C 33.1972 17.75536 0.00594
C 31.92661 17.05915 -0.02474
C 31.96011 15.56055 0.00369
C 33.22609 14.88098 0.00455
C 33.23115 13.46423 -0.00644
C 31.97791 12.76196 -0.01839
C 31.98464 11.30857 0.00137
C 33.20374 10.63365 0.00199
C 33.1709 9.244 0.04381
C 33.22806 21.96067 0.01574
C 31.96389 8.49007 0.02806
C 33.1871 6.41382 -0.00069
C 33.22997 4.94125 0.04926
C 32.02305 4.24237 -0.03838
C 31.96504 2.84819 0.00349
C 33.19313 2.10955 -0.00323
C 33.2076 0.69063 -0.00841
C 31.97625 34.07102 0.0001
C 0.01889 32.6633 -0.02927
C 1.21321 31.96001 -0.01404
C 1.23754 30.53333 0.01027
C 0.01307 29.80628 0.01831
C 31.98336 7.12503 0.01504
C 28.28484 19.17012 0.02316
C 27.0699 19.90747 0.01257
C 27.07745 21.2471 0.00152
C 20.88133 4.94582 -0.00703
C 19.70892 4.26346 -0.04076
C 19.7001 2.88915 -0.00652
C 20.89687 2.12224 0.0058
C 20.90179 0.71456 -0.00865
C 19.67718 0.0187 0.00675
C 22.12215 32.65071 -0.00311
C 23.3948 31.95719 0.00742
C 23.37692 30.52635 -0.01594
C 22.14682 29.77804 0.0106
C 22.14194 28.44828 -0.01154
C 23.37224 27.6908 -0.01721
C 23.36364 26.2544 -0.02422
C 22.09654 25.52269 0.01277
C 22.12017 24.12655 0.00096
C 23.33897 23.41955 -0.01527
C 23.45686 22.00765 0.01087
C 22.12757 21.30014 0.00199
C 22.12058 19.86227 0.01511
C 23.37628 19.16052 -0.00478
C 23.30097 17.75594 -0.01662
C 22.0863 17.03813 -0.01185
C 22.14324 15.59252 0.01126
C 20.88933 6.41886 0.00654
C 19.68969 7.09696 -0.04422
C 19.63147 8.51107 -0.02957
C 20.92215 9.24168 -0.00831
C 18.44554 0.71696 -0.02213
C 17.19219 34.07484 0.03698
C 19.65541 32.63151 -0.00109
C 20.89656 31.92568 -0.00491
C 20.88418 30.51189 0.03338
C 19.67977 29.82654 -0.0258
C 19.67419 28.33719 -0.0331
C 20.89105 27.71463 -0.00316
C 20.8999 26.26051 0.02188
C 19.70354 25.5533 -0.01979
C 19.73121 24.21463 0.02691
C 23.3569 14.8896 0.01852
C 20.88738 23.40054 -0.01581
C 19.67524 21.26626 0.04892
C 19.69646 19.90831 -0.00111
C 20.86835 19.16269 -0.03557
C 20.92749 17.74331 0.03754
C 19.71793 17.0439 0.01739
C 19.67847 15.62072 0.00755
C 20.91486 14.90818 -0.0054
C 20.88551 13.46637 0.00667
C 19.68512 12.78836 0.00143
C 19.68555 11.35792 -0.017
C 20.8995 10.67852 0.00364
C 20.89035 21.99888 0.01452
C 23.37078 13.4591 -0.00381
C 22.12182 12.75929 0.03046
C 22.15669 11.36 0.0296
C 25.83957 14.8956 -0.009
C 25.83993 13.49481 -0.01199
C 24.59601 12.82134 -0.00229
C 24.59855 11.38066 -0.00938
C 25.8196 10.64459 -0.0264
C 25.85902 9.2567 -0.01154
C 24.58826 8.55237 0.00684
C 24.59754 7.04738 -0.01052
C 25.85169 6.35194 -0.01679
C 25.8606 4.98496 0.00367
C 24.596 4.3048 0.04306
C 24.61265 15.60657 -0.00285
C 24.58637 2.8632 0.00996
C 25.83338 0.71277 -0.00802
C 24.60899 34.07344 -0.00218
C 27.02192 32.64369 -0.01654
C 28.3126 31.92964 -0.00037
C 28.30006 30.53158 -0.0032
C 27.01327 29.82941 0.00622
C 27.05701 28.36768 -0.02815
C 28.25844 27.6891 -0.00942
C 27.05701 25.53541 0.00487
C 27.00601 24.09669 0.00826
C 28.2497 22.02309 -0.00294
C 25.82435 2.1503 0.00195
C 3.69916 31.96101 -0.0213
C 24.58095 16.99525 0.01423
C 25.84743 19.1562 0.03102
C 23.35429 10.66491 0.03374
C 23.3602 9.2184 -0.02845
C 22.12981 8.53659 -0.03213
C 22.1489 7.13584 0.02239
C 23.39793 6.36726 0.01153
C 23.33227 4.93802 0.02734
C 22.12081 4.24892 -0.0055
C 22.13288 2.83316 0.01515
C 23.37125 2.15102 -0.00225
C 23.34142 0.73846 0.00071
C 22.13916 0.0032 -0.01107
C 25.79007 17.71475 0.02555
C 24.58151 32.6795 -0.01586
C 25.79408 30.5042 -0.02118
C 24.53811 29.82035 0.00733
C 24.56005 28.36747 -0.00178
C 25.78649 27.69236 0.00768
C 25.8454 26.33894 -0.0276
C 24.57631 25.56405 0.03005
C 24.57113 24.14307 -0.04078
C 25.79726 23.42449 0.02117
C 25.85541 21.98858 0.02737
C 24.62784 21.34363 -0.00498
C 24.58888 19.92348 0.00135
C 25.84973 31.96679 -0.01971
C 2.49446 32.64929 -0.00374
