326
Graphene
C 0.01298 0.01965 0.01295
C 16.04283 21.9688 0.00213
C 15.9535 6.434 -0.00066
C 15.9874 5.00289 -0.00289
C 14.8137 4.23993 0.00028
C 14.80827 2.86723 -0.02213
C 16.00084 2.14959 0.03698
C 15.94673 0.64173 -0.00109
C 15.95583 23.439 -0.05302
C 14.73097 33.98396 -0.00491
C 18.45446 31.93319 -0.0258
C 18.47398 30.53403 -0.0331
C 17.2092 29.8204 -0.00316
C 17.24044 28.39167 0.02188
C 18.50543 27.67021 -0.01979
C 18.43376 26.35016 0.02691
C 17.22897 25.54516 -0.01581
C 17.20014 32.60996 0.03338
C 17.18283 24.11738 0.01452
C 14.80734 24.11413 -0.04147
C 15.93945 26.23772 0.03505
C 13.51318 26.29625 -0.00368
C 12.31402 25.49937 -0.02696
C 13.51154 23.46221 -0.00114
C 13.47358 6.44189 0.00228
C 13.54469 4.99443 0.00798
C 12.27981 4.30026 0.00422
C 12.31697 2.82945 0.0351
C 14.76301 25.56078 -0.02815
C 13.50827 2.1172 -0.03113
C 12.30822 34.052 0.01848
C 14.78222 32.67955 -0.00619
C 15.9887 32.02255 -0.02162
C 15.95964 30.55097 0.00889
C 14.72571 29.87516 -0.00481
C 14.75092 28.35244 0.00979
C 16.01156 27.69922 0.01443
C 13.54094 0.71511 0.02098
C 18.50394 23.40361 0.04892
C 18.45549 21.97118 -0.00111
C 17.17647 21.3203 -0.03557
C 19.70387 19.83705 0.0106
C 20.85159 19.16877 -0.01154
C 20.91138 17.74705 -0.01721
C 20.94678 14.90074 -0.02422
C 20.90717 13.50043 0.01277
C 19.6605 11.33685 0.00096
C 20.86133 10.72324 -0.01527
C 19.69035 21.27075 -0.01594
C 20.90465 9.15779 0.01087
C 19.66104 7.06171 0.01511
C 20.9271 6.42069 -0.00478
C 20.88484 4.94755 -0.01662
C 19.65015 4.25971 -0.01185
C 19.69171 2.83333 0.01126
C 20.91104 2.09285 0.01852
C 20.94662 0.73068 -0.00381
C 19.68167 8.47798 0.00199
C 20.92842 22.00574 0.00742
C 20.90599 23.42643 -0.00311
C 19.71796 24.11175 0.00675
C 18.43971 9.23788 0.03754
C 17.2011 7.06127 0.01739
C 18.44284 6.35161 0.00755
C 18.47056 4.93837 -0.0054
C 17.19996 4.29288 0.00667
C 17.19881 2.82483 0.00143
C 18.42935 2.13531 -0.017
C 18.41303 0.77381 0.00364
C 17.22316 0.02832 -0.00831
C 19.66594 32.68117 -0.02957
C 20.92558 31.94302 -0.04422
C 20.91305 30.55233 0.00654
C 19.66883 29.80689 -0.00703
C 19.70333 28.41385 -0.04076
C 20.97122 27.71733 -0.00652
C 20.91062 26.27224 0.0058
C 19.67555 25.52601 -0.00865
C 13.50967 27.6774 -0.0108
C 12.27685 28.39641 -0.01957
C 12.33249 29.81471 0.02058
C 13.51256 30.53649 0.01965
C 2.41611 8.53731 0.01291
C 2.44723 7.11494 0.00093
C 3.69225 6.3796 0.00057
C 3.65576 4.99013 -0.01634
C 2.48066 4.28589 -0.00334
C 2.49834 2.84779 0.02339
C 3.6798 2.13606 0.01641
C 3.72474 9.19505 0.00438
C 3.69285 0.70616 -0.00719
C 4.94654 32.68058 -0.01062
C 6.11284 31.93898 -0.00033
C 6.15243 30.51652 0.03589
C 4.94854 29.82102 -0.02759
C 4.90151 28.44885 0.0402
C 6.15474 27.65574 0.00572
C 6.09697 26.30986 0.03592
C 2.44337 0.02328 0.01364
C 3.69512 10.71007 -0.00191
C 2.47392 11.3282 0.00373
C 2.44143 12.79514 0.02147
C 3.64496 30.5498 -0.01362
C 2.42428 29.8454 -0.0008
C 2.46577 28.4046 0.0288
C 3.697 27.75073 0.00393
C 3.70663 26.25109 0.00895
C 2.46855 25.59761 0.00685
C 2.47642 24.13751 0.02888
C 3.69621 23.44085 -0.00482
C 3.63354 22.03422 -0.01384
C 2.47454 21.31126 0.03693
C 2.44086 19.84735 0.01745
C 3.6602 19.16567 0.00488
C 3.61377 17.78706 -0.01004
C 2.47722 17.03587 -0.02896
C 2.50944 15.66112 -0.00131
C 3.68793 14.85092 -0.01118
C 3.71869 13.49982 -0.014
C 4.925 25.55846 0.00406
C 19.63643 34.05668 0.03046
C 4.88199 24.18946 0.00943
C 4.90485 19.90481 -0.01111
C 8.64098 0.70302 0.02162
C 7.37015 34.07562 0.0076
C 9.87127 32.65 0.01241
C 11.05391 31.8993 -0.01454
C 11.0928 30.52143 0.01945
C 9.7669 29.8206 0.01416
C 9.81244 28.44107 0.03542
C 8.59332 2.16461 -0.0014
C 11.10046 27.697 0.02299
C 9.87602 4.29151 -0.01717
C 9.85383 2.77079 0.05265
C 11.08336 2.11377 -0.01952
C 11.07615 0.72501 -0.02813
C 9.84428 0.01123 0.00374
C 12.27037 32.6449 0.00052
C 13.52435 31.93001 -0.03682
C 11.06611 4.94241 0.00244
C 7.37744 2.84797 0.00415
C 7.38583 4.22032 -0.02162
C 8.63011 4.98913 0.01363
C 4.93195 8.59708 -0.01275
C 4.89835 7.11369 0.00985
C 6.18401 6.40158 -0.02245
C 6.17508 4.98069 -0.00428
C 4.93309 4.29482 0.03101
C 4.87899 2.75576 -0.01536
C 6.12989 2.11415 -0.02689
C 6.14535 0.74293 -0.01046
C 4.9215 34.0426 -0.00891
C 7.39453 32.64685 0.02819
C 8.60539 31.98258 0.00165
C 8.59446 30.56709 -0.02971
C 7.39682 29.77842 0.02894
C 7.35875 28.43538 -0.01789
C 8.58823 27.70791 0.00444
C 7.41083 7.10079 -0.00925
C 8.57306 6.39082 0.01877
C 4.90668 21.29446 0.02841
C 22.17255 32.67979 0.0296
C 23.353 31.93514 0.03374
C 23.34577 30.54223 -0.02845
C 33.21916 26.26337 0.00682
C 31.97742 25.58136 -0.01779
C 31.97652 24.17036 0.03794
C 33.24403 23.44817 0.01927
C 33.18759 22.04918 0.01574
C 31.98762 21.33493 -0.02383
C 31.99152 19.89582 -0.01429
C 33.16629 27.7009 0.00026
C 33.21274 19.20083 -0.0136
C 31.986 17.04045 -0.02474
C 32.00881 15.58136 0.00369
C 33.19998 14.91301 0.00455
C 33.20704 13.5053 -0.00644
C 31.96726 12.79511 -0.01839
C 31.92509 11.33669 0.00137
C 33.15309 10.66854 0.00199
C 33.18286 17.73927 0.00594
C 32.00693 28.38354 0.0544
C 31.95096 29.84034 -0.02142
C 33.18834 30.54012 0.01428
C 29.59441 15.66786 -0.0405
C 30.75834 14.88138 -0.01303
C 30.73063 13.51205 -0.01461
C 29.49014 12.77735 -0.02155
C 29.53227 11.33672 -0.00944
C 30.72572 10.70735 -0.03735
C 30.67622 9.22747 -0.00971
C 29.49045 8.51492 0.01518
C 29.50759 7.08485 0.01908
C 30.74627 6.42779 0.07705
C 30.68629 4.94708 0.0103
C 29.53875 2.8888 0.02108
C 30.73992 2.09488 0.00716
C 30.74676 0.68931 0.00307
C 29.5103 34.07781 0.00346
C 31.97748 32.65208 0.01713
C 33.22163 31.98125 -0.01694
C 33.16941 9.22806 0.04381
C 29.49949 17.02996 0.01705
C 31.96825 8.50914 0.02806
C 33.15794 6.43578 -0.00069
C 0.03176 17.00938 0.00648
C 34.43143 15.58134 0.02114
C 1.26767 14.88744 -0.02957
C 1.22665 13.51819 0.00343
C 34.43166 12.76947 -0.02656
C 34.4235 11.3736 -0.02442
C 1.20632 10.67481 -0.00027
C 1.2156 17.73002 0.01223
C 1.21694 9.24545 -0.00583
C 0.02623 7.13044 -0.02849
C 1.21813 6.31677 0.02931
C 1.24377 4.92523 0.00628
C 0.01244 4.24017 -0.0345
C 0.00483 2.85365 -0.00931
C 1.26221 2.11245 -0.00939
C 1.21973 0.7215 -0.00468
C 0.0227 8.493 -0.02302
C 1.21321 19.152 -0.01678
C 34.40762 19.9032 0.01951
C 34.40374 21.28186 -0.02213
C 33.17686 4.99585 0.04926
C 31.96151 4.271 -0.03838
C 31.99081 2.82842 0.00349
C 33.21904 2.11114 -0.00323
C 33.20235 0.71136 -0.00841
C 32.01624 34.07136 0.0001
C 34.42524 32.60798 -0.02927
C 1.2354 31.96813 -0.01404
C 1.25738 30.50905 0.01027
C 34.39821 29.80746 0.01831
C 0.01405 28.40718 -0.01037
C 1.23121 27.67144 -0.00439
C 1.23206 26.27837 -0.00598
C 0.0122 25.63194 -0.05239
C 34.41427 24.15385 0.03076
C 1.25294 23.48395 0.00723
C 1.18237 22.04306 0.02712
C 31.96066 7.12216 0.01504
C 3.69699 31.93667 -0.00892
C 30.76605 17.77875 0.0101
C 29.53411 19.86342 0.03531
C 22.11061 2.82953 0.00135
C 23.37772 0.71118 0.03102
C 22.1252 34.06768 0.02555
C 24.62086 32.71183 0.01423
C 25.80342 31.8783 -0.00285
C 25.80093 30.51104 -0.009
C 24.60122 29.79595 -0.01199
C 22.21629 7.13467 -0.00498
C 24.53135 28.39541 -0.00229
C 25.78089 26.2925 -0.0264
C 24.60944 25.54648 -0.01154
C 24.56255 24.14126 0.00684
C 25.80704 23.35853 -0.01052
C 25.85549 22.03694 -0.01679
C 24.58824 21.34685 0.00367
C 24.61542 19.90184 0.04306
C 25.84836 27.69872 -0.00938
C 22.11922 8.5086 0.02737
C 23.31565 9.24782 0.02117
C 23.34073 10.65272 -0.04078
C 22.1589 29.78404 -0.03213
C 22.15018 28.43872 0.02239
C 23.36022 27.71349 0.01153
C 23.33555 26.26559 0.02734
C 22.11643 25.58991 -0.0055
C 22.11083 24.1612 0.01515
C 23.32919 23.43787 -0.00225
C 23.34527 22.06759 0.00071
C 22.14589 21.28622 -0.01107
C 22.15576 19.87767 -0.01586
C 23.3517 19.15952 -0.01971
C 23.33179 17.74539 -0.02118
C 22.10591 17.0563 0.00733
C 22.1014 15.63222 -0.00178
C 23.33831 13.44918 0.00768
C 22.13609 12.78854 -0.0276
C 22.09086 11.36475 0.03005
C 25.81526 19.18063 0.00996
C 30.78637 19.15481 -0.00669
C 25.78101 17.71508 0.00195
C 25.80919 10.69211 -0.00218
C 28.29493 9.21696 0.01799
C 27.04 8.48294 0.01699
C 28.25495 0.70619 -0.00416
C 27.049 34.05509 0.01177
C 29.54539 32.63378 0.04266
C 30.76356 31.96 0.01324
C 30.72979 30.50918 0.0014
C 28.29621 10.62811 0.01259
C 29.50607 29.78725 0.00924
C 30.70117 27.67 0.00261
C 30.74244 26.2478 0.03265
C 29.54353 25.49507 -0.02049
C 29.50993 24.17025 -0.01854
C 30.68801 23.45156 -0.01415
C 30.7335 22.01589 -0.03039
C 29.52543 21.23628 0.01836
C 29.50467 28.38582 0.02326
C 27.07655 11.33654 0.01495
C 28.32059 13.48391 0.00235
C 28.23821 17.75703 0.01094
C 25.77696 9.18066 -0.01654
C 24.59548 8.50499 -0.00037
C 24.61408 0.0103 -0.0032
C 27.06754 32.62572 0.00622
C 28.31809 31.89703 -0.02815
C 28.30935 30.50809 -0.00942
C 27.03577 29.81249 0.00487
C 27.05797 28.35418 0.00826
C 28.24859 27.68251 -0.00294
C 28.27181 26.2762 0.00152
C 27.09502 25.5311 0.01257
C 27.0912 24.09394 0.02316
C 28.2756 23.38988 0.04185
C 28.28873 21.99837 0.00194
C 27.06951 21.31365 -0.00621
C 27.06732 19.88173 0.02611
C 28.3101 19.17034 0.02198
C 24.56839 11.36458 -0.00802
C 2.43409 32.66975 -0.04848
