433
Graphene
C 0.02774 34.07279 0.01295
C 13.54601 22.03424 0.01364
C 12.30117 21.30891 -0.01062
C 12.29518 19.93086 -0.00033
C 13.50755 19.20086 0.03589
C 13.53404 17.77055 -0.02759
C 12.32606 17.03852 0.0402
C 12.28523 15.64492 0.00572
C 13.50774 14.79771 0.03592
C 13.53625 13.37977 0.00406
C 12.283 12.75122 0.00943
C 12.32998 11.30277 0.02841
C 13.56774 10.62417 -0.01111
C 13.61646 9.15463 -0.01275
C 12.35714 8.56227 0.00985
C 12.32966 7.09958 -0.02245
C 13.48632 6.30446 -0.00428
C 13.44799 4.88984 0.03101
C 12.2512 4.14769 -0.01536
C 12.22746 2.75883 -0.02689
C 13.49408 2.07719 -0.01046
C 13.4772 0.69843 -0.00891
C 12.32441 0.02101 0.02819
C 14.78059 32.71433 0.00165
C 13.47902 23.44017 -0.00719
C 15.97451 31.96082 -0.02971
C 12.27757 24.24796 0.01641
C 13.54964 26.27948 -0.00334
C 9.83348 17.03859 0.0288
C 9.81453 15.60475 0.00393
C 11.01839 14.91692 0.00895
C 11.07921 13.50117 0.00685
C 9.80265 12.90487 0.02888
C 9.84228 11.46157 -0.00482
C 11.09478 10.71024 -0.01384
C 11.11061 9.22823 0.03693
C 9.88565 8.562 0.01745
C 9.88695 7.10251 0.00488
C 11.13035 6.3866 -0.01004
C 11.05929 4.91188 -0.02896
C 9.76554 4.26851 -0.00131
C 9.7851 2.89259 -0.01118
C 11.08129 2.06101 -0.014
C 11.15224 0.68047 0.02147
C 9.89596 0.02433 0.00373
C 12.29568 32.65513 -0.00191
C 13.49434 32.05968 0.00438
C 13.50412 30.60333 0.01291
C 12.24349 29.83812 0.00093
C 12.26285 28.3524 0.00057
C 13.52495 27.6787 -0.01634
C 12.34415 25.61862 0.02339
C 11.12111 17.69854 -0.0008
C 15.94765 30.58044 0.02894
C 14.70514 28.4677 0.00444
C 17.23358 32.66624 -0.02696
C 18.48006 31.97697 -0.00114
C 18.4276 30.55543 0.00228
C 17.1898 29.83811 0.00798
C 17.25228 28.3459 0.00422
C 18.43649 27.64972 0.0351
C 18.41403 26.19546 -0.03113
C 17.14291 25.52086 0.02098
C 17.21302 24.11351 0.01848
C 18.4704 23.40569 -0.00619
C 18.45982 21.98537 -0.02162
C 17.2039 21.30809 0.00889
C 17.10019 19.8981 -0.00481
C 18.37524 19.29366 0.00979
C 18.36478 17.83305 0.01443
C 17.24701 17.04835 0.03505
C 17.28297 15.63723 -0.02815
C 18.47186 14.93464 -0.04147
C 18.4364 13.51592 -0.05302
C 17.22382 12.87253 0.00213
C 17.26605 11.39415 -0.00066
C 18.39312 10.63835 -0.00289
C 17.17723 8.52354 0.00028
C 14.73291 0.08256 -0.00368
C 14.68635 29.88129 -0.01789
C 15.95204 0.75377 -0.0108
C 14.69302 2.878 0.02058
C 15.94372 27.73162 -0.00925
C 15.93069 26.27535 0.01877
C 14.72198 25.55367 0.01363
C 14.6936 24.17501 -0.02162
C 15.98731 23.40985 0.00415
C 15.94043 22.01202 -0.0014
C 14.7659 21.232 0.02162
C 14.72169 19.84705 0.0076
C 15.93403 19.09505 0.01241
C 15.94031 17.71035 -0.01454
C 14.75282 16.98834 0.01945
C 14.73609 15.54543 0.01416
C 16.03245 14.95201 0.03542
C 15.93494 13.53032 0.02299
C 14.75293 12.76829 0.00244
C 14.7801 11.32053 -0.01717
C 15.95967 10.68101 0.05265
C 16.08119 9.24577 -0.01952
C 14.81962 8.5043 -0.02813
C 14.69352 7.06008 0.00374
C 15.96662 6.42033 0.00052
C 15.94082 4.97641 -0.03682
C 14.72009 4.23519 0.01965
C 15.93402 2.17476 -0.01957
C 11.11519 19.17667 -0.01362
C 9.83042 19.88446 -0.00892
C 9.87101 21.31556 -0.04848
C 3.65964 2.20642 -0.01386
C 3.68385 0.76609 -0.02805
C 2.46626 34.0443 0.00081
C 4.87386 32.6516 0.00245
C 6.10678 31.97595 0.02728
C 6.14116 30.53614 -0.00039
C 4.9496 29.80376 0.0064
C 4.95357 28.35766 0.00211
C 6.21459 27.67057 -0.00449
C 6.2263 26.2376 -0.01979
C 5.00352 25.56004 0.02784
C 4.89447 24.19261 -0.01977
C 6.11767 23.51683 -0.00561
C 6.14163 22.09047 0.00208
C 4.93287 21.33326 0.01707
C 4.97901 19.84144 0.02769
C 6.14642 19.17674 -0.03291
C 6.12531 17.73965 -0.04999
C 4.85545 16.9269 0.04505
C 4.79069 15.56166 0.03284
C 6.0602 14.99653 -0.04307
C 6.07862 13.60751 0.03189
C 4.87576 12.74364 0.00031
C 2.51 2.86509 -0.0059
C 4.92205 11.28074 -0.003
C 2.50274 4.29436 0.00558
C 3.62162 6.42212 0.00828
C 3.67514 30.38364 -0.00012
C 2.43164 29.77399 -0.04306
C 2.46174 28.36054 -0.03672
C 3.70749 27.66408 0.01913
C 3.74651 26.26899 0.00267
C 2.49315 25.55889 0.00787
C 2.45498 24.18744 0.02426
C 3.58933 23.43108 0.01218
C 3.71401 22.07406 -0.01471
C 2.51088 21.29314 -0.02827
C 2.51607 19.86936 0.01078
C 3.74552 19.1355 -0.00112
C 3.68348 17.64606 0.03345
C 2.38021 17.00601 0.00748
C 2.35087 15.57318 0.00662
C 3.56491 14.83245 -0.0154
C 3.64098 13.43252 -0.01299
C 2.37666 12.75349 -0.00407
C 2.4013 11.34405 0.01138
C 3.63169 10.6479 0.03278
C 3.68248 9.21945 -0.00177
C 2.41996 8.53788 0.04421
C 2.424 7.15807 0.00088
C 3.73526 5.02355 -0.02375
C 6.19343 10.67323 0.01402
C 6.17551 9.26373 0.02379
C 4.91336 8.54367 0.00907
C 7.3578 11.42627 0.01305
C 8.60069 10.71594 -0.00077
C 8.64937 9.27635 0.03368
C 7.38843 8.64978 -0.02929
C 7.29458 7.1971 -0.00966
C 8.61069 6.51105 -0.03337
C 8.58241 5.08587 0.01227
C 7.34227 4.26067 0.00873
C 7.36797 2.88976 -0.00049
C 8.59619 2.14455 0.00848
C 8.6551 0.73173 -0.01303
C 7.41 34.06505 -0.01378
C 9.83206 32.73835 0.02635
C 11.04944 31.99909 0.0127
C 11.03332 30.60124 0.01396
C 9.79398 29.85458 0.01849
C 9.77802 28.42898 -0.01142
C 11.03437 27.6809 -0.00562
C 11.04783 26.29212 -0.00494
C 9.76685 25.62858 0.00054
C 9.85629 24.23214 0.03007
C 11.07684 23.5423 -0.00095
C 11.07346 22.07574 0.01572
C 7.29999 12.83277 0.0276
C 8.56845 13.54476 0.00988
C 8.54684 14.96766 -0.01343
C 7.33645 15.66041 0.01087
C 4.88631 7.16 0.00643
C 6.10628 6.40771 -0.01509
C 6.14467 5.01449 0.03267
C 4.86962 4.26384 0.02374
C 4.87024 2.89773 0.00402
C 6.08815 2.14014 0.0073
C 6.14328 0.69933 0.0174
C 4.88676 0.0155 0.03828
C 7.34414 32.68851 0.01226
C 8.66554 32.00099 -0.00279
C 8.57046 30.60349 0.01996
C 17.24447 7.1096 -0.02213
C 7.36042 29.91862 -0.03996
C 8.59395 27.78592 -0.00074
C 8.58205 26.35068 -0.00518
C 7.43182 25.50294 0.0086
C 7.43398 24.12082 -0.00643
C 8.65386 23.38839 0.017
C 8.60998 22.0146 -0.03113
C 7.37444 21.34926 -0.02566
C 7.42508 19.88995 -0.00094
C 8.64925 19.17965 0.02322
C 8.59374 17.77723 -0.00725
C 7.37263 17.04935 -0.05697
C 7.3732 28.47689 0.01465
C 3.6569 31.91084 -0.00198
C 18.54624 6.32422 0.03698
C 17.21057 4.28224 -0.00491
C 30.73253 13.5045 -0.01303
C 29.52878 12.7631 -0.01461
C 29.50392 11.31331 -0.02155
C 30.66183 10.59557 -0.00944
C 30.71197 9.0938 -0.03735
C 29.44777 8.4961 -0.00971
C 29.47773 7.14385 0.01518
C 30.71389 6.38529 0.01908
C 30.70154 4.9804 0.07705
C 29.52147 4.22682 0.0103
C 29.56231 2.76838 0.02108
C 30.80206 2.0852 0.00716
C 30.78258 0.65031 0.00307
C 29.50043 34.01094 0.00346
C 32.03257 32.57685 0.01713
C 33.25068 31.91209 -0.01694
C 33.20551 30.49789 0.01428
C 31.9572 29.7854 -0.02142
C 31.9407 28.38013 0.0544
C 33.227 27.74096 0.00026
C 33.2249 26.34161 0.00682
C 31.99822 25.6388 -0.01779
C 32.00649 24.18179 0.03794
C 30.66374 14.90722 -0.0405
C 33.18429 23.48047 0.01927
C 29.48482 15.66342 0.01705
C 30.68394 17.81709 -0.00669
C 28.25066 10.62418 0.02611
C 28.24818 9.25048 0.02198
C 26.97821 8.54576 0.01094
C 27.05771 7.13782 0.00235
C 28.26822 6.36809 0.01495
C 28.24752 4.87002 0.01259
C 27.01134 4.18435 0.01799
C 27.06734 2.77701 0.01699
C 28.31435 2.08323 -0.00416
C 28.30611 0.65833 0.01177
C 26.97576 0.02372 0.04266
C 29.49917 32.54844 0.01324
C 30.75345 31.87853 0.0014
C 30.77212 30.51061 0.00924
C 29.50551 29.84344 0.02326
C 29.55141 28.4423 0.00261
C 30.74042 27.68983 0.03265
C 30.71108 26.29164 -0.02049
C 29.4254 25.52509 -0.01854
C 29.45714 24.13837 -0.01415
C 30.6155 23.39454 -0.03039
C 30.81719 22.04946 0.01836
C 30.77508 19.20185 0.03531
C 29.50533 17.09402 0.0101
C 27.06653 11.3458 -0.00621
C 33.20695 22.06576 0.01574
C 31.91641 19.90107 -0.01429
C 34.42928 24.16859 0.03076
C 1.2101 23.46986 0.00723
C 1.28338 22.02952 0.02712
C 0.02319 21.33423 -0.02213
C 34.42908 19.8722 0.01951
C 1.22723 19.16001 -0.01678
C 1.19514 17.77333 0.01223
C 34.34321 17.11503 0.00648
C 34.40843 15.61508 0.02114
C 1.16025 14.86318 -0.02957
C 1.20343 13.44795 0.00343
C 34.42899 12.76883 -0.02656
C 34.37444 11.30551 -0.02442
C 1.1863 10.59931 -0.00027
C 1.16664 9.2084 -0.00583
C 34.41518 8.46364 -0.02302
C 0.00256 7.06045 -0.02849
C 1.25394 6.38513 0.02931
C 1.28208 4.96227 0.00628
C 0.06047 4.23998 -0.0345
C 0.01071 2.79491 -0.00931
C 1.25773 2.0973 -0.00939
C 1.23115 0.69352 -0.00468
C 34.40668 25.56243 -0.05239
C 31.95149 21.29219 -0.02383
C 1.21483 26.20333 -0.00598
C 0.02153 28.369 -0.01037
C 33.11535 19.18166 -0.0136
C 33.10576 17.76432 0.00594
C 31.90428 16.96125 -0.02474
C 31.90852 15.59154 0.00369
C 33.19143 14.86715 0.00455
C 33.18332 13.46353 -0.00644
C 31.98681 12.78596 -0.01839
C 31.90333 11.37448 0.00137
C 33.12276 10.63567 0.00199
C 33.19657 9.17259 0.04381
C 31.94829 8.45011 0.02806
C 32.02105 7.01318 0.01504
C 33.23519 6.29396 -0.00069
C 33.24255 4.89852 0.04926
C 31.9722 4.25827 -0.03838
C 31.97386 2.79449 0.00349
C 33.22647 2.11361 -0.00323
C 33.23774 0.70117 -0.00841
C 32.02597 34.0108 0.0001
C 0.05553 32.65154 -0.02927
C 1.27655 31.87356 -0.01404
C 1.22627 30.48608 0.01027
C 0.02057 29.79262 0.01831
C 1.22005 27.64511 -0.00439
C 27.02169 12.79969 0.00194
C 28.29414 13.49432 0.04185
C 28.33179 14.91747 0.02316
C 20.94013 6.45573 0.0058
C 20.98282 5.04148 -0.00865
C 19.74618 4.27059 0.00675
C 19.7122 2.83532 -0.00311
C 20.90359 2.11302 0.00742
C 20.8989 0.71122 -0.01594
C 19.67409 0.02312 0.0106
C 22.09232 32.66902 -0.01154
C 23.33738 32.02114 -0.01721
C 23.36554 30.58025 -0.02422
C 22.07769 29.83708 0.01277
C 22.1375 28.43683 0.00096
C 23.35423 27.74254 -0.01527
C 23.30815 26.35804 0.01087
C 22.13109 25.59854 0.00199
C 22.1937 24.12039 0.01511
C 23.51455 23.32074 -0.00478
C 23.37182 21.86928 -0.01662
C 22.16671 21.26886 -0.01185
C 22.02811 19.84158 0.01126
C 23.39078 19.18595 0.01852
C 23.38821 17.75051 -0.00381
C 22.21017 17.07142 0.03046
C 19.69224 6.98157 -0.00652
C 22.11694 15.63589 0.0296
C 20.93038 10.67336 -0.04076
C 19.66598 12.78993 0.00654
C 17.20349 2.87139 0.03338
C 18.40219 2.10765 -0.0258
C 18.43541 0.68339 -0.0331
C 17.20931 34.01721 -0.00316
C 19.70681 32.70786 0.02188
C 20.85767 31.97651 -0.01979
C 20.83234 30.52365 0.02691
C 19.62685 29.79859 -0.01581
C 19.66152 28.38207 0.01452
C 20.87343 27.68137 0.04892
C 20.84651 26.18846 -0.00111
C 19.6781 25.51431 -0.03557
C 19.7041 24.0473 0.03754
C 20.96947 23.43773 0.01739
C 20.96959 22.04711 0.00755
C 19.66513 21.35723 -0.0054
C 19.65523 19.92622 0.00667
C 20.86182 19.16193 0.00143
C 20.89808 17.7261 -0.017
C 19.61175 17.07329 0.00364
C 19.64555 15.69447 -0.00831
C 20.89472 14.9637 -0.02957
C 20.87628 13.51491 -0.04422
C 19.65139 11.3158 -0.00703
C 23.35511 14.87917 0.03374
C 23.34284 13.47824 -0.02845
C 22.10438 12.80027 -0.03213
C 24.50862 11.28316 -0.00938
C 25.82673 10.6341 -0.0264
C 25.72774 9.1936 -0.01154
C 24.5508 8.44209 0.00684
C 24.57818 7.05974 -0.01052
C 25.82028 6.39643 -0.01679
C 25.84752 4.98318 0.00367
C 24.61543 4.30831 0.04306
C 24.61369 2.93928 0.00996
C 25.8116 2.12354 0.00195
C 25.7635 0.73228 -0.00802
C 24.58789 0.02991 -0.00218
C 27.05354 32.64975 -0.01654
C 28.24175 31.9184 -0.00037
C 28.29765 30.52062 -0.0032
C 27.08575 29.8277 0.00622
C 27.05025 28.46493 -0.02815
C 28.25508 27.75725 -0.00942
C 28.23524 26.30395 0.00487
C 27.04164 25.57739 0.00826
C 28.22812 17.5874 -0.00294
C 26.96395 17.1395 0.00152
C 27.03805 15.57585 0.01257
C 24.58705 12.72655 -0.00229
C 25.75292 13.51989 -0.01199
C 25.80039 14.91904 -0.009
C 24.54994 15.59433 -0.00285
C 22.06636 11.24888 0.02239
C 23.32003 10.62333 0.01153
C 23.33262 9.20772 0.02734
C 22.07451 8.63526 -0.0055
C 22.11938 7.20199 0.01515
C 23.35002 6.39096 -0.00225
C 23.37277 4.92009 0.00071
C 22.17319 4.27624 -0.01107
C 22.11538 2.87544 -0.01586
C 23.38745 2.18407 -0.01971
C 23.39268 0.7757 -0.02118
C 18.50682 4.96415 -0.00109
C 22.17975 0.03313 0.00733
C 25.86095 31.97748 0.00768
C 25.88082 30.51411 -0.0276
C 24.60438 29.84 0.03005
C 24.62919 28.47453 -0.04078
C 25.83104 27.72745 0.02117
C 25.81553 26.2623 0.02737
C 24.50378 25.56948 -0.00498
C 24.5807 24.23257 0.00135
C 24.46738 19.87498 0.03102
C 25.74146 17.75104 0.02555
C 24.61211 16.97663 0.01423
C 24.58203 32.74558 -0.00178
C 2.45641 32.61744 0.00535
