348
Graphene
C 0.07394 34.0283 0.01295
C 13.51546 4.9934 0.00422
C 12.36796 4.32485 0.0351
C 12.34219 2.9057 -0.03113
C 13.57261 2.21976 0.02098
C 13.493 0.76464 0.01848
C 12.26934 0.09245 -0.00619
C 14.71044 32.75832 -0.02162
C 15.94924 32.05815 0.00889
C 15.93993 30.63319 -0.00481
C 14.66933 29.9175 0.00979
C 14.74028 28.46281 0.01443
C 15.9349 27.69399 0.03505
C 15.93494 26.26109 -0.02815
C 14.75653 25.48107 -0.04147
C 14.80089 24.00316 -0.05302
C 15.96511 23.41977 0.00213
C 16.27422 21.91775 -0.00066
C 13.37752 6.38204 0.00798
C 12.80541 17.6982 0.00228
C 13.20101 18.66138 -0.00114
C 12.25228 19.73491 -0.02696
C 11.14545 5.16943 -0.01454
C 9.87516 4.53601 0.01945
C 9.826 3.03439 0.01416
C 10.98209 2.24034 0.03542
C 10.96764 0.77942 0.02299
C 9.72212 0.14619 0.00244
C 12.3486 32.74606 -0.01717
C 13.51506 32.01694 0.05265
C 15.04576 21.42369 -0.00289
C 13.48727 30.62236 -0.01952
C 12.29031 28.41104 0.00374
C 13.56307 27.74747 0.00052
C 13.59266 26.16597 -0.03682
C 12.29469 25.59157 0.01965
C 12.35011 24.13388 0.02058
C 13.54253 23.34519 -0.01957
C 13.67506 21.87226 -0.0108
C 12.42603 21.22379 -0.00368
C 12.33866 29.8497 -0.02813
C 15.87031 8.94861 0.00028
C 14.58022 8.87343 -0.02213
C 14.53346 7.24279 0.03698
C 17.21521 2.87838 -0.00831
C 18.46659 2.10966 -0.02957
C 18.44454 0.73483 -0.04422
C 17.29779 0.00293 0.00654
C 19.6764 32.66068 -0.00703
C 20.85435 32.03316 -0.04076
C 20.81793 30.60152 -0.00652
C 19.69498 29.744 0.0058
C 17.24478 4.33141 0.00364
C 19.6496 28.35728 -0.00865
C 20.85129 26.11511 -0.00311
C 19.5843 25.49883 0.00742
C 19.53943 23.9221 -0.01594
C 20.80294 23.32798 0.0106
C 20.98455 21.99257 -0.01154
C 19.65616 4.22939 -0.01721
C 19.59741 2.87854 -0.02422
C 20.87067 2.11605 0.01277
C 20.87009 27.63514 0.00675
C 9.96585 16.97928 0.01241
C 18.55067 5.03868 -0.017
C 17.03978 8.52826 0.00667
C 15.84522 6.5063 -0.00109
C 15.95129 5.0443 -0.00491
C 14.72731 4.2265 0.03338
C 14.80118 2.87858 -0.0258
C 16.01101 2.20575 -0.0331
C 15.96118 0.77143 -0.00316
C 14.70346 0.07795 0.02188
C 17.21256 32.68299 -0.01979
C 17.03783 7.28331 0.00143
C 18.4221 31.90638 0.02691
C 17.17773 29.78891 0.01452
C 17.12828 28.40828 0.04892
C 18.42716 27.63516 -0.00111
C 18.38733 26.22354 -0.03557
C 17.13848 25.56665 0.03754
C 17.13984 24.17476 0.01739
C 18.33361 23.15202 0.00755
C 17.77452 21.77779 -0.0054
C 18.45591 30.46173 -0.01581
C 20.87144 0.68 0.00096
C 11.12132 17.73941 0.0076
C 9.78077 19.78728 -0.0014
C 3.69878 2.16683 -0.01362
C 3.71454 0.72575 -0.0008
C 2.5178 0.00194 0.0288
C 4.88004 32.61526 0.00393
C 6.13436 31.90218 0.00895
C 6.07304 30.53071 0.00685
C 5.03096 29.52261 0.02888
C 5.83933 28.21671 -0.00482
C 5.86558 26.54367 -0.01384
C 4.74357 25.72339 0.03693
C 4.92551 24.27969 0.01745
C 6.14719 23.51219 0.00488
C 6.18863 22.08294 -0.01004
C 4.92646 21.31008 -0.02896
C 4.86728 19.93415 -0.00131
C 6.11163 19.2218 -0.01118
C 6.05941 17.7315 -0.014
C 2.43031 2.84142 -0.00892
C 2.41306 4.32377 -0.04848
C 3.59411 5.00313 0.01572
C 3.63086 6.46984 -0.00095
C 3.55383 30.31769 -0.02929
C 2.46598 24.15051 -0.00966
C 3.70665 23.51431 -0.03337
C 3.69055 22.08722 0.01227
C 2.41081 21.38954 0.00873
C 2.48411 19.95772 -0.00049
C 3.63743 19.28702 0.00848
C 3.57459 17.7603 -0.01303
C 4.86255 17.02643 0.02147
C 2.37931 17.02165 -0.01378
C 3.7276 14.88309 0.0127
C 3.75258 13.53805 0.01396
C 2.47679 12.77155 0.01849
C 2.44269 11.33807 -0.01142
C 3.71303 10.6045 -0.00562
C 3.66631 9.23329 -0.00494
C 2.43012 8.55757 0.00054
C 2.46242 7.16893 0.03007
C 2.40602 15.59557 0.02635
C 4.95562 15.70771 0.00373
C 4.79217 7.20595 -0.00191
C 6.00194 6.42131 0.00438
C 8.65303 5.20966 -0.02245
C 7.38763 4.41338 -0.00428
C 7.39294 2.98814 0.03101
C 8.56546 2.31586 -0.01536
C 8.55653 0.90117 -0.02689
C 7.37164 0.08248 -0.01046
C 9.88256 32.82176 -0.00891
C 11.14457 32.11073 0.02819
C 7.28876 16.96195 0.00985
C 11.09593 30.58478 0.00165
C 9.81464 28.52985 0.02894
C 11.01065 27.74056 -0.01789
C 11.01434 26.26184 0.00444
C 9.76614 25.64741 -0.00925
C 9.77685 24.20896 0.01877
C 11.06045 23.49551 0.01363
C 11.09674 21.94893 -0.02162
C 9.85021 21.26186 0.00415
C 9.85468 29.93548 -0.02971
C 11.04221 19.11469 0.02162
C 8.58048 17.61466 -0.01275
C 7.38966 19.83145 0.02841
C 6.09415 5.13031 0.01291
C 4.86795 4.25258 0.00093
C 4.93376 2.87332 0.00057
C 6.25086 2.1682 -0.01634
C 6.15518 0.78461 -0.00334
C 4.90264 34.06157 0.02339
C 7.37212 32.70599 0.01641
C 8.66332 32.04746 -0.00719
C 8.59273 19.12323 -0.01111
C 8.61195 30.62273 0.01364
C 7.29348 28.55453 -0.00033
C 8.53324 27.82735 0.03589
C 8.49417 26.348 -0.02759
C 7.23685 25.72007 0.0402
C 7.26001 24.32435 0.00572
C 8.58164 23.52083 0.03592
C 8.6097 22.04069 0.00406
C 7.39941 21.30647 0.00943
C 7.44521 29.96766 -0.01062
C 19.62656 0.01951 -0.01527
C 22.06775 32.6394 0.01087
C 23.30781 31.94699 0.00199
C 32.01134 32.55169 0.01428
C 33.24077 31.87146 -0.02142
C 33.35262 30.45371 0.0544
C 32.02929 29.85221 0.00026
C 31.93497 28.42499 0.00682
C 33.16085 27.77007 -0.01779
C 33.13198 26.40242 0.03794
C 31.95318 25.64329 0.01927
C 31.94848 24.2072 0.01574
C 33.20315 23.49717 -0.02383
C 33.17177 22.08743 -0.01429
C 31.93677 21.33077 -0.0136
C 31.92554 19.92851 0.00594
C 33.10074 19.24984 -0.02474
C 33.1354 17.81229 0.00369
C 31.99374 17.08526 0.00455
C 31.92313 15.6318 -0.00644
C 29.46914 0.01116 -0.01694
C 30.7123 0.59811 0.01713
C 30.76245 2.12569 0.00346
C 29.49061 2.89602 0.00307
C 30.67526 22.10703 0.01836
C 29.44607 21.35993 0.03531
C 29.4252 19.90399 -0.00669
C 30.64953 19.2355 0.0101
C 30.72426 17.79605 0.01705
C 29.47128 17.09459 -0.0405
C 29.44994 15.64497 -0.01303
C 30.67816 14.93937 -0.01461
C 33.22049 14.86088 -0.01839
C 30.71135 13.50979 -0.02155
C 29.52511 11.29766 -0.03735
C 30.76699 10.60896 -0.00971
C 30.79194 9.18321 0.01518
C 29.56985 8.49624 0.01908
C 29.47156 7.08788 0.07705
C 30.69897 6.34979 0.0103
C 30.74588 4.97779 0.02108
C 29.53137 4.2792 0.00716
C 29.44777 12.76738 -0.00944
C 33.12655 13.52797 0.00137
C 31.88616 12.72329 0.00199
C 31.97412 11.33475 0.04381
C 1.21073 19.23497 -0.01678
C 1.17593 17.82105 0.01223
C 34.39922 17.07615 0.00648
C 0.01906 15.62956 0.02114
C 1.27889 14.87855 -0.02957
C 1.16536 13.45484 0.00343
C 34.36598 12.77922 -0.02656
C 34.36624 11.38653 -0.02442
C 34.36992 19.95354 0.01951
C 1.11648 10.6304 -0.00027
C 34.41733 8.49957 -0.02302
C 0.02803 7.02333 -0.02849
C 1.1822 6.29098 0.02931
C 1.23381 4.98205 0.00628
C 0.05432 4.21475 -0.0345
C 0.0425 2.86226 -0.00931
C 1.26182 2.09741 -0.00939
C 1.25492 0.69285 -0.00468
C 1.20197 9.13292 -0.00583
C 30.6774 23.53175 -0.03039
C 0.0136 21.32103 -0.02213
C 1.20931 23.55771 0.00723
C 33.14112 10.64619 0.02806
C 33.23023 9.21916 0.01504
C 31.98881 8.49173 -0.00069
C 31.96329 7.08156 0.04926
C 33.20886 6.32673 -0.03838
C 33.19458 4.9369 0.00349
C 31.99129 4.25864 -0.00323
C 31.98425 2.8227 -0.00841
C 1.17553 22.09641 0.02712
C 33.25892 2.10345 0.0001
C 32.0163 34.03667 -0.01404
C 0.04856 32.64194 0.01027
C 1.35893 31.8982 0.01831
C 1.48987 30.46163 -0.01037
C 0.22694 29.69073 -0.00439
C 0.10095 28.27028 -0.00598
C 34.31382 25.68364 -0.05239
C 0.05774 24.30415 0.03076
C 33.27937 0.71512 -0.02927
C 29.40217 24.13214 -0.01415
C 29.44139 25.56911 -0.01854
C 30.60874 26.27198 -0.02049
C 25.66194 27.63033 -0.02118
C 25.80973 26.25948 0.00733
C 24.57519 25.51751 -0.00178
C 24.54428 24.12527 0.00768
C 25.73381 23.50081 -0.0276
C 25.81442 22.08118 0.03005
C 24.64933 21.3282 -0.04078
C 24.60157 19.9199 0.02117
C 24.51917 28.37548 -0.01971
C 25.72819 19.05752 0.02737
C 25.85302 14.79678 0.00135
C 25.88925 13.49887 0.03102
C 24.44359 10.98883 0.02555
C 25.74004 10.66343 0.01423
C 25.82128 9.25894 -0.00285
C 24.57914 8.59083 -0.009
C 24.4976 7.10493 -0.01199
C 25.74561 6.34626 -0.00229
C 25.75604 17.68772 -0.00498
C 25.83331 4.97714 -0.00938
C 24.52323 29.86064 -0.01586
C 25.72983 31.88648 0.00071
C 23.2429 30.53806 0.01511
C 22.10431 29.90106 -0.00478
C 22.12799 28.41094 -0.01662
C 23.29685 27.65148 -0.01185
C 23.31848 26.28348 0.01126
C 22.10606 25.45182 0.01852
C 22.02815 24.07015 -0.00381
C 23.29587 23.38603 0.03046
C 25.69248 30.50376 -0.01107
C 23.36227 21.94212 0.0296
C 23.58221 9.96703 -0.02845
C 23.33467 4.976 -0.03213
C 22.1214 4.30048 0.02239
C 22.08393 2.83481 0.01153
C 23.33529 2.13323 0.02734
C 23.38151 0.65001 -0.0055
C 22.14359 34.07324 0.01515
C 24.57273 32.64675 -0.00225
C 22.19155 21.3755 0.03374
C 3.71378 31.76144 0.03368
C 24.52125 4.24127 -0.0264
C 25.75854 2.16388 0.00684
C 27.07449 11.27095 -0.00621
C 28.30256 10.55187 0.02611
C 28.32815 9.14608 0.02198
C 27.05794 8.52866 0.01094
C 26.97219 7.10953 0.00235
C 28.2151 6.38917 0.01495
C 28.24166 4.97984 0.01259
C 27.07131 4.19853 0.01799
C 26.9842 12.71699 0.00194
C 27.00753 2.8488 0.01699
C 28.2291 0.73126 0.01177
C 26.96812 0.05395 0.04266
C 29.4331 32.65825 0.01324
C 30.79968 31.98519 0.0014
C 30.75486 30.61356 0.00924
C 29.49287 29.91684 0.02326
C 29.46908 28.44079 0.00261
C 30.66389 27.67615 0.03265
C 28.28051 2.2015 -0.00416
C 24.59363 2.82339 -0.01154
C 28.1729 13.51033 0.04185
C 26.96655 15.61376 0.01257
C 25.79353 0.7848 -0.01052
C 24.61458 34.03117 -0.01679
C 26.86611 32.68977 0.00367
C 28.22102 32.01446 0.04306
C 28.1613 30.58745 0.00996
C 27.00804 29.7982 0.00195
C 26.94031 28.36411 -0.00802
C 28.22224 27.66247 -0.00218
C 28.26661 14.88515 0.02316
C 28.24352 26.29299 -0.01654
C 26.93253 24.19032 -0.0032
C 28.17673 23.40062 0.00622
C 28.22553 22.05282 -0.02815
C 26.95712 21.28922 -0.00942
C 26.99975 19.91337 0.00487
C 28.17453 19.21779 0.00826
C 28.28777 17.82802 -0.00294
C 27.01264 17.00689 0.00152
C 27.03588 25.61682 -0.00037
C 2.44427 32.63371 -0.00077
