328
Graphene
C 34.37183 0.10186 0.01295
C 18.39576 23.48055 -0.05302
C 18.40609 22.10617 0.00213
C 17.20921 21.2927 -0.00066
C 17.36223 20.07562 -0.00289
C 18.46558 19.2073 0.00028
C 18.6246 17.76545 -0.02213
C 17.54872 16.91667 0.03698
C 16.9123 24.08328 -0.04147
C 16.58262 15.94801 -0.00109
C 17.27021 8.53363 0.03338
C 17.16121 7.11373 -0.0258
C 18.40708 6.40253 -0.0331
C 18.49882 4.88956 -0.00316
C 17.21314 4.31752 0.02188
C 17.13692 2.86763 -0.01979
C 18.46622 2.08241 0.02691
C 18.49409 9.22337 -0.00491
C 17.11211 25.52649 -0.02815
C 18.3827 26.20641 0.03505
C 18.38975 27.62182 0.01443
C 14.65415 11.28195 -0.01957
C 15.94034 10.59089 -0.0108
C 15.93354 9.23047 -0.00368
C 14.61165 8.56091 -0.02696
C 14.69174 7.10026 -0.00114
C 15.93479 6.41782 0.00228
C 15.92195 5.03599 0.00798
C 14.72301 4.26968 0.00422
C 14.75017 2.90215 0.0351
C 15.98312 2.18838 -0.03113
C 16.02366 0.7656 0.02098
C 14.73436 0.1188 0.01848
C 17.22995 32.7193 -0.00619
C 18.47683 31.94891 -0.02162
C 18.37273 30.43806 0.00889
C 17.14895 29.81445 -0.00481
C 17.15857 28.41085 0.00979
C 18.43781 0.69522 -0.01581
C 15.00299 12.61509 0.02058
C 17.23631 0.02439 0.01452
C 20.89644 31.88984 -0.00111
C 20.94174 4.95085 -0.01594
C 19.7022 4.27772 0.0106
C 19.70805 2.80924 -0.01154
C 20.92057 2.07079 -0.01721
C 20.8628 0.66696 -0.02422
C 19.6484 34.04716 0.01277
C 22.18445 32.61636 0.00096
C 20.9469 6.33978 0.00742
C 23.34229 31.8548 -0.01527
C 22.09052 29.79644 0.00199
C 22.11157 28.36433 0.01511
C 23.32379 27.64763 -0.00478
C 23.32287 26.25592 -0.01662
C 22.10118 25.52547 -0.01185
C 22.08217 24.11707 0.01126
C 23.36591 23.48106 0.01852
C 23.38442 30.49507 0.01087
C 19.69791 7.04382 -0.00311
C 19.65806 8.479 0.00675
C 20.9013 9.20106 -0.00865
C 20.89037 30.53764 -0.03557
C 19.59406 29.79452 0.03754
C 19.63826 28.4401 0.01739
C 20.88398 27.67204 0.00755
C 20.77891 26.25207 -0.0054
C 19.62033 25.50971 0.00667
C 19.57658 24.13668 0.00143
C 20.82521 23.47799 -0.017
C 20.91821 21.95253 0.00364
C 19.66874 21.28909 -0.00831
C 19.63976 19.89057 -0.02957
C 20.82066 19.16805 -0.04422
C 20.9146 17.73509 0.00654
C 19.82681 16.98378 -0.00703
C 19.88108 15.50034 -0.04076
C 20.97271 14.86653 -0.00652
C 20.72768 10.58181 0.0058
C 19.70242 32.62114 0.04892
C 23.44999 22.06121 -0.00381
C 14.94245 14.00664 0.01965
C 15.73485 23.44756 0.00052
C 4.91006 28.39877 -0.00191
C 6.07764 27.61242 0.00438
C 5.24382 4.16493 0.01291
C 4.88558 2.83125 0.00093
C 6.11618 2.0496 0.00057
C 6.14131 0.66524 -0.01634
C 4.89571 34.06446 -0.00334
C 4.90749 29.85286 0.00373
C 7.3782 32.62917 0.02339
C 8.56493 30.41696 -0.00719
C 7.39024 29.7779 0.01364
C 7.36844 28.37276 -0.01062
C 8.69107 27.83656 -0.00033
C 7.10178 4.26094 0.03589
C 7.2608 2.92498 -0.02759
C 8.47503 2.03869 0.0402
C 8.54751 31.85995 0.01641
C 6.18618 30.49804 0.02147
C 6.21549 31.90879 -0.014
C 4.92988 32.68222 -0.01118
C 3.70469 30.52898 -0.04848
C 2.42053 29.80244 -0.00892
C 2.31145 28.42957 -0.01362
C 3.61024 27.72051 -0.0008
C 3.42722 26.37355 0.0288
C 2.28903 25.76184 0.00393
C 2.43691 12.78843 0.00895
C 2.21936 11.42531 0.00685
C 2.51012 8.66044 0.02888
C 2.66622 7.14292 -0.00482
C 3.66736 6.25808 -0.01384
C 3.89353 4.91978 0.03693
C 2.59198 4.25196 0.01745
C 2.45767 2.85571 0.00488
C 3.67184 2.10205 -0.01004
C 3.64508 0.63193 -0.02896
C 2.44274 34.0316 -0.00131
C 8.54207 0.6178 0.00572
C 16.10919 14.55263 -0.03682
C 7.33748 33.98627 0.03592
C 11.05544 32.00435 0.00943
C 12.38033 7.07079 0.00415
C 13.53249 6.36203 -0.0014
C 13.46575 4.95256 0.02162
C 12.21381 4.30672 0.0076
C 12.32156 2.84074 0.01241
C 13.54711 2.15675 -0.01454
C 13.51893 0.72971 0.01945
C 12.20859 8.38147 -0.02162
C 12.26535 0.08322 0.01416
C 16.00397 31.97999 0.02299
C 15.96706 30.60854 0.00244
C 14.84037 29.88194 -0.01717
C 14.82817 28.4327 0.05265
C 15.9967 27.61214 -0.01952
C 15.89958 26.18837 -0.02813
C 14.62749 25.56677 0.00374
C 14.86528 32.73574 0.03542
C 13.38331 9.16219 0.01363
C 13.23742 10.77199 0.01877
C 12.4686 11.91745 -0.00925
C 11.15043 30.57087 0.02841
C 9.97334 29.82659 -0.01111
C 9.91445 28.45264 -0.01275
C 11.19549 27.59409 0.00985
C 10.80975 4.89164 -0.02245
C 9.73015 4.12757 -0.00428
C 9.68545 2.72677 0.03101
C 11.0406 2.14131 -0.01536
C 11.06258 0.75598 -0.02689
C 9.80642 34.04869 -0.01046
C 12.22568 32.7653 -0.00891
C 13.57419 32.08441 0.02819
C 13.65311 30.61035 0.00165
C 12.37515 29.97591 -0.02971
C 12.33649 28.52555 0.02894
C 13.57675 27.72348 -0.01789
C 13.65671 26.2761 0.00444
C 9.82144 32.64939 0.00406
C 22.18962 21.35188 0.03046
C 22.05238 19.92292 0.0296
C 23.45362 19.26752 0.03374
C 31.97456 32.72987 0.00682
C 33.20305 32.04591 -0.01779
C 33.19968 30.61916 0.03794
C 31.90409 29.93118 0.01927
C 31.6815 28.61456 0.01574
C 33.03215 27.80209 -0.02383
C 33.10337 26.37266 -0.01429
C 29.4969 0.05722 0.00026
C 32.87279 21.84582 -0.0136
C 31.89395 19.85106 -0.02474
C 33.18934 19.32839 0.00369
C 33.04526 17.83918 0.00455
C 31.8867 17.09573 -0.00644
C 32.0052 15.66894 -0.01839
C 33.22002 15.02764 0.00137
C 33.16771 13.54581 0.00199
C 31.68077 21.37103 0.00594
C 30.6791 0.71431 0.0544
C 30.72076 2.08278 -0.02142
C 29.55636 2.82683 0.01428
C 29.36863 21.26398 -0.0405
C 29.47014 19.9684 -0.01303
C 30.67741 19.12956 -0.01461
C 30.63755 17.76584 -0.02155
C 29.4215 17.05251 -0.00944
C 29.48133 15.60274 -0.03735
C 30.77248 14.90333 -0.00971
C 30.71105 13.48476 0.01518
C 29.43993 12.74509 0.01908
C 29.51115 11.33619 0.07705
C 30.79024 10.62896 0.0103
C 30.74128 9.14065 0.02108
C 29.49967 8.48493 0.00716
C 29.55451 7.08993 0.00307
C 30.78741 6.34275 0.00346
C 30.72111 4.92297 0.01713
C 29.4359 4.2001 -0.01694
C 31.9413 12.74706 0.04381
C 29.71464 28.37589 0.01705
C 31.94981 11.37135 0.02806
C 33.22178 9.27449 -0.00069
C 34.21738 17.20196 0.00648
C 0.02376 15.80163 0.02114
C 1.1668 15.01837 -0.02957
C 1.16629 13.68596 0.00343
C 34.37255 12.85088 -0.02656
C 34.34648 11.37534 -0.02442
C 1.13087 10.68819 -0.00027
C 0.10787 20.09593 0.01223
C 1.23559 9.25828 -0.00583
C 0.03385 7.09119 -0.02849
C 1.32279 6.44052 0.02931
C 1.34453 4.9765 0.00628
C 0.07877 4.24037 -0.0345
C 0.03403 2.77533 -0.00931
C 1.27002 2.09159 -0.00939
C 1.1668 0.75807 -0.00468
C 34.36688 8.47385 -0.02302
C 34.36559 21.6819 -0.01678
C 0.31007 22.86473 0.01951
C 0.32803 24.06473 -0.02213
C 31.97953 8.50923 0.04926
C 32.03381 7.05561 -0.03838
C 33.26704 6.35472 0.00349
C 33.30552 4.97899 -0.00323
C 31.97734 4.26686 -0.00841
C 31.92441 2.78999 0.0001
C 33.19785 2.19531 -0.02927
C 33.18404 0.8461 -0.01404
C 31.9892 0.06636 0.01027
C 34.41591 32.7384 0.01831
C 1.23922 31.90766 -0.01037
C 1.22072 30.5413 -0.00439
C 34.36208 29.87397 -0.00598
C 34.24866 28.43709 -0.05239
C 1.03062 27.79368 0.03076
C 1.01629 26.3789 0.00723
C 34.31028 25.60791 0.02712
C 33.20334 10.65294 0.01504
C 29.59244 29.91567 0.0101
C 30.69654 30.71326 -0.00669
C 30.72011 32.07082 0.03531
C 24.63862 29.72876 -0.00498
C 24.65123 28.3624 0.00135
C 25.89812 27.64347 0.03102
C 25.9247 26.09685 0.02555
C 24.50832 25.63277 0.01423
C 24.5195 24.2285 -0.00285
C 25.97363 23.77025 -0.009
C 25.85802 30.43074 0.02737
C 26.10315 22.26786 -0.01199
C 24.60555 20.06673 -0.00938
C 25.77185 19.20909 -0.0264
C 25.73498 17.78692 -0.01154
C 24.55196 17.036 0.00684
C 24.56834 15.6429 -0.01052
C 25.73271 14.90562 -0.01679
C 25.69926 13.4705 0.00367
C 24.78152 21.49207 -0.00229
C 25.84069 31.84392 0.02117
C 24.61086 32.57383 -0.04078
C 22.12135 34.05001 0.03005
C 23.34817 17.82111 -0.02845
C 22.11097 17.09642 -0.03213
C 22.18069 15.6034 0.02239
C 23.34195 14.89904 0.01153
C 23.2347 13.48124 0.02734
C 21.91896 12.96845 -0.0055
C 21.86475 11.54368 0.01515
C 23.18286 10.74915 -0.00225
C 23.27853 9.29967 0.00071
C 22.15904 8.4672 -0.01107
C 22.20208 7.01736 -0.01586
C 23.39877 6.33443 -0.01971
C 23.38519 4.92528 -0.02118
C 22.20276 4.1322 0.00733
C 22.11815 2.79736 -0.00178
C 23.38699 2.09568 0.00768
C 23.36531 0.64486 -0.0276
C 24.44349 12.74087 0.04306
C 24.42218 11.31676 0.00996
C 25.65376 10.58186 0.00195
C 25.7677 9.18872 -0.00802
C 26.99989 15.62255 0.01259
C 28.19884 14.88608 0.01799
C 28.14843 13.43091 0.01699
C 26.86623 12.71289 -0.00416
C 26.95071 11.3176 0.01177
C 28.22158 10.6525 0.04266
C 28.27032 9.15581 0.01324
C 27.03225 8.47267 0.0014
C 27.01443 7.07187 0.00924
C 28.29735 6.38653 0.02326
C 28.26193 4.90966 0.00261
C 27.0445 4.24393 0.03265
C 27.03415 2.85631 -0.02049
C 28.28138 2.0979 -0.01854
C 28.23513 0.70706 -0.01415
C 26.9848 0.00916 -0.03039
C 29.44635 32.74019 0.01836
C 26.98666 17.04534 0.01495
C 3.77075 31.93657 0.01572
C 28.22141 17.74307 0.00235
C 27.10405 19.92727 0.02198
C 24.47672 8.53404 -0.00218
C 24.55586 7.06726 -0.01654
C 25.799 6.39624 -0.00037
C 25.81796 4.9484 -0.0032
C 24.65018 4.21758 0.00622
C 24.64306 2.75723 -0.02815
C 25.86221 2.06347 -0.00942
C 25.80416 0.71013 0.00487
C 24.63406 34.03857 0.00826
C 27.04866 32.6269 -0.00294
C 28.27492 31.93547 0.00152
C 28.264 30.49081 0.01257
C 27.12813 29.73167 0.02316
C 27.1472 28.30229 0.04185
C 28.50239 27.82165 0.00194
C 26.64726 24.90613 -0.00621
C 27.28084 21.31922 0.02611
C 28.25948 19.14316 0.01094
C 2.47464 32.67447 -0.00095
