367
Graphene
C 34.39224 34.07804 0.01295
C 12.22295 24.16772 -0.02813
C 13.44195 23.56251 0.00374
C 13.54997 22.08481 0.00052
C 13.85958 19.04848 -0.03682
C 13.51577 17.76412 0.01965
C 12.26167 17.0132 0.02058
C 12.30753 15.59476 -0.01957
C 13.51946 14.92269 -0.0108
C 13.51083 13.44342 -0.00368
C 12.33221 12.77016 -0.02696
C 12.29365 11.39976 -0.00114
C 13.53573 10.69289 0.00228
C 13.54539 9.25355 0.00798
C 12.31075 8.50339 0.00422
C 12.25116 7.10422 0.0351
C 13.51273 6.3808 -0.03113
C 13.47272 5.02885 0.02098
C 12.25245 4.32011 0.01848
C 12.24909 2.83656 -0.00619
C 12.3527 25.65313 -0.01952
C 13.43084 2.1374 -0.02162
C 13.64765 26.23818 0.05265
C 12.30419 28.38921 0.00244
C 11.03383 14.99068 0.00165
C 11.09405 13.51264 -0.02971
C 9.79707 12.87195 0.02894
C 9.86731 11.42384 -0.01789
C 11.071 10.67781 0.00444
C 11.08114 9.29634 -0.00925
C 9.90587 8.58492 0.01877
C 9.83325 7.17544 0.01363
C 11.04103 6.38813 -0.02162
C 10.9979 4.94594 0.00415
C 9.83462 4.28543 -0.0014
C 9.79817 2.83088 0.02162
C 10.97399 2.10807 0.0076
C 11.01248 0.67649 0.01241
C 9.83002 34.01589 -0.01454
C 12.28466 32.59796 0.01945
C 13.47196 31.94351 0.01416
C 13.54569 30.46529 0.03542
C 12.28601 29.79485 0.02299
C 13.56039 27.64357 -0.01717
C 9.88096 15.76672 0.02819
C 13.50532 0.64169 0.00889
C 14.69763 32.59249 0.00979
C 15.88455 6.32919 -0.00111
C 15.87369 4.93435 -0.03557
C 14.65952 4.31027 0.03754
C 14.70083 2.85448 0.01739
C 15.9424 2.12757 0.00755
C 16.01362 0.61254 -0.0054
C 14.73982 33.99133 0.00667
C 17.22799 32.61696 0.00143
C 18.47865 31.82913 -0.017
C 18.49598 30.47048 0.00364
C 17.19313 29.76743 -0.00831
C 17.32988 28.40847 -0.02957
C 18.52807 17.42214 -0.04422
C 17.16643 17.06706 0.00654
C 17.16455 15.60046 -0.00703
C 18.35404 14.8569 -0.04076
C 18.43362 13.42751 -0.00652
C 17.1572 12.71873 0.0058
C 17.18807 11.31592 -0.00865
C 14.72786 7.02742 0.04892
C 12.22943 34.02353 -0.00481
C 14.72528 8.5124 0.01452
C 15.97222 10.66162 0.02691
C 15.93444 31.97445 0.01443
C 15.97792 30.50695 0.03505
C 14.78263 29.7407 -0.02815
C 14.81502 28.35352 -0.04147
C 16.15506 27.61908 -0.05302
C 15.94206 26.26304 0.00213
C 14.91616 25.39208 -0.00066
C 14.84215 23.97041 -0.00289
C 15.65382 22.65876 0.00028
C 14.76738 21.46823 -0.02213
C 14.81071 20.02409 0.03698
C 15.717 19.0354 -0.00109
C 15.88019 17.67016 -0.00491
C 14.66473 16.91728 0.03338
C 14.76732 15.54025 -0.0258
C 15.96898 14.89488 -0.0331
C 15.89161 13.50721 -0.00316
C 14.75158 12.76463 0.02188
C 14.75872 11.34799 -0.01979
C 15.96381 9.20952 -0.01581
C 18.44429 10.58242 0.00675
C 9.89273 25.52611 -0.00891
C 10.9978 27.69643 -0.02689
C 3.71443 6.53935 0.00873
C 3.71473 5.07527 -0.00049
C 2.43964 4.36112 0.00848
C 2.4406 2.87397 -0.01303
C 3.64898 2.20684 -0.01378
C 3.60633 0.73773 0.02635
C 2.42417 0.03266 0.0127
C 4.86686 32.69615 0.01396
C 6.05303 31.98088 0.01849
C 6.10872 30.55679 -0.01142
C 4.85164 29.83779 -0.00562
C 4.88454 28.43379 -0.00494
C 6.14702 27.77072 0.00054
C 6.10816 26.33103 0.03007
C 4.97214 25.59409 -0.00095
C 4.9866 24.20028 0.01572
C 4.92128 21.23792 -0.04848
C 4.7513 20.0833 -0.00892
C 6.27634 17.5612 -0.01362
C 2.41253 7.18459 0.01227
C 4.99617 16.99739 -0.0008
C 2.41499 8.59359 -0.03337
C 3.66867 10.69294 -0.02929
C 3.68911 30.56644 0.01465
C 2.35085 29.86738 -0.00074
C 2.39461 28.44442 -0.00518
C 3.64577 27.77393 0.0086
C 3.67209 26.28266 -0.00643
C 2.45976 25.64924 0.017
C 2.42554 24.12853 -0.03113
C 3.73573 23.5482 -0.02566
C 3.69327 22.14843 -0.00094
C 2.52531 21.30404 0.02322
C 2.41394 19.89006 -0.00725
C 3.62648 19.14998 -0.05697
C 3.7065 17.70705 0.01087
C 2.49 17.05142 -0.01343
C 2.45651 15.596 0.00988
C 3.70866 14.90044 0.0276
C 3.73495 13.53748 0.01305
C 2.41675 12.79588 -0.00077
C 2.39207 11.44899 0.03368
C 3.70032 9.35293 -0.00966
C 11.07826 26.34251 -0.01046
C 4.91054 15.56276 0.0288
C 6.1515 13.5092 0.00895
C 8.59726 13.67295 -0.00719
C 7.45208 12.90708 0.01364
C 7.47 11.4461 -0.01062
C 8.67896 10.72305 -0.00033
C 8.6927 9.3372 0.03589
C 7.42263 8.63427 -0.02759
C 7.41998 7.22076 0.0402
C 8.57939 6.43741 0.00572
C 8.66313 5.03819 0.03592
C 7.3912 4.27517 0.00406
C 7.36325 2.87161 0.00943
C 8.52528 2.22938 0.02841
C 8.53025 0.71874 -0.01111
C 7.35212 0.03036 -0.01275
C 9.78692 32.67729 0.00985
C 11.03527 32.01257 -0.02245
C 10.99996 30.5249 -0.00428
C 9.68925 29.87453 0.03101
C 9.77177 28.42106 -0.01536
C 8.48299 15.16558 0.01641
C 6.10601 14.92826 0.00393
C 7.17969 15.79531 0.02339
C 8.55319 26.09729 -0.01634
C 4.96704 12.83549 0.00685
C 4.91287 11.42267 0.02888
C 6.22955 10.7138 -0.00482
C 6.18781 9.32518 -0.01384
C 4.93464 8.5806 0.03693
C 5.00507 7.13578 0.01745
C 6.16558 6.43684 0.00488
C 6.15552 5.03141 -0.01004
C 4.91443 4.34353 -0.02896
C 4.86919 2.89071 -0.00131
C 6.16988 2.14038 -0.01118
C 6.12641 0.72238 -0.014
C 4.8672 0.06647 0.02147
C 7.31133 32.68448 0.00373
C 8.55498 31.98681 -0.00191
C 8.55828 30.57705 0.00438
C 7.32529 29.83036 0.01291
C 7.36926 28.42874 0.00093
C 8.58852 27.6567 0.00057
C 7.25232 25.5878 -0.00334
C 3.63307 32.01736 -0.03996
C 18.45174 9.2012 -0.00311
C 17.13526 7.06848 -0.01594
C 30.72269 0.64689 0.00307
C 29.47436 0.03055 0.00346
C 31.9092 32.70486 0.01713
C 33.17708 31.96248 -0.01694
C 33.2059 30.59241 0.01428
C 31.91627 29.86028 -0.02142
C 31.89317 28.4386 0.0544
C 33.09399 27.72681 0.00026
C 33.17487 26.33145 0.00682
C 31.90171 25.54301 -0.01779
C 31.97871 24.19231 0.03794
C 33.17753 23.40593 0.01927
C 33.21721 22.03779 0.01574
C 32.00468 21.2853 -0.02383
C 31.96249 19.82442 -0.01429
C 33.17019 19.18767 -0.0136
C 33.14144 17.69981 0.00594
C 31.90028 17.09617 -0.02474
C 31.89457 15.60948 0.00369
C 30.68654 2.14564 0.00716
C 33.18682 14.91258 0.00455
C 29.52779 2.89024 0.02108
C 30.70907 4.94349 0.07705
C 29.38133 28.4416 0.03265
C 30.55659 27.60564 -0.02049
C 30.71592 26.21861 -0.01854
C 30.80987 23.2667 -0.01415
C 30.69048 21.96055 -0.03039
C 29.5722 20.01954 0.01836
C 30.7398 19.23419 0.03531
C 30.77878 17.83064 -0.00669
C 29.62922 17.11776 0.0101
C 29.48471 15.62826 0.01705
C 30.7287 14.89571 -0.0405
C 30.74752 13.46296 -0.01303
C 29.45314 12.83597 -0.01461
C 29.49936 11.34628 -0.02155
C 30.68798 10.61178 -0.00944
C 30.66104 9.25713 -0.03735
C 29.39304 8.47481 -0.00971
C 29.41062 7.06894 0.01518
C 30.69151 6.36959 0.01908
C 29.43451 4.30262 0.0103
C 29.45783 29.81694 0.00261
C 33.21137 13.50596 -0.00644
C 32.02285 11.33867 0.00137
C 34.40323 19.93522 0.01951
C 1.21866 19.25249 -0.01678
C 1.25516 17.74368 0.01223
C 34.35421 17.00714 0.00648
C 34.39242 15.61598 0.02114
C 1.20491 14.915 -0.02957
C 1.18954 13.51962 0.00343
C 0.0107 12.78644 -0.02656
C 34.43018 11.37207 -0.02442
C 1.21884 10.6674 -0.00027
C 1.20484 9.19947 -0.00583
C 34.43119 8.55672 -0.02302
C 34.4127 7.14893 -0.02849
C 1.22286 6.47462 0.02931
C 1.27635 5.03056 0.00628
C 0.02045 4.29067 -0.0345
C 34.38709 2.93152 -0.00931
C 1.17059 2.17647 -0.00939
C 1.18132 0.74872 -0.00468
C 34.42315 21.35344 -0.02213
C 31.92256 12.78044 -0.01839
C 1.26338 22.01741 0.02712
C 0.00605 24.13391 0.03076
C 33.18555 10.66373 0.00199
C 33.16119 9.25505 0.04381
C 31.94126 8.45782 0.02806
C 31.89948 7.0695 0.01504
C 33.18459 6.37795 -0.00069
C 33.18577 5.01238 0.04926
C 31.89612 4.2376 -0.03838
C 31.95196 2.80231 0.00349
C 33.18297 2.15672 -0.00323
C 33.18632 0.72243 -0.00841
C 31.94467 0.0678 0.0001
C 34.34241 32.69511 -0.02927
C 1.19185 32.00932 -0.01404
C 1.19106 30.60024 0.01027
C 34.386 29.88184 0.01831
C 34.33939 28.47653 -0.01037
C 1.10754 27.75129 -0.00439
C 1.23589 26.32045 -0.00598
C 34.41871 25.62356 -0.05239
C 1.20682 23.4088 0.00723
C 17.17566 8.51595 0.00742
C 30.73806 30.55905 0.02326
C 29.52182 32.72028 0.0014
C 19.61051 4.19816 0.02734
C 19.67642 2.77919 -0.0055
C 20.8887 2.08567 0.01515
C 20.90053 0.66654 -0.00225
C 19.64766 0.02056 0.00071
C 22.17194 32.6281 -0.01107
C 23.39594 31.93412 -0.01586
C 23.62631 30.56278 -0.01971
C 21.94888 15.41182 -0.02118
C 23.28773 15.00696 0.00733
C 23.32094 13.48079 -0.00178
C 22.07412 12.68773 0.00768
C 22.09189 11.32968 -0.0276
C 23.39524 10.58073 0.03005
C 23.31988 9.12203 -0.04078
C 22.05937 8.42388 0.02117
C 22.02009 7.0079 0.02737
C 23.32178 6.27789 -0.00498
C 23.30206 4.88277 0.00135
C 20.84036 4.93922 0.01153
C 22.07635 4.17486 0.03102
C 20.82035 6.37236 0.02239
C 19.66407 8.45171 -0.02845
C 18.35815 6.43919 0.0106
C 18.36115 5.0393 -0.01154
C 17.14796 4.26433 -0.01721
C 17.1352 2.86346 -0.02422
C 18.47009 2.09579 0.01277
C 18.43182 0.6739 0.00096
C 17.17673 34.04462 -0.01527
C 19.64782 32.58802 0.01087
C 20.99146 31.91308 0.00199
C 20.90044 30.42853 0.01511
C 19.81676 29.86398 -0.00478
C 19.58061 16.89972 -0.01662
C 19.6354 15.39643 -0.01185
C 20.8324 14.74146 0.01126
C 20.86919 13.28748 0.01852
C 19.6046 12.67465 -0.00381
C 19.66634 11.32117 0.03046
C 20.9004 10.5353 0.0296
C 20.8875 9.12833 0.03374
C 19.59561 7.06537 -0.03213
C 30.72865 31.9898 0.00924
C 22.05877 2.75007 0.02555
C 23.36124 0.70942 -0.00285
C 26.96781 29.913 -0.00294
C 28.25524 17.66196 0.00152
C 27.23671 17.05287 0.01257
C 26.93598 15.63993 0.02316
C 28.20936 14.90339 0.04185
C 28.24084 13.47821 0.00194
C 27.0335 12.76947 -0.00621
C 26.97949 11.36615 0.02611
C 28.15063 10.68464 0.02198
C 28.19755 9.20429 0.01094
C 27.00749 8.5045 0.00235
C 26.95115 7.05484 0.01495
C 28.21064 6.38765 0.01259
C 28.19637 5.00188 0.01799
C 27.04308 4.25479 0.01699
C 27.08648 2.89148 -0.00416
C 28.26158 2.21009 0.01177
C 28.23533 0.66013 0.04266
C 27.05839 0.00305 0.01324
C 28.2731 30.57143 0.00826
C 23.33239 2.12356 0.01423
C 28.31822 31.93128 0.00487
C 24.62188 34.06788 -0.02815
C 22.13516 34.03463 -0.009
C 24.65255 32.67616 -0.01199
C 25.76013 31.99352 -0.00229
C 25.85235 30.54399 -0.00938
C 24.61401 15.59311 -0.0264
C 25.77503 14.90846 -0.01154
C 25.81172 13.48306 0.00684
C 24.56278 12.81612 -0.01052
C 24.54786 11.40392 -0.01679
C 25.78249 10.71624 0.00367
C 25.78798 9.23881 0.04306
C 24.61992 8.44694 0.00996
C 24.5288 7.02886 0.00195
C 25.76735 6.35458 -0.00802
C 25.80261 5.00079 -0.00218
C 24.55666 4.18826 -0.01654
C 24.56837 2.74736 -0.00037
C 25.84901 2.19912 -0.0032
C 25.84802 0.71106 0.00622
C 27.11811 32.59077 -0.00942
C 2.43358 32.6754 0.01996
