347
Graphene
C 0.01737 34.07314 0.01295
C 9.83442 11.38606 0.0351
C 10.98749 10.58167 -0.03113
C 11.02391 9.43665 0.02098
C 9.95724 8.54186 0.01848
C 9.91766 7.07514 -0.00619
C 11.07939 6.37668 -0.02162
C 11.06819 4.95525 0.00889
C 9.80503 4.12917 -0.00481
C 9.82695 2.7063 0.00979
C 11.05828 2.07465 0.01443
C 11.1291 0.71586 0.03505
C 9.87921 0.007 -0.02815
C 12.34278 32.62538 -0.04147
C 13.60857 31.95376 -0.05302
C 13.49444 30.57676 0.00213
C 12.32443 29.77361 -0.00066
C 12.31653 28.29669 -0.00289
C 9.84358 12.70542 0.00422
C 11.09723 13.3631 0.00798
C 11.0981 14.80146 0.00228
C 9.77258 15.59142 -0.00114
C 8.61703 0.62749 0.01945
C 7.33934 0.05696 0.01416
C 9.80294 32.69947 0.03542
C 11.05966 31.99976 0.02299
C 11.11141 30.5746 0.00244
C 9.8526 29.88909 -0.01717
C 9.85154 28.47452 0.05265
C 11.08981 27.70157 -0.01952
C 13.50319 27.60801 0.00028
C 11.0609 26.30355 -0.02813
C 9.86061 24.25515 0.00052
C 10.99715 23.47749 -0.03682
C 10.98222 22.08232 0.01965
C 9.85697 21.26106 0.02058
C 9.89797 19.82079 -0.01957
C 11.11682 19.1438 -0.0108
C 11.14752 17.74123 -0.00368
C 9.845 17.04936 -0.02696
C 9.79324 25.65399 0.00374
C 13.52661 26.19861 -0.02213
C 12.27082 25.51167 0.03698
C 12.27771 24.16624 -0.00109
C 15.9812 23.41489 -0.02957
C 16.01218 22.03592 -0.04422
C 14.74728 21.36879 0.00654
C 14.72601 20.01414 -0.00703
C 15.85613 19.29748 -0.04076
C 14.80472 2.59204 -0.00652
C 15.87181 2.12722 0.0058
C 16.02012 0.7514 -0.00865
C 14.75823 24.08095 -0.00831
C 14.73247 0.0085 0.00675
C 18.43754 31.93669 0.00742
C 18.45996 30.57722 -0.01594
C 17.22867 29.86505 0.0106
C 17.24663 28.39166 -0.01154
C 18.47682 27.65981 -0.01721
C 18.46285 26.24035 -0.02422
C 17.22148 25.5623 0.01277
C 17.23773 24.16597 0.00096
C 17.22622 32.61752 -0.00311
C 8.58382 2.04041 -0.01454
C 14.80183 25.46571 0.00364
C 15.9514 27.76401 0.00143
C 13.51206 23.43332 -0.00491
C 13.48067 22.02605 0.03338
C 12.18378 21.38667 -0.0258
C 12.25022 19.98217 -0.0331
C 13.5067 19.17448 -0.00316
C 13.62492 17.81491 0.02188
C 12.4417 17.01168 -0.01979
C 12.19495 15.61173 0.02691
C 16.02319 26.30708 -0.017
C 12.31957 4.26229 -0.01581
C 13.53598 2.16592 0.04892
C 13.49152 0.66094 -0.00111
C 12.32235 34.07078 -0.03557
C 14.79557 32.66745 0.03754
C 15.98079 31.94787 0.01739
C 15.99476 30.53843 0.00755
C 14.67036 29.87417 -0.0054
C 14.72489 28.43799 0.00667
C 12.3114 2.87011 0.01452
C 18.40688 23.3969 -0.01527
C 7.36757 2.83616 0.01241
C 8.56463 4.89875 0.02162
C 2.45977 7.05879 -0.0008
C 3.66082 6.33929 0.0288
C 3.60891 4.88491 0.00393
C 2.51254 4.18908 0.00895
C 2.45627 33.93923 0.00685
C 4.95813 32.73095 0.02888
C 6.21773 31.99888 -0.00482
C 6.15278 30.61061 -0.01384
C 4.90001 29.81109 0.03693
C 4.89785 28.4122 0.01745
C 6.1373 27.72152 0.00488
C 6.14877 26.31519 -0.01004
C 4.91708 25.55418 -0.02896
C 4.93702 24.15591 -0.00131
C 6.08925 23.46743 -0.01118
C 6.147 22.03131 -0.014
C 4.96198 21.26436 0.02147
C 2.47974 8.56156 -0.01362
C 3.68432 9.24097 -0.00892
C 3.73301 10.68138 -0.04848
C 2.46361 11.32959 0.01572
C 3.67696 30.54979 -0.00966
C 2.42193 29.87381 -0.03337
C 2.43951 28.43664 0.01227
C 3.61422 27.6465 0.00873
C 3.62853 26.26138 -0.00049
C 2.40144 25.56781 0.00848
C 2.46489 24.11186 -0.01303
C 3.76709 23.39719 -0.01378
C 4.84022 19.8629 0.00373
C 3.75853 22.04198 0.02635
C 2.43064 19.93016 0.01396
C 3.61844 19.20691 0.01849
C 3.5906 17.81097 -0.01142
C 2.4679 17.02906 -0.00562
C 2.46386 15.60793 -0.00494
C 3.69943 14.9018 0.00054
C 3.70364 13.51013 0.03007
C 2.41934 12.7923 -0.00095
C 2.53493 21.30757 0.0127
C 6.07703 19.19483 -0.00191
C 6.0615 17.79653 0.00438
C 4.8836 17.14526 0.01291
C 7.36735 24.12087 -0.00428
C 8.63342 23.46259 0.03101
C 8.67991 21.96136 -0.01536
C 7.38447 21.33216 -0.02689
C 7.36888 19.89375 -0.01046
C 8.57809 19.194 -0.00891
C 8.57133 17.73892 0.02819
C 7.34853 17.02736 0.00165
C 7.30621 25.55856 -0.02245
C 7.38172 15.59463 -0.02971
C 8.59356 13.46155 -0.01789
C 7.39538 12.83086 0.00444
C 7.41096 11.42967 -0.00925
C 8.60414 10.64111 0.01877
C 8.69335 9.23074 0.01363
C 7.47419 8.55114 -0.02162
C 7.42936 7.07922 0.00415
C 8.56267 6.31327 -0.0014
C 8.6001 14.89094 0.02894
C 7.22262 4.31951 0.0076
C 8.54003 26.25913 0.00985
C 7.39371 28.44399 -0.01111
C 4.87654 15.69833 0.00093
C 6.13766 14.95261 0.00057
C 6.15694 13.48651 -0.01634
C 4.92765 12.7955 -0.00334
C 4.90697 11.38642 0.02339
C 6.16694 10.68719 0.01641
C 6.18182 9.2511 -0.00719
C 4.96636 8.51352 0.01364
C 8.61871 27.68155 -0.01275
C 4.84113 7.09479 -0.01062
C 6.05359 5.05073 0.03589
C 6.2679 2.16546 -0.02759
C 6.01531 0.81952 0.0402
C 4.87987 34.0627 0.00572
C 7.37599 32.78128 0.03592
C 8.54905 32.05653 0.00406
C 8.59152 30.63777 0.00943
C 7.37567 29.84441 0.02841
C 6.05842 6.39775 -0.00033
C 3.69527 31.97183 -0.02929
C 18.43251 22.02378 0.01087
C 17.22391 19.77498 0.01511
C 33.14921 30.52751 0.01428
C 31.9893 29.84116 -0.02142
C 31.93461 28.43641 0.0544
C 33.17319 27.70285 0.00026
C 33.13527 26.29765 0.00682
C 31.95318 25.54944 -0.01779
C 31.93163 24.12567 0.03794
C 33.1508 23.48435 0.01927
C 33.21397 22.1163 0.01574
C 31.97757 21.34334 -0.02383
C 31.98061 19.88222 -0.01429
C 33.19224 19.17994 -0.0136
C 33.17583 17.7545 0.00594
C 31.93667 17.04398 -0.02474
C 31.91414 15.67278 0.00369
C 33.11418 14.90488 0.00455
C 33.06795 13.48872 -0.00644
C 33.12761 31.94061 -0.01694
C 31.9794 32.73791 0.01713
C 29.51363 34.04232 0.00346
C 30.73113 0.77434 0.00307
C 29.51676 19.89023 0.01836
C 30.75942 19.16599 0.03531
C 30.75265 17.78867 -0.00669
C 29.55137 17.07831 0.0101
C 29.47664 15.66218 0.01705
C 30.66198 14.91673 -0.0405
C 30.65909 13.5175 -0.01303
C 29.38235 12.69819 -0.01461
C 31.90446 12.76734 -0.01839
C 29.64375 11.39585 -0.02155
C 30.78157 9.17946 -0.03735
C 29.67146 8.50928 -0.00971
C 29.4087 7.16833 0.01518
C 30.72982 6.41512 0.01908
C 30.7513 4.98985 0.07705
C 29.5577 4.25853 0.0103
C 29.50387 2.81618 0.02108
C 30.76197 2.2002 0.00716
C 30.77656 10.65852 -0.00944
C 32.02113 11.35097 0.00137
C 33.2405 10.62942 0.00199
C 33.2976 9.21395 0.04381
C 1.18627 19.17986 -0.01678
C 1.19772 17.71032 0.01223
C 34.35546 17.03382 0.00648
C 34.4097 15.5659 0.02114
C 1.21784 14.85924 -0.02957
C 1.15862 13.4227 0.00343
C 34.34415 12.81181 -0.02656
C 34.41095 11.33183 -0.02442
C 0.00043 19.94556 0.01951
C 1.20355 10.6224 -0.00027
C 0.03785 8.52377 -0.02302
C 0.01758 7.09965 -0.02849
C 1.26987 6.34181 0.02931
C 1.27648 4.84883 0.00628
C 34.42618 4.25537 -0.0345
C 0.03997 2.78247 -0.00931
C 1.20389 2.13236 -0.00939
C 1.31871 0.75712 -0.00468
C 1.21315 9.26354 -0.00583
C 29.52854 21.26949 -0.03039
C 0.02768 21.39198 -0.02213
C 1.22681 23.44387 0.00723
C 32.01269 8.58934 0.02806
C 31.97425 7.15271 0.01504
C 33.1978 6.42748 -0.00069
C 33.26025 5.00046 0.04926
C 32.01252 4.31374 -0.03838
C 32.00017 2.83191 0.00349
C 33.20583 2.11941 -0.00323
C 33.24635 0.74721 -0.00841
C 1.29931 22.0398 0.02712
C 31.97938 0.07504 0.0001
C 1.15486 31.8551 -0.01404
C 1.12177 30.49944 0.01027
C 34.38951 29.8099 0.01831
C 34.43112 28.37988 -0.01037
C 1.20754 27.70427 -0.00439
C 1.11548 26.23657 -0.00598
C 34.34252 25.53173 -0.05239
C 34.39587 24.15582 0.03076
C 34.40701 32.6049 -0.02927
C 17.19961 21.37286 0.00199
C 30.79812 22.03466 -0.01415
C 29.45702 24.14724 -0.02049
C 22.12735 29.76865 0.00733
C 22.08309 28.42089 -0.00178
C 23.34303 27.7165 0.00768
C 23.3702 26.25456 -0.0276
C 22.14454 25.51406 0.03005
C 22.13825 24.1397 -0.04078
C 23.40593 23.47601 0.02117
C 23.43273 22.0376 0.02737
C 22.14113 21.35051 -0.00498
C 21.97844 19.99758 0.00135
C 23.46358 2.17458 0.03102
C 23.31103 0.79213 0.02555
C 22.05052 0.01456 0.01423
C 24.58806 32.68036 -0.00285
C 25.80008 31.91753 -0.009
C 25.77982 30.5379 -0.01199
C 24.58099 29.82258 -0.00229
C 23.32544 30.54866 -0.02118
C 23.37495 31.95907 -0.01971
C 22.12307 32.64351 -0.01586
C 19.58952 0.0286 -0.01107
C 18.47331 19.27473 -0.00478
C 18.38571 0.65649 -0.01662
C 17.16937 34.04601 -0.01185
C 19.61835 32.6295 0.01126
C 20.92204 31.91974 0.01852
C 20.87642 30.47926 -0.00381
C 19.67577 29.76845 0.03046
C 19.68464 28.35137 0.0296
C 24.52912 28.39411 -0.00938
C 20.8925 27.63435 0.03374
C 19.63117 25.52746 -0.03213
C 19.63171 24.01159 0.02239
C 20.83562 23.38429 0.01153
C 20.90473 22.00992 0.02734
C 19.6768 21.27118 -0.0055
C 19.68352 19.73849 0.01515
C 21.0055 19.3419 -0.00225
C 20.8129 0.66082 0.00071
C 20.85312 26.22418 -0.02845
C 25.83131 27.67896 -0.0264
C 25.80734 26.23504 -0.01154
C 24.63321 25.56101 0.00684
C 28.39244 17.74092 -0.00621
C 28.17598 14.75746 0.02611
C 28.172 13.61809 0.02198
C 28.36934 6.32676 0.01094
C 28.20201 4.98577 0.00235
C 27.16401 4.12619 0.01495
C 27.14592 2.78232 0.01259
C 28.35205 2.05494 0.01799
C 28.1771 19.11796 0.00194
C 28.32062 0.65992 0.01699
C 29.51744 32.63583 0.01177
C 30.70073 31.98931 0.04266
C 30.78358 30.5101 0.01324
C 29.59087 29.7349 0.0014
C 29.51473 28.3289 0.00924
C 30.73252 27.67154 0.02326
C 30.76416 26.22414 0.00261
C 29.51122 25.52739 0.03265
C 27.03778 0.0352 -0.00416
C 30.71911 23.43746 -0.01854
C 27.08035 20.00098 0.04185
C 28.31283 21.94962 0.01257
C 24.66072 24.20665 -0.01052
C 25.83767 23.49692 -0.01679
C 25.84876 22.03462 0.00367
C 24.65478 21.22076 0.04306
C 24.48282 2.7315 0.00996
C 25.82118 2.23158 0.00195
C 25.78576 0.79101 -0.00802
C 24.56306 0.01749 -0.00218
C 27.08102 21.32561 0.02316
C 27.01861 32.67578 -0.01654
C 28.33691 30.49182 -0.0032
C 27.10492 29.84588 0.00622
C 27.04012 28.44792 -0.02815
C 28.25043 27.69602 -0.00942
C 28.32225 26.26808 0.00487
C 27.12262 25.57834 0.00826
C 27.11654 24.14677 -0.00294
C 28.2687 23.36488 0.00152
C 28.23911 31.95957 -0.00037
C 2.42321 32.61386 0.03368
