374
Graphene
C 0.01362 0.09661 0.01295
C 9.78502 8.54313 0.02299
C 9.81611 7.1154 0.00244
C 11.01772 6.42807 -0.01717
C 11.1063 5.07141 0.05265
C 9.89562 4.33895 -0.01952
C 9.82094 2.87021 -0.02813
C 11.00766 2.10762 0.00374
C 10.98565 0.6549 0.00052
C 9.71985 34.03601 -0.03682
C 12.32499 32.65997 0.01965
C 13.5395 31.95814 0.02058
C 13.59479 30.51369 -0.01957
C 12.3628 29.8096 -0.0108
C 12.28396 28.42122 -0.00368
C 13.55456 27.70251 -0.02696
C 13.46841 26.28375 -0.00114
C 12.29441 25.46151 0.00228
C 12.25591 24.07052 0.00798
C 13.50386 23.43655 0.00422
C 11.01359 9.21806 0.03542
C 13.51224 22.05679 0.0351
C 11.18945 10.54161 0.01416
C 9.72892 12.80856 -0.01454
C 9.77639 32.58256 -0.01536
C 11.06443 31.99638 -0.02689
C 11.12651 30.55615 -0.01046
C 9.8791 29.86362 -0.00891
C 9.84242 28.45661 0.02819
C 11.10493 27.68063 0.00165
C 11.12258 26.26978 -0.02971
C 9.86745 25.67624 0.02894
C 9.82715 24.21287 -0.01789
C 10.98285 23.47426 0.00444
C 11.0717 22.01392 -0.00925
C 9.88033 21.28895 0.01877
C 9.89831 19.85115 0.01363
C 11.14788 19.17839 -0.02162
C 11.17999 17.71858 0.00415
C 9.90639 17.00828 -0.0014
C 9.82537 15.54725 0.02162
C 11.05859 14.90115 0.0076
C 11.02139 13.46409 0.01241
C 9.8429 11.36387 0.01945
C 12.31027 21.36612 -0.03113
C 12.35689 19.93376 0.02098
C 13.546 19.23725 0.01848
C 14.7223 21.33396 0.02691
C 14.75693 19.95348 -0.01581
C 15.98266 19.13858 0.01452
C 15.99524 17.72562 0.04892
C 14.71702 17.02161 -0.00111
C 14.74314 15.67736 -0.03557
C 15.87875 14.85853 0.03754
C 16.00388 13.4641 0.01739
C 14.78181 12.80776 0.00755
C 14.92927 11.36425 -0.0054
C 15.97861 10.58299 0.00667
C 16.03607 6.31203 0.00143
C 16.02932 4.95818 -0.017
C 14.77373 4.19234 0.00364
C 14.67489 2.78231 -0.00831
C 15.92177 2.08745 -0.02957
C 15.92552 0.67973 -0.04422
C 14.71402 34.0613 0.00654
C 17.194 32.62081 -0.00703
C 15.91531 22.06168 -0.01979
C 15.92991 23.4483 0.02188
C 14.70702 24.15069 -0.00316
C 14.68877 25.59542 -0.0331
C 13.55697 17.76893 -0.00619
C 12.36692 16.98774 -0.02162
C 12.30253 15.57476 0.00889
C 13.55063 14.91867 -0.00481
C 13.5844 13.5524 0.00979
C 12.28642 12.74067 0.01443
C 12.33898 11.44212 0.03505
C 13.58339 4.84784 -0.02815
C 12.33021 4.24276 -0.04147
C 7.32926 0.04338 0.03101
C 12.26138 2.78563 -0.05302
C 13.48392 0.68623 -0.00066
C 12.23885 34.05991 -0.00289
C 14.73491 32.67273 0.00028
C 15.92865 31.94382 -0.02213
C 15.9715 30.52884 0.03698
C 14.78313 29.79766 -0.00109
C 14.76639 28.39535 -0.00491
C 16.00945 27.58484 0.03338
C 15.91705 26.18851 -0.0258
C 13.48472 2.11734 0.00213
C 8.58308 0.66172 -0.00428
C 8.60426 2.09046 -0.02245
C 7.33915 2.84337 0.00985
C 3.71922 5.01516 -0.00077
C 2.48627 4.29966 0.03368
C 2.40302 2.91128 -0.02929
C 3.67629 2.16137 -0.00966
C 3.69727 0.75576 -0.03337
C 2.47033 0.04002 0.01227
C 4.84827 32.67086 0.00873
C 6.12219 31.99681 -0.00049
C 6.08449 30.60431 0.00848
C 4.84622 29.84723 -0.01303
C 4.86353 28.39332 -0.01378
C 6.10915 27.7358 0.02635
C 6.17555 26.2942 0.0127
C 4.90815 25.65827 0.01396
C 4.91748 24.20245 0.01849
C 6.12874 23.52225 -0.01142
C 6.14947 22.11142 -0.00562
C 4.95187 21.30618 -0.00494
C 4.8509 19.83391 0.00054
C 3.61057 6.41271 0.01305
C 2.42989 7.07907 0.0276
C 2.52905 8.55977 0.00988
C 3.74157 9.30597 -0.01343
C 3.66542 30.59549 0.0073
C 2.4762 29.8119 0.0174
C 2.44159 28.42621 0.03828
C 3.65413 27.7703 0.01226
C 3.69612 26.28282 -0.00279
C 2.43806 25.547 0.01996
C 2.45834 24.11989 -0.03996
C 3.74621 23.44126 0.01465
C 3.74624 22.02254 -0.00074
C 6.11214 19.14861 0.03007
C 2.46969 21.31808 -0.00518
C 3.6348 19.21143 -0.00643
C 3.64039 17.71286 0.017
C 2.409 17.1067 -0.03113
C 2.49443 15.70457 -0.02566
C 3.72651 14.92107 -0.00094
C 3.71449 13.55077 0.02322
C 2.40937 12.86337 -0.00725
C 2.50505 11.40798 -0.05697
C 3.74141 10.71456 0.01087
C 2.37752 19.91755 0.0086
C 18.43582 31.8625 -0.04076
C 6.15354 17.72444 -0.00095
C 4.98587 15.63921 -0.04848
C 8.65111 23.49357 0.00057
C 8.65485 21.98615 -0.01634
C 7.31827 21.37767 -0.00334
C 7.35357 19.88949 0.02339
C 8.6431 19.16883 0.01641
C 8.64901 17.75288 -0.00719
C 7.43847 17.02834 0.01364
C 7.3991 15.57536 -0.01062
C 8.58896 14.87366 -0.00033
C 8.50274 13.47269 0.03589
C 7.30254 12.79177 -0.02759
C 7.33403 11.36061 0.0402
C 8.61822 10.67887 0.00572
C 8.62745 9.23184 0.03592
C 7.37719 8.57437 0.00406
C 7.34095 7.12907 0.00943
C 8.58896 6.41706 0.02841
C 8.65848 5.03392 -0.01111
C 7.42881 4.22533 -0.01275
C 7.41652 24.1645 0.00093
C 7.459 25.56455 0.01291
C 8.60477 26.38999 0.00438
C 8.58146 27.75882 -0.00191
C 6.13673 14.91953 -0.00892
C 6.14815 13.50562 -0.01362
C 4.94846 12.83328 -0.0008
C 4.89867 11.48548 0.0288
C 6.12005 10.70598 0.00393
C 6.14749 9.30365 0.00895
C 4.95314 8.54719 0.00685
C 4.84816 7.15645 0.02888
C 6.09426 6.42224 -0.00482
C 4.91555 17.02776 0.01572
C 6.23314 5.04367 -0.01384
C 4.88355 2.95708 0.01745
C 6.10788 2.19447 0.00488
C 6.11289 0.76759 -0.01004
C 4.89657 34.05775 -0.02896
C 7.32996 32.65472 -0.00131
C 8.51102 31.94296 -0.01118
C 8.62795 30.51115 -0.014
C 7.33272 29.89311 0.02147
C 7.31762 28.50302 0.00373
C 4.93936 4.33807 0.03693
C 18.43085 30.42594 -0.00652
C 17.20107 29.8169 0.0058
C 17.19971 28.39271 -0.00865
C 29.53586 4.30531 0.00716
C 29.47697 2.89708 0.00307
C 30.67154 2.13707 0.00346
C 30.68629 0.71845 0.01713
C 29.49399 34.02964 -0.01694
C 31.93215 32.72797 0.01428
C 33.16019 32.04032 -0.02142
C 33.16458 30.57112 0.0544
C 32.00038 29.77787 0.00026
C 31.95732 28.36621 0.00682
C 33.21967 27.7536 -0.01779
C 33.21288 26.31585 0.03794
C 31.98674 25.63773 0.01927
C 31.86824 24.18297 0.01574
C 33.12515 23.4319 -0.02383
C 33.06607 21.98582 -0.01429
C 31.8335 21.47597 -0.0136
C 33.30038 18.99422 0.00594
C 33.21019 17.8169 -0.02474
C 30.74126 4.96065 0.02108
C 30.74505 6.41229 0.0103
C 29.50341 7.10934 0.07705
C 29.57071 8.51478 0.01908
C 28.27971 4.96677 0.02326
C 27.07483 4.25901 0.00261
C 27.06643 2.84592 0.03265
C 28.26743 2.17829 -0.02049
C 28.29078 0.65126 -0.01854
C 27.05098 34.07841 -0.01415
C 29.50403 32.60264 -0.03039
C 30.76799 31.9659 0.01836
C 30.79207 30.49583 0.03531
C 31.95839 15.5889 0.00369
C 29.54659 29.72417 -0.00669
C 30.73456 27.63915 0.01705
C 30.66298 26.20007 -0.0405
C 29.53508 25.47063 -0.01303
C 30.65448 23.602 -0.01461
C 30.66689 13.45079 -0.02155
C 29.67949 12.77786 -0.00944
C 29.60196 11.35598 -0.03735
C 30.78589 10.61962 -0.00971
C 30.78403 9.24062 0.01518
C 29.53706 28.29069 0.0101
C 28.29555 6.37275 0.00924
C 33.13861 14.92719 0.00455
C 31.94951 12.76808 -0.01839
C 34.39243 19.8532 0.01951
C 1.19637 19.1846 -0.01678
C 1.2093 17.83653 0.01223
C 34.40044 17.09585 0.00648
C 0.04802 15.68496 0.02114
C 1.23325 14.97936 -0.02957
C 1.23447 13.5397 0.00343
C 0.00298 12.81273 -0.02656
C 0.04814 11.3629 -0.02442
C 1.2865 10.64712 -0.00027
C 1.27348 9.25985 -0.00583
C 34.43158 8.55978 -0.02302
C 34.3512 7.08784 -0.02849
C 1.16513 6.47175 0.02931
C 1.19787 5.00996 0.00628
C 34.37146 4.24986 -0.0345
C 34.39473 2.78768 -0.00931
C 1.21831 2.12445 -0.00939
C 1.2384 0.76349 -0.00468
C 34.36537 21.25561 -0.02213
C 1.18058 21.94794 0.02712
C 1.19997 23.40243 0.00723
C 34.39876 24.12627 0.03076
C 31.95002 11.40791 0.00137
C 33.21967 10.70072 0.00199
C 33.23811 9.27698 0.04381
C 32.01796 8.54497 0.02806
C 31.95636 7.07827 0.01504
C 33.15536 6.36967 -0.00069
C 33.17562 4.94076 0.04926
C 31.96419 4.21618 -0.03838
C 31.88205 2.79203 0.00349
C 33.15692 13.43045 -0.00644
C 33.16578 2.11863 -0.00323
C 31.93017 0.07044 0.0001
C 34.39463 32.74864 -0.02927
C 1.18064 31.98399 -0.01404
C 1.25818 30.57174 0.01027
C 0.02181 29.8773 0.01831
C 0.00858 28.41321 -0.01037
C 1.21861 27.70704 -0.00439
C 1.1967 26.23576 -0.00598
C 34.42632 25.52227 -0.05239
C 33.19194 0.78094 -0.00841
C 3.60069 32.01489 0.00402
C 27.07465 7.0706 0.0014
C 28.32891 9.24651 0.04266
C 17.12824 34.03534 -0.03213
C 19.68685 32.56672 0.02239
C 20.93978 32.02222 0.01153
C 20.80441 25.90131 0.02734
C 19.47055 25.52562 -0.0055
C 19.63946 24.18298 0.01515
C 19.60436 12.68773 -0.00225
C 19.6635 11.26809 0.00071
C 20.89293 10.653 -0.01107
C 20.88444 9.21626 -0.01586
C 19.68714 8.47481 -0.01971
C 19.72558 7.09409 -0.02118
C 20.90271 6.31571 0.00733
C 20.86074 4.92317 -0.00178
C 19.65005 4.21033 0.00768
C 19.66024 2.74172 -0.0276
C 20.92696 2.13896 0.03005
C 20.90084 0.71808 -0.04078
C 19.59773 0.00682 0.02117
C 18.29913 0.66799 -0.02845
C 18.40673 2.08922 0.03374
C 17.17219 2.78293 0.0296
C 17.2176 4.23639 0.03046
C 18.3711 27.66544 0.00675
C 18.2674 26.32946 -0.00311
C 17.10628 25.45547 0.00742
C 17.17139 24.09198 -0.01594
C 18.56952 23.28919 0.0106
C 18.47759 21.93512 -0.01154
C 17.37018 21.15777 -0.01721
C 17.17978 19.77798 -0.02422
C 17.16515 17.00369 0.01277
C 22.19272 32.59337 0.02737
C 17.24981 15.66151 0.00096
C 18.53399 13.59626 0.01087
C 17.24406 12.72382 0.00199
C 17.23781 11.26984 0.01511
C 18.47157 10.5829 -0.00478
C 18.43421 9.17088 -0.01662
C 17.26132 8.53804 -0.01185
C 17.11015 7.15781 0.01126
C 18.47541 6.38752 0.01852
C 18.42891 4.98041 -0.00381
C 18.36797 14.92143 -0.01527
C 27.08847 8.47484 0.01324
C 23.40934 31.90342 -0.00498
C 23.48189 27.53698 0.03102
C 24.56585 8.50142 0.00487
C 24.57393 7.06157 0.00826
C 25.85798 6.34223 -0.00294
C 25.81948 4.98563 0.00152
C 24.54422 4.31813 0.01257
C 24.57195 2.91899 0.02316
C 25.77326 2.17639 0.04185
C 25.80661 0.73669 0.00194
C 24.63039 34.0429 -0.00621
C 27.07994 32.67739 0.02611
C 28.33501 31.96228 0.02198
C 28.37535 30.535 0.01094
C 27.12504 29.84968 0.00235
C 27.106 28.38811 0.01495
C 28.26096 27.57328 0.01259
C 28.25838 26.05659 0.01799
C 26.87324 25.75459 0.01699
C 27.15764 11.21792 -0.00416
C 28.36065 10.64959 0.01177
C 25.81437 9.19657 -0.00942
C 25.85567 10.75593 -0.02815
C 24.59839 11.2174 0.00622
C 25.80887 26.20874 -0.0032
C 23.04568 26.47448 0.02555
C 21.98005 25.76611 0.01423
C 22.0726 11.2916 -0.00285
C 23.37479 10.67624 -0.009
C 23.30697 9.20517 -0.01199
C 22.0779 8.45353 -0.00229
C 22.03575 7.05213 -0.00938
C 23.31058 6.4063 -0.0264
C 23.2578 4.97314 -0.01154
C 23.43488 30.55387 0.00135
C 22.11046 4.24848 0.00684
C 23.31733 2.10706 -0.01679
C 23.37169 0.6442 0.00367
C 22.07675 34.0202 0.04306
C 24.68839 32.66472 0.00996
C 25.89679 32.03316 0.00195
C 25.91558 30.60226 -0.00802
C 24.59547 29.84463 -0.00218
C 24.57521 28.42422 -0.01654
C 25.78645 27.65903 -0.00037
C 22.1632 2.8599 -0.01052
C 2.40419 32.71797 0.02374
