355
Graphene
C 0.04478 0.04298 0.01295
C 11.07439 2.19787 -0.00368
C 11.02517 0.70675 -0.02696
C 9.76298 0.08708 -0.00114
C 12.35295 32.5158 0.00228
C 13.6115 32.15744 0.00798
C 12.2499 19.8936 0.00422
C 13.54031 19.29543 0.0351
C 13.55516 17.73205 -0.03113
C 9.86519 2.86779 -0.0108
C 12.33213 16.99051 0.02098
C 13.57328 14.83265 -0.00619
C 13.59166 13.48265 -0.02162
C 12.33093 12.8124 0.00889
C 12.3351 11.40379 -0.00481
C 13.55228 10.57745 0.00979
C 13.50574 9.22972 0.01443
C 12.30187 8.46834 0.03505
C 12.22061 7.02579 -0.02815
C 12.31463 15.571 0.01848
C 13.43591 6.2959 -0.04147
C 9.83822 4.14201 -0.01957
C 10.93032 6.33199 0.01965
C 8.52013 0.75134 0.00415
C 7.36736 0.002 -0.0014
C 9.8749 32.72679 0.02162
C 11.06808 32.11578 0.0076
C 9.71514 21.3053 0.01241
C 9.84441 19.96539 -0.01454
C 11.10565 19.2193 0.01945
C 11.11936 17.7585 0.01416
C 11.00332 4.87128 0.02058
C 9.8728 17.01641 0.03542
C 11.0979 14.90251 0.00244
C 11.12909 13.44279 -0.01717
C 9.86993 12.79586 0.05265
C 9.91978 11.29817 -0.01952
C 11.15036 10.5887 -0.02813
C 11.06116 9.1657 0.00374
C 9.88718 8.45649 0.00052
C 9.75699 6.95993 -0.03682
C 9.84617 15.70306 0.02299
C 13.52363 4.92247 -0.05302
C 12.24577 4.26256 0.00213
C 12.24924 2.88114 -0.00066
C 15.96929 2.161 0.00143
C 15.94039 0.7664 -0.017
C 14.72228 0.06146 0.00364
C 17.16905 32.59086 -0.00831
C 18.35896 31.89055 -0.02957
C 18.46504 30.4428 -0.04422
C 17.202 29.9424 0.00654
C 18.57914 27.66078 -0.00703
C 14.76734 2.85978 0.00667
C 18.39863 26.34022 -0.04076
C 18.37023 22.01765 0.0058
C 17.23256 21.19258 -0.00865
C 17.21286 19.92753 0.00675
C 18.42716 19.1375 -0.00311
C 18.4689 17.73985 0.00742
C 17.18108 17.0559 -0.01594
C 17.18709 15.58442 0.0106
C 18.42347 14.89381 -0.01154
C 18.53396 23.38001 -0.00652
C 14.72133 4.28467 -0.0054
C 15.95594 4.95299 0.00755
C 15.90406 6.42365 0.01739
C 13.54173 2.17882 -0.00289
C 13.45716 0.72427 0.00028
C 12.19403 34.06833 -0.02213
C 14.83566 32.79984 0.03698
C 15.90476 31.97379 -0.00109
C 16.01144 30.6039 -0.00491
C 14.75098 19.79873 0.03338
C 15.97932 19.18519 -0.0258
C 15.98377 17.77198 -0.0331
C 14.80861 17.05996 -0.00316
C 14.76517 15.65145 0.02188
C 15.99014 14.87133 -0.01979
C 16.05877 13.45702 0.02691
C 14.80192 12.73427 -0.01581
C 14.75053 11.3729 0.01452
C 15.94358 10.66575 0.04892
C 15.96643 9.24397 -0.00111
C 14.68626 8.48902 -0.03557
C 14.62155 7.07313 0.03754
C 8.50533 2.17897 -0.02162
C 18.53074 13.47606 -0.01721
C 7.24471 2.91662 0.01363
C 8.54466 4.92391 -0.00925
C 2.42299 7.14152 -0.00494
C 3.62225 6.47387 0.00054
C 3.64977 5.05215 0.03007
C 2.4208 4.27954 -0.00095
C 2.43762 2.8625 0.01572
C 3.746 2.11373 -0.04848
C 3.70191 0.77239 -0.00892
C 2.45263 0.05145 -0.01362
C 2.38438 8.52591 -0.00562
C 4.91645 32.65444 -0.0008
C 6.10409 30.56902 0.00393
C 4.85326 29.82686 0.00895
C 4.87975 28.43093 0.00685
C 6.11283 27.76816 0.02888
C 6.25035 26.36148 -0.00482
C 5.03285 25.55518 -0.01384
C 5.0323 24.24048 0.03693
C 6.28611 23.4591 0.01745
C 6.16533 31.92932 0.0288
C 6.18483 22.07004 0.00488
C 3.61725 9.25413 -0.01142
C 2.40959 11.40624 0.01396
C 3.60619 30.62293 0.01087
C 2.4227 29.85481 -0.01343
C 2.47921 28.42429 0.00988
C 3.63566 27.73245 0.0276
C 3.70414 26.25462 0.01305
C 2.50362 25.60745 -0.00077
C 2.4475 24.20905 0.03368
C 3.74374 23.49664 -0.02929
C 3.67647 10.75454 0.01849
C 3.68735 22.02321 -0.00966
C 2.41314 19.91731 0.01227
C 3.64929 19.25173 0.00873
C 3.68489 17.76022 -0.00049
C 2.42386 16.99903 0.00848
C 2.49282 15.59176 -0.01303
C 3.68681 14.92455 -0.01378
C 3.75595 13.51758 0.02635
C 2.43021 12.79477 0.0127
C 2.44095 21.32634 -0.03337
C 4.92857 21.3639 -0.01004
C 4.89967 19.88353 -0.02896
C 6.12339 19.21782 -0.00131
C 7.37127 25.60887 0.00943
C 7.36741 24.27089 0.02841
C 8.55454 21.98348 -0.01111
C 7.37034 21.28255 -0.01275
C 7.38612 19.8984 0.00985
C 8.63116 19.22465 -0.02245
C 8.62265 17.78111 -0.00428
C 7.39878 17.11176 0.03101
C 7.23215 28.43073 0.00406
C 7.42875 15.60405 -0.01536
C 8.69401 13.48426 -0.01046
C 7.38783 12.78207 -0.00891
C 7.3971 11.35047 0.02819
C 8.66343 10.53072 0.00165
C 8.67436 9.20857 -0.02971
C 7.35096 8.50226 0.02894
C 7.35812 7.08492 -0.01789
C 8.5638 6.32187 0.00444
C 8.64274 14.91485 -0.02689
C 7.52948 29.7336 0.03592
C 8.56197 30.60993 0.00572
C 8.65697 32.03827 0.0402
C 6.15967 17.71116 -0.01118
C 4.9028 17.04537 -0.014
C 4.92531 15.60819 0.02147
C 6.23197 14.93868 0.00373
C 6.16229 13.49653 -0.00191
C 4.90941 12.7767 0.00438
C 4.8879 11.39965 0.01291
C 6.21365 10.7018 0.00093
C 6.08423 9.31879 0.00057
C 4.82444 8.62028 -0.01634
C 4.82724 7.21365 -0.00334
C 6.02671 6.48155 0.02339
C 6.05471 5.04273 0.01641
C 4.87317 4.33516 -0.00719
C 4.86815 2.93319 0.01364
C 6.09224 2.21948 -0.01062
C 6.06859 0.7535 -0.00033
C 4.87729 0.03813 0.03589
C 7.37262 32.73187 -0.02759
C 7.24961 4.29841 0.01877
C 3.64744 31.97513 -0.05697
C 17.2928 12.7828 -0.02422
C 18.48116 10.63151 0.00096
C 29.45068 21.23282 0.01713
C 29.52108 19.88523 -0.01694
C 30.66707 19.15714 0.01428
C 29.14212 7.15625 -0.02142
C 30.80579 0.79618 0.0544
C 29.51651 0.03884 0.00026
C 31.92296 32.67673 0.00682
C 33.19664 31.95791 -0.01779
C 30.68672 22.00891 0.00346
C 33.19657 30.57342 0.03794
C 31.9141 28.49009 0.01574
C 33.13519 27.699 -0.02383
C 33.13969 26.27193 -0.01429
C 31.95516 25.60526 -0.0136
C 31.9113 24.10377 0.00594
C 33.22215 23.44662 -0.02474
C 33.12776 21.9744 0.00369
C 31.88191 21.33423 0.00455
C 31.98022 29.9 0.01927
C 31.90763 19.81562 -0.00644
C 30.68304 23.43391 0.00307
C 29.52883 25.58559 0.02108
C 27.0134 24.10355 -0.01415
C 28.26793 23.45854 -0.03039
C 28.2352 22.04753 0.01836
C 27.03881 21.27223 0.03531
C 27.20217 19.97832 -0.00669
C 28.29165 6.0344 0.0101
C 27.20964 4.44155 0.01705
C 27.26634 2.90292 -0.0405
C 29.51696 24.15743 0.00716
C 28.32199 2.05763 -0.01303
C 27.07532 34.04872 -0.02155
C 29.57544 32.75672 -0.00944
C 30.73682 31.94493 -0.03735
C 30.69837 30.49594 -0.00971
C 29.55498 29.80036 0.01518
C 29.47251 28.36214 0.01908
C 30.7277 27.72553 0.07705
C 30.75525 26.28663 0.0103
C 28.28197 0.72192 -0.01461
C 33.13106 19.0994 -0.01839
C 33.00626 17.69862 0.00137
C 31.93366 16.93831 0.00199
C 1.24793 19.12829 -0.01678
C 1.24777 17.72331 0.01223
C 34.41734 16.97203 0.00648
C 34.41667 15.61364 0.02114
C 1.19114 14.95005 -0.02957
C 1.13998 13.51543 0.00343
C 34.37588 12.7722 -0.02656
C 0.00883 11.42384 -0.02442
C 34.36459 19.88212 0.01951
C 1.24415 10.674 -0.00027
C 34.35017 8.51489 -0.02302
C 34.326 7.02367 -0.02849
C 1.17344 6.40954 0.02931
C 1.20579 4.97836 0.00628
C 34.34159 4.43881 -0.0345
C 34.2513 2.97942 -0.00931
C 1.1985 2.2589 -0.00939
C 1.22261 0.77126 -0.00468
C 1.21689 9.2227 -0.00583
C 34.35975 21.30159 -0.02213
C 1.18819 22.07398 0.02712
C 1.21567 23.4462 0.00723
C 33.32936 14.8168 0.04381
C 33.19165 13.48939 0.02806
C 33.28688 10.72058 0.01504
C 33.10709 9.34754 -0.00069
C 32.22716 8.31695 0.04926
C 31.88964 7.12075 -0.03838
C 33.06291 6.32856 0.00349
C 33.24127 2.11008 -0.00323
C 33.16065 0.72997 -0.00841
C 31.99755 0.04588 0.0001
C 0.0062 32.69969 -0.02927
C 1.12867 31.9841 -0.01404
C 1.1752 30.5196 0.01027
C 34.37508 29.81741 0.01831
C 34.31083 28.34986 -0.01037
C 1.16267 27.68231 -0.00439
C 1.19498 26.29768 -0.00598
C 34.35963 25.57843 -0.05239
C 0.01968 24.15917 0.03076
C 27.06267 25.50497 -0.01854
C 17.17585 11.35458 0.01277
C 28.22295 26.26741 -0.02049
C 27.04601 28.47948 0.00261
C 19.67451 19.84164 -0.01107
C 20.96414 19.25809 -0.01586
C 20.79232 17.92539 -0.01971
C 19.85234 16.98243 -0.02118
C 19.53407 15.67462 0.00733
C 19.65821 12.67137 -0.00178
C 19.55711 11.3694 0.00768
C 20.87247 9.22067 -0.0276
C 19.6803 21.30825 0.00071
C 19.73592 8.52686 0.03005
C 20.89825 6.47072 0.02117
C 20.90026 4.97394 0.02737
C 19.68845 4.21671 -0.00498
C 19.66998 2.80415 0.00135
C 21.0145 2.14171 0.03102
C 20.9442 0.66461 0.02555
C 19.65767 0.00113 0.01423
C 21.99147 32.58572 -0.00285
C 19.68092 7.08732 -0.04078
C 23.19303 31.91591 -0.009
C 20.92851 21.9705 -0.00225
C 19.68775 24.03186 -0.0055
C 18.41869 9.27072 -0.01527
C 17.16505 8.53315 0.01087
C 17.12263 7.0712 0.00199
C 18.44408 6.31687 0.01511
C 18.42353 4.90583 -0.00478
C 17.18636 4.25392 -0.01662
C 17.17966 2.85763 -0.01185
C 18.40951 2.15228 0.01126
C 20.90916 23.37462 0.01515
C 18.45512 0.7089 0.01852
C 19.57813 32.59716 0.03046
C 20.76443 31.83872 0.0296
C 20.88765 30.43997 0.03374
C 19.71482 29.72629 -0.02845
C 19.64297 28.38562 -0.03213
C 20.80711 27.61211 0.02239
C 20.77341 26.19639 0.01153
C 19.52265 25.54637 0.02734
C 17.21533 0.02744 -0.00381
C 23.37819 30.49416 -0.01199
C 22.13535 29.73912 -0.00229
C 22.11826 28.3017 -0.00938
C 25.76037 26.28119 0.04185
C 24.55229 25.54695 0.00194
C 24.56408 24.19341 -0.00621
C 25.81099 23.4055 0.02611
C 25.7738 21.94589 0.02198
C 24.58689 21.24957 0.01094
C 24.79027 19.80502 0.00235
C 25.79479 6.28419 0.01495
C 25.84308 27.73053 0.02316
C 25.88779 4.89548 0.01259
C 24.67851 2.79415 0.01699
C 25.9233 2.12387 -0.00416
C 25.86071 0.72396 0.01177
C 24.53066 0.04474 0.04266
C 27.00628 32.65119 0.01324
C 28.30644 31.98794 0.0014
C 28.34563 30.52773 0.00924
C 27.07662 29.8862 0.02326
C 24.64597 4.22341 0.01799
C 24.62864 28.42461 0.01257
C 24.59543 29.8336 0.00152
C 25.82719 30.58799 -0.00294
C 23.40142 27.63906 -0.0264
C 23.29012 26.21566 -0.01154
C 22.02221 25.56757 0.00684
C 22.1294 24.19176 -0.01052
C 23.35526 23.43802 -0.01679
C 23.41781 21.93056 0.00367
C 22.21506 21.30487 0.04306
C 22.26674 19.81959 0.00996
C 23.51364 19.35234 0.00195
C 22.12699 7.07928 -0.00802
C 23.23234 6.26616 -0.00218
C 23.46362 4.89944 -0.01654
C 22.17722 4.37119 -0.00037
C 22.07976 2.8797 -0.0032
C 23.4267 2.08759 0.00622
C 23.28218 0.70248 -0.02815
C 22.0722 34.00708 -0.00942
C 24.51517 32.71057 0.00487
C 25.80078 32.03423 0.00826
C 28.27928 27.67956 0.03265
C 2.37805 32.6829 -0.00725
