311
Graphene
C 0.02981 0.00407 0.01295
C 13.60571 31.95605 -0.00316
C 13.53562 30.55211 0.02188
C 12.31412 29.96138 -0.01979
C 13.60029 9.1735 0.02691
C 12.36523 8.62335 -0.01581
C 12.33963 7.18144 0.01452
C 13.45083 6.33836 0.04892
C 13.44152 4.84041 -0.00111
C 12.25069 4.1604 -0.03557
C 12.31266 2.67744 0.03754
C 13.57212 2.12982 0.01739
C 13.54414 0.72601 0.00755
C 12.28337 34.01721 -0.0054
C 14.76681 32.70781 0.00667
C 16.00991 32.04199 0.00143
C 12.30319 32.64722 -0.0331
C 9.73153 0.00128 -0.0258
C 11.07074 0.56437 0.03338
C 11.10168 1.9931 -0.00491
C 8.61455 2.08474 -0.02162
C 8.55365 0.6672 0.00889
C 7.40336 33.99431 -0.00481
C 9.71943 32.66112 0.00979
C 10.95265 32.00044 0.01443
C 11.08521 30.51964 0.03505
C 9.82118 29.96264 -0.02815
C 16.04631 30.59366 -0.017
C 9.92201 11.32543 -0.04147
C 11.10677 9.29495 0.00213
C 9.80721 8.58528 -0.00066
C 9.83968 7.10381 -0.00289
C 11.07692 6.48075 0.00028
C 11.05352 5.00646 -0.02213
C 9.89282 4.21984 0.03698
C 9.89702 2.78273 -0.00109
C 10.93619 10.6746 -0.05302
C 7.37737 2.80851 -0.00619
C 14.78821 29.78455 0.00364
C 15.8252 27.71522 -0.02957
C 17.21372 7.09252 0.01511
C 18.37879 6.358 -0.00478
C 18.4254 4.95449 -0.01662
C 17.23823 4.19674 -0.01185
C 17.23572 2.84073 0.01126
C 18.52395 2.15262 0.01852
C 18.39462 0.77826 -0.00381
C 17.20983 0.09959 0.03046
C 19.63382 32.64302 0.0296
C 20.91106 31.93943 0.03374
C 20.89236 30.52697 -0.02845
C 19.6873 29.83432 -0.03213
C 19.65054 28.364 0.02239
C 20.86379 27.70701 0.01153
C 20.90248 26.3043 0.02734
C 17.27681 8.64617 0.00199
C 18.5477 9.32726 0.01087
C 18.50053 23.39374 -0.01527
C 18.49477 26.31811 0.00096
C 16.04521 9.11363 -0.04422
C 14.80446 8.50925 0.00654
C 14.70636 7.04756 -0.00703
C 15.92007 6.35963 -0.04076
C 15.97737 4.88998 -0.00652
C 14.75715 4.27531 0.0058
C 14.79638 2.86795 -0.00865
C 14.8576 28.38765 -0.00831
C 15.99757 2.17118 0.00675
C 14.77008 0.01147 0.00742
C 17.17832 32.80002 -0.01594
C 18.40814 31.98062 0.0106
C 18.47305 30.51075 -0.01154
C 17.25006 29.81046 -0.01721
C 17.20797 28.36647 -0.02422
C 18.42012 27.69229 0.01277
C 15.95758 0.7922 -0.00311
C 19.58785 25.57088 -0.0055
C 7.40232 4.24804 0.01848
C 8.61823 6.36218 -0.03113
C 3.69707 9.28417 0.00572
C 2.46117 8.54211 0.03592
C 2.40405 7.13443 0.00406
C 3.59291 6.43321 0.00943
C 3.65153 4.98824 0.02841
C 2.45868 4.26012 -0.01111
C 2.44757 2.80655 -0.01275
C 3.71171 2.16229 0.00985
C 3.75586 0.69132 -0.02245
C 2.51341 34.05871 -0.00428
C 4.90029 32.58374 0.03101
C 6.12385 31.88643 -0.01536
C 6.1429 30.464 -0.02689
C 4.86721 29.7655 -0.01046
C 4.88753 28.41886 -0.00891
C 3.73859 10.69042 0.0402
C 2.45341 11.37971 -0.02759
C 2.46096 12.80037 0.03589
C 3.68531 13.50435 -0.00033
C 3.64758 30.57893 -0.01118
C 2.49912 29.79289 -0.014
C 2.44573 28.37227 0.02147
C 3.70254 27.70072 0.00373
C 3.62786 26.28714 -0.00191
C 2.38057 25.59194 0.00438
C 2.51063 24.15838 0.01291
C 6.26065 27.71684 0.02819
C 3.68484 23.43771 0.00093
C 2.43718 21.33664 -0.01634
C 2.44475 19.95683 -0.00334
C 3.63542 19.2136 0.02339
C 3.67215 17.79992 0.01641
C 2.4205 17.06828 -0.00719
C 2.45472 15.63358 0.01364
C 3.62581 14.88034 -0.01062
C 3.67942 22.01734 0.00057
C 8.60357 4.92234 0.02098
C 6.17366 26.31789 0.00165
C 4.82514 24.16624 0.02894
C 4.96843 33.99028 -0.02813
C 7.28335 32.62178 0.00374
C 8.54864 32.00418 0.00052
C 8.5737 30.5431 -0.03682
C 7.41328 29.79222 0.01965
C 7.49063 28.46235 0.02058
C 7.32175 16.87501 -0.01957
C 7.4531 15.71295 -0.0108
C 8.592 13.39705 -0.00368
C 7.43765 12.76049 -0.02696
C 7.34536 11.327 -0.00114
C 8.60493 10.76025 0.00228
C 8.56885 9.35168 0.00798
C 7.38515 8.49894 0.00422
C 7.35826 7.10534 0.0351
C 6.21767 0.65288 -0.01952
C 6.17489 2.11593 0.05265
C 4.9683 2.88948 -0.01717
C 4.89224 4.33443 0.00244
C 4.81753 21.27766 -0.01789
C 4.97461 19.92124 0.00444
C 6.04256 19.10513 -0.00925
C 6.28198 17.82553 0.01877
C 4.88098 17.0797 0.01363
C 4.91618 15.67756 -0.02162
C 6.27749 14.93852 0.00415
C 4.96698 25.53575 -0.02971
C 6.1916 13.53833 -0.0014
C 4.95964 11.42726 0.0076
C 6.11666 10.55184 0.01241
C 6.0631 9.1619 -0.01454
C 4.83777 8.46132 0.01945
C 4.82846 7.02857 0.01416
C 6.09691 6.37554 0.03542
C 6.1245 4.94636 0.02299
C 4.94812 12.8331 0.02162
C 3.65716 31.91493 -0.00131
C 19.57572 24.01539 0.01515
C 20.84028 22.08275 0.00071
C 33.20153 26.33563 0.01927
C 32.0241 25.59069 0.01574
C 31.9778 24.14165 -0.02383
C 33.22506 23.42804 -0.01429
C 33.25599 22.0329 -0.0136
C 31.88091 21.31616 0.00594
C 32.02161 19.95719 -0.02474
C 33.1615 19.1858 0.00369
C 33.30953 17.81402 0.00455
C 33.20175 14.83713 -0.00644
C 33.34889 13.64584 -0.01839
C 31.78387 11.42651 0.00137
C 33.14134 10.80109 0.00199
C 33.15718 9.30106 0.04381
C 31.91589 8.60416 0.02806
C 33.19236 27.69119 0.03794
C 31.97433 28.41472 -0.01779
C 31.98093 29.8047 0.00682
C 33.15145 30.55175 0.00026
C 29.48864 24.2433 -0.00944
C 30.73276 23.4196 -0.03735
C 30.62444 22.0919 -0.00971
C 30.79597 10.76129 0.01518
C 30.66919 9.27908 0.01908
C 29.47675 8.56981 0.07705
C 29.48275 7.15946 0.0103
C 31.93055 7.12595 0.01504
C 30.66774 6.40346 0.02108
C 29.48012 4.25326 0.00307
C 29.4344 2.8322 0.00346
C 30.72142 2.11576 0.01713
C 30.71038 0.70895 -0.01694
C 29.48893 34.07738 0.01428
C 31.84935 32.70527 -0.02142
C 33.06914 31.99785 0.0544
C 30.72906 4.96906 0.00716
C 29.52574 25.62774 -0.02155
C 33.11937 6.37683 -0.00069
C 31.9456 4.20955 -0.03838
C 34.40506 15.61095 0.02114
C 1.21396 14.91805 -0.02957
C 1.23719 13.49554 0.00343
C 34.431 12.86655 -0.02656
C 34.42415 11.39057 -0.02442
C 1.19506 10.64642 -0.00027
C 1.19156 9.26386 -0.00583
C 34.39247 8.57158 -0.02302
C 34.33892 7.11204 -0.02849
C 1.18798 6.40267 0.02931
C 1.24673 4.9561 0.00628
C 0.00105 4.25396 -0.0345
C 34.42812 2.82321 -0.00931
C 1.18788 2.13697 -0.00939
C 1.22266 0.75246 -0.00468
C 34.39926 17.03733 0.00648
C 1.23026 17.77775 0.01223
C 1.24599 19.18434 -0.01678
C 0.08412 19.93432 0.01951
C 31.95437 2.71769 0.00349
C 33.22884 2.10492 -0.00323
C 33.24362 0.7068 -0.00841
C 31.95516 0.01193 0.0001
C 34.39021 32.66484 -0.02927
C 1.21617 31.89816 -0.01404
C 1.20546 30.52236 0.01027
C 33.20457 4.94478 0.04926
C 34.42297 29.83696 0.01831
C 1.20829 27.69857 -0.00439
C 1.1576 26.24959 -0.00598
C 34.40846 25.52506 -0.05239
C 0.04329 24.13429 0.03076
C 1.25713 23.45287 0.00723
C 1.28244 22.05092 0.02712
C 0.06235 21.36389 -0.02213
C 34.41797 28.37011 -0.01037
C 20.90409 23.33923 -0.00225
C 30.81875 26.27832 -0.01461
C 29.47045 28.37064 -0.0405
C 23.33789 23.42463 -0.00229
C 23.45135 9.15473 -0.00938
C 22.16555 8.66063 -0.0264
C 22.09981 7.17616 -0.01154
C 23.35432 6.45863 0.00684
C 23.38358 5.05737 -0.01052
C 22.0924 4.31962 -0.01679
C 22.1274 2.87763 0.00367
C 23.3047 2.14754 0.04306
C 23.3917 0.75475 0.00996
C 22.13621 0.02155 0.00195
C 24.58979 32.65089 -0.00802
C 25.86095 31.98688 -0.00218
C 25.82268 30.59723 -0.01654
C 24.6131 29.90726 -0.00037
C 22.1366 24.06212 -0.01199
C 22.06511 25.51219 -0.009
C 23.30391 26.26408 -0.00285
C 23.40206 27.6944 0.01423
C 20.69195 10.55656 -0.01107
C 20.80914 9.23536 -0.01586
C 19.61046 8.43687 -0.01971
C 19.64575 7.03287 -0.02118
C 20.91295 6.4376 0.00733
C 20.88094 5.03459 -0.00178
C 19.65742 4.31807 0.00768
C 24.61463 28.44104 -0.0032
C 19.67651 2.88786 -0.0276
C 20.88123 0.74144 -0.04078
C 19.63206 34.0613 0.02117
C 22.14414 32.62861 0.02737
C 23.3503 31.88432 -0.00498
C 23.37311 30.50126 0.00135
C 22.14358 29.82867 0.03102
C 22.18837 28.45318 0.02555
C 20.88658 2.15615 0.03005
C 30.75329 27.68255 -0.01303
C 25.82092 27.66398 0.00622
C 24.51905 25.54819 -0.00942
C 28.36157 23.5008 0.01324
C 28.16056 9.08082 0.0014
C 27.17674 8.51352 0.00924
C 26.94203 7.13151 0.02326
C 28.26245 6.43155 0.00261
C 28.27074 4.98654 0.03265
C 27.09105 4.26141 -0.02049
C 26.99641 2.74802 -0.01854
C 28.25311 2.10559 -0.01415
C 28.26724 0.727 -0.03039
C 27.12113 34.07613 0.01836
C 29.47818 32.64637 0.03531
C 30.6369 31.93504 -0.00669
C 30.73127 30.47988 0.0101
C 29.43665 29.80984 0.01705
C 26.99595 24.0312 0.04266
C 27.09116 25.53499 0.01177
C 28.28588 26.28192 -0.00416
C 28.28562 27.68017 0.01699
C 24.59297 23.98884 0.00487
C 25.82269 23.39007 0.00826
C 24.42914 8.47482 -0.00294
C 24.60303 7.11398 0.00152
C 25.79549 6.32149 0.01257
C 25.88965 4.94027 0.02316
C 24.59004 4.2901 0.04185
C 25.77312 26.26857 -0.02815
C 24.55013 2.84909 0.00194
C 25.83279 0.61589 0.02611
C 24.58552 34.07341 0.02198
C 27.10102 32.67973 0.01094
C 28.23391 31.86581 0.00235
C 28.18008 30.46445 0.01495
C 26.94368 29.74571 0.01259
C 27.03859 28.34106 0.01799
C 25.77517 2.04101 -0.00621
C 2.43105 32.62905 -0.02896
