383
Graphene
C 0.01376 0.05377 0.01295
C 11.11604 4.94942 0.0076
C 9.80152 4.3323 0.01241
C 9.82945 2.90547 -0.01454
C 11.11149 2.13763 0.01945
C 11.12755 0.74689 0.01416
C 9.87915 0.05764 0.03542
C 12.23189 32.61908 0.02299
C 13.49208 31.91736 0.00244
C 13.49749 30.41024 -0.01717
C 11.06201 6.36527 0.02162
C 12.31309 29.8336 0.05265
C 13.63803 27.68161 -0.02813
C 12.32495 25.54804 0.00374
C 12.34764 17.01832 0.00052
C 12.26262 15.70831 -0.03682
C 13.5269 14.87154 0.01965
C 13.51916 13.39971 0.02058
C 12.23714 12.69943 -0.01957
C 12.36372 11.27975 -0.0108
C 13.50205 10.5718 -0.00368
C 12.3063 28.43048 -0.01952
C 13.54083 9.17201 -0.02696
C 9.80776 7.18676 -0.0014
C 10.96903 9.32931 -0.02162
C 11.11276 30.57153 0.02841
C 9.88796 29.87027 -0.01111
C 9.87146 28.40607 -0.01275
C 11.06701 27.72781 0.00985
C 11.09503 26.26549 -0.02245
C 9.81599 25.58441 -0.00428
C 9.88181 24.19911 0.03101
C 11.07177 23.43947 -0.01536
C 11.0309 22.17537 -0.02689
C 9.80697 8.62304 0.00415
C 9.9023 21.21003 -0.01046
C 11.06894 19.17942 0.02819
C 11.18324 17.80989 0.00165
C 9.93039 17.02071 -0.02971
C 9.8247 15.58184 0.02894
C 11.06025 14.93298 -0.01789
C 11.05329 13.45783 0.00444
C 9.7685 12.75348 -0.00925
C 9.88339 11.35158 0.01877
C 11.15128 10.65587 0.01363
C 9.87022 19.85692 -0.00891
C 11.07529 31.98936 0.00943
C 12.22606 8.62467 -0.00114
C 13.48734 6.4465 0.00798
C 15.95185 2.03551 -0.0258
C 16.00733 0.66837 -0.0331
C 14.77355 0.02691 -0.00316
C 17.24154 32.65265 0.02188
C 18.38641 31.99722 -0.01979
C 18.42916 30.51301 0.02691
C 17.2006 29.82451 -0.01581
C 18.50897 13.56483 0.01452
C 17.26211 12.78168 0.04892
C 14.78118 2.8037 0.03338
C 17.20946 11.31963 -0.00111
C 18.47526 9.1526 0.03754
C 17.17045 8.50983 0.01739
C 17.21161 7.06502 0.00755
C 18.46835 6.33363 -0.0054
C 18.44775 4.91989 0.00667
C 17.1699 4.29152 0.00143
C 17.14867 2.84257 -0.017
C 18.39145 2.1546 0.00364
C 18.39697 0.79066 -0.00831
C 18.4786 10.66642 -0.03557
C 12.25556 7.14246 0.00228
C 14.76654 4.22295 -0.00491
C 15.97587 6.34526 0.03698
C 13.55199 4.9841 0.00422
C 12.32227 4.28668 0.0351
C 12.36206 2.86267 -0.03113
C 13.52417 2.11685 0.02098
C 13.50204 0.67976 0.01848
C 12.26503 34.03388 -0.00619
C 14.73413 32.66885 -0.02162
C 16.01815 31.99033 0.00889
C 15.9612 30.52897 -0.00481
C 15.95253 4.97958 -0.00109
C 14.73419 29.81568 0.00979
C 14.80889 15.50689 0.03505
C 15.78572 14.93259 -0.02815
C 16.02594 13.52422 -0.04147
C 14.817 12.74134 -0.05302
C 14.73932 11.32809 0.00213
C 15.96916 10.58638 -0.00066
C 15.96006 9.19023 -0.00289
C 14.74572 8.45235 0.00028
C 14.71569 7.06793 -0.02213
C 14.69598 28.32283 0.01443
C 17.27313 0.00394 -0.02957
C 9.82474 32.73864 0.00406
C 8.64121 0.68474 0.00572
C 3.61997 4.9746 -0.00094
C 2.434 4.27345 0.02322
C 2.47823 2.90574 -0.00725
C 3.71016 2.09271 -0.05697
C 3.6467 0.72177 0.01087
C 2.41653 0.02771 -0.01343
C 4.83663 32.6985 0.00988
C 6.12476 32.00114 0.0276
C 6.13405 30.61279 0.01305
C 3.6798 6.34533 -0.02566
C 4.91545 29.89716 -0.00077
C 6.1383 27.72244 -0.02929
C 6.10028 26.29506 -0.00966
C 4.87334 25.63792 -0.03337
C 4.93673 24.18314 0.01227
C 6.13627 23.41377 0.00873
C 6.12354 22.01043 -0.00049
C 4.89047 21.33392 0.00848
C 4.957 19.82908 -0.01303
C 6.2543 19.18399 -0.01378
C 4.90538 28.41935 0.03368
C 6.24675 17.77144 0.02635
C 2.43654 7.08614 -0.03113
C 3.6349 9.214 -0.00643
C 3.63886 30.62617 -0.003
C 2.47053 29.83529 0.01402
C 2.47969 28.38984 0.02379
C 3.67853 27.71472 0.00907
C 3.68648 26.29362 0.00643
C 2.4562 25.49796 -0.01509
C 2.46458 24.11526 0.03267
C 3.62833 23.39816 0.02374
C 3.63357 22.07723 0.00402
C 2.40602 8.53934 0.017
C 2.43 21.31508 0.0073
C 3.75724 19.18582 0.03828
C 3.69227 17.69764 0.01226
C 2.52795 17.0473 -0.00279
C 2.46795 15.69338 0.01996
C 3.68933 14.95995 -0.03996
C 3.6602 13.48411 0.01465
C 2.42079 12.72316 -0.00074
C 2.44453 11.32317 -0.00518
C 3.69246 10.61464 0.0086
C 2.48854 19.85753 0.0174
C 7.39092 0.02547 0.03592
C 4.97056 17.09844 0.0127
C 6.07112 14.91118 0.01849
C 8.68765 22.03146 -0.01118
C 7.47401 21.31512 -0.014
C 7.44063 19.93805 0.02147
C 8.57449 19.06806 0.00373
C 8.62605 17.68876 -0.00191
C 7.35 17.01946 0.00438
C 7.33449 15.55883 0.01291
C 8.56278 14.89473 0.00093
C 8.58376 13.52093 0.00057
C 8.60835 23.46425 -0.00131
C 7.41025 12.76112 -0.01634
C 8.6072 10.70489 0.02339
C 8.5835 9.30917 0.01641
C 7.40675 8.54721 -0.00719
C 7.35794 7.10511 0.01364
C 8.60272 6.41462 -0.01062
C 8.63429 5.0457 -0.00033
C 7.37908 4.28002 0.03589
C 7.34759 2.88496 -0.02759
C 8.65385 2.10803 0.0402
C 7.3871 11.41511 -0.00334
C 4.90373 15.69227 0.01396
C 7.41836 24.19612 -0.02896
C 8.53583 26.34184 0.00488
C 6.11551 13.52272 -0.01142
C 4.94198 12.80476 -0.00562
C 4.89637 11.37573 -0.00494
C 6.16672 10.68595 0.00054
C 6.18875 9.23303 0.03007
C 4.91314 8.52239 -0.00095
C 4.87979 7.12461 0.01572
C 6.10799 6.45969 -0.04848
C 6.12881 5.00997 -0.00892
C 7.30451 25.59478 -0.01004
C 4.86539 4.32849 -0.01362
C 6.12324 2.13587 0.0288
C 6.13895 0.70771 0.00393
C 4.85584 0.06835 0.00895
C 7.33695 32.70526 0.00685
C 8.63501 32.03189 0.02888
C 8.62211 30.47852 -0.00482
C 7.36121 29.86148 -0.01384
C 7.32878 28.40086 0.03693
C 8.6201 27.74989 0.01745
C 4.88599 2.88058 -0.0008
C 3.5663 31.99585 0.00031
C 19.62383 32.67687 -0.04422
C 20.87897 30.395 -0.00703
C 29.4995 4.33905 0.0103
C 29.4573 2.83204 0.02108
C 30.7505 2.18791 0.00716
C 30.72628 0.68447 0.00307
C 29.47568 34.0715 0.00346
C 31.98908 32.68159 0.01713
C 33.22753 31.96747 -0.01694
C 33.22423 30.57544 0.01428
C 31.95896 29.82621 -0.02142
C 30.72375 4.96824 0.07705
C 31.93894 28.39728 0.0544
C 33.1267 26.36121 0.00682
C 31.99739 25.55378 -0.01779
C 32.01131 24.08011 0.03794
C 33.26512 23.40438 0.01927
C 33.18865 22.04425 0.01574
C 31.94534 21.33517 -0.02383
C 31.98313 19.89943 -0.01429
C 33.18752 19.16332 -0.0136
C 33.24364 17.73852 0.00594
C 33.16151 27.7389 0.00026
C 32.02754 17.05431 -0.02474
C 30.73748 6.33115 0.01908
C 29.5463 8.49605 -0.00971
C 29.54289 29.85701 0.0014
C 29.52763 28.44704 0.00924
C 30.73106 27.64135 0.02326
C 30.70264 26.24031 0.00261
C 29.52918 25.47097 0.03265
C 29.44558 24.08463 -0.02049
C 30.71163 23.43953 -0.01854
C 30.7303 22.0008 -0.01415
C 29.46369 21.30229 -0.03039
C 29.48848 7.09088 0.01518
C 29.51637 19.83644 0.01836
C 30.77741 17.74973 -0.00669
C 29.53887 17.0522 0.0101
C 29.6011 15.59737 0.01705
C 30.76215 14.8352 -0.0405
C 30.76469 13.47446 -0.01303
C 29.55523 12.73727 -0.01461
C 29.50302 11.35015 -0.02155
C 30.75348 10.64958 -0.00944
C 30.73766 9.20433 -0.03735
C 30.75747 19.15802 0.03531
C 30.78874 30.58797 0.01324
C 31.97748 15.62196 0.00369
C 33.24602 13.5278 -0.00644
C 34.36976 21.30213 -0.02213
C 34.43049 19.88724 0.01951
C 1.21253 19.17149 -0.01678
C 1.26595 17.81189 0.01223
C 0.03466 17.0345 0.00648
C 34.41987 15.57186 0.02114
C 1.24189 14.96189 -0.02957
C 1.24708 13.50994 0.00343
C 0.04346 12.85899 -0.02656
C 1.17084 21.92246 0.02712
C 34.39961 11.3435 -0.02442
C 1.19178 9.2637 -0.00583
C 0.04074 8.51988 -0.02302
C 34.34993 7.06921 -0.02849
C 1.16176 6.38672 0.02931
C 1.17754 4.90598 0.00628
C 34.36528 4.22855 -0.0345
C 34.39021 2.74793 -0.00931
C 1.24055 2.20351 -0.00939
C 1.23746 0.79041 -0.00468
C 1.2137 10.64702 -0.00027
C 33.19633 14.89429 0.00455
C 1.18317 23.37835 0.00723
C 34.34916 25.60305 -0.05239
C 32.01337 12.78334 -0.01839
C 32.00639 11.32733 0.00137
C 33.20494 10.64286 0.00199
C 33.18804 9.26058 0.04381
C 31.9534 8.59431 0.02806
C 31.95451 7.1628 0.01504
C 33.12815 6.4159 -0.00069
C 33.16476 4.97913 0.04926
C 31.96622 4.31926 -0.03838
C 0.02143 24.17405 0.03076
C 31.98176 2.84271 0.00349
C 33.16769 0.65918 -0.00841
C 31.93695 34.04207 0.0001
C 34.42038 32.71793 -0.02927
C 1.17544 32.00736 -0.01404
C 1.21037 30.48558 0.01027
C 0.00331 29.79739 0.01831
C 34.3732 28.37059 -0.01037
C 1.23351 27.74116 -0.00439
C 1.24392 26.27202 -0.00598
C 33.12061 2.03795 -0.00323
C 20.85512 31.95098 0.00654
C 30.74525 31.9836 0.04266
C 26.99922 33.98661 -0.00416
C 23.38004 10.64522 0.03046
C 23.39875 9.18531 0.0296
C 22.17522 8.50681 0.03374
C 22.1853 7.12306 -0.02845
C 23.35417 6.37841 -0.03213
C 23.36982 4.87996 0.02239
C 22.08127 4.23524 0.01153
C 22.10347 2.8332 0.02734
C 23.35504 2.16032 -0.0055
C 22.19304 11.31579 -0.00381
C 23.33201 0.7606 0.01515
C 24.48984 32.65377 0.00071
C 25.71978 31.91962 -0.01107
C 25.80671 30.45094 -0.01586
C 24.54518 29.7887 -0.01971
C 24.64568 28.43299 -0.02118
C 25.79184 27.64115 0.00733
C 25.68881 26.28294 -0.00178
C 25.73552 19.11041 0.00768
C 25.79193 17.74541 -0.0276
C 22.15171 34.07143 -0.00225
C 24.68259 16.97122 0.03005
C 22.20065 12.69241 0.01852
C 23.36696 14.82472 -0.01185
C 19.60765 29.85646 -0.04076
C 21.02528 14.78102 -0.00652
C 20.89436 13.46188 0.0058
C 19.63091 12.82331 -0.00865
C 19.73219 11.28022 0.00675
C 21.00903 10.56845 -0.00311
C 20.89456 9.16107 0.00742
C 19.67211 8.49381 -0.01594
C 19.69797 7.08256 0.0106
C 23.36885 13.47551 0.01126
C 20.97255 6.40985 -0.01154
C 19.65815 4.24768 -0.02422
C 19.66809 2.86605 0.01277
C 20.92933 2.1234 0.00096
C 20.96999 0.69759 -0.01527
C 19.69926 0.08063 0.01087
C 22.12113 32.68399 0.00199
C 23.37063 31.88637 0.01511
C 23.32726 30.50679 -0.00478
C 22.18105 29.86623 -0.01662
C 20.87648 5.03673 -0.01721
C 29.53581 32.66579 0.01177
C 24.52445 15.67593 -0.04078
C 25.79441 13.54955 0.02737
C 27.07848 21.26748 0.00622
C 27.01572 19.92971 -0.02815
C 28.27885 19.21918 -0.00942
C 28.28403 17.72798 0.00487
C 27.09624 17.08757 0.00826
C 27.10315 15.63257 -0.00294
C 28.35497 14.88656 0.00152
C 28.225 13.44212 0.01257
C 27.08224 12.81697 0.02316
C 28.22544 21.94614 -0.0032
C 27.1978 11.42217 0.04185
C 28.25846 9.25079 -0.00621
C 27.06661 8.48669 0.02611
C 27.05977 7.09875 0.02198
C 28.18277 6.39848 0.01094
C 28.18446 4.98355 0.00235
C 27.0244 4.24348 0.01495
C 27.0137 2.81398 0.01259
C 28.28283 2.07739 0.01799
C 28.19169 0.63525 0.01699
C 28.32291 10.65713 0.00194
C 25.79905 14.94679 0.02117
C 28.19154 23.37513 -0.00037
C 26.94811 25.56728 -0.00218
C 24.60817 12.77489 -0.00498
C 24.61279 11.33926 0.00135
C 25.83361 10.64637 0.03102
C 25.85988 9.14534 0.02555
C 24.61911 8.4628 0.01423
C 24.57289 7.06141 -0.00285
C 25.83844 6.3964 -0.009
C 25.8854 5.06929 -0.01199
C 24.64739 4.28179 -0.00229
C 27.00523 24.06543 -0.01654
C 24.54483 2.83474 -0.00938
C 25.79006 0.72627 -0.01154
C 24.53743 0.06016 0.00684
C 27.03728 32.59737 -0.01052
C 28.30317 31.97184 -0.01679
C 28.34954 30.54144 0.00367
C 27.04492 29.81145 0.04306
C 27.03944 28.36107 0.00996
C 28.27499 27.73543 0.00195
C 28.31592 26.27267 -0.00802
C 25.80242 2.12514 -0.0264
C 2.39438 32.67991 0.03189
