303
Graphene
C 34.33021 0.03202 0.01295
C 15.97291 23.3607 0.01452
C 15.10287 11.33779 0.04892
C 16.29519 10.68855 -0.00111
C 15.82654 9.27147 -0.03557
C 14.53482 8.57453 0.03754
C 14.69736 7.16141 0.01739
C 15.99177 6.53183 0.00755
C 15.96621 5.08617 -0.0054
C 14.77713 4.38813 0.00667
C 14.74126 2.90139 0.00143
C 15.88369 2.1885 -0.017
C 15.95674 0.75173 0.00364
C 14.76763 34.0181 -0.00831
C 17.17061 32.70037 -0.02957
C 18.51748 31.87997 -0.04422
C 14.92556 25.37121 -0.01581
C 18.52156 30.50493 0.00654
C 15.96661 26.23979 0.02691
C 14.76864 28.26646 0.02188
C 13.6099 10.92528 -0.02815
C 13.43233 9.33573 -0.04147
C 12.24752 8.62894 -0.05302
C 12.24732 7.13712 0.00213
C 13.53568 6.38741 -0.00066
C 13.50254 4.90517 -0.00289
C 12.2471 4.2317 0.00028
C 12.27388 2.77309 -0.02213
C 13.51647 2.14577 0.03698
C 13.59342 0.69082 -0.00109
C 12.33907 34.05276 -0.00491
C 14.7869 32.52782 0.03338
C 16.02835 31.85685 -0.0258
C 16.05976 30.47856 -0.0331
C 14.80139 29.69269 -0.00316
C 16.02979 27.61935 -0.01979
C 12.33582 11.51545 0.03505
C 17.24456 29.72169 -0.00703
C 18.44228 27.67625 -0.00652
C 20.90684 30.53945 0.01126
C 19.70694 29.69621 0.01852
C 19.71812 28.35192 -0.00381
C 20.92353 27.55668 0.03046
C 20.9142 26.17419 0.0296
C 19.61619 25.50122 0.03374
C 19.7062 23.96998 -0.02845
C 20.87752 23.2333 -0.03213
C 19.4724 8.7478 0.02239
C 19.43053 7.31439 0.01153
C 20.71424 6.59665 0.02734
C 20.80426 5.13483 -0.0055
C 19.59766 4.35126 0.01515
C 19.63182 2.93262 -0.00225
C 20.88158 2.15412 0.00071
C 20.92266 31.88733 -0.01185
C 17.27297 28.31952 -0.04076
C 19.69113 32.63472 -0.01662
C 18.46443 0.75902 0.01511
C 18.39248 26.22916 0.0058
C 17.12081 25.53581 -0.00865
C 17.15437 24.1431 0.00675
C 18.42955 23.16583 -0.00311
C 18.01923 21.90717 0.00742
C 17.58933 20.64513 -0.01594
C 17.66392 10.68067 0.0106
C 18.28998 9.26826 -0.01154
C 17.06506 8.55207 -0.01721
C 17.13648 7.21305 -0.02422
C 18.33537 6.48041 0.01277
C 18.34113 5.03792 0.00096
C 17.11983 4.32758 -0.01527
C 17.14852 2.94109 0.01087
C 18.42707 2.17375 0.00199
C 17.23439 34.07317 -0.00478
C 20.89715 0.67474 -0.01107
C 13.51083 27.52292 0.01443
C 12.31934 29.77088 -0.00481
C 6.19384 31.96722 0.00985
C 6.16305 30.44868 -0.02245
C 4.9008 29.81745 -0.00428
C 4.75493 28.41504 0.03101
C 4.71878 12.75387 -0.01536
C 4.91976 11.38146 -0.02689
C 6.09901 10.62743 -0.01046
C 6.06077 9.22002 -0.00891
C 4.89907 8.49501 0.02819
C 4.82797 7.08071 0.00165
C 6.11108 6.40767 -0.02971
C 6.13467 4.99002 0.02894
C 4.89041 4.32904 -0.01789
C 4.93625 2.85321 0.00444
C 6.16539 2.11162 -0.00925
C 4.95337 32.67746 -0.01275
C 6.09053 0.70471 0.01877
C 2.3942 34.05344 -0.01111
C 3.69599 2.14552 0.00943
C 3.67695 30.64612 0.00057
C 2.52988 29.85828 -0.01634
C 2.4037 28.39117 -0.00334
C 3.6328 27.76046 0.02339
C 3.68507 13.40514 0.01641
C 2.41251 12.82071 -0.00719
C 2.4537 11.32398 0.01364
C 3.66438 10.65211 -0.01062
C 3.69443 9.22328 -0.00033
C 2.41399 8.57106 0.03589
C 2.32348 7.25402 -0.02759
C 3.53362 6.4534 0.0402
C 3.61568 5.00819 0.00572
C 2.41276 4.28101 0.03592
C 2.49995 2.79842 0.00406
C 3.63153 0.74248 0.02841
C 12.45448 28.32362 0.00979
C 4.89471 0.01319 0.01363
C 8.70741 31.95575 0.00415
C 9.79374 11.24876 -0.01957
C 11.09004 10.83292 -0.0108
C 11.03725 9.22963 -0.00368
C 9.72721 8.50778 -0.02696
C 9.7751 7.08497 -0.00114
C 11.0458 6.47237 0.00228
C 11.08349 4.92367 0.00798
C 9.8121 4.23235 0.00422
C 9.80257 2.82089 0.0351
C 11.06907 2.11621 -0.03113
C 11.04319 0.69469 0.02098
C 9.81722 0.02863 0.01848
C 12.3667 32.55815 -0.00619
C 13.6514 31.89464 -0.02162
C 13.55934 30.42071 0.00889
C 9.73871 28.34632 0.02058
C 7.46917 32.71974 -0.02162
C 9.82518 29.67663 0.01965
C 11.1203 31.97208 0.00052
C 8.58789 30.4647 -0.0014
C 7.36897 29.81907 0.02162
C 7.22742 11.44665 0.0076
C 8.55464 10.7553 0.01241
C 8.57795 9.24373 -0.01454
C 7.3191 8.49056 0.01945
C 7.35869 7.09252 0.01416
C 8.57324 6.41768 0.03542
C 8.59771 4.98531 0.02299
C 7.35502 4.23599 0.00244
C 7.42417 2.81427 -0.01717
C 8.54156 2.09209 0.05265
C 8.54001 0.68108 -0.01952
C 7.34987 0.02401 -0.02813
C 9.94578 32.77747 0.00374
C 11.12776 30.49203 -0.03682
C 3.70916 31.97658 0.00093
C 19.70969 0.07973 -0.01586
C 23.36072 31.98268 -0.02118
C 33.15606 26.29491 0.01574
C 31.88877 25.58195 -0.02383
C 31.79205 24.19715 -0.01429
C 33.11334 23.42187 -0.0136
C 33.17508 22.03953 0.00594
C 31.90442 21.32596 -0.02474
C 31.9206 19.9737 0.00369
C 33.17857 19.24922 0.00455
C 33.18512 17.77232 -0.00644
C 31.88303 16.84406 -0.01839
C 31.94124 15.45523 0.00137
C 33.26616 15.0231 0.00199
C 33.17287 13.63163 0.04381
C 31.84828 13.13769 0.02806
C 31.77162 11.60426 0.01504
C 33.15169 27.64927 0.01927
C 33.0441 10.85328 -0.00069
C 31.82623 28.35886 0.03794
C 33.16266 30.61919 0.00682
C 31.16638 14.20762 -0.00971
C 29.29689 11.35923 0.01518
C 30.5983 10.86729 0.01908
C 30.61709 9.3739 0.07705
C 29.49002 8.61354 0.0103
C 29.40275 7.21941 0.02108
C 30.66388 6.49227 0.00716
C 30.68785 5.08965 0.00307
C 29.44431 4.45098 0.00346
C 29.36273 3.00739 0.01713
C 30.68158 2.24631 -0.01694
C 30.69931 0.83415 0.01428
C 29.44575 0.04821 -0.02142
C 31.9249 32.72994 0.0544
C 33.1666 32.01736 0.00026
C 31.95049 29.84446 -0.01779
C 30.91258 17.82422 -0.03735
C 33.06767 9.42227 0.04926
C 31.89076 7.25833 0.00349
C 0.19986 15.77529 0.02114
C 1.28432 14.9656 -0.02957
C 1.15635 13.53443 0.00343
C 34.39138 12.83294 -0.02656
C 34.3149 11.40118 -0.02442
C 1.13491 10.70734 -0.00027
C 1.13984 9.26842 -0.00583
C 34.27854 8.68066 -0.02302
C 34.30282 7.26683 -0.02849
C 1.10596 6.41821 0.02931
C 1.16999 5.04103 0.00628
C 34.37088 4.38378 -0.0345
C 0.05385 2.98552 -0.00931
C 1.23677 2.14293 -0.00939
C 1.10947 0.76691 -0.00468
C 34.40045 17.19411 0.00648
C 31.8121 8.72902 -0.03838
C 34.28027 20.04056 0.01223
C 34.23535 24.13755 0.01951
C 33.08017 6.52107 -0.00323
C 33.12646 5.08909 -0.00841
C 31.87421 4.38769 0.0001
C 31.94821 2.92857 -0.02927
C 33.20445 2.23924 -0.01404
C 33.13743 0.85634 0.01027
C 31.84942 0.09274 0.01831
C 34.38027 32.70499 -0.01037
C 1.17043 31.94575 -0.00439
C 1.17821 30.58489 -0.00598
C 34.37526 29.84566 -0.05239
C 34.2817 28.47766 0.03076
C 1.15667 27.71153 0.00723
C 1.1482 26.29963 0.02712
C 0.1017 25.47376 -0.02213
C 34.32509 21.3815 -0.01678
C 22.17153 32.63771 -0.01971
C 30.68724 19.20041 -0.00944
C 29.45234 21.24923 -0.01461
C 25.76346 30.53863 -0.01154
C 24.55941 29.78357 0.00684
C 24.57684 28.39194 -0.01052
C 25.85148 27.69534 -0.01679
C 25.76925 26.28931 0.00367
C 24.5723 25.55038 0.04306
C 24.58451 24.06189 0.00996
C 25.84347 23.30472 0.00195
C 25.87186 21.93504 -0.00802
C 25.5152 9.18887 -0.00218
C 24.34356 8.50667 -0.01654
C 24.30916 7.14866 -0.00037
C 25.64193 6.47621 -0.0032
C 25.63224 5.08435 0.00622
C 24.45051 4.3508 -0.02815
C 25.74821 31.91893 -0.0264
C 24.53684 2.90078 -0.00942
C 24.6332 32.65718 -0.00938
C 23.40946 0.70402 -0.01199
C 23.43946 30.5555 0.00733
C 22.14943 29.74244 -0.00178
C 22.13891 28.29477 0.00768
C 23.37098 27.56964 -0.0276
C 23.28568 26.19323 0.03005
C 22.10312 25.49683 -0.04078
C 22.19089 23.90017 0.02117
C 23.45214 23.33401 0.02737
C 21.89253 8.76065 -0.00498
C 21.92636 7.32792 0.00135
C 23.1608 6.51494 0.03102
C 23.18012 4.94005 0.02555
C 21.92061 4.33795 0.01423
C 21.99838 2.97084 -0.00285
C 23.29173 2.28911 -0.009
C 22.18015 0.02955 -0.00229
C 29.48704 19.81129 -0.02155
C 25.78122 2.19409 0.00487
C 24.59977 34.06929 -0.00294
C 26.95253 2.93719 0.00924
C 28.24307 2.15292 0.02326
C 28.20529 0.72257 0.00261
C 26.98863 0.02826 0.03265
C 29.4989 32.69476 -0.02049
C 30.74807 32.01896 -0.01854
C 30.73358 30.53859 -0.01415
C 29.48767 29.89209 -0.03039
C 29.38715 28.45797 0.01836
C 30.61193 27.74543 0.03531
C 30.63001 26.31254 -0.00669
C 29.46994 25.56555 0.0101
C 29.45945 24.10408 0.01705
C 30.61563 23.45215 -0.0405
C 30.67064 21.98704 -0.01303
C 26.9583 4.3673 0.0014
C 25.78661 0.76151 0.00826
C 28.10337 5.11388 0.01324
C 26.8952 7.31092 0.01177
C 27.00679 32.705 0.00152
C 28.22386 31.96495 0.01257
C 28.22284 30.55597 0.02316
C 26.97737 29.82038 0.04185
C 27.05476 28.42608 0.00194
C 28.2449 27.61786 -0.00621
C 28.22903 26.16424 0.02611
C 27.0407 25.50389 0.02198
C 27.03572 24.10113 0.01094
C 28.25701 23.40594 0.00235
C 28.30555 21.94317 0.01495
C 27.03649 21.37211 0.01259
C 28.28406 10.78948 0.01799
C 28.08097 9.35019 0.01699
C 26.85548 8.73327 -0.00416
C 28.20343 6.57235 0.04266
C 2.41175 32.70212 0.01291
