303
Graphene
C 34.32822 0.11975 0.01295
C 15.87631 23.41831 0.01452
C 15.0693 11.26933 0.04892
C 16.29114 10.61962 -0.00111
C 15.86855 9.18972 -0.03557
C 14.59951 8.62514 0.03754
C 14.69036 7.20812 0.01739
C 15.86087 6.49472 0.00755
C 15.97375 5.09684 -0.0054
C 14.72088 4.34019 0.00667
C 14.71649 2.87788 0.00143
C 15.93219 2.14554 -0.017
C 15.92327 0.75104 0.00364
C 14.82554 34.02049 -0.00831
C 17.23906 32.66017 -0.02957
C 18.5117 31.92218 -0.04422
C 14.86629 25.32521 -0.01581
C 18.50315 30.47985 0.00654
C 15.99162 26.27848 0.02691
C 14.73481 28.25631 0.02188
C 13.69734 10.93518 -0.02815
C 13.40989 9.36601 -0.04147
C 12.1863 8.62087 -0.05302
C 12.23341 7.13213 0.00213
C 13.48259 6.39214 -0.00066
C 13.48426 5.03705 -0.00289
C 12.29343 4.25078 0.00028
C 12.27514 2.8463 -0.02213
C 13.51803 2.17228 0.03698
C 13.59951 0.65262 -0.00109
C 12.31428 34.05394 -0.00491
C 14.83396 32.56812 0.03338
C 16.05959 31.90058 -0.0258
C 16.04092 30.38849 -0.0331
C 14.7426 29.66138 -0.00316
C 16.02531 27.66653 -0.01979
C 12.30845 11.52326 0.03505
C 17.26296 29.75815 -0.00703
C 18.54026 27.6022 -0.00652
C 20.96467 30.46888 0.01126
C 19.70625 29.79595 0.01852
C 19.68058 28.27497 -0.00381
C 20.90444 27.57299 0.03046
C 20.87977 26.13164 0.0296
C 19.5976 25.39633 0.03374
C 19.61639 23.92093 -0.02845
C 20.9353 23.27551 -0.03213
C 19.55886 8.62558 0.02239
C 19.50689 7.31245 0.01153
C 20.70044 6.62779 0.02734
C 20.73461 5.15459 -0.0055
C 19.53064 4.37929 0.01515
C 19.61215 2.86409 -0.00225
C 20.79668 2.17818 0.00071
C 20.90325 31.91469 -0.01185
C 17.2914 28.32296 -0.04076
C 19.71656 32.62648 -0.01662
C 18.43624 0.75308 0.01511
C 18.44275 26.16931 0.0058
C 17.18132 25.53918 -0.00865
C 17.16904 24.1082 0.00675
C 18.37708 23.21961 -0.00311
C 17.97002 21.78647 0.00742
C 17.67749 20.61312 -0.01594
C 17.71064 10.75257 0.0106
C 18.26243 9.23629 -0.01154
C 17.13316 8.52764 -0.01721
C 17.14149 7.14173 -0.02422
C 18.37128 6.49897 0.01277
C 18.32915 5.08902 0.00096
C 17.16979 4.36086 -0.01527
C 17.17186 2.88993 0.01087
C 18.37452 2.17989 0.00199
C 17.18123 0.04313 -0.00478
C 20.92619 0.736 -0.01107
C 13.47597 27.48548 0.01443
C 12.24575 29.72164 -0.00481
C 6.21085 31.91114 0.00985
C 6.17163 30.42024 -0.02245
C 4.91144 29.81331 -0.00428
C 4.59156 28.42887 0.03101
C 4.71398 12.76567 -0.01536
C 4.87055 11.35715 -0.02689
C 6.10216 10.68608 -0.01046
C 6.09254 9.21877 -0.00891
C 4.8354 8.45824 0.02819
C 4.83906 7.04925 0.00165
C 6.08128 6.3926 -0.02971
C 6.06379 5.01576 0.02894
C 4.89421 4.30438 -0.01789
C 4.93366 2.83959 0.00444
C 6.15572 2.12505 -0.00925
C 4.97864 32.64767 -0.01275
C 6.08649 0.72151 0.01877
C 2.36887 0.03699 -0.01111
C 3.66222 2.1393 0.00943
C 3.70541 30.63008 0.00057
C 2.46366 29.92584 -0.01634
C 2.45293 28.37564 -0.00334
C 3.66114 27.7406 0.02339
C 3.72203 13.4696 0.01641
C 2.39682 12.80553 -0.00719
C 2.40991 11.38124 0.01364
C 3.66294 10.66515 -0.01062
C 3.64734 9.20706 -0.00033
C 2.36439 8.61128 0.03589
C 2.29435 7.17061 -0.02759
C 3.53285 6.46191 0.0402
C 3.60546 4.98057 0.00572
C 2.39681 4.26712 0.03592
C 2.44542 2.8527 0.00406
C 3.61601 0.7567 0.02841
C 12.43119 28.38293 0.00979
C 4.88387 0.00712 0.01363
C 8.67846 31.919 0.00415
C 9.82116 11.36093 -0.01957
C 11.10407 10.8651 -0.0108
C 11.00496 9.2813 -0.00368
C 9.7908 8.47476 -0.02696
C 9.78148 7.12712 -0.00114
C 11.0254 6.40182 0.00228
C 11.08121 4.9488 0.00798
C 9.77769 4.27868 0.00422
C 9.78912 2.82688 0.0351
C 11.00181 2.07048 -0.03113
C 11.05627 0.65301 0.02098
C 9.82244 34.07056 0.01848
C 12.3831 32.66512 -0.00619
C 13.60121 31.88593 -0.02162
C 13.58234 30.39134 0.00889
C 9.76083 28.3026 0.02058
C 7.44923 32.64005 -0.02162
C 9.82835 29.7343 0.01965
C 11.09476 31.9172 0.00052
C 8.63736 30.43713 -0.0014
C 7.39324 29.87069 0.02162
C 7.27543 11.42842 0.0076
C 8.58673 10.79089 0.01241
C 8.58664 9.25766 -0.01454
C 7.29954 8.53825 0.01945
C 7.33107 7.10248 0.01416
C 8.60186 6.37145 0.03542
C 8.61549 4.99869 0.02299
C 7.34847 4.27262 0.00244
C 7.35754 2.88312 -0.01717
C 8.56338 2.14814 0.05265
C 8.54345 0.69605 -0.01952
C 7.33912 0.05781 -0.02813
C 9.94202 32.66773 0.00374
C 11.14529 30.47747 -0.03682
C 3.72979 32.06035 0.00093
C 19.65676 0.02172 -0.01586
C 23.37357 31.96233 -0.02118
C 33.12951 26.29865 0.01574
C 31.87754 25.57718 -0.02383
C 31.83134 24.12498 -0.01429
C 33.09749 23.40321 -0.0136
C 33.17926 22.04112 0.00594
C 31.95895 21.36847 -0.02474
C 31.95417 19.96657 0.00369
C 33.16573 19.21322 0.00455
C 33.21574 17.80567 -0.00644
C 31.77552 16.82226 -0.01839
C 31.97322 15.37096 0.00137
C 33.26952 15.0382 0.00199
C 33.30968 13.66693 0.04381
C 31.91059 12.9421 0.02806
C 31.68494 11.59327 0.01504
C 33.10199 27.70697 0.01927
C 32.99664 10.86854 -0.00069
C 31.83017 28.38325 0.03794
C 33.18008 30.55319 0.00682
C 31.2512 14.14184 -0.00971
C 29.2411 11.45378 0.01518
C 30.55103 10.93736 0.01908
C 30.6269 9.44739 0.07705
C 29.40078 8.67585 0.0103
C 29.41256 7.32098 0.02108
C 30.66136 6.53055 0.00716
C 30.69326 5.11384 0.00307
C 29.35943 4.42592 0.00346
C 29.33912 3.02685 0.01713
C 30.70991 2.32098 -0.01694
C 30.63302 0.8471 0.01428
C 29.41926 0.07312 -0.02142
C 31.93376 32.75492 0.0544
C 33.1616 32.03646 0.00026
C 31.93253 29.775 -0.01779
C 30.88646 17.80504 -0.03735
C 33.0141 9.46506 0.04926
C 31.87809 7.27918 0.00349
C 0.24579 15.85456 0.02114
C 1.27566 14.93418 -0.02957
C 1.22233 13.55963 0.00343
C 0.02738 12.83771 -0.02656
C 34.33802 11.50544 -0.02442
C 1.11962 10.72144 -0.00027
C 1.15996 9.28175 -0.00583
C 34.2843 8.68184 -0.02302
C 34.26943 7.21434 -0.02849
C 1.06948 6.46349 0.02931
C 1.21641 5.00968 0.00628
C 34.36974 4.37724 -0.0345
C 0.01605 2.94415 -0.00931
C 1.25921 2.15413 -0.00939
C 1.16074 0.70049 -0.00468
C 34.40908 17.15913 0.00648
C 31.8164 8.73103 -0.03838
C 34.23501 20.14193 0.01223
C 34.21362 24.16295 0.01951
C 33.11027 6.53024 -0.00323
C 33.07509 5.11832 -0.00841
C 31.92957 4.40398 0.0001
C 31.93312 2.95279 -0.02927
C 33.19177 2.25712 -0.01404
C 33.08459 0.84183 0.01027
C 31.83412 0.16462 0.01831
C 34.38253 32.74781 -0.01037
C 1.1571 31.9814 -0.00439
C 1.1743 30.52294 -0.00598
C 34.33215 29.90092 -0.05239
C 34.37242 28.45684 0.03076
C 1.19208 27.69447 0.00723
C 1.16575 26.34607 0.02712
C 0.11229 25.42352 -0.02213
C 34.30646 21.25337 -0.01678
C 22.12212 32.68623 -0.01971
C 30.64236 19.17277 -0.00944
C 29.45584 21.24098 -0.01461
C 25.78413 30.51102 -0.01154
C 24.57925 29.81155 0.00684
C 24.50943 28.33244 -0.01052
C 25.79312 27.69946 -0.01679
C 25.74037 26.2394 0.00367
C 24.56666 25.48027 0.04306
C 24.64356 24.0465 0.00996
C 25.76517 23.35814 0.00195
C 25.90718 21.86385 -0.00802
C 25.45632 9.12097 -0.00218
C 24.33199 8.54787 -0.01654
C 24.29289 7.19787 -0.00037
C 25.62064 6.49929 -0.0032
C 25.64514 5.08119 0.00622
C 24.40176 4.33824 -0.02815
C 25.76943 31.94635 -0.0264
C 24.51553 2.96927 -0.00942
C 24.58681 32.70112 -0.00938
C 23.38813 0.73313 -0.01199
C 23.38299 30.51072 0.00733
C 22.17346 29.7703 -0.00178
C 22.06512 28.31959 0.00768
C 23.34757 27.64832 -0.0276
C 23.32904 26.1744 0.03005
C 22.08549 25.43319 -0.04078
C 22.17987 23.8973 0.02117
C 23.45517 23.33698 0.02737
C 21.8283 8.83032 -0.00498
C 21.9481 7.41526 0.00135
C 23.08716 6.54445 0.03102
C 23.1553 5.05297 0.02555
C 21.95997 4.33447 0.01423
C 21.9884 2.87774 -0.00285
C 23.29316 2.32689 -0.009
C 22.11402 0.02116 -0.00229
C 29.50222 19.84505 -0.02155
C 25.74358 2.21545 0.00487
C 24.5915 0.01077 -0.00294
C 27.02183 2.96306 0.00924
C 28.17158 2.16662 0.02326
C 28.18265 0.73122 0.00261
C 27.00973 0.04996 0.03265
C 29.45848 32.6518 -0.02049
C 30.72515 31.99718 -0.01854
C 30.72688 30.54322 -0.01415
C 29.49892 29.87798 -0.03039
C 29.4594 28.44251 0.01836
C 30.5821 27.73004 0.03531
C 30.64686 26.3172 -0.00669
C 29.43202 25.58499 0.0101
C 29.43164 24.1712 0.01705
C 30.64375 23.46006 -0.0405
C 30.65459 22.01539 -0.01303
C 26.92177 4.4029 0.0014
C 25.77472 0.76777 0.00826
C 28.16262 5.13541 0.01324
C 26.89311 7.28695 0.01177
C 27.01819 32.69531 0.00152
C 28.23317 31.97153 0.01257
C 28.19292 30.50208 0.02316
C 27.00059 29.85352 0.04185
C 27.06592 28.4243 0.00194
C 28.25638 27.72884 -0.00621
C 28.22168 26.24071 0.02611
C 26.94117 25.49687 0.02198
C 27.06538 24.08352 0.01094
C 28.2786 23.42239 0.00235
C 28.24829 21.96845 0.01495
C 26.95433 21.33324 0.01259
C 28.13841 10.82337 0.01799
C 28.05337 9.41454 0.01699
C 26.84107 8.74691 -0.00416
C 28.17401 6.52769 0.04266
C 2.43101 32.69948 0.01291
