292
Graphene
C 34.43103 0.01153 0.01295
C 12.20541 0.02954 -0.0054
C 14.68731 32.65086 0.00667
C 15.94443 32.02465 0.00143
C 16.06486 30.61718 -0.017
C 14.80311 29.89086 0.00364
C 14.75821 28.50195 -0.00831
C 13.5718 0.66087 0.00755
C 16.00525 27.77579 -0.02957
C 14.7307 25.5067 0.00654
C 14.85825 23.97289 -0.00703
C 16.06333 23.47527 -0.04076
C 14.80938 2.6792 -0.00652
C 16.08354 2.09018 0.0058
C 15.97005 0.65917 -0.00865
C 15.93286 26.22577 -0.04422
C 14.75784 0.01712 0.00675
C 13.59965 2.09981 0.01739
C 12.0929 4.09787 -0.03557
C 9.79888 2.85573 0.03698
C 11.13325 2.14347 -0.00109
C 11.05683 0.68006 -0.00491
C 9.82333 0.0241 0.03338
C 12.17121 32.68709 -0.0258
C 13.45916 32.03115 -0.0331
C 12.37074 2.79212 0.03754
C 13.58324 30.61688 -0.00316
C 12.29471 28.46034 -0.01979
C 13.57165 27.71452 0.02691
C 13.54266 26.25461 -0.01581
C 12.28988 25.64996 0.01452
C 12.29942 24.1547 0.04892
C 13.52836 23.65184 -0.00111
C 12.40864 29.86449 0.02188
C 17.20881 32.65691 -0.00311
C 18.36979 31.92377 0.00742
C 18.43393 30.52501 -0.01594
C 19.70885 24.06563 -0.02845
C 20.90609 23.35544 -0.03213
C 20.94515 21.84794 0.02239
C 19.64744 21.47988 0.01153
C 20.85199 0.47713 0.02734
C 19.60125 0.04185 -0.0055
C 19.69439 25.54402 0.03374
C 22.13768 32.67032 0.01515
C 23.37892 30.59724 0.00071
C 22.08883 29.98107 -0.01107
C 22.07636 28.47003 -0.01586
C 23.29403 27.69131 -0.01971
C 23.31388 26.26666 -0.02118
C 22.12704 25.47996 0.00733
C 23.47085 32.01382 -0.00225
C 20.89651 26.25181 0.0296
C 20.86767 27.7222 0.03046
C 19.64239 28.41019 -0.00381
C 17.25808 29.8505 0.0106
C 17.24624 28.3432 -0.01154
C 18.47053 27.67263 -0.01721
C 18.46771 26.22302 -0.02422
C 17.18852 25.61172 0.01277
C 17.24519 24.17263 0.00096
C 18.49024 23.32073 -0.01527
C 18.47283 22.02442 0.01087
C 17.41361 2.6112 0.00199
C 18.34215 0.79395 0.01511
C 17.25213 34.06476 -0.00478
C 19.61129 32.60396 -0.01662
C 20.88811 32.02542 -0.01185
C 20.84789 30.62084 0.01126
C 19.67551 29.83383 0.01852
C 9.83481 4.35332 -0.02213
C 22.1657 24.10122 -0.00178
C 11.03091 4.87795 0.00028
C 9.90972 24.14963 -0.00066
C 2.5011 2.86716 -0.02971
C 3.68658 2.16269 0.02894
C 3.72863 0.65061 -0.01789
C 2.48703 34.06292 0.00444
C 4.86244 32.54126 -0.00925
C 6.13395 31.91624 0.01877
C 2.43867 4.28673 0.00165
C 6.09475 30.50704 0.01363
C 4.86524 28.41394 0.00415
C 6.03313 27.63557 -0.0014
C 6.10227 26.23258 0.02162
C 4.90112 25.5533 0.0076
C 4.94669 24.07442 0.01241
C 6.18225 23.40145 -0.01454
C 4.85437 29.84083 -0.02162
C 6.21855 21.93317 0.01945
C 3.66585 5.10294 0.02819
C 2.39634 6.9525 -0.01046
C 3.66239 30.49467 0.0402
C 2.46717 29.76996 0.00572
C 2.44782 28.38031 0.03592
C 3.68744 27.65162 0.00406
C 3.62668 26.32313 0.00943
C 2.44622 25.59675 0.02841
C 3.5512 6.43684 -0.00891
C 2.50756 24.17061 -0.01111
C 3.67971 21.98513 0.00985
C 2.45885 21.27497 -0.02245
C 2.46175 19.87091 -0.00428
C 3.6919 19.14593 0.03101
C 3.55666 17.81016 -0.01536
C 2.39795 17.27594 -0.02689
C 3.71096 23.37413 -0.01275
C 4.93815 21.25956 0.01416
C 4.99398 19.85961 0.03542
C 6.15579 19.30245 0.02299
C 8.53577 5.12418 -0.03113
C 7.24342 4.2977 0.02098
C 7.33466 2.87769 0.01848
C 8.57706 2.11465 -0.00619
C 8.6077 0.67716 -0.02162
C 7.37762 0.00516 0.00889
C 8.78739 6.42873 0.0351
C 9.84946 32.65965 -0.00481
C 11.05319 30.53049 0.01443
C 9.84555 29.86426 0.03505
C 9.76339 28.44533 -0.02815
C 11.02672 27.754 -0.04147
C 11.10749 26.33332 -0.05302
C 9.9055 25.6213 0.00213
C 11.04182 31.94659 0.00979
C 7.4262 21.226 0.00422
C 8.50676 22.01874 0.00798
C 8.69652 23.33128 0.00228
C 6.11217 4.89105 0.00244
C 4.79645 4.31106 -0.01717
C 4.89272 2.92907 0.05265
C 6.11407 2.17483 -0.01952
C 6.15294 0.66044 -0.02813
C 4.91068 34.03534 0.00374
C 7.3808 32.64405 0.00052
C 8.57309 31.92472 -0.03682
C 8.59557 30.54439 0.01965
C 7.34905 29.82361 0.02058
C 7.30857 28.35536 -0.01957
C 8.5253 27.62409 -0.0108
C 8.62902 26.21053 -0.00368
C 7.39896 25.58619 -0.02696
C 7.45651 24.0667 -0.00114
C 11.09836 23.57155 -0.00289
C 23.43796 23.37207 0.00768
C 23.43284 21.99259 -0.0276
C 22.21052 21.30952 0.03005
C 33.17516 22.02563 -0.01429
C 31.96015 21.28997 -0.0136
C 31.92191 19.80006 0.00594
C 33.17745 19.11825 -0.02474
C 33.15533 17.78503 0.00369
C 31.90211 17.04897 0.00455
C 33.14353 23.49175 -0.02383
C 31.96499 15.62244 -0.00644
C 33.24128 13.55609 0.00137
C 31.97501 12.84089 0.00199
C 31.99492 11.43265 0.04381
C 33.14793 10.70405 0.02806
C 33.15224 9.26974 0.01504
C 31.93516 8.53599 -0.00069
C 33.25473 14.9176 -0.01839
C 31.94609 7.10757 0.04926
C 31.92568 24.19727 0.01574
C 33.12572 26.26239 0.03794
C 29.60154 7.18458 0.07705
C 30.72015 6.46829 0.0103
C 30.63807 5.03116 0.02108
C 29.46516 4.37633 0.00716
C 29.41019 2.97302 0.00307
C 30.67127 2.23971 0.00346
C 31.9291 25.62635 0.01927
C 30.66223 0.77765 0.01713
C 31.9545 32.71005 0.01428
C 33.22516 32.02423 -0.02142
C 33.1829 30.56827 0.0544
C 31.96463 29.8253 0.00026
C 31.89174 28.41508 0.00682
C 33.1732 27.70919 -0.01779
C 29.47065 0.00856 -0.01694
C 33.16972 6.36002 -0.03838
C 33.15702 4.93886 0.00349
C 31.95631 4.28479 -0.00323
C 34.41894 17.09605 -0.02957
C 0.14282 15.57872 0.00343
C 1.19354 14.75762 -0.02656
C 0.04637 12.73074 -0.02442
C 34.35964 11.48157 -0.00027
C 1.12489 9.17903 -0.00583
C 1.18186 17.79017 0.02114
C 0.00376 8.55322 -0.02302
C 1.21319 6.42191 0.02931
C 1.24469 5.00802 0.00628
C 34.39754 4.25062 -0.0345
C 34.40724 2.8621 -0.00931
C 1.20856 2.15633 -0.00939
C 1.2451 0.74843 -0.00468
C 34.36704 7.07157 -0.02849
C 1.19254 19.23592 0.00648
C 34.3666 19.93363 0.01223
C 34.40957 21.31576 -0.01678
C 31.93789 2.92577 -0.00841
C 33.14812 2.13048 0.0001
C 33.16841 0.72833 -0.02927
C 31.93256 34.07911 -0.01404
C 0.05128 32.66705 0.01027
C 1.2764 31.89797 0.01831
C 1.23958 30.46074 -0.01037
C 34.42418 29.87698 -0.00439
C 34.37822 28.42897 -0.00598
C 1.20986 27.70993 -0.05239
C 1.20874 26.31554 0.03076
C 34.42146 25.58499 0.00723
C 0.03878 24.14613 0.02712
C 1.25692 23.48074 -0.02213
C 1.26624 22.0832 0.01951
C 29.69545 8.5347 0.01908
C 30.70784 9.314 0.01518
C 30.74541 10.70235 -0.00971
C 29.52867 11.36087 -0.03735
C 25.75747 19.09466 0.04306
C 25.82084 17.67656 0.00996
C 24.53132 16.99207 0.00195
C 24.62693 15.6372 -0.00802
C 25.70968 14.96202 -0.00218
C 25.89083 2.1254 -0.01654
C 24.56449 19.87198 0.00367
C 25.78239 0.75373 -0.00037
C 27.08787 32.6283 0.00622
C 28.31005 31.91365 -0.02815
C 28.27432 30.52064 -0.00942
C 27.09966 29.811 0.00487
C 27.1206 28.32 0.00826
C 28.31603 27.64129 -0.00294
C 24.55504 0.02774 -0.0032
C 24.61934 21.30679 -0.01679
C 25.84851 22.0431 -0.01052
C 25.82521 23.42342 0.00684
C 22.21272 19.96036 -0.04078
C 23.32783 19.26846 0.02117
C 23.2882 17.79148 0.02737
C 22.13539 17.25103 -0.00498
C 23.38596 0.68364 0.00135
C 22.14432 0.15618 0.03102
C 24.6949 32.68235 0.02555
C 25.87807 31.90052 0.01423
C 25.8449 30.50737 -0.00285
C 24.54356 29.85061 -0.009
C 24.53405 28.46332 -0.01199
C 25.82264 27.64424 -0.00229
C 25.7387 26.24449 -0.00938
C 24.5198 25.51155 -0.0264
C 24.53653 24.10113 -0.01154
C 28.25757 26.23715 0.00152
C 3.642 31.87525 -0.02759
C 27.0261 25.50665 0.01257
C 28.29519 23.40604 0.04185
C 30.67677 26.29621 -0.02049
C 29.49304 25.5471 -0.01854
C 29.49535 24.04333 -0.01415
C 30.6963 23.42466 -0.03039
C 30.74438 22.02439 0.01836
C 29.5208 21.32346 0.03531
C 30.69522 27.7055 0.03265
C 29.44934 19.9108 -0.00669
C 30.73764 17.76305 0.01705
C 29.47951 17.06005 -0.0405
C 29.44407 15.62345 -0.01303
C 30.73318 14.93683 -0.01461
C 30.69969 13.57123 -0.02155
C 29.40065 12.81328 -0.00944
C 30.65597 19.16383 0.0101
C 29.529 28.40757 0.00261
C 29.53923 29.82582 0.02326
C 30.73139 30.60185 0.00924
C 28.27297 21.96165 0.00194
C 27.04739 21.28708 -0.00621
C 26.93724 19.85383 0.02611
C 28.19772 19.19832 0.02198
C 28.29159 17.73187 0.01094
C 27.07488 16.97005 0.00235
C 26.96291 15.50966 0.01495
C 28.22585 14.87342 0.01259
C 28.32467 13.55759 0.01799
C 26.95954 2.69482 0.01699
C 28.23632 2.18979 -0.00416
C 28.24451 0.71075 0.01177
C 26.98602 34.05796 0.04266
C 29.49925 32.71009 0.01324
C 30.75403 31.98597 0.0014
C 27.05634 24.13273 0.02316
C 2.44558 32.60662 0.03589
