365
Graphene
C 0.01373 0.03423 0.01295
C 11.12381 9.12304 0.00052
C 9.75016 8.62924 -0.03682
C 11.06661 0.73635 0.01965
C 9.86641 0.00441 0.02058
C 12.35054 32.71061 -0.01957
C 13.55188 31.95978 -0.0108
C 13.4586 30.49635 -0.00368
C 12.25611 29.79032 -0.02696
C 11.03253 10.53191 0.00374
C 12.28189 28.35538 -0.00114
C 13.56767 26.2781 0.00798
C 12.34505 25.52597 0.00422
C 12.35791 24.1177 0.0351
C 13.56972 23.31953 -0.03113
C 13.46071 22.14481 0.02098
C 12.32247 21.26401 0.01848
C 12.27704 19.81673 -0.00619
C 13.49068 19.14516 -0.02162
C 13.62672 27.58975 0.00228
C 9.77202 11.32188 -0.02813
C 9.80585 12.80869 -0.01952
C 11.05511 13.42461 0.05265
C 7.31995 0.05678 0.02894
C 9.74915 32.70533 -0.01789
C 11.0866 32.00938 0.00444
C 11.09662 30.55634 -0.00925
C 9.86362 29.84986 0.01877
C 9.87017 28.42281 0.01363
C 11.06179 27.70182 -0.02162
C 11.08098 26.26546 0.00415
C 9.8525 25.60378 -0.0014
C 9.85422 24.23763 0.02162
C 11.04887 23.44408 0.0076
C 11.05052 22.05792 0.01241
C 9.86255 21.23006 -0.01454
C 9.84211 19.85348 0.01945
C 11.09328 19.19838 0.01416
C 11.14885 17.75216 0.03542
C 9.8324 16.98421 0.02299
C 9.83162 15.62002 0.00244
C 11.1013 14.85123 -0.01717
C 13.43335 17.73515 0.00889
C 12.31454 17.02038 -0.00481
C 12.38051 15.62581 0.00979
C 13.52281 14.93289 0.01443
C 14.75432 2.82042 -0.03557
C 15.95127 2.26274 0.03754
C 15.98071 0.71768 0.01739
C 14.72914 34.00814 0.00755
C 17.20906 32.6161 -0.0054
C 18.45342 31.96991 0.00667
C 18.44358 30.50657 0.00143
C 17.08807 17.1081 -0.017
C 17.23109 15.67523 0.00364
C 18.49399 14.92478 -0.00831
C 18.51087 13.57086 -0.02957
C 17.23647 12.75256 -0.04422
C 17.23328 11.37244 0.00654
C 18.43153 10.60625 -0.00703
C 18.46594 9.20216 -0.04076
C 17.18995 2.85045 -0.00652
C 18.41164 2.09859 0.0058
C 18.48461 0.64752 -0.00865
C 17.23078 34.03248 0.00675
C 15.99437 9.29755 -0.00111
C 8.56628 0.70947 -0.02971
C 15.95173 10.64625 0.04892
C 14.68741 12.83673 -0.01581
C 13.49612 13.54112 0.03505
C 12.28439 12.78374 -0.02815
C 12.32048 11.30946 -0.04147
C 13.5631 10.63812 -0.05302
C 13.45143 9.2303 0.00213
C 12.39833 8.61288 -0.00066
C 13.62945 0.74576 -0.00289
C 12.31544 0.074 0.00028
C 14.76733 32.59892 -0.02213
C 15.96365 31.87321 0.03698
C 15.99999 30.52666 -0.00109
C 14.82493 29.80752 -0.00491
C 14.69034 28.41785 0.03338
C 14.69817 19.87908 -0.0258
C 15.96481 17.72475 -0.0331
C 14.72449 17.04855 -0.00316
C 14.71079 15.63496 0.02188
C 15.99015 14.95895 -0.01979
C 16.03399 13.48443 0.02691
C 14.72077 11.37148 0.01452
C 8.60006 2.03715 0.00165
C 7.40059 2.83685 0.02819
C 7.38611 4.25367 -0.00891
C 3.65136 6.36702 0.00848
C 3.72308 4.96266 -0.01303
C 2.52968 4.28491 -0.01378
C 2.44229 2.91464 0.02635
C 3.72542 2.09986 0.0127
C 3.66166 0.72427 0.01396
C 2.44886 34.07817 0.01849
C 4.94241 32.71533 -0.01142
C 6.16744 31.87883 -0.00562
C 6.12937 30.52787 -0.00494
C 4.89947 29.8174 0.00054
C 4.8953 28.40449 0.03007
C 6.14308 27.71125 -0.00095
C 6.12923 26.32138 0.01572
C 4.93384 25.509 -0.04848
C 4.90809 24.15546 -0.00892
C 6.16286 23.45757 -0.01362
C 6.14941 22.03976 -0.0008
C 4.8778 21.36378 0.0288
C 2.46886 7.12704 -0.00049
C 4.90378 19.861 0.00393
C 2.43858 8.51851 0.00873
C 3.64619 10.68855 -0.03337
C 3.75616 30.48008 -0.00518
C 2.52759 29.83866 0.0086
C 2.4412 28.39133 -0.00643
C 3.76034 27.65188 0.017
C 3.69622 26.25137 -0.03113
C 2.39979 25.56339 -0.02566
C 2.4169 24.22684 -0.00094
C 3.68515 23.43354 0.02322
C 3.69787 21.99692 -0.00725
C 2.43084 21.32722 -0.05697
C 2.52139 19.88024 0.01087
C 3.67415 19.12636 -0.01343
C 3.72311 17.7182 0.00988
C 2.36264 17.00232 0.0276
C 2.41419 15.70216 0.01305
C 3.63642 14.9877 -0.00077
C 3.67998 13.52382 0.03368
C 2.50815 12.82618 -0.02929
C 2.45503 11.29332 -0.00966
C 3.72769 9.27118 0.01227
C 19.71997 32.67964 -0.00311
C 6.14235 19.22462 0.00895
C 4.91935 17.0538 0.02888
C 7.32284 25.52351 -0.01062
C 7.36495 24.12676 -0.00033
C 8.65398 23.43917 0.03589
C 8.63241 21.96649 -0.02759
C 7.37013 21.35071 0.0402
C 7.37441 19.97183 0.00572
C 8.55433 19.18065 0.03592
C 8.67487 17.74566 0.00406
C 7.45042 17.05962 0.00943
C 7.39346 15.6483 0.02841
C 8.55769 14.8275 -0.01111
C 8.57701 13.44408 -0.01275
C 7.32149 12.80006 0.00985
C 7.29611 11.31563 -0.02245
C 8.57824 10.64698 -0.00428
C 8.58926 9.24995 0.03101
C 7.34016 8.56064 -0.01536
C 7.432 7.01959 -0.02689
C 8.60001 6.46951 -0.01046
C 8.59604 26.30554 0.01364
C 6.18618 17.78476 0.00685
C 8.60409 27.69571 -0.00719
C 7.39731 29.82559 0.02339
C 4.94715 15.65053 -0.00482
C 6.13788 14.92941 -0.01384
C 6.10638 13.52476 0.03693
C 4.95629 12.79049 0.01745
C 4.89821 11.41343 0.00488
C 6.118 10.70905 -0.01004
C 6.18003 9.29785 -0.02896
C 4.88891 8.62162 -0.00131
C 4.88949 7.15643 -0.01118
C 6.14615 6.40019 -0.014
C 6.11533 4.96822 0.02147
C 4.93473 4.29249 0.00373
C 4.95638 2.83469 -0.00191
C 6.16007 2.12396 0.00438
C 6.11902 0.76243 0.01291
C 4.88004 0.06247 0.00093
C 7.37212 32.67446 0.00057
C 8.5375 31.96201 -0.01634
C 8.56835 30.58828 -0.00334
C 7.3902 28.37868 0.01641
C 3.7378 31.93043 -0.00074
C 20.85451 32.03827 0.00742
C 20.89699 14.93279 0.0106
C 29.5406 0.04862 0.00346
C 31.99041 32.6025 0.01713
C 33.18045 31.95227 -0.01694
C 33.15786 30.51746 0.01428
C 31.98446 29.82365 -0.02142
C 31.94926 28.44238 0.0544
C 33.11254 27.69975 0.00026
C 33.1403 26.30036 0.00682
C 30.73269 0.64858 0.00307
C 31.96184 25.61235 -0.01779
C 33.13888 23.4323 0.01927
C 33.21414 22.05009 0.01574
C 31.98014 21.27185 -0.02383
C 31.96327 19.87933 -0.01429
C 33.20031 19.20836 -0.0136
C 33.2553 17.76149 0.00594
C 32.00095 17.08573 -0.02474
C 31.97149 15.60325 0.00369
C 31.97239 24.15995 0.03794
C 30.71992 2.13246 0.00716
C 29.45539 2.88443 0.02108
C 29.56702 4.26944 0.0103
C 29.53084 24.08501 -0.02049
C 30.81367 23.39782 -0.01854
C 30.76089 22.04343 -0.01415
C 29.49646 21.33569 -0.03039
C 29.55381 19.88887 0.01836
C 30.72915 19.1507 0.03531
C 30.73361 17.7274 -0.00669
C 29.48504 17.06395 0.0101
C 29.57424 15.65908 0.01705
C 30.76726 14.82448 -0.0405
C 30.78738 13.44183 -0.01303
C 29.54008 12.80272 -0.01461
C 29.51461 11.40524 -0.02155
C 30.74736 10.61826 -0.00944
C 30.68468 9.21725 -0.03735
C 29.56285 8.46776 -0.00971
C 29.47482 7.0554 0.01518
C 30.69534 6.40773 0.01908
C 30.71655 4.9526 0.07705
C 33.17127 14.92529 0.00455
C 33.18901 13.48528 -0.00644
C 31.99555 12.70052 -0.01839
C 31.99911 11.32771 0.00137
C 0.01294 19.91936 0.01951
C 1.30011 19.15716 -0.01678
C 1.19863 17.68543 0.01223
C 34.43027 17.03174 0.00648
C 0.03412 15.58149 0.02114
C 1.196 14.89525 -0.02957
C 1.25929 13.45627 0.00343
C 0.00032 12.798 -0.02656
C 34.40244 11.36858 -0.02442
C 1.23036 10.73374 -0.00027
C 1.22839 9.25916 -0.00583
C 0.03963 8.58328 -0.02302
C 34.37992 7.12973 -0.02849
C 1.21821 6.39667 0.02931
C 1.23571 4.9606 0.00628
C 0.04234 4.29306 -0.0345
C 0.04246 2.82397 -0.00931
C 1.22046 2.09578 -0.00939
C 1.23371 0.74363 -0.00468
C 34.42353 21.31289 -0.02213
C 29.51907 25.60083 0.03265
C 1.17993 21.94565 0.02712
C 34.38072 24.14122 0.03076
C 33.18576 10.64066 0.00199
C 33.2613 9.2255 0.04381
C 31.89917 8.50349 0.02806
C 31.90472 7.11398 0.01504
C 33.16594 6.35482 -0.00069
C 33.17612 4.96189 0.04926
C 31.95321 4.23513 -0.03838
C 31.96837 2.88263 0.00349
C 33.21342 2.18034 -0.00323
C 33.2072 0.71154 -0.00841
C 31.97485 34.04008 0.0001
C 34.37857 32.64525 -0.02927
C 1.16196 31.96167 -0.01404
C 1.24797 30.55662 0.01027
C 0.04776 29.77891 0.01831
C 34.42617 28.37733 -0.01037
C 1.1915 27.74115 -0.00439
C 1.22592 26.30513 -0.00598
C 34.40715 25.64288 -0.05239
C 1.17776 23.4588 0.00723
C 30.71411 26.27334 0.00261
C 30.74435 27.72646 0.02326
C 29.54354 28.40446 0.00924
C 23.36465 9.20358 -0.0055
C 22.09391 8.47881 0.01515
C 22.10905 7.10116 -0.00225
C 23.3347 6.42901 0.00071
C 23.34465 5.06386 -0.01107
C 22.12854 4.2016 -0.01586
C 22.11233 2.80193 -0.01971
C 23.29566 2.12877 -0.02118
C 23.34522 0.74122 0.00733
C 22.19212 34.05968 -0.00178
C 24.50166 32.60258 0.00768
C 25.76307 31.9614 -0.0276
C 25.81504 30.5348 0.03005
C 24.50729 29.79294 -0.04078
C 25.73929 17.75359 0.02117
C 24.71987 17.03697 0.02737
C 24.60644 15.6309 -0.00498
C 25.86473 14.9272 0.00135
C 25.79404 13.46318 0.03102
C 23.37522 10.57394 0.02734
C 24.57267 12.73763 0.02555
C 22.08273 11.33466 0.01153
C 23.37888 13.49312 -0.03213
C 20.96007 13.43828 -0.01154
C 19.66696 12.82897 -0.01721
C 19.57469 11.35815 -0.02422
C 20.8086 10.61689 0.01277
C 20.89559 9.15635 0.00096
C 19.59306 8.47482 -0.01527
C 19.75714 7.0605 0.01087
C 20.92023 6.36889 0.00199
C 20.76825 4.95627 0.01511
C 19.59525 4.18241 -0.00478
C 19.67741 2.82013 -0.01662
C 20.91001 2.09389 -0.01185
C 20.95688 0.63572 0.01126
C 19.73787 34.03965 0.01852
C 22.15365 32.61452 -0.00381
C 23.32224 31.90646 0.03046
C 23.48813 30.41294 0.0296
C 22.11428 15.55159 0.03374
C 23.33903 14.95747 -0.02845
C 22.18704 12.72346 0.02239
C 19.75771 15.53204 -0.01594
C 24.55601 11.29291 0.01423
C 25.82466 9.2135 -0.009
C 28.313 14.9239 0.00152
C 28.28454 13.46898 0.01257
C 27.09397 12.78642 0.02316
C 27.03362 11.34756 0.04185
C 28.30466 10.67955 0.00194
C 28.35614 9.22705 -0.00621
C 27.1226 8.55127 0.02611
C 27.10536 7.15374 0.02198
C 28.28567 6.40789 0.01094
C 28.31783 4.8869 0.00235
C 27.06052 4.26815 0.01495
C 27.06581 2.85155 0.01259
C 28.25383 2.20437 0.01799
C 28.25868 0.71936 0.01699
C 27.05625 0.02217 -0.00416
C 29.4684 32.68803 0.01177
C 30.72045 31.92966 0.04266
C 30.78899 30.54142 0.01324
C 29.5051 29.88256 0.0014
C 27.06331 15.58175 -0.00294
C 25.84016 10.69785 -0.00285
C 27.06996 17.06046 0.00826
C 28.31921 19.15184 -0.00942
C 24.5226 8.49502 -0.01199
C 24.61734 7.11286 -0.00229
C 25.81536 6.38903 -0.00938
C 25.97827 5.03983 -0.0264
C 24.57302 4.31317 -0.01154
C 24.58753 2.82661 0.00684
C 25.83275 2.10561 -0.01052
C 25.71742 0.70065 -0.01679
C 24.4942 0.01826 0.00367
C 26.99693 32.66259 0.04306
C 28.23607 31.94465 0.00996
C 28.30694 30.49394 0.00195
C 26.9515 29.77008 -0.00802
C 27.06807 28.44374 -0.00218
C 28.19773 27.68663 -0.01654
C 28.25615 26.21445 -0.00037
C 28.24845 23.3884 -0.0032
C 28.28065 22.07809 0.00622
C 27.07602 19.82032 -0.02815
C 28.26664 17.74564 0.00487
C 2.4729 32.57147 0.01465
