427
Graphene
C 0.01273 33.97955 0.01295
C 12.26599 24.23188 -0.02759
C 13.58986 23.44894 0.0402
C 13.54891 22.0408 0.00572
C 12.34429 21.35141 0.03592
C 12.34117 19.8664 0.00406
C 13.49583 19.08196 0.00943
C 13.52381 17.72224 0.02841
C 12.29344 16.94863 -0.01111
C 12.34589 15.62089 -0.01275
C 13.57734 14.86971 0.00985
C 12.24334 25.61441 0.03589
C 13.5039 13.48056 -0.02245
C 12.3057 11.41752 0.03101
C 13.52118 10.7553 -0.01536
C 13.51564 9.19884 -0.02689
C 12.29312 8.45148 -0.01046
C 12.27601 7.02756 -0.00891
C 13.53997 6.273 0.02819
C 13.47371 4.89089 0.00165
C 12.29826 4.21125 -0.02971
C 12.28424 2.78288 0.02894
C 13.48056 2.13439 -0.01789
C 12.29064 12.75802 -0.00428
C 13.55782 26.31295 -0.00033
C 13.47298 27.7375 -0.01062
C 12.2281 28.40267 0.01364
C 11.12775 19.18297 0.02888
C 11.0543 17.78772 -0.00482
C 9.82645 17.13809 -0.01384
C 9.83306 15.77577 0.03693
C 11.00458 14.93594 0.01745
C 11.06199 13.51883 0.00488
C 9.87386 12.87086 -0.01004
C 9.92281 11.35911 -0.02896
C 11.12475 10.69476 -0.00131
C 11.1386 9.21177 -0.01118
C 9.89291 8.55843 -0.014
C 9.82635 7.16245 0.02147
C 11.05438 6.35021 0.00373
C 11.01296 4.86973 -0.00191
C 9.73512 4.2968 0.00438
C 9.80847 2.84212 0.01291
C 11.0291 2.18689 0.00093
C 11.08794 0.76301 0.00057
C 9.90741 0.10164 -0.01634
C 12.21543 32.74511 -0.00334
C 13.49446 31.98969 0.02339
C 13.44541 30.60125 0.01641
C 12.23236 29.90162 -0.00719
C 13.62408 0.73301 0.00444
C 12.3618 0.03681 -0.00925
C 14.73768 32.74976 0.01877
C 15.96474 31.92807 0.01363
C 15.96925 2.05164 0.00798
C 16.05725 0.7016 0.00422
C 14.82556 0.00456 0.0351
C 17.15271 32.57553 -0.03113
C 18.35935 31.86687 0.02098
C 18.36918 30.45333 0.01848
C 17.12469 29.78438 -0.00619
C 17.16786 28.31233 -0.02162
C 18.39431 27.61913 0.00889
C 18.43549 26.22075 -0.00481
C 17.14094 25.58323 0.00979
C 17.15832 24.09416 0.01443
C 18.4189 23.43228 0.03505
C 18.36323 22.02622 -0.02815
C 17.15956 21.25351 -0.04147
C 17.1991 19.86221 -0.05302
C 18.51899 19.23041 0.00213
C 18.53548 17.8174 -0.00066
C 17.31798 17.0501 -0.00289
C 17.22309 15.59649 0.00028
C 18.4656 14.8938 -0.02213
C 18.49819 13.49203 0.03698
C 17.23867 12.86197 -0.00109
C 14.71404 2.78199 0.00228
C 9.89116 19.8083 0.00685
C 14.77142 4.18258 -0.00114
C 15.9116 6.46742 -0.00368
C 15.96059 30.52212 -0.02162
C 14.70388 29.89048 0.00415
C 14.70542 28.4682 -0.0014
C 15.86636 27.71413 0.02162
C 15.95515 26.29223 0.0076
C 14.68576 25.61901 0.01241
C 14.71042 24.22024 -0.01454
C 15.93423 23.40254 0.01945
C 15.86179 22.01004 0.01416
C 14.68788 21.27618 0.03542
C 14.71345 19.86618 0.02299
C 16.00953 19.16326 0.00244
C 16.04522 17.75728 -0.01717
C 14.71898 17.05482 0.05265
C 14.79581 15.60584 -0.01952
C 15.94957 14.97342 -0.02813
C 16.00013 13.5397 0.00374
C 14.78593 12.76662 0.00052
C 14.82001 11.3622 -0.03682
C 16.00657 10.72643 0.01965
C 15.95193 9.22869 0.02058
C 14.708 8.52668 -0.01957
C 14.68278 7.09584 -0.0108
C 15.91817 5.04187 -0.02696
C 17.25285 11.40458 -0.00491
C 9.88222 21.21662 0.00895
C 11.06135 23.44168 0.0288
C 3.69814 2.11295 0.0064
C 3.71538 0.73199 0.00211
C 2.48683 0.03614 -0.00449
C 4.89308 32.65403 -0.01979
C 6.12124 31.95888 0.02784
C 6.16401 30.51279 -0.01977
C 4.94956 29.77277 -0.00561
C 4.89751 28.3913 0.00208
C 6.11573 27.67399 0.01707
C 6.09044 26.28374 0.02769
C 2.46026 2.84254 -0.00039
C 4.80936 25.58256 -0.03291
C 6.1293 23.55939 0.04505
C 6.14057 22.04354 0.03284
C 4.9323 21.33358 -0.04307
C 4.93865 19.92464 0.03189
C 6.20852 19.16715 0.00031
C 6.14333 17.73872 -0.003
C 4.98231 17.01631 0.01402
C 4.82332 15.56651 0.02379
C 6.1684 14.94709 0.00907
C 6.11026 13.47342 0.00643
C 4.88153 24.1812 -0.04999
C 2.45842 4.22393 0.02728
C 3.6513 4.9062 0.00245
C 3.62781 6.44258 0.00081
C 3.66951 30.5762 0.02426
C 2.48432 29.85959 0.01218
C 2.55851 28.43616 -0.01471
C 3.71862 27.64765 -0.02827
C 3.63829 26.28711 0.01078
C 2.44504 25.49947 -0.00112
C 2.44278 24.11785 0.03345
C 3.68291 23.46235 0.00748
C 3.69936 22.02663 0.00662
C 2.43339 21.3538 -0.0154
C 2.48182 19.95781 -0.01299
C 3.66526 19.2199 -0.00407
C 3.69665 17.72965 0.01138
C 2.48107 16.9904 0.03278
C 2.40751 15.66545 -0.00177
C 3.60877 14.86063 0.04421
C 3.59801 13.40496 0.00088
C 2.38092 12.73659 0.00828
C 2.39085 11.29764 -0.02375
C 3.70843 10.68019 0.00558
C 3.67612 9.24972 -0.0059
C 2.40189 8.51809 -0.01386
C 2.37889 7.01872 -0.02805
C 4.86049 12.81393 -0.01509
C 4.87753 11.4309 0.03267
C 6.13345 10.72341 0.02374
C 6.13155 9.29159 0.00402
C 8.57218 13.61372 -0.00966
C 7.35728 12.89805 -0.03337
C 7.39221 11.42333 0.01227
C 8.59066 10.78083 0.00873
C 8.68157 9.28613 -0.00049
C 7.40992 8.63406 0.00848
C 7.28748 7.18015 -0.01303
C 8.63163 6.45505 -0.01378
C 8.57011 5.04981 0.02635
C 7.2859 4.34896 0.0127
C 7.32643 2.91007 0.01396
C 8.49604 2.11556 0.01849
C 8.59558 0.75318 -0.01142
C 7.37301 0.02809 -0.00562
C 9.82882 32.74318 -0.00494
C 11.02789 32.02032 0.00054
C 11.00281 30.60118 0.03007
C 9.86339 29.87256 -0.00095
C 9.85552 28.37819 0.01572
C 11.05688 27.71736 -0.04848
C 11.00997 26.3042 -0.00892
C 9.80354 25.57955 -0.01362
C 9.8516 24.15521 -0.0008
C 8.56309 14.99163 -0.02929
C 11.09008 22.01503 0.00393
C 7.3325 15.61591 0.03368
C 8.58608 17.76074 0.01305
C 4.87341 8.56612 0.0073
C 4.83667 7.13119 0.0174
C 6.10731 6.48495 0.03828
C 6.11914 5.03008 0.01226
C 4.89601 4.30582 -0.00279
C 4.91904 2.80138 0.01996
C 6.12157 2.15657 -0.03996
C 6.16206 0.70755 0.01465
C 4.9321 0.05175 -0.00074
C 7.34388 32.67318 -0.00518
C 8.58566 32.02564 0.0086
C 8.56681 30.6235 -0.00643
C 7.37473 29.86015 0.017
C 7.38186 28.50198 -0.03113
C 8.56045 27.74703 -0.02566
C 8.53118 26.33885 -0.00094
C 7.36292 25.53019 0.02322
C 7.32359 24.16545 -0.00725
C 8.6275 23.40175 -0.05697
C 8.63558 21.96123 0.01087
C 7.36539 21.37609 -0.01343
C 7.3866 19.9415 0.00988
C 8.55892 19.15513 0.0276
C 7.3659 17.01699 -0.00077
C 3.66025 32.04461 0.00787
C 18.52023 10.68196 0.03338
C 17.15865 8.53305 -0.0331
C 30.76452 23.46294 -0.01461
C 30.73431 22.00001 -0.02155
C 29.47809 21.35362 -0.00944
C 29.5543 19.92755 -0.03735
C 30.71237 19.19089 -0.00971
C 30.75106 17.73809 0.01518
C 29.54634 16.93053 0.01908
C 29.35955 7.00427 0.07705
C 30.63213 6.5266 0.0103
C 30.76264 4.93429 0.02108
C 29.57375 24.17111 -0.01303
C 29.51591 4.1739 0.00716
C 30.76222 2.10741 0.00346
C 30.7829 0.68596 0.01713
C 29.52337 0.06027 -0.01694
C 32.01169 32.60832 0.01428
C 33.25657 31.89119 -0.02142
C 33.28443 30.36736 0.0544
C 31.95379 29.82317 0.00026
C 32.05229 28.40743 0.00682
C 33.22688 27.65711 -0.01779
C 33.14193 26.24669 0.03794
C 29.50506 2.75354 0.00307
C 29.50038 25.59317 -0.0405
C 30.73447 26.36106 0.01705
C 30.71196 27.73312 0.0101
C 28.29764 22.08082 0.02198
C 27.03691 21.34689 0.01094
C 27.15594 19.93759 0.00235
C 28.34819 19.13264 0.01495
C 28.37546 17.6761 0.01259
C 27.13291 17.09668 0.01799
C 26.97709 15.66205 0.01699
C 26.97358 12.8559 -0.00416
C 26.91955 11.45417 0.01177
C 26.80717 8.3834 0.04266
C 26.99856 7.01155 0.01324
C 28.16464 6.28236 0.0014
C 28.20809 4.90493 0.00924
C 27.05728 4.28739 0.02326
C 27.0434 2.83844 0.00261
C 28.23412 2.15652 0.03265
C 28.22312 0.69587 -0.02049
C 27.01363 34.04192 -0.01854
C 29.59122 32.71141 -0.01415
C 30.78989 31.95283 -0.03039
C 30.70897 30.56747 0.01836
C 29.37081 29.87819 0.03531
C 29.48189 28.45429 -0.00669
C 31.97218 25.56277 0.01927
C 31.95427 24.11715 0.01574
C 33.15507 23.4632 -0.02383
C 33.16024 21.98379 -0.01429
C 0.00571 24.13579 0.03076
C 1.22399 23.49412 0.00723
C 1.21223 22.0716 0.02712
C 0.02776 21.32821 -0.02213
C 34.41389 19.90342 0.01951
C 1.21601 19.18826 -0.01678
C 1.26817 17.77589 0.01223
C 0.03557 17.00259 0.00648
C 34.28878 15.57702 0.02114
C 1.12998 14.87405 -0.02957
C 1.14143 13.43903 0.00343
C 34.36191 12.66582 -0.02656
C 34.43202 11.33594 -0.02442
C 1.21234 10.56765 -0.00027
C 1.23521 9.14087 -0.00583
C 34.36954 8.43663 -0.02302
C 34.26903 7.05795 -0.02849
C 1.18809 6.36726 0.02931
C 1.19477 4.91213 0.00628
C 34.37142 4.18926 -0.0345
C 0.02628 2.83587 -0.00931
C 1.28646 2.12748 -0.00939
C 1.16005 0.75788 -0.00468
C 34.3788 25.58421 -0.05239
C 28.24821 23.49595 0.02611
C 1.2743 26.2274 -0.00598
C 0.09586 28.29312 -0.01037
C 31.98884 21.20378 -0.0136
C 31.9929 19.79441 0.00594
C 33.18681 19.12395 -0.02474
C 33.21508 17.73946 0.00369
C 31.96085 17.0597 0.00455
C 31.79034 15.69291 -0.00644
C 32.91612 14.85442 -0.01839
C 33.03034 13.40967 0.00137
C 31.88782 12.67183 0.00199
C 33.21132 10.59582 0.04381
C 33.2341 9.2522 0.02806
C 31.94129 7.13937 0.01504
C 33.0697 6.41026 -0.00069
C 33.12204 4.92269 0.04926
C 31.96921 4.15397 -0.03838
C 31.9942 2.74146 0.00349
C 33.23652 2.05731 -0.00323
C 33.25628 0.62622 -0.00841
C 32.08756 34.00729 0.0001
C 34.42445 32.63924 -0.02927
C 1.2492 31.96113 -0.01404
C 1.26375 30.47753 0.01027
C 0.06067 29.69686 0.01831
C 1.31023 27.65374 -0.00439
C 18.4662 9.31853 -0.0258
C 26.99394 24.13336 -0.00621
C 28.24345 26.29637 0.04185
C 19.7814 12.71673 -0.00311
C 19.71426 11.30904 0.00742
C 20.86914 9.23267 -0.01594
C 19.63736 8.52079 0.0106
C 19.69143 7.10015 -0.01154
C 20.91586 6.35086 -0.01721
C 20.90464 4.93861 -0.02422
C 19.66268 4.23905 0.01277
C 19.59089 2.90663 0.00096
C 20.88835 2.11842 -0.01527
C 20.94435 13.44134 0.00675
C 20.78579 0.64492 0.01087
C 22.07499 32.74629 0.01511
C 23.32823 31.97495 -0.00478
C 23.402 30.52185 -0.01662
C 22.10418 29.89558 -0.01185
C 22.07929 28.43456 0.01126
C 23.40062 27.67731 0.01852
C 23.40182 26.33749 -0.00381
C 22.14065 25.53996 0.03046
C 22.19768 24.13673 0.0296
C 23.40729 23.4394 0.03374
C 19.59128 0.01371 0.00199
C 20.9004 14.86285 -0.00865
C 19.71926 15.6178 0.0058
C 19.65145 17.00354 -0.00652
C 17.28694 7.12906 -0.00316
C 18.47234 6.39856 0.02188
C 18.37028 4.96597 -0.01979
C 17.18255 4.29554 0.02691
C 17.15054 2.85445 -0.01581
C 18.36152 2.14539 0.01452
C 18.34282 0.68274 0.04892
C 17.1915 33.99182 -0.00111
C 19.62486 32.65378 -0.03557
C 20.80311 31.95759 0.03754
C 20.85538 30.5157 0.01739
C 19.63999 29.80164 0.00755
C 19.61757 28.33499 -0.0054
C 20.8635 27.70339 0.00667
C 20.89102 26.27796 0.00143
C 19.70655 25.45471 -0.017
C 19.68089 24.10613 0.00364
C 20.95478 23.42262 -0.00831
C 20.90294 22.06161 -0.02957
C 19.62232 21.369 -0.04422
C 19.63827 19.90591 0.00654
C 20.93798 19.1974 -0.00703
C 21.01523 17.84739 -0.04076
C 23.40514 21.99985 -0.02845
C 22.13117 21.27684 -0.03213
C 22.19787 19.8928 0.02239
C 23.35367 19.16142 0.01153
C 25.84154 19.12778 -0.0264
C 25.84406 17.73683 -0.01154
C 24.65859 17.02699 0.00684
C 24.55708 15.67402 -0.01052
C 25.80066 14.93572 -0.01679
C 25.81269 13.55951 0.00367
C 24.57338 12.74765 0.04306
C 24.67727 11.38756 0.00996
C 25.83439 10.68192 0.00195
C 25.79506 9.21734 -0.00802
C 24.62787 8.45641 -0.00218
C 24.5465 7.11771 -0.01654
C 25.75948 6.32756 -0.00037
C 25.73265 4.97877 -0.0032
C 24.60279 4.31174 0.00622
C 24.5546 2.92586 -0.02815
C 25.77428 2.14682 -0.00942
C 25.79037 0.6497 0.00487
C 24.59266 0.00351 0.00826
C 27.09909 32.62082 -0.00294
C 28.31599 32.01265 0.00152
C 28.2274 30.5938 0.01257
C 28.29392 27.67064 0.02316
C 24.61131 19.76772 -0.00938
C 27.00684 25.63658 0.00194
C 24.57038 21.24469 -0.00229
C 25.82845 23.41745 -0.009
C 23.40148 17.77013 0.02734
C 22.23229 17.11223 -0.0055
C 22.15747 15.6144 0.01515
C 23.32098 14.90967 -0.00225
C 23.37652 13.45341 0.00071
C 22.1334 12.80307 -0.01107
C 21.95958 8.50848 -0.01586
C 22.18848 7.11883 -0.01971
C 23.36612 6.37375 -0.02118
C 23.34565 4.97677 0.00733
C 22.17827 4.32671 -0.00178
C 22.11082 2.81253 0.00768
C 23.38476 2.08183 -0.0276
C 23.38175 0.71449 0.03005
C 22.0575 0.04934 -0.04078
C 24.61864 32.6447 0.02117
C 25.85647 31.86185 0.02737
C 25.94317 30.46138 -0.00498
C 24.7945 29.67535 0.00135
C 24.67158 28.31826 0.03102
C 25.77806 26.35799 0.02555
C 24.6477 25.61759 0.01423
C 24.64176 24.13464 -0.00285
C 25.79834 21.97503 -0.01199
C 2.43288 32.68446 0.00267
