378
Graphene
C 34.30734 0.04519 0.01295
C 12.29262 32.72983 0.01416
C 13.52323 31.86306 0.03542
C 13.55768 30.51463 0.02299
C 12.27151 29.90472 0.00244
C 12.20247 28.36768 -0.01717
C 13.44881 27.63755 0.05265
C 12.95697 26.26403 -0.01952
C 11.70253 25.844 -0.02813
C 13.09477 22.31709 0.00374
C 13.22277 20.77708 0.00052
C 12.44487 19.56046 -0.03682
C 13.70485 19.08729 0.01965
C 13.69011 17.78064 0.02058
C 12.37946 17.18567 -0.01957
C 12.40758 15.71741 -0.0108
C 13.54039 15.00669 -0.00368
C 13.57986 13.57045 -0.02696
C 12.38154 12.76444 -0.00114
C 12.23116 11.39095 0.00228
C 9.73513 0.08599 0.01945
C 11.02128 0.70857 -0.01454
C 11.04936 2.26394 0.01241
C 9.81739 2.9076 0.0076
C 9.86501 29.98601 -0.02245
C 9.74635 28.58115 -0.00428
C 10.87342 27.73007 0.03101
C 10.38861 26.32079 -0.01536
C 9.91181 20.22842 -0.02689
C 11.03558 19.30964 -0.01046
C 11.17572 17.88083 -0.00891
C 9.98992 17.20144 0.02819
C 9.92118 15.77658 0.00165
C 13.46321 10.63031 0.00798
C 11.11466 14.96295 -0.02971
C 9.81532 12.86057 -0.01789
C 9.8239 11.37485 0.00444
C 11.01684 10.6971 -0.00925
C 10.99322 9.30736 0.01877
C 9.80134 8.56262 0.01363
C 9.75252 7.03064 -0.02162
C 10.97818 6.38794 0.00415
C 11.04845 4.95053 -0.0014
C 9.73944 4.29739 0.02162
C 11.04237 13.49115 0.02894
C 11.08087 30.60202 0.00985
C 13.40453 9.31918 0.00422
C 12.30587 7.05721 -0.03113
C 16.29014 6.8971 0.02188
C 14.84094 4.32286 -0.01979
C 14.91363 2.94785 0.02691
C 16.01611 2.08378 -0.01581
C 16.00164 0.73862 0.01452
C 14.79846 34.02199 0.04892
C 17.28141 32.64559 -0.00111
C 18.54208 32.13394 -0.03557
C 18.47101 30.76975 0.03754
C 17.27101 30.05043 0.01739
C 17.35299 16.89323 0.00755
C 17.29496 15.51244 -0.0054
C 18.43853 14.78986 0.00667
C 18.52843 13.35699 0.00143
C 17.28428 12.66837 -0.017
C 17.17351 11.25706 0.00364
C 18.26614 10.2974 -0.00831
C 18.34132 8.81363 -0.02957
C 16.94338 7.95041 -0.04422
C 14.85999 7.07395 -0.00316
C 14.68008 8.50783 -0.0331
C 15.84138 9.118 -0.0258
C 15.95416 10.52047 0.03338
C 13.56556 6.41301 0.02098
C 13.58792 4.97488 0.01848
C 12.29623 4.29951 -0.00619
C 12.37237 2.91657 -0.02162
C 13.62312 2.22317 0.00889
C 13.6092 0.7777 -0.00481
C 12.29786 0.10024 0.00979
C 14.70461 32.6475 0.01443
C 15.92016 31.93391 0.03505
C 12.25615 8.57689 0.0351
C 16.04642 30.48952 -0.02815
C 14.78959 28.23167 -0.05302
C 14.59577 20.47651 0.00213
C 16.1697 17.47763 -0.00066
C 14.91159 17.10449 -0.00289
C 14.84872 15.65098 0.00028
C 16.00826 14.86131 -0.02213
C 16.05219 13.41189 0.03698
C 14.75105 12.76199 -0.00109
C 14.71603 11.32038 -0.00491
C 14.75887 29.71162 -0.04147
C 11.08907 32.06722 -0.01275
C 9.78473 32.76652 -0.01111
C 7.28975 0.07129 0.02841
C 3.62132 4.98849 -0.01343
C 2.36822 4.33404 0.00988
C 2.39242 2.85769 0.0276
C 3.62499 2.18106 0.01305
C 3.5561 0.73295 -0.00077
C 2.3308 0.09099 0.03368
C 4.85731 32.73942 -0.02929
C 6.11496 32.00656 -0.00966
C 6.13769 30.55196 -0.03337
C 4.8915 29.88831 0.01227
C 4.97888 28.42099 0.00873
C 6.21014 27.71599 -0.00049
C 6.31058 26.25471 0.00848
C 5.01285 25.57391 -0.01303
C 4.95851 24.2307 -0.01378
C 6.20542 23.43531 0.02635
C 6.07821 22.14404 0.0127
C 4.8784 21.42847 0.01396
C 4.92016 19.96383 0.01849
C 3.67782 6.4313 0.01087
C 2.38595 7.19301 -0.05697
C 2.42755 8.56808 -0.00725
C 3.68209 9.27511 0.02322
C 3.62079 30.65561 -0.01509
C 2.44302 29.89502 0.03267
C 2.47853 28.50254 0.02374
C 3.75267 27.66663 0.00402
C 3.77399 26.29691 0.0073
C 2.45081 25.65905 0.0174
C 2.43007 24.20288 0.03828
C 3.70543 23.63859 0.01226
C 3.60175 22.19607 -0.00279
C 6.17635 19.38945 -0.01142
C 2.48467 21.33092 0.01996
C 3.67309 19.26193 0.01465
C 3.70604 17.85705 -0.00074
C 2.45648 17.08339 -0.00518
C 2.43863 15.65222 0.0086
C 3.72997 15.04194 -0.00643
C 3.67814 13.64583 0.017
C 2.50715 12.88404 -0.03113
C 2.48551 11.47831 -0.02566
C 3.70827 10.75596 -0.00094
C 2.42435 19.96568 -0.03996
C 6.26717 17.95911 -0.00562
C 4.92272 17.13145 -0.00494
C 5.00643 15.7013 0.00054
C 7.28941 21.44192 -0.00191
C 7.51867 20.0478 0.00438
C 8.81946 19.36856 0.01291
C 8.72454 17.9292 0.00093
C 7.45247 17.2414 0.00057
C 7.43978 15.76779 -0.01634
C 8.7023 15.16799 -0.00334
C 8.64487 13.60179 0.02339
C 7.41438 12.86927 0.01641
C 7.41832 24.19273 0.00373
C 7.41555 11.47338 -0.00719
C 8.55857 9.22514 -0.01062
C 7.31531 8.51772 -0.00033
C 7.29837 7.15801 0.03589
C 8.54022 6.38563 -0.02759
C 8.59744 5.03889 0.0402
C 7.334 4.35454 0.00572
C 7.33297 2.93324 0.03592
C 8.56258 2.23429 0.00406
C 8.50622 0.80594 0.00943
C 8.57876 10.67531 0.01364
C 18.3963 0.8523 0.00654
C 7.7127 25.50076 0.02147
C 8.67355 27.70172 -0.01118
C 6.28317 14.94877 0.03007
C 6.14285 13.56203 -0.00095
C 4.93267 12.83862 0.01572
C 4.9708 11.43326 -0.04848
C 6.16457 10.73984 -0.00892
C 6.13056 9.27151 -0.01362
C 4.84141 8.54431 -0.0008
C 4.82824 7.16621 0.0288
C 6.05834 6.50141 0.00393
C 9.01671 26.31218 -0.014
C 6.05292 4.99447 0.00895
C 4.80009 2.9014 0.02888
C 6.12907 2.17633 -0.00482
C 6.07536 0.7206 -0.01384
C 4.79864 0.11901 0.03693
C 7.34609 32.68906 0.01745
C 8.65462 32.06404 0.00488
C 8.57472 30.6527 -0.01004
C 7.34223 29.82452 -0.02896
C 7.45192 28.40158 -0.00131
C 4.76365 4.28352 0.00685
C 17.25667 0.04298 -0.00703
C 19.67828 33.0239 -0.04076
C 20.85857 32.09174 -0.00652
C 29.4891 2.88795 0.02108
C 30.74175 2.105 0.00716
C 30.6729 0.71561 0.00307
C 29.45291 34.06052 0.00346
C 31.85314 32.67697 0.01713
C 33.09793 31.94753 -0.01694
C 33.09809 30.58263 0.01428
C 31.91003 29.85829 -0.02142
C 31.9945 28.44023 0.0544
C 33.19678 27.74138 0.00026
C 33.13109 26.31088 0.00682
C 31.9495 25.63709 -0.01779
C 32.02098 24.18754 0.03794
C 33.21305 23.44452 0.01927
C 33.26867 21.99522 0.01574
C 31.93364 21.32693 -0.02383
C 31.82606 19.90937 -0.01429
C 33.07617 19.24973 -0.0136
C 33.13655 17.81089 0.00594
C 29.37753 4.28857 0.0103
C 30.61638 4.98879 0.07705
C 30.75577 6.4338 0.01908
C 29.45373 7.08606 0.01518
C 29.37301 28.4137 0.00924
C 30.62617 27.72764 0.02326
C 30.66002 26.35413 0.00261
C 29.45994 25.56852 0.03265
C 29.51983 24.14252 -0.02049
C 30.80012 23.52045 -0.01854
C 30.73335 22.11478 -0.01415
C 29.46758 21.29825 -0.03039
C 29.2862 19.92827 0.01836
C 31.94551 17.12013 -0.02474
C 30.60723 19.18119 0.03531
C 29.4556 17.10244 0.0101
C 29.50539 15.61169 0.01705
C 30.74678 14.92756 -0.0405
C 30.68156 13.50958 -0.01303
C 29.4333 12.76638 -0.01461
C 29.52127 11.32687 -0.02155
C 30.73808 10.68497 -0.00944
C 30.71386 9.29083 -0.03735
C 29.47518 8.47769 -0.00971
C 30.61664 17.80664 -0.00669
C 31.99749 15.67026 0.00369
C 33.16044 14.92073 0.00455
C 33.12599 13.48752 -0.00644
C 0.00276 21.30113 -0.02213
C 34.37379 19.85165 0.01951
C 1.23005 19.25647 -0.01678
C 1.18516 17.83418 0.01223
C 0.01807 17.11687 0.00648
C 0.0035 15.68369 0.02114
C 1.23922 14.9156 -0.02957
C 1.2336 13.52539 0.00343
C 34.38584 12.84456 -0.02656
C 1.17304 22.03413 0.02712
C 34.38956 11.35476 -0.02442
C 1.26856 9.2755 -0.00583
C 34.37456 8.48407 -0.02302
C 34.35672 7.11871 -0.02849
C 1.207 6.42661 0.02931
C 1.18162 5.0128 0.00628
C 34.34153 4.28906 -0.0345
C 34.40883 2.89823 -0.00931
C 1.17626 2.0952 -0.00939
C 1.10554 0.74834 -0.00468
C 1.26194 10.75052 -0.00027
C 29.50528 29.85096 0.0014
C 1.16954 23.40377 0.00723
C 34.37462 25.63334 -0.05239
C 31.91855 12.7616 -0.01839
C 31.97704 11.41729 0.00137
C 33.22107 10.69152 0.00199
C 33.20592 9.25908 0.04381
C 31.9485 8.5123 0.02806
C 31.93759 7.1552 0.01504
C 33.13487 6.39225 -0.00069
C 33.15207 4.97506 0.04926
C 31.87995 4.26442 -0.03838
C 34.36476 24.15792 0.03076
C 31.98639 2.82989 0.00349
C 33.11103 0.71491 -0.00841
C 31.90791 0.00789 0.0001
C 34.32687 32.71276 -0.02927
C 1.1612 32.00694 -0.01404
C 1.17323 30.58947 0.01027
C 34.37749 29.86472 0.01831
C 34.41448 28.46841 -0.01037
C 1.17443 27.73263 -0.00439
C 1.1788 26.40566 -0.00598
C 33.20133 2.12865 -0.00323
C 3.67827 32.08262 0.00643
C 30.66416 30.56657 0.01324
C 29.37702 32.69959 0.01177
C 23.27818 9.12949 0.03374
C 21.96862 8.33798 -0.02845
C 21.90676 6.98602 -0.03213
C 23.02526 6.16132 0.02239
C 23.14662 4.7344 0.01153
C 21.93418 2.31948 0.02734
C 23.29975 2.02072 -0.0055
C 23.3943 0.65279 0.01515
C 22.19716 0.09173 -0.00225
C 24.54478 32.6485 0.00071
C 25.81704 31.86416 -0.01107
C 25.85739 30.45402 -0.01586
C 24.56033 29.74455 -0.01971
C 24.50336 28.41894 -0.02118
C 25.66943 27.61814 0.00733
C 25.81744 26.2164 -0.00178
C 25.65439 19.226 0.00768
C 25.72443 17.7698 -0.0276
C 24.48202 17.01192 0.03005
C 23.2969 10.58242 0.0296
C 22.04398 11.24017 0.03046
C 22.16808 12.65509 -0.00381
C 23.36055 13.39792 0.01852
C 20.85553 30.76018 0.0058
C 20.0015 16.9476 -0.00865
C 19.61288 15.62341 0.00675
C 20.78886 14.76369 -0.00311
C 20.81801 13.28855 0.00742
C 19.63376 12.54565 -0.01594
C 19.53776 11.14893 0.0106
C 20.81938 10.49458 -0.01154
C 20.84425 9.04965 -0.01721
C 24.46703 15.65234 -0.04078
C 19.62572 8.26222 -0.02422
C 19.71571 0.37431 0.00096
C 22.07273 32.75496 -0.01527
C 23.27294 31.92456 0.01087
C 23.29405 30.49138 0.00199
C 21.9521 30.01836 0.01511
C 23.19745 17.47333 -0.00478
C 21.94466 16.82664 -0.01662
C 21.979 15.45675 -0.01185
C 23.25626 14.80121 0.01126
C 21.13853 1.1397 0.01277
C 25.79742 14.84736 0.02117
C 25.80346 13.51823 0.02737
C 24.6132 12.75311 -0.00498
C 26.92519 20.06096 -0.02815
C 28.08982 19.19394 -0.00942
C 28.1822 17.78922 0.00487
C 26.96994 16.96138 0.00826
C 27.03685 15.56488 -0.00294
C 28.20377 14.9151 0.00152
C 28.20647 13.44901 0.01257
C 27.05133 12.64151 0.02316
C 26.94482 11.27882 0.04185
C 26.99272 21.49679 0.00622
C 28.20446 10.60697 0.00194
C 26.98666 8.44788 0.02611
C 26.95226 7.02267 0.02198
C 28.11101 6.34553 0.01094
C 28.17713 4.99257 0.00235
C 26.85915 4.21561 0.01495
C 27.01186 2.79007 0.01259
C 28.21165 2.13268 0.01799
C 28.19504 0.72138 0.01699
C 27.07561 0.01361 -0.00416
C 28.29986 9.2003 -0.00621
C 30.68473 31.9746 0.04266
C 28.32559 22.03779 -0.0032
C 27.05024 23.88241 -0.01654
C 24.59288 11.34919 0.00135
C 25.70536 10.54343 0.03102
C 25.7445 9.08892 0.02555
C 24.47454 8.36796 0.01423
C 24.39016 6.92371 -0.00285
C 25.63658 6.35639 -0.009
C 25.68622 4.91376 -0.01199
C 24.35322 4.08667 -0.00229
C 24.52932 2.72738 -0.00938
C 28.3971 23.37508 -0.00037
C 25.79796 2.03772 -0.0264
C 24.57968 34.01656 0.00684
C 26.9606 32.62463 -0.01052
C 28.23756 31.91891 -0.01679
C 28.25686 30.50972 0.00367
C 27.02689 29.76019 0.04306
C 26.96545 28.33571 0.00996
C 28.1831 27.60183 0.00195
C 28.23817 26.16746 -0.00802
C 27.03541 25.37939 -0.00218
C 25.81543 0.65533 -0.01154
C 2.409 32.70282 0.00907
