348
Graphene
C 0.01247 34.03026 0.01295
C 9.81448 8.53963 0.00422
C 9.83675 7.1077 0.0351
C 11.01931 6.41134 -0.03113
C 11.12712 5.05547 0.02098
C 9.91931 4.28089 0.01848
C 9.82522 2.86087 -0.00619
C 11.00637 2.06842 -0.02162
C 10.96664 0.60741 0.00889
C 9.79176 33.98571 -0.00481
C 12.35752 32.68055 0.00979
C 13.54387 31.916 0.01443
C 13.57899 30.5801 0.03505
C 12.31612 29.84717 -0.02815
C 12.30023 28.42976 -0.04147
C 13.60583 27.65113 -0.05302
C 13.53068 26.26409 0.00213
C 12.34512 25.54048 -0.00066
C 11.14511 9.17599 0.00798
C 11.07486 10.59734 0.00228
C 9.87559 11.29176 -0.00114
C 9.84603 12.71852 -0.02696
C 11.11161 31.95405 -0.01454
C 11.06709 30.4731 0.01945
C 9.81718 29.8647 0.01416
C 9.85328 28.47801 0.03542
C 11.06576 27.7336 0.02299
C 11.10535 26.28505 0.00244
C 9.86042 25.59379 -0.01717
C 9.81887 24.18819 0.05265
C 12.35708 24.07243 -0.00289
C 11.08286 23.4786 -0.01952
C 9.82141 21.39602 0.00374
C 9.84438 20.02198 0.00052
C 10.9747 19.15155 -0.03682
C 11.01793 17.79523 0.01965
C 9.85578 17.03173 0.02058
C 9.89896 15.54691 -0.01957
C 11.0909 14.85013 -0.0108
C 11.07775 13.45921 -0.00368
C 11.0862 22.07051 -0.02813
C 13.49213 23.33957 0.00028
C 13.48344 21.95084 -0.02213
C 12.21921 21.29818 0.03698
C 16.0209 30.50638 -0.00831
C 14.84164 29.8775 -0.02957
C 14.72398 28.51191 -0.04422
C 15.94742 27.69214 0.00654
C 15.91407 26.36428 -0.00703
C 14.72164 25.54255 -0.04076
C 14.68141 24.07765 -0.00652
C 15.93623 23.4137 0.0058
C 16.03234 31.91046 0.00364
C 15.93564 22.0619 -0.00865
C 14.74594 19.84544 -0.00311
C 16.00434 19.23868 0.00742
C 15.93744 17.80382 -0.01594
C 14.74232 17.12737 0.0106
C 14.79489 15.58813 -0.01154
C 16.01987 14.87578 -0.01721
C 15.89937 13.48789 -0.02422
C 14.72347 12.76368 0.01277
C 14.6804 21.28807 0.00675
C 9.8505 32.573 0.01241
C 14.80276 32.66034 -0.017
C 13.50795 0.71052 0.00667
C 12.22451 19.92636 -0.00109
C 13.47888 19.2277 -0.00491
C 13.53799 17.77579 0.03338
C 12.28278 17.03631 -0.0258
C 12.37966 15.63601 -0.0331
C 13.58532 14.92413 -0.00316
C 13.49739 13.50743 0.02188
C 12.28344 12.77125 -0.01979
C 12.24329 0.00628 0.00143
C 12.29354 11.30838 0.02691
C 13.50642 9.14369 0.01452
C 12.28907 8.47045 0.04892
C 12.28033 7.04953 -0.00111
C 13.54622 6.38888 -0.03557
C 13.52942 4.92798 0.03754
C 12.33559 4.27221 0.01739
C 12.21593 2.82883 0.00755
C 13.43628 2.14528 -0.0054
C 13.50936 10.59586 -0.01581
C 14.7433 11.37713 0.00096
C 7.29993 0.12229 0.0076
C 8.59213 2.11213 -0.0014
C 3.69352 4.98826 -0.01362
C 2.46856 4.16054 -0.0008
C 2.44044 2.73316 0.0288
C 3.64649 2.09534 0.00393
C 3.74448 0.70378 0.00895
C 2.49105 34.06511 0.00685
C 4.93235 32.71244 0.02888
C 6.19486 31.98034 -0.00482
C 6.0772 30.63306 -0.01384
C 4.84621 29.84458 0.03693
C 4.88351 28.41974 0.01745
C 6.15133 27.71342 0.00488
C 6.19001 26.32722 -0.01004
C 4.89219 25.58762 -0.02896
C 4.91062 24.20501 -0.00131
C 6.0588 23.44693 -0.01118
C 6.14928 21.98421 -0.014
C 3.70497 6.38996 -0.00892
C 2.48412 7.12916 -0.04848
C 2.48048 8.48602 0.01572
C 3.68648 9.2142 -0.00095
C 3.59546 30.5788 -0.02929
C 2.42307 29.83138 -0.00966
C 2.43638 28.4409 -0.03337
C 3.62918 27.71677 0.01227
C 3.57818 26.26863 0.00873
C 2.37243 25.52965 -0.00049
C 2.4789 24.16275 0.00848
C 3.69745 23.42464 -0.01303
C 4.96536 21.2307 0.02147
C 3.73881 22.01278 -0.01378
C 2.36524 19.93204 0.0127
C 3.59172 19.20117 0.01396
C 3.63602 17.70275 0.01849
C 2.43847 16.94295 -0.01142
C 2.46869 15.57508 -0.00562
C 2.37095 12.82045 -0.00494
C 2.57519 11.44529 0.00054
C 3.71796 10.61831 0.03007
C 2.51679 21.34662 0.02635
C 4.82705 19.89397 0.00373
C 6.03486 19.20191 -0.00191
C 6.07525 17.85052 0.00438
C 8.6067 22.05567 -0.02245
C 7.38107 21.26567 -0.00428
C 7.3751 19.92081 0.03101
C 8.63297 19.21746 -0.01536
C 8.67236 17.76481 -0.02689
C 7.34594 17.08299 -0.01046
C 7.34877 15.73304 -0.00891
C 8.44121 14.83492 0.02819
C 8.55941 23.4624 0.00985
C 8.60612 13.41851 0.00165
C 8.55804 10.69006 0.02894
C 8.65017 9.22137 -0.01789
C 7.4133 8.53833 0.00444
C 7.44228 7.13651 -0.00925
C 8.60151 6.41174 0.01877
C 8.66917 4.99302 0.01363
C 7.42914 4.24491 -0.02162
C 7.39202 2.80556 0.00415
C 7.29394 11.32364 -0.02971
C 8.60595 0.65411 0.02162
C 7.32945 24.09837 -0.01275
C 8.64984 26.31384 0.02841
C 4.88635 17.18584 0.01291
C 6.10918 10.70241 0.00093
C 6.12696 9.31636 0.00057
C 4.96339 8.51841 -0.01634
C 4.90875 7.13836 -0.00334
C 6.13187 6.41258 0.02339
C 6.18732 4.9912 0.01641
C 4.87276 4.29291 -0.00719
C 7.39347 25.52959 -0.01111
C 4.83898 2.87017 0.01364
C 6.09859 0.72867 -0.00033
C 4.91071 0.0256 0.03589
C 7.3566 32.76767 -0.02759
C 8.57117 32.03404 0.0402
C 8.50967 30.65088 0.00572
C 7.38955 29.89174 0.03592
C 7.38959 28.49641 0.00406
C 8.62799 27.786 0.00943
C 6.06358 2.11158 -0.01062
C 15.96524 10.67058 -0.01527
C 15.93641 9.30232 0.01087
C 14.75983 8.52931 0.00199
C 29.50943 2.86126 0.01428
C 30.75211 2.20132 -0.02142
C 30.68461 0.79477 0.0544
C 29.49576 0.00194 0.00026
C 32.02418 32.72943 0.00682
C 33.16801 31.95197 -0.01779
C 33.17034 30.49878 0.03794
C 31.96429 29.8258 0.01927
C 31.98071 28.49188 0.01574
C 33.13055 27.68637 -0.02383
C 33.26225 26.37578 -0.01429
C 33.24605 19.19077 -0.0136
C 33.04459 17.86086 0.00594
C 31.98659 17.01043 -0.02474
C 31.80108 15.69797 0.00369
C 33.12887 14.91063 0.00455
C 33.05583 13.48942 -0.00644
C 29.51846 4.31287 -0.01694
C 30.74807 4.99094 0.01713
C 30.70362 6.46916 0.00346
C 29.42785 7.15066 0.00307
C 28.27412 6.42037 0.01836
C 28.29085 4.96849 0.03531
C 27.07486 4.2248 -0.00669
C 27.03 2.83482 0.0101
C 28.26727 2.13289 0.01705
C 28.21438 0.7348 -0.0405
C 27.05272 34.01751 -0.01303
C 29.57083 32.63224 -0.01461
C 31.92062 12.68637 -0.01839
C 30.74473 32.01615 -0.02155
C 29.50731 29.86616 -0.03735
C 30.72831 14.88586 -0.00971
C 30.70399 13.51328 0.01518
C 29.5169 12.76311 0.01908
C 29.53168 11.40635 0.07705
C 30.74704 10.62176 0.0103
C 30.72547 9.22542 0.02108
C 29.49415 8.55342 0.00716
C 30.71825 30.58978 -0.00944
C 31.95784 11.34727 0.00137
C 33.21583 10.63709 0.00199
C 33.28877 9.20153 0.04381
C 1.17276 19.16462 -0.01678
C 1.15182 17.74634 0.01223
C 34.37724 17.02712 0.00648
C 34.34321 15.60785 0.02114
C 1.27862 14.89124 -0.02957
C 1.14339 13.40689 0.00343
C 34.31956 12.80523 -0.02656
C 0.02631 11.32558 -0.02442
C 34.31622 20.03007 0.01951
C 1.25542 10.66653 -0.00027
C 0.04482 8.51284 -0.02302
C 0.04643 7.07011 -0.02849
C 1.2484 6.32689 0.02931
C 1.25278 4.91285 0.00628
C 34.41613 4.21282 -0.0345
C 34.39082 2.80633 -0.00931
C 1.20581 2.04224 -0.00939
C 1.22498 0.65915 -0.00468
C 1.26823 9.2204 -0.00583
C 27.03711 7.12273 -0.03039
C 0.07736 21.42724 -0.02213
C 1.2357 23.4435 0.00723
C 31.96511 8.55221 0.02806
C 31.96234 7.13389 0.01504
C 33.1862 6.43619 -0.00069
C 33.25325 5.02633 0.04926
C 31.98219 4.30319 -0.03838
C 31.96864 2.86889 0.00349
C 33.23465 2.1678 -0.00323
C 33.26236 0.72797 -0.00841
C 1.32797 22.03552 0.02712
C 31.96556 0.06012 0.0001
C 1.23878 31.94289 -0.01404
C 1.16984 30.53334 0.01027
C 34.41931 29.79776 0.01831
C 0.00692 28.41712 -0.01037
C 1.26612 27.70403 -0.00439
C 1.13542 26.22078 -0.00598
C 34.26485 25.41462 -0.05239
C 0.03203 24.0272 0.03076
C 34.43241 32.63469 -0.02927
C 27.0863 8.54572 -0.01415
C 28.28932 9.29011 -0.01854
C 28.2951 10.75601 -0.02049
C 18.43903 14.93715 -0.02118
C 18.45142 13.48613 0.00733
C 17.20038 12.76483 -0.00178
C 17.23198 11.33153 0.00768
C 18.49346 10.617 -0.0276
C 18.43754 9.23756 0.03005
C 17.3231 8.48518 -0.04078
C 17.05707 7.08106 0.02117
C 17.21746 15.58019 -0.01971
C 17.12416 4.24797 0.02737
C 18.45603 2.08887 0.00135
C 18.47705 0.7144 0.03102
C 17.27789 34.0576 0.02555
C 19.64005 32.64104 0.01423
C 20.88491 31.93014 -0.00285
C 20.95607 30.50378 -0.009
C 19.69263 29.85186 -0.01199
C 19.56737 28.49955 -0.00229
C 17.25777 2.89035 -0.00498
C 19.69149 15.44128 -0.00938
C 17.31566 17.14686 -0.01586
C 17.14925 19.94219 0.00071
C 14.73281 7.10172 0.01511
C 15.9717 6.36931 -0.00478
C 15.97674 4.92277 -0.01662
C 14.74445 4.1736 -0.01185
C 14.68793 2.83584 0.01126
C 16.01493 2.0839 0.01852
C 16.01817 0.69724 -0.00381
C 14.76001 34.07519 0.03046
C 18.47719 17.71771 -0.01107
C 17.26976 32.60644 0.0296
C 18.41977 30.51555 -0.02845
C 17.26514 29.764 -0.03213
C 17.2176 28.33412 0.02239
C 18.53397 27.62193 0.01153
C 18.46946 26.29122 0.02734
C 17.2455 25.59749 -0.0055
C 17.10605 24.25961 0.01515
C 16.96375 21.23187 -0.00225
C 18.45499 31.89996 0.03374
C 3.80957 31.95679 0.03368
C 20.82174 14.95922 -0.0264
C 19.70087 12.84577 0.00684
C 24.52929 11.2536 -0.00621
C 25.72928 10.6076 0.02611
C 25.798 9.17748 0.02198
C 24.5795 8.50163 0.01094
C 25.95408 6.3503 0.00235
C 25.80277 5.00385 0.01495
C 24.70142 4.20702 0.01259
C 24.45271 2.90182 0.01799
C 24.62695 12.83826 0.00194
C 25.82014 2.09955 0.01699
C 24.62046 34.04977 0.01177
C 27.19609 32.64079 0.04266
C 28.3567 31.81144 0.01324
C 28.36017 30.38287 0.0014
C 28.3566 14.88259 0.00924
C 28.27759 13.52895 0.02326
C 27.10405 12.76474 0.00261
C 27.00408 11.31602 0.03265
C 25.80563 0.70201 -0.00416
C 20.92522 13.55861 -0.01154
C 25.88145 13.36212 0.04185
C 25.90127 31.90828 0.01257
C 19.7207 11.4071 -0.01052
C 20.9126 10.83859 -0.01679
C 21.01102 2.0708 0.00367
C 20.84545 0.68888 0.04306
C 19.638 34.03878 0.00996
C 22.07626 32.6293 0.00195
C 23.40048 31.99627 -0.00802
C 23.25553 30.59934 -0.00218
C 25.69053 30.626 0.02316
C 22.22594 29.90727 -0.01654
C 22.13096 12.88522 -0.0032
C 22.12755 11.34012 0.00622
C 23.23937 10.62733 -0.02815
C 23.57658 9.23129 -0.00942
C 23.36638 2.0208 0.00487
C 23.30323 0.70543 0.00826
C 22.11777 0.01342 -0.00294
C 24.60764 32.68305 0.00152
C 23.4401 13.36649 -0.00037
C 2.4876 32.62955 -0.00077
