413
Graphene
C 0.00868 34.04685 0.01295
C 14.72723 25.57047 -0.02245
C 14.66525 24.15175 -0.00428
C 15.94043 23.41797 0.03101
C 15.91531 21.94534 -0.01536
C 14.68058 21.28657 -0.02689
C 14.75775 19.8575 -0.01046
C 15.89311 19.0821 -0.00891
C 15.79946 17.63887 0.02819
C 14.70312 16.61796 0.00165
C 14.72825 15.35504 -0.02971
C 16.0888 14.78837 0.02894
C 16.14698 13.37846 -0.01789
C 14.86559 12.81005 0.00444
C 14.81182 11.39286 -0.00925
C 15.9788 10.69163 0.01877
C 16.0327 9.17661 0.01363
C 14.72766 8.53391 -0.02162
C 14.62775 7.12683 0.00415
C 16.02501 6.30009 -0.0014
C 15.95568 4.86513 0.02162
C 14.706 4.23544 0.0076
C 15.96773 26.30545 0.00985
C 15.96675 27.82134 -0.01275
C 14.6869 28.504 -0.01111
C 14.70866 29.90504 0.02841
C 13.47482 26.41777 0.02147
C 12.26797 25.67504 0.00373
C 12.06695 24.26532 -0.00191
C 13.3573 23.47556 0.00438
C 13.63177 22.14153 0.01291
C 13.67886 13.65044 0.00093
C 12.43829 12.98642 0.00057
C 12.33128 11.55646 -0.01634
C 13.56487 10.78138 -0.00334
C 13.50365 9.28793 0.02339
C 14.79236 2.80053 0.01241
C 12.31875 8.5744 0.01641
C 13.52236 6.39561 0.01364
C 13.44302 4.92044 -0.01062
C 12.20133 4.31797 -0.00033
C 12.25047 2.8211 0.03589
C 13.47721 2.14517 -0.02759
C 13.51798 0.71105 0.0402
C 12.26973 0.03352 0.00572
C 14.75179 32.66832 0.03592
C 16.03537 32.00758 0.00406
C 15.90853 30.64754 0.00943
C 12.29305 7.12084 -0.00719
C 15.98066 2.10132 -0.01454
C 16.00732 0.77088 0.01945
C 14.78564 0.06412 0.01416
C 18.45214 4.92992 0.00889
C 17.20358 4.19957 -0.00481
C 17.20284 2.80019 0.00979
C 18.43164 2.05849 0.01443
C 18.53861 0.72453 0.03505
C 17.22285 0.05383 -0.02815
C 19.68037 32.6775 -0.04147
C 20.87696 31.99951 -0.05302
C 20.90753 30.52244 0.00213
C 19.54271 29.84905 -0.00066
C 18.40749 6.34448 -0.02162
C 19.54786 28.41989 -0.00289
C 20.82127 26.20006 -0.02213
C 19.54444 25.56676 0.03698
C 19.53491 24.08121 -0.00109
C 20.79599 23.41188 -0.00491
C 20.79944 22.02139 0.03338
C 19.67742 21.25708 -0.0258
C 19.70456 19.83846 -0.0331
C 20.94638 19.15862 -0.00316
C 20.91308 17.75699 0.02188
C 19.70068 17.00013 -0.01979
C 20.76636 27.69574 0.00028
C 13.51327 27.82078 -0.014
C 17.24267 7.07218 -0.00619
C 18.41926 9.17718 0.02098
C 17.23561 32.71916 0.03542
C 18.45107 31.91676 0.02299
C 18.38639 30.53208 0.00244
C 17.10842 29.84574 -0.01717
C 17.15469 28.49187 0.05265
C 18.28326 27.79033 -0.01952
C 18.39539 26.35355 -0.02813
C 17.14421 25.61366 0.00374
C 17.13311 24.20183 0.00052
C 18.37909 23.44021 -0.03682
C 17.21649 8.45476 0.01848
C 18.43264 21.95936 0.01965
C 17.12213 19.82027 -0.01957
C 18.47237 19.15769 -0.0108
C 18.38794 17.73541 -0.00368
C 17.12207 16.97903 -0.02696
C 17.22547 15.5761 -0.00114
C 18.44352 14.9666 0.00228
C 18.48014 13.47877 0.00798
C 17.29017 12.74232 0.00422
C 17.26378 11.27031 0.0351
C 18.49584 10.64577 -0.03113
C 17.14928 21.22828 0.02058
C 12.25129 28.51086 -0.01118
C 12.24988 29.92315 -0.00131
C 13.44242 30.62254 -0.02896
C 2.38004 2.82728 0.03284
C 3.60889 2.1924 -0.04307
C 3.6101 0.73271 0.03189
C 2.35923 0.13878 0.00031
C 4.86334 32.69649 -0.003
C 6.06952 31.91166 0.01402
C 6.10257 30.54186 0.02379
C 4.94871 29.84891 0.00907
C 4.90768 28.43123 0.00643
C 6.07482 27.71852 -0.01509
C 2.39963 4.34548 0.04505
C 6.18737 26.215 0.03267
C 4.95338 23.99094 0.00402
C 6.25232 23.46196 0.0073
C 6.28331 13.3936 0.0174
C 4.83161 12.84966 0.03828
C 4.89751 11.3547 0.01226
C 6.10918 10.70999 -0.00279
C 6.0623 9.21494 0.01996
C 4.87394 8.49833 -0.03996
C 4.85105 7.14636 0.01465
C 6.11086 6.43779 -0.00074
C 4.91037 25.44701 0.02374
C 6.09178 4.99273 -0.00518
C 3.63111 4.9903 -0.04999
C 2.36164 7.13402 0.02769
C 3.66062 30.55823 -0.00177
C 2.43231 29.79306 0.04421
C 2.4504 28.40521 0.00088
C 3.67296 27.66945 0.00828
C 3.68715 26.28055 -0.02375
C 2.42164 25.58056 0.00558
C 2.42695 24.1297 -0.0059
C 3.65626 23.37667 -0.01386
C 3.6069 22.00654 -0.02805
C 2.43996 21.36301 0.00081
C 3.70149 6.4436 -0.03291
C 2.35084 19.97514 0.00245
C 3.54634 17.95699 -0.00039
C 2.43973 17.00039 0.0064
C 2.50984 15.59311 0.00211
C 3.77715 14.93925 -0.00449
C 3.62134 13.55757 -0.01979
C 2.46815 12.82375 0.02784
C 2.4282 11.34643 -0.01977
C 3.68411 10.66785 -0.00561
C 3.63285 9.25985 0.00208
C 2.40694 8.43239 0.01707
C 3.53197 19.10093 0.02728
C 19.72038 15.60413 0.02691
C 4.88791 4.31206 0.0086
C 6.16051 2.15735 0.017
C 11.00326 30.5688 -0.01142
C 9.71164 29.85192 -0.00562
C 9.74227 28.46416 -0.00494
C 10.99915 27.76957 0.00054
C 11.0457 26.39085 0.03007
C 9.91176 25.6257 -0.00095
C 9.99092 24.21466 0.01572
C 9.57105 12.98854 -0.04848
C 9.76753 11.52452 -0.00892
C 11.04003 10.9131 -0.01362
C 11.09132 31.99348 0.01849
C 11.1101 9.41466 -0.0008
C 9.84662 7.2571 0.00393
C 11.06112 6.44592 0.00895
C 11.03631 5.04373 0.00685
C 9.78842 4.27656 0.02888
C 9.8079 2.91013 -0.00482
C 11.00397 2.16713 -0.01384
C 11.00692 0.77565 0.03693
C 9.80223 0.08108 0.01745
C 12.25049 32.71533 0.00488
C 13.50847 31.99933 -0.01004
C 9.83736 8.66072 0.0288
C 4.83268 2.90329 -0.00643
C 9.85968 32.694 0.01396
C 8.6459 0.73574 0.02635
C 6.14379 0.79626 -0.03113
C 4.86672 0.06656 -0.02566
C 7.32484 32.74927 -0.00094
C 8.58103 31.98501 0.02322
C 8.5428 30.60883 -0.00725
C 7.33791 29.81646 -0.05697
C 7.3274 28.43476 0.01087
C 8.55178 27.74238 -0.01343
C 8.65335 26.36446 0.00988
C 7.44092 25.68744 0.0276
C 7.39371 0.00971 0.0127
C 7.33322 24.16885 0.01305
C 7.28786 11.39482 0.03368
C 8.60653 10.79868 -0.02929
C 8.62226 9.36616 -0.00966
C 7.34327 8.64215 -0.03337
C 7.30383 7.21801 0.01227
C 8.63536 6.479 0.00873
C 8.60642 5.02352 -0.00049
C 7.29543 4.28479 0.00848
C 7.37121 2.91073 -0.01303
C 8.59355 2.1769 -0.01378
C 7.40883 12.92631 -0.00077
C 3.67704 31.97715 0.03278
C 20.98588 14.84506 -0.01581
C 19.73793 12.75351 0.04892
C 30.73632 9.17482 -0.03735
C 29.47291 8.46426 -0.00971
C 29.4858 7.04527 0.01518
C 30.7291 6.38741 0.01908
C 30.69388 4.91291 0.07705
C 29.45315 4.19627 0.0103
C 29.51159 2.83234 0.02108
C 30.67521 2.08949 0.00716
C 30.77167 0.70085 0.00307
C 29.47791 34.07452 0.00346
C 31.92753 32.67228 0.01713
C 33.21737 31.90096 -0.01694
C 33.13641 30.53359 0.01428
C 31.94108 29.86928 -0.02142
C 31.90042 28.43719 0.0544
C 33.16812 27.75098 0.00026
C 33.17148 26.24065 0.00682
C 31.9332 25.56162 -0.01779
C 31.93975 24.17671 0.03794
C 33.17732 23.4172 0.01927
C 33.16203 22.01852 0.01574
C 30.6998 10.58511 -0.00944
C 29.50251 11.2814 -0.02155
C 29.45514 12.66112 -0.01461
C 30.72776 13.41578 -0.01303
C 27.10747 2.85825 0.01259
C 28.25276 2.16419 0.01799
C 28.28201 0.74667 0.01699
C 27.0603 0.0247 -0.00416
C 29.47799 32.63083 0.01177
C 30.72527 31.95925 0.04266
C 30.6376 30.538 0.01324
C 29.46835 29.90546 0.0014
C 29.45607 28.4788 0.00924
C 30.71231 27.69666 0.02326
C 31.98966 21.2383 -0.02383
C 30.76336 26.29187 0.00261
C 29.55534 24.12656 -0.02049
C 30.69132 23.38415 -0.01854
C 30.70985 21.99843 -0.01415
C 29.49441 21.26924 -0.03039
C 29.50308 19.86424 0.01836
C 30.71735 19.11109 0.03531
C 30.75151 17.72756 -0.00669
C 29.48396 17.02151 0.0101
C 29.51461 15.54951 0.01705
C 30.66735 14.78937 -0.0405
C 29.45895 25.5501 0.03265
C 32.00274 19.82069 -0.01429
C 33.15793 19.09762 -0.0136
C 33.16392 17.68087 0.00594
C 1.23017 23.40613 0.00723
C 1.19847 22.01211 0.02712
C 34.33582 21.29416 -0.02213
C 34.38172 19.8358 0.01951
C 1.18957 19.13241 -0.01678
C 1.21646 17.66957 0.01223
C 34.40523 17.01017 0.00648
C 34.39907 15.55644 0.02114
C 1.28084 14.88774 -0.02957
C 1.25089 13.50508 0.00343
C 0.01479 24.14273 0.03076
C 0.01054 12.81033 -0.02656
C 1.20475 10.71879 -0.00027
C 1.17064 9.15804 -0.00583
C 34.34176 8.47587 -0.02302
C 34.35575 7.03867 -0.02849
C 1.13204 6.39671 0.02931
C 1.15121 4.95874 0.00628
C 34.36867 4.23851 -0.0345
C 34.40182 2.81492 -0.00931
C 1.17365 2.1132 -0.00939
C 1.14143 0.6344 -0.00468
C 34.39772 11.3453 -0.02442
C 27.01816 4.27625 0.01495
C 0.01931 25.60983 -0.05239
C 1.23293 27.70403 -0.00439
C 31.93721 16.95484 -0.02474
C 31.89332 15.55207 0.00369
C 33.1545 14.90828 0.00455
C 33.22876 13.46624 -0.00644
C 31.97031 12.79607 -0.01839
C 31.94808 11.27923 0.00137
C 33.15929 10.63068 0.00199
C 33.16623 9.2089 0.04381
C 31.95704 8.47633 0.02806
C 31.97831 7.08211 0.01504
C 1.19042 26.30344 -0.00598
C 33.11556 6.38949 -0.00069
C 31.94175 4.25594 -0.03838
C 31.95264 2.80243 0.00349
C 33.15781 2.13588 -0.00323
C 33.21767 0.65972 -0.00841
C 31.96342 0.01491 0.0001
C 34.41279 32.6128 -0.02927
C 1.18955 31.9787 -0.01404
C 1.21225 30.47138 0.01027
C 34.39902 29.74162 0.01831
C 34.34416 28.38809 -0.01037
C 33.11271 4.93434 0.04926
C 28.32489 4.95872 0.00235
C 28.23536 6.35862 0.01094
C 27.00846 7.06056 0.02198
C 23.45543 17.73813 -0.02422
C 22.17272 17.06445 0.01277
C 22.14955 15.65524 0.00096
C 23.41298 14.89942 -0.01527
C 23.42631 13.47581 0.01087
C 22.18508 12.79066 0.00199
C 22.09927 11.30939 0.01511
C 23.36406 10.65205 -0.00478
C 23.36201 9.21928 -0.01662
C 22.14721 8.50146 -0.01185
C 23.44869 19.24106 -0.01721
C 22.10554 7.05063 0.01126
C 23.32609 4.94727 -0.00381
C 22.06897 4.23292 0.03046
C 22.10473 2.86647 0.0296
C 23.40855 2.09677 0.03374
C 23.37659 0.65662 -0.02845
C 22.18107 34.03731 -0.03213
C 24.55969 32.70804 0.02239
C 25.85096 31.9025 0.01153
C 25.74853 30.541 0.02734
C 24.6163 29.74875 -0.0055
C 23.30687 6.37985 0.01852
C 24.53926 28.34279 0.01515
C 22.14506 19.93579 -0.01154
C 23.32031 21.98326 -0.01594
C 19.70008 11.34782 -0.00111
C 20.89514 10.63057 -0.03557
C 20.87969 9.2255 0.03754
C 19.62552 8.46875 0.01739
C 19.62157 7.1144 0.00755
C 20.88581 6.38973 -0.0054
C 20.92541 4.95638 0.00667
C 19.61569 4.22523 0.00143
C 19.66049 2.84994 -0.017
C 20.87502 2.11645 0.00364
C 22.17924 21.30766 0.0106
C 20.96978 0.72696 -0.00831
C 22.10624 32.65254 -0.04422
C 23.34391 31.94683 0.00654
C 23.3298 30.49652 -0.00703
C 22.09948 29.80499 -0.04076
C 22.04138 28.33601 -0.00652
C 23.29435 27.67695 0.0058
C 23.34334 26.27453 -0.00865
C 22.04175 25.60784 0.00675
C 22.10197 24.21384 -0.00311
C 23.37327 23.45043 0.00742
C 19.71107 34.0486 -0.02957
C 20.92801 13.47101 0.01452
C 25.76431 27.66588 -0.00225
C 24.53092 25.61326 -0.01107
C 28.24924 30.57849 0.00367
C 27.02123 29.81114 0.04306
C 27.02007 28.42205 0.00996
C 28.23559 27.7136 0.00195
C 28.26567 26.25327 -0.00802
C 27.06096 25.56351 -0.00218
C 27.02398 24.10205 -0.01654
C 28.27389 23.44133 -0.00037
C 28.31628 22.08372 -0.0032
C 27.08581 21.35026 0.00622
C 28.26954 31.95484 -0.01679
C 27.08781 19.8657 -0.02815
C 28.28184 17.75893 0.00487
C 27.06002 17.02859 0.00826
C 27.07106 15.60152 -0.00294
C 28.24737 14.78082 0.00152
C 28.2299 13.46555 0.01257
C 26.99852 12.75376 0.02316
C 27.0398 11.30793 0.04185
C 28.25667 10.56215 0.00194
C 28.26265 9.14573 -0.00621
C 27.01546 8.47999 0.02611
C 28.27052 19.12611 -0.00942
C 25.77549 26.2349 0.00071
C 27.07487 32.6922 -0.01052
C 25.84756 0.67682 -0.01154
C 24.60752 24.22039 -0.01586
C 25.82819 23.42244 -0.01971
C 25.81787 22.04249 -0.02118
C 24.61468 21.36347 0.00733
C 24.67765 19.89422 -0.00178
C 25.8316 19.18364 0.00768
C 25.88611 17.7845 -0.0276
C 24.62952 17.01806 0.03005
C 24.66805 15.5483 -0.04078
C 25.8722 14.88937 0.02117
C 24.55725 34.01479 0.00684
C 25.78262 13.41601 0.02737
C 24.56726 11.25833 0.00135
C 25.89964 10.58552 0.03102
C 25.84211 9.18347 0.02555
C 24.5974 8.49987 0.01423
C 24.59156 7.00878 -0.00285
C 25.77723 6.33009 -0.009
C 25.86712 4.95223 -0.01199
C 24.56012 4.28192 -0.00229
C 24.60647 2.90159 -0.00938
C 25.8505 2.1348 -0.0264
C 24.61743 12.76158 -0.00498
C 2.42109 32.69793 0.01138
