293
Graphene
C 0.01956 0.02309 0.01295
C 17.22181 25.55752 -0.0054
C 17.16768 7.1635 0.00667
C 18.45192 6.44404 0.00143
C 18.47426 4.94593 -0.017
C 17.2592 4.33147 0.00364
C 17.25395 2.88538 -0.00831
C 18.39381 26.19805 0.00755
C 18.41592 2.13515 -0.02957
C 17.18801 33.99678 0.00654
C 19.67469 32.61277 -0.00703
C 20.97067 31.9672 -0.04076
C 20.95549 30.50632 -0.00652
C 19.72104 29.80097 0.0058
C 19.72021 28.36136 -0.00865
C 18.41072 0.7876 -0.04422
C 20.92252 27.66195 0.00675
C 18.44944 27.61236 0.01739
C 17.1718 29.77477 -0.03557
C 14.82504 28.35551 0.03698
C 15.90194 27.62267 -0.00109
C 16.03217 26.24248 -0.00491
C 14.7368 7.03246 0.03338
C 15.95712 6.46537 -0.0258
C 15.9061 5.01915 -0.0331
C 17.26135 28.41931 0.03754
C 14.7636 4.29062 -0.00316
C 16.02706 2.16026 -0.01979
C 16.01085 0.73414 0.02691
C 14.74903 0.02449 -0.01581
C 17.22943 32.64952 0.01452
C 18.47131 31.96068 0.04892
C 18.47852 30.59908 -0.00111
C 14.74192 2.85644 0.02188
C 20.88621 26.3321 -0.00311
C 19.70664 25.47297 0.00742
C 19.73786 24.09086 -0.01594
C 23.3641 9.22325 -0.02845
C 22.27306 8.52731 -0.03213
C 22.11868 7.07998 0.02239
C 23.36994 6.4165 0.01153
C 23.35554 4.90799 0.02734
C 22.05375 4.23488 -0.0055
C 23.39133 21.98352 0.03374
C 22.20093 2.84374 0.01515
C 23.34462 0.75208 0.00071
C 22.1546 0.0047 -0.01107
C 24.55213 32.7404 -0.01586
C 25.80269 31.98403 -0.01971
C 25.78864 30.46738 -0.02118
C 24.57663 29.7826 0.00733
C 23.37398 2.19438 -0.00225
C 23.34492 23.38158 0.0296
C 22.08647 24.15521 0.03046
C 22.11863 25.5613 -0.00381
C 19.70731 7.0448 0.0106
C 20.95416 6.46885 -0.01154
C 20.88966 4.93788 -0.01721
C 19.68333 4.25383 -0.02422
C 19.68614 2.82106 0.01277
C 20.92539 2.07364 0.00096
C 20.84521 0.69552 -0.01527
C 19.64823 34.0419 0.01087
C 22.16776 32.61024 0.00199
C 23.3832 31.91104 0.01511
C 23.34376 30.55811 -0.00478
C 22.0967 29.80665 -0.01662
C 22.10235 28.40602 -0.01185
C 23.31315 27.71705 0.01126
C 23.34207 26.29215 0.01852
C 14.7547 29.82502 -0.02213
C 16.03972 30.4959 0.00028
C 16.00573 31.94828 -0.00289
C 14.76319 32.67692 -0.00066
C 6.11093 10.71905 -0.02971
C 6.18448 9.25319 0.02894
C 4.91495 8.56851 -0.01789
C 6.16611 6.34331 0.00444
C 4.89168 2.79721 -0.00925
C 6.12342 2.13276 0.01877
C 5.01263 11.37284 0.00165
C 6.12445 0.70108 0.01363
C 7.32756 32.66103 0.00415
C 8.57013 31.98348 -0.0014
C 8.60903 30.49951 0.02162
C 7.32361 29.81166 0.0076
C 8.63185 10.67374 0.01241
C 8.64053 9.206 -0.01454
C 4.88797 34.06533 -0.02162
C 4.87042 28.30934 0.02819
C 4.9142 29.78305 -0.00891
C 6.18398 30.51098 -0.01046
C 3.65213 30.49513 -0.02759
C 2.48205 29.81135 0.0402
C 2.49274 28.40839 0.00572
C 3.68984 27.81382 0.03592
C 2.45988 11.3238 0.00406
C 3.65833 10.69176 0.00943
C 3.6732 9.23467 0.02841
C 2.45278 8.55324 -0.01111
C 2.46382 7.07749 -0.01275
C 2.42079 2.86631 0.00985
C 3.65392 2.19151 -0.02245
C 3.64419 0.7146 -0.00428
C 2.45689 0.01037 0.03101
C 4.90296 32.69424 -0.01536
C 6.15618 31.90322 -0.02689
C 7.39637 8.56339 0.01945
C 24.60466 28.39686 -0.00178
C 7.35619 7.12193 0.01416
C 8.55384 5.03406 0.02299
C 9.84964 0.00689 -0.03113
C 12.28453 32.62778 0.02098
C 13.49894 31.93728 0.01848
C 13.49523 30.55489 -0.00619
C 12.3425 29.79028 -0.02162
C 12.29852 8.57632 0.00889
C 11.04121 0.68781 0.0351
C 12.36507 7.09357 -0.00481
C 13.53232 4.96852 0.01443
C 12.22711 4.23782 0.03505
C 12.2556 2.91895 -0.02815
C 13.53365 2.15442 -0.04147
C 13.55607 0.70705 -0.05302
C 12.27587 0.01249 0.00213
C 13.57025 6.38036 0.00979
C 11.02539 2.09954 0.00422
C 9.86743 2.82412 0.00798
C 9.75675 4.22208 0.00228
C 7.37839 4.34163 0.00244
C 7.33996 2.90109 -0.01717
C 8.59858 2.12918 0.05265
C 8.62897 0.72708 -0.01952
C 7.36402 33.99986 -0.02813
C 9.87272 32.6629 0.00374
C 11.08898 31.99378 0.00052
C 11.08253 30.55226 -0.03682
C 9.83652 29.84317 0.01965
C 9.76679 11.2453 0.02058
C 11.08457 9.17989 -0.01957
C 9.88879 8.52525 -0.0108
C 9.85006 7.06115 -0.00368
C 11.07487 6.40808 -0.02696
C 11.06842 5.01531 -0.00114
C 8.56721 6.40841 0.03542
C 3.72921 31.93498 0.03589
C 25.87147 27.68766 0.00768
C 24.606 25.61102 0.03005
C 31.94639 25.46907 -0.01429
C 31.95029 24.12077 -0.0136
C 33.15865 23.45522 0.00594
C 33.1614 21.96534 -0.02474
C 31.98603 21.26384 0.00369
C 31.97962 19.88586 0.00455
C 33.19704 26.29415 -0.02383
C 33.26502 19.10029 -0.00644
C 31.94061 17.05716 0.00137
C 31.94792 15.64608 0.00199
C 33.23012 14.93094 0.04381
C 33.18887 13.47767 0.02806
C 31.97223 12.79647 0.01504
C 31.99822 11.40427 -0.00069
C 33.18552 17.74546 -0.01839
C 33.16574 10.69241 0.04926
C 33.25564 27.67042 0.01574
C 31.97984 29.87325 0.03794
C 30.74675 10.69306 0.07705
C 30.76043 9.28383 0.0103
C 29.46727 8.60156 0.02108
C 29.48748 7.1269 0.00716
C 30.75363 6.39127 0.00307
C 30.66903 4.95291 0.00346
C 32.00026 28.43425 0.01927
C 29.50861 4.23389 0.01713
C 30.7707 2.11379 0.01428
C 30.72578 0.74491 -0.02142
C 29.50585 0.03626 0.0544
C 31.9826 32.687 0.00026
C 33.13461 31.94646 0.00682
C 33.15514 30.56927 -0.01779
C 29.51458 2.80566 -0.01694
C 33.21702 9.22327 -0.03838
C 31.92674 8.58656 0.00349
C 31.9385 7.11843 -0.00323
C 0.03523 15.72619 -0.02957
C 1.24528 13.4346 0.00343
C 0.00987 12.79069 -0.02656
C 34.36308 11.35154 -0.02442
C 1.23201 10.67454 -0.00027
C 1.19974 9.27028 -0.00583
C 34.31858 16.97422 0.02114
C 34.38537 8.52406 -0.02302
C 1.21277 6.30973 0.02931
C 1.21425 4.9821 0.00628
C 34.39038 4.24133 -0.0345
C 0.01108 2.85909 -0.00931
C 1.26209 2.11736 -0.00939
C 1.23792 0.70616 -0.00468
C 34.40833 7.12245 -0.02849
C 0.04222 19.91727 0.00648
C 0.00293 21.27717 0.01223
C 34.4047 24.12717 -0.01678
C 33.18653 6.38712 -0.00841
C 33.18179 4.96599 0.0001
C 31.91023 4.31305 -0.02927
C 32.02122 2.84741 -0.01404
C 33.22761 2.08591 0.01027
C 33.25426 0.67586 0.01831
C 31.97001 0.03811 -0.01037
C 34.42449 32.66611 -0.00439
C 1.25271 31.96058 -0.00598
C 1.21343 30.53565 -0.05239
C 34.41403 29.8236 0.03076
C 34.41248 28.44193 0.00723
C 1.25783 27.73632 0.02712
C 1.22497 26.21404 -0.02213
C 0.05288 25.51585 0.01951
C 29.53816 11.38963 0.01908
C 29.50785 12.81929 0.01518
C 30.73883 13.45653 -0.00971
C 30.68891 14.9399 -0.03735
C 25.88157 0.66788 0.04306
C 24.54574 34.05404 0.00996
C 27.0206 32.68205 0.00195
C 28.26143 31.93989 -0.00802
C 28.2455 30.57025 -0.00218
C 27.03582 29.83218 -0.01654
C 25.84384 2.07221 0.00367
C 27.09332 28.38136 -0.00037
C 28.28612 26.29814 0.00622
C 27.11195 25.53215 -0.02815
C 27.05388 24.06425 -0.00942
C 28.28538 23.41428 0.00487
C 28.3157 21.97341 0.00826
C 27.01033 21.29773 -0.00294
C 28.31154 27.68014 -0.0032
C 24.61163 2.84072 -0.01679
C 24.56925 4.24968 -0.01052
C 25.83356 5.04007 0.00684
C 24.56887 24.14602 -0.04078
C 25.84374 23.49098 0.02117
C 25.80653 22.06434 0.02737
C 24.60425 21.31836 -0.00498
C 24.6118 19.90129 0.00135
C 25.84099 19.18215 0.03102
C 25.85922 17.7209 0.02555
C 25.80032 14.82391 0.01423
C 25.82836 13.54707 -0.00285
C 24.61583 11.37233 -0.009
C 25.85303 10.70535 -0.01199
C 25.77931 9.16597 -0.00229
C 24.55997 8.51452 -0.00938
C 24.58645 7.10505 -0.0264
C 25.90482 6.40843 -0.01154
C 27.00795 19.84286 0.00152
C 25.77963 26.29358 -0.0276
C 28.28042 19.13289 0.01257
C 27.01726 17.0262 0.04185
C 29.49573 29.76075 -0.02049
C 29.51781 28.44461 -0.01854
C 30.76094 27.75357 -0.01415
C 30.76604 26.28081 -0.03039
C 29.52392 25.53593 0.01836
C 29.46897 24.0986 0.03531
C 30.67704 30.52747 0.03265
C 30.74589 23.43405 -0.00669
C 29.55143 21.24953 0.01705
C 29.53827 19.87222 -0.0405
C 30.7212 19.21208 -0.01303
C 30.74118 17.78838 -0.01461
C 29.51115 17.09715 -0.02155
C 29.49042 15.63664 -0.00944
C 30.71539 21.99784 0.0101
C 30.73895 31.97643 0.00261
C 29.53693 32.65609 0.02326
C 27.08067 34.07575 0.00924
C 27.02228 15.58754 0.00194
C 28.26342 14.90413 -0.00621
C 28.27345 13.52021 0.02611
C 27.03502 12.84901 0.02198
C 27.09066 11.3052 0.01094
C 28.29609 10.62513 0.00235
C 28.22167 9.22407 0.01495
C 27.03775 8.54768 0.01259
C 27.10538 7.10705 0.01799
C 28.22014 6.32125 0.01699
C 28.24022 4.9506 -0.00416
C 27.04774 4.25717 0.01177
C 27.04557 2.78359 0.04266
C 28.26076 2.13914 0.01324
C 28.31812 0.66626 0.0014
C 28.29067 17.73615 0.02316
C 2.49495 32.68119 -0.00033
