381
Graphene
C 34.37429 0.10663 0.01295
C 12.25576 12.86954 -0.01454
C 12.29708 11.43814 0.01945
C 13.53553 10.67331 0.01416
C 13.49113 9.23502 0.03542
C 12.25791 8.51775 0.02299
C 12.32688 7.13145 0.00244
C 13.53909 6.42078 -0.01717
C 13.56233 5.03098 0.05265
C 12.32293 4.32792 -0.01952
C 12.34719 2.86552 -0.02813
C 13.52935 2.01971 0.00374
C 13.53263 0.51263 0.00052
C 12.22394 33.97319 -0.03682
C 14.76654 32.45214 0.01965
C 16.00875 32.01699 0.02058
C 16.09153 17.58372 -0.01957
C 14.76879 17.11869 -0.0108
C 14.72152 15.6956 -0.00368
C 15.9809 14.90313 -0.02696
C 13.51926 13.4965 0.01241
C 13.50943 15.02609 0.0076
C 12.29332 15.56725 0.02162
C 12.3253 17.05307 -0.0014
C 9.86933 17.11302 -0.01275
C 9.82164 15.73758 0.00985
C 11.04572 14.92789 -0.02245
C 10.97375 13.47957 -0.00428
C 9.72791 12.82658 0.03101
C 9.79636 11.40426 -0.01536
C 11.05758 10.72927 -0.02689
C 11.0886 9.24817 -0.01046
C 9.83522 8.52534 -0.00891
C 15.93071 13.48461 -0.00114
C 9.83683 7.12309 0.02819
C 11.11846 4.97928 -0.02971
C 9.89619 4.30466 0.02894
C 9.84779 2.87222 -0.01789
C 11.09664 2.15547 0.00444
C 11.07139 0.70357 -0.00925
C 9.75562 0.17057 0.01877
C 12.13139 32.52492 0.01363
C 13.33679 31.81494 -0.02162
C 13.55843 17.7387 0.00415
C 11.14662 6.41301 0.00165
C 14.72636 12.75622 0.00228
C 14.79931 11.38491 0.00798
C 16.01939 10.57872 0.00422
C 17.16807 7.07903 -0.0331
C 18.3568 6.32888 -0.00316
C 18.31597 4.93996 0.02188
C 17.14299 4.25251 -0.01979
C 17.21251 2.74955 0.02691
C 18.46493 2.10774 -0.01581
C 18.45155 0.713 0.01452
C 17.23137 0.04825 0.04892
C 19.65314 32.62194 -0.00111
C 17.23975 8.42931 -0.0258
C 20.8714 31.96518 -0.03557
C 19.62585 29.95988 0.01739
C 21.0093 27.59303 0.00755
C 20.9088 26.26992 -0.0054
C 20.92753 23.32963 0.00667
C 20.3643 22.2199 0.00143
C 19.72036 21.10188 -0.017
C 19.45908 19.73059 0.00364
C 20.7209 19.06043 -0.00831
C 20.71931 17.66914 -0.02957
C 20.83579 30.55132 0.03754
C 11.12237 17.8541 -0.01111
C 18.50004 9.13562 0.03338
C 17.22946 11.30589 -0.00109
C 15.98193 9.17311 0.0351
C 14.74212 8.52377 -0.03113
C 14.79227 7.13462 0.02098
C 15.98137 6.39169 0.01848
C 15.97916 4.91485 -0.00619
C 14.77337 4.19119 -0.02162
C 14.71 2.7446 0.00889
C 15.99659 2.04948 -0.00481
C 15.9934 0.66963 0.00979
C 18.46622 10.53362 -0.00491
C 14.70999 33.9111 0.01443
C 18.34482 32.0056 -0.02815
C 18.51486 30.56346 -0.04147
C 18.15999 18.97233 -0.05302
C 18.37692 17.62251 0.00213
C 17.18196 16.83199 -0.00066
C 17.24182 15.43168 -0.00289
C 18.47656 14.83547 0.00028
C 18.45862 13.43063 -0.02213
C 17.21568 12.71264 0.03698
C 17.15242 32.7175 0.03505
C 10.91049 19.23287 0.02841
C 9.91363 19.99487 0.00943
C 10.70054 31.90098 0.00406
C 3.64985 4.97368 -0.00725
C 2.44493 4.27672 -0.05697
C 2.37525 2.90284 0.01087
C 3.64893 2.19725 -0.01343
C 3.60306 0.68669 0.00988
C 2.36799 0.02917 0.0276
C 4.88344 32.67921 0.01305
C 6.13741 32.01587 -0.00077
C 6.24132 30.59176 0.03368
C 3.64376 6.43791 0.02322
C 4.99249 29.8805 -0.02929
C 6.20662 27.85573 -0.03337
C 6.14401 26.34226 0.01227
C 4.88645 25.57524 0.00873
C 4.8525 24.25409 -0.00049
C 6.11783 23.44718 0.00848
C 6.16238 22.04196 -0.01303
C 4.93958 21.33324 -0.01378
C 4.88912 20.01248 0.02635
C 6.2123 19.28998 0.0127
C 4.91225 28.47441 -0.00966
C 6.1765 17.91597 0.01396
C 2.39807 7.09256 -0.00094
C 3.65083 9.31505 -0.03113
C 3.68978 30.52651 0.02379
C 2.45758 29.85841 0.00907
C 2.4047 28.39981 0.00643
C 3.62984 27.69844 -0.01509
C 3.6655 26.32174 0.03267
C 2.43396 25.64704 0.02374
C 2.40929 24.2255 0.00402
C 3.67887 23.49679 0.0073
C 3.69878 22.09367 0.0174
C 2.47842 8.55549 -0.02566
C 2.49856 21.34998 0.03828
C 3.72653 19.21941 -0.00279
C 3.71941 17.84387 0.01996
C 2.50176 17.13387 -0.03996
C 2.43958 15.72322 0.01465
C 3.66349 15.00298 -0.00074
C 3.67304 13.54505 -0.00518
C 2.40445 12.8596 0.0086
C 2.3959 11.46171 -0.00643
C 3.63938 10.68839 0.017
C 2.45096 19.94458 0.01226
C 19.63533 16.91277 -0.04422
C 4.93923 17.13809 0.01849
C 6.17553 14.91928 -0.00562
C 8.56011 19.26224 0.02147
C 8.6755 17.83317 0.00373
C 7.43393 17.15635 -0.00191
C 7.31965 15.7633 0.00438
C 8.60428 14.98249 0.01291
C 8.54747 13.62387 0.00093
C 7.38733 12.91349 0.00057
C 7.36688 11.45015 -0.01634
C 8.56502 10.70782 -0.00334
C 7.40607 20.03042 -0.014
C 8.62234 9.28534 0.02339
C 7.44158 7.12757 -0.00719
C 8.65151 6.39291 0.01364
C 8.64394 4.98617 -0.01062
C 7.44968 4.35 -0.00033
C 7.37921 2.89992 0.03589
C 8.56707 2.18838 -0.02759
C 8.55037 0.81423 0.0402
C 7.29014 0.11103 0.00572
C 9.73704 32.81793 0.03592
C 7.38062 8.5967 0.01641
C 4.91229 15.63455 -0.01142
C 7.41198 21.4503 -0.01118
C 7.34398 24.14143 -0.02896
C 6.10782 13.51989 -0.00494
C 4.89883 12.77766 0.00054
C 4.91355 11.4134 0.03007
C 6.11227 10.76603 -0.00095
C 6.06965 9.32912 0.01572
C 4.90566 8.52337 -0.04848
C 4.87314 7.1075 -0.00892
C 6.23385 6.4247 -0.01362
C 6.11357 5.01476 -0.0008
C 8.56391 22.07205 -0.00131
C 4.86256 4.28247 0.0288
C 6.09685 2.28499 0.00895
C 6.06295 0.80329 0.00685
C 4.86493 0.03625 0.02888
C 7.26497 32.77249 -0.00482
C 8.52184 32.14093 -0.01384
C 8.68702 30.78994 0.03693
C 7.49286 29.88547 0.01745
C 7.50317 28.44215 0.00488
C 7.2955 25.4291 -0.01004
C 4.87594 2.89905 0.00393
C 3.65797 31.99673 0.01402
C 19.68822 15.50667 0.00654
C 20.91382 13.3381 -0.04076
C 29.383 2.89689 0.02108
C 30.60001 2.19855 0.00716
C 30.60369 0.7402 0.00307
C 29.43247 0.01151 0.00346
C 31.95262 32.74028 0.01713
C 33.13707 31.94707 -0.01694
C 33.13358 30.53179 0.01428
C 31.89617 29.81601 -0.02142
C 31.91244 28.41371 0.0544
C 33.1979 27.64608 0.00026
C 33.17184 26.25533 0.00682
C 31.92888 25.51605 -0.01779
C 31.89272 24.14919 0.03794
C 33.12853 23.45589 0.01927
C 33.14208 21.98551 0.01574
C 31.928 21.29045 -0.02383
C 31.95394 19.88333 -0.01429
C 33.19068 19.16866 -0.0136
C 33.17554 17.76064 0.00594
C 29.3909 4.36485 0.0103
C 30.62405 4.95825 0.07705
C 30.70882 6.41748 0.01908
C 29.43656 7.1017 0.01518
C 30.69641 30.57906 0.00924
C 29.48227 29.91555 0.02326
C 29.446 28.46956 0.00261
C 30.65731 27.71028 0.03265
C 30.70978 26.26008 -0.02049
C 29.46482 25.62673 -0.01854
C 29.51144 24.18516 -0.01415
C 30.6336 23.36623 -0.03039
C 30.61334 21.96505 0.01836
C 31.84515 17.15057 -0.02474
C 30.74142 19.3342 0.03531
C 29.46288 16.94472 0.0101
C 29.63445 15.55152 0.01705
C 30.87839 14.89301 -0.0405
C 30.80188 13.4995 -0.01303
C 29.55336 12.78356 -0.01461
C 29.52599 11.38138 -0.02155
C 30.79722 10.73739 -0.00944
C 30.75007 9.20962 -0.03735
C 29.48349 8.50532 -0.00971
C 30.59224 17.89414 -0.00669
C 31.9808 15.76349 0.00369
C 33.20718 15.02053 0.00455
C 33.29462 13.56449 -0.00644
C 34.34556 21.27857 -0.02213
C 34.38642 19.92133 0.01951
C 1.19147 19.26249 -0.01678
C 1.21084 17.80829 0.01223
C 34.41607 17.09634 0.00648
C 0.02211 15.69427 0.02114
C 1.22457 15.04667 -0.02957
C 1.21986 13.52727 0.00343
C 0.05294 12.81063 -0.02656
C 1.20022 21.98962 0.02712
C 0.00328 11.38189 -0.02442
C 1.28582 9.25279 -0.00583
C 0.02251 8.59879 -0.02302
C 34.36138 7.18596 -0.02849
C 1.16181 6.41992 0.02931
C 1.18939 4.98475 0.00628
C 34.38647 4.32274 -0.0345
C 34.34572 2.88508 -0.00931
C 1.10468 2.16933 -0.00939
C 1.12013 0.78894 -0.00468
C 1.21624 10.73933 -0.00027
C 30.62423 32.08425 0.0014
C 1.19425 23.43992 0.00723
C 34.38897 25.58561 -0.05239
C 32.02207 12.77296 -0.01839
C 32.02063 11.4294 0.00137
C 33.23297 10.63063 0.00199
C 33.24619 9.22225 0.04381
C 31.95458 8.52523 0.02806
C 31.95393 7.07744 0.01504
C 33.17565 6.3605 -0.00069
C 33.15146 4.93397 0.04926
C 31.83551 4.26057 -0.03838
C 34.37861 24.1654 0.03076
C 31.8256 2.85557 0.00349
C 33.14272 0.84112 -0.00841
C 31.89858 0.04402 0.0001
C 34.38865 32.72591 -0.02927
C 1.20203 31.90973 -0.01404
C 1.22049 30.5327 0.01027
C 34.42013 29.85477 0.01831
C 34.41435 28.33671 -0.01037
C 1.17373 27.71754 -0.00439
C 1.16687 26.32761 -0.00598
C 33.10101 2.2298 -0.00323
C 29.4082 32.66538 0.01324
C 26.98046 0.04839 0.04266
C 28.3117 0.81403 0.01177
C 22.92693 20.58787 0.0296
C 22.20785 19.34998 0.03374
C 22.97915 18.14845 -0.02845
C 22.07892 17.10461 -0.03213
C 22.08617 15.59566 0.02239
C 23.40714 14.92615 0.01153
C 23.43247 13.34526 0.02734
C 22.18375 12.54991 -0.0055
C 22.18507 11.17413 0.01515
C 23.24554 21.87155 0.03046
C 23.40771 10.39611 -0.00225
C 22.32204 8.08312 -0.01107
C 22.18249 6.59166 -0.01586
C 22.97255 5.25948 -0.01971
C 22.00295 4.29158 -0.02118
C 22.0603 2.83576 0.00733
C 23.24208 2.18102 -0.00178
C 23.3379 0.68387 0.00768
C 22.03646 34.05257 -0.0276
C 24.54862 32.65547 0.03005
C 23.51831 8.81277 0.00071
C 25.85348 31.94575 -0.04078
C 23.31464 23.2757 -0.00381
C 22.09611 25.46439 0.01126
C 19.71648 12.6172 -0.00652
C 19.74403 11.23819 0.0058
C 20.96687 10.50675 -0.00865
C 21.03725 8.94653 0.00675
C 19.7261 8.42851 -0.00311
C 19.59137 6.98875 0.00742
C 20.90522 6.20255 -0.01594
C 20.63526 4.77406 0.0106
C 19.51402 4.14452 -0.01154
C 22.13725 24.05989 0.01852
C 19.68835 2.80502 -0.01721
C 20.77885 0.66633 0.01277
C 19.65954 34.01353 0.00096
C 22.07733 32.66082 -0.01527
C 23.30525 31.97895 0.01087
C 23.33692 30.48311 0.00199
C 22.12998 29.801 0.01511
C 22.12445 28.37401 -0.00478
C 23.35712 27.70227 -0.01662
C 23.25773 26.18694 -0.01185
C 20.90488 2.0709 -0.02422
C 20.93407 14.83579 -0.00703
C 25.81122 30.50484 0.02117
C 24.52439 28.39948 -0.00498
C 27.06783 28.41478 -0.02815
C 28.20967 27.69484 -0.00942
C 28.21936 26.23826 0.00487
C 27.06156 25.42681 0.00826
C 27.01354 24.01692 -0.00294
C 28.38537 23.40702 0.00152
C 27.24446 15.64524 0.01257
C 28.37179 14.84287 0.02316
C 28.25843 13.41894 0.04185
C 27.03121 29.81079 0.00622
C 27.03273 12.80198 0.00194
C 28.30919 10.6466 0.02611
C 28.34558 9.29068 0.02198
C 27.18091 8.56459 0.01094
C 26.93946 7.12969 0.00235
C 28.18148 6.4436 0.01495
C 28.07501 5.06719 0.01259
C 26.84209 4.4476 0.01799
C 26.86128 2.97997 0.01699
C 28.11587 2.26357 -0.00416
C 27.07437 11.35357 -0.00621
C 24.48665 29.79605 0.02737
C 28.22886 30.55958 -0.0032
C 26.96794 32.65824 -0.01654
C 25.81494 27.65733 0.00135
C 25.72816 26.24866 0.03102
C 24.46474 25.58967 0.02555
C 24.52172 24.11801 0.01423
C 25.68736 23.52019 -0.00285
C 24.6116 15.57018 -0.009
C 25.92519 15.02545 -0.01199
C 25.89418 13.58179 -0.00229
C 24.66014 12.7263 -0.00938
C 28.20661 32.01815 -0.00037
C 24.66539 11.2499 -0.0264
C 25.92485 9.15416 0.00684
C 24.95682 8.16624 -0.01052
C 25.55336 6.88208 -0.01679
C 25.60913 5.37281 0.00367
C 24.36562 4.51499 0.04306
C 24.44861 3.02424 0.00996
C 25.64813 2.26647 0.00195
C 25.79254 0.79192 -0.00802
C 24.56339 34.07938 -0.00218
C 25.85171 10.63891 -0.01154
C 2.41036 32.70822 -0.003
