348
Graphene
C 0.00351 0.04181 0.01295
C 13.54734 14.82332 0.00422
C 13.4314 13.41644 0.0351
C 12.26695 12.75685 -0.03113
C 12.21203 11.32864 0.02098
C 13.48525 10.65969 0.01848
C 13.50821 9.23892 -0.00619
C 12.23896 8.52509 -0.02162
C 12.22994 7.16534 0.00889
C 13.4502 6.40669 -0.00481
C 13.48188 5.00894 0.00979
C 12.28962 4.2817 0.01443
C 12.30817 2.85115 0.03505
C 13.50561 2.1562 -0.02815
C 13.55879 0.73095 -0.04147
C 12.27599 0.06757 -0.05302
C 14.73912 32.61635 0.00213
C 15.94727 31.91837 -0.00066
C 12.28907 15.60693 0.00798
C 12.3672 17.08637 0.00228
C 13.5335 17.78374 -0.00114
C 13.51464 19.17692 -0.02696
C 10.96065 10.63507 -0.01454
C 11.04125 9.22957 0.01945
C 9.73417 8.51894 0.01416
C 9.78952 7.11088 0.03542
C 11.01914 6.44396 0.02299
C 10.99911 5.01919 0.00244
C 9.81895 4.25234 -0.01717
C 9.85292 2.86021 0.05265
C 15.82713 30.48698 -0.00289
C 11.08629 2.21882 -0.01952
C 9.88662 34.03438 0.00374
C 12.28758 32.61986 0.00052
C 13.47699 31.96131 -0.03682
C 13.20107 30.51786 0.01965
C 13.38585 23.35926 0.02058
C 13.1168 22.08386 -0.01957
C 12.0735 21.34881 -0.0108
C 12.30343 19.81505 -0.00368
C 11.09303 0.78867 -0.02813
C 14.45433 29.78254 0.00028
C 14.6733 28.40939 -0.02213
C 15.93286 27.70616 0.03698
C 14.84114 2.88753 -0.00831
C 16.04233 2.25483 -0.02957
C 16.16253 0.80388 -0.04422
C 14.80499 0.10642 0.00654
C 17.20237 32.60376 -0.00703
C 18.47849 31.95027 -0.04076
C 18.45888 30.54402 -0.00652
C 17.09378 29.78298 0.0058
C 14.78836 4.2886 0.00364
C 17.10171 28.34774 -0.00865
C 18.3937 26.32795 -0.00311
C 17.13092 25.60966 0.00742
C 17.10026 24.19811 -0.01594
C 18.3323 23.38438 0.0106
C 18.32188 22.02605 -0.01154
C 17.05504 21.32547 -0.01721
C 17.23423 19.89319 -0.02422
C 18.42866 19.2099 0.01277
C 18.39659 27.74716 0.00675
C 9.75137 11.46618 0.01241
C 16.07987 4.96631 -0.017
C 14.79039 7.11675 0.00667
C 15.93349 26.33084 -0.00109
C 14.72262 25.58826 -0.00491
C 14.53082 24.21273 0.03338
C 15.86332 23.43214 -0.0258
C 15.80815 21.99394 -0.0331
C 14.5252 21.34809 -0.00316
C 14.75762 19.8486 0.02188
C 16.03185 19.13824 -0.01979
C 16.00769 6.37684 0.00143
C 16.01821 17.69827 0.02691
C 14.718 15.59317 0.01452
C 15.95745 14.75274 0.04892
C 15.98416 13.37734 -0.00111
C 14.65367 12.72581 -0.03557
C 14.71111 11.3177 0.03754
C 15.9699 10.6172 0.01739
C 16.04194 9.1961 0.00755
C 14.78705 8.52554 -0.0054
C 14.76421 17.0038 -0.01581
C 18.38852 17.70532 0.00096
C 9.81365 12.91265 0.0076
C 11.0599 14.97988 -0.0014
C 3.66197 6.40024 -0.01362
C 3.70661 4.94975 -0.0008
C 2.47663 4.31238 0.0288
C 2.50634 2.88369 0.00393
C 3.71153 2.22429 0.00895
C 3.6527 0.77427 0.00685
C 2.28069 0.03564 0.02888
C 4.89673 32.6302 -0.00482
C 6.17779 32.02379 -0.01384
C 5.14272 21.36198 0.03693
C 4.99862 19.9106 0.01745
C 6.16222 19.22957 0.00488
C 6.12265 17.85596 -0.01004
C 4.88501 17.1708 -0.02896
C 4.77069 15.69969 -0.00131
C 6.05382 14.93818 -0.01118
C 6.03201 13.53986 -0.014
C 2.46186 7.17581 -0.00892
C 2.46629 8.53063 -0.04848
C 3.69149 9.29621 0.01572
C 3.62501 10.67891 -0.00095
C 3.75543 30.46412 -0.02929
C 2.63945 29.53614 -0.00966
C 2.48916 28.18279 -0.03337
C 3.27623 26.92989 0.01227
C 2.29912 25.60068 0.00873
C 2.60537 24.32078 -0.00049
C 3.77153 23.57745 0.00848
C 3.90098 22.20587 -0.01303
C 4.81973 12.88196 0.02147
C 2.55196 21.48865 -0.01378
C 3.80625 19.41149 0.0127
C 3.64565 17.81322 0.01396
C 2.40389 17.13788 0.01849
C 2.30266 15.71515 -0.01142
C 3.55151 14.98332 -0.00562
C 3.53647 13.57316 -0.00494
C 2.36601 12.83035 0.00054
C 2.37565 11.4184 0.03007
C 2.49825 19.98065 0.02635
C 4.80198 11.34195 0.00373
C 6.1303 10.73497 -0.00191
C 6.14484 9.23785 0.00438
C 8.56477 9.21994 -0.02245
C 7.33624 8.55103 -0.00428
C 7.35489 7.11416 0.03101
C 8.60369 6.39605 -0.01536
C 8.62181 4.9582 -0.02689
C 7.4124 4.23386 -0.01046
C 7.37898 2.79433 -0.00891
C 8.59821 2.11977 0.02819
C 8.55721 10.72116 0.00985
C 8.62543 0.7165 0.00165
C 9.91309 32.56559 0.02894
C 11.12649 31.94495 -0.01789
C 10.78933 21.21825 0.00444
C 10.0141 20.02237 -0.00925
C 11.11951 19.12715 0.01877
C 11.0691 17.73141 0.01363
C 9.8168 17.11366 -0.02162
C 9.72099 15.74936 0.00415
C 7.3789 34.03546 -0.02971
C 11.03027 13.516 0.02162
C 7.27452 11.39852 -0.01275
C 8.51773 13.49504 0.02841
C 4.93366 8.56201 0.01291
C 4.86952 7.17491 0.00093
C 6.11319 6.41375 0.00057
C 6.08768 4.94035 -0.01634
C 4.89984 4.18254 -0.00334
C 4.95738 2.80826 0.02339
C 6.11926 2.08063 0.01641
C 6.11758 0.65832 -0.00719
C 7.25466 12.81239 -0.01111
C 4.85118 34.01855 0.01364
C 8.64474 31.98968 -0.00033
C 6.50171 21.37261 0.03589
C 7.28829 20.06295 -0.02759
C 8.65569 19.47137 0.0402
C 8.65517 17.84957 0.00572
C 7.34556 17.19652 0.03592
C 7.32245 15.64638 0.00406
C 8.54934 14.98982 0.00943
C 7.44598 32.52959 -0.01062
C 17.18711 16.96384 -0.01527
C 17.22409 15.45521 0.01087
C 18.46517 14.71538 0.00199
C 29.46599 2.7524 0.01428
C 30.77027 2.16103 -0.02142
C 30.68308 0.78412 0.0544
C 29.42248 0.04185 0.00026
C 31.98839 32.67498 0.00682
C 33.22597 31.9581 -0.01779
C 33.1982 30.60211 0.03794
C 31.97973 29.87105 0.01927
C 31.85827 28.40861 0.01574
C 33.06333 27.78063 -0.02383
C 33.12546 26.36598 -0.01429
C 31.99006 25.57458 -0.0136
C 31.92947 24.15218 0.00594
C 33.19005 23.51918 -0.02474
C 33.25213 22.13298 0.00369
C 32.01239 21.46395 0.00455
C 31.97718 20.0194 -0.00644
C 29.55768 17.10016 -0.01694
C 30.67559 17.89699 0.01713
C 30.60215 19.35038 0.00346
C 29.29732 19.92502 0.00307
C 28.2263 18.99863 0.01836
C 28.23311 17.4892 0.03531
C 27.09158 16.64602 -0.00669
C 28.40064 2.31818 0.0101
C 28.17287 0.80446 0.01705
C 26.89849 0.20146 -0.0405
C 29.4889 32.74912 -0.01303
C 30.72889 32.00078 -0.01461
C 33.21177 19.32556 -0.01839
C 30.7437 30.54972 -0.02155
C 29.40721 28.49999 -0.03735
C 30.66379 27.74835 -0.00971
C 30.68984 26.245 0.01518
C 29.43041 25.50643 0.01908
C 29.51674 24.08865 0.07705
C 30.69183 23.45233 0.0103
C 30.70573 22.04892 0.02108
C 29.51985 21.27667 0.00716
C 29.46719 29.89546 -0.00944
C 33.17006 17.8574 0.00137
C 31.94281 17.17983 0.00199
C 31.71366 15.82583 0.04381
C 1.28085 19.26929 -0.01678
C 1.22467 17.7553 0.01223
C 34.32101 17.17816 0.00648
C 34.16207 15.67392 0.02114
C 1.01234 15.01012 -0.02957
C 1.01508 13.55293 0.00343
C 34.13527 12.72098 -0.02656
C 34.35614 11.13163 -0.02442
C 0.06865 19.98522 0.01951
C 1.26928 10.62984 -0.00027
C 34.35808 8.60798 -0.02302
C 34.32278 7.2538 -0.02849
C 1.18434 6.4727 0.02931
C 1.19225 4.96633 0.00628
C 34.39171 4.29139 -0.0345
C 34.42755 2.92641 -0.00931
C 1.19863 2.29102 -0.00939
C 1.16014 0.85651 -0.00468
C 1.18753 9.22908 -0.00583
C 27.00313 19.55853 -0.03039
C 0.05245 21.42742 -0.02213
C 1.35324 23.59 0.00723
C 32.75451 14.88415 0.02806
C 33.07742 13.56963 0.01504
C 33.28073 6.35438 -0.00069
C 33.08393 5.05028 0.04926
C 31.90741 4.31357 -0.03838
C 31.95352 2.8955 0.00349
C 33.15555 2.19927 -0.00323
C 33.18943 0.76481 -0.00841
C 1.33436 22.24064 0.02712
C 31.96985 0.05087 0.0001
C 1.16728 31.8824 -0.01404
C 1.35415 30.41353 0.01027
C 34.37471 29.8471 0.01831
C 34.32881 28.39531 -0.01037
C 1.14576 27.78226 -0.00439
C 1.14868 26.33608 -0.00598
C 34.30731 25.67207 -0.05239
C 34.41699 24.23763 0.03076
C 34.40233 32.68738 -0.02927
C 27.03874 25.46649 -0.01415
C 28.20458 26.23275 -0.01854
C 28.15188 27.64739 -0.02049
C 19.57495 24.09058 -0.02118
C 20.78331 23.45335 0.00733
C 20.80676 21.99631 -0.00178
C 19.52709 21.32307 0.00768
C 19.62761 19.95821 -0.0276
C 20.799 19.19594 0.03005
C 20.80725 17.7047 -0.04078
C 19.66994 16.97689 0.02117
C 19.63597 25.54225 -0.01971
C 19.68951 15.51882 0.02737
C 19.4783 12.01917 0.00135
C 19.27609 8.03922 0.03102
C 21.39746 4.5649 0.02555
C 19.96326 4.3101 0.01423
C 19.84003 2.89054 -0.00285
C 21.04636 2.17032 -0.009
C 20.95702 0.66239 -0.01199
C 19.68773 34.04847 -0.00229
C 21.00325 15.02382 -0.00498
C 22.20818 32.6264 -0.00938
C 20.88561 26.25573 -0.01586
C 19.64526 28.40643 0.00071
C 18.47899 13.19583 0.01511
C 17.21345 12.61699 -0.00478
C 17.23606 11.18388 -0.01662
C 18.45482 10.57405 -0.01185
C 18.62233 9.12568 0.01126
C 17.28849 8.61513 0.01852
C 17.15213 7.14007 -0.00381
C 18.56513 6.6328 0.03046
C 20.91539 27.63886 -0.01107
C 18.6854 5.06198 0.0296
C 17.33946 2.85982 -0.02845
C 18.60364 2.09664 -0.03213
C 18.50701 0.69019 0.02239
C 17.32032 34.05742 0.01153
C 19.66549 32.55862 0.02734
C 20.90156 31.9364 -0.0055
C 20.87667 30.51593 0.01515
C 19.61847 29.75916 -0.00225
C 17.32931 4.3003 0.03374
C 3.67988 31.84487 0.03368
C 23.37292 31.83715 -0.0264
C 22.0887 29.79694 0.00684
C 25.81245 27.62053 -0.00621
C 25.90848 26.15742 0.02611
C 24.69165 25.43917 0.02198
C 24.52428 24.06602 0.01094
C 25.10706 22.78363 0.00235
C 24.57658 21.58995 0.01495
C 24.59613 20.10789 0.01259
C 25.78759 19.47981 0.01799
C 24.63229 28.36868 0.00194
C 25.87532 17.19809 0.01699
C 25.01949 2.19981 0.01177
C 25.70115 0.9144 0.04266
C 24.54935 34.07332 0.01324
C 26.92663 32.85839 0.0014
C 28.21795 32.0682 0.00924
C 28.28087 30.65296 0.02326
C 27.0446 29.97575 0.00261
C 26.98842 28.42544 0.03265
C 24.51795 17.07462 -0.00416
C 23.29625 30.50625 -0.01154
C 24.60704 29.85129 0.04185
C 25.83539 32.01075 0.01257
C 22.07966 28.35491 -0.01052
C 23.40492 27.67605 -0.01679
C 23.41407 26.17425 0.00367
C 22.12002 25.65747 0.04306
C 22.0303 24.24782 0.00996
C 23.14804 23.51074 0.00195
C 23.17496 22.13414 -0.00802
C 22.06958 21.35854 -0.00218
C 25.81624 30.61243 0.02316
C 22.01548 19.89615 -0.01654
C 23.40943 17.81834 -0.0032
C 22.13239 17.02907 0.00622
C 22.01892 15.69422 -0.02815
C 22.31278 2.87652 -0.00942
C 23.68426 2.22486 0.00487
C 23.35173 0.74979 0.00826
C 22.17023 0.01379 -0.00294
C 24.53512 32.68423 0.00152
C 23.35933 19.27709 -0.00037
C 2.44924 32.65022 -0.00077
