374
Graphene
C 0.01117 0.09182 0.01295
C 12.06573 21.27526 0.02299
C 12.38655 19.91113 0.00244
C 13.48894 19.41369 -0.01717
C 13.74635 10.61347 0.05265
C 13.52946 9.27564 -0.01952
C 12.46696 8.60609 -0.02813
C 13.43261 0.54215 0.00374
C 12.2173 34.07591 0.00052
C 14.77829 32.55867 -0.03682
C 16.00433 31.89881 0.01965
C 16.02114 30.51295 0.02058
C 14.85664 29.75875 -0.01957
C 14.80275 28.31855 -0.0108
C 15.99179 27.68915 -0.00368
C 15.95359 26.26048 -0.02696
C 14.72011 25.5107 -0.00114
C 14.71074 24.04185 0.00228
C 15.95179 23.33267 0.00798
C 15.99827 21.90882 0.00422
C 13.48694 21.97111 0.03542
C 14.72539 21.29181 0.0351
C 13.48144 23.34785 0.01416
C 12.23218 25.55707 -0.01454
C 10.91728 22.07196 -0.01536
C 10.03011 11.34171 -0.02689
C 11.0359 10.71593 -0.01046
C 11.1453 9.29703 -0.00891
C 9.88116 8.64596 0.02819
C 9.93938 7.10701 0.00165
C 11.04418 6.39015 -0.02971
C 9.83585 4.42272 0.02894
C 9.94413 2.97979 -0.01789
C 10.97413 2.15732 0.00444
C 11.02519 0.76715 -0.00925
C 9.8239 0.00496 0.01877
C 12.28184 32.60954 0.01363
C 13.52054 31.91515 -0.02162
C 13.61981 30.45979 0.00415
C 12.29268 29.81939 -0.0014
C 12.30808 28.34853 0.02162
C 13.5502 27.67604 0.0076
C 13.50721 26.22075 0.01241
C 12.30799 24.11049 0.01945
C 14.77821 19.89329 -0.03113
C 16.00418 19.11068 0.02098
C 15.99495 17.80908 0.01848
C 18.36674 14.93863 0.02691
C 18.38254 13.53101 -0.01581
C 17.186 12.70944 0.01452
C 17.23747 11.29726 0.04892
C 18.53526 10.59772 -0.00111
C 18.29053 9.13113 -0.03557
C 17.11012 8.63522 0.03754
C 18.45871 6.45123 0.01739
C 18.51849 2.10715 0.00755
C 18.54181 0.70777 -0.0054
C 17.27171 34.05 0.00667
C 19.69368 32.61976 0.00143
C 20.89941 31.867 -0.017
C 20.91695 30.42051 0.00364
C 19.67656 29.7955 -0.00831
C 19.64826 28.36803 -0.02957
C 20.91411 27.64627 -0.04422
C 20.8954 26.20086 0.00654
C 19.65177 25.56749 -0.00703
C 17.04899 15.6738 -0.01979
C 17.12182 17.0634 0.02188
C 18.41273 17.75682 -0.00316
C 18.42863 19.2002 -0.0331
C 15.95894 14.72744 -0.00619
C 16.09903 13.56131 -0.02162
C 14.69499 11.33671 0.00889
C 15.96214 10.66587 -0.00481
C 16.03659 9.27645 0.00979
C 16.07005 0.65728 0.01443
C 14.7719 0.14394 0.03505
C 17.21579 32.61755 -0.02815
C 18.44048 31.92178 -0.04147
C 11.04832 23.42656 0.03101
C 18.4402 30.50039 -0.05302
C 17.21859 28.41836 -0.00066
C 18.40234 27.70285 -0.00289
C 18.35971 26.27846 0.00028
C 17.1344 25.55258 -0.02213
C 17.13014 24.09662 0.03698
C 18.37287 23.42927 -0.00109
C 18.40389 21.99637 -0.00491
C 17.25311 21.20553 0.03338
C 17.19053 19.85074 -0.0258
C 17.25426 29.82502 0.00213
C 9.82213 24.17147 -0.00428
C 9.76759 25.55251 -0.02245
C 10.98267 26.28459 0.00985
C 3.67192 5.0367 -0.00077
C 2.46442 4.30634 0.03368
C 2.41606 2.91159 -0.02929
C 3.70219 2.14653 -0.00966
C 3.7292 0.75734 -0.03337
C 2.48567 0.03731 0.01227
C 4.85638 32.68331 0.00873
C 6.12936 31.98897 -0.00049
C 6.08081 30.57967 0.00848
C 4.8436 29.84699 -0.01303
C 4.87449 28.39527 -0.01378
C 6.12382 27.72648 0.02635
C 6.10558 26.31607 0.0127
C 4.88275 25.65081 0.01396
C 4.90628 24.20006 0.01849
C 6.12161 23.49719 -0.01142
C 6.18301 22.07096 -0.00562
C 4.96855 21.27222 -0.00494
C 4.84759 19.84757 0.00054
C 3.65387 6.45946 0.01305
C 2.44088 7.07757 0.0276
C 2.53069 8.55318 0.00988
C 3.73925 9.31691 -0.01343
C 3.66457 30.59479 0.0073
C 2.47578 29.8101 0.0174
C 2.4494 28.42742 0.03828
C 3.65786 27.77092 0.01226
C 3.6926 26.2815 -0.00279
C 2.43099 25.54718 0.01996
C 2.4636 24.1249 -0.03996
C 3.74029 23.44316 0.01465
C 3.74399 22.01638 -0.00074
C 4.72136 16.87338 0.03007
C 2.46939 21.3252 -0.00518
C 3.67339 19.22073 -0.00643
C 3.68682 17.71032 0.017
C 2.42812 17.09898 -0.03113
C 2.50035 15.6914 -0.02566
C 3.72712 14.86201 -0.00094
C 3.76309 13.49333 0.02322
C 2.42207 12.8583 -0.00725
C 2.50816 11.41003 -0.05697
C 3.72962 10.69145 0.01087
C 2.38275 19.91649 0.0086
C 19.62659 24.10437 -0.04076
C 4.89232 15.68314 -0.00095
C 5.00267 12.81553 -0.04848
C 7.25023 12.82425 0.00057
C 7.45386 11.44766 -0.01634
C 8.66095 10.80391 -0.00334
C 8.67348 9.32443 0.02339
C 7.41827 8.56493 0.01641
C 7.40785 7.1339 -0.00719
C 8.64747 6.36685 0.01364
C 8.58173 4.86982 -0.01062
C 7.31697 4.24067 -0.00033
C 7.343 2.83263 0.03589
C 8.52803 2.13706 -0.02759
C 8.60854 0.66757 0.0402
C 7.36853 0.05845 0.00572
C 9.86941 32.59986 0.03592
C 11.09081 31.92708 0.00406
C 11.04866 30.517 0.00943
C 9.76298 29.86007 0.02841
C 9.85795 28.46695 -0.01111
C 11.0701 27.65636 -0.01275
C 7.47906 21.44263 0.00093
C 8.59878 22.048 0.01291
C 8.56701 23.48348 0.00438
C 7.38354 24.16811 -0.00191
C 4.95338 11.4159 -0.00892
C 6.24211 10.71921 -0.01362
C 6.26815 9.29017 -0.0008
C 4.96982 8.66204 0.0288
C 4.86934 7.19717 0.00393
C 6.12 6.48203 0.00895
C 6.11086 5.02277 0.00685
C 4.91505 4.32322 0.02888
C 4.89879 2.85523 -0.00482
C 6.23273 13.38692 0.01572
C 6.11997 2.20654 -0.01384
C 4.94664 0.06664 0.01745
C 7.34803 32.7264 0.00488
C 8.57006 32.01145 -0.01004
C 8.5181 30.56281 -0.02896
C 7.27662 29.82286 -0.00131
C 7.35744 28.47002 -0.01118
C 8.6471 27.74563 -0.014
C 8.56605 26.29746 0.02147
C 7.34267 25.59919 0.00373
C 6.11956 0.7607 0.03693
C 20.83048 23.36483 -0.00652
C 20.85008 21.96296 0.0058
C 19.67129 21.29241 -0.00865
C 30.77845 2.14714 0.00716
C 30.68323 0.7323 0.00307
C 29.51631 0.03656 0.00346
C 31.97142 32.66578 0.01713
C 33.14628 32.01025 -0.01694
C 33.17342 30.53793 0.01428
C 31.99132 29.83164 -0.02142
C 31.95487 28.39451 0.0544
C 33.22399 27.69206 0.00026
C 33.18435 26.28062 0.00682
C 31.95112 25.56959 -0.01779
C 31.98661 24.12897 0.03794
C 33.20277 23.44939 0.01927
C 33.15975 22.03676 0.01574
C 31.95333 21.2653 -0.02383
C 31.89626 19.8719 -0.01429
C 33.16561 19.18743 -0.0136
C 33.23038 17.79475 0.00594
C 32.05505 16.97371 -0.02474
C 29.5181 2.80106 0.02108
C 29.5125 4.27298 0.0103
C 30.71021 4.9825 0.07705
C 30.7632 6.37649 0.01908
C 30.73451 27.69411 0.02326
C 30.73236 26.26669 0.00261
C 29.49586 25.56314 0.03265
C 29.5718 24.17242 -0.02049
C 30.81009 23.3881 -0.01854
C 30.77037 21.95585 -0.01415
C 29.4877 21.30039 -0.03039
C 29.52315 19.91225 0.01836
C 30.73618 19.10038 0.03531
C 31.95504 15.5779 0.00369
C 30.75711 17.64271 -0.00669
C 29.45938 15.56529 0.01705
C 30.66534 14.86809 -0.0405
C 30.68742 13.49149 -0.01303
C 29.44904 12.79474 -0.01461
C 29.48451 11.37727 -0.02155
C 30.7053 10.62714 -0.00944
C 30.77147 9.15795 -0.03735
C 29.54922 8.5397 -0.00971
C 29.54613 7.1475 0.01518
C 29.53603 16.95647 0.0101
C 29.48908 28.33232 0.00924
C 33.20343 14.88087 0.00455
C 31.92852 12.71903 -0.01839
C 34.39015 19.85431 0.01951
C 1.19267 19.18438 -0.01678
C 1.22788 17.83779 0.01223
C 0.00397 17.12435 0.00648
C 0.03102 15.67158 0.02114
C 1.23484 14.97052 -0.02957
C 1.22982 13.54495 0.00343
C 0.00563 12.81598 -0.02656
C 0.05351 11.36968 -0.02442
C 1.28946 10.64923 -0.00027
C 1.27778 9.25803 -0.00583
C 34.42821 8.55577 -0.02302
C 34.35952 7.09096 -0.02849
C 1.16838 6.47085 0.02931
C 1.19024 5.01052 0.00628
C 34.36177 4.24702 -0.0345
C 34.40004 2.78623 -0.00931
C 1.22378 2.12368 -0.00939
C 1.24495 0.76378 -0.00468
C 34.38113 21.26755 -0.02213
C 1.19439 21.96079 0.02712
C 1.20398 23.4037 0.00723
C 0.02071 24.15544 0.03076
C 31.92866 11.36399 0.00137
C 33.22424 10.6981 0.00199
C 33.22948 9.27878 0.04381
C 32.01102 8.54641 0.02806
C 32.0053 7.09694 0.01504
C 33.16963 6.37723 -0.00069
C 33.15335 4.93452 0.04926
C 31.91015 4.25658 -0.03838
C 31.95417 2.84179 0.00349
C 33.15214 13.44094 -0.00644
C 33.18807 2.11687 -0.00323
C 31.9183 0.00852 0.0001
C 34.38868 32.73569 -0.02927
C 1.17604 31.98439 -0.01404
C 1.24881 30.56959 0.01027
C 0.01012 29.86533 0.01831
C 0.01746 28.38413 -0.01037
C 1.22546 27.70442 -0.00439
C 1.17991 26.23863 -0.00598
C 34.38373 25.53151 -0.05239
C 33.19339 0.76519 -0.00841
C 3.60134 32.01957 0.00402
C 29.55223 29.7672 0.0014
C 30.76407 31.91684 0.04266
C 23.29636 22.0196 -0.03213
C 22.06983 21.23891 0.02239
C 22.03303 19.88037 0.01153
C 23.32617 19.15427 0.02734
C 23.28873 17.70293 -0.0055
C 22.05076 16.97272 0.01515
C 22.10931 15.57927 -0.00225
C 23.34457 14.86451 0.00071
C 23.39125 13.34588 -0.01107
C 22.15967 12.77642 -0.01586
C 23.45555 2.07836 -0.01971
C 23.39759 0.74161 -0.02118
C 22.20352 33.97358 0.00733
C 24.54834 32.61621 -0.00178
C 25.84145 31.93247 0.00768
C 25.88555 30.51849 -0.0276
C 24.6505 29.821 0.03005
C 24.56223 28.42055 -0.04078
C 25.79512 27.7077 0.02117
C 23.35104 23.4242 -0.02845
C 22.10445 24.12414 0.03374
C 22.15703 25.4903 0.0296
C 23.39707 26.24689 0.03046
C 19.60448 19.8916 0.00675
C 20.87772 19.13269 -0.00311
C 20.84133 17.72662 0.00742
C 19.56359 17.04214 -0.01594
C 19.67974 15.60346 0.0106
C 20.92263 14.79927 -0.01154
C 20.97377 13.38834 -0.01721
C 19.72795 12.78194 -0.02422
C 19.65298 11.4468 0.01277
C 25.80156 26.30012 0.02737
C 19.43819 4.27605 0.00096
C 20.89799 2.07605 0.01087
C 20.98968 0.71627 0.00199
C 19.80498 34.03693 0.01511
C 22.12369 32.58513 -0.00478
C 23.34045 31.87791 -0.01662
C 23.42209 30.50833 -0.01185
C 22.16421 29.79465 0.01126
C 22.14321 28.37124 0.01852
C 23.35454 27.66204 -0.00381
C 19.73089 2.88118 -0.01527
C 30.72706 30.46541 0.01324
C 24.60008 25.50338 -0.00498
C 25.79337 23.45149 0.03102
C 26.98953 21.30603 0.00487
C 27.05022 19.83838 0.00826
C 28.35149 19.15132 -0.00294
C 28.31126 17.75245 0.00152
C 26.989 17.05628 0.01257
C 26.99899 15.68404 0.02316
C 28.17453 14.93568 0.04185
C 28.21252 13.53603 0.00194
C 26.99052 12.82421 -0.00621
C 27.12151 11.48602 0.02611
C 28.19897 10.62817 0.02198
C 28.29961 9.20456 0.01094
C 28.38772 6.326 0.00235
C 28.37386 5.15438 0.01495
C 26.97683 2.74816 0.01259
C 28.28289 2.13888 0.01799
C 28.21443 0.69491 0.01699
C 27.03408 0.00782 -0.00416
C 29.60237 32.68038 0.01177
C 28.26112 22.0213 -0.00942
C 28.32022 23.47395 -0.02815
C 27.08073 24.12563 0.00622
C 27.02772 25.48311 -0.0032
C 25.75683 22.04267 0.02555
C 24.4738 21.24308 0.01423
C 24.51688 19.82287 -0.00285
C 25.78186 19.11013 -0.009
C 25.7338 17.75292 -0.01199
C 24.50005 17.00603 -0.00229
C 24.47637 15.61463 -0.00938
C 25.74265 14.94296 -0.0264
C 25.74627 13.47684 -0.01154
C 24.58394 24.12927 0.00135
C 24.65334 12.76285 0.00684
C 25.74939 0.72478 -0.01679
C 24.60935 34.00137 0.00367
C 27.02784 32.59861 0.04306
C 28.3871 31.96244 0.00996
C 28.40136 30.55859 0.00195
C 27.09438 29.8633 -0.00802
C 27.00597 28.41332 -0.00218
C 28.22531 27.62838 -0.01654
C 28.20192 26.22441 -0.00037
C 25.90368 2.22466 -0.01052
C 2.40346 32.71994 0.02374
