433
Graphene
C 0.05641 34.01692 0.01295
C 13.51478 21.99741 0.01364
C 12.24791 21.347 -0.01062
C 12.28761 19.86902 -0.00033
C 13.51429 19.11622 0.03589
C 13.52431 17.70615 -0.02759
C 12.29407 16.98474 0.0402
C 12.33843 15.51372 0.00572
C 13.54292 14.91548 0.03592
C 13.49294 13.45381 0.00406
C 12.29134 12.7403 0.00943
C 12.34242 11.35125 0.02841
C 13.57119 10.63197 -0.01111
C 13.54547 9.23319 -0.01275
C 12.32611 8.46925 0.00985
C 12.26328 7.05554 -0.02245
C 13.57511 6.34703 -0.00428
C 13.46947 4.93001 0.03101
C 12.20859 4.25385 -0.01536
C 12.30637 2.8319 -0.02689
C 13.46943 2.11754 -0.01046
C 13.54386 0.73983 -0.00891
C 12.2578 34.07282 0.02819
C 14.72044 32.69266 0.00165
C 13.52018 23.46439 -0.00719
C 15.95814 31.96895 -0.02971
C 12.29228 24.13995 0.01641
C 13.44445 26.34782 -0.00334
C 9.8333 17.0716 0.0288
C 9.76668 15.66835 0.00393
C 11.09499 14.92637 0.00895
C 11.03875 13.50501 0.00685
C 9.79924 12.84377 0.02888
C 9.85417 11.40627 -0.00482
C 11.05721 10.74071 -0.01384
C 11.1166 9.27095 0.03693
C 9.90161 8.59777 0.01745
C 9.85794 7.17665 0.00488
C 11.05825 6.34507 -0.01004
C 11.00725 4.95541 -0.02896
C 9.80065 4.32039 -0.00131
C 9.78724 2.83374 -0.01118
C 10.93324 2.16541 -0.014
C 10.97041 0.75495 0.02147
C 9.80779 0.03505 0.00373
C 12.27549 32.70199 -0.00191
C 13.53482 31.93993 0.00438
C 13.44822 30.57592 0.01291
C 12.23156 29.90008 0.00093
C 12.2531 28.52932 0.00057
C 13.46971 27.79406 -0.01634
C 12.17747 25.62796 0.02339
C 11.03663 17.77491 -0.0008
C 15.97603 30.52983 0.02894
C 14.75592 28.44325 0.00444
C 17.14672 32.66243 -0.02696
C 18.38485 31.97034 -0.00114
C 18.40958 30.50978 0.00228
C 17.20706 29.81174 0.00798
C 17.14418 28.44289 0.00422
C 18.41688 27.66608 0.0351
C 18.42287 26.26641 -0.03113
C 17.1997 25.56164 0.02098
C 17.14187 24.11891 0.01848
C 18.39722 23.38434 -0.00619
C 18.42915 22.0122 -0.02162
C 17.16187 21.27781 0.00889
C 17.15021 19.8616 -0.00481
C 18.40865 19.19289 0.00979
C 18.45665 17.78322 0.01443
C 17.16848 17.07073 0.03505
C 17.1825 15.61876 -0.02815
C 18.44764 14.98527 -0.04147
C 18.4088 13.53806 -0.05302
C 17.19435 12.77456 0.00213
C 17.22431 11.37345 -0.00066
C 18.43312 10.70738 -0.00289
C 18.4482 9.24224 0.00028
C 14.73859 34.04639 -0.00368
C 14.76048 29.85617 -0.01789
C 15.99023 0.7551 -0.0108
C 14.71329 2.7955 0.02058
C 15.95492 27.68612 -0.00925
C 15.96441 26.30065 0.01877
C 14.72701 25.58961 0.01363
C 14.75743 24.12722 -0.02162
C 15.92859 23.42227 0.00415
C 15.975 21.99769 -0.0014
C 14.67788 21.35462 0.02162
C 14.70495 19.89389 0.0076
C 15.89835 19.16073 0.01241
C 15.95226 17.69753 -0.01454
C 14.69247 16.97178 0.01945
C 14.75761 15.58658 0.01416
C 15.97582 14.87374 0.03542
C 16.00917 13.47811 0.02299
C 14.78469 12.75807 0.00244
C 14.79841 11.35557 -0.01717
C 16.04666 10.60691 0.05265
C 16.06143 9.20024 -0.01952
C 14.81748 8.46201 -0.02813
C 14.82243 7.05048 0.00374
C 15.98082 6.31 0.00052
C 15.95163 4.89398 -0.03682
C 14.68172 4.24403 0.01965
C 15.95726 2.15775 -0.01957
C 11.07651 19.1375 -0.01362
C 9.92486 19.93782 -0.00892
C 9.91875 21.34048 -0.04848
C 3.67412 2.10392 -0.01386
C 3.66715 0.69518 -0.02805
C 2.487 34.07126 0.00081
C 4.87722 32.67645 0.00245
C 6.11095 31.99389 0.02728
C 6.0979 30.6142 -0.00039
C 4.92931 29.74443 0.0064
C 4.97643 28.38224 0.00211
C 6.13685 27.71307 -0.00449
C 6.19298 26.33682 -0.01979
C 4.91582 25.60185 0.02784
C 4.97688 24.15296 -0.01977
C 6.20765 23.43694 -0.00561
C 6.16836 21.98521 0.00208
C 4.94876 21.29215 0.01707
C 4.86592 19.91197 0.02769
C 6.17473 19.15212 -0.03291
C 6.06518 17.72271 -0.04999
C 4.82849 17.08959 0.04505
C 4.80644 15.61057 0.03284
C 6.06164 14.87935 -0.04307
C 6.06778 13.44128 0.03189
C 4.84361 12.82462 0.00031
C 2.41311 2.87962 -0.0059
C 4.84387 11.42499 -0.003
C 2.4374 4.29559 0.00558
C 3.70767 6.46957 0.00828
C 3.68908 30.50518 -0.00012
C 2.46928 29.73108 -0.04306
C 2.49616 28.27743 -0.03672
C 3.7354 27.653 0.01913
C 3.71233 26.28034 0.00267
C 2.45968 25.55045 0.00787
C 2.44512 24.13226 0.02426
C 3.78513 23.4909 0.01218
C 3.68605 21.98662 -0.01471
C 2.4773 21.30081 -0.02827
C 2.46495 19.86667 0.01078
C 3.65983 19.19832 -0.00112
C 3.5352 17.72662 0.03345
C 2.35005 17.02226 0.00748
C 2.34686 15.60111 0.00662
C 3.58491 14.85091 -0.0154
C 3.57627 13.42214 -0.01299
C 2.36141 12.68961 -0.00407
C 2.3409 11.29083 0.01138
C 3.64156 10.64733 0.03278
C 3.63084 9.29152 -0.00177
C 2.42879 8.50799 0.04421
C 2.46674 7.09789 0.00088
C 3.6413 4.99777 -0.02375
C 6.08539 10.71822 0.01402
C 6.11903 9.30195 0.02379
C 4.88541 8.57003 0.00907
C 7.36765 11.44703 0.01305
C 8.68145 10.75914 -0.00077
C 8.6508 9.33353 0.03368
C 7.38434 8.57747 -0.02929
C 7.45561 7.18992 -0.00966
C 8.58679 6.45286 -0.03337
C 8.54402 5.01376 0.01227
C 7.32591 4.37968 0.00873
C 7.29204 2.86395 -0.00049
C 8.55146 2.17761 0.00848
C 8.52604 0.75178 -0.01303
C 7.34274 0.06863 -0.01378
C 9.82901 32.69568 0.02635
C 11.04564 31.96734 0.0127
C 11.03422 30.54567 0.01396
C 9.79268 29.88785 0.01849
C 9.80826 28.51342 -0.01142
C 11.04678 27.81882 -0.00562
C 11.03668 26.39684 -0.00494
C 9.86881 25.64536 0.00054
C 9.77002 24.21889 0.03007
C 11.03208 23.50784 -0.00095
C 11.08604 22.08117 0.01572
C 7.36672 12.87666 0.0276
C 8.51581 13.5736 0.00988
C 8.52674 14.97722 -0.01343
C 7.23563 15.66607 0.01087
C 4.90208 7.14431 0.00643
C 6.14205 6.52119 -0.01509
C 6.10113 5.06638 0.03267
C 4.94221 4.37668 0.02374
C 4.90383 2.84735 0.00402
C 6.154 2.17459 0.0073
C 6.1341 0.75145 0.0174
C 4.93703 0.00556 0.03828
C 7.34419 32.72401 0.01226
C 8.57749 31.98545 -0.00279
C 8.61025 30.60125 0.01996
C 17.2546 8.50022 -0.02213
C 7.36816 29.86962 -0.03996
C 8.55958 27.74299 -0.00074
C 8.59817 26.33071 -0.00518
C 7.38993 25.6365 0.0086
C 7.37998 24.17159 -0.00643
C 8.63107 23.49579 0.017
C 8.64811 22.01544 -0.03113
C 7.38226 21.30801 -0.02566
C 7.3539 19.91085 -0.00094
C 8.6283 19.24578 0.02322
C 8.61756 17.79409 -0.00725
C 7.32873 17.10014 -0.05697
C 7.35968 28.4942 0.01465
C 3.70979 31.84329 -0.00198
C 17.20598 7.11029 0.03698
C 18.42415 5.04462 -0.00491
C 30.67133 13.47538 -0.01303
C 29.44259 12.72327 -0.01461
C 29.3923 11.32388 -0.02155
C 30.78252 10.56389 -0.00944
C 30.7232 9.19512 -0.03735
C 29.48062 8.51783 -0.00971
C 29.4721 6.99055 0.01518
C 30.69992 6.30454 0.01908
C 30.77321 4.89751 0.07705
C 29.49915 4.21286 0.0103
C 29.58055 2.81317 0.02108
C 30.73219 2.0451 0.00716
C 30.80737 0.61984 0.00307
C 29.52835 33.99888 0.00346
C 31.96357 32.57089 0.01713
C 33.22522 31.8839 -0.01694
C 33.2 30.5003 0.01428
C 31.92429 29.83434 -0.02142
C 31.94946 28.42361 0.0544
C 33.15959 27.67807 0.00026
C 33.20052 26.28519 0.00682
C 31.93973 25.57636 -0.01779
C 31.93931 24.24974 0.03794
C 30.6453 14.90739 -0.0405
C 33.15934 23.45856 0.01927
C 29.43199 15.60083 0.01705
C 30.70174 17.76022 -0.00669
C 26.95551 8.50825 0.02611
C 26.98863 7.08399 0.02198
C 28.23708 6.34795 0.01094
C 28.25607 4.91547 0.00235
C 27.06232 4.23391 0.01495
C 27.05685 2.77709 0.01259
C 28.3278 2.09791 0.01799
C 28.31292 0.69909 0.01699
C 27.11883 0.02493 -0.00416
C 29.54657 32.62767 0.01177
C 30.76469 31.84109 0.04266
C 30.58942 30.41745 0.01324
C 29.3029 29.70599 0.0014
C 29.44866 28.24377 0.00924
C 30.70965 27.69248 0.02326
C 30.76269 26.30458 0.00261
C 29.52037 25.65078 0.03265
C 29.53479 24.23052 -0.02049
C 30.66747 23.48437 -0.01854
C 30.71737 22.08375 -0.01415
C 29.52681 21.37484 -0.03039
C 29.45245 19.84625 0.01836
C 30.65462 19.17176 0.03531
C 29.36482 17.04822 0.0101
C 28.17094 9.18627 -0.00621
C 33.20616 22.07772 0.01574
C 31.95755 19.91819 -0.01429
C 34.39548 24.14267 0.03076
C 1.21295 23.4028 0.00723
C 1.21107 21.99319 0.02712
C 34.4045 21.33408 -0.02213
C 34.41074 19.94238 0.01951
C 1.19493 19.22082 -0.01678
C 1.13064 17.7363 0.01223
C 34.35536 17.03897 0.00648
C 34.27218 15.63587 0.02114
C 1.06974 14.90844 -0.02957
C 1.08729 13.43869 0.00343
C 34.31005 12.70718 -0.02656
C 34.38298 11.31107 -0.02442
C 1.08589 10.57645 -0.00027
C 1.17577 9.19292 -0.00583
C 34.36325 8.46872 -0.02302
C 34.40486 7.01262 -0.02849
C 1.20078 6.39657 0.02931
C 1.24459 4.97178 0.00628
C 0.03975 4.21409 -0.0345
C 0.07996 2.82816 -0.00931
C 1.22 2.12156 -0.00939
C 1.28689 0.66794 -0.00468
C 0.00552 25.55858 -0.05239
C 32.0029 21.34632 -0.02383
C 1.2648 26.31073 -0.00598
C 0.01915 28.35946 -0.01037
C 33.21495 19.19752 -0.0136
C 33.14238 17.75976 0.00594
C 31.90005 17.10133 -0.02474
C 31.87094 15.59272 0.00369
C 33.05227 14.94958 0.00455
C 33.14743 13.46877 -0.00644
C 31.90846 12.72141 -0.01839
C 31.92993 11.2842 0.00137
C 33.13153 10.54672 0.00199
C 33.12151 9.15904 0.04381
C 31.95315 8.40728 0.02806
C 31.92804 6.98546 0.01504
C 33.19547 6.30199 -0.00069
C 33.23892 4.88105 0.04926
C 31.97756 4.20016 -0.03838
C 31.99181 2.74865 0.00349
C 33.2225 2.08686 -0.00323
C 33.23017 0.63056 -0.00841
C 32.00538 33.97818 0.0001
C 0.01578 32.57657 -0.02927
C 1.21307 31.92556 -0.01404
C 1.24908 30.47224 0.01027
C 0.00875 29.79052 0.01831
C 1.26095 27.6713 -0.00439
C 28.20674 10.623 0.00194
C 26.95977 11.35896 0.04185
C 26.95632 12.79806 0.02316
C 20.84516 9.22078 0.0058
C 19.6349 8.48897 -0.00865
C 19.70268 7.09518 0.00675
C 20.90936 6.42567 -0.00311
C 20.88709 4.94639 0.00742
C 19.6352 4.26223 -0.01594
C 19.63816 2.86147 0.0106
C 20.82605 2.17774 -0.01154
C 20.90922 0.72923 -0.01721
C 19.72522 0.04975 -0.02422
C 22.06776 32.74072 0.01277
C 23.15823 31.84615 0.00096
C 22.2528 30.13001 -0.01527
C 22.23939 25.63439 0.01087
C 22.20046 24.12353 0.00199
C 23.44724 23.42221 0.01511
C 23.44773 22.03003 -0.00478
C 22.15757 21.33594 -0.01662
C 22.08517 19.93279 -0.01185
C 23.41057 19.27612 0.01126
C 23.27211 17.76685 0.01852
C 22.11956 17.11305 -0.00381
C 22.03628 15.67321 0.03046
C 20.88613 10.66223 -0.00652
C 23.3411 14.93717 0.0296
C 19.61932 11.3778 -0.04076
C 20.85397 13.55863 0.00654
C 17.18408 4.29548 0.03338
C 17.15089 2.89549 -0.0258
C 18.39825 2.19702 -0.0331
C 18.41265 0.799 -0.00316
C 17.23489 0.09939 0.02188
C 19.6248 32.65705 -0.01979
C 20.88228 32.00664 0.02691
C 20.90968 30.56238 -0.01581
C 19.67488 29.81927 0.01452
C 19.61929 28.36799 0.04892
C 20.8622 27.77013 -0.00111
C 21.03573 26.3207 -0.03557
C 19.7328 25.58702 0.03754
C 19.6851 24.09863 0.01739
C 20.91478 23.3726 0.00755
C 20.93272 22.01388 -0.0054
C 19.67865 21.30207 0.00667
C 19.66609 19.86931 0.00143
C 20.88519 19.21684 -0.017
C 20.81066 17.85178 0.00364
C 19.62805 17.0741 -0.00831
C 19.65327 15.65988 -0.02957
C 20.87916 14.98384 -0.04422
C 19.67833 12.78388 -0.00703
C 23.31865 13.51855 0.03374
C 22.10995 12.72911 -0.02845
C 22.04974 11.38014 -0.03213
C 24.62492 8.48693 -0.00938
C 24.54577 7.03204 -0.0264
C 25.81339 6.38279 -0.01154
C 25.86402 4.93365 0.00684
C 24.60386 4.27132 -0.01052
C 24.60132 2.84817 -0.01679
C 25.80699 2.12292 0.00367
C 25.74357 0.69345 0.04306
C 24.52151 33.92272 0.00996
C 27.00806 32.69074 0.00195
C 28.34165 31.92682 -0.00802
C 28.11122 30.51942 -0.00218
C 27.17209 24.16381 -0.01654
C 28.36948 23.47322 -0.00037
C 28.26721 22.05392 -0.0032
C 27.07842 21.35093 0.00622
C 26.98955 19.86776 -0.02815
C 28.24091 19.13462 -0.00942
C 28.20366 17.75938 0.00487
C 27.03542 17.00276 0.00826
C 27.01004 15.63137 -0.00294
C 28.18032 14.91631 0.00152
C 28.25391 13.50251 0.01257
C 25.74097 9.23371 -0.00229
C 25.75799 10.62541 -0.01199
C 24.51714 11.31917 -0.009
C 24.50446 12.73482 -0.00285
C 23.27408 10.70261 0.02239
C 23.39014 9.20748 0.01153
C 22.11167 8.50427 0.02734
C 22.11829 7.05766 -0.0055
C 23.36294 6.40563 0.01515
C 23.35215 4.9137 -0.00225
C 22.12041 4.31205 0.00071
C 22.09442 2.82428 -0.01107
C 23.3721 2.05304 -0.01586
C 23.34475 0.69521 -0.01971
C 22.12071 0.02315 -0.02118
C 18.41791 6.41626 -0.00109
C 24.43089 32.54056 0.00733
C 24.58503 24.14203 0.00768
C 25.92422 23.6765 -0.0276
C 25.88314 22.20818 0.03005
C 24.64879 21.37715 -0.04078
C 24.64204 19.97191 0.02117
C 25.82885 19.11057 0.02737
C 25.83974 17.75767 -0.00498
C 24.57021 17.05297 0.00135
C 24.55947 15.59041 0.03102
C 25.77697 14.87304 0.02555
C 25.7557 13.45735 0.01423
C 25.81953 32.03463 -0.00178
C 2.47493 32.62421 0.00535
