446
Graphene
C 0.01835 0.03232 0.01295
C 13.58263 17.73819 0.00438
C 12.25899 17.11541 0.01291
C 12.30544 15.66784 0.00093
C 13.55876 14.90158 0.00057
C 13.59141 13.53938 -0.01634
C 12.33619 12.81437 -0.00334
C 12.2582 11.34328 0.02339
C 13.49853 10.63952 0.01641
C 13.5053 9.13329 -0.00719
C 12.29414 8.51741 0.01364
C 12.36287 7.14136 -0.01062
C 13.56893 6.36646 -0.00033
C 13.55765 4.94994 0.03589
C 12.34111 4.24264 -0.02759
C 12.27343 2.9212 0.0402
C 13.5208 2.09799 0.00572
C 13.51712 0.63615 0.03592
C 12.22651 34.04112 0.00406
C 14.80547 32.58757 0.00943
C 15.94298 31.92579 0.02841
C 15.95611 30.57198 -0.01111
C 14.76595 29.78985 -0.01275
C 14.72144 28.45773 0.00985
C 13.46815 19.23722 -0.00191
C 12.31153 19.9317 0.00373
C 12.3219 21.32913 0.02147
C 13.55016 22.02413 -0.014
C 11.08761 13.49164 -0.00562
C 9.82983 12.7763 -0.00494
C 9.85413 11.33868 0.00054
C 11.09689 10.66607 0.03007
C 11.07226 9.30129 -0.00095
C 9.79214 8.55033 0.01572
C 9.79852 7.1637 -0.04848
C 11.0973 6.33888 -0.00892
C 11.08241 4.95793 -0.01362
C 9.8554 4.30328 -0.0008
C 9.91893 2.84987 0.0288
C 15.94293 27.64158 -0.02245
C 11.07407 2.17745 0.00393
C 9.84898 34.0592 0.00685
C 12.22844 32.63095 0.02888
C 13.54031 31.92572 -0.00482
C 13.59841 30.53077 -0.01384
C 12.29748 29.83797 0.03693
C 12.30136 28.42521 0.01745
C 13.48122 27.79066 0.00488
C 13.4869 26.3161 -0.01004
C 12.26407 25.51534 -0.02896
C 12.30195 24.11258 -0.00131
C 13.53841 23.4721 -0.01118
C 11.06814 0.69722 0.00895
C 15.93963 26.28786 -0.00428
C 14.72044 25.59161 0.03101
C 14.7711 24.11419 -0.01536
C 18.50289 27.74919 0.00374
C 18.45461 26.23534 0.00052
C 17.22899 25.56651 -0.03682
C 17.23554 24.13383 0.01965
C 18.47359 23.36903 0.02058
C 18.37584 22.00229 -0.01957
C 17.18974 21.27834 -0.0108
C 17.24621 19.83178 -0.00368
C 18.4808 19.12903 -0.02696
C 18.42959 17.76803 -0.00114
C 17.16601 17.04565 0.00228
C 17.17617 28.39888 -0.02813
C 17.13389 15.66788 0.00798
C 18.42197 13.51801 0.0351
C 17.19722 12.77642 -0.03113
C 17.25377 11.31035 0.02098
C 18.47499 10.64149 0.01848
C 18.46727 9.24888 -0.00619
C 17.21108 8.57617 -0.02162
C 17.25182 7.13164 0.00889
C 18.43607 6.40989 -0.00481
C 18.44555 4.93003 0.00979
C 17.18522 4.23135 0.01443
C 17.20273 2.83416 0.03505
C 18.4695 14.95417 0.00422
C 11.05963 14.91953 -0.01142
C 17.17131 29.82184 -0.01952
C 18.40444 31.97006 -0.01717
C 15.98506 23.42627 -0.02689
C 15.94454 22.02059 -0.01046
C 14.7758 21.32082 -0.00891
C 14.80549 19.87143 0.02819
C 15.97695 19.15241 0.00165
C 15.9715 17.70166 -0.02971
C 14.73046 17.01377 0.02894
C 14.76217 15.596 -0.01789
C 15.93211 14.88782 0.00444
C 16.00754 13.46809 -0.00925
C 14.81581 12.79224 0.01877
C 18.42177 30.5704 0.05265
C 14.79108 11.3205 0.01363
C 15.95107 9.24679 0.00415
C 14.74272 8.5303 -0.0014
C 14.77955 7.14019 0.02162
C 16.00179 6.3306 0.0076
C 15.96283 4.97126 0.01241
C 14.72 4.27598 -0.01454
C 14.70866 2.83927 0.01945
C 15.96226 2.15603 0.01416
C 15.97784 0.7777 0.03542
C 14.78937 34.01967 0.02299
C 17.21605 32.69783 0.00244
C 16.00904 10.65411 -0.02162
C 9.85445 15.64673 0.01849
C 9.7715 17.11388 0.01396
C 11.06983 17.79604 0.0127
C 3.66223 0.66052 -0.0154
C 2.41761 34.05285 -0.01299
C 4.89658 32.68203 -0.00407
C 6.20748 31.88555 0.01138
C 6.2215 30.53908 0.03278
C 4.90692 29.81028 -0.00177
C 4.99388 28.38036 0.04421
C 6.1723 27.6824 0.00088
C 6.08631 26.25978 0.00828
C 4.87876 25.67468 -0.02375
C 4.9281 24.16607 0.00558
C 3.73262 2.08277 0.00662
C 6.14112 23.46084 -0.0059
C 4.9672 21.27617 -0.02805
C 4.89992 19.83642 0.00081
C 6.20134 19.14303 0.00245
C 6.06681 17.70058 0.02728
C 4.88925 17.10443 -0.00039
C 4.86142 15.65651 0.0064
C 6.12449 14.92184 0.00211
C 6.20093 13.50982 -0.00449
C 4.92849 12.69905 -0.01979
C 4.94273 11.35423 0.02784
C 6.16583 10.69137 -0.01977
C 6.14789 22.04679 -0.01386
C 6.1402 9.2324 -0.00561
C 2.43848 2.75234 0.00748
C 3.67522 4.93988 -0.00112
C 3.731 30.55429 0.02438
C 2.46421 29.79342 -0.02419
C 2.45575 28.42404 -0.03951
C 3.69959 27.76029 -0.00141
C 3.63787 26.29279 -0.00374
C 2.51571 25.54237 -0.0213
C 2.52983 24.13823 0.01116
C 3.72921 23.47127 -0.0005
C 3.64585 21.89778 -0.00018
C 2.42679 21.27232 0.01073
C 2.41908 19.88488 0.01984
C 2.41012 4.17225 0.03345
C 3.69874 19.16016 0.00535
C 2.45413 17.08132 -0.00012
C 2.44095 15.64535 -0.04306
C 3.70929 14.84903 -0.03672
C 3.67791 13.49796 0.01913
C 2.45426 12.82388 0.00267
C 2.48279 11.39817 0.00787
C 3.66319 10.64616 0.02426
C 3.70411 9.24187 0.01218
C 2.49648 8.55025 -0.01471
C 2.44615 7.09899 -0.02827
C 3.65633 6.433 0.01078
C 3.72362 17.75697 -0.00198
C 18.47013 2.18351 -0.02815
C 4.92095 8.55927 0.00208
C 6.19691 6.45315 0.02769
C 8.54939 9.32955 0.017
C 7.36153 8.56739 -0.03113
C 7.4015 7.13533 -0.02566
C 8.53399 6.38464 -0.00094
C 8.60991 5.00284 0.02322
C 7.40539 4.2284 -0.00725
C 7.39265 2.81374 -0.05697
C 8.59125 2.18182 0.01087
C 8.57656 0.76922 -0.01343
C 7.38665 0.0168 0.00988
C 9.76424 32.67343 0.0276
C 8.56561 10.7059 -0.00643
C 11.03968 31.92612 0.01305
C 9.84528 29.81505 0.03368
C 9.79652 28.45443 -0.02929
C 11.03655 27.71633 -0.00966
C 11.10027 26.33649 -0.03337
C 9.8522 25.53436 0.01227
C 9.85503 24.16756 0.00873
C 11.03241 23.42406 -0.00049
C 11.0809 22.01192 0.00848
C 9.82079 21.34432 -0.01303
C 9.75829 19.89051 -0.01378
C 11.02228 19.1966 0.02635
C 11.03982 30.48456 -0.00077
C 4.93698 7.16572 0.01707
C 7.3315 11.36565 0.0086
C 8.63149 13.52579 -0.00074
C 6.17893 4.93321 -0.03291
C 4.93062 4.25095 -0.04999
C 4.92267 2.85203 0.04505
C 6.18426 2.11758 0.03284
C 6.15337 0.74434 -0.04307
C 4.89056 34.05324 0.03189
C 7.3658 32.67627 0.00031
C 8.5738 31.97023 -0.003
C 8.54838 30.60681 0.01402
C 7.43345 29.82248 0.02379
C 7.39302 28.37277 0.00907
C 7.45061 12.75692 -0.00518
C 8.5958 27.72205 0.00643
C 7.36539 25.58408 0.03267
C 7.41194 24.14789 0.02374
C 8.62062 23.42964 0.00402
C 8.61091 22.00373 0.0073
C 7.36545 21.33017 0.0174
C 7.42466 19.91715 0.03828
C 8.61218 19.1093 0.01226
C 8.62133 17.72357 -0.00279
C 7.38059 17.05775 0.01996
C 7.3758 15.65837 -0.03996
C 8.62317 14.87521 0.01465
C 8.54787 26.29466 -0.01509
C 18.49961 0.68655 -0.04147
C 17.1802 34.05426 -0.05302
C 19.63958 32.6863 0.00213
C 29.47172 17.00671 0.0101
C 29.47336 15.6412 0.01705
C 30.74535 14.92219 -0.0405
C 30.75379 13.44557 -0.01303
C 29.54367 12.77241 -0.01461
C 29.52815 11.39243 -0.02155
C 30.81067 10.62514 -0.00944
C 30.73864 9.15567 -0.03735
C 29.51586 8.53033 -0.00971
C 29.55548 7.0776 0.01518
C 30.7195 6.39087 0.01908
C 30.75701 17.70434 -0.00669
C 30.73724 4.98635 0.07705
C 29.50351 2.85129 0.02108
C 30.76959 2.20023 0.00716
C 30.73896 0.71446 0.00307
C 29.54639 0.0431 0.00346
C 31.93173 32.68669 0.01713
C 33.20597 31.96028 -0.01694
C 33.20159 30.52266 0.01428
C 32.0247 29.85408 -0.02142
C 32.02314 28.39808 0.0544
C 33.18184 27.65148 0.00026
C 33.19711 26.30359 0.00682
C 29.51233 4.27906 0.0103
C 31.99263 25.62339 -0.01779
C 30.69737 19.07273 0.03531
C 29.49986 21.28594 -0.03039
C 27.03782 12.7757 0.02316
C 27.11816 11.35811 0.04185
C 28.24026 10.61608 0.00194
C 28.23023 9.2487 -0.00621
C 27.02316 8.4829 0.02611
C 26.99979 7.08359 0.02198
C 28.28603 6.33364 0.01094
C 28.28242 5.02365 0.00235
C 27.07835 4.29638 0.01495
C 27.06296 2.84554 0.01259
C 28.28535 2.11335 0.01799
C 29.47368 19.83936 0.01836
C 28.22356 0.71435 0.01699
C 29.5271 32.68134 0.01177
C 30.7821 31.89236 0.04266
C 30.75432 30.50451 0.01324
C 29.46903 29.85742 0.0014
C 29.52202 28.42473 0.00924
C 30.74554 27.74071 0.02326
C 30.70287 26.28023 0.00261
C 29.47527 25.53445 0.03265
C 29.51396 24.15373 -0.02049
C 30.76893 23.4431 -0.01854
C 30.77549 22.0266 -0.01415
C 27.02761 34.02456 -0.00416
C 28.26154 13.47981 0.01257
C 31.9735 24.16799 0.03794
C 33.20519 22.07737 0.01574
C 0.00188 25.52094 -0.05239
C 34.42907 24.12442 0.03076
C 1.17866 23.43699 0.00723
C 1.21533 22.04489 0.02712
C 0.03295 21.30173 -0.02213
C 34.37031 19.82779 0.01951
C 1.19133 19.16906 -0.01678
C 1.24012 17.75514 0.01223
C 34.41925 16.97456 0.00648
C 34.39968 15.61582 0.02114
C 1.25784 14.87951 -0.02957
C 1.24799 26.25304 -0.00598
C 1.26594 13.50389 0.00343
C 34.40836 11.33745 -0.02442
C 1.24419 10.61218 -0.00027
C 1.21509 9.20899 -0.00583
C 34.38742 8.50795 -0.02302
C 0.00207 7.09638 -0.02849
C 1.26284 6.34914 0.02931
C 1.21086 4.97565 0.00628
C 34.35258 4.23948 -0.0345
C 34.37533 2.80323 -0.00931
C 1.23784 2.06036 -0.00939
C 1.20213 0.71838 -0.00468
C 0.04643 12.75365 -0.02656
C 33.23533 23.42589 0.01927
C 1.13813 27.69069 -0.00439
C 34.36569 29.75959 0.01831
C 32.00178 21.29641 -0.02383
C 31.9751 19.8593 -0.01429
C 33.23083 19.11872 -0.0136
C 33.24473 17.70219 0.00594
C 32.01875 17.021 -0.02474
C 31.98551 15.61144 0.00369
C 33.23442 14.819 0.00455
C 33.18034 13.43436 -0.00644
C 31.95082 12.79513 -0.01839
C 32.02572 11.29184 0.00137
C 33.26956 10.60674 0.00199
C 34.39694 28.35804 -0.01037
C 33.19111 9.21725 0.04381
C 31.98391 7.11698 0.01504
C 33.19824 6.37557 -0.00069
C 33.24105 4.98333 0.04926
C 31.94356 4.26872 -0.03838
C 31.98378 2.8689 0.00349
C 33.24095 2.11056 -0.00323
C 33.26365 0.71489 -0.00841
C 32.00372 0.03697 0.0001
C 0.0046 32.69706 -0.02927
C 1.25265 31.86731 -0.01404
C 1.20431 30.52046 0.01027
C 31.9941 8.53471 0.02806
C 3.66958 32.02847 0.00297
C 28.24592 14.90488 0.00152
C 27.03919 17.06268 0.00826
C 20.89363 2.1607 -0.02957
C 20.90576 0.71423 -0.04422
C 19.71949 0.02953 0.00654
C 22.10722 32.70984 -0.00703
C 23.347 31.90992 -0.04076
C 23.40264 30.5846 -0.00652
C 22.19671 29.82544 0.0058
C 22.19304 28.38146 -0.00865
C 23.30604 27.65469 0.00675
C 23.38912 26.29339 -0.00311
C 22.11833 25.51886 0.00742
C 19.81908 2.91348 -0.00831
C 22.11706 24.15138 -0.01594
C 23.35705 21.99918 -0.01154
C 22.12774 21.28836 -0.01721
C 22.05594 19.90153 -0.02422
C 23.28491 19.17633 0.01277
C 23.30276 17.73539 0.00096
C 22.08402 17.02844 -0.01527
C 22.16287 15.56974 0.01087
C 23.29672 14.84725 0.00199
C 23.35475 13.47312 0.01511
C 22.09176 12.79153 -0.00478
C 22.08683 11.32547 -0.01662
C 23.33267 23.43959 0.0106
C 23.34529 10.61854 -0.01185
C 19.68737 4.26716 0.00364
C 20.89774 6.39736 0.00143
C 20.90392 31.86801 -0.00066
C 20.94872 30.51152 -0.00289
C 19.68466 29.79969 0.00028
C 19.69886 28.39898 -0.02213
C 20.99179 27.75853 0.03698
C 20.90652 26.25351 -0.00109
C 19.62101 25.47709 -0.00491
C 19.65892 24.0916 0.03338
C 20.90164 23.46085 -0.0258
C 20.85102 22.03396 -0.0331
C 19.64987 21.28514 -0.00316
C 20.96701 5.00918 -0.017
C 19.70836 19.89509 0.02188
C 20.8899 17.77529 0.02691
C 19.65628 17.00044 -0.01581
C 19.672 15.65919 0.01452
C 20.91715 14.90417 0.04892
C 20.87053 13.47086 -0.00111
C 19.63993 12.74731 -0.03557
C 19.68421 11.32905 0.03754
C 20.88345 10.6239 0.01739
C 20.92036 9.21823 0.00755
C 19.70211 8.49904 -0.0054
C 19.66191 7.14862 0.00667
C 20.93995 19.20309 -0.01979
C 27.02084 15.63764 -0.00294
C 23.40634 9.19147 0.01126
C 22.16874 7.09352 -0.00381
C 25.83216 10.68539 0.01423
C 25.84475 9.2182 -0.00285
C 25.80661 6.32115 -0.009
C 25.89787 4.98007 -0.01199
C 24.56951 4.30839 -0.00229
C 24.61264 2.88675 -0.00938
C 25.84023 2.17709 -0.0264
C 25.83141 0.6969 -0.01154
C 24.59946 34.0162 0.00684
C 26.99566 32.59298 -0.01052
C 28.33955 31.93912 -0.01679
C 24.57414 11.33339 0.02555
C 28.23954 30.56195 0.00367
C 27.05117 28.41117 0.00996
C 28.24205 27.70128 0.00195
C 28.30344 26.26452 -0.00802
C 27.00347 25.49738 -0.00218
C 27.01293 24.13834 -0.01654
C 28.2731 23.46068 -0.00037
C 28.31093 22.06278 -0.0032
C 27.03251 21.20619 0.00622
C 27.08875 19.86295 -0.02815
C 28.28214 19.21059 -0.00942
C 28.25738 17.74978 0.00487
C 27.03816 29.8874 0.04306
C 22.16996 8.48217 0.01852
C 24.61062 12.74159 0.03102
C 25.85097 14.9183 -0.00498
C 23.37012 6.35862 0.03046
C 23.36487 4.96324 0.0296
C 22.16872 4.26803 0.03374
C 22.13714 2.82862 -0.02845
C 23.38625 2.17772 -0.03213
C 23.34629 0.71432 0.02239
C 22.10136 0.05033 0.01153
C 24.55056 32.62249 0.02734
C 25.73772 31.92621 -0.0055
C 25.76375 30.53397 0.01515
C 24.58039 29.82842 -0.00225
C 25.86391 13.56848 0.00135
C 24.56043 28.39747 0.00071
C 25.84023 26.30789 -0.01586
C 24.57723 25.53584 -0.01971
C 24.60147 24.08323 -0.02118
C 25.80338 23.44713 0.00733
C 25.80261 22.03404 -0.00178
C 24.62742 21.3097 0.00768
C 24.66287 19.88967 -0.0276
C 25.86744 19.19292 0.03005
C 25.80001 17.71809 -0.04078
C 24.66477 16.99275 0.02117
C 24.66386 15.55001 0.02737
C 25.88641 27.76344 -0.01107
C 2.41267 32.6067 -0.00605
