376
Graphene
C 34.38917 0.05462 0.01295
C 9.85881 7.11145 0.03542
C 11.04137 6.45679 0.02299
C 11.03531 5.05242 0.00244
C 9.868 4.27457 -0.01717
C 9.89348 2.88248 0.05265
C 11.11194 2.12396 -0.01952
C 11.04812 0.65096 -0.02813
C 9.76377 0.01412 0.00374
C 12.3066 32.56964 0.00052
C 13.48716 31.88734 -0.03682
C 13.5675 30.53462 0.01965
C 12.36297 29.81478 0.02058
C 12.37307 28.35971 -0.01957
C 13.56196 27.69705 -0.0108
C 13.49695 26.29767 -0.00368
C 12.33002 25.53163 -0.02696
C 12.28539 24.0683 -0.00114
C 13.50704 23.29805 0.00228
C 13.57168 21.92677 0.00798
C 9.81049 8.45264 0.01416
C 11.01382 9.21794 0.01945
C 11.04178 10.66716 -0.01454
C 9.7987 11.37061 0.01241
C 9.76012 32.69165 -0.00428
C 11.00218 31.96506 0.03101
C 11.12909 30.5543 -0.01536
C 9.85682 29.88657 -0.02689
C 9.87892 28.41104 -0.01046
C 11.07487 27.70298 -0.00891
C 11.11489 26.26769 0.02819
C 9.85513 25.65424 0.00165
C 9.84227 24.26669 -0.02971
C 12.35189 21.27692 0.00422
C 11.02611 23.52104 0.02894
C 9.89384 21.28311 0.00444
C 9.9302 19.85989 -0.00925
C 11.15563 19.16474 0.01877
C 11.15676 17.7184 0.01363
C 9.84893 17.05355 -0.02162
C 9.84091 15.59264 0.00415
C 11.05184 14.87518 -0.0014
C 11.02077 13.45958 0.02162
C 9.79549 12.78942 0.0076
C 11.10507 22.0402 -0.01789
C 7.34639 0.01408 -0.02245
C 12.32095 19.9339 0.0351
C 13.54412 17.83459 0.02098
C 14.69628 25.5888 -0.01979
C 14.71477 24.05243 0.02691
C 15.99454 23.41366 -0.01581
C 15.99136 22.01324 0.01452
C 14.79279 21.28557 0.04892
C 14.74615 19.86836 -0.00111
C 15.98 19.18485 -0.03557
C 16.04135 17.70319 0.03754
C 14.80134 17.11393 0.01739
C 14.83822 15.58396 0.00755
C 16.1166 15.00125 -0.0054
C 14.72538 12.79401 0.00667
C 14.80829 6.95862 0.00143
C 15.8558 4.984 -0.017
C 14.73618 4.21966 0.00364
C 14.75502 2.78111 -0.00831
C 16.00543 2.12036 -0.02957
C 15.9649 0.69708 -0.04422
C 14.72032 34.04437 0.00654
C 15.94937 26.29236 0.02188
C 15.88864 27.72129 -0.00316
C 14.69548 28.48065 -0.0331
C 14.7159 29.82718 -0.0258
C 12.37127 17.04009 0.01848
C 12.31659 15.58011 -0.00619
C 13.5543 14.94182 -0.02162
C 13.58837 13.50894 0.00889
C 12.31791 12.78755 -0.00481
C 12.35161 11.36849 0.00979
C 13.51922 10.48989 0.01443
C 13.47682 9.2816 0.03505
C 12.27104 8.52597 -0.02815
C 13.55582 19.24642 -0.03113
C 12.25066 7.11265 -0.04147
C 13.45781 4.98268 0.00213
C 12.24933 4.28944 -0.00066
C 12.28401 2.82335 -0.00289
C 13.47922 2.14299 0.00028
C 13.48768 0.72805 -0.02213
C 12.30974 34.00475 0.03698
C 14.73323 32.67324 -0.00109
C 15.93047 31.86683 -0.00491
C 15.97574 30.46046 0.03338
C 13.58086 6.38447 -0.05302
C 17.1675 32.62338 -0.00703
C 8.58221 0.72893 0.00985
C 7.43348 2.86873 -0.01111
C 3.67046 5.01318 0.0276
C 2.44948 4.24562 0.01305
C 2.47972 2.84315 -0.00077
C 3.65023 2.16033 0.03368
C 3.62505 0.80446 -0.02929
C 2.47814 34.05604 -0.00966
C 4.83204 32.70757 -0.03337
C 6.06609 31.99381 0.01227
C 6.09529 30.54086 0.00873
C 4.9732 29.85077 -0.00049
C 4.9342 28.45587 0.00848
C 6.16862 27.72389 -0.01303
C 6.17403 26.27418 -0.01378
C 4.92603 25.63888 0.02635
C 4.9076 24.18698 0.0127
C 6.14671 23.54128 0.01396
C 6.13927 22.05881 0.01849
C 4.8931 21.26891 -0.01142
C 4.96149 19.88442 -0.00562
C 3.70576 6.43476 0.00988
C 2.45233 7.10823 -0.01343
C 2.48046 8.48535 0.01087
C 3.67039 9.23941 -0.05697
C 3.73887 30.4983 0.02374
C 2.46551 29.81903 0.00402
C 2.36387 28.39585 0.0073
C 3.65397 27.79352 0.0174
C 3.73695 26.3281 0.03828
C 2.4728 25.5727 0.01226
C 2.48536 24.10127 -0.00279
C 3.69509 23.40299 0.01996
C 3.64079 21.9476 -0.03996
C 6.23706 19.17023 -0.00494
C 2.32347 21.22083 0.01465
C 3.64176 19.23634 -0.00518
C 3.64904 17.8099 0.0086
C 2.46178 17.11353 -0.00643
C 2.50169 15.62904 0.017
C 3.67815 14.86964 -0.03113
C 3.73294 13.48077 -0.02566
C 2.49655 12.83602 -0.00094
C 2.4754 11.44592 0.02322
C 3.63098 10.71612 -0.00725
C 2.3937 19.84673 -0.00074
C 8.64864 2.09756 -0.01275
C 6.19363 17.69743 0.00054
C 4.90075 15.59343 -0.00095
C 8.67342 23.50852 0.01291
C 8.61849 22.07193 0.00093
C 7.37504 21.35165 0.00057
C 7.46578 19.8577 -0.01634
C 8.67982 19.17075 -0.00334
C 8.64488 17.74277 0.02339
C 7.3841 16.95762 0.01641
C 7.3268 15.58147 -0.00719
C 8.56844 14.8831 0.01364
C 8.54132 13.41789 -0.01062
C 7.34614 12.79575 -0.00033
C 7.33887 11.39942 0.03589
C 8.56444 10.68747 -0.02759
C 8.58104 9.1949 0.0402
C 7.35428 8.58545 0.00572
C 7.38983 7.12572 0.03592
C 8.63299 6.40926 0.00406
C 8.60995 4.98843 0.00943
C 7.38088 4.26672 0.02841
C 7.36174 24.22907 0.00438
C 7.39024 25.59653 -0.00191
C 8.59024 26.3376 0.00373
C 8.68275 27.74392 0.02147
C 6.1707 14.9271 0.01572
C 6.19228 13.57356 -0.04848
C 4.93926 12.87182 -0.00892
C 4.86563 11.45528 -0.01362
C 6.08276 10.71258 -0.0008
C 6.10379 9.31856 0.0288
C 4.86892 8.53856 0.00393
C 4.90554 7.15616 0.00895
C 6.14089 6.40344 0.00685
C 4.92787 17.03729 0.03007
C 6.10339 5.0184 0.02888
C 4.90771 2.88727 -0.01384
C 6.14345 2.14648 0.03693
C 6.08985 0.74984 0.01745
C 4.85609 0.02827 0.00488
C 7.36535 32.66936 -0.01004
C 8.56501 31.95847 -0.02896
C 8.56155 30.57424 -0.00131
C 7.33618 29.92342 -0.01118
C 7.47598 28.46185 -0.014
C 4.8904 4.27607 -0.00482
C 18.4074 31.96799 -0.04076
C 18.4001 30.50372 -0.00652
C 17.18764 29.81511 0.0058
C 29.50597 15.67975 0.00716
C 30.6323 14.9354 0.00307
C 30.66094 6.31766 0.00346
C 30.79796 4.94811 0.01713
C 29.50039 4.27666 -0.01694
C 29.49036 2.88896 0.01428
C 30.7323 2.17828 -0.02142
C 30.71588 0.7288 0.0544
C 29.50115 34.07953 0.00026
C 31.95825 32.69471 0.00682
C 33.20775 32.00392 -0.01779
C 33.22603 30.55063 0.03794
C 31.9657 29.83027 0.01927
C 31.95146 28.42717 0.01574
C 33.1673 27.7411 -0.02383
C 33.16229 26.34641 -0.01429
C 31.98959 25.56521 -0.0136
C 32.05202 24.10595 0.00594
C 33.23554 23.32989 -0.02474
C 29.47023 17.07199 0.02108
C 30.74698 17.81361 0.0103
C 30.73857 19.18613 0.07705
C 29.48749 19.80569 0.01908
C 28.31072 13.48503 0.02326
C 28.23684 6.41574 0.00261
C 28.273 5.06537 0.03265
C 27.10807 4.18494 -0.02049
C 27.06406 2.77369 -0.01854
C 28.31768 2.11354 -0.01415
C 28.25913 0.72953 -0.03039
C 27.05365 0.00018 0.01836
C 29.45165 32.67497 0.03531
C 33.18359 21.98539 0.00369
C 30.67122 31.94845 -0.00669
C 29.50089 29.84549 0.01705
C 29.46345 28.42571 -0.0405
C 30.70767 27.71808 -0.01303
C 30.76001 26.26865 -0.01461
C 29.5519 25.50846 -0.02155
C 29.53529 24.14193 -0.00944
C 30.7868 23.3955 -0.03735
C 30.79982 22.00659 -0.00971
C 29.53658 21.23974 0.01518
C 30.75668 30.5009 0.0101
C 28.34001 14.79933 0.00924
C 31.96636 21.30801 0.00455
C 33.22501 19.17976 -0.01839
C 34.41139 19.88297 0.01951
C 1.15695 19.17614 -0.01678
C 1.21911 17.82165 0.01223
C 34.41844 17.11869 0.00648
C 0.0297 15.68101 0.02114
C 1.2234 14.97258 -0.02957
C 1.23271 13.52026 0.00343
C 34.32442 12.7795 -0.02656
C 0.15631 11.39265 -0.02442
C 1.24601 10.61685 -0.00027
C 1.19851 9.21289 -0.00583
C 34.43257 8.57286 -0.02302
C 34.33405 7.17642 -0.02849
C 1.24174 6.41632 0.02931
C 1.17398 4.88623 0.00628
C 34.36659 4.23061 -0.0345
C 0.01268 2.80158 -0.00931
C 1.25217 2.09319 -0.00939
C 1.20705 0.68128 -0.00468
C 34.41782 21.27035 -0.02213
C 1.18007 21.97141 0.02712
C 1.18291 23.40228 0.00723
C 34.41464 24.12124 0.03076
C 33.19608 17.81542 0.00137
C 31.95754 17.09878 0.00199
C 31.9353 15.59033 0.04381
C 33.16723 14.88105 0.02806
C 33.13684 13.48081 0.01504
C 33.0633 6.38285 -0.00069
C 33.18506 5.02585 0.04926
C 32.01559 4.21269 -0.03838
C 31.9921 2.81372 0.00349
C 31.9146 19.90762 -0.00644
C 33.22783 2.17576 -0.00323
C 31.97469 0.05295 0.0001
C 34.41604 32.71518 -0.02927
C 1.18819 31.97574 -0.01404
C 1.26304 30.58733 0.01027
C 0.05593 29.86354 0.01831
C 0.0137 28.38524 -0.01037
C 1.1829 27.67035 -0.00439
C 1.19834 26.22094 -0.00598
C 34.38554 25.5602 -0.05239
C 33.1996 0.82712 -0.00841
C 27.04089 15.46652 0.0014
C 26.99396 16.94836 0.01324
C 28.17843 17.7466 0.04266
C 19.66332 25.56187 -0.02845
C 19.71959 24.15082 -0.03213
C 20.89592 23.33895 0.02239
C 20.83461 21.97993 0.01153
C 19.71176 21.27089 0.02734
C 19.63339 19.83609 -0.0055
C 20.85745 19.16328 0.01515
C 20.91657 17.62502 -0.00225
C 19.67921 17.07248 0.00071
C 20.9739 2.11095 -0.01107
C 20.87788 0.76255 -0.01586
C 19.68549 34.01073 -0.01971
C 22.10972 32.65429 -0.02118
C 23.34317 31.90934 0.00733
C 23.38579 30.53353 -0.00178
C 22.19509 29.82744 0.00768
C 22.08056 28.40538 -0.0276
C 23.26496 27.6647 0.03005
C 23.28928 26.27524 -0.04078
C 20.87066 26.23371 0.03374
C 20.87416 27.65804 0.0296
C 19.66456 28.37033 0.03046
C 19.68861 29.80308 -0.00381
C 17.09798 28.41373 -0.00865
C 18.31768 27.63383 0.00675
C 18.43897 26.23293 -0.00311
C 17.20441 25.50178 0.00742
C 17.27103 24.0918 -0.01594
C 18.53063 23.37492 0.0106
C 18.48113 21.92699 -0.01154
C 17.21057 21.29362 -0.01721
C 17.21353 19.83707 -0.02422
C 22.0804 25.48928 0.02117
C 18.404 19.16205 0.01277
C 17.3236 16.88686 -0.01527
C 17.24474 15.46956 0.01087
C 17.27403 2.7092 0.00199
C 18.35324 2.13901 0.01511
C 18.46527 0.69058 -0.00478
C 17.19244 34.04384 -0.01662
C 19.71289 32.65419 -0.01185
C 20.84999 31.93077 0.01126
C 20.93141 30.54089 0.01852
C 18.52102 17.73228 0.00096
C 22.15931 24.12901 0.02737
C 23.35026 23.45784 -0.00498
C 23.3311 22.0634 0.00135
C 24.71149 15.52447 -0.00942
C 25.77968 14.97683 0.00487
C 24.4796 2.78206 0.00826
C 25.78891 2.20549 -0.00294
C 25.7927 0.74281 0.00152
C 24.55646 0.01634 0.01257
C 27.03969 32.64567 0.02316
C 28.23818 31.95888 0.04185
C 28.29087 30.53756 0.00194
C 24.51959 17.05394 -0.02815
C 27.07419 29.76987 -0.00621
C 28.32328 27.71802 0.02198
C 28.36419 26.26821 0.01094
C 27.14245 25.54032 0.00235
C 27.03308 24.11719 0.01495
C 28.29262 23.42304 0.01259
C 28.3799 22.03606 0.01799
C 27.14244 21.34435 0.01699
C 27.0336 19.94096 -0.00416
C 28.27106 19.1432 0.01177
C 27.07666 28.38949 0.02611
C 3.6266 31.95815 0.03267
C 25.75868 17.75226 0.00622
C 24.49505 19.89901 -0.00037
C 22.10911 21.31044 0.03102
C 22.10901 19.87196 0.02555
C 23.27573 19.09202 0.01423
C 23.27922 17.71326 -0.00285
C 22.127 17.10049 -0.009
C 23.43423 2.18348 -0.01199
C 23.32567 0.73558 -0.00229
C 22.08372 34.04011 -0.00938
C 24.58525 32.61907 -0.0264
C 25.73508 19.203 -0.0032
C 25.76879 31.84591 -0.01154
C 24.61604 29.79958 -0.01052
C 24.51331 28.35538 -0.01679
C 25.87674 27.70629 0.00367
C 25.93084 26.31837 0.04306
C 24.61548 25.60071 0.00996
C 24.60716 24.15772 0.00195
C 25.76919 23.39311 -0.00802
C 25.83351 22.00043 -0.00218
C 24.54913 21.33792 -0.01654
C 25.84955 30.44427 0.00684
C 2.46865 32.66797 -0.01509
