374
Graphene
C 34.41953 0.08764 0.01295
C 11.9186 21.30278 0.02299
C 12.32351 19.95615 0.00244
C 13.58535 19.43066 -0.01717
C 13.78974 10.58215 0.05265
C 13.53179 9.27947 -0.01952
C 12.46772 8.63466 -0.02813
C 13.48474 0.51599 0.00374
C 12.208 34.0564 0.00052
C 14.80144 32.65616 -0.03682
C 16.00717 31.92302 0.01965
C 16.01413 30.45876 0.02058
C 14.85657 29.75115 -0.01957
C 14.77152 28.33588 -0.0108
C 15.98158 27.692 -0.00368
C 15.93626 26.18177 -0.02696
C 14.69381 25.48717 -0.00114
C 14.69835 24.06501 0.00228
C 15.98631 23.29967 0.00798
C 15.95644 21.9358 0.00422
C 13.44005 21.93997 0.03542
C 14.74824 21.24415 0.0351
C 13.46393 23.35497 0.01416
C 12.24183 25.50189 -0.01454
C 10.88935 22.02501 -0.01536
C 9.96809 11.35935 -0.02689
C 11.08778 10.6481 -0.01046
C 11.18061 9.30155 -0.00891
C 9.91879 8.66867 0.02819
C 9.9516 7.12265 0.00165
C 11.04356 6.35353 -0.02971
C 9.86067 4.44764 0.02894
C 9.9425 2.99976 -0.01789
C 10.98863 2.15332 0.00444
C 11.01154 0.72547 -0.00925
C 9.81648 0.01791 0.01877
C 12.26629 32.61257 0.01363
C 13.49961 31.85841 -0.02162
C 13.56641 30.44057 0.00415
C 12.33131 29.83132 -0.0014
C 12.31613 28.3107 0.02162
C 13.53723 27.67619 0.0076
C 13.53604 26.23406 0.01241
C 12.26356 24.11697 0.01945
C 14.72934 19.89128 -0.03113
C 15.97159 19.14442 0.02098
C 15.95157 17.79548 0.01848
C 18.33905 14.88474 0.02691
C 18.38547 13.4936 -0.01581
C 17.21995 12.73355 0.01452
C 17.2556 11.29845 0.04892
C 18.54405 10.50329 -0.00111
C 18.27162 9.14517 -0.03557
C 17.08484 8.62689 0.03754
C 18.48381 6.45691 0.01739
C 18.56571 2.12737 0.00755
C 18.54562 0.63158 -0.0054
C 17.30857 34.0615 0.00667
C 19.69401 32.58598 0.00143
C 20.87587 31.81652 -0.017
C 20.87822 30.44494 0.00364
C 19.71105 29.73023 -0.00831
C 19.67269 28.35317 -0.02957
C 20.89061 27.65141 -0.04422
C 20.88477 26.21465 0.00654
C 19.61293 25.525 -0.00703
C 17.0082 15.6625 -0.01979
C 17.11869 17.0708 0.02188
C 18.41592 17.73063 -0.00316
C 18.40318 19.1415 -0.0331
C 15.95586 14.75199 -0.00619
C 16.13339 13.49273 -0.02162
C 14.74189 11.37722 0.00889
C 15.94993 10.66131 -0.00481
C 16.00164 9.30312 0.00979
C 16.05961 0.60639 0.01443
C 14.77457 0.18153 0.03505
C 17.22608 32.63618 -0.02815
C 18.46439 31.92175 -0.04147
C 11.03827 23.46509 0.03101
C 18.4292 30.47453 -0.05302
C 17.22924 28.42944 -0.00066
C 18.41111 27.67495 -0.00289
C 18.36828 26.25351 0.00028
C 17.09622 25.53419 -0.02213
C 17.1407 24.09628 0.03698
C 18.32761 23.40681 -0.00109
C 18.38122 22.01888 -0.00491
C 17.26752 21.20716 0.03338
C 17.21649 19.86653 -0.0258
C 17.28308 29.83399 0.00213
C 9.78231 24.19643 -0.00428
C 9.77673 25.57564 -0.02245
C 10.9298 26.27634 0.00985
C 3.63204 5.04976 -0.00077
C 2.4573 4.29797 0.03368
C 2.39676 2.94664 -0.02929
C 3.68466 2.1879 -0.00966
C 3.74295 0.76503 -0.03337
C 2.47406 0.03502 0.01227
C 4.81421 32.76901 0.00873
C 6.10344 32.00324 -0.00049
C 6.05539 30.56828 0.00848
C 4.85685 29.87073 -0.01303
C 4.85303 28.43296 -0.01378
C 6.11546 27.69946 0.02635
C 6.08603 26.39155 0.0127
C 4.87114 25.62117 0.01396
C 4.87877 24.22248 0.01849
C 6.11031 23.51379 -0.01142
C 6.24025 22.02684 -0.00562
C 4.98358 21.26733 -0.00494
C 4.84882 19.89711 0.00054
C 3.67984 6.46474 0.01305
C 2.47025 7.11515 0.0276
C 2.51682 8.59885 0.00988
C 3.71571 9.32344 -0.01343
C 3.63884 30.61985 0.0073
C 2.40021 29.87465 0.0174
C 2.41387 28.46279 0.03828
C 3.70729 27.73514 0.01226
C 3.66946 26.25732 -0.00279
C 2.42655 25.53335 0.01996
C 2.4245 24.1292 -0.03996
C 3.7557 23.43041 0.01465
C 3.71365 22.02362 -0.00074
C 4.65963 16.91957 0.03007
C 2.42339 21.34044 -0.00518
C 3.70426 19.23468 -0.00643
C 3.67456 17.71445 0.017
C 2.46437 17.07663 -0.03113
C 2.51472 15.6777 -0.02566
C 3.71517 14.85254 -0.00094
C 3.77417 13.56037 0.02322
C 2.43581 12.86089 -0.00725
C 2.49738 11.40911 -0.05697
C 3.75298 10.73118 0.01087
C 2.3854 19.9336 0.0086
C 19.62478 24.16234 -0.04076
C 4.88869 15.63939 -0.00095
C 4.96897 12.83467 -0.04848
C 7.34139 12.78995 0.00057
C 7.49648 11.48462 -0.01634
C 8.73237 10.81241 -0.00334
C 8.7209 9.38404 0.02339
C 7.43772 8.59126 0.01641
C 7.3815 7.13368 -0.00719
C 8.61344 6.32423 0.01364
C 8.57567 4.97359 -0.01062
C 7.29771 4.25592 -0.00033
C 7.37383 2.84594 0.03589
C 8.60027 2.18611 -0.02759
C 8.60044 0.71867 0.0402
C 7.34837 0.04537 0.00572
C 9.88773 32.5978 0.03592
C 11.06673 31.94424 0.00406
C 11.06268 30.47955 0.00943
C 9.76239 29.86663 0.02841
C 9.84149 28.44637 -0.01111
C 11.06963 27.67742 -0.01275
C 7.47588 21.49189 0.00093
C 8.63101 22.07348 0.01291
C 8.58313 23.49619 0.00438
C 7.37464 24.16561 -0.00191
C 4.98215 11.43945 -0.00892
C 6.2701 10.71437 -0.01362
C 6.30104 9.31171 -0.0008
C 4.97161 8.65079 0.0288
C 4.90563 7.2001 0.00393
C 6.12096 6.47625 0.00895
C 6.09728 5.04486 0.00685
C 4.94104 4.34204 0.02888
C 4.88079 2.88466 -0.00482
C 6.14887 13.4384 0.01572
C 6.076 2.21411 -0.01384
C 4.96005 0.03373 0.01745
C 7.36668 32.7221 0.00488
C 8.55878 31.98869 -0.01004
C 8.52897 30.57482 -0.02896
C 7.28364 29.8345 -0.00131
C 7.34815 28.48354 -0.01118
C 8.61006 27.79838 -0.014
C 8.5861 26.28151 0.02147
C 7.34687 25.59851 0.00373
C 6.09781 0.77157 0.03693
C 20.79263 23.41162 -0.00652
C 20.84814 21.91735 0.0058
C 19.65192 21.29746 -0.00865
C 30.74065 2.14086 0.00716
C 30.71264 0.72652 0.00307
C 29.56236 0.04411 0.00346
C 31.97615 32.6849 0.01713
C 33.19054 32.06398 -0.01694
C 33.18259 30.53208 0.01428
C 32.02601 29.80834 -0.02142
C 31.95331 28.3692 0.0544
C 33.20227 27.7161 0.00026
C 33.17855 26.27329 0.00682
C 31.95664 25.54594 -0.01779
C 31.95129 24.14226 0.03794
C 33.19523 23.40967 0.01927
C 33.16048 22.03881 0.01574
C 31.95976 21.24507 -0.02383
C 31.90881 19.83506 -0.01429
C 33.18369 19.14379 -0.0136
C 33.17925 17.79554 0.00594
C 32.04147 17.00745 -0.02474
C 29.46359 2.85464 0.02108
C 29.49956 4.23639 0.0103
C 30.70254 4.9515 0.07705
C 30.74865 6.40069 0.01908
C 30.73589 27.69125 0.02326
C 30.73354 26.29736 0.00261
C 29.51327 25.56888 0.03265
C 29.55956 24.135 -0.02049
C 30.80437 23.43661 -0.01854
C 30.69762 21.98207 -0.01415
C 29.46356 21.29737 -0.03039
C 29.54153 19.85479 0.01836
C 30.70933 19.12343 0.03531
C 31.9769 15.52812 0.00369
C 30.74651 17.65217 -0.00669
C 29.44189 15.57739 0.01705
C 30.67218 14.83667 -0.0405
C 30.68879 13.47391 -0.01303
C 29.4426 12.78016 -0.01461
C 29.46148 11.35558 -0.02155
C 30.67833 10.65103 -0.00944
C 30.7586 9.21079 -0.03735
C 29.5384 8.51184 -0.00971
C 29.50725 7.16454 0.01518
C 29.52972 17.00672 0.0101
C 29.44977 28.31032 0.00924
C 33.16185 14.90533 0.00455
C 31.92019 12.75151 -0.01839
C 34.33828 19.87807 0.01951
C 1.16557 19.21323 -0.01678
C 1.22672 17.83765 0.01223
C 0.01834 17.09373 0.00648
C 0.02683 15.70134 0.02114
C 1.22796 14.96731 -0.02957
C 1.24381 13.57336 0.00343
C 34.42876 12.81329 -0.02656
C 0.08631 11.40585 -0.02442
C 1.28789 10.62589 -0.00027
C 1.28037 9.2464 -0.00583
C 0.03433 8.59528 -0.02302
C 34.35194 7.10939 -0.02849
C 1.14911 6.45122 0.02931
C 1.13859 4.9943 0.00628
C 34.39455 4.30553 -0.0345
C 34.42084 2.83382 -0.00931
C 1.21321 2.17634 -0.00939
C 1.20862 0.75745 -0.00468
C 34.41092 21.3001 -0.02213
C 1.22527 21.9441 0.02712
C 1.22638 23.41443 0.00723
C 0.03317 24.11891 0.03076
C 31.93112 11.38565 0.00137
C 33.24342 10.66598 0.00199
C 33.24247 9.27377 0.04381
C 32.04409 8.52333 0.02806
C 31.9896 7.11838 0.01504
C 33.20932 6.36879 -0.00069
C 33.1642 4.91817 0.04926
C 31.89234 4.22047 -0.03838
C 31.92001 2.89281 0.00349
C 33.13973 13.45277 -0.00644
C 33.20092 2.11008 -0.00323
C 31.91131 0.0096 0.0001
C 34.37901 32.71569 -0.02927
C 1.16789 32.00566 -0.01404
C 1.26542 30.58581 0.01027
C 0.00255 29.83323 0.01831
C 0.00153 28.41431 -0.01037
C 1.20881 27.68354 -0.00439
C 1.18512 26.2772 -0.00598
C 34.39742 25.54353 -0.05239
C 33.17372 0.73768 -0.00841
C 3.58085 31.97516 0.00402
C 29.54913 29.77343 0.0014
C 30.78982 31.91818 0.04266
C 23.29213 21.98632 -0.03213
C 22.03236 21.23158 0.02239
C 21.9984 19.82624 0.01153
C 23.31531 19.18187 0.02734
C 23.27433 17.7003 -0.0055
C 21.99497 16.95298 0.01515
C 22.10572 15.5495 -0.00225
C 23.324 14.77597 0.00071
C 23.38702 13.32115 -0.01107
C 22.18284 12.74137 -0.01586
C 23.46516 2.05099 -0.01971
C 23.44045 0.71109 -0.02118
C 22.21228 34.02594 0.00733
C 24.58398 32.59216 -0.00178
C 25.8517 31.91716 0.00768
C 25.8995 30.51389 -0.0276
C 24.63693 29.83667 0.03005
C 24.5789 28.37927 -0.04078
C 25.84036 27.70712 0.02117
C 23.37974 23.43603 -0.02845
C 22.06547 24.13165 0.03374
C 22.18647 25.47437 0.0296
C 23.34779 26.23575 0.03046
C 19.59415 19.88689 0.00675
C 20.88257 19.11116 -0.00311
C 20.85376 17.75453 0.00742
C 19.54061 17.034 -0.01594
C 19.63861 15.59201 0.0106
C 20.88125 14.82982 -0.01154
C 20.94556 13.41132 -0.01721
C 19.686 12.81227 -0.02422
C 19.64644 11.44059 0.01277
C 25.75923 26.30709 0.02737
C 19.33508 4.33254 0.00096
C 20.92654 2.05611 0.01087
C 21.01685 0.73216 0.00199
C 19.76407 34.05668 0.01511
C 22.14688 32.56517 -0.00478
C 23.36079 31.86607 -0.01662
C 23.41673 30.47621 -0.01185
C 22.19098 29.78014 0.01126
C 22.0953 28.34966 0.01852
C 23.40049 27.66969 -0.00381
C 19.7674 2.89727 -0.01527
C 30.71083 30.48733 0.01324
C 24.54439 25.50672 -0.00498
C 25.77846 23.40942 0.03102
C 26.97265 21.27745 0.00487
C 27.01406 19.88534 0.00826
C 28.35516 19.15101 -0.00294
C 28.28843 17.70367 0.00152
C 26.99385 17.05328 0.01257
C 26.95286 15.69443 0.02316
C 28.14316 14.93193 0.04185
C 28.20659 13.52937 0.00194
C 26.96796 12.87343 -0.00621
C 27.10286 11.49911 0.02611
C 28.17467 10.55232 0.02198
C 28.30433 9.24139 0.01094
C 28.43398 6.37026 0.00235
C 28.41404 5.12753 0.01495
C 26.98359 2.753 0.01259
C 28.32884 2.16781 0.01799
C 28.19422 0.68952 0.01699
C 26.98436 0.0167 -0.00416
C 29.50539 32.68299 0.01177
C 28.26681 22.01776 -0.00942
C 28.34296 23.48736 -0.02815
C 27.05319 24.11388 0.00622
C 27.05918 25.49243 -0.0032
C 25.76468 22.01294 0.02555
C 24.48986 21.26532 0.01423
C 24.52302 19.81723 -0.00285
C 25.73577 19.16453 -0.009
C 25.76829 17.75291 -0.01199
C 24.44636 16.9981 -0.00229
C 24.50489 15.56297 -0.00938
C 25.72978 14.97926 -0.0264
C 25.78646 13.50548 -0.01154
C 24.57041 24.09788 0.00135
C 24.63179 12.71973 0.00684
C 25.75852 0.73067 -0.01679
C 24.59537 0.0036 0.00367
C 27.04862 32.61397 0.04306
C 28.41411 31.98558 0.00996
C 28.41891 30.56144 0.00195
C 27.07163 29.78428 -0.00802
C 27.01065 28.40224 -0.00218
C 28.22828 27.66929 -0.01654
C 28.19926 26.22291 -0.00037
C 25.84871 2.16376 -0.01052
C 2.3891 32.73103 0.02374
