354
Graphene
C 34.35594 34.05038 0.01295
C 17.46297 32.59126 -0.02696
C 18.53335 31.6338 -0.00114
C 18.53101 19.23551 0.00228
C 18.22961 17.83003 0.00798
C 16.9979 16.96652 0.00422
C 17.21311 15.55606 0.0351
C 18.5372 14.94435 -0.03113
C 18.48137 13.43712 0.02098
C 14.66982 33.91953 -0.00368
C 17.22735 12.82054 0.01848
C 18.43937 10.63785 -0.02162
C 18.41309 9.26931 0.00889
C 17.23028 8.47274 -0.00481
C 17.12651 7.11388 0.00979
C 18.37517 6.3446 0.01443
C 18.34017 4.91714 0.03505
C 17.0841 4.20236 -0.02815
C 17.03734 2.83435 -0.04147
C 17.23782 11.42292 -0.00619
C 18.28514 2.1755 -0.05302
C 15.93683 0.63981 -0.0108
C 14.71698 2.75613 0.02058
C 13.50168 4.88653 -0.0014
C 12.26092 4.2455 0.02162
C 12.21038 2.85196 0.0076
C 13.4797 2.04109 0.01241
C 13.4981 0.62874 -0.01454
C 12.23558 0.10946 0.01945
C 14.91803 15.67227 0.01416
C 15.9687 14.87547 0.03542
C 15.8948 2.07075 -0.01957
C 15.96639 13.42378 0.02299
C 14.74288 11.32581 -0.01717
C 16.0132 10.61997 0.05265
C 15.99916 9.20528 -0.01952
C 14.72686 8.49538 -0.02813
C 14.72619 7.04602 0.00374
C 15.93718 6.39762 0.00052
C 15.93688 4.97451 -0.03682
C 14.71075 4.15407 0.01965
C 14.80369 12.78451 0.00244
C 13.55946 6.34515 0.00415
C 18.36282 0.73793 0.00213
C 19.63608 32.63283 -0.00289
C 19.65754 4.14622 0.00143
C 19.60499 2.76733 -0.017
C 20.9057 2.0717 0.00364
C 20.8501 0.71295 -0.00831
C 19.66114 34.06592 -0.02957
C 22.06445 32.68434 -0.04422
C 23.33767 31.92049 0.00654
C 23.38272 30.56501 -0.00703
C 20.90678 4.87569 0.00667
C 22.07201 29.84514 -0.04076
C 23.42462 27.77004 0.0058
C 23.44106 26.32832 -0.00865
C 22.11111 25.61331 0.00675
C 22.06163 24.07995 -0.00311
C 23.41008 23.45657 0.00742
C 23.30194 22.09458 -0.01594
C 22.12872 21.3094 0.0106
C 22.15495 19.88037 -0.01154
C 22.12799 28.42249 -0.00652
C 17.16424 33.9651 -0.00066
C 20.87141 6.29289 -0.0054
C 19.68247 8.51419 0.01739
C 20.87483 31.99692 0.00028
C 20.62514 30.62004 -0.02213
C 19.32699 30.26541 0.03698
C 20.97618 27.70966 -0.00109
C 21.01603 26.38293 -0.00491
C 20.89219 23.33695 0.03338
C 20.97281 21.96954 -0.0258
C 19.71567 20.00218 -0.0331
C 19.63392 7.09466 0.00755
C 20.93981 19.21113 -0.00316
C 19.55432 17.18114 -0.01979
C 19.64123 15.73496 0.02691
C 20.82599 14.9574 -0.01581
C 20.80848 13.48198 0.01452
C 19.6315 12.70795 0.04892
C 19.64335 11.33011 -0.00111
C 20.90688 10.61819 -0.03557
C 20.90305 9.19728 0.03754
C 20.84725 17.81107 0.02188
C 12.30804 7.10816 -0.02162
C 12.31458 8.56417 0.01363
C 13.56896 9.27508 0.01877
C 2.42093 2.86167 0.00054
C 3.62314 2.18427 0.03007
C 3.54541 0.8201 -0.00095
C 2.43296 0.00942 0.01572
C 5.13105 32.82829 -0.04848
C 6.57834 32.74578 -0.00892
C 6.03086 17.73232 -0.01362
C 4.78904 17.10847 -0.0008
C 2.41901 4.25055 -0.00494
C 4.87229 15.72598 0.0288
C 6.11416 13.5568 0.00895
C 4.89447 12.85902 0.00685
C 4.94185 11.52527 0.02888
C 6.14773 10.71194 -0.00482
C 6.1083 9.32058 -0.01384
C 4.8872 8.59377 0.03693
C 4.87956 7.16388 0.01745
C 6.0939 6.47317 0.00488
C 6.12172 14.99086 0.00393
C 6.07773 5.02554 -0.01004
C 3.67419 4.94565 -0.00562
C 2.49336 7.04959 0.01849
C 3.55967 30.68986 -0.01343
C 2.43796 29.7752 0.00988
C 2.44292 28.36111 0.0276
C 2.32353 25.54766 0.01305
C 2.36668 24.15657 -0.00077
C 2.33832 21.3249 0.03368
C 2.48487 19.96401 -0.02929
C 3.67965 19.11235 -0.00966
C 3.68684 6.37421 -0.01142
C 3.59151 17.76207 -0.03337
C 2.40216 15.61254 0.00873
C 3.70043 14.95621 -0.00049
C 3.66494 13.57419 0.00848
C 2.4209 12.89683 -0.01303
C 2.43638 11.43249 -0.01378
C 3.75541 10.80704 0.02635
C 3.67424 9.32463 0.0127
C 2.52041 8.6129 0.01396
C 2.33695 17.07828 0.01227
C 4.92138 4.26825 -0.02896
C 4.84025 2.89214 -0.00131
C 6.06698 2.16422 -0.01118
C 9.90038 11.50713 0.02841
C 11.10024 10.76306 -0.01111
C 11.04924 9.26982 -0.01275
C 9.79517 8.55525 0.00985
C 9.81255 7.10647 -0.02245
C 11.07822 6.44448 -0.00428
C 11.04908 5.02111 0.03101
C 9.82485 4.31499 -0.01536
C 9.84247 12.95549 0.00943
C 9.71748 2.81201 -0.02689
C 10.92464 0.67809 -0.00891
C 9.65198 0.05136 0.02819
C 12.35614 15.4914 0.00165
C 13.64156 15.04447 -0.02971
C 13.65051 13.51339 0.02894
C 12.33107 12.8114 -0.01789
C 12.36324 11.41877 0.00444
C 13.54772 10.64158 -0.00925
C 10.92774 2.0361 -0.01046
C 11.07675 13.54546 0.00406
C 11.12525 15.00104 0.03592
C 9.83727 15.71404 0.00572
C 5.99343 0.77381 -0.014
C 4.76658 0.10958 0.02147
C 7.26253 17.01991 0.00373
C 7.40102 15.67777 -0.00191
C 8.62704 15.02776 0.00438
C 8.64717 13.60226 0.01291
C 7.36856 12.87523 0.00093
C 7.40753 11.43609 0.00057
C 8.69699 10.71663 -0.01634
C 8.53484 9.3761 -0.00334
C 7.32772 8.57583 0.02339
C 7.30801 7.11242 0.01641
C 8.49528 6.41338 -0.00719
C 8.53995 4.97187 0.01364
C 7.28598 4.28845 -0.01062
C 7.28803 2.88427 -0.00033
C 8.47503 2.05064 0.03589
C 8.3538 0.56411 -0.02759
C 7.04049 33.91298 0.0402
C 23.33413 19.17969 -0.01721
C 23.31617 17.76662 -0.02422
C 22.03886 17.01592 0.01277
C 22.1223 15.59932 0.00096
C 31.96699 32.72284 0.01713
C 33.15711 31.93949 -0.01694
C 33.12944 30.56876 0.01428
C 31.90571 29.83733 -0.02142
C 31.98811 28.42835 0.0544
C 33.22305 27.65732 0.00026
C 33.18826 26.25826 0.00682
C 31.94611 25.63074 -0.01779
C 29.46776 0.02072 0.00346
C 32.01346 24.11546 0.03794
C 33.14652 22.08272 0.01574
C 31.92806 21.36029 -0.02383
C 31.89217 19.90693 -0.01429
C 33.19241 19.21883 -0.0136
C 33.17113 17.76921 0.00594
C 31.83013 16.98381 -0.02474
C 31.91086 15.62559 0.00369
C 33.13373 14.94461 0.00455
C 33.21867 23.4653 0.01927
C 33.2239 13.51185 -0.00644
C 30.67463 0.73357 0.00307
C 29.51674 2.88768 0.02108
C 30.74998 22.04651 -0.01415
C 29.40446 21.34607 -0.03039
C 29.4851 19.91851 0.01836
C 30.6824 19.14241 0.03531
C 30.63621 17.74324 -0.00669
C 29.37165 17.06963 0.0101
C 29.43272 15.66989 0.01705
C 30.58995 14.8839 -0.0405
C 30.7457 2.11321 0.00716
C 30.67088 13.4735 -0.01303
C 29.5124 11.26786 -0.02155
C 30.74902 10.63652 -0.00944
C 30.74059 9.1635 -0.03735
C 29.55394 8.49668 -0.00971
C 29.57235 7.06769 0.01518
C 30.8179 6.36709 0.01908
C 30.69239 5.01157 0.07705
C 29.53697 4.25625 0.0103
C 29.50169 12.66868 -0.01461
C 31.97187 12.80678 -0.01839
C 32.01235 11.36157 0.00137
C 33.22149 10.69843 0.00199
C 1.27625 19.19704 -0.01678
C 1.2213 17.81014 0.01223
C 34.41309 17.17031 0.00648
C 34.3924 15.73268 0.02114
C 1.17659 14.96018 -0.02957
C 1.18813 13.52467 0.00343
C 34.42684 12.81701 -0.02656
C 0.00306 11.33499 -0.02442
C 0.04501 19.93927 0.01951
C 1.25124 10.70154 -0.00027
C 34.4188 8.50288 -0.02302
C 34.38406 7.09021 -0.02849
C 1.27362 6.43499 0.02931
C 1.22615 5.01592 0.00628
C 0.0212 4.23064 -0.0345
C 0.03738 2.80938 -0.00931
C 1.22658 2.06232 -0.00939
C 1.13748 0.69913 -0.00468
C 1.16242 9.22898 -0.00583
C 34.38377 21.31574 -0.02213
C 1.13105 21.99199 0.02712
C 1.23216 23.39226 0.00723
C 33.22825 9.2392 0.04381
C 31.95398 8.55438 0.02806
C 32.02735 7.10433 0.01504
C 33.19469 6.34094 -0.00069
C 33.20012 4.97161 0.04926
C 31.9204 4.3001 -0.03838
C 31.96289 2.8738 0.00349
C 33.19092 2.12071 -0.00323
C 33.17174 0.74034 -0.00841
C 31.89056 0.02776 0.0001
C 0.07308 32.63937 -0.02927
C 1.36589 31.94644 -0.01404
C 1.23439 30.56396 0.01027
C 34.41295 29.81913 0.01831
C 34.39752 28.41821 -0.01037
C 1.15995 27.71867 -0.00439
C 1.14779 26.26255 -0.00598
C 34.40064 25.49551 -0.05239
C 0.03011 24.07922 0.03076
C 30.84385 23.47343 -0.01854
C 3.82941 32.04338 0.01087
C 29.57884 24.18037 -0.02049
C 30.69809 26.3509 0.00261
C 24.59651 25.5735 -0.01107
C 24.6369 24.14052 -0.01586
C 25.83475 23.44819 -0.01971
C 25.77281 22.0249 -0.02118
C 24.55659 21.26905 0.00733
C 24.51854 19.88908 -0.00178
C 25.74758 19.17633 0.00768
C 25.78137 17.74115 -0.0276
C 25.8079 26.31839 0.00071
C 24.56129 17.08099 0.03005
C 25.76146 14.83633 0.02117
C 25.75337 13.46929 0.02737
C 24.53093 12.73469 -0.00498
C 24.55459 11.31613 0.00135
C 25.79679 10.56581 0.03102
C 25.85658 9.15396 0.02555
C 24.60478 8.42978 0.01423
C 24.60773 7.03652 -0.00285
C 24.57103 15.6673 -0.04078
C 25.81498 6.33393 -0.009
C 25.71868 27.75233 -0.00225
C 24.58464 29.82357 -0.0055
C 23.35485 14.85433 -0.01527
C 23.31863 13.51353 0.01087
C 22.12894 12.80877 0.00199
C 22.09881 11.36788 0.01511
C 23.37275 10.58205 -0.00478
C 23.42419 9.18073 -0.01662
C 22.19877 8.49792 -0.01185
C 22.09903 7.10733 0.01126
C 24.56593 28.47554 0.01515
C 23.3567 6.34421 0.01852
C 22.03559 4.19184 0.03046
C 22.1115 2.84635 0.0296
C 23.33565 2.14621 0.03374
C 23.31284 0.76812 -0.02845
C 22.10568 0.02057 -0.03213
C 24.51314 32.63337 0.02239
C 25.72434 31.98264 0.01153
C 25.86256 30.59917 0.02734
C 23.28528 4.93678 -0.00381
C 25.78694 4.97606 -0.01199
C 24.57076 4.26101 -0.00229
C 24.54394 2.8743 -0.00938
C 27.04391 11.31857 0.04185
C 28.28335 10.58117 0.00194
C 28.30872 9.14189 -0.00621
C 27.07003 8.44106 0.02611
C 27.0734 7.02066 0.02198
C 28.29146 6.33825 0.01094
C 28.2217 4.88712 0.00235
C 27.00576 4.15757 0.01495
C 27.05399 12.73785 0.02316
C 26.98291 2.79496 0.01259
C 28.20273 0.74884 0.01699
C 26.98776 34.07271 -0.00416
C 29.45667 32.67067 0.01177
C 30.70477 31.99354 0.04266
C 30.67179 30.52874 0.01324
C 29.47341 29.86923 0.0014
C 29.45584 28.49544 0.00924
C 30.70102 27.80714 0.02326
C 28.26816 2.16708 0.01799
C 28.23844 13.42576 0.01257
C 28.22537 14.90768 0.00152
C 26.93466 15.55032 -0.00294
C 25.80099 2.08761 -0.0264
C 25.72403 0.6994 -0.01154
C 24.53986 0.0084 0.00684
C 27.01787 32.67095 -0.01052
C 28.23052 32.02909 -0.01679
C 28.26061 30.59629 0.00367
C 27.02683 29.82644 0.04306
C 27.02148 28.40948 0.00996
C 28.32127 27.65533 0.00195
C 28.30748 26.28763 -0.00802
C 27.04015 25.65773 -0.00218
C 27.13712 24.24156 -0.01654
C 28.27921 23.52153 -0.00037
C 28.1604 22.03564 -0.0032
C 26.87378 21.25335 0.00622
C 26.96605 19.88493 -0.02815
C 28.19253 19.18656 -0.00942
C 28.12731 17.75346 0.00487
C 26.97742 16.97813 0.00826
C 29.57869 25.55162 0.03265
C 2.54776 32.71596 -0.05697
