446
Graphene
C 0.01817 0.03213 0.01295
C 13.58223 17.73796 0.00438
C 12.25951 17.11534 0.01291
C 12.30573 15.668 0.00093
C 13.55922 14.9028 0.00057
C 13.59231 13.53868 -0.01634
C 12.33649 12.81394 -0.00334
C 12.25845 11.3437 0.02339
C 13.49942 10.64046 0.01641
C 13.506 9.13192 -0.00719
C 12.29434 8.51713 0.01364
C 12.36339 7.14155 -0.01062
C 13.56862 6.36666 -0.00033
C 13.55769 4.94975 0.03589
C 12.34114 4.24252 -0.02759
C 12.2736 2.92134 0.0402
C 13.52066 2.09799 0.00572
C 13.51692 0.63619 0.03592
C 12.22666 34.04115 0.00406
C 14.80558 32.58763 0.00943
C 15.94283 31.92569 0.02841
C 15.95621 30.57204 -0.01111
C 14.76589 29.7897 -0.01275
C 14.72144 28.45789 0.00985
C 13.4681 19.23741 -0.00191
C 12.31165 19.93169 0.00373
C 12.32213 21.32911 0.02147
C 13.54996 22.02406 -0.014
C 11.08735 13.4917 -0.00562
C 9.82993 12.77669 -0.00494
C 9.85424 11.3383 0.00054
C 11.09665 10.66602 0.03007
C 11.07194 9.30129 -0.00095
C 9.79226 8.55075 0.01572
C 9.79858 7.16327 -0.04848
C 11.09683 6.33854 -0.00892
C 11.0824 4.95819 -0.01362
C 9.85518 4.30339 -0.0008
C 9.91888 2.84975 0.0288
C 15.94305 27.64163 -0.02245
C 11.07391 2.17722 0.00393
C 9.84888 34.05927 0.00685
C 12.22853 32.63094 0.02888
C 13.54021 31.92569 -0.00482
C 13.59834 30.53077 -0.01384
C 12.29754 29.83797 0.03693
C 12.30143 28.42523 0.01745
C 13.48113 27.79066 0.00488
C 13.48677 26.31609 -0.01004
C 12.2642 25.51533 -0.02896
C 12.30204 24.11259 -0.00131
C 13.53835 23.47217 -0.01118
C 11.0681 0.69744 0.00895
C 15.93972 26.28782 -0.00428
C 14.72049 25.59145 0.03101
C 14.771 24.11434 -0.01536
C 18.50308 27.74895 0.00374
C 18.45476 26.23556 0.00052
C 17.22885 25.56643 -0.03682
C 17.23524 24.13385 0.01965
C 18.4732 23.3687 0.02058
C 18.37574 22.0029 -0.01957
C 17.18962 21.27843 -0.0108
C 17.24586 19.83172 -0.00368
C 18.48067 19.12719 -0.02696
C 18.42755 17.76981 -0.00114
C 17.16644 17.04629 0.00228
C 17.17595 28.39898 -0.02813
C 17.13001 15.6677 0.00798
C 18.43269 13.5405 0.0351
C 17.21942 12.78181 -0.03113
C 17.27719 11.30564 0.02098
C 18.47702 10.61863 0.01848
C 18.47201 9.26407 -0.00619
C 17.20543 8.5758 -0.02162
C 17.2529 7.13178 0.00889
C 18.43258 6.39983 -0.00481
C 18.44389 4.92444 0.00979
C 17.18507 4.23188 0.01443
C 17.20086 2.83395 0.03505
C 18.47314 14.94047 0.00422
C 11.05935 14.91954 -0.01142
C 17.17107 29.82171 -0.01952
C 18.40386 31.96826 -0.01717
C 15.98522 23.42628 -0.02689
C 15.94474 22.02057 -0.01046
C 14.77579 21.32049 -0.00891
C 14.80518 19.87178 0.02819
C 15.97749 19.15232 0.00165
C 15.97161 17.7016 -0.02971
C 14.73033 17.01316 0.02894
C 14.76058 15.59683 -0.01789
C 15.93388 14.88756 0.00444
C 16.0092 13.4731 -0.00925
C 14.81583 12.7921 0.01877
C 18.4215 30.57081 0.05265
C 14.79101 11.32063 0.01363
C 15.9535 9.24702 0.00415
C 14.74081 8.52917 -0.0014
C 14.77928 7.14103 0.02162
C 16.00181 6.32994 0.0076
C 15.96274 4.9719 0.01241
C 14.7195 4.27574 -0.01454
C 14.70864 2.83962 0.01945
C 15.96247 2.15622 0.01416
C 15.97773 0.77748 0.03542
C 14.78954 34.01958 0.02299
C 17.21613 32.69821 0.00244
C 16.01019 10.6495 -0.02162
C 9.85456 15.64631 0.01849
C 9.77155 17.1143 0.01396
C 11.06946 17.79632 0.0127
C 3.66222 0.66075 -0.0154
C 2.41744 34.05298 -0.01299
C 4.89672 32.68206 -0.00407
C 6.20739 31.88562 0.01138
C 6.22143 30.53903 0.03278
C 4.90702 29.81027 -0.00177
C 4.99397 28.38038 0.04421
C 6.17226 27.68247 0.00088
C 6.08623 26.25971 0.00828
C 4.87887 25.6747 -0.02375
C 4.9282 24.16605 0.00558
C 3.73257 2.08254 0.00662
C 6.14105 23.46093 -0.0059
C 4.96735 21.2762 -0.02805
C 4.90003 19.83641 0.00081
C 6.20132 19.14321 0.00245
C 6.06673 17.7004 0.02728
C 4.88942 17.10443 -0.00039
C 4.86156 15.65651 0.0064
C 6.12443 14.922 0.00211
C 6.2009 13.50965 -0.00449
C 4.92862 12.69906 -0.01979
C 4.94285 11.35422 0.02784
C 6.16579 10.69154 -0.01977
C 6.14779 22.04668 -0.01386
C 6.14019 9.23223 -0.00561
C 2.43835 2.75223 0.00748
C 3.67517 4.94008 -0.00112
C 3.73095 30.55443 0.02438
C 2.46413 29.7935 -0.02419
C 2.45572 28.42396 -0.03951
C 3.69953 27.76022 -0.00141
C 3.6378 26.29285 -0.00374
C 2.51568 25.54247 -0.0213
C 2.52979 24.13813 0.01116
C 3.72914 23.47122 -0.0005
C 3.64574 21.89786 -0.00018
C 2.42677 21.27246 0.01073
C 2.41897 19.88473 0.01984
C 2.41001 4.17238 0.03345
C 3.69869 19.16005 0.00535
C 2.45409 17.08147 -0.00012
C 2.44079 15.64517 -0.04306
C 3.70926 14.84884 -0.03672
C 3.6779 13.49815 0.01913
C 2.45413 12.82396 0.00267
C 2.48266 11.39808 0.00787
C 3.66318 10.64596 0.02426
C 3.70409 9.24207 0.01218
C 2.49635 8.55035 -0.01471
C 2.44607 7.09889 -0.02827
C 3.65628 6.4328 0.01078
C 3.72351 17.75708 -0.00198
C 18.46032 2.17891 -0.02815
C 4.92107 8.55926 0.00208
C 6.19686 6.45333 0.02769
C 8.54956 9.32961 0.017
C 7.36142 8.56726 -0.03113
C 7.40142 7.13544 -0.02566
C 8.53416 6.38465 -0.00094
C 8.61016 5.00281 0.02322
C 7.40526 4.2282 -0.00725
C 7.39261 2.81391 -0.05697
C 8.59135 2.18178 0.01087
C 8.57671 0.76927 -0.01343
C 7.38657 0.01664 0.00988
C 9.76416 32.6734 0.0276
C 8.56577 10.70583 -0.00643
C 11.03968 31.92601 0.01305
C 9.8452 29.8151 0.03368
C 9.79643 28.45438 -0.02929
C 11.03654 27.7162 -0.00966
C 11.10022 26.33662 -0.03337
C 9.85213 25.53442 0.01227
C 9.85493 24.1675 0.00873
C 11.0324 23.42391 -0.00049
C 11.08076 22.01209 0.00848
C 9.82074 21.34445 -0.01303
C 9.75809 19.89035 -0.01378
C 11.02225 19.19635 0.02635
C 11.03982 30.48466 -0.00077
C 4.93714 7.16572 0.01707
C 7.33139 11.36578 0.0086
C 8.63165 13.52585 -0.00074
C 6.17889 4.93304 -0.03291
C 4.93076 4.25095 -0.04999
C 4.92285 2.85202 0.04505
C 6.18415 2.11768 0.03284
C 6.15331 0.74424 -0.04307
C 4.89068 34.05322 0.03189
C 7.36577 32.67643 0.00031
C 8.5739 31.97024 -0.003
C 8.54848 30.60681 0.01402
C 7.43342 29.82237 0.02379
C 7.39297 28.37287 0.00907
C 7.45049 12.75679 -0.00518
C 8.59591 27.72205 0.00643
C 7.36536 25.58397 0.03267
C 7.41188 24.14801 0.02374
C 8.62076 23.42967 0.00402
C 8.61101 22.0037 0.0073
C 7.36541 21.33004 0.0174
C 7.4245 19.91731 0.03828
C 8.61244 19.10936 0.01226
C 8.6215 17.72354 -0.00279
C 7.38051 17.05761 0.01996
C 7.3757 15.65851 -0.03996
C 8.62333 14.87516 0.01465
C 8.54796 26.29466 -0.01509
C 18.49733 0.68447 -0.04147
C 17.17906 34.05365 -0.05302
C 19.6383 32.68625 0.00213
C 29.47239 17.00732 0.0101
C 29.47278 15.64095 0.01705
C 30.74534 14.92189 -0.0405
C 30.75349 13.4459 -0.01303
C 29.54315 12.77314 -0.01461
C 29.52661 11.39121 -0.02155
C 30.81136 10.62409 -0.00944
C 30.73958 9.15637 -0.03735
C 29.51548 8.53006 -0.00971
C 29.55511 7.07753 0.01518
C 30.72064 6.39009 0.01908
C 30.75697 17.7041 -0.00669
C 30.73769 4.98771 0.07705
C 29.50371 2.8506 0.02108
C 30.76902 2.20023 0.00716
C 30.73847 0.71444 0.00307
C 29.54641 0.04365 0.00346
C 31.93208 32.68675 0.01713
C 33.2058 31.9604 -0.01694
C 33.20153 30.52256 0.01428
C 32.02479 29.85409 -0.02142
C 32.0232 28.39805 0.0544
C 33.18179 27.65155 0.00026
C 33.19712 26.30353 0.00682
C 29.51056 4.28002 0.0103
C 31.99259 25.6235 -0.01779
C 30.69717 19.07291 0.03531
C 29.49964 21.28566 -0.03039
C 27.05442 12.75633 0.02316
C 27.11695 11.34598 0.04185
C 28.243 10.61827 0.00194
C 28.22816 9.24263 -0.00621
C 27.03862 8.47573 0.02611
C 27.02772 7.09325 0.02198
C 28.28686 6.33867 0.01094
C 28.28468 5.02368 0.00235
C 27.07513 4.29616 0.01495
C 27.06351 2.84604 0.01259
C 28.28527 2.11339 0.01799
C 29.47399 19.83972 0.01836
C 28.22357 0.71457 0.01699
C 29.52704 32.68042 0.01177
C 30.78198 31.89211 0.04266
C 30.75435 30.50488 0.01324
C 29.46824 29.85741 0.0014
C 29.52203 28.42487 0.00924
C 30.74533 27.74085 0.02326
C 30.70282 26.28013 0.00261
C 29.47521 25.53412 0.03265
C 29.51397 24.15355 -0.02049
C 30.76912 23.44294 -0.01854
C 30.77562 22.02679 -0.01415
C 27.02657 34.0289 -0.00416
C 28.2627 13.48028 0.01257
C 31.97354 24.16785 0.03794
C 33.20515 22.07731 0.01574
C 0.00179 25.5209 -0.05239
C 34.42906 24.12447 0.03076
C 1.17872 23.43704 0.00723
C 1.21538 22.04486 0.02712
C 0.03291 21.30168 -0.02213
C 34.37019 19.82785 0.01951
C 1.1915 19.16911 -0.01678
C 1.24022 17.7551 0.01223
C 34.41922 16.97444 0.00648
C 34.39959 15.61596 0.02114
C 1.25805 14.87958 -0.02957
C 1.24809 26.25304 -0.00598
C 1.26606 13.50381 0.00343
C 34.40853 11.33787 -0.02442
C 1.24433 10.61228 -0.00027
C 1.21523 9.20887 -0.00583
C 34.38757 8.50758 -0.02302
C 0.00219 7.09675 -0.02849
C 1.26295 6.3492 0.02931
C 1.21102 4.97559 0.00628
C 34.3527 4.23908 -0.0345
C 34.37529 2.80365 -0.00931
C 1.23808 2.06034 -0.00939
C 1.2024 0.71841 -0.00468
C 0.04657 12.7532 -0.02656
C 33.23529 23.42594 0.01927
C 1.13822 27.69069 -0.00439
C 34.36563 29.7595 0.01831
C 32.0018 21.2965 -0.02383
C 31.97513 19.85925 -0.01429
C 33.23083 19.11889 -0.0136
C 33.2446 17.70201 0.00594
C 32.0189 17.02123 -0.02474
C 31.9856 15.61132 0.00369
C 33.2343 14.81918 0.00455
C 33.17984 13.43416 -0.00644
C 31.95125 12.79531 -0.01839
C 32.02595 11.29148 0.00137
C 33.26924 10.60668 0.00199
C 34.39689 28.35813 -0.01037
C 33.1909 9.21728 0.04381
C 31.98406 7.11647 0.01504
C 33.19802 6.37557 -0.00069
C 33.24079 4.98341 0.04926
C 31.94383 4.26879 -0.03838
C 31.98429 2.86891 0.00349
C 33.24059 2.11086 -0.00323
C 33.26356 0.71465 -0.00841
C 32.004 0.03682 0.0001
C 0.00458 32.69724 -0.02927
C 1.25276 31.86732 -0.01404
C 1.20443 30.52045 0.01027
C 31.99421 8.53519 0.02806
C 3.6695 32.02834 0.00297
C 28.24509 14.90499 0.00152
C 27.05155 17.06542 0.00826
C 19.67164 0.03857 -0.02957
C 22.12252 32.64493 -0.04422
C 23.39447 31.99179 0.00654
C 23.33595 30.59845 -0.00703
C 22.14536 29.78992 -0.04076
C 22.19255 28.45418 -0.00652
C 23.40986 27.68057 0.0058
C 23.41706 26.23844 -0.00865
C 22.07462 25.52381 0.00675
C 22.16621 24.16029 -0.00311
C 23.3508 23.39709 0.00742
C 21.05778 0.77519 -0.00831
C 23.32985 22.02876 -0.01594
C 22.14986 19.88229 -0.01154
C 23.36163 19.15048 -0.01721
C 23.25927 17.75595 -0.02422
C 22.04088 17.0409 0.01277
C 22.07485 15.60229 0.00096
C 23.30768 14.89214 -0.01527
C 23.3994 13.44406 0.01087
C 22.02739 12.72576 0.00199
C 22.08647 11.33987 0.01511
C 23.32532 10.67253 -0.00478
C 23.31776 9.20752 -0.01662
C 22.09407 21.32162 0.0106
C 22.13268 8.50621 -0.01185
C 20.92489 2.12979 0.00364
C 19.66532 4.27144 0.00143
C 20.90989 31.86565 -0.00066
C 20.94186 30.51402 -0.00289
C 19.68496 29.80145 0.00028
C 19.7007 28.39781 -0.02213
C 21.0071 27.76929 0.03698
C 20.90343 26.2614 -0.00109
C 19.62098 25.47758 -0.00491
C 19.65844 24.09061 0.03338
C 20.90238 23.46565 -0.0258
C 20.85441 22.03374 -0.0331
C 19.65092 21.28519 -0.00316
C 19.72943 2.87922 -0.017
C 19.71268 19.89575 0.02188
C 20.8919 17.77864 0.02691
C 19.65654 16.9954 -0.01581
C 19.6685 15.66756 0.01452
C 20.89132 14.88354 0.04892
C 20.87927 13.49191 -0.00111
C 20.85153 10.5907 -0.03557
C 20.90496 9.21193 0.03754
C 19.65651 8.48644 0.01739
C 19.68333 7.09568 0.00755
C 20.94079 6.36663 -0.0054
C 20.89524 5.02037 0.00667
C 20.96314 19.2128 -0.01979
C 27.00197 15.63051 -0.00294
C 22.16415 7.05195 0.01126
C 23.35268 4.97827 -0.00381
C 24.58768 8.56255 0.01423
C 24.61039 7.06007 -0.00285
C 25.81737 6.33798 -0.009
C 25.90114 4.96524 -0.01199
C 24.56816 4.31765 -0.00229
C 24.61126 2.87854 -0.00938
C 25.84001 2.1782 -0.0264
C 25.83573 0.70152 -0.01154
C 24.61048 34.03835 0.00684
C 27.01285 32.59736 -0.01052
C 28.34347 31.9381 -0.01679
C 25.8066 9.19561 0.02555
C 28.23913 30.56418 0.00367
C 27.03957 28.40279 0.00996
C 28.23886 27.70199 0.00195
C 28.30093 26.26301 -0.00802
C 26.99287 25.50537 -0.00218
C 27.01677 24.13948 -0.01654
C 28.27505 23.4613 -0.00037
C 28.31081 22.06331 -0.0032
C 27.03331 21.20087 0.00622
C 27.08255 19.86282 -0.02815
C 28.27928 19.21157 -0.00942
C 28.26052 17.74718 0.00487
C 27.03316 29.87898 0.04306
C 23.38722 6.34398 0.01852
C 25.84205 10.61415 0.03102
C 24.63653 12.79079 -0.00498
C 22.13232 4.25438 0.03046
C 22.15472 2.81573 0.0296
C 23.41184 2.14233 0.03374
C 23.36642 0.69448 -0.02845
C 22.15907 0.02667 -0.03213
C 24.5754 32.66583 0.02239
C 25.77431 31.97953 0.01153
C 25.77596 30.4868 0.02734
C 24.50441 29.80266 -0.0055
C 24.53405 28.40645 0.01515
C 25.79541 27.71111 -0.00225
C 24.64064 11.44306 0.00135
C 25.79896 26.27817 0.00071
C 24.61456 24.17233 -0.01586
C 25.806 23.39758 -0.01971
C 25.83606 21.93924 -0.02118
C 24.57612 21.30899 0.00733
C 24.56862 19.90621 -0.00178
C 25.86438 19.17818 0.00768
C 25.88928 17.76609 -0.0276
C 24.62909 17.07261 0.03005
C 24.56924 15.58074 -0.04078
C 25.90427 14.87778 0.02117
C 25.9051 13.43099 0.02737
C 24.66475 25.6228 -0.01107
C 2.41261 32.6066 -0.00605
