350
Graphene
C 34.42556 34.07719 0.01295
C 11.0761 0.76467 0.00798
C 9.85095 0.02214 0.00422
C 12.26103 32.72047 0.0351
C 13.52796 31.96335 -0.03113
C 13.44717 30.51833 0.02098
C 12.21886 29.84513 0.01848
C 12.22924 28.42131 -0.00619
C 13.49271 27.73778 -0.02162
C 13.54819 26.23185 0.00889
C 12.32358 25.55739 -0.00481
C 12.31388 24.18456 0.00979
C 13.38899 23.34459 0.01443
C 13.63315 4.80793 0.03505
C 12.40372 4.13154 -0.02815
C 12.34938 2.86282 -0.04147
C 13.62883 2.12234 -0.05302
C 13.52681 0.73739 0.00213
C 11.04152 2.15262 0.00228
C 9.83002 2.80325 -0.00114
C 9.87641 4.27317 -0.02696
C 11.12843 4.95702 -0.00368
C 8.56552 2.12086 0.01241
C 8.59864 0.78293 -0.01454
C 7.37903 0.0548 0.01945
C 9.81563 32.65561 0.01416
C 11.08028 31.97636 0.03542
C 11.05015 30.55617 0.02299
C 9.79803 29.94962 0.00244
C 9.85479 28.51119 -0.01717
C 12.30287 0.05566 -0.00066
C 11.05539 27.69932 0.05265
C 9.77835 25.58591 -0.02813
C 9.79382 24.13751 0.00374
C 11.03341 23.50551 0.00052
C 11.07932 22.03267 -0.03682
C 9.89617 21.36403 0.01965
C 9.84406 19.98893 0.02058
C 9.84446 7.03466 -0.01957
C 10.87959 6.29616 -0.0108
C 11.00583 26.26195 -0.01952
C 14.75406 32.69841 -0.00289
C 15.93169 31.99594 0.00028
C 15.88141 30.5671 -0.02213
C 17.95719 4.40283 0.00364
C 17.31702 2.98753 -0.00831
C 18.36955 2.00347 -0.02957
C 18.36071 0.6796 -0.04422
C 17.17359 34.05298 0.00654
C 19.62367 32.6315 -0.00703
C 20.79431 31.92943 -0.04076
C 20.78552 30.57722 -0.00652
C 18.53097 23.44239 -0.017
C 19.52849 29.81484 0.0058
C 20.81376 27.6791 0.00675
C 20.84855 26.25731 -0.00311
C 19.62944 25.62848 0.00742
C 19.66761 24.16385 -0.01594
C 20.90855 23.49977 0.0106
C 21.06671 22.02343 -0.01154
C 20.66006 4.89575 -0.01721
C 19.22404 4.21057 -0.02422
C 19.59458 28.34751 -0.00865
C 7.32392 2.89906 0.0076
C 17.25043 24.08363 0.00143
C 18.34301 26.27205 -0.0054
C 14.66929 29.78337 0.03698
C 14.76671 28.38134 -0.00109
C 15.97131 27.54281 -0.00491
C 15.95815 26.11952 0.03338
C 14.70778 25.46151 -0.0258
C 14.7023 23.95413 -0.0331
C 16.0254 23.51521 -0.00316
C 14.72964 4.22662 0.02188
C 17.21267 25.50519 0.00667
C 14.85852 2.86183 -0.01979
C 16.02809 0.81168 -0.01581
C 14.76693 0.08874 0.01452
C 17.19709 32.67371 0.04892
C 18.3672 31.93002 -0.00111
C 18.37663 30.57671 -0.03557
C 17.09895 29.78428 0.03754
C 17.15385 28.34582 0.01739
C 18.38278 27.64189 0.00755
C 16.09842 2.18914 0.02691
C 7.40757 4.35161 0.02162
C 8.698 5.02948 -0.0014
C 8.58495 6.40767 0.00415
C 2.51076 7.15293 -0.04848
C 3.73378 6.42231 -0.00892
C 3.70426 5.01831 -0.01362
C 2.4579 4.3252 -0.0008
C 2.42949 2.93216 0.0288
C 3.6487 2.12896 0.00393
C 3.63431 0.77778 0.00895
C 2.38973 0.03884 0.00685
C 2.55588 8.52164 0.01572
C 4.86188 32.74339 0.02888
C 6.13004 30.64059 -0.01384
C 4.93025 29.88625 0.03693
C 4.89036 28.40559 0.01745
C 6.04065 27.73184 0.00488
C 6.12914 26.32613 -0.01004
C 4.87943 25.58755 -0.02896
C 4.8663 24.15613 -0.00131
C 6.06125 23.45098 -0.01118
C 6.13662 31.97207 -0.00482
C 6.10003 22.03003 -0.014
C 3.77566 9.29972 -0.00095
C 2.48721 11.35838 0.00054
C 3.60984 30.56846 -0.00077
C 2.3456 29.89437 0.03368
C 2.37993 28.41526 -0.02929
C 3.61082 27.71203 -0.00966
C 3.62278 26.32169 -0.03337
C 2.43216 25.59738 0.01227
C 2.36355 24.1509 0.00873
C 3.59418 23.46866 -0.00049
C 3.82169 10.69573 0.03007
C 3.62869 22.05679 0.00848
C 2.42768 19.88614 -0.01378
C 3.63293 19.19387 0.02635
C 3.55648 17.67887 0.0127
C 2.31118 17.02644 0.01396
C 2.36831 15.60655 0.01849
C 3.6956 14.92368 -0.01142
C 3.77394 13.46103 -0.00562
C 2.5564 12.79 -0.00494
C 2.38166 21.23659 -0.01303
C 19.53672 2.78216 0.01277
C 4.82222 21.35304 0.02147
C 6.10346 19.19402 -0.00191
C 7.30343 28.53246 0.00985
C 8.57063 27.7685 -0.02245
C 8.62232 26.32487 -0.00428
C 7.36722 25.59238 0.03101
C 7.37076 24.13038 -0.01536
C 8.63262 23.47725 -0.02689
C 8.64663 22.09703 -0.01046
C 7.39694 21.41393 -0.00891
C 7.35226 29.88869 -0.01275
C 7.33399 19.99117 0.02819
C 8.55464 17.84465 -0.02971
C 7.39907 17.07163 0.02894
C 7.31172 15.56324 -0.01789
C 7.46323 12.61265 0.00444
C 7.4955 11.37042 -0.00925
C 8.71761 9.52445 0.01877
C 7.50187 8.56001 0.01363
C 7.35015 7.19325 -0.02162
C 8.51435 19.25726 0.00165
C 4.83066 19.85355 0.00373
C 8.54642 30.60661 -0.01111
C 7.34912 32.72044 0.00943
C 6.1032 17.76145 0.00438
C 4.88193 16.98688 0.01291
C 4.89398 15.63857 0.00093
C 6.15419 14.93918 0.00057
C 6.27888 13.52812 -0.01634
C 5.03865 12.77348 -0.00334
C 5.04566 11.36447 0.02339
C 6.24336 10.59894 0.01641
C 8.56588 31.97447 0.02841
C 6.14594 9.20978 -0.00719
C 5.04132 7.10418 -0.01062
C 6.21893 6.47653 -0.00033
C 6.16904 5.01398 0.03589
C 4.90723 4.25516 -0.02759
C 4.85029 2.83357 0.0402
C 6.1181 2.1794 0.00572
C 6.19419 0.73706 0.03592
C 4.84252 0.05852 0.00406
C 5.00163 8.56518 0.01364
C 20.85544 2.16942 0.00096
C 20.88441 0.72966 -0.01527
C 19.6334 0.05832 0.01087
C 33.19015 31.95551 -0.01694
C 33.17923 30.52341 0.01428
C 31.93955 29.83347 -0.02142
C 31.88691 28.47134 0.0544
C 33.17883 27.71527 0.00026
C 33.15019 26.25471 0.00682
C 31.86802 25.60058 -0.01779
C 31.87377 24.0992 0.03794
C 32.04439 32.68305 0.01713
C 33.13246 23.40799 0.01927
C 31.87644 21.34208 -0.02383
C 31.87018 19.92065 -0.01429
C 33.09197 19.10323 -0.0136
C 33.16543 17.75551 0.00594
C 31.90823 17.0982 -0.02474
C 32.019 15.72113 0.00369
C 33.21904 14.94219 0.00455
C 33.17407 13.54951 -0.00644
C 33.14766 22.04063 0.01574
C 32.00425 12.72385 -0.01839
C 29.4943 0.0049 0.00346
C 30.77191 2.16807 0.00716
C 29.43478 21.35452 -0.03039
C 29.4226 19.94894 0.01836
C 30.69869 19.25617 0.03531
C 30.69866 17.82613 -0.00669
C 29.50646 17.11022 0.0101
C 29.61654 15.66929 0.01705
C 30.84236 14.93194 -0.0405
C 30.8002 13.44747 -0.01303
C 30.76613 0.70933 0.00307
C 29.56283 12.71419 -0.01461
C 30.74304 10.61221 -0.00944
C 30.80053 9.16645 -0.03735
C 29.52816 8.53696 -0.00971
C 29.51066 7.0543 0.01518
C 30.76643 6.32703 0.01908
C 30.73484 4.92264 0.07705
C 29.5573 4.25162 0.0103
C 29.48913 2.68565 0.02108
C 29.50609 11.30883 -0.02155
C 30.7054 22.06636 -0.01415
C 32.01945 11.29108 0.00137
C 33.28013 9.2451 0.04381
C 1.1237 19.20978 -0.01678
C 1.15026 17.74044 0.01223
C 34.35268 17.02359 0.00648
C 34.40528 15.60669 0.02114
C 1.15946 14.91226 -0.02957
C 1.23846 13.50031 0.00343
C 0.03171 12.84754 -0.02656
C 0.12193 11.31675 -0.02442
C 34.33373 19.85437 0.01951
C 1.2902 10.62305 -0.00027
C 0.02437 8.49464 -0.02302
C 0.01802 7.05035 -0.02849
C 1.27695 6.45382 0.02931
C 1.26497 5.04668 0.00628
C 34.40975 4.31991 -0.0345
C 34.40336 2.86643 -0.00931
C 1.20154 2.18686 -0.00939
C 1.16108 0.75113 -0.00468
C 1.255 9.23137 -0.00583
C 33.29868 10.6855 0.00199
C 34.34886 21.26803 -0.02213
C 1.08944 23.42497 0.00723
C 32.05502 8.53851 0.02806
C 32.05147 7.06931 0.01504
C 33.26621 6.41382 -0.00069
C 33.2244 4.9883 0.04926
C 31.97195 4.24213 -0.03838
C 31.95145 2.85985 0.00349
C 33.20117 2.15749 -0.00323
C 33.21846 0.74706 -0.00841
C 1.14691 21.86562 0.02712
C 31.98675 34.03676 0.0001
C 1.17937 31.99575 -0.01404
C 1.17458 30.62718 0.01027
C 34.35378 29.83009 0.01831
C 34.32777 28.45208 -0.01037
C 1.16211 27.73158 -0.00439
C 1.10372 26.28291 -0.00598
C 34.34 25.56812 -0.05239
C 34.37484 24.19118 0.03076
C 34.38489 32.69523 -0.02927
C 3.65967 31.9278 0.01305
C 30.64571 23.47335 -0.01854
C 29.4843 25.63466 0.03265
C 24.57477 29.81237 -0.01971
C 24.48807 28.44943 -0.02118
C 25.75341 27.67771 0.00733
C 25.79693 26.3112 -0.00178
C 24.58304 25.56164 0.00768
C 24.59389 24.14181 -0.0276
C 25.80697 23.45732 0.03005
C 25.81944 22.03893 -0.04078
C 25.8412 30.4795 -0.01586
C 24.65929 21.34568 0.02117
C 25.73994 19.19706 -0.00498
C 25.82608 17.80099 0.00135
C 25.98664 10.57882 0.03102
C 25.886 9.2533 0.02555
C 24.60193 8.54948 0.01423
C 24.52825 7.10259 -0.00285
C 25.70416 6.33506 -0.009
C 25.72976 4.87473 -0.01199
C 24.52786 19.98288 0.02737
C 24.60289 4.09954 -0.00229
C 25.74939 31.92097 -0.01107
C 22.02398 34.04984 -0.00225
C 21.99208 32.63916 0.00199
C 23.28984 31.89315 0.01511
C 23.3313 30.4432 -0.00478
C 22.06849 29.8385 -0.01662
C 22.06856 28.36729 -0.01185
C 23.27194 27.67013 0.01126
C 23.36974 26.28175 0.01852
C 22.03725 25.58223 -0.00381
C 24.49801 32.60144 0.00071
C 22.09629 24.18285 0.03046
C 23.43095 22.03625 0.03374
C 22.11709 21.45833 -0.02845
C 23.3517 6.28597 -0.03213
C 23.36305 4.86204 0.02239
C 21.9965 4.22137 0.01153
C 22.04701 2.78841 0.02734
C 23.34747 2.01841 -0.0055
C 23.27841 0.68785 0.01515
C 23.37214 23.43742 0.0296
C 29.48615 24.26329 -0.02049
C 24.53037 2.67519 -0.00938
C 25.72676 0.58188 -0.01154
C 28.2384 10.70895 0.00194
C 28.26219 9.27446 -0.00621
C 27.10935 8.46894 0.02611
C 27.04176 7.07511 0.02198
C 28.27618 6.3229 0.01094
C 28.25601 4.87174 0.00235
C 27.00159 4.16342 0.01495
C 26.96554 2.76738 0.01259
C 27.03143 11.51395 0.04185
C 28.25254 2.07569 0.01799
C 27.01986 33.96588 -0.00416
C 29.55423 32.62271 0.01177
C 30.74486 31.96553 0.04266
C 30.75644 30.52703 0.01324
C 29.46195 29.83879 0.0014
C 29.47328 28.43123 0.00924
C 30.69519 27.76027 0.02326
C 30.72817 26.35348 0.00261
C 28.27482 0.6837 0.01699
C 25.86649 2.05254 -0.0264
C 27.17685 12.92883 0.02316
C 28.38814 14.98366 0.00152
C 24.5542 34.05252 0.00684
C 27.03674 32.59606 -0.01052
C 28.27178 31.94262 -0.01679
C 28.2637 30.5599 0.00367
C 27.03486 29.79278 0.04306
C 26.99949 28.40122 0.00996
C 28.19267 27.73453 0.00195
C 28.2542 26.3166 -0.00802
C 28.32593 13.54762 0.01257
C 27.04845 25.61139 -0.00218
C 28.28675 23.47417 -0.00037
C 28.23015 22.0897 -0.0032
C 27.0411 21.33266 0.00622
C 26.94027 19.93765 -0.02815
C 28.07857 19.22353 -0.00942
C 28.23164 17.89127 0.00487
C 27.02024 17.02583 0.00826
C 27.1435 15.5303 -0.00294
C 27.01557 24.17223 -0.01654
C 2.45288 32.65814 0.0276
