305
Graphene
C 0.01287 0.01468 0.01295
C 18.54416 19.14969 -0.01581
C 18.41418 0.69497 0.01452
C 17.22253 0.35209 0.04892
C 19.75205 32.70507 -0.00111
C 20.95273 31.95157 -0.03557
C 20.87516 30.49319 0.03754
C 19.65045 29.63203 0.01739
C 19.66091 28.39695 0.00755
C 20.80099 27.60753 -0.0054
C 20.88147 26.20262 0.00667
C 19.61337 25.57924 0.00143
C 19.69394 24.10099 -0.017
C 20.93666 23.3543 0.00364
C 20.94839 21.9746 -0.00831
C 19.71316 21.32437 -0.02957
C 17.26389 19.64589 0.02691
C 19.72623 19.83359 -0.04422
C 17.18036 21.24088 -0.01979
C 18.51925 23.35489 -0.00316
C 13.4455 19.1847 0.03505
C 13.57304 0.60059 -0.02815
C 12.3083 34.04028 -0.04147
C 14.69807 25.63113 -0.05302
C 14.72158 24.26859 0.00213
C 15.96904 23.54458 -0.00066
C 16.02072 22.06168 -0.00289
C 14.74483 21.33862 0.00028
C 14.75083 19.80166 -0.02213
C 15.97741 19.26895 0.03698
C 15.99315 0.35685 -0.00109
C 14.73934 0.36103 -0.00491
C 18.39531 26.33075 0.03338
C 17.35037 25.69967 -0.0258
C 17.20189 24.27141 -0.0331
C 18.40768 21.94507 0.02188
C 12.41104 19.95005 0.01443
C 20.95479 19.11148 0.00654
C 21.11235 2.00238 -0.04076
C 23.18233 14.83184 -0.01185
C 23.42581 13.49949 0.01126
C 23.49684 10.46875 0.01852
C 23.26411 9.25718 -0.00381
C 23.43275 6.33569 0.03046
C 23.42853 4.9619 0.0296
C 22.2492 4.34141 0.03374
C 22.06973 2.99974 -0.02845
C 23.35773 2.21852 -0.03213
C 23.33111 0.69556 0.02239
C 22.16948 34.03528 0.01153
C 24.58886 32.65846 0.02734
C 25.82031 31.94811 -0.0055
C 25.79009 30.54943 0.01515
C 24.58248 29.80697 -0.00225
C 22.15774 15.73867 -0.01662
C 20.94437 17.79991 -0.00703
C 22.1347 17.07718 -0.00478
C 23.42318 19.17954 0.00199
C 20.9539 0.70657 -0.00652
C 19.67725 34.0439 0.0058
C 22.16968 32.65116 -0.00865
C 23.33688 31.85871 0.00675
C 23.32209 30.48624 -0.00311
C 22.0972 29.71923 0.00742
C 22.05189 28.34489 -0.01594
C 23.35406 27.68149 0.0106
C 23.30972 26.27374 -0.01154
C 22.10686 25.58359 -0.01721
C 22.12488 24.19715 -0.02422
C 23.30567 23.53545 0.01277
C 23.36007 22.08184 0.00096
C 22.18893 21.23284 -0.01527
C 22.1883 19.85021 0.01087
C 23.43497 17.77891 0.01511
C 12.23147 21.32097 0.00979
C 13.59858 22.04936 -0.00481
C 13.49204 23.49453 0.00889
C 3.6727 0.69104 -0.01111
C 2.48418 33.98195 -0.01275
C 4.89824 32.66559 0.00985
C 6.14626 31.96418 -0.02245
C 6.15225 30.54271 -0.00428
C 4.91065 29.82671 0.03101
C 4.90588 28.45063 -0.01536
C 6.1096 27.73617 -0.02689
C 6.10884 26.24839 -0.01046
C 4.87971 25.55176 -0.00891
C 4.93433 24.02655 0.02819
C 6.21719 23.45864 0.00165
C 4.87931 11.18099 -0.02971
C 4.78021 8.46875 0.02894
C 5.02506 7.11427 -0.01789
C 3.69084 2.07453 0.02841
C 6.11208 6.29757 0.00444
C 2.50578 2.90364 0.00943
C 3.66195 5.06449 0.03592
C 3.66008 30.47177 0.01291
C 2.39137 29.82995 0.00093
C 2.42791 28.42093 0.00057
C 3.66569 27.69061 -0.01634
C 3.66792 26.25436 -0.00334
C 2.4329 25.5746 0.02339
C 2.41347 24.16788 0.01641
C 3.56224 23.50683 -0.00719
C 2.39189 12.80895 0.01364
C 2.45539 11.45207 -0.01062
C 3.73102 10.67439 -0.00033
C 3.71137 9.20448 0.03589
C 2.44273 8.58142 -0.02759
C 2.36995 7.16037 0.0402
C 3.64269 6.49592 0.00572
C 2.45628 4.31093 0.00406
C 6.20663 4.9403 -0.00925
C 4.80404 4.28972 0.01877
C 4.82746 2.86106 0.01363
C 11.1364 30.46163 0.02058
C 9.93739 29.7926 -0.01957
C 9.88621 28.3709 -0.0108
C 11.1278 27.66363 -0.00368
C 11.019 26.33631 -0.02696
C 9.74029 25.69142 -0.00114
C 9.84711 24.19774 0.00228
C 11.03324 23.49438 0.00798
C 11.11525 22.07514 0.00422
C 11.07536 0.64759 0.0351
C 9.90578 34.06055 -0.03113
C 12.14778 32.68941 0.02098
C 13.5268 26.18013 0.01848
C 12.23416 25.59329 -0.00619
C 12.26949 24.13697 -0.02162
C 11.05998 31.87292 0.01965
C 9.74511 32.57921 -0.03682
C 7.39699 0.0145 0.00052
C 8.6581 0.64565 0.00374
C 6.07153 2.16447 -0.02162
C 6.19505 0.74354 0.00415
C 4.91806 0.00223 -0.0014
C 7.37238 32.66704 0.02162
C 8.55694 31.92521 0.0076
C 8.63395 30.49551 0.01241
C 7.33387 29.8713 -0.01454
C 24.62151 28.34905 0.00071
C 7.31953 28.42231 0.01945
C 8.54928 26.35111 0.03542
C 7.31714 25.59031 0.02299
C 7.45661 24.01223 0.00244
C 8.73839 23.46052 -0.01717
C 7.38738 4.24401 0.05265
C 7.4755 2.78783 -0.01952
C 8.55547 1.94925 -0.02813
C 8.58033 27.74007 0.01416
C 3.66563 31.88983 0.00438
C 25.84389 27.67227 -0.01107
C 24.55805 25.59123 -0.01971
C 31.98461 24.16579 0.01574
C 33.16579 23.42088 -0.02383
C 33.18443 21.99603 -0.01429
C 31.95607 21.33051 -0.0136
C 32.00325 19.92576 0.00594
C 33.23254 19.14986 -0.02474
C 33.30397 17.75362 0.00369
C 32.02871 17.07031 0.00455
C 31.91596 15.66717 -0.00644
C 33.1528 14.8706 -0.01839
C 33.22693 13.54724 0.00137
C 32.02684 12.83458 0.00199
C 31.98025 11.41972 0.04381
C 33.16183 10.76379 0.02806
C 33.20583 9.30512 0.01504
C 31.88159 25.58395 0.01927
C 31.96549 8.55194 -0.00069
C 33.10979 26.29609 0.03794
C 31.94434 28.4301 0.00682
C 30.76109 10.66167 -0.00971
C 30.7306 9.25492 0.01518
C 29.44887 8.58094 0.01908
C 29.47741 7.17456 0.07705
C 30.67445 6.42909 0.0103
C 30.64276 4.94928 0.02108
C 29.41849 4.25939 0.00716
C 29.46721 2.80413 0.00307
C 30.72188 2.14333 0.00346
C 30.71422 0.69584 0.01713
C 29.43983 0.02414 -0.01694
C 32.0565 32.64475 0.01428
C 33.26713 31.92732 -0.02142
C 33.16453 30.47527 0.0544
C 31.90474 29.84527 0.00026
C 33.15317 27.72809 -0.01779
C 29.49742 11.27672 -0.03735
C 31.92453 7.1346 0.04926
C 33.11322 4.97794 0.00349
C 34.42202 15.58599 0.02114
C 1.18791 14.96833 -0.02957
C 1.271 13.58913 0.00343
C 0.012 12.82562 -0.02656
C 0.05046 11.38437 -0.02442
C 1.25188 10.67684 -0.00027
C 1.23995 9.29989 -0.00583
C 0.01127 8.61713 -0.02302
C 34.42528 7.1534 -0.02849
C 1.19775 6.41345 0.02931
C 1.18913 4.98417 0.00628
C 34.35027 4.33741 -0.0345
C 34.40328 2.88226 -0.00931
C 1.2373 2.14068 -0.00939
C 1.23912 0.71552 -0.00468
C 0.05356 16.98604 0.00648
C 33.13655 6.45934 -0.03838
C 34.3336 19.93296 0.01223
C 1.23604 22.12212 0.01951
C 31.88692 4.26055 -0.00323
C 31.9477 2.86302 -0.00841
C 33.18212 2.1688 0.0001
C 33.24622 0.75948 -0.02927
C 31.9912 0.02073 -0.01404
C 0.03908 32.65992 0.01027
C 1.29477 31.98512 0.01831
C 1.20637 30.53273 -0.01037
C 34.42706 29.84066 -0.00439
C 34.42321 28.34636 -0.00598
C 1.22669 27.61389 -0.05239
C 1.18612 26.24536 0.03076
C 34.30748 25.55466 0.00723
C 34.38962 24.15275 0.02712
C 1.18852 23.47822 -0.02213
C 0.07496 21.26887 -0.01678
C 29.55921 12.80082 -0.00944
C 30.75514 13.53343 -0.02155
C 30.71759 14.92656 -0.01461
C 24.74261 4.19062 -0.0264
C 24.59228 2.79847 -0.01154
C 25.82012 2.02492 0.00684
C 25.8 0.67184 -0.01052
C 24.5139 34.07285 -0.01679
C 27.06489 32.58652 0.00367
C 28.3069 31.95672 0.04306
C 28.30687 30.60063 0.00996
C 27.03454 29.88221 0.00195
C 27.03632 28.45735 -0.00802
C 28.25699 27.76722 -0.00218
C 28.26182 26.35908 -0.01654
C 27.0552 25.54794 -0.00037
C 27.02496 24.06324 -0.0032
C 28.3322 23.44068 0.00622
C 25.8097 5.00949 -0.00938
C 28.25532 22.02508 -0.02815
C 25.85236 6.41258 -0.00229
C 24.47159 8.50829 -0.009
C 24.58709 24.18499 -0.02118
C 25.7948 23.3648 0.00733
C 25.75363 21.96839 -0.00178
C 24.56097 21.28723 0.00768
C 24.59029 19.85202 -0.0276
C 25.81135 19.10115 0.03005
C 25.76956 17.70662 -0.04078
C 24.54798 16.96793 0.02117
C 24.51178 15.55246 0.02737
C 25.74622 14.92455 -0.00498
C 25.86627 13.49245 0.00135
C 24.5913 12.83282 0.03102
C 24.55582 11.38366 0.02555
C 25.76898 10.60169 0.01423
C 25.74001 9.20914 -0.00285
C 24.48997 7.15668 -0.01199
C 27.00554 21.24012 -0.00942
C 27.05202 19.81986 0.00487
C 28.30723 19.12776 0.00826
C 30.70612 30.62828 0.00924
C 29.4718 29.93623 0.02326
C 29.55613 28.49763 0.00261
C 30.71579 27.7439 0.03265
C 30.68789 26.36263 -0.02049
C 29.44591 25.6007 -0.01854
C 29.56625 24.17034 -0.01415
C 30.73007 23.41229 -0.03039
C 30.69145 22.02487 0.01836
C 29.46707 21.28987 0.03531
C 29.46763 19.90306 -0.00669
C 30.75896 19.21619 0.0101
C 30.7788 17.74978 0.01705
C 29.4707 16.99058 -0.0405
C 29.46755 15.59031 -0.01303
C 30.79834 32.03359 0.0014
C 29.55129 32.70535 0.01324
C 26.97915 33.9992 0.04266
C 28.20655 0.63036 0.01177
C 28.30159 17.69136 -0.00294
C 27.01333 17.05299 0.00152
C 27.02865 15.57267 0.01257
C 28.28262 14.8743 0.02316
C 28.34075 13.45211 0.04185
C 27.07052 12.79983 0.00194
C 27.01676 11.3634 -0.00621
C 25.81582 26.25065 -0.01586
C 28.21394 10.66308 0.02611
C 26.97908 8.51236 0.01094
C 27.05867 7.09397 0.00235
C 28.31878 6.42574 0.01495
C 28.21216 4.95429 0.01259
C 27.02413 4.25024 0.01799
C 27.01339 2.8226 0.01699
C 28.22653 2.0763 -0.00416
C 28.20838 9.26106 0.02198
C 2.49227 32.60566 -0.00191
