324
Graphene
C 34.42691 0.00639 0.01295
C 9.80007 11.32575 -0.00066
C 11.0995 10.61345 -0.00289
C 11.04006 9.23482 0.00028
C 9.76645 8.53022 -0.02213
C 9.77145 7.07263 0.03698
C 11.07615 6.32396 -0.00109
C 11.15184 4.94381 -0.00491
C 9.82881 12.81799 0.00213
C 9.91996 4.2927 0.03338
C 11.10665 2.09364 -0.0331
C 10.99053 0.7245 -0.00316
C 9.85236 34.07404 0.02188
C 13.48786 21.70487 -0.01979
C 12.12159 21.32783 0.02691
C 12.14547 19.80947 -0.01581
C 13.52049 19.21958 0.01452
C 9.88658 2.90602 -0.0258
C 13.59109 17.75985 0.04892
C 11.04039 13.57039 -0.05302
C 9.8621 15.60018 -0.02815
C 7.32003 8.49552 -0.02696
C 7.31266 7.07756 -0.00114
C 8.58388 6.33893 0.00228
C 8.65685 4.83839 0.00798
C 7.34325 4.24439 0.00422
C 7.35841 2.85723 0.0351
C 8.62515 2.135 -0.03113
C 11.11614 14.97316 -0.04147
C 8.61027 0.71528 0.02098
C 9.73813 32.6232 -0.00619
C 11.00365 21.97199 -0.02162
C 9.7621 21.27587 0.00889
C 9.76073 19.84086 -0.00481
C 10.97105 19.03939 0.00979
C 11.01135 17.6542 0.01443
C 9.77224 17.05871 0.03505
C 7.40156 34.01227 0.01848
C 12.40202 16.99325 -0.00111
C 12.33911 15.58782 -0.03557
C 12.05085 12.5549 0.03754
C 16.0526 0.75922 -0.01154
C 14.86819 0.00387 -0.01721
C 17.11583 32.70284 -0.02422
C 18.31286 31.97675 0.01277
C 18.41112 30.59819 0.00096
C 18.3714 27.58035 -0.01527
C 18.43354 26.22671 0.01087
C 15.95594 2.1102 0.0106
C 17.28851 24.3872 0.00199
C 18.53324 21.95145 -0.00478
C 17.34005 21.39862 -0.01662
C 17.14294 4.2395 -0.01185
C 17.17095 2.82375 0.01126
C 18.37153 2.11147 0.01852
C 18.41714 0.7254 -0.00381
C 17.16023 34.06319 0.03046
C 18.52473 23.51407 0.01511
C 14.77456 2.81306 -0.01594
C 14.83941 4.29089 0.00742
C 15.99833 5.06779 -0.00311
C 12.2853 11.2868 0.01739
C 13.59123 9.20808 0.00755
C 12.29361 8.61562 -0.0054
C 12.25688 7.15 0.00667
C 13.51091 6.31908 0.00143
C 13.66303 4.90714 -0.017
C 12.42137 4.23478 0.00364
C 12.42325 2.77054 -0.00831
C 13.58081 2.00676 -0.02957
C 13.54921 0.44474 -0.04422
C 12.24732 0.06881 0.00654
C 16.3432 23.47123 -0.00703
C 16.06973 22.10597 -0.04076
C 14.78585 21.42626 -0.00652
C 14.56489 20.13215 0.0058
C 14.75352 6.97976 -0.00865
C 15.77465 6.42655 0.00675
C 8.53575 9.13378 -0.00368
C 19.64006 32.64984 0.0296
C 8.53238 10.61135 -0.0108
C 7.33624 12.74438 0.02058
C 3.60972 9.20193 0.00093
C 2.34644 8.51256 0.00057
C 2.36547 7.1281 -0.01634
C 3.65276 6.33537 -0.00334
C 3.65302 4.93807 0.02339
C 2.34434 4.26934 0.01641
C 2.41377 2.83805 -0.00719
C 3.54072 10.66222 0.01291
C 3.66222 2.09983 0.01364
C 2.43513 0.02883 -0.00033
C 4.96784 32.66081 0.03589
C 6.157 31.8252 -0.02759
C 6.08464 30.41543 0.0402
C 4.77692 29.89557 0.00572
C 4.69667 28.54912 0.03592
C 6.26493 27.96293 0.00406
C 3.68539 0.71815 -0.01062
C 6.49471 26.57116 0.00943
C 2.37964 11.38982 0.00438
C 3.63706 13.47926 0.00373
C 3.66702 30.62729 0.0288
C 2.44234 29.95633 0.00393
C 2.43892 28.48261 0.00895
C 3.59862 27.8583 0.00685
C 3.70483 26.35577 0.02888
C 2.43538 25.71012 -0.00482
C 2.4695 24.21938 -0.01384
C 2.41456 12.83674 -0.00191
C 3.70577 23.56314 0.03693
C 2.45766 21.48081 0.00488
C 2.43621 20.00576 -0.01004
C 3.647 19.20993 -0.02896
C 3.62571 17.75123 -0.00131
C 2.36294 17.08373 -0.01118
C 2.35847 15.70304 -0.014
C 3.61582 14.91892 0.02147
C 3.70704 22.082 0.01745
C 4.95184 25.76584 0.02841
C 4.9468 24.24905 -0.01111
C 6.14574 23.54861 -0.01275
C 4.88574 34.00921 0.0076
C 7.3232 32.62047 0.01241
C 8.75464 31.96087 -0.01454
C 6.8702 29.12627 0.01945
C 7.40761 25.66787 0.01416
C 7.58038 24.35818 0.03542
C 8.66022 23.49434 0.02299
C 6.13523 0.68285 0.02162
C 8.55613 22.0454 0.00244
C 7.40324 19.89205 0.05265
C 8.58122 19.09086 -0.01952
C 8.54062 17.69332 -0.02813
C 7.32268 17.06479 0.00374
C 7.34563 15.58554 0.00052
C 8.64722 14.91998 -0.03682
C 8.61805 13.52159 0.01965
C 7.4013 21.38568 -0.01717
C 6.15949 2.117 -0.0014
C 4.86528 2.86227 0.00415
C 4.87501 4.20776 -0.02162
C 6.13149 22.11096 0.00985
C 4.91927 21.32615 -0.02245
C 4.89273 19.8776 -0.00428
C 6.16313 19.21104 0.03101
C 6.07962 17.74144 -0.01536
C 4.8946 16.9824 -0.02689
C 4.9455 15.67768 -0.01046
C 6.17891 14.92489 -0.00891
C 6.0964 13.50533 0.02819
C 4.85334 12.84125 0.00165
C 4.82758 11.41217 -0.02971
C 6.09716 10.62169 0.02894
C 6.09274 9.20985 -0.01789
C 4.8398 8.50538 0.00444
C 4.83921 7.0642 -0.00925
C 6.07742 6.3576 0.01877
C 6.16241 4.92155 0.01363
C 7.31778 11.34102 -0.01957
C 20.8761 31.9508 0.03374
C 20.85383 30.5463 -0.02845
C 19.6284 29.79683 -0.03213
C 33.12831 26.23776 0.00682
C 31.90053 25.55788 -0.01779
C 31.8948 24.17112 0.03794
C 33.18332 23.48386 0.01927
C 33.14507 22.04695 0.01574
C 31.97691 21.28063 -0.02383
C 32.06811 19.86822 -0.01429
C 33.15284 27.69357 0.00026
C 33.27046 19.22436 -0.0136
C 31.94051 17.12361 -0.02474
C 31.8487 15.72496 0.00369
C 33.12109 15.01637 0.00455
C 33.14328 13.52699 -0.00644
C 31.85412 12.87776 -0.01839
C 31.78711 11.46358 0.00137
C 33.04883 10.6575 0.00199
C 33.24327 17.83177 0.00594
C 33.06222 9.25572 0.04381
C 31.91393 28.38949 0.0544
C 33.19661 30.50154 0.01428
C 29.28954 17.33966 -0.01303
C 30.69134 15.04604 -0.01461
C 30.83339 13.73981 -0.02155
C 30.65604 10.70925 -0.00944
C 30.49355 9.39555 -0.03735
C 29.42965 8.47054 -0.00971
C 29.31603 7.10103 0.01518
C 31.90887 29.82768 -0.02142
C 30.64316 6.35632 0.01908
C 29.37707 4.17801 0.0103
C 29.56514 2.8208 0.02108
C 30.77356 2.01351 0.00716
C 30.67133 0.60511 0.00307
C 29.413 34.01549 0.00346
C 31.87063 32.6535 0.01713
C 33.19482 31.93555 -0.01694
C 30.65674 4.99832 0.07705
C 31.78151 8.57874 0.02806
C 31.74451 7.17329 0.01504
C 33.04434 6.44896 -0.00069
C 0.03905 17.13771 0.00648
C 34.34082 15.73517 0.02114
C 1.16732 14.9574 -0.02957
C 1.16234 13.55662 0.00343
C 34.36413 12.77751 -0.02656
C 34.28184 11.35559 -0.02442
C 1.08538 10.67728 -0.00027
C 1.21354 17.86875 0.01223
C 1.12649 9.22196 -0.00583
C 34.30294 7.1036 -0.02849
C 1.0929 6.38812 0.02931
C 1.08367 4.99953 0.00628
C 34.31162 4.26527 -0.0345
C 34.34716 2.82895 -0.00931
C 1.17949 2.08158 -0.00939
C 1.24197 0.65235 -0.00468
C 34.31885 8.54935 -0.02302
C 1.28571 19.22097 -0.01678
C 0.08101 19.96326 0.01951
C 34.40032 21.41386 -0.02213
C 33.07183 5.02591 0.04926
C 31.8651 4.22275 -0.03838
C 31.96963 2.87657 0.00349
C 33.12074 2.1227 -0.00323
C 33.14925 0.70117 -0.00841
C 31.91044 0.007 0.0001
C 34.39414 32.67537 -0.02927
C 1.22951 32.01618 -0.01404
C 1.25602 30.6284 0.01027
C 0.01979 29.84899 0.01831
C 34.42911 28.42966 -0.01037
C 1.22413 27.7293 -0.00439
C 1.17891 26.31025 -0.00598
C 34.38365 25.6083 -0.05239
C 34.42512 24.19636 0.03076
C 1.24987 23.54065 0.00723
C 1.26575 22.10839 0.02712
C 30.68673 17.80087 -0.0405
C 30.81497 19.22299 0.01705
C 29.55568 19.91114 0.0101
C 29.47653 21.29272 -0.00669
C 22.05788 24.25052 0.03102
C 23.20368 23.47986 0.02555
C 23.2415 22.06376 0.01423
C 22.11323 2.81721 -0.00285
C 23.31599 2.15369 -0.009
C 23.30675 0.71127 -0.01199
C 22.05736 0.08365 -0.00229
C 22.08099 25.58778 0.00135
C 24.54226 32.65319 -0.00938
C 25.81776 30.43086 -0.01154
C 24.5589 29.78059 0.00684
C 24.57618 28.31924 -0.01052
C 25.81077 27.58831 -0.01679
C 25.70325 26.21174 0.00367
C 24.49182 25.54885 0.04306
C 24.48058 24.19167 0.00996
C 25.70329 31.84262 -0.0264
C 23.35392 26.30294 -0.00498
C 23.3698 27.64187 0.02737
C 22.11091 28.41803 0.02117
C 19.61589 28.45472 0.02239
C 20.85877 27.74382 0.01153
C 20.85257 26.32468 0.02734
C 19.70351 25.55855 -0.0055
C 19.74034 24.10056 0.01515
C 20.89067 23.38561 -0.00225
C 21.05873 21.89435 0.00071
C 19.91999 21.47523 -0.01107
C 18.75689 4.29377 -0.01586
C 19.45566 2.99724 -0.01971
C 20.73707 2.48236 -0.02118
C 20.83804 0.77848 0.00733
C 19.63135 34.07173 -0.00178
C 22.09254 32.75096 0.00768
C 23.27217 31.94961 -0.0276
C 23.40148 30.56919 0.03005
C 22.14102 29.8322 -0.04078
C 25.66461 23.30654 0.00195
C 3.66121 32.05 -0.0008
C 25.70788 21.7635 -0.00802
C 25.69095 4.76373 -0.01654
C 27.05869 4.22051 0.01699
C 27.07464 2.76611 -0.00416
C 28.21659 2.02167 0.01177
C 28.24362 0.61602 0.04266
C 26.98607 34.04193 0.01324
C 29.40914 32.63395 0.0014
C 30.61437 31.9108 0.00924
C 28.27856 5.02524 0.01799
C 30.71447 30.50599 0.02326
C 29.45847 28.44732 0.03265
C 30.62898 27.68483 -0.02049
C 30.62185 26.3251 -0.01854
C 29.37786 25.53183 -0.01415
C 29.40676 24.10823 -0.03039
C 30.64954 23.39369 0.01836
C 30.71127 21.96159 0.03531
C 29.46929 29.88453 0.00261
C 28.14342 6.42037 0.01259
C 28.39687 18.98562 0.01495
C 27.30566 19.59826 0.00235
C 24.63138 4.27535 -0.00037
C 24.53984 2.81634 -0.0032
C 25.80515 2.12657 0.00622
C 25.75034 0.6632 -0.02815
C 24.49222 34.05619 -0.00942
C 26.93024 32.58121 0.00487
C 28.17346 31.95754 0.00826
C 28.26736 30.52863 -0.00294
C 27.02075 29.75734 0.00152
C 27.01826 28.3785 0.01257
C 28.24071 27.69884 0.02316
C 28.21899 26.2438 0.04185
C 26.93533 25.46024 0.00194
C 26.91004 24.09822 -0.00621
C 28.16563 23.44041 0.02611
C 28.22664 21.98056 0.02198
C 27.00472 21.10406 0.01094
C 24.29405 21.28703 -0.00218
C 2.39086 32.75166 -0.01362
