379
Graphene
C 0.00043 0.04257 0.01295
C 11.12636 6.41094 0.01945
C 11.02728 5.00427 0.01416
C 9.83974 4.29946 0.03542
C 9.83807 2.84487 0.02299
C 11.09875 2.1561 0.00244
C 11.08254 0.72816 -0.01717
C 9.79745 0.03782 0.05265
C 12.23209 32.64216 -0.01952
C 13.45656 31.83131 -0.02813
C 13.50356 30.46679 0.00374
C 12.34115 29.83352 0.00052
C 12.33697 28.34266 -0.03682
C 13.59741 27.62961 0.01965
C 13.58088 26.24537 0.02058
C 12.30066 25.63934 -0.01957
C 12.33733 24.14803 -0.0108
C 13.5124 23.29385 -0.00368
C 13.4527 22.00536 -0.02696
C 12.42097 21.16944 -0.00114
C 9.77902 7.10966 -0.01454
C 9.78572 8.53392 0.01241
C 11.04944 9.21635 0.0076
C 11.03983 10.66438 0.02162
C 10.94819 32.02563 0.00985
C 11.08887 30.59417 -0.02245
C 9.89779 29.87351 -0.00428
C 9.87229 28.456 0.03101
C 11.11258 27.73901 -0.01536
C 11.0514 26.32811 -0.02689
C 9.82666 25.56113 -0.01046
C 9.8578 24.21525 -0.00891
C 11.10822 23.54268 0.02819
C 12.20589 19.87797 0.00228
C 11.07057 22.11717 0.00165
C 9.88599 19.84943 0.02894
C 11.17246 19.10083 -0.01789
C 11.07247 17.76723 0.00444
C 9.95816 16.99192 -0.00925
C 9.82655 15.53345 0.01877
C 11.01573 14.93593 0.01363
C 11.11878 13.48855 -0.02162
C 9.76266 12.76338 0.00415
C 9.83441 11.36336 -0.0014
C 9.94309 21.31273 -0.02971
C 12.25835 12.8073 0.00798
C 12.38544 11.42228 0.00422
C 13.46376 10.71546 0.0351
C 15.94789 4.93539 -0.00316
C 14.71228 4.19253 0.02188
C 14.72759 2.8031 -0.01979
C 16.01804 2.1403 0.02691
C 16.00002 0.68596 -0.01581
C 14.73015 0.00351 0.01452
C 17.21495 32.66413 0.04892
C 18.47595 31.92189 -0.00111
C 18.56451 30.56787 -0.03557
C 15.96817 6.39813 -0.0331
C 17.22413 29.86291 0.03754
C 18.42953 27.64516 0.00755
C 18.42616 26.21391 -0.0054
C 17.18147 25.53137 0.00667
C 17.18218 24.01535 0.00143
C 18.47124 23.37784 -0.017
C 18.51422 9.14549 0.00364
C 17.21334 8.65639 -0.00831
C 17.15323 7.08497 -0.02957
C 18.41044 6.40955 -0.04422
C 17.16353 28.45856 0.01739
C 9.74943 32.67831 -0.01275
C 14.753 7.11397 -0.0258
C 15.96476 9.11553 -0.00491
C 13.52734 9.29827 -0.03113
C 12.30376 8.53627 0.02098
C 12.33178 7.14917 0.01848
C 13.56254 6.41111 -0.00619
C 13.52168 4.95411 -0.02162
C 12.27324 4.24888 0.00889
C 12.3187 2.83828 -0.00481
C 13.52973 2.13933 0.00979
C 13.52915 0.72794 0.01443
C 14.75286 8.53484 0.03338
C 12.29265 0.00998 0.03505
C 15.90655 31.96468 -0.04147
C 15.97377 30.51201 -0.05302
C 14.7309 29.81036 0.00213
C 14.78848 28.41304 -0.00066
C 16.0121 27.67741 -0.00289
C 15.93115 26.2425 0.00028
C 14.76128 25.46311 -0.02213
C 14.74153 24.02892 0.03698
C 15.96302 23.39232 -0.00109
C 14.65029 32.62683 -0.02815
C 18.45149 4.94413 0.00654
C 7.43571 0.04927 -0.01111
C 8.59892 2.2127 0.00943
C 3.69454 4.90929 0.01087
C 2.44573 4.27092 -0.01343
C 2.41736 2.85479 0.00988
C 3.66882 2.1523 0.0276
C 3.69107 0.66289 0.01305
C 2.44442 34.06622 -0.00077
C 4.88531 32.65049 0.03368
C 6.07997 31.99022 -0.02929
C 6.12941 30.53727 -0.00966
C 4.91458 29.87389 -0.03337
C 4.95211 28.38459 0.01227
C 6.15315 27.71047 0.00873
C 6.17761 26.33853 -0.00049
C 4.97062 25.60157 0.00848
C 4.82187 24.19468 -0.01303
C 6.15156 23.44036 -0.01378
C 6.15845 22.00078 0.02635
C 4.93331 21.27909 0.0127
C 4.83963 19.91636 0.01396
C 3.76161 6.31188 -0.05697
C 2.49149 7.09972 -0.00725
C 2.47424 8.51382 0.02322
C 3.74309 9.17272 -0.00094
C 3.66105 30.53587 0.00643
C 2.38743 29.82932 -0.01509
C 2.41157 28.46067 0.03267
C 3.69622 27.69367 0.02374
C 3.69343 26.28442 0.00402
C 2.49662 25.57469 0.0073
C 2.50246 24.14594 0.0174
C 3.69756 23.39605 0.03828
C 3.68728 22.00914 0.01226
C 6.04899 19.12529 0.01849
C 2.47282 21.39235 -0.00279
C 3.64324 19.2247 -0.03996
C 3.67634 17.77772 0.01465
C 2.48893 17.06737 -0.00074
C 2.50647 15.56775 -0.00518
C 3.73648 14.91418 0.0086
C 3.72494 13.5586 -0.00643
C 2.4874 12.8133 0.017
C 2.41628 11.37222 -0.03113
C 3.63054 10.59246 -0.02566
C 2.41823 19.94102 0.01996
C 6.14142 17.74654 -0.01142
C 4.95558 17.03147 -0.00562
C 4.96624 15.67632 -0.00494
C 8.64502 23.52217 0.00373
C 8.63249 22.05302 -0.00191
C 7.42547 21.29357 0.00438
C 7.4569 19.86254 0.01291
C 8.62762 19.1602 0.00093
C 8.60809 17.64367 0.00057
C 7.37224 17.00491 -0.01634
C 7.33221 15.63494 -0.00334
C 8.52391 14.87213 0.02339
C 7.4012 24.19142 0.02147
C 8.54898 13.50065 0.01641
C 7.34012 11.4044 0.01364
C 8.60551 10.60869 -0.01062
C 8.58128 9.26984 -0.00033
C 7.37274 8.56617 0.03589
C 7.39869 7.16109 -0.02759
C 8.5804 6.36318 0.0402
C 8.61589 4.98459 0.00572
C 7.41206 4.29787 0.03592
C 7.33774 2.87695 0.00406
C 7.27963 12.84842 -0.00719
C 8.64897 0.72063 0.02841
C 7.40966 25.62905 -0.014
C 8.61045 27.74316 -0.00131
C 6.16949 14.98096 0.00054
C 6.10292 13.61161 0.03007
C 4.88935 12.85144 -0.00095
C 4.88723 11.37845 0.01572
C 6.08709 10.68552 -0.04848
C 6.11966 9.27762 -0.00892
C 4.97897 8.50415 -0.01362
C 4.93844 7.06766 -0.0008
C 6.13718 6.45842 0.0288
C 8.58225 26.37446 -0.01118
C 6.13806 5.00586 0.00393
C 4.84059 2.85407 0.00685
C 6.06516 2.18215 0.02888
C 6.15217 0.68984 -0.00482
C 4.94784 0.00735 -0.01384
C 7.30306 32.71689 0.03693
C 8.5519 32.04063 0.01745
C 8.65158 30.59466 0.00488
C 7.4252 29.83424 -0.01004
C 7.40133 28.42742 -0.02896
C 4.8883 4.25958 0.00895
C 3.66964 31.93716 0.00907
C 17.19773 4.35465 -0.00703
C 18.37455 2.10806 -0.00652
C 29.47238 7.09771 0.02108
C 30.68161 6.3741 0.00716
C 30.72165 4.99673 0.00307
C 29.47025 4.28191 0.00346
C 29.52821 2.85734 0.01713
C 30.72367 2.11341 -0.01694
C 30.74913 0.70006 0.01428
C 29.49301 0.03778 -0.02142
C 32.0225 32.67357 0.0544
C 33.25434 31.98285 0.00026
C 33.16482 30.55097 0.00682
C 31.94103 29.82427 -0.01779
C 31.91373 28.39453 0.03794
C 33.14183 27.77819 0.01927
C 33.24892 26.31533 0.01574
C 32.00489 25.52446 -0.02383
C 32.01584 24.1239 -0.01429
C 33.20955 23.4606 -0.0136
C 33.19063 22.04278 0.00594
C 29.50835 8.54254 0.0103
C 30.72208 9.1922 0.07705
C 30.67264 10.59612 0.01908
C 29.44771 11.36316 0.01518
C 28.30654 5.02715 0.00924
C 27.03531 4.18796 0.02326
C 27.12805 2.77032 0.00261
C 28.31501 2.12803 0.03265
C 28.27987 0.76602 -0.02049
C 27.03938 34.04637 -0.01854
C 29.48371 32.65727 -0.01415
C 30.7762 31.87192 -0.03039
C 30.67871 30.47901 0.01836
C 32.01106 21.36106 -0.02474
C 29.44714 29.77697 0.03531
C 30.69919 27.71444 0.0101
C 30.76694 26.27717 0.01705
C 29.53413 25.50474 -0.0405
C 29.52734 24.10784 -0.01303
C 30.78909 23.45871 -0.01461
C 30.76832 21.92275 -0.02155
C 29.48214 21.19757 -0.00944
C 30.79468 13.48566 -0.03735
C 29.57279 12.84631 -0.00971
C 29.4207 28.3801 -0.00669
C 33.28444 19.11484 0.00369
C 33.21005 14.85978 0.00455
C 33.15953 13.497 -0.00644
C 34.42312 21.41828 -0.02213
C 34.38438 19.88975 0.01951
C 1.24886 19.23126 -0.01678
C 1.17554 17.8013 0.01223
C 0.0365 17.08716 0.00648
C 34.36431 15.64765 0.02114
C 1.28577 14.94372 -0.02957
C 1.24159 13.49211 0.00343
C 34.42276 12.77104 -0.02656
C 1.20018 22.12608 0.02712
C 34.40048 11.3199 -0.02442
C 1.23023 9.24653 -0.00583
C 34.38663 8.45764 -0.02302
C 34.37892 7.05492 -0.02849
C 1.23659 6.37915 0.02931
C 1.25777 4.96258 0.00628
C 34.35905 4.23825 -0.0345
C 34.33661 2.80897 -0.00931
C 1.17077 2.09689 -0.00939
C 1.18466 0.73008 -0.00468
C 1.21393 10.61042 -0.00027
C 28.28894 6.4585 0.0014
C 1.22053 23.5334 0.00723
C 0.01862 25.54805 -0.05239
C 31.95598 12.77505 -0.01839
C 31.88597 11.35642 0.00137
C 33.12203 10.6723 0.00199
C 33.20824 9.22675 0.04381
C 31.9767 8.493 0.02806
C 31.94497 7.05063 0.01504
C 33.14254 6.41887 -0.00069
C 33.19529 5.01935 0.04926
C 31.96429 4.3491 -0.03838
C 34.41428 24.19075 0.03076
C 31.91084 2.84096 0.00349
C 33.20315 0.76008 -0.00841
C 31.99734 34.07883 0.0001
C 0.03986 32.70467 -0.02927
C 1.20131 31.89668 -0.01404
C 1.15785 30.53672 0.01027
C 34.3928 29.8811 0.01831
C 34.40116 28.44433 -0.01037
C 1.22877 27.68309 -0.00439
C 1.23807 26.22183 -0.00598
C 33.11037 2.14269 -0.00323
C 17.20152 2.91026 -0.04076
C 27.09594 7.10654 0.01324
C 28.21398 9.17841 0.01177
C 23.3551 30.53792 0.03374
C 22.12859 29.80037 -0.02845
C 22.09125 28.37614 -0.03213
C 23.32782 27.65417 0.02239
C 23.37309 26.24671 0.01153
C 22.1881 25.55082 0.02734
C 22.12495 24.11195 -0.0055
C 23.33648 23.34805 0.01515
C 23.40035 21.97091 -0.00225
C 23.43861 10.64803 0.00071
C 23.3069 9.25449 -0.01107
C 22.10479 8.52827 -0.01586
C 22.15161 7.06432 -0.01971
C 23.387 6.42884 -0.02118
C 23.24734 4.94125 0.00733
C 22.03227 4.23799 -0.00178
C 22.15686 2.77581 0.00768
C 23.36308 2.10942 -0.0276
C 23.40425 0.69392 0.03005
C 23.35277 31.92062 0.0296
C 22.0871 32.65995 0.03046
C 19.62711 34.00389 -0.00381
C 20.93277 0.67067 0.01852
C 18.43316 0.68496 0.0058
C 17.25607 34.03828 -0.00865
C 19.71083 32.57929 0.00675
C 20.93532 31.89301 -0.00311
C 20.90526 30.48366 0.00742
C 19.70052 29.76629 -0.01594
C 19.61224 28.33321 0.0106
C 20.87638 27.64647 -0.01154
C 20.92355 26.2083 -0.01721
C 22.22184 34.04771 -0.04078
C 19.69854 25.51142 -0.02422
C 20.93073 23.43749 0.00096
C 20.94916 9.21832 -0.01527
C 19.69311 8.55701 0.01087
C 19.69256 7.0899 0.00199
C 20.9114 6.37906 0.01511
C 20.87896 4.9757 -0.00478
C 19.72762 4.25462 -0.01662
C 19.75087 2.85205 -0.01185
C 20.89707 2.10939 0.01126
C 19.66487 24.08902 0.01277
C 24.62559 32.57553 0.02117
C 25.82618 31.95117 0.02737
C 25.84129 30.54878 -0.00498
C 25.79143 0.75547 -0.02815
C 24.57788 34.06994 -0.00942
C 27.04489 32.69855 0.00487
C 28.25216 31.98828 0.00826
C 28.29725 30.52581 -0.00294
C 27.09113 29.87264 0.00152
C 27.00151 28.43172 0.01257
C 28.25651 27.68069 0.02316
C 28.3383 26.27211 0.04185
C 25.87576 2.11674 0.00622
C 27.11221 25.55148 0.00194
C 28.20655 23.39594 0.02611
C 28.36527 22.01028 0.02198
C 27.06679 21.2596 0.01094
C 27.32888 19.96602 0.00235
C 26.86802 15.65405 0.01495
C 28.27016 13.44619 0.01259
C 27.07687 12.76169 0.01799
C 26.97768 11.37289 0.01699
C 28.15224 10.65457 -0.00416
C 27.01309 24.13057 -0.00621
C 26.93437 8.52292 0.04266
C 24.60348 2.78757 -0.0032
C 25.74521 4.91265 -0.01654
C 24.615 29.84287 0.00135
C 24.53543 28.45847 0.03102
C 25.77507 27.71427 0.02555
C 25.81104 26.26133 0.01423
C 24.59693 25.55287 -0.00285
C 24.59045 24.08371 -0.009
C 25.77719 23.41828 -0.01199
C 25.88847 21.92541 -0.00229
C 24.55757 21.23874 -0.00938
C 24.51392 4.23928 -0.00037
C 24.63703 19.8802 -0.0264
C 25.976 17.91559 0.00684
C 25.89751 14.79366 -0.01052
C 25.79098 13.49329 -0.01679
C 24.46832 11.25666 0.00367
C 25.71975 10.69797 0.04306
C 25.76777 9.2809 0.00996
C 24.57604 8.54324 0.00195
C 24.65999 7.12202 -0.00802
C 25.86241 6.37119 -0.00218
C 25.86865 19.18883 -0.01154
C 2.4228 32.60623 0.02379
