366
Graphene
C 34.42954 0.05258 0.01295
C 17.13509 28.30993 0.00374
C 18.51498 27.69357 0.00052
C 18.39611 26.32452 -0.03682
C 17.21617 25.6188 0.01965
C 17.25754 24.19688 0.02058
C 18.42823 23.39821 -0.01957
C 18.36972 21.98676 -0.0108
C 17.15549 21.24803 -0.00368
C 17.1604 29.75457 -0.02813
C 17.24576 19.83524 -0.02696
C 18.45853 17.68972 0.00228
C 17.29998 17.01548 0.00798
C 17.3067 15.58206 0.00422
C 18.47643 14.9635 0.0351
C 18.41587 13.47136 -0.03113
C 17.04735 12.66738 0.02098
C 17.16152 11.29599 0.01848
C 18.38623 10.55764 -0.00619
C 18.49428 19.17845 -0.00114
C 18.38177 30.48078 -0.01952
C 18.43409 31.90721 0.05265
C 17.21163 32.6655 -0.01717
C 14.71302 25.60165 -0.02971
C 14.72517 24.23668 0.02894
C 15.99024 23.52887 -0.01789
C 15.97501 22.11434 0.00444
C 14.73163 21.3894 -0.00925
C 14.78319 19.93745 0.01877
C 16.01076 19.13808 0.01363
C 16.06495 17.76898 -0.02162
C 14.85591 17.10708 0.00415
C 14.67945 15.66842 -0.0014
C 15.96354 14.9642 0.02162
C 16.0006 13.6195 0.0076
C 16.18505 6.29712 0.01241
C 15.93269 4.98662 -0.01454
C 14.79366 4.16058 0.01945
C 14.75973 2.81864 0.01416
C 16.04913 2.11781 0.03542
C 15.96023 0.66314 0.02299
C 14.74361 34.07021 0.00244
C 18.42752 9.16178 -0.02162
C 17.23839 8.47694 0.00889
C 17.15 7.12928 -0.00481
C 18.45567 6.41983 0.00979
C 20.81419 14.93754 -0.00111
C 20.88847 13.48315 -0.03557
C 19.5921 12.76307 0.03754
C 19.62679 11.3418 0.01739
C 20.94929 10.62992 0.00755
C 20.90703 9.14403 -0.0054
C 19.66323 8.52684 0.00667
C 19.65184 7.13273 0.00143
C 20.86574 6.36901 -0.017
C 21.00671 4.95035 0.00364
C 19.69152 4.2919 -0.00831
C 19.7434 2.88886 -0.02957
C 20.96077 2.10445 -0.04422
C 20.91658 0.67464 0.00654
C 19.71408 0.0154 -0.00703
C 22.09969 32.62036 -0.04076
C 23.28571 31.8816 -0.00652
C 23.3921 30.47828 0.0058
C 22.16445 29.80837 -0.00865
C 19.67921 15.67013 0.04892
C 15.98605 26.20213 0.00165
C 19.68257 17.02551 0.01452
C 20.88994 19.11865 0.02691
C 18.44655 4.98725 0.01443
C 17.29193 4.21764 0.03505
C 17.24717 2.81321 -0.02815
C 18.49823 2.10762 -0.04147
C 18.50147 0.66671 -0.05302
C 17.24846 0.01498 0.00213
C 19.69149 32.62054 -0.00066
C 20.89272 31.85518 -0.00289
C 20.85777 30.46463 0.00028
C 19.61391 29.7965 -0.02213
C 19.71985 28.38382 0.03698
C 20.93046 27.73904 -0.00109
C 20.85988 26.32815 -0.00491
C 19.62637 25.61038 0.03338
C 19.63757 24.16594 -0.0258
C 20.83203 23.47646 -0.0331
C 20.86626 21.982 -0.00316
C 19.57379 21.29882 0.02188
C 19.62352 19.93023 -0.01979
C 20.81793 17.77596 -0.01581
C 15.94212 27.62546 0.02819
C 14.70618 28.36007 -0.00891
C 14.70428 29.75356 -0.01046
C 4.97316 29.78229 -0.00049
C 4.99546 28.39043 0.00848
C 6.22943 27.72045 -0.01303
C 6.07985 26.38055 -0.01378
C 4.7015 12.80426 0.02635
C 4.94974 11.35465 0.0127
C 6.0544 10.56537 0.01396
C 5.00806 8.63794 0.01849
C 4.92972 7.16918 -0.01142
C 6.05464 6.34754 -0.00562
C 6.22871 5.02922 -0.00494
C 4.84248 4.30623 0.00054
C 4.9033 2.91019 0.03007
C 6.11888 2.1562 -0.00095
C 6.1834 0.75654 0.01572
C 4.97784 34.07281 -0.04848
C 7.35592 32.74504 -0.00892
C 8.61085 32.05919 -0.01362
C 8.57163 30.59111 -0.0008
C 6.08584 30.50688 0.00873
C 7.35037 29.89999 0.0288
C 6.18009 31.96794 0.01227
C 2.44267 34.07809 -0.00966
C 3.73461 30.55217 -0.00074
C 2.4767 29.81286 -0.00518
C 2.46755 28.37835 0.0086
C 3.77529 27.60536 -0.00643
C 3.54181 26.14665 0.017
C 2.43602 25.57792 -0.03113
C 3.77822 13.50481 -0.02566
C 2.52865 12.86228 -0.00094
C 2.47899 11.43348 0.02322
C 3.66188 10.66433 -0.00725
C 3.70726 9.18452 -0.05697
C 2.47158 8.50516 0.01087
C 2.38456 7.12211 -0.01343
C 3.68999 6.4289 0.00988
C 3.6591 4.94417 0.0276
C 2.45568 4.29799 0.01305
C 2.47413 2.90022 -0.00077
C 3.65653 2.10851 0.03368
C 3.65469 0.75593 -0.02929
C 4.94426 32.69238 -0.03337
C 22.16798 28.36459 0.00675
C 7.47373 28.44293 0.00393
C 8.70108 26.28626 0.00685
C 12.23213 28.40239 0.01364
C 13.44181 27.67011 -0.01062
C 13.48538 26.31352 -0.00033
C 12.29568 25.60611 0.03589
C 12.28925 24.23231 -0.02759
C 13.37809 23.41589 0.0402
C 13.55267 22.03989 0.00572
C 13.69447 19.17569 0.03592
C 13.53693 17.80421 0.00406
C 12.37606 17.0832 0.00943
C 12.29379 15.40627 0.02841
C 13.60993 14.95468 -0.01111
C 12.28313 2.81603 -0.01275
C 13.48744 2.16178 0.00985
C 13.50789 0.67557 -0.02245
C 12.27622 0.02381 -0.00428
C 14.78456 32.60028 0.03101
C 16.00623 31.9344 -0.01536
C 15.98293 30.4322 -0.02689
C 12.17725 29.84204 -0.00719
C 8.61099 27.71559 0.00895
C 13.49703 30.48216 0.01641
C 12.30965 32.71899 -0.00334
C 7.4802 4.30159 0.02888
C 7.32647 2.92735 -0.00482
C 8.58248 2.19189 -0.01384
C 8.54556 0.83156 0.03693
C 7.40425 0.05253 0.01745
C 9.849 32.75447 0.00488
C 11.07898 32.09265 -0.01004
C 11.02743 30.64085 -0.02896
C 9.76139 29.9427 -0.00131
C 9.7809 28.54417 -0.01118
C 11.02943 27.70128 -0.014
C 11.04748 26.23796 0.02147
C 9.74235 25.67009 0.00373
C 11.013 14.83975 -0.00191
C 9.65942 4.35842 0.00438
C 9.77551 2.97769 0.01291
C 10.99584 2.25173 0.00093
C 11.03245 0.79228 0.00057
C 9.80127 0.04127 -0.01634
C 13.51966 31.92915 0.02339
C 23.36302 27.68927 -0.00311
C 23.33226 26.26307 0.00742
C 22.04423 25.6393 -0.01594
C 29.50677 4.29253 0.00307
C 29.52437 2.909 0.00346
C 30.70574 2.06637 0.01713
C 30.75097 0.67034 -0.01694
C 29.46289 34.06256 0.01428
C 31.87121 32.6497 -0.02142
C 33.09235 31.96637 0.0544
C 33.11666 30.53925 0.00026
C 31.9502 29.82726 0.00682
C 31.94083 28.39195 -0.01779
C 33.17516 27.73699 0.03794
C 33.14448 26.30915 0.01927
C 31.96167 25.5841 0.01574
C 31.95129 24.11225 -0.02383
C 33.27566 23.44007 -0.01429
C 33.32103 22.04747 -0.0136
C 32.05522 21.34017 0.00594
C 32.01072 19.92774 -0.02474
C 33.20729 19.21562 0.00369
C 30.80878 5.01551 0.00716
C 33.24407 17.74299 0.00455
C 30.75078 6.39781 0.02108
C 29.49227 8.48106 0.07705
C 29.49086 28.37168 0.03265
C 30.77475 27.723 -0.02049
C 30.77054 26.24413 -0.01854
C 29.50999 25.5336 -0.01415
C 29.40153 24.092 -0.03039
C 30.6941 23.47892 0.01836
C 30.80096 22.05221 0.03531
C 29.55736 21.22588 -0.00669
C 29.58556 19.81372 0.0101
C 30.79138 19.13797 0.01705
C 30.7807 17.68417 -0.0405
C 29.56206 17.04117 -0.01303
C 29.5201 15.65184 -0.01461
C 30.68507 14.8088 -0.02155
C 30.67158 13.45538 -0.00944
C 29.52245 12.72091 -0.03735
C 29.47283 11.30067 -0.00971
C 30.63549 10.65794 0.01518
C 30.68214 9.18767 0.01908
C 29.54863 7.06076 0.0103
C 29.53391 29.76184 0.00261
C 31.96101 16.96738 -0.00644
C 33.15987 14.88092 0.00137
C 1.34536 23.52716 0.01951
C 34.35719 21.18836 -0.01678
C 34.40495 19.87473 0.01223
C 34.39615 17.05081 0.00648
C 0.06271 15.64012 0.02114
C 1.19576 14.87615 -0.02957
C 1.25427 13.50434 0.00343
C 0.00856 12.85962 -0.02656
C 34.40555 11.35782 -0.02442
C 1.23343 10.69587 -0.00027
C 1.19622 9.27094 -0.00583
C 34.42632 8.58361 -0.02302
C 0.00622 7.16518 -0.02849
C 1.22203 6.46401 0.02931
C 1.19667 5.0244 0.00628
C 0.00018 4.27625 -0.0345
C 34.36264 2.84404 -0.00931
C 1.18738 2.15282 -0.00939
C 1.20171 0.78545 -0.00468
C 0.14577 24.14049 -0.02213
C 31.94693 15.55279 -0.01839
C 34.41637 25.63321 0.02712
C 1.19754 27.71186 0.03076
C 33.17841 13.49911 0.00199
C 32.00956 12.73654 0.04381
C 31.88357 11.30791 0.02806
C 33.16433 10.6594 0.01504
C 33.14694 9.23211 -0.00069
C 31.89895 8.59124 0.04926
C 31.9759 7.10424 -0.03838
C 33.20515 6.39287 0.00349
C 33.23485 4.98642 -0.00323
C 31.97933 4.26352 -0.00841
C 31.89943 2.83897 0.0001
C 33.12797 2.12488 -0.02927
C 33.19109 0.70608 -0.01404
C 31.95689 0.02436 0.01027
C 34.36229 32.71851 0.01831
C 1.22454 31.98402 -0.01037
C 1.2606 30.63279 -0.00439
C 34.39079 29.91245 -0.00598
C 34.37785 28.45554 -0.05239
C 1.187 26.26195 0.00723
C 3.71957 31.9631 0.01465
C 30.68319 30.47361 0.02326
C 29.45234 32.60986 0.0014
C 22.13162 34.07454 0.02734
C 24.52753 32.66642 -0.0055
C 25.76929 32.01771 0.01515
C 25.77792 30.56393 -0.00225
C 24.63834 29.76744 0.00071
C 24.57953 28.38017 -0.01107
C 25.78737 27.66827 -0.01586
C 25.81198 26.22422 -0.01971
C 24.55205 25.53745 -0.02118
C 24.49136 24.08277 0.00733
C 25.7252 23.4301 -0.00178
C 25.8389 21.97044 0.00768
C 24.52709 21.27979 -0.0276
C 24.60017 19.8288 0.03005
C 25.86642 19.21655 -0.04078
C 25.87086 17.74682 0.02117
C 24.58892 17.00237 0.02737
C 24.58986 15.56938 -0.00498
C 25.81646 14.86901 0.00135
C 23.28423 0.6687 0.01153
C 25.82728 13.46164 0.03102
C 23.34996 2.00482 0.02239
C 22.24035 4.22651 -0.02845
C 22.00713 24.18943 0.0106
C 23.21182 23.35924 -0.01154
C 23.26084 21.95582 -0.01721
C 22.03266 21.26544 -0.02422
C 22.10216 19.82146 0.01277
C 23.3503 19.15863 0.00096
C 23.34842 17.70584 -0.01527
C 22.06851 17.03047 0.01087
C 22.13005 15.63707 0.00199
C 23.3543 14.88587 0.01511
C 23.35851 13.43954 -0.00478
C 22.13755 12.73163 -0.01662
C 22.19988 11.29458 -0.01185
C 23.41693 10.60562 0.01126
C 23.38926 9.18203 0.01852
C 22.12585 8.49352 -0.00381
C 22.12932 7.05294 0.03046
C 23.41627 6.36407 0.0296
C 23.43306 5.0042 0.03374
C 22.16629 2.82184 -0.03213
C 30.68716 31.93075 0.00924
C 24.6061 12.75342 0.02555
C 25.90616 10.71124 -0.00285
C 28.31143 19.14375 -0.00294
C 28.28681 17.74332 0.00152
C 27.08243 17.01175 0.01257
C 27.09156 15.59883 0.02316
C 28.30326 14.95076 0.04185
C 28.31641 13.51763 0.00194
C 27.09779 12.81673 -0.00621
C 27.12077 11.38857 0.02611
C 28.27799 10.64049 0.02198
C 28.31561 9.19237 0.01094
C 27.05089 8.58183 0.00235
C 27.06277 7.15905 0.01495
C 28.23613 6.42163 0.01259
C 28.26968 4.99968 0.01799
C 27.05926 4.26622 0.01699
C 26.96887 2.85787 -0.00416
C 28.27672 2.17105 0.01177
C 28.24065 0.73113 0.04266
C 27.04613 0.00251 0.01324
C 27.07246 19.83826 0.00826
C 24.6435 11.32239 0.01423
C 27.07011 21.28354 0.00487
C 28.22272 23.36743 -0.02815
C 25.85681 9.28636 -0.009
C 24.65335 8.60672 -0.01199
C 24.61413 7.13689 -0.00229
C 25.891 6.38078 -0.00938
C 25.84098 4.99496 -0.0264
C 24.61152 4.23991 -0.01154
C 24.56584 2.8291 0.00684
C 25.74703 2.15511 -0.01052
C 25.72422 0.69444 -0.01679
C 24.52716 34.03937 0.00367
C 26.99345 32.63004 0.04306
C 28.29777 31.87909 0.00996
C 28.24823 30.43614 0.00195
C 26.96459 29.8418 -0.00802
C 26.94487 28.409 -0.00218
C 28.23995 27.69314 -0.01654
C 28.26715 26.30157 -0.00037
C 27.02525 25.53975 -0.0032
C 26.97613 24.10659 0.00622
C 28.3286 21.94695 -0.00942
C 2.45231 32.69741 -0.03996
