309
Graphene
C 0.00706 34.06868 0.01295
C 12.26665 34.00741 0.02188
C 14.81085 32.62121 -0.01979
C 15.99422 31.95712 0.02691
C 16.13096 30.62029 -0.01581
C 14.85073 11.38623 0.01452
C 15.92798 10.55567 0.04892
C 15.95973 9.19275 -0.00111
C 14.70691 8.46022 -0.03557
C 14.72622 7.11762 0.03754
C 15.9344 6.32861 0.01739
C 15.91725 4.92956 0.00755
C 14.75245 4.24876 -0.0054
C 14.69429 2.83328 0.00667
C 15.94681 2.13918 0.00143
C 16.02638 0.65349 -0.017
C 13.50536 0.65378 -0.00316
C 14.81293 0.04102 0.00364
C 13.58005 2.02343 -0.0331
C 12.30007 4.22977 0.03338
C 11.13406 0.66691 -0.00481
C 9.82564 34.04821 0.00979
C 12.29124 32.5168 0.01443
C 13.55229 31.98158 0.03505
C 12.30256 15.69728 -0.02815
C 13.34434 14.83626 -0.04147
C 13.61927 13.60035 -0.05302
C 12.462 12.87511 0.00213
C 12.38064 11.4245 -0.00066
C 13.64241 10.74782 -0.00289
C 13.52968 9.30054 0.00028
C 12.27628 8.54909 -0.02213
C 12.22903 7.11548 0.03698
C 13.46358 6.3464 -0.00109
C 13.57041 4.89073 -0.00491
C 12.31401 2.77343 -0.0258
C 17.25789 32.67724 -0.00831
C 18.46165 31.92783 -0.02957
C 18.42579 30.5164 -0.04422
C 20.94444 26.05916 -0.00478
C 19.61559 25.74357 -0.01662
C 20.82271 8.98062 -0.01185
C 19.58696 8.58267 0.01126
C 19.63257 7.10391 0.01852
C 20.88043 6.42716 -0.00381
C 20.88921 5.00694 0.03046
C 19.66785 4.3225 0.0296
C 19.62598 2.88485 0.03374
C 20.79999 2.12691 -0.02845
C 20.8607 0.77513 -0.03213
C 19.66717 0.07039 0.02239
C 22.18345 32.68203 0.01153
C 23.30568 31.94403 0.02734
C 23.40935 30.52159 -0.0055
C 20.90567 27.60547 0.01511
C 19.67039 28.37839 0.00199
C 19.70927 29.76466 0.01087
C 20.96026 30.62305 -0.01527
C 17.16146 29.79463 0.00654
C 17.35301 28.50297 -0.00703
C 18.35167 27.61566 -0.04076
C 18.3725 26.23209 -0.00652
C 18.27867 9.15387 0.0058
C 17.08041 8.44305 -0.00865
C 17.17989 7.03694 0.00675
C 11.0752 2.04556 0.00889
C 18.46592 6.39422 -0.00311
C 17.25379 4.28301 -0.01594
C 17.2236 2.89696 0.0106
C 18.42726 2.20054 -0.01154
C 18.46087 0.75625 -0.01721
C 17.23431 0.02777 -0.02422
C 19.70542 32.65037 0.01277
C 20.91239 31.99079 0.00096
C 18.45417 4.99877 0.00742
C 9.84266 2.8316 -0.02162
C 9.92578 4.28143 -0.00619
C 11.14772 5.00325 0.01848
C 2.49668 2.87549 0.00406
C 3.72913 2.152 0.00943
C 3.71784 0.73346 0.02841
C 2.51019 0.04173 -0.01111
C 4.86131 32.7066 -0.01275
C 5.97598 31.82243 0.00985
C 4.97691 30.0024 -0.02245
C 4.77505 16.95953 -0.00428
C 4.89348 15.58171 0.03101
C 6.1341 14.86988 -0.01536
C 6.22707 13.42076 -0.02689
C 4.96105 12.77495 -0.01046
C 4.88527 11.3137 -0.00891
C 6.09662 10.64036 0.02819
C 6.07432 9.24854 0.00165
C 2.46945 4.31654 0.03592
C 3.72273 4.96149 0.00572
C 3.68324 6.38964 0.0402
C 2.41744 7.17969 -0.02759
C 3.71097 30.58564 0.02147
C 2.48671 29.83898 0.00373
C 2.3561 28.47411 -0.00191
C 2.39304 21.23838 0.00438
C 2.38126 19.87546 0.01291
C 3.60126 19.17139 0.00093
C 3.79802 17.85058 0.00057
C 4.86094 8.56163 -0.02971
C 2.44941 17.0414 -0.01634
C 3.65483 14.93632 0.02339
C 3.69839 13.48169 0.01641
C 2.45412 12.83483 -0.00719
C 2.41776 11.41694 0.01364
C 3.66105 10.60794 -0.01062
C 3.6213 9.20192 -0.00033
C 2.4233 8.57605 0.03589
C 2.47716 15.65094 -0.00334
C 22.18501 29.8046 0.01515
C 4.87692 7.12617 0.02894
C 6.19956 4.93245 0.00444
C 8.58764 2.10326 0.00052
C 8.57267 0.68989 -0.03682
C 7.33463 34.00452 0.01965
C 9.71259 32.6385 0.02058
C 10.98739 32.22573 -0.01957
C 9.83435 15.52453 -0.0108
C 11.09845 15.04914 -0.00368
C 11.18029 13.50019 -0.02696
C 9.90604 12.73171 -0.00114
C 9.86459 11.28783 0.00228
C 11.10787 10.64713 0.00798
C 11.06067 9.30398 0.00422
C 9.74976 8.50827 0.0351
C 9.82069 7.10138 -0.03113
C 11.08097 6.43039 0.02098
C 7.36976 2.78363 0.00374
C 7.46019 4.3072 -0.02813
C 8.62604 5.00703 -0.01952
C 8.59913 6.42387 0.05265
C 4.97623 4.25448 -0.00925
C 4.94398 2.89807 0.01877
C 6.16461 2.14809 0.01363
C 6.18754 0.69505 -0.02162
C 4.91158 0.00292 0.00415
C 7.18345 32.52451 -0.0014
C 8.45791 31.92349 0.02162
C 6.1334 6.356 -0.01789
C 7.35669 15.57699 0.0076
C 8.68533 13.52485 -0.01454
C 7.44556 12.75438 0.01945
C 7.35786 11.30446 0.01416
C 8.59545 10.62072 0.03542
C 8.47257 9.19884 0.02299
C 7.24726 8.46843 0.00244
C 7.36114 7.08585 -0.01717
C 8.59478 15.05294 0.01241
C 3.59594 32.00764 -0.014
C 22.13397 28.3296 -0.00225
C 23.27668 26.29259 -0.01107
C 33.11897 23.43293 0.01927
C 33.21895 22.03743 0.01574
C 31.95481 21.304 -0.02383
C 31.93994 19.91721 -0.01429
C 33.14451 19.22595 -0.0136
C 33.13603 17.78483 0.00594
C 31.93798 17.09368 -0.02474
C 31.86427 15.61416 0.00369
C 33.10773 15.03215 0.00455
C 33.21369 13.58272 -0.00644
C 31.93644 12.92315 -0.01839
C 31.94689 11.46907 0.00137
C 33.22051 10.73588 0.00199
C 33.17149 9.35751 0.04381
C 31.92959 8.57126 0.02806
C 31.88549 24.16223 0.03794
C 31.86609 7.13507 0.01504
C 31.88377 25.58191 -0.01779
C 33.15846 27.68797 0.00026
C 30.71961 9.3099 -0.03735
C 29.39596 8.55025 -0.00971
C 29.34388 7.16469 0.01518
C 30.64249 6.50495 0.01908
C 30.69089 5.00677 0.07705
C 29.42927 4.26474 0.0103
C 29.49316 2.86416 0.02108
C 30.81617 2.11406 0.00716
C 30.78766 0.71159 0.00307
C 29.50282 0.01551 0.00346
C 31.91252 32.61613 0.01713
C 33.24726 31.92145 -0.01694
C 33.25777 30.51869 0.01428
C 31.95478 29.82092 -0.02142
C 31.9569 28.40703 0.0544
C 33.11353 26.28397 0.00682
C 33.18357 6.3933 -0.00069
C 33.16639 5.01198 0.04926
C 31.89638 4.27174 -0.03838
C 0.00718 15.70495 0.02114
C 1.1913 14.93894 -0.02957
C 1.21264 13.61138 0.00343
C 0.02027 12.8523 -0.02656
C 0.03413 11.4511 -0.02442
C 1.20233 10.71081 -0.00027
C 1.20919 9.22267 -0.00583
C 34.39517 8.61961 -0.02302
C 34.34534 7.1747 -0.02849
C 1.16247 6.45899 0.02931
C 1.2779 4.95589 0.00628
C 34.41463 4.25388 -0.0345
C 34.4314 2.85939 -0.00931
C 1.23866 2.147 -0.00939
C 1.27463 0.66989 -0.00468
C 0.01181 17.0701 0.00648
C 1.20489 17.75596 0.01223
C 1.18809 19.18363 -0.01678
C 34.39577 19.94065 0.01951
C 32.00538 2.8925 0.00349
C 33.17211 2.10743 -0.00323
C 33.17638 0.75759 -0.00841
C 31.94376 34.07213 0.0001
C 34.41822 32.63516 -0.02927
C 1.21265 31.9733 -0.01404
C 1.21225 30.56745 0.01027
C 30.75229 10.70484 -0.00944
C 34.39619 29.78912 0.01831
C 1.34287 27.59758 -0.00439
C 1.02153 26.28116 -0.00598
C 34.28373 25.57542 -0.05239
C 34.34793 24.10146 0.03076
C 1.04638 23.41024 0.00723
C 1.39422 22.17766 0.02712
C 0.0176 21.37431 -0.02213
C 0.02383 28.31492 -0.01037
C 29.4156 11.36929 -0.02155
C 29.48619 12.835 -0.01461
C 30.68494 13.53955 -0.01303
C 25.9123 23.4668 -0.00938
C 25.85305 10.56671 -0.0264
C 25.73142 9.25511 -0.01154
C 24.53346 8.49645 0.00684
C 24.50009 7.11701 -0.01052
C 25.72686 6.37124 -0.01679
C 25.75743 4.99841 0.00367
C 24.56795 4.28067 0.04306
C 24.61848 2.88429 0.00996
C 25.79656 2.14406 0.00195
C 25.79847 0.72529 -0.00802
C 24.53077 34.07649 -0.00218
C 26.96212 32.65747 -0.01654
C 28.29468 31.99144 -0.00037
C 28.28274 30.56105 -0.0032
C 24.71946 24.22293 -0.00229
C 24.50229 25.46918 -0.01199
C 25.85115 26.28222 -0.009
C 25.86849 27.68505 -0.00285
C 22.16289 25.52721 -0.01586
C 23.35029 9.22208 -0.01971
C 22.19611 8.66175 -0.02118
C 22.14173 7.13683 0.00733
C 23.36312 6.41709 -0.00178
C 23.31338 4.99567 0.00768
C 22.12367 4.28726 -0.0276
C 26.98099 29.82539 0.00622
C 22.05208 2.79563 0.03005
C 23.36055 0.79411 0.02117
C 22.1286 0.0928 0.02737
C 24.57991 32.72401 -0.00498
C 25.7622 31.9747 0.00135
C 25.7806 30.55802 0.03102
C 24.55109 29.82284 0.02555
C 24.57782 28.36989 0.01423
C 23.37759 2.1666 -0.04078
C 23.34138 27.65043 0.00071
C 27.04299 28.40677 -0.02815
C 28.2766 26.30319 0.00487
C 29.49952 29.80158 0.0014
C 29.49447 28.40142 0.00924
C 30.7193 27.68832 0.02326
C 30.65224 26.2977 0.00261
C 29.48382 25.61927 0.03265
C 29.44187 24.14431 -0.02049
C 30.64069 23.41063 -0.01854
C 30.68198 21.94086 -0.01415
C 29.38707 21.15585 -0.03039
C 29.48906 19.76923 0.01836
C 30.73706 19.1692 0.03531
C 30.69393 17.71996 -0.00669
C 29.72715 16.83716 0.0101
C 29.33137 15.54057 0.01705
C 30.59738 14.90778 -0.0405
C 30.674 30.54089 0.01324
C 30.72299 31.95636 0.04266
C 29.50165 32.71629 0.01177
C 27.01957 0.01336 -0.00416
C 27.07811 25.47901 0.00826
C 27.07127 24.00256 -0.00294
C 28.31032 23.30524 0.00152
C 28.32392 21.9904 0.01257
C 28.25349 13.35409 0.02316
C 27.00916 11.2875 0.04185
C 28.17283 10.68102 0.00194
C 28.22645 27.76863 -0.00942
C 28.19199 9.27995 -0.00621
C 26.97354 7.10246 0.02198
C 28.20775 6.38843 0.01094
C 28.24471 4.99329 0.00235
C 27.02997 4.24501 0.01495
C 26.97697 2.85116 0.01259
C 28.2201 2.14349 0.01799
C 28.31216 0.7081 0.01699
C 27.01144 8.59602 0.02611
C 2.43718 32.69147 -0.01118
