432
Graphene
C 0.00557 33.99809 0.01295
C 13.43264 19.29724 0.01364
C 13.48493 17.78195 -0.01062
C 12.27867 17.03611 -0.00033
C 12.35029 15.68653 0.03589
C 13.57388 14.90751 -0.02759
C 13.486 13.45962 0.0402
C 12.33027 12.77385 0.00572
C 12.27504 11.30733 0.03592
C 13.44629 10.59382 0.00406
C 13.55862 9.12385 0.00943
C 12.31574 8.41169 0.02841
C 12.43386 7.05496 -0.01111
C 13.64427 6.36676 -0.01275
C 13.52713 4.96678 0.00985
C 12.33932 4.19451 -0.02245
C 12.2924 2.8221 -0.00428
C 13.46807 2.08138 0.03101
C 13.56662 0.62497 -0.01536
C 12.41216 33.7866 -0.02689
C 14.73303 32.72395 -0.01046
C 15.90627 31.9814 -0.00891
C 15.90563 30.62085 0.02819
C 14.68973 29.84031 0.00165
C 12.33513 19.96481 -0.00719
C 14.65604 28.25373 -0.02971
C 12.31767 21.41948 0.01641
C 12.44112 24.10379 -0.00334
C 9.82112 17.05583 0.0288
C 9.84861 15.63573 0.00393
C 11.10976 14.97288 0.00895
C 11.07045 13.54347 0.00685
C 9.80457 12.87978 0.02888
C 9.83275 11.52544 -0.00482
C 11.00379 10.64003 -0.01384
C 11.09597 9.27088 0.03693
C 9.86007 8.5703 0.01745
C 9.89205 7.08889 0.00488
C 11.12482 6.36777 -0.01004
C 11.09387 4.98342 -0.02896
C 9.76857 4.23434 -0.00131
C 9.79343 2.85431 -0.01118
C 11.17685 2.05647 -0.014
C 11.27375 0.52788 0.02147
C 9.91281 34.00318 0.00373
C 13.42821 32.1318 -0.00191
C 13.39354 30.74734 0.00438
C 12.20527 30.00641 0.01291
C 12.25806 28.41922 0.00093
C 13.3814 27.66127 0.00057
C 12.36908 25.56285 -0.01634
C 13.4444 22.22763 0.02339
C 11.06873 17.80832 -0.0008
C 16.01549 27.76957 0.02894
C 14.74726 21.6109 0.00444
C 17.18243 25.57212 -0.02696
C 17.29194 24.17706 -0.00114
C 18.39222 23.39597 0.00228
C 18.43278 21.97266 0.00798
C 17.21708 21.26977 0.00422
C 17.12416 19.89018 0.0351
C 18.43305 19.10216 -0.03113
C 18.45742 17.70215 0.02098
C 17.15864 17.01538 0.01848
C 17.19832 15.57332 -0.00619
C 18.46402 14.82705 -0.02162
C 18.45987 13.47377 0.00889
C 17.1552 12.80809 -0.00481
C 17.12023 11.38212 0.00979
C 18.31501 10.69917 0.01443
C 18.38435 9.30639 0.03505
C 17.20106 8.52906 -0.02815
C 17.21187 7.07852 -0.04147
C 18.44178 6.41529 -0.05302
C 18.51567 5.00059 0.00213
C 17.28185 4.27443 -0.00066
C 17.26984 2.83325 -0.00289
C 18.45396 2.07893 0.00028
C 18.36263 26.3307 -0.00368
C 16.08265 22.01762 -0.01789
C 18.39938 27.6758 -0.0108
C 17.16518 29.84361 0.02058
C 14.74376 20.00717 -0.00925
C 15.94891 19.16774 0.01877
C 15.91293 17.75493 0.01363
C 14.7184 17.10375 -0.02162
C 14.81823 15.66935 0.00415
C 15.93097 14.88229 -0.0014
C 15.8842 13.45015 0.02162
C 14.66814 12.71557 0.0076
C 14.652 11.23819 0.01241
C 15.87719 10.62604 -0.01454
C 16.0353 9.19879 0.01945
C 14.78563 8.48919 0.01416
C 14.78434 7.05844 0.03542
C 16.04909 6.33456 0.02299
C 16.0088 4.97839 0.00244
C 14.79527 4.21186 -0.01717
C 14.71598 2.7846 0.05265
C 15.98961 2.13686 -0.01952
C 16.00835 0.77993 -0.02813
C 14.8035 0.00631 0.00374
C 17.19167 32.67423 0.00052
C 18.39635 31.94955 -0.03682
C 18.3298 30.53053 0.01965
C 17.20686 28.37757 -0.01957
C 18.55971 0.66855 -0.02213
C 11.04553 19.19615 -0.01362
C 9.8808 21.32127 -0.04848
C 3.69076 2.23017 -0.02805
C 3.70785 0.77642 0.00081
C 2.42478 0.07259 0.00245
C 4.89864 32.68581 0.02728
C 6.17971 31.99538 -0.00039
C 6.15048 30.53729 0.0064
C 4.88705 29.85482 0.00211
C 4.88816 28.35006 -0.00449
C 6.20208 27.63614 -0.01979
C 6.20271 26.22258 0.02784
C 4.99733 25.58048 -0.01977
C 4.90748 24.22675 -0.00561
C 6.13814 23.44179 0.00208
C 6.13117 22.09123 0.01707
C 4.9158 21.34374 0.02769
C 4.97771 19.85646 -0.03291
C 6.13794 19.17666 -0.04999
C 6.11565 17.75124 0.04505
C 4.7952 16.94063 0.03284
C 4.81372 15.58533 -0.04307
C 6.04636 14.95877 0.03189
C 6.07601 13.56605 0.00031
C 4.88363 12.72534 -0.003
C 2.47802 2.89829 -0.01386
C 4.97401 11.37216 0.01402
C 2.46246 4.32926 -0.0059
C 3.61736 6.4079 -0.02375
C 3.67388 30.44171 -0.04306
C 2.47388 29.74629 -0.03672
C 2.49507 28.38125 0.01913
C 3.72148 27.65312 0.00267
C 3.7262 26.23611 0.00787
C 2.46795 25.60056 0.02426
C 2.37287 24.15067 0.01218
C 3.6082 23.4289 -0.01471
C 3.7532 22.03792 -0.02827
C 2.47798 21.30647 0.01078
C 2.48621 19.84789 -0.00112
C 3.73275 19.07701 0.03345
C 3.67613 17.73107 0.00748
C 2.37576 16.97482 0.00662
C 2.3401 15.52116 -0.0154
C 3.56749 14.86081 -0.01299
C 3.59367 13.41295 -0.00407
C 2.37413 12.722 0.01138
C 2.44608 11.3252 0.03278
C 3.65798 10.68641 -0.00177
C 3.61857 9.19775 0.04421
C 2.35315 8.50792 0.00088
C 2.39453 7.10452 0.00828
C 3.67932 5.06006 0.00558
C 9.82571 19.91315 -0.00892
C 6.19143 10.6381 0.02379
C 4.86093 8.54886 0.00643
C 7.34351 12.86148 0.01305
C 7.35601 11.4725 -0.00077
C 8.63129 10.74047 0.03368
C 8.63456 9.33158 -0.02929
C 7.32222 8.63911 -0.00966
C 7.32324 7.19671 -0.03337
C 8.56584 6.48282 0.01227
C 8.50792 5.04271 0.00873
C 7.38525 4.31431 -0.00049
C 7.38232 2.83812 0.00848
C 8.58146 2.11034 -0.01303
C 8.65716 0.67308 -0.01378
C 7.40073 0.00677 0.02635
C 9.81926 32.62334 0.0127
C 10.89757 30.66282 0.01396
C 9.79652 29.8848 0.01849
C 9.80217 28.40205 -0.01142
C 11.01057 27.74208 -0.00562
C 11.08312 26.29053 -0.00494
C 9.82718 25.64007 0.00054
C 9.91062 24.23271 0.03007
C 11.11286 23.50148 -0.00095
C 11.10102 22.12947 0.01572
C 8.56171 13.59614 0.0276
C 6.14028 9.29167 0.00907
C 8.55133 14.99813 0.00988
C 7.36278 17.05757 0.01087
C 4.89689 7.1586 -0.01509
C 6.09248 6.4579 0.03267
C 6.06743 5.04845 0.02374
C 4.83054 4.26751 0.00402
C 4.9521 2.91005 0.0073
C 6.13907 2.17082 0.0174
C 6.09273 0.81209 0.03828
C 4.84606 0.05025 0.01226
C 7.3886 32.68745 -0.00279
C 8.55395 32.01883 0.01996
C 8.51512 30.56318 -0.03996
C 7.35092 29.89199 0.01465
C 7.3205 28.46044 -0.00074
C 8.53332 27.78452 -0.00518
C 8.60249 26.34226 0.0086
C 7.43425 25.50524 -0.00643
C 7.4377 24.1391 0.017
C 8.6297 23.43997 -0.03113
C 8.65566 21.99295 -0.02566
C 7.38523 21.34253 -0.00094
C 7.391 19.91875 0.02322
C 8.6284 19.19755 -0.00725
C 8.60129 17.77331 -0.05697
C 7.32453 15.67745 -0.01343
C 17.26627 34.0723 0.03698
C 19.70311 32.64183 -0.00109
C 20.93601 31.93096 -0.00491
C 30.77523 13.51076 -0.01303
C 29.58435 12.78312 -0.01461
C 29.51655 11.42803 -0.02155
C 30.7455 10.59068 -0.00944
C 30.68067 9.17008 -0.03735
C 29.51225 8.54291 -0.00971
C 29.48683 7.09254 0.01518
C 30.70028 6.37885 0.01908
C 30.75547 4.92832 0.07705
C 29.49879 4.22486 0.0103
C 29.49963 2.84584 0.02108
C 30.75261 2.15303 0.00716
C 30.78839 0.70812 0.00307
C 29.55765 0.01586 0.00346
C 31.96372 32.60392 0.01713
C 33.26679 31.88563 -0.01694
C 33.16373 30.49685 0.01428
C 31.96137 29.79705 -0.02142
C 31.9695 28.40676 0.0544
C 33.21324 27.69037 0.00026
C 33.24312 26.29309 0.00682
C 31.91882 25.61445 -0.01779
C 31.89899 24.22528 0.03794
C 30.65687 14.89017 -0.0405
C 33.14576 23.45616 0.01927
C 29.46432 15.62405 0.01705
C 30.68854 17.763 -0.00669
C 28.23092 10.64742 0.02611
C 28.24741 9.2637 0.02198
C 27.04006 8.57567 0.01094
C 27.00597 7.09031 0.00235
C 28.20977 6.39697 0.01495
C 28.22158 4.92122 0.01259
C 27.03485 4.29037 0.01799
C 27.09499 2.81026 0.01699
C 28.31158 2.05785 -0.00416
C 28.29416 0.65725 0.01177
C 27.09125 0.0059 0.04266
C 29.55966 32.65395 0.01324
C 30.70167 31.89552 0.0014
C 30.70174 30.47238 0.00924
C 29.46333 29.87573 0.02326
C 29.54662 28.36805 0.00261
C 30.75126 27.69959 0.03265
C 30.74072 26.37117 -0.02049
C 30.76302 23.41528 -0.01854
C 30.52082 22.07986 -0.01415
C 29.29127 21.28928 -0.03039
C 29.50899 19.90168 0.01836
C 30.75153 19.22363 0.03531
C 29.46456 17.03711 0.0101
C 27.08981 11.37504 -0.00621
C 33.14077 22.04555 0.01574
C 32.00672 19.85647 -0.01429
C 34.37448 24.09712 0.03076
C 1.19781 23.45145 0.00723
C 1.28253 21.9972 0.02712
C 0.03499 21.35043 -0.02213
C 0.06376 19.89024 0.01951
C 1.30988 19.1597 -0.01678
C 1.18277 17.74161 0.01223
C 34.36082 17.08459 0.00648
C 34.37567 15.58218 0.02114
C 1.10017 14.86602 -0.02957
C 1.12504 13.44517 0.00343
C 34.38845 12.74443 -0.02656
C 34.3752 11.2835 -0.02442
C 1.15446 10.6045 -0.00027
C 1.15846 9.2548 -0.00583
C 34.34527 8.46512 -0.02302
C 34.41145 7.04562 -0.02849
C 1.24564 6.42954 0.02931
C 1.29371 4.93993 0.00628
C 0.05645 4.17778 -0.0345
C 0.04808 2.74724 -0.00931
C 1.27073 2.13524 -0.00939
C 1.23223 0.7565 -0.00468
C 34.39132 25.56037 -0.05239
C 31.87023 21.37167 -0.02383
C 1.22468 26.23865 -0.00598
C 34.43186 28.37912 -0.01037
C 33.21269 19.23804 -0.0136
C 33.13079 17.75984 0.00594
C 31.95924 17.04356 -0.02474
C 31.96889 15.65049 0.00369
C 33.14436 14.98218 0.00455
C 33.18065 13.48322 -0.00644
C 31.92123 12.78577 -0.01839
C 31.87745 11.35529 0.00137
C 33.21012 10.58889 0.00199
C 33.14619 9.20996 0.04381
C 31.92219 8.36951 0.02806
C 31.98701 6.9569 0.01504
C 33.24065 6.28862 -0.00069
C 33.24505 4.89343 0.04926
C 31.97633 4.23429 -0.03838
C 32.05155 2.80721 0.00349
C 33.22966 2.08351 -0.00323
C 33.20462 0.62569 -0.00841
C 31.95433 33.95499 0.0001
C 0.11132 32.63108 -0.02927
C 1.32638 31.93379 -0.01404
C 1.29365 30.50068 0.01027
C 0.01291 29.77988 0.01831
C 1.18536 27.61936 -0.00439
C 27.03716 12.86715 0.00194
C 28.27836 13.50672 0.04185
C 28.2746 14.91543 0.02316
C 20.89505 2.13067 0.0058
C 20.96042 0.72978 -0.00865
C 19.77216 33.98892 0.00675
C 22.16111 32.59783 -0.00311
C 23.40987 31.91698 0.00742
C 23.34312 30.57687 -0.01594
C 22.08392 29.82303 0.0106
C 22.0727 28.38716 -0.01154
C 23.36346 27.6646 -0.01721
C 23.36026 26.28944 -0.02422
C 22.06173 25.57902 0.01277
C 22.10704 24.16077 0.00096
C 23.3761 23.50653 -0.01527
C 23.31276 22.05761 0.01087
C 22.1177 21.32899 0.00199
C 22.11088 19.96161 0.01511
C 23.30755 19.18467 -0.00478
C 23.3558 17.79737 -0.01662
C 22.17528 17.00557 -0.01185
C 22.16636 15.6183 0.01126
C 23.29389 14.88084 0.01852
C 23.48528 13.54974 -0.00381
C 22.1568 12.75361 0.03046
C 19.65407 2.81586 -0.00652
C 22.18173 11.37145 0.0296
C 19.6809 4.32216 -0.04076
C 20.86151 6.42543 0.00654
C 20.87268 30.48879 0.03338
C 19.60897 29.8142 -0.0258
C 19.68547 28.38389 -0.0331
C 20.88258 27.67829 -0.00316
C 20.84908 26.26732 0.02188
C 19.52014 25.5374 -0.01979
C 19.58503 24.10824 0.02691
C 20.84389 23.48493 -0.01581
C 20.86228 22.01815 0.01452
C 19.64298 21.26029 0.04892
C 19.63185 19.81818 -0.00111
C 20.91165 19.07463 -0.03557
C 20.94712 17.69826 0.03754
C 19.65728 16.97577 0.01739
C 19.65262 15.59537 0.00755
C 20.8899 14.9065 -0.0054
C 20.95955 13.43731 0.00667
C 19.70965 12.79823 0.00143
C 19.64388 11.43076 -0.017
C 20.88517 10.67844 0.00364
C 20.84379 9.19153 -0.00831
C 19.61599 8.58239 -0.02957
C 19.59921 7.20385 -0.04422
C 20.82777 4.99969 -0.00703
C 23.39996 10.64918 0.03374
C 23.31586 9.21789 -0.02845
C 22.08027 8.54014 -0.03213
C 25.89245 10.60492 -0.00938
C 25.77583 9.21856 -0.0264
C 24.55389 8.47214 -0.01154
C 24.55438 7.05659 0.00684
C 25.78778 6.37111 -0.01052
C 25.77976 4.93227 -0.01679
C 24.53489 4.21255 0.00367
C 24.55792 2.83747 0.04306
C 25.82091 2.10294 0.00996
C 25.78479 0.72669 0.00195
C 24.63741 0.05698 -0.00802
C 26.99576 32.66148 -0.00218
C 28.2644 31.96013 -0.01654
C 28.23919 30.5182 -0.00037
C 27.06389 29.8129 -0.0032
C 27.14558 28.33815 0.00622
C 28.32913 27.69887 -0.02815
C 27.05903 21.39691 -0.00942
C 27.03199 19.99079 0.00487
C 28.26377 19.15768 0.00826
C 28.23483 17.73653 -0.00294
C 26.97907 17.00677 0.00152
C 26.99683 15.56045 0.01257
C 24.59754 11.35265 -0.00229
C 24.65091 12.75744 -0.01199
C 25.80994 13.47973 -0.009
C 25.6861 14.88227 -0.00285
C 22.07464 7.02713 0.02239
C 23.24711 6.30525 0.01153
C 23.36546 4.97001 0.02734
C 22.11722 4.29332 -0.0055
C 22.12069 2.83983 0.01515
C 23.33297 2.0887 -0.00225
C 23.396 0.78781 0.00071
C 22.16767 34.05796 -0.01107
C 24.59147 32.68248 -0.01586
C 25.78117 31.96966 -0.01971
C 25.86747 30.48247 -0.02118
C 3.69196 31.93248 -0.00012
C 24.6367 29.82521 0.00733
C 25.85942 27.62729 0.00768
C 25.77954 26.25971 -0.0276
C 24.68207 25.47546 0.03005
C 24.58564 24.05648 -0.04078
C 25.834 22.14576 0.02117
C 24.59524 21.3666 0.02737
C 24.59374 19.96875 -0.00498
C 25.8289 19.15273 0.00135
C 25.8053 17.75068 0.03102
C 24.60869 17.04914 0.02555
C 24.54093 15.63982 0.01423
C 24.62701 28.37428 -0.00178
C 2.52559 32.64867 -0.00198
