376
Graphene
C 34.37148 0.01369 0.01295
C 12.30682 28.41442 0.03542
C 13.51321 27.79478 0.02299
C 13.5008 26.32644 0.00244
C 12.25679 25.62823 -0.01717
C 12.31022 24.3162 0.05265
C 13.40244 23.38386 -0.01952
C 12.73035 22.06809 -0.02813
C 13.364 4.90981 0.00374
C 12.2187 4.10502 0.00052
C 12.2819 2.79979 -0.03682
C 13.51977 2.08468 0.01965
C 13.54803 0.64506 0.02058
C 12.36702 34.02689 -0.01957
C 14.79029 32.61944 -0.0108
C 15.92749 31.94106 -0.00368
C 15.90567 30.42605 -0.02696
C 14.68397 29.80277 -0.00114
C 14.70444 28.48557 0.00228
C 16.01689 27.66943 0.00798
C 12.28229 29.85046 0.01416
C 13.51277 30.57103 0.01945
C 13.52549 31.87282 -0.01454
C 12.25809 32.67404 0.01241
C 11.03933 30.60522 -0.00428
C 9.89787 29.88146 0.03101
C 9.79783 28.46448 -0.01536
C 11.00073 27.76978 -0.02689
C 11.07267 26.39023 -0.01046
C 9.88621 25.7026 -0.00891
C 9.84764 24.26664 0.02819
C 11.09232 23.61627 0.00165
C 11.44802 22.26543 -0.02971
C 15.98493 26.27466 0.00422
C 10.13979 21.4639 0.02894
C 9.80545 8.37303 0.00444
C 10.06841 7.05569 -0.00925
C 11.24642 6.2339 0.01877
C 11.09875 4.83085 0.01363
C 9.78074 4.13308 -0.02162
C 9.8062 2.81847 0.00415
C 11.1108 2.05814 -0.0014
C 11.04181 0.673 0.02162
C 9.79675 0.01961 0.0076
C 10.01992 20.05203 -0.01789
C 11.03256 31.99101 -0.02245
C 14.73412 25.55645 0.0351
C 15.91827 23.57883 0.02098
C 18.42578 0.72615 -0.01979
C 17.14326 34.05494 0.02691
C 19.59309 32.66074 -0.01581
C 20.78527 31.95712 0.01452
C 20.83995 30.47025 0.04892
C 19.61836 29.77652 -0.00111
C 19.67362 28.36881 -0.03557
C 20.88238 27.56189 0.03754
C 20.90024 26.19879 0.01739
C 19.67385 25.43277 0.00755
C 19.69727 24.0668 -0.0054
C 20.9012 23.30284 0.00667
C 20.93505 21.88385 0.00143
C 19.56746 21.422 -0.017
C 19.80642 7.11878 0.00364
C 20.9803 6.2743 -0.00831
C 20.80537 4.89879 -0.02957
C 19.58245 4.27944 -0.04422
C 19.62288 2.79986 0.00654
C 18.43038 2.10782 0.02188
C 17.14789 2.85322 -0.00316
C 17.14743 4.32432 -0.0331
C 18.41848 5.02908 -0.0258
C 16.0429 6.49202 0.01848
C 15.86257 4.98047 -0.00619
C 14.6198 4.20184 -0.02162
C 14.67154 2.77293 0.00889
C 15.96761 2.15202 -0.00481
C 15.94144 0.7513 0.00979
C 14.74259 34.03931 0.01443
C 17.14682 32.62237 0.03505
C 18.37763 31.9059 -0.02815
C 14.70951 24.08562 -0.03113
C 18.37515 30.49625 -0.04147
C 17.21818 28.3481 0.00213
C 18.45755 27.66932 -0.00066
C 18.55917 26.2524 -0.00289
C 17.32663 25.59492 0.00028
C 17.21443 24.20469 -0.02213
C 18.47732 23.42796 0.03698
C 18.54236 22.01367 -0.00109
C 17.13197 7.01095 -0.00491
C 18.50423 6.49261 0.03338
C 17.15318 29.74525 -0.05302
C 20.83585 2.11337 -0.00703
C 9.79701 32.68936 0.00985
C 8.56205 0.75957 -0.01111
C 3.61696 5.00806 0.0276
C 2.41945 4.29451 0.01305
C 2.35965 2.90278 -0.00077
C 3.64195 2.14998 0.03368
C 3.66726 0.75129 -0.02929
C 2.36246 34.07827 -0.00966
C 4.8977 32.70663 -0.03337
C 6.11575 32.06474 0.01227
C 6.08645 30.59563 0.00873
C 4.7939 29.88138 -0.00049
C 4.91107 28.46354 0.00848
C 6.16561 27.75564 -0.01303
C 6.13796 26.415 -0.01378
C 4.87063 25.61922 0.02635
C 4.89035 24.1362 0.0127
C 6.0823 23.45473 0.01396
C 6.16607 22.04469 0.01849
C 4.92647 21.31061 -0.01142
C 4.95727 19.88354 -0.00562
C 3.58097 6.39137 0.00988
C 2.41814 7.06058 -0.01343
C 2.46404 8.61169 0.01087
C 3.65662 9.32165 -0.05697
C 3.60159 30.55454 0.02374
C 2.34648 29.86839 0.00402
C 2.46913 28.42792 0.0073
C 3.6939 27.77304 0.0174
C 3.60509 26.25202 0.03828
C 2.44789 25.53439 0.01226
C 2.40168 24.17136 -0.00279
C 3.67781 23.43178 0.01996
C 3.69215 22.0264 -0.03996
C 6.28505 19.13019 -0.00494
C 2.3941 21.34365 0.01465
C 3.7477 19.21389 -0.00518
C 3.72916 17.7767 0.0086
C 2.46708 17.08368 -0.00643
C 2.46311 15.74974 0.017
C 3.67852 15.03596 -0.03113
C 3.63754 13.63836 -0.02566
C 2.39751 12.86571 -0.00094
C 2.43578 11.40291 0.02322
C 3.69287 10.68722 -0.00725
C 2.44873 19.9071 -0.00074
C 7.28943 0.041 -0.01275
C 6.25222 17.76624 0.00054
C 4.91721 15.74821 -0.00095
C 8.62695 23.52862 0.01291
C 8.78875 22.13926 0.00093
C 7.47657 21.34303 0.00057
C 7.55251 19.93942 -0.01634
C 8.94097 19.21593 -0.00334
C 8.66445 17.93928 0.02339
C 7.51891 16.93892 0.01641
C 7.47477 15.48288 -0.00719
C 7.32321 12.87591 0.01364
C 7.36062 11.42593 -0.01062
C 8.46329 10.60781 -0.00033
C 8.67243 9.31339 0.03589
C 7.38614 8.62102 -0.02759
C 7.44571 7.18481 0.0402
C 8.67694 6.40384 0.00572
C 8.59068 4.97389 0.03592
C 7.37531 4.28122 0.00406
C 7.35818 2.85037 0.00943
C 8.55776 2.14823 0.02841
C 7.401 24.23093 0.00438
C 7.39501 25.69818 -0.00191
C 8.63288 26.45677 0.00373
C 8.5755 27.81598 0.02147
C 6.11653 14.98692 0.01572
C 6.05044 13.43891 -0.04848
C 4.81928 12.80163 -0.00892
C 4.90231 11.41219 -0.01362
C 6.13485 10.70447 -0.0008
C 6.17394 9.2762 0.0288
C 4.84164 8.57235 0.00393
C 4.89547 7.15404 0.00895
C 6.18317 6.4615 0.00685
C 4.98399 17.13054 0.03007
C 6.15182 5.03903 0.02888
C 4.89711 2.92736 -0.01384
C 6.17618 2.16122 0.03693
C 6.08747 0.77434 0.01745
C 4.88527 0.04287 0.00488
C 7.30468 32.73925 -0.01004
C 8.50764 32.00267 -0.02896
C 8.58551 30.6056 -0.00131
C 7.33301 29.87928 -0.01118
C 7.35273 28.50744 -0.014
C 4.93857 4.26168 -0.00482
C 20.77833 0.75231 -0.04076
C 19.58317 0.00782 -0.00652
C 22.03703 32.59856 0.0058
C 30.75138 2.16839 0.00716
C 30.71943 0.72021 0.00307
C 29.45341 0.06533 0.00346
C 31.90262 32.66366 0.01713
C 33.12914 32.01947 -0.01694
C 33.1532 30.55538 0.01428
C 32.0151 29.86536 -0.02142
C 31.96761 28.37481 0.0544
C 33.18022 27.70051 0.00026
C 33.22273 26.25461 0.00682
C 32.007 25.51606 -0.01779
C 31.9141 24.1522 0.03794
C 33.15553 23.42623 0.01927
C 33.10403 21.9992 0.01574
C 31.85286 21.24333 -0.02383
C 31.88592 19.8653 -0.01429
C 33.15949 19.12454 -0.0136
C 33.1387 17.72944 0.00594
C 31.95022 17.09364 -0.02474
C 29.50478 2.82509 0.02108
C 29.43109 4.28696 0.0103
C 30.67684 4.99164 0.07705
C 30.77992 6.41436 0.01908
C 30.73429 27.65453 0.02326
C 30.72522 26.26921 0.00261
C 29.53925 25.62061 0.03265
C 29.46576 24.12578 -0.02049
C 30.62576 23.42097 -0.01854
C 30.61184 22.01926 -0.01415
C 29.41742 21.3377 -0.03039
C 29.53108 19.86775 0.01836
C 30.68442 19.17692 0.03531
C 31.92062 15.64127 0.00369
C 30.68215 17.76158 -0.00669
C 29.41741 15.64311 0.01705
C 30.671 14.89078 -0.0405
C 30.69208 13.53101 -0.01303
C 29.46302 12.83249 -0.01461
C 29.45898 11.34096 -0.02155
C 30.74532 10.65545 -0.00944
C 30.74105 9.26649 -0.03735
C 29.52116 8.51609 -0.00971
C 29.49619 7.03078 0.01518
C 29.48625 17.08065 0.0101
C 29.56007 28.38139 0.00924
C 33.13223 14.97955 0.00455
C 32.01459 12.80865 -0.01839
C 34.30546 19.87348 0.01951
C 1.17383 19.21018 -0.01678
C 1.25435 17.78722 0.01223
C 34.36621 17.0258 0.00648
C 0.03115 15.66421 0.02114
C 1.21324 14.99773 -0.02957
C 1.23263 13.5575 0.00343
C 0.0506 12.8036 -0.02656
C 0.02023 11.45568 -0.02442
C 1.21333 10.74178 -0.00027
C 1.16946 9.28302 -0.00583
C 0.00324 8.56514 -0.02302
C 34.41066 7.12198 -0.02849
C 1.18962 6.48612 0.02931
C 1.21118 5.02053 0.00628
C 0.02811 4.31864 -0.0345
C 34.35469 2.89672 -0.00931
C 1.18589 2.21295 -0.00939
C 1.06488 0.75984 -0.00468
C 34.30067 21.28989 -0.02213
C 1.18661 21.99965 0.02712
C 1.20146 23.44813 0.00723
C 0.01279 24.082 0.03076
C 31.9874 11.40428 0.00137
C 33.21977 10.69433 0.00199
C 33.2408 9.25089 0.04381
C 32.02224 8.54703 0.02806
C 32.03596 7.10305 0.01504
C 33.19226 6.35275 -0.00069
C 33.22144 4.94965 0.04926
C 31.94664 4.26143 -0.03838
C 31.94615 2.86168 0.00349
C 33.25354 13.59285 -0.00644
C 33.11666 2.11814 -0.00323
C 31.93151 0.0228 0.0001
C 34.32291 32.68747 -0.02927
C 1.11772 31.98344 -0.01404
C 1.12061 30.60494 0.01027
C 34.38556 29.86053 0.01831
C 34.4101 28.4654 -0.01037
C 1.22907 27.71941 -0.00439
C 1.23581 26.28517 -0.00598
C 0.03171 25.56752 -0.05239
C 33.12265 0.69256 -0.00841
C 29.47278 29.80458 0.0014
C 30.78143 30.52043 0.01324
C 30.71713 31.97259 0.04266
C 23.24863 0.66268 -0.02845
C 22.01401 34.0633 -0.03213
C 24.55989 32.5956 0.02239
C 25.82308 31.8962 0.01153
C 25.8078 30.47731 0.02734
C 24.60127 29.76512 -0.0055
C 24.60714 28.41861 0.01515
C 25.85501 27.62359 -0.00225
C 25.86355 26.21009 0.00071
C 24.61377 25.5744 -0.01107
C 24.56947 24.1306 -0.01586
C 25.83962 23.35536 -0.01971
C 25.834 21.97735 -0.02118
C 24.60241 21.22602 0.00733
C 24.53719 19.79082 -0.00178
C 25.74911 19.00195 0.00768
C 25.66176 17.64229 -0.0276
C 24.39726 16.77424 0.03005
C 24.4351 15.25131 -0.04078
C 23.35477 2.03835 0.03374
C 22.0661 2.82039 0.0296
C 22.05106 4.20895 0.03046
C 23.32292 4.8443 -0.00381
C 23.29071 31.9095 -0.00865
C 23.31261 30.42279 0.00675
C 22.09244 29.79829 -0.00311
C 22.05809 28.35818 0.00742
C 23.41264 27.65159 -0.01594
C 23.36633 26.20401 0.0106
C 22.11455 25.47106 -0.01154
C 22.09196 24.05268 -0.01721
C 23.40315 23.30154 -0.02422
C 25.77939 14.85772 0.02117
C 23.36763 21.95097 0.01277
C 22.23126 19.8287 -0.01527
C 23.35853 18.99455 0.01087
C 23.33657 17.56735 0.00199
C 23.53765 13.97589 0.01511
C 23.45653 10.68774 -0.00478
C 23.19773 9.2853 -0.01662
C 22.07456 8.47063 -0.01185
C 22.15033 7.01335 0.01126
C 23.36028 6.31079 0.01852
C 22.11046 21.20949 0.00096
C 25.86568 13.46239 0.02737
C 24.58882 12.85964 -0.00498
C 24.63714 11.40595 0.00135
C 28.31192 19.16823 -0.00942
C 28.22192 17.81801 0.00487
C 26.99092 17.03958 0.00826
C 26.99777 15.64637 -0.00294
C 28.22214 14.89099 0.00152
C 28.24723 13.51864 0.01257
C 27.00131 12.78637 0.02316
C 27.08176 11.33347 0.04185
C 28.29728 10.65195 0.00194
C 26.95245 19.85652 -0.02815
C 28.22736 9.17582 -0.00621
C 26.99291 7.12584 0.02198
C 28.27052 6.37472 0.01094
C 28.28518 4.95542 0.00235
C 27.00619 4.21809 0.01495
C 26.99062 2.85569 0.01259
C 28.18857 2.11813 0.01799
C 28.29464 0.7201 0.01699
C 26.92591 34.02963 -0.00416
C 29.50245 32.66608 0.01177
C 27.01953 8.47839 0.02611
C 3.6032 32.00157 0.03267
C 27.00675 21.25469 0.00622
C 28.30933 23.39862 -0.00037
C 25.85914 10.70298 0.03102
C 25.84459 9.28519 0.02555
C 24.53088 8.58801 0.01423
C 24.5472 7.14847 -0.00285
C 25.73277 6.37143 -0.009
C 25.83215 4.90991 -0.01199
C 24.59761 4.24593 -0.00229
C 24.56422 2.80086 -0.00938
C 25.74678 2.05746 -0.0264
C 28.27336 22.03609 -0.0032
C 25.78077 0.60355 -0.01154
C 27.02139 32.59022 -0.01052
C 28.22042 31.91004 -0.01679
C 28.19703 30.49035 0.00367
C 27.05205 29.76732 0.04306
C 27.08511 28.30606 0.00996
C 28.26065 27.60951 0.00195
C 28.29701 26.22537 -0.00802
C 27.08646 25.47954 -0.00218
C 27.06163 24.02828 -0.01654
C 24.54437 34.01849 0.00684
C 2.44096 32.7404 -0.01509
