332
Graphene
C 34.36209 34.0243 0.01295
C 18.46696 31.88793 0.03505
C 18.43708 30.55708 -0.02815
C 17.22101 29.91989 -0.04147
C 17.1563 28.50695 -0.05302
C 18.4253 27.76998 0.00213
C 18.47659 26.3927 -0.00066
C 18.54795 18.97512 -0.00289
C 17.18195 32.61458 0.01443
C 18.3677 17.64961 0.00028
C 17.15698 15.61009 0.03698
C 18.47341 14.87279 -0.00109
C 18.48923 13.39039 -0.00491
C 18.71579 10.05647 0.03338
C 18.61069 6.45655 -0.0258
C 18.33009 5.0866 -0.0331
C 17.27528 4.10074 -0.00316
C 17.13137 17.02069 -0.02213
C 14.77503 33.99358 0.00979
C 16.04281 0.59024 -0.00481
C 15.90757 1.98031 0.00889
C 13.4692 30.59775 -0.03682
C 12.25684 29.81987 0.01965
C 12.20466 28.3339 0.02058
C 13.41029 27.94079 -0.01957
C 12.66884 17.5848 -0.0108
C 13.72213 0.74985 -0.00368
C 12.38975 0.26305 -0.02696
C 14.78583 32.61808 -0.00114
C 15.98904 31.91794 0.00228
C 15.94905 30.45729 0.00798
C 14.73366 29.78183 0.00422
C 14.71205 28.28759 0.0351
C 15.96398 27.78568 -0.03113
C 15.88828 17.72749 0.02098
C 14.74624 16.82087 0.01848
C 14.85918 15.41828 -0.00619
C 15.91437 14.78478 -0.02162
C 17.07477 2.76396 0.02188
C 18.39 2.02022 -0.01979
C 18.45095 0.69457 0.02691
C 17.24046 34.03748 -0.01581
C 21.00226 10.72343 0.00675
C 21.04378 9.29399 -0.00311
C 19.63971 8.944 0.00742
C 19.68349 7.33055 -0.01594
C 21.09161 6.42053 0.0106
C 20.83975 5.05038 -0.01154
C 19.56032 4.33889 -0.01721
C 19.55821 2.84841 -0.02422
C 20.81592 2.07493 0.01277
C 20.92656 0.71961 0.00096
C 19.68041 34.03616 -0.01527
C 22.15476 32.67106 0.01087
C 23.36149 31.88839 0.00199
C 23.35312 30.41222 0.01511
C 22.13335 29.86805 -0.00478
C 22.07655 28.37316 -0.01662
C 23.30387 27.69731 -0.01185
C 19.74584 11.18295 -0.00865
C 13.54266 31.99563 0.00052
C 19.57585 12.67129 0.0058
C 20.91456 14.81 -0.04076
C 19.64636 32.59203 0.01452
C 20.92828 31.9505 0.04892
C 20.9191 30.58699 -0.00111
C 19.68861 29.84191 -0.03557
C 19.70085 28.44687 0.03754
C 20.84916 27.73806 0.01739
C 20.71653 26.32032 0.00755
C 19.53163 25.52573 -0.0054
C 19.71182 24.1064 0.00667
C 20.87922 23.47164 0.00143
C 20.88744 22.00241 -0.017
C 19.69122 21.2914 0.00364
C 19.45173 19.9629 -0.00831
C 20.7677 19.24219 -0.02957
C 20.79297 17.81177 -0.04422
C 19.57189 16.99836 0.00654
C 19.68877 15.54389 -0.00703
C 20.92912 13.42987 -0.00652
C 23.28388 26.25183 0.01126
C 12.2876 32.85092 0.00374
C 11.0159 0.75443 -0.01952
C 2.43321 8.48303 -0.01118
C 2.47538 7.07596 -0.014
C 3.65672 6.36872 0.02147
C 3.77122 4.96039 0.00373
C 2.52805 4.24896 -0.00191
C 2.54285 2.76079 0.00438
C 3.7419 2.10381 0.01291
C 3.58239 9.33717 -0.00131
C 3.66513 0.74566 0.00093
C 4.92045 32.66272 -0.01634
C 6.15612 32.00305 -0.00334
C 6.13673 30.62189 0.02339
C 4.95729 29.89218 0.01641
C 4.9044 28.52933 -0.00719
C 6.11792 27.77719 0.01364
C 6.11895 26.37951 -0.01062
C 2.48629 34.07137 0.00057
C 3.63137 10.60111 -0.02896
C 2.36517 11.38975 -0.01004
C 2.34858 12.7807 0.00488
C 3.70003 30.60735 0.00054
C 2.48863 29.97631 0.03007
C 2.49542 28.49461 -0.00095
C 3.70457 27.8467 0.01572
C 3.66259 26.32327 -0.04848
C 2.46206 25.58186 -0.00892
C 2.49072 24.19542 -0.01362
C 3.78303 23.50865 -0.0008
C 3.76398 22.04214 0.0288
C 2.51473 21.35352 0.00393
C 2.45689 19.91919 0.00895
C 3.7085 19.10182 0.00685
C 3.71528 17.74037 0.02888
C 2.39439 17.03297 -0.00482
C 2.38199 15.63773 -0.01384
C 3.52569 14.90322 0.03693
C 3.60446 13.42752 0.01745
C 4.85393 25.66054 -0.00033
C 4.90953 24.22101 0.03589
C 6.1748 23.50702 -0.02759
C 6.10539 22.23281 0.0402
C 7.43536 19.67953 -0.00925
C 8.38673 18.98709 0.01877
C 8.63459 17.60708 0.01363
C 7.36698 16.83589 -0.02162
C 7.10335 15.53445 0.00415
C 7.91371 2.30737 -0.0014
C 8.50152 0.89906 0.02162
C 7.38499 0.04071 0.0076
C 9.81838 32.80938 0.01241
C 11.08946 32.13663 -0.01454
C 11.03325 30.66182 0.01945
C 9.78098 29.86545 0.01416
C 9.78523 28.44891 0.03542
C 10.96373 27.60506 0.02299
C 10.66933 26.21379 0.00244
C 11.40527 17.06231 -0.01717
C 10.04884 17.34581 0.05265
C 7.44565 25.74233 0.00444
C 9.78679 0.22386 -0.02813
C 8.65118 26.33675 -0.01789
C 7.3779 28.45467 -0.02971
C 4.95982 21.31445 0.00572
C 4.8633 19.93677 0.03592
C 6.04185 19.1086 0.00406
C 6.18088 17.68838 0.00943
C 4.88177 17.01912 0.02841
C 4.76787 15.51278 -0.01111
C 6.12529 14.82935 -0.01275
C 4.82888 12.66819 0.00985
C 4.77547 4.13434 -0.02245
C 5.06509 2.77051 -0.00428
C 6.46485 2.10748 0.03101
C 6.12097 0.69406 -0.01536
C 4.91626 0.03776 -0.02689
C 7.35198 32.68224 -0.01046
C 8.65952 32.04242 -0.00891
C 8.66768 30.61435 0.02819
C 7.39342 29.86141 0.00165
C 8.51101 27.80038 0.02894
C 22.03672 25.61432 0.01852
C 22.11067 24.24271 -0.00381
C 23.36764 23.49817 0.03046
C 33.19882 27.75108 0.00026
C 33.16359 26.3556 0.00682
C 31.93792 25.62848 -0.01779
C 31.98583 24.24377 0.03794
C 33.13292 23.47341 0.01927
C 33.2018 22.1052 0.01574
C 31.97764 21.36407 -0.02383
C 31.94618 28.41644 0.0544
C 31.97559 19.97915 -0.01429
C 33.11203 17.76392 0.00594
C 31.89783 17.08879 -0.02474
C 31.92446 15.66955 0.00369
C 33.14331 15.01345 0.00455
C 33.09016 13.53489 -0.00644
C 31.90911 12.80197 -0.01839
C 31.96393 11.36942 0.00137
C 33.17651 19.18785 -0.0136
C 31.98627 29.90299 -0.02142
C 33.15157 30.54963 0.01428
C 33.11451 32.00622 -0.01694
C 30.6397 17.82664 0.01705
C 29.50103 17.03089 -0.0405
C 29.45551 15.6131 -0.01303
C 30.67727 14.9273 -0.01461
C 30.59731 13.50428 -0.02155
C 29.38478 12.61502 -0.00944
C 29.49062 11.2257 -0.03735
C 30.73966 10.52589 -0.00971
C 30.79285 9.14654 0.01518
C 30.87088 6.37982 0.01908
C 30.68563 4.97705 0.07705
C 29.47262 4.2005 0.0103
C 29.56288 2.77152 0.02108
C 30.74531 2.14078 0.00716
C 30.69744 0.66025 0.00307
C 29.45571 34.01489 0.00346
C 31.90432 32.6914 0.01713
C 33.14564 10.64718 0.00199
C 33.21539 9.23157 0.04381
C 32.06633 8.49975 0.02806
C 32.08431 7.12793 0.01504
C 1.18443 17.75494 0.01223
C 34.36956 17.03069 0.00648
C 34.33957 15.68133 0.02114
C 1.072 14.97862 -0.02957
C 1.14774 13.50503 0.00343
C 34.28896 12.8137 -0.02656
C 34.3746 11.42036 -0.02442
C 1.14727 10.67803 -0.00027
C 1.19609 9.26782 -0.00583
C 34.39893 8.52246 -0.02302
C 34.43148 7.06091 -0.02849
C 1.29538 6.33918 0.02931
C 1.24514 4.95364 0.00628
C 0.02062 4.21515 -0.0345
C 34.41595 2.77504 -0.00931
C 1.25222 2.11408 -0.00939
C 1.13608 0.64579 -0.00468
C 1.18952 19.20862 -0.01678
C 30.73102 19.25886 0.0101
C 0.00301 19.92201 0.01951
C 1.29112 22.08561 0.02712
C 33.19146 6.36153 -0.00069
C 33.18951 4.91351 0.04926
C 31.86909 4.24091 -0.03838
C 31.89822 2.8836 0.00349
C 33.17559 2.09948 -0.00323
C 33.11084 0.64853 -0.00841
C 31.92015 34.04969 0.0001
C 34.37996 32.6242 -0.02927
C 1.22723 31.97765 -0.01404
C 1.2501 30.61763 0.01027
C 34.36491 29.8944 0.01831
C 34.42172 28.50137 -0.01037
C 1.22028 27.83808 -0.00439
C 1.26471 26.38271 -0.00598
C 0.01739 25.62243 -0.05239
C 0.0252 24.23563 0.03076
C 1.28018 23.48841 0.00723
C 34.39259 21.37503 -0.02213
C 29.49805 19.92997 -0.00669
C 29.51717 21.33701 0.03531
C 30.75378 22.13982 0.01836
C 25.78175 30.46492 0.02117
C 24.59952 29.78111 0.02737
C 24.53647 28.40192 -0.00498
C 25.82718 27.63957 0.00135
C 25.74832 26.21692 0.03102
C 24.56309 25.5691 0.02555
C 24.55808 24.14373 0.01423
C 25.73555 23.47891 -0.00285
C 25.79262 21.9912 -0.009
C 24.64262 21.27109 -0.01199
C 24.59472 19.84191 -0.00229
C 25.82354 19.13844 -0.00938
C 25.81764 17.76791 -0.0264
C 24.60465 17.04662 -0.01154
C 24.59272 15.61458 0.00684
C 25.80209 14.86213 -0.01052
C 25.77039 13.42263 -0.01679
C 25.839 31.91189 -0.04078
C 24.58107 12.71921 0.00367
C 24.6387 32.63023 0.03005
C 23.36284 0.70689 0.00768
C 23.40897 22.0065 0.0296
C 22.14957 21.26594 0.03374
C 22.06407 19.87884 -0.02845
C 23.31714 19.15526 -0.03213
C 23.38673 17.79239 0.02239
C 22.05799 17.09682 0.01153
C 22.16092 15.59497 0.02734
C 23.41222 14.80151 -0.0055
C 23.37357 13.39093 0.01515
C 22.10134 12.70942 -0.00225
C 22.24069 11.41516 0.00071
C 23.33464 10.56476 -0.01107
C 22.31554 8.66701 -0.01586
C 22.24193 7.25866 -0.01971
C 21.93291 4.15909 -0.02118
C 22.04347 2.77829 0.00733
C 23.33983 2.0271 -0.00178
C 22.14857 34.04114 -0.0276
C 3.67478 32.02285 -0.00494
C 24.57629 11.32487 0.04306
C 25.8693 2.19514 0.00195
C 26.89068 12.76215 0.01495
C 27.00979 11.33717 0.01259
C 28.09098 10.57453 0.01799
C 27.16104 2.81749 0.01699
C 28.29061 2.06521 -0.00416
C 28.2474 0.65572 0.01177
C 27.04713 34.02573 0.04266
C 29.50587 32.61147 0.01324
C 30.68978 31.93747 0.0014
C 30.68448 30.52005 0.00924
C 29.48746 29.81403 0.02326
C 29.47793 28.44072 0.00261
C 30.7586 27.68146 0.03265
C 30.75943 26.29271 -0.02049
C 29.47451 25.61438 -0.01854
C 29.48477 24.1869 -0.01415
C 30.76263 23.52273 -0.03039
C 28.1601 13.39251 0.00235
C 24.54374 2.78567 0.00996
C 28.16536 14.8791 0.01094
C 27.00132 17.08668 0.02611
C 25.79163 0.76585 -0.00802
C 24.63613 34.01192 -0.00218
C 27.01608 32.59034 -0.01654
C 28.24106 31.90058 -0.00037
C 28.23633 30.43009 -0.0032
C 27.03532 29.72476 0.00622
C 26.99849 28.2856 -0.02815
C 28.2817 27.56819 -0.00942
C 28.27426 26.17479 0.00487
C 26.98142 25.4731 0.00826
C 27.03034 24.11221 -0.00294
C 28.26265 23.47751 0.00152
C 28.26695 22.03785 0.01257
C 27.01397 21.32216 0.02316
C 27.04709 19.8932 0.04185
C 28.27482 19.21289 0.00194
C 28.24811 17.78628 -0.00621
C 26.95366 15.63798 0.02198
C 2.45521 32.71686 -0.00562
