399
Graphene
C 0.01292 0.02049 0.01295
C 16.02609 23.4249 -0.02971
C 15.95272 22.04563 0.02894
C 14.74646 21.34347 -0.01789
C 14.76379 19.86048 0.00444
C 16.0077 19.20149 -0.00925
C 16.004 17.76258 0.01877
C 14.73529 17.01396 0.01363
C 14.75034 15.5814 -0.02162
C 15.92431 14.85099 0.00415
C 16.00306 6.3794 -0.0014
C 16.02405 5.00618 0.02162
C 14.78154 4.20477 0.0076
C 14.77864 2.82812 0.01241
C 16.02645 2.09046 -0.01454
C 15.95684 0.76924 0.01945
C 14.75116 0.01355 0.01416
C 17.20667 32.61205 0.03542
C 18.44865 31.92501 0.02299
C 18.49674 30.47519 0.00244
C 17.19138 29.80817 -0.01717
C 17.21785 28.41425 0.05265
C 14.76481 24.12338 0.00165
C 18.41201 27.69668 -0.01952
C 14.72553 25.5904 0.02819
C 16.02608 27.73874 -0.01046
C 13.55486 27.71963 0.01641
C 13.56943 26.29558 -0.00719
C 12.30488 25.58801 0.01364
C 12.30505 24.19307 -0.01062
C 13.52699 23.43013 -0.00033
C 13.52969 22.02646 0.03589
C 12.29821 21.3445 -0.02759
C 12.28597 19.89575 0.0402
C 13.50488 19.21154 0.00572
C 13.5119 17.7302 0.03592
C 12.30008 17.04785 0.00406
C 12.31075 4.26254 0.00943
C 12.34337 2.85914 0.02841
C 13.50212 2.08692 -0.01111
C 13.5243 0.77005 -0.01275
C 12.31936 34.05693 0.00985
C 14.7098 32.66393 -0.02245
C 15.98177 31.9568 -0.00428
C 16.03755 30.53769 0.03101
C 14.7437 29.81963 -0.01536
C 14.77003 28.40753 -0.02689
C 15.99961 26.32795 -0.00891
C 12.29563 28.43791 0.02339
C 18.42449 26.21734 -0.02813
C 17.2023 24.10843 0.00052
C 20.9022 30.55506 0.00213
C 19.67122 29.79009 -0.00066
C 19.65321 28.40682 -0.00289
C 20.93883 27.71071 0.00028
C 20.93746 26.25244 -0.02213
C 19.71072 25.61309 0.03698
C 19.6787 24.07481 -0.00109
C 20.91315 23.40604 -0.00491
C 20.89654 21.99639 0.03338
C 19.7103 21.26878 -0.0258
C 19.63303 19.86919 -0.0331
C 20.86446 19.18047 -0.00316
C 20.91873 17.72345 0.02188
C 19.71481 17.01636 -0.01979
C 19.67118 15.67247 0.02691
C 20.88029 14.90714 -0.01581
C 20.88292 13.49763 0.01452
C 19.63668 12.79257 0.04892
C 19.68575 11.39227 -0.00111
C 20.88058 10.6396 -0.03557
C 20.94834 9.2088 0.03754
C 20.91129 31.97071 -0.05302
C 17.22918 25.55876 0.00374
C 19.69601 32.70363 -0.04147
C 18.46322 0.705 0.03505
C 18.46772 23.44702 -0.03682
C 18.46072 21.98342 0.01965
C 17.20251 21.25667 0.02058
C 17.19825 19.87762 -0.01957
C 18.47178 19.19026 -0.0108
C 18.44091 17.75096 -0.00368
C 17.19954 17.02106 -0.02696
C 17.18569 15.61946 -0.00114
C 18.44471 14.92153 0.00228
C 18.39898 13.48312 0.00798
C 17.17817 12.80997 0.00422
C 17.25763 11.34448 0.0351
C 18.41638 10.61615 -0.03113
C 18.43585 9.17515 0.02098
C 17.20107 8.48681 0.01848
C 17.22494 7.09753 -0.00619
C 18.41504 6.39194 -0.02162
C 18.45819 4.96814 0.00889
C 17.23503 4.28019 -0.00481
C 17.17916 2.87045 0.00979
C 18.47595 2.12072 0.01443
C 17.19002 34.07847 -0.02815
C 19.67811 8.50941 0.01739
C 12.32196 29.86378 -0.00334
C 13.54156 31.90271 0.00057
C 2.45806 4.27703 0.0073
C 2.43536 2.86217 0.0174
C 3.65195 2.12023 0.03828
C 3.69601 0.70031 0.01226
C 2.41528 0.06874 -0.00279
C 4.94244 32.63064 0.01996
C 6.15762 31.97236 -0.03996
C 6.16975 30.54289 0.01465
C 4.92423 29.82551 -0.00074
C 4.89544 28.44815 -0.00518
C 6.19714 27.71478 0.0086
C 6.1374 26.25119 -0.00643
C 4.8896 25.57867 0.017
C 4.90875 24.15734 -0.03113
C 6.1824 23.39464 -0.02566
C 6.17509 22.02593 -0.00094
C 4.88853 21.27122 0.02322
C 4.98412 19.83715 -0.00725
C 6.15512 19.17074 -0.05697
C 6.10899 17.75123 0.01087
C 4.90416 17.08894 -0.01343
C 3.72273 4.97562 0.00402
C 4.92941 15.61907 0.00988
C 3.69843 6.42608 0.02374
C 2.48064 8.51649 -0.01509
C 3.67521 30.48944 0.00211
C 2.50511 29.7873 -0.00449
C 2.41069 28.34003 -0.01979
C 3.66037 27.74193 0.02784
C 3.63308 26.29926 -0.01977
C 2.44564 25.555 -0.00561
C 2.49475 24.17043 0.00208
C 3.70022 23.39259 0.01707
C 3.73378 22.05189 0.02769
C 2.51493 21.31185 -0.03291
C 2.47755 19.89704 -0.04999
C 3.69778 19.15185 0.04505
C 3.64722 17.6895 0.03284
C 2.43126 17.0053 -0.04307
C 2.46355 15.5994 0.03189
C 3.70418 14.88064 0.00031
C 3.67594 13.52934 -0.003
C 2.44919 12.83661 0.01402
C 2.42926 11.38329 0.02379
C 3.73054 10.65393 0.00907
C 3.72551 9.24993 0.00643
C 2.47966 7.11172 0.03267
C 13.50637 30.47808 -0.01634
C 4.87674 7.11649 0.0276
C 4.88833 4.29324 -0.00077
C 9.81723 32.6253 0.0288
C 11.08134 31.96735 0.00393
C 11.06645 30.55983 0.00895
C 9.82441 29.85558 0.00685
C 9.86549 28.34422 0.02888
C 11.0566 27.71209 -0.00482
C 11.04444 26.26572 -0.01384
C 9.86532 25.56916 0.03693
C 9.82072 24.11507 0.01745
C 11.05774 23.44513 0.00488
C 11.05759 22.04462 -0.01004
C 9.82304 21.33444 -0.02896
C 9.82173 19.93341 -0.00131
C 11.11458 19.14505 -0.01118
C 11.05676 17.77273 -0.014
C 9.82583 17.0703 0.02147
C 9.8641 2.87769 0.00373
C 11.03933 2.21511 -0.00191
C 11.08372 0.73226 0.00438
C 9.8294 0.02204 0.01291
C 12.27656 32.66217 0.00093
C 7.36969 0.05197 -0.0008
C 6.16982 4.96669 0.01305
C 8.59784 0.70106 -0.01362
C 7.33658 2.86111 -0.04848
C 4.90076 2.8868 0.03368
C 6.17819 2.12089 -0.02929
C 6.11101 0.71562 -0.00966
C 4.8766 0.02063 -0.03337
C 7.37957 32.64774 0.01227
C 8.6541 31.96359 0.00873
C 8.58338 30.55921 -0.00049
C 7.35234 29.83071 0.00848
C 7.44079 28.44627 -0.01303
C 8.62814 27.68689 -0.01378
C 8.62029 26.2773 0.02635
C 7.35054 25.56758 0.0127
C 7.38686 24.13301 0.01396
C 8.59974 23.47618 0.01849
C 8.57385 22.02292 -0.01142
C 7.33716 21.28531 -0.00562
C 7.36451 19.80836 -0.00494
C 8.63062 19.20312 0.00054
C 8.57264 17.71911 0.03007
C 7.38386 17.05814 -0.00095
C 7.3273 4.25977 0.01572
C 8.61796 2.12456 -0.00892
C 3.66097 31.95905 0.0064
C 19.68829 7.09025 0.00755
C 20.91534 5.00818 0.00667
C 29.51153 7.0847 0.01518
C 30.74448 6.41219 0.01908
C 30.73815 4.97998 0.07705
C 29.45544 4.28599 0.0103
C 29.55285 2.85243 0.02108
C 30.75424 2.08474 0.00716
C 30.78684 0.67298 0.00307
C 29.50978 34.07442 0.00346
C 31.94904 32.66911 0.01713
C 33.2191 31.95134 -0.01694
C 33.19924 30.52076 0.01428
C 31.97843 29.79653 -0.02142
C 31.98408 28.41438 0.0544
C 33.24013 27.73369 0.00026
C 33.19352 26.22275 0.00682
C 31.99048 25.52473 -0.01779
C 31.99353 24.1615 0.03794
C 33.2161 23.44176 0.01927
C 33.21819 21.9638 0.01574
C 31.96785 21.31929 -0.02383
C 32.00939 19.85728 -0.01429
C 29.47432 8.48821 -0.00971
C 33.18702 19.19474 -0.0136
C 30.722 9.24293 -0.03735
C 29.50382 11.38286 -0.02155
C 27.05008 34.07334 -0.00416
C 29.49693 32.61951 0.01177
C 30.78621 31.92294 0.04266
C 30.74009 30.5514 0.01324
C 29.5567 29.7994 0.0014
C 29.51537 28.33449 0.00924
C 30.77454 27.67052 0.02326
C 30.74803 26.24176 0.00261
C 29.48279 25.52879 0.03265
C 29.52001 24.07453 -0.02049
C 30.75104 23.45134 -0.01854
C 30.73381 22.04123 -0.01415
C 29.56312 21.36082 -0.03039
C 29.51084 19.86303 0.01836
C 30.76463 19.1929 0.03531
C 30.72823 17.74904 -0.00669
C 29.50218 17.03815 0.0101
C 29.51538 15.60191 0.01705
C 30.80694 14.94785 -0.0405
C 30.76848 13.49079 -0.01303
C 29.48465 12.7634 -0.01461
C 30.75021 10.65024 -0.00944
C 28.28025 0.70947 0.01699
C 33.20484 17.80073 0.00594
C 31.97263 15.54428 0.00369
C 1.18849 22.0085 0.02712
C 34.41865 21.29442 -0.02213
C 0.04004 19.88658 0.01951
C 1.20472 19.16053 -0.01678
C 1.18604 17.74727 0.01223
C 34.42517 16.98594 0.00648
C 34.40094 15.6085 0.02114
C 1.21831 14.86903 -0.02957
C 1.22828 13.54175 0.00343
C 0.00832 12.78044 -0.02656
C 34.41465 11.36935 -0.02442
C 1.22029 10.66938 -0.00027
C 1.20155 9.20463 -0.00583
C 34.38256 8.53341 -0.02302
C 34.43101 7.11581 -0.02849
C 1.24225 6.33665 0.02931
C 1.22384 4.94326 0.00628
C 34.40885 4.25666 -0.0345
C 0.01242 2.84542 -0.00931
C 1.24662 2.18384 -0.00939
C 1.22935 0.72659 -0.00468
C 1.20882 23.44468 0.00723
C 31.97975 17.07645 -0.02474
C 0.00087 24.15187 0.03076
C 1.25193 26.2721 -0.00598
C 33.20201 14.86485 0.00455
C 33.21473 13.46737 -0.00644
C 31.94739 12.79551 -0.01839
C 31.95387 11.3866 0.00137
C 33.18703 10.60739 0.00199
C 33.17883 9.21798 0.04381
C 31.94323 8.50452 0.02806
C 31.95566 7.13409 0.01504
C 33.22542 6.39823 -0.00069
C 33.15793 4.93247 0.04926
C 31.95337 4.26189 -0.03838
C 31.99214 2.86898 0.00349
C 33.18985 2.08507 -0.00323
C 33.18022 0.70145 -0.00841
C 31.99691 34.05444 0.0001
C 0.00417 32.65235 -0.02927
C 1.25213 31.97509 -0.01404
C 1.22167 30.51161 0.01027
C 0.00214 29.77798 0.01831
C 34.42959 28.40556 -0.01037
C 1.20729 27.65148 -0.00439
C 0.00329 25.58668 -0.05239
C 20.95368 6.36473 -0.0054
C 28.28271 2.14735 0.01799
C 26.99164 4.25106 0.01495
C 22.07623 11.3349 0.01511
C 23.36807 10.60873 -0.00478
C 23.32542 9.23892 -0.01662
C 22.15499 8.50048 -0.01185
C 22.18261 7.07343 0.01126
C 23.29472 6.37184 0.01852
C 23.3255 4.915 -0.00381
C 22.1465 4.24017 0.03046
C 22.15405 2.82871 0.0296
C 23.38441 2.08279 0.03374
C 23.39332 0.66773 -0.02845
C 22.15706 34.06088 -0.03213
C 24.59267 32.71297 0.02239
C 25.86293 31.90011 0.01153
C 25.76392 30.48733 0.02734
C 24.56556 29.82854 -0.0055
C 24.62151 28.37321 0.01515
C 25.86385 27.67386 -0.00225
C 25.78502 26.27477 0.00071
C 24.58648 25.53734 -0.01107
C 24.61181 24.13629 -0.01586
C 22.14065 12.7478 0.00199
C 25.85332 23.45367 -0.01971
C 23.35747 13.45832 0.01087
C 22.11107 15.60675 0.00096
C 19.71649 4.24284 0.00143
C 19.71946 2.84533 -0.017
C 20.93919 2.19084 0.00364
C 20.92802 0.74612 -0.00831
C 19.70501 34.04706 -0.02957
C 22.12261 32.67782 -0.04422
C 23.38266 31.99016 0.00654
C 23.33299 30.54786 -0.00703
C 22.13157 29.81478 -0.04076
C 22.17475 28.42942 -0.00652
C 23.35374 27.70295 0.0058
C 23.35784 26.2521 -0.00865
C 22.17707 25.57609 0.00675
C 22.11583 24.18324 -0.00311
C 23.37113 23.39702 0.00742
C 23.40023 22.01102 -0.01594
C 22.17488 21.28466 0.0106
C 22.15891 19.8791 -0.01154
C 23.30477 19.14485 -0.01721
C 23.35588 17.76466 -0.02422
C 22.12166 17.00383 0.01277
C 23.44072 14.94167 -0.01527
C 27.03825 2.87293 0.01259
C 25.80947 21.99584 -0.02118
C 24.59564 19.83619 -0.00178
C 28.23245 26.28826 -0.00802
C 27.01136 25.59756 -0.00218
C 27.02243 24.14654 -0.01654
C 28.26107 23.4108 -0.00037
C 28.32753 21.99796 -0.0032
C 26.98456 21.26556 0.00622
C 27.05286 19.86051 -0.02815
C 28.26222 19.17143 -0.00942
C 28.24971 17.71665 0.00487
C 27.01376 17.05596 0.00826
C 27.03625 15.63948 -0.00294
C 28.28127 14.88687 0.00152
C 28.28248 13.50439 0.01257
C 27.04878 12.70438 0.02316
C 27.07912 11.34125 0.04185
C 28.28717 10.63522 0.00194
C 28.28621 9.2395 -0.00621
C 27.1208 8.58365 0.02611
C 27.06003 7.10647 0.02198
C 28.27631 6.34064 0.01094
C 28.2808 4.95029 0.00235
C 28.28195 27.7149 0.00195
C 24.54926 21.31823 0.00733
C 27.04602 28.38957 0.00996
C 28.31151 30.56588 0.00367
C 25.81902 19.1784 0.00768
C 25.81047 17.78364 -0.0276
C 24.57199 17.01767 0.03005
C 24.56406 15.63182 -0.04078
C 25.81293 14.92663 0.02117
C 25.82071 13.49086 0.02737
C 24.60719 12.79396 -0.00498
C 24.60021 11.36349 0.00135
C 25.80996 10.62943 0.03102
C 25.81687 9.2055 0.02555
C 24.60713 8.50802 0.01423
C 24.59518 7.11879 -0.00285
C 25.85709 6.41112 -0.009
C 25.80974 4.94628 -0.01199
C 24.57978 4.26115 -0.00229
C 24.62262 2.87287 -0.00938
C 25.82068 2.17727 -0.0264
C 25.86399 0.70804 -0.01154
C 24.57742 34.06119 0.00684
C 27.10252 32.62577 -0.01052
C 28.29165 31.96893 -0.01679
C 27.08282 29.84314 0.04306
C 2.43627 32.69728 -0.00039
