392
Graphene
C 34.38636 0.00406 0.01295
C 11.0677 2.17422 0.01877
C 11.01375 0.77791 0.01363
C 9.83227 0.01719 -0.02162
C 12.21162 32.65414 0.00415
C 13.49419 31.91928 -0.0014
C 13.52286 30.47512 0.02162
C 12.24803 29.82628 0.0076
C 12.19536 28.4551 0.01241
C 13.47596 27.64117 -0.01454
C 9.76536 2.95916 -0.00925
C 13.5444 26.2688 0.01945
C 12.32616 24.08634 0.03542
C 13.57969 23.39501 0.02299
C 13.58247 21.95695 0.00244
C 12.29085 21.29009 -0.01717
C 12.2966 19.81591 0.05265
C 13.51045 19.18951 -0.01952
C 13.52635 17.78312 -0.02813
C 12.32369 17.05611 0.00374
C 12.24288 15.62627 0.00052
C 12.2407 25.57741 0.01416
C 9.81047 4.37457 0.00444
C 11.07167 5.03002 -0.01789
C 11.06222 6.43669 0.02894
C 9.75012 28.37594 0.03589
C 11.00019 27.71452 -0.02759
C 10.9964 26.30244 0.0402
C 9.75347 25.58167 0.00572
C 9.77144 24.21853 0.03592
C 11.05552 23.46787 0.00406
C 11.06424 22.01999 0.00943
C 9.81293 21.34816 0.02841
C 9.84721 19.85173 -0.01111
C 11.05327 19.21827 -0.01275
C 11.02712 17.7649 0.00985
C 9.85275 16.9879 -0.02245
C 9.84273 15.62765 -0.00428
C 11.09317 14.9088 0.03101
C 11.06882 13.41939 -0.01536
C 9.86011 12.78684 -0.02689
C 9.84258 11.32717 -0.01046
C 11.12734 10.72109 -0.00891
C 11.06849 9.27403 0.02819
C 9.85417 8.54868 0.00165
C 9.79354 7.10232 -0.02971
C 13.58466 14.87197 -0.03682
C 9.80182 29.82943 -0.00033
C 13.54301 13.45121 0.01965
C 12.35742 11.34176 -0.01957
C 16.11147 17.66244 -0.02213
C 14.81643 17.06691 0.03698
C 14.80863 15.53419 -0.00109
C 16.04468 14.96444 -0.00491
C 15.98799 13.59886 0.03338
C 14.79255 12.80751 -0.0258
C 14.75538 11.40959 -0.0331
C 15.94822 10.6733 -0.00316
C 15.99671 9.25291 0.02188
C 16.03526 19.12943 0.00028
C 14.77007 8.46539 -0.01979
C 16.04454 6.36554 -0.01581
C 15.95427 4.97675 0.01452
C 14.75854 4.23708 0.04892
C 14.78394 2.84387 -0.00111
C 15.96442 2.17414 -0.03557
C 16.00846 0.71561 0.03754
C 14.72465 0.03214 0.01739
C 17.17372 32.67688 0.00755
C 18.46558 32.01116 -0.0054
C 14.79745 7.06654 0.02691
C 14.76837 19.86867 -0.00289
C 14.76764 21.25825 -0.00066
C 16.01458 21.91066 0.00213
C 13.52905 10.65727 -0.0108
C 13.53294 9.25262 -0.00368
C 12.27356 8.5545 -0.02696
C 12.33471 7.13597 -0.00114
C 13.51383 6.39024 0.00228
C 13.46841 4.95618 0.00798
C 12.2851 4.30459 0.00422
C 12.25943 2.86266 0.0351
C 13.48856 2.17517 -0.03113
C 13.47519 0.75979 0.02098
C 12.28468 0.00354 0.01848
C 14.66756 32.6583 -0.00619
C 15.95751 31.97567 -0.02162
C 15.9324 30.51183 0.00889
C 14.66399 29.79868 -0.00481
C 14.72651 28.3841 0.00979
C 15.87391 27.64939 0.01443
C 15.98228 26.20414 0.03505
C 14.73149 25.48804 -0.02815
C 14.79761 24.08098 -0.04147
C 15.99826 23.33328 -0.05302
C 12.29269 12.77744 0.02058
C 18.38024 30.54246 0.00667
C 11.04624 30.57099 -0.01062
C 9.82845 32.72697 -0.00719
C 2.34956 4.36482 0.01465
C 2.39227 2.87333 -0.00074
C 3.60945 2.19833 -0.00518
C 3.64151 0.73517 0.0086
C 2.38516 34.0778 -0.00643
C 4.88513 32.72256 0.017
C 6.13842 32.07914 -0.03113
C 6.08867 30.60577 -0.02566
C 4.82296 29.89598 -0.00094
C 3.58297 5.0456 -0.03996
C 4.85865 28.43165 0.02322
C 6.02396 26.31262 -0.05697
C 4.81835 25.62288 0.01087
C 4.85806 24.10637 -0.01343
C 6.10111 23.40463 0.00988
C 6.07739 22.00873 0.0276
C 4.85747 21.30149 0.01305
C 4.88274 19.89266 -0.00077
C 6.14882 19.20962 0.03368
C 6.20193 17.71783 -0.02929
C 6.12065 27.65048 -0.00725
C 3.61518 6.43252 0.01996
C 2.38349 7.1911 -0.00279
C 2.48495 8.5177 0.01226
C 3.65827 30.57258 0.01707
C 2.45348 29.82573 0.02769
C 2.47907 28.36214 -0.03291
C 3.62689 27.73996 -0.04999
C 3.67447 26.35948 0.04505
C 2.37684 25.55611 0.03284
C 2.41601 24.17607 -0.04307
C 3.61265 23.39908 0.03189
C 3.61823 22.01266 0.00031
C 2.43945 21.36593 -0.003
C 2.40499 19.88169 0.01402
C 3.63377 19.1451 0.02379
C 3.63851 17.73583 0.00907
C 2.38224 16.99155 0.00643
C 2.3955 15.60797 -0.01509
C 3.65243 14.90616 0.03267
C 3.62952 13.52778 0.02374
C 2.41174 12.78415 0.00402
C 2.44112 11.37029 0.0073
C 3.69262 10.74961 0.0174
C 3.68349 9.3235 0.03828
C 4.82585 16.98907 -0.00966
C 11.01031 31.99279 0.01364
C 4.91217 15.58025 -0.03337
C 6.12533 13.54882 0.00873
C 7.37902 19.88703 -0.01384
C 8.65465 19.23395 0.03693
C 8.66817 17.79774 0.01745
C 7.3861 17.04242 0.00488
C 7.41685 15.6246 -0.01004
C 8.65065 14.86891 -0.02896
C 8.64069 13.46653 -0.00131
C 7.39562 12.83151 -0.01118
C 7.32398 11.46758 -0.014
C 7.38432 21.33509 -0.00482
C 8.57225 10.65546 0.02147
C 7.36832 8.56125 -0.00191
C 7.30218 7.16451 0.00438
C 8.49398 6.46691 0.01291
C 8.58096 5.05878 0.00093
C 7.35976 4.3813 0.00057
C 7.40257 2.95432 -0.01634
C 8.5964 2.23831 -0.00334
C 8.55295 0.7594 0.02339
C 7.33078 0.13286 0.01641
C 8.52964 9.27722 0.00373
C 8.57988 22.01908 0.02888
C 8.57913 23.47851 0.00685
C 7.29798 24.20735 0.00895
C 4.86335 12.85156 -0.00049
C 4.94039 11.40405 0.00848
C 6.18532 10.69958 -0.01303
C 6.14767 9.31446 -0.01378
C 4.85896 8.59723 0.02635
C 4.88246 7.16888 0.0127
C 6.0401 6.45747 0.01396
C 6.10354 5.1028 0.01849
C 4.83557 4.36009 -0.01142
C 4.85657 2.89376 -0.00562
C 6.11197 2.23358 -0.00494
C 6.10015 0.79 0.00054
C 4.90733 0.04437 0.03007
C 7.35542 32.71602 -0.00095
C 8.57554 32.11664 0.01572
C 8.57792 30.60158 -0.04848
C 7.34909 29.92597 -0.00892
C 7.34514 28.46404 -0.01362
C 8.52195 27.70658 -0.0008
C 8.56722 26.31158 0.0288
C 7.3428 25.60317 0.00393
C 6.14185 14.94351 0.01227
C 17.1082 29.80658 0.00143
C 17.11271 28.38807 -0.017
C 18.36011 27.69778 0.00364
C 29.50701 25.57967 0.07705
C 29.47703 24.13857 0.0103
C 30.76028 23.4702 0.02108
C 30.74848 22.08084 0.00716
C 29.47023 21.32555 0.00307
C 29.5005 19.9131 0.00346
C 30.74848 19.22457 0.01713
C 30.75363 17.84619 -0.01694
C 30.77331 4.95986 0.01428
C 30.74496 26.28569 0.01908
C 29.69132 4.31665 -0.02142
C 30.70847 2.16272 0.00026
C 30.69767 0.72405 0.00682
C 29.47979 0.01088 -0.01779
C 31.90585 32.66315 0.03794
C 33.1741 31.93477 0.01927
C 33.12358 30.52799 0.01574
C 31.95027 29.86202 -0.02383
C 31.90648 28.42443 -0.01429
C 33.18931 27.74664 -0.0136
C 29.51044 2.81113 0.0544
C 30.70756 27.7315 0.01518
C 29.44646 28.32693 -0.00971
C 29.45409 29.84143 -0.03735
C 28.28412 31.92527 0.04266
C 28.23122 30.51895 0.01324
C 26.91957 29.83742 0.0014
C 26.9108 28.34147 0.00924
C 28.19248 27.69978 0.02326
C 28.24855 26.28584 0.00261
C 26.98863 25.56089 0.03265
C 27.04342 24.10779 -0.02049
C 28.23508 23.42319 -0.01854
C 28.23312 21.98193 -0.01415
C 27.05288 21.19365 -0.03039
C 27.0373 19.62996 0.01836
C 28.31983 19.14285 0.03531
C 26.85666 4.23871 -0.00669
C 27.04436 2.76561 0.0101
C 28.27249 2.08297 0.01705
C 28.26047 0.70378 -0.0405
C 27.04942 34.03766 -0.01303
C 29.43607 32.67876 -0.01461
C 30.71335 31.9257 -0.02155
C 30.68117 30.45988 -0.00944
C 33.1637 26.27911 0.00594
C 26.97289 32.61212 0.01177
C 31.95205 25.63318 -0.02474
C 33.16887 23.45173 0.00455
C 34.39716 21.32194 -0.02213
C 34.39351 19.91116 0.01951
C 1.22167 19.1901 -0.01678
C 1.18702 17.72758 0.01223
C 34.36455 16.98385 0.00648
C 34.31781 15.54796 0.02114
C 1.1637 14.87509 -0.02957
C 1.15695 13.48798 0.00343
C 0.04214 12.66153 -0.02656
C 1.19577 22.01981 0.02712
C 0.0561 11.46575 -0.02442
C 1.22929 9.25407 -0.00583
C 34.37394 8.59498 -0.02302
C 34.27818 7.23876 -0.02849
C 1.12818 6.46455 0.02931
C 1.17289 5.0641 0.00628
C 0.03108 4.33846 -0.0345
C 34.41858 2.90999 -0.00931
C 1.18044 2.17897 -0.00939
C 1.19517 0.7009 -0.00468
C 1.22663 10.63817 -0.00027
C 1.23897 23.37433 0.00723
C 34.38938 24.13039 0.03076
C 0.02689 25.5705 -0.05239
C 33.18232 22.11284 -0.00644
C 31.95047 21.33542 -0.01839
C 31.97786 19.88968 0.00137
C 33.14728 19.152 0.00199
C 33.1714 17.76868 0.04381
C 31.93535 17.13067 0.02806
C 33.08965 14.77739 0.01504
C 33.11718 6.35426 -0.00069
C 33.21542 4.97817 0.04926
C 32.04654 4.26348 -0.03838
C 31.91297 2.89337 0.00349
C 33.16949 2.21769 -0.00323
C 33.15067 0.74303 -0.00841
C 31.9664 0.04305 0.0001
C 0.00332 32.65851 -0.02927
C 1.21709 31.94583 -0.01404
C 1.24091 30.53234 0.01027
C 34.4018 29.84971 0.01831
C 34.40776 28.42403 -0.01037
C 1.18344 27.73462 -0.00439
C 1.25414 26.29462 -0.00598
C 31.93145 24.19065 0.00369
C 24.53816 33.97858 -0.00416
C 25.76751 0.63895 0.01699
C 25.80137 2.08367 0.01799
C 17.22774 34.0609 -0.01185
C 19.72909 32.68514 0.01126
C 20.9577 32.10107 0.01852
C 20.84064 30.59633 -0.00381
C 19.57814 29.84454 0.03046
C 19.56259 28.4028 0.0296
C 20.77483 27.63602 0.03374
C 20.81917 26.21907 -0.02845
C 19.60434 25.55061 -0.03213
C 18.49182 0.637 -0.01662
C 19.637 24.13559 0.02239
C 20.86732 22.00689 0.02734
C 19.69636 21.23891 -0.0055
C 19.73469 19.83934 0.01515
C 20.94655 19.05872 -0.00225
C 21.06568 17.68562 0.00071
C 19.84908 16.95589 -0.01107
C 19.85467 15.54666 -0.01586
C 21.04748 14.79324 -0.01971
C 19.69248 12.62071 -0.02118
C 20.81842 23.37135 0.01153
C 18.41891 2.13133 -0.00478
C 17.21272 2.83744 0.01511
C 17.21974 4.25248 0.00199
C 18.40531 26.24193 -0.00831
C 17.20999 25.50428 -0.02957
C 17.16906 24.07627 -0.04422
C 18.37614 23.3507 0.00654
C 18.48566 21.92814 -0.00703
C 17.22574 21.18155 -0.04076
C 17.26575 19.82956 -0.00652
C 18.49303 19.11581 0.0058
C 18.5339 17.67138 -0.00865
C 17.34881 16.97806 0.00675
C 17.33553 15.60946 -0.00311
C 18.56888 14.85367 0.00742
C 18.51504 13.41689 -0.01594
C 17.27861 12.74236 0.0106
C 17.25315 11.38451 -0.01154
C 18.45573 10.5844 -0.01721
C 18.48458 9.17002 -0.02422
C 17.24061 8.54537 0.01277
C 17.22249 7.07982 0.00096
C 18.47096 6.4551 -0.01527
C 18.43761 5.00948 0.01087
C 19.76578 11.1719 0.00733
C 20.83119 9.65427 -0.00178
C 19.75668 8.62012 0.00768
C 19.77533 7.20113 -0.0276
C 22.0833 4.18753 -0.01654
C 22.10471 2.83058 -0.00037
C 23.29648 2.17978 -0.0032
C 22.44774 0.13053 0.00622
C 24.60761 32.57813 -0.02815
C 25.81646 31.9302 -0.00942
C 25.74287 30.55242 0.00487
C 24.47841 29.77021 0.00826
C 24.4482 28.31697 -0.00294
C 25.69878 27.60234 0.00152
C 25.72183 26.24985 0.01257
C 24.53862 25.49671 0.02316
C 24.55122 24.06407 0.04185
C 25.86133 23.35604 0.00194
C 25.81107 21.94859 -0.00621
C 24.5185 21.33016 0.02611
C 24.59145 19.95951 0.02198
C 25.77612 19.20002 0.01094
C 25.77212 4.68648 0.00235
C 24.38318 4.62571 0.01495
C 24.5174 2.66358 0.01259
C 23.17975 5.15731 -0.00218
C 3.67945 31.98375 0.00208
C 22.31468 6.81737 -0.00802
C 23.44431 17.85639 0.00996
C 20.94204 6.3836 0.03005
C 20.89738 4.89823 -0.04078
C 19.70416 4.22868 0.02117
C 19.731 2.80058 0.02737
C 20.91918 2.10467 -0.00498
C 21.11211 0.70797 0.00135
C 19.81275 0.01311 0.03102
C 22.19135 32.78366 0.02555
C 23.34292 31.95867 0.01423
C 23.27154 30.45359 -0.00285
C 22.00058 29.8314 -0.009
C 22.03471 28.31044 -0.01199
C 23.20619 27.59818 -0.00229
C 23.20865 26.16651 -0.00938
C 21.97394 25.4949 -0.0264
C 22.0364 24.09528 -0.01154
C 23.31983 23.43125 0.00684
C 23.25838 21.96874 -0.01052
C 22.09541 21.22002 -0.01679
C 22.134 19.84096 0.00367
C 23.36721 19.2217 0.04306
C 22.31284 17.01099 0.00195
C 2.47192 32.69872 -0.00561
