421
Graphene
C 0.00746 0.02644 0.01295
C 13.59216 26.26632 0.00406
C 12.23955 25.61648 0.00943
C 12.2803 24.18276 0.02841
C 13.53596 23.41843 -0.01111
C 13.57058 22.06949 -0.01275
C 12.32581 21.32885 0.00985
C 12.24394 19.86387 -0.02245
C 13.48033 19.16585 -0.00428
C 13.49663 17.64899 0.03101
C 12.27551 17.00583 -0.01536
C 13.54187 27.74401 0.03592
C 12.31838 15.58637 -0.02689
C 13.58139 13.4789 -0.00891
C 12.35444 12.76645 0.02819
C 12.28327 11.43913 0.00165
C 13.54486 10.63514 -0.02971
C 13.51777 9.16598 0.02894
C 12.23985 8.49707 -0.01789
C 12.33702 7.04341 0.00444
C 13.47608 6.36846 -0.00925
C 13.50802 4.99951 0.01877
C 12.31618 4.21992 0.01363
C 13.5111 14.95949 -0.01046
C 12.24035 2.87806 -0.02162
C 12.31495 28.43493 0.00572
C 13.53665 30.53452 -0.02759
C 9.83268 19.90421 0.00488
C 11.05184 19.19342 -0.01004
C 11.04496 17.78833 -0.02896
C 9.85645 17.04985 -0.00131
C 9.86738 15.63354 -0.01118
C 11.07267 14.97561 -0.014
C 11.04859 13.50534 0.02147
C 9.83149 12.8459 0.00373
C 9.86811 11.32464 -0.00191
C 11.10575 10.64299 0.00438
C 12.32777 29.86251 0.0402
C 11.12339 9.2294 0.01291
C 9.81683 7.0427 0.00057
C 11.0652 6.42725 -0.01634
C 11.10466 4.94535 -0.00334
C 9.79542 4.25687 0.02339
C 9.8702 2.84014 0.01641
C 11.15271 2.1459 -0.00719
C 11.07177 0.75144 0.01364
C 9.86487 0.04524 -0.01062
C 12.24761 32.74884 -0.00033
C 13.5148 31.96454 0.03589
C 9.83142 8.46371 0.00093
C 13.51015 2.11029 0.00415
C 13.54327 0.75832 -0.0014
C 12.30732 34.07105 0.02162
C 18.37945 23.44088 0.02098
C 18.44657 22.02462 0.01848
C 17.23185 21.30101 -0.00619
C 17.26405 19.95321 -0.02162
C 18.44663 19.15254 0.00889
C 18.44447 17.75886 -0.00481
C 17.21678 17.03006 0.00979
C 17.25141 15.58785 0.01443
C 18.39939 14.90088 0.03505
C 18.43272 13.47151 -0.02815
C 17.25306 24.05062 -0.03113
C 17.24585 12.76637 -0.04147
C 18.41492 10.67339 0.00213
C 18.39983 9.21678 -0.00066
C 17.17951 8.53015 -0.00289
C 17.19042 7.14262 0.00028
C 18.44549 6.41978 -0.02213
C 18.42319 4.98963 0.03698
C 17.24242 4.19426 -0.00109
C 17.21888 2.80439 -0.00491
C 18.4413 2.14643 0.03338
C 18.458 0.71706 -0.0258
C 17.25593 11.39474 -0.05302
C 14.76263 34.06118 0.0351
C 15.97033 0.6811 0.00422
C 15.95279 2.10269 0.00798
C 14.7434 32.64768 0.0076
C 14.78966 25.56968 0.01241
C 14.73164 24.13369 -0.01454
C 15.94954 23.45339 0.01945
C 15.94128 22.04751 0.01416
C 14.74692 21.29426 0.03542
C 14.72973 19.87794 0.02299
C 16.00244 19.18604 0.00244
C 16.02725 17.73274 -0.01717
C 14.747 17.01194 0.05265
C 14.74542 15.55533 -0.01952
C 15.94648 14.87392 -0.02813
C 16.00123 13.45932 0.00374
C 14.71843 12.74934 0.00052
C 14.79883 11.34709 -0.03682
C 16.04763 10.66874 0.01965
C 15.95864 9.26441 0.02058
C 14.76799 8.48154 -0.01957
C 14.73069 7.10665 -0.0108
C 15.98331 6.39958 -0.00368
C 16.00302 4.9855 -0.02696
C 14.76994 4.20829 -0.00114
C 14.73163 2.86181 0.00228
C 9.79632 21.31692 0.01745
C 11.04199 21.99967 0.03693
C 11.04856 23.42286 -0.01384
C 9.82956 24.18439 -0.00482
C 3.69971 2.08047 -0.00561
C 3.70987 0.73945 0.00208
C 2.48734 0.02093 0.01707
C 4.93956 32.69588 0.02769
C 6.11467 31.99727 -0.03291
C 6.17611 30.54929 -0.04999
C 4.93162 29.78419 0.04505
C 4.88472 28.37434 0.03284
C 6.1005 27.70228 -0.04307
C 6.1581 26.20616 0.03189
C 2.496 2.86485 -0.01977
C 4.88962 25.54425 0.00031
C 6.20004 23.42077 0.01402
C 6.16111 22.01235 0.02379
C 4.87189 21.30411 0.00907
C 4.89501 19.97306 0.00643
C 6.13543 19.18122 -0.01509
C 6.18931 17.72592 0.03267
C 4.9134 17.07548 0.02374
C 4.99516 15.61587 0.00402
C 6.1372 14.87519 0.0073
C 6.18617 13.47397 0.0174
C 4.84038 24.11044 -0.003
C 2.4319 4.32625 0.02784
C 3.66575 4.99064 -0.01979
C 3.68357 6.38627 -0.00449
C 3.74039 30.54532 0.03345
C 2.47488 29.721 0.00748
C 2.49186 28.37844 0.00662
C 3.69768 27.71838 -0.0154
C 3.68064 26.29232 -0.01299
C 2.46868 25.54321 -0.00407
C 2.44872 24.07885 0.01138
C 3.69981 23.3929 0.03278
C 3.71651 21.99861 -0.00177
C 2.45729 21.28524 0.04421
C 2.45835 19.9122 0.00088
C 3.69642 19.24383 0.00828
C 3.65198 17.7875 -0.02375
C 2.51906 17.02792 0.00558
C 2.51437 15.6189 -0.0059
C 3.73856 14.9329 -0.01386
C 3.65204 13.38284 -0.02805
C 2.44213 12.76032 0.00081
C 2.41669 11.3688 0.00245
C 3.63955 10.5968 0.02728
C 3.66994 9.22317 -0.00039
C 2.42603 8.5302 0.0064
C 2.44298 7.10314 0.00211
C 4.93518 12.71521 0.03828
C 17.18352 0.0295 -0.0331
C 4.90227 11.37199 0.01226
C 6.18093 9.26204 0.01996
C 8.61175 13.49301 -0.01303
C 7.39754 12.80525 -0.01378
C 7.41586 11.39814 0.02635
C 8.61366 10.66363 0.0127
C 8.58774 9.26474 0.01396
C 7.42689 8.53042 0.01849
C 7.40606 7.15207 -0.01142
C 8.59757 6.39866 -0.00562
C 8.637 4.98967 -0.00494
C 7.3583 4.3212 0.00054
C 8.58581 14.94157 0.00848
C 7.39193 2.84349 0.03007
C 8.52979 0.71391 0.01572
C 7.36134 0.02508 -0.04848
C 9.8524 32.65111 -0.00892
C 11.06636 31.94384 -0.01362
C 11.03633 30.58982 -0.0008
C 9.82477 29.86527 0.0288
C 9.86219 28.42737 0.00393
C 11.01545 27.69798 0.00895
C 11.02089 26.32072 0.00685
C 9.8353 25.53114 0.02888
C 8.63401 2.10628 -0.00095
C 7.34265 15.66671 -0.00049
C 7.38283 17.07576 0.00873
C 8.66098 17.8083 0.01227
C 4.93619 8.48307 -0.03996
C 4.92011 7.11488 0.01465
C 6.10919 6.39006 -0.00074
C 6.1731 4.97797 -0.00518
C 4.92177 4.29583 0.0086
C 4.83753 2.84124 -0.00643
C 6.0986 2.14971 0.017
C 6.1293 0.66428 -0.03113
C 4.93652 0.05205 -0.02566
C 7.32699 32.66041 -0.00094
C 8.60534 31.97016 0.02322
C 8.61759 30.48408 -0.00725
C 7.37274 29.82569 -0.05697
C 7.36405 28.43456 0.01087
C 8.64751 27.69451 -0.01343
C 8.61712 26.31685 0.00988
C 7.34719 25.56595 0.0276
C 7.36079 24.16346 0.01305
C 8.58267 23.45517 -0.00077
C 8.55873 22.07838 0.03368
C 7.4356 21.29006 -0.02929
C 7.39129 19.84301 -0.00966
C 8.64608 19.14623 -0.03337
C 6.12317 10.69403 -0.00279
C 3.69613 31.96796 -0.00112
C 20.91662 23.47189 -0.00316
C 19.68369 21.28858 -0.01979
C 29.51788 11.34702 -0.02155
C 30.72892 10.66678 -0.00944
C 30.78437 9.28503 -0.03735
C 29.51068 8.45608 -0.00971
C 29.55154 7.06632 0.01518
C 30.75986 6.41478 0.01908
C 30.73892 5.01174 0.07705
C 29.50627 4.21715 0.0103
C 29.47658 2.85402 0.02108
C 30.79151 2.08155 0.00716
C 29.47338 12.74841 -0.01461
C 30.71468 0.71546 0.00307
C 31.93332 32.62976 0.01713
C 33.16897 31.97774 -0.01694
C 33.19583 30.5345 0.01428
C 31.99148 29.7595 -0.02142
C 32.02307 28.38256 0.0544
C 33.21719 27.72989 0.00026
C 33.24595 26.26301 0.00682
C 31.96363 25.48968 -0.01779
C 31.9996 24.14823 0.03794
C 33.25767 23.39703 0.01927
C 29.47969 34.05817 0.00346
C 33.23068 21.97871 0.01574
C 30.74076 13.50581 -0.01303
C 29.50556 15.62563 0.01705
C 28.30828 5.02745 0.00235
C 27.03981 4.26007 0.01495
C 27.09253 2.89131 0.01259
C 28.25093 2.14785 0.01799
C 28.28096 0.70379 0.01699
C 27.05324 34.05172 -0.00416
C 29.54197 32.69129 0.01177
C 30.78112 31.92441 0.04266
C 30.7186 30.48311 0.01324
C 29.50642 29.84278 0.0014
C 30.77488 14.93074 -0.0405
C 29.5541 28.44656 0.00924
C 30.68616 26.18486 0.00261
C 29.46966 25.51131 0.03265
C 29.50524 24.09645 -0.02049
C 30.8082 23.43885 -0.01854
C 30.69711 21.99827 -0.01415
C 29.4877 21.31963 -0.03039
C 29.50605 19.82939 0.01836
C 30.71423 19.15357 0.03531
C 30.74148 17.68382 -0.00669
C 29.50036 17.08684 0.0101
C 30.76888 27.70552 0.02326
C 31.99297 21.30339 -0.02383
C 31.97539 19.87355 -0.01429
C 33.16407 19.14609 -0.0136
C 1.17651 23.46022 0.00723
C 1.21674 22.04383 0.02712
C 0.03191 21.25482 -0.02213
C 0.00111 19.87281 0.01951
C 1.2056 19.21631 -0.01678
C 1.23536 17.76669 0.01223
C 34.42449 17.07426 0.00648
C 34.40085 15.62513 0.02114
C 1.19932 14.91029 -0.02957
C 1.23483 13.52986 0.00343
C 0.00559 24.1556 0.03076
C 0.02289 12.76456 -0.02656
C 1.19453 10.64333 -0.00027
C 1.20715 9.22195 -0.00583
C 34.41005 8.53921 -0.02302
C 34.4082 7.16495 -0.02849
C 1.2187 6.32445 0.02931
C 1.21089 4.92706 0.00628
C 34.38047 4.2233 -0.0345
C 0.00874 2.84398 -0.00931
C 1.28483 2.13887 -0.00939
C 1.19317 0.65925 -0.00468
C 34.38617 11.36019 -0.02442
C 0.01392 25.58404 -0.05239
C 1.23249 26.22388 -0.00598
C 1.20594 27.68369 -0.00439
C 33.21623 17.72401 0.00594
C 31.99309 17.03378 -0.02474
C 32.02898 15.619 0.00369
C 33.19773 14.87048 0.00455
C 33.23689 13.42092 -0.00644
C 31.94836 12.75948 -0.01839
C 31.93413 11.33302 0.00137
C 33.18953 10.64454 0.00199
C 33.22678 9.21114 0.04381
C 31.9669 8.55535 0.02806
C 31.89519 7.11863 0.01504
C 33.13413 6.37968 -0.00069
C 33.20202 4.9137 0.04926
C 31.9376 4.27953 -0.03838
C 32.01607 2.84289 0.00349
C 33.22577 2.11381 -0.00323
C 33.11367 0.70219 -0.00841
C 31.90996 34.02482 0.0001
C 0.00863 32.65093 -0.02927
C 1.23595 31.94021 -0.01404
C 1.27305 30.47875 0.01027
C 0.03263 29.7823 0.01831
C 0.03775 28.40022 -0.01037
C 28.29119 6.39043 0.01094
C 27.07701 7.04263 0.02198
C 27.02991 8.49765 0.02611
C 28.26555 9.26294 -0.00621
C 22.19333 21.24242 0.0106
C 22.19669 19.85236 -0.01154
C 23.33002 19.1299 -0.01721
C 23.33545 17.73685 -0.02422
C 22.14143 17.02788 0.01277
C 22.11248 15.5784 0.00096
C 23.38331 14.9185 -0.01527
C 23.34991 13.46566 0.01087
C 22.14741 12.78176 0.00199
C 22.16116 11.34167 0.01511
C 23.42745 21.99265 -0.01594
C 23.39651 10.69452 -0.00478
C 22.13006 8.5452 -0.01185
C 22.17998 7.02043 0.01126
C 23.35574 6.36833 0.01852
C 23.38584 4.97063 -0.00381
C 22.11891 4.30616 0.03046
C 22.11587 2.8412 0.0296
C 23.36948 2.14109 0.03374
C 23.33576 0.72979 -0.02845
C 22.12415 34.04932 -0.03213
C 24.6382 32.71701 0.02239
C 23.33615 9.29548 -0.01662
C 23.36664 23.38942 0.00742
C 22.13022 24.18026 -0.00311
C 23.43108 26.2762 0.00675
C 19.72723 19.87722 0.02691
C 20.85282 19.14299 -0.01581
C 20.9324 17.77258 0.01452
C 19.66315 17.00978 0.04892
C 19.8099 15.66319 -0.00111
C 20.87644 14.9156 -0.03557
C 20.92458 13.4761 0.03754
C 19.69727 12.75233 0.01739
C 19.58697 11.36113 0.00755
C 20.84561 10.65843 -0.0054
C 20.85926 9.22826 0.00667
C 19.64927 8.50676 0.00143
C 19.70736 7.06837 -0.017
C 20.84606 6.37273 0.00364
C 20.91191 4.98448 -0.00831
C 19.6432 4.29349 -0.02957
C 19.63606 2.83173 -0.04422
C 20.86647 2.17572 0.00654
C 20.88354 0.69127 -0.00703
C 19.69381 34.06317 -0.04076
C 22.16555 32.69226 -0.00652
C 23.37249 31.85824 0.0058
C 23.39106 30.52325 -0.00865
C 25.82339 31.92386 0.01153
C 20.90942 22.01564 0.02188
C 25.87734 30.58109 0.02734
C 24.60227 28.41 0.01515
C 27.02201 32.57777 -0.01052
C 28.29545 31.91906 -0.01679
C 28.27804 30.56897 0.00367
C 27.02391 29.85352 0.04306
C 27.0511 28.38879 0.00996
C 28.33338 27.72614 0.00195
C 28.31861 26.29341 -0.00802
C 27.04042 25.60042 -0.00218
C 27.03073 24.10014 -0.01654
C 28.27275 23.44928 -0.00037
C 24.59787 0.02003 0.00684
C 28.2684 22.00209 -0.0032
C 27.02361 19.84675 -0.02815
C 28.28214 19.13558 -0.00942
C 28.24949 17.72934 0.00487
C 27.04719 17.03639 0.00826
C 27.05501 15.6069 -0.00294
C 28.27473 14.95466 0.00152
C 28.32443 13.52398 0.01257
C 27.00863 12.76203 0.02316
C 27.06781 11.31797 0.04185
C 28.30157 10.6687 0.00194
C 27.05116 21.3408 0.00622
C 25.86152 0.69567 -0.01154
C 25.81544 2.10129 -0.0264
C 24.67989 2.85842 -0.00938
C 25.77085 27.75 -0.00225
C 25.8282 26.30784 0.00071
C 24.59026 25.58858 -0.01107
C 24.60304 24.11036 -0.01586
C 25.82914 23.37837 -0.01971
C 25.76892 21.97172 -0.02118
C 24.63366 21.28171 0.00733
C 24.5666 19.83682 -0.00178
C 25.75983 19.18808 0.00768
C 25.80979 17.75959 -0.0276
C 24.54806 17.05957 0.03005
C 24.59004 15.60549 -0.04078
C 25.76058 14.85506 0.02117
C 25.81443 13.49674 0.02737
C 24.61556 12.83381 -0.00498
C 24.62109 11.42868 0.00135
C 25.8081 10.55807 0.03102
C 25.83992 9.20504 0.02555
C 24.58121 8.57344 0.01423
C 24.58345 7.0933 -0.00285
C 25.82244 6.42814 -0.009
C 25.84132 4.93221 -0.01199
C 24.59992 4.24801 -0.00229
C 24.57625 29.79462 -0.0055
C 2.46692 32.66459 0.01078
