413
Graphene
C 0.01278 0.01254 0.01295
C 12.31953 24.14021 -0.02245
C 13.48831 23.47498 -0.00428
C 13.52403 22.03182 0.03101
C 12.29231 21.26903 -0.01536
C 12.30778 19.89654 -0.02689
C 13.56701 17.78728 -0.01046
C 12.31801 17.02204 -0.00891
C 12.30203 15.60499 0.02819
C 13.51902 14.87751 0.00165
C 13.52969 13.4966 -0.02971
C 12.31712 12.78814 0.02894
C 12.30545 11.36618 -0.01789
C 13.53254 10.63786 0.00444
C 12.30745 8.50449 -0.00925
C 12.28416 7.14409 0.01877
C 13.55667 4.95021 0.01363
C 12.30248 4.20829 -0.02162
C 12.24116 2.83118 0.00415
C 13.5671 2.10913 -0.0014
C 13.51482 0.70912 0.02162
C 12.28915 34.07302 0.0076
C 12.30847 25.54383 0.00985
C 13.51848 26.33432 -0.01275
C 13.48105 27.70574 -0.01111
C 12.29135 28.43578 0.02841
C 11.07185 17.76003 0.02147
C 9.85321 17.06003 0.00373
C 9.8523 15.65301 -0.00191
C 11.09982 14.91267 0.00438
C 11.0508 13.49914 0.01291
C 9.87197 12.79396 0.00093
C 9.85093 11.38846 0.00057
C 11.05893 10.67669 -0.01634
C 11.08728 9.27279 -0.00334
C 9.85743 8.51205 0.02339
C 14.75944 32.65179 0.01241
C 9.86033 7.13344 0.01641
C 11.09534 4.98487 0.01364
C 9.84958 4.28094 -0.01062
C 9.82448 2.86037 -0.00033
C 11.06067 2.11064 0.03589
C 11.03604 0.68841 -0.02759
C 9.8516 0.00653 0.0402
C 12.32072 32.65568 0.00572
C 13.49924 31.98809 0.03592
C 13.52594 30.55041 0.00406
C 12.26644 29.84597 0.00943
C 11.09582 6.4137 -0.00719
C 15.9887 31.89378 -0.01454
C 15.9781 30.52551 0.01945
C 14.74775 29.87584 0.01416
C 18.44036 27.69207 0.00889
C 18.40804 26.28916 -0.00481
C 17.18943 25.56265 0.00979
C 17.23984 24.1505 0.01443
C 18.45724 23.4402 0.03505
C 18.44325 21.98689 -0.02815
C 17.24298 21.32476 -0.04147
C 17.21728 19.90666 -0.05302
C 18.45144 19.13617 0.00213
C 18.41314 17.74201 -0.00066
C 17.20192 28.41476 -0.02162
C 17.22394 17.0234 -0.00289
C 18.47732 14.88786 -0.02213
C 18.43397 13.52243 0.03698
C 17.19105 2.78175 -0.00109
C 18.42476 2.11062 -0.00491
C 18.39398 0.72084 0.03338
C 17.22103 0.01659 -0.0258
C 19.65764 32.64823 -0.0331
C 20.89019 31.96157 -0.00316
C 20.91006 30.5307 0.02188
C 19.70995 29.82154 -0.01979
C 17.26435 15.6368 0.00028
C 11.07159 19.17845 -0.014
C 17.22699 29.83548 -0.00619
C 18.44492 31.91914 0.02098
C 14.73234 28.38806 0.03542
C 16.02807 27.68659 0.02299
C 16.01872 26.27145 0.00244
C 14.75376 25.56415 -0.01717
C 14.76074 24.12839 0.05265
C 15.95126 23.41327 -0.01952
C 15.97203 21.9918 -0.02813
C 14.73749 21.28449 0.00374
C 14.73456 19.87764 0.00052
C 16.03284 19.17951 -0.03682
C 18.44195 30.50147 0.01848
C 15.99408 17.72719 0.01965
C 14.72476 15.61293 -0.01957
C 15.99438 14.90542 -0.0108
C 15.97595 13.4818 -0.00368
C 14.77806 12.74167 -0.02696
C 14.77575 4.26458 -0.00114
C 14.74305 2.88605 0.00228
C 15.99474 2.10314 0.00798
C 15.93667 0.74256 0.00422
C 14.75915 34.06086 0.0351
C 17.20771 32.65475 -0.03113
C 14.77061 16.98502 0.02058
C 9.84995 19.86369 -0.01118
C 9.83013 21.33885 -0.00131
C 11.04102 22.0449 -0.02896
C 2.44764 2.81961 0.03284
C 3.67124 2.13557 -0.04307
C 3.67647 0.66236 0.03189
C 2.46639 0.00789 0.00031
C 4.92123 32.69412 -0.003
C 6.1298 31.96735 0.01402
C 6.11753 30.57719 0.02379
C 4.93342 29.86186 0.00907
C 4.91684 28.3951 0.00643
C 6.11228 27.69282 -0.01509
C 2.45915 4.26126 0.04505
C 6.17735 26.22757 0.03267
C 4.98711 24.14945 0.00402
C 6.14997 23.42696 0.0073
C 6.17739 22.00275 0.0174
C 4.90452 21.28405 0.03828
C 4.90786 19.85323 0.01226
C 6.08777 19.2477 -0.00279
C 6.16463 17.76101 0.01996
C 4.93268 17.03208 -0.03996
C 4.92325 15.63069 0.01465
C 6.16979 14.90411 -0.00074
C 4.9233 25.56454 0.02374
C 6.19048 13.48643 -0.00518
C 3.66752 4.94171 -0.04999
C 2.47093 7.17527 0.02769
C 3.66325 30.52383 -0.00177
C 2.44707 29.84115 0.04421
C 2.47094 28.41594 0.00088
C 3.69288 27.66778 0.00828
C 3.69326 26.31424 -0.02375
C 2.49442 25.56839 0.00558
C 2.44672 24.17127 -0.0059
C 3.71591 23.40698 -0.01386
C 3.65883 21.9731 -0.02805
C 2.45963 21.29164 0.00081
C 3.74798 6.36845 -0.03291
C 2.46568 19.8573 0.00245
C 3.65988 17.77017 -0.00039
C 2.43801 17.05515 0.0064
C 2.45178 15.60293 0.00211
C 3.731 14.88595 -0.00449
C 3.7325 13.45857 -0.01979
C 2.45014 12.80349 0.02784
C 2.41011 11.31209 -0.01977
C 3.67991 10.62779 -0.00561
C 3.68428 9.2427 0.00208
C 2.44536 8.50679 0.01707
C 3.69988 19.16972 0.02728
C 19.67914 28.44418 0.02691
C 4.94888 12.7982 0.0086
C 6.15433 10.64931 0.017
C 8.63325 13.51541 -0.01142
C 7.36323 12.77185 -0.00562
C 7.39558 11.33251 -0.00494
C 8.61828 10.63846 0.00054
C 8.61294 9.20965 0.03007
C 7.40109 8.51821 -0.00095
C 7.34455 7.11263 0.01572
C 8.55695 6.40061 -0.04848
C 8.64084 4.95382 -0.00892
C 7.35926 4.28346 -0.01362
C 8.61776 14.94884 0.01849
C 7.38098 2.89191 -0.0008
C 8.60077 0.76952 0.00393
C 7.37589 0.02927 0.00895
C 9.84339 32.68808 0.00685
C 11.04327 31.9241 0.02888
C 11.07031 30.55371 -0.00482
C 11.05641 27.65414 -0.01384
C 11.08628 26.25951 0.03693
C 9.81402 25.55662 0.01745
C 9.8058 24.17468 0.00488
C 11.0355 23.44439 -0.01004
C 8.59339 2.12938 0.0288
C 4.89342 11.37247 -0.00643
C 7.37758 15.5962 0.01396
C 8.63635 17.73407 0.02635
C 6.14526 9.24454 -0.03113
C 4.91458 8.5308 -0.02566
C 4.93335 7.13183 -0.00094
C 6.13542 6.34425 0.02322
C 6.16409 4.9475 -0.00725
C 4.89004 4.26999 -0.05697
C 4.92167 2.86084 0.01087
C 6.14301 2.13899 -0.01343
C 6.09877 0.71759 0.00988
C 4.86841 0.02989 0.0276
C 7.37444 17.0308 0.0127
C 7.37833 32.70039 0.01305
C 8.58538 30.54783 0.03368
C 7.41518 29.81814 -0.02929
C 8.61614 26.26509 -0.00966
C 7.35972 25.55473 -0.03337
C 7.3773 24.15422 0.01227
C 8.66213 23.46068 0.00873
C 8.627 22.02371 -0.00049
C 7.36327 21.28809 0.00848
C 7.40242 19.88857 -0.01303
C 8.6064 19.20626 -0.01378
C 8.57385 31.99643 -0.00077
C 3.75637 31.93448 0.03278
C 20.91898 27.6757 -0.01581
C 19.70493 25.52806 0.04892
C 30.74047 9.28009 -0.03735
C 29.49732 8.52815 -0.00971
C 29.53307 7.09732 0.01518
C 30.74675 6.40736 0.01908
C 30.74926 4.97276 0.07705
C 29.48031 4.25749 0.0103
C 29.54478 2.87778 0.02108
C 30.74722 2.07752 0.00716
C 30.76521 0.67717 0.00307
C 29.52396 34.06385 0.00346
C 31.94341 32.66866 0.01713
C 33.21328 31.92721 -0.01694
C 33.18921 30.53338 0.01428
C 32.00665 29.78386 -0.02142
C 31.98216 28.3751 0.0544
C 33.1942 27.71679 0.00026
C 33.17445 26.25872 0.00682
C 31.95051 25.56134 -0.01779
C 31.97599 24.15862 0.03794
C 33.22918 23.39081 0.01927
C 33.23066 21.9872 0.01574
C 30.75605 10.63886 -0.00944
C 29.56016 11.35514 -0.02155
C 29.49959 12.76043 -0.01461
C 30.75157 13.49598 -0.01303
C 27.07839 2.84328 0.01259
C 28.27566 2.11354 0.01799
C 28.28206 0.68962 0.01699
C 27.05803 34.07324 -0.00416
C 29.4736 32.66095 0.01177
C 30.78025 31.95748 0.04266
C 30.73092 30.5314 0.01324
C 29.53456 29.83222 0.0014
C 29.49752 28.3936 0.00924
C 30.77141 27.66574 0.02326
C 32.00468 21.304 -0.02383
C 30.73692 26.28029 0.00261
C 29.52722 24.07856 -0.02049
C 30.73953 23.42532 -0.01854
C 30.73617 22.04807 -0.01415
C 29.55488 21.32507 -0.03039
C 29.53621 19.88518 0.01836
C 30.71636 19.12205 0.03531
C 30.74173 17.71744 -0.00669
C 29.49396 17.03562 0.0101
C 29.54646 15.60816 0.01705
C 30.75644 14.90542 -0.0405
C 29.48519 25.54155 0.03265
C 31.97161 19.86804 -0.01429
C 33.19371 19.17657 -0.0136
C 33.17492 17.7341 0.00594
C 1.2265 23.47775 0.00723
C 1.21112 22.04522 0.02712
C 34.42599 21.29587 -0.02213
C 34.42933 19.88069 0.01951
C 1.2274 19.17341 -0.01678
C 1.19537 17.74502 0.01223
C 0.0057 17.01746 0.00648
C 0.00455 15.59008 0.02114
C 1.23054 14.90067 -0.02957
C 1.21611 13.52157 0.00343
C 34.42388 24.16012 0.03076
C 34.43241 12.77147 -0.02656
C 1.20473 10.69003 -0.00027
C 1.2218 9.21854 -0.00583
C 34.42363 8.54044 -0.02302
C 0.00229 7.10196 -0.02849
C 1.22104 6.36735 0.02931
C 1.20959 4.93646 0.00628
C 34.42779 4.22095 -0.0345
C 0.00281 2.83623 -0.00931
C 1.25021 2.17631 -0.00939
C 1.25994 0.68302 -0.00468
C 34.41235 11.36183 -0.02442
C 27.01598 4.24519 0.01495
C 34.43044 25.6 -0.05239
C 1.2503 27.65728 -0.00439
C 31.94856 17.02646 -0.02474
C 31.98497 15.58958 0.00369
C 33.22692 14.88813 0.00455
C 33.22557 13.45249 -0.00644
C 31.94078 12.79755 -0.01839
C 31.97708 11.31528 0.00137
C 33.18988 10.6375 0.00199
C 33.19268 9.24819 0.04381
C 31.97604 8.49961 0.02806
C 31.96143 7.09647 0.01504
C 1.23852 26.26145 -0.00598
C 33.18325 6.39072 -0.00069
C 31.98106 4.26117 -0.03838
C 32.00113 2.86056 0.00349
C 33.19204 2.13244 -0.00323
C 33.16547 0.68387 -0.00841
C 31.94918 34.0753 0.0001
C 34.42827 32.62555 -0.02927
C 1.21507 31.97308 -0.01404
C 1.25265 30.51533 0.01027
C 34.43206 29.80951 0.01831
C 34.3982 28.43214 -0.01037
C 33.17546 4.94611 0.04926
C 28.30046 4.96558 0.00235
C 28.30874 6.37152 0.01094
C 27.06855 7.07741 0.02198
C 22.12381 21.27924 -0.02422
C 22.15445 19.85887 0.01277
C 23.32576 19.14373 0.00096
C 23.36167 17.73001 -0.01527
C 22.13134 16.99691 0.01087
C 22.13599 15.61584 0.00199
C 23.3678 14.87459 0.01511
C 23.40454 13.47194 -0.00478
C 22.10247 12.76791 -0.01662
C 23.35185 10.62926 -0.01185
C 23.35759 22.01549 -0.01721
C 23.40115 9.20313 0.01126
C 23.38863 4.96009 -0.00381
C 22.12421 4.23679 0.03046
C 22.15306 2.8502 0.0296
C 23.3744 2.10613 0.03374
C 23.39267 0.70277 -0.02845
C 22.14638 34.07989 -0.03213
C 24.60384 32.73296 0.02239
C 25.86813 31.91084 0.01153
C 25.77725 30.50559 0.02734
C 24.59465 29.8162 -0.0055
C 23.34042 6.39209 0.01852
C 24.5762 28.40984 0.01515
C 23.36188 23.45762 -0.01154
C 22.14771 25.5286 -0.01594
C 19.70039 24.14333 -0.00111
C 20.90918 23.41744 -0.03557
C 20.92105 22.04565 0.03754
C 19.68812 21.2641 0.01739
C 19.67042 19.8959 0.00755
C 20.94104 19.16181 -0.0054
C 20.9206 17.74582 0.00667
C 19.65861 17.00827 0.00143
C 19.6955 15.62541 -0.017
C 20.90714 14.93742 0.00364
C 22.2117 24.13776 0.0106
C 20.91933 13.50984 -0.00831
C 20.90214 2.1426 -0.04422
C 20.90966 0.73129 0.00654
C 19.61822 34.05147 -0.00703
C 22.12604 32.65932 -0.04076
C 23.38563 31.96463 -0.00652
C 23.3586 30.5225 0.0058
C 22.14248 29.79677 -0.00865
C 22.1171 28.3856 0.00675
C 23.35333 27.69371 -0.00311
C 23.35868 26.27354 0.00742
C 19.66556 2.83895 -0.02957
C 20.89294 26.28301 0.01452
C 25.80768 27.69886 -0.00225
C 24.592 25.53412 -0.01107
C 28.26578 30.55124 0.00367
C 27.08427 29.79981 0.04306
C 27.05185 28.40037 0.00996
C 28.28343 27.68107 0.00195
C 28.2921 26.28095 -0.00802
C 27.0996 25.6242 -0.00218
C 27.05218 24.1526 -0.01654
C 28.2646 23.3857 -0.00037
C 28.30625 22.01216 -0.0032
C 27.03941 21.31124 0.00622
C 28.30232 31.94565 -0.01679
C 27.05827 19.84466 -0.02815
C 28.29603 17.75009 0.00487
C 27.05267 17.04166 0.00826
C 27.0342 15.64388 -0.00294
C 28.27365 14.87103 0.00152
C 28.29447 13.5169 0.01257
C 27.04084 12.76008 0.02316
C 27.0504 11.33678 0.04185
C 28.2781 10.63921 0.00194
C 28.28483 9.23222 -0.00621
C 27.05686 8.52923 0.02611
C 28.29381 19.15951 -0.00942
C 25.81234 26.29482 0.00071
C 27.04069 32.645 -0.01052
C 25.87939 0.74274 -0.01154
C 24.5845 24.12989 -0.01586
C 25.82945 23.43442 -0.01971
C 25.80919 22.00984 -0.02118
C 24.57335 21.33545 0.00733
C 24.59788 19.83015 -0.00178
C 25.7867 19.15058 0.00768
C 25.86024 17.7801 -0.0276
C 24.57354 17.07542 0.03005
C 24.56846 15.60497 -0.04078
C 25.80908 14.93997 0.02117
C 24.58365 34.07888 0.00684
C 25.8485 13.47512 0.02737
C 24.57299 11.36649 0.00135
C 25.85362 10.63132 0.03102
C 25.79902 9.19334 0.02555
C 24.57324 8.53688 0.01423
C 24.60139 7.07533 -0.00285
C 25.80656 6.39383 -0.009
C 25.85508 4.93789 -0.01199
C 24.54163 4.25026 -0.00229
C 24.61317 2.85981 -0.00938
C 25.80877 2.15527 -0.0264
C 24.64128 12.83826 -0.00498
C 2.48195 32.60901 0.01138
