368
Graphene
C 0.01534 0.0553 0.01295
C 16.17751 19.05783 -0.01952
C 15.93808 17.90212 -0.02813
C 16.07675 14.79165 0.00374
C 15.99192 13.66424 0.00052
C 14.874 12.77397 -0.03682
C 14.77214 11.41211 0.01965
C 14.60237 8.47061 0.02058
C 14.78137 7.07487 -0.01957
C 15.87473 6.2126 -0.0108
C 16.00294 4.91853 -0.00368
C 14.79256 4.26307 -0.02696
C 14.79849 2.79024 -0.00114
C 16.02437 2.05887 0.00228
C 15.99934 0.7009 0.00798
C 14.73613 0.09888 0.00422
C 17.23907 32.61606 0.0351
C 18.44481 31.85837 -0.03113
C 18.42472 30.45318 0.02098
C 17.2513 29.7616 0.01848
C 15.92111 21.97497 0.05265
C 17.17605 28.36966 -0.00619
C 15.98645 23.30715 -0.01717
C 14.65957 25.5989 0.02299
C 12.28333 11.46188 0.02819
C 13.51087 10.74922 0.00165
C 13.60089 9.24542 -0.02971
C 12.32226 8.58065 0.02894
C 12.316 7.1243 -0.01789
C 13.48796 6.3895 0.00444
C 13.59021 4.96542 -0.00925
C 12.36108 4.30206 0.01877
C 12.2862 2.92966 0.01363
C 13.4868 2.21582 -0.02162
C 13.47308 0.78356 0.00415
C 12.26484 34.03 -0.0014
C 14.76103 32.70481 0.02162
C 16.0249 31.96117 0.0076
C 16.08696 30.47919 0.01241
C 14.74183 29.83126 -0.01454
C 14.73683 28.38438 0.01945
C 15.985 27.65135 0.01416
C 15.91909 26.28387 0.03542
C 14.75402 24.12985 0.00244
C 13.70112 13.46599 -0.00891
C 18.42238 27.71371 -0.02162
C 17.20452 25.56223 -0.00481
C 19.60221 25.68797 0.04892
C 19.64605 24.17156 -0.00111
C 20.8775 23.38937 -0.03557
C 20.84604 21.96166 0.03754
C 19.66086 21.32647 0.01739
C 19.69225 19.89509 0.00755
C 20.82319 19.16195 -0.0054
C 20.90871 17.74044 0.00667
C 19.68562 17.07175 0.00143
C 19.77008 15.61072 -0.017
C 20.96797 14.89559 0.00364
C 21.06228 6.39103 -0.00831
C 20.93449 4.9596 -0.02957
C 19.71266 4.24018 -0.04422
C 19.60109 2.78795 0.00654
C 20.89214 2.10192 -0.00703
C 20.93756 0.64336 -0.04076
C 19.66871 34.01986 -0.00652
C 22.10515 32.67074 0.0058
C 20.84358 26.30072 0.01452
C 18.3767 26.32634 0.00889
C 20.86737 27.74072 -0.01581
C 19.62259 29.85036 -0.01979
C 17.2356 24.15508 0.00979
C 18.4668 23.40038 0.01443
C 18.49032 22.03327 0.03505
C 17.19148 21.35176 -0.02815
C 17.19002 19.92859 -0.04147
C 18.46589 19.16104 -0.05302
C 18.43599 17.75936 0.00213
C 17.17399 17.00114 -0.00066
C 17.21536 15.56584 -0.00289
C 18.42897 14.95627 0.00028
C 18.48444 4.97664 -0.02213
C 17.25218 4.25636 0.03698
C 17.18678 2.88852 -0.00109
C 18.37573 2.14286 -0.00491
C 18.45531 0.6794 0.03338
C 17.17618 34.01682 -0.0258
C 19.67015 32.64399 -0.0331
C 20.94374 31.92626 -0.00316
C 20.86204 30.53885 0.02188
C 19.64006 28.363 0.02691
C 23.31053 31.9827 -0.00865
C 13.56873 23.44882 -0.01046
C 13.46075 26.27846 -0.01536
C 6.16452 31.94786 0.01227
C 6.18347 30.52651 0.00873
C 4.94307 29.88792 -0.00049
C 4.95848 28.39319 0.00848
C 6.1162 27.73196 -0.01303
C 6.13749 26.23573 -0.01378
C 4.86777 25.62347 0.02635
C 4.86992 11.28579 0.0127
C 6.13303 10.75866 0.01396
C 6.06028 9.24537 0.01849
C 4.8323 8.50922 -0.01142
C 4.91237 7.12223 -0.00562
C 6.12795 6.44605 -0.00494
C 6.18879 4.90663 0.00054
C 4.93374 4.32146 0.03007
C 4.92347 2.89244 -0.00095
C 6.1542 2.16475 0.01572
C 6.10828 0.80028 -0.04848
C 4.91542 0.01183 -0.00892
C 4.94185 32.63017 -0.03337
C 7.36247 32.70331 -0.01362
C 2.44538 0.05564 -0.00966
C 3.76089 2.08657 0.03368
C 3.74003 30.55282 -0.03996
C 2.46365 29.79106 0.01465
C 2.55334 28.38568 -0.00074
C 3.72983 27.65402 -0.00518
C 3.65419 26.2537 0.0086
C 2.40668 25.68793 -0.00643
C 2.54224 24.16269 0.017
C 3.74083 23.45632 -0.03113
C 3.66549 13.48959 -0.02566
C 2.56394 12.7531 -0.00094
C 2.4918 11.33285 0.02322
C 3.73864 10.6164 -0.00725
C 3.62408 9.16977 -0.05697
C 2.35211 8.59325 0.01087
C 2.39677 7.20636 -0.01343
C 3.64296 6.4401 0.00988
C 3.732 5.00846 0.0276
C 2.48612 4.20396 0.01305
C 2.54742 2.80742 -0.00077
C 3.71288 0.74322 -0.02929
C 12.31669 25.58731 -0.02689
C 8.55122 31.9209 -0.0008
C 7.37001 29.77002 0.00393
C 9.88015 25.58297 0.01641
C 9.90683 11.34816 -0.00719
C 11.09112 10.70417 0.01364
C 11.08395 9.22504 -0.01062
C 9.83342 8.62403 -0.00033
C 9.79134 7.1349 0.03589
C 11.10808 6.40923 -0.02759
C 11.14083 4.96975 0.0402
C 9.88081 4.3307 0.00572
C 9.80198 2.74769 0.03592
C 11.03823 2.1123 0.00406
C 11.00441 0.7002 0.00943
C 9.73952 34.0395 0.02841
C 12.27677 32.6613 -0.01111
C 13.52817 31.96026 -0.01275
C 13.52108 30.56927 0.00985
C 12.34219 29.80972 -0.02245
C 12.30519 28.41413 -0.00428
C 13.48326 27.71697 0.03101
C 11.09491 26.24811 0.02339
C 8.59183 30.52602 0.0288
C 11.0638 27.72031 -0.00334
C 9.87701 29.86555 0.00057
C 7.35173 28.39772 0.00895
C 8.5962 27.75263 0.00685
C 8.65925 26.20132 0.02888
C 7.3821 25.71344 -0.00482
C 7.37986 11.34452 -0.01384
C 8.65303 10.85426 0.03693
C 8.55228 9.3636 0.01745
C 7.32592 8.60131 0.00488
C 7.35315 7.16651 -0.01004
C 8.51932 6.42047 -0.02896
C 8.62414 5.01231 -0.00131
C 7.4182 4.25275 -0.01118
C 7.37819 2.8301 -0.014
C 8.54718 2.16166 0.02147
C 8.54011 0.76409 0.00373
C 7.33857 0.0408 -0.00191
C 9.69832 32.66464 0.00438
C 11.02788 31.9702 0.01291
C 11.07853 30.53228 0.00093
C 9.86111 28.38607 -0.01634
C 23.263 30.59091 0.00675
C 22.10493 29.86531 -0.00311
C 22.15162 28.48398 0.00742
C 30.71339 0.70067 0.00307
C 29.49337 0.03065 0.00346
C 31.92578 32.64492 0.01713
C 33.1793 31.98436 -0.01694
C 33.12734 30.57934 0.01428
C 31.87556 29.83499 -0.02142
C 31.90944 28.39954 0.0544
C 33.1768 27.67553 0.00026
C 33.18487 26.30315 0.00682
C 31.93261 25.58091 -0.01779
C 32.00353 24.15652 0.03794
C 33.2268 23.41794 0.01927
C 33.1953 22.01094 0.01574
C 31.93644 21.33449 -0.02383
C 32.01939 19.91632 -0.01429
C 33.2275 19.17461 -0.0136
C 33.20779 17.75451 0.00594
C 31.97023 16.99708 -0.02474
C 31.99124 15.62986 0.00369
C 30.72034 2.17218 0.00716
C 33.24243 14.89561 0.00455
C 29.46986 2.77569 0.02108
C 30.76968 4.94467 0.07705
C 29.47898 25.58688 0.03265
C 29.4976 24.19976 -0.02049
C 30.76808 23.44704 -0.01854
C 30.7636 22.01411 -0.01415
C 29.50586 21.25205 -0.03039
C 29.49315 19.89375 0.01836
C 30.80866 19.20385 0.03531
C 30.74749 17.687 -0.00669
C 29.57261 16.9738 0.0101
C 29.52804 15.60883 0.01705
C 30.73512 14.92024 -0.0405
C 30.71755 13.45145 -0.01303
C 29.49136 12.7768 -0.01461
C 29.55705 11.34152 -0.02155
C 30.73124 10.62862 -0.00944
C 30.67914 9.16289 -0.03735
C 29.4685 8.5396 -0.00971
C 29.47431 7.13916 0.01518
C 30.69963 6.38741 0.01908
C 29.54487 4.22443 0.0103
C 30.75201 26.24687 0.00261
C 33.1787 13.51678 -0.00644
C 31.98138 11.35204 0.00137
C 0.05888 19.77656 0.01951
C 1.2343 19.00469 -0.01678
C 1.24242 17.85246 0.01223
C 34.40524 17.03549 0.00648
C 0.06091 15.58884 0.02114
C 1.21115 14.91175 -0.02957
C 1.25809 13.54571 0.00343
C 0.0018 12.87214 -0.02656
C 34.39123 11.37748 -0.02442
C 1.21028 10.69642 -0.00027
C 1.14107 9.31707 -0.00583
C 34.39895 8.53406 -0.02302
C 34.41867 7.08659 -0.02849
C 1.26538 6.43751 0.02931
C 1.26196 4.94144 0.00628
C 34.39908 4.25926 -0.0345
C 34.42019 2.82838 -0.00931
C 1.25199 2.19197 -0.00939
C 1.24563 0.82445 -0.00468
C 34.42736 21.19814 -0.02213
C 31.96315 12.723 -0.01839
C 1.12826 22.0313 0.02712
C 0.04802 24.16211 0.03076
C 33.15455 10.61307 0.00199
C 33.13015 9.1944 0.04381
C 31.90114 8.50926 0.02806
C 31.94237 7.06398 0.01504
C 33.18007 6.3769 -0.00069
C 33.21434 5.00096 0.04926
C 32.01164 4.32302 -0.03838
C 31.96537 2.83086 0.00349
C 33.19119 2.09922 -0.00323
C 33.14999 0.6832 -0.00841
C 31.89153 34.04132 0.0001
C 0.03127 32.69934 -0.02927
C 1.26168 31.89979 -0.01404
C 1.23159 30.50679 0.01027
C 34.38805 29.89641 0.01831
C 34.41924 28.43522 -0.01037
C 1.23355 27.81044 -0.00439
C 1.15809 26.33497 -0.00598
C 34.38586 25.55888 -0.05239
C 1.26743 23.43591 0.00723
C 30.74305 27.68022 0.02326
C 29.52995 28.38164 0.00924
C 29.48982 29.78612 0.0014
C 25.73239 31.94742 0.01153
C 25.8149 30.56885 0.02734
C 24.53007 29.8928 -0.0055
C 24.55605 28.3382 0.01515
C 25.79375 27.67651 -0.00225
C 25.76631 26.24336 0.00071
C 24.55271 25.58264 -0.01107
C 24.60153 24.14556 -0.01586
C 25.76265 23.34605 -0.01971
C 25.79383 21.98146 -0.02118
C 24.59754 21.24514 0.00733
C 24.54863 19.84471 -0.00178
C 25.8246 19.17027 0.00768
C 25.86037 17.70542 -0.0276
C 24.63791 17.01803 0.03005
C 24.65618 15.64046 -0.04078
C 25.82895 14.87719 0.02117
C 25.86517 13.43135 0.02737
C 24.49703 12.71507 -0.00498
C 24.52954 32.60765 0.02239
C 24.68 11.35547 0.00135
C 22.18357 34.04502 -0.03213
C 23.4037 2.12827 0.03374
C 23.27112 27.68531 -0.01594
C 23.25916 26.22191 0.0106
C 22.07633 25.47151 -0.01154
C 22.07681 24.09277 -0.01721
C 23.41357 23.4109 -0.02422
C 23.34551 21.99315 0.01277
C 22.07574 21.26472 0.00096
C 22.06586 19.8001 -0.01527
C 23.3228 19.13041 0.01087
C 23.36862 17.70823 0.00199
C 22.16757 16.98615 0.01511
C 22.17949 15.53779 -0.00478
C 23.42491 14.85991 -0.01662
C 23.36523 13.5283 -0.01185
C 22.08093 6.8894 0.01126
C 23.36913 6.36974 0.01852
C 23.32039 4.96762 -0.00381
C 22.1919 4.20148 0.03046
C 22.17231 2.76744 0.0296
C 23.33332 0.6939 -0.02845
C 25.81572 10.64191 0.03102
C 25.83898 9.21005 0.02555
C 24.61847 8.44026 0.01423
C 27.08338 15.6188 -0.00294
C 28.26333 14.93167 0.00152
C 28.26151 13.50429 0.01257
C 27.13034 12.76923 0.02316
C 27.1289 11.37793 0.04185
C 28.35794 10.69775 0.00194
C 28.28439 9.26715 -0.00621
C 27.09085 8.4646 0.02611
C 27.14186 7.11652 0.02198
C 28.30448 6.42558 0.01094
C 28.25742 5.01458 0.00235
C 27.02374 4.29398 0.01495
C 27.02089 2.85523 0.01259
C 28.22675 2.15393 0.01799
C 28.27596 0.72043 0.01699
C 27.04943 0.01427 -0.00416
C 29.48007 32.69148 0.01177
C 30.6724 31.95745 0.04266
C 30.72737 30.53559 0.01324
C 27.12884 17.04742 0.00826
C 28.35405 17.70371 0.00487
C 28.22185 19.11061 -0.00942
C 27.04058 19.90962 -0.02815
C 24.58136 7.08318 -0.00285
C 25.95197 6.41139 -0.009
C 25.77942 5.03773 -0.01199
C 24.61835 4.25861 -0.00229
C 24.53956 2.85177 -0.00938
C 25.76628 2.14109 -0.0264
C 25.71539 0.72582 -0.01154
C 24.54726 0.00293 0.00684
C 27.00894 32.6679 -0.01052
C 3.69313 31.94337 0.01996
C 28.14945 31.91379 -0.01679
C 26.99052 29.8117 0.04306
C 27.00939 28.42429 0.00996
C 28.22235 27.69732 0.00195
C 28.22494 26.28419 -0.00802
C 26.99542 25.5571 -0.00218
C 27.02958 24.11684 -0.01654
C 28.2578 23.41732 -0.00037
C 28.2836 21.90619 -0.0032
C 27.08733 21.28804 0.00622
C 28.27737 30.46422 0.00367
C 2.49479 32.65623 -0.00279
