353
Graphene
C 34.37111 0.04889 0.01295
C 17.18112 25.5311 -0.00114
C 17.20387 24.0705 0.00228
C 18.42112 23.39376 0.00798
C 18.44404 22.06946 0.00422
C 17.19012 21.31706 0.0351
C 17.13429 19.91239 -0.03113
C 18.3934 19.17996 0.02098
C 18.40051 17.70827 0.01848
C 18.46897 26.31188 -0.02696
C 17.20618 16.9325 -0.00619
C 18.50182 14.85541 0.00889
C 18.47905 13.52303 -0.00481
C 17.19292 12.87522 0.00979
C 17.21023 11.44117 0.01443
C 18.48061 10.59871 0.03505
C 18.43304 9.22916 -0.02815
C 17.21621 8.51682 -0.04147
C 17.22186 7.05835 -0.05302
C 17.20912 15.56204 -0.02162
C 18.44572 6.33002 0.00213
C 18.48798 27.63433 -0.00368
C 17.1953 29.83997 -0.01957
C 15.91548 14.9781 0.02162
C 16.01996 13.57184 0.0076
C 14.71738 12.84958 0.01241
C 14.76661 11.42226 -0.01454
C 15.99707 10.65798 0.01945
C 16.01441 9.224 0.01416
C 14.77576 8.59661 0.03542
C 14.75664 7.18308 0.02299
C 17.21969 28.40022 -0.0108
C 15.9299 6.3056 0.00244
C 14.78684 4.26573 0.05265
C 14.75399 2.79218 -0.01952
C 15.96861 2.18339 -0.02813
C 16.01021 0.73929 0.00374
C 14.75792 34.05531 0.00052
C 17.14823 32.65358 -0.03682
C 18.48929 31.97975 0.01965
C 18.44532 30.48439 0.02058
C 15.99718 4.9704 -0.01717
C 14.67355 15.73852 -0.0014
C 18.4447 4.92316 -0.00066
C 17.17855 2.79994 0.00028
C 19.68837 12.80612 -0.017
C 19.636 11.44698 0.00364
C 20.87988 10.64155 -0.00831
C 20.82589 9.22586 -0.02957
C 19.63825 8.49708 -0.04422
C 19.61622 7.04625 0.00654
C 20.85013 6.31817 -0.00703
C 20.91221 4.98306 -0.04076
C 20.89533 13.5275 0.00143
C 19.71331 4.20977 -0.00652
C 20.92942 2.11567 -0.00865
C 20.93416 0.59799 0.00675
C 19.69909 0.02087 -0.00311
C 22.17962 32.62721 0.00742
C 23.37465 31.92749 -0.01594
C 23.29966 30.56119 0.0106
C 22.14068 29.76645 -0.01154
C 22.11333 28.36717 -0.01721
C 19.68701 2.83699 0.0058
C 17.23743 4.24846 -0.00289
C 20.93389 14.91684 0.00667
C 19.65726 17.08472 0.00755
C 18.48796 2.10674 -0.02213
C 18.5283 0.69301 0.03698
C 17.22908 34.04029 -0.00109
C 19.72512 32.636 -0.00491
C 20.93051 31.96718 0.03338
C 20.9061 30.53679 -0.0258
C 19.65563 29.82563 -0.0331
C 19.64096 28.4257 -0.00316
C 19.69232 15.64459 -0.0054
C 20.81655 27.68521 0.02188
C 19.5999 25.48491 0.02691
C 19.67314 24.05641 -0.01581
C 20.92099 23.38266 0.01452
C 20.90089 21.94596 0.04892
C 19.71822 21.2857 -0.00111
C 19.60922 19.84377 -0.03557
C 20.86333 19.1324 0.03754
C 20.85335 17.75293 0.01739
C 20.79346 26.26209 -0.01979
C 14.67234 17.10836 0.00415
C 15.92853 17.74565 -0.02162
C 15.96557 19.19658 0.01363
C 4.97258 33.82944 0.03007
C 8.52734 17.66245 -0.00095
C 7.3208 16.96538 0.01572
C 7.37283 15.54364 -0.04848
C 8.60888 14.97307 -0.00892
C 8.58579 13.52419 -0.01362
C 7.44155 12.73533 -0.0008
C 7.3155 11.39618 0.0288
C 6.02722 0.39888 0.00054
C 8.59703 10.69387 0.00393
C 7.3606 8.74328 0.00685
C 8.90664 1.90913 0.02888
C 8.59872 0.56084 -0.00482
C 7.26247 0.51568 -0.01384
C 11.04838 17.7627 0.03693
C 9.7843 17.24929 0.01745
C 9.85371 15.63371 0.00488
C 11.04993 14.98883 -0.01004
C 8.6121 9.24127 0.00895
C 11.0764 13.49016 -0.02896
C 6.20942 9.35646 -0.00494
C 4.90729 11.27356 -0.01142
C 2.47163 19.78573 0.00988
C 3.56807 17.79935 0.0276
C 2.41575 17.04371 0.01305
C 2.51905 15.57987 -0.00077
C 3.67846 14.99021 0.03368
C 3.63272 13.47208 -0.02929
C 2.49092 12.76475 -0.00966
C 2.40326 11.37586 -0.03337
C 6.05355 10.7 -0.00562
C 3.67261 10.65392 0.01227
C 2.41403 0.20948 -0.00049
C 4.62955 32.6726 0.00848
C 6.11737 17.66429 -0.01303
C 4.86762 17.14406 -0.01378
C 4.88406 15.66557 0.02635
C 6.13655 14.88826 0.0127
C 6.08379 13.41791 0.01396
C 4.90963 12.79471 0.01849
C 3.57032 9.19042 0.00873
C 9.88935 12.8013 -0.00131
C 9.83431 11.38746 -0.01118
C 11.06403 10.64671 -0.014
C 12.35558 7.07257 -0.01111
C 13.56643 6.40315 -0.01275
C 13.54735 4.95993 0.00985
C 12.34805 4.30181 -0.02245
C 12.30514 2.90527 -0.00428
C 13.54662 2.17404 0.03101
C 13.5477 0.72142 -0.01536
C 12.22954 0.0293 -0.02689
C 12.36 8.46971 0.02841
C 14.76396 32.65362 -0.01046
C 15.88859 30.4382 0.02819
C 14.69799 29.91174 0.00165
C 16.13717 27.6731 -0.02971
C 16.1966 26.33056 0.02894
C 15.9604 23.36562 -0.01789
C 15.92385 22.11471 0.00444
C 14.78994 21.28962 -0.00925
C 14.67011 19.92276 0.01877
C 15.99487 32.01671 -0.00891
C 13.53655 9.26725 0.00943
C 13.55716 10.68324 0.00406
C 12.34247 11.38775 0.03592
C 11.08909 9.24287 0.02147
C 9.84596 8.51804 0.00373
C 9.87589 7.1421 -0.00191
C 11.00022 6.39341 0.00438
C 11.08123 5.00849 0.01291
C 9.85278 4.33567 0.00093
C 9.72767 2.90533 0.00057
C 11.07337 2.23231 -0.01634
C 11.07108 0.75821 -0.00334
C 9.79787 0.09121 0.02339
C 12.40933 32.78294 0.01641
C 13.5829 32.07893 -0.00719
C 13.43387 19.18138 0.01364
C 13.46465 17.82463 -0.01062
C 12.22155 17.13756 -0.00033
C 12.22942 15.72795 0.03589
C 13.46247 14.97235 -0.02759
C 13.48754 13.5377 0.0402
C 12.28851 12.8225 0.00572
C 23.32599 27.73348 -0.02422
C 3.4658 32.10034 -0.01343
C 23.31157 26.25831 0.01277
C 22.08621 24.16772 -0.01527
C 30.6298 4.98578 -0.01694
C 29.4015 4.26716 0.01428
C 29.37027 2.93809 -0.02142
C 30.52966 2.17406 0.0544
C 30.51981 0.67854 0.00026
C 29.27082 34.05591 0.00682
C 31.9117 32.69664 -0.01779
C 33.18047 32.00527 0.03794
C 30.73666 6.39765 0.01713
C 33.16684 30.53979 0.01927
C 31.91355 28.39598 -0.02383
C 33.19915 27.65302 -0.01429
C 33.22909 26.24855 -0.0136
C 31.94881 25.51874 0.00594
C 31.9666 24.14676 -0.02474
C 33.16725 23.40267 0.00369
C 33.22219 22.07367 0.00455
C 31.95844 21.30003 -0.00644
C 31.88965 29.81552 0.01574
C 31.91774 19.92066 -0.01839
C 29.5552 7.1655 0.00346
C 30.73605 9.23062 0.00716
C 29.53159 28.35395 -0.03039
C 30.72986 27.69094 0.01836
C 30.68366 26.27614 0.03531
C 29.47355 25.58486 -0.00669
C 29.53205 24.0913 0.0101
C 30.67665 23.39682 0.01705
C 30.74041 22.04461 -0.0405
C 29.54564 21.27574 -0.01303
C 29.51115 8.58467 0.00307
C 29.53864 19.83639 -0.01461
C 30.74325 17.7499 -0.00944
C 29.55321 17.00455 -0.03735
C 29.49139 15.59686 -0.00971
C 30.78138 14.94119 0.01518
C 30.70003 13.51668 0.01908
C 29.56645 12.7969 0.07705
C 29.5893 11.33807 0.0103
C 30.83395 10.6394 0.02108
C 30.74538 19.1477 -0.02155
C 29.49164 29.81119 -0.01415
C 33.16288 19.183 0.00137
C 31.97571 17.10977 0.04381
C 34.26654 24.19942 -0.01678
C 34.29232 21.28228 0.01223
C 34.35311 19.96353 0.00648
C 1.23575 19.21847 0.02114
C 1.16646 17.76834 -0.02957
C 34.39933 17.08862 0.00343
C 0.02664 15.58696 -0.02656
C 1.29263 14.8352 -0.02442
C 34.34395 25.54536 0.01951
C 1.27614 13.51316 -0.00027
C 0.05287 11.35902 -0.02302
C 1.24191 10.66978 -0.02849
C 1.28271 9.24643 0.02931
C 0.09453 8.43854 0.00628
C 34.3973 7.02631 -0.0345
C 34.25766 4.26167 -0.00931
C 34.30757 2.92294 -0.00939
C 1.1678 0.74688 -0.00468
C 0.00804 12.74166 -0.00583
C 33.23941 17.76197 0.00199
C 34.33778 28.39408 -0.02213
C 1.15608 30.64216 0.00723
C 32.00763 15.56939 0.02806
C 33.24446 14.88638 0.01504
C 33.25826 13.51029 -0.00069
C 31.9742 12.81546 0.04926
C 32.02413 11.38686 -0.03838
C 33.23177 10.6015 0.00349
C 33.24446 9.25346 -0.00323
C 31.99362 8.48638 -0.00841
C 0.139 29.73984 0.02712
C 31.95784 7.05154 0.0001
C 33.12073 4.96629 -0.01404
C 31.85098 4.22337 0.01027
C 31.93117 2.84789 0.01831
C 33.26739 2.17092 -0.01037
C 33.16346 0.80832 -0.00439
C 31.85242 0.03572 -0.00598
C 34.39275 32.67873 -0.05239
C 1.17925 31.98733 0.03076
C 33.21262 6.31379 -0.02927
C 30.7141 30.58527 -0.01854
C 30.7536 32.03708 -0.02049
C 29.40891 32.66694 0.03265
C 22.22017 34.07542 -0.01586
C 24.61371 32.69512 -0.01971
C 25.87108 31.98501 -0.02118
C 25.84812 30.59373 0.00733
C 24.61385 29.83418 -0.00178
C 24.62753 28.44421 0.00768
C 25.88359 27.75631 -0.0276
C 25.81939 26.26823 0.03005
C 23.46737 0.72795 -0.01107
C 24.55844 25.59023 -0.04078
C 25.85348 23.37372 0.02737
C 25.89653 21.92861 -0.00498
C 24.59027 21.31344 0.00135
C 24.64542 19.85361 0.03102
C 25.84349 19.16144 0.02555
C 25.7891 17.69618 0.01423
C 24.57671 16.99253 -0.00285
C 24.51711 15.55967 -0.009
C 24.5773 24.14535 0.02117
C 25.77597 14.81785 -0.01199
C 23.42301 2.15274 0.00071
C 22.15903 4.28207 0.01515
C 23.35646 23.50099 0.01087
C 23.38378 22.02581 0.00199
C 22.12804 21.28248 0.01511
C 22.10299 19.81613 -0.00478
C 23.3668 19.1532 -0.01662
C 23.32255 17.75691 -0.01185
C 22.06489 17.06991 0.01126
C 22.13227 15.61915 0.01852
C 22.18187 2.84499 -0.00225
C 23.34415 14.89358 -0.00381
C 22.03773 12.87595 0.0296
C 22.06386 11.38744 0.03374
C 23.30865 10.62554 -0.02845
C 23.25304 9.23703 -0.03213
C 22.00664 8.53022 0.02239
C 22.14037 7.04796 0.01153
C 23.33961 6.422 0.02734
C 23.40499 5.00487 -0.0055
C 23.3525 13.47724 0.03046
C 25.79679 13.36415 -0.00229
C 24.46812 12.69203 -0.00938
C 24.46529 11.29053 -0.0264
C 27.1074 19.80005 0.00194
C 28.33432 19.09522 -0.00621
C 28.28649 17.64331 0.02611
C 27.03739 16.92161 0.02198
C 26.94052 15.55853 0.01094
C 28.27241 14.84519 0.00235
C 28.32205 13.36934 0.01495
C 27.03586 12.72996 0.01259
C 27.08922 21.21769 0.04185
C 27.08779 11.31406 0.01799
C 28.27466 9.26446 -0.00416
C 27.01438 8.55041 0.01177
C 27.05182 7.15174 0.04266
C 28.26336 6.44538 0.01324
C 28.24759 5.04274 0.0014
C 27.06358 4.27961 0.00924
C 27.17991 2.92283 0.02326
C 27.32667 34.0659 0.00261
C 28.32545 10.62295 0.01699
C 28.36438 21.92608 0.02316
C 28.27475 23.46758 0.01257
C 27.04801 24.09939 0.00152
C 25.76772 10.6394 -0.01154
C 25.79566 9.20743 0.00684
C 24.52739 8.61512 -0.01052
C 24.58261 7.16877 -0.01679
C 25.83251 6.39474 0.00367
C 25.87905 4.99975 0.04306
C 24.59891 4.2809 0.00996
C 24.64885 2.82633 0.00195
C 25.99112 2.22337 -0.00802
C 26.0697 0.65913 -0.00218
C 24.72384 0.02746 -0.01654
C 27.04687 32.70722 -0.00037
C 28.30436 31.932 -0.0032
C 28.2848 30.49202 0.00622
C 27.07819 29.89677 -0.02815
C 26.99337 28.44771 -0.00942
C 28.33893 27.67576 0.00487
C 28.23475 26.31911 0.00826
C 27.02994 25.57495 -0.00294
C 22.0712 25.59863 0.00096
C 2.42887 32.78378 0.01087
