332
Graphene
C 34.34889 0.03664 0.01295
C 13.50982 13.56295 0.03505
C 12.40157 12.70624 -0.02815
C 12.3177 11.27659 -0.04147
C 13.52178 10.59702 -0.05302
C 13.54428 9.19564 0.00213
C 12.27787 8.57186 -0.00066
C 12.31171 7.13974 -0.00289
C 13.55254 14.99957 0.01443
C 13.51035 6.45209 0.00028
C 12.27742 4.29896 0.03698
C 12.20355 2.84504 -0.00109
C 13.52553 2.1816 -0.00491
C 13.50017 0.71285 0.03338
C 12.29864 34.04342 -0.0258
C 14.74106 32.5863 -0.0331
C 16.02462 31.93447 -0.00316
C 13.47203 5.02001 -0.02213
C 12.35008 15.71647 0.00979
C 12.2409 17.1405 -0.00481
C 13.51751 17.86728 0.00889
C 11.07554 4.90428 -0.03682
C 9.85261 4.30549 0.01965
C 9.77307 2.84038 0.02058
C 11.01808 2.1432 -0.01957
C 11.04914 0.68378 -0.0108
C 9.71916 0.06907 -0.00368
C 12.29139 32.61124 -0.02696
C 13.46683 31.91006 -0.00114
C 13.45582 30.39506 0.00228
C 12.63558 29.25532 0.00798
C 13.31007 28.145 0.00422
C 13.47502 26.6402 0.0351
C 13.43327 23.5254 -0.03113
C 13.48886 22.11391 0.02098
C 12.21261 21.40251 0.01848
C 12.22921 19.89006 -0.00619
C 13.49317 19.23743 -0.02162
C 16.07747 30.48493 0.02188
C 14.86825 29.93496 -0.01979
C 14.72536 28.44138 0.02691
C 15.91902 27.74413 -0.01581
C 14.7611 4.33333 0.00675
C 14.73389 2.89101 -0.00311
C 15.86333 2.06609 0.00742
C 15.92707 0.61376 -0.01594
C 14.68234 0.00125 0.0106
C 17.28303 32.50747 -0.01154
C 18.49231 31.83708 -0.01721
C 18.45613 30.33228 -0.02422
C 17.29976 29.64612 0.01277
C 17.23023 28.23858 0.00096
C 18.24187 27.25959 -0.01527
C 17.34714 25.71336 0.01087
C 17.28152 24.25675 0.00199
C 18.21794 22.45336 0.01511
C 17.08098 21.45687 -0.00478
C 17.1895 20.06687 -0.01662
C 18.52543 19.31986 -0.01185
C 15.99178 4.95971 -0.00865
C 10.98729 6.41104 0.00052
C 16.00049 6.36123 0.0058
C 14.79554 8.53876 -0.04076
C 15.98775 26.29541 0.01452
C 14.65194 25.76127 0.04892
C 14.58628 24.21722 -0.00111
C 15.95626 23.53305 -0.03557
C 15.85475 22.09008 0.03754
C 14.70936 21.33489 0.01739
C 14.73721 19.93645 0.00755
C 15.96233 19.18197 -0.0054
C 16.02772 17.77179 0.00667
C 14.74837 17.11491 0.00143
C 14.77583 15.63263 -0.017
C 16.12448 14.89238 0.00364
C 15.97057 13.43603 -0.00831
C 14.75786 12.74798 -0.02957
C 14.73147 11.30335 -0.04422
C 16.00864 10.61093 0.00654
C 15.97906 9.22896 -0.00703
C 14.66921 7.06182 -0.00652
C 18.46999 17.97601 0.01126
C 9.85557 7.15613 0.00374
C 11.07349 9.23339 -0.01952
C 2.46703 0.06255 -0.01118
C 4.74324 32.65486 -0.014
C 4.97578 21.25817 0.02147
C 4.87785 19.84093 0.00373
C 6.08279 19.11781 -0.00191
C 6.08469 17.78761 0.00438
C 4.87374 17.10926 0.01291
C 3.68765 0.71877 -0.00131
C 4.8794 15.67321 0.00093
C 6.04209 13.49478 -0.01634
C 4.79818 12.79727 -0.00334
C 4.8773 11.35424 0.02339
C 6.07554 10.71721 0.01641
C 6.17495 9.23274 -0.00719
C 4.95274 8.52579 0.01364
C 4.90616 7.11239 -0.01062
C 6.0393 14.93516 0.00057
C 3.72516 2.14183 -0.02896
C 2.52398 2.84322 -0.01004
C 2.52853 4.2413 0.00488
C 3.77647 21.83912 0.00054
C 2.53205 21.33803 0.03007
C 2.35217 19.9357 -0.00095
C 3.64419 19.12541 0.01572
C 3.61591 17.73234 -0.04848
C 2.34716 17.10762 -0.00892
C 2.41255 15.60063 -0.01362
C 3.62711 14.90901 -0.0008
C 3.63718 13.5447 0.0288
C 2.37907 12.85514 0.00393
C 2.41016 11.40237 0.00895
C 3.63578 10.70722 0.00685
C 3.65558 9.20572 0.02888
C 2.39046 8.63129 -0.00482
C 2.41273 7.19024 -0.01384
C 3.72782 6.4256 0.03693
C 3.76381 4.96376 0.01745
C 6.11284 6.33487 -0.00033
C 6.14375 4.94221 0.03589
C 4.88968 4.21672 -0.02759
C 4.9681 2.79059 0.0402
C 8.54478 2.18972 -0.00925
C 8.54231 0.80358 0.01877
C 7.31423 34.07278 0.01363
C 9.98613 32.77472 -0.02162
C 11.04636 32.07879 0.00415
C 10.89088 21.8771 -0.0014
C 9.66427 21.21478 0.02162
C 9.6924 19.78015 0.0076
C 11.02901 19.20157 0.01241
C 11.01837 17.76973 -0.01454
C 9.81904 17.02872 0.01945
C 9.88552 15.57824 0.01416
C 11.13231 14.93975 0.03542
C 11.15306 13.56804 0.02299
C 9.8599 12.81452 0.00244
C 9.87701 11.39674 -0.01717
C 11.0585 10.68192 0.05265
C 7.38882 2.82205 0.00444
C 9.82963 8.5121 -0.02813
C 7.41977 4.21782 -0.01789
C 8.55276 6.39504 -0.02971
C 6.16187 2.14128 0.00572
C 6.17357 0.62062 0.03592
C 4.96497 34.05193 0.00406
C 7.11822 21.30147 0.00943
C 7.31134 19.89701 0.02841
C 8.56743 19.1323 -0.01111
C 8.54624 17.659 -0.01275
C 7.2949 16.99344 0.00985
C 7.32221 15.60868 -0.02245
C 8.55843 14.91314 -0.00428
C 8.56547 13.44392 0.03101
C 7.31617 12.79871 -0.01536
C 7.32457 11.39342 -0.02689
C 8.65462 10.7135 -0.01046
C 8.62 9.25585 -0.00891
C 7.3647 8.54754 0.02819
C 7.35685 7.13247 0.00165
C 8.64833 4.91177 0.02894
C 17.33479 17.08007 0.01852
C 17.25599 15.65898 -0.00381
C 17.12743 12.66167 0.03046
C 33.091 30.60507 0.00026
C 31.95401 29.8313 0.00682
C 31.92493 28.42313 -0.01779
C 33.14759 27.70891 0.03794
C 33.18211 26.31368 0.01927
C 31.93779 25.5585 0.01574
C 31.92876 24.22052 -0.02383
C 33.05072 32.01782 0.0544
C 33.13327 23.50024 -0.01429
C 31.96728 21.30103 0.00594
C 31.90982 19.81569 -0.02474
C 33.1704 19.19412 0.00369
C 33.07135 17.66998 0.00455
C 32.14015 16.64544 -0.00644
C 32.99574 15.19147 -0.01839
C 33.32742 13.81695 0.00137
C 33.18951 22.09391 -0.0136
C 31.83731 32.65647 -0.02142
C 29.45936 0.06139 0.01428
C 30.7003 0.72841 -0.01694
C 30.72713 30.53257 0.01705
C 29.52312 29.81181 -0.0405
C 29.42746 28.40483 -0.01303
C 30.69445 27.73173 -0.01461
C 30.77777 26.31315 -0.02155
C 29.53912 25.64881 -0.00944
C 29.48389 24.15628 -0.03735
C 30.78644 23.52176 -0.00971
C 30.75725 22.09053 0.01518
C 29.50134 21.3835 0.01908
C 29.57994 19.98775 0.07705
C 30.65243 19.28973 0.0103
C 30.71367 6.37978 0.02108
C 30.71035 4.96743 0.00716
C 29.55783 4.19436 0.00307
C 29.47427 2.76652 0.00346
C 30.73171 2.12126 0.01713
C 33.17999 10.80127 0.00199
C 33.19864 9.2471 0.04381
C 32.1923 8.38504 0.02806
C 31.88172 7.04228 0.01504
C 1.19082 17.84252 0.01223
C 0.00962 17.11001 0.00648
C 34.34048 15.70354 0.02114
C 1.13972 14.9634 -0.02957
C 1.15125 13.60138 0.00343
C 34.35473 12.97415 -0.02656
C 34.35193 11.44436 -0.02442
C 1.18139 10.75122 -0.00027
C 1.12116 9.33662 -0.00583
C 0.00381 8.53478 -0.02302
C 34.42564 7.07424 -0.02849
C 1.25479 6.39193 0.02931
C 1.32602 4.91361 0.00628
C 0.06587 4.29777 -0.0345
C 0.0426 2.93131 -0.00931
C 1.24797 2.16455 -0.00939
C 1.21071 0.79532 -0.00468
C 1.18581 19.21555 -0.01678
C 30.67631 31.91401 0.0101
C 34.35649 19.97126 0.01951
C 1.24636 22.13516 0.02712
C 33.18925 6.37298 -0.00069
C 33.23079 4.9577 0.04926
C 32.01702 4.29427 -0.03838
C 31.99857 2.77401 0.00349
C 33.22627 2.17571 -0.00323
C 33.19491 0.78549 -0.00841
C 31.8934 0.07616 0.0001
C 34.29432 32.70208 -0.02927
C 1.15582 31.97593 -0.01404
C 1.1274 30.54765 0.01027
C 34.38734 29.95416 0.01831
C 34.36316 28.53085 -0.01037
C 1.06242 27.75961 -0.00439
C 1.01319 26.48494 -0.00598
C 34.42972 25.65028 -0.05239
C 34.39291 24.19463 0.03076
C 1.15026 23.53227 0.00723
C 34.40376 21.38215 -0.02213
C 29.43883 32.62396 -0.00669
C 27.00048 0.00606 0.03531
C 28.22534 0.67366 0.01836
C 20.75984 6.26909 0.02117
C 20.90007 4.95366 0.02737
C 19.65853 4.18858 -0.00498
C 19.63216 2.78408 0.00135
C 20.91728 2.00644 0.03102
C 20.96085 0.56927 0.02555
C 19.73965 33.99988 0.01423
C 22.09258 32.5127 -0.00285
C 23.28098 31.81952 -0.009
C 23.32215 30.32229 -0.01199
C 22.05046 29.6693 -0.00229
C 22.00412 28.22908 -0.00938
C 23.30006 27.66191 -0.0264
C 23.33995 26.30086 -0.01154
C 21.97424 25.74903 0.00684
C 21.796 24.31907 -0.01052
C 23.15876 23.54738 -0.01679
C 19.64546 7.0414 -0.04078
C 23.3228 22.16561 0.00367
C 19.56422 20.32747 0.03005
C 20.85118 22.23201 0.00768
C 17.23592 11.28411 0.0296
C 18.38146 9.28335 0.03374
C 17.22622 8.54776 -0.02845
C 17.17917 7.10374 -0.03213
C 18.36042 6.36161 0.02239
C 18.45279 4.96549 0.01153
C 17.22592 4.26386 0.02734
C 17.17441 2.81845 -0.0055
C 18.43057 2.07447 0.01515
C 18.45753 0.6444 -0.00225
C 17.18207 34.03312 0.00071
C 19.71202 32.59043 -0.01107
C 20.85091 31.79315 -0.01586
C 20.80005 30.33556 -0.01971
C 19.63155 29.40598 -0.02118
C 19.63403 27.89333 0.00733
C 21.03618 27.16408 -0.00178
C 19.52635 21.78473 -0.0276
C 3.60357 32.0631 -0.00494
C 22.12758 21.35219 0.04306
C 22.09746 4.18376 0.00195
C 24.56115 34.01973 0.01495
C 26.97397 32.62053 0.01259
C 28.21556 31.95144 0.01799
C 28.31983 30.50938 0.01699
C 27.04037 29.82268 -0.00416
C 26.95194 28.3677 0.01177
C 28.19928 27.74352 0.04266
C 28.2059 26.22763 0.01324
C 26.99502 25.4535 0.0014
C 26.96711 24.09403 0.00924
C 28.22722 23.53141 0.02326
C 28.28626 21.99222 0.00261
C 27.12047 21.18261 0.03265
C 28.39969 5.03828 -0.02049
C 27.09127 4.40685 -0.01854
C 27.07696 2.82483 -0.01415
C 28.19932 2.11737 -0.03039
C 25.79879 0.76646 0.00235
C 23.27695 4.85456 0.00996
C 25.87068 2.13873 0.01094
C 24.52804 4.28998 0.02611
C 22.0974 2.64543 -0.00802
C 23.35304 2.00992 -0.00218
C 23.36029 0.5915 -0.01654
C 22.12604 33.93163 -0.00037
C 24.49264 32.60545 -0.0032
C 25.67255 31.8913 0.00622
C 25.74348 30.50242 -0.02815
C 24.52411 29.82547 -0.00942
C 24.54403 28.42725 0.00487
C 25.73753 27.66039 0.00826
C 25.68171 26.24507 -0.00294
C 24.5316 25.54976 0.00152
C 24.50473 24.12333 0.01257
C 25.69022 23.36265 0.02316
C 25.88257 21.8813 0.04185
C 24.59035 21.48306 0.00194
C 25.78679 4.71449 -0.00621
C 24.61819 2.71437 0.02198
C 2.40266 32.62498 -0.00562
