356
Graphene
C 0.01641 0.03381 0.01295
C 17.25543 24.11079 -0.0108
C 18.4211 23.48652 -0.00368
C 18.44714 22.03319 -0.02696
C 17.24276 21.27851 -0.00114
C 17.26821 19.93597 0.00228
C 18.4676 19.18914 0.00798
C 18.37557 17.73707 0.00422
C 17.1555 16.98619 0.0351
C 17.17904 25.45736 -0.01957
C 17.21527 15.57276 -0.03113
C 18.52295 13.49629 0.01848
C 18.50773 10.62739 -0.00619
C 18.45444 9.24019 -0.02162
C 17.2757 8.50565 0.00889
C 17.14451 7.20706 -0.00481
C 18.44642 6.3544 0.00979
C 18.44547 4.90345 0.01443
C 17.14876 4.2237 0.03505
C 18.48098 14.81679 0.02098
C 17.16027 2.81507 -0.02815
C 18.41404 26.28938 0.02058
C 17.23339 28.36611 -0.03682
C 14.71307 24.17064 -0.02162
C 15.90281 23.49003 0.00415
C 16.00437 22.06095 -0.0014
C 14.80769 21.2749 0.02162
C 14.78781 19.94956 0.0076
C 15.99014 19.15316 0.01241
C 15.993 17.7576 -0.01454
C 15.99236 6.38717 0.01945
C 18.48072 27.70924 0.01965
C 15.98243 5.07068 0.01416
C 14.76326 2.85094 0.02299
C 15.97901 2.17171 0.00244
C 16.01994 0.64752 -0.01717
C 14.79751 34.04774 0.05265
C 17.23985 32.66972 -0.01952
C 18.50687 31.91801 -0.02813
C 18.42663 30.46177 0.00374
C 17.19056 29.84377 0.00052
C 14.76712 4.23871 0.03542
C 18.39132 2.13098 -0.04147
C 18.46236 0.7144 -0.05302
C 17.29369 34.07661 0.00213
C 19.67917 8.54146 0.00667
C 19.68878 7.11403 0.00143
C 20.86989 6.47432 -0.017
C 20.8987 5.01275 0.00364
C 19.67911 4.21293 -0.00831
C 19.67951 2.81817 -0.02957
C 20.91094 2.18617 -0.04422
C 20.89612 0.69736 0.00654
C 20.87422 9.23289 -0.0054
C 19.64848 0.01606 -0.00703
C 23.40017 31.93256 -0.00652
C 23.4172 30.59276 0.0058
C 22.14745 29.7842 -0.00865
C 22.15848 28.39463 0.00675
C 23.37378 27.67841 -0.00311
C 23.39411 26.22008 0.00742
C 22.10155 25.52912 -0.01594
C 22.12129 24.10283 0.0106
C 22.16133 32.60809 -0.04076
C 20.9207 10.60819 0.00755
C 19.66362 11.38609 0.01739
C 19.63985 12.7668 0.03754
C 19.62972 32.66277 -0.00066
C 20.85159 31.9952 -0.00289
C 20.91399 30.56824 0.00028
C 19.67963 29.83038 -0.02213
C 19.7173 28.36824 0.03698
C 20.92316 27.65607 -0.00109
C 20.91374 26.2612 -0.00491
C 19.66704 25.58688 0.03338
C 19.72183 24.16104 -0.0258
C 20.90325 23.42841 -0.0331
C 20.88693 21.97784 -0.00316
C 19.64335 21.26948 0.02188
C 19.68392 19.87123 -0.01979
C 20.94847 19.20527 0.02691
C 20.88693 17.75246 -0.01581
C 19.63412 17.05475 0.01452
C 19.64886 15.63095 0.04892
C 20.90637 14.89601 -0.00111
C 20.84508 13.48727 -0.03557
C 14.754 25.58649 0.01363
C 23.39591 23.4197 -0.01154
C 15.96232 26.25995 0.01877
C 14.73566 28.34074 0.00444
C 6.1145 31.92168 -0.00562
C 6.14865 30.45548 -0.00494
C 4.86657 29.79838 0.00054
C 6.22764 17.67188 0.03007
C 4.98851 17.06255 -0.00095
C 4.82841 15.70348 0.01572
C 4.89915 12.66092 -0.04848
C 4.88321 11.41627 -0.00892
C 4.91975 32.65492 -0.01142
C 4.90376 8.56145 -0.01362
C 6.17125 6.35743 0.0288
C 6.1408 4.99676 0.00393
C 4.90174 4.29166 0.00895
C 4.89242 2.85556 0.00685
C 6.14635 2.13806 0.02888
C 6.12887 0.76195 -0.00482
C 4.9244 34.02342 -0.01384
C 7.38405 32.69019 0.03693
C 4.93086 7.1485 -0.0008
C 8.61287 31.95748 0.01745
C 2.41006 0.06655 0.01849
C 3.71195 2.16426 0.0127
C 3.68723 30.49625 -0.05697
C 2.43477 29.81633 0.01087
C 2.3711 28.40936 -0.01343
C 3.71533 17.67004 0.00988
C 2.50319 17.08735 0.0276
C 2.42917 15.61963 0.01305
C 3.76484 14.91031 -0.00077
C 3.72065 13.49832 0.03368
C 3.63413 0.68629 0.01396
C 2.45601 12.86335 -0.02929
C 3.68804 10.65336 -0.03337
C 3.73193 9.21853 0.01227
C 2.45681 8.55209 0.00873
C 2.50809 7.08512 -0.00049
C 3.66114 6.35238 0.00848
C 3.74319 4.95705 -0.01303
C 2.38463 4.23696 -0.01378
C 2.45511 2.91793 0.02635
C 2.42594 11.41745 -0.00966
C 8.57409 30.53962 0.00488
C 7.40686 29.87833 -0.01004
C 7.3285 17.01493 -0.02896
C 13.55301 30.55765 0.00406
C 12.31672 29.86955 0.00943
C 12.29036 28.45553 0.02841
C 13.4969 27.68738 -0.01111
C 13.49903 26.2392 -0.01275
C 12.25922 25.54055 0.00985
C 12.39886 24.12683 -0.02245
C 13.47952 23.43769 -0.00428
C 13.50778 31.99106 0.03592
C 13.53926 5.02079 0.03101
C 12.25901 2.83027 -0.02689
C 13.60191 2.13415 -0.01046
C 13.62048 0.70833 -0.00891
C 12.34453 0.04146 0.02819
C 14.718 32.56565 0.00165
C 15.96803 31.93346 -0.02971
C 15.93175 30.54259 0.02894
C 14.69176 29.77235 -0.01789
C 12.2838 4.27301 -0.01536
C 12.27904 32.69322 0.00572
C 9.83076 0.02279 0.0402
C 11.1058 0.64646 -0.02759
C 7.41375 7.11867 -0.00131
C 8.55198 6.42275 -0.01118
C 8.63135 5.00116 -0.014
C 7.35452 4.25877 0.02147
C 7.3866 2.84812 0.00373
C 8.64814 2.18031 -0.00191
C 8.61492 0.72342 0.00438
C 7.33716 0.05308 0.01291
C 9.88853 32.65138 0.00093
C 11.08452 32.00055 0.00057
C 11.07675 30.57533 -0.01634
C 9.87824 29.88175 -0.00334
C 9.80997 28.51972 0.02339
C 11.02357 27.7342 0.01641
C 11.13439 26.31327 -0.00719
C 10.99583 4.9787 0.01364
C 9.85915 4.33105 -0.01062
C 9.85854 2.84386 -0.00033
C 11.0729 2.10173 0.03589
C 15.96157 27.72634 -0.00925
C 23.32349 22.05735 -0.01721
C 22.12843 21.31068 -0.02422
C 22.08788 19.87445 0.01277
C 30.68157 2.15491 0.01713
C 30.74529 0.6826 -0.01694
C 29.55259 34.05456 0.01428
C 31.93114 32.69771 -0.02142
C 33.17976 31.96784 0.0544
C 33.25518 30.59203 0.00026
C 31.99864 29.76687 0.00682
C 31.96992 28.39742 -0.01779
C 29.45067 2.82028 0.00346
C 33.21092 27.70251 0.03794
C 31.95725 25.58799 0.01574
C 31.90869 24.147 -0.02383
C 33.16512 23.43599 -0.01429
C 33.18128 21.95769 -0.0136
C 31.96103 21.35331 0.00594
C 31.93121 19.88892 -0.02474
C 33.21497 19.1847 0.00369
C 33.21663 17.70558 0.00455
C 33.21819 26.26625 0.01927
C 31.98314 17.05844 -0.00644
C 29.55457 4.24447 0.00307
C 30.75624 6.44137 0.02108
C 29.50761 25.55566 -0.01415
C 29.52349 24.15237 -0.03039
C 30.73043 23.42509 0.01836
C 30.6787 22.05865 0.03531
C 29.55264 21.2784 -0.00669
C 29.51803 19.83033 0.0101
C 30.7992 19.13829 0.01705
C 30.76423 17.77254 -0.0405
C 30.74482 4.98582 0.00716
C 29.53654 17.04952 -0.01303
C 30.73262 14.89833 -0.02155
C 30.74363 13.46828 -0.00944
C 29.4985 12.82298 -0.03735
C 29.55429 11.40433 -0.00971
C 30.7522 10.57986 0.01518
C 30.78732 9.20136 0.01908
C 29.54817 8.53433 0.07705
C 29.49556 7.13569 0.0103
C 29.51371 15.58051 -0.01461
C 31.91846 15.63534 -0.01839
C 33.23515 14.8464 0.00137
C 33.15476 13.43152 0.00199
C 1.2045 19.18934 -0.01678
C 1.18816 17.73574 0.01223
C 34.39732 17.0431 0.00648
C 34.40777 15.60741 0.02114
C 1.23807 14.86053 -0.02957
C 1.26185 13.47892 0.00343
C 0.00131 12.80146 -0.02656
C 0.04321 11.35844 -0.02442
C 0.01335 19.8263 0.01951
C 1.23076 10.68031 -0.00027
C 0.03406 8.50025 -0.02302
C 34.3978 7.08953 -0.02849
C 1.23101 6.35789 0.02931
C 1.21218 4.96837 0.00628
C 34.41431 4.25269 -0.0345
C 0.02462 2.89099 -0.00931
C 1.23736 2.14747 -0.00939
C 1.27612 0.77224 -0.00468
C 1.19843 9.25936 -0.00583
C 34.41207 21.30111 -0.02213
C 34.40219 24.19308 0.02712
C 0.04905 25.58645 0.00723
C 31.98565 12.76333 0.04381
C 31.94432 11.31177 0.02806
C 33.19203 10.69053 0.01504
C 33.20727 9.25534 -0.00069
C 32.01061 8.57919 0.04926
C 31.9386 7.03769 -0.03838
C 33.16572 6.37761 0.00349
C 33.1915 4.95942 -0.00323
C 32.03035 4.24488 -0.00841
C 31.9061 2.8012 0.0001
C 33.147 2.14045 -0.02927
C 33.19354 0.68064 -0.01404
C 31.94844 34.07537 0.01027
C 34.42039 32.61575 0.01831
C 1.22844 32.0177 -0.01037
C 1.23577 30.56152 -0.00439
C 0.01408 29.82998 -0.00598
C 0.00238 28.39757 -0.05239
C 1.20227 27.68814 0.03076
C 30.69398 26.27958 -0.01854
C 30.74741 27.6826 -0.02049
C 29.54325 28.33381 0.03265
C 29.51699 29.78923 0.00261
C 24.55495 28.43447 -0.01107
C 25.83477 27.72784 -0.01586
C 25.81592 26.33844 -0.01971
C 24.56796 25.57274 -0.02118
C 24.55683 24.14214 0.00733
C 25.81602 23.45503 -0.00178
C 25.8194 22.01445 0.00768
C 24.5936 21.32187 -0.0276
C 24.56293 29.8088 0.00071
C 24.55816 19.88054 0.03005
C 25.80339 17.77277 0.02117
C 24.58724 17.12115 0.02737
C 24.61607 15.59273 -0.00498
C 25.82549 14.8882 0.00135
C 25.76404 13.47372 0.03102
C 24.58069 12.78756 0.02555
C 24.64129 11.35575 0.01423
C 25.77205 10.58852 -0.00285
C 25.76274 19.16447 -0.04078
C 25.82791 30.5424 -0.00225
C 25.81558 31.91785 0.01515
C 24.57086 32.68201 -0.0055
C 23.36953 19.12484 0.00096
C 23.37214 17.74011 -0.01527
C 22.17161 17.03642 0.01087
C 22.12668 15.592 0.00199
C 23.38654 14.84945 0.01511
C 23.34092 13.46066 -0.00478
C 22.08629 12.76191 -0.01662
C 22.14229 11.34752 -0.01185
C 23.42808 10.60695 0.01126
C 23.3534 9.23814 0.01852
C 22.06493 8.5 -0.00381
C 22.07868 7.07293 0.03046
C 23.36177 6.32566 0.0296
C 23.32882 4.96792 0.03374
C 22.16843 4.2421 -0.02845
C 22.14971 2.83876 -0.03213
C 23.28419 2.16481 0.02239
C 23.30921 0.65892 0.01153
C 22.12799 34.05237 0.02734
C 25.83368 9.19975 -0.009
C 3.7387 31.89642 -0.00725
C 24.63662 8.46694 -0.01199
C 25.86057 6.3916 -0.00938
C 28.27102 14.90555 0.04185
C 28.29992 13.43352 0.00194
C 27.01474 12.75966 -0.00621
C 27.04044 11.38582 0.02611
C 28.33409 10.60158 0.02198
C 28.37235 9.18672 0.01094
C 27.04342 8.48112 0.00235
C 27.05051 7.09032 0.01495
C 27.0663 15.6212 0.02316
C 28.28215 6.37053 0.01259
C 27.0881 4.26738 0.01699
C 27.01642 2.82423 -0.00416
C 28.26746 2.13644 0.01177
C 28.34359 0.69111 0.04266
C 27.12226 0.02266 0.01324
C 29.5478 32.68339 0.0014
C 30.75315 31.96517 0.00924
C 30.78329 30.4381 0.02326
C 28.27827 4.96712 0.01799
C 27.0806 17.06036 0.01257
C 28.26515 17.80689 0.00152
C 28.23846 19.18166 -0.00294
C 25.83177 5.00769 -0.0264
C 24.57642 4.29852 -0.01154
C 24.5829 2.83528 0.00684
C 25.8463 2.12973 -0.01052
C 25.82759 0.75942 -0.01679
C 24.58784 34.05017 0.00367
C 27.09301 32.72244 0.04306
C 28.32285 31.95694 0.00996
C 28.3285 30.50703 0.00195
C 26.99226 29.80238 -0.00802
C 27.0864 28.44165 -0.00218
C 28.26739 27.66734 -0.01654
C 28.4098 26.30943 -0.00037
C 27.04067 25.60227 -0.0032
C 27.05246 24.12761 0.00622
C 28.3015 23.40093 -0.02815
C 28.2006 22.00034 -0.00942
C 26.96977 21.30127 0.00487
C 26.98734 19.87046 0.00826
C 24.55683 7.09702 -0.00229
C 2.49133 32.62091 0.02322
