333
Graphene
C 0.01395 0.0357 0.01295
C 13.57951 31.92639 0.03505
C 13.48469 30.59787 -0.02815
C 12.29997 29.86173 -0.04147
C 12.31641 28.39048 -0.05302
C 13.57968 27.74101 0.00213
C 13.53725 26.29714 -0.00066
C 12.245 25.51203 -0.00289
C 12.27766 32.65142 0.01443
C 12.28817 24.01756 0.00028
C 13.52044 21.97073 0.03698
C 12.34832 21.30328 -0.00109
C 12.3172 19.8183 -0.00491
C 13.55327 19.11418 0.03338
C 13.65231 17.69392 -0.0258
C 13.46778 13.56935 -0.0331
C 12.32654 12.75367 -0.00316
C 13.53711 23.3425 -0.02213
C 9.76207 34.04244 0.00979
C 11.10255 0.64222 -0.00481
C 11.00819 2.10881 0.00889
C 9.83204 24.1769 -0.03682
C 11.08809 23.37984 0.01965
C 11.02196 22.02769 0.02058
C 9.76191 21.36841 -0.01957
C 11.08623 19.23086 -0.0108
C 11.12421 14.91195 -0.00368
C 11.06073 13.51301 -0.02696
C 9.86145 12.77868 -0.00114
C 9.81548 11.39029 0.00228
C 11.08626 10.65685 0.00798
C 11.08562 9.25558 0.00422
C 9.84463 8.59524 0.0351
C 9.81952 7.10907 -0.03113
C 11.05034 6.44276 0.02098
C 11.08806 4.90284 0.01848
C 9.86066 4.24695 -0.00619
C 9.85929 2.87934 -0.02162
C 12.38035 11.34394 0.02188
C 13.51661 10.60961 -0.01979
C 13.5171 9.25938 0.02691
C 12.32101 8.48675 -0.01581
C 15.91451 19.14597 0.00675
C 16.00003 17.73505 -0.00311
C 14.81831 17.06393 0.00742
C 16.02037 14.91465 -0.01594
C 15.99261 13.51687 0.0106
C 14.68976 12.89892 -0.01154
C 14.72735 11.39602 -0.01721
C 15.95141 10.58005 -0.02422
C 15.96826 9.17892 0.01277
C 14.74556 8.55853 0.00096
C 14.74943 7.06788 -0.01527
C 15.94967 6.39484 0.01087
C 15.96256 4.99127 0.00199
C 14.76993 4.24075 0.01511
C 14.8095 2.89733 -0.00478
C 15.98395 2.09812 -0.01662
C 16.0065 0.70692 -0.01185
C 14.76679 19.86795 -0.00865
C 9.86219 25.52472 0.00052
C 14.70545 21.29686 0.0058
C 15.95561 23.41845 -0.04076
C 12.31826 7.05179 0.01452
C 13.5532 6.34997 0.04892
C 13.51628 4.99495 -0.00111
C 12.26013 4.24305 -0.03557
C 12.25868 2.84415 0.03754
C 13.4705 2.17291 0.01739
C 13.51622 0.74208 0.00755
C 12.28244 0.0148 -0.0054
C 14.79604 32.61063 0.00667
C 16.01179 31.93554 0.00143
C 16.00093 30.55638 -0.017
C 14.76614 29.87967 0.00364
C 14.80445 28.44403 -0.00831
C 16.01907 27.69212 -0.02957
C 15.96994 26.22798 -0.04422
C 14.73344 25.53794 0.00654
C 14.7542 24.11521 -0.00703
C 16.09176 22.05403 -0.00652
C 11.03434 26.25775 0.00374
C 11.02662 27.69666 -0.02813
C 9.79519 28.41253 -0.01952
C 3.6789 4.97682 -0.00131
C 2.41699 4.25527 -0.01118
C 2.45867 2.85352 -0.014
C 3.72806 2.12534 0.02147
C 3.66039 0.71232 0.00373
C 2.45931 34.039 -0.00191
C 4.88361 32.64882 0.00438
C 6.15646 31.92769 0.01291
C 6.11899 30.51171 0.00093
C 4.95303 29.80523 0.00057
C 4.98093 28.42093 -0.01634
C 6.14898 27.76269 -0.00334
C 6.1827 26.24829 0.02339
C 4.89373 25.58764 0.01641
C 4.90657 24.16673 -0.00719
C 6.16046 23.50481 0.01364
C 6.16521 21.94343 -0.01062
C 3.64122 6.42957 -0.02896
C 4.86106 21.35919 -0.00033
C 2.38656 7.10477 -0.01004
C 3.67086 9.23304 0.01745
C 3.68939 30.56811 -0.00494
C 2.48573 29.76356 0.00054
C 2.47183 28.40537 0.03007
C 3.71789 27.70615 -0.00095
C 3.67493 26.28486 0.01572
C 2.39242 25.61647 -0.04848
C 2.46916 24.17497 -0.00892
C 3.67968 23.42001 -0.01362
C 3.65242 22.01384 -0.0008
C 2.41735 21.32708 0.0288
C 2.50681 19.85165 0.00393
C 2.52092 17.02228 0.00895
C 2.41771 15.67662 0.00685
C 3.80526 13.41003 0.02888
C 2.47038 12.78346 -0.00482
C 2.39284 11.33707 -0.01384
C 3.65114 10.74022 0.03693
C 2.44229 8.52843 0.00488
C 14.80241 34.04136 0.01126
C 4.8397 12.81486 0.03589
C 6.21275 10.66007 0.0402
C 7.33686 21.27816 -0.00925
C 7.43422 11.33232 0.01877
C 8.52587 10.60973 0.01363
C 8.58098 9.28742 -0.02162
C 7.32164 8.56851 0.00415
C 7.35682 7.11686 -0.0014
C 8.63266 6.42347 0.02162
C 8.61299 4.88359 0.0076
C 7.40932 4.26711 0.01241
C 7.40197 2.88007 -0.01454
C 8.60742 2.17796 0.01945
C 8.57374 0.72237 0.01416
C 7.33015 34.03094 0.03542
C 9.83877 32.62763 0.02299
C 11.12417 31.94976 0.00244
C 11.08364 30.49524 -0.01717
C 9.84518 29.83546 0.05265
C 8.59967 22.05365 0.00444
C 4.88683 11.36886 -0.02759
C 8.66818 23.44442 -0.01789
C 7.44249 25.5657 -0.02971
C 6.15018 9.27918 0.00572
C 4.85774 8.42617 0.03592
C 4.88619 7.08622 0.00406
C 6.09452 6.40082 0.00943
C 6.08665 4.91734 0.02841
C 4.90612 4.27053 -0.01111
C 4.90431 2.87336 -0.01275
C 6.13411 2.16514 0.00985
C 6.16438 0.66102 -0.02245
C 4.89471 0.03586 -0.00428
C 7.36359 32.67657 0.03101
C 8.63626 31.9657 -0.01536
C 8.60753 30.52355 -0.02689
C 7.39973 29.83116 -0.01046
C 7.4397 28.44486 -0.00891
C 8.6081 27.69076 0.02819
C 8.57998 26.31323 0.00165
C 7.43249 24.13359 0.02894
C 3.70677 31.98512 -0.00562
C 17.21187 32.68017 0.01852
C 18.471 30.57243 0.03046
C 30.70937 2.22555 0.00026
C 30.71468 0.75779 0.00682
C 29.50971 0.00049 -0.01779
C 31.91373 32.65369 0.03794
C 33.21369 31.96399 0.01927
C 33.23997 30.52093 0.01574
C 33.27267 27.66316 -0.02383
C 29.49705 2.87813 0.0544
C 33.17995 23.42045 -0.01429
C 31.94203 19.87336 0.00594
C 33.14196 19.17143 -0.02474
C 33.17783 17.78642 0.00369
C 33.23322 14.84749 0.00455
C 33.21706 13.46336 -0.00644
C 31.91139 12.82635 -0.01839
C 31.93396 11.38123 0.00137
C 33.26978 22.15521 -0.0136
C 29.53043 4.21394 -0.02142
C 30.73898 4.98708 0.01428
C 30.67841 6.38971 -0.01694
C 27.07014 7.08986 0.01705
C 28.26242 6.42379 -0.0405
C 28.19838 4.96925 -0.01303
C 26.98486 4.26767 -0.01461
C 27.03255 2.77956 -0.02155
C 28.30178 2.18544 -0.00944
C 28.21983 0.71471 -0.03735
C 27.06778 0.06743 -0.00971
C 29.59079 32.59958 0.01518
C 30.6849 32.01195 0.01908
C 30.78145 19.19209 0.07705
C 30.76218 17.78072 0.0103
C 29.53333 11.43102 0.02108
C 30.71083 10.62989 0.00716
C 30.73335 9.21186 0.00307
C 29.49914 8.51504 0.00346
C 29.44987 7.15293 0.01713
C 33.22968 10.6429 0.00199
C 33.21104 9.18822 0.04381
C 32.02747 8.48777 0.02806
C 31.95555 7.11753 0.01504
C 1.23487 17.77888 0.01223
C 0.00654 17.02847 0.00648
C 34.394 15.59701 0.02114
C 1.23194 14.8935 -0.02957
C 1.21136 13.51521 0.00343
C 0.0652 12.80189 -0.02656
C 34.4295 11.28463 -0.02442
C 1.23857 10.61564 -0.00027
C 1.23524 9.25128 -0.00583
C 34.42056 8.55985 -0.02302
C 34.42788 7.05553 -0.02849
C 1.16282 6.37877 0.02931
C 1.26474 4.89951 0.00628
C 34.39173 4.19324 -0.0345
C 34.39687 2.83695 -0.00931
C 1.20534 2.11237 -0.00939
C 1.20403 0.74546 -0.00468
C 1.24064 19.19251 -0.01678
C 27.05838 8.45953 0.0101
C 0.03098 19.87965 0.01951
C 1.20571 22.05834 0.02712
C 33.25431 6.36951 -0.00069
C 33.20335 4.89455 0.04926
C 31.9889 4.27563 -0.03838
C 32.01653 2.83219 0.00349
C 33.16692 2.10332 -0.00323
C 33.21783 0.67839 -0.00841
C 31.95469 0.01733 0.0001
C 34.42712 32.67653 -0.02927
C 1.26142 32.0305 -0.01404
C 1.22958 30.54461 0.01027
C 0.02563 29.88698 0.01831
C 34.39234 28.42522 -0.01037
C 1.2415 27.69227 -0.00439
C 1.20859 26.26058 -0.00598
C 0.05314 25.64407 -0.05239
C 0.00019 24.1846 0.03076
C 1.2022 23.40039 0.00723
C 34.41135 21.33123 -0.02213
C 28.29277 9.23222 -0.00669
C 28.33568 10.71484 0.03531
C 27.0126 11.25855 0.01836
C 18.39751 0.69533 0.02117
C 17.20412 34.07312 0.02737
C 19.77642 32.69883 -0.00498
C 20.88166 17.68134 0.00135
C 19.62312 17.04708 0.03102
C 19.65533 15.5606 0.02555
C 20.86891 14.90174 0.01423
C 20.91488 13.42638 -0.00285
C 19.67422 12.83705 -0.009
C 19.68159 11.40703 -0.01199
C 20.9032 10.65551 -0.00229
C 20.91162 9.22582 -0.00938
C 19.62037 8.50324 -0.0264
C 19.62033 7.11583 -0.01154
C 20.90334 6.40609 0.00684
C 20.95591 4.9088 -0.01052
C 19.68867 4.24042 -0.01679
C 18.38186 2.17856 -0.04078
C 19.67418 2.86295 0.00367
C 17.18829 2.9141 0.03005
C 18.41465 4.97583 0.00768
C 17.22436 29.79752 0.0296
C 17.19582 28.44744 0.03374
C 17.23316 21.2762 -0.02845
C 17.24741 19.89195 -0.03213
C 18.42806 19.15212 0.02239
C 18.4223 17.75236 0.01153
C 17.1902 17.05735 0.02734
C 17.17458 15.67904 -0.0055
C 18.43423 14.85071 0.01515
C 18.42839 13.46598 -0.00225
C 17.16073 12.77023 0.00071
C 17.20512 11.37302 -0.01107
C 18.48951 10.65106 -0.01586
C 18.36392 9.17455 -0.01971
C 17.16979 8.50862 -0.02118
C 17.22172 7.09437 0.00733
C 18.42688 6.33542 -0.00178
C 17.17409 4.3008 -0.0276
C 18.52487 31.88952 -0.00381
C 20.9303 2.12978 0.04306
C 19.71207 0.01945 0.00195
C 24.58638 12.75059 0.01495
C 24.60915 11.29887 0.01259
C 25.81109 10.61122 0.01799
C 25.78645 9.20001 0.01699
C 24.59918 8.50558 -0.00416
C 24.62812 7.06606 0.01177
C 25.81722 6.4175 0.04266
C 25.72813 4.96582 0.01324
C 24.52133 4.2244 0.0014
C 24.60596 2.7603 0.00924
C 25.80166 2.1306 0.02326
C 25.85025 0.65111 0.00261
C 24.61801 34.07177 0.03265
C 26.93759 16.95875 -0.02049
C 26.98815 15.60013 -0.01854
C 28.28823 13.49673 -0.01415
C 27.10086 12.76615 -0.03039
C 25.86484 13.44112 0.00235
C 20.96218 0.66539 0.00996
C 25.87369 14.87585 0.01094
C 24.58344 17.04717 0.02611
C 22.11846 17.00722 -0.00802
C 22.09598 15.61074 -0.00218
C 23.33592 14.93315 -0.01654
C 23.41733 13.44218 -0.00037
C 22.22669 12.72874 -0.0032
C 22.10817 11.31871 0.00622
C 23.35689 10.62257 -0.02815
C 23.38061 9.2204 -0.00942
C 22.13475 8.49666 0.00487
C 22.15956 7.10797 0.00826
C 23.32607 6.38225 -0.00294
C 23.3673 4.98916 0.00152
C 22.18901 4.2435 0.01257
C 22.20326 2.8505 0.02316
C 23.39826 2.16251 0.04185
C 23.37843 0.71472 0.00194
C 22.16345 34.01558 -0.00621
C 24.57692 15.64033 0.02198
C 2.50307 32.69114 -0.01142
