348
Graphene
C 0.01395 0.0142 0.01295
C 15.97936 2.14367 0.00422
C 15.9717 0.71883 0.0351
C 14.74378 34.07169 -0.03113
C 17.22334 32.63466 0.02098
C 18.47415 31.95081 0.01848
C 18.46673 30.55182 -0.00619
C 17.18453 29.82446 -0.02162
C 17.18947 28.40761 0.00889
C 18.40901 27.64807 -0.00481
C 18.42511 26.25076 0.00979
C 17.25854 25.5945 0.01443
C 17.21634 24.10146 0.03505
C 18.4593 23.41666 -0.02815
C 18.48616 22.01872 -0.04147
C 17.19575 21.37572 -0.05302
C 17.19979 7.06105 0.00213
C 18.43633 6.34974 -0.00066
C 14.72449 2.8157 0.00798
C 14.78159 4.2458 0.00228
C 15.96266 4.95223 -0.00114
C 15.9937 6.3815 -0.02696
C 12.30953 24.08201 -0.01454
C 13.50424 23.47108 0.01945
C 13.47663 5.03023 0.01416
C 12.29672 4.28222 0.03542
C 12.35668 2.84553 0.02299
C 13.54975 2.12746 0.00244
C 13.54495 0.71576 -0.01717
C 12.30866 34.07172 0.05265
C 18.45164 4.96854 -0.00289
C 14.75425 32.64639 -0.01952
C 15.99962 30.55779 0.00374
C 14.7237 29.81346 0.00052
C 14.77772 28.44969 -0.03682
C 16.00526 27.6626 0.01965
C 16.00198 26.23373 0.02058
C 14.75775 25.57775 -0.01957
C 14.79749 24.13535 -0.0108
C 15.99186 23.40342 -0.00368
C 15.96877 31.95544 -0.02813
C 17.27265 4.23964 0.00028
C 17.20253 2.82827 -0.02213
C 18.45053 2.13138 0.03698
C 19.7358 7.11297 -0.00831
C 20.9111 6.41488 -0.02957
C 20.91563 4.99201 -0.04422
C 19.65784 4.33399 0.00654
C 19.65051 2.82147 -0.00703
C 20.91494 2.09035 -0.04076
C 20.94281 0.70739 -0.00652
C 19.6869 0.01816 0.0058
C 19.69013 8.544 0.00364
C 22.11091 32.65848 -0.00865
C 23.34733 30.54635 -0.00311
C 22.15309 29.80175 0.00742
C 22.19083 28.38967 -0.01594
C 23.38212 27.65059 0.0106
C 23.36595 26.28731 -0.01154
C 22.1274 25.55856 -0.01721
C 22.1244 24.11514 -0.02422
C 23.34211 23.4157 0.01277
C 23.3738 31.94746 0.00675
C 12.30328 25.53634 0.01241
C 20.91771 9.20735 -0.017
C 20.89151 13.53252 0.00667
C 18.41995 0.658 -0.00109
C 17.19263 34.05564 -0.00491
C 19.62256 32.67705 0.03338
C 20.91042 31.96761 -0.0258
C 20.88896 30.52006 -0.0331
C 19.66255 29.82832 -0.00316
C 19.67955 28.39925 0.02188
C 20.94015 27.69468 -0.01979
C 20.9269 10.65003 0.00143
C 20.93587 26.3114 0.02691
C 19.67833 24.14691 0.01452
C 20.9136 23.38846 0.04892
C 20.91772 22.00598 -0.00111
C 19.65842 21.27109 -0.03557
C 19.72796 19.90555 0.03754
C 20.90102 19.14877 0.01739
C 20.87441 17.74541 0.00755
C 20.90524 14.89518 -0.0054
C 19.68264 25.55815 -0.01581
C 23.30397 21.9837 0.00096
C 13.52811 26.25798 0.0076
C 12.33199 28.39778 -0.0014
C 2.42262 2.83756 -0.01362
C 3.67155 2.13274 -0.0008
C 3.68264 0.70248 0.0288
C 2.47867 0.01249 0.00393
C 4.90491 32.6617 0.00895
C 6.16098 31.95979 0.00685
C 6.18238 30.51706 0.02888
C 4.9039 29.84925 -0.00482
C 4.91275 28.3521 -0.01384
C 6.14513 27.69133 0.03693
C 6.12946 26.25242 0.01745
C 4.9047 25.59669 0.00488
C 4.88709 24.11989 -0.01004
C 6.12779 23.47368 -0.02896
C 6.12792 22.049 -0.00131
C 4.9315 21.27694 -0.01118
C 4.88383 8.53114 -0.014
C 2.46901 4.27499 -0.00892
C 3.66779 4.93704 -0.04848
C 3.66464 6.41702 0.01572
C 2.47324 7.08999 -0.00095
C 3.71986 30.51514 -0.02929
C 2.43522 29.86332 -0.00966
C 2.44942 28.40819 -0.03337
C 3.68391 27.68022 0.01227
C 3.71195 26.29682 0.00873
C 2.44979 25.56637 -0.00049
C 2.4705 24.10717 0.00848
C 3.74511 23.44524 -0.01303
C 4.904 7.0996 0.02147
C 3.73468 22.0324 -0.01378
C 2.47588 19.89002 0.0127
C 3.65609 19.14588 0.01396
C 2.45559 17.10365 0.01849
C 2.49171 15.64752 -0.01142
C 2.46059 12.73616 -0.00562
C 2.45095 11.34341 -0.00494
C 3.73931 9.21242 0.00054
C 2.44334 8.48257 0.03007
C 2.50227 21.28673 0.02635
C 6.10515 6.37581 0.00373
C 6.14328 5.03999 -0.00191
C 4.9344 4.2775 0.00438
C 11.05515 30.54815 -0.02245
C 9.83788 29.85924 -0.00428
C 9.83724 28.36617 0.03101
C 11.07251 27.67887 -0.01536
C 11.07557 26.28685 -0.02689
C 9.85945 25.60723 -0.01046
C 9.87473 24.12898 -0.00891
C 11.06617 23.39467 0.02819
C 11.06696 31.9452 0.00985
C 11.09219 4.98642 0.00165
C 9.83663 2.81452 0.02894
C 11.0622 2.16652 -0.01789
C 11.06459 0.73576 0.00444
C 9.80744 0.00712 -0.00925
C 12.32661 32.65375 0.01877
C 13.57377 31.94444 0.01363
C 13.54124 30.5303 -0.02162
C 12.24807 29.77486 0.00415
C 9.8345 4.27457 -0.02971
C 13.5184 27.70896 0.02162
C 9.81587 32.67411 -0.01275
C 8.59685 0.72681 0.02841
C 4.8884 2.86632 0.01291
C 6.15969 2.14688 0.00093
C 6.17121 0.67431 0.00057
C 4.91258 0.03698 -0.01634
C 7.39722 32.68432 -0.00334
C 8.63311 31.98246 0.02339
C 8.61302 30.54613 0.01641
C 7.4155 29.83216 -0.00719
C 7.38744 0.00705 -0.01111
C 7.36782 28.42153 0.01364
C 8.58104 26.2975 -0.00033
C 7.38683 25.55244 0.03589
C 7.38195 24.15016 -0.02759
C 8.61041 23.4603 0.0402
C 8.61165 4.98202 0.00572
C 7.33095 4.33037 0.03592
C 7.35681 2.87206 0.00406
C 8.60567 2.12443 0.00943
C 8.59412 27.73431 -0.01062
C 22.12678 21.32489 -0.01527
C 22.15841 19.84433 0.01087
C 23.3839 19.14096 0.00199
C 33.19719 30.54499 0.01428
C 31.97022 29.82819 -0.02142
C 32.00684 28.39985 0.0544
C 33.17953 27.70244 0.00026
C 33.1663 26.29048 0.00682
C 31.9681 25.53144 -0.01779
C 31.99528 24.14379 0.03794
C 33.19907 23.44116 0.01927
C 33.20176 22.00466 0.01574
C 32.02936 21.33775 -0.02383
C 31.98421 19.86034 -0.01429
C 33.20335 19.1847 -0.0136
C 33.15468 17.75653 0.00594
C 31.98438 17.05237 -0.02474
C 31.9874 15.61076 0.00369
C 33.1764 14.88475 0.00455
C 33.20546 13.4772 -0.00644
C 33.1956 31.9197 -0.01694
C 31.95185 32.6773 0.01713
C 29.49028 34.05697 0.00346
C 30.75499 0.71516 0.00307
C 30.75546 21.97307 0.01836
C 30.73473 19.15517 0.03531
C 30.75311 17.744 -0.00669
C 29.51666 17.03825 0.0101
C 29.52708 15.6328 0.01705
C 30.77406 14.91346 -0.0405
C 30.74062 13.49624 -0.01303
C 29.49514 12.79069 -0.01461
C 31.92551 12.81535 -0.01839
C 29.55566 11.36135 -0.02155
C 30.75073 9.24633 -0.03735
C 29.5286 8.50209 -0.00971
C 29.51956 7.10712 0.01518
C 30.74968 6.42324 0.01908
C 30.7603 4.98212 0.07705
C 29.48286 4.24221 0.0103
C 29.5192 2.84841 0.02108
C 30.73476 2.12617 0.00716
C 30.77892 10.64558 -0.00944
C 31.96662 11.2961 0.00137
C 33.20068 10.62253 0.00199
C 33.18706 9.24759 0.04381
C 1.24018 19.20639 -0.01678
C 1.22718 17.71531 0.01223
C 34.41164 17.01642 0.00648
C 0.01208 15.58812 0.02114
C 1.2099 14.88424 -0.02957
C 1.21867 13.51436 0.00343
C 34.42157 12.73303 -0.02656
C 34.39314 11.38953 -0.02442
C 34.42275 19.89142 0.01951
C 1.22513 10.65429 -0.00027
C 0.00677 8.51788 -0.02302
C 34.42813 7.11903 -0.02849
C 1.24243 6.35625 0.02931
C 1.2169 4.91409 0.00628
C 0.00831 4.22958 -0.0345
C 0.02992 2.81683 -0.00931
C 1.23914 2.13722 -0.00939
C 1.26376 0.69735 -0.00468
C 1.23294 9.22499 -0.00583
C 30.77229 23.45154 -0.03039
C 0.00264 21.33135 -0.02213
C 1.2189 23.4499 0.00723
C 32.00568 8.53346 0.02806
C 31.93346 7.13432 0.01504
C 33.20034 6.39862 -0.00069
C 33.20157 4.9661 0.04926
C 32.00063 4.28428 -0.03838
C 31.99781 2.86961 0.00349
C 33.18268 2.09417 -0.00323
C 33.19788 0.70062 -0.00841
C 1.21139 22.03184 0.02712
C 31.9939 0.03436 0.0001
C 1.21009 31.92776 -0.01404
C 1.21619 30.51099 0.01027
C 34.41352 29.81118 0.01831
C 0.03851 28.42521 -0.01037
C 1.2008 27.63937 -0.00439
C 1.21771 26.27612 -0.00598
C 34.42411 25.56841 -0.05239
C 34.40625 24.14929 0.03076
C 34.42213 32.62511 -0.02927
C 29.50361 24.1922 -0.01415
C 29.52311 25.59498 -0.01854
C 30.7452 26.21281 -0.02049
C 24.57958 28.38621 -0.02118
C 25.77908 27.68593 0.00733
C 25.79279 26.24258 -0.00178
C 24.56564 25.571 0.00768
C 24.61305 24.14459 -0.0276
C 25.82269 23.43584 0.03005
C 25.76903 22.0132 -0.04078
C 24.57967 21.32516 0.02117
C 24.58678 29.86679 -0.01971
C 24.60301 19.8996 0.02737
C 25.81276 17.77162 0.00135
C 24.60009 17.04664 0.03102
C 24.58326 15.59378 0.02555
C 25.83585 14.92008 0.01423
C 25.82502 13.45714 -0.00285
C 24.58801 12.77332 -0.009
C 24.60491 11.34093 -0.01199
C 25.78944 10.71125 -0.00229
C 25.86405 19.17574 -0.00498
C 25.85751 9.23824 -0.00938
C 25.80485 30.51562 -0.01586
C 24.57387 32.70672 0.00071
C 23.37111 17.7405 0.01511
C 22.10209 17.01129 -0.00478
C 22.10133 15.62051 -0.01662
C 23.3613 14.90074 -0.01185
C 23.3904 13.44107 0.01126
C 22.10155 12.76491 0.01852
C 22.15823 11.32028 -0.00381
C 23.37531 10.62968 0.03046
C 25.83929 31.94269 -0.01107
C 23.36709 9.22141 0.0296
C 22.14919 7.05882 -0.02845
C 23.35712 6.3671 -0.03213
C 23.35553 5.0162 0.02239
C 22.16785 4.25691 0.01153
C 22.11914 2.80088 0.02734
C 23.34845 2.1394 -0.0055
C 23.32193 0.72085 0.01515
C 22.09136 34.07426 -0.00225
C 22.12792 8.46631 0.03374
C 3.67418 31.97577 0.03368
C 24.6029 8.52352 -0.0264
C 25.82741 6.3893 0.00684
C 27.00784 11.38001 -0.00621
C 28.26745 10.63703 0.02611
C 28.28918 9.22241 0.02198
C 27.07848 8.50154 0.01094
C 27.08345 7.07676 0.00235
C 28.2912 6.35904 0.01495
C 28.3054 4.97732 0.01259
C 27.05366 4.25192 0.01799
C 27.0724 12.74472 0.00194
C 27.02871 2.81625 0.01699
C 28.24136 0.72249 0.01177
C 27.10214 34.03254 0.04266
C 29.54725 32.64446 0.01324
C 30.73289 31.91878 0.0014
C 30.74189 30.50573 0.00924
C 29.54496 29.79816 0.02326
C 29.48914 28.37891 0.00261
C 30.76129 27.67243 0.03265
C 28.27177 2.11438 -0.00416
C 24.62948 7.12752 -0.01154
C 28.3142 13.47034 0.04185
C 27.09614 15.63795 0.01257
C 25.83154 4.95171 -0.01052
C 24.6335 4.26508 -0.01679
C 24.59883 2.81751 0.00367
C 25.84007 2.14947 0.04306
C 25.82588 0.7191 0.00996
C 24.58498 0.03521 0.00195
C 27.04698 32.66923 -0.00802
C 28.29541 31.98864 -0.00218
C 28.25193 14.90296 0.02316
C 28.27699 30.5286 -0.01654
C 27.09596 28.42447 -0.0032
C 28.26177 27.71732 0.00622
C 28.28581 26.22428 -0.02815
C 27.07205 25.57774 -0.00942
C 27.06516 24.12464 0.00487
C 28.29568 23.41478 0.00826
C 28.23537 17.74709 -0.00294
C 27.06996 17.04129 0.00152
C 27.04448 29.78917 -0.00037
C 2.52091 32.70222 -0.00077
