363
Graphene
C 6e-05 0.03327 0.01295
C 11.12761 2.16289 -0.03682
C 11.01727 0.77103 0.01965
C 9.80879 0.0653 0.02058
C 12.32488 32.64589 -0.01957
C 13.5841 32.00423 -0.0108
C 13.54643 30.5595 -0.00368
C 12.25165 29.78857 -0.02696
C 12.24344 28.36663 -0.00114
C 9.78491 2.64266 0.00052
C 13.5334 27.65199 0.00228
C 12.37818 25.56821 0.00422
C 12.32739 24.0977 0.0351
C 13.57284 23.37522 -0.03113
C 13.58056 21.93179 0.02098
C 12.26469 21.37573 0.01848
C 12.3049 19.87481 -0.00619
C 12.21893 8.43675 -0.02162
C 13.44334 6.34023 0.00889
C 13.606 26.19864 0.00798
C 11.04604 9.2205 0.00374
C 11.01225 10.60371 -0.02813
C 9.85401 11.33404 -0.01952
C 7.33629 0.05175 -0.01789
C 9.74722 32.72646 0.00444
C 11.07876 32.00062 -0.00925
C 11.10473 30.55674 0.01877
C 9.86633 29.85016 0.01363
C 9.85466 28.44082 -0.02162
C 11.05245 27.69323 0.00415
C 11.08244 26.27965 -0.0014
C 9.86318 25.6043 0.02162
C 9.85884 24.24995 0.0076
C 11.04907 23.44809 0.01241
C 11.03257 22.08401 -0.01454
C 9.85559 21.23048 0.01945
C 9.83573 19.855 0.01416
C 11.13214 19.18335 0.03542
C 11.20626 17.74685 0.02299
C 9.87603 16.95448 0.00244
C 9.77713 15.63674 -0.01717
C 9.85005 12.68905 0.05265
C 13.40809 4.9785 -0.00481
C 12.39629 2.81593 0.00979
C 13.60891 2.15656 0.01443
C 13.5224 0.74102 0.03505
C 18.45902 30.55089 0.03754
C 17.18747 29.9282 0.01739
C 17.23943 28.4495 0.00755
C 18.4327 27.61629 -0.0054
C 18.47581 26.20475 0.00667
C 17.22894 25.60827 0.00143
C 17.22019 24.09486 -0.017
C 18.40221 23.49278 0.00364
C 17.21912 4.27577 -0.00831
C 17.25074 2.85993 -0.02957
C 18.48834 2.17852 -0.04422
C 18.45287 0.67244 0.00654
C 17.2232 0.03291 -0.00703
C 19.69634 32.61771 -0.04076
C 20.9354 31.8844 -0.00652
C 20.82726 30.52098 0.0058
C 19.65293 29.78386 -0.00865
C 19.69057 28.32575 0.00675
C 20.93058 27.60522 -0.00311
C 18.4496 31.99727 -0.03557
C 8.55104 0.70252 0.02894
C 17.17266 32.66274 -0.00111
C 15.90908 0.74917 0.01452
C 12.26356 0.05367 -0.02815
C 14.75838 32.67525 -0.04147
C 16.02192 31.91388 -0.05302
C 15.99973 30.54539 0.00213
C 14.76943 29.85116 -0.00066
C 14.76652 28.43316 -0.00289
C 16.02217 27.709 0.00028
C 16.00009 26.27924 -0.02213
C 14.78966 25.47578 0.03698
C 14.7305 24.08351 -0.00109
C 15.9894 23.39537 -0.00491
C 15.91983 21.98204 0.03338
C 14.82573 21.37473 -0.0258
C 14.72573 6.99823 -0.0331
C 15.78318 6.46385 -0.00316
C 16.03354 4.99744 0.02188
C 14.64782 4.29361 -0.01979
C 14.80466 2.87194 0.02691
C 16.03104 2.13468 -0.01581
C 14.7146 0.0091 0.04892
C 20.91452 26.16693 0.00742
C 8.55491 2.10331 -0.02971
C 7.37982 4.25216 0.02819
C 3.66374 6.3516 -0.01378
C 3.73975 4.96494 0.02635
C 2.52829 4.28969 0.0127
C 2.45336 2.91577 0.01396
C 3.71137 2.10081 0.01849
C 3.64213 0.7299 -0.01142
C 2.45322 34.07865 -0.00562
C 4.9409 32.73623 -0.00494
C 2.43882 7.03414 -0.01303
C 6.13328 31.99056 0.00054
C 4.85249 29.8579 -0.00095
C 4.87096 28.39979 0.01572
C 6.13656 27.72093 -0.04848
C 6.12783 26.32929 -0.00892
C 4.95761 25.5337 -0.01362
C 4.9296 24.17048 -0.0008
C 6.14827 23.45726 0.0288
C 6.13716 22.03657 0.00393
C 6.06955 30.61357 0.03007
C 2.47871 8.54175 0.00848
C 3.66065 9.23857 -0.00049
C 3.66275 10.65659 0.00873
C 3.64384 30.56356 -0.00643
C 2.48764 29.76256 0.017
C 2.51572 28.41564 -0.03113
C 3.66848 27.66237 -0.02566
C 3.75485 26.22517 -0.00094
C 2.47604 25.54521 0.02322
C 2.37576 24.14525 -0.00725
C 3.66605 23.53858 -0.05697
C 3.70326 22.02998 0.01087
C 2.49381 21.31534 -0.01343
C 2.45197 19.91253 0.00988
C 3.7487 19.16497 0.0276
C 3.66715 17.7209 0.01305
C 2.49845 17.00759 -0.00077
C 2.37919 15.57075 0.03368
C 3.66045 15.0161 -0.02929
C 3.62577 13.55602 -0.00966
C 2.43278 12.81787 -0.03337
C 2.49702 11.41893 0.01227
C 4.92213 21.24683 0.00895
C 4.96727 19.87809 0.00685
C 6.18775 19.23496 0.02888
C 6.14521 17.79037 -0.00482
C 8.58301 26.28227 -0.00033
C 7.33096 25.50179 0.03589
C 7.37708 24.1078 -0.02759
C 8.65838 23.42867 0.0402
C 8.62328 21.98441 0.00572
C 7.38087 21.35403 0.03592
C 7.3802 19.96571 0.00406
C 8.56145 19.19655 0.00943
C 8.67109 17.74071 0.02841
C 7.4541 17.07635 -0.01111
C 7.41046 15.64916 -0.01275
C 8.57757 14.80394 0.00985
C 8.58946 13.42965 -0.02245
C 7.30823 12.79465 -0.00428
C 7.31379 11.31805 0.03101
C 8.57368 10.59269 -0.01536
C 8.58381 9.29597 -0.02689
C 7.40684 8.51693 -0.01046
C 7.42913 7.01215 -0.00891
C 8.57275 27.72888 -0.01062
C 7.37314 2.88855 0.00165
C 7.39407 28.45384 0.01364
C 8.6027 30.52665 0.01641
C 4.93277 17.06489 -0.01384
C 4.958 15.65828 0.03693
C 6.15424 14.94963 0.01745
C 6.08639 13.54485 0.00488
C 4.93551 12.81015 -0.01004
C 4.92848 11.42552 -0.02896
C 6.12398 10.68127 -0.00131
C 6.16904 9.31193 -0.01118
C 4.89723 8.61311 -0.014
C 4.88724 7.17948 0.02147
C 6.18629 6.43967 0.00373
C 6.12057 4.98344 -0.00191
C 4.93633 4.29313 0.00438
C 4.96549 2.82816 0.01291
C 6.1521 2.13303 0.00093
C 6.10329 0.77517 0.00057
C 4.8851 0.05853 -0.01634
C 7.37594 32.70025 -0.00334
C 8.53653 31.95352 0.02339
C 7.3172 29.89092 -0.00719
C 3.68857 31.92661 0.0086
C 19.70012 25.53524 -0.01594
C 20.87407 23.4499 -0.01154
C 29.46447 0.00993 0.00346
C 32.04532 32.71838 0.01713
C 33.21865 31.90408 -0.01694
C 33.17666 30.53152 0.01428
C 31.90651 29.82132 -0.02142
C 31.97672 28.41334 0.0544
C 33.19331 27.72775 0.00026
C 33.09266 26.28015 0.00682
C 30.68155 0.70658 0.00307
C 31.90572 25.49523 -0.01779
C 33.18844 23.47063 0.01927
C 33.16375 22.02795 0.01574
C 31.98281 21.32808 -0.02383
C 31.97781 19.85298 -0.01429
C 33.20154 19.17514 -0.0136
C 33.21221 17.77663 0.00594
C 32.02018 17.04445 -0.02474
C 32.02954 15.68188 0.00369
C 31.96162 24.10438 0.03794
C 30.71861 2.1369 0.00716
C 29.48718 2.84176 0.02108
C 29.45933 4.3303 0.0103
C 29.56168 24.12853 -0.02049
C 30.77298 23.36977 -0.01854
C 30.82666 21.98105 -0.01415
C 29.51147 21.33782 -0.03039
C 29.51708 19.92546 0.01836
C 30.76749 19.15885 0.03531
C 30.72259 17.7343 -0.00669
C 29.48971 17.01436 0.0101
C 29.49183 15.64108 0.01705
C 30.80262 14.95958 -0.0405
C 30.75365 13.42581 -0.01303
C 29.55635 12.74027 -0.01461
C 29.53879 11.37529 -0.02155
C 30.73543 10.67779 -0.00944
C 30.74546 9.16001 -0.03735
C 29.46599 8.53194 -0.00971
C 29.56494 7.06884 0.01518
C 30.69952 6.33244 0.01908
C 30.68636 4.98914 0.07705
C 33.18288 14.8724 0.00455
C 33.14983 13.49676 -0.00644
C 31.97068 12.76009 -0.01839
C 31.974 11.30119 0.00137
C 0.03889 19.88493 0.01951
C 1.22329 19.20022 -0.01678
C 1.29746 17.73385 0.01223
C 34.42719 16.96794 0.00648
C 0.01448 15.58515 0.02114
C 1.25132 14.87321 -0.02957
C 1.18142 13.46138 0.00343
C 34.43147 12.77075 -0.02656
C 34.40599 11.35262 -0.02442
C 1.21529 10.68506 -0.00027
C 1.24704 9.3252 -0.00583
C 34.42222 8.5521 -0.02302
C 0.01854 7.16927 -0.02849
C 1.18744 6.41044 0.02931
C 1.23263 4.97631 0.00628
C 34.43087 4.25108 -0.0345
C 0.06557 2.86737 -0.00931
C 1.27953 2.11838 -0.00939
C 1.20707 0.6687 -0.00468
C 0.00354 21.34692 -0.02213
C 29.50075 25.55241 0.03265
C 1.2664 22.09749 0.02712
C 34.38964 24.09529 0.03076
C 33.15432 10.61966 0.00199
C 33.20033 9.21936 0.04381
C 32.01582 8.51608 0.02806
C 31.90585 7.05768 0.01504
C 33.12763 6.405 -0.00069
C 33.17961 4.92449 0.04926
C 31.92045 4.26492 -0.03838
C 31.95241 2.77528 0.00349
C 33.21669 2.20749 -0.00323
C 33.21621 0.77769 -0.00841
C 31.97217 0.0113 0.0001
C 34.43279 32.65251 -0.02927
C 1.18445 31.91489 -0.01404
C 1.15775 30.54436 0.01027
C 0.00198 29.83921 0.01831
C 0.05109 28.34268 -0.01037
C 1.26266 27.70316 -0.00439
C 1.18901 26.29811 -0.00598
C 34.39802 25.59566 -0.05239
C 1.19004 23.49231 0.00723
C 19.61532 24.13714 0.0106
C 30.69771 26.25938 0.00261
C 29.51299 28.4349 0.00924
C 23.36072 2.1278 0.01515
C 23.398 0.72267 -0.00225
C 22.10474 34.04643 0.00071
C 24.58597 32.67118 -0.01107
C 25.79033 31.98803 -0.01586
C 25.78508 30.60229 -0.01971
C 24.591 29.76638 -0.02118
C 24.58374 28.34314 0.00733
C 22.03298 2.81194 -0.0055
C 25.7947 27.72101 -0.00178
C 24.64031 25.54592 -0.0276
C 24.5189 24.08775 0.03005
C 25.74706 23.42912 -0.04078
C 25.84239 22.00495 0.02117
C 24.51555 21.24218 0.02737
C 24.70993 19.85828 -0.00498
C 25.77173 19.19362 0.00135
C 25.88256 10.60679 0.03102
C 25.88501 26.28819 0.00768
C 22.08473 4.2393 0.02734
C 23.36898 4.89177 0.01153
C 23.34257 6.35037 0.02239
C 20.85874 22.03117 -0.01721
C 20.86088 4.96033 -0.02422
C 19.77819 4.24002 0.01277
C 19.65654 2.91138 0.00096
C 20.78956 2.10344 -0.01527
C 20.80282 0.6922 0.01087
C 19.6657 33.99163 0.00199
C 22.11856 32.68311 0.01511
C 23.39844 31.93227 -0.00478
C 23.3753 30.5036 -0.01662
C 22.01953 29.80746 -0.01185
C 22.05685 28.32634 0.01126
C 23.37447 27.65375 0.01852
C 23.37999 26.23888 -0.00381
C 22.1978 25.47768 0.03046
C 22.17874 24.0815 0.0296
C 23.39728 23.36714 0.03374
C 23.32767 22.0249 -0.02845
C 22.15322 6.96199 -0.03213
C 25.73113 9.21724 0.02555
C 24.56161 8.49856 0.01423
C 24.67444 7.06323 -0.00285
C 25.9506 6.33675 -0.009
C 28.23074 14.86334 0.00152
C 28.25791 13.44307 0.01257
C 27.09011 12.77823 0.02316
C 27.02878 11.33954 0.04185
C 28.36577 10.66769 0.00194
C 28.24498 9.23791 -0.00621
C 27.05065 8.52498 0.02611
C 27.14231 7.10184 0.02198
C 28.36985 6.41484 0.01094
C 28.2943 5.02904 0.00235
C 27.08972 4.29012 0.01495
C 27.09093 2.7629 0.01259
C 28.28637 2.1304 0.01799
C 28.30638 0.72725 0.01699
C 27.0407 0.05685 -0.00416
C 29.49942 32.65384 0.01177
C 30.73874 31.99606 0.04266
C 30.70661 30.55549 0.01324
C 29.49278 29.80959 0.0014
C 27.12566 15.72684 -0.00294
C 30.72284 27.7562 0.02326
C 27.0543 16.91788 0.00826
C 28.3157 19.23431 -0.00942
C 25.87998 4.96469 -0.01199
C 24.66698 4.22383 -0.00229
C 24.51798 2.8091 -0.00938
C 25.86006 2.16419 -0.0264
C 25.82719 0.71593 -0.01154
C 24.73606 0.03634 0.00684
C 27.03103 32.70497 -0.01052
C 28.2586 31.92852 -0.01679
C 28.29551 30.48996 0.00367
C 26.93298 29.85171 0.04306
C 26.95974 28.43102 0.00996
C 28.21595 27.70078 0.00195
C 28.25292 26.26494 -0.00802
C 27.07143 25.50819 -0.00218
C 26.94057 24.09303 -0.01654
C 28.25855 23.43578 -0.00037
C 28.2391 22.01517 -0.0032
C 27.00436 21.27516 0.00622
C 27.01533 19.88673 -0.02815
C 28.24481 17.76818 0.00487
C 2.45948 32.63035 -0.00518
