307
Graphene
C 0.02188 0.02615 0.01295
C 11.13823 30.49806 -0.01979
C 9.80943 29.89484 0.02691
C 9.83788 28.45513 -0.01581
C 9.8524 19.85764 0.01452
C 9.8813 17.03673 0.04892
C 9.87461 15.67449 -0.00111
C 10.99738 13.43206 -0.03557
C 9.82097 12.76878 0.03754
C 9.81658 11.24445 0.01739
C 11.05627 10.62104 0.00755
C 11.11739 9.25378 -0.0054
C 9.86709 8.4875 0.00667
C 9.88541 7.07558 0.00143
C 11.11549 6.37663 -0.017
C 11.04781 5.05544 0.00364
C 11.08093 31.92482 0.02188
C 9.85275 4.21363 -0.00831
C 9.76668 32.64208 -0.00316
C 8.66741 0.64637 -0.0258
C 7.32091 17.01521 0.00979
C 7.36459 15.66266 0.01443
C 8.61301 14.8617 0.03505
C 8.57226 13.52613 -0.02815
C 7.31664 12.85168 -0.04147
C 7.39561 11.41109 -0.05302
C 8.6202 10.65748 0.00213
C 8.62027 9.23729 -0.00066
C 7.39759 8.526 -0.00289
C 7.39602 7.11156 0.00028
C 8.64067 6.379 -0.02213
C 8.63194 4.98643 0.03698
C 7.39041 4.30008 -0.00109
C 7.35062 2.82732 -0.00491
C 8.58179 2.18015 0.03338
C 7.39938 34.00672 -0.0331
C 9.85013 2.83805 -0.02957
C 11.09036 2.16722 -0.04422
C 11.14025 0.71864 0.00654
C 15.95155 31.88539 -0.01662
C 15.96459 30.56124 -0.01185
C 16.03893 14.8363 0.01126
C 15.91826 13.46115 0.01852
C 14.76932 12.74818 -0.00381
C 14.83164 11.34463 0.03046
C 15.99907 10.66468 0.0296
C 16.00243 9.23223 0.03374
C 14.72341 8.58581 -0.02845
C 14.73312 7.11556 -0.03213
C 15.98151 6.3714 0.02239
C 15.99429 4.94171 0.01153
C 14.74308 4.28279 0.02734
C 14.74431 2.80443 -0.0055
C 15.95533 2.15041 0.01515
C 14.74681 32.69908 -0.00478
C 12.3075 34.05262 0.01511
C 13.56988 0.75594 0.00199
C 13.53505 2.07952 0.01087
C 9.85027 34.06969 -0.00703
C 12.31938 32.64299 -0.04076
C 13.5928 31.90828 -0.00652
C 13.45294 30.51698 0.0058
C 12.3126 29.8096 -0.00865
C 13.56855 13.4371 0.00675
C 12.31179 12.76962 -0.00311
C 8.58223 17.79231 -0.00481
C 12.26786 11.34047 0.00742
C 13.50091 9.22373 0.0106
C 12.24214 8.56832 -0.01154
C 12.27336 7.13948 -0.01721
C 13.48652 6.40061 -0.02422
C 13.54374 4.92625 0.01277
C 12.28723 4.24619 0.00096
C 12.30062 2.85924 -0.01527
C 13.54945 10.65104 -0.01594
C 16.02025 0.73381 -0.00225
C 8.6087 19.20042 0.00889
C 7.39613 21.27436 -0.00619
C 3.6609 10.62573 0.00943
C 3.67555 9.23435 0.02841
C 2.49266 8.5455 -0.01111
C 2.43111 7.12185 -0.01275
C 3.65751 6.40761 0.00985
C 3.64084 4.99674 -0.02245
C 2.43884 4.26104 -0.00428
C 2.41374 2.84753 0.03101
C 3.6823 2.14185 -0.01536
C 3.72706 0.69399 -0.02689
C 2.4577 0.00106 -0.01046
C 4.93728 32.60223 -0.00891
C 6.1295 31.9212 0.02819
C 6.16288 30.51367 0.00165
C 4.88255 29.81933 -0.02971
C 2.4683 11.35978 0.00406
C 4.95919 28.41573 0.02894
C 2.41342 12.851 0.03592
C 3.70912 14.87054 0.0402
C 3.67157 30.56116 -0.00191
C 2.46297 29.83298 0.00438
C 2.45954 28.44358 0.01291
C 3.71502 27.64012 0.00093
C 3.67524 26.28185 0.00057
C 2.4345 25.59443 -0.01634
C 2.44485 24.15653 -0.00334
C 3.69472 23.46068 0.02339
C 3.69018 22.07749 0.01641
C 2.49593 21.27742 -0.00719
C 2.47273 19.92724 0.01364
C 3.7171 19.21683 -0.01062
C 3.68613 17.77204 -0.00033
C 2.39417 17.09828 0.03589
C 2.47055 15.63661 -0.02759
C 3.67077 13.46079 0.00572
C 6.1232 27.6972 -0.01789
C 6.10714 26.2991 0.00444
C 4.94529 25.51375 -0.00925
C 4.98172 2.86898 -0.03682
C 6.13715 2.11121 0.01965
C 6.21947 0.66601 0.02058
C 4.9303 34.0652 -0.01957
C 7.32363 32.63558 -0.0108
C 8.57754 32.03101 -0.00368
C 8.60985 30.52611 -0.02696
C 7.41289 29.79754 -0.00114
C 7.35482 28.43175 0.00228
C 8.67299 27.66936 0.00798
C 8.52854 26.25548 0.00422
C 7.42761 25.52585 0.0351
C 7.30012 24.08102 -0.03113
C 8.58113 23.45223 0.02098
C 8.57427 22.06498 0.01848
C 4.88745 4.27004 0.00052
C 6.18194 4.98748 0.00374
C 6.14718 6.31139 -0.02813
C 4.94495 7.09117 -0.01952
C 4.94689 24.17916 0.01877
C 6.14487 23.44329 0.01363
C 6.13397 21.99274 -0.02162
C 4.86497 21.25986 0.00415
C 4.91913 19.8709 -0.0014
C 6.1966 19.18043 0.02162
C 6.1489 17.70803 0.0076
C 7.36986 19.91836 -0.02162
C 4.91729 17.08756 0.01241
C 6.10961 14.9248 0.01945
C 6.18366 13.51129 0.01416
C 4.96702 12.77785 0.03542
C 4.97118 11.39425 0.02299
C 6.13036 10.5534 0.00244
C 6.13945 9.2007 -0.01717
C 4.89038 8.52219 0.05265
C 4.87211 15.55384 -0.01454
C 3.69262 31.95852 0.00373
C 14.74064 0.04254 0.00071
C 18.4287 31.9639 -0.01586
C 33.26594 23.35957 0.01927
C 33.18217 22.03052 0.01574
C 31.99909 21.32227 -0.02383
C 31.99191 19.92171 -0.01429
C 33.19771 19.16019 -0.0136
C 33.19938 17.76054 0.00594
C 32.00316 17.07767 -0.02474
C 31.9831 15.60368 0.00369
C 33.18484 14.927 0.00455
C 33.2566 13.46209 -0.00644
C 31.97278 12.83242 -0.01839
C 31.94295 11.3661 0.00137
C 33.22078 10.6893 0.00199
C 33.13743 9.31347 0.04381
C 31.96617 8.50697 0.02806
C 33.23861 26.30024 0.03794
C 31.89134 7.15895 0.01504
C 33.18988 27.71222 -0.01779
C 31.98425 29.80861 0.00026
C 30.76471 19.17708 -0.03735
C 30.71233 17.80061 -0.00971
C 29.48682 17.09452 0.01518
C 29.52951 15.64131 0.01908
C 30.6965 14.91621 0.07705
C 30.6801 13.5184 0.0103
C 29.52672 12.76401 0.02108
C 30.77124 10.61519 0.00716
C 29.43286 2.84211 0.00307
C 30.71555 2.14554 0.00346
C 30.77372 0.75339 0.01713
C 29.54035 34.03896 -0.01694
C 31.97928 32.66971 0.01428
C 33.16983 31.93005 -0.02142
C 33.22926 30.53273 0.0544
C 31.94953 28.44323 0.00682
C 33.10494 6.39509 -0.00069
C 33.14424 4.97165 0.04926
C 31.95664 4.20476 -0.03838
C 34.43089 15.65834 0.02114
C 1.17816 14.91203 -0.02957
C 1.2283 13.53704 0.00343
C 0.00886 12.73297 -0.02656
C 34.40892 11.35866 -0.02442
C 1.21553 10.6964 -0.00027
C 1.26392 9.23205 -0.00583
C 0.0083 8.56996 -0.02302
C 34.40476 7.09184 -0.02849
C 1.20472 6.38169 0.02931
C 1.20019 4.95509 0.00628
C 34.37664 4.28464 -0.0345
C 0.04581 2.82721 -0.00931
C 1.25895 2.09524 -0.00939
C 1.30114 0.68506 -0.00468
C 34.42192 17.04659 0.00648
C 1.21152 17.77202 0.01223
C 1.25287 19.18832 -0.01678
C 34.41682 19.87307 0.01951
C 31.96793 2.85045 0.00349
C 33.18534 2.14771 -0.00323
C 33.24305 0.73424 -0.00841
C 31.98215 34.01998 0.0001
C 0.02283 32.62666 -0.02927
C 1.23981 31.97144 -0.01404
C 1.22806 30.55962 0.01027
C 30.76327 30.47371 -0.00944
C 34.38833 29.83156 0.01831
C 1.27483 27.6327 -0.00439
C 1.19995 26.23008 -0.00598
C 34.3913 25.60263 -0.05239
C 34.38719 24.13106 0.03076
C 1.19108 23.47451 0.00723
C 1.20394 22.03073 0.02712
C 0.01089 21.24692 -0.02213
C 0.0407 28.40112 -0.01037
C 17.21247 32.68252 -0.01107
C 30.80702 31.92642 -0.02155
C 27.04579 34.02957 -0.01303
C 20.94096 31.97338 -0.00938
C 20.89274 30.51191 -0.0264
C 19.67985 29.86766 -0.01154
C 20.90341 19.13439 0.00684
C 20.89193 17.74342 -0.01052
C 19.67664 17.03037 -0.01679
C 19.68628 15.69623 0.00367
C 20.90668 14.92921 0.04306
C 20.93214 13.54218 0.00996
C 19.63846 12.80637 0.00195
C 19.6728 11.38023 -0.00802
C 20.92213 10.65445 -0.00218
C 20.93019 9.27495 -0.01654
C 19.71793 8.51643 -0.00037
C 19.67468 7.07165 -0.0032
C 19.65487 32.69681 -0.00229
C 20.89627 6.356 0.00622
C 17.25865 0.03161 -0.01199
C 18.41346 2.04741 -0.00285
C 18.42712 30.51275 -0.01971
C 17.19247 17.03323 -0.02118
C 17.25188 15.6289 0.00733
C 18.39168 14.85099 -0.00178
C 18.37506 13.50239 0.00768
C 17.19187 12.75979 -0.0276
C 17.18657 11.37054 0.03005
C 18.41409 10.59934 -0.04078
C 18.4363 9.29024 0.02117
C 17.23249 8.57315 0.02737
C 17.24485 7.13066 -0.00498
C 18.45503 6.38413 0.00135
C 18.40255 4.93926 0.03102
C 17.15518 4.25402 0.02555
C 17.217 2.85584 0.01423
C 18.48638 0.66003 -0.009
C 20.91352 4.96775 -0.02815
C 19.64667 4.28822 -0.00942
C 19.66149 2.84817 0.00487
C 25.81459 14.96058 0.0014
C 25.80049 13.47644 0.00924
C 24.57363 12.75946 0.02326
C 25.80852 0.71811 0.00261
C 24.61172 34.07992 0.03265
C 27.06054 32.58494 -0.02049
C 28.27639 31.9422 -0.01854
C 28.2321 17.74249 -0.01415
C 27.1014 17.08211 -0.03039
C 27.04109 15.67826 0.01836
C 28.28778 14.85937 0.03531
C 28.28841 13.42014 -0.00669
C 26.99139 12.77909 0.0101
C 28.33788 2.16116 0.01705
C 28.34253 0.72408 -0.0405
C 24.54359 15.57144 0.01324
C 24.55542 17.03166 0.04266
C 25.81173 31.9649 0.01177
C 24.58335 32.5721 -0.00416
C 20.86078 2.15255 0.00826
C 20.92633 0.68238 -0.00294
C 19.68976 34.07182 0.00152
C 22.18591 32.68008 0.01257
C 23.32429 31.92378 0.02316
C 23.42771 17.6542 0.04185
C 22.13823 17.02517 0.00194
C 29.47728 32.64588 -0.01461
C 22.15208 15.62859 -0.00621
C 23.4188 13.45516 0.02198
C 22.14313 12.80239 0.01094
C 22.06795 11.37944 0.00235
C 22.08589 2.79184 0.01495
C 23.32853 2.0968 0.01259
C 23.33607 0.71785 0.01799
C 22.16376 34.07181 0.01699
C 23.39429 14.91144 0.02611
C 2.37716 32.68577 0.02147
