351
Graphene
C 0.01888 0.0096 0.01295
C 9.84873 15.6299 0.00228
C 11.15529 14.87414 0.00798
C 11.11238 13.51864 0.00422
C 9.8921 12.83899 0.0351
C 9.81585 11.37504 -0.03113
C 11.01522 10.64437 0.02098
C 10.98049 9.2014 0.01848
C 9.78149 8.46701 -0.00619
C 9.83971 17.10348 -0.00114
C 9.80815 7.04053 -0.02162
C 11.03771 4.94887 -0.00481
C 9.79796 4.28858 0.00979
C 9.88131 2.91843 0.01443
C 11.08469 2.1729 0.03505
C 11.08513 0.7001 -0.02815
C 9.82794 0.0731 -0.04147
C 12.24631 32.74073 -0.05302
C 13.48574 31.8986 0.00213
C 11.0302 6.38935 0.00889
C 13.47415 30.48645 -0.00066
C 11.06178 17.73258 -0.02696
C 9.81258 19.87035 -0.0108
C 8.62454 4.95342 0.0076
C 7.36368 4.34343 0.01241
C 7.38713 2.91891 -0.01454
C 8.62319 2.17564 0.01945
C 8.59132 0.78566 0.01416
C 7.34792 0.11435 0.03542
C 9.79702 32.69686 0.02299
C 11.00241 31.98416 0.00244
C 11.07841 19.1591 -0.00368
C 11.05537 30.49709 -0.01717
C 9.89088 28.47151 -0.01952
C 11.07737 27.69159 -0.02813
C 11.02241 26.35144 0.00374
C 9.82054 25.51101 0.00052
C 9.86006 24.07372 -0.03682
C 11.04449 23.40802 0.01965
C 11.11846 21.98801 0.02058
C 9.84492 21.24527 -0.01957
C 9.81911 29.91973 0.05265
C 8.59452 6.3898 0.02162
C 12.23786 29.74562 -0.00289
C 13.57935 27.70423 -0.02213
C 12.35323 2.93914 0.00364
C 13.56034 2.14619 -0.00831
C 13.51453 0.67845 -0.02957
C 12.29166 34.07415 -0.04422
C 14.65315 32.62668 0.00654
C 14.74576 29.9108 -0.00703
C 14.98446 28.46685 -0.04076
C 16.10233 27.66774 -0.00652
C 12.36684 4.26402 -0.017
C 15.95724 26.21398 0.0058
C 14.88815 24.14943 0.00675
C 16.26821 23.80455 -0.00311
C 14.70749 21.06827 0.00742
C 14.75141 15.5717 -0.01594
C 16.02141 13.46102 0.0106
C 14.77819 12.75908 -0.01154
C 14.72893 11.29535 -0.01721
C 15.94657 10.72362 -0.02422
C 14.735 25.55987 -0.00865
C 12.36389 28.36565 0.00028
C 13.55176 4.98318 0.00143
C 12.2981 7.09739 -0.0054
C 13.59462 26.30024 0.03698
C 12.33501 25.58482 -0.00109
C 12.37625 24.13707 -0.00491
C 13.65196 23.37136 0.03338
C 13.58774 21.9516 -0.0258
C 12.32643 21.25453 -0.0331
C 12.33314 19.86085 -0.00316
C 13.60432 19.18088 0.02188
C 13.47892 6.43272 0.00667
C 13.40704 17.82483 -0.01979
C 12.33932 15.6985 -0.01581
C 13.57733 14.94902 0.01452
C 13.60181 13.47889 0.04892
C 12.32995 12.80299 -0.00111
C 12.23684 11.40674 -0.03557
C 13.4718 10.6644 0.03754
C 13.42569 9.22825 0.01739
C 12.1908 8.51765 0.00755
C 12.32301 17.08339 0.02691
C 15.9583 9.30183 0.01277
C 7.33909 7.15253 -0.0014
C 8.6294 9.23614 -0.02162
C 2.47846 7.13262 0.01572
C 3.70084 6.41676 -0.04848
C 3.62234 5.01652 -0.00892
C 2.43115 4.25951 -0.01362
C 2.45005 2.86691 -0.0008
C 3.72605 2.21223 0.0288
C 3.71008 0.7557 0.00393
C 2.44122 0.04918 0.00895
C 2.47126 8.46759 -0.00095
C 4.92233 32.72017 0.00685
C 6.17511 30.56909 -0.00482
C 4.91235 29.87352 -0.01384
C 4.85492 28.43646 0.03693
C 6.07944 27.67764 0.01745
C 6.20559 26.29605 0.00488
C 4.95384 25.53683 -0.01004
C 4.9416 24.0806 -0.02896
C 6.19058 23.46728 -0.00131
C 6.14612 32.00637 0.02888
C 6.11932 21.9893 -0.01118
C 3.61747 9.27232 0.03007
C 2.48646 11.32832 -0.00494
C 3.65127 30.47291 0.01305
C 2.39606 29.80674 -0.00077
C 2.37453 28.40934 0.03368
C 3.63511 27.67383 -0.02929
C 3.68017 26.30472 -0.00966
C 2.42648 25.51778 -0.03337
C 2.48814 24.1259 0.01227
C 3.68904 23.46145 0.00873
C 3.65445 10.71043 0.00054
C 3.70203 22.03953 -0.00049
C 2.42781 19.89629 -0.01303
C 3.65841 19.27225 -0.01378
C 3.59722 17.81025 0.02635
C 2.41668 17.03566 0.0127
C 2.42957 15.58648 0.01396
C 3.72639 14.90271 0.01849
C 3.63419 13.46908 -0.01142
C 2.41263 12.83021 -0.00562
C 2.39492 21.33516 0.00848
C 7.35373 8.545 0.00415
C 4.91505 21.31612 -0.014
C 6.12323 19.1273 0.00373
C 7.35395 28.44063 -0.01275
C 8.63797 27.68312 0.00985
C 8.62689 26.21153 -0.02245
C 7.39973 25.55291 -0.00428
C 7.40928 24.18365 0.03101
C 8.63725 23.4645 -0.01536
C 8.61652 22.0 -0.02689
C 7.32737 21.33815 -0.01046
C 7.37702 29.80271 -0.01111
C 7.38756 19.85079 -0.00891
C 8.58775 17.70224 0.00165
C 7.4073 16.97673 -0.02971
C 7.41694 15.56549 0.02894
C 8.60085 14.84653 -0.01789
C 8.62064 13.40083 0.00444
C 7.42142 12.82286 -0.00925
C 7.37052 11.35047 0.01877
C 8.66436 10.67719 0.01363
C 8.61356 19.17083 0.02819
C 4.93633 19.89466 0.02147
C 8.57446 30.57187 0.02841
C 7.34396 32.76565 0.00406
C 6.12424 17.78458 -0.00191
C 4.91083 17.05174 0.00438
C 4.94851 15.58505 0.01291
C 6.21532 14.91725 0.00093
C 6.18629 13.51905 0.00057
C 4.90343 12.75815 -0.01634
C 4.89613 11.34121 -0.00334
C 6.11572 10.61502 0.02339
C 8.55471 31.95104 0.00943
C 6.0951 9.20511 0.01641
C 4.87475 7.12029 0.01364
C 6.10017 6.50801 -0.01062
C 6.07635 5.0792 -0.00033
C 4.87961 4.37234 0.03589
C 4.97672 2.97551 -0.02759
C 6.16038 2.27542 0.0402
C 6.17243 0.83213 0.00572
C 4.89483 0.04929 0.03592
C 4.83812 8.55441 -0.00719
C 3.7084 31.91999 0.0276
C 14.68502 8.60624 0.00096
C 15.89644 6.4012 0.01087
C 33.25818 31.95638 -0.01694
C 33.17806 30.52319 0.01428
C 31.89434 29.81449 -0.02142
C 31.87491 28.44896 0.0544
C 33.09073 27.76299 0.00026
C 33.17552 26.29783 0.00682
C 31.96995 25.63053 -0.01779
C 31.97983 24.24701 0.03794
C 31.99083 32.63127 0.01713
C 33.23927 23.54397 0.01927
C 31.9193 21.48264 -0.02383
C 32.03761 20.0799 -0.01429
C 33.06341 19.15826 -0.0136
C 32.94195 17.76695 0.00594
C 31.86526 16.94518 -0.02474
C 31.90732 15.50269 0.00369
C 33.05687 14.80764 0.00455
C 33.20514 13.47004 -0.00644
C 33.08577 22.12666 0.01574
C 32.00901 12.75821 -0.01839
C 29.4639 0.00302 0.00346
C 30.81997 2.04369 0.00716
C 30.6753 30.5472 -0.03039
C 29.46381 29.78222 0.01836
C 29.4718 28.43907 0.03531
C 30.65333 27.71227 -0.00669
C 30.72085 26.31985 0.0101
C 29.49515 25.60112 0.01705
C 30.90813 23.38325 -0.0405
C 30.82272 13.3309 -0.01303
C 30.6959 0.66763 0.00307
C 29.55984 12.82844 -0.01461
C 30.69618 10.66052 -0.00944
C 30.6743 9.27279 -0.03735
C 29.4786 8.49693 -0.00971
C 29.53558 7.10991 0.01518
C 30.79244 6.42764 0.01908
C 30.73499 4.98804 0.07705
C 29.57388 4.24515 0.0103
C 29.59521 2.81648 0.02108
C 29.37566 11.49266 -0.02155
C 30.7533 31.94905 -0.01415
C 31.98854 11.35617 0.00137
C 33.24088 9.23454 0.04381
C 1.15024 19.22149 -0.01678
C 1.16488 17.7797 0.01223
C 34.24281 17.09173 0.00648
C 34.29801 15.68214 0.02114
C 1.17955 14.93576 -0.02957
C 1.1497 13.55611 0.00343
C 34.38554 12.79255 -0.02656
C 0.03362 11.35126 -0.02442
C 34.34977 19.86555 0.01951
C 1.24867 10.58991 -0.00027
C 34.42274 8.50663 -0.02302
C 34.43227 7.05334 -0.02849
C 1.22397 6.33755 0.02931
C 1.21691 4.92032 0.00628
C 34.39692 4.25561 -0.0345
C 34.42688 2.8419 -0.00931
C 1.25614 2.14003 -0.00939
C 1.2154 0.68271 -0.00468
C 1.21008 9.12664 -0.00583
C 33.25786 10.59997 0.00199
C 34.31738 21.34275 -0.02213
C 1.2246 23.52661 0.00723
C 31.99341 8.54355 0.02806
C 31.98621 7.11226 0.01504
C 33.23251 6.36402 -0.00069
C 33.18708 5.00345 0.04926
C 31.96869 4.25277 -0.03838
C 32.00608 2.87225 0.00349
C 33.18737 2.09128 -0.00323
C 33.23153 0.75964 -0.00841
C 1.11468 22.13778 0.02712
C 31.98927 34.06649 0.0001
C 1.22449 31.92704 -0.01404
C 1.19928 30.50346 0.01027
C 34.37346 29.77487 0.01831
C 34.3483 28.42467 -0.01037
C 1.18956 27.65831 -0.00439
C 1.21604 26.29907 -0.00598
C 34.40447 25.60523 -0.05239
C 0.01321 24.20756 0.03076
C 0.04977 32.67371 -0.02927
C 14.66947 7.23256 -0.01527
C 29.55282 32.68275 -0.01854
C 28.28545 0.67415 0.03265
C 20.75418 31.8967 -0.01971
C 20.93256 30.60411 -0.02118
C 19.48604 28.106 0.00733
C 20.7667 28.06738 -0.00178
C 20.87247 9.25954 0.00768
C 19.69718 8.51665 -0.0276
C 19.57581 7.10643 0.03005
C 20.87925 6.46211 -0.04078
C 19.75419 32.78007 -0.01586
C 20.84524 5.02132 0.02117
C 19.61987 2.79223 -0.00498
C 20.87464 2.17101 0.00135
C 20.90254 0.7473 0.03102
C 19.6426 0.0409 0.02555
C 22.1159 32.59435 0.01423
C 23.33127 31.90304 -0.00285
C 23.38373 30.47343 -0.009
C 22.16991 29.82612 -0.01199
C 19.64898 4.2296 0.02737
C 22.05481 28.25318 -0.00229
C 17.21784 33.94344 -0.01107
C 18.40444 2.03752 -0.00225
C 15.92415 5.01316 0.00199
C 14.74224 4.31551 0.01511
C 14.81817 2.83734 -0.00478
C 15.9741 2.07752 -0.01662
C 15.9328 0.59097 -0.01185
C 14.64859 33.993 0.01126
C 18.47823 27.37339 0.01852
C 18.21493 26.16939 -0.00381
C 18.36025 0.6456 0.00071
C 17.05053 25.39686 0.03046
C 18.3381 10.68638 0.03374
C 18.43757 9.31317 -0.02845
C 17.17548 8.54818 -0.03213
C 17.15008 7.16471 0.02239
C 18.36829 6.40495 0.01153
C 18.36733 5.00434 0.02734
C 17.19779 4.25395 -0.0055
C 17.20835 2.83271 0.01515
C 17.13686 11.28005 0.0296
C 27.08509 34.0217 -0.02049
C 23.34021 27.56659 -0.00938
C 22.17555 8.71981 -0.01154
C 25.76062 0.67815 0.00194
C 24.519 33.99811 -0.00621
C 27.049 32.67599 0.02611
C 28.2485 31.88958 0.02198
C 28.27442 30.45185 0.01094
C 27.05075 29.75897 0.00235
C 26.97751 28.31501 0.01495
C 28.20186 27.69716 0.01259
C 25.78203 2.16802 0.04185
C 28.38851 26.3277 0.01799
C 28.32619 9.22849 -0.00416
C 27.06753 8.51601 0.01177
C 27.1452 7.05046 0.04266
C 28.30177 6.3502 0.01324
C 28.3372 4.88476 0.0014
C 27.11495 4.21773 0.00924
C 27.09768 2.78282 0.02326
C 28.2634 2.09652 0.00261
C 28.37929 10.55288 0.01699
C 23.38306 9.19073 -0.0264
C 24.61128 2.8799 0.02316
C 25.82194 4.97874 0.00152
C 22.14147 7.22937 0.00684
C 23.39588 6.56375 -0.01052
C 23.36642 5.06313 -0.01679
C 22.10653 4.33553 0.00367
C 22.12368 2.83635 0.04306
C 23.41651 2.16934 0.00996
C 23.38437 0.7531 0.00195
C 22.09862 0.01931 -0.00802
C 24.55711 4.31195 0.01257
C 24.59328 32.58061 -0.00218
C 25.84365 30.39447 -0.00037
C 24.59561 29.71367 -0.0032
C 24.46215 28.18975 0.00622
C 25.83855 27.55006 -0.02815
C 25.96025 9.27731 -0.00942
C 24.70134 8.75187 0.00487
C 24.6168 7.16034 0.00826
C 25.90575 6.35079 -0.00294
C 25.8399 31.8796 -0.01654
C 2.51171 32.63726 0.00988
