274
Graphene
C 34.35594 0.07028 0.01295
C 16.12354 30.41037 0.01087
C 16.00596 31.84515 -0.01527
C 14.72615 32.66874 0.00096
C 12.28418 0.00921 0.01277
C 13.53285 0.64809 -0.02422
C 13.51876 2.15777 -0.01721
C 12.33786 2.93251 -0.01154
C 12.4014 4.37605 0.0106
C 13.70617 4.96483 -0.01594
C 13.60713 6.42596 0.00742
C 12.47981 7.11376 -0.00311
C 12.28405 25.61013 0.00675
C 13.55655 26.15867 -0.00865
C 13.46678 27.71324 0.0058
C 14.75742 29.71139 0.00199
C 12.14285 28.38176 -0.00652
C 13.4603 30.42973 -0.00703
C 13.41081 31.82684 0.00654
C 12.28418 32.62183 -0.04422
C 9.78483 0.10458 -0.02957
C 11.06976 0.76815 -0.00831
C 11.12691 2.24291 0.00364
C 9.79602 2.93339 -0.017
C 9.82995 4.41261 0.00143
C 11.19836 5.05385 0.00667
C 11.15852 6.57871 -0.0054
C 9.90262 7.05978 0.00755
C 9.67634 25.60097 0.01739
C 10.95535 26.12368 0.03754
C 10.96722 27.62867 -0.03557
C 12.20783 29.79246 -0.04076
C 9.68531 28.37768 -0.00111
C 14.71415 28.26512 0.01511
C 15.94639 26.19566 -0.01662
C 19.02878 21.16976 0.00135
C 19.72592 32.72886 -0.00498
C 17.23841 34.05011 0.02737
C 18.44611 0.62002 0.02117
C 18.41889 2.10106 -0.04078
C 17.23914 2.75937 0.03005
C 17.34298 4.19816 -0.0276
C 18.60976 4.92707 0.00768
C 18.55644 6.28989 -0.00178
C 17.34029 6.9701 0.00733
C 17.89283 22.34023 -0.02118
C 18.62401 23.586 -0.01971
C 18.10985 24.70236 -0.01586
C 17.98503 26.12354 -0.01107
C 15.92588 27.51806 -0.00478
C 18.38417 27.54644 0.00071
C 17.29465 29.64076 0.01515
C 18.43869 30.47018 -0.0055
C 18.64585 31.81257 0.02734
C 17.28213 32.59404 0.01153
C 14.71971 34.00884 0.02239
C 15.98131 0.62948 -0.03213
C 16.01089 2.05802 -0.02845
C 14.79707 2.80546 0.03374
C 14.90507 4.21284 0.0296
C 16.13105 4.96535 0.03046
C 16.0685 6.42751 -0.00381
C 14.87695 7.22588 0.01852
C 14.40678 8.49159 0.01126
C 14.82866 25.71112 -0.01185
C 17.1451 28.2642 -0.00225
C 9.77525 29.81785 0.04892
C 10.96237 30.57398 0.01452
C 11.01606 32.00169 -0.01581
C 4.82249 29.91671 -0.0108
C 6.08174 30.62816 -0.01957
C 6.08028 32.01647 0.02058
C 4.88165 32.75376 0.01965
C 2.33484 0.01646 -0.03682
C 3.64228 0.77909 0.00052
C 3.62963 2.21925 0.00374
C 2.3704 2.93511 -0.02813
C 2.38176 4.30496 -0.01952
C 3.64511 5.00667 0.05265
C 3.62972 6.44518 -0.01717
C 2.45559 7.19981 0.00244
C 2.40489 8.64638 0.02299
C 3.66786 9.39191 0.03542
C 4.80115 28.44463 -0.00368
C 3.65348 10.72829 0.01416
C 2.34076 12.91875 -0.01454
C 2.29349 15.73617 0.01241
C 2.17086 17.06287 0.0076
C 2.37943 20.10539 0.02162
C 2.29879 21.50518 -0.0014
C 3.47537 22.20669 0.00415
C 3.58324 23.51155 -0.02162
C 2.32609 24.26999 0.01363
C 2.4058 25.60906 0.01877
C 3.60094 26.22756 -0.00925
C 3.5705 27.74038 0.00444
C 2.35909 28.43619 -0.01789
C 2.35237 29.88111 0.02894
C 3.56255 30.57632 -0.02971
C 2.52042 11.55166 0.01945
C 6.08396 27.70682 -0.02696
C 6.09265 26.33986 -0.00114
C 4.82251 25.5546 0.00228
C 9.83668 32.68377 0.02691
C 7.24569 0.03834 -0.01979
C 8.51074 0.74162 0.02188
C 8.59245 2.11568 -0.00316
C 7.33243 2.88933 -0.0331
C 7.4338 4.32804 -0.0258
C 8.62703 5.11911 0.03338
C 8.65779 6.57838 -0.00491
C 7.36442 7.23233 -0.00109
C 7.28105 8.63707 0.03698
C 7.15083 24.18256 -0.02213
C 7.24235 25.59129 0.00028
C 8.50273 26.28463 -0.00289
C 8.50344 27.72624 -0.00066
C 7.29929 28.41898 0.00213
C 7.33844 29.85902 -0.05302
C 8.55809 30.57124 -0.04147
C 4.87265 24.09218 0.00798
C 6.02166 23.3587 0.00422
C 6.11271 9.2825 0.0351
C 4.83264 8.63541 -0.03113
C 4.86083 7.25017 0.02098
C 6.17628 6.48077 0.01848
C 19.92221 20.2352 0.03102
C 6.19372 5.06326 -0.00619
C 4.87636 2.94805 0.00889
C 6.07924 2.1923 -0.00481
C 6.06737 0.80219 0.00979
C 4.8391 0.09963 0.01443
C 7.38754 32.70549 0.03505
C 8.60871 32.0125 -0.02815
C 4.94209 4.37891 -0.02162
C 21.02072 19.37764 0.02555
C 20.93035 18.05854 0.01423
C 21.7463 6.30021 -0.00285
C 31.87479 4.3509 -0.03838
C 33.16112 5.0902 0.04926
C 33.13864 6.4963 -0.00069
C 31.88909 7.15829 0.01504
C 31.86257 8.60973 0.02806
C 33.11594 9.35549 0.04381
C 33.10351 10.75556 0.00199
C 31.93625 11.42603 0.00137
C 31.92976 12.87101 -0.01839
C 33.17569 13.55264 -0.00644
C 33.15165 14.93176 0.00455
C 31.89746 15.65088 0.00369
C 31.86594 17.1637 -0.02474
C 33.17344 17.78358 0.00594
C 31.91372 2.93858 0.00349
C 33.1894 19.25843 -0.0136
C 31.90955 21.33399 -0.02383
C 32.90988 22.25915 0.01574
C 33.02374 23.6014 0.01927
C 33.63749 27.03768 0.03794
C 33.02661 30.54666 -0.01779
C 32.95766 32.00495 0.00682
C 31.82936 32.84546 0.00026
C 29.57695 0.04792 0.0544
C 30.68367 0.79304 -0.02142
C 30.67417 2.28913 0.01428
C 29.45493 2.98025 -0.01694
C 29.43063 4.43345 0.01713
C 30.59609 5.06972 0.00346
C 30.61632 6.46021 0.00307
C 31.87692 20.02383 -0.01429
C 33.18745 2.23663 -0.00323
C 33.15574 0.80844 -0.00841
C 31.90275 0.07273 0.0001
C 1.15727 0.81206 -0.00468
C 1.1103 2.20476 -0.00939
C 34.37289 2.90227 -0.00931
C 34.39351 4.36809 -0.0345
C 1.16447 5.0821 0.00628
C 1.16234 6.4654 0.02931
C 34.30455 7.18212 -0.02849
C 34.33867 8.64348 -0.02302
C 1.20099 9.33671 -0.00583
C 1.26294 10.76553 -0.00027
C 34.35077 11.45713 -0.02442
C 34.36353 12.86027 -0.02656
C 1.21693 13.52759 0.00343
C 1.13318 15.00145 -0.02957
C 34.39696 15.70135 0.02114
C 34.3549 17.13292 0.00648
C 1.12087 17.93188 0.01223
C 34.27189 32.73052 -0.02927
C 1.00418 31.92843 -0.01404
C 1.00336 30.51945 0.01027
C 34.13646 29.74054 0.01831
C 34.23998 28.27093 -0.01037
C 1.15776 27.82212 -0.00439
C 29.37682 7.11912 0.00716
C 1.20844 26.38735 -0.00598
C 34.22771 24.37193 0.03076
C 1.15265 23.64085 0.00723
C 1.03868 22.22801 0.02712
C 34.27675 21.48419 -0.02213
C 34.35031 20.04461 0.01951
C 1.20777 19.35294 -0.01678
C 34.40805 25.69096 -0.05239
C 3.5535 32.02674 0.00165
C 29.4243 8.50931 0.02108
C 30.63398 10.68705 0.07705
C 24.17938 7.17318 -0.00621
C 24.37444 8.54108 0.00194
C 25.57586 9.21259 0.04185
C 25.72093 10.66809 0.02316
C 24.6377 11.4454 0.01257
C 24.56697 12.8076 0.00152
C 25.72177 13.49667 -0.00294
C 25.86342 14.91095 0.00826
C 24.55249 15.45633 0.00487
C 24.64191 16.91641 -0.00942
C 25.73346 17.69055 -0.02815
C 21.98579 33.94444 0.00622
C 23.30539 0.39624 -0.0032
C 23.36187 1.9825 -0.00037
C 25.55117 6.43122 0.02611
C 22.18787 2.66335 -0.01654
C 23.33902 4.93253 -0.00802
C 23.01617 6.30751 0.00195
C 23.24621 14.79487 0.00996
C 22.17032 15.67613 0.04306
C 21.93121 17.05519 0.00367
C 23.35354 17.69512 -0.01679
C 23.48261 19.1099 -0.01052
C 22.26051 19.75208 0.00684
C 19.63216 0.02567 -0.01154
C 20.89984 0.69368 -0.0264
C 20.84303 2.07267 -0.00938
C 19.6771 2.79748 -0.00229
C 19.8014 4.26271 -0.01199
C 21.09979 4.95887 -0.009
C 22.18359 4.1465 -0.00218
C 25.70491 4.99535 0.02198
C 24.50496 4.22079 0.01094
C 24.59751 2.78511 0.00235
C 29.44429 11.425 0.01908
C 29.45936 12.85394 0.01518
C 30.67491 13.57292 -0.00971
C 30.6597 14.99074 -0.03735
C 29.45512 15.78365 -0.00944
C 29.34737 17.12303 -0.02155
C 30.60878 17.88744 -0.01461
C 30.69115 19.25563 -0.01303
C 29.49476 19.76719 -0.0405
C 27.08969 0.15144 0.01705
C 28.34024 0.65202 0.0101
C 28.25108 2.23539 -0.00669
C 27.03854 2.81099 0.03531
C 26.95737 4.27841 0.01836
C 28.12258 4.98702 -0.03039
C 28.08279 6.35877 -0.01415
C 26.80398 7.07054 -0.01854
C 25.8007 2.03783 0.01495
C 25.79199 0.51185 0.01259
C 24.60177 33.98511 0.01799
C 28.15908 19.29182 0.01699
C 28.17622 17.91783 -0.00416
C 26.96054 17.19217 0.01177
C 30.69708 9.29015 0.0103
C 26.986 15.71694 0.04266
C 28.25724 13.48304 0.0014
C 27.02053 12.76048 0.00924
C 26.95642 11.36431 0.02326
C 28.22899 10.66599 0.00261
C 28.16316 9.21789 0.03265
C 26.84691 8.53126 -0.02049
C 28.22653 14.94355 0.01324
C 2.2853 32.67792 0.02819
