340
Graphene
C 0.01663 0.02892 0.01295
C 13.58201 30.51021 -0.00619
C 12.25143 29.89158 -0.02162
C 12.28694 28.44298 0.00889
C 13.52531 27.68342 -0.00481
C 13.55367 26.30684 0.00979
C 12.32704 25.5914 0.01443
C 12.24178 24.10147 0.03505
C 13.49105 23.41544 -0.02815
C 13.50739 21.94024 -0.04147
C 12.28878 21.30161 -0.05302
C 12.33508 19.89958 0.00213
C 13.54855 19.13126 -0.00066
C 13.57217 17.73402 -0.00289
C 12.37039 17.01852 0.00028
C 12.29622 15.68166 -0.02213
C 13.53085 14.88953 0.03698
C 13.52356 13.3958 -0.00109
C 13.48499 31.90832 0.01848
C 12.3383 12.69537 -0.00491
C 12.24973 32.62651 0.02098
C 11.05094 0.72277 0.0351
C 11.0808 19.12903 -0.01717
C 11.06337 17.77252 0.05265
C 9.74259 17.05542 -0.01952
C 9.86047 15.63335 -0.02813
C 11.08968 14.91694 0.00374
C 11.06836 13.49501 0.00052
C 9.88918 12.80147 -0.03682
C 9.81861 11.38638 0.01965
C 11.08245 10.61885 0.02058
C 11.07606 9.25023 -0.01957
C 9.85636 8.59238 -0.0108
C 9.83019 7.11414 -0.00368
C 11.05797 6.42117 -0.02696
C 11.083 4.91496 -0.00114
C 9.84558 4.26532 0.00228
C 9.85154 2.85892 0.00798
C 11.10701 2.14302 0.00422
C 9.80994 34.01559 -0.03113
C 12.27353 11.37092 0.03338
C 13.54918 10.6146 -0.0258
C 13.4692 9.20319 -0.0331
C 14.7847 17.0292 -0.04076
C 14.87197 15.64372 -0.00652
C 15.992 14.91364 0.0058
C 16.01507 13.50487 -0.00865
C 14.73643 12.84946 0.00675
C 14.74042 11.38249 -0.00311
C 15.977 10.58968 0.00742
C 16.01216 9.16295 -0.01594
C 14.77221 8.5438 0.0106
C 14.75245 7.09123 -0.01154
C 15.93918 6.40146 -0.01721
C 15.94865 4.98841 -0.02422
C 14.76678 4.22868 0.01277
C 14.77683 2.8687 0.00096
C 15.9778 2.10428 -0.01527
C 16.01411 0.69114 0.01087
C 14.77703 34.05981 0.00199
C 14.76384 19.81151 -0.00703
C 14.73023 21.3168 0.00654
C 15.95192 22.01275 -0.04422
C 16.02083 23.39756 -0.02957
C 12.2878 8.51171 -0.00316
C 12.28039 7.13224 0.02188
C 13.51079 6.38682 -0.01979
C 13.50445 4.99967 0.02691
C 12.25614 4.30174 -0.01581
C 12.28581 2.8723 0.01452
C 13.51171 2.12625 0.04892
C 13.57389 0.68431 -0.00111
C 9.86245 19.86635 0.00244
C 12.29811 34.07999 -0.03557
C 15.99446 31.96453 0.01739
C 16.01184 30.53542 0.00755
C 14.77307 29.81803 -0.0054
C 14.75873 28.36703 0.00667
C 15.9765 27.65521 0.00143
C 15.98751 26.2585 -0.017
C 14.80022 25.61114 0.00364
C 14.7437 24.1536 -0.00831
C 14.74713 32.6663 0.03754
C 17.17006 32.67053 0.01511
C 9.86564 21.28649 0.02299
C 11.00326 23.45458 0.01416
C 2.45814 0.01864 -0.00482
C 4.94487 32.62585 -0.01384
C 6.13326 31.93084 0.03693
C 6.12995 30.46365 0.01745
C 4.86652 29.81465 0.00488
C 4.89083 28.39176 -0.01004
C 6.09809 27.70519 -0.02896
C 6.17464 26.28158 -0.00131
C 4.98014 25.56097 -0.01118
C 4.87608 24.18148 -0.014
C 6.15963 23.40216 0.02147
C 6.13083 22.0279 0.00373
C 4.91641 21.33234 -0.00191
C 4.95382 19.90394 0.00438
C 6.15021 19.13739 0.01291
C 6.16577 9.23688 0.00093
C 4.8959 8.55994 0.00057
C 3.66729 0.69853 0.02888
C 4.91975 7.11938 -0.01634
C 3.68809 2.19103 0.00685
C 2.48701 4.24036 0.00393
C 3.699 30.58464 -0.01378
C 2.48926 29.83746 0.02635
C 2.47054 28.42421 0.0127
C 3.63536 27.73819 0.01396
C 3.71864 26.30845 0.01849
C 2.4758 25.54685 -0.01142
C 2.42973 24.11785 -0.00562
C 3.65368 23.42836 -0.00494
C 3.72936 21.95831 0.00054
C 2.50721 21.3014 0.03007
C 2.45245 19.85013 -0.00095
C 3.7292 19.17179 0.01572
C 3.66004 9.20217 -0.04848
C 2.42729 8.49939 -0.00892
C 2.41058 7.16647 -0.01362
C 3.67903 6.42415 -0.0008
C 3.72939 4.95703 0.0288
C 2.4537 2.87368 0.00895
C 6.20613 6.39019 -0.00334
C 6.13249 4.95772 0.02339
C 4.97188 4.26315 0.01641
C 7.32627 7.05832 0.02819
C 8.59966 6.46561 0.00165
C 8.57752 5.02433 -0.02971
C 7.36234 4.27137 0.02894
C 7.3999 2.88904 -0.01789
C 8.59996 2.06457 0.00444
C 8.63324 0.71449 -0.00925
C 7.39784 0.04019 0.01877
C 9.84566 32.67804 0.01363
C 11.05536 31.9302 -0.02162
C 11.01224 30.49376 0.00415
C 9.83162 29.80582 -0.0014
C 9.87931 28.40893 0.02162
C 11.07646 27.64809 0.0076
C 11.069 26.28684 0.01241
C 9.85007 25.59194 -0.01454
C 9.79544 24.15909 0.01945
C 7.45625 8.51134 -0.00891
C 8.67846 9.25733 -0.01046
C 8.62902 10.682 -0.02689
C 8.55422 17.65605 -0.01536
C 4.92669 2.83929 -0.00719
C 6.11225 2.16285 0.01364
C 6.11695 0.69862 -0.01062
C 4.91621 34.07444 -0.00033
C 7.35614 32.68082 0.03589
C 8.5889 31.96235 -0.02759
C 8.63524 30.48939 0.0402
C 7.35494 29.84285 0.00572
C 11.05141 22.03808 0.03542
C 7.37896 28.44123 0.03592
C 8.59131 26.2534 0.00943
C 7.37542 25.57803 0.02841
C 7.39469 24.16629 -0.01111
C 8.60214 23.46577 -0.01275
C 8.58975 22.05209 0.00985
C 7.41181 21.30695 -0.02245
C 7.36867 19.92901 -0.00428
C 8.59818 19.1895 0.03101
C 8.62811 27.73839 0.00406
C 18.40512 32.01274 -0.00478
C 18.40895 30.56671 -0.01662
C 17.22078 29.82074 -0.01185
C 30.69834 2.11943 -0.02142
C 30.76971 0.73647 0.0544
C 29.53262 0.00152 0.00026
C 31.97265 32.64545 0.00682
C 33.1779 31.97814 -0.01779
C 33.1873 30.57549 0.03794
C 32.00724 29.81901 0.01927
C 31.93898 28.38304 0.01574
C 33.19389 27.72657 -0.02383
C 33.20463 26.2571 -0.01429
C 31.99615 25.55059 -0.0136
C 31.91705 24.19051 0.00594
C 33.17612 23.45728 -0.02474
C 33.2654 22.03998 0.00369
C 32.00462 21.24557 0.00455
C 31.98312 19.88649 -0.00644
C 33.1527 19.16289 -0.01839
C 29.53944 2.82654 0.01428
C 33.1704 17.76121 0.00137
C 30.70435 13.47432 -0.01694
C 29.46167 15.6128 0.00346
C 27.04221 34.0153 -0.00669
C 29.50286 32.69979 0.0101
C 30.69953 31.94325 0.01705
C 30.78536 30.56819 -0.0405
C 29.52337 29.79628 -0.01303
C 29.50051 28.40293 -0.01461
C 30.75034 27.70881 -0.02155
C 30.78991 26.25548 -0.00944
C 29.5407 25.62231 -0.03735
C 29.49008 24.12786 -0.00971
C 30.73416 23.43537 0.01518
C 30.74755 22.02075 0.01908
C 29.45914 21.34961 0.07705
C 29.54213 19.86539 0.0103
C 30.75412 19.14836 0.02108
C 30.77997 17.71038 0.00716
C 29.51594 17.04528 0.00307
C 30.71651 14.91253 0.01713
C 31.97563 17.0296 0.00199
C 31.93837 15.61738 0.04381
C 33.21137 14.89553 0.02806
C 34.40897 19.8917 0.01223
C 1.26822 19.17051 0.00648
C 1.2199 17.68858 0.02114
C 0.0344 16.99878 -0.02957
C 0.00322 15.6374 0.00343
C 34.41255 12.78845 -0.02656
C 34.42066 11.33601 -0.02442
C 1.17599 10.67872 -0.00027
C 1.25954 9.18446 -0.00583
C 34.40236 8.49813 -0.02302
C 34.38072 7.12593 -0.02849
C 1.19032 6.35004 0.02931
C 1.18805 4.97903 0.00628
C 34.42459 4.23569 -0.0345
C 0.01837 2.78445 -0.00931
C 1.28244 2.13005 -0.00939
C 1.2517 0.74323 -0.00468
C 0.06402 21.29585 -0.01678
C 1.23249 21.95655 0.01951
C 1.22532 23.43382 -0.02213
C 0.01524 24.13371 0.02712
C 33.15763 13.48818 0.01504
C 31.95698 12.78516 -0.00069
C 33.20081 10.66033 0.04926
C 33.20294 6.39992 -0.03838
C 33.21222 5.06091 0.00349
C 31.95989 4.2397 -0.00323
C 31.99957 2.86892 -0.00841
C 33.17871 2.15086 0.0001
C 28.28168 0.69561 0.03531
C 33.19709 0.69846 -0.02927
C 0.0399 32.69243 0.01027
C 1.24787 31.94261 0.01831
C 1.21138 30.50687 -0.01037
C 34.43146 29.82762 -0.00439
C 0.01587 28.41539 -0.00598
C 1.25812 27.76253 -0.05239
C 1.18977 26.21694 0.03076
C 34.3995 25.55488 0.00723
C 31.96673 0.00713 -0.01404
C 28.34594 2.12826 0.01836
C 27.03069 2.81598 -0.03039
C 28.23193 14.9524 -0.01415
C 19.65982 28.38809 -0.0276
C 20.87331 27.7048 0.03005
C 20.87214 26.18906 -0.04078
C 19.64843 25.63339 0.02117
C 19.69385 11.40312 0.02737
C 20.93354 10.69689 -0.00498
C 20.91235 9.23353 0.00135
C 19.63944 8.4912 0.03102
C 19.61017 7.08891 0.02555
C 20.91057 6.41163 0.01423
C 20.94901 4.91842 -0.00285
C 19.68127 4.25227 -0.009
C 19.65135 2.85742 -0.01199
C 20.89217 2.16974 -0.00229
C 20.91523 0.77728 -0.00938
C 19.64822 0.02133 -0.0264
C 22.12942 32.66599 -0.01154
C 19.65145 29.8549 0.00768
C 20.91909 30.50599 -0.00178
C 20.90182 31.95851 0.00733
C 19.64215 32.63356 -0.02118
C 17.22096 28.37267 0.01126
C 18.42825 27.68405 0.01852
C 18.43646 26.31216 -0.00381
C 17.22558 25.49646 0.03046
C 17.2297 24.12231 0.0296
C 17.15018 12.74254 0.03374
C 17.21791 11.36896 -0.02845
C 18.48738 10.65692 -0.03213
C 23.30197 31.90067 0.00684
C 18.42972 9.26126 0.02239
C 17.2001 7.08182 0.02734
C 18.41776 6.34009 -0.0055
C 18.41693 4.99107 0.01515
C 17.22468 4.2406 -0.00225
C 17.21016 2.85776 0.00071
C 18.46946 2.13247 -0.01107
C 18.43126 0.69381 -0.01586
C 17.23042 34.04287 -0.01971
C 17.22956 8.49351 0.01153
C 3.67718 31.95185 -0.01303
C 23.37136 30.50463 -0.01052
C 22.1671 28.38554 0.00367
C 24.60819 25.59218 0.01094
C 24.53528 4.24448 0.00235
C 24.53214 2.82289 0.01495
C 25.83308 2.09263 0.01259
C 25.80123 0.70679 0.01799
C 24.61762 34.06719 0.01699
C 27.06817 32.64196 -0.00416
C 28.18633 31.95134 0.01177
C 28.25143 30.46651 0.04266
C 27.06422 29.80675 0.01324
C 27.06474 28.37564 0.0014
C 28.31622 27.6372 0.00924
C 28.33286 26.21512 0.02326
C 27.06502 25.53283 0.00261
C 27.03913 24.1363 0.03265
C 28.28731 23.32326 -0.02049
C 28.26707 21.98801 -0.01854
C 25.80376 26.29113 0.02198
C 25.87426 27.65831 0.02611
C 24.66564 28.37919 -0.00621
C 24.57971 29.78414 0.00194
C 23.38159 27.70014 0.04306
C 23.36581 26.2642 0.00996
C 22.13663 25.55173 0.00195
C 22.21589 11.36531 -0.00802
C 23.31798 10.6583 -0.00218
C 23.35972 9.27902 -0.01654
C 22.17596 8.50735 -0.00037
C 22.20727 7.11973 -0.0032
C 22.18316 29.83358 -0.01679
C 23.35187 6.41699 0.00622
C 22.16769 4.18199 -0.00942
C 22.11287 2.83504 0.00487
C 23.36472 2.14098 0.00826
C 23.33411 0.76922 -0.00294
C 22.11289 34.07628 0.00152
C 24.60215 32.68221 0.01257
C 25.78409 31.95468 0.02316
C 25.82325 30.50587 0.04185
C 23.41031 4.97648 -0.02815
C 2.4384 32.71102 0.00848
