371
Graphene
C 34.31694 0.03678 0.01295
C 12.22114 7.18305 -0.01717
C 13.5003 6.38145 0.05265
C 13.49395 4.93528 -0.01952
C 12.21568 4.234 -0.02813
C 12.23861 2.81613 0.00374
C 13.44332 2.21192 0.00052
C 13.47685 0.87704 -0.03682
C 12.33889 34.0026 0.01965
C 14.31814 32.73881 0.02058
C 15.58979 32.02934 -0.01957
C 14.77684 19.919 -0.0108
C 16.09974 19.30853 -0.00368
C 16.01631 17.81004 -0.02696
C 14.80625 17.09219 -0.00114
C 14.80988 15.63069 0.00228
C 16.0203 14.9698 0.00798
C 16.02706 13.53673 0.00422
C 14.82897 12.824 0.0351
C 14.78569 11.44803 -0.03113
C 12.27997 8.57836 0.00244
C 16.02473 10.64673 0.02098
C 13.47123 9.3359 0.02299
C 12.24091 11.39988 0.01416
C 11.02102 10.65612 -0.01046
C 11.01005 9.24403 -0.00891
C 9.80501 8.56097 0.02819
C 9.79461 7.12657 0.00165
C 11.02128 6.43718 -0.02971
C 11.09979 5.03222 0.02894
C 9.88689 4.33246 -0.01789
C 9.79485 2.87394 0.00444
C 11.06553 2.07293 -0.00925
C 11.07114 0.71277 0.01877
C 9.79724 0.00702 0.01363
C 12.44051 32.68495 -0.02162
C 13.67164 19.09973 0.00415
C 13.60259 17.72927 -0.0014
C 12.29245 17.06272 0.02162
C 12.30661 15.66901 0.0076
C 13.5337 14.96984 0.01241
C 13.51899 13.60366 -0.01454
C 12.3064 12.8972 0.01945
C 13.50084 10.77301 0.03542
C 15.91423 9.27369 0.01848
C 14.71063 8.54635 -0.00619
C 14.73143 7.09401 -0.02162
C 17.15627 4.1111 0.01452
C 17.06193 2.70752 0.04892
C 18.31118 2.01189 -0.00111
C 18.2427 0.58334 -0.03557
C 17.03229 33.94743 0.03754
C 19.51962 32.43937 0.01739
C 20.75683 31.8425 0.00755
C 21.03072 19.03572 -0.0054
C 20.99524 17.65053 0.00667
C 19.64525 16.84933 0.00143
C 19.71368 15.49003 -0.017
C 20.987 14.82115 0.00364
C 20.95828 13.47422 -0.00831
C 19.71639 12.78936 -0.02957
C 19.64294 11.26733 -0.04422
C 20.87958 10.56259 0.00654
C 20.81645 9.18232 -0.00703
C 19.61717 8.52208 -0.04076
C 19.63926 7.02984 -0.00652
C 18.40463 4.86501 -0.01581
C 18.40649 6.31481 0.02691
C 17.21983 7.08965 -0.01979
C 17.19206 8.51785 0.02188
C 15.97979 6.3785 0.00889
C 15.93739 5.0016 -0.00481
C 14.72075 4.23129 0.00979
C 14.71177 2.74563 0.01443
C 15.87073 1.99232 0.03505
C 15.8579 0.65691 -0.02815
C 14.54895 0.0787 -0.04147
C 16.95308 32.44389 -0.05302
C 18.26769 31.83406 0.00213
C 9.83977 11.47292 -0.02689
C 17.5437 19.92578 -0.00066
C 18.47318 17.66989 0.00028
C 17.22003 17.06627 -0.02213
C 17.29983 15.65148 0.03698
C 18.43014 14.81814 -0.00109
C 18.4812 13.39409 -0.00491
C 17.19404 12.69131 0.03338
C 17.13621 11.33214 -0.0258
C 18.35598 10.62136 -0.0331
C 18.42919 9.23003 -0.00316
C 18.55174 19.06969 -0.00289
C 20.88067 6.33053 0.0058
C 9.92595 12.87845 -0.01536
C 11.03659 14.95202 -0.00428
C 3.62053 6.42365 -0.02929
C 3.67723 5.01666 -0.00966
C 2.42705 4.34663 -0.03337
C 2.35717 2.88625 0.01227
C 3.62627 2.20967 0.00873
C 3.5321 0.74954 -0.00049
C 2.28941 0.08383 0.00848
C 4.76625 32.69442 -0.01303
C 6.08098 31.9956 -0.01378
C 6.14713 30.57777 0.02635
C 4.94332 29.77588 0.0127
C 4.80586 28.31625 0.01396
C 4.81917 25.8084 0.01849
C 4.97538 24.34634 -0.01142
C 6.03273 23.56648 -0.00562
C 6.23571 22.24575 -0.00494
C 4.94723 21.38494 0.00054
C 4.88581 19.98375 0.03007
C 6.12296 19.26481 -0.00095
C 2.46831 7.13635 0.03368
C 6.24008 17.82498 0.01572
C 2.49306 8.60029 -0.00077
C 3.74569 10.71314 0.0276
C 3.58699 30.56495 0.01226
C 2.36346 29.81011 -0.00279
C 2.36043 28.45169 0.01996
C 3.5908 27.81469 -0.03996
C 3.63687 26.35519 0.01465
C 2.40802 25.62713 -0.00074
C 2.42617 24.20924 -0.00518
C 3.71796 23.52365 0.0086
C 3.69538 22.15134 -0.00643
C 2.55192 21.44457 0.017
C 2.43406 20.00438 -0.03113
C 3.72488 19.29718 -0.02566
C 3.71711 17.77647 -0.00094
C 2.4814 17.09905 0.02322
C 2.42778 15.70052 -0.00725
C 3.6409 14.95439 -0.05697
C 3.70587 13.62421 0.01087
C 2.44506 12.82162 -0.01343
C 2.50619 11.38906 0.00988
C 3.75033 9.2845 0.01305
C 4.93217 17.15537 -0.04848
C 4.95528 15.80558 -0.00892
C 6.15969 15.04573 -0.01362
C 7.32591 12.87087 -0.00334
C 7.37903 11.47745 0.02339
C 8.64334 10.7542 0.01641
C 8.63256 9.29427 -0.00719
C 7.42003 8.60789 0.01364
C 7.32353 7.17851 -0.01062
C 8.52682 6.42407 -0.00033
C 8.63866 4.98793 0.03589
C 7.37929 4.39165 -0.02759
C 7.31402 2.95788 0.0402
C 8.55383 2.24277 0.00572
C 8.59456 0.88076 0.03592
C 7.27311 0.14851 0.00406
C 9.73191 32.75797 0.00943
C 9.74356 19.76383 0.02841
C 11.09519 19.21661 -0.01111
C 11.12781 17.78803 -0.01275
C 9.85796 17.10628 0.00985
C 9.8706 15.68637 -0.02245
C 8.65851 13.61561 -0.01634
C 8.61178 15.04246 0.00057
C 7.33882 15.77071 0.00093
C 7.40734 17.15753 0.01291
C 6.12407 13.55427 -0.0008
C 4.851 12.8554 0.0288
C 4.91971 11.44679 0.00393
C 6.13646 10.73749 0.00895
C 6.09202 9.29198 0.00685
C 4.95416 8.50464 0.02888
C 4.91907 7.13399 -0.00482
C 6.13126 6.40239 -0.01384
C 6.17932 5.01462 0.03693
C 11.05884 13.55558 0.03101
C 4.86722 4.33873 0.01745
C 6.10594 2.24983 -0.01004
C 6.09722 0.80137 -0.02896
C 4.83216 0.05867 -0.00131
C 7.23739 32.81752 -0.01118
C 8.49125 32.14544 -0.014
C 7.40706 21.33364 0.02147
C 7.38123 19.98816 0.00373
C 8.59371 19.20871 -0.00191
C 8.62965 17.81049 0.00438
C 4.92499 2.92603 0.00488
C 3.50623 31.94925 0.03828
C 20.84268 4.93721 -0.00865
C 19.56959 2.68959 -0.00311
C 30.60869 2.20496 0.00716
C 30.54688 0.80867 0.00307
C 29.38743 34.07121 0.00346
C 31.83021 32.69133 0.01713
C 33.1113 31.96917 -0.01694
C 33.07467 30.58246 0.01428
C 31.79007 29.84836 -0.02142
C 31.90727 28.49548 0.0544
C 33.11703 27.68436 0.00026
C 33.10208 26.33012 0.00682
C 31.91663 25.61569 -0.01779
C 32.04199 24.19428 0.03794
C 33.21395 23.5145 0.01927
C 33.14397 22.06568 0.01574
C 32.01603 21.31111 -0.02383
C 32.01393 19.85964 -0.01429
C 33.26818 19.14666 -0.0136
C 33.31643 17.71236 0.00594
C 31.99347 17.10373 -0.02474
C 29.35339 2.90092 0.02108
C 31.99127 15.66165 0.00369
C 29.44543 4.25007 0.0103
C 30.69437 6.41061 0.01908
C 30.64781 26.25455 0.00261
C 29.50605 25.52274 0.03265
C 29.51901 24.18047 -0.02049
C 30.84824 23.53801 -0.01854
C 30.75204 22.06548 -0.01415
C 29.53469 21.32959 -0.03039
C 29.5362 19.88042 0.01836
C 30.77933 19.21267 0.03531
C 30.76652 17.78578 -0.00669
C 29.5616 17.08234 0.0101
C 29.54272 15.6117 0.01705
C 30.69366 14.9443 -0.0405
C 30.76119 13.46131 -0.01303
C 29.53605 12.66784 -0.01461
C 29.59928 11.32729 -0.02155
C 30.86632 10.61179 -0.00944
C 30.76569 9.21087 -0.03735
C 29.48064 8.53595 -0.00971
C 29.43076 7.07908 0.01518
C 30.63517 5.03364 0.07705
C 33.19885 14.8786 0.00455
C 33.22719 13.54115 -0.00644
C 32.02154 12.81622 -0.01839
C 34.4117 19.91446 0.01951
C 1.28131 19.2237 -0.01678
C 1.25889 17.83677 0.01223
C 0.07885 17.06032 0.00648
C 0.01429 15.5906 0.02114
C 1.16478 14.8626 -0.02957
C 1.25002 13.50424 0.00343
C 34.39665 12.8134 -0.02656
C 34.40508 11.40797 -0.02442
C 1.20362 10.71576 -0.00027
C 1.24791 9.2807 -0.00583
C 34.39134 8.53906 -0.02302
C 34.38134 7.17816 -0.02849
C 1.21026 6.48548 0.02931
C 1.18191 5.03237 0.00628
C 34.40364 4.32365 -0.0345
C 34.30891 2.88896 -0.00931
C 1.12385 2.23795 -0.00939
C 1.07133 0.8038 -0.00468
C 0.01145 21.37852 -0.02213
C 1.20322 22.09062 0.02712
C 1.23839 23.5608 0.00723
C 0.02272 24.22892 0.03076
C 32.04494 11.45114 0.00137
C 33.22978 10.62176 0.00199
C 33.18406 9.26127 0.04381
C 31.94548 8.46994 0.02806
C 31.92682 7.09263 0.01504
C 33.18321 6.40842 -0.00069
C 33.14415 5.01637 0.04926
C 31.88779 4.36934 -0.03838
C 31.89993 2.90298 0.00349
C 30.66603 27.72707 0.02326
C 33.10415 2.16162 -0.00323
C 31.7709 0.04564 0.0001
C 34.35531 32.72108 -0.02927
C 1.1062 32.00548 -0.01404
C 1.11551 30.52874 0.01027
C 34.34362 29.86618 0.01831
C 34.36912 28.47179 -0.01037
C 1.09312 27.794 -0.00439
C 1.09827 26.38469 -0.00598
C 34.33146 25.61405 -0.05239
C 33.09803 0.70581 -0.00841
C 19.65302 4.16748 0.00675
C 29.42596 28.4179 0.00924
C 30.60889 30.52248 0.01324
C 23.21938 2.06263 0.02239
C 23.22449 0.62155 0.01153
C 22.02075 34.01844 0.02734
C 24.49727 32.63071 -0.0055
C 25.64848 31.83504 0.01515
C 25.68349 30.42847 -0.00225
C 24.49421 29.80497 0.00071
C 25.78423 27.59213 -0.01107
C 25.87111 26.15892 -0.01586
C 25.90901 23.40455 -0.01971
C 25.79912 22.00557 -0.02118
C 24.68261 21.17934 0.00733
C 24.65774 19.76882 -0.00178
C 26.0298 19.06147 0.00768
C 25.95113 17.62559 -0.0276
C 24.65479 17.0031 0.03005
C 24.61465 15.65645 -0.04078
C 25.82319 14.91632 0.02117
C 25.81198 13.42826 0.02737
C 22.01378 2.68699 -0.03213
C 24.5672 12.68817 -0.00498
C 22.09088 4.18188 -0.02845
C 23.29498 6.33933 0.0296
C 20.79683 1.99668 0.00742
C 20.67609 0.5896 -0.01594
C 19.44214 33.93412 0.0106
C 22.04232 32.52262 -0.01154
C 23.21258 31.83602 -0.01721
C 23.33946 30.4688 -0.02422
C 22.31186 19.64335 0.01277
C 23.47732 19.01958 0.00096
C 23.44091 17.64755 -0.01527
C 22.20087 16.92753 0.01087
C 22.21444 15.51897 0.00199
C 23.39405 14.90321 0.01511
C 23.35189 13.45495 -0.00478
C 22.15147 12.75652 -0.01662
C 22.09084 11.34887 -0.01185
C 23.31859 10.58323 0.01126
C 23.29781 9.13132 0.01852
C 22.07332 8.40406 -0.00381
C 22.08835 6.9683 0.03046
C 23.25308 4.9045 0.03374
C 24.51196 11.29672 0.00135
C 25.77188 10.60801 0.03102
C 25.75066 9.18371 0.02555
C 27.20195 16.97278 0.00826
C 27.10966 15.57597 -0.00294
C 28.29596 14.83729 0.00152
C 28.34369 13.41738 0.01257
C 27.10442 12.73845 0.02316
C 26.98233 11.26735 0.04185
C 28.19814 10.68452 0.00194
C 28.26815 9.24384 -0.00621
C 27.01385 8.48598 0.02611
C 26.94984 6.98244 0.02198
C 28.22699 6.35427 0.01094
C 28.21918 4.97963 0.00235
C 26.93669 4.20436 0.01495
C 26.96711 2.75424 0.01259
C 28.16863 2.16554 0.01799
C 28.09476 0.68659 0.01699
C 26.85296 34.02308 -0.00416
C 29.28253 32.65818 0.01177
C 30.62117 31.97724 0.04266
C 28.37101 17.70669 0.00487
C 28.41696 19.14391 -0.00942
C 27.10308 19.83803 -0.02815
C 27.06753 21.28351 0.00622
C 24.53647 8.48233 0.01423
C 24.49454 7.04871 -0.00285
C 25.75606 6.29989 -0.009
C 25.76136 4.88521 -0.01199
C 24.47288 4.25961 -0.00229
C 24.49938 2.81118 -0.00938
C 25.6605 2.09254 -0.0264
C 25.68589 0.64095 -0.01154
C 24.42136 34.03795 0.00684
C 29.45176 29.83631 0.0014
C 26.92067 32.64397 -0.01052
C 28.1574 30.51444 0.00367
C 26.90681 29.78212 0.04306
C 26.88882 28.3902 0.00996
C 28.19656 27.65889 0.00195
C 28.27044 26.26591 -0.00802
C 27.0666 25.52036 -0.00218
C 27.1405 24.12778 -0.01654
C 28.33891 23.40198 -0.00037
C 28.21619 21.90545 -0.0032
C 28.11682 31.91633 -0.01679
C 2.40716 32.70635 0.0174
