297
Graphene
C 34.41135 0.0912 0.01295
C 14.74274 24.14477 0.01739
C 16.05289 23.32301 0.00755
C 16.01437 21.92102 -0.0054
C 14.71098 4.48293 0.00667
C 14.76342 3.0667 0.00143
C 15.97595 2.34228 -0.017
C 14.78411 25.52949 0.03754
C 15.98341 0.84017 0.00364
C 17.23766 32.67056 -0.02957
C 18.44268 31.98552 -0.04422
C 18.32815 30.57838 0.00654
C 17.23101 29.83676 -0.00703
C 17.1766 28.33339 -0.04076
C 18.39396 27.66777 -0.00652
C 14.76739 34.06471 -0.00831
C 15.959 26.21007 -0.03557
C 15.90776 27.67691 -0.00111
C 14.71565 28.40002 0.04892
C 13.4702 26.15808 -0.00289
C 12.31805 25.41582 0.00028
C 12.2 23.855 -0.02213
C 13.74093 23.22845 0.03698
C 13.35025 6.67273 -0.00109
C 13.58177 5.21994 -0.00491
C 12.47637 4.33108 0.03338
C 12.37381 2.94267 -0.0258
C 13.61131 2.21379 -0.0331
C 13.5873 0.79628 -0.00316
C 12.39669 0.05424 0.02188
C 14.71693 32.6863 -0.01979
C 15.90803 31.9247 0.02691
C 15.9794 30.48521 -0.01581
C 14.70397 29.84686 0.01452
C 18.42663 26.16489 0.0058
C 13.45497 27.59672 -0.00066
C 17.19538 25.52693 -0.00865
C 18.39405 23.32865 -0.00311
C 20.88362 21.94456 0.0296
C 19.70393 21.32641 0.03374
C 19.63018 19.84282 -0.02845
C 20.85514 19.15492 -0.03213
C 20.69973 17.73251 0.02239
C 20.97133 2.24668 0.01153
C 20.86191 23.36361 0.03046
C 20.88294 0.86995 0.02734
C 22.03058 32.71335 0.01515
C 23.35711 31.93216 -0.00225
C 23.29785 30.53879 0.00071
C 22.05927 29.88656 -0.01107
C 22.05983 28.43981 -0.01586
C 23.25532 27.68369 -0.01971
C 19.67687 0.08083 -0.0055
C 19.70082 24.04725 -0.00381
C 19.63608 25.49582 0.01852
C 20.87323 26.23345 0.01126
C 18.43113 21.91843 0.00742
C 17.14612 21.13586 -0.01594
C 17.44204 19.71749 0.0106
C 18.5902 18.93833 -0.01154
C 18.88887 17.61691 -0.01721
C 17.25835 2.72382 -0.02422
C 18.51743 2.16446 0.01277
C 18.46746 0.82275 0.00096
C 17.18444 0.00693 -0.01527
C 19.65939 32.62955 0.01087
C 20.89412 31.93911 0.00199
C 20.78881 30.5213 0.01511
C 19.5648 29.81762 -0.00478
C 19.60029 28.44154 -0.01662
C 20.83116 27.69497 -0.01185
C 17.19381 24.06985 0.00675
C 12.24245 28.37222 0.00213
C 12.26903 29.79586 -0.05302
C 13.49431 30.53286 -0.04147
C 4.90704 32.64518 -0.01046
C 6.19123 31.98381 -0.00891
C 6.17837 30.56672 0.02819
C 4.94276 29.81258 0.00165
C 4.98832 28.33393 -0.02971
C 6.21912 27.74888 0.02894
C 2.48299 0.08142 -0.02689
C 6.2786 26.38819 -0.01789
C 5.65351 24.11271 -0.00925
C 4.82551 7.06565 0.01877
C 5.90944 6.46969 0.01363
C 6.17264 5.08608 -0.02162
C 4.83417 4.36319 0.00415
C 4.93591 2.90878 -0.0014
C 5.02834 25.66365 0.00444
C 3.69579 0.8103 -0.01536
C 3.68433 2.21659 0.03101
C 2.46365 2.84154 -0.00428
C 3.6909 30.49584 0.01364
C 2.47697 29.66866 -0.01062
C 2.54715 28.24939 -0.00033
C 3.77551 27.49707 0.03589
C 3.74752 26.09404 -0.02759
C 2.54744 25.27195 0.0402
C 2.39732 23.83196 0.00572
C 3.25059 22.43597 0.03592
C 2.23929 21.40304 0.00406
C 2.4207 20.03986 0.00943
C 2.42457 8.50129 0.02841
C 2.31089 7.14726 -0.01111
C 3.57259 6.48299 -0.01275
C 3.59779 5.09675 0.00985
C 2.37974 4.21909 -0.02245
C 6.16411 2.21975 0.02162
C 6.1776 0.76786 0.0076
C 4.96958 0.02663 0.01241
C 7.40715 32.72695 -0.01454
C 9.84207 28.32632 0.00228
C 11.06804 27.56016 0.00798
C 11.11599 26.04234 0.00422
C 9.83262 25.42794 0.0351
C 9.59018 24.02564 -0.03113
C 10.93988 23.3463 0.02098
C 11.37495 6.45587 0.01848
C 11.18683 5.01958 -0.00619
C 9.97044 4.5133 -0.02162
C 9.83862 3.01709 0.00889
C 11.03943 2.30419 -0.00481
C 11.07949 0.8545 0.00979
C 9.87437 0.06985 0.01443
C 12.30381 32.72135 0.03505
C 13.54838 32.00181 -0.02815
C 9.85687 29.79151 -0.00114
C 23.4048 26.33639 -0.02118
C 11.09319 30.50941 -0.02696
C 9.8833 32.67034 -0.0108
C 8.64127 32.06131 0.01945
C 8.64321 30.52083 0.01416
C 7.43367 29.87256 0.03542
C 7.43551 28.43907 0.02299
C 8.61248 27.6553 0.00244
C 8.71232 26.2523 -0.01717
C 7.46455 25.64349 0.05265
C 6.94968 24.10293 -0.01952
C 8.17744 23.49858 -0.02813
C 8.64829 5.08984 0.00374
C 7.44413 4.45372 0.00052
C 7.45228 2.89294 -0.03682
C 8.65747 2.19801 0.01965
C 8.68792 0.76974 0.02058
C 7.3915 0.10201 -0.01957
C 11.07123 32.00561 -0.00368
C 3.68693 31.8646 -0.00719
C 22.15703 25.61865 0.00733
C 23.32762 23.37837 0.00768
C 32.7173 22.11055 -0.01429
C 31.44085 21.39282 -0.0136
C 31.79544 19.92283 0.00594
C 33.06552 19.19857 -0.02474
C 33.13846 17.82146 0.00369
C 31.92696 17.14583 0.00455
C 31.85824 25.61978 -0.02383
C 31.9067 15.68792 -0.00644
C 33.09007 13.60939 0.00137
C 31.9211 12.8315 0.00199
C 31.92782 11.39725 0.04381
C 33.16657 10.74782 0.02806
C 33.1253 9.33147 0.01504
C 31.95544 8.53164 -0.00069
C 33.09813 14.99241 -0.01839
C 33.10021 26.27587 0.01574
C 33.14965 27.72096 0.01927
C 31.93862 28.46664 0.03794
C 30.73378 10.61113 0.01908
C 30.68945 9.25849 0.07705
C 29.42305 8.53483 0.0103
C 29.44407 7.10259 0.02108
C 30.63543 6.3473 0.00716
C 30.63408 4.98071 0.00307
C 29.40705 4.27748 0.00346
C 29.43813 2.83474 0.01713
C 30.6907 2.16479 -0.01694
C 30.63049 0.75634 0.01428
C 29.44725 34.04649 -0.02142
C 31.92399 32.66363 0.0544
C 33.14704 31.95744 0.00026
C 33.20809 30.52233 0.00682
C 31.99294 29.85285 -0.01779
C 31.96533 7.08888 0.04926
C 29.40694 11.3555 0.01518
C 33.14008 6.41438 -0.03838
C 31.90799 4.30237 -0.00323
C 0.03185 17.06315 -0.02957
C 34.31524 15.63506 0.00343
C 34.41878 13.03193 -0.02656
C 34.35619 11.53359 -0.02442
C 0.97458 10.57863 -0.00027
C 1.19801 9.27093 -0.00583
C 1.00685 17.95098 0.02114
C 34.31892 8.5435 -0.02302
C 1.08325 6.40239 0.02931
C 1.09672 5.0423 0.00628
C 34.31068 4.29304 -0.0345
C 34.37091 2.83338 -0.00931
C 1.15737 2.15337 -0.00939
C 1.2006 0.71647 -0.00468
C 34.32883 7.13871 -0.02849
C 1.16736 19.38448 0.00648
C 34.24654 19.98171 0.01223
C 34.0558 21.38006 -0.01678
C 31.88142 2.92982 -0.00841
C 33.13348 2.19513 0.0001
C 33.14932 0.78849 -0.02927
C 31.93631 0.06034 -0.01404
C 34.40555 32.7311 0.01027
C 1.24136 31.98669 0.01831
C 1.29315 30.4789 -0.01037
C 0.03591 29.8297 -0.00439
C 34.4065 28.3828 -0.00598
C 1.19595 27.59454 -0.05239
C 1.34251 26.14128 0.03076
C 34.38767 25.61443 0.00723
C 34.29155 24.21554 0.02712
C 1.02454 23.4489 -0.02213
C 0.87389 22.11062 0.01951
C 33.15183 4.98834 0.00349
C 29.41291 12.82898 -0.00971
C 30.68554 13.60322 -0.03735
C 30.65495 14.97803 -0.00944
C 24.64939 21.25932 -0.01679
C 24.56706 19.78463 0.00367
C 25.8436 19.12333 0.04306
C 25.76959 17.72395 0.00996
C 24.59588 17.05267 0.00195
C 24.49166 2.7351 -0.00802
C 25.9069 21.9428 -0.01052
C 25.78815 2.21933 -0.00218
C 24.51051 0.02133 -0.00037
C 26.9074 32.69469 -0.0032
C 28.21435 31.9784 0.00622
C 28.14248 30.60431 -0.02815
C 26.94691 29.90713 -0.00942
C 26.90916 28.42346 0.00487
C 25.74533 0.70019 -0.01654
C 25.86198 23.31201 0.00684
C 24.49568 24.06014 -0.01154
C 24.56791 25.58027 -0.0264
C 23.33121 21.8558 -0.0276
C 22.11477 21.16945 0.03005
C 22.05825 19.77512 -0.04078
C 23.26324 19.10301 0.02117
C 23.42304 17.73813 0.02737
C 23.23796 2.15172 -0.00498
C 23.23947 0.75172 0.00135
C 22.03555 0.03507 0.03102
C 24.54817 32.7504 0.02555
C 25.7563 31.94278 0.01423
C 25.77388 30.55586 -0.00285
C 24.49655 29.87099 -0.009
C 24.57014 28.43309 -0.01199
C 25.72685 27.63955 -0.00229
C 25.81402 26.27217 -0.00938
C 28.17382 27.75428 0.00826
C 28.21544 26.35917 -0.00294
C 27.01268 25.53316 0.00152
C 27.03709 24.14315 0.01257
C 29.46548 32.5975 0.00261
C 30.68664 31.98432 0.03265
C 30.72768 30.60832 -0.02049
C 29.41586 29.94158 -0.01854
C 29.4139 28.48488 -0.01415
C 30.70373 27.83013 -0.03039
C 30.60958 26.38028 0.01836
C 29.4617 25.63923 0.03531
C 29.52532 24.31349 -0.00669
C 29.8285 21.2568 0.0101
C 29.5418 19.91141 0.01705
C 30.67888 19.12065 -0.0405
C 30.67754 17.68034 -0.01303
C 29.41496 17.01699 -0.01461
C 29.33903 15.65569 -0.02155
C 26.99958 0.07896 0.02326
C 22.17684 24.11521 -0.00178
C 28.21024 0.77684 0.00924
C 27.02143 2.83888 0.01324
C 28.46484 23.48495 0.02316
C 28.55964 22.00287 0.04185
C 27.31558 21.33098 0.00194
C 27.11419 19.92222 -0.00621
C 28.25269 19.18411 0.02611
C 28.26908 17.77902 0.02198
C 27.01263 17.01306 0.01094
C 27.0063 15.65382 0.00235
C 28.04934 14.87891 0.01495
C 28.26615 13.44935 0.01259
C 28.26853 10.635 0.01799
C 28.27075 9.36255 0.01699
C 28.17388 6.40176 -0.00416
C 28.06849 5.08869 0.01177
C 26.94192 4.33378 0.04266
C 28.21696 2.18846 0.0014
C 2.51708 32.737 0.01641
