327
Graphene
C 0.00899 0.00953 0.01295
C 13.69896 2.29666 0.00213
C 13.54726 0.85153 -0.00066
C 12.37683 0.07138 -0.00289
C 14.79883 32.66953 0.00028
C 15.97619 31.94627 -0.02213
C 16.07724 30.56634 0.03698
C 14.84991 29.80081 -0.00109
C 12.33127 3.04268 -0.05302
C 15.80394 8.43769 -0.00491
C 15.7723 2.23813 -0.0258
C 15.96287 0.76223 -0.0331
C 14.70924 0.03222 -0.00316
C 17.16382 32.65982 0.02188
C 18.49909 31.96634 -0.01979
C 18.51338 30.62147 0.02691
C 17.31605 29.84449 -0.01581
C 14.61836 8.81157 0.03338
C 12.29114 7.08908 -0.04147
C 11.98734 8.49451 -0.02815
C 13.29334 8.81038 0.03505
C 9.82638 12.84767 -0.0108
C 9.87882 11.39072 -0.00368
C 11.01575 10.63209 -0.02696
C 10.92825 9.25381 -0.00114
C 9.81575 8.51813 0.00228
C 9.89503 7.07454 0.00798
C 11.14747 6.24716 0.00422
C 11.19228 4.69053 0.0351
C 9.80932 4.24562 -0.03113
C 9.84011 2.84424 0.02098
C 11.12184 2.1781 0.01848
C 11.09608 0.83255 -0.00619
C 9.80618 0.12068 -0.02162
C 12.31398 32.68602 0.00889
C 13.5334 31.96759 -0.00481
C 13.54451 30.39429 0.00979
C 12.28456 30.09894 0.01443
C 17.34941 28.43032 0.01452
C 9.74429 29.82678 -0.01957
C 18.57067 27.69283 0.04892
C 18.42594 8.82866 -0.03557
C 19.58033 2.86512 0.0106
C 20.82927 2.19798 -0.01154
C 20.88503 0.79932 -0.01721
C 19.66333 0.05232 -0.02422
C 22.18009 32.66079 0.01277
C 23.37283 31.9846 0.00096
C 23.3969 30.57721 -0.01527
C 19.68814 4.19291 -0.01594
C 22.18429 29.87886 0.01087
C 23.36247 27.76406 0.01511
C 23.3591 26.30833 -0.00478
C 22.04483 25.64556 -0.01662
C 23.23424 23.61056 -0.01185
C 23.27146 10.49305 0.01126
C 23.40549 9.17682 0.01852
C 22.11976 8.43178 -0.00381
C 22.16277 28.46659 0.00199
C 20.87387 4.95194 0.00742
C 20.91714 6.28558 -0.00311
C 19.69446 6.96238 0.00675
C 17.14924 8.34637 0.03754
C 17.46134 7.00581 0.01739
C 18.47466 6.16871 0.00755
C 18.32587 4.77013 -0.0054
C 17.0695 3.00899 0.00667
C 18.36748 2.16245 0.00143
C 18.4526 0.76307 -0.017
C 17.19211 0.1053 0.00364
C 19.67011 32.75213 -0.00831
C 20.93029 32.07395 -0.02957
C 20.93646 30.68817 -0.04422
C 19.76721 29.86789 0.00654
C 19.72866 28.42659 -0.00703
C 20.99608 27.7204 -0.04076
C 20.75373 26.29026 -0.00652
C 20.92557 9.18311 0.0058
C 19.66999 8.37221 -0.00865
C 18.77892 26.25339 -0.00111
C 22.13585 7.05611 0.03046
C 10.93225 30.54071 0.02058
C 9.84397 32.71108 -0.03682
C 2.34401 8.47623 0.00438
C 2.43036 7.01453 0.01291
C 3.65652 6.31955 0.00093
C 3.64895 4.91307 0.00057
C 2.45548 4.18121 -0.01634
C 2.47714 2.80254 -0.00334
C 3.72812 2.08649 0.02339
C 3.58616 9.22781 -0.00191
C 3.70485 0.66187 0.01641
C 4.96246 32.68445 0.01364
C 6.16769 31.91776 -0.01062
C 6.10315 30.53933 -0.00033
C 4.89349 29.83317 0.03589
C 4.93156 28.40177 -0.02759
C 6.27086 27.72722 0.0402
C 6.03706 26.38281 0.00572
C 2.46304 34.07972 -0.00719
C 3.62092 10.6139 0.00373
C 2.37596 11.32144 0.02147
C 2.48351 12.73515 -0.014
C 3.75045 30.53997 -0.00892
C 2.49812 29.8696 -0.01362
C 2.44615 28.48426 -0.0008
C 3.74125 27.69299 0.0288
C 3.69025 26.31213 0.00393
C 2.41071 25.60103 0.00895
C 2.40543 24.1598 0.00685
C 3.64432 23.27472 0.02888
C 3.66609 21.8662 -0.00482
C 2.32554 21.33518 -0.01384
C 2.38407 19.94623 0.03693
C 3.70133 19.29945 0.01745
C 3.82129 17.87172 0.00488
C 2.5656 17.08012 -0.01004
C 2.50876 15.65587 -0.02896
C 3.83379 14.91532 -0.00131
C 3.73631 13.44716 -0.01118
C 4.93127 25.45692 0.03592
C 11.06309 31.95077 0.01965
C 4.76615 24.11221 0.00406
C 4.97347 17.04889 0.02841
C 7.47769 15.5 -0.0014
C 8.50779 14.97162 0.02162
C 8.68913 13.50223 0.0076
C 7.35864 12.87371 0.01241
C 7.3562 11.35278 -0.01454
C 8.60069 10.67688 0.01945
C 8.5222 9.21676 0.01416
C 7.4216 28.52251 0.00415
C 7.32587 8.51538 0.03542
C 8.59506 6.46596 0.00244
C 8.64565 5.0863 -0.01717
C 7.43203 4.29818 0.05265
C 7.35379 2.85882 -0.01952
C 8.58854 2.24942 -0.02813
C 8.58147 0.81615 0.00374
C 7.37051 0.03375 0.00052
C 7.35624 7.12971 0.02299
C 7.31182 29.86244 -0.02162
C 8.57096 30.57405 0.01363
C 8.59706 31.99027 0.01877
C 4.95956 15.62728 -0.01111
C 6.1948 14.87474 -0.01275
C 6.08955 13.45492 0.00985
C 4.89114 12.76124 -0.02245
C 4.8172 11.31222 -0.00428
C 6.10246 10.62571 0.03101
C 6.06259 9.17636 -0.01536
C 4.81489 8.46907 -0.02689
C 4.90358 7.08941 -0.01046
C 6.13282 6.40769 -0.00891
C 6.15961 5.01488 0.02819
C 4.95084 4.26652 0.00165
C 4.952 2.90018 -0.02971
C 6.15144 2.12233 0.02894
C 6.16726 0.74002 -0.01789
C 4.93098 34.06382 0.00444
C 7.33987 32.66281 -0.00925
C 4.70045 20.34147 0.00943
C 3.73509 31.96581 -0.04848
C 23.36892 6.36906 0.0296
C 22.09427 4.23839 -0.02845
C 33.19798 26.3727 0.00682
C 31.94507 25.62749 -0.01779
C 31.9346 24.23009 0.03794
C 33.09351 23.5183 0.01927
C 33.10893 22.05839 0.01574
C 31.95164 21.28602 -0.02383
C 31.89986 19.8807 -0.01429
C 33.17809 27.79675 0.00026
C 33.1225 19.18462 -0.0136
C 31.97026 16.98447 -0.02474
C 31.9609 15.57348 0.00369
C 33.18629 14.92637 0.00455
C 33.20382 13.51651 -0.00644
C 31.93748 12.75193 -0.01839
C 31.92542 11.32146 0.00137
C 33.15351 10.62293 0.00199
C 33.14677 17.77913 0.00594
C 31.94046 28.48075 0.0544
C 31.94345 29.85021 -0.02142
C 33.19534 30.61638 0.01428
C 30.76025 14.83567 -0.0405
C 30.75283 13.47825 -0.01303
C 29.38798 12.78732 -0.01461
C 29.41888 11.32516 -0.02155
C 30.67914 10.59835 -0.00944
C 30.70072 9.19359 -0.03735
C 29.42451 8.53677 -0.00971
C 29.44319 7.05462 0.01518
C 30.65722 6.36358 0.01908
C 30.70143 4.92608 0.07705
C 29.50033 4.22158 0.0103
C 29.48111 2.8219 0.02108
C 30.69835 2.12109 0.00716
C 30.7876 0.73177 0.00307
C 29.55631 34.07177 0.00346
C 32.01976 32.71549 0.01713
C 33.25081 31.96418 -0.01694
C 33.11076 9.24412 0.04381
C 29.432 15.54928 0.01705
C 31.943 8.4897 0.02806
C 33.14169 6.39829 -0.00069
C 0.02144 17.06402 0.00648
C 0.02428 15.65116 0.02114
C 1.24549 14.91645 -0.02957
C 1.24677 13.45819 0.00343
C 34.36937 12.79951 -0.02656
C 34.35966 11.44339 -0.02442
C 1.1201 10.64894 -0.00027
C 1.31543 17.71991 0.01223
C 1.12398 9.20209 -0.00583
C 34.36518 7.0817 -0.02849
C 1.18776 6.33489 0.02931
C 1.23626 4.92867 0.00628
C 0.00975 4.26385 -0.0345
C 0.02642 2.82411 -0.00931
C 1.22665 2.17693 -0.00939
C 1.25936 0.6718 -0.00468
C 34.27035 8.49936 -0.02302
C 1.19629 19.23658 -0.01678
C 34.29535 19.94454 0.01951
C 34.31626 21.41323 -0.02213
C 33.17786 4.96525 0.04926
C 31.96273 4.2436 -0.03838
C 31.95462 2.85277 0.00349
C 33.19196 2.17753 -0.00323
C 33.27316 0.69096 -0.00841
C 32.01259 0.0019 0.0001
C 0.05986 32.68902 -0.02927
C 1.28262 31.97291 -0.01404
C 1.24171 30.58679 0.01027
C 34.41605 29.91966 0.01831
C 34.4002 28.53788 -0.01037
C 1.21179 27.77302 -0.00439
C 1.21806 26.4155 -0.00598
C 34.40159 25.69753 -0.05239
C 34.38345 24.27978 0.03076
C 1.12982 23.5321 0.00723
C 1.12947 22.11485 0.02712
C 31.83256 7.0398 0.01504
C 23.36524 4.9009 0.03374
C 29.48919 16.98409 0.0101
C 30.73063 19.10954 0.03531
C 24.49444 11.38772 0.00135
C 25.74668 10.65702 0.03102
C 25.79607 9.29719 0.02555
C 24.59965 8.51282 0.01423
C 24.61352 7.14015 -0.00285
C 25.78454 6.35836 -0.009
C 25.79968 4.92494 -0.01199
C 24.47601 12.76818 -0.00498
C 24.52995 4.21941 -0.00229
C 25.75608 2.08976 -0.0264
C 25.79414 0.7623 -0.01154
C 24.59629 34.07672 0.00684
C 27.0743 32.67081 -0.01052
C 28.31785 31.94497 -0.01679
C 28.25928 30.55941 0.00367
C 27.04768 29.83481 0.04306
C 24.58471 2.82393 -0.00938
C 25.62019 13.57167 0.02737
C 25.86444 14.9288 0.02117
C 25.94216 17.75444 -0.04078
C 22.07425 2.84843 -0.03213
C 23.33932 2.20747 0.02239
C 23.33151 0.73762 0.01153
C 22.05164 0.03992 0.02734
C 24.59143 32.70492 -0.0055
C 25.83588 31.96222 0.01515
C 25.82225 30.56652 -0.00225
C 24.61029 29.87129 0.00071
C 24.59566 28.42288 -0.01107
C 25.82158 27.7187 -0.01586
C 25.81994 26.28581 -0.01971
C 24.58803 25.56938 -0.02118
C 24.56077 24.16373 0.00733
C 25.76471 23.31547 -0.00178
C 25.70543 21.96585 0.00768
C 24.53935 21.30692 -0.0276
C 25.80508 19.10754 0.03005
C 27.09347 28.43522 0.00996
C 30.69345 17.68574 -0.00669
C 28.2335 27.67079 0.00195
C 26.9976 25.48339 -0.00218
C 28.27336 2.10208 0.01799
C 28.27838 0.73223 0.01699
C 27.05626 34.04994 -0.00416
C 29.46099 32.66902 0.01177
C 30.76619 31.99226 0.04266
C 30.72629 30.56491 0.01324
C 29.49046 29.87476 0.0014
C 26.97388 2.76903 0.01259
C 29.44901 28.46936 0.00924
C 30.72257 26.38815 0.00261
C 29.50065 25.57452 0.03265
C 29.49567 24.11494 -0.02049
C 30.69339 23.4554 -0.01854
C 30.65197 22.00096 -0.01415
C 29.45969 21.22336 -0.03039
C 29.44009 19.76682 0.01836
C 30.75471 27.78167 0.02326
C 26.98961 4.18465 0.01495
C 28.20041 4.91341 0.00235
C 28.22496 6.34536 0.01094
C 26.97357 24.04282 -0.01654
C 28.24589 23.37811 -0.00037
C 28.20171 21.96867 -0.0032
C 26.94144 21.23648 0.00622
C 27.05894 19.82841 -0.02815
C 28.21759 19.062 -0.00942
C 28.24828 17.63264 0.00487
C 27.04352 16.89778 0.00826
C 27.03231 15.56311 -0.00294
C 28.25148 14.83146 0.00152
C 28.21347 13.48646 0.01257
C 26.87256 12.83728 0.02316
C 26.91227 11.42849 0.04185
C 28.14361 10.66244 0.00194
C 28.16846 9.18855 -0.00621
C 26.98462 8.51974 0.02611
C 26.96726 7.09721 0.02198
C 28.21568 26.24801 -0.00802
C 2.47802 32.62847 0.01572
