372
Graphene
C 34.37727 0.03607 0.01295
C 14.79382 4.3417 0.00244
C 14.76618 2.95434 -0.01717
C 16.01388 2.22614 0.05265
C 15.97931 0.76023 -0.01952
C 14.77312 0.0723 -0.02813
C 17.2134 32.69589 0.00374
C 18.41867 31.93546 0.00052
C 18.40601 30.51776 -0.03682
C 17.22967 29.77863 0.01965
C 17.2297 28.3903 0.02058
C 18.41686 27.61605 -0.01957
C 18.32995 26.1693 -0.0108
C 17.05739 25.46339 -0.00368
C 17.32935 24.06414 -0.02696
C 18.51829 23.46969 -0.00114
C 18.53578 14.67335 0.00228
C 18.34614 13.36134 0.00798
C 17.01595 12.68124 0.00422
C 17.18398 11.26744 0.0351
C 15.96273 5.04642 0.02299
C 18.40922 10.58912 -0.03113
C 15.96247 6.44345 0.03542
C 14.74593 8.55971 0.01945
C 12.18894 8.57019 -0.02689
C 12.26479 7.17743 -0.01046
C 13.45783 6.38521 -0.00891
C 13.4312 4.94524 0.02819
C 12.19302 4.32227 0.00165
C 12.27149 2.90316 -0.02971
C 13.54852 2.18226 0.02894
C 13.54519 0.73299 -0.01789
C 12.29542 0.10726 0.00444
C 14.78724 32.7147 -0.00925
C 16.0057 32.04213 0.01877
C 16.05251 30.51442 0.01363
C 14.8067 29.85674 -0.02162
C 14.82188 28.43754 0.00415
C 16.01645 27.67245 -0.0014
C 15.76701 26.22289 0.02162
C 14.55987 11.21825 0.0076
C 15.97294 10.54792 0.01241
C 15.96074 9.17752 -0.01454
C 14.70236 7.09283 0.01416
C 18.46641 9.12911 0.02098
C 17.2166 8.46539 0.01848
C 17.21945 7.09316 -0.00619
C 20.81509 14.90277 -0.01581
C 20.81192 13.47291 0.01452
C 19.61321 12.67869 0.04892
C 19.67424 11.30269 -0.00111
C 20.97614 10.70502 -0.03557
C 20.86481 9.22779 0.03754
C 19.65164 8.46269 0.01739
C 19.7118 7.06492 0.00755
C 20.95135 6.36163 -0.0054
C 20.91494 4.94786 0.00667
C 19.61652 4.23362 0.00143
C 19.63568 2.82794 -0.017
C 20.86819 2.05255 0.00364
C 20.90092 0.63117 -0.00831
C 19.62899 33.98422 -0.02957
C 22.00349 32.5882 -0.04422
C 23.263 31.84663 0.00654
C 23.33104 30.45838 -0.00703
C 22.06092 29.79885 -0.04076
C 19.46093 15.62591 0.02691
C 19.46802 17.02614 -0.01979
C 20.7071 17.65973 0.02188
C 20.83711 19.06953 -0.00316
C 18.4605 6.44024 -0.02162
C 18.46674 4.96178 0.00889
C 17.27189 4.30581 -0.00481
C 17.29389 2.89272 0.00979
C 18.4423 2.08542 0.01443
C 18.40708 0.69667 0.03505
C 17.16 34.06837 -0.02815
C 19.6029 32.57272 -0.04147
C 20.81031 31.85585 -0.05302
C 13.52043 9.19331 -0.01536
C 20.88611 30.47814 0.00213
C 19.63535 28.2623 -0.00289
C 20.90371 27.63175 0.00028
C 20.91084 26.26533 -0.02213
C 19.64973 25.53714 0.03698
C 19.69509 24.12957 -0.00109
C 20.93929 23.43434 -0.00491
C 20.93617 21.96028 0.03338
C 19.59823 21.12367 -0.0258
C 19.68664 19.99706 -0.0331
C 19.63474 29.71875 -0.00066
C 22.11455 28.35136 -0.00652
C 13.46598 10.66305 0.03101
C 12.39368 28.36281 -0.02245
C 2.39565 4.27854 0.03368
C 2.37554 2.86172 -0.02929
C 3.637 2.0995 -0.00966
C 3.63485 0.72995 -0.03337
C 2.39956 0.07697 0.01227
C 4.85511 32.73154 0.00873
C 6.10502 31.97953 -0.00049
C 6.10158 30.6942 0.00848
C 4.85891 29.9822 -0.01303
C 4.87773 28.50101 -0.01378
C 6.13722 27.83851 0.02635
C 6.20381 26.49198 0.0127
C 5.00446 25.56719 0.01396
C 4.86551 24.21461 0.01849
C 5.06726 12.8595 -0.01142
C 4.89209 11.46212 -0.00562
C 6.09051 10.75664 -0.00494
C 6.16715 9.33505 0.00054
C 4.922 8.58902 0.03007
C 3.63818 4.9802 -0.00077
C 4.87773 7.21521 -0.00095
C 3.70086 6.40223 0.01305
C 2.45832 8.55761 0.00988
C 3.63371 30.60551 0.03828
C 2.41642 29.90317 0.01226
C 2.40521 28.43469 -0.00279
C 3.61526 27.692 0.01996
C 3.70178 26.30214 -0.03996
C 2.47779 25.5651 0.01465
C 2.56084 24.145 -0.00074
C 3.749 23.40631 -0.00518
C 3.69604 21.98483 0.0086
C 2.60363 21.05236 -0.00643
C 2.49926 19.6904 0.017
C 2.36273 17.28589 -0.03113
C 2.44238 15.85156 -0.02566
C 3.63993 15.07166 -0.00094
C 3.72833 13.63749 0.02322
C 2.53456 12.97944 -0.00725
C 2.47167 11.48451 -0.05697
C 3.64741 10.74555 0.01087
C 3.68221 9.32527 -0.01343
C 2.49502 7.14003 0.0276
C 6.1448 6.50918 0.01572
C 6.10464 5.03457 -0.04848
C 4.83501 4.30073 -0.00892
C 11.06424 30.59511 -0.01634
C 9.82495 29.81571 -0.00334
C 9.78514 28.3888 0.02339
C 11.07936 27.91782 0.01641
C 10.93365 10.74145 -0.00719
C 11.04502 9.31999 0.01364
C 9.79825 8.52603 -0.01062
C 9.79122 7.18627 -0.00033
C 10.97306 6.43191 0.03589
C 10.99842 5.10089 -0.02759
C 9.83368 4.38365 0.0402
C 9.81322 2.93649 0.00572
C 11.07984 2.18207 0.03592
C 11.07848 0.81644 0.00406
C 9.86953 0.07122 0.00943
C 12.3595 32.64241 0.02841
C 13.55294 32.02474 -0.01111
C 13.52025 30.53411 -0.01275
C 12.30944 29.86542 0.00985
C 11.07575 32.03083 0.00057
C 9.8412 32.72256 0.00093
C 7.38003 0.01063 0.01291
C 8.55908 0.7604 0.00438
C 4.82312 2.90893 -0.01362
C 6.07253 2.10768 -0.0008
C 6.04739 0.74359 0.0288
C 4.82671 0.04116 0.00393
C 7.35763 32.68825 0.00895
C 8.60366 32.05199 0.00685
C 8.60431 30.61137 0.02888
C 7.34259 29.98229 -0.00482
C 7.31755 28.59324 -0.01384
C 13.65997 27.6632 -0.00428
C 8.44099 27.71585 0.03693
C 8.5767 10.67759 0.00488
C 8.53876 9.25386 -0.01004
C 7.33593 8.61735 -0.02896
C 7.3835 7.1656 -0.00131
C 8.49247 6.42985 -0.01118
C 8.59089 5.03191 -0.014
C 7.32886 4.34335 0.02147
C 7.31494 2.91011 0.00373
C 8.55826 2.21542 -0.00191
C 7.53186 11.34248 0.01745
C 23.33799 27.68165 0.0058
C 23.33685 26.18167 -0.00865
C 22.09864 25.49351 0.00675
C 30.65641 2.20869 0.00716
C 30.64887 0.76598 0.00307
C 29.31383 0.06759 0.00346
C 31.86505 32.69899 0.01713
C 33.06825 31.99696 -0.01694
C 33.08407 30.53698 0.01428
C 31.89126 29.87321 -0.02142
C 31.91731 28.46231 0.0544
C 33.16491 27.79424 0.00026
C 33.20704 26.33023 0.00682
C 31.95942 25.63467 -0.01779
C 32.01372 24.20135 0.03794
C 33.30667 23.46848 0.01927
C 33.27311 22.08056 0.01574
C 32.01196 21.33804 -0.02383
C 32.02936 19.88961 -0.01429
C 33.21646 19.14674 -0.0136
C 33.15041 17.75136 0.00594
C 31.99279 16.99099 -0.02474
C 29.43183 2.83152 0.02108
C 31.9653 15.60759 0.00369
C 29.43203 4.33152 0.0103
C 30.65768 6.40304 0.01908
C 30.73954 26.33302 0.00261
C 29.49501 25.56382 0.03265
C 29.48325 24.11803 -0.02049
C 30.75435 23.50248 -0.01854
C 30.87223 22.07648 -0.01415
C 29.536 21.2792 -0.03039
C 29.55006 19.89229 0.01836
C 30.77582 19.20251 0.03531
C 30.80638 17.79341 -0.00669
C 29.57795 16.98562 0.0101
C 29.54484 15.65446 0.01705
C 30.76803 14.83636 -0.0405
C 30.75171 13.49002 -0.01303
C 29.51717 12.76722 -0.01461
C 29.46463 11.30851 -0.02155
C 30.72307 10.63991 -0.00944
C 30.77806 9.17104 -0.03735
C 29.50088 8.53622 -0.00971
C 29.45366 7.12127 0.01518
C 30.69846 4.98458 0.07705
C 33.16462 14.94263 0.00455
C 33.22698 13.50415 -0.00644
C 32.03612 12.76503 -0.01839
C 34.42981 19.98287 0.01951
C 1.13249 19.25473 -0.01678
C 1.1608 17.79904 0.01223
C 34.34375 16.99723 0.00648
C 34.39657 15.59224 0.02114
C 1.22595 14.97802 -0.02957
C 1.23816 13.49921 0.00343
C 0.05786 12.81164 -0.02656
C 0.05312 11.37296 -0.02442
C 1.31196 10.66801 -0.00027
C 1.20404 9.24514 -0.00583
C 34.42287 8.58704 -0.02302
C 0.01375 7.12167 -0.02849
C 1.19675 6.39923 0.02931
C 1.14612 4.9931 0.00628
C 34.35548 4.31748 -0.0345
C 34.3661 2.89898 -0.00931
C 1.09902 2.1197 -0.00939
C 1.12997 0.74292 -0.00468
C 0.02532 21.39682 -0.02213
C 1.39054 21.94985 0.02712
C 1.31771 23.34804 0.00723
C 0.07116 24.14566 0.03076
C 32.0029 11.34583 0.00137
C 33.20977 10.68232 0.00199
C 33.19675 9.2366 0.04381
C 31.99653 8.54658 0.02806
C 31.92971 7.09435 0.01504
C 33.18224 6.41214 -0.00069
C 33.21187 4.99579 0.04926
C 31.97845 4.32591 -0.03838
C 31.87752 2.91318 0.00349
C 30.70502 27.77721 0.02326
C 33.15066 2.16087 -0.00323
C 31.8563 0.02281 0.0001
C 34.37842 32.70999 -0.02927
C 1.1822 31.9512 -0.01404
C 1.08306 30.60405 0.01027
C 34.28201 29.87272 0.01831
C 34.34052 28.44785 -0.01037
C 1.15127 27.78839 -0.00439
C 1.24585 26.28851 -0.00598
C 34.42347 25.58124 -0.05239
C 33.1286 0.72145 -0.00841
C 29.44192 28.36959 0.00924
C 29.32529 29.80052 0.0014
C 30.63159 30.51184 0.01324
C 24.53215 32.55392 0.02239
C 25.74653 31.89754 0.01153
C 25.77585 30.4824 0.02734
C 24.54974 29.74277 -0.0055
C 24.56496 28.28412 0.01515
C 25.72554 27.58254 -0.00225
C 25.79612 26.15601 0.00071
C 24.5526 25.53299 -0.01107
C 24.55288 24.07166 -0.01586
C 25.77951 23.35198 -0.01971
C 25.80989 21.91853 -0.02118
C 24.55394 21.20648 0.00733
C 24.59347 19.8587 -0.00178
C 25.83909 19.18544 0.00768
C 25.88322 17.74112 -0.0276
C 24.6233 17.04456 0.03005
C 24.60037 15.61914 -0.04078
C 25.86766 14.84823 0.02117
C 25.76888 13.42838 0.02737
C 22.10695 34.01706 -0.03213
C 23.27697 0.60025 -0.02845
C 23.33519 1.99699 0.03374
C 22.07643 2.72747 0.0296
C 22.12761 24.12497 -0.00311
C 23.3766 23.35692 0.00742
C 23.33222 21.98081 -0.01594
C 22.02448 21.25165 0.0106
C 22.04527 19.80829 -0.01154
C 23.36179 19.1249 -0.01721
C 23.333 17.70882 -0.02422
C 22.08185 16.94575 0.01277
C 22.06202 15.57502 0.00096
C 24.52792 12.74948 -0.00498
C 23.28755 14.91065 -0.01527
C 22.07056 12.72066 0.00199
C 22.16123 11.3504 0.01511
C 23.35383 10.68417 -0.00478
C 23.33697 9.21829 -0.01662
C 22.12275 8.48818 -0.01185
C 22.14066 7.06897 0.01126
C 23.39923 6.35599 0.01852
C 23.29204 4.92342 -0.00381
C 22.07906 4.20989 0.03046
C 23.30681 13.53142 0.01087
C 3.5789 32.0039 0.0174
C 24.60596 11.36008 0.00135
C 25.80237 9.23372 0.02555
C 27.11911 17.01511 0.00826
C 27.13817 15.59244 -0.00294
C 28.36221 14.96703 0.00152
C 28.28883 13.44862 0.01257
C 27.03668 12.78078 0.02316
C 27.04598 11.38176 0.04185
C 28.24992 10.64518 0.00194
C 28.16768 9.18153 -0.00621
C 26.97362 8.49663 0.02611
C 27.02034 7.09882 0.02198
C 28.23188 6.3785 0.01094
C 28.18435 4.99017 0.00235
C 27.00184 4.25413 0.01495
C 26.98741 2.81182 0.01259
C 28.21458 2.194 0.01799
C 28.13251 0.72862 0.01699
C 26.9557 34.03612 -0.00416
C 29.42663 32.63389 0.01177
C 30.64781 31.94402 0.04266
C 28.31921 17.66897 0.00487
C 28.39828 19.14545 -0.00942
C 27.06035 19.88124 -0.02815
C 27.07635 21.22489 0.00622
C 24.53499 8.49802 0.01423
C 24.57918 7.0844 -0.00285
C 25.82574 6.30876 -0.009
C 25.75738 4.91161 -0.01199
C 24.5938 4.22465 -0.00229
C 24.56129 2.81664 -0.00938
C 25.76244 2.09496 -0.0264
C 25.71901 0.72755 -0.01154
C 24.57108 34.06792 0.00684
C 25.826 10.60718 0.03102
C 26.98575 32.66756 -0.01052
C 28.22303 30.5473 0.00367
C 27.01024 29.76912 0.04306
C 27.00923 28.36245 0.00996
C 28.25966 27.66113 0.00195
C 28.31469 26.28031 -0.00802
C 27.08173 25.47042 -0.00218
C 27.08958 24.06967 -0.01654
C 28.3545 23.41541 -0.00037
C 28.32686 21.98451 -0.0032
C 28.17097 31.94009 -0.01679
C 2.37771 32.69795 0.0073
