294
Graphene
C 34.42826 0.09329 0.01295
C 12.37572 7.10567 0.00755
C 13.51829 6.43098 -0.0054
C 13.54895 4.97374 0.00667
C 12.30182 4.27905 0.00143
C 12.30248 2.91818 -0.017
C 13.48869 2.15723 0.00364
C 12.23462 8.47966 0.01739
C 13.49038 0.71039 -0.00831
C 14.76906 32.70771 -0.04422
C 15.98286 31.93391 0.00654
C 16.02863 30.5755 -0.00703
C 14.74301 29.84693 -0.04076
C 14.75095 28.4279 -0.00652
C 15.98333 27.65402 0.0058
C 12.31636 34.05807 -0.02957
C 16.04072 26.11495 -0.00865
C 13.55808 9.17028 0.03754
C 13.15081 23.85035 -0.00111
C 11.11184 4.99247 -0.02213
C 9.76107 4.29119 0.03698
C 9.77901 2.89648 -0.00109
C 11.07085 2.10168 -0.00491
C 11.13435 0.72501 0.03338
C 9.84405 0.03175 -0.0258
C 13.48546 10.63314 -0.03557
C 12.3089 32.59933 -0.0331
C 13.51768 30.57672 0.02188
C 12.22467 29.91367 -0.01979
C 12.28892 28.37954 0.02691
C 13.57149 27.69973 -0.01581
C 13.5985 26.22771 0.01452
C 12.48845 25.42729 0.04892
C 13.57116 31.97267 -0.00316
C 14.82758 25.5206 0.00675
C 14.63284 24.0807 -0.00311
C 15.85487 23.36085 0.00742
C 17.22133 7.05403 0.03374
C 18.52344 6.54675 -0.02845
C 18.4418 5.07877 -0.03213
C 17.32004 4.32504 0.02239
C 17.2105 2.80589 0.01153
C 18.46849 2.10804 0.02734
C 18.65932 23.53918 0.0296
C 18.41317 0.68668 -0.0055
C 19.67062 32.68832 -0.00225
C 20.89059 31.88765 0.00071
C 20.89417 30.52324 -0.01107
C 19.65876 29.84867 -0.01586
C 19.63667 28.35312 -0.01971
C 20.88549 27.77575 -0.02118
C 17.19048 0.01471 0.01515
C 17.18023 23.9534 0.03046
C 17.22222 25.41754 -0.00381
C 18.4486 26.16286 0.01852
C 14.88133 8.58773 -0.01594
C 14.8302 7.2224 0.0106
C 15.98937 6.37427 -0.01154
C 16.04172 4.97919 -0.01721
C 14.81287 4.227 -0.02422
C 14.76166 2.78032 0.01277
C 15.96514 2.1072 0.00096
C 15.95289 0.7116 -0.01527
C 14.78348 0.05272 0.01087
C 17.24732 32.62351 0.00199
C 18.50332 31.98806 0.01511
C 18.46784 30.54684 -0.00478
C 17.23577 29.78828 -0.01662
C 17.20494 28.31449 -0.01185
C 18.45928 27.59542 0.01126
C 11.01022 6.50925 0.00028
C 9.80072 7.09286 -0.00289
C 9.83408 8.46489 -0.00066
C 11.04507 9.21044 0.00213
C 3.6635 2.09068 0.00165
C 3.67352 0.67448 -0.02971
C 2.47826 34.07091 0.02894
C 4.99027 32.60787 -0.01789
C 6.15361 31.90072 0.00444
C 6.20759 30.47956 -0.00925
C 2.48682 2.87481 0.02819
C 4.91743 29.77202 0.01877
C 6.11499 27.69426 -0.02162
C 6.15207 26.29619 0.00415
C 4.87947 25.54156 -0.0014
C 4.71285 24.12529 0.02162
C 4.93374 11.28188 0.0076
C 5.96495 10.65015 0.01241
C 4.86227 28.3364 0.01363
C 2.49656 4.2416 -0.00891
C 3.64957 5.08018 -0.01046
C 3.6599 6.54395 -0.02689
C 3.66893 30.51735 0.03589
C 2.42996 29.80284 -0.02759
C 2.37117 28.34737 0.0402
C 3.59883 27.71748 0.00572
C 3.64362 26.19133 0.03592
C 2.35595 25.52052 0.00406
C 2.3044 24.09632 0.00943
C 3.61471 23.53401 0.02841
C 2.33473 20.82827 -0.01111
C 2.33337 12.70666 -0.01275
C 2.28813 11.38283 0.00985
C 3.54997 10.69912 -0.02245
C 3.58873 9.32542 -0.00428
C 2.38209 8.63881 0.03101
C 2.40272 7.15592 -0.01536
C 6.13834 9.26544 -0.01454
C 20.83808 26.4101 0.00733
C 4.84148 8.61422 0.01945
C 6.10214 6.46592 0.03542
C 7.34637 4.32456 0.0351
C 7.34517 2.89492 -0.03113
C 8.53332 2.14772 0.02098
C 8.62437 0.74259 0.01848
C 7.35827 34.0626 -0.00619
C 9.78265 32.6861 -0.02162
C 8.51692 5.01487 0.00422
C 11.01979 31.97281 0.00889
C 9.88866 29.79089 0.00979
C 9.85565 28.29228 0.01443
C 11.12941 27.68548 0.03505
C 11.18006 26.17805 -0.02815
C 9.95512 25.62492 -0.04147
C 11.18387 10.56618 -0.05302
C 11.02179 30.59434 -0.00481
C 8.52205 6.45504 0.00798
C 7.40564 7.17565 0.00228
C 7.36763 8.5722 -0.00114
C 6.07826 4.99986 0.02299
C 4.8182 4.2803 0.00244
C 4.84351 2.82842 -0.01717
C 6.11689 2.21656 0.05265
C 6.0864 0.7051 -0.01952
C 4.89691 0.01649 -0.02813
C 7.37424 32.66446 0.00374
C 8.57941 31.94457 0.00052
C 8.63482 30.48387 -0.03682
C 7.44372 29.77273 0.01965
C 7.38259 28.37089 0.02058
C 8.62727 27.61588 -0.01957
C 8.67596 26.07753 -0.0108
C 7.33748 25.61835 -0.00368
C 8.68962 9.25129 -0.02696
C 4.86977 7.17896 0.01416
C 19.71734 25.57214 -0.00178
C 19.6864 24.15996 0.00768
C 19.71769 7.25497 -0.0276
C 33.14031 26.22459 -0.01429
C 31.88561 25.59425 -0.0136
C 31.96625 24.18975 0.00594
C 33.17851 23.37185 -0.02474
C 33.17682 22.00655 0.00369
C 31.93962 21.3499 0.00455
C 33.14572 27.7384 -0.02383
C 31.96131 19.92947 -0.00644
C 33.09405 17.81311 0.00137
C 31.92806 17.03343 0.00199
C 31.90953 15.66566 0.04381
C 33.11522 15.0058 0.02806
C 33.30428 13.5734 0.01504
C 31.90788 12.8763 -0.00069
C 33.12465 19.19029 -0.01839
C 31.95464 28.46383 0.01574
C 31.96422 29.84959 0.01927
C 33.14781 30.59916 0.03794
C 30.67335 21.92239 0.01908
C 29.40381 21.27091 0.07705
C 29.49472 19.90682 0.0103
C 30.77027 19.21407 0.02108
C 30.79226 17.83056 0.00716
C 29.52326 17.13084 0.00307
C 29.43256 15.73047 0.00346
C 30.64704 14.96328 0.01713
C 30.8683 13.51192 -0.01694
C 29.21895 3.29614 0.01428
C 30.55205 2.59413 -0.02142
C 30.70348 1.03231 0.0544
C 29.43004 0.17176 0.00026
C 31.9342 32.82407 0.00682
C 33.18008 32.00229 -0.01779
C 33.16135 10.62578 0.04926
C 30.70184 23.41934 0.01518
C 33.07307 9.38366 -0.03838
C 33.16809 2.24832 -0.00323
C 1.15231 15.02745 -0.02957
C 1.33276 13.67734 0.00343
C 0.02567 12.88802 -0.02656
C 34.42518 11.40986 -0.02442
C 1.11137 10.61153 -0.00027
C 1.06256 9.18052 -0.00583
C 34.33914 15.66654 0.02114
C 34.28099 8.39233 -0.02302
C 1.1773 6.47038 0.02931
C 1.17006 4.97654 0.00628
C 34.37665 4.43508 -0.0345
C 34.35649 2.91357 -0.00931
C 1.187 2.12738 -0.00939
C 1.23063 0.72076 -0.00468
C 34.36878 7.03403 -0.02849
C 34.36728 17.12073 0.00648
C 1.20105 17.89538 0.01223
C 1.30252 19.25391 -0.01678
C 33.19959 0.79134 -0.00841
C 31.88012 0.23675 0.0001
C 34.42848 32.76301 -0.02927
C 1.2006 32.04805 -0.01404
C 1.17946 30.55488 0.01027
C 34.32981 29.85656 0.01831
C 34.34164 28.39105 -0.01037
C 1.12734 27.63918 -0.00439
C 1.14285 26.23235 -0.00598
C 34.38155 25.49605 -0.05239
C 34.42482 24.10518 0.03076
C 1.19411 23.30124 0.00723
C 1.24394 21.79339 0.02712
C 34.4085 21.32196 -0.02213
C 34.3438 19.93808 0.01951
C 31.86234 2.95005 0.00349
C 3.74442 31.96918 -0.00033
C 29.47209 24.15544 -0.00971
C 30.70536 26.29657 -0.00944
C 23.42354 4.89589 0.00367
C 22.09559 4.31094 0.04306
C 22.07293 2.85973 0.00996
C 23.21991 2.17303 0.00195
C 23.33364 0.75957 -0.00802
C 22.11005 34.05108 -0.00218
C 23.3702 6.45675 -0.01679
C 24.54572 32.62979 -0.01654
C 25.81048 30.51378 -0.0032
C 24.51321 29.71469 0.00622
C 24.49156 28.38295 -0.02815
C 25.82724 27.65341 -0.00942
C 25.76998 26.24561 0.00487
C 24.57522 25.52695 0.00826
C 25.81681 31.96273 -0.00037
C 22.32611 7.07036 -0.01052
C 23.18041 23.57824 0.00684
C 22.08016 24.09722 -0.01154
C 20.90345 6.55907 0.03005
C 20.94021 5.0976 -0.04078
C 19.70116 4.41439 0.02117
C 19.65906 2.96335 0.02737
C 20.85042 2.19415 -0.00498
C 20.88876 0.72128 0.00135
C 19.59813 34.07264 0.03102
C 22.11081 32.64943 0.02555
C 23.33637 31.91569 0.01423
C 23.33122 30.54684 -0.00285
C 22.11051 29.74161 -0.009
C 22.08024 28.41908 -0.01199
C 23.28452 27.66729 -0.00229
C 23.3803 26.27851 -0.00938
C 21.99607 25.56405 -0.0264
C 24.51061 24.14235 -0.00294
C 29.46965 25.50871 -0.03735
C 25.78641 23.45172 0.00152
C 25.85766 4.87121 0.02316
C 28.26815 17.76463 0.03265
C 28.18901 15.18762 -0.02049
C 28.62328 4.29443 -0.01854
C 27.06687 4.2767 -0.01415
C 26.90419 2.80932 -0.03039
C 28.13257 2.22101 0.01836
C 28.28354 19.19269 0.00261
C 28.18741 0.78106 0.03531
C 29.5143 32.77934 0.0101
C 30.72813 32.07377 0.01705
C 30.69939 30.55111 -0.0405
C 29.4516 29.84528 -0.01303
C 29.48726 28.38957 -0.01461
C 30.72254 27.70681 -0.02155
C 26.96357 0.03087 -0.00669
C 27.09744 19.9637 0.02326
C 26.92703 21.30807 0.00924
C 28.15645 22.03581 0.0014
C 24.61379 4.18799 0.04185
C 24.51878 2.81431 0.00194
C 25.74388 2.17011 -0.00621
C 25.74643 0.64214 0.02611
C 24.52762 34.01848 0.02198
C 26.98911 32.65229 0.01094
C 28.29734 31.972 0.00235
C 28.29509 30.53488 0.01495
C 26.96141 29.80646 0.01259
C 26.998 28.43223 0.01799
C 28.27798 27.71635 0.01699
C 28.22324 26.28643 -0.00416
C 27.01561 25.62071 0.01177
C 27.02546 24.20615 0.04266
C 28.23813 23.46144 0.01324
C 25.71381 22.06767 0.01257
C 2.45804 32.6783 -0.01062
