354
Graphene
C 0.01507 0.02339 0.01295
C 11.11671 14.86515 -0.02696
C 11.03619 13.52667 -0.00114
C 9.83508 12.82201 0.00228
C 9.84662 11.33788 0.00798
C 11.07822 10.70658 0.00422
C 11.08594 9.22855 0.0351
C 9.78632 8.47267 -0.03113
C 9.80709 7.07476 0.02098
C 9.83079 15.54094 -0.00368
C 11.07131 6.3552 0.01848
C 9.87094 4.30169 -0.02162
C 9.85579 2.82672 0.00889
C 11.07512 2.12867 -0.00481
C 11.08748 0.69197 0.00979
C 9.82445 0.07896 0.01443
C 12.29377 32.62869 0.03505
C 13.52168 31.89552 -0.02815
C 13.49373 30.52157 -0.04147
C 11.1223 4.92503 -0.00619
C 12.25358 29.82242 -0.05302
C 9.82062 17.07123 -0.0108
C 11.07415 19.11358 0.02058
C 7.36197 4.30192 -0.0014
C 7.32699 2.88867 0.02162
C 8.62448 2.14292 0.0076
C 8.62393 0.72265 0.01241
C 7.40017 34.07436 -0.01454
C 9.83932 32.68371 0.01945
C 11.04278 31.98948 0.01416
C 11.06985 30.5304 0.03542
C 11.07093 17.76596 -0.01957
C 9.87771 29.87814 0.02299
C 11.05758 27.69321 -0.01717
C 11.07091 26.30217 0.05265
C 9.84234 25.49119 -0.01952
C 9.84131 24.11474 -0.02813
C 11.09508 23.43861 0.00374
C 11.11562 21.99311 0.00052
C 9.8382 21.27099 -0.03682
C 9.83878 19.90735 0.01965
C 9.86195 28.36456 0.00244
C 8.54004 4.96616 0.00415
C 12.30386 28.3836 0.00213
C 13.59464 26.27287 -0.00289
C 13.53492 2.13311 0.00143
C 13.54752 0.7164 -0.017
C 12.2766 0.09838 0.00364
C 14.75699 32.68056 -0.00831
C 15.97786 31.91495 -0.02957
C 15.99141 30.51523 -0.04422
C 14.76227 29.87923 0.00654
C 14.74342 28.35425 -0.00703
C 12.26467 2.85572 0.00667
C 15.97981 27.69885 -0.04076
C 14.78259 25.5386 0.0058
C 14.79462 24.1821 -0.00865
C 16.00404 23.40832 0.00675
C 15.99147 22.01609 -0.00311
C 14.7729 21.28353 0.00742
C 14.80256 19.81101 -0.01594
C 15.97717 19.14571 0.0106
C 15.95092 17.74655 -0.01154
C 16.03072 26.24711 -0.00652
C 13.53298 27.65576 -0.00066
C 12.30175 4.28049 -0.0054
C 13.50577 6.37068 0.01739
C 12.30838 25.5708 0.00028
C 12.26652 24.17197 -0.02213
C 13.51266 23.46223 0.03698
C 13.50975 21.98048 -0.00109
C 12.31492 21.24617 -0.00491
C 12.2913 19.86399 0.03338
C 13.54798 19.18419 -0.0258
C 13.51847 17.76545 -0.0331
C 13.55044 4.97202 0.00755
C 12.27131 17.06663 -0.00316
C 13.55038 14.87308 -0.01979
C 13.51133 13.49596 0.02691
C 12.29786 12.7816 -0.01581
C 12.33242 11.38495 0.01452
C 13.51089 10.63195 0.04892
C 13.52163 9.24154 -0.00111
C 12.25796 8.51682 -0.03557
C 12.31135 7.08969 0.03754
C 12.25342 15.62282 0.02188
C 8.6093 6.38627 -0.02162
C 7.42745 7.08854 0.01363
C 7.35732 8.51284 0.01877
C 2.46318 7.04001 0.00054
C 3.66196 6.3583 0.03007
C 3.69452 4.93952 -0.00095
C 2.40293 4.24958 0.01572
C 2.45985 2.8244 -0.04848
C 3.74183 2.13958 -0.00892
C 3.64632 0.7567 -0.01362
C 2.46609 34.07434 -0.0008
C 2.44104 8.4953 -0.00494
C 4.91404 32.66918 0.0288
C 6.16065 30.57962 0.00895
C 4.92984 29.78975 0.00685
C 4.90534 28.4 0.02888
C 6.11817 27.70571 -0.00482
C 6.10859 26.252 -0.01384
C 4.9197 25.55972 0.03693
C 4.90904 24.16654 0.01745
C 6.14963 23.40444 0.00488
C 6.16655 31.99631 0.00393
C 6.12851 22.03274 -0.01004
C 3.68844 9.22245 -0.00562
C 2.42 11.4266 0.01849
C 3.7056 30.54546 -0.01343
C 2.44224 29.80834 0.00988
C 2.41338 28.41489 0.0276
C 3.6503 27.73105 0.01305
C 3.71341 26.24918 -0.00077
C 2.50722 25.58971 0.03368
C 2.46694 24.11836 -0.02929
C 3.75066 23.41731 -0.00966
C 3.72414 10.65228 -0.01142
C 3.62493 21.99584 -0.03337
C 2.47009 19.97445 0.00873
C 3.70205 19.17177 -0.00049
C 3.70989 17.73313 0.00848
C 2.46518 17.06132 -0.01303
C 2.504 15.64147 -0.01378
C 3.68147 14.87739 0.02635
C 3.72815 13.48843 0.0127
C 2.39329 12.73971 0.01396
C 2.43969 21.36718 0.01227
C 4.87205 21.36013 -0.02896
C 4.91319 19.91239 -0.00131
C 6.18842 19.17944 -0.01118
C 8.60025 27.64395 0.02841
C 8.6345 26.27287 -0.01111
C 7.3991 25.6276 -0.01275
C 7.3783 24.17636 0.00985
C 8.59172 23.43731 -0.02245
C 8.56161 21.98261 -0.00428
C 7.35817 21.2872 0.03101
C 7.39737 19.86956 -0.01536
C 7.37319 28.36309 0.00943
C 8.60557 19.19175 -0.02689
C 7.41804 17.07956 -0.00891
C 7.36877 15.62194 0.02819
C 8.65448 14.91385 0.00165
C 8.65573 13.504 -0.02971
C 7.39931 12.80931 0.02894
C 7.34288 11.29655 -0.01789
C 8.58739 10.63114 0.00444
C 8.56411 9.241 -0.00925
C 8.59041 17.73026 -0.01046
C 7.37127 29.82356 0.00406
C 8.57727 30.57032 0.03592
C 8.58415 31.97058 0.00572
C 6.16272 17.70353 -0.014
C 4.89787 17.06593 0.02147
C 4.91459 15.6485 0.00373
C 6.17694 14.95064 -0.00191
C 6.16699 13.48184 0.00438
C 4.91405 12.79435 0.01291
C 4.96492 11.39197 0.00093
C 6.15016 10.65118 0.00057
C 6.12595 9.27823 -0.01634
C 4.96948 8.52389 -0.00334
C 4.93621 7.15211 0.02339
C 6.15802 6.43226 0.01641
C 6.19942 5.02196 -0.00719
C 4.88865 4.34192 0.01364
C 4.91861 2.90952 -0.01062
C 6.1535 2.1501 -0.00033
C 6.08819 0.7072 0.03589
C 4.91751 0.0184 -0.02759
C 7.39522 32.66216 0.0402
C 14.76189 17.0297 -0.01721
C 14.71991 15.6498 -0.02422
C 15.95599 14.89815 0.01277
C 15.96371 13.5061 0.00096
C 29.45054 24.12893 0.01713
C 30.71406 23.45637 -0.01694
C 30.77273 21.97541 0.01428
C 30.79743 6.37232 -0.02142
C 30.72373 5.0073 0.0544
C 29.4918 4.29043 0.00026
C 29.54113 2.88363 0.00682
C 30.75169 2.08706 -0.01779
C 29.50995 25.5582 0.00346
C 30.71378 0.71092 0.03794
C 31.9948 32.64825 0.01574
C 33.20776 31.98137 -0.02383
C 33.14144 30.53505 -0.01429
C 31.93786 29.82884 -0.0136
C 31.93395 28.36355 0.00594
C 33.21103 27.73988 -0.02474
C 33.18103 26.2514 0.00369
C 31.99495 25.57222 0.00455
C 29.53091 34.04699 0.01927
C 31.98759 24.12425 -0.00644
C 30.74464 26.27264 0.00307
C 29.54687 28.41146 0.02108
C 28.29655 30.58794 -0.01415
C 27.07432 29.82214 -0.03039
C 27.05403 28.38764 0.01836
C 28.26794 27.67937 0.03531
C 28.25093 26.29411 -0.00669
C 27.07707 25.55735 0.0101
C 27.06882 24.08006 0.01705
C 28.35803 23.41706 -0.0405
C 30.73505 27.69094 0.00716
C 28.28581 4.98801 -0.01303
C 27.08509 2.84071 -0.02155
C 28.28463 2.11152 -0.00944
C 28.27857 0.71933 -0.03735
C 27.02673 0.01542 -0.00971
C 29.56063 32.69026 0.01518
C 30.75959 31.90792 0.01908
C 30.77262 30.51069 0.07705
C 29.50851 29.82444 0.0103
C 27.03857 4.31537 -0.01461
C 33.19467 23.39502 -0.01839
C 33.14941 21.99523 0.00137
C 31.97738 21.26235 0.00199
C 1.22106 19.15292 -0.01678
C 1.1923 17.76256 0.01223
C 34.42006 16.96357 0.00648
C 34.39275 15.66514 0.02114
C 1.21282 14.91579 -0.02957
C 1.23332 13.45963 0.00343
C 0.03662 12.71065 -0.02656
C 34.41808 11.42483 -0.02442
C 0.03292 19.87143 0.01951
C 1.21073 10.62261 -0.00027
C 34.42954 8.53262 -0.02302
C 0.02874 7.07835 -0.02849
C 1.18729 6.3594 0.02931
C 1.22422 4.93668 0.00628
C 34.43068 4.23954 -0.0345
C 34.42714 2.83556 -0.00931
C 1.26473 2.18894 -0.00939
C 1.23722 0.71369 -0.00468
C 1.27034 9.26297 -0.00583
C 34.39496 21.32246 -0.02213
C 1.20736 22.02904 0.02712
C 1.22334 23.43938 0.00723
C 33.21925 19.22444 0.04381
C 33.24744 9.2079 0.02806
C 31.91368 7.07209 0.01504
C 33.19166 6.42554 -0.00069
C 33.20719 4.98291 0.04926
C 32.00466 4.31122 -0.03838
C 31.94561 2.80428 0.00349
C 33.16875 2.10025 -0.00323
C 33.19388 0.68828 -0.00841
C 32.02491 0.0002 0.0001
C 34.38661 32.63413 -0.02927
C 1.18812 31.97224 -0.01404
C 1.21911 30.49586 0.01027
C 34.3959 29.81575 0.01831
C 34.42849 28.37624 -0.01037
C 1.22758 27.71371 -0.00439
C 1.24902 26.30478 -0.00598
C 0.00524 25.57942 -0.05239
C 34.42457 24.14004 0.03076
C 28.26068 31.9417 -0.01854
C 3.64194 31.98037 0.01087
C 27.05749 32.63389 -0.02049
C 25.83129 0.6634 0.00261
C 18.45422 23.41513 -0.01107
C 18.42436 22.0309 -0.01586
C 17.21707 21.32759 -0.01971
C 17.18813 19.93302 -0.02118
C 17.1698 8.52989 0.00733
C 17.18186 7.07384 -0.00178
C 18.42146 6.42613 0.00768
C 18.46178 4.99407 -0.0276
C 17.21455 24.16964 0.00071
C 17.19818 4.24249 0.03005
C 18.41294 2.1352 0.02117
C 18.45416 0.73831 0.02737
C 17.23307 0.0824 -0.00498
C 19.68354 32.63818 0.00135
C 20.90442 31.91568 0.03102
C 20.85151 30.49908 0.02555
C 19.67269 29.84252 0.01423
C 19.71068 28.38843 -0.00285
C 17.13792 2.78084 -0.04078
C 20.88417 27.68303 -0.009
C 17.22315 25.57163 -0.00225
C 18.42545 27.64583 -0.0055
C 14.72477 12.79723 -0.01527
C 14.79539 11.30267 0.01087
C 15.99815 10.62995 0.00199
C 16.00766 9.24001 0.01511
C 14.73683 8.50443 -0.00478
C 14.75817 7.05633 -0.01662
C 15.96223 6.36138 -0.01185
C 15.98141 4.93764 0.01126
C 18.44566 26.28042 0.01515
C 14.77972 4.21284 0.01852
C 15.97098 2.14006 0.03046
C 15.94052 0.70724 0.0296
C 14.70002 34.05 0.03374
C 17.22052 32.60598 -0.02845
C 18.41595 31.95663 -0.03213
C 18.4835 30.55823 0.02239
C 17.26123 29.81365 0.01153
C 17.11926 28.39441 0.02734
C 14.71495 2.78009 -0.00381
C 20.92225 26.24563 -0.01199
C 19.65689 25.56776 -0.00229
C 19.71867 24.12722 -0.00938
C 22.17679 2.79421 0.04185
C 23.40284 2.12017 0.00194
C 23.35581 0.7242 -0.00621
C 22.16337 34.04243 0.02611
C 24.56231 32.63284 0.02198
C 25.82431 31.95886 0.01094
C 25.87239 30.48728 0.00235
C 24.64796 29.78696 0.01495
C 22.10607 4.21274 0.02316
C 24.59393 28.39956 0.01259
C 25.82846 26.26622 0.01699
C 24.59393 25.53619 -0.00416
C 24.59972 24.13128 0.01177
C 25.82322 23.409 0.04266
C 25.81977 4.98003 0.01324
C 24.6319 4.25291 0.0014
C 24.64408 2.82955 0.00924
C 25.87204 2.13781 0.02326
C 25.83113 27.70851 0.01799
C 23.39697 4.90783 0.01257
C 23.34396 23.4292 0.00152
C 22.1479 24.16336 -0.00294
C 20.8848 23.48452 -0.0264
C 20.88041 22.01412 -0.01154
C 19.69703 21.34564 0.00684
C 19.6676 7.06323 -0.01052
C 20.90644 6.38209 -0.01679
C 20.93003 5.00033 0.00367
C 19.67676 4.32914 0.04306
C 19.66171 2.81395 0.00996
C 20.92727 2.17328 0.00195
C 20.94583 0.72571 -0.00802
C 19.72701 0.00474 -0.00218
C 22.07832 32.63488 -0.01654
C 23.38491 31.95722 -0.00037
C 23.37318 30.51828 -0.0032
C 22.23151 29.84602 0.00622
C 22.11725 28.40547 -0.02815
C 23.37198 27.67015 -0.00942
C 23.36621 26.24151 0.00487
C 22.06288 25.56126 0.00826
C 24.53281 34.07167 0.03265
C 2.41829 32.67284 -0.05697
