365
Graphene
C 0.01254 0.03466 0.01295
C 12.34677 2.79727 0.00052
C 13.49975 2.18742 -0.03682
C 13.5332 0.76116 0.01965
C 12.34029 34.06374 0.02058
C 14.80714 32.6999 -0.01957
C 15.98884 31.96127 -0.0108
C 15.90161 30.49612 -0.00368
C 14.7015 29.78939 -0.02696
C 12.24878 4.11715 0.00374
C 14.75266 28.34785 -0.00114
C 16.02537 26.30037 0.00798
C 14.80272 25.52322 0.00422
C 14.79335 24.1373 0.0351
C 16.09541 23.37292 -0.03113
C 15.89225 22.07653 0.02098
C 14.79727 21.27078 0.01848
C 14.76988 19.79049 -0.00619
C 15.8987 19.03126 -0.02162
C 16.04867 27.61668 0.00228
C 13.4635 4.94053 -0.02813
C 13.46117 6.39021 -0.01952
C 13.54815 17.71056 0.05265
C 9.78211 4.33248 0.02894
C 9.75071 2.93143 -0.01789
C 11.07217 2.16916 0.00444
C 11.10697 0.73664 -0.00925
C 9.85664 0.02511 0.01877
C 12.33349 32.6528 0.01363
C 13.53157 31.96871 -0.02162
C 13.55376 30.5204 0.00415
C 12.3127 29.87212 -0.0014
C 12.30525 28.49482 0.02162
C 13.4916 27.72039 0.0076
C 13.49354 26.32023 0.01241
C 12.30558 25.50027 -0.01454
C 12.30468 24.10425 0.01945
C 13.57376 23.44964 0.01416
C 13.62664 22.0071 0.03542
C 12.29161 21.23711 0.02299
C 12.28979 19.87671 0.00244
C 13.54473 19.07754 -0.01717
C 15.88537 17.82909 0.00889
C 14.75252 16.97219 -0.00481
C 14.87147 15.63603 0.00979
C 15.95238 14.943 0.01443
C 18.49174 13.54853 -0.03557
C 17.15142 12.89563 0.03754
C 17.16999 11.3893 0.01739
C 18.41966 10.57065 0.00755
C 18.43921 9.17257 -0.0054
C 17.25019 8.55753 0.00667
C 17.19902 7.08802 0.00143
C 18.40359 6.42234 -0.017
C 18.42113 5.00533 0.00364
C 17.25183 4.26723 -0.00831
C 17.27459 2.90785 -0.02957
C 18.43709 2.08392 -0.04422
C 18.47173 0.68096 0.00654
C 17.23152 34.07191 -0.00703
C 19.71468 32.59616 -0.04076
C 20.86797 31.90926 -0.00652
C 20.88718 30.49137 0.0058
C 19.6942 29.76835 -0.00865
C 19.70063 28.3596 0.00675
C 18.36397 15.00036 -0.00111
C 11.02187 4.97728 -0.02971
C 17.26302 15.58123 0.04892
C 17.17331 25.58959 -0.01581
C 15.97995 13.54514 0.03505
C 15.99195 10.68549 -0.02815
C 15.98972 9.22255 -0.04147
C 14.79878 8.51776 -0.05302
C 14.71004 7.15476 0.00213
C 15.99692 6.42483 -0.00066
C 16.04852 4.9964 -0.00289
C 14.77192 4.26857 0.00028
C 14.77896 2.80781 -0.02213
C 15.98135 2.08168 0.03698
C 15.99018 0.69974 -0.00109
C 14.79183 0.03444 -0.00491
C 17.19671 32.65141 0.03338
C 18.40868 31.94903 -0.0258
C 18.39127 30.55051 -0.0331
C 17.18564 29.80073 -0.00316
C 17.1657 28.40771 0.02188
C 18.46025 27.71895 -0.01979
C 18.52517 26.227 0.02691
C 17.17452 24.17116 0.01452
C 11.07655 6.30126 0.00165
C 11.06368 19.15951 0.02819
C 9.85946 19.80666 -0.00891
C 3.62985 6.35504 0.00848
C 3.71335 4.97371 -0.01303
C 2.52814 4.27908 -0.01378
C 2.43675 2.91688 0.02635
C 3.70465 2.08963 0.0127
C 3.66419 0.71553 0.01396
C 2.44853 34.07349 0.01849
C 4.94115 32.70209 -0.01142
C 6.16561 31.87946 -0.00562
C 6.13066 30.52579 -0.00494
C 4.89983 29.81392 0.00054
C 4.9005 28.40842 0.03007
C 6.14453 27.71201 -0.00095
C 6.13642 26.31874 0.01572
C 4.93921 25.5111 -0.04848
C 4.90371 24.15279 -0.00892
C 6.16252 23.46092 -0.01362
C 6.15771 22.03118 -0.0008
C 4.87917 21.36697 0.0288
C 2.46735 7.12974 -0.00049
C 4.89979 19.85211 0.00393
C 2.42752 8.51537 0.00873
C 3.60886 10.67665 -0.03337
C 3.75703 30.48097 -0.00518
C 2.52404 29.83687 0.0086
C 2.44315 28.393 -0.00643
C 3.76069 27.64409 0.017
C 3.69403 26.25057 -0.03113
C 2.39785 25.5685 -0.02566
C 2.41535 24.22482 -0.00094
C 3.68682 23.43894 0.02322
C 3.69123 22.00394 -0.00725
C 2.43005 21.32403 -0.05697
C 2.52152 19.87817 0.01087
C 3.68135 19.1256 -0.01343
C 3.73789 17.69822 0.00988
C 2.35562 17.00285 0.0276
C 2.4299 15.70692 0.01305
C 3.60434 14.91763 -0.00077
C 3.66267 13.63385 0.03368
C 2.52933 12.82656 -0.02929
C 2.46589 11.29108 -0.00966
C 3.79797 9.2872 0.01227
C 20.94294 27.71159 -0.00311
C 6.15746 19.21809 0.00895
C 4.96695 17.07291 0.02888
C 8.54669 6.32309 -0.01062
C 8.57264 4.99495 -0.00033
C 7.41214 4.23587 0.03589
C 7.39113 2.82841 -0.02759
C 8.59911 2.16244 0.0402
C 8.61054 0.78878 0.00572
C 7.31304 0.03626 0.03592
C 9.89356 32.65446 0.00406
C 11.1358 31.96165 0.00943
C 11.08888 30.56311 0.02841
C 9.79492 29.74562 -0.01111
C 9.80854 28.35501 -0.01275
C 11.02555 27.71733 0.00985
C 11.01369 26.20426 -0.02245
C 9.82573 25.56721 -0.00428
C 9.81239 24.17823 0.03101
C 11.03957 23.45009 -0.01536
C 11.12032 21.94448 -0.02689
C 9.82941 21.3403 -0.01046
C 8.59361 19.24343 0.01364
C 6.10059 17.76124 0.00685
C 7.38017 19.87875 -0.00719
C 8.62026 22.03654 0.02339
C 4.95153 8.54097 -0.00482
C 4.93391 7.1244 -0.01384
C 6.114 6.40265 0.03693
C 6.20083 4.98006 0.01745
C 4.94351 4.31028 0.00488
C 4.9084 2.90135 -0.01004
C 6.15775 2.21757 -0.02896
C 6.08061 0.83689 -0.00131
C 4.89761 0.0683 -0.01118
C 7.36421 32.68561 -0.014
C 8.5443 31.97379 0.02147
C 8.61052 30.56974 0.00373
C 7.40614 29.80607 -0.00191
C 7.37741 28.40438 0.00438
C 8.59747 27.73289 0.01291
C 8.5629 26.34056 0.00093
C 7.38425 25.59912 0.00057
C 7.30989 24.15197 -0.01634
C 8.54516 23.49532 -0.00334
C 7.38223 21.29823 0.01641
C 3.7399 31.92719 -0.00074
C 20.77947 26.31562 0.00742
C 20.87034 13.47529 0.0106
C 29.53604 0.04948 0.00346
C 31.9928 32.60318 0.01713
C 33.17721 31.94956 -0.01694
C 33.15782 30.51654 0.01428
C 31.98287 29.82689 -0.02142
C 31.94294 28.44307 0.0544
C 33.10955 27.69904 0.00026
C 33.13797 26.30577 0.00682
C 30.73561 0.6518 0.00307
C 31.95722 25.61632 -0.01779
C 33.13583 23.43245 0.01927
C 33.21254 22.05557 0.01574
C 31.97508 21.26846 -0.02383
C 31.95898 19.88006 -0.01429
C 33.20094 19.2068 -0.0136
C 33.26137 17.76373 0.00594
C 31.99941 17.08748 -0.02474
C 31.9727 15.6068 0.00369
C 31.96618 24.15751 0.03794
C 30.71731 2.135 0.00716
C 29.45334 2.88102 0.02108
C 29.56963 4.27204 0.0103
C 29.5248 24.05371 -0.02049
C 30.82029 23.41163 -0.01854
C 30.74625 22.03377 -0.01415
C 29.52622 21.26971 -0.03039
C 29.54307 19.95048 0.01836
C 30.7123 19.14786 0.03531
C 30.74575 17.73269 -0.00669
C 29.46519 17.08431 0.0101
C 29.58108 15.64893 0.01705
C 30.76038 14.82208 -0.0405
C 30.78809 13.43502 -0.01303
C 29.54555 12.80147 -0.01461
C 29.51381 11.40825 -0.02155
C 30.74562 10.62403 -0.00944
C 30.68369 9.20857 -0.03735
C 29.56359 8.46501 -0.00971
C 29.47254 7.05599 0.01518
C 30.69123 6.40179 0.01908
C 30.71693 4.95384 0.07705
C 33.16764 14.92865 0.00455
C 33.18447 13.48426 -0.00644
C 32.00054 12.69454 -0.01839
C 31.99891 11.32693 0.00137
C 0.01772 19.91899 0.01951
C 1.29974 19.15753 -0.01678
C 1.19925 17.68531 0.01223
C 34.42695 17.03048 0.00648
C 0.0355 15.5849 0.02114
C 1.19869 14.88915 -0.02957
C 1.26422 13.46054 0.00343
C 34.43173 12.80167 -0.02656
C 34.4008 11.36808 -0.02442
C 1.22593 10.7263 -0.00027
C 1.23077 9.26697 -0.00583
C 0.04085 8.58342 -0.02302
C 34.37844 7.1312 -0.02849
C 1.21722 6.40131 0.02931
C 1.24098 4.96452 0.00628
C 0.04142 4.29598 -0.0345
C 0.04193 2.82589 -0.00931
C 1.21857 2.0965 -0.00939
C 1.23057 0.74369 -0.00468
C 34.42257 21.31409 -0.02213
C 29.51736 25.59735 0.03265
C 1.1819 21.94493 0.02712
C 34.37892 24.14291 0.03076
C 33.18905 10.64 0.00199
C 33.26332 9.22361 0.04381
C 31.89585 8.50779 0.02806
C 31.90383 7.11018 0.01504
C 33.1617 6.35474 -0.00069
C 33.17611 4.95999 0.04926
C 31.95071 4.23956 -0.03838
C 31.96633 2.87513 0.00349
C 33.21462 2.1842 -0.00323
C 33.20756 0.71656 -0.00841
C 31.97464 34.03458 0.0001
C 34.37687 32.64924 -0.02927
C 1.15988 31.95795 -0.01404
C 1.24971 30.5583 0.01027
C 0.05116 29.77968 0.01831
C 34.42137 28.37231 -0.01037
C 1.1917 27.7474 -0.00439
C 1.22015 26.30785 -0.00598
C 34.40569 25.64305 -0.05239
C 1.17354 23.45726 0.00723
C 30.71789 26.27038 0.00261
C 30.74423 27.73192 0.02326
C 29.54328 28.41888 0.00924
C 23.37076 10.64411 -0.0055
C 23.33695 9.18798 0.01515
C 22.08659 8.53465 -0.00225
C 22.11635 7.11141 0.00071
C 23.36087 6.48506 -0.01107
C 23.37128 4.9142 -0.01586
C 22.13374 4.21049 -0.01971
C 22.05675 2.82742 -0.02118
C 23.33361 2.13657 0.00733
C 23.36752 0.71807 -0.00178
C 22.06617 33.98286 0.00768
C 24.56678 32.65378 -0.0276
C 25.83249 31.95296 0.03005
C 25.79148 30.49128 -0.04078
C 24.54469 29.82304 0.02117
C 24.62347 28.36207 0.02737
C 25.83085 27.67705 -0.00498
C 25.86395 26.26813 0.00135
C 24.50266 25.59951 0.03102
C 22.12686 11.2704 0.02734
C 25.87262 14.90528 0.02555
C 22.1089 12.80052 0.01153
C 23.44956 26.2375 -0.03213
C 19.74024 12.76561 -0.01154
C 19.62614 11.39361 -0.01721
C 20.78593 10.62882 -0.02422
C 20.7953 9.19446 0.01277
C 19.67138 8.43484 0.00096
C 19.63474 7.06859 -0.01527
C 20.93891 6.3689 0.01087
C 20.92426 4.94734 0.00199
C 19.56778 4.26918 0.01511
C 19.59498 2.78169 -0.00478
C 20.88993 2.10701 -0.01662
C 20.90151 0.68112 -0.01185
C 19.71239 34.0193 0.01126
C 22.18544 32.59524 0.01852
C 23.40766 31.92773 -0.00381
C 23.34164 30.53082 0.03046
C 22.14778 29.72877 0.0296
C 22.11062 28.3715 0.03374
C 23.3395 27.69838 -0.02845
C 23.44291 13.42627 0.02239
C 19.86348 25.53299 -0.01594
C 25.80393 13.44567 0.01423
C 24.5773 11.34275 -0.009
C 28.30267 14.94346 0.00152
C 28.27877 13.46486 0.01257
C 27.10562 12.78578 0.02316
C 27.01326 11.33493 0.04185
C 28.30096 10.68412 0.00194
C 28.35986 9.22308 -0.00621
C 27.1257 8.5578 0.02611
C 27.11435 7.16149 0.02198
C 28.28216 6.40635 0.01094
C 28.31206 4.88893 0.00235
C 27.04196 4.27847 0.01495
C 27.05559 2.86344 0.01259
C 28.24764 2.20508 0.01799
C 28.25903 0.72407 0.01699
C 27.05239 0.02447 -0.00416
C 29.47066 32.68822 0.01177
C 30.71319 31.93465 0.04266
C 30.78694 30.539 0.01324
C 29.49914 29.89927 0.0014
C 26.98027 15.51021 -0.00294
C 24.60992 12.83626 -0.00285
C 28.3338 17.75327 0.00826
C 27.19441 24.06735 -0.00942
C 25.73615 10.62816 -0.01199
C 25.87047 9.24126 -0.00229
C 24.57264 8.50922 -0.00938
C 24.74848 7.16475 -0.0264
C 25.81936 6.42476 -0.01154
C 25.81644 4.9647 0.00684
C 24.61137 4.23771 -0.01052
C 24.47004 2.84275 -0.01679
C 25.75237 2.14473 0.00367
C 25.76603 0.71677 0.04306
C 24.56521 0.00544 0.00996
C 27.06165 32.62895 0.00195
C 28.18857 31.90971 -0.00802
C 28.26027 30.52898 -0.00218
C 27.00408 29.83181 -0.01654
C 27.04589 28.39928 -0.00037
C 28.24408 27.71607 -0.0032
C 28.28139 26.27035 0.00622
C 27.03938 25.51702 -0.02815
C 28.23047 23.46265 0.00487
C 2.47104 32.56836 0.01465
