385
Graphene
C 34.27869 0.05719 0.01295
C 14.77957 32.80939 0.02162
C 15.95611 31.824 0.0076
C 15.94473 30.4779 0.01241
C 14.62121 29.848 -0.01454
C 14.65328 28.35954 0.01945
C 15.91777 27.68187 0.01416
C 15.93097 26.23249 0.03542
C 14.75902 25.61641 0.02299
C 14.77009 24.23723 0.00244
C 12.19867 0.25408 -0.0014
C 15.99858 23.39736 -0.01717
C 14.74534 21.2912 -0.01952
C 14.71596 19.89674 -0.02813
C 16.05777 19.23057 0.00374
C 15.99867 17.86153 0.00052
C 14.92632 16.91627 -0.03682
C 15.66121 15.65822 0.01965
C 16.28848 0.87691 0.02058
C 14.76136 0.2296 -0.01957
C 17.14079 32.62843 -0.0108
C 15.99224 21.95434 0.05265
C 18.379 31.8923 -0.00368
C 13.57276 0.79323 0.00415
C 12.31287 16.80605 0.01363
C 11.13104 17.71022 0.00943
C 9.88041 17.12819 0.02841
C 10.11411 15.6776 -0.01111
C 10.88939 0.85177 -0.01275
C 9.73396 0.04071 0.00985
C 12.27377 32.82313 -0.02245
C 13.50206 32.1107 -0.00428
C 13.51401 30.64882 0.03101
C 12.29966 29.89916 -0.01536
C 11.72156 15.42063 -0.02162
C 12.26407 28.48306 -0.02689
C 13.53211 26.25755 -0.00891
C 12.27365 25.63497 0.02819
C 12.26479 24.27016 0.00165
C 13.53372 23.57732 -0.02971
C 13.61819 22.07746 0.02894
C 12.3739 21.41348 -0.01789
C 12.3776 19.96942 0.00444
C 13.50352 19.11328 -0.00925
C 13.50042 17.48932 0.01877
C 13.49492 27.69422 -0.01046
C 11.12108 19.20667 0.00406
C 18.4456 30.37384 -0.02696
C 17.16419 28.41118 0.00228
C 19.6819 25.52004 0.03338
C 19.61648 24.11107 -0.0258
C 20.82566 23.35495 -0.0331
C 20.94848 21.97774 -0.00316
C 19.76021 21.25789 0.02188
C 19.71782 19.79733 -0.01979
C 20.92428 19.10099 0.02691
C 20.84036 17.64078 -0.01581
C 19.59545 17.01898 0.01452
C 20.86061 26.26885 -0.00491
C 19.46567 15.59212 0.04892
C 20.81002 13.43375 -0.03557
C 19.49317 12.96575 0.03754
C 20.99765 10.57825 0.01739
C 20.97394 9.36462 0.00755
C 20.74332 6.4008 -0.0054
C 20.55798 4.97429 0.00667
C 19.58036 4.1644 0.00143
C 19.3949 2.83074 -0.017
C 20.73421 2.09854 0.00364
C 20.74005 14.88179 -0.00111
C 17.24105 29.77021 -0.00114
C 20.86069 27.63417 -0.00109
C 19.67306 29.69357 -0.02213
C 18.40017 27.56113 0.00798
C 18.3721 26.19387 0.00422
C 17.1939 25.50402 0.0351
C 17.15886 24.08387 -0.03113
C 18.40882 23.39385 0.02098
C 18.49836 21.93158 0.01848
C 17.26056 21.30268 -0.00619
C 17.29251 19.93227 -0.02162
C 18.4433 19.04357 0.00889
C 19.61948 28.35326 0.03698
C 18.36065 17.70434 -0.00481
C 17.08566 15.63226 0.01443
C 18.1297 14.87346 0.03505
C 18.49297 13.48026 -0.02815
C 18.18685 2.08966 -0.04147
C 18.42624 0.67126 -0.05302
C 17.24081 34.06814 0.00213
C 19.60699 32.58375 -0.00066
C 20.8551 31.86357 -0.00289
C 20.86406 30.46647 0.00028
C 17.1921 17.06265 0.00979
C 9.85758 19.88216 0.03592
C 9.89627 21.21486 0.00572
C 11.10605 22.02538 0.0402
C 3.48161 4.98264 -0.03113
C 2.24055 4.26601 -0.02566
C 2.22456 2.93342 -0.00094
C 3.52759 2.36388 0.02322
C 3.58631 0.83205 -0.00725
C 2.36648 0.06621 -0.05697
C 4.85646 32.7886 0.01087
C 6.10252 32.03612 -0.01343
C 6.1105 30.62373 0.00988
C 3.47024 6.40808 0.017
C 4.86417 29.92823 0.0276
C 6.08941 27.77986 -0.00077
C 6.1782 26.31618 0.03368
C 4.9308 25.60701 -0.02929
C 4.97068 24.24299 -0.00966
C 6.1968 23.57107 -0.03337
C 6.27217 22.17946 0.01227
C 4.9907 21.43776 0.00873
C 4.90863 20.01428 -0.00049
C 6.08082 19.28598 0.00848
C 4.87575 28.45333 0.01305
C 6.0628 17.80353 -0.01303
C 2.34504 7.14918 -0.00643
C 3.83548 9.1463 -0.00518
C 3.63975 30.59489 0.03189
C 2.39293 29.89485 0.00031
C 2.32879 28.52646 -0.003
C 3.52645 27.8284 0.01402
C 3.63295 26.37019 0.02379
C 2.38335 25.68466 0.00907
C 2.42684 24.20588 0.00643
C 3.72696 23.52705 -0.01509
C 3.75864 22.02782 0.03267
C 2.42741 8.55703 0.0086
C 2.53497 21.39645 0.02374
C 3.73309 19.18481 0.0073
C 3.7444 17.74541 0.0174
C 2.48012 17.07473 0.03828
C 2.59099 15.65014 0.01226
C 3.76154 14.96516 -0.00279
C 3.70688 13.51852 0.01996
C 2.43609 12.74151 -0.03996
C 2.51356 11.2999 0.01465
C 3.75251 10.59462 -0.00074
C 2.51933 19.90062 0.00402
C 4.9201 17.08263 -0.01378
C 4.97992 15.61554 0.02635
C 6.24352 14.90178 0.0127
C 8.593 19.35752 -0.00131
C 8.65739 17.8887 -0.01118
C 7.36559 17.07813 -0.014
C 7.4956 15.64211 0.02147
C 8.83728 15.11642 0.00373
C 7.04844 12.20852 -0.00191
C 7.34044 2.90106 0.00438
C 8.37065 2.19756 0.01291
C 8.54551 0.80284 0.00093
C 7.41284 19.93819 -0.02896
C 7.24949 0.09105 0.00057
C 11.01404 32.04436 -0.00334
C 11.06882 30.63546 0.02339
C 9.79176 29.98482 0.01641
C 9.837 28.5283 -0.00719
C 11.01599 27.74209 0.01364
C 11.05655 26.28851 -0.01062
C 9.82047 25.68141 -0.00033
C 9.85658 24.23257 0.03589
C 11.0235 23.47255 -0.02759
C 9.75239 32.71319 -0.01634
C 7.41393 21.34201 -0.01004
C 8.63147 22.07448 0.00488
C 8.61823 23.47052 0.01745
C 6.17132 13.45594 0.01396
C 4.87957 12.8312 0.01849
C 4.97605 11.4302 -0.01142
C 6.36716 11.20165 -0.00562
C 4.8647 8.21407 -0.00494
C 4.89544 6.88833 0.00054
C 5.58925 5.79109 0.03007
C 4.82937 4.56482 -0.00095
C 4.82209 3.12707 0.01572
C 6.02421 2.39431 -0.04848
C 6.0793 0.84124 -0.00892
C 4.78152 0.11353 -0.01362
C 7.27558 32.76901 -0.0008
C 8.58067 31.94183 0.0288
C 8.59287 30.59703 0.00393
C 7.32971 29.91363 0.00895
C 7.33476 28.50825 0.00685
C 8.63291 27.80606 0.02888
C 8.6268 26.4205 -0.00482
C 7.41567 25.64742 -0.01384
C 7.41762 24.28852 0.03693
C 20.81213 0.69008 -0.00831
C 3.65985 32.04658 -0.04307
C 19.62371 34.04421 -0.02957
C 23.27272 31.84154 0.00654
C 29.3679 4.20501 0.0103
C 29.41416 2.8003 0.02108
C 30.65089 2.12755 0.00716
C 30.65297 0.70122 0.00307
C 29.36045 34.07756 0.00346
C 31.80035 32.64034 0.01713
C 33.07683 31.92277 -0.01694
C 33.09922 30.58794 0.01428
C 31.92274 29.84656 -0.02142
C 30.64199 4.97654 0.07705
C 31.98781 28.36512 0.0544
C 33.11452 26.29983 0.00682
C 31.93837 25.59539 -0.01779
C 31.94543 24.19923 0.03794
C 33.20431 23.42891 0.01927
C 33.1169 22.04269 0.01574
C 31.92646 21.31201 -0.02383
C 31.99495 19.88178 -0.01429
C 33.23472 19.12393 -0.0136
C 33.24952 17.71727 0.00594
C 33.17369 27.73179 0.00026
C 32.00696 17.109 -0.02474
C 30.62999 6.42807 0.01908
C 29.40188 8.47786 -0.00971
C 29.49842 29.85224 0.0014
C 29.4051 28.47771 0.00924
C 30.68914 27.71907 0.02326
C 30.67691 26.32309 0.00261
C 29.47899 25.52721 0.03265
C 29.48205 24.0797 -0.02049
C 30.68711 23.41845 -0.01854
C 30.75243 21.98753 -0.01415
C 29.5965 21.22404 -0.03039
C 29.42778 7.09453 0.01518
C 29.55201 19.8277 0.01836
C 30.81498 17.76083 -0.00669
C 29.53699 17.02779 0.0101
C 29.55628 15.65615 0.01705
C 30.81855 14.92403 -0.0405
C 30.7383 13.51217 -0.01303
C 29.51677 12.74865 -0.01461
C 29.50461 11.32215 -0.02155
C 30.74072 10.59064 -0.00944
C 30.69921 9.20695 -0.03735
C 30.75125 19.11088 0.03531
C 30.69566 30.51583 0.01324
C 32.0165 15.62249 0.00369
C 33.18117 13.47546 -0.00644
C 0.00953 21.38491 -0.02213
C 34.42716 19.8546 0.01951
C 1.27775 19.20278 -0.01678
C 1.25578 17.75365 0.01223
C 0.08238 17.04176 0.00648
C 0.05354 15.63973 0.02114
C 1.27487 14.92468 -0.02957
C 1.17746 13.47359 0.00343
C 34.36113 12.77467 -0.02656
C 1.2868 22.12144 0.02712
C 34.3842 11.31101 -0.02442
C 1.11106 9.24355 -0.00583
C 34.36756 8.56601 -0.02302
C 34.32019 7.08633 -0.02849
C 1.06856 6.40345 0.02931
C 1.07228 5.0483 0.00628
C 34.29965 4.28639 -0.0345
C 34.24737 2.86772 -0.00931
C 1.06218 2.14787 -0.00939
C 1.1113 0.7372 -0.00468
C 1.16491 10.71318 -0.00027
C 33.23282 14.85304 0.00455
C 1.23571 23.48885 0.00723
C 34.35101 25.57544 -0.05239
C 31.89579 12.79727 -0.01839
C 31.91695 11.36591 0.00137
C 33.10942 10.56459 0.00199
C 33.09924 9.17876 0.04381
C 31.92027 8.43056 0.02806
C 31.85121 7.08302 0.01504
C 33.08431 6.35761 -0.00069
C 33.061 4.98991 0.04926
C 31.86739 4.28555 -0.03838
C 34.40029 24.1434 0.03076
C 31.8555 2.99666 0.00349
C 33.06492 0.77268 -0.00841
C 31.88081 0.02104 0.0001
C 34.32886 32.60858 -0.02927
C 1.16759 32.05899 -0.01404
C 1.14685 30.63368 0.01027
C 34.38857 29.90684 0.01831
C 34.37605 28.49985 -0.01037
C 1.12319 27.71763 -0.00439
C 1.16914 26.30338 -0.00598
C 33.03385 2.18792 -0.00323
C 30.65847 31.93132 0.04266
C 29.38746 32.68087 0.01177
C 26.90374 34.03847 -0.00416
C 23.25588 4.90014 -0.00381
C 21.88263 4.22621 0.03046
C 21.9013 2.80492 0.0296
C 23.17637 2.13241 0.03374
C 23.24625 0.7441 -0.02845
C 22.04165 34.06155 -0.03213
C 24.48133 32.58151 0.02239
C 25.66544 31.92287 0.01153
C 25.70757 30.44319 0.02734
C 23.30447 6.26857 0.01852
C 24.56464 29.75529 -0.0055
C 25.7942 27.61579 -0.00225
C 25.78622 26.2462 0.00071
C 24.52792 25.50125 -0.01107
C 24.56107 24.06243 -0.01586
C 25.81442 23.42497 -0.01971
C 25.89824 21.97069 -0.02118
C 24.56973 21.27154 0.00733
C 24.59775 19.73753 -0.00178
C 25.84793 19.06866 0.00768
C 24.56107 28.31212 0.01515
C 25.75311 17.70931 -0.0276
C 22.04217 7.02976 0.01126
C 23.36291 9.27848 -0.01662
C 23.26998 30.47077 -0.00703
C 22.09817 29.78737 -0.04076
C 22.13633 28.36232 -0.00652
C 23.23002 27.62816 0.0058
C 23.29155 26.21816 -0.00865
C 22.111 25.55232 0.00675
C 22.11598 24.06726 -0.00311
C 23.30937 23.40556 0.00742
C 23.33436 21.97207 -0.01594
C 22.05134 8.48946 -0.01185
C 22.19578 21.19121 0.0106
C 23.41963 19.02328 -0.01721
C 23.33472 17.71834 -0.02422
C 22.15412 17.03582 0.01277
C 22.01746 15.57991 0.00096
C 23.30924 14.99902 -0.01527
C 23.32101 13.55016 0.01087
C 22.11238 12.829 0.00199
C 22.08738 11.38143 0.01511
C 23.39203 10.68445 -0.00478
C 22.22032 19.78236 -0.01154
C 24.5294 16.9684 0.03005
C 24.60978 15.55222 -0.04078
C 25.82883 14.93714 0.02117
C 27.09225 21.25929 0.00622
C 27.12376 19.81507 -0.02815
C 28.30555 19.18698 -0.00942
C 28.32392 17.68821 0.00487
C 27.00122 17.04594 0.00826
C 27.03187 15.6939 -0.00294
C 28.28746 14.91586 0.00152
C 28.2996 13.47738 0.01257
C 26.9967 12.77408 0.02316
C 28.30514 21.97641 -0.0032
C 26.98412 11.33616 0.04185
C 28.17772 9.21061 -0.00621
C 26.99684 8.52581 0.02611
C 26.98653 7.07659 0.02198
C 28.22012 6.39833 0.01094
C 28.1862 4.95279 0.00235
C 26.8879 4.16621 0.01495
C 26.86841 2.80049 0.01259
C 28.15675 2.0942 0.01799
C 28.11876 0.67427 0.01699
C 28.19802 10.63884 0.00194
C 28.27523 23.37763 -0.00037
C 27.05158 24.16643 -0.01654
C 26.99702 25.56603 -0.00218
C 25.82645 13.47984 0.02737
C 24.60616 12.83185 -0.00498
C 24.56722 11.41215 0.00135
C 25.78578 10.64403 0.03102
C 25.71989 9.19889 0.02555
C 24.54585 8.49047 0.01423
C 24.53592 6.92994 -0.00285
C 25.80803 6.3197 -0.009
C 25.79484 4.92753 -0.01199
C 24.43618 4.21448 -0.00229
C 24.44412 2.76426 -0.00938
C 25.60854 2.05935 -0.0264
C 25.72543 0.69704 -0.01154
C 24.43594 33.99156 0.00684
C 26.85678 32.52578 -0.01052
C 28.21239 31.92836 -0.01679
C 28.25082 30.48055 0.00367
C 27.00823 29.78219 0.04306
C 27.01189 28.3024 0.00996
C 28.25413 27.67627 0.00195
C 28.2542 26.25567 -0.00802
C 22.05762 32.5883 -0.04422
C 2.41445 32.74745 0.03284
