362
Graphene
C 34.35531 0.02504 0.01295
C 9.75931 11.34758 0.01965
C 11.05994 10.67692 0.02058
C 11.14389 9.27678 -0.01957
C 9.90429 8.58446 -0.0108
C 9.82482 7.17565 -0.00368
C 11.00008 6.43802 -0.02696
C 11.07627 4.98921 -0.00114
C 9.83536 4.31672 0.00228
C 9.73754 12.83311 -0.03682
C 9.80902 2.95549 0.00798
C 11.055 0.77824 0.0351
C 9.88591 0.031 -0.03113
C 12.28911 32.65606 0.02098
C 13.53486 31.96923 0.01848
C 13.47224 30.51553 -0.00619
C 12.21317 29.88881 -0.02162
C 12.16888 28.49957 0.00889
C 13.44822 27.78306 -0.00481
C 11.07989 2.28566 0.00422
C 11.00754 13.46433 0.00052
C 10.94215 14.78691 0.00374
C 9.91325 15.63138 -0.02813
C 8.57862 2.18996 0.00444
C 8.66315 0.73693 -0.00925
C 7.35185 0.04804 0.01877
C 9.8174 32.62386 0.01363
C 11.0491 32.00264 -0.02162
C 11.02721 30.62025 0.00415
C 9.81098 29.83422 -0.0014
C 9.8 28.45382 0.02162
C 10.97551 27.76473 0.0076
C 10.99447 26.31836 0.01241
C 9.79337 25.65812 -0.01454
C 9.79954 24.10969 0.01945
C 11.05441 23.4271 0.01416
C 11.05806 22.03173 0.03542
C 9.83455 21.33871 0.02299
C 9.88192 19.88887 0.00244
C 11.13034 19.15494 -0.01717
C 11.24363 17.72991 0.05265
C 9.98422 16.99106 -0.01952
C 13.46807 26.42077 0.00979
C 7.37847 2.89287 -0.01789
C 12.16045 25.63055 0.01443
C 13.41078 23.4982 -0.02815
C 15.87704 23.42726 0.01739
C 15.91829 22.02502 0.00755
C 14.75043 21.32212 -0.0054
C 14.95892 6.80572 0.00667
C 15.97393 5.92984 0.00143
C 16.19584 4.67677 -0.017
C 14.84492 4.19305 0.00364
C 14.75432 2.78295 -0.00831
C 14.6245 24.18491 0.03754
C 16.00181 2.16197 -0.02957
C 14.75981 33.97893 0.00654
C 17.26737 32.69015 -0.00703
C 18.42655 31.88905 -0.04076
C 18.35087 30.48197 -0.00652
C 17.16917 29.80385 0.0058
C 17.20058 28.35477 -0.00865
C 18.39396 27.64968 0.00675
C 18.42202 26.22711 -0.00311
C 15.9868 0.70205 -0.04422
C 14.60497 25.62713 -0.03557
C 15.92869 26.19415 -0.00111
C 15.95032 27.64836 0.04892
C 13.51746 22.03778 -0.04147
C 12.29338 21.31395 -0.05302
C 12.44667 19.84794 0.00213
C 13.52749 19.03439 -0.00066
C 12.48165 17.16632 -0.00289
C 12.30799 8.46745 0.00028
C 12.27857 7.05123 -0.02213
C 13.65108 6.35361 0.03698
C 13.61831 4.97661 -0.00109
C 12.29196 4.27362 -0.00491
C 12.3917 2.82785 0.03338
C 13.55504 2.13285 -0.0258
C 13.57725 0.68066 -0.0331
C 12.33604 34.06421 -0.00316
C 14.78259 32.63797 0.02188
C 16.00963 31.94504 -0.01979
C 15.96968 30.53459 0.02691
C 14.73945 29.86485 -0.01581
C 14.69798 28.41633 0.01452
C 12.18049 24.23219 0.03505
C 7.45606 4.31071 0.02894
C 8.62306 5.06393 -0.02971
C 8.61289 6.45796 0.00165
C 3.63107 6.50244 0.02635
C 3.61754 5.08804 0.0127
C 2.43489 4.36891 0.01396
C 2.39032 2.99885 0.01849
C 3.56281 2.22846 -0.01142
C 3.59782 0.84879 -0.00562
C 2.41124 0.05726 -0.00494
C 4.86917 32.7208 0.00054
C 2.43547 7.17669 -0.01378
C 6.10248 32.03145 0.03007
C 4.96117 29.82197 0.01572
C 4.91193 28.43883 -0.04848
C 6.10366 27.76351 -0.00892
C 6.17752 26.29438 -0.01362
C 4.87059 25.55361 -0.0008
C 4.92663 24.16206 0.0288
C 6.23312 23.43959 0.00393
C 6.22588 22.0303 0.00895
C 6.11061 30.59773 -0.00095
C 2.37132 8.57678 -0.01303
C 3.60072 9.29297 0.00848
C 3.62208 10.71464 -0.00049
C 3.71671 30.57567 0.017
C 2.41475 29.86733 -0.03113
C 2.3888 28.46219 -0.02566
C 3.6027 27.70938 -0.00094
C 3.63037 26.36774 0.02322
C 2.39563 25.58378 -0.00725
C 2.44849 24.15181 -0.05697
C 3.6668 23.44744 0.01087
C 3.65568 21.99499 -0.01343
C 2.49419 21.24264 0.00988
C 2.47608 19.84671 0.0276
C 3.73029 19.17152 0.01305
C 3.72896 17.78418 -0.00077
C 2.53857 17.03858 0.03368
C 2.43476 15.61975 -0.02929
C 3.73489 14.954 -0.00966
C 3.63989 13.51702 -0.03337
C 2.43829 12.86976 0.01227
C 2.33307 11.42414 0.00873
C 4.97298 21.2808 0.00685
C 4.99508 19.86819 0.02888
C 6.26676 19.14606 -0.00482
C 6.28969 17.77062 -0.01384
C 8.58126 26.3 0.03589
C 7.39969 25.57861 -0.02759
C 7.42587 24.21081 0.0402
C 8.59042 23.49679 0.00572
C 8.62859 21.99932 0.03592
C 7.42116 21.30075 0.00406
C 7.46796 19.90116 0.00943
C 8.69977 19.13593 0.02841
C 8.694 17.66682 -0.01111
C 7.35597 17.00574 -0.01275
C 7.30331 15.68142 0.00985
C 8.57019 14.98469 -0.02245
C 8.56969 13.54898 -0.00428
C 7.32335 12.76534 0.03101
C 7.31081 11.3699 -0.01536
C 8.56289 10.67471 -0.02689
C 8.57061 9.22047 -0.01046
C 7.33008 8.54114 -0.00891
C 7.34891 7.13148 0.02819
C 8.60313 27.78005 -0.00033
C 17.18253 25.48025 0.00742
C 7.31616 28.46782 -0.01062
C 8.55349 30.57831 -0.00719
C 5.00608 17.12408 0.03693
C 4.92021 15.59012 0.01745
C 6.17722 14.90771 0.00488
C 6.14475 13.50168 -0.01004
C 4.87053 12.82129 -0.02896
C 4.83455 11.40976 -0.00131
C 6.07554 10.60558 -0.01118
C 6.13563 9.21658 -0.014
C 4.84296 8.58471 0.02147
C 4.85439 7.18315 0.00373
C 6.08965 6.4408 -0.00191
C 6.09222 5.02239 0.00438
C 4.84664 4.38657 0.01291
C 4.7687 2.96197 0.00093
C 6.13351 2.20227 0.00057
C 6.15625 0.77149 -0.01634
C 4.88809 0.04155 -0.00334
C 7.35325 32.66491 0.02339
C 8.53979 31.98388 0.01641
C 7.36708 29.94679 0.01364
C 17.1392 24.12703 -0.01594
C 18.4199 23.33903 0.0106
C 18.41009 21.9941 -0.01154
C 29.44677 0.01523 0.00346
C 31.92178 32.69415 0.01713
C 33.07885 31.93103 -0.01694
C 33.09735 30.60597 0.01428
C 31.89507 29.88322 -0.02142
C 31.82417 28.50394 0.0544
C 33.07596 27.73123 0.00026
C 33.12996 26.28635 0.00682
C 30.70629 0.70986 0.00307
C 31.88498 25.64621 -0.01779
C 33.10559 23.46916 0.01927
C 33.09155 22.00417 0.01574
C 31.90378 21.31107 -0.02383
C 31.9524 19.90573 -0.01429
C 33.2231 19.22649 -0.0136
C 33.18993 17.75466 0.00594
C 31.93917 16.96545 -0.02474
C 31.93102 15.63326 0.00369
C 31.86835 24.13814 0.03794
C 30.7367 2.15412 0.00716
C 29.45571 2.83461 0.02108
C 29.50659 4.26123 0.0103
C 29.475 24.23437 -0.02049
C 30.70882 23.44198 -0.01854
C 30.73626 21.97701 -0.01415
C 29.45394 21.31126 -0.03039
C 29.42918 19.95033 0.01836
C 30.74317 19.19451 0.03531
C 30.67791 17.74284 -0.00669
C 29.51371 17.06757 0.0101
C 29.51622 15.69027 0.01705
C 30.74232 14.93103 -0.0405
C 30.70949 13.46913 -0.01303
C 29.43524 12.79065 -0.01461
C 29.49594 11.30513 -0.02155
C 30.72875 10.63071 -0.00944
C 30.69933 9.16156 -0.03735
C 29.42729 8.57306 -0.00971
C 29.47856 7.12222 0.01518
C 30.73435 6.44116 0.01908
C 30.77306 5.01492 0.07705
C 33.1516 14.87787 0.00455
C 33.10883 13.53544 -0.00644
C 32.00873 12.73768 -0.01839
C 31.93697 11.37655 0.00137
C 0.03219 19.91338 0.01951
C 1.23267 19.20369 -0.01678
C 1.24759 17.76789 0.01223
C 34.38797 17.09426 0.00648
C 34.40877 15.63755 0.02114
C 1.23108 14.95812 -0.02957
C 1.1883 13.60447 0.00343
C 34.40791 12.87035 -0.02656
C 34.34246 11.35756 -0.02442
C 1.14462 10.63483 -0.00027
C 1.15367 9.29107 -0.00583
C 34.38178 8.51779 -0.02302
C 34.33333 7.13355 -0.02849
C 1.16941 6.46092 0.02931
C 1.28022 5.02479 0.00628
C 34.4219 4.32397 -0.0345
C 34.3648 2.8664 -0.00931
C 1.17632 2.19246 -0.00939
C 1.13528 0.7753 -0.00468
C 0.02921 21.37342 -0.02213
C 29.47262 25.67028 0.03265
C 1.28103 21.98834 0.02712
C 34.35248 24.11174 0.03076
C 33.14647 10.64778 0.00199
C 33.18248 9.22972 0.04381
C 31.93321 8.55006 0.02806
C 31.93878 7.11686 0.01504
C 33.17605 6.37851 -0.00069
C 33.22978 5.01018 0.04926
C 32.0153 4.34788 -0.03838
C 31.9931 2.87314 0.00349
C 33.16563 2.18825 -0.00323
C 33.19396 0.74968 -0.00841
C 31.94305 0.01101 0.0001
C 34.3514 32.70275 -0.02927
C 1.17385 32.01166 -0.01404
C 1.17476 30.67887 0.01027
C 34.34937 29.97283 0.01831
C 34.27835 28.5404 -0.01037
C 1.09783 27.84015 -0.00439
C 1.20202 26.31681 -0.00598
C 34.39961 25.56664 -0.05239
C 1.22977 23.46884 0.00723
C 3.65507 32.01334 -0.00643
C 30.72649 26.35499 0.00261
C 29.39165 28.44492 0.00924
C 23.20247 27.61166 0.01515
C 23.23107 26.1801 -0.00225
C 22.01441 25.32416 0.00071
C 22.11472 23.97996 -0.01107
C 23.3091 23.21251 -0.01586
C 23.32322 21.70474 -0.01971
C 22.11234 2.7103 -0.02118
C 23.41044 2.0767 0.00733
C 22.01956 28.28603 -0.0055
C 23.34036 0.74882 -0.00178
C 24.53019 32.64299 -0.0276
C 25.69084 31.95552 0.03005
C 25.73563 30.54898 -0.04078
C 24.5146 29.70774 0.02117
C 24.44453 28.31096 0.02737
C 25.67494 27.63592 -0.00498
C 25.74002 26.17139 0.00135
C 24.46955 25.4656 0.03102
C 22.14359 0.02679 0.00768
C 22.06236 29.68997 0.02734
C 23.28552 30.4522 0.01153
C 23.25626 31.91197 0.02239
C 17.23957 2.95858 -0.01721
C 18.45043 2.30027 -0.02422
C 18.38815 0.75234 0.01277
C 17.20442 0.01836 0.00096
C 19.66262 32.52689 -0.01527
C 20.85821 31.86924 0.01087
C 20.86124 30.40571 0.00199
C 19.55129 29.77283 0.01511
C 19.59163 28.33564 -0.00478
C 20.76787 27.54095 -0.01662
C 20.78093 26.1328 -0.01185
C 19.56095 25.44443 0.01126
C 19.67458 24.06293 0.01852
C 20.87962 23.24715 -0.00381
C 20.9161 21.91593 0.03046
C 20.98394 2.07074 0.0296
C 20.88019 0.68033 0.03374
C 19.65652 33.97862 -0.02845
C 22.08855 32.65972 -0.03213
C 24.53805 24.00763 0.02555
C 25.80247 23.3457 0.01423
C 25.77624 21.97052 -0.00285
C 24.68875 20.9925 -0.009
C 28.16397 17.74961 0.00152
C 27.05529 16.90015 0.01257
C 28.35446 15.03231 0.02316
C 28.26842 13.60796 0.04185
C 28.30168 10.63386 0.00194
C 28.14311 9.26281 -0.00621
C 26.92697 8.38172 0.02611
C 27.13834 7.00135 0.02198
C 28.26993 6.32533 0.01094
C 28.26534 4.91467 0.00235
C 27.01351 4.20941 0.01495
C 26.98711 2.76924 0.01259
C 28.18996 2.15418 0.01799
C 28.26024 0.74068 0.01699
C 27.01078 0.01958 -0.00416
C 29.36849 32.68024 0.01177
C 30.57248 32.01744 0.04266
C 30.65807 30.55587 0.01324
C 29.41313 29.86481 0.0014
C 28.15771 19.20992 -0.00294
C 30.60233 27.77535 0.02326
C 26.83961 19.91305 0.00826
C 28.24136 21.98624 -0.00942
C 25.47016 19.63174 -0.01199
C 24.97703 7.38991 -0.00229
C 25.75886 6.40453 -0.00938
C 25.83704 5.04911 -0.0264
C 24.55628 4.3212 -0.01154
C 24.56199 3.00441 0.00684
C 25.63907 2.10897 -0.01052
C 25.75773 0.64927 -0.01679
C 24.46292 0.00744 0.00367
C 26.91074 32.68753 0.04306
C 28.17157 31.9571 0.00996
C 28.16439 30.58913 0.00195
C 26.93553 29.85178 -0.00802
C 26.91056 28.40324 -0.00218
C 28.1109 27.67426 -0.01654
C 28.2482 26.2917 -0.00037
C 26.97011 25.5741 -0.0032
C 26.96955 24.162 0.00622
C 28.17295 23.49261 -0.02815
C 27.04168 21.34783 0.00487
C 2.36973 32.72479 0.0086
