380
Graphene
C 0.01475 0.02706 0.01295
C 11.12209 6.35365 -0.01454
C 11.01918 5.02623 0.01945
C 9.82519 4.31327 0.01416
C 9.85237 2.82303 0.03542
C 11.14102 2.16573 0.02299
C 11.09993 0.72183 0.00244
C 9.80047 34.05602 -0.01717
C 12.2761 32.63588 0.05265
C 13.489 31.83635 -0.01952
C 13.51877 30.49069 -0.02813
C 12.34193 29.82936 0.00374
C 12.31494 28.36054 0.00052
C 13.57284 27.67796 -0.03682
C 13.57474 26.24935 0.01965
C 12.27543 25.61035 0.02058
C 12.30691 24.12057 -0.01957
C 13.52198 23.37075 -0.0108
C 13.49046 21.97776 -0.00368
C 12.35206 21.22055 -0.02696
C 9.78901 7.07468 0.01241
C 9.81725 8.53885 0.0076
C 11.07419 9.20236 0.02162
C 11.05099 10.69817 -0.0014
C 11.00265 32.02773 -0.01275
C 11.09584 30.57268 0.00985
C 9.8642 29.84834 -0.02245
C 9.84269 28.43493 -0.00428
C 11.07525 27.69759 0.03101
C 11.04459 26.27102 -0.01536
C 9.83992 25.55751 -0.02689
C 9.88127 24.17679 -0.01046
C 11.107 23.49435 -0.00891
C 12.27842 19.87234 -0.00114
C 11.07742 22.06042 0.02819
C 9.86022 19.84497 -0.02971
C 11.07529 19.1607 0.02894
C 11.07548 17.79365 -0.01789
C 9.89926 17.02469 0.00444
C 9.81257 15.57193 -0.00925
C 11.06205 14.93298 0.01877
C 11.09738 13.45052 0.01363
C 9.78571 12.75423 -0.02162
C 9.83438 11.3532 0.00415
C 9.91368 21.31957 0.00165
C 13.53116 19.20189 0.00228
C 13.5424 17.76016 0.00798
C 12.24345 17.13901 0.00422
C 14.73289 24.14659 -0.0331
C 15.94958 23.3936 -0.00316
C 15.99358 21.98539 0.02188
C 14.78329 21.34106 -0.01979
C 14.76547 19.88326 0.02691
C 15.95219 19.17928 -0.01581
C 15.97349 17.77285 0.01452
C 14.77754 17.01143 0.04892
C 14.82227 15.67847 -0.00111
C 14.76652 25.5248 -0.0258
C 16.00343 14.90498 -0.03557
C 14.77776 12.75856 0.01739
C 14.77909 11.31722 0.00755
C 15.96225 10.64536 -0.0054
C 15.96927 9.21309 0.00667
C 14.77636 8.46968 0.00143
C 14.77963 7.06896 -0.017
C 15.98392 6.44619 0.00364
C 15.96517 4.97629 -0.00831
C 14.72664 4.28117 -0.02957
C 15.95659 13.52727 0.03754
C 9.81113 32.68838 -0.01111
C 15.96145 26.26886 0.03338
C 14.78763 28.34139 -0.00109
C 12.31149 15.60722 0.0351
C 13.53358 14.91328 -0.03113
C 13.53244 13.50843 0.02098
C 12.34247 12.78313 0.01848
C 12.3054 11.37407 -0.00619
C 13.52697 10.62348 -0.02162
C 13.49767 9.21203 0.00889
C 12.27355 8.52463 -0.00481
C 12.32344 7.11774 0.00979
C 15.96097 27.6625 -0.00491
C 13.50759 6.41027 0.01443
C 12.24838 4.2768 -0.02815
C 12.30911 2.85196 -0.04147
C 13.4811 2.14901 -0.05302
C 13.51537 0.7241 0.00213
C 12.33098 34.05146 -0.00066
C 14.73601 32.63948 -0.00289
C 16.01821 31.90144 0.00028
C 15.96927 30.50791 -0.02213
C 14.76654 29.80002 0.03698
C 13.47393 4.94356 0.03505
C 14.77427 2.84003 -0.04422
C 7.41402 0.02248 0.02841
C 8.57001 2.18656 0.00406
C 3.7052 4.93818 -0.05697
C 2.43729 4.27933 0.01087
C 2.44693 2.84977 -0.01343
C 3.68581 2.17567 0.00988
C 3.6813 0.68231 0.0276
C 2.43907 0.02852 0.01305
C 4.88077 32.69651 -0.00077
C 6.11518 31.95995 0.03368
C 6.1618 30.52788 -0.02929
C 4.91983 29.87495 -0.00966
C 4.92023 28.35691 -0.03337
C 6.1531 27.72173 0.01227
C 6.19743 26.30346 0.00873
C 4.94216 25.56646 -0.00049
C 4.86057 24.19102 0.00848
C 6.17694 23.4589 -0.01303
C 6.14851 22.01573 -0.01378
C 4.91169 21.29577 0.02635
C 4.88837 19.91626 0.0127
C 3.73095 6.32121 -0.00725
C 2.49018 7.09553 0.02322
C 2.43913 8.5099 -0.00094
C 3.76022 9.2053 -0.02566
C 3.70186 30.5487 0.00907
C 2.40537 29.81132 0.00643
C 2.41991 28.47385 -0.01509
C 3.6942 27.68793 0.03267
C 3.73879 26.26196 0.02374
C 2.48126 25.57835 0.00402
C 2.51192 24.13768 0.0073
C 3.66079 23.39545 0.0174
C 3.72182 21.98441 0.03828
C 6.07875 19.12848 0.01396
C 2.44777 21.36049 0.01226
C 3.65745 19.21688 0.01996
C 3.68228 17.76676 -0.03996
C 2.49297 17.07242 0.01465
C 2.46339 15.55402 -0.00074
C 3.73604 14.92308 -0.00518
C 3.74134 13.53113 0.0086
C 2.45861 12.81474 -0.00643
C 2.44216 11.37628 0.017
C 3.6653 10.5972 -0.03113
C 2.41837 19.89725 -0.00279
C 6.1909 17.76872 0.01849
C 4.94972 17.01969 -0.01142
C 4.92187 15.63479 -0.00562
C 8.61582 23.49097 0.02147
C 8.58366 22.03092 0.00373
C 7.42927 21.31283 -0.00191
C 7.44581 19.87995 0.00438
C 8.6248 19.21232 0.01291
C 8.59263 17.65943 0.00093
C 7.37488 17.02251 0.00057
C 7.34343 15.64478 -0.01634
C 8.5736 14.87466 -0.00334
C 7.37698 24.13973 -0.014
C 8.60311 13.52417 0.02339
C 7.37768 11.39816 -0.00719
C 8.62708 10.62248 0.01364
C 8.60445 9.28282 -0.01062
C 7.36262 8.55341 -0.00033
C 7.39102 7.12562 0.03589
C 8.58917 6.37258 -0.02759
C 8.61477 4.98004 0.0402
C 7.40099 4.29206 0.00572
C 7.3483 2.86638 0.03592
C 7.35801 12.83485 0.01641
C 8.63724 0.69552 0.00943
C 7.40742 25.59219 -0.01118
C 8.58827 27.74855 -0.02896
C 6.17963 14.92781 -0.00494
C 6.12224 13.55061 0.00054
C 4.90458 12.79772 0.03007
C 4.9278 11.36207 -0.00095
C 6.07945 10.65792 0.01572
C 6.1325 9.2586 -0.04848
C 4.93822 8.49756 -0.00892
C 4.91425 7.0832 -0.01362
C 6.11687 6.44797 -0.0008
C 8.58782 26.33607 -0.00131
C 6.1699 4.98732 0.0288
C 4.86954 2.85103 0.00895
C 6.10412 2.17827 0.00685
C 6.14904 0.67795 0.02888
C 4.93172 34.07274 -0.00482
C 7.32268 32.69002 -0.01384
C 8.58143 31.96173 0.03693
C 8.6424 30.56845 0.01745
C 7.38364 29.7871 0.00488
C 7.34279 28.42884 -0.01004
C 4.8866 4.27186 0.00393
C 15.99303 2.14712 0.00654
C 15.95374 0.72235 -0.00703
C 14.69199 34.07009 -0.04076
C 30.69088 4.996 0.02108
C 29.49414 4.18418 0.00716
C 29.52628 2.86958 0.00307
C 30.70347 2.11664 0.00346
C 30.73467 0.7346 0.01713
C 29.51456 34.04579 -0.01694
C 31.97059 32.65253 0.01428
C 33.2067 31.96154 -0.02142
C 33.24981 30.53029 0.0544
C 31.9999 29.87205 0.00026
C 31.95584 28.39298 0.00682
C 33.18936 27.69599 -0.01779
C 33.19539 26.28252 0.03794
C 31.94076 25.59247 0.01927
C 32.02681 24.12268 0.01574
C 33.23695 23.39759 -0.02383
C 33.25312 21.98969 -0.01429
C 31.96935 21.33444 -0.0136
C 31.95375 19.91523 0.00594
C 30.7417 6.37616 0.0103
C 30.74505 17.7644 0.07705
C 30.74162 19.16432 0.01908
C 29.49677 19.89647 0.01518
C 28.32521 22.03347 0.00924
C 27.07962 21.22104 0.02326
C 27.06326 19.81457 0.00261
C 28.30297 19.17194 0.03265
C 27.05979 2.81315 -0.02049
C 28.29385 2.10569 -0.01854
C 28.24373 0.74061 -0.01415
C 27.11939 34.0552 -0.03039
C 29.48021 32.60408 0.01836
C 33.17591 19.19956 -0.02474
C 30.71333 31.91314 0.03531
C 29.47082 29.84067 0.0101
C 29.50277 28.39625 0.01705
C 30.7763 27.64923 -0.0405
C 30.77465 26.26207 -0.01303
C 29.50368 25.59943 -0.01461
C 29.5806 24.13217 -0.02155
C 30.75661 23.36108 -0.00944
C 30.75441 22.03282 -0.03735
C 29.54186 21.28141 -0.00971
C 30.72211 30.50595 -0.00669
C 33.23516 17.7169 0.00369
C 31.96984 17.02243 0.00455
C 31.98942 15.62328 -0.00644
C 0.01449 21.35669 -0.02213
C 34.41554 19.89139 0.01951
C 1.26056 19.22446 -0.01678
C 1.19696 17.76748 0.01223
C 0.00844 17.01573 0.00648
C 34.42506 15.59858 0.02114
C 1.26197 14.94419 -0.02957
C 1.25915 13.49507 0.00343
C 34.40257 12.72828 -0.02656
C 1.21264 22.05748 0.02712
C 34.40922 11.36779 -0.02442
C 1.25396 9.27727 -0.00583
C 34.39249 8.45566 -0.02302
C 34.39175 7.08026 -0.02849
C 1.20549 6.36647 0.02931
C 1.27019 4.95278 0.00628
C 34.38175 4.20418 -0.0345
C 34.39142 2.83421 -0.00931
C 1.23816 2.10427 -0.00939
C 1.22042 0.71396 -0.00468
C 1.20995 10.62816 -0.00027
C 28.28988 23.47776 0.0014
C 1.23273 23.48862 0.00723
C 0.00075 25.58111 -0.05239
C 33.17585 14.8898 -0.01839
C 33.16376 13.43246 0.00137
C 33.14181 10.6645 0.00199
C 33.16879 9.26484 0.04381
C 32.03255 8.45885 0.02806
C 31.94103 7.11457 0.01504
C 33.16745 6.42711 -0.00069
C 33.20698 4.99628 0.04926
C 31.97038 4.31548 -0.03838
C 34.4088 24.17037 0.03076
C 31.94799 2.8594 0.00349
C 33.2024 0.72583 -0.00841
C 31.98746 0.00133 0.0001
C 0.01002 32.66341 -0.02927
C 1.2095 31.93489 -0.01404
C 1.21296 30.52017 0.01027
C 34.41735 29.83128 0.01831
C 34.42064 28.47237 -0.01037
C 1.23333 27.62888 -0.00439
C 1.24627 26.23871 -0.00598
C 33.14757 2.11231 -0.00323
C 27.0513 24.15706 0.01324
C 27.09265 25.54265 0.04266
C 28.2083 26.2214 0.01177
C 17.20011 2.83369 0.0296
C 18.45284 2.11677 0.03374
C 18.43111 0.66059 -0.02845
C 17.18565 0.0057 -0.03213
C 19.71316 32.66857 0.02239
C 20.93323 31.93954 0.01153
C 20.90631 30.52272 0.02734
C 19.64577 29.79563 -0.0055
C 19.68129 28.35961 0.01515
C 17.20094 4.23237 0.03046
C 20.86446 27.69078 -0.00225
C 19.68306 25.54385 -0.01107
C 19.71664 24.10807 -0.01586
C 20.90237 23.47436 -0.01971
C 20.82066 21.99977 -0.02118
C 19.59741 21.28726 0.00733
C 19.67835 19.80158 -0.00178
C 20.83738 19.17343 0.00768
C 19.71758 17.06832 -0.0276
C 20.95496 4.94681 0.03005
C 20.80943 26.30544 0.00071
C 19.60228 4.20128 -0.04078
C 18.45675 4.9503 -0.00381
C 17.26321 7.07927 0.01126
C 17.28122 32.6291 -0.00652
C 18.49921 31.91107 0.0058
C 18.47159 30.51281 -0.00865
C 17.21838 29.82369 0.00675
C 17.22741 28.34203 -0.00311
C 18.41964 27.65569 0.00742
C 18.4466 26.25994 -0.01594
C 17.26624 25.50238 0.0106
C 17.27402 24.11666 -0.01154
C 18.40481 6.31337 0.01852
C 18.43405 23.41604 -0.01721
C 17.22355 21.28787 0.01277
C 17.19871 19.84156 0.00096
C 18.46259 19.17926 -0.01527
C 18.44 17.7189 0.01087
C 17.22395 17.02791 0.00199
C 17.23089 15.60562 0.01511
C 17.26306 12.75345 -0.00478
C 17.2195 11.43997 -0.01662
C 17.1967 8.54666 -0.01185
C 18.44627 21.94545 -0.02422
C 3.66586 31.97798 0.02379
C 19.68602 2.85206 0.02117
C 20.91317 0.78937 -0.00498
C 24.57317 28.37565 -0.02815
C 25.8253 27.69666 -0.00942
C 25.79002 26.28016 0.00487
C 24.57539 25.55028 0.00826
C 24.61747 24.16795 -0.00294
C 25.80951 23.47748 0.00152
C 25.83394 21.97526 0.01257
C 24.60463 21.33979 0.02316
C 24.63318 19.85473 0.04185
C 24.62601 29.79176 0.00622
C 25.76575 19.14117 0.00194
C 25.85527 2.1818 0.02611
C 25.82408 0.6838 0.02198
C 24.72732 0.02727 0.01094
C 27.03697 32.68581 0.00235
C 28.2731 31.93232 0.01495
C 28.28896 30.5217 0.01259
C 26.98405 29.81992 0.01799
C 26.98957 28.40574 0.01699
C 28.24464 27.67672 -0.00416
C 24.56509 2.84569 -0.00621
C 20.94164 2.12402 0.02737
C 25.76596 30.49964 -0.0032
C 24.58888 32.66286 -0.01654
C 19.65291 0.03943 0.00135
C 22.11047 32.63085 0.03102
C 23.32086 31.95758 0.02555
C 23.36133 30.53487 0.01423
C 22.13712 29.78998 -0.00285
C 22.12641 28.40228 -0.009
C 23.38775 27.60561 -0.01199
C 23.36796 26.27602 -0.00229
C 22.13778 25.56693 -0.00938
C 25.8205 31.9387 -0.00037
C 22.20085 24.21785 -0.0264
C 23.35558 22.01502 0.00684
C 22.08227 21.22842 -0.01052
C 22.14615 19.82288 -0.01679
C 23.35786 19.2262 0.00367
C 22.0771 4.31244 0.04306
C 22.13857 2.83436 0.00996
C 23.41696 2.16733 0.00195
C 23.40713 0.73065 -0.00802
C 22.13583 0.03428 -0.00218
C 23.36619 23.39941 -0.01154
C 2.43505 32.70642 0.01402
