330
Graphene
C 0.03799 0.01536 0.01295
C 11.11399 21.98765 -0.04147
C 9.84737 21.35598 -0.05302
C 9.81038 19.96041 0.00213
C 11.14884 19.15088 -0.00066
C 11.12296 17.78058 -0.00289
C 9.89153 17.0457 0.00028
C 9.81664 15.57079 -0.02213
C 11.03609 23.42133 -0.02815
C 10.97163 14.55907 0.03698
C 9.83252 12.72957 -0.00491
C 9.89264 11.34761 0.03338
C 11.15601 10.6122 -0.0258
C 11.10259 9.20461 -0.0331
C 9.90226 8.51318 -0.00316
C 9.82206 7.16234 0.02188
C 11.09135 6.38505 -0.01979
C 11.05794 13.42331 -0.00109
C 9.77225 24.08012 0.03505
C 9.8363 25.44855 0.01443
C 11.05437 26.25748 0.00979
C 8.59534 10.68698 0.02058
C 8.61485 9.19277 -0.01957
C 7.33647 8.58402 -0.0108
C 7.28563 7.17969 -0.00368
C 8.61161 6.49513 -0.02696
C 8.6534 5.01654 -0.00114
C 7.41767 4.28675 0.00228
C 7.36702 2.88909 0.00798
C 8.62143 2.12095 0.00422
C 8.62031 0.70994 0.0351
C 7.41677 0.05499 -0.03113
C 9.86246 32.69438 0.02098
C 11.05517 32.01532 0.01848
C 11.01628 30.59061 -0.00619
C 9.85721 29.76552 -0.02162
C 9.84672 28.39206 0.00889
C 11.06753 27.6976 -0.00481
C 11.12935 4.94017 0.02691
C 7.35803 11.3097 0.01965
C 9.86693 4.29628 -0.01581
C 11.09801 2.0783 0.04892
C 12.25406 4.17697 0.00742
C 12.32646 2.80006 -0.01594
C 13.62304 2.15817 0.0106
C 13.55606 0.73258 -0.01154
C 12.34508 0.01046 -0.01721
C 14.73165 32.77776 -0.02422
C 15.91651 31.989 0.01277
C 13.50638 4.88152 -0.00311
C 15.97399 30.53217 0.00096
C 14.75444 28.45365 0.01087
C 15.97003 27.68136 0.00199
C 15.95853 26.27579 0.01511
C 14.7175 25.58174 -0.00478
C 14.79872 24.1289 -0.01662
C 16.01541 23.43601 -0.01185
C 15.88318 21.91451 0.01126
C 14.73704 29.81141 -0.01527
C 13.55722 6.35846 0.00675
C 12.34584 7.02504 -0.00865
C 12.306 8.49962 0.0058
C 11.04456 0.64404 -0.00111
C 9.86612 34.07697 -0.03557
C 12.29429 32.63635 0.03754
C 13.50096 31.99321 0.01739
C 13.48608 30.5328 0.00755
C 12.20638 29.87513 -0.0054
C 12.22805 28.45443 0.00667
C 13.48454 27.76932 0.00143
C 13.50666 26.32494 -0.017
C 12.30463 25.51174 0.00364
C 12.28395 24.14828 -0.00831
C 13.55293 23.45864 -0.02957
C 13.56331 22.04224 -0.04422
C 12.37593 21.27963 0.00654
C 12.29328 19.95939 -0.00703
C 12.31361 11.25297 -0.04076
C 13.45739 9.14385 -0.00652
C 9.83265 2.84752 0.01452
C 7.37037 12.76676 -0.03682
C 8.61713 13.49782 0.00052
C 8.56822 14.90281 0.00374
C 2.40626 8.50325 0.02147
C 2.41543 7.09663 0.00373
C 3.64636 6.4019 -0.00191
C 3.68096 5.02267 0.00438
C 2.53793 4.20957 0.01291
C 2.43169 2.8006 0.00093
C 3.67581 2.08342 0.00057
C 3.65532 9.17282 -0.014
C 3.7336 0.65858 -0.01634
C 4.86697 32.59144 0.02339
C 6.18426 31.94096 0.01641
C 6.20951 30.55689 -0.00719
C 4.9225 29.89083 0.01364
C 4.90487 28.37831 -0.01062
C 6.09984 27.67261 -0.00033
C 6.09109 26.27018 0.03589
C 2.46636 0.05749 -0.00334
C 3.67504 10.60299 -0.01118
C 2.45467 11.39253 -0.00131
C 2.41342 12.81693 -0.02896
C 3.61808 30.52699 -0.00095
C 2.43776 29.82479 0.01572
C 2.49462 28.46496 -0.04848
C 3.70853 27.69844 -0.00892
C 3.68512 26.30252 -0.01362
C 2.45553 25.60052 -0.0008
C 2.43951 24.22588 0.0288
C 3.63983 23.51486 0.00393
C 3.71049 22.06827 0.00895
C 2.46678 21.27057 0.00685
C 2.41033 19.88267 0.02888
C 3.65619 19.17344 -0.00482
C 3.73869 17.74228 -0.01384
C 2.51744 17.01359 0.03693
C 2.46445 15.60805 0.01745
C 3.74658 14.87669 0.00488
C 3.70884 13.49551 -0.01004
C 4.84307 25.61108 -0.02759
C 4.86762 24.2197 0.0402
C 6.14568 23.48592 0.00572
C 6.22879 21.99516 0.03592
C 7.38578 32.68164 0.01363
C 8.66132 31.95193 -0.02162
C 8.64285 30.47188 0.00415
C 7.39233 29.75897 -0.0014
C 7.27947 28.35082 0.02162
C 8.55154 27.78334 0.0076
C 8.57431 26.32673 0.01241
C 7.3321 25.62774 -0.01454
C 7.40064 24.15694 0.01945
C 8.57192 23.35739 0.01416
C 8.65038 22.04259 0.03542
C 7.40161 21.35679 0.02299
C 7.38976 19.95233 0.00244
C 8.59292 19.14033 -0.01717
C 8.56196 17.68426 0.05265
C 7.3524 16.98408 -0.01952
C 7.38274 15.58858 -0.02813
C 4.93775 34.03954 0.01877
C 14.85263 21.44597 0.01852
C 6.16364 0.76248 -0.00925
C 4.86936 2.83797 -0.01789
C 4.99355 21.29716 0.00406
C 4.97174 19.89667 0.00943
C 6.19877 19.18038 0.02841
C 6.11823 17.65275 -0.01111
C 4.88727 16.96703 -0.01275
C 4.87044 15.63041 0.00985
C 6.07099 14.85498 -0.02245
C 6.15124 13.45773 -0.00428
C 4.87876 12.78866 0.03101
C 4.90815 11.377 -0.01536
C 6.15992 10.63845 -0.02689
C 6.09949 9.24848 -0.01046
C 4.88445 8.5602 -0.00891
C 4.92744 7.15367 0.02819
C 6.13414 6.3882 0.00165
C 6.18475 4.97891 -0.02971
C 4.96476 4.32087 0.02894
C 6.11808 2.17743 0.00444
C 14.78904 7.11587 -0.00381
C 16.00151 6.46448 0.03046
C 15.95527 5.05744 0.0296
C 29.61196 0.07605 0.00026
C 31.95375 32.72936 0.00682
C 33.16294 32.06667 -0.01779
C 33.17131 30.60986 0.03794
C 31.97147 29.84751 0.01927
C 31.91483 28.41887 0.01574
C 33.19054 27.73251 -0.02383
C 30.65531 0.6245 0.0544
C 33.21078 26.29044 -0.01429
C 31.9313 24.23553 0.00594
C 33.14605 23.48415 -0.02474
C 33.19253 22.05195 0.00369
C 31.90046 21.31683 0.00455
C 31.89252 19.90999 -0.00644
C 33.19524 19.11907 -0.01839
C 33.22057 17.73115 0.00137
C 31.88908 25.65672 -0.0136
C 30.66334 10.73314 -0.02142
C 29.71288 11.47046 0.01428
C 29.56873 12.6521 -0.01694
C 30.72776 30.56646 0.01705
C 29.44034 29.80668 -0.0405
C 29.51157 28.42212 -0.01303
C 30.70486 27.71821 -0.01461
C 30.59937 26.29696 -0.02155
C 29.41772 25.56271 -0.00944
C 29.44795 24.03251 -0.03735
C 30.72967 23.4961 -0.00971
C 30.69393 22.05079 0.01518
C 29.4977 21.30726 0.01908
C 29.51052 19.87296 0.07705
C 30.72821 19.19401 0.0103
C 30.74069 17.77753 0.02108
C 29.51877 17.03944 0.00716
C 29.58637 15.67219 0.00307
C 30.67657 14.91344 0.00346
C 30.71116 13.48401 0.01713
C 31.93872 17.06961 0.00199
C 31.90403 15.65532 0.04381
C 33.21358 14.92201 0.02806
C 33.23353 13.44138 0.01504
C 1.30405 17.7179 0.01223
C 0.00912 17.06984 0.00648
C 0.00948 15.64203 0.02114
C 1.22231 14.91985 -0.02957
C 1.17201 13.48755 0.00343
C 34.40727 12.8045 -0.02656
C 0.01725 11.37029 -0.02442
C 1.27084 10.69356 -0.00027
C 1.21433 9.19842 -0.00583
C 34.4058 8.43733 -0.02302
C 0.07066 7.09683 -0.02849
C 1.20003 6.40316 0.02931
C 1.20562 4.90608 0.00628
C 34.39061 4.26132 -0.0345
C 34.42127 2.79837 -0.00931
C 1.21397 2.07657 -0.00939
C 1.20642 0.73324 -0.00468
C 1.16896 19.10649 -0.01678
C 30.71823 32.00486 0.0101
C 34.40555 19.858 0.01951
C 1.27539 21.97606 0.02712
C 31.97047 12.76703 -0.00069
C 31.98118 11.36222 0.04926
C 33.25049 10.59265 -0.03838
C 33.21039 9.16659 0.00349
C 33.25034 2.08123 -0.00323
C 33.24347 0.70822 -0.00841
C 31.95301 0.02164 0.0001
C 0.0125 32.66925 -0.02927
C 1.23658 31.97635 -0.01404
C 1.2075 30.59096 0.01027
C 0.00705 29.93827 0.01831
C 0.00137 28.44242 -0.01037
C 1.25144 27.79595 -0.00439
C 1.18702 26.32918 -0.00598
C 34.42964 25.55863 -0.05239
C 0.00507 24.15802 0.03076
C 1.26256 23.46961 0.00723
C 0.03521 21.2945 -0.02213
C 3.63773 31.92258 0.03007
C 29.45368 32.74151 -0.00669
C 28.34858 17.79201 0.01836
C 17.18521 0.04688 0.02737
C 19.60588 32.57057 -0.00498
C 20.87581 31.9069 0.00135
C 20.91318 30.52243 0.03102
C 19.72831 29.82116 0.02555
C 19.60817 28.35689 0.01423
C 20.83183 27.71426 -0.00285
C 18.45533 0.66894 0.02117
C 20.88024 26.2731 -0.009
C 19.6503 23.96656 -0.00229
C 20.88529 23.60641 -0.00938
C 21.07755 4.90635 -0.0264
C 19.66524 4.30036 -0.01154
C 19.68074 2.80551 0.00684
C 20.81778 2.10069 -0.01052
C 20.80385 0.68162 -0.01679
C 19.66002 25.59142 -0.01199
C 18.47971 2.10493 -0.04078
C 17.20788 2.83757 0.03005
C 17.1191 4.24431 -0.0276
C 14.76332 4.32327 0.03374
C 14.77915 2.93352 -0.02845
C 15.95868 2.20397 -0.03213
C 15.97252 0.70956 0.02239
C 14.73289 0.08794 0.01153
C 17.23867 32.69628 0.02734
C 18.43422 31.9282 -0.0055
C 18.42848 30.47926 0.01515
C 17.17442 29.8174 -0.00225
C 17.18354 28.38971 0.00071
C 18.3775 27.76285 -0.01107
C 18.4362 26.21654 -0.01586
C 17.1948 25.52504 -0.01971
C 17.19761 24.15021 -0.02118
C 18.3831 23.51635 0.00733
C 18.48445 6.3376 -0.00178
C 18.38905 4.94356 0.00768
C 19.63822 34.03536 0.00367
C 22.13507 32.63468 0.04306
C 23.374 31.92127 0.00996
C 23.35609 30.52671 0.00195
C 25.80848 23.34824 0.01495
C 25.87624 22.00395 0.01259
C 24.68342 0.00078 0.01799
C 27.02413 32.66252 0.01699
C 28.29454 31.87982 -0.00416
C 28.28088 30.48388 0.01177
C 26.99457 29.79478 0.04266
C 27.10626 28.37554 0.01324
C 28.33916 27.67023 0.0014
C 28.24454 26.28234 0.00924
C 26.95878 25.54902 0.02326
C 27.00035 24.08983 0.00261
C 28.23978 23.3561 0.03265
C 28.26992 22.03508 -0.02049
C 27.01911 21.23386 -0.01854
C 27.11691 19.92192 -0.01415
C 28.10544 19.12159 -0.03039
C 24.5256 24.03308 0.00235
C 27.05146 34.01422 0.03531
C 24.59262 25.51703 0.01094
C 25.88073 27.65269 0.02611
C 22.17824 29.77647 -0.00802
C 22.1596 28.35804 -0.00218
C 23.39587 27.6754 -0.01654
C 23.39664 26.19811 -0.00037
C 22.08615 25.54125 -0.0032
C 22.13945 24.11343 0.00622
C 23.41615 23.32266 -0.02815
C 22.06321 4.27569 -0.00942
C 22.15278 2.77449 0.00487
C 23.28436 2.09797 0.00826
C 23.46608 0.72812 -0.00294
C 22.13695 34.06541 0.00152
C 24.61358 32.69398 0.01257
C 25.79839 31.92273 0.02316
C 25.82448 30.54635 0.04185
C 24.64212 29.81796 0.00194
C 24.67346 28.40008 -0.00621
C 25.8503 26.29401 0.02198
C 2.45908 32.72827 0.00054
