338
Graphene
C 0.03705 0.04799 0.01295
C 17.14136 15.58566 0.00889
C 18.45413 14.97796 -0.00481
C 18.42401 13.53574 0.00979
C 17.29834 12.73826 0.01443
C 18.52597 10.59868 0.03505
C 18.49897 9.37216 -0.02815
C 17.16547 7.05606 -0.04147
C 18.3401 6.34887 -0.05302
C 18.39089 4.81781 0.00213
C 17.21266 4.19645 -0.00066
C 17.27653 2.83944 -0.00289
C 18.51708 2.08479 0.00028
C 18.51388 0.68498 -0.02213
C 17.30085 34.06888 0.03698
C 19.68387 32.73205 -0.00109
C 20.88375 31.9196 -0.00491
C 20.942 30.42766 0.03338
C 17.13228 17.00232 -0.02162
C 19.69972 29.71834 -0.0258
C 18.36099 17.66509 -0.00619
C 17.20252 19.89016 0.02098
C 16.03641 14.82914 -0.01952
C 14.59548 2.86743 -0.02813
C 15.89548 2.27189 0.00374
C 16.04562 0.80798 0.00052
C 14.76169 0.06233 -0.03682
C 17.24295 32.64611 0.01965
C 18.4647 31.98878 0.02058
C 18.49182 30.50823 -0.01957
C 17.25768 29.80863 -0.0108
C 17.23253 28.41357 -0.00368
C 18.44499 27.7603 -0.02696
C 18.42262 26.31587 -0.00114
C 17.18876 25.58066 0.00228
C 17.23346 24.1143 0.00798
C 18.49366 23.41732 0.00422
C 18.44933 22.07796 0.0351
C 17.30261 21.33277 -0.03113
C 18.39663 19.13539 0.01848
C 14.76188 17.09833 0.05265
C 19.67851 28.37079 -0.0331
C 20.8454 26.27542 0.02188
C 19.75643 2.75855 -0.00652
C 21.01649 2.1213 0.0058
C 20.97073 0.7344 -0.00865
C 19.72424 0.01698 0.00675
C 22.0956 32.6704 -0.00311
C 23.32644 31.95707 0.00742
C 23.31391 30.51053 -0.01594
C 22.12466 29.7905 0.0106
C 22.11675 28.3669 -0.01154
C 23.33892 27.6719 -0.01721
C 23.31209 26.26065 -0.02422
C 22.05039 25.57352 0.01277
C 22.14643 24.14308 0.00096
C 23.36788 23.43615 -0.01527
C 23.37551 22.0205 0.01087
C 22.12718 21.30734 0.00199
C 22.12105 19.8837 0.01511
C 19.67705 4.17115 -0.04076
C 20.89733 27.6454 -0.00316
C 20.87697 4.98629 -0.00703
C 19.68424 7.07627 -0.04422
C 19.61983 25.56837 -0.01979
C 19.63981 24.13232 0.02691
C 20.83046 23.41822 -0.01581
C 20.8562 22.011 0.01452
C 19.62947 21.35814 0.04892
C 19.599 19.88627 -0.00111
C 20.88261 19.20746 -0.03557
C 20.86463 17.74671 0.03754
C 19.66968 17.04846 0.01739
C 19.68336 15.65055 0.00755
C 20.90178 14.97253 -0.0054
C 20.93314 13.51675 0.00667
C 19.69963 12.80967 0.00143
C 19.6705 11.35598 -0.017
C 20.89789 10.61657 0.00364
C 20.88365 9.25941 -0.00831
C 19.68914 8.53979 -0.02957
C 20.88597 6.36113 0.00654
C 15.92314 17.75163 -0.01717
C 15.93358 19.21186 0.00244
C 14.69298 19.92072 0.02299
C 6.06181 30.56075 0.03693
C 4.91986 29.83967 0.01745
C 4.97798 28.37654 0.00488
C 6.13266 27.68266 -0.01004
C 4.80779 15.42502 -0.02896
C 4.97185 2.7755 -0.00131
C 6.07876 2.1532 -0.01118
C 6.11788 0.69703 -0.014
C 4.89326 0.00272 0.02147
C 7.37172 32.70409 0.00373
C 8.61421 31.97895 -0.00191
C 8.57293 30.51586 0.00438
C 7.36074 29.84285 0.01291
C 7.31869 28.32825 0.00093
C 8.59 27.81164 0.00057
C 8.62669 2.02947 -0.01634
C 8.5456 0.72483 -0.00334
C 6.12665 32.00438 -0.01384
C 7.31442 34.07677 0.02339
C 4.89084 32.66086 -0.00482
C 3.70683 0.75889 0.00685
C 3.70695 30.49069 0.0127
C 2.49593 29.87933 0.01396
C 2.48426 28.42745 0.01849
C 3.69686 27.70143 -0.01142
C 3.45657 26.37416 -0.00562
C 2.51858 25.67293 -0.00494
C 2.37433 16.91744 0.00054
C 2.41036 15.58912 0.03007
C 3.68904 15.03116 -0.00095
C 2.49214 12.6204 0.01572
C 2.5136 11.44867 -0.04848
C 2.36896 8.33305 -0.00892
C 2.53844 7.14567 -0.01362
C 3.65484 4.95021 -0.0008
C 2.41102 4.34381 0.0288
C 2.41866 2.8778 0.00393
C 3.68072 2.21879 0.00895
C 2.53119 0.00554 0.02888
C 9.84777 32.66234 0.01641
C 11.07179 31.9138 -0.00719
C 11.04192 30.48518 0.01364
C 13.53506 17.59127 -0.02971
C 12.11571 17.03726 0.02894
C 13.54576 2.28311 -0.01789
C 13.44834 0.84121 0.00444
C 12.26301 0.06112 -0.00925
C 14.81629 32.70793 0.01877
C 16.00758 31.90566 0.01363
C 16.03909 30.52581 -0.02162
C 14.82041 29.89131 0.00415
C 14.77662 28.47831 -0.0014
C 15.97093 27.67864 0.02162
C 15.91009 26.26183 0.0076
C 14.69995 25.51979 0.01241
C 14.8007 24.17511 -0.01454
C 16.0274 23.40436 0.01945
C 16.04343 21.98988 0.01416
C 14.79716 21.37716 0.03542
C 13.51606 19.13902 0.00165
C 12.43343 20.0232 0.02819
C 12.50865 21.16065 -0.00891
C 13.53239 22.08916 -0.01046
C 9.77139 29.69053 -0.01062
C 9.81315 28.33477 -0.00033
C 11.02818 27.64338 0.03589
C 10.93711 26.25671 -0.02759
C 11.12092 17.70119 0.0402
C 11.00326 2.17908 0.00572
C 11.0382 0.79925 0.03592
C 9.8595 34.05277 0.00406
C 23.36415 19.24233 -0.00478
C 12.31393 32.73832 0.00943
C 13.55536 30.6213 -0.01111
C 12.27887 29.79367 -0.01275
C 12.28783 28.4103 0.00985
C 13.56358 27.74071 -0.02245
C 13.52116 26.29406 -0.00428
C 12.15352 25.55292 0.03101
C 12.39403 24.17204 -0.01536
C 13.5599 23.53275 -0.02689
C 13.56214 32.01834 0.02841
C 23.36062 17.84307 -0.01662
C 22.16427 17.13135 -0.01185
C 22.09176 15.70704 0.01126
C 33.17541 31.97396 -0.02142
C 33.16945 30.54666 0.0544
C 31.95023 29.82519 0.00026
C 32.04492 28.41524 0.00682
C 33.20493 27.70185 -0.01779
C 33.17018 26.29263 0.03794
C 31.90878 25.63157 0.01927
C 31.96665 24.20707 0.01574
C 33.09163 23.41465 -0.02383
C 33.15907 21.99122 -0.01429
C 31.9399 21.28655 -0.0136
C 31.98563 19.87949 0.00594
C 33.16526 19.20384 -0.02474
C 33.18749 17.84383 0.00369
C 32.00998 17.07827 0.00455
C 31.97067 15.59563 -0.00644
C 33.25921 14.89776 -0.01839
C 31.94887 32.66461 0.01428
C 33.2334 13.51317 0.00137
C 29.51007 34.04632 -0.01694
C 30.72974 2.13067 0.00346
C 29.42174 25.56062 -0.00669
C 29.51167 24.10215 0.0101
C 30.75063 23.48464 0.01705
C 30.68763 22.02975 -0.0405
C 29.48143 21.3554 -0.01303
C 29.54764 19.85955 -0.01461
C 30.71928 19.16722 -0.02155
C 30.77675 17.80638 -0.00944
C 29.54576 17.0551 -0.03735
C 29.56208 15.6887 -0.00971
C 30.71382 14.92415 0.01518
C 30.6883 13.45514 0.01908
C 29.50755 12.76212 0.07705
C 30.63356 6.53108 0.0103
C 30.73766 5.0052 0.02108
C 29.58527 4.19087 0.00716
C 29.50788 2.80758 0.00307
C 30.74944 0.72277 0.01713
C 31.97567 12.78725 0.00199
C 32.01011 11.40568 0.04381
C 33.08472 10.60723 0.02806
C 1.32422 17.80853 0.01223
C 34.40772 17.08978 0.00648
C 0.05765 15.64847 0.02114
C 1.21502 14.81778 -0.02957
C 1.31824 13.41212 0.00343
C 0.0181 12.81912 -0.02656
C 0.01314 11.37176 -0.02442
C 1.26274 10.59953 -0.00027
C 1.21916 9.23976 -0.00583
C 0.00374 8.44363 -0.02302
C 34.40188 7.02377 -0.02849
C 1.20722 6.38489 0.02931
C 1.13532 4.96844 0.00628
C 34.36943 4.28856 -0.0345
C 34.41455 2.82025 -0.00931
C 1.25251 2.09303 -0.00939
C 1.29838 0.67325 -0.00468
C 1.24101 19.15805 -0.01678
C 0.11253 19.89854 0.01951
C 34.36164 21.28027 -0.02213
C 1.19853 23.45145 0.02712
C 33.32324 9.12902 0.01504
C 31.84067 7.07367 -0.00069
C 33.13882 6.37675 0.04926
C 33.17425 4.99851 -0.03838
C 31.97168 4.28628 0.00349
C 31.95917 2.91806 -0.00323
C 33.18585 2.20199 -0.00841
C 33.2355 0.74523 0.0001
C 30.69573 26.27773 0.03531
C 31.98029 0.01855 -0.02927
C 1.21193 31.98604 0.01027
C 1.2961 30.58087 0.01831
C 0.02604 29.77912 -0.01037
C 34.42896 28.40097 -0.00439
C 1.24891 27.74096 -0.00598
C 1.26617 26.26859 -0.05239
C 0.02199 25.65269 0.03076
C 34.42684 24.04266 0.00723
C 34.41129 32.65319 -0.01404
C 3.66659 31.93352 0.02635
C 30.82703 27.70999 0.01836
C 29.49185 29.77762 -0.01415
C 25.7434 26.22397 -0.0276
C 24.52888 25.5326 0.03005
C 24.60364 24.16761 -0.04078
C 25.80207 23.44157 0.02117
C 25.82271 22.05048 0.02737
C 24.6058 21.33088 -0.00498
C 24.62364 19.90642 0.00135
C 25.81751 19.14707 0.03102
C 25.76724 17.71124 0.02555
C 24.49537 17.02188 0.01423
C 24.57938 15.61154 -0.00285
C 25.86823 14.85552 -0.009
C 25.79991 13.495 -0.01199
C 24.57278 12.8129 -0.00229
C 24.5313 11.39755 -0.00938
C 25.76899 10.72738 -0.0264
C 25.79956 9.24792 -0.01154
C 25.80943 27.68482 0.00768
C 24.62092 8.51565 0.00684
C 24.56025 28.40695 -0.00178
C 25.86094 30.55224 -0.02118
C 23.35516 14.90691 0.01852
C 23.3057 13.5015 -0.00381
C 22.11509 12.81986 0.03046
C 22.11008 11.40198 0.0296
C 23.37438 10.62472 0.03374
C 23.33627 9.1853 -0.02845
C 22.08627 8.53609 -0.03213
C 22.13493 7.06611 0.02239
C 23.35117 6.33839 0.01153
C 23.34462 4.91166 0.02734
C 22.05186 4.23828 -0.0055
C 22.17861 2.83162 0.01515
C 23.34299 2.10738 -0.00225
C 23.3542 0.66958 0.00071
C 22.13518 0.03691 -0.01107
C 24.59923 32.67025 -0.01586
C 25.87729 31.94958 -0.01971
C 24.6114 29.76705 0.00733
C 24.65772 7.0725 -0.01052
C 25.78784 6.35419 -0.01679
C 25.79951 4.94594 0.00367
C 28.33967 14.91263 0.01094
C 28.34071 13.44107 0.00235
C 27.06888 12.82608 0.01495
C 27.00962 11.36022 0.01259
C 28.08226 10.61372 0.01799
C 26.99023 8.51327 0.01699
C 27.10429 7.12138 -0.00416
C 28.39726 6.28866 0.01177
C 28.29731 4.96608 0.04266
C 26.9616 4.2246 0.01324
C 26.99045 2.79474 0.0014
C 28.27817 2.09539 0.00924
C 28.26326 0.69953 0.02326
C 27.11565 34.05431 0.00261
C 29.55563 32.61534 0.03265
C 30.76828 31.95602 -0.02049
C 30.70659 30.48028 -0.01854
C 27.10484 15.53253 0.02198
C 26.98074 16.9613 0.02611
C 28.25811 17.72792 -0.00621
C 28.32159 19.15504 0.00194
C 24.56486 4.15391 0.04306
C 24.5804 2.77366 0.00996
C 25.76828 2.07813 0.00195
C 25.84039 0.67162 -0.00802
C 24.58074 34.06767 -0.00218
C 27.10801 32.65511 -0.01654
C 28.30094 31.95824 -0.00037
C 28.25746 30.53114 -0.0032
C 29.56642 28.37866 -0.03039
C 27.09661 29.84132 0.00622
C 28.32442 27.75485 -0.00942
C 28.27787 26.31488 0.00487
C 27.05744 25.53299 0.00826
C 27.02638 24.10202 -0.00294
C 28.25203 23.4636 0.00152
C 28.23411 22.04944 0.01257
C 27.04596 21.33508 0.02316
C 27.05941 19.88697 0.04185
C 27.03215 28.45247 -0.02815
C 2.46669 32.59348 -0.01378
