303
Graphene
C 34.3372 0.1268 0.01295
C 15.77257 23.64453 0.01452
C 15.0039 11.16925 0.04892
C 16.20024 10.56996 -0.00111
C 16.03505 9.13861 -0.03557
C 14.73377 8.65691 0.03754
C 14.57704 7.21651 0.01739
C 15.80062 6.41359 0.00755
C 15.84107 4.97922 -0.0054
C 14.67195 4.26894 0.00667
C 14.71472 2.87271 0.00143
C 15.9928 2.16008 -0.017
C 16.00939 0.70902 0.00364
C 14.76745 34.04679 -0.00831
C 17.30845 32.63106 -0.02957
C 18.47167 31.95305 -0.04422
C 14.86511 25.36104 -0.01581
C 18.46756 30.52374 0.00654
C 15.9383 26.15959 0.02691
C 14.69 28.23068 0.02188
C 13.66077 10.86246 -0.02815
C 13.46267 9.4268 -0.04147
C 12.2065 8.60903 -0.05302
C 12.19214 7.16852 0.00213
C 13.3888 6.57838 -0.00066
C 13.48668 5.08192 -0.00289
C 12.30417 4.33095 0.00028
C 12.24913 2.86091 -0.02213
C 13.50025 2.08736 0.03698
C 13.51079 0.70164 -0.00109
C 12.33769 0.01102 -0.00491
C 14.87294 32.65471 0.03338
C 16.0772 31.85289 -0.0258
C 15.96386 30.38967 -0.0331
C 14.7418 29.67985 -0.00316
C 15.99854 27.68978 -0.01979
C 12.43229 11.50125 0.03505
C 17.29078 29.74716 -0.00703
C 18.48909 27.48507 -0.00652
C 20.94272 30.47175 0.01126
C 19.72632 29.79972 0.01852
C 19.70531 28.32703 -0.00381
C 20.85827 27.57074 0.03046
C 20.80935 26.01756 0.0296
C 19.67754 25.23613 0.03374
C 19.61352 23.81618 -0.02845
C 20.85707 23.40365 -0.03213
C 19.6703 8.65895 0.02239
C 19.59584 7.17993 0.01153
C 20.81913 6.52456 0.02734
C 20.69499 5.12252 -0.0055
C 19.53247 4.34772 0.01515
C 19.50043 2.9212 -0.00225
C 20.76159 2.16961 0.00071
C 20.94658 31.95152 -0.01185
C 17.27526 28.33366 -0.04076
C 19.68987 32.66645 -0.01662
C 18.35812 0.706 0.01511
C 18.51413 26.07402 0.0058
C 17.29428 25.46501 -0.00865
C 17.09973 23.99847 0.00675
C 18.1864 23.19651 -0.00311
C 18.01106 21.84222 0.00742
C 17.79787 20.45639 -0.01594
C 17.80217 10.7415 0.0106
C 18.3394 9.4544 -0.01154
C 17.13778 8.38105 -0.01721
C 17.0698 7.04274 -0.02422
C 18.35455 6.49245 0.01277
C 18.37543 5.1133 0.00096
C 17.1491 4.34612 -0.01527
C 17.15245 2.88217 0.01087
C 18.36327 2.14446 0.00199
C 17.18977 0.02591 -0.00478
C 20.80228 0.78318 -0.01107
C 13.43526 27.58409 0.01443
C 12.32387 29.70217 -0.00481
C 6.19004 31.85013 0.00985
C 6.20329 30.48423 -0.02245
C 4.92272 29.83199 -0.00428
C 4.56543 28.55246 0.03101
C 4.76414 12.75403 -0.01536
C 4.84516 11.36122 -0.02689
C 6.13645 10.69935 -0.01046
C 6.0701 9.24801 -0.00891
C 4.81129 8.51152 0.02819
C 4.79733 7.09936 0.00165
C 6.06352 6.40856 -0.02971
C 6.08359 4.97422 0.02894
C 4.81449 4.22479 -0.01789
C 4.84181 2.85868 0.00444
C 6.08306 2.19633 -0.00925
C 4.9828 32.68901 -0.01275
C 6.13715 0.74554 0.01877
C 2.43357 0.05338 -0.01111
C 3.64846 2.17176 0.00943
C 3.67484 30.54982 0.00057
C 2.38953 29.84846 -0.01634
C 2.4039 28.47052 -0.00334
C 3.59407 27.61252 0.02339
C 3.68033 13.54918 0.01641
C 2.50185 12.84855 -0.00719
C 2.35312 11.45353 0.01364
C 3.5602 10.66073 -0.01062
C 3.53864 9.25538 -0.00033
C 2.30605 8.55695 0.03589
C 2.34388 7.09425 -0.02759
C 3.59845 6.34269 0.0402
C 3.6227 4.98618 0.00572
C 2.39979 4.31492 0.03592
C 2.37945 2.91065 0.00406
C 3.65008 0.70453 0.02841
C 12.38867 28.25897 0.00979
C 4.88425 0.01163 0.01363
C 8.60386 31.86723 0.00415
C 9.8639 11.53611 -0.01957
C 11.10019 10.81729 -0.0108
C 10.96462 9.40664 -0.00368
C 9.82812 8.66105 -0.02696
C 9.83729 7.08308 -0.00114
C 11.01477 6.35807 0.00228
C 10.99473 4.9889 0.00798
C 9.84466 4.26971 0.00422
C 9.8111 2.86552 0.0351
C 11.01631 2.11173 -0.03113
C 11.06877 0.67116 0.02098
C 9.82882 33.98525 0.01848
C 12.33808 32.63662 -0.00619
C 13.50644 31.86122 -0.02162
C 13.49547 30.46555 0.00889
C 9.84658 28.34969 0.02058
C 7.36642 32.56059 -0.02162
C 9.90466 29.71386 0.01965
C 11.17572 31.85242 0.00052
C 8.66948 30.51087 -0.0014
C 7.47234 29.84443 0.02162
C 7.36602 11.3503 0.0076
C 8.60577 10.80941 0.01241
C 8.54412 9.30023 -0.01454
C 7.36497 8.59007 0.01945
C 7.30316 7.1173 0.01416
C 8.54466 6.4279 0.03542
C 8.54618 4.9651 0.02299
C 7.30109 4.37484 0.00244
C 7.27596 2.9312 -0.01717
C 8.57451 2.19016 0.05265
C 8.63592 0.76363 -0.01952
C 7.34482 34.02007 -0.02813
C 9.80109 32.47417 0.00374
C 11.03278 30.46864 -0.03682
C 3.69356 32.02951 0.00093
C 19.63233 34.04047 -0.01586
C 23.31607 31.93577 -0.02118
C 33.12357 26.24622 0.01574
C 31.91617 25.54383 -0.02383
C 31.91642 24.13733 -0.01429
C 33.09472 23.4893 -0.0136
C 33.13817 22.07836 0.00594
C 31.91496 21.34486 -0.02474
C 31.9276 19.88568 0.00369
C 33.1021 19.15275 0.00455
C 33.3217 17.79686 -0.00644
C 31.61313 16.77345 -0.01839
C 31.9255 15.40009 0.00137
C 33.4693 14.9861 0.00199
C 33.43226 13.58023 0.04381
C 32.13183 12.96159 0.02806
C 31.81503 11.55319 0.01504
C 33.15851 27.75071 0.01927
C 33.00636 10.87361 -0.00069
C 31.92681 28.41767 0.03794
C 33.069 30.55486 0.00682
C 31.30197 14.11161 -0.00971
C 29.10443 11.55515 0.01518
C 30.39408 10.94998 0.01908
C 30.49215 9.54653 0.07705
C 29.23462 8.89359 0.0103
C 29.36728 7.31986 0.02108
C 30.61164 6.63257 0.00716
C 30.58846 5.13793 0.00307
C 29.37935 4.3882 0.00346
C 29.43416 2.94283 0.01713
C 30.59448 2.32905 -0.01694
C 30.5535 0.8976 0.01428
C 29.4145 0.05734 -0.02142
C 31.8931 32.80469 0.0544
C 33.11897 32.02078 0.00026
C 31.89132 29.83928 -0.01779
C 30.81351 17.76493 -0.03735
C 33.05464 9.44438 0.04926
C 31.83785 7.30918 0.00349
C 0.22929 15.78668 0.02114
C 1.24286 14.95113 -0.02957
C 1.35571 13.59764 0.00343
C 0.14341 12.9416 -0.02656
C 34.3414 11.48853 -0.02442
C 1.10694 10.77333 -0.00027
C 1.06411 9.38145 -0.00583
C 34.29419 8.65276 -0.02302
C 34.32013 7.2295 -0.02849
C 1.09609 6.49072 0.02931
C 1.12183 5.05044 0.00628
C 34.37351 4.32823 -0.0345
C 34.34725 2.86996 -0.00931
C 1.14313 2.18318 -0.00939
C 1.18872 0.79923 -0.00468
C 34.35886 17.15984 0.00648
C 31.83674 8.71699 -0.03838
C 34.18742 19.94336 0.01223
C 34.23821 24.17047 0.01951
C 33.03578 6.54559 -0.00323
C 33.17334 5.12296 -0.00841
C 31.88805 4.4106 0.0001
C 31.92388 3.04066 -0.02927
C 33.09972 2.25488 -0.01404
C 33.09938 0.83867 0.01027
C 31.87089 0.13939 0.01831
C 34.36384 32.79156 -0.01037
C 1.20557 32.03959 -0.00439
C 1.16469 30.61057 -0.00598
C 34.41637 29.81574 -0.05239
C 34.40793 28.41065 0.03076
C 1.1925 27.72653 0.00723
C 1.1618 26.33903 0.02712
C 0.0617 25.54377 -0.02213
C 34.3523 21.33798 -0.01678
C 22.09485 32.69137 -0.01971
C 30.68444 19.11916 -0.00944
C 29.47554 21.29127 -0.01461
C 25.80639 30.5478 -0.01154
C 24.56918 29.77689 0.00684
C 24.54075 28.37812 -0.01052
C 25.71775 27.6245 -0.01679
C 25.73393 26.20325 0.00367
C 24.53805 25.45358 0.04306
C 24.54753 24.06252 0.00996
C 25.84567 23.30558 0.00195
C 25.81548 21.95615 -0.00802
C 25.54192 9.12375 -0.00218
C 24.28794 8.67832 -0.01654
C 24.3478 7.19937 -0.00037
C 25.60572 6.56858 -0.0032
C 25.66364 5.10473 0.00622
C 24.41432 4.47826 -0.02815
C 25.82863 31.99838 -0.0264
C 24.45533 2.99634 -0.00942
C 24.51437 32.70007 -0.00938
C 23.25363 0.84583 -0.01199
C 23.31706 30.50348 0.00733
C 22.13366 29.75822 -0.00178
C 22.09234 28.36971 0.00768
C 23.22931 27.63061 -0.0276
C 23.3346 26.14941 0.03005
C 22.13205 25.33328 -0.04078
C 22.14128 23.89939 0.02117
C 23.42183 23.35799 0.02737
C 21.66761 8.86063 -0.00498
C 21.87825 7.47204 0.00135
C 23.05033 6.58187 0.03102
C 23.1219 5.21954 0.02555
C 21.96716 4.36758 0.01423
C 22.03867 2.90085 -0.00285
C 23.26319 2.13106 -0.009
C 22.08833 0.07034 -0.00229
C 29.45256 19.91081 -0.02155
C 25.72894 2.27785 0.00487
C 24.51531 0.12638 -0.00294
C 26.91311 2.98246 0.00924
C 28.17899 2.27895 0.02326
C 28.20129 0.83257 0.00261
C 26.97074 0.04574 0.03265
C 29.43638 32.7089 -0.02049
C 30.67753 31.97865 -0.01854
C 30.69832 30.57534 -0.01415
C 29.45105 29.82592 -0.03039
C 29.48404 28.45363 0.01836
C 30.73378 27.6519 0.03531
C 30.6693 26.26172 -0.00669
C 29.38789 25.6243 0.0101
C 29.44453 24.20671 0.01705
C 30.66543 23.43504 -0.0405
C 30.69716 22.05063 -0.01303
C 26.9143 4.42623 0.0014
C 25.76965 0.8207 0.00826
C 28.15842 5.16503 0.01324
C 26.83529 7.19797 0.01177
C 27.00987 32.67662 0.00152
C 28.23413 31.94478 0.01257
C 28.28549 30.57064 0.02316
C 27.03489 29.80051 0.04185
C 26.92241 28.40632 0.00194
C 28.21895 27.78888 -0.00621
C 28.1332 26.41919 0.02611
C 26.96363 25.5524 0.02198
C 26.96448 24.06392 0.01094
C 28.21915 23.38949 0.00235
C 28.19516 21.96788 0.01495
C 27.00075 21.24147 0.01259
C 27.99533 10.93072 0.01799
C 27.99615 9.50882 0.01699
C 26.77099 8.65594 -0.00416
C 28.11262 6.60651 0.04266
C 2.44338 32.71119 0.01291
