427
Graphene
C 34.39374 34.06792 0.01295
C 12.26721 21.35085 -0.02759
C 12.30693 19.94895 0.0402
C 13.54743 19.22558 0.00572
C 13.49062 17.79508 0.03592
C 12.29423 17.12489 0.00406
C 12.3351 15.63701 0.00943
C 13.546 14.85692 0.02841
C 13.52803 13.39459 -0.01111
C 12.31326 12.74245 -0.01275
C 12.26405 11.33543 0.00985
C 13.50769 22.05458 0.03589
C 13.52187 10.54626 -0.02245
C 12.30203 8.4895 0.03101
C 12.36032 7.01387 -0.01536
C 13.52199 6.30036 -0.02689
C 13.47698 4.92742 -0.01046
C 12.29026 4.15767 -0.00891
C 12.27238 2.78414 0.02819
C 13.5265 2.0559 0.00165
C 13.60008 0.64678 -0.02971
C 12.30445 0.00155 0.02894
C 14.73367 32.58377 -0.01789
C 13.51977 9.17298 -0.00428
C 13.41646 23.4785 -0.00033
C 12.25171 24.22005 -0.01062
C 12.28897 25.65384 0.01364
C 11.12125 19.18339 0.02888
C 11.11441 17.80903 -0.00482
C 9.89009 17.14389 -0.01384
C 9.82474 15.74396 0.03693
C 11.04663 14.97619 0.01745
C 11.082 13.57305 0.00488
C 9.8273 12.8149 -0.01004
C 9.81914 11.44701 -0.02896
C 11.04326 10.63676 -0.00131
C 11.08501 9.21997 -0.01118
C 9.83893 8.53158 -0.014
C 9.83619 7.08842 0.02147
C 11.10275 6.35172 0.00373
C 11.01922 4.93374 -0.00191
C 9.75371 4.26214 0.00438
C 9.70325 2.88526 0.01291
C 11.03881 2.18039 0.00093
C 11.05952 0.73811 0.00057
C 9.7489 0.06838 -0.01634
C 12.24821 32.67076 -0.00334
C 13.52771 32.11756 0.02339
C 12.1346 29.84165 0.01641
C 12.12258 28.48727 -0.00719
C 14.70753 24.14387 0.00444
C 15.98144 23.57176 -0.00925
C 15.99178 22.16817 0.01877
C 14.78537 21.42142 0.01363
C 18.39336 17.80947 0.00798
C 17.16762 17.05111 0.00422
C 17.10306 15.60864 0.0351
C 18.34505 14.89164 -0.03113
C 18.32579 13.46253 0.02098
C 17.07873 12.74726 0.01848
C 17.17384 11.29678 -0.00619
C 18.32107 10.5894 -0.02162
C 18.37633 9.14369 0.00889
C 17.13409 8.49332 -0.00481
C 17.17094 7.05667 0.00979
C 18.44704 6.38452 0.01443
C 18.43005 4.90748 0.03505
C 17.19363 4.25075 -0.02815
C 17.20431 2.84846 -0.04147
C 18.44184 2.15247 -0.05302
C 18.42591 0.74442 0.00213
C 17.22876 0.00642 -0.00066
C 19.48806 32.71404 -0.00289
C 20.77791 32.00872 0.00028
C 20.89013 30.60545 -0.02213
C 21.02658 26.40374 0.03698
C 19.74568 24.34804 -0.00109
C 18.43076 19.24206 0.00228
C 9.82125 19.88863 0.00685
C 17.17907 19.94783 -0.00114
C 18.43174 22.14144 -0.00368
C 14.78235 19.92729 -0.02162
C 15.93795 19.19505 0.00415
C 15.97465 17.74786 -0.0014
C 14.75006 17.02279 0.02162
C 14.73826 15.56196 0.0076
C 15.90768 14.85971 0.01241
C 15.90849 13.46397 -0.01454
C 14.74048 12.72694 0.01945
C 14.75616 11.31358 0.01416
C 15.93593 10.57102 0.03542
C 16.00554 9.17704 0.02299
C 14.75672 8.45196 0.00244
C 14.70743 7.07103 -0.01717
C 15.94969 6.4151 0.05265
C 15.90309 4.99007 -0.01952
C 14.70315 4.23113 -0.02813
C 14.69323 2.82228 0.00374
C 15.92376 2.03088 0.00052
C 16.02994 0.6505 -0.03682
C 14.84736 33.95939 0.01965
C 17.34063 32.64394 0.02058
C 17.21225 24.2205 -0.01957
C 18.49901 23.64949 -0.0108
C 17.17144 21.34933 -0.02696
C 20.86173 23.49795 -0.00491
C 9.87487 21.31523 0.00895
C 11.03241 23.44664 0.0288
C 3.60855 2.12482 0.0064
C 3.69837 0.70837 0.00211
C 2.45029 0.00519 -0.00449
C 4.9004 32.7055 -0.01979
C 6.08988 31.97967 0.02784
C 6.15151 30.552 -0.01977
C 4.94782 29.83934 -0.00561
C 4.91425 28.4176 0.00208
C 6.09093 27.70664 0.01707
C 6.106 26.27065 0.02769
C 2.42886 2.80512 -0.00039
C 4.85612 25.5882 -0.03291
C 6.13637 23.47388 0.04505
C 6.19172 22.08963 0.03284
C 4.92998 21.36313 -0.04307
C 4.90263 19.89525 0.03189
C 6.15005 19.19607 0.00031
C 6.19649 17.76532 -0.003
C 4.80866 17.0433 0.01402
C 4.87789 15.58855 0.02379
C 6.09842 14.89405 0.00907
C 6.13301 13.52437 0.00643
C 4.86783 24.21884 -0.04999
C 2.41966 4.20885 0.02728
C 3.65343 4.98505 0.00245
C 3.61788 6.37356 0.00081
C 3.6978 30.55659 0.02426
C 2.54401 29.78366 0.01218
C 2.53545 28.34522 -0.01471
C 3.70302 27.72808 -0.02827
C 3.61405 26.31713 0.01078
C 2.44104 25.55953 -0.00112
C 2.37571 24.13709 0.03345
C 3.62517 23.44553 0.00748
C 3.68825 22.07449 0.00662
C 2.46911 21.33543 -0.0154
C 2.42771 19.91663 -0.01299
C 3.67003 19.23702 -0.00407
C 3.66066 17.75253 0.01138
C 2.44856 17.07217 0.03278
C 2.41615 15.62803 -0.00177
C 3.58279 14.88555 0.04421
C 3.58756 13.43805 0.00088
C 2.33952 12.71381 0.00828
C 2.38401 11.33749 -0.02375
C 3.65714 10.61606 0.00558
C 3.6172 9.25893 -0.0059
C 2.47385 8.49232 -0.01386
C 2.3702 7.14367 -0.02805
C 4.82289 12.77663 -0.01509
C 4.85583 11.37711 0.03267
C 6.12231 10.79597 0.02374
C 6.14307 9.35384 0.00402
C 8.62506 13.58964 -0.00966
C 7.36364 12.8264 -0.03337
C 7.36325 11.47753 0.01227
C 8.64532 10.74115 0.00873
C 8.63934 9.30118 -0.00049
C 7.35298 8.60494 0.00848
C 7.38753 7.19082 -0.01303
C 8.55645 6.4435 -0.01378
C 8.53203 5.00889 0.02635
C 7.32286 4.36999 0.0127
C 7.34686 2.92286 0.01396
C 8.567 2.19164 0.01849
C 8.55712 0.75008 -0.01142
C 7.31898 0.00603 -0.00562
C 9.81423 32.68276 -0.00494
C 10.99196 31.99025 0.00054
C 11.05502 30.61082 0.03007
C 9.88373 29.87391 -0.00095
C 9.86469 28.4611 0.01572
C 10.97945 27.64808 -0.04848
C 11.07058 26.28426 -0.00892
C 9.8254 25.57065 -0.01362
C 9.79003 24.15613 -0.0008
C 8.60548 14.97975 -0.02929
C 11.05174 22.10381 0.00393
C 7.34396 15.664 0.03368
C 8.62148 17.76563 0.01305
C 4.87304 8.5407 0.0073
C 4.86062 7.15797 0.0174
C 6.11655 6.50357 0.03828
C 6.142 5.10775 0.01226
C 4.87294 4.30995 -0.00279
C 4.95133 2.85865 0.01996
C 6.20993 2.13365 -0.03996
C 6.15877 0.74421 0.01465
C 4.91812 0.02604 -0.00074
C 7.33635 32.74934 -0.00518
C 8.59426 32.05416 0.0086
C 8.61799 30.58845 -0.00643
C 7.39147 29.89138 0.017
C 7.32958 28.39797 -0.03113
C 8.61665 27.77853 -0.02566
C 8.61081 26.29852 -0.00094
C 7.34578 25.56863 0.02322
C 7.39599 24.14542 -0.00725
C 8.55873 23.46058 -0.05697
C 8.62054 22.0548 0.01087
C 7.39426 21.30373 -0.01343
C 7.38253 19.8961 0.00988
C 8.57682 19.19125 0.0276
C 7.39491 17.06192 -0.00077
C 3.677 32.00332 0.00787
C 20.88042 22.09349 0.03338
C 19.70699 19.90239 -0.0331
C 29.50496 12.77741 -0.01461
C 29.4771 11.35745 -0.02155
C 30.71615 10.59217 -0.00944
C 30.73544 9.1958 -0.03735
C 29.51483 8.44268 -0.00971
C 29.43181 7.07371 0.01518
C 30.69635 6.29467 0.01908
C 30.72666 4.86204 0.07705
C 29.48211 4.22861 0.0103
C 29.55137 2.80329 0.02108
C 30.69398 13.47899 -0.01303
C 30.74721 2.067 0.00716
C 29.52753 34.01252 0.00346
C 31.99291 32.56383 0.01713
C 33.21173 31.82202 -0.01694
C 33.22969 30.40753 0.01428
C 32.00501 29.70613 -0.02142
C 31.9985 28.33804 0.0544
C 33.22015 27.62771 0.00026
C 33.14591 26.21474 0.00682
C 31.92574 25.533 -0.01779
C 31.92382 24.18747 0.03794
C 30.80187 0.67442 0.00307
C 30.68854 14.88484 -0.0405
C 29.46515 15.63513 0.01705
C 29.54422 17.12854 0.0101
C 26.97452 7.11978 0.02198
C 28.24797 6.39067 0.01094
C 28.25792 4.9743 0.00235
C 27.03591 4.29442 0.01495
C 27.08881 2.85327 0.01259
C 28.31392 2.10472 0.01799
C 28.28432 0.6908 0.01699
C 27.05027 0.01356 -0.00416
C 29.46643 32.61087 0.01177
C 30.7917 31.86661 0.04266
C 30.80389 30.48851 0.01324
C 29.50308 29.76409 0.0014
C 29.44723 28.32725 0.00924
C 30.72394 27.64637 0.02326
C 30.69262 26.3084 0.00261
C 29.46628 25.58504 0.03265
C 29.44774 24.12929 -0.02049
C 30.68633 23.39779 -0.01854
C 30.66593 22.01675 -0.01415
C 29.49089 21.31905 -0.03039
C 29.51419 19.90437 0.01836
C 30.7379 19.23616 0.03531
C 30.75469 17.82143 -0.00669
C 33.16247 23.44418 0.01927
C 33.18153 22.04404 0.01574
C 31.98524 21.27762 -0.02383
C 31.99001 19.88884 -0.01429
C 34.39149 24.14031 0.03076
C 1.16137 23.39755 0.00723
C 1.21355 22.02378 0.02712
C 34.40259 21.34796 -0.02213
C 0.00495 19.93117 0.01951
C 1.2584 19.23184 -0.01678
C 1.1953 17.77561 0.01223
C 0.04238 17.03401 0.00648
C 34.40465 15.61398 0.02114
C 1.20543 14.91166 -0.02957
C 1.0789 13.45043 0.00343
C 34.27 12.69449 -0.02656
C 34.39943 11.33454 -0.02442
C 1.16552 10.63752 -0.00027
C 1.17633 9.15029 -0.00583
C 34.36496 8.42246 -0.02302
C 34.3704 7.03137 -0.02849
C 1.14906 6.32131 0.02931
C 1.19568 4.94572 0.00628
C 34.36513 4.23422 -0.0345
C 0.00618 2.80721 -0.00931
C 1.23309 2.17659 -0.00939
C 1.26627 0.67166 -0.00468
C 0.00864 25.54543 -0.05239
C 27.02734 8.49761 0.02611
C 1.2288 26.25908 -0.00598
C 0.02643 28.37453 -0.01037
C 33.23557 19.16463 -0.0136
C 33.22936 17.75715 0.00594
C 31.99008 17.12717 -0.02474
C 31.87504 15.58208 0.00369
C 33.1258 14.95103 0.00455
C 33.12896 13.49277 -0.00644
C 31.88717 12.83518 -0.01839
C 31.94233 11.32733 0.00137
C 33.18362 10.64885 0.00199
C 33.16437 9.17799 0.04381
C 31.9822 8.38387 0.02806
C 31.89247 7.02213 0.01504
C 33.1237 6.28885 -0.00069
C 33.10917 4.8917 0.04926
C 31.94699 4.14468 -0.03838
C 31.96274 2.75612 0.00349
C 33.19409 2.06079 -0.00323
C 33.16923 0.60254 -0.00841
C 31.97765 34.00125 0.0001
C 34.42943 32.57621 -0.02927
C 1.25097 31.96406 -0.01404
C 1.24456 30.49726 0.01027
C 0.01902 29.72932 0.01831
C 1.33046 27.637 -0.00439
C 19.64345 21.38216 -0.0258
C 28.26783 9.17445 -0.00621
C 27.07471 11.37757 0.04185
C 22.07335 24.1559 -0.00311
C 23.35715 23.46521 0.00742
C 23.33784 21.9473 -0.01594
C 22.12625 21.30055 0.0106
C 22.13816 19.91104 -0.01154
C 23.40407 19.22338 -0.01721
C 23.35989 17.74443 -0.02422
C 22.07742 17.05912 0.01277
C 22.0692 15.63865 0.00096
C 23.30292 14.93816 -0.01527
C 22.16567 25.56991 0.00675
C 23.28494 13.4598 0.01087
C 22.06185 11.39938 0.01511
C 23.3045 10.64527 -0.00478
C 23.33596 9.27056 -0.01662
C 22.07822 8.54297 -0.01185
C 22.10457 7.12005 0.01126
C 23.28913 6.43747 0.01852
C 23.3726 4.98277 -0.00381
C 22.13261 4.25543 0.03046
C 22.11379 2.87597 0.0296
C 23.37859 2.15248 0.03374
C 22.05186 12.79244 0.00199
C 23.38744 26.21618 -0.00865
C 23.44195 27.68885 0.0058
C 22.14218 28.30902 -0.00652
C 20.88094 19.14907 -0.00316
C 20.88925 17.73744 0.02188
C 19.68384 17.02814 -0.01979
C 19.6514 15.64633 0.02691
C 20.88528 14.9162 -0.01581
C 20.82778 13.46741 0.01452
C 19.54958 12.71103 0.04892
C 19.61935 11.28143 -0.00111
C 20.81403 10.63379 -0.03557
C 20.86962 9.24233 0.03754
C 19.61397 8.44674 0.01739
C 19.6414 7.02461 0.00755
C 20.88649 6.40007 -0.0054
C 20.87356 4.9693 0.00667
C 19.67623 4.23401 0.00143
C 19.66614 2.86462 -0.017
C 20.88757 2.18277 0.00364
C 20.94886 0.73713 -0.00831
C 19.65329 0.05722 -0.02957
C 22.06626 32.67747 -0.04422
C 23.34607 31.97807 0.00654
C 23.31263 30.50715 -0.00703
C 22.08671 29.81773 -0.04076
C 23.44497 0.74881 -0.02845
C 22.1859 0.02206 -0.03213
C 24.59599 32.68734 0.02239
C 25.90315 31.97478 0.01153
C 25.88825 2.10765 -0.0264
C 25.89993 0.71002 -0.01154
C 24.65954 0.01151 0.00684
C 27.0617 32.66058 -0.01052
C 28.27734 31.8922 -0.01679
C 28.26132 30.48835 0.00367
C 27.04881 29.78764 0.04306
C 27.05289 28.36367 0.00996
C 28.20161 27.61341 0.00195
C 28.20879 26.25502 -0.00802
C 27.02834 25.55004 -0.00218
C 27.00556 24.1117 -0.01654
C 28.22317 23.42413 -0.00037
C 28.30581 22.05941 -0.0032
C 27.03949 21.35658 0.00622
C 27.10725 19.9264 -0.02815
C 28.30014 19.23754 -0.00942
C 28.26189 17.81005 0.00487
C 27.1191 17.02297 0.00826
C 27.0784 15.65818 -0.00294
C 28.31515 14.90339 0.00152
C 28.26616 13.52671 0.01257
C 27.01919 12.76878 0.02316
C 24.65467 2.8604 -0.00938
C 28.26834 10.60655 0.00194
C 24.61257 4.29448 -0.00229
C 25.768 6.43844 -0.009
C 25.80165 30.52536 0.02734
C 24.58654 29.84703 -0.0055
C 24.71118 28.43184 0.01515
C 25.90368 27.62961 -0.00225
C 25.77776 26.25886 0.00071
C 24.62046 25.52348 -0.01107
C 24.57002 24.1018 -0.01586
C 25.79193 23.40014 -0.01971
C 25.81446 21.991 -0.02118
C 24.59601 21.37363 0.00733
C 24.64574 19.86776 -0.00178
C 25.87996 19.1866 0.00768
C 25.87894 17.75907 -0.0276
C 24.63728 17.00586 0.03005
C 24.59757 15.56497 -0.04078
C 25.86212 14.91264 0.02117
C 25.74685 13.49333 0.02737
C 24.50869 12.75608 -0.00498
C 24.53346 11.3661 0.00135
C 25.827 10.70642 0.03102
C 25.81296 9.29038 0.02555
C 24.60307 8.59546 0.01423
C 24.57128 7.16192 -0.00285
C 25.81933 5.00192 -0.01199
C 2.48023 32.69373 0.00267
