265
Graphene
C 0.00652 0.14321 0.01295
C 15.94251 0.70411 0.01126
C 16.0324 2.13164 -0.01185
C 14.82628 2.84332 -0.01662
C 14.80083 4.37103 -0.00478
C 16.03042 5.02178 0.01511
C 15.98543 6.43655 0.00199
C 14.65913 6.88435 0.01087
C 14.59372 32.60508 -0.01527
C 12.32672 33.97369 0.00096
C 13.5483 0.6222 0.01277
C 13.55072 2.02907 -0.02422
C 12.31591 2.76087 -0.01721
C 12.28671 4.26273 -0.01154
C 13.49268 5.04074 0.0106
C 13.47074 6.41203 -0.01594
C 12.38208 32.50694 0.00742
C 9.81014 33.98879 -0.00311
C 11.12918 0.6006 0.00675
C 11.09685 2.03978 -0.00865
C 9.9298 2.77955 0.0058
C 9.92753 4.25766 -0.00652
C 11.08784 5.01642 -0.04076
C 10.87131 6.31289 -0.00703
C 9.69411 7.05915 0.00654
C 9.96823 30.13351 -0.04422
C 11.01306 31.75865 -0.02957
C 9.83489 32.59532 -0.00831
C 7.38436 0.01302 0.00364
C 8.58496 0.67071 -0.017
C 14.68911 33.99175 0.01852
C 8.66544 2.09979 0.00143
C 17.37007 32.69913 -0.00381
C 18.12794 15.43135 0.0296
C 19.72257 0.03233 -0.009
C 20.93208 0.71694 -0.00285
C 20.96621 2.11442 0.01423
C 19.72166 2.78108 0.02555
C 19.77218 4.20473 0.03102
C 20.94273 4.9315 0.00135
C 20.91905 6.36946 -0.00498
C 19.64823 7.10136 0.02737
C 19.62 8.55554 0.02117
C 20.81611 9.21348 -0.04078
C 20.84194 10.71935 0.03005
C 19.64874 11.49377 -0.0276
C 19.82471 12.81287 0.00768
C 20.91814 13.60422 -0.00178
C 20.83192 15.1083 0.00733
C 19.43667 15.21405 -0.02118
C 20.79155 31.93716 -0.01971
C 19.76839 32.75175 -0.01586
C 17.19893 0.06471 -0.01107
C 18.49827 0.79803 0.00071
C 18.50663 2.19226 -0.00225
C 17.27428 2.9085 0.01515
C 17.30554 4.30237 -0.0055
C 18.53439 4.90522 0.02734
C 18.50142 6.33184 0.01153
C 17.25375 7.04001 0.02239
C 17.26913 8.37115 -0.03213
C 18.24822 9.36263 -0.02845
C 18.50565 10.65216 0.03374
C 17.53393 16.36714 0.03046
C 7.39266 2.85765 0.00667
C 7.4131 4.28778 -0.0054
C 8.61135 5.01052 0.00755
C 4.89682 28.39553 -0.03113
C 4.85381 29.82657 0.0351
C 6.09011 30.54264 0.00422
C 6.13043 31.94612 0.00798
C 4.86572 32.78001 0.00228
C 2.4234 0.14058 -0.00114
C 3.68548 0.74662 -0.02696
C 3.72532 2.14275 -0.00368
C 2.46015 2.88619 -0.0108
C 2.50527 4.32647 -0.01957
C 3.6807 5.01789 0.02058
C 3.67429 6.44098 0.01965
C 2.45461 7.1596 -0.03682
C 2.40742 8.53371 0.00052
C 3.67274 9.29381 0.00374
C 3.62108 10.72334 -0.02813
C 2.39947 11.42035 -0.01952
C 2.40691 12.83173 0.05265
C 3.64281 13.54326 -0.01717
C 3.59442 14.91306 0.00244
C 2.3658 15.60782 0.02299
C 2.343 17.00816 0.03542
C 3.56896 17.68093 0.01416
C 2.38927 25.58729 0.01945
C 3.55623 26.31398 -0.01454
C 3.73433 27.68674 0.01241
C 2.39054 28.3729 0.0076
C 2.32501 29.80094 0.02162
C 3.56605 30.55721 -0.0014
C 6.12562 27.6812 0.02098
C 6.10356 26.3109 0.01848
C 6.19831 17.50318 -0.00619
C 4.8723 17.14891 -0.02162
C 8.48034 6.46101 0.01739
C 7.27182 7.12533 0.03754
C 7.32282 8.47129 -0.03557
C 7.22283 11.70396 -0.00111
C 7.00046 15.94052 0.04892
C 7.53017 17.06669 0.01452
C 8.62094 17.85001 -0.01581
C 8.89716 19.23589 0.02691
C 7.31002 25.57313 -0.01979
C 7.12075 28.52368 0.02188
C 7.44021 29.84832 -0.00316
C 8.60393 30.56062 -0.0331
C 8.58129 31.97352 -0.0258
C 7.35814 32.68395 0.03338
C 22.0997 32.56462 -0.01199
C 4.92494 0.07324 -0.00491
C 6.19083 2.14034 0.03698
C 4.9496 2.81666 -0.02213
C 4.89709 4.29992 0.00028
C 6.07721 4.99618 -0.00289
C 6.07726 6.39639 -0.00066
C 4.86873 7.08744 0.00213
C 4.87158 8.58483 -0.05302
C 6.17032 9.28525 -0.04147
C 6.09337 10.69931 -0.02815
C 4.8238 11.37329 0.03505
C 4.85259 12.81428 0.01443
C 6.11603 13.28556 0.00979
C 6.17165 14.84247 -0.00481
C 4.86158 15.56871 0.00889
C 6.18436 0.67089 -0.00109
C 3.58066 32.02089 0.00415
C 23.28633 31.95596 -0.00229
C 22.26879 29.66918 -0.0264
C 31.95971 4.33201 -0.00323
C 33.18073 5.08746 0.00349
C 33.21308 6.44051 -0.03838
C 31.97803 7.10977 0.04926
C 31.97387 8.52704 -0.00069
C 33.1694 9.23084 0.01504
C 33.14803 10.60945 0.02806
C 31.9179 11.40736 0.04381
C 31.92237 12.77567 0.00199
C 33.15281 13.54023 0.00137
C 33.21141 14.99646 -0.01839
C 31.79943 15.64198 -0.00644
C 32.09176 16.96925 0.00455
C 33.19447 17.78791 0.00369
C 33.42777 19.21673 -0.02474
C 33.43634 22.10087 0.00594
C 33.16179 23.45416 -0.0136
C 31.89895 25.4495 -0.01429
C 33.05873 26.23604 -0.02383
C 33.10225 27.61242 0.01574
C 31.9445 28.4152 0.01927
C 31.9913 29.90344 0.03794
C 33.18042 30.62246 -0.01779
C 33.19852 32.02727 0.00682
C 31.96855 32.6918 0.00026
C 29.55126 0.04027 0.0544
C 30.75654 0.75782 -0.02142
C 30.75802 2.18359 0.01428
C 29.52147 2.84933 -0.01694
C 31.96581 2.91277 -0.00841
C 29.49823 4.21978 0.01713
C 33.2021 2.26086 0.0001
C 32.01068 0.09367 -0.01404
C 1.2337 0.82552 -0.00468
C 1.22877 2.24755 -0.00939
C 34.43125 2.96594 -0.00931
C 0.03204 4.36054 -0.0345
C 1.30804 5.02489 0.00628
C 1.21526 6.42944 0.02931
C 34.41863 7.16457 -0.02849
C 34.41858 8.56408 -0.02302
C 1.22746 9.22667 -0.00583
C 1.21557 10.71583 -0.00027
C 34.34264 11.3952 -0.02442
C 34.3632 12.77486 -0.02656
C 1.15948 13.54488 0.00343
C 1.15151 14.88762 -0.02957
C 0.01211 15.69382 0.02114
C 0.05032 17.05862 0.00648
C 1.23457 17.77936 0.01223
C 1.28666 19.14869 -0.01678
C 0.14449 19.86078 0.01951
C 33.85207 21.03987 -0.02213
C 33.90946 24.40733 0.02712
C 34.32332 25.65677 0.00723
C 1.16434 26.16582 0.03076
C 1.19083 27.69283 -0.05239
C 34.36579 28.42084 -0.00598
C 34.3691 29.84518 -0.00439
C 1.15381 30.57762 -0.01037
C 1.21617 31.99692 0.01831
C 0.02547 32.76676 0.01027
C 33.21787 0.83041 -0.02927
C 30.72661 4.96954 0.00346
C 30.73822 6.38167 0.00307
C 29.45257 7.01966 0.00716
C 24.61205 2.82612 0.00235
C 24.58145 4.23572 0.01094
C 25.76393 4.99727 0.02198
C 25.816 6.38716 0.02611
C 24.57345 7.05882 -0.00621
C 24.52392 8.48445 0.00194
C 25.76796 9.23017 0.04185
C 25.77045 10.67405 0.02316
C 24.60601 11.37658 0.01257
C 24.60282 12.98335 0.00152
C 25.86264 13.36739 -0.00294
C 24.41455 29.84736 0.00826
C 25.72422 30.36983 0.00487
C 25.85492 31.83502 -0.00942
C 24.62261 32.64476 -0.02815
C 22.11515 34.07837 0.00622
C 23.39077 0.73134 -0.0032
C 23.4048 2.05575 -0.00037
C 22.18752 2.74879 -0.01654
C 22.18338 4.18748 -0.00218
C 23.31113 4.98347 -0.00802
C 23.33017 6.38335 0.00195
C 22.07113 7.07121 0.00996
C 22.11575 8.51017 0.04306
C 23.26818 9.24813 0.00367
C 23.38644 10.66417 -0.01679
C 22.07625 11.36087 -0.01052
C 22.0586 12.87224 0.00684
C 23.38206 13.37536 -0.01154
C 25.79866 2.08879 0.01495
C 25.88641 0.75249 0.01259
C 24.62846 0.04627 0.01799
C 27.09368 32.60484 0.01699
C 29.48641 8.49251 0.02108
C 30.68077 9.2115 0.0103
C 30.70573 10.6797 0.07705
C 29.47098 11.38122 0.01908
C 29.48893 12.8125 0.01518
C 30.69827 13.48836 -0.00971
C 30.68874 14.89109 -0.03735
C 30.72034 27.8432 -0.00944
C 29.51905 28.49678 -0.02155
C 29.52417 29.84803 -0.01461
C 30.74973 30.55153 -0.01303
C 30.76217 31.94436 -0.0405
C 29.54335 32.69316 0.01705
C 27.04923 34.05621 0.0101
C 23.29609 30.58912 -0.00938
C 28.32297 0.69976 -0.00669
C 27.06231 2.82247 0.01836
C 27.04006 4.2983 -0.03039
C 28.30174 4.92072 -0.01415
C 28.26914 6.31468 -0.01854
C 27.02832 7.00715 -0.02049
C 27.04965 8.50159 0.03265
C 28.2765 9.20536 0.00261
C 28.29828 10.61067 0.02326
C 27.06647 11.36686 0.00924
C 27.15734 12.84098 0.0014
C 28.32071 13.51892 0.01324
C 27.09348 29.94657 0.04266
C 28.31079 30.55832 0.01177
C 28.36354 31.96746 -0.00416
C 28.28927 2.11889 0.03531
C 2.41956 32.7828 -0.02162
