359
Graphene
C 34.37848 0.01439 0.01295
C 11.08701 6.43964 -0.01957
C 11.22885 4.96464 -0.0108
C 9.89712 4.24731 -0.00368
C 9.80125 2.90021 -0.02696
C 11.01059 2.16828 -0.00114
C 11.0345 0.76387 0.00228
C 9.85327 0.1208 0.00798
C 12.34461 32.64538 0.00422
C 9.83338 6.97806 0.02058
C 13.53933 31.92413 0.0351
C 12.35834 29.81633 0.02098
C 12.3927 28.42981 0.01848
C 13.61956 27.69524 -0.00619
C 13.5094 26.25406 -0.02162
C 12.29499 25.54612 0.00889
C 12.3015 24.20568 -0.00481
C 13.50084 23.39232 0.00979
C 13.45346 22.02312 0.01443
C 13.57702 30.56469 -0.03113
C 9.60761 8.25577 0.01965
C 9.72288 15.6734 -0.03682
C 10.00588 17.02402 0.00052
C 7.2754 2.87972 0.01877
C 8.59567 2.22536 0.01363
C 8.58832 0.8211 -0.02162
C 7.36603 0.07437 0.00415
C 9.76088 32.70282 -0.0014
C 11.05352 31.9619 0.02162
C 11.12259 30.52146 0.0076
C 9.81638 29.95724 0.01241
C 9.80814 28.47569 -0.01454
C 11.08239 27.74628 0.01945
C 11.05404 26.36043 0.01416
C 9.79962 25.54968 0.03542
C 9.79766 24.21599 0.02299
C 11.05377 23.45661 0.00244
C 11.06007 21.99914 -0.01717
C 9.85622 21.27138 0.05265
C 9.98869 19.91115 -0.01952
C 11.34161 19.08043 -0.02813
C 11.11533 17.79364 0.00374
C 12.27439 21.22708 0.03505
C 7.26356 4.33555 -0.00925
C 12.51337 19.84596 -0.02815
C 12.27256 2.89615 -0.05302
C 17.24613 29.88884 -0.0054
C 17.23911 28.40744 0.00667
C 18.3913 27.69386 0.00143
C 18.35299 26.32772 -0.017
C 17.16456 25.56778 0.00364
C 17.22556 24.04796 -0.00831
C 18.44756 23.38638 -0.02957
C 18.44167 21.80424 -0.04422
C 18.43584 30.59379 0.00755
C 17.06617 21.35455 0.00654
C 18.43912 2.29006 -0.04076
C 18.45849 0.75029 -0.00652
C 17.15274 0.04295 0.0058
C 19.64312 32.69359 -0.00865
C 20.80336 31.91417 0.00675
C 20.83771 30.43575 -0.00311
C 19.60998 29.80351 0.00742
C 19.59063 28.40614 -0.01594
C 17.13826 2.64686 -0.00703
C 18.45144 31.99285 0.01739
C 17.21576 32.70821 0.03754
C 14.70432 0.00139 -0.03557
C 13.48305 2.13232 0.00213
C 13.48702 0.73345 -0.00066
C 12.31711 34.05938 -0.00289
C 14.69909 32.68254 0.00028
C 15.93313 31.99024 -0.02213
C 16.03482 30.59369 0.03698
C 14.85456 29.81318 -0.00109
C 14.84005 28.40125 -0.00491
C 16.0389 27.67318 0.03338
C 15.95332 26.25671 -0.0258
C 14.77334 25.46788 -0.0331
C 14.78033 24.04985 -0.00316
C 15.97272 23.38202 0.02188
C 15.92982 21.99366 -0.01979
C 14.63423 21.27829 0.02691
C 14.37212 19.8927 -0.01581
C 14.66227 2.84377 0.01452
C 15.92804 2.26666 0.04892
C 15.92889 0.70577 -0.00111
C 12.33101 4.30932 -0.04147
C 20.87011 27.68212 0.0106
C 8.59292 4.90104 0.00444
C 7.39021 7.09263 0.02894
C 3.65812 6.4922 0.01849
C 3.71941 5.04471 -0.01142
C 2.42726 4.32611 -0.00562
C 2.37399 2.8406 -0.00494
C 3.68021 2.10414 0.00054
C 3.69345 0.73755 0.03007
C 2.45302 0.08052 -0.00095
C 4.87314 32.59569 0.01572
C 2.47891 7.20192 0.01396
C 6.11648 32.00337 -0.04848
C 4.85834 29.86497 -0.01362
C 4.91599 28.44808 -0.0008
C 6.14338 27.72727 0.0288
C 6.11813 26.26806 0.00393
C 4.9141 25.50885 0.00895
C 4.87462 24.19166 0.00685
C 6.11915 23.43597 0.02888
C 6.20556 22.0763 -0.00482
C 6.12209 30.53775 -0.00892
C 2.50249 8.59173 0.0127
C 3.65097 9.32388 0.02635
C 3.66942 10.77639 -0.01378
C 3.59889 30.56245 -0.00094
C 2.40373 29.80025 0.02322
C 2.40207 28.44456 -0.00725
C 3.63996 27.68719 -0.05697
C 3.71835 26.29399 0.01087
C 2.36649 25.60013 -0.01343
C 2.44451 24.16956 0.00988
C 3.70587 23.48107 0.0276
C 3.70714 21.97837 0.01305
C 2.45773 21.26965 -0.00077
C 2.40986 19.88899 0.03368
C 3.73967 19.18989 -0.02929
C 3.72494 17.76585 -0.00966
C 2.534 17.04197 -0.03337
C 2.41502 15.6146 0.01227
C 3.74468 14.96928 0.00873
C 3.677 13.44645 -0.00049
C 2.44824 12.75812 0.00848
C 2.48076 11.39513 -0.01303
C 4.90676 21.37069 -0.01384
C 8.51664 6.31279 -0.01789
C 4.91115 20.00524 0.03693
C 6.22498 17.79463 0.00488
C 8.58147 26.24744 0.00572
C 7.35634 25.55288 0.03592
C 7.41329 24.15326 0.00406
C 8.63126 23.38512 0.00943
C 8.65643 21.97576 0.02841
C 7.46216 21.3367 -0.01111
C 7.43435 19.92993 -0.01275
C 8.69095 19.14512 0.00985
C 8.61994 27.73922 0.0402
C 8.65741 17.79587 -0.02245
C 7.41134 15.64579 0.03101
C 8.69507 14.67904 -0.01536
C 8.58769 13.37049 -0.02689
C 7.31522 12.80612 -0.01046
C 7.28896 11.33549 -0.00891
C 8.42339 10.59685 0.02819
C 8.69938 9.23687 0.00165
C 7.39103 8.49764 -0.02971
C 7.50352 17.04491 -0.00428
C 7.33362 28.47965 -0.02759
C 7.37127 29.82523 0.03589
C 8.58384 30.58167 -0.00033
C 4.98304 17.03172 -0.01004
C 4.95689 15.63036 -0.02896
C 6.20376 14.98116 -0.00131
C 6.09891 13.52616 -0.01118
C 4.89363 12.89622 -0.014
C 4.91512 11.41796 0.02147
C 6.01711 10.68994 0.00373
C 6.12622 9.26262 -0.00191
C 4.90044 8.62956 0.00438
C 4.81789 7.20827 0.01291
C 6.1322 6.45448 0.00093
C 6.09734 5.05796 0.00057
C 4.86279 4.31805 -0.01634
C 4.90746 2.8861 -0.00334
C 6.05176 2.14831 0.02339
C 6.12984 0.75102 0.01641
C 4.92425 34.04745 -0.00719
C 7.35698 32.71043 0.01364
C 8.55746 31.97702 -0.01062
C 6.14647 19.24463 0.01745
C 3.615 31.97227 -0.02566
C 20.80843 26.21689 -0.01154
C 19.65891 24.09326 -0.02422
C 31.91461 32.68455 0.01713
C 33.223 31.96315 -0.01694
C 33.23819 30.57619 0.01428
C 31.96136 29.79896 -0.02142
C 31.97991 28.47173 0.0544
C 33.19065 27.66904 0.00026
C 33.1848 26.24672 0.00682
C 31.89464 25.58979 -0.01779
C 29.59507 34.07529 0.00346
C 31.9273 24.15108 0.03794
C 33.155 22.0175 0.01574
C 31.90293 21.3871 -0.02383
C 31.94572 19.87988 -0.01429
C 33.21752 19.16933 -0.0136
C 33.18101 17.71743 0.00594
C 31.96343 17.0507 -0.02474
C 31.95236 15.58611 0.00369
C 33.20269 14.86576 0.00455
C 33.11203 23.44022 0.01927
C 30.73991 0.70918 0.00307
C 30.71098 2.1309 0.00716
C 29.50086 2.85013 0.02108
C 30.61215 23.48359 -0.01854
C 30.61783 21.98921 -0.01415
C 29.35504 21.2309 -0.03039
C 29.51422 19.86241 0.01836
C 30.72774 19.16307 0.03531
C 30.76148 17.71158 -0.00669
C 29.4869 17.02742 0.0101
C 29.48496 15.64147 0.01705
C 30.71367 14.9218 -0.0405
C 30.68021 13.48181 -0.01303
C 29.42565 12.79562 -0.01461
C 29.52499 11.32334 -0.02155
C 30.76418 10.63734 -0.00944
C 30.75965 9.20223 -0.03735
C 29.54264 8.45464 -0.00971
C 29.4847 7.0506 0.01518
C 30.68937 6.37349 0.01908
C 30.81057 4.90731 0.07705
C 29.51721 4.22647 0.0103
C 33.15109 13.48528 -0.00644
C 29.40929 24.21064 -0.02049
C 31.89895 12.7718 -0.01839
C 33.26165 10.64451 0.00199
C 1.23558 19.12118 -0.01678
C 1.26619 17.77028 0.01223
C 0.00487 17.05142 0.00648
C 0.02565 15.57363 0.02114
C 1.17812 14.87433 -0.02957
C 1.18918 13.51535 0.00343
C 34.35282 12.7432 -0.02656
C 34.42515 11.38858 -0.02442
C 34.42755 19.85266 0.01951
C 1.22535 10.71618 -0.00027
C 0.01281 8.57217 -0.02302
C 34.41278 7.15054 -0.02849
C 1.22344 6.48346 0.02931
C 1.2901 5.10533 0.00628
C 0.01561 4.29479 -0.0345
C 34.38967 2.87492 -0.00931
C 1.15002 2.18739 -0.00939
C 1.19265 0.75659 -0.00468
C 1.21195 9.24002 -0.00583
C 34.35582 21.28162 -0.02213
C 1.23852 22.00532 0.02712
C 1.24108 23.37875 0.00723
C 33.23038 9.27097 0.04381
C 32.02273 8.40932 0.02806
C 31.9435 7.09291 0.01504
C 33.22114 6.38805 -0.00069
C 33.2068 4.9696 0.04926
C 31.94219 4.20391 -0.03838
C 31.95434 2.86348 0.00349
C 33.17413 2.11365 -0.00323
C 33.15762 0.73585 -0.00841
C 31.96209 0.00562 0.0001
C 34.38359 32.7448 -0.02927
C 1.14161 31.97601 -0.01404
C 1.18731 30.55021 0.01027
C 34.40562 29.87383 0.01831
C 34.41457 28.43162 -0.01037
C 1.2296 27.68713 -0.00439
C 1.21995 26.23614 -0.00598
C 34.37685 25.50167 -0.05239
C 34.36359 24.13324 0.03076
C 31.95874 11.32566 0.00137
C 19.58356 25.49375 -0.01721
C 29.46071 25.65951 0.03265
C 30.78125 27.75158 0.02326
C 22.08105 3.00843 0.00071
C 23.27513 2.26598 -0.01107
C 23.3773 0.76164 -0.01586
C 22.17959 34.06494 -0.01971
C 24.54934 32.65276 -0.02118
C 25.84077 32.01576 0.00733
C 25.78111 30.50587 -0.00178
C 24.52079 29.75165 0.00768
C 22.07786 4.34294 -0.00225
C 24.60161 28.34912 -0.0276
C 25.73275 26.26028 -0.04078
C 24.48762 25.56587 0.02117
C 24.53927 24.10359 0.02737
C 25.71974 23.36983 -0.00498
C 25.77914 21.99644 0.00135
C 24.58108 21.15684 0.03102
C 24.61828 19.75906 0.02555
C 25.82746 19.1472 0.01423
C 25.8901 27.61441 0.03005
C 23.40547 4.78806 0.01515
C 23.46184 19.17957 -0.0055
C 22.3262 19.90473 0.02734
C 20.9152 23.30947 0.01277
C 20.86074 21.91491 0.00096
C 19.6882 21.31818 -0.01527
C 19.74977 2.84397 0.01087
C 20.93287 2.14874 0.00199
C 20.93812 0.73221 0.01511
C 19.75355 0.00441 -0.00478
C 22.12127 32.59855 -0.01662
C 23.34591 31.93555 -0.01185
C 23.27797 30.53084 0.01126
C 22.06062 29.77134 0.01852
C 22.07955 28.38233 -0.00381
C 23.26353 27.63154 0.03046
C 23.2497 26.20261 0.0296
C 21.99212 25.4959 0.03374
C 22.0718 24.04427 -0.02845
C 23.33012 23.34737 -0.03213
C 23.28361 21.93143 0.02239
C 22.0576 21.21821 0.01153
C 25.82884 17.75412 -0.00285
C 30.70392 26.35834 0.00261
C 25.98293 6.27806 -0.009
C 24.62277 4.28571 -0.00229
C 27.09214 12.66841 0.02316
C 27.39163 11.36531 0.04185
C 28.33586 10.57919 0.00194
C 28.33663 9.17358 -0.00621
C 27.11333 8.5112 0.02611
C 26.94079 7.13315 0.02198
C 28.26502 6.42453 0.01094
C 28.32442 4.96875 0.00235
C 28.14947 13.52619 0.01257
C 27.11936 4.24257 0.01495
C 28.24558 2.15686 0.01799
C 28.28708 0.74423 0.01699
C 27.10788 0.02005 -0.00416
C 29.55153 32.65633 0.01177
C 30.7595 31.98372 0.04266
C 30.77888 30.55387 0.01324
C 29.54235 29.90477 0.0014
C 29.56825 28.47257 0.00924
C 27.10639 2.88714 0.01259
C 28.24643 14.91446 0.00152
C 27.07124 15.54937 -0.00294
C 26.84231 16.88657 0.00826
C 24.53312 2.86634 -0.00938
C 25.82275 2.11151 -0.0264
C 25.90115 0.78843 -0.01154
C 24.55642 0.00441 0.00684
C 27.06977 32.68447 -0.01052
C 28.30093 31.97526 -0.01679
C 28.26746 30.56184 0.00367
C 26.98404 29.76311 0.04306
C 27.08684 28.38479 0.00996
C 28.26292 27.75015 0.00195
C 28.26582 26.33207 -0.00802
C 27.00681 25.60252 -0.00218
C 26.94761 24.14617 -0.01654
C 28.26143 23.4176 -0.00037
C 28.20185 21.9486 -0.0032
C 26.96343 21.22909 0.00622
C 27.05379 19.81263 -0.02815
C 28.23237 19.13711 -0.00942
C 28.26215 17.71468 0.00487
C 25.85799 4.92736 -0.01199
C 2.39487 32.72813 -0.03113
