404
Graphene
C 34.38322 34.03863 0.01295
C 13.41124 26.34898 -0.01046
C 12.20604 25.60749 -0.00891
C 12.21716 24.17698 0.02819
C 13.43928 23.47112 0.00165
C 13.45683 21.99736 -0.02971
C 12.24286 21.29656 0.02894
C 12.28658 19.91125 -0.01789
C 13.49771 19.1007 0.00444
C 13.52611 17.69779 -0.00925
C 12.30373 16.97406 0.01877
C 12.34331 15.54315 0.01363
C 13.59797 14.86644 -0.02162
C 13.60251 13.49414 0.00415
C 12.346 12.81206 -0.0014
C 12.30452 11.34002 0.02162
C 13.4867 10.60517 0.0076
C 13.48049 9.24108 0.01241
C 12.30204 8.4951 -0.01454
C 12.30192 7.0703 0.01945
C 13.59521 6.40475 0.01416
C 13.51151 4.87608 0.03542
C 13.39498 27.78228 -0.02689
C 12.30247 4.18476 0.02299
C 12.28677 28.50232 -0.01536
C 13.49217 30.58938 -0.00428
C 11.04854 19.14151 0.00057
C 11.04878 17.71889 -0.01634
C 9.85181 17.03496 -0.00334
C 9.89635 15.66304 0.02339
C 11.08094 14.93394 0.01641
C 11.1241 13.526 -0.00719
C 9.828 12.82489 0.01364
C 9.83577 11.4453 -0.01062
C 11.03466 10.64774 -0.00033
C 11.03681 9.32083 0.03589
C 9.86047 8.53989 -0.02759
C 9.81626 7.10276 0.0402
C 10.99153 6.35311 0.00572
C 11.01486 4.96536 0.03592
C 9.78452 4.27569 0.00406
C 9.79793 2.84425 0.00943
C 11.07279 2.16505 0.02841
C 11.10551 0.72652 -0.01111
C 9.85744 0.11133 -0.01275
C 12.40051 32.71949 0.00985
C 13.58592 31.99874 -0.02245
C 12.3432 29.89251 0.03101
C 12.3087 2.79093 0.00244
C 13.50798 2.15646 -0.01717
C 13.61126 0.75445 0.05265
C 15.99434 6.36875 -0.02815
C 15.93705 5.00605 -0.04147
C 14.73349 4.23757 -0.05302
C 14.70308 2.8089 0.00213
C 15.93784 2.14875 -0.00066
C 16.00336 0.68314 -0.00289
C 14.85188 0.01026 0.00028
C 17.29652 32.63474 -0.02213
C 18.41433 31.91086 0.03698
C 18.46729 30.49059 -0.00109
C 17.28478 29.73607 -0.00491
C 17.21481 28.36366 0.03338
C 18.42245 27.68467 -0.0258
C 18.47253 26.25885 -0.0331
C 17.2047 25.6132 -0.00316
C 17.16455 24.18571 0.02188
C 18.44404 23.45164 -0.01979
C 18.42389 22.04026 0.02691
C 17.15763 21.27062 -0.01581
C 17.18683 19.85543 0.01452
C 18.40425 19.24624 0.04892
C 14.80945 7.10346 0.03505
C 14.74589 8.56428 0.01443
C 15.96434 9.2134 0.00979
C 16.02969 10.65337 -0.00481
C 12.36585 0.0213 -0.01952
C 14.80448 32.67771 -0.02813
C 16.08212 31.94758 0.00374
C 15.98627 30.46933 0.00052
C 14.72066 29.85553 -0.03682
C 14.66896 28.43623 0.01965
C 15.96416 27.70146 0.02058
C 15.95716 26.29041 -0.01957
C 14.70845 25.59469 -0.0108
C 14.70875 24.15383 -0.00368
C 9.78388 19.87442 0.00093
C 15.93032 23.4071 -0.02696
C 14.70229 21.22479 0.00228
C 14.73525 19.7822 0.00798
C 15.93971 19.16122 0.00422
C 15.94306 17.71643 0.0351
C 14.77462 17.00401 -0.03113
C 14.81254 15.5988 0.02098
C 16.05161 14.85511 0.01848
C 16.09213 13.45513 -0.00619
C 14.85611 12.7071 -0.02162
C 14.77878 11.30158 0.00889
C 15.91373 21.98746 -0.00114
C 18.41188 17.79058 -0.00111
C 9.78296 21.32947 0.01291
C 10.98818 23.47959 -0.00191
C 2.34621 0.01993 0.00643
C 6.04351 31.98917 -0.01509
C 6.06699 30.52554 0.03267
C 4.94351 28.57796 0.02374
C 6.10587 27.81184 0.00402
C 6.06123 26.36149 0.0073
C 4.77907 25.67987 0.0174
C 4.8311 24.23568 0.03828
C 6.06289 23.41897 0.01226
C 6.065 22.08456 -0.00279
C 4.90694 21.38308 0.01996
C 4.89734 19.94275 -0.03996
C 6.14508 19.2006 0.01465
C 6.12461 17.80533 -0.00074
C 4.94686 16.98979 -0.00518
C 4.92602 15.57493 0.0086
C 6.09559 14.89972 -0.00643
C 6.19082 13.521 0.017
C 4.95094 12.81908 -0.03113
C 4.88301 11.36214 -0.02566
C 6.12131 10.69569 -0.00094
C 3.64617 0.54185 0.00907
C 6.11891 9.27121 0.02322
C 3.63835 2.0128 0.02379
C 2.44496 4.23653 -0.003
C 3.59713 26.4672 0.00081
C 2.43939 25.66634 0.00245
C 2.42273 24.1492 0.02728
C 3.63096 23.48746 -0.00039
C 3.65904 22.04977 0.0064
C 2.44328 21.26104 0.00211
C 2.38255 19.90468 -0.00449
C 3.67742 19.17166 -0.01979
C 3.72681 17.72495 0.02784
C 2.4962 17.05487 -0.01977
C 2.45784 15.67484 -0.00561
C 3.64893 14.95722 0.00208
C 3.60246 13.5129 0.01707
C 2.33097 12.7918 0.02769
C 2.34867 11.32674 -0.03291
C 3.5788 10.7054 -0.04999
C 3.64476 9.29767 0.04505
C 2.44014 8.58579 0.03284
C 2.42507 7.22493 -0.04307
C 3.58327 6.39246 0.03189
C 3.60653 4.92794 0.00031
C 2.41582 2.82861 0.01402
C 4.9134 8.57375 -0.00725
C 4.91587 7.16403 -0.05697
C 6.15607 6.40193 0.01087
C 7.34112 11.37979 -0.04848
C 8.6225 10.6507 -0.00892
C 8.59626 9.24193 -0.01362
C 7.33231 8.58435 -0.0008
C 7.37099 7.08758 0.0288
C 8.60008 6.39665 0.00393
C 8.56693 4.97218 0.00895
C 7.33689 4.29988 0.00685
C 7.36337 2.84775 0.02888
C 8.56777 2.15221 -0.00482
C 8.62382 0.69861 -0.01384
C 7.43099 0.00898 0.03693
C 9.80662 32.69307 0.01745
C 11.10235 32.08049 0.00488
C 11.08206 30.62339 -0.01004
C 9.83136 29.9818 -0.02896
C 9.78569 28.52881 -0.00131
C 11.0695 27.81881 -0.01118
C 10.93987 26.44538 -0.014
C 9.79684 25.6533 0.02147
C 9.73933 24.18354 0.00373
C 7.42458 12.83308 0.01572
C 8.63864 13.58205 -0.00095
C 8.64389 14.98136 0.03007
C 7.38821 15.67703 0.00054
C 6.10818 4.95158 -0.01343
C 4.88487 4.22619 0.00988
C 4.89862 2.78888 0.0276
C 6.15425 2.19041 0.01305
C 6.15334 0.78035 -0.00077
C 4.97299 33.99624 0.03368
C 7.30434 32.66706 -0.02929
C 8.52361 32.06007 -0.00966
C 8.55652 30.65569 -0.03337
C 7.33536 29.89509 0.01227
C 11.0864 22.0648 0.00438
C 7.32516 28.52729 0.00873
C 8.55369 26.33611 0.00848
C 7.35863 25.61517 -0.01303
C 7.29873 24.20604 -0.01378
C 8.52355 23.47756 0.02635
C 8.58852 22.03825 0.0127
C 7.36047 21.29542 0.01396
C 7.34485 19.92483 0.01849
C 8.54991 19.23111 -0.01142
C 8.63657 17.80279 -0.00562
C 7.42185 17.09848 -0.00494
C 8.52081 27.76827 -0.00049
C 17.12558 17.02778 -0.03557
C 17.28976 15.66238 0.03754
C 18.53899 14.89858 0.01739
C 30.65395 10.78246 -0.00971
C 30.5252 9.37544 0.01518
C 29.62636 8.42304 0.01908
C 29.55459 7.03212 0.07705
C 30.73076 6.32831 0.0103
C 30.79374 4.93071 0.02108
C 29.59716 4.20384 0.00716
C 29.51967 2.83338 0.00307
C 30.76048 2.10117 0.00346
C 30.77223 0.68829 0.01713
C 29.54761 34.05137 -0.01694
C 31.9896 32.56433 0.01428
C 33.26569 31.92061 -0.02142
C 33.31309 30.495 0.0544
C 32.01734 29.82414 0.00026
C 31.99078 28.38333 0.00682
C 33.18477 27.66264 -0.01779
C 33.17383 26.25134 0.03794
C 31.89397 25.58961 0.01927
C 31.92236 24.17033 0.01574
C 33.15962 23.37852 -0.02383
C 30.67124 13.37335 -0.03735
C 33.18633 21.97034 -0.01429
C 30.61388 14.74721 -0.00944
C 29.45409 17.10531 -0.01461
C 26.87477 6.77057 0.01699
C 28.24919 6.35462 -0.00416
C 28.43468 5.04777 0.01177
C 28.32223 2.11111 0.04266
C 28.25877 0.69596 0.01324
C 27.00591 0.00797 0.0014
C 29.55602 32.63913 0.00924
C 30.77513 31.96428 0.02326
C 30.78444 30.58559 0.00261
C 29.60702 29.86482 0.03265
C 29.58139 28.40674 -0.02049
C 30.78046 27.7128 -0.01854
C 30.63261 26.2847 -0.01415
C 29.49662 25.5955 -0.03039
C 29.46346 24.15827 0.01836
C 30.66111 23.44073 0.03531
C 30.69284 21.95518 -0.00669
C 29.45783 21.26316 0.0101
C 29.39983 19.86518 0.01705
C 30.67604 19.15475 -0.0405
C 30.66678 17.73267 -0.01303
C 29.58566 15.70599 -0.02155
C 31.9419 21.28943 -0.0136
C 31.86618 19.85983 0.00594
C 33.14132 19.18268 -0.02474
C 1.1497 21.96953 0.02712
C 0.00056 21.30946 -0.02213
C 34.39063 19.88029 0.01951
C 1.15989 19.18516 -0.01678
C 1.23103 17.73546 0.01223
C 34.38418 17.05702 0.00648
C 34.3828 15.59428 0.02114
C 1.2232 14.87235 -0.02957
C 1.15089 13.48088 0.00343
C 34.38386 12.74818 -0.02656
C 34.36625 11.35133 -0.02442
C 1.14154 10.61145 -0.00027
C 1.20388 9.18529 -0.00583
C 34.36069 8.48969 -0.02302
C 34.4226 7.08048 -0.02849
C 1.25591 6.4014 0.02931
C 1.24891 4.96563 0.00628
C 34.39373 4.29247 -0.0345
C 34.3744 2.88968 -0.00931
C 1.17782 2.16335 -0.00939
C 1.12396 0.69495 -0.00468
C 1.16302 23.38317 0.00723
C 34.33737 24.0526 0.03076
C 34.37877 25.51893 -0.05239
C 1.17277 26.28524 -0.00598
C 33.13167 17.72564 0.00369
C 31.90319 16.96289 0.00455
C 31.89536 15.63071 -0.00644
C 33.1286 14.9493 -0.01839
C 33.19371 13.48581 0.00137
C 31.9565 12.77118 0.00199
C 31.93364 11.38898 0.04381
C 33.21016 10.59225 0.02806
C 33.12721 9.21166 0.01504
C 31.81447 8.56848 -0.00069
C 26.99174 16.91275 0.01799
C 31.93914 7.12393 0.04926
C 33.15355 5.03884 0.00349
C 31.96466 4.20466 -0.00323
C 31.94418 2.77852 -0.00841
C 33.18079 2.13149 0.0001
C 33.18046 0.71082 -0.02927
C 32.01054 34.02959 -0.01404
C 0.01984 32.67408 0.01027
C 0.09792 29.73961 0.01831
C 34.3744 28.38125 -0.01037
C 1.13336 27.61629 -0.00439
C 33.21105 6.40893 -0.03838
C 28.17088 17.68164 0.01259
C 28.15681 19.14534 0.01495
C 26.97035 19.83606 0.00235
C 19.62279 19.95256 0.01087
C 20.77776 19.14313 0.00199
C 20.81137 17.71883 0.01511
C 19.63444 17.04169 -0.00478
C 19.72397 15.60408 -0.01662
C 19.55741 12.67153 -0.01185
C 19.72929 11.34775 0.01126
C 19.66975 8.51225 0.01852
C 19.73987 7.10252 -0.00381
C 21.03138 6.40073 0.03046
C 20.92436 5.01752 0.0296
C 19.67595 4.2759 0.03374
C 19.74215 2.80085 -0.02845
C 20.93454 2.10317 -0.03213
C 20.95855 0.68098 0.02239
C 19.70116 34.04201 0.01153
C 22.18671 32.56103 0.02734
C 23.42171 31.90773 -0.0055
C 23.44305 30.5331 0.01515
C 22.18363 29.82284 -0.00225
C 22.20175 28.44549 0.00071
C 19.65425 21.3913 -0.01527
C 20.89463 21.99434 0.00096
C 20.91922 23.41809 0.01277
C 19.62557 24.12305 -0.02422
C 18.48129 13.53077 0.00755
C 17.33439 12.8105 -0.0054
C 17.33654 11.3977 0.00667
C 18.55194 10.58041 0.00143
C 18.53244 9.1878 -0.017
C 17.27075 8.60475 0.00364
C 17.22384 7.12896 -0.00831
C 18.47379 6.40856 -0.02957
C 18.42348 4.98424 -0.04422
C 17.14112 4.34753 0.00654
C 23.43393 27.67292 -0.01107
C 17.17385 2.87482 -0.00703
C 18.50192 0.70673 -0.00652
C 17.23764 34.02372 0.0058
C 19.65138 32.60847 -0.00865
C 20.97996 31.94357 0.00675
C 20.93449 30.48662 -0.00311
C 19.6742 29.82687 0.00742
C 19.63698 28.31262 -0.01594
C 20.94865 27.66334 0.0106
C 20.92668 26.27222 -0.01154
C 19.67409 25.5539 -0.01721
C 18.50137 2.1115 -0.04076
C 3.74208 27.93918 -0.02805
C 23.2987 26.30919 -0.01586
C 22.16519 24.10202 -0.02118
C 24.57206 21.27452 0.00195
C 24.56726 19.82604 -0.00802
C 25.75343 19.08121 -0.00218
C 25.77465 17.58068 -0.01654
C 24.51114 17.07337 -0.00037
C 25.55116 6.92978 -0.0032
C 24.68581 2.84169 0.00622
C 25.82188 0.73681 -0.02815
C 24.62549 0.02321 -0.00942
C 27.10146 32.66814 0.00487
C 28.32526 31.95721 0.00826
C 28.30293 30.55107 -0.00294
C 27.05193 29.77852 0.00152
C 27.03252 28.37465 0.01257
C 28.29461 27.71948 0.02316
C 28.294 26.3514 0.04185
C 26.9943 25.56736 0.00194
C 26.98538 24.07074 -0.00621
C 28.29868 23.43447 0.02611
C 28.31259 22.02846 0.02198
C 27.0738 21.28465 0.01094
C 25.75706 21.94834 0.00996
C 25.78167 23.39215 0.04306
C 24.50697 24.15368 0.00367
C 24.51364 25.53699 -0.01679
C 23.35065 23.37544 0.00733
C 23.38674 21.91871 -0.00178
C 22.14536 21.25023 0.00768
C 22.07615 19.79361 -0.0276
C 23.31274 19.00557 0.03005
C 23.2146 17.5169 -0.04078
C 21.97107 17.02951 0.02117
C 22.31616 6.91015 0.02737
C 23.5492 6.43289 -0.00498
C 23.19109 5.08758 0.00135
C 22.1466 25.57583 -0.01971
C 22.14525 4.26895 0.03102
C 23.48049 2.08044 0.01423
C 23.41301 0.69076 -0.00285
C 22.21483 34.00928 -0.009
C 24.62053 32.65211 -0.01199
C 25.83565 31.96136 -0.00229
C 25.87052 30.50274 -0.00938
C 24.58579 29.75108 -0.0264
C 24.6564 28.40343 -0.01154
C 25.81605 27.73633 0.00684
C 25.7366 26.26641 -0.01052
C 22.19472 2.81716 0.02555
C 2.43777 28.44606 -0.01386
