287
Graphene
C 34.35482 0.0049 0.01295
C 12.34772 21.26002 0.00364
C 12.30909 19.87806 -0.00831
C 13.61229 19.13381 -0.02957
C 13.47704 17.7345 -0.04422
C 12.24345 17.06217 0.00654
C 12.36897 15.67909 -0.00703
C 13.50795 22.05058 -0.017
C 13.52547 14.97436 -0.04076
C 12.19918 2.51694 0.0058
C 13.52421 2.05893 -0.00865
C 13.51493 0.69878 0.00675
C 12.30614 34.07472 -0.00311
C 14.77394 32.60322 0.00742
C 16.06601 31.98234 -0.01594
C 13.296 13.61984 -0.00652
C 16.14803 30.55219 0.0106
C 13.47706 23.4512 0.00143
C 12.263 25.5103 -0.0054
C 10.97822 17.6993 -0.0258
C 9.7344 16.96179 -0.0331
C 9.96169 15.52622 -0.00316
C 10.96566 14.96991 0.02188
C 10.94364 2.15514 -0.01979
C 10.98368 0.72387 0.02691
C 12.30959 24.1431 0.00667
C 9.84867 0.05757 -0.01581
C 13.56368 31.99603 0.04892
C 13.60015 30.58874 -0.00111
C 12.35834 29.88679 -0.03557
C 12.35973 28.3906 0.03754
C 13.60412 27.62759 0.01739
C 13.59078 26.22632 0.00755
C 12.30896 32.70941 0.01452
C 11.06262 19.17786 0.03338
C 14.8968 29.84366 -0.01154
C 16.11814 27.71701 -0.02422
C 14.92577 7.20582 0.01153
C 16.1072 6.39784 0.02734
C 15.98279 4.90338 -0.0055
C 14.76689 4.31907 0.01515
C 14.77765 2.86374 -0.00225
C 16.0244 2.15255 0.00071
C 14.91035 8.53784 0.02239
C 15.99277 0.74231 -0.01107
C 17.21466 32.70926 -0.01971
C 18.49526 32.01213 -0.02118
C 18.3674 30.67823 0.00733
C 17.40661 29.76627 -0.00178
C 17.37958 28.28121 0.00768
C 17.22941 25.36454 -0.0276
C 14.7367 0.00358 -0.01586
C 14.81669 28.43 -0.01721
C 15.98275 9.34365 -0.03213
C 14.88155 11.48705 0.03374
C 16.02414 26.23982 0.01277
C 14.82697 25.58269 0.00096
C 14.75402 24.06857 -0.01527
C 15.96891 23.39716 0.01087
C 15.97611 21.94022 0.00199
C 14.77547 21.28516 0.01511
C 16.00295 10.71282 -0.02845
C 14.82466 19.91693 -0.00478
C 16.02034 17.80474 -0.01185
C 14.71197 17.12269 0.01126
C 14.77369 15.76073 0.01852
C 15.86065 14.9518 -0.00381
C 15.83332 13.52293 0.03046
C 14.5088 12.85168 0.0296
C 16.07451 19.28165 -0.01662
C 17.15873 24.13094 0.03005
C 9.81115 19.85581 -0.00491
C 11.05379 21.9598 0.03698
C 3.69384 0.70069 0.01877
C 2.39334 0.06393 0.01363
C 4.84911 32.56701 -0.02162
C 6.15285 32.05515 0.00415
C 6.19419 30.62642 -0.0014
C 4.96114 29.8683 0.02162
C 3.56037 2.18602 -0.00925
C 4.89498 28.46244 0.0076
C 6.18051 26.31998 -0.01454
C 4.95014 25.55729 0.01945
C 4.91111 24.10006 0.01416
C 6.16912 23.39708 0.03542
C 6.12052 22.00508 0.02299
C 4.88439 21.32168 0.00244
C 6.17603 27.73655 0.01241
C 4.84405 19.8606 -0.01717
C 2.3792 2.70181 0.00444
C 2.42181 15.67776 0.02894
C 3.72133 30.52788 0.02841
C 2.4476 29.91519 -0.01111
C 2.46048 28.4665 -0.01275
C 3.66514 27.71427 0.00985
C 3.68221 26.28512 -0.02245
C 2.44335 25.58255 -0.00428
C 3.84628 15.08561 -0.01789
C 2.4795 24.20266 0.03101
C 3.64631 22.03148 -0.02689
C 2.32816 21.28646 -0.01046
C 2.39572 19.91244 -0.00891
C 3.5913 19.18896 0.02819
C 3.62424 17.77888 0.00165
C 2.46907 17.08106 -0.02971
C 3.67342 23.47061 -0.01536
C 9.82694 21.26366 -0.00109
C 6.0892 19.22217 0.05265
C 4.87333 17.16516 -0.02813
C 7.25367 16.91491 -0.02162
C 6.86628 15.60176 0.00889
C 8.64335 0.75928 -0.00481
C 7.28432 0.18166 0.00979
C 9.89129 32.64825 0.01443
C 11.13663 32.03662 0.03505
C 8.56183 17.72086 -0.00619
C 11.1414 30.59861 -0.02815
C 9.79613 28.47124 -0.05302
C 11.13686 27.74525 0.00213
C 11.13159 26.26624 -0.00066
C 9.84833 25.46096 -0.00289
C 9.8009 24.13544 0.00028
C 11.07187 23.42845 -0.02213
C 9.82917 29.88401 -0.04147
C 6.08499 17.87183 -0.01952
C 8.57984 19.18498 0.01848
C 7.32453 21.30453 -0.03113
C 5.0177 15.69875 0.00374
C 6.00222 0.70036 0.00052
C 4.83921 33.99637 -0.03682
C 7.36116 32.77762 0.01965
C 8.63715 31.98404 0.02058
C 8.63169 30.58833 -0.01957
C 7.31567 19.8818 0.02098
C 7.39482 29.89687 -0.0108
C 8.63643 27.70713 -0.02696
C 8.63908 26.2158 -0.00114
C 7.39237 25.5621 0.00228
C 7.31713 24.12061 0.00798
C 8.57471 23.40401 0.00422
C 8.58326 22.01579 0.0351
C 7.40697 28.40757 -0.00368
C 3.59474 31.97978 0.00943
C 18.44045 22.03221 -0.04078
C 17.23135 19.95859 0.02737
C 32.02413 24.08915 -0.0136
C 33.24118 23.44821 0.00594
C 33.22883 22.0485 -0.02474
C 31.92033 21.33428 0.00369
C 31.96953 19.96581 0.00455
C 33.13271 19.27767 -0.00644
C 31.92269 25.46775 -0.01429
C 33.21107 17.76859 -0.01839
C 31.88916 15.61595 0.00199
C 33.03114 14.83811 0.04381
C 33.19717 13.31349 0.02806
C 32.30444 12.02331 0.01504
C 33.1645 10.86222 -0.00069
C 33.13655 9.38352 0.04926
C 31.93998 17.01141 0.00137
C 31.96602 8.65524 -0.03838
C 33.19082 26.25555 -0.02383
C 31.91148 28.24018 0.01927
C 30.66277 22.04625 0.0103
C 29.42649 21.34972 0.02108
C 29.48575 19.939 0.00716
C 30.73521 19.27126 0.00307
C 30.68639 17.79669 0.00346
C 29.51414 17.03479 0.01713
C 33.15608 27.64329 0.01574
C 30.9004 9.40267 -0.01694
C 30.67155 0.71833 -0.02142
C 29.48518 34.07881 0.0544
C 31.83107 32.6449 0.00026
C 33.11842 31.9648 0.00682
C 33.05117 30.55058 -0.01779
C 31.83724 29.7398 0.03794
C 30.59537 2.14535 0.01428
C 30.67491 23.43495 0.07705
C 31.71574 7.28767 0.00349
C 33.06085 5.16012 -0.00841
C 1.21334 19.13826 -0.02957
C 1.15741 17.70211 0.00343
C 34.32181 16.97021 -0.02656
C 34.32928 15.54637 -0.02442
C 1.2001 14.91515 -0.00027
C 1.38114 13.57379 -0.00583
C 34.36706 19.8526 0.02114
C 0.09657 12.91436 -0.02302
C 34.38523 8.71538 0.02931
C 34.07937 7.49789 0.00628
C 34.05364 4.16605 -0.0345
C 34.24237 2.81945 -0.00931
C 1.0966 2.16806 -0.00939
C 1.10816 0.71452 -0.00468
C 0.01674 11.48193 -0.02849
C 32.96102 6.58095 -0.00323
C 34.36033 21.30825 0.00648
C 1.18523 23.53193 -0.01678
C 32.27429 4.09657 0.0001
C 31.92834 2.81187 -0.02927
C 33.09883 1.95906 -0.01404
C 33.12245 0.66238 0.01027
C 31.90655 34.0681 0.01831
C 34.36002 32.64761 -0.01037
C 1.15645 22.05996 0.01223
C 1.24752 31.99592 -0.00439
C 34.42139 29.83592 -0.05239
C 34.38902 28.45019 0.03076
C 1.20226 27.79752 0.00723
C 1.17551 26.32316 0.02712
C 34.34928 25.55612 -0.02213
C 34.38396 24.14677 0.01951
C 1.21076 30.59725 -0.00598
C 17.25175 21.34011 0.02117
C 29.64363 24.2011 0.01908
C 30.57919 27.41227 -0.00971
C 17.24697 0.05871 0.00195
C 19.7536 32.69326 -0.00802
C 21.03388 31.87768 -0.00218
C 19.4374 21.29432 -0.01654
C 19.67215 19.81401 -0.00037
C 20.83774 19.16992 -0.0032
C 18.47925 0.69284 0.00996
C 20.86275 17.784 0.00622
C 19.65748 15.60498 -0.00942
C 20.88609 14.86891 0.00487
C 20.94365 13.40295 0.00826
C 19.66092 12.74881 -0.00294
C 19.57253 11.36513 0.00152
C 20.84102 10.63668 0.01257
C 19.66883 17.02743 -0.02815
C 19.64701 8.5181 0.02316
C 18.59234 2.07159 0.04306
C 17.24835 4.22124 -0.01679
C 18.43683 19.14171 -0.00498
C 18.43247 17.74552 0.00135
C 17.1856 17.03102 0.03102
C 17.21413 15.60427 0.02555
C 18.42454 14.86695 0.01423
C 18.36081 13.50464 -0.00285
C 17.26842 2.87033 0.00367
C 17.09633 12.7622 -0.009
C 18.41206 10.58353 -0.00229
C 18.44695 9.21892 -0.00938
C 17.19563 8.58372 -0.0264
C 17.24922 7.12846 -0.01154
C 18.53029 6.41482 0.00684
C 18.35812 5.18454 -0.01052
C 17.23707 11.42585 -0.01199
C 30.65206 25.96063 0.01518
C 19.76164 2.72373 0.04185
C 19.75901 0.03298 -0.00621
C 27.96368 31.96401 -0.01854
C 28.12992 30.54558 -0.01415
C 28.11148 21.97877 -0.03039
C 27.17295 20.06853 0.01836
C 28.1931 19.16438 0.03531
C 28.20982 17.71688 -0.00669
C 26.69128 32.79055 -0.02049
C 26.99261 17.08874 0.0101
C 27.19195 0.01652 -0.0405
C 29.26881 32.66458 -0.01303
C 30.49986 31.8926 -0.01461
C 30.59853 30.49268 -0.02155
C 29.26101 29.69801 -0.00944
C 29.6265 28.32932 -0.03735
C 28.16936 0.83537 0.01705
C 20.76983 1.09777 0.00194
C 24.31187 33.97764 0.03265
C 25.75501 17.27501 0.02326
C 21.89697 32.83768 0.02611
C 22.0676 19.76621 0.02198
C 23.3228 19.60854 0.01094
C 23.22522 17.61328 0.00235
C 21.99352 17.10533 0.01495
C 22.04977 15.60973 0.01259
C 24.43764 17.11553 0.00261
C 23.25356 14.82008 0.01799
C 22.27296 12.658 -0.00416
C 22.0462 11.21936 0.01177
C 22.00109 0.18402 0.04266
C 24.61691 32.74318 0.01324
C 24.63868 19.98764 0.0014
C 25.83054 19.843 0.00924
C 23.30411 13.64024 0.01699
C 2.40757 32.69372 0.00406
