410
Graphene
C 34.40571 0.02537 0.01295
C 15.92835 26.29485 0.03101
C 14.73824 25.61268 -0.01536
C 14.71225 24.19587 -0.02689
C 15.92819 23.45687 -0.01046
C 15.93146 21.9901 -0.00891
C 14.75922 21.37637 0.02819
C 15.98088 17.63662 0.00165
C 14.76172 17.00249 -0.02971
C 14.79249 15.6114 0.02894
C 15.9828 14.86181 -0.01789
C 16.01335 13.46964 0.00444
C 14.82759 12.78791 -0.00925
C 14.82264 11.34718 0.01877
C 16.01923 10.67806 0.01363
C 15.96083 9.20325 -0.02162
C 14.79043 8.45363 0.00415
C 14.73306 6.99607 -0.0014
C 16.00032 6.27819 0.02162
C 15.96318 4.91186 0.0076
C 14.73187 4.26566 0.01241
C 14.70138 2.84594 -0.01454
C 15.99818 27.69776 -0.00428
C 14.73712 28.45528 -0.02245
C 14.73662 29.94362 0.00985
C 15.94902 30.61529 -0.01275
C 12.34504 19.83094 -0.00191
C 13.55912 19.26895 0.00438
C 13.56632 17.86581 0.01291
C 12.20766 17.1062 0.00093
C 12.29202 15.68725 0.00057
C 13.50767 14.91785 -0.01634
C 13.54541 13.4809 -0.00334
C 12.32005 12.86762 0.02339
C 12.32128 11.39485 0.01641
C 13.54576 10.69796 -0.00719
C 15.94865 2.11577 0.01945
C 13.56398 9.19189 0.01364
C 12.34875 7.16119 -0.00033
C 13.54124 6.35351 0.03589
C 13.47752 4.90675 -0.02759
C 12.24285 4.23451 0.0402
C 12.28271 2.83396 0.00572
C 13.52428 2.10775 0.03592
C 13.60648 0.71719 0.00406
C 12.33118 0.14673 0.00943
C 14.71927 32.70412 0.02841
C 16.03981 32.08547 -0.01111
C 12.32314 8.52636 -0.01062
C 12.28277 21.26272 0.00373
C 16.05644 0.7083 0.01416
C 17.2248 32.76216 0.02299
C 17.28733 4.25204 0.00979
C 17.20638 2.79482 0.01443
C 18.51187 2.19998 0.03505
C 18.49427 0.81126 -0.02815
C 17.24838 0.04847 -0.04147
C 19.67348 32.56379 -0.05302
C 20.95938 31.92757 0.00213
C 20.93403 30.51227 -0.00066
C 19.6873 29.7699 -0.00289
C 19.61894 28.32647 0.00028
C 20.83114 27.63688 -0.02213
C 20.86052 26.21926 0.03698
C 19.6195 25.59397 -0.00109
C 19.59826 24.13407 -0.00491
C 20.85759 23.4262 0.03338
C 20.83343 22.01302 -0.0258
C 19.60915 21.3485 -0.0331
C 19.62564 19.87112 -0.00316
C 20.87682 19.18402 0.02188
C 20.92567 17.73524 -0.01979
C 19.68493 17.01926 0.02691
C 18.48427 5.02023 -0.00481
C 18.47041 6.43979 0.00889
C 17.18865 7.10162 -0.02162
C 17.16418 8.5484 -0.00619
C 18.42235 31.90247 0.00244
C 18.45748 30.45511 -0.01717
C 17.15955 29.84942 0.05265
C 17.18699 28.41149 -0.01952
C 18.41159 27.67286 -0.02813
C 18.40949 26.26265 0.00374
C 17.2326 25.53942 0.00052
C 17.14582 24.1462 -0.03682
C 18.37728 23.44709 0.01965
C 18.34427 22.05863 0.02058
C 14.83113 0.01375 0.03542
C 17.20825 21.23553 -0.01957
C 18.36613 19.12159 -0.00368
C 18.44401 17.70014 -0.02696
C 17.13267 17.01215 -0.00114
C 17.20475 15.56002 0.00228
C 18.46851 14.93945 0.00798
C 18.51596 13.47195 0.00422
C 17.29971 12.80149 0.0351
C 17.24511 11.42162 -0.03113
C 18.46506 10.64828 0.02098
C 18.42675 9.24439 0.01848
C 17.27348 19.82211 -0.0108
C 13.52707 21.92115 0.02147
C 13.46412 23.43627 -0.014
C 12.2702 24.34918 -0.01118
C 6.11184 17.74368 0.00031
C 4.93693 17.05948 -0.003
C 4.95672 15.61993 0.01402
C 6.13198 14.96889 0.02379
C 6.09638 13.51744 0.00907
C 4.88891 12.8445 0.00643
C 4.87247 11.45248 -0.01509
C 6.12814 10.73351 0.03267
C 6.10163 9.29003 0.02374
C 4.9138 8.50792 0.00402
C 4.83276 7.08459 0.0073
C 6.09167 6.35601 0.0174
C 6.16996 5.00468 0.03828
C 4.96121 4.21637 0.01226
C 4.9792 2.72343 -0.00279
C 6.13665 2.0935 0.01996
C 6.08752 0.68716 -0.03996
C 4.88698 33.96304 0.01465
C 7.39922 32.67837 -0.00074
C 8.57935 31.99965 -0.00518
C 8.71119 30.59225 0.0086
C 6.04904 30.56813 0.03189
C 6.15142 31.90386 -0.04307
C 4.8308 32.6013 0.03284
C 2.38956 34.04084 0.04505
C 3.61389 30.60034 0.00828
C 2.39863 29.80021 -0.02375
C 2.25498 28.53857 0.00558
C 2.52025 19.78673 -0.0059
C 3.60661 19.2715 -0.01386
C 3.72509 17.82806 -0.02805
C 2.44593 17.08292 0.00081
C 2.44438 15.65889 0.00245
C 3.68514 14.95392 0.02728
C 3.69892 13.52523 -0.00039
C 8.76184 19.10334 -0.00643
C 2.49151 12.77198 0.0064
C 3.66868 10.65038 -0.00449
C 3.70874 9.25586 -0.01979
C 2.45052 8.61484 0.02784
C 2.4302 7.175 -0.01977
C 3.6377 6.43286 -0.00561
C 3.76191 5.01007 0.00208
C 2.56421 4.28149 0.01707
C 2.4768 2.78853 0.02769
C 3.64815 2.09516 -0.03291
C 3.64746 0.60311 -0.04999
C 2.47273 11.34967 0.00211
C 8.4787 17.74476 0.017
C 7.21711 17.04117 -0.03113
C 7.35007 15.57946 -0.02566
C 11.06479 13.53652 -0.00494
C 9.83748 12.80963 0.00054
C 9.86262 11.36544 0.03007
C 11.0902 10.72825 -0.00095
C 11.08952 9.26829 0.01572
C 9.89606 8.53928 -0.04848
C 9.84528 7.12335 -0.00892
C 11.16596 6.43514 -0.01362
C 11.08186 4.99576 -0.0008
C 9.77313 4.38716 0.0288
C 11.05499 14.96167 -0.00562
C 9.74153 2.931 0.00393
C 11.08713 0.83067 0.00685
C 9.85258 0.10596 0.02888
C 12.25209 32.75016 -0.00482
C 13.47384 32.08327 -0.01384
C 13.38745 30.66115 0.03693
C 12.27751 29.90926 0.01745
C 12.2692 28.40331 0.00488
C 13.56354 27.72974 -0.01004
C 13.44393 26.31149 -0.02896
C 12.25055 25.57841 -0.00131
C 10.97524 2.21419 0.00895
C 19.68012 15.63599 -0.01581
C 9.77069 15.59699 -0.01142
C 10.94674 17.78865 0.01396
C 8.59084 14.8527 -0.00094
C 8.63681 13.46123 0.02322
C 7.35952 12.84851 -0.00725
C 7.34947 11.4307 -0.05697
C 8.56224 10.64821 0.01087
C 8.61226 9.27562 -0.01343
C 7.36329 8.55425 0.00988
C 7.3255 7.11993 0.0276
C 8.54134 6.44849 0.01305
C 8.54128 5.02918 -0.00077
C 9.70809 17.01339 0.01849
C 7.41174 4.2371 0.03368
C 8.60765 2.19242 -0.00966
C 8.62399 0.71929 -0.03337
C 7.36766 0.0632 0.01227
C 9.81985 32.67933 0.00873
C 11.03733 31.99995 -0.00049
C 11.02945 30.53334 0.00848
C 9.79614 29.86054 -0.01303
C 11.14493 27.68794 -0.01378
C 9.69531 19.80798 0.02635
C 11.02638 19.23699 0.0127
C 7.3833 2.8578 -0.02929
C 20.92883 14.91888 0.01452
C 20.91638 13.49588 0.04892
C 19.66415 12.75731 -0.00111
C 30.76874 10.54257 -0.03735
C 30.80661 9.15753 -0.00971
C 29.50179 8.53223 0.01518
C 29.46038 7.07539 0.01908
C 30.71967 6.38959 0.07705
C 30.72287 4.98403 0.0103
C 29.48511 4.2207 0.02108
C 29.56702 2.8104 0.00716
C 30.75688 2.12012 0.00307
C 30.69807 0.73131 0.00346
C 29.48835 34.05012 0.01713
C 31.93397 32.67097 -0.01694
C 33.15886 31.92027 0.01428
C 33.16891 30.51659 -0.02142
C 31.95399 29.80951 0.0544
C 31.93958 28.39194 0.00026
C 33.18837 27.63875 0.00682
C 33.15617 26.2065 -0.01779
C 31.95569 25.54739 0.03794
C 31.94973 24.14662 0.01927
C 33.12919 23.49659 0.01574
C 29.5246 11.32644 -0.00944
C 29.50009 12.73952 -0.02155
C 30.76198 13.43782 -0.01461
C 30.7 14.88142 -0.01303
C 27.02439 4.1964 0.01259
C 27.09448 2.75396 0.01799
C 28.31814 2.08216 0.01699
C 28.26957 0.64619 -0.00416
C 27.00279 34.05914 0.01177
C 29.45961 32.64474 0.04266
C 30.75073 32.00664 0.01324
C 30.72734 30.58106 0.0014
C 29.52583 29.90784 0.00924
C 29.51409 28.42788 0.02326
C 33.0481 22.04495 -0.02383
C 30.81215 27.69094 0.00261
C 29.59956 25.66111 -0.02049
C 29.63431 24.1715 -0.01854
C 30.78298 23.3793 -0.01415
C 30.67562 22.00726 -0.03039
C 29.45734 21.33786 0.01836
C 29.50442 19.92718 0.03531
C 30.67121 19.14307 -0.00669
C 30.73566 17.68887 0.0101
C 29.43154 17.02694 0.01705
C 29.5166 15.57807 -0.0405
C 30.7482 26.31754 0.03265
C 31.90994 21.30586 -0.01429
C 31.95737 19.85796 -0.0136
C 33.21276 19.20891 0.00594
C 34.3667 24.07348 0.00723
C 1.24229 21.93816 0.02712
C 34.38751 21.40936 -0.02213
C 34.41058 19.90689 0.01951
C 1.1997 19.19794 -0.01678
C 1.20915 17.76296 0.01223
C 34.39896 17.06712 0.00648
C 34.38184 15.59022 0.02114
C 1.22613 14.93182 -0.02957
C 1.21507 13.51661 0.00343
C 0.04937 25.48402 0.03076
C 34.42355 12.88387 -0.02656
C 1.16271 10.73323 -0.00027
C 1.18233 9.32142 -0.00583
C 0.01685 8.55069 -0.02302
C 0.00281 7.12552 -0.02849
C 1.22817 6.45341 0.02931
C 1.30311 5.01017 0.00628
C 0.01942 4.25739 -0.0345
C 0.03327 2.82839 -0.00931
C 1.24632 2.14105 -0.00939
C 1.24605 0.73366 -0.00468
C 34.39923 11.42414 -0.02442
C 28.24596 4.88092 0.01495
C 1.17133 26.23452 -0.05239
C 34.36674 28.3661 -0.00439
C 33.17567 17.7334 -0.02474
C 31.91996 17.00408 0.00369
C 31.98204 15.63508 0.00455
C 33.11634 14.86901 -0.00644
C 33.13585 13.48611 -0.01839
C 31.96466 12.78977 0.00137
C 31.98101 11.30379 0.00199
C 33.21916 10.68563 0.04381
C 33.2167 9.25133 0.02806
C 32.05816 8.42881 0.01504
C 1.27826 27.62183 -0.00598
C 32.01956 7.0644 -0.00069
C 33.20069 4.92166 -0.03838
C 31.93577 4.22277 0.00349
C 32.01876 2.83947 -0.00323
C 33.209 2.14566 -0.00841
C 33.16521 0.68615 0.0001
C 31.9778 34.06987 -0.02927
C 34.39331 32.67976 -0.01404
C 1.1007 31.9816 0.01027
C 1.15892 30.53999 0.01831
C 34.38039 29.73118 -0.01037
C 33.21059 6.3193 0.04926
C 3.57277 31.88652 0.00088
C 28.24741 6.29911 0.00235
C 27.05175 8.44732 0.02198
C 23.3843 17.65592 0.01277
C 22.19184 16.95028 0.00096
C 22.21721 15.51586 -0.01527
C 23.45217 14.87521 0.01087
C 23.35361 13.45525 0.00199
C 22.11836 12.78047 0.01511
C 22.10511 11.31322 -0.00478
C 23.38248 10.58972 -0.01662
C 23.45114 9.1947 -0.01185
C 22.16373 8.48727 0.01126
C 22.16391 7.08205 0.01852
C 23.33924 6.35752 -0.00381
C 23.32997 4.96362 0.03046
C 22.15064 4.25791 0.0296
C 22.2029 2.85093 0.03374
C 23.43703 2.14417 -0.02845
C 23.36304 0.72053 -0.03213
C 22.13543 34.00918 0.02239
C 24.69425 32.73663 0.01153
C 25.84815 31.91934 0.02734
C 25.78475 30.51251 -0.0055
C 23.37034 19.11081 -0.02422
C 22.15175 19.87279 -0.01721
C 22.09828 21.30889 -0.01154
C 23.35611 22.02864 0.0106
C 19.66906 11.37441 -0.03557
C 20.80934 10.61904 0.03754
C 20.93575 9.22077 0.01739
C 19.69982 8.57607 0.00755
C 19.66078 7.14886 -0.0054
C 20.91402 6.35751 0.00667
C 20.931 5.0193 0.00143
C 19.68508 4.3083 -0.017
C 19.71601 2.84963 0.00364
C 20.95031 2.14334 -0.00831
C 24.5299 29.83203 0.01515
C 20.91025 0.65505 -0.02957
C 22.23605 32.63589 0.00654
C 23.45388 32.01474 -0.00703
C 23.34176 30.59111 -0.04076
C 22.09807 29.81917 -0.00652
C 22.02559 28.40694 0.0058
C 23.30127 27.66628 -0.00865
C 23.25817 26.24993 0.00675
C 22.09747 25.47778 -0.00311
C 22.09326 24.08631 0.00742
C 23.33355 23.518 -0.01594
C 19.69549 34.02019 -0.04422
C 24.49024 28.36967 -0.00225
C 25.78718 27.66069 0.00071
C 25.79868 26.29693 -0.01107
C 28.26666 31.92262 0.00367
C 28.2425 30.53166 0.04306
C 27.03283 29.82735 0.00996
C 27.03238 28.35819 0.00195
C 28.30379 27.67901 -0.00802
C 28.28114 26.18217 -0.00218
C 27.04424 25.5546 -0.01654
C 27.1327 24.17525 -0.00037
C 28.35049 23.46839 -0.0032
C 28.28553 22.09123 0.00622
C 27.0575 32.69435 -0.01679
C 27.0216 21.35569 -0.02815
C 28.27839 19.21495 0.00487
C 28.24981 17.79724 0.00826
C 27.04085 17.05784 -0.00294
C 27.13592 15.62645 0.00152
C 28.32379 14.87294 0.01257
C 28.30511 13.46805 0.02316
C 27.00973 12.77541 0.04185
C 27.03129 11.28065 0.00194
C 28.26564 10.62081 -0.00621
C 28.25581 9.2268 0.02611
C 27.03146 19.92068 -0.00942
C 26.99389 7.05748 0.01094
C 24.61205 0.08365 -0.01052
C 25.8116 2.13316 -0.01154
C 24.49912 25.61445 -0.01586
C 24.62914 24.13128 -0.01971
C 25.85514 23.44893 -0.02118
C 25.82371 22.00433 0.00733
C 24.53464 21.33509 -0.00178
C 24.58177 19.83474 0.00768
C 25.78906 19.11593 -0.0276
C 25.78501 17.73885 0.03005
C 24.66315 17.01485 -0.04078
C 24.70552 15.55922 0.02117
C 25.80622 0.71543 0.00684
C 25.94251 14.85816 0.02737
C 24.53648 12.70305 0.00135
C 24.58412 11.33899 0.03102
C 25.824 10.6039 0.02555
C 25.88372 9.13744 0.01423
C 24.60391 8.42597 -0.00285
C 24.53922 7.05165 -0.009
C 25.78507 6.36983 -0.01199
C 25.8228 4.91512 -0.00229
C 24.57064 4.22103 -0.00938
C 24.60683 2.83888 -0.0264
C 25.80812 13.44708 -0.00498
C 2.33452 32.63026 0.04421
