385
Graphene
C 0.01545 0.02886 0.01295
C 13.57699 23.43489 0.02162
C 13.49296 22.03794 0.0076
C 12.28186 21.32481 0.01241
C 12.32657 19.84233 -0.01454
C 13.5622 19.19483 0.01945
C 13.52705 17.83076 0.01416
C 12.25208 17.01027 0.03542
C 12.30678 15.60024 0.02299
C 13.50281 14.81347 0.00244
C 12.30119 24.12358 -0.0014
C 13.59723 13.51589 -0.01717
C 12.31896 11.31411 -0.01952
C 13.54322 10.6197 -0.02813
C 13.56746 9.19789 0.00374
C 12.2638 8.57659 0.00052
C 12.32615 7.08867 -0.03682
C 13.53718 6.3347 0.01965
C 13.48076 4.91684 0.02058
C 12.32826 4.2038 -0.01957
C 12.25744 2.82267 -0.0108
C 12.29225 12.78952 0.05265
C 13.53967 2.10023 -0.00368
C 9.79287 0.04259 0.00415
C 11.0187 2.17245 0.01363
C 11.08325 23.46103 0.00943
C 11.08 22.03512 0.02841
C 9.84361 21.31679 -0.01111
C 9.8551 19.92166 -0.01275
C 11.06157 19.18542 0.00985
C 11.07438 17.75596 -0.02245
C 9.84805 17.07664 -0.00428
C 9.84202 15.68826 0.03101
C 11.03645 14.90298 -0.01536
C 11.05801 0.74309 -0.02162
C 11.08573 13.4379 -0.02689
C 9.88302 11.34964 -0.00891
C 11.10507 10.66316 0.02819
C 11.13103 9.23353 0.00165
C 9.82495 8.49121 -0.02971
C 9.83167 7.12749 0.02894
C 11.08031 6.37379 -0.01789
C 11.00823 4.95505 0.00444
C 9.84481 4.25153 -0.00925
C 9.90146 2.85051 0.01877
C 9.85709 12.81232 -0.01046
C 9.84798 24.16011 0.00406
C 13.50308 0.74078 -0.02696
C 14.76162 24.15776 0.00228
C 18.41728 6.32878 0.03338
C 18.4572 4.93301 -0.0258
C 17.21016 4.29563 -0.0331
C 17.18901 2.83353 -0.00316
C 18.41341 2.14481 0.02188
C 18.45043 0.72315 -0.01979
C 17.25329 0.01501 0.02691
C 19.71948 32.70885 -0.01581
C 20.91831 31.91727 0.01452
C 17.22475 7.07196 -0.00491
C 20.91854 30.50599 0.04892
C 19.69198 28.35904 -0.03557
C 20.87672 27.69426 0.03754
C 20.89865 26.24178 0.01739
C 19.6692 25.52427 0.00755
C 19.7103 24.08553 -0.0054
C 20.89367 23.47739 0.00667
C 19.66029 11.33364 0.00143
C 20.87438 10.66273 -0.017
C 20.85983 9.28979 0.00364
C 19.68916 29.83387 -0.00111
C 12.27343 0.01658 -0.00114
C 17.24023 8.4523 -0.00109
C 18.47608 10.6578 -0.02213
C 15.97434 23.47704 0.00798
C 14.71662 21.36063 0.00422
C 14.80266 12.76035 0.0351
C 14.75007 11.3493 -0.03113
C 15.99843 10.60481 0.02098
C 15.97548 9.18315 0.01848
C 14.75727 8.52277 -0.00619
C 14.78675 7.1371 -0.02162
C 15.95277 6.40103 0.00889
C 18.41385 9.23574 0.03698
C 15.93083 4.99703 -0.00481
C 14.76311 2.83879 0.01443
C 15.92961 2.12327 0.03505
C 15.98317 0.7084 -0.02815
C 14.80635 0.0133 -0.04147
C 18.42736 31.97455 -0.05302
C 18.43735 26.20302 0.00213
C 17.19197 24.07475 -0.00066
C 18.43661 23.43958 -0.00289
C 17.20959 11.33202 0.00028
C 14.76063 4.23885 0.00979
C 9.87061 25.5985 0.03592
C 11.02328 26.31144 0.00572
C 9.85909 28.40145 0.0402
C 2.44172 4.27426 -0.03113
C 2.47382 2.86296 -0.02566
C 3.69569 2.15535 -0.00094
C 3.6857 0.65215 0.02322
C 2.45454 34.06285 -0.00725
C 4.88028 32.69063 -0.05697
C 6.11299 31.96285 0.01087
C 6.14378 30.53643 -0.01343
C 4.90273 29.87632 0.00988
C 3.68916 6.37285 0.017
C 4.90127 28.45117 0.0276
C 6.15532 26.30533 -0.00077
C 4.92867 25.58208 0.03368
C 4.88312 24.18213 -0.02929
C 6.16393 23.45418 -0.00966
C 6.12523 21.99085 -0.03337
C 4.89891 21.30013 0.01227
C 4.91909 19.92627 0.00873
C 6.18399 19.1201 -0.00049
C 6.20176 17.75992 0.00848
C 6.12616 27.70413 0.01305
C 5.00514 17.02927 -0.01303
C 2.4667 7.078 -0.00643
C 3.66039 9.21303 -0.00518
C 3.64936 30.58915 0.03189
C 2.45686 29.82265 0.00031
C 2.47753 28.39656 -0.003
C 3.65513 27.72193 0.01402
C 3.72607 26.28037 0.02379
C 2.44299 25.55062 0.00907
C 2.49112 24.13599 0.00643
C 3.60614 23.39382 -0.01509
C 3.67781 22.05805 0.03267
C 2.45578 8.55807 0.0086
C 2.45691 21.32528 0.02374
C 3.73574 19.20326 0.0073
C 3.6904 17.68816 0.0174
C 2.47999 17.04153 0.03828
C 2.48123 15.64718 0.01226
C 3.65868 14.96645 -0.00279
C 3.68413 13.49812 0.01996
C 2.42925 12.74122 -0.03996
C 2.45512 11.34365 0.01465
C 3.7237 10.65507 -0.00074
C 2.50323 19.85794 0.00402
C 4.92388 15.67016 -0.01378
C 6.16367 14.959 0.02635
C 6.1209 13.50938 0.0127
C 8.6571 17.77123 -0.00131
C 7.44656 17.02321 -0.01118
C 7.3892 15.65454 -0.014
C 8.5688 14.83143 0.02147
C 8.60015 13.48228 0.00373
C 7.34612 12.81464 -0.00191
C 7.35929 11.31549 0.00438
C 8.60511 10.6537 0.01291
C 8.61324 9.25361 0.00093
C 8.58192 19.22981 -0.02896
C 7.41128 8.47509 0.00057
C 8.60915 6.42858 -0.00334
C 8.60796 5.01181 0.02339
C 7.40668 4.30506 0.01641
C 7.37896 2.84479 -0.00719
C 8.61515 2.15229 0.01364
C 8.64069 0.77732 -0.01062
C 7.36459 0.01107 -0.00033
C 9.78509 32.70614 0.03589
C 9.86587 29.76239 -0.02759
C 7.39165 7.14923 -0.01634
C 7.34405 19.91365 -0.01004
C 7.38334 21.34831 0.00488
C 8.56586 22.05851 0.01745
C 4.90093 12.81002 0.01396
C 4.94233 11.3903 0.01849
C 6.12054 10.6549 -0.01142
C 6.14983 9.24436 -0.00562
C 4.93266 8.48286 -0.00494
C 4.93914 7.06566 0.00054
C 6.13475 6.39452 0.03007
C 6.13874 4.99876 -0.00095
C 6.13432 2.14359 0.01572
C 6.07029 0.71356 -0.04848
C 4.885 0.016 -0.00892
C 7.35182 32.64764 -0.01362
C 8.62034 31.96377 -0.0008
C 8.58603 30.57755 0.0288
C 7.36566 29.85561 0.00393
C 7.42517 28.46339 0.00895
C 8.62944 27.6633 0.00685
C 8.5936 26.27265 0.02888
C 7.33491 25.55672 -0.00482
C 7.37398 24.12264 -0.01384
C 8.59889 23.46082 0.03693
C 19.61988 8.52958 -0.00831
C 3.63299 31.9398 -0.04307
C 19.65083 7.06466 -0.02957
C 20.9127 5.02793 0.00654
C 29.45272 4.25168 0.0103
C 29.52744 2.87842 0.02108
C 30.74458 2.09204 0.00716
C 30.74104 0.69226 0.00307
C 29.50622 0.0008 0.00346
C 31.98864 32.65343 0.01713
C 33.22431 31.99042 -0.01694
C 33.1923 30.5174 0.01428
C 31.97008 29.81587 -0.02142
C 30.73619 4.97585 0.07705
C 31.94705 28.44143 0.0544
C 33.22777 26.2748 0.00682
C 31.97963 25.51496 -0.01779
C 32.02679 24.12239 0.03794
C 33.21324 23.43935 0.01927
C 33.21039 22.01946 0.01574
C 32.00908 21.31252 -0.02383
C 31.96542 19.88336 -0.01429
C 33.19873 19.16344 -0.0136
C 33.16923 17.77798 0.00594
C 33.24602 27.74193 0.00026
C 31.982 16.98904 -0.02474
C 30.77725 6.37469 0.01908
C 29.51787 8.53105 -0.00971
C 29.50564 29.83824 0.0014
C 29.52136 28.3458 0.00924
C 30.72277 27.67923 0.02326
C 30.76213 26.21734 0.00261
C 29.47256 25.49919 0.03265
C 29.48234 24.11453 -0.02049
C 30.72673 23.42245 -0.01854
C 30.71668 22.05767 -0.01415
C 29.53789 21.31931 -0.03039
C 29.53096 7.05191 0.01518
C 29.54641 19.85531 0.01836
C 30.75347 17.76201 -0.00669
C 29.55319 17.02228 0.0101
C 29.51447 15.54841 0.01705
C 30.78523 14.92359 -0.0405
C 30.78104 13.47298 -0.01303
C 29.48171 12.78184 -0.01461
C 29.53764 11.3452 -0.02155
C 30.74867 10.64546 -0.00944
C 30.73055 9.25956 -0.03735
C 30.75911 19.21319 0.03531
C 30.72735 30.5283 0.01324
C 32.03117 15.64004 0.00369
C 33.1904 13.49004 -0.00644
C 34.42822 21.2996 -0.02213
C 34.42901 19.87667 0.01951
C 1.28422 19.21869 -0.01678
C 1.25077 17.73797 0.01223
C 34.40763 16.98523 0.00648
C 34.41926 15.6304 0.02114
C 1.23102 14.92147 -0.02957
C 1.25617 13.5456 0.00343
C 34.40104 12.6977 -0.02656
C 1.1834 22.00747 0.02712
C 34.40338 11.35969 -0.02442
C 1.28441 9.2275 -0.00583
C 34.37492 8.49759 -0.02302
C 34.38496 7.10879 -0.02849
C 1.19689 6.34023 0.02931
C 1.20565 4.94445 0.00628
C 34.42224 4.18979 -0.0345
C 0.00679 2.87243 -0.00931
C 1.25504 2.17191 -0.00939
C 1.25841 0.70996 -0.00468
C 1.22265 10.66288 -0.00027
C 33.18208 14.86446 0.00455
C 1.17821 23.46033 0.00723
C 34.42986 25.59898 -0.05239
C 31.9922 12.74328 -0.01839
C 31.96975 11.33219 0.00137
C 33.15486 10.67771 0.00199
C 33.18887 9.25918 0.04381
C 31.96781 8.56578 0.02806
C 31.93983 7.13163 0.01504
C 33.16801 6.39343 -0.00069
C 33.20617 5.00131 0.04926
C 31.98854 4.26828 -0.03838
C 0.00339 24.15763 0.03076
C 31.96007 2.83496 0.00349
C 33.18557 0.68476 -0.00841
C 31.9615 0.00934 0.0001
C 34.41778 32.72035 -0.02927
C 1.22884 31.91384 -0.01404
C 1.22964 30.5002 0.01027
C 34.37881 29.80985 0.01831
C 0.0071 28.43486 -0.01037
C 1.26598 27.67162 -0.00439
C 1.18747 26.22455 -0.00598
C 33.17087 2.11614 -0.00323
C 30.77373 31.9363 0.04266
C 29.48788 32.61645 0.01177
C 27.03326 0.0046 -0.00416
C 23.38639 4.92654 -0.00381
C 22.14875 4.24928 0.03046
C 22.17686 2.85389 0.0296
C 23.34541 2.10103 0.03374
C 23.37862 0.65382 -0.02845
C 22.12654 34.04533 -0.03213
C 24.57284 32.69187 0.02239
C 25.84662 31.9433 0.01153
C 25.82943 30.48741 0.02734
C 23.35675 6.39627 0.01852
C 24.52632 29.80817 -0.0055
C 25.7599 27.68202 -0.00225
C 25.8054 26.24413 0.00071
C 24.5578 25.55757 -0.01107
C 24.63398 24.12057 -0.01586
C 25.84455 23.43743 -0.01971
C 25.73483 22.01536 -0.02118
C 24.50126 21.24858 0.00733
C 24.60842 19.84021 -0.00178
C 25.79935 19.1589 0.00768
C 24.61238 28.37412 0.01515
C 25.85243 17.73464 -0.0276
C 22.18623 7.07439 0.01126
C 23.33923 9.24019 -0.01662
C 19.68416 4.18484 -0.00703
C 19.6613 2.80423 -0.04076
C 20.92214 2.16395 -0.00652
C 20.94973 0.66317 0.0058
C 19.74497 34.05242 -0.00865
C 22.12386 32.62554 0.00675
C 23.35738 31.94461 -0.00311
C 23.37964 30.53377 0.00742
C 22.15801 29.76454 -0.01594
C 22.16121 8.52675 -0.01185
C 22.11872 28.37497 0.0106
C 23.35569 26.2899 -0.01721
C 22.14648 25.55145 -0.02422
C 22.17633 24.13572 0.01277
C 23.366 23.43457 0.00096
C 23.35618 22.05877 -0.01527
C 23.38557 13.377 0.01087
C 22.1605 12.78172 0.00199
C 22.13999 11.37023 0.01511
C 23.34939 10.70431 -0.00478
C 23.33984 27.69609 -0.01154
C 24.59796 17.04416 0.03005
C 24.53774 15.65221 -0.04078
C 25.79674 14.91262 0.02117
C 27.07405 21.31492 0.00622
C 27.04133 19.9178 -0.02815
C 28.28559 19.12791 -0.00942
C 28.2994 17.78108 0.00487
C 27.07376 17.03795 0.00826
C 27.08027 15.61352 -0.00294
C 28.22614 14.87031 0.00152
C 28.31081 13.51393 0.01257
C 27.0247 12.74257 0.02316
C 28.41873 22.05203 -0.0032
C 27.03542 11.36972 0.04185
C 28.28825 9.2314 -0.00621
C 27.07149 8.51383 0.02611
C 26.986 7.10802 0.02198
C 28.24272 6.39302 0.01094
C 28.24971 4.9658 0.00235
C 27.02094 4.24814 0.01495
C 27.08043 2.81934 0.01259
C 28.21885 2.08751 0.01799
C 28.27564 0.70071 0.01699
C 28.26246 10.66642 0.00194
C 28.25282 23.3955 -0.00037
C 27.02278 24.17239 -0.01654
C 27.05079 25.58979 -0.00218
C 25.84342 13.48655 0.02737
C 24.61519 12.81887 -0.00498
C 24.6107 11.30917 0.00135
C 25.84694 10.63343 0.03102
C 25.80601 9.19225 0.02555
C 24.58944 8.52015 0.01423
C 24.66753 7.14825 -0.00285
C 25.83088 6.39185 -0.009
C 25.7996 4.90286 -0.01199
C 24.57127 4.25413 -0.00229
C 24.60496 2.88617 -0.00938
C 25.78368 2.16013 -0.0264
C 25.84916 0.70998 -0.01154
C 24.63396 0.03742 0.00684
C 27.07818 32.64046 -0.01052
C 28.29471 31.94483 -0.01679
C 28.26295 30.49785 0.00367
C 27.05996 29.86085 0.04306
C 27.04859 28.40813 0.00996
C 28.25652 27.67633 0.00195
C 28.26527 26.26066 -0.00802
C 20.9058 6.38758 -0.04422
C 2.42613 32.62948 0.03284
