409
Graphene
C 34.40156 34.06012 0.01295
C 12.23132 29.86544 -0.01536
C 12.22637 28.43914 -0.02689
C 13.48362 27.74895 -0.01046
C 13.47352 26.27449 -0.00891
C 12.25407 25.57516 0.02819
C 12.29098 24.13992 0.00165
C 13.5004 23.4168 -0.02971
C 13.54861 21.96356 0.02894
C 12.30131 21.23095 -0.01789
C 12.31445 19.78821 0.00444
C 13.54853 19.11625 -0.00925
C 13.56549 17.738 0.01877
C 12.33256 17.08716 0.01363
C 12.3036 15.59166 -0.02162
C 13.49293 14.88373 0.00415
C 13.53636 13.43399 -0.0014
C 12.31459 12.78426 0.02162
C 12.28269 11.34726 0.0076
C 13.55317 10.64561 0.01241
C 13.51623 9.17487 -0.01454
C 12.27908 8.45561 0.01945
C 13.4276 30.63503 0.03101
C 13.42525 32.04535 -0.00428
C 12.22261 32.70631 -0.02245
C 9.74811 0.10005 0.00985
C 11.13176 23.36229 0.00438
C 11.01595 21.95619 0.01291
C 9.80684 21.30887 0.00093
C 9.80225 19.90975 0.00057
C 11.03404 19.16482 -0.01634
C 11.06736 17.74467 -0.00334
C 9.79938 17.07688 0.02339
C 9.84346 15.63306 0.01641
C 11.0957 14.89974 -0.00719
C 11.05844 13.50017 0.01364
C 12.34083 7.0538 0.01416
C 9.90239 12.80499 -0.01062
C 11.0755 10.6476 0.03589
C 11.04871 9.18638 -0.02759
C 9.82036 8.54599 0.0402
C 9.83346 7.08175 0.00572
C 11.08007 6.39055 0.03592
C 11.09763 4.98303 0.00406
C 9.8449 4.38296 0.00943
C 9.83362 3.00782 0.02841
C 11.06268 2.19806 -0.01111
C 10.96881 0.82859 -0.01275
C 9.8554 11.35077 -0.00033
C 9.87547 24.15466 -0.00191
C 13.55156 6.36746 0.03542
C 12.35007 4.27464 0.00244
C 15.99486 9.27547 0.01443
C 14.74737 8.5242 0.03505
C 14.77316 7.09083 -0.02815
C 16.00921 6.3868 -0.04147
C 16.04593 4.93445 -0.05302
C 14.7748 4.20751 0.00213
C 14.85269 2.80049 -0.00066
C 16.02721 2.05661 -0.00289
C 16.00172 0.62474 0.00028
C 14.73871 0.01808 -0.02213
C 17.138 32.64375 0.03698
C 18.4273 31.91633 -0.00109
C 18.39047 30.53186 -0.00491
C 17.09344 29.87391 0.03338
C 17.06466 28.43844 -0.0258
C 18.30864 27.68424 -0.0331
C 18.40742 26.24663 -0.00316
C 17.17858 25.54698 0.02188
C 17.20282 24.10878 -0.01979
C 18.46066 23.49874 0.02691
C 18.51571 22.10091 -0.01581
C 16.00254 10.65128 0.00979
C 14.74342 11.37371 -0.00481
C 14.76743 12.74861 0.00889
C 16.02253 13.52528 -0.02162
C 12.323 2.87347 -0.01717
C 13.60631 2.21152 0.05265
C 13.51156 0.7856 -0.01952
C 12.26236 0.06341 -0.02813
C 14.69857 32.67489 0.00374
C 15.88857 31.96647 0.00052
C 15.91653 30.60128 -0.03682
C 14.67217 29.91337 0.01965
C 14.62524 28.43146 0.02058
C 15.82864 27.72562 -0.01957
C 13.62152 4.98187 0.02299
C 15.90233 26.24668 -0.0108
C 14.71646 24.08256 -0.02696
C 15.95883 23.38547 -0.00114
C 15.99471 22.00329 0.00228
C 14.76861 21.24688 0.00798
C 14.67598 19.89232 0.00422
C 15.95439 19.20834 0.0351
C 15.93124 17.82491 -0.03113
C 14.77986 17.06515 0.02098
C 14.80248 15.62041 0.01848
C 16.0845 14.97806 -0.00619
C 14.67062 25.55359 -0.00368
C 9.84645 25.59288 0.00373
C 11.02916 26.30484 0.02147
C 11.02173 27.69709 -0.014
C 2.39397 2.86765 -0.003
C 3.60556 2.12416 0.01402
C 3.58283 0.72918 0.02379
C 2.37798 0.00234 0.00907
C 4.84118 32.74307 0.00643
C 6.01779 32.05981 -0.01509
C 6.05317 30.58103 0.03267
C 4.83878 29.87037 0.02374
C 4.83351 28.4476 0.00402
C 6.03331 27.75841 0.0073
C 6.16732 26.36217 0.0174
C 4.92992 25.63603 0.03828
C 4.97738 24.17551 0.01226
C 6.13895 23.51112 -0.00279
C 6.16227 22.01696 0.01996
C 4.88687 21.33771 -0.03996
C 4.82571 19.94146 0.01465
C 6.05589 19.17106 -0.00074
C 6.12708 17.73113 -0.00518
C 4.89132 17.03718 0.0086
C 4.89779 15.61345 -0.00643
C 2.42161 4.28026 0.00031
C 3.68037 4.9583 0.03189
C 3.64433 6.40802 -0.04307
C 2.43173 7.13651 0.03284
C 3.55838 30.54979 -0.02375
C 2.3341 29.82181 0.00558
C 2.33568 28.43348 -0.0059
C 3.602 27.76909 -0.01386
C 3.66203 26.35655 -0.02805
C 2.4758 25.60185 0.00081
C 2.47334 24.13181 0.00245
C 3.72893 23.42497 0.02728
C 3.65315 22.03135 -0.00039
C 2.45148 21.33634 0.0064
C 6.13101 14.95413 0.017
C 2.37089 19.93749 0.00211
C 3.66623 17.78618 -0.01979
C 2.41947 17.09387 0.02784
C 2.43011 15.66236 -0.01977
C 3.6845 14.92615 -0.00561
C 3.68385 13.51528 0.00208
C 2.44723 12.81544 0.01707
C 2.44924 11.41001 0.02769
C 3.66422 10.60169 -0.03291
C 3.6551 9.20656 -0.04999
C 2.40854 8.54942 0.04505
C 3.57997 19.20976 -0.00449
C 6.16444 13.42984 -0.03113
C 4.90142 12.74245 -0.02566
C 4.83846 11.30947 -0.00094
C 7.3667 17.06113 0.00054
C 7.34716 15.6456 0.03007
C 8.5881 14.95862 -0.00095
C 8.63081 13.52258 0.01572
C 7.38694 12.78245 -0.04848
C 7.46644 11.39467 -0.00892
C 8.62779 10.67206 -0.01362
C 8.57181 9.29842 -0.0008
C 7.31743 8.60202 0.0288
C 7.3288 7.18235 0.00393
C 8.55092 17.81264 -0.00494
C 8.60265 6.45591 0.00895
C 7.39728 4.38905 0.02888
C 7.33962 2.97318 -0.00482
C 8.595 2.27158 -0.01384
C 8.55866 0.86577 0.03693
C 7.31498 0.11213 0.01745
C 9.78121 32.77887 0.00488
C 10.99814 32.0182 -0.01004
C 10.98166 30.63581 -0.02896
C 9.79067 29.88271 -0.00131
C 9.82868 28.43532 -0.01118
C 8.63591 5.05988 0.00685
C 17.37476 21.299 0.01452
C 8.54539 19.25175 -0.00562
C 7.36703 21.32699 0.01849
C 6.13641 10.70968 0.02322
C 6.07744 9.26965 -0.00725
C 4.86716 8.52388 -0.05697
C 4.89469 7.1006 0.01087
C 6.12022 6.44269 -0.01343
C 6.13622 5.08031 0.00988
C 4.92386 4.32072 0.0276
C 4.91257 2.85738 0.01305
C 6.13059 2.19424 -0.00077
C 6.10636 0.80107 0.03368
C 7.34272 19.91304 -0.01142
C 4.88668 0.02964 -0.02929
C 8.56889 32.0404 -0.03337
C 8.51749 30.56997 0.01227
C 7.30747 29.86104 0.00873
C 7.29055 28.40138 -0.00049
C 8.5455 27.69378 0.00848
C 8.63094 26.28805 -0.01303
C 7.39731 25.612 -0.01378
C 7.4313 24.11009 0.02635
C 8.65072 23.43765 0.0127
C 8.56582 21.97333 0.01396
C 7.34728 32.80523 -0.00966
C 3.65712 31.9816 0.00828
C 17.08734 19.94156 0.04892
C 17.30066 15.72878 -0.03557
C 29.43136 8.46204 -0.00971
C 29.50327 7.00999 0.01518
C 30.73213 6.28662 0.01908
C 30.75749 4.87034 0.07705
C 29.47252 4.1915 0.0103
C 29.4733 2.85508 0.02108
C 30.70295 2.07892 0.00716
C 30.75161 0.63514 0.00307
C 29.53663 34.00713 0.00346
C 31.94276 32.65286 0.01713
C 33.16148 31.9255 -0.01694
C 33.16104 30.47338 0.01428
C 31.93456 29.79486 -0.02142
C 31.99428 28.39474 0.0544
C 33.133 27.67077 0.00026
C 33.19243 26.2149 0.00682
C 31.92633 25.55112 -0.01779
C 31.95929 24.20891 0.03794
C 33.19352 23.43918 0.01927
C 33.15255 22.07886 0.01574
C 31.91922 21.3007 -0.02383
C 30.70453 9.18205 -0.03735
C 30.70879 10.55209 -0.00944
C 29.46969 11.29129 -0.02155
C 29.61985 12.70283 -0.01461
C 28.28231 2.10368 0.01799
C 28.23761 0.67515 0.01699
C 27.03996 34.01866 -0.00416
C 29.51659 32.63535 0.01177
C 30.81271 31.94304 0.04266
C 30.73876 30.57013 0.01324
C 29.48667 29.81704 0.0014
C 29.48049 28.38095 0.00924
C 30.7438 27.70928 0.02326
C 30.74043 26.3155 0.00261
C 31.95324 19.87998 -0.01429
C 29.5157 25.64715 0.03265
C 30.65482 23.42863 -0.01854
C 30.5313 21.96355 -0.01415
C 29.28486 21.20836 -0.03039
C 29.48704 19.88375 0.01836
C 30.63131 19.19414 0.03531
C 30.69826 17.76195 -0.00669
C 29.71306 16.95026 0.0101
C 29.38283 15.56257 0.01705
C 30.60843 14.86865 -0.0405
C 30.77904 13.45856 -0.01303
C 29.4966 24.19063 -0.02049
C 26.97513 2.77502 0.01259
C 33.13519 19.15164 -0.0136
C 31.89906 17.07993 -0.02474
C 1.24808 22.03153 0.02712
C 34.39105 21.35072 -0.02213
C 34.34004 19.90184 0.01951
C 1.16098 19.19427 -0.01678
C 1.22226 17.77002 0.01223
C 34.40228 17.06484 0.00648
C 34.36379 15.6425 0.02114
C 1.24276 14.91748 -0.02957
C 1.21299 13.50245 0.00343
C 34.39368 12.75961 -0.02656
C 0.0565 11.39777 -0.02442
C 1.24859 10.64805 -0.00027
C 1.20694 9.1637 -0.00583
C 34.38888 8.54113 -0.02302
C 0.00163 7.1374 -0.02849
C 1.18982 6.40099 0.02931
C 1.20225 4.99336 0.00628
C 34.42724 4.22607 -0.0345
C 34.39955 2.82161 -0.00931
C 1.19111 2.10981 -0.00939
C 1.17619 0.67414 -0.00468
C 1.24959 23.38798 0.00723
C 0.00503 24.1043 0.03076
C 34.42112 25.51131 -0.05239
C 1.22737 26.29555 -0.00598
C 31.81938 15.55793 0.00369
C 33.0695 14.88246 0.00455
C 33.19143 13.48516 -0.00644
C 32.00024 12.74707 -0.01839
C 31.95575 11.29357 0.00137
C 33.20146 10.66013 0.00199
C 33.18289 9.21963 0.04381
C 32.00427 8.47419 0.02806
C 31.9624 7.032 0.01504
C 33.238 6.37647 -0.00069
C 33.10284 17.76367 0.00594
C 33.19045 4.94863 0.04926
C 31.94645 2.84497 0.00349
C 33.16195 2.0913 -0.00323
C 33.19363 0.65558 -0.00841
C 32.00223 34.06111 0.0001
C 34.36477 32.62887 -0.02927
C 1.16244 31.97817 -0.01404
C 1.08015 30.47529 0.01027
C 34.29252 29.73021 0.01831
C 34.38301 28.3223 -0.01037
C 1.18276 27.6384 -0.00439
C 31.97076 4.2027 -0.03838
C 26.97508 4.20505 0.01495
C 28.2763 4.9122 0.00235
C 28.2691 6.34321 0.01094
C 19.63998 11.36571 0.00096
C 20.81426 10.62912 -0.01527
C 20.91103 9.18195 0.01087
C 19.64913 8.53429 0.00199
C 19.69014 7.04449 0.01511
C 20.95571 6.36031 -0.00478
C 20.92824 4.9455 -0.01662
C 19.71445 4.27367 -0.01185
C 19.76288 2.85317 0.01126
C 20.92692 2.1354 0.01852
C 20.99362 0.7098 -0.00381
C 19.76597 34.03837 0.03046
C 22.16415 32.60189 0.0296
C 23.37018 31.93233 0.03374
C 23.3301 30.50803 -0.02845
C 22.09326 29.74373 -0.03213
C 22.08948 28.41192 0.02239
C 23.41144 27.6565 0.01153
C 23.36579 26.22137 0.02734
C 22.16351 25.62886 -0.0055
C 22.12422 24.28359 0.01515
C 19.67929 12.73633 0.01277
C 20.98228 23.4767 -0.02422
C 19.76403 24.03441 -0.01721
C 19.71707 25.51158 -0.01154
C 18.39458 14.96643 0.03754
C 18.61069 13.56821 0.01739
C 17.28735 12.83327 0.00755
C 17.29578 11.40211 -0.0054
C 18.45648 10.70836 0.00667
C 18.42666 9.26181 0.00143
C 17.21058 8.53129 -0.017
C 17.22848 7.14594 0.00364
C 18.46765 6.35793 -0.00831
C 18.50048 4.94201 -0.02957
C 22.03322 11.31515 -0.00225
C 17.27186 4.20521 -0.04422
C 18.4673 2.0792 -0.00703
C 18.48259 0.6505 -0.04076
C 17.18955 34.03048 -0.00652
C 19.71042 32.60838 0.0058
C 20.89391 31.89255 -0.00865
C 20.90242 30.49359 0.00675
C 19.61974 29.8425 -0.00311
C 19.57424 28.39397 0.00742
C 20.84673 27.65746 -0.01594
C 20.91275 26.27986 0.0106
C 17.24615 2.81784 0.00654
C 23.27615 10.74087 0.00071
C 23.33486 9.18337 -0.01107
C 22.09055 8.47004 -0.01586
C 24.58487 2.81279 0.04306
C 25.75831 2.04704 0.00996
C 25.83543 0.65519 0.00195
C 24.65207 34.05231 -0.00802
C 27.05998 32.65529 -0.00218
C 28.30336 31.95701 -0.01654
C 28.25304 30.55714 -0.00037
C 27.07812 29.78735 -0.0032
C 27.0502 28.36169 0.00622
C 28.2721 27.65554 -0.02815
C 24.59141 4.2471 0.00367
C 28.31192 26.32953 -0.00942
C 27.065 24.08497 0.00826
C 28.31663 23.4577 -0.00294
C 28.34545 22.10359 0.00152
C 28.35502 13.41998 0.01257
C 27.27046 12.81652 0.02316
C 26.95473 11.44685 0.04185
C 28.23178 10.66656 0.00194
C 28.24654 9.26521 -0.00621
C 27.03301 8.55129 0.02611
C 27.0048 7.10502 0.02198
C 27.08511 25.52186 0.00487
C 17.15199 17.08856 -0.00111
C 25.80779 4.96494 -0.01679
C 24.60925 7.13263 0.00684
C 22.18749 7.04153 -0.01971
C 23.43084 6.37143 -0.02118
C 23.35716 4.96817 0.00733
C 22.17088 4.19136 -0.00178
C 22.12246 2.8379 0.00768
C 23.38409 2.09374 -0.0276
C 23.42021 0.64882 0.03005
C 22.15381 33.99553 -0.04078
C 24.58472 32.65946 0.02117
C 25.83749 31.87327 0.02737
C 25.79685 6.36925 -0.01052
C 25.83716 30.50328 -0.00498
C 24.59746 28.34621 0.03102
C 25.82784 27.6087 0.02555
C 25.80896 26.18578 0.01423
C 24.57472 25.44858 -0.00285
C 24.50281 24.03234 -0.009
C 25.85047 23.48013 -0.01199
C 24.56342 11.27489 -0.00229
C 25.81538 10.69022 -0.00938
C 25.76038 9.25424 -0.0264
C 24.60669 8.55116 -0.01154
C 24.56135 29.81329 0.00135
C 2.40039 32.63683 0.00088
