392
Graphene
C 34.39685 34.07671 0.01295
C 11.22823 2.64797 0.01877
C 11.36979 1.12333 0.01363
C 10.01622 0.31099 -0.02162
C 12.30826 32.79616 0.00415
C 13.48306 32.06231 -0.0014
C 13.49804 30.62731 0.02162
C 12.26285 29.87295 0.0076
C 12.27521 28.38081 0.01241
C 13.49081 27.75323 -0.01454
C 9.86635 3.04015 -0.00925
C 13.49711 26.31281 0.01945
C 12.19542 24.20465 0.03542
C 13.48894 23.52071 0.02299
C 12.1989 21.4193 0.00244
C 12.16984 20.04873 -0.01717
C 13.90528 17.06707 0.05265
C 12.46083 17.00338 -0.01952
C 12.29165 15.60528 -0.02813
C 13.59094 14.89161 0.00374
C 13.71398 13.43877 0.00052
C 12.27063 25.63751 0.01416
C 9.70178 4.41935 0.00444
C 11.06189 4.93926 -0.01789
C 11.04213 6.40009 0.02894
C 9.8263 28.41079 0.03589
C 11.026 27.64757 -0.02759
C 11.03098 26.25317 0.0402
C 9.82363 25.59668 0.00572
C 9.75779 24.15027 0.03592
C 10.92532 23.4638 0.00406
C 11.02026 22.04677 0.00943
C 9.86484 21.26556 0.02841
C 9.93693 19.92501 -0.01111
C 11.15745 19.13634 -0.01275
C 11.18901 17.74825 0.00985
C 9.88508 17.11066 -0.02245
C 9.8226 15.616 -0.00428
C 11.02956 14.85772 0.03101
C 11.15935 13.44805 -0.01536
C 9.87876 12.73958 -0.02689
C 9.82116 11.33513 -0.01046
C 11.07306 10.59626 -0.00891
C 11.00045 9.2129 0.02819
C 9.81872 8.45378 0.00165
C 9.7905 7.08035 -0.02971
C 12.34154 12.69937 -0.03682
C 9.79 29.87324 -0.00033
C 12.29618 11.2936 0.01965
C 13.4779 9.02315 -0.01957
C 18.26691 32.05055 -0.02213
C 18.39195 30.4796 0.03698
C 17.22387 29.81707 -0.00109
C 17.28138 28.33131 -0.00491
C 18.50427 27.6127 0.03338
C 18.52766 26.0845 -0.0258
C 17.18444 25.70469 -0.0331
C 16.84704 11.57145 -0.00316
C 18.27488 10.83686 0.02188
C 17.04267 32.69803 0.00028
C 18.29732 9.30286 -0.01979
C 17.20873 7.00549 -0.01581
C 18.46807 6.32708 0.01452
C 18.42372 4.87494 0.04892
C 17.59595 3.72851 -0.00111
C 18.05338 2.44766 -0.03557
C 17.84099 1.02955 0.03754
C 16.66695 0.18504 0.01739
C 19.47646 32.84184 0.00755
C 20.75918 32.00873 -0.0054
C 17.20356 8.42679 0.02691
C 15.39868 33.9711 -0.00289
C 16.03148 6.2128 -0.00066
C 14.7743 6.77879 0.00213
C 12.20262 8.42821 -0.0108
C 12.2378 7.04231 -0.00368
C 13.4356 6.20204 -0.02696
C 11.98306 3.90042 -0.00114
C 12.48248 0.12664 0.00228
C 14.7485 32.81226 0.00798
C 15.92331 31.88814 0.00422
C 15.99749 30.50939 0.0351
C 14.73348 29.80583 -0.03113
C 14.69499 28.36296 0.02098
C 15.94123 27.73748 0.01848
C 16.02818 26.29073 -0.00619
C 14.72072 25.58603 -0.02162
C 14.72923 24.05897 0.00889
C 14.46863 15.89732 -0.00481
C 16.37498 12.71907 0.00979
C 14.88567 12.60249 0.01443
C 14.70002 11.16135 0.03505
C 15.94266 10.46148 -0.02815
C 15.96556 9.05746 -0.04147
C 14.72479 8.22427 -0.05302
C 13.54518 10.45522 0.02058
C 20.79069 30.45502 0.00667
C 11.00729 30.59427 -0.01062
C 9.8824 32.83817 -0.00719
C 2.39353 4.30372 0.01465
C 2.39097 2.91975 -0.00074
C 3.65125 2.20403 -0.00518
C 3.62264 0.81745 0.0086
C 2.44019 0.09949 -0.00643
C 4.87817 32.73847 0.017
C 6.08712 32.01512 -0.03113
C 6.10554 30.6315 -0.02566
C 4.91036 29.89916 -0.00094
C 3.61813 5.04619 -0.03996
C 4.89773 28.49769 0.02322
C 6.11062 26.26865 -0.05697
C 4.82834 25.54973 0.01087
C 4.85486 24.1672 -0.01343
C 6.13112 23.51717 0.00988
C 6.15184 22.04453 0.0276
C 4.89754 21.28636 0.01305
C 4.84641 19.85148 -0.00077
C 6.1472 19.23521 0.03368
C 6.16383 17.85959 -0.02929
C 6.06017 27.81383 -0.00725
C 3.65458 6.47218 0.01996
C 2.38443 7.12214 -0.00279
C 2.37147 8.61255 0.01226
C 3.5895 30.6075 0.01707
C 2.35862 29.9031 0.02769
C 2.30166 28.53006 -0.03291
C 3.66613 27.75986 -0.04999
C 3.55 26.29729 0.04505
C 2.43401 25.61904 0.03284
C 2.46344 24.16365 -0.04307
C 3.66013 23.458 0.03189
C 3.69961 22.00989 0.00031
C 2.40674 21.2612 -0.003
C 2.464 19.90337 0.01402
C 3.64265 19.14854 0.02379
C 3.67414 17.69451 0.00907
C 2.48664 16.98127 0.00643
C 2.43738 15.54713 -0.01509
C 3.70397 14.917 0.03267
C 3.65122 13.52465 0.02374
C 2.42607 12.8553 0.00402
C 2.41345 11.4796 0.0073
C 3.61383 10.63746 0.0174
C 3.64057 9.22996 0.03828
C 5.01549 17.10359 -0.00966
C 11.03425 32.04217 0.01364
C 4.93648 15.6757 -0.03337
C 6.12196 13.52894 0.00873
C 7.42404 19.94817 -0.01384
C 8.65061 19.19143 0.03693
C 8.65753 17.78463 0.01745
C 7.49333 17.11171 0.00488
C 7.40131 15.67203 -0.01004
C 8.58066 14.96576 -0.02896
C 8.59522 13.5372 -0.00131
C 7.32972 12.81395 -0.01118
C 7.37601 11.37997 -0.014
C 7.34929 21.34983 -0.00482
C 8.5493 10.69161 0.02147
C 7.2874 8.60302 -0.00191
C 7.33319 7.19161 0.00438
C 8.54471 6.51119 0.01291
C 8.50173 5.14854 0.00093
C 7.29333 4.35332 0.00057
C 7.31576 2.90223 -0.01634
C 8.65685 2.24305 -0.00334
C 8.74587 0.87359 0.02339
C 7.4112 0.11576 0.01641
C 8.60595 9.24351 0.00373
C 8.63107 22.04459 0.02888
C 8.58018 23.40727 0.00685
C 7.42134 24.14153 0.00895
C 4.87118 12.81883 -0.00049
C 4.82668 11.40932 0.00848
C 6.08921 10.75617 -0.01303
C 6.12016 9.32905 -0.01378
C 4.98026 8.60845 0.02635
C 4.87342 7.16849 0.0127
C 6.16836 6.47334 0.01396
C 6.07868 5.01652 0.01849
C 4.86445 4.37034 -0.01142
C 4.85468 2.99276 -0.00562
C 6.06374 2.22457 -0.00494
C 6.07748 0.82656 0.00054
C 4.82225 0.0884 0.03007
C 7.35585 32.84934 -0.00095
C 8.64528 32.05983 0.01572
C 8.6099 30.67363 -0.04848
C 7.32819 29.90616 -0.00892
C 7.26348 28.48183 -0.01362
C 8.52182 27.73018 -0.0008
C 8.55235 26.3034 0.0288
C 7.32861 25.59105 0.00393
C 6.20558 14.956 0.01227
C 19.61843 29.79225 0.00143
C 19.61349 28.38135 -0.017
C 20.88945 27.70542 0.00364
C 30.62868 5.01131 0.07705
C 29.48355 4.23706 0.0103
C 29.38057 2.83831 0.02108
C 30.67394 2.0422 0.00716
C 30.69687 0.65347 0.00307
C 29.41039 0.02419 0.00346
C 32.01057 32.7075 0.01713
C 33.19094 31.8802 -0.01694
C 33.14747 30.5126 0.01428
C 30.61401 6.39127 0.01908
C 31.92848 29.84639 -0.02142
C 33.18691 27.69302 0.00026
C 33.17799 26.29817 0.00682
C 31.95633 25.55557 -0.01779
C 31.99441 24.08801 0.03794
C 33.1881 23.38788 0.01927
C 33.2725 21.98016 0.01574
C 31.9922 21.28575 -0.02383
C 31.97679 19.84011 -0.01429
C 33.22335 19.18876 -0.0136
C 31.97682 28.42664 0.0544
C 29.43528 7.08458 0.01518
C 29.41019 8.58647 -0.00971
C 30.65336 9.2498 -0.03735
C 30.68578 32.05288 0.04266
C 30.74899 30.58651 0.01324
C 29.54695 29.79511 0.0014
C 29.54009 28.44713 0.00924
C 30.79069 27.7286 0.02326
C 30.74308 26.25925 0.00261
C 29.53828 25.54547 0.03265
C 29.54411 24.15681 -0.02049
C 30.78717 23.40862 -0.01854
C 30.75175 22.03027 -0.01415
C 29.55023 21.2585 -0.03039
C 29.56968 19.83843 0.01836
C 30.72372 19.15111 0.03531
C 30.63219 17.73819 -0.00669
C 29.43593 17.08798 0.0101
C 29.42205 15.68195 0.01705
C 30.61625 14.90832 -0.0405
C 30.55701 13.4278 -0.01303
C 29.35521 12.77803 -0.01461
C 29.4302 11.38207 -0.02155
C 30.66809 10.68584 -0.00944
C 33.20335 17.73197 0.00594
C 29.43992 32.68868 0.01177
C 31.87262 16.96565 -0.02474
C 33.20001 14.95271 0.00455
C 0.02349 21.28509 -0.02213
C 0.00027 19.84517 0.01951
C 1.21236 19.16675 -0.01678
C 1.21521 17.72918 0.01223
C 34.41328 17.08018 0.00648
C 34.40764 15.62982 0.02114
C 1.19605 14.93713 -0.02957
C 1.18384 13.55622 0.00343
C 34.39231 12.86343 -0.02656
C 1.21932 22.01754 0.02712
C 34.3548 11.39349 -0.02442
C 1.17557 9.28966 -0.00583
C 34.37797 8.59819 -0.02302
C 34.33995 7.13851 -0.02849
C 1.13525 6.48629 0.02931
C 1.11821 5.07114 0.00628
C 34.32203 4.29823 -0.0345
C 34.38976 2.89978 -0.00931
C 1.17302 2.13935 -0.00939
C 1.13833 0.75312 -0.00468
C 1.20215 10.72639 -0.00027
C 1.2174 23.50153 0.00723
C 34.41426 24.09985 0.03076
C 34.36099 25.52321 -0.05239
C 33.1111 13.52737 -0.00644
C 31.9225 12.80979 -0.01839
C 31.90272 11.4215 0.00137
C 33.12479 10.66244 0.00199
C 33.17008 9.28871 0.04381
C 31.86751 8.61044 0.02806
C 31.8767 7.10785 0.01504
C 33.12548 6.45575 -0.00069
C 33.10782 5.03999 0.04926
C 31.86775 4.28383 -0.03838
C 31.91827 2.87016 0.00349
C 33.17055 2.17965 -0.00323
C 33.23523 0.79935 -0.00841
C 31.99668 34.076 0.0001
C 34.3832 32.61614 -0.02927
C 1.26211 31.99902 -0.01404
C 1.18195 30.59435 0.01027
C 34.41409 29.86647 0.01831
C 34.39791 28.47336 -0.01037
C 1.15766 27.71663 -0.00439
C 1.13459 26.28042 -0.00598
C 31.95913 15.58672 0.00369
C 27.0254 34.01927 -0.00416
C 28.18823 0.71525 0.01699
C 28.14331 2.12431 0.01799
C 22.23032 11.43587 -0.01185
C 23.31308 10.55233 0.01126
C 23.20706 9.08566 0.01852
C 21.99208 8.44846 -0.00381
C 22.10272 7.03401 0.03046
C 23.34493 6.35014 0.0296
C 23.37829 4.9586 0.03374
C 22.1061 4.31925 -0.02845
C 22.10098 2.83547 -0.03213
C 23.71014 21.8918 -0.01662
C 23.23135 2.05321 0.02239
C 21.94479 34.05272 0.02734
C 24.59813 32.6085 -0.0055
C 25.80005 31.90036 0.01515
C 25.8193 30.4849 -0.00225
C 24.57697 29.77731 0.00071
C 24.54244 28.37259 -0.01107
C 25.75871 27.64762 -0.01586
C 25.85616 26.13795 -0.01971
C 24.63991 25.44355 -0.02118
C 23.14856 0.66554 0.01153
C 23.43481 23.33632 -0.00478
C 22.15615 24.04617 0.01511
C 22.16073 25.48936 0.00199
C 20.97087 26.23533 -0.00831
C 19.80995 25.5279 -0.02957
C 19.55508 11.31492 -0.04422
C 20.88723 10.82048 0.00654
C 20.86399 9.31362 -0.00703
C 19.60044 8.65414 -0.04076
C 19.65133 7.12014 -0.00652
C 20.92707 6.39773 0.0058
C 20.93768 4.99604 -0.00865
C 19.7489 4.26208 0.00675
C 19.59361 2.82791 -0.00311
C 20.75419 2.15649 0.00742
C 20.6581 0.68241 -0.01594
C 19.31818 0.23371 0.0106
C 22.03265 32.59747 -0.01154
C 23.27505 31.90154 -0.01721
C 23.33366 30.48319 -0.02422
C 22.10156 29.78241 0.01277
C 22.175 28.40027 0.00096
C 23.33921 27.66687 -0.01527
C 23.43323 26.18831 0.01087
C 24.67883 24.03764 0.00733
C 25.88698 23.34657 -0.00178
C 26.00915 21.96153 0.00768
C 24.79697 21.02385 -0.0276
C 27.21028 24.1569 -0.01654
C 28.36674 23.38311 -0.00037
C 28.49435 22.03848 -0.0032
C 27.1504 21.28887 0.00622
C 27.13489 19.90297 -0.02815
C 28.32537 19.16708 -0.00942
C 28.19295 17.72006 0.00487
C 26.85997 17.07876 0.00826
C 26.84999 15.64124 -0.00294
C 28.14878 15.00067 0.00152
C 28.06582 13.5065 0.01257
C 26.82105 12.83391 0.02316
C 26.96955 11.46771 0.04185
C 28.15304 10.74299 0.00194
C 28.18439 9.25179 -0.00621
C 26.97201 8.45528 0.02611
C 26.99739 7.01321 0.02198
C 28.17913 6.39197 0.01094
C 28.22053 4.94664 0.00235
C 27.01206 4.18595 0.01495
C 26.94173 2.80101 0.01259
C 27.14685 25.53219 -0.00218
C 3.65058 32.0372 0.00208
C 28.35823 26.26519 -0.00802
C 26.97852 28.33374 0.00996
C 25.81243 19.29068 0.03005
C 25.8158 18.01424 -0.04078
C 25.69194 14.89413 0.02117
C 25.49611 13.58789 0.02737
C 24.31778 12.62247 -0.00498
C 24.54936 11.25042 0.00135
C 25.78349 10.59064 0.03102
C 25.81467 9.22184 0.02555
C 24.57525 8.46701 0.01423
C 24.57976 7.0578 -0.00285
C 25.80488 6.2844 -0.009
C 25.76828 4.91902 -0.01199
C 24.56794 4.16654 -0.00229
C 24.54714 2.72713 -0.00938
C 25.76346 2.08852 -0.0264
C 25.82191 0.66124 -0.01154
C 24.50272 34.01778 0.00684
C 27.02611 32.6581 -0.01052
C 28.24304 31.84089 -0.01679
C 28.23028 30.44263 0.00367
C 27.05201 29.76476 0.04306
C 28.33706 27.73203 0.00195
C 2.43689 32.71428 -0.00561
