393
Graphene
C 0.01602 0.01345 0.01295
C 12.3174 28.37869 0.01877
C 13.50557 27.82792 0.01363
C 13.48441 13.50942 -0.02162
C 12.33237 12.82013 0.00415
C 12.36079 11.38224 -0.0014
C 13.56693 10.64593 0.02162
C 13.46239 9.18278 0.0076
C 12.24306 8.41522 0.01241
C 12.25183 6.97898 -0.01454
C 12.28075 29.80971 -0.00925
C 13.54526 6.40009 0.01945
C 12.34651 4.236 0.03542
C 12.34624 2.81634 0.02299
C 13.57112 2.13272 0.00244
C 13.5065 0.72979 -0.01717
C 12.31734 0.03291 0.05265
C 14.70444 32.60017 -0.01952
C 15.95207 31.85762 -0.02813
C 15.98393 30.42455 0.00374
C 14.72568 29.80513 0.00052
C 13.51994 4.98505 0.01416
C 13.47458 30.5073 0.00444
C 13.4317 31.95552 -0.01789
C 12.21347 32.71698 0.02894
C 11.07717 27.73369 0.03589
C 11.10511 26.37973 -0.02759
C 9.92291 25.54169 0.0402
C 9.81089 24.19322 0.00572
C 9.74898 17.02633 0.03592
C 9.90861 15.68807 0.00406
C 11.08361 14.95956 0.00943
C 11.08903 13.5873 0.02841
C 9.79875 12.90805 -0.01111
C 9.82302 11.40214 -0.01275
C 11.10827 10.63915 0.00985
C 11.0832 9.21932 -0.02245
C 9.88994 8.5463 -0.00428
C 9.93144 7.12807 0.03101
C 11.06749 6.30639 -0.01536
C 11.06813 4.91193 -0.02689
C 9.82268 4.19743 -0.01046
C 9.82193 2.84145 -0.00891
C 11.13201 2.13284 0.02819
C 11.1768 0.71428 0.00165
C 9.87075 0.08891 -0.02971
C 14.75579 28.30734 -0.03682
C 9.76474 28.47245 -0.00033
C 15.98503 27.76512 0.01965
C 14.73527 12.80638 -0.01957
C 17.2395 8.51892 -0.02213
C 17.23174 7.09664 0.03698
C 18.44174 6.392 -0.00109
C 18.39767 4.9609 -0.00491
C 17.19049 4.26946 0.03338
C 17.21093 2.82928 -0.0258
C 18.54359 2.21468 -0.0331
C 18.4987 0.69228 -0.00316
C 17.22171 0.00515 0.02188
C 18.45352 9.20695 0.00028
C 19.69487 32.66675 -0.01979
C 20.81785 30.54489 -0.01581
C 19.61785 29.76733 0.01452
C 19.68755 28.32061 0.04892
C 20.89849 27.63178 -0.00111
C 20.87854 26.24412 -0.03557
C 19.49613 25.66142 0.03754
C 20.86002 17.74224 0.01739
C 19.55748 15.67148 0.00755
C 20.85904 15.0042 -0.0054
C 20.91021 31.91181 0.02691
C 18.4943 10.60218 -0.00289
C 17.28166 11.36065 -0.00066
C 17.22629 12.8516 0.00213
C 14.79759 11.34573 -0.0108
C 16.03253 10.65391 -0.00368
C 16.0025 9.24515 -0.02696
C 14.74888 8.47932 -0.00114
C 14.76372 7.06712 0.00228
C 15.98206 6.43042 0.00798
C 16.00957 4.97614 0.00422
C 14.69255 4.30331 0.0351
C 14.75579 2.88312 -0.03113
C 15.95654 2.13133 0.02098
C 15.93774 0.70598 0.01848
C 14.68307 34.04746 -0.00619
C 17.20464 32.64327 -0.02162
C 18.48359 31.92444 0.00889
C 18.41798 30.48545 -0.00481
C 17.22841 29.74099 0.00979
C 17.16949 28.29529 0.01443
C 18.43451 27.6132 0.03505
C 18.48551 26.17833 -0.02815
C 18.59281 14.9086 -0.04147
C 18.48782 13.49583 -0.05302
C 15.95412 13.54381 0.02058
C 9.80936 29.83072 -0.01062
C 11.06178 30.55685 0.01364
C 10.95511 32.00192 -0.00719
C 2.48997 4.29317 -0.03996
C 2.45492 2.82231 0.01465
C 3.69608 2.1491 -0.00074
C 3.69046 0.72877 -0.00518
C 2.45209 0.01136 0.0086
C 4.91274 32.67597 -0.00643
C 6.1516 31.98444 0.017
C 6.14082 30.55638 -0.03113
C 4.9432 29.82875 -0.02566
C 3.6846 5.00942 0.01996
C 4.92171 28.39985 -0.00094
C 6.08557 26.35226 -0.00725
C 4.95234 25.54586 -0.05697
C 4.87412 24.11369 0.01087
C 6.10934 23.47395 -0.01343
C 6.09354 22.05224 0.00988
C 4.94958 21.27496 0.0276
C 4.96895 19.89284 0.01305
C 6.12641 19.097 -0.00077
C 6.1701 17.70485 0.03368
C 6.10698 27.71447 0.02322
C 3.62982 6.37978 -0.00279
C 2.35544 7.19353 0.01226
C 2.47914 8.59164 0.03828
C 3.71722 30.54857 0.00208
C 2.48415 29.84318 0.01707
C 2.51012 28.35408 0.02769
C 3.677 27.65981 -0.03291
C 3.69342 26.21736 -0.04999
C 2.39265 25.55119 0.04505
C 2.39744 24.19215 0.03284
C 3.6299 23.49761 -0.04307
C 3.6808 22.05903 0.03189
C 2.45508 21.32576 0.00031
C 2.50669 19.82365 -0.003
C 3.77942 19.21438 0.01402
C 3.7339 17.80993 0.02379
C 2.44794 17.07813 0.00907
C 2.47363 15.64006 0.00643
C 3.67687 14.85057 -0.01509
C 3.70453 13.4722 0.03267
C 2.45818 12.73527 0.02374
C 2.4371 11.35021 0.00402
C 3.71204 10.69215 0.0073
C 3.70576 9.30815 0.0174
C 4.88999 17.05783 -0.02929
C 4.94518 15.58116 -0.00966
C 6.21526 14.91428 -0.03337
C 6.2157 13.51162 0.01227
C 7.32707 19.76737 -0.00482
C 8.5099 19.14515 -0.01384
C 8.56698 17.76154 0.03693
C 7.31855 16.9828 0.01745
C 7.38466 15.59668 0.00488
C 8.60607 14.96007 -0.01004
C 8.57965 13.52796 -0.02896
C 7.40513 12.74509 -0.00131
C 7.3343 11.40745 -0.01118
C 8.61875 10.71229 -0.014
C 8.64473 9.27779 0.02147
C 7.37279 8.54644 0.00373
C 7.39253 7.10841 -0.00191
C 8.65339 6.45478 0.00438
C 8.64609 4.99035 0.01291
C 7.34513 4.2955 0.00093
C 7.38665 2.87423 0.00057
C 8.62305 2.17636 -0.01634
C 8.62831 0.80229 -0.00334
C 7.45265 0.06857 0.02339
C 9.75724 32.75249 0.01641
C 7.30602 21.31694 0.02888
C 20.88428 13.5211 0.00667
C 8.41737 22.01548 0.00685
C 7.33839 24.19738 0.00393
C 4.9509 12.75713 0.00873
C 4.93753 11.39627 -0.00049
C 6.14773 10.71012 0.00848
C 6.10921 9.29861 -0.01303
C 4.91546 8.54118 -0.01378
C 4.79655 7.14213 0.02635
C 6.0859 6.43181 0.0127
C 6.14205 5.00377 0.01396
C 4.93249 4.2683 0.01849
C 4.84245 2.89357 -0.01142
C 6.13202 2.19553 -0.00562
C 6.20677 0.79633 -0.00494
C 4.9445 34.07308 0.00054
C 7.36053 32.74327 0.03007
C 8.53855 31.98333 -0.00095
C 8.61903 30.52283 0.01572
C 7.38458 29.83699 -0.04848
C 7.25066 28.42183 -0.00892
C 8.52871 27.72251 -0.01362
C 8.60037 26.24919 -0.0008
C 7.3412 25.63515 0.0288
C 8.60097 23.41204 0.00895
C 3.67571 32.00421 -0.00561
C 19.67843 12.7796 0.00143
C 20.87169 10.60027 0.00364
C 29.50312 7.09788 0.07705
C 30.7645 6.42286 0.0103
C 30.75866 4.96317 0.02108
C 29.5108 4.27503 0.00716
C 29.4672 2.83596 0.00307
C 30.69574 2.17169 0.00346
C 30.72511 0.75263 0.01713
C 29.51472 34.04618 -0.01694
C 31.96957 32.63421 0.01428
C 29.57393 8.46915 0.01908
C 33.15953 31.954 -0.02142
C 31.99398 29.85641 0.00026
C 32.0009 28.42784 0.00682
C 33.17591 27.68122 -0.01779
C 33.17972 26.28134 0.03794
C 33.18157 23.48389 0.01927
C 33.23317 22.10564 0.01574
C 31.99804 21.21328 -0.02383
C 32.01392 19.80772 -0.01429
C 33.25173 19.16202 -0.0136
C 33.18075 30.56158 0.0544
C 30.7649 9.19186 0.01518
C 30.74129 10.62937 -0.00971
C 29.5147 11.27263 -0.03735
C 26.97689 4.26799 0.04266
C 27.02818 2.85086 0.01324
C 28.22587 2.12046 0.0014
C 28.26807 0.72193 0.00924
C 27.04243 0.03964 0.02326
C 29.56321 32.59662 0.00261
C 30.77513 31.93318 0.03265
C 30.79424 30.57902 -0.02049
C 29.61471 29.75977 -0.01854
C 29.53778 28.1857 -0.01415
C 30.78305 27.73304 -0.03039
C 30.82581 21.89351 0.01836
C 29.4717 21.36895 0.03531
C 29.46216 19.84133 -0.00669
C 30.77078 19.17893 0.0101
C 30.77644 17.78758 0.01705
C 29.50249 17.1022 -0.0405
C 29.50989 15.68087 -0.01303
C 30.79076 14.98793 -0.01461
C 30.68114 13.55834 -0.02155
C 29.50052 12.82133 -0.00944
C 33.22514 17.74835 0.00594
C 28.33924 4.97574 0.01177
C 32.00899 17.02824 -0.02474
C 33.18423 14.85986 0.00455
C 0.01936 21.3471 -0.02213
C 0.0276 19.92176 0.01951
C 1.21095 19.18973 -0.01678
C 1.16917 17.68818 0.01223
C 34.3518 16.99468 0.00648
C 34.42951 15.55837 0.02114
C 1.26179 14.89718 -0.02957
C 1.18339 13.4319 0.00343
C 34.34636 12.80627 -0.02656
C 1.23347 22.00946 0.02712
C 34.40781 11.33761 -0.02442
C 1.21456 9.22819 -0.00583
C 34.41809 8.58779 -0.02302
C 34.42045 7.16654 -0.02849
C 1.2022 6.42111 0.02931
C 1.21625 4.94286 0.00628
C 34.34724 4.2662 -0.0345
C 34.33529 2.81768 -0.00931
C 1.2077 2.1224 -0.00939
C 1.24369 0.69669 -0.00468
C 1.24037 10.61055 -0.00027
C 1.15208 23.46233 0.00723
C 34.38495 24.23066 0.03076
C 34.38926 25.64177 -0.05239
C 33.11051 13.4683 -0.00644
C 31.92414 12.78254 -0.01839
C 31.93718 11.41293 0.00137
C 33.18389 10.66526 0.00199
C 33.20376 9.23584 0.04381
C 31.95363 8.49892 0.02806
C 31.9626 7.07523 0.01504
C 33.18105 6.45793 -0.00069
C 33.17485 5.03604 0.04926
C 31.97757 4.2479 -0.03838
C 31.93302 2.77363 0.00349
C 33.13495 2.11735 -0.00323
C 33.21464 0.73741 -0.00841
C 31.98544 34.0611 0.0001
C 34.37587 32.64369 -0.02927
C 1.17099 31.94062 -0.01404
C 1.22541 30.54435 0.01027
C 0.00498 29.80585 0.01831
C 34.41571 28.33943 -0.01037
C 1.29579 27.70938 -0.00439
C 1.22723 26.27873 -0.00598
C 32.0207 15.66334 0.00369
C 28.30151 6.38498 -0.00416
C 27.09975 7.05562 0.01699
C 27.07104 8.48338 0.01799
C 22.0454 17.04972 -0.01185
C 22.13148 15.59805 0.01126
C 23.4289 14.89682 0.01852
C 23.29656 13.49169 -0.00381
C 22.05611 12.7881 0.03046
C 22.06818 11.33483 0.0296
C 23.35456 10.60796 0.03374
C 23.3573 9.20622 -0.02845
C 22.14096 8.55121 -0.03213
C 23.40256 17.70438 -0.01662
C 22.07706 7.09091 0.02239
C 23.33219 4.94498 0.02734
C 22.08368 4.21605 -0.0055
C 22.19929 2.79734 0.01515
C 23.41972 2.08552 -0.00225
C 23.43606 0.62529 0.00071
C 22.19116 34.04408 -0.01107
C 24.60093 32.6754 -0.01586
C 25.85035 31.8923 -0.01971
C 25.83179 30.51576 -0.02118
C 23.27301 6.40738 0.01153
C 23.46014 19.10342 -0.00478
C 22.3182 19.89362 0.01511
C 22.13632 21.06646 0.00199
C 20.91661 9.23134 -0.00831
C 19.71988 8.50224 -0.02957
C 19.67804 7.05518 -0.04422
C 20.8897 6.36994 0.00654
C 20.89577 5.00853 -0.00703
C 19.64329 4.27347 -0.04076
C 19.75546 2.83795 -0.00652
C 20.99556 2.14259 0.0058
C 20.98555 0.74396 -0.00865
C 19.68624 0.03628 0.00675
C 22.18267 32.58473 -0.00311
C 23.38494 31.93245 0.00742
C 23.36257 30.58294 -0.01594
C 22.08098 29.91227 0.0106
C 22.1232 28.42807 -0.01154
C 23.36224 27.73684 -0.01721
C 23.31483 26.29956 -0.02422
C 22.0672 25.52781 0.01277
C 22.17009 24.18484 0.00096
C 23.28889 23.42801 -0.01527
C 23.29577 21.98531 0.01087
C 24.61641 29.81221 0.00733
C 24.64917 28.43228 -0.00178
C 25.86542 27.64518 0.00768
C 25.6932 26.18978 -0.0276
C 27.07015 32.64596 -0.01654
C 28.29751 31.95659 -0.00037
C 28.42727 30.52449 -0.0032
C 27.07977 29.84577 0.00622
C 27.09974 28.37809 -0.02815
C 28.23915 27.6449 -0.00942
C 26.88545 25.52165 0.00487
C 26.93727 24.24163 0.00826
C 28.162 21.9906 -0.00294
C 27.01485 21.34138 0.00152
C 27.05067 19.83237 0.01257
C 28.23607 19.10835 0.02316
C 28.24805 17.72779 0.04185
C 26.99064 17.04369 0.00194
C 27.00172 15.60553 -0.00621
C 28.23544 14.93758 0.02611
C 28.28652 13.50968 0.02198
C 27.03453 12.76156 0.01094
C 27.0412 11.32577 0.00235
C 28.30937 10.57886 0.01495
C 28.32444 9.15048 0.01259
C 24.64594 34.06236 -0.00218
C 19.67297 11.34548 -0.017
C 25.91227 0.78889 -0.00802
C 24.61205 2.8382 0.00996
C 24.46972 25.48892 0.03005
C 24.55698 24.14279 -0.04078
C 25.79316 23.4591 0.02117
C 25.75741 22.0615 0.02737
C 24.57502 21.28159 -0.00498
C 24.69306 19.88676 0.00135
C 25.86131 19.18561 0.03102
C 25.80052 17.77917 0.02555
C 24.55039 16.9846 0.01423
C 24.6003 15.61348 -0.00285
C 25.80875 14.88157 -0.009
C 25.76224 13.46664 -0.01199
C 24.56564 12.72228 -0.00229
C 24.52713 11.30225 -0.00938
C 25.82778 10.64193 -0.0264
C 25.8219 9.19802 -0.01154
C 24.63234 8.51534 0.00684
C 24.6129 7.15802 -0.01052
C 25.82038 6.41172 -0.01679
C 25.79822 4.95954 0.00367
C 24.53173 4.22173 0.04306
C 25.82502 2.1905 0.00195
C 2.47314 32.70646 -0.01977
