356
Graphene
C 34.43195 0.01963 0.01295
C 18.41615 30.49525 -0.0108
C 17.19435 29.86587 -0.00368
C 17.27422 28.46145 -0.02696
C 18.47872 27.76941 -0.00114
C 18.47303 26.28726 0.00228
C 17.26339 25.53744 0.00798
C 17.22463 24.16533 0.00422
C 18.48663 23.41841 0.0351
C 18.36429 31.95332 -0.01957
C 18.43666 21.99839 -0.03113
C 17.29871 19.74636 0.01848
C 18.53654 19.14856 -0.00619
C 18.48216 17.7741 -0.02162
C 18.46475 8.76146 0.00889
C 17.75917 7.63484 -0.00481
C 18.20898 6.35166 0.00979
C 18.35664 5.06706 0.01443
C 17.21458 4.26842 0.03505
C 17.16837 21.2802 0.02098
C 17.13732 2.83386 -0.02815
C 17.21904 32.653 0.02058
C 16.00988 0.71042 -0.03682
C 14.72418 32.72975 -0.02162
C 15.94784 32.06317 0.00415
C 15.94411 30.66696 -0.0014
C 14.76027 29.90202 0.02162
C 14.80994 28.45247 0.0076
C 16.04505 27.81083 0.01241
C 16.09112 26.32943 -0.01454
C 14.81482 25.59197 0.01945
C 14.70024 0.06791 0.01965
C 14.7308 24.04604 0.01416
C 15.94501 21.90087 0.02299
C 14.65261 21.15247 0.00244
C 14.91364 19.93607 -0.01717
C 16.08331 19.26733 0.05265
C 15.99851 4.97077 -0.01952
C 15.0383 4.11802 -0.02813
C 14.67149 2.84839 0.00374
C 15.89036 2.05595 0.00052
C 15.97507 23.37085 0.03542
C 18.40806 2.16554 -0.04147
C 18.4574 0.73443 -0.05302
C 17.20449 34.07765 0.00213
C 20.81479 5.02358 0.00667
C 19.57343 4.29278 0.00143
C 19.58618 2.78804 -0.017
C 20.7675 2.06396 0.00364
C 20.88846 0.68458 -0.00831
C 19.65343 34.0419 -0.02957
C 22.02778 32.69058 -0.04422
C 23.24081 31.94751 0.00654
C 20.7414 6.42595 -0.0054
C 23.30532 30.47343 -0.00703
C 22.17807 28.45751 -0.00652
C 23.3693 27.67708 0.0058
C 23.33416 26.27892 -0.00865
C 22.15791 25.5359 0.00675
C 22.12702 24.12033 -0.00311
C 23.35217 23.47286 0.00742
C 23.36078 22.01101 -0.01594
C 22.109 21.26841 0.0106
C 22.08894 29.87768 -0.04076
C 20.8991 10.50332 0.00755
C 19.87062 11.27081 0.01739
C 19.61681 12.60079 0.03754
C 19.59153 32.60535 -0.00066
C 20.84399 31.94592 -0.00289
C 20.90067 30.55145 0.00028
C 19.71752 29.76211 -0.02213
C 19.74902 28.41639 0.03698
C 20.97663 27.66408 -0.00109
C 20.98248 26.25779 -0.00491
C 19.72163 25.54432 0.03338
C 19.66653 24.13201 -0.0258
C 20.89594 23.37821 -0.0331
C 20.84277 22.04041 -0.00316
C 19.68332 21.27794 0.02188
C 19.73774 19.84298 -0.01979
C 20.87662 19.10662 0.02691
C 20.83558 17.67865 -0.01581
C 19.53294 16.89661 0.01452
C 19.71078 15.58298 0.04892
C 20.81062 14.86076 -0.00111
C 20.7649 13.38173 -0.03557
C 12.29085 34.07854 0.01363
C 22.12406 19.86241 -0.01154
C 13.5089 0.74406 0.01877
C 12.24319 2.65234 0.00444
C 4.90083 32.68431 -0.00562
C 6.15177 32.00228 -0.00494
C 6.18687 30.5833 0.00054
C 4.8943 29.78559 0.03007
C 4.92975 28.35703 -0.00095
C 6.16951 27.64832 0.01572
C 6.18398 26.30204 -0.04848
C 5.0124 25.59746 -0.00892
C 2.42753 34.04119 -0.01142
C 5.0074 24.17813 -0.01362
C 6.10001 22.08316 0.0288
C 4.85422 21.35893 0.00393
C 4.68614 20.00673 0.00895
C 4.91021 4.25178 0.00685
C 4.84286 2.83999 0.02888
C 6.09125 2.19157 -0.00482
C 6.07175 0.84326 -0.01384
C 4.86528 0.02774 0.03693
C 6.16541 23.44134 -0.0008
C 7.3702 32.73169 0.01745
C 3.64875 0.68423 0.01849
C 2.36138 2.92629 0.0127
C 3.63097 30.50632 -0.05697
C 2.43151 29.79653 0.01087
C 2.50471 28.38628 -0.01343
C 3.66671 27.73999 0.00988
C 3.67448 26.29738 0.0276
C 2.47833 25.61001 0.01305
C 2.45297 24.20716 -0.00077
C 3.75113 23.53666 0.03368
C 3.64103 2.1964 0.01396
C 3.66566 21.99823 -0.02929
C 2.41207 19.87976 -0.03337
C 3.58381 19.1876 0.01227
C 2.43453 17.12733 0.00873
C 2.38912 8.41634 -0.00049
C 2.58064 7.11894 0.00848
C 3.6578 6.32511 -0.01303
C 3.77752 5.01157 -0.01378
C 2.40435 4.28101 0.02635
C 2.44361 21.30186 -0.00966
C 8.57844 31.99635 0.00488
C 8.55291 30.5273 -0.01004
C 7.37126 29.88946 -0.02896
C 11.08863 21.97603 0.00406
C 9.81068 21.58348 0.00943
C 9.77064 2.90161 0.02841
C 10.96576 2.29027 -0.01111
C 11.03986 0.7508 -0.01275
C 9.76462 0.06033 0.00985
C 12.22382 32.67992 -0.02245
C 13.48648 32.00513 -0.00428
C 11.06399 23.44496 0.03592
C 13.52005 30.52206 0.03101
C 12.35372 28.418 -0.02689
C 13.5607 27.7792 -0.01046
C 13.57262 26.26908 -0.00891
C 12.34077 25.5184 0.02819
C 12.33989 24.20561 0.00165
C 13.50798 23.3917 -0.02971
C 13.44731 21.92173 0.02894
C 12.32907 21.18782 -0.01789
C 12.30568 29.85708 -0.01536
C 9.84328 24.13758 0.00572
C 9.88616 25.62546 0.0402
C 11.10699 26.29722 -0.02759
C 7.40708 28.40538 -0.00131
C 8.64401 27.71787 -0.01118
C 8.6036 26.33914 -0.014
C 7.44566 25.60494 0.02147
C 7.41496 24.13984 0.00373
C 8.59329 23.42552 -0.00191
C 8.59358 21.95076 0.00438
C 7.29559 21.37129 0.01291
C 7.39489 4.37536 0.00093
C 7.32642 2.93424 0.00057
C 8.5704 2.24816 -0.01634
C 8.55578 0.78187 -0.00334
C 7.38674 0.069 0.02339
C 9.80906 32.69361 0.01641
C 11.03646 31.9785 -0.00719
C 11.08822 30.57844 0.01364
C 9.86749 29.81237 -0.01062
C 9.84333 28.41133 -0.00033
C 11.1128 27.71121 0.03589
C 13.4753 2.11887 -0.00925
C 23.40195 19.15604 -0.01721
C 23.27506 17.75915 -0.02422
C 22.11339 17.02886 0.01277
C 31.9858 32.67116 0.01713
C 33.20399 31.98066 -0.01694
C 33.17362 30.57175 0.01428
C 32.00679 29.78335 -0.02142
C 32.00789 28.39639 0.0544
C 33.16507 27.65637 0.00026
C 33.21985 26.30629 0.00682
C 32.02952 25.53693 -0.01779
C 29.52126 0.03035 0.00346
C 31.97921 24.14367 0.03794
C 33.11189 21.97014 0.01574
C 31.9036 21.30737 -0.02383
C 31.86579 19.88926 -0.01429
C 33.08428 19.22929 -0.0136
C 33.12452 17.72912 0.00594
C 31.90182 17.0818 -0.02474
C 31.95397 15.60554 0.00369
C 33.20617 14.96783 0.00455
C 33.18986 23.42039 0.01927
C 33.24146 13.49142 -0.00644
C 30.70172 0.74569 0.00307
C 29.50419 2.86445 0.02108
C 30.60555 21.99974 -0.01415
C 29.37852 21.3206 -0.03039
C 29.36785 19.87676 0.01836
C 30.59984 19.17538 0.03531
C 30.63875 17.80433 -0.00669
C 29.43191 17.10385 0.0101
C 29.47059 15.66303 0.01705
C 30.74385 14.87813 -0.0405
C 30.69629 2.11472 0.00716
C 30.7598 13.43672 -0.01303
C 29.4759 11.33457 -0.02155
C 30.72575 10.62771 -0.00944
C 30.75131 9.23181 -0.03735
C 29.488 8.393 -0.00971
C 29.57109 7.05979 0.01518
C 30.79272 6.35946 0.01908
C 30.78025 4.9171 0.07705
C 29.52703 4.21324 0.0103
C 29.48754 12.79963 -0.01461
C 32.02182 12.7428 -0.01839
C 31.9786 11.34325 0.00137
C 33.29791 10.6167 0.00199
C 1.22717 19.18535 -0.01678
C 1.18476 17.79286 0.01223
C 0.00926 17.00126 0.00648
C 0.03631 15.64539 0.02114
C 1.12875 14.85371 -0.02957
C 1.21082 13.50516 0.00343
C 0.02521 12.73524 -0.02656
C 0.00696 11.36222 -0.02442
C 34.34154 19.93122 0.01951
C 1.24036 10.66093 -0.00027
C 0.06382 8.51367 -0.02302
C 0.05982 7.12225 -0.02849
C 1.23989 6.43646 0.02931
C 1.16227 5.05336 0.00628
C 34.36373 4.32408 -0.0345
C 34.39092 2.911 -0.00931
C 1.17009 2.21602 -0.00939
C 1.20286 0.73233 -0.00468
C 1.45739 9.25334 -0.00583
C 34.34651 21.31396 -0.02213
C 1.17228 22.02682 0.02712
C 1.23988 23.41204 0.00723
C 33.24706 9.17984 0.04381
C 32.0072 8.51065 0.02806
C 31.98319 7.1004 0.01504
C 33.20821 6.3872 -0.00069
C 33.11119 4.9694 0.04926
C 32.00082 4.22664 -0.03838
C 32.00055 2.83462 0.00349
C 33.21452 2.1476 -0.00323
C 33.18519 0.74104 -0.00841
C 32.03336 0.07848 0.0001
C 0.02898 32.67484 -0.02927
C 1.20775 31.98823 -0.01404
C 1.22464 30.54505 0.01027
C 34.38783 29.85097 0.01831
C 34.41846 28.41077 -0.01037
C 1.23911 27.64238 -0.00439
C 1.23448 26.28691 -0.00598
C 0.02828 25.57952 -0.05239
C 0.03438 24.1223 0.03076
C 30.76718 23.41486 -0.01854
C 29.54375 24.14099 -0.02049
C 29.5435 25.65065 0.03265
C 30.79709 26.30349 0.00261
C 24.60707 25.58025 -0.01107
C 24.59965 24.15041 -0.01586
C 25.8368 23.44032 -0.01971
C 25.78571 22.07008 -0.02118
C 24.54829 21.39193 0.00733
C 24.60906 19.89177 -0.00178
C 25.74202 19.19693 0.00768
C 25.71686 17.77976 -0.0276
C 25.84157 26.29653 0.00071
C 24.49774 17.08394 0.03005
C 25.78056 14.92066 0.02117
C 25.79121 13.43616 0.02737
C 24.54208 12.75671 -0.00498
C 24.5409 11.32516 0.00135
C 25.85031 10.63341 0.03102
C 25.79493 9.13821 0.02555
C 24.56309 8.45346 0.01423
C 24.65691 7.04095 -0.00285
C 24.55754 15.64114 -0.04078
C 25.92501 27.69702 -0.00225
C 24.68497 28.42892 0.01515
C 24.64412 29.82401 -0.0055
C 22.05921 15.60183 0.00096
C 23.33378 14.89817 -0.01527
C 23.28009 13.38582 0.01087
C 22.04298 12.72116 0.00199
C 22.05417 11.31533 0.01511
C 23.34041 10.57072 -0.00478
C 23.38585 9.15868 -0.01662
C 22.09616 8.59311 -0.01185
C 21.83731 7.23279 0.01126
C 23.22799 6.36578 0.01852
C 23.3218 4.93441 -0.00381
C 22.04619 4.21627 0.03046
C 22.01367 2.81835 0.0296
C 23.32033 2.14465 0.03374
C 23.36517 0.74072 -0.02845
C 22.10738 0.04099 -0.03213
C 24.52715 32.63687 0.02239
C 25.80427 31.99424 0.01153
C 25.80817 30.52865 0.02734
C 25.85361 6.33809 -0.009
C 3.67135 31.90675 -0.00725
C 25.76841 4.90536 -0.01199
C 24.5742 2.84574 -0.00938
C 27.04329 11.38589 0.04185
C 28.191 10.61992 0.00194
C 28.27676 9.14714 -0.00621
C 27.06158 8.40485 0.02611
C 27.04656 7.01967 0.02198
C 28.28279 6.35831 0.01094
C 28.32073 4.94526 0.00235
C 27.01907 4.20575 0.01495
C 27.02756 12.82095 0.02316
C 27.06627 2.81734 0.01259
C 28.2415 0.74348 0.01699
C 27.03392 0.06683 -0.00416
C 29.46226 32.71834 0.01177
C 30.73008 32.00979 0.04266
C 30.72359 30.59242 0.01324
C 29.56702 29.83435 0.0014
C 29.57165 28.39614 0.00924
C 30.78156 27.72713 0.02326
C 28.31876 2.12921 0.01799
C 28.29837 13.53735 0.01257
C 28.28667 14.90198 0.00152
C 27.02541 15.64995 -0.00294
C 25.76584 2.09906 -0.0264
C 25.81505 0.70712 -0.01154
C 24.54754 34.02535 0.00684
C 26.90998 32.70892 -0.01052
C 28.2807 31.96444 -0.01679
C 28.3093 30.60204 0.00367
C 27.1074 29.80579 0.04306
C 27.12993 28.38646 0.00996
C 28.3617 27.70216 0.00195
C 28.304 26.30789 -0.00802
C 27.04903 25.52417 -0.00218
C 27.06804 24.14509 -0.01654
C 28.25855 23.44667 -0.00037
C 28.21206 22.05655 -0.0032
C 26.97211 21.394 0.00622
C 26.97038 19.95456 -0.02815
C 28.20681 19.16795 -0.00942
C 28.26076 17.72561 0.00487
C 26.98426 17.04969 0.00826
C 24.50387 4.25608 -0.00229
C 2.39519 32.62934 0.02322
