379
Graphene
C 34.43166 34.07554 0.01295
C 14.65789 4.42848 0.01945
C 14.77076 2.99429 0.01416
C 15.91709 2.1721 0.03542
C 15.99415 0.78997 0.02299
C 14.77705 0.05467 0.00244
C 17.21133 32.65722 -0.01717
C 18.52888 31.95308 0.05265
C 18.40125 30.50437 -0.01952
C 17.19394 29.8152 -0.02813
C 17.17754 28.41978 0.00374
C 18.33664 27.63407 0.00052
C 18.41536 26.23079 -0.03682
C 17.13225 25.46799 0.01965
C 17.1014 23.98281 0.02058
C 18.5023 23.26087 -0.01957
C 18.38699 21.96448 -0.0108
C 17.09914 21.35524 -0.00368
C 17.15236 19.87556 -0.02696
C 18.2936 19.2299 -0.00114
C 15.93348 5.06459 -0.01454
C 15.96906 6.45296 0.01241
C 14.70113 7.2778 0.0076
C 14.70194 8.65748 0.02162
C 14.80193 32.71426 0.00985
C 15.93029 32.01353 -0.02245
C 15.87218 30.496 -0.00428
C 14.562 30.02548 0.03101
C 16.08995 27.574 -0.01536
C 16.10166 26.30449 -0.02689
C 15.88982 23.42083 -0.01046
C 15.73595 22.06696 -0.00891
C 14.70607 21.1874 0.02819
C 18.38405 17.77193 0.00228
C 14.55494 19.84893 0.00165
C 15.92457 17.74068 0.02894
C 14.71155 17.06589 -0.01789
C 14.7163 15.618 0.00444
C 15.92488 14.94649 -0.00925
C 15.98641 13.50942 0.01877
C 14.69428 12.79697 0.01363
C 14.75249 11.42657 -0.02162
C 16.03058 10.75581 0.00415
C 15.95878 9.33513 -0.0014
C 15.86994 19.02177 -0.02971
C 17.17637 17.0478 0.00798
C 17.15525 15.68407 0.00422
C 18.42902 14.85239 0.0351
C 20.95541 21.90527 -0.00316
C 19.66866 21.26462 0.02188
C 19.58207 19.86606 -0.01979
C 20.82826 19.10794 0.02691
C 20.92821 17.7116 -0.01581
C 19.66204 17.03954 0.01452
C 19.62842 15.58992 0.04892
C 20.90628 14.92154 -0.00111
C 20.8889 13.38354 -0.03557
C 20.98035 23.34348 -0.0331
C 19.6678 12.78596 0.03754
C 20.90865 10.63717 0.00755
C 20.82725 9.21888 -0.0054
C 19.67986 8.52291 0.00667
C 19.66383 7.14897 0.00143
C 20.80685 6.40876 -0.017
C 20.84623 5.03121 0.00364
C 19.63054 4.27767 -0.00831
C 19.65609 2.83541 -0.02957
C 20.83724 2.01227 -0.04422
C 19.69465 11.2957 0.01739
C 12.35374 0.08519 -0.01275
C 19.78842 24.03803 -0.0258
C 20.8555 26.171 -0.00491
C 18.39531 13.50431 -0.03113
C 17.20951 12.79805 0.02098
C 17.19502 11.36925 0.01848
C 18.34291 10.67945 -0.00619
C 18.46386 9.2834 -0.02162
C 17.21661 8.6386 0.00889
C 17.21397 7.17705 -0.00481
C 18.38531 6.45449 0.00979
C 18.32398 5.01946 0.01443
C 19.70159 25.46171 0.03338
C 17.15762 4.25594 0.03505
C 18.43929 2.06621 -0.04147
C 18.36173 0.67659 -0.05302
C 17.17255 34.06422 0.00213
C 19.68127 32.6718 -0.00066
C 20.84895 31.86496 -0.00289
C 20.92765 30.44259 0.00028
C 19.62921 29.84332 -0.02213
C 19.67912 28.41979 0.03698
C 20.83029 27.58753 -0.00109
C 17.23204 2.81291 -0.02815
C 20.84663 0.57118 0.00654
C 13.59894 0.78797 -0.01111
C 12.27706 2.9358 0.00943
C 6.03075 13.57341 0.01087
C 4.86517 12.83209 -0.01343
C 4.86373 11.43971 0.00988
C 6.11455 10.66544 0.0276
C 6.01862 9.31321 0.01305
C 4.86631 8.48763 -0.00077
C 4.89616 7.09506 0.03368
C 6.16699 6.39522 -0.02929
C 6.06709 4.97795 -0.00966
C 4.83378 4.21928 -0.03337
C 4.86201 2.94897 0.01227
C 6.02831 2.09447 0.00873
C 6.02571 0.587 -0.00049
C 4.65473 33.99539 0.00848
C 8.57607 17.72052 -0.01303
C 7.24131 17.1858 -0.01378
C 7.30997 15.72828 0.02635
C 8.54968 15.06736 0.0127
C 8.58863 13.61735 0.01396
C 6.00684 14.96701 -0.05697
C 4.8125 15.61995 -0.00725
C 4.86047 17.17635 0.02322
C 6.00982 17.8746 -0.00094
C 3.56405 19.20485 0.00643
C 3.67447 17.8724 -0.01509
C 2.45487 17.03069 0.03267
C 2.41329 15.68289 0.02374
C 3.62985 14.89755 0.00402
C 3.64154 13.46018 0.0073
C 2.44981 12.78364 0.0174
C 2.34968 11.44949 0.03828
C 3.57176 10.701 0.01226
C 7.34304 12.98021 0.01849
C 3.57464 9.19043 -0.00279
C 2.44151 7.09694 -0.03996
C 3.64673 6.39721 0.01465
C 3.60793 4.98838 -0.00074
C 2.3946 4.35417 -0.00518
C 2.31484 2.88581 0.0086
C 3.58105 2.30195 -0.00643
C 3.6465 0.90225 0.017
C 2.42101 0.1649 -0.03113
C 4.04449 32.58978 -0.02566
C 2.41184 8.47534 0.01996
C 7.33182 11.52673 -0.01142
C 8.46003 10.76684 -0.00562
C 8.50086 9.32063 -0.00494
C 11.0236 2.22935 0.00373
C 11.0565 0.79943 -0.00191
C 9.81961 0.01317 0.00438
C 12.42231 32.80612 0.01291
C 13.57368 31.98443 0.00093
C 13.31445 19.21459 0.00057
C 13.50245 17.71942 -0.01634
C 12.29372 16.96865 -0.00334
C 12.27401 15.68223 0.02339
C 9.75203 2.9457 0.02147
C 13.47859 14.91259 0.01641
C 12.26434 12.78258 0.01364
C 12.24769 11.47573 -0.01062
C 13.51525 10.73833 -0.00033
C 13.48183 9.35549 0.03589
C 12.20497 8.61617 -0.02759
C 12.25238 7.21569 0.0402
C 13.4871 6.52362 0.00572
C 13.41673 5.08552 0.03592
C 12.2161 4.42761 0.00406
C 13.50703 13.43511 -0.00719
C 13.54453 2.27736 0.02841
C 9.78024 4.29846 -0.014
C 10.98501 6.50752 -0.00131
C 7.25067 8.5844 0.00054
C 7.39032 7.142 0.03007
C 8.61979 6.42362 -0.00095
C 8.57335 5.00029 0.01572
C 7.36425 4.29116 -0.04848
C 7.27869 2.84489 -0.00892
C 8.56414 2.20592 -0.01362
C 8.62959 0.76705 -0.0008
C 7.41471 0.16799 0.0288
C 11.00913 5.0768 -0.01118
C 11.0963 17.80787 0.00393
C 9.78772 15.78126 0.00685
C 11.0127 15.01791 0.02888
C 11.04027 13.63514 -0.00482
C 9.7608 12.86123 -0.01384
C 9.80543 11.38728 0.03693
C 11.01599 10.70337 0.01745
C 10.96879 9.33227 0.00488
C 9.75005 8.66118 -0.01004
C 9.79779 7.20685 -0.02896
C 9.84097 17.23926 0.00895
C 2.44381 19.86888 0.00907
C 19.58748 34.0517 -0.00703
C 23.381 31.91653 -0.00652
C 30.71046 6.41246 0.02108
C 30.70552 5.00193 0.00716
C 29.43885 4.24494 0.00307
C 29.41002 2.80703 0.00346
C 30.65877 2.0923 0.01713
C 30.65929 0.69792 -0.01694
C 29.40522 34.0442 0.01428
C 32.11844 32.6686 -0.02142
C 33.33445 31.96951 0.0544
C 33.22484 30.41395 0.00026
C 31.99391 29.78854 0.00682
C 32.02312 28.39 -0.01779
C 33.20538 27.67311 0.03794
C 33.2842 26.24614 0.01927
C 31.88025 25.59961 0.01574
C 31.88674 24.19547 -0.02383
C 33.08034 23.51695 -0.01429
C 33.18343 22.12187 -0.0136
C 31.99561 21.36847 0.00594
C 29.3739 7.07911 0.0103
C 29.43343 8.54035 0.07705
C 30.67041 9.25 0.01908
C 30.76208 10.64403 0.01518
C 30.72697 31.97448 0.00924
C 30.77522 30.6043 0.02326
C 29.46391 29.84106 0.00261
C 29.48783 28.39714 0.03265
C 30.71345 27.72971 -0.02049
C 30.63111 26.351 -0.01854
C 29.39113 25.5141 -0.01415
C 29.40964 24.13835 -0.03039
C 30.67162 23.45942 0.01836
C 32.00923 19.96102 -0.02474
C 30.75955 22.06526 0.03531
C 29.56044 19.86528 0.0101
C 30.78367 19.13419 0.01705
C 30.76363 17.75652 -0.0405
C 29.49943 17.0283 -0.01303
C 29.56833 15.58189 -0.01461
C 30.76412 14.96662 -0.02155
C 30.84615 13.54547 -0.00944
C 29.64732 12.76546 -0.03735
C 29.50874 11.28353 -0.00971
C 29.54982 21.30818 -0.00669
C 33.21908 19.26892 0.00369
C 33.27779 17.83501 0.00455
C 32.08734 17.08124 -0.00644
C 0.01569 21.4777 -0.02213
C 0.05302 19.97231 0.01951
C 1.24876 19.20381 -0.01678
C 1.25738 17.82416 0.01223
C 0.03743 17.1411 0.00648
C 34.36317 15.75253 0.02114
C 1.15015 14.99922 -0.02957
C 1.20184 13.56753 0.00343
C 34.40934 12.84487 -0.02656
C 1.10162 22.40377 0.02712
C 34.37437 11.27385 -0.02442
C 1.17846 9.22911 -0.00583
C 34.42855 8.63078 -0.02302
C 34.38316 7.13961 -0.02849
C 1.16956 6.37949 0.02931
C 1.07481 4.98382 0.00628
C 34.34034 4.29114 -0.0345
C 34.36125 2.83595 -0.00931
C 1.13305 2.17269 -0.00939
C 1.21713 0.73755 -0.00468
C 1.21487 10.68805 -0.00027
C 29.43242 32.58079 0.0014
C 34.36889 24.01488 0.00723
C 34.42673 28.30725 -0.05239
C 32.00088 15.73631 -0.01839
C 33.20044 15.01556 0.00137
C 33.23493 13.55416 0.00199
C 32.00253 12.84111 0.04381
C 31.96397 11.43045 0.02806
C 33.12114 10.63251 0.01504
C 33.16917 9.23377 -0.00069
C 31.88966 8.46574 0.04926
C 31.91799 6.99065 -0.03838
C 34.3361 25.4361 0.03076
C 33.15425 6.33049 0.00349
C 31.8945 4.26685 -0.00841
C 31.92408 2.8721 0.0001
C 33.14603 2.08295 -0.02927
C 33.17149 0.7061 -0.01404
C 31.98665 0.01478 0.01027
C 0.17096 32.67796 0.01831
C 1.48576 31.95156 -0.01037
C 1.28675 30.66647 -0.00439
C 0.12901 29.75529 -0.00598
C 33.08687 4.92403 -0.00323
C 22.1153 32.51617 -0.04076
C 26.95813 0.00326 0.01324
C 28.1549 2.15514 0.01177
C 23.22544 4.97965 0.03374
C 22.03342 4.26651 -0.02845
C 22.01927 2.8308 -0.03213
C 23.2805 2.05626 0.02239
C 23.17539 0.61613 0.01153
C 21.98672 33.87328 0.02734
C 24.5364 32.58823 -0.0055
C 25.80963 31.91006 0.01515
C 25.77375 30.44405 -0.00225
C 24.54988 29.75571 0.00071
C 24.60426 28.29566 -0.01107
C 25.80974 27.58866 -0.01586
C 25.77562 26.1959 -0.01971
C 24.54283 25.46333 -0.02118
C 24.6019 24.04233 0.00733
C 25.90509 23.39793 -0.00178
C 25.86105 21.91751 0.00768
C 24.59771 21.27543 -0.0276
C 24.58096 19.87883 0.03005
C 23.26619 6.36408 0.0296
C 22.12881 7.05321 0.03046
C 22.09988 8.56101 -0.00381
C 23.22448 9.33413 0.01852
C 23.35829 30.50486 0.0058
C 22.10579 29.74406 -0.00865
C 22.0794 28.31169 0.00675
C 23.28486 27.61405 -0.00311
C 23.2996 26.23093 0.00742
C 22.10901 25.51057 -0.01594
C 22.19121 24.08679 0.0106
C 23.33293 23.30021 -0.01154
C 23.29051 21.97325 -0.01721
C 25.75389 19.15937 -0.04078
C 22.15538 21.23525 -0.02422
C 23.37665 19.11436 0.00096
C 23.44305 17.71987 -0.01527
C 22.19822 17.00025 0.01087
C 22.21799 15.54406 0.00199
C 23.48923 14.86157 0.01511
C 23.4048 13.47173 -0.00478
C 22.13762 12.77613 -0.01662
C 22.10473 11.38008 -0.01185
C 23.34033 10.72471 0.01126
C 22.16278 19.77151 0.01277
C 25.81816 17.78723 0.02117
C 24.66525 16.97695 0.02737
C 24.66776 15.57665 -0.00498
C 28.29101 23.34219 -0.02815
C 28.3426 22.00205 -0.00942
C 27.14081 21.17395 0.00487
C 27.09163 19.77816 0.00826
C 28.30565 19.19057 -0.00294
C 28.27202 17.74087 0.00152
C 27.12935 17.01961 0.01257
C 27.02679 15.63496 0.02316
C 28.3357 14.92436 0.04185
C 27.07027 24.06118 0.00622
C 28.33173 13.50709 0.00194
C 27.07799 11.33484 0.02611
C 28.2417 10.61137 0.02198
C 28.23922 9.22991 0.01094
C 26.88181 8.48264 0.00235
C 26.88488 7.01093 0.01495
C 28.16625 6.46931 0.01259
C 28.19468 5.00066 0.01799
C 27.02209 4.28121 0.01699
C 27.01081 2.82254 -0.00416
C 27.11896 12.74943 -0.00621
C 28.25723 0.69704 0.04266
C 27.03084 25.53641 -0.0032
C 28.33955 27.72375 -0.01654
C 25.81098 14.87014 0.00135
C 25.82307 13.42954 0.03102
C 24.55612 12.78128 0.02555
C 24.60035 11.39393 0.01423
C 25.79051 10.65562 -0.00285
C 25.75361 9.27134 -0.009
C 24.5726 8.53535 -0.01199
C 24.4706 7.14186 -0.00229
C 25.72074 6.30398 -0.00938
C 28.25232 26.30215 -0.00037
C 25.64661 4.91022 -0.0264
C 24.50222 2.6787 0.00684
C 25.77495 2.03981 -0.01052
C 25.80374 0.66844 -0.01679
C 24.4621 34.03261 0.00367
C 26.99287 32.66164 0.04306
C 28.21664 31.88555 0.00996
C 28.27909 30.49383 0.00195
C 26.9862 29.69008 -0.00802
C 27.00805 28.30673 -0.00218
C 24.46233 4.25003 -0.01154
C 2.54415 32.83074 0.02379
