444
Graphene
C 34.40357 0.09999 0.01295
C 13.4512 19.14975 0.01291
C 13.53183 17.68905 0.00093
C 12.27261 17.01945 0.00057
C 12.18503 15.67787 -0.01634
C 13.43048 14.93737 -0.00334
C 13.42741 13.53757 0.02339
C 12.2627 12.80803 0.01641
C 12.34158 11.44096 -0.00719
C 13.53226 10.75294 0.01364
C 13.55859 9.29436 -0.01062
C 12.29401 8.5817 -0.00033
C 12.28541 7.14346 0.03589
C 13.44904 6.36668 -0.02759
C 13.46635 4.99519 0.0402
C 12.28232 4.30556 0.00572
C 12.30182 2.92312 0.03592
C 13.57632 2.21661 0.00406
C 13.51356 0.73847 0.00943
C 12.25478 0.14379 0.02841
C 14.70161 32.57955 -0.01111
C 15.96083 31.93913 -0.01275
C 15.94202 30.57618 0.00985
C 14.74203 29.89296 -0.02245
C 12.30839 19.81395 0.00438
C 12.21817 21.27501 -0.00191
C 13.41712 22.05037 0.00373
C 13.48453 23.4421 0.02147
C 10.9754 14.946 -0.00494
C 10.99555 13.49895 0.00054
C 9.77956 12.77873 0.03007
C 9.85072 11.39965 -0.00095
C 11.07698 10.73992 0.01572
C 11.13042 9.38285 -0.04848
C 9.88242 8.5092 -0.00892
C 9.83076 7.10257 -0.01362
C 11.10886 6.35411 -0.0008
C 11.03785 4.9658 0.0288
C 9.75819 4.34994 0.00393
C 14.79302 28.50887 -0.00428
C 9.72913 2.88368 0.00895
C 10.98888 0.76763 0.02888
C 9.81334 0.05989 -0.00482
C 12.27185 32.69719 -0.01384
C 13.39951 31.95223 0.03693
C 13.45147 30.50978 0.01745
C 12.27967 29.81735 0.00488
C 12.29903 28.32736 -0.01004
C 13.54554 27.67499 -0.02896
C 13.49596 26.3439 -0.00131
C 12.29564 25.57011 -0.01118
C 12.29057 24.17991 -0.014
C 10.98789 2.22898 0.00685
C 16.07436 27.65055 0.03101
C 15.91193 26.21596 -0.01536
C 14.6438 25.51421 -0.02689
C 17.20679 28.3023 0.00052
C 18.42853 27.71879 -0.03682
C 18.42251 26.29375 0.01965
C 17.2049 25.567 0.02058
C 17.17907 24.19022 -0.01957
C 18.44694 23.4014 -0.0108
C 18.44104 22.04905 -0.00368
C 17.13932 21.38014 -0.02696
C 17.1293 19.95692 -0.00114
C 18.38676 19.11552 0.00228
C 18.44981 17.70139 0.00798
C 17.21689 29.81258 0.00374
C 17.16589 16.99914 0.00422
C 18.30361 14.83034 -0.03113
C 18.40403 13.45779 0.02098
C 17.13519 12.80316 0.01848
C 17.19289 11.40576 -0.00619
C 18.37541 10.59685 -0.02162
C 18.42729 9.18912 0.00889
C 17.15738 8.50496 -0.00481
C 17.18355 7.0275 0.00979
C 18.45335 6.34488 0.01443
C 18.46052 4.91775 0.03505
C 17.22161 4.26429 -0.02815
C 17.08991 15.56266 0.0351
C 9.78595 15.73366 -0.00562
C 18.43294 30.50389 -0.02813
C 17.21546 32.61357 0.05265
C 14.72315 24.14834 -0.01046
C 16.00077 23.45885 -0.00891
C 15.88789 22.04431 0.02819
C 14.59228 21.32312 0.00165
C 14.70832 19.88861 -0.02971
C 15.90933 19.20696 0.02894
C 15.9525 17.75628 -0.01789
C 14.71709 17.1001 0.00444
C 14.72178 15.67938 -0.00925
C 15.85952 14.95334 0.01877
C 15.90051 13.49508 0.01363
C 18.4156 31.93617 -0.01952
C 14.70371 12.81251 -0.02162
C 16.00108 10.6623 -0.0014
C 15.9677 9.25751 0.02162
C 14.69825 8.48248 0.0076
C 14.67252 7.11553 0.01241
C 15.94291 6.34538 -0.01454
C 15.96857 4.91247 0.01945
C 14.74484 4.25107 0.01416
C 14.75657 2.874 0.03542
C 15.96233 2.0712 0.02299
C 15.91886 0.68702 0.00244
C 14.66605 33.98693 -0.01717
C 14.72292 11.36287 0.00415
C 17.16004 2.85918 -0.04147
C 9.80524 17.09219 -0.01142
C 10.91571 19.15101 0.01396
C 3.71594 0.77147 -0.00407
C 2.46422 34.06102 0.01138
C 4.96086 32.73481 0.03278
C 6.08326 32.0871 -0.00177
C 6.10564 30.58795 0.04421
C 4.8901 29.88792 0.00088
C 4.86257 28.43042 0.00828
C 6.15703 27.71046 -0.02375
C 6.1711 26.28435 0.00558
C 4.93142 25.40801 -0.0059
C 4.88547 24.06824 -0.01386
C 6.08016 23.42792 -0.02805
C 6.08102 22.02547 0.00081
C 4.75919 21.34181 0.00245
C 4.7428 19.93361 0.02728
C 6.00189 19.20258 -0.00039
C 6.09166 17.79558 0.0064
C 4.81328 16.98377 0.00211
C 4.88473 15.60818 -0.00449
C 6.16252 14.9407 -0.01979
C 6.09455 13.46246 0.02784
C 4.83582 12.82113 -0.01977
C 4.85907 11.38711 -0.00561
C 3.76851 2.19358 -0.01299
C 2.50297 2.90399 -0.0154
C 2.40618 4.31356 0.00662
C 3.67501 5.02201 0.00748
C 3.69632 30.65016 -0.03951
C 2.47113 29.78792 -0.00141
C 2.42239 28.39381 -0.00374
C 3.69755 27.66373 -0.0213
C 3.75217 26.2024 0.01116
C 2.48594 25.5907 -0.0005
C 2.31961 24.15162 -0.00018
C 3.55138 23.44989 0.01073
C 3.58624 22.02357 0.01984
C 2.45186 21.31408 0.00535
C 2.3224 19.8288 -0.00198
C 6.17375 10.71339 0.00208
C 3.56114 19.21178 -0.00012
C 2.40309 17.08366 -0.03672
C 2.38355 15.60911 0.01913
C 3.62684 14.8533 0.00267
C 3.60104 13.50892 0.00787
C 2.42763 12.59897 0.02426
C 2.47647 11.23434 0.01218
C 3.68298 10.61952 -0.01471
C 3.72121 9.21619 -0.02827
C 2.37367 8.47355 0.01078
C 2.30453 6.9661 -0.00112
C 3.6823 6.39389 0.03345
C 3.61919 17.70811 -0.04306
C 6.17921 9.31967 0.01707
C 4.98219 8.5909 0.02769
C 4.94462 7.12851 -0.03291
C 8.58627 10.72897 -0.03113
C 8.5794 9.22258 -0.02566
C 7.38005 8.58622 -0.00094
C 7.3677 7.20071 0.02322
C 8.62822 6.47838 -0.00725
C 8.62663 5.03164 -0.05697
C 7.43023 4.31681 0.01087
C 7.35084 2.93415 -0.01343
C 8.52803 2.15929 0.00988
C 8.56382 0.7514 0.0276
C 7.35915 0.03704 0.01305
C 7.44467 11.44463 0.017
C 9.82564 32.65993 -0.00077
C 11.06358 30.51719 -0.02929
C 9.80634 29.84564 -0.00966
C 9.86312 28.38076 -0.03337
C 11.08046 27.65421 0.01227
C 11.06449 26.23503 0.00873
C 9.83352 25.61788 -0.00049
C 9.73951 24.15336 0.00848
C 11.07962 23.50527 -0.01303
C 11.01625 22.06189 -0.01378
C 9.81131 21.29732 0.02635
C 9.78895 19.92908 0.0127
C 11.11291 31.97521 0.03368
C 11.04634 17.78336 0.01849
C 7.38854 12.77886 -0.00643
C 8.59609 15.01127 -0.00518
C 6.16407 6.45971 -0.04999
C 6.15739 5.04742 0.04505
C 4.87538 4.33524 0.03284
C 5.00788 2.96981 -0.04307
C 6.12882 2.28812 0.03189
C 6.17718 0.78052 0.00031
C 4.95286 0.10545 -0.003
C 7.36607 32.72511 0.01402
C 8.61533 31.97534 0.02379
C 8.67713 30.56213 0.00907
C 7.36638 29.89714 0.00643
C 8.60798 13.6013 0.0086
C 7.30718 28.5198 -0.01509
C 8.61064 26.37012 0.02374
C 7.36815 25.58244 0.00402
C 7.32576 24.13745 0.0073
C 8.57976 23.41221 0.0174
C 8.51936 22.05483 0.03828
C 7.35397 21.3404 0.01226
C 7.28116 19.92404 -0.00279
C 8.53666 19.24113 0.01996
C 8.47763 17.85807 -0.03996
C 7.32342 17.19101 0.01465
C 7.32802 15.71735 -0.00074
C 8.59699 27.81554 0.03267
C 18.42883 2.11134 -0.05302
C 18.36733 0.72061 0.00213
C 17.22198 0.02353 -0.00066
C 29.4235 19.84459 0.01705
C 30.62184 19.19852 -0.0405
C 30.69339 17.65851 -0.01303
C 29.46181 16.87067 -0.01461
C 29.47876 15.46149 -0.02155
C 30.69177 14.68276 -0.00944
C 30.72441 13.33932 -0.03735
C 29.46882 12.71083 -0.00971
C 29.49887 11.34872 0.01518
C 30.7491 10.59348 0.01908
C 30.73362 9.12969 0.07705
C 29.67299 8.35326 0.0103
C 29.9482 6.89655 0.02108
C 29.37366 3.36401 0.00716
C 30.7401 2.80215 0.00307
C 30.69837 1.20366 0.00346
C 29.50779 0.32348 0.01713
C 31.84659 32.84724 -0.01694
C 33.13443 32.10724 0.01428
C 33.17326 30.66409 -0.02142
C 31.93145 29.91705 0.0544
C 31.96638 28.43778 0.00026
C 33.18412 27.70104 0.00682
C 29.59223 21.25083 0.0101
C 30.73981 22.02391 -0.00669
C 30.71002 23.46063 0.03531
C 29.48557 24.16534 0.01836
C 26.95336 15.61971 0.04185
C 28.16756 14.83187 0.00194
C 28.27338 13.40475 -0.00621
C 26.95328 12.67218 0.02611
C 27.03886 11.23855 0.02198
C 28.30244 10.53771 0.01094
C 28.41313 9.08231 0.00235
C 27.23301 8.32345 0.01495
C 27.40557 6.91123 0.01259
C 28.81975 5.99137 0.01799
C 28.64881 4.59894 0.01699
C 33.22071 26.30944 -0.01779
C 27.14581 4.23693 -0.00416
C 28.3292 2.34467 0.04266
C 28.28011 0.97304 0.01324
C 27.07895 0.15801 0.0014
C 29.54253 32.89818 0.00924
C 30.75912 32.06779 0.02326
C 30.83809 30.65863 0.00261
C 29.62357 29.94492 0.03265
C 29.48877 28.49805 -0.02049
C 30.78798 27.77995 -0.01854
C 30.84342 26.30817 -0.01415
C 29.58221 25.62803 -0.03039
C 26.96112 2.84076 0.01177
C 32.0081 25.56249 0.03794
C 31.97532 24.14768 0.01927
C 33.12311 23.44748 0.01574
C 0.0029 25.66748 -0.05239
C 34.34023 24.15003 0.03076
C 1.10173 23.4519 0.00723
C 1.12713 21.98461 0.02712
C 34.39232 21.2503 -0.02213
C 34.37095 19.81644 0.01951
C 1.10668 19.09163 -0.01678
C 1.20896 17.76282 0.01223
C 34.34384 16.99538 0.00648
C 34.29482 15.54599 0.02114
C 1.15208 14.78837 -0.02957
C 1.24081 26.30261 -0.00598
C 1.17861 13.38397 0.00343
C 34.43268 11.21491 -0.02442
C 1.15212 10.49073 -0.00027
C 1.09796 9.08196 -0.00583
C 34.29258 8.30524 -0.02302
C 34.05526 6.82269 -0.02849
C 1.01902 6.2837 0.02931
C 1.07403 4.92722 0.00628
C 34.3274 4.19323 -0.0345
C 34.41704 2.79422 -0.00931
C 1.33038 2.16035 -0.00939
C 1.29128 0.75128 -0.00468
C 34.41867 12.65225 -0.02656
C 27.00552 16.92201 0.02316
C 1.1681 27.67914 -0.00439
C 0.03364 29.88254 0.01831
C 33.20865 21.9939 -0.02383
C 31.95128 21.32001 -0.01429
C 31.85271 19.86681 -0.0136
C 33.09304 19.09268 0.00594
C 33.0097 17.6669 -0.02474
C 31.80358 16.90622 0.00369
C 31.8696 15.44453 0.00455
C 33.16181 14.71602 -0.00644
C 33.15373 13.38968 -0.01839
C 31.94574 12.70984 0.00137
C 32.02918 11.25537 0.00199
C 0.0068 28.45004 -0.01037
C 33.14791 10.49363 0.04381
C 31.86217 8.37147 0.01504
C 31.40817 6.92557 -0.00069
C 32.54118 6.04859 0.04926
C 32.89413 4.66876 -0.03838
C 32.1187 3.24428 0.00349
C 33.21873 2.272 -0.00323
C 33.19632 0.89533 -0.00841
C 31.93355 0.27352 0.0001
C 34.33221 32.76511 -0.02927
C 1.21833 32.03317 -0.01404
C 1.32034 30.56834 0.01027
C 33.09678 8.98689 0.02806
C 28.19083 17.6846 0.01257
C 28.15821 19.14691 0.00152
C 27.00436 19.77969 -0.00294
C 19.64797 2.85412 -0.04422
C 20.8397 2.14397 0.00654
C 20.81732 0.7239 -0.00703
C 19.60188 0.03878 -0.04076
C 22.10148 32.65202 -0.00652
C 23.38321 31.90721 0.0058
C 23.32328 30.57236 -0.00865
C 22.03275 29.80894 0.00675
C 21.96546 28.36871 -0.00311
C 23.28095 27.79349 0.00742
C 23.3759 26.3333 -0.01594
C 19.62181 4.24426 -0.02957
C 22.15715 25.58172 0.0106
C 23.21711 23.34884 -0.01721
C 23.33719 21.94902 -0.02422
C 22.11919 21.2397 0.01277
C 21.99936 19.85487 0.00096
C 23.32753 19.14482 -0.01527
C 23.33141 17.65826 0.01087
C 22.12414 17.05566 0.00199
C 22.12404 15.6603 0.01511
C 23.3085 14.94547 -0.00478
C 23.3404 13.49818 -0.01662
C 22.05024 12.76448 -0.01185
C 22.16745 24.11956 -0.01154
C 22.08994 11.38035 0.01126
C 20.90392 4.95134 -0.00831
C 19.64477 7.07307 -0.017
C 19.62796 32.7177 -0.00289
C 20.90656 32.03656 0.00028
C 20.85141 30.69297 -0.02213
C 19.65877 29.8382 0.03698
C 19.61511 28.384 -0.00109
C 20.82818 27.67159 -0.00491
C 20.8607 26.20397 0.03338
C 19.68116 25.57067 -0.0258
C 19.67826 24.19865 -0.0331
C 20.93366 23.47901 -0.00316
C 20.93002 21.98116 0.02188
C 20.92017 6.36526 0.00364
C 19.65142 21.35213 -0.01979
C 20.81526 19.15665 -0.01581
C 20.88839 17.75215 0.01452
C 19.66645 17.05077 0.04892
C 19.6154 15.62702 -0.00111
C 20.87523 14.85229 -0.03557
C 20.82698 13.47409 0.03754
C 19.64306 12.75688 0.01739
C 19.60146 11.34071 0.00755
C 20.83816 10.65297 -0.0054
C 20.83645 9.2533 0.00667
C 19.65432 8.52117 0.00143
C 19.60835 19.90825 0.02691
C 3.66872 31.98894 -0.02419
C 23.27274 10.63306 0.01852
C 22.05079 8.47638 0.03046
C 24.58555 11.27435 -0.00285
C 25.80699 10.55241 -0.009
C 25.92263 9.07698 -0.01199
C 24.60856 8.49646 -0.00229
C 24.69387 7.07239 -0.00938
C 25.91475 6.36823 -0.0264
C 25.93836 4.96345 -0.01154
C 24.55961 4.31334 0.00684
C 24.49046 2.87936 -0.01052
C 25.77441 2.11009 -0.01679
C 25.75342 0.76697 0.00367
C 24.5386 12.73963 0.01423
C 24.54681 0.04587 0.04306
C 28.35256 32.09773 0.00195
C 28.40851 30.61064 -0.00802
C 27.12461 29.94036 -0.00218
C 27.08103 28.49666 -0.01654
C 28.24661 27.79397 -0.00037
C 28.35404 26.37541 -0.0032
C 27.11728 25.70284 0.00622
C 26.98671 24.24524 -0.02815
C 28.20315 23.41745 -0.00942
C 28.27683 21.95308 0.00487
C 26.94593 21.16657 0.00826
C 27.05282 32.79256 0.00996
C 23.31969 9.19248 -0.00381
C 25.74889 13.37566 0.02555
C 24.53094 15.59206 0.00135
C 22.12276 7.05617 0.0296
C 23.34634 6.37904 0.03374
C 23.33582 4.99599 -0.02845
C 22.08491 4.30371 -0.03213
C 22.03043 2.82885 0.02239
C 23.3142 2.11263 0.01153
C 23.31761 0.66292 0.02734
C 22.0966 0.03882 -0.0055
C 24.56662 32.71785 0.01515
C 25.81968 32.07958 -0.00225
C 25.87152 30.60879 0.00071
C 25.79048 14.85694 0.03102
C 24.60393 29.87 -0.01107
C 25.82045 27.71867 -0.01971
C 25.88014 26.35564 -0.02118
C 24.57661 25.57253 0.00733
C 24.61501 24.14659 -0.00178
C 25.82137 23.52814 0.00768
C 25.8535 22.03802 -0.0276
C 24.62359 21.30905 0.03005
C 24.51736 19.87575 -0.04078
C 25.7608 19.1266 0.02117
C 25.76037 17.66399 0.02737
C 24.55393 17.01009 -0.00498
C 24.48656 28.46582 -0.01586
C 2.4408 32.71518 0.02438
