404
Graphene
C 0.02642 34.05679 0.01295
C 13.53352 26.23936 -0.01046
C 12.25547 25.64868 -0.00891
C 12.27775 24.2211 0.02819
C 13.52539 23.45751 0.00165
C 13.56069 22.01974 -0.02971
C 12.32086 21.36026 0.02894
C 12.29738 19.87866 -0.01789
C 13.44696 19.07604 0.00444
C 13.48923 17.63679 -0.00925
C 12.26735 16.98989 0.01877
C 12.36226 15.59606 0.01363
C 13.60657 14.87616 -0.02162
C 13.63212 13.43823 0.00415
C 12.35592 12.81665 -0.0014
C 12.27144 11.38527 0.02162
C 13.49071 10.61491 0.0076
C 13.48912 9.13544 0.01241
C 12.24732 8.43971 -0.01454
C 12.31311 7.0256 0.01945
C 13.56812 6.35408 0.01416
C 13.48664 5.01068 0.03542
C 13.49842 27.69676 -0.02689
C 12.21775 4.28118 0.02299
C 12.21979 28.52573 -0.01536
C 13.56091 30.58592 -0.00428
C 11.05035 19.19328 0.00057
C 11.0944 17.75733 -0.01634
C 9.85023 17.07042 -0.00334
C 9.84253 15.6329 0.02339
C 11.12654 14.9425 0.01641
C 11.12911 13.54928 -0.00719
C 9.90206 12.88656 0.01364
C 9.7921 11.42004 -0.01062
C 11.04296 10.7353 -0.00033
C 11.0723 9.20836 0.03589
C 9.83414 8.55492 -0.02759
C 9.89861 7.10294 0.0402
C 11.12943 6.3434 0.00572
C 11.05358 4.92042 0.03592
C 9.8119 4.25629 0.00406
C 9.82594 2.86491 0.00943
C 11.05702 2.10258 0.02841
C 11.12631 0.73527 -0.01111
C 9.89493 34.04834 -0.01275
C 12.30716 32.69952 0.00985
C 13.53752 31.97815 -0.02245
C 12.25208 29.95524 0.03101
C 12.24366 2.85564 0.00244
C 13.49017 2.05787 -0.01717
C 13.55852 0.628 0.05265
C 16.00421 6.44782 -0.02815
C 15.97008 4.96783 -0.04147
C 14.70942 4.27951 -0.05302
C 14.70921 2.86444 0.00213
C 15.96832 2.16577 -0.00066
C 16.07715 0.70643 -0.00289
C 14.79552 34.01928 0.00028
C 17.23114 32.64727 -0.02213
C 18.48386 31.86417 0.03698
C 18.44254 30.47262 -0.00109
C 17.18891 29.77868 -0.00491
C 17.22075 28.33509 0.03338
C 18.49933 27.63831 -0.0258
C 18.45154 26.24377 -0.0331
C 17.17476 25.57882 -0.00316
C 17.16449 24.18944 0.02188
C 18.37567 23.5234 -0.01979
C 18.37621 22.05057 0.02691
C 17.16323 21.32578 -0.01581
C 17.19158 19.88942 0.01452
C 18.48381 19.21412 0.04892
C 14.77521 7.13301 0.03505
C 14.74893 8.50322 0.01443
C 16.00213 9.31924 0.00979
C 16.0079 10.68535 -0.00481
C 12.33847 0.02328 -0.01952
C 14.81146 32.62647 -0.02813
C 16.00194 31.92814 0.00374
C 16.01473 30.53229 0.00052
C 14.71348 29.82577 -0.03682
C 14.68887 28.42653 0.01965
C 15.89751 27.728 0.02058
C 15.93304 26.29453 -0.01957
C 14.75842 25.50703 -0.0108
C 14.74852 24.11939 -0.00368
C 9.82433 19.847 0.00093
C 15.95929 23.43763 -0.02696
C 14.73368 21.23763 0.00228
C 14.65493 19.81761 0.00798
C 15.97953 19.08979 0.00422
C 15.94027 17.72442 0.0351
C 14.73559 16.96592 -0.03113
C 14.81585 15.56202 0.02098
C 16.04643 14.94637 0.01848
C 16.00387 13.48632 -0.00619
C 14.80341 12.75081 -0.02162
C 14.74081 11.31965 0.00889
C 15.9437 21.99585 -0.00114
C 18.40716 17.75 -0.00111
C 9.85042 21.27022 0.01291
C 11.04981 23.4626 -0.00191
C 2.40396 0.07954 0.00643
C 6.06611 31.90152 -0.01509
C 6.09236 30.59236 0.03267
C 5.00211 28.48743 0.02374
C 6.12858 27.75198 0.00402
C 6.11942 26.30267 0.0073
C 4.94586 25.59298 0.0174
C 4.85049 24.21007 0.03828
C 6.05225 23.52843 0.01226
C 6.1335 22.04173 -0.00279
C 4.87282 21.31433 0.01996
C 4.92462 19.90016 -0.03996
C 6.1428 19.20011 0.01465
C 6.20209 17.76615 -0.00074
C 4.95537 17.02365 -0.00518
C 4.89249 15.58358 0.0086
C 6.20297 14.89448 -0.00643
C 6.16873 13.44018 0.017
C 4.87368 12.85084 -0.03113
C 4.8888 11.42041 -0.02566
C 6.11064 10.66972 -0.00094
C 3.66975 0.5927 0.00907
C 6.13121 9.25581 0.02322
C 3.69901 2.10277 0.02379
C 2.41924 4.18028 -0.003
C 3.69173 26.25118 0.00081
C 2.38506 25.6151 0.00245
C 2.38803 24.17595 0.02728
C 3.64895 23.49439 -0.00039
C 3.6965 22.07207 0.0064
C 2.46916 21.28315 0.00211
C 2.45163 19.79672 -0.00449
C 3.70358 19.17716 -0.01979
C 3.76427 17.7606 0.02784
C 2.48962 17.08612 -0.01977
C 2.45078 15.65909 -0.00561
C 3.65121 14.88357 0.00208
C 3.66417 13.47508 0.01707
C 2.45364 12.71655 0.02769
C 2.4008 11.37603 -0.03291
C 3.69418 10.69729 -0.04999
C 3.67246 9.27825 0.04505
C 2.4595 8.55261 0.03284
C 2.48696 7.10112 -0.04307
C 3.71528 6.41668 0.03189
C 3.6463 4.98432 0.00031
C 2.4534 2.73745 0.01402
C 4.8595 8.56014 -0.00725
C 4.90023 7.07775 -0.05697
C 6.07935 6.34805 0.01087
C 7.38214 11.36316 -0.04848
C 8.56906 10.71214 -0.00892
C 8.61976 9.25876 -0.01362
C 7.37525 8.50082 -0.0008
C 7.31506 7.08907 0.0288
C 8.60728 6.44325 0.00393
C 8.59638 5.02852 0.00895
C 7.39036 4.25232 0.00685
C 7.37227 2.86312 0.02888
C 8.6198 2.12966 -0.00482
C 8.64318 0.74238 -0.01384
C 7.36215 0.02635 0.03693
C 9.91159 32.74199 0.01745
C 11.12472 32.016 0.00488
C 11.08606 30.66945 -0.01004
C 9.85417 29.89184 -0.02896
C 9.82091 28.50772 -0.00131
C 10.96552 27.80921 -0.01118
C 11.03241 26.33066 -0.014
C 9.75969 25.60116 0.02147
C 9.79434 24.17284 0.00373
C 7.40755 12.74183 0.01572
C 8.59745 13.54978 -0.00095
C 8.58833 14.98047 0.03007
C 7.37252 15.66996 0.00054
C 6.11493 4.95427 -0.01343
C 4.87104 4.3018 0.00988
C 4.90385 2.86162 0.0276
C 6.11997 2.14118 0.01305
C 6.10971 0.69598 -0.00077
C 4.95581 0.09165 0.03368
C 7.28116 32.70079 -0.02929
C 8.62627 31.99174 -0.00966
C 8.62504 30.58361 -0.03337
C 7.35595 29.84323 0.01227
C 11.00762 22.03241 0.00438
C 7.41317 28.38336 0.00873
C 8.54859 26.32209 0.00848
C 7.28487 25.58059 -0.01303
C 7.29776 24.12679 -0.01378
C 8.5495 23.46388 0.02635
C 8.58502 21.99086 0.0127
C 7.33313 21.38506 0.01396
C 7.36458 19.89773 0.01849
C 8.58739 19.15493 -0.01142
C 8.63948 17.76639 -0.00562
C 7.40751 17.09244 -0.00494
C 8.63986 27.77343 -0.00049
C 17.24288 17.10046 -0.03557
C 17.24563 15.65736 0.03754
C 18.46942 14.93482 0.01739
C 30.77488 10.73574 -0.00971
C 30.57371 9.38125 0.01518
C 29.60304 8.38251 0.01908
C 29.56389 7.10721 0.07705
C 30.80747 6.37023 0.0103
C 30.76283 4.9528 0.02108
C 29.51377 4.26579 0.00716
C 29.5001 2.82507 0.00307
C 30.73838 2.1119 0.00346
C 30.73736 0.68522 0.01713
C 29.49116 34.06341 -0.01694
C 32.03593 32.64762 0.01428
C 33.26904 31.88703 -0.02142
C 33.26236 30.44538 0.0544
C 31.98865 29.82291 0.00026
C 31.99996 28.44858 0.00682
C 33.19411 27.71192 -0.01779
C 33.16297 26.22816 0.03794
C 31.96297 25.51393 0.01927
C 31.9273 24.1059 0.01574
C 33.13765 23.43828 -0.02383
C 30.71496 13.40908 -0.03735
C 33.11985 22.01821 -0.01429
C 30.63919 14.87688 -0.00944
C 29.49908 17.04786 -0.01461
C 26.96226 6.93565 0.01699
C 28.26969 6.38402 -0.00416
C 28.4115 5.01263 0.01177
C 28.35035 2.07042 0.04266
C 28.28353 0.68589 0.01324
C 27.04485 34.03378 0.0014
C 29.5143 32.65745 0.00924
C 30.74215 31.97439 0.02326
C 30.76375 30.5394 0.00261
C 29.49473 29.85649 0.03265
C 29.51431 28.47646 -0.02049
C 30.75193 27.74012 -0.01854
C 30.81511 26.29071 -0.01415
C 29.48151 25.57491 -0.03039
C 29.49388 24.18711 0.01836
C 30.72695 23.41816 0.03531
C 30.75151 22.00531 -0.00669
C 29.56726 21.2715 0.0101
C 29.46184 19.83908 0.01705
C 30.65749 19.15278 -0.0405
C 30.74685 17.78518 -0.01303
C 29.62206 15.72468 -0.02155
C 31.93558 21.24872 -0.0136
C 31.9576 19.825 0.00594
C 33.15296 19.13906 -0.02474
C 1.28466 21.99672 0.02712
C 34.36436 21.31678 -0.02213
C 34.3655 19.87695 0.01951
C 1.16033 19.11254 -0.01678
C 1.17736 17.72528 0.01223
C 34.37889 17.05355 0.00648
C 34.42105 15.59928 0.02114
C 1.21113 14.95542 -0.02957
C 1.23058 13.47955 0.00343
C 34.39248 12.78373 -0.02656
C 34.33773 11.29589 -0.02442
C 1.17055 10.64519 -0.00027
C 1.19334 9.25842 -0.00583
C 0.02267 8.48872 -0.02302
C 34.37493 7.08142 -0.02849
C 1.23744 6.43543 0.02931
C 1.22933 5.01517 0.00628
C 0.00334 4.32827 -0.0345
C 34.37617 2.88105 -0.00931
C 1.12233 2.13134 -0.00939
C 1.20832 0.74172 -0.00468
C 1.23962 23.42598 0.00723
C 0.01155 24.14403 0.03076
C 34.39026 25.53359 -0.05239
C 1.14951 26.26281 -0.00598
C 33.17344 17.78299 0.00369
C 31.95003 17.09766 0.00455
C 31.95372 15.59466 -0.00644
C 33.21416 14.84015 -0.01839
C 33.16968 13.48594 0.00137
C 31.9097 12.79829 0.00199
C 31.94307 11.35037 0.04381
C 33.08647 10.5937 0.02806
C 33.19091 9.14612 0.01504
C 31.93856 8.53564 -0.00069
C 26.98948 16.96625 0.01799
C 31.92908 7.14226 0.04926
C 33.17415 4.94005 0.00349
C 31.99894 4.25391 -0.00323
C 31.99647 2.84616 -0.00841
C 33.18662 2.08267 0.0001
C 33.20994 0.65117 -0.02927
C 31.97401 34.03475 -0.01404
C 34.36653 32.68131 0.01027
C 0.05835 29.75906 0.01831
C 0.02 28.3666 -0.01037
C 1.23896 27.72814 -0.00439
C 33.11271 6.39415 -0.03838
C 28.18411 17.63127 0.01259
C 28.22613 19.10528 0.01495
C 27.01814 19.89671 0.00235
C 19.71651 19.91608 0.01087
C 20.91746 19.14471 0.00199
C 20.81503 17.70429 0.01511
C 19.58055 16.95289 -0.00478
C 19.67942 15.58674 -0.01662
C 19.59628 12.57294 -0.01185
C 19.73145 11.4329 0.01126
C 19.68178 8.46151 0.01852
C 19.7094 7.10497 -0.00381
C 20.99627 6.36432 0.03046
C 20.89544 4.89675 0.0296
C 19.65507 4.24029 0.03374
C 19.63163 2.83057 -0.02845
C 20.98624 2.11291 -0.03213
C 20.96693 0.57836 0.02239
C 19.71161 34.06125 0.01153
C 22.15364 32.60638 0.02734
C 23.38966 31.96691 -0.0055
C 23.40017 30.53321 0.01515
C 22.16029 29.84481 -0.00225
C 22.14014 28.40917 0.00071
C 19.65434 21.31424 -0.01527
C 20.92428 22.03245 0.00096
C 20.91631 23.43175 0.01277
C 19.74149 24.14303 -0.02422
C 18.52797 13.4916 0.00755
C 17.24223 12.7657 -0.0054
C 17.27633 11.331 0.00667
C 18.5389 10.68404 0.00143
C 18.48585 9.26073 -0.017
C 17.18286 8.55768 0.00364
C 17.19701 7.17793 -0.00831
C 18.42348 6.41968 -0.02957
C 18.43743 4.98764 -0.04422
C 17.22194 4.22511 0.00654
C 23.33653 27.77692 -0.01107
C 17.18299 2.87274 -0.00703
C 18.48671 0.72608 -0.00652
C 17.32192 0.03504 0.0058
C 19.66657 32.63486 -0.00865
C 20.85815 31.88795 0.00675
C 20.9296 30.50984 -0.00311
C 19.71782 29.78854 0.00742
C 19.74397 28.4448 -0.01594
C 20.96248 27.67775 0.0106
C 20.92086 26.23626 -0.01154
C 19.71851 25.54263 -0.01721
C 18.38438 2.15797 -0.04076
C 3.68058 27.80782 -0.02805
C 23.31548 26.31362 -0.01586
C 22.14998 24.14281 -0.02118
C 24.59721 21.25876 0.00195
C 24.50636 19.8168 -0.00802
C 25.75644 19.16782 -0.00218
C 25.75674 17.66505 -0.01654
C 24.54708 17.04578 -0.00037
C 25.80016 6.64217 -0.0032
C 24.59015 2.86066 0.00622
C 25.8335 0.65277 -0.02815
C 24.62146 0.01534 -0.00942
C 27.08673 32.59602 0.00487
C 28.31421 31.88962 0.00826
C 28.29144 30.49649 -0.00294
C 27.05492 29.88137 0.00152
C 27.11706 28.41062 0.01257
C 28.33961 27.70064 0.02316
C 28.22397 26.24021 0.04185
C 26.99605 25.53765 0.00194
C 27.02176 24.14174 -0.00621
C 28.24717 23.44801 0.02611
C 28.35252 22.03263 0.02198
C 27.08727 21.34041 0.01094
C 25.89362 22.03109 0.00996
C 25.77729 23.42856 0.04306
C 24.56025 24.08332 0.00367
C 24.47029 25.55408 -0.01679
C 23.33957 23.37159 0.00733
C 23.32527 21.99575 -0.00178
C 22.12627 21.24269 0.00768
C 22.1163 19.80641 -0.0276
C 23.2919 19.11484 0.03005
C 23.33908 17.6405 -0.04078
C 22.03761 17.05646 0.02117
C 22.24867 7.09667 0.02737
C 23.4247 6.38222 -0.00498
C 23.25039 5.12154 0.00135
C 22.11453 25.52637 -0.01971
C 22.17761 4.25982 0.03102
C 23.45274 2.14274 0.01423
C 23.35978 0.67176 -0.00285
C 22.19759 33.98588 -0.009
C 24.57926 32.71698 -0.01199
C 25.87874 31.92875 -0.00229
C 25.79866 30.55569 -0.00938
C 24.65463 29.84832 -0.0264
C 24.59665 28.38747 -0.01154
C 25.88021 27.63431 0.00684
C 25.80286 26.25196 -0.01052
C 22.19339 2.85721 0.02555
C 2.3695 28.35185 -0.01386
