436
Graphene
C 0.08146 33.94893 0.01295
C 13.46183 9.32029 0.02339
C 12.26494 8.54432 0.01641
C 12.29507 7.1452 -0.00719
C 13.44618 6.41008 0.01364
C 13.47232 4.94804 -0.01062
C 12.20601 4.27762 -0.00033
C 12.28427 2.92223 0.03589
C 13.51352 2.15963 -0.02759
C 13.51386 0.77635 0.0402
C 12.27156 0.0242 0.00572
C 14.72771 32.70238 0.03592
C 15.93997 31.92819 0.00406
C 15.90729 30.48937 0.00943
C 14.69011 29.80918 0.02841
C 14.7447 28.30632 -0.01111
C 15.91468 27.73643 -0.01275
C 15.95438 26.34038 0.00985
C 14.73964 25.65956 -0.02245
C 14.61533 24.24922 -0.00428
C 15.97457 23.47054 0.03101
C 15.85925 21.96901 -0.01536
C 14.58978 21.30414 -0.02689
C 14.67963 19.87792 -0.01046
C 13.53125 10.69351 -0.00334
C 15.88455 19.13835 -0.00891
C 12.20682 11.47489 -0.01634
C 13.50455 13.59793 0.00093
C 9.79537 4.30414 -0.00892
C 9.85604 2.87585 -0.01362
C 11.05168 2.13813 -0.0008
C 11.10432 0.69155 0.0288
C 9.90203 0.03776 0.00393
C 12.30223 32.70069 0.00895
C 13.5271 31.93632 0.00685
C 13.41903 30.55734 0.02888
C 12.18811 29.86036 -0.00482
C 12.20841 28.39794 -0.01384
C 13.41665 27.76626 0.03693
C 13.43582 26.35891 0.01745
C 12.20151 25.5946 0.00488
C 12.17902 24.22857 -0.01004
C 13.50345 23.51747 -0.02896
C 13.42918 22.12176 -0.00131
C 12.17814 21.32581 -0.01118
C 12.25044 19.91475 -0.014
C 13.48202 19.18827 0.02147
C 13.54338 17.74405 0.00373
C 12.29587 17.09252 -0.00191
C 12.26726 15.7206 0.00438
C 13.47818 14.98947 0.01291
C 12.25097 12.88315 0.00057
C 15.91831 17.77295 0.02819
C 14.71687 16.99715 0.00165
C 14.70092 15.57952 -0.02971
C 18.43677 19.16287 -0.0108
C 18.33625 17.70448 -0.00368
C 17.19682 17.0615 -0.02696
C 17.1675 15.58453 -0.00114
C 18.39356 14.86694 0.00228
C 18.41693 13.52328 0.00798
C 17.20116 12.81265 0.00422
C 17.25911 11.38946 0.0351
C 18.45959 10.67933 -0.03113
C 18.33673 9.24697 0.02098
C 17.12722 8.48776 0.01848
C 17.20439 7.11121 -0.00619
C 18.46369 6.41287 -0.02162
C 18.4426 4.97496 0.00889
C 17.13797 4.29136 -0.00481
C 17.12539 2.87438 0.00979
C 18.33173 2.1718 0.01443
C 18.38569 0.74106 0.03505
C 17.20306 34.0323 -0.02815
C 19.66299 32.62861 -0.04147
C 20.84036 31.93153 -0.05302
C 20.87194 30.56445 0.00213
C 19.68432 29.84363 -0.00066
C 17.24665 19.89681 -0.01957
C 17.19832 21.317 0.02058
C 18.39089 22.00399 0.01965
C 18.44307 23.43601 -0.03682
C 15.92076 14.89372 0.02894
C 15.95937 13.49076 -0.01789
C 14.70832 12.87067 0.00444
C 14.75651 11.44343 -0.00925
C 15.91448 10.67357 0.01877
C 15.87965 9.24544 0.01363
C 14.74528 8.50623 -0.02162
C 14.74373 7.12266 0.00415
C 15.96514 6.42382 -0.0014
C 15.92336 5.08878 0.02162
C 14.78599 4.31435 0.0076
C 11.01026 5.00761 -0.04848
C 14.74305 2.87334 0.01241
C 16.01501 0.63463 0.01945
C 14.73539 0.08041 0.01416
C 17.16168 32.65227 0.03542
C 18.42158 31.94979 0.02299
C 18.42512 30.47108 0.00244
C 17.16788 29.86397 -0.01717
C 17.13472 28.39901 0.05265
C 18.39125 27.67161 -0.01952
C 18.43207 26.26931 -0.02813
C 17.1973 25.57786 0.00374
C 17.17125 24.06366 0.00052
C 15.93785 2.09237 -0.01454
C 19.68641 28.33387 -0.00289
C 11.04359 6.37715 0.01572
C 9.7823 8.58821 0.03007
C 4.06528 25.46246 -0.02375
C 4.65651 24.19615 0.00558
C 6.00106 23.55473 -0.0059
C 6.08176 22.1114 -0.01386
C 4.88043 21.32472 -0.02805
C 4.83887 20.01664 0.00081
C 6.01885 19.23769 0.00245
C 6.11795 17.80449 0.02728
C 4.85186 17.03681 -0.00039
C 4.8722 15.62438 0.0064
C 6.14624 14.95253 0.00211
C 6.09659 13.49042 -0.00449
C 4.85075 12.80422 -0.01979
C 4.81596 11.41542 0.02784
C 6.04379 10.65187 -0.01977
C 6.07755 9.27925 -0.00561
C 4.89111 8.53788 0.00208
C 4.87161 7.13273 0.01707
C 6.16757 6.52722 0.02769
C 6.14558 5.01344 -0.03291
C 4.90909 4.32511 -0.04999
C 4.9526 2.87534 0.04505
C 6.08158 2.09171 0.03284
C 6.32328 32.09352 0.00828
C 6.06693 0.71759 -0.04307
C 4.98295 32.51521 0.00088
C 3.73674 0.60371 -0.00177
C 2.82744 25.57453 0.01984
C 2.41512 24.18925 0.00535
C 3.50289 23.33291 -0.00198
C 3.53212 21.93663 -0.00012
C 2.38288 21.27427 -0.04306
C 2.38529 19.85892 -0.03672
C 3.60886 19.16927 0.01913
C 3.6866 17.69974 0.00267
C 2.34221 17.02347 0.00787
C 2.30563 15.54762 0.02426
C 3.63574 14.81936 0.01218
C 3.62723 13.52299 -0.01471
C 2.41689 12.72422 -0.02827
C 2.40848 11.30813 0.01078
C 3.65547 10.67709 -0.00112
C 3.59815 9.16778 0.03345
C 2.33275 8.46209 0.00748
C 2.46662 7.04035 0.00662
C 3.67323 6.42991 -0.0154
C 3.64333 4.95087 -0.01299
C 2.4649 4.17575 -0.00407
C 2.47528 2.74871 0.01138
C 3.77145 2.10573 0.03278
C 2.45134 34.06867 0.04421
C 4.9336 33.99093 0.03189
C 7.45527 32.84238 0.00031
C 8.68403 32.02116 -0.003
C 9.89668 32.75452 -0.01343
C 11.10755 32.01906 0.00988
C 11.05313 30.62023 0.0276
C 9.79932 29.87302 0.01305
C 9.71507 28.408 -0.00077
C 10.98847 27.69578 0.03368
C 10.90567 26.33248 -0.02929
C 9.66012 25.81108 -0.00966
C 9.61221 24.33763 -0.03337
C 10.88677 23.58333 0.01227
C 10.97358 22.11945 0.00873
C 9.78999 21.3479 -0.00049
C 9.72436 19.97294 0.00848
C 10.92241 19.25375 -0.01303
C 11.04085 17.81024 -0.01378
C 9.8553 17.05903 0.02635
C 9.7916 15.72519 0.0127
C 10.97241 14.94753 0.01396
C 11.02889 13.4939 0.01849
C 9.79249 12.80503 -0.01142
C 9.77579 11.359 -0.00562
C 11.04934 10.69779 -0.00494
C 11.03576 9.25173 0.00054
C 7.41888 0.1885 0.01087
C 8.60912 0.82518 -0.05697
C 8.66464 2.23406 -0.00725
C 7.43895 2.91576 0.02322
C 8.63465 30.57838 0.01402
C 8.47158 27.94588 0.02379
C 8.38525 26.47436 0.00907
C 7.25087 25.79585 0.00643
C 7.21141 24.31038 -0.01509
C 8.45898 23.59644 0.03267
C 8.54473 22.10829 0.02374
C 7.30453 21.39884 0.00402
C 7.26964 20.0173 0.0073
C 8.50662 19.26565 0.0174
C 8.55857 17.86145 0.03828
C 9.86035 7.20336 -0.00095
C 7.32393 17.07282 0.01226
C 8.59887 14.95611 0.01996
C 8.48502 13.57488 -0.03996
C 7.30086 12.79882 0.01465
C 7.2525 11.33702 -0.00074
C 8.56242 10.66033 -0.00518
C 8.58182 9.28557 0.0086
C 7.36463 8.55776 -0.00643
C 7.34509 7.16351 0.017
C 8.61456 6.5206 -0.03113
C 8.58534 5.05247 -0.02566
C 7.33369 4.30245 -0.00094
C 7.24452 15.70891 -0.00279
C 20.88856 27.74908 0.00028
C 20.83804 26.32673 -0.02213
C 19.65377 25.57158 0.03698
C 30.73141 14.90657 -0.0405
C 30.69961 13.41025 -0.01303
C 29.4497 12.70573 -0.01461
C 29.53074 11.34609 -0.02155
C 30.7085 10.54685 -0.00944
C 30.6648 9.12401 -0.03735
C 29.46122 8.36377 -0.00971
C 29.50836 6.96392 0.01518
C 30.68552 6.24285 0.01908
C 30.72298 4.82603 0.07705
C 29.53849 4.08873 0.0103
C 29.50135 2.79266 0.02108
C 30.71508 2.09526 0.00716
C 30.76303 0.67984 0.00307
C 29.49372 0.00519 0.00346
C 32.02868 32.60087 0.01713
C 33.26258 31.93462 -0.01694
C 33.25198 30.46752 0.01428
C 31.98963 29.8281 -0.02142
C 32.03517 28.38188 0.0544
C 33.30743 27.66682 0.00026
C 33.31283 26.24957 0.00682
C 32.11336 25.55379 -0.01779
C 29.47575 15.58097 0.01705
C 31.98053 24.17561 0.03794
C 29.43079 16.9877 0.0101
C 30.69958 19.12699 0.03531
C 28.27201 9.17966 -0.00621
C 27.05778 8.43329 0.02611
C 27.03168 6.99689 0.02198
C 28.23525 6.23178 0.01094
C 28.27365 4.87572 0.00235
C 26.96808 4.17203 0.01495
C 26.99705 2.7667 0.01259
C 28.21812 2.09001 0.01799
C 28.25155 0.6972 0.01699
C 27.02645 34.02972 -0.00416
C 29.52762 32.64572 0.01177
C 30.81589 31.89742 0.04266
C 30.74045 30.57602 0.01324
C 29.49434 29.84109 0.0014
C 29.48432 28.46097 0.00924
C 30.77981 27.7301 0.02326
C 30.77143 26.2759 0.00261
C 29.54749 25.61584 0.03265
C 29.51429 24.19697 -0.02049
C 30.70891 23.47966 -0.01854
C 30.63085 22.09689 -0.01415
C 29.4892 21.29777 -0.03039
C 29.52732 19.78874 0.01836
C 30.64542 17.69137 -0.00669
C 33.21707 23.45497 0.01927
C 33.0967 22.02181 0.01574
C 31.87266 21.29702 -0.02383
C 0.01772 24.17513 0.03076
C 1.19978 23.49805 0.00723
C 1.19101 22.01951 0.02712
C 34.42142 21.33591 -0.02213
C 0.02029 19.86315 0.01951
C 1.24506 19.13997 -0.01678
C 1.15655 17.65927 0.01223
C 34.37119 17.04798 0.00648
C 34.31797 15.56982 0.02114
C 1.13301 14.85135 -0.02957
C 1.21806 13.45799 0.00343
C 34.35583 12.67446 -0.02656
C 0.02618 11.24198 -0.02442
C 1.20721 10.5546 -0.00027
C 1.11777 9.19269 -0.00583
C 34.40148 8.48713 -0.02302
C 34.34043 6.99438 -0.02849
C 1.12897 6.32791 0.02931
C 1.16022 4.87662 0.00628
C 34.41572 4.1063 -0.0345
C 0.01624 2.74594 -0.00931
C 1.24935 2.12047 -0.00939
C 1.23877 0.68521 -0.00468
C 0.18071 25.60868 -0.05239
C 1.57076 26.36944 -0.00598
C 1.29908 27.78251 -0.00439
C 0.08162 28.36483 -0.01037
C 31.97057 19.88517 -0.01429
C 33.23677 19.22698 -0.0136
C 33.13162 17.77091 0.00594
C 31.90008 16.99184 -0.02474
C 31.92093 15.61735 0.00369
C 33.11697 14.84863 0.00455
C 33.18012 13.39904 -0.00644
C 31.8996 12.76201 -0.01839
C 31.88799 11.30355 0.00137
C 33.13646 10.52198 0.00199
C 33.09775 9.14841 0.04381
C 28.23903 10.58605 0.00194
C 31.86153 8.36023 0.02806
C 33.13876 6.2284 -0.00069
C 33.15113 4.88823 0.04926
C 31.98539 4.13591 -0.03838
C 31.92656 2.71763 0.00349
C 33.13146 2.04149 -0.00323
C 33.24119 0.63789 -0.00841
C 32.07181 34.06977 0.0001
C 0.11914 32.55417 -0.02927
C 1.34963 31.84005 -0.01404
C 1.33212 30.4621 0.01027
C 0.05383 29.74687 0.01831
C 31.90507 6.9095 0.01504
C 27.06986 11.30733 0.04185
C 26.97132 12.76978 0.02316
C 28.24143 13.39045 0.01257
C 22.07943 28.43577 -0.00652
C 23.30557 27.714 0.0058
C 23.28569 26.39295 -0.00865
C 22.0526 25.65727 0.00675
C 22.11405 24.20813 -0.00311
C 23.35853 23.45184 0.00742
C 23.29862 22.09537 -0.01594
C 22.05336 21.36541 0.0106
C 22.07617 19.8749 -0.01154
C 23.30568 19.20775 -0.01721
C 23.323 17.76216 -0.02422
C 22.14308 17.04484 0.01277
C 22.1276 15.64915 0.00096
C 23.43341 14.86922 -0.01527
C 23.28786 13.47812 0.01087
C 22.10646 12.79073 0.00199
C 22.15823 11.43663 0.01511
C 23.3068 10.65094 -0.00478
C 23.35509 9.27448 -0.01662
C 21.97883 8.4387 -0.01185
C 22.09405 7.01867 0.01126
C 23.30102 6.41493 0.01852
C 23.39519 5.03359 -0.00381
C 22.12534 29.82886 -0.04076
C 23.34501 30.44133 -0.00703
C 23.31465 31.90242 0.00654
C 22.08216 32.67728 -0.04422
C 19.61241 24.1693 -0.00109
C 21.00567 23.52693 -0.00491
C 20.8898 22.04987 0.03338
C 19.7187 21.282 -0.0258
C 19.66191 19.91294 -0.0331
C 20.84751 19.14966 -0.00316
C 20.78787 17.76463 0.02188
C 19.55057 17.12162 -0.01979
C 19.58635 15.66196 0.02691
C 20.81449 14.98926 -0.01581
C 20.87787 13.44014 0.01452
C 22.12673 4.31529 0.03046
C 19.65293 12.81319 0.04892
C 20.81003 10.58607 -0.03557
C 20.83281 9.20744 0.03754
C 19.60553 8.57257 0.01739
C 19.63922 7.15655 0.00755
C 20.86796 6.399 -0.0054
C 20.85667 5.00561 0.00667
C 19.62416 4.26755 0.00143
C 19.54068 2.78453 -0.017
C 20.84943 2.14624 0.00364
C 20.84454 0.75074 -0.00831
C 19.68539 0.0827 -0.02957
C 19.67115 11.36371 -0.00111
C 3.78287 31.88706 0.01073
C 22.12073 2.8752 0.0296
C 23.34018 0.77222 -0.02845
C 24.56097 4.27492 -0.00229
C 24.52422 2.82822 -0.00938
C 25.71903 2.11908 -0.0264
C 25.80495 0.78365 -0.01154
C 24.56474 0.05172 0.00684
C 26.97383 32.60581 -0.01052
C 28.3337 31.91075 -0.01679
C 28.20865 30.57361 0.00367
C 27.04513 29.88626 0.04306
C 26.93745 28.44813 0.00996
C 28.22045 27.73918 0.00195
C 28.23356 26.29642 -0.00802
C 27.00463 25.55241 -0.00218
C 27.06862 24.17851 -0.01654
C 28.23812 23.51343 -0.00037
C 28.21844 21.97773 -0.0032
C 26.95375 21.3598 0.00622
C 26.99732 19.96463 -0.02815
C 28.27504 19.23084 -0.00942
C 28.22017 17.77933 0.00487
C 26.98957 17.1452 0.00826
C 27.03194 15.64097 -0.00294
C 28.2165 14.85784 0.00152
C 25.83482 4.94226 -0.01199
C 25.77225 6.38874 -0.009
C 24.58745 7.0987 -0.00285
C 24.59865 8.50918 0.01423
C 22.04288 34.07841 -0.03213
C 24.48916 32.64226 0.02239
C 25.78166 32.02383 0.01153
C 25.79366 30.53243 0.02734
C 24.60276 29.79917 -0.0055
C 24.53639 28.43689 0.01515
C 25.77104 27.65501 -0.00225
C 25.79886 26.24596 0.00071
C 24.51872 25.58418 -0.01107
C 24.52655 24.1987 -0.01586
C 25.79447 23.57391 -0.01971
C 23.23529 2.15318 0.03374
C 25.69673 22.06946 -0.02118
C 24.56504 19.82553 -0.00178
C 25.75368 19.15236 0.00768
C 25.77862 17.80874 -0.0276
C 24.5913 17.02164 0.03005
C 24.66075 15.69637 -0.04078
C 25.83323 14.99292 0.02117
C 25.7998 13.55456 0.02737
C 24.54917 12.79503 -0.00498
C 24.51127 11.31429 0.00135
C 25.84734 10.64913 0.03102
C 25.81166 9.14356 0.02555
C 24.4925 21.30435 0.00733
C 2.50318 32.65086 -0.00018
