378
Graphene
C 34.37912 34.05986 0.01295
C 11.04986 6.39636 0.01416
C 11.01923 4.95367 0.03542
C 9.85089 4.28107 0.02299
C 9.80887 2.85949 0.00244
C 11.05631 2.20579 -0.01717
C 11.00725 0.76221 0.05265
C 9.73337 0.08131 -0.01952
C 12.22449 32.69218 -0.02813
C 13.43071 31.96664 0.00374
C 13.46157 30.53096 0.00052
C 12.30038 29.83199 -0.03682
C 12.29303 28.41512 0.01965
C 13.52717 27.70697 0.02058
C 13.56061 26.26383 -0.01957
C 12.2948 25.60437 -0.0108
C 12.27835 24.18254 -0.00368
C 13.50719 23.44717 -0.02696
C 13.48335 22.06345 -0.00114
C 12.33901 21.33686 0.00228
C 9.80408 7.16136 0.01945
C 9.80801 8.58152 -0.01454
C 11.04834 9.26773 0.01241
C 11.09008 10.664 0.0076
C 11.04399 31.94924 -0.02245
C 11.06414 30.55528 -0.00428
C 9.86026 29.92989 0.03101
C 9.86393 28.48708 -0.01536
C 11.06747 27.73409 -0.02689
C 11.10055 26.34436 -0.01046
C 9.86901 25.65882 -0.00891
C 9.82101 24.189 0.02819
C 11.06712 23.47659 0.00165
C 12.38435 19.88226 0.00798
C 11.07059 22.05636 -0.02971
C 9.87553 19.99552 -0.01789
C 11.16003 19.1416 0.00444
C 11.11882 17.68704 -0.00925
C 9.86965 17.00079 0.01877
C 9.91132 15.59095 0.01363
C 11.15164 14.92981 -0.02162
C 11.12413 13.49195 0.00415
C 9.87052 12.79851 -0.0014
C 9.85812 11.37391 0.02162
C 9.84495 21.366 0.02894
C 9.83388 32.75249 0.00985
C 13.5771 19.2153 0.00422
C 12.364 17.01174 -0.03113
C 14.74375 24.09093 0.02188
C 15.98452 23.35139 -0.01979
C 15.98444 21.98359 0.02691
C 14.74442 21.29251 -0.01581
C 14.81215 19.82873 0.01452
C 16.02096 19.1954 0.04892
C 16.04168 17.83959 -0.00111
C 14.77838 17.10834 -0.03557
C 15.052 15.72403 0.03754
C 14.64705 12.56308 0.01739
C 14.71392 11.39356 0.00755
C 14.68782 8.48665 -0.0054
C 14.81555 7.12681 0.00667
C 15.81045 6.23745 0.00143
C 16.05992 4.88252 -0.017
C 14.71712 4.24489 0.00364
C 14.76143 2.80654 -0.00831
C 15.93354 2.05128 -0.02957
C 15.94737 0.64004 -0.04422
C 14.77022 25.52697 -0.00316
C 16.02158 26.19743 -0.0331
C 16.06422 27.6193 -0.0258
C 14.80016 28.36197 0.03338
C 12.4451 15.65741 0.02098
C 13.78719 15.02179 0.01848
C 13.63384 13.64244 -0.00619
C 12.39977 12.77587 -0.02162
C 12.3882 11.31669 0.00889
C 13.56336 10.54398 -0.00481
C 13.48083 9.16198 0.00979
C 12.29627 8.54887 0.01443
C 12.30634 7.05137 0.03505
C 13.59999 17.77338 0.0351
C 13.59009 6.35406 -0.02815
C 12.28923 4.28906 -0.05302
C 12.26458 2.85398 0.00213
C 13.49265 2.12252 -0.00066
C 13.46042 0.67403 -0.00289
C 12.23824 0.01871 0.00028
C 14.70098 32.6159 -0.02213
C 15.94138 31.96432 0.03698
C 16.01271 30.50886 -0.00109
C 14.77337 29.79688 -0.00491
C 13.54879 4.97771 -0.04147
C 7.32005 0.11272 -0.01275
C 8.54414 0.78613 -0.01111
C 8.55335 2.18094 0.02841
C 3.65844 4.98985 -0.01343
C 2.4055 4.24741 0.00988
C 2.3784 2.83639 0.0276
C 3.63852 2.13846 0.01305
C 3.58779 0.74899 -0.00077
C 2.37567 34.06811 0.03368
C 4.8632 32.71042 -0.02929
C 6.04555 32.04166 -0.00966
C 6.18176 30.55669 -0.03337
C 4.9359 29.83141 0.01227
C 4.92573 28.4247 0.00873
C 6.14882 27.73433 -0.00049
C 6.15032 26.31022 0.00848
C 4.93254 25.61706 -0.01303
C 4.83109 24.17609 -0.01378
C 6.14546 23.43735 0.02635
C 6.15249 22.00298 0.0127
C 4.90802 21.24965 0.01396
C 4.94032 19.87827 0.01849
C 3.62577 6.43162 0.01087
C 2.43118 7.16523 -0.05697
C 2.39951 8.58096 -0.00725
C 3.64089 9.28929 0.02322
C 3.66244 30.52145 -0.01509
C 2.43051 29.88492 0.03267
C 2.45646 28.47272 0.02374
C 3.67574 27.74089 0.00402
C 3.67429 26.34065 0.0073
C 2.47574 25.66559 0.0174
C 2.4002 24.1854 0.03828
C 3.61241 23.36295 0.01226
C 3.61261 22.00109 -0.00279
C 6.18471 19.1783 -0.01142
C 2.43462 21.38772 0.01996
C 3.71026 19.18144 0.01465
C 3.66955 17.77691 -0.00074
C 2.44312 17.11039 -0.00518
C 2.47788 15.74663 0.0086
C 3.6592 14.99582 -0.00643
C 3.73922 13.57295 0.017
C 2.45171 12.80353 -0.03113
C 2.43893 11.38749 -0.02566
C 3.6728 10.77314 -0.00094
C 2.41432 19.91107 -0.03996
C 6.16466 17.76234 -0.00562
C 4.93372 17.10495 -0.00494
C 4.89554 15.76194 0.00054
C 8.62496 23.48014 -0.00191
C 8.66267 22.0154 0.00438
C 7.39236 21.32478 0.01291
C 7.41819 19.89714 0.00093
C 8.65752 19.1473 0.00057
C 8.63746 17.73218 -0.01634
C 7.46123 17.04759 -0.00334
C 7.40308 15.64527 0.02339
C 8.63851 14.89415 0.01641
C 7.41978 24.19531 0.00373
C 8.62684 13.43923 -0.00719
C 7.3231 11.39357 -0.01062
C 8.54065 10.69183 -0.00033
C 8.5443 9.24914 0.03589
C 7.34153 8.58937 -0.02759
C 7.32559 7.15146 0.0402
C 8.57 6.43186 0.00572
C 8.51961 5.05204 0.03592
C 7.34814 4.28101 0.00406
C 7.36182 2.84907 0.00943
C 7.33015 12.75983 0.01364
C 14.69924 34.03308 0.00654
C 7.40133 25.64115 0.02147
C 8.68683 27.77485 -0.01118
C 6.09744 14.95547 0.03007
C 6.16461 13.49719 -0.00095
C 4.92129 12.82076 0.01572
C 4.8644 11.42054 -0.04848
C 6.11189 10.69612 -0.00892
C 6.10001 9.30464 -0.01362
C 4.9091 8.63337 -0.0008
C 4.86901 7.12909 0.0288
C 6.10656 6.44602 0.00393
C 8.57999 26.39449 -0.014
C 6.13977 5.00864 0.00895
C 4.86886 2.90539 0.02888
C 6.12688 2.23918 -0.00482
C 6.09208 0.7833 -0.01384
C 4.86494 0.04441 0.03693
C 7.25294 32.71177 0.01745
C 8.48602 32.00771 0.00488
C 8.6032 30.55638 -0.01004
C 7.43773 29.90215 -0.02896
C 7.38224 28.49503 -0.00131
C 4.89238 4.31703 0.00685
C 17.11406 32.63899 -0.00703
C 18.35546 31.92604 -0.04076
C 18.3648 30.5153 -0.00652
C 29.38829 2.9286 0.02108
C 30.60255 2.20979 0.00716
C 30.65026 0.76114 0.00307
C 29.46655 0.03939 0.00346
C 31.98262 32.65747 0.01713
C 33.22043 31.95819 -0.01694
C 33.21773 30.54614 0.01428
C 31.97094 29.80169 -0.02142
C 31.84514 28.36951 0.0544
C 33.11621 27.71368 0.00026
C 33.15817 26.29324 0.00682
C 31.91644 25.62328 -0.01779
C 31.82996 24.25628 0.03794
C 33.12564 23.52232 0.01927
C 33.11209 22.07606 0.01574
C 31.98631 21.2828 -0.02383
C 32.00699 19.89174 -0.01429
C 33.16572 19.15493 -0.0136
C 33.16579 17.75077 0.00594
C 29.40581 4.29015 0.0103
C 30.67789 4.98198 0.07705
C 30.66624 6.40008 0.01908
C 29.46394 7.11117 0.01518
C 27.0364 0.0333 0.00924
C 29.57755 32.66008 0.02326
C 30.76452 32.00782 0.00261
C 30.74153 30.56077 0.03265
C 29.46403 29.82063 -0.02049
C 29.35037 28.44891 -0.01854
C 30.52933 27.66918 -0.01415
C 30.648 26.25417 -0.03039
C 30.63386 23.36146 0.01836
C 31.95414 17.06143 -0.02474
C 30.74121 21.96969 0.03531
C 29.56045 19.84741 0.0101
C 30.84227 19.1079 0.01705
C 30.73137 17.72252 -0.0405
C 29.44286 17.01859 -0.01303
C 29.46438 15.60158 -0.01461
C 30.74032 14.89468 -0.02155
C 30.84018 13.44733 -0.00944
C 30.76944 10.4594 -0.03735
C 30.70657 9.13817 -0.00971
C 29.58133 21.267 -0.00669
C 31.9747 15.61933 0.00369
C 33.22193 14.95542 0.00455
C 33.24594 13.51788 -0.00644
C 34.35607 21.36927 -0.02213
C 34.34238 19.91315 0.01951
C 1.16361 19.20107 -0.01678
C 1.20016 17.76252 0.01223
C 34.41316 16.9991 0.00648
C 0.0063 15.65972 0.02114
C 1.21792 14.97168 -0.02957
C 1.22586 13.58971 0.00343
C 0.01713 12.79167 -0.02656
C 1.14934 22.11795 0.02712
C 34.41676 11.42193 -0.02442
C 1.15221 9.24746 -0.00583
C 34.40142 8.52589 -0.02302
C 0.00468 7.11674 -0.02849
C 1.22628 6.40131 0.02931
C 1.16221 4.97254 0.00628
C 34.39792 4.20409 -0.0345
C 34.32969 2.83018 -0.00931
C 1.18334 2.13693 -0.00939
C 1.17212 0.69061 -0.00468
C 1.20018 10.68396 -0.00027
C 28.23078 0.78078 0.0014
C 1.21023 23.50196 0.00723
C 34.42636 25.63103 -0.05239
C 31.98377 12.7824 -0.01839
C 31.88948 11.34571 0.00137
C 33.18359 10.65069 0.00199
C 33.1836 9.21704 0.04381
C 32.02296 8.43792 0.02806
C 31.90801 7.01552 0.01504
C 33.20212 6.40141 -0.00069
C 33.12057 4.92842 0.04926
C 31.86582 4.20845 -0.03838
C 34.39162 24.18476 0.03076
C 31.83962 2.86865 0.00349
C 33.104 0.66801 -0.00841
C 31.91902 0.01218 0.0001
C 34.36494 32.63801 -0.02927
C 1.17498 31.97103 -0.01404
C 1.20532 30.56094 0.01027
C 0.00145 29.86923 0.01831
C 34.37315 28.45515 -0.01037
C 1.23335 27.73357 -0.00439
C 1.24904 26.32621 -0.00598
C 33.07593 2.13389 -0.00323
C 3.63654 31.93231 0.00643
C 28.16982 2.23347 0.01324
C 27.17975 4.30695 0.01177
C 20.88508 27.6345 0.03374
C 20.89666 26.1632 -0.02845
C 19.63123 25.41047 -0.03213
C 19.60744 24.03722 0.02239
C 20.9237 23.37713 0.01153
C 20.86119 21.90845 0.02734
C 19.67778 21.18346 -0.0055
C 19.71354 19.73875 0.01515
C 20.9687 19.02918 -0.00225
C 20.89967 17.66248 0.00071
C 19.72495 17.10007 -0.01107
C 19.61226 2.77692 -0.01586
C 20.87162 2.30569 -0.01971
C 20.87169 0.81669 -0.02118
C 19.66087 0.04601 0.00733
C 22.13571 32.55905 -0.00178
C 23.33304 31.8571 0.00768
C 23.29847 30.49304 -0.0276
C 22.05999 29.74355 0.03005
C 19.63296 28.32377 0.0296
C 19.58393 29.74486 0.03046
C 20.84359 30.46943 -0.00381
C 20.81134 31.95858 0.01852
C 17.18828 29.76214 0.0058
C 17.20748 28.34588 -0.00865
C 18.4311 27.58754 0.00675
C 18.38899 26.16519 -0.00311
C 17.20453 25.52777 0.00742
C 17.13032 24.10584 -0.01594
C 18.3132 23.35831 0.0106
C 18.4501 21.95748 -0.01154
C 17.22988 21.23853 -0.01721
C 22.12856 28.29371 -0.04078
C 17.2341 19.79179 -0.02422
C 18.37666 17.64959 0.00096
C 17.16341 17.03466 -0.01527
C 16.86257 15.55836 0.01087
C 17.3212 4.18293 0.00199
C 17.12867 2.77683 0.01511
C 18.40962 2.06174 -0.00478
C 18.42751 0.64103 -0.01662
C 17.184 34.06213 -0.01185
C 19.59485 32.66785 0.01126
C 18.47463 19.0402 0.01277
C 23.31815 27.59106 0.02117
C 23.31537 26.15304 0.02737
C 22.10911 25.48289 -0.00498
C 25.80777 19.20128 -0.02815
C 25.81337 17.83373 -0.00942
C 24.46982 2.85439 0.00487
C 25.66028 2.11326 0.00826
C 25.75932 0.71321 -0.00294
C 24.57253 34.01297 0.00152
C 27.03607 32.70442 0.01257
C 28.27621 32.01892 0.02316
C 28.29437 30.625 0.04185
C 24.56813 19.90014 0.00622
C 27.02413 29.95026 0.00194
C 28.52146 23.3743 0.02611
C 28.29382 21.96147 0.02198
C 27.08736 21.28934 0.01094
C 27.05652 19.87136 0.00235
C 28.28765 19.10049 0.01495
C 28.20587 17.68929 0.01259
C 26.98504 17.12823 0.01799
C 28.21714 14.99074 0.01699
C 28.2278 5.05375 -0.00416
C 27.20979 28.51215 -0.00621
C 26.89952 2.7965 0.04266
C 24.60211 21.33653 -0.0032
C 25.98697 23.41144 -0.01654
C 22.15872 24.05991 0.00135
C 23.41724 23.41679 0.03102
C 23.33134 22.02004 0.02555
C 22.1404 21.27665 0.01423
C 22.19219 19.78771 -0.00285
C 23.40237 19.16753 -0.009
C 23.54884 17.76621 -0.01199
C 22.10535 2.72146 -0.00229
C 23.34851 2.08211 -0.00938
C 25.8155 21.96121 -0.00037
C 23.2774 0.61701 -0.0264
C 24.53846 32.60972 0.00684
C 25.74536 31.93417 -0.01052
C 25.79186 30.5548 -0.01679
C 24.54589 29.85597 0.00367
C 24.64994 28.37508 0.04306
C 25.92852 27.73036 0.00996
C 25.74002 26.29555 0.00195
C 24.62669 25.49173 -0.00802
C 24.69633 24.07265 -0.00218
C 22.09737 34.06201 -0.01154
C 2.4146 32.6497 0.00907
