383
Graphene
C 34.2842 34.07847 0.01295
C 11.02625 5.07341 0.0076
C 9.80544 4.35925 0.01241
C 9.84285 2.94377 -0.01454
C 11.08502 2.14519 0.01945
C 11.08824 0.76882 0.01416
C 9.7837 0.08604 0.03542
C 12.29399 32.69787 0.02299
C 13.51787 31.91844 0.00244
C 13.54553 30.44934 -0.01717
C 11.02427 6.44184 0.02162
C 12.32363 29.79233 0.05265
C 13.59323 27.66598 -0.02813
C 12.31485 25.56179 0.00374
C 12.41122 16.8465 0.00052
C 12.21364 15.57657 -0.03682
C 13.49759 14.81166 0.01965
C 13.55786 13.43103 0.02058
C 12.32723 12.76877 -0.01957
C 12.28123 11.39652 -0.0108
C 13.44993 10.6556 -0.00368
C 12.2775 28.41268 -0.01952
C 13.52532 9.26371 -0.02696
C 9.74604 7.18588 -0.0014
C 10.99121 9.23898 -0.02162
C 11.09094 30.51057 0.02841
C 9.76065 29.87738 -0.01111
C 9.80369 28.41862 -0.01275
C 10.97684 27.75649 0.00985
C 11.11902 26.30064 -0.02245
C 9.83792 25.68735 -0.00428
C 9.84525 24.30223 0.03101
C 11.07938 23.57419 -0.01536
C 11.04245 22.39093 -0.02689
C 9.76871 8.56128 0.00415
C 9.87002 21.36445 -0.01046
C 11.12334 19.14038 0.02819
C 11.28747 17.71805 0.00165
C 10.008 17.03192 -0.02971
C 9.87381 15.57624 0.02894
C 11.05051 14.85058 -0.01789
C 11.13289 13.472 0.00444
C 9.79463 12.82476 -0.00925
C 9.73951 11.39908 0.01877
C 11.05039 10.63191 0.01363
C 10.03228 20.00208 -0.00891
C 11.11917 31.95358 0.00943
C 12.28928 8.50598 -0.00114
C 13.49512 6.40105 0.00798
C 15.92779 2.13392 -0.0258
C 15.91819 0.74571 -0.0331
C 14.77867 34.0416 -0.00316
C 17.19759 32.60114 0.02188
C 18.33472 31.91226 -0.01979
C 18.38521 30.45847 0.02691
C 17.13471 29.70765 -0.01581
C 18.59638 13.35432 0.01452
C 17.29702 12.70853 0.04892
C 14.74366 2.88568 0.03338
C 17.27003 11.3435 -0.00111
C 18.47131 9.11931 0.03754
C 17.18456 8.47663 0.01739
C 17.17025 7.05422 0.00755
C 18.41215 6.367 -0.0054
C 18.43797 4.95938 0.00667
C 17.23144 4.26592 0.00143
C 17.27186 2.80163 -0.017
C 18.48569 2.07093 0.00364
C 18.3974 0.68499 -0.00831
C 18.49597 10.63615 -0.03557
C 12.29671 7.06665 0.00228
C 14.69483 4.28071 -0.00491
C 15.9295 6.32353 0.03698
C 13.47473 4.95427 0.00422
C 12.20848 4.33858 0.0351
C 12.27929 2.87211 -0.03113
C 13.50772 2.16337 0.02098
C 13.56264 0.71951 0.01848
C 12.31904 0.06206 -0.00619
C 14.74217 32.65523 -0.02162
C 15.96396 31.90819 0.00889
C 15.9475 30.46761 -0.00481
C 15.98045 4.95471 -0.00109
C 14.68568 29.80871 0.00979
C 14.6541 15.42814 0.03505
C 15.79325 14.71839 -0.02815
C 15.9768 13.4245 -0.04147
C 14.80747 12.70396 -0.05302
C 14.81606 11.31243 0.00213
C 16.09824 10.59829 -0.00066
C 16.01228 9.20697 -0.00289
C 14.73274 8.51991 0.00028
C 14.70192 7.12739 -0.02213
C 14.60492 28.33078 0.01443
C 17.14924 0.00083 -0.02957
C 9.83719 32.73526 0.00406
C 8.57318 0.83485 0.00572
C 3.61005 5.04254 -0.00094
C 2.37883 4.32134 0.02322
C 2.29794 2.93236 -0.00725
C 3.61178 2.24153 -0.05697
C 3.61891 0.85807 0.01087
C 2.38893 0.09712 -0.01343
C 4.87493 32.76246 0.00988
C 6.13478 32.02469 0.0276
C 6.10147 30.62548 0.01305
C 3.65508 6.42524 -0.02566
C 4.86776 29.92368 -0.00077
C 6.16606 27.82474 -0.02929
C 6.17075 26.326 -0.00966
C 4.89035 25.61077 -0.03337
C 4.89832 24.11246 0.01227
C 6.17574 23.46506 0.00873
C 6.19575 22.05419 -0.00049
C 5.03363 21.40484 0.00848
C 4.95923 19.93601 -0.01303
C 6.2063 19.16041 -0.01378
C 4.84133 28.45953 0.03368
C 6.24177 17.76547 0.02635
C 2.39451 7.11089 -0.03113
C 3.59789 9.27131 -0.00643
C 3.59216 30.65005 -0.003
C 2.40003 29.90436 0.01402
C 2.34038 28.43748 0.02379
C 3.59498 27.74647 0.00907
C 3.61406 26.32077 0.00643
C 2.43473 25.58313 -0.01509
C 2.41121 24.20146 0.03267
C 3.62054 23.36342 0.02374
C 3.72221 22.03954 0.00402
C 2.39376 8.52325 0.017
C 2.48075 21.34906 0.0073
C 3.74432 19.27079 0.03828
C 3.70592 17.81108 0.01226
C 2.56562 17.05518 -0.00279
C 2.47658 15.69247 0.01996
C 3.71267 14.93706 -0.03996
C 3.65483 13.50935 0.01465
C 2.41217 12.8418 -0.00074
C 2.45822 11.44534 -0.00518
C 3.61467 10.64731 0.0086
C 2.47176 19.91639 0.0174
C 7.3458 0.12099 0.03592
C 4.96167 16.99879 0.0127
C 6.13167 14.9199 0.01849
C 8.59687 22.07862 -0.01118
C 7.44608 21.2809 -0.014
C 7.40424 19.90403 0.02147
C 8.68288 19.18541 0.00373
C 8.74829 17.79248 -0.00191
C 7.43325 17.07537 0.00438
C 7.46301 15.63513 0.01291
C 8.60951 14.91534 0.00093
C 8.57245 13.54134 0.00057
C 8.57305 23.52387 -0.00131
C 7.34512 12.80394 -0.01634
C 8.49275 10.68432 0.02339
C 8.55 9.30364 0.01641
C 7.29168 8.64745 -0.00719
C 7.26948 7.20223 0.01364
C 8.52479 6.43401 -0.01062
C 8.60672 5.05083 -0.00033
C 7.36272 4.31929 0.03589
C 7.33741 2.97177 -0.02759
C 8.64949 2.25611 0.0402
C 7.27691 11.40684 -0.00334
C 4.92138 15.63692 0.01396
C 7.42225 24.24752 -0.02896
C 8.59426 26.37428 0.00488
C 6.04996 13.49748 -0.01142
C 4.86301 12.79129 -0.00562
C 4.83167 11.36968 -0.00494
C 6.03057 10.7193 0.00054
C 6.06043 9.32167 0.03007
C 4.79743 8.56191 -0.00095
C 4.84796 7.15649 0.01572
C 6.05566 6.47243 -0.04848
C 6.11497 5.00723 -0.00892
C 7.37563 25.63857 -0.01004
C 4.86565 4.36976 -0.01362
C 6.14156 2.21839 0.0288
C 6.14197 0.80389 0.00393
C 4.87431 0.15822 0.00895
C 7.31799 32.80456 0.00685
C 8.57276 32.09952 0.02888
C 8.56191 30.58391 -0.00482
C 7.33615 29.9922 -0.01384
C 7.34525 28.53898 0.03693
C 8.60776 27.78599 0.01745
C 4.86413 2.91278 -0.0008
C 3.63434 32.00623 0.00031
C 19.6146 32.54641 -0.04422
C 20.86797 30.45542 -0.00703
C 29.46031 4.23791 0.0103
C 29.38649 2.75934 0.02108
C 30.60914 2.11375 0.00716
C 30.64283 0.68727 0.00307
C 29.37509 34.06197 0.00346
C 31.91361 32.7669 0.01713
C 33.11481 31.97455 -0.01694
C 33.17214 30.59519 0.01428
C 31.92251 29.85659 -0.02142
C 30.62112 4.9504 0.07705
C 32.00163 28.38997 0.0544
C 33.14754 26.23605 0.00682
C 31.85117 25.60485 -0.01779
C 31.83648 24.12185 0.03794
C 33.05272 23.37961 0.01927
C 33.14646 22.02146 0.01574
C 31.93166 21.2646 -0.02383
C 31.94783 19.85572 -0.01429
C 33.20216 19.15894 -0.0136
C 33.23246 17.75618 0.00594
C 33.19431 27.68096 0.00026
C 32.01293 17.03492 -0.02474
C 30.66646 6.33505 0.01908
C 29.54106 8.58821 -0.00971
C 29.36592 29.76577 0.0014
C 29.41377 28.32703 0.00924
C 30.70031 27.72514 0.02326
C 30.56428 26.34853 0.00261
C 29.35569 25.54298 0.03265
C 29.44261 24.17163 -0.02049
C 30.60727 23.42272 -0.01854
C 30.744 22.00644 -0.01415
C 29.42326 21.29211 -0.03039
C 29.48192 7.13125 0.01518
C 29.42683 19.86118 0.01836
C 30.76917 17.78954 -0.00669
C 29.54936 17.0769 0.0101
C 29.57522 15.66686 0.01705
C 30.76544 14.93891 -0.0405
C 30.78049 13.56337 -0.01303
C 29.58193 12.7888 -0.01461
C 29.52041 11.38389 -0.02155
C 30.77564 10.63295 -0.00944
C 30.77345 9.16475 -0.03735
C 30.70047 19.13237 0.03531
C 30.67821 30.51414 0.01324
C 32.05373 15.62971 0.00369
C 33.25928 13.54038 -0.00644
C 34.40523 21.30939 -0.02213
C 0.05488 19.87474 0.01951
C 1.23571 19.13505 -0.01678
C 1.28524 17.78956 0.01223
C 0.02173 17.101 0.00648
C 0.05948 15.63955 0.02114
C 1.25516 14.96415 -0.02957
C 1.20925 13.51038 0.00343
C 0.02531 12.82893 -0.02656
C 1.20935 22.03794 0.02712
C 0.00751 11.33084 -0.02442
C 1.18284 9.24371 -0.00583
C 34.37707 8.5303 -0.02302
C 34.30389 7.07837 -0.02849
C 1.13127 6.41589 0.02931
C 1.14345 5.00559 0.00628
C 34.33232 4.37047 -0.0345
C 34.32908 2.96403 -0.00931
C 1.06541 2.21389 -0.00939
C 1.07514 0.75793 -0.00468
C 1.23821 10.65074 -0.00027
C 33.27961 14.92885 0.00455
C 1.16216 23.4762 0.00723
C 34.35614 25.50824 -0.05239
C 32.01243 12.81266 -0.01839
C 32.02504 11.35719 0.00137
C 33.22759 10.64401 0.00199
C 33.14698 9.25376 0.04381
C 31.91258 8.53477 0.02806
C 31.95088 7.04981 0.01504
C 33.08274 6.35021 -0.00069
C 33.03974 4.95029 0.04926
C 31.80965 4.29446 -0.03838
C 34.31574 24.11547 0.03076
C 31.80096 2.83887 0.00349
C 33.11639 0.84043 -0.00841
C 31.89812 0.08762 0.0001
C 34.36257 32.6822 -0.02927
C 1.20167 32.07282 -0.01404
C 1.16756 30.60457 0.01027
C 34.40714 29.88701 0.01831
C 34.33012 28.4224 -0.01037
C 1.13848 27.78891 -0.00439
C 1.13262 26.30559 -0.00598
C 33.09269 2.2366 -0.00323
C 20.84732 31.89589 0.00654
C 30.61233 32.00085 0.04266
C 27.01342 34.07258 -0.00416
C 23.43199 10.58739 0.03046
C 23.41275 9.1762 0.0296
C 22.16491 8.41536 0.03374
C 22.10206 7.02275 -0.02845
C 23.38216 6.48826 -0.03213
C 23.3842 4.97978 0.02239
C 22.1291 4.26252 0.01153
C 22.11192 2.82142 0.02734
C 23.33584 2.05398 -0.0055
C 22.19883 11.18263 -0.00381
C 23.25245 0.62862 0.01515
C 24.50318 32.54613 0.00071
C 25.76846 31.96204 -0.01107
C 25.836 30.50803 -0.01586
C 24.55875 29.83278 -0.01971
C 24.45211 28.46958 -0.02118
C 25.73447 27.58485 0.00733
C 25.74075 26.25307 -0.00178
C 25.66247 19.03715 0.00768
C 25.8377 17.64176 -0.0276
C 21.97289 0.00057 -0.00225
C 24.6461 16.86661 0.03005
C 22.28448 12.52248 0.01852
C 22.98175 14.7009 -0.01185
C 19.58051 29.9088 -0.04076
C 21.72588 14.82292 -0.00652
C 21.08637 13.46282 0.0058
C 19.80482 12.78051 -0.00865
C 19.66915 11.27965 0.00675
C 20.93809 10.59133 -0.00311
C 20.89223 9.20554 0.00742
C 19.69773 8.48898 -0.01594
C 19.62677 7.05809 0.0106
C 23.39943 13.32706 0.01126
C 20.86305 6.33105 -0.01154
C 19.62391 4.26329 -0.02422
C 19.63793 2.89344 0.01277
C 20.83407 2.17964 0.00096
C 20.79962 0.7054 -0.01527
C 19.64662 34.00469 0.01087
C 22.04933 32.68659 0.00199
C 23.29335 31.90292 0.01511
C 23.25148 30.52979 -0.00478
C 22.1551 29.71349 -0.01662
C 20.87885 4.9524 -0.01721
C 29.39581 32.63542 0.01177
C 24.40549 15.53171 -0.04078
C 25.91234 13.45855 0.02737
C 26.97014 21.37377 0.00622
C 26.97067 19.95825 -0.02815
C 28.18414 19.1932 -0.00942
C 28.28008 17.70353 0.00487
C 27.09807 17.02873 0.00826
C 27.00156 15.61016 -0.00294
C 28.28701 14.95591 0.00152
C 28.28091 13.47976 0.01257
C 27.19675 12.76039 0.02316
C 28.20314 22.00679 -0.0032
C 27.18489 11.38489 0.04185
C 28.25464 9.28754 -0.00621
C 27.0716 8.51048 0.02611
C 27.05904 7.07108 0.02198
C 28.22221 6.3809 0.01094
C 28.2135 4.90486 0.00235
C 26.99222 4.21306 0.01495
C 26.95262 2.81426 0.01259
C 28.15784 2.14167 0.01799
C 28.19024 0.72988 0.01699
C 28.30101 10.68167 0.00194
C 25.70319 14.83129 0.02117
C 28.25232 23.42769 -0.00037
C 26.84966 25.37324 -0.00218
C 24.70015 12.75837 -0.00498
C 24.6168 11.34697 0.00135
C 25.84913 10.62884 0.03102
C 25.85846 9.21561 0.02555
C 24.68499 8.4905 0.01423
C 24.61449 7.11214 -0.00285
C 25.83068 6.26498 -0.009
C 25.74114 4.90746 -0.01199
C 24.55034 4.20291 -0.00229
C 26.98804 23.89986 -0.01654
C 24.48607 2.76505 -0.00938
C 25.74855 0.65059 -0.01154
C 24.51378 34.05463 0.00684
C 27.03818 32.68315 -0.01052
C 28.19048 31.9604 -0.01679
C 28.22794 30.51813 0.00367
C 27.00425 29.76857 0.04306
C 26.93544 28.34361 0.00996
C 28.0984 27.60523 0.00195
C 28.0542 26.13522 -0.00802
C 25.79379 2.07658 -0.0264
C 2.46517 32.74804 0.03189
