378
Graphene
C 34.41417 34.07329 0.01295
C 11.04238 6.42612 0.01416
C 11.03824 5.00448 0.03542
C 9.77061 4.28779 0.02299
C 9.88786 2.8941 0.00244
C 11.08639 2.13672 -0.01717
C 11.04183 0.73903 0.05265
C 9.84227 0.0673 -0.01952
C 12.25477 32.63714 -0.02813
C 13.4821 31.92318 0.00374
C 13.5494 30.46417 0.00052
C 12.2631 29.7772 -0.03682
C 12.34717 28.39429 0.01965
C 13.55634 27.67343 0.02058
C 13.50572 26.27719 -0.01957
C 12.30017 25.59441 -0.0108
C 12.34606 24.20641 -0.00368
C 13.50665 23.40543 -0.02696
C 13.53442 21.94435 -0.00114
C 12.25618 21.2609 0.00228
C 9.85409 7.10921 0.01945
C 9.81393 8.51562 -0.01454
C 11.04499 9.2428 0.01241
C 11.10812 10.67893 0.0076
C 11.00785 31.99042 -0.02245
C 11.09809 30.58071 -0.00428
C 9.86599 29.90114 0.03101
C 9.91098 28.50908 -0.01536
C 11.11757 27.74753 -0.02689
C 11.03249 26.31367 -0.01046
C 9.79561 25.6452 -0.00891
C 9.83751 24.24287 0.02819
C 11.1048 23.51806 0.00165
C 12.31212 19.84191 0.00798
C 11.13982 22.0783 -0.02971
C 9.95268 19.88457 -0.01789
C 11.11383 19.1646 0.00444
C 11.11867 17.76803 -0.00925
C 9.88655 17.01359 0.01877
C 9.81439 15.6109 0.01363
C 11.08021 14.88644 -0.02162
C 11.056 13.47565 0.00415
C 9.80389 12.75612 -0.0014
C 9.77737 11.35051 0.02162
C 9.92049 21.35479 0.02894
C 9.70985 32.70718 0.00985
C 13.57687 19.16167 0.00422
C 12.38719 17.10229 -0.03113
C 14.74923 24.07143 0.02188
C 15.9813 23.41174 -0.01979
C 15.96493 21.94045 0.02691
C 14.72499 21.26885 -0.01581
C 14.75441 19.93197 0.01452
C 15.9833 19.21103 0.04892
C 15.96317 17.7756 -0.00111
C 14.80253 17.09925 -0.03557
C 14.81309 15.61101 0.03754
C 16.02888 14.91303 0.01739
C 15.98884 13.45339 0.00755
C 14.7532 12.75125 -0.0054
C 14.71737 11.33621 0.00667
C 15.93883 10.56432 0.00143
C 15.9509 9.16522 -0.017
C 14.72286 8.42607 0.00364
C 14.69423 7.05661 -0.00831
C 15.9458 6.34944 -0.02957
C 15.91892 4.97443 -0.04422
C 14.75153 25.50403 -0.00316
C 15.89298 26.33253 -0.0331
C 15.94205 27.73645 -0.0258
C 14.75539 28.3875 0.03338
C 12.32878 15.66361 0.02098
C 13.61254 14.97299 0.01848
C 13.56607 13.50853 -0.00619
C 12.34445 12.80201 -0.02162
C 12.31562 11.39649 0.00889
C 13.55311 10.59312 -0.00481
C 13.52715 9.18816 0.00979
C 12.26794 8.46897 0.01443
C 12.31015 7.09212 0.03505
C 13.55084 17.80455 0.0351
C 13.51444 6.38567 -0.02815
C 12.23058 4.30843 -0.05302
C 12.3065 2.92147 0.00213
C 13.47001 2.14864 -0.00066
C 13.52141 0.68362 -0.00289
C 12.22858 34.04216 0.00028
C 14.71214 32.59175 -0.02213
C 16.00819 31.81632 0.03698
C 15.98905 30.45547 -0.00109
C 14.7615 29.77768 -0.00491
C 13.42071 4.98195 -0.04147
C 7.30429 0.00576 -0.01275
C 8.56712 0.72453 -0.01111
C 8.67243 2.12107 0.02841
C 3.65619 5.02005 -0.01343
C 2.46541 4.2759 0.00988
C 2.41342 2.8079 0.0276
C 3.65633 2.17872 0.01305
C 3.68142 0.72013 -0.00077
C 2.47616 0.00865 0.03368
C 4.7974 32.67691 -0.02929
C 6.07262 31.97052 -0.00966
C 6.17277 30.59932 -0.03337
C 4.96782 29.85121 0.01227
C 4.91595 28.41149 0.00873
C 6.17773 27.73029 -0.00049
C 6.21923 26.26697 0.00848
C 4.9088 25.63265 -0.01303
C 4.85573 24.19286 -0.01378
C 6.09671 23.45854 0.02635
C 6.08075 22.04971 0.0127
C 4.89122 21.31074 0.01396
C 4.96264 19.85229 0.01849
C 3.71165 6.40528 0.01087
C 2.38838 7.08334 -0.05697
C 2.44137 8.50331 -0.00725
C 3.69747 9.27693 0.02322
C 3.68695 30.52938 -0.01509
C 2.44878 29.83117 0.03267
C 2.41778 28.44154 0.02374
C 3.65127 27.77474 0.00402
C 3.72727 26.37321 0.0073
C 2.51791 25.58528 0.0174
C 2.51842 24.14548 0.03828
C 3.66041 23.41635 0.01226
C 3.64717 21.91208 -0.00279
C 6.19999 19.13212 -0.01142
C 2.31343 21.233 0.01996
C 3.65749 19.22197 0.01465
C 3.69225 17.82393 -0.00074
C 2.45786 17.1108 -0.00518
C 2.45701 15.6392 0.0086
C 3.71195 14.94444 -0.00643
C 3.69102 13.4958 0.017
C 2.46568 12.84504 -0.03113
C 2.38885 11.42526 -0.02566
C 3.64544 10.69701 -0.00094
C 2.36861 19.87495 -0.03996
C 6.19524 17.71267 -0.00562
C 4.87617 17.0627 -0.00494
C 4.89814 15.60817 0.00054
C 8.61714 23.46883 -0.00191
C 8.62154 22.06353 0.00438
C 7.4321 21.34965 0.01291
C 7.44167 19.89257 0.00093
C 8.69206 19.17088 0.00057
C 8.67495 17.66703 -0.01634
C 7.37627 16.99456 -0.00334
C 7.35486 15.56245 0.02339
C 8.58179 14.87262 0.01641
C 7.36062 24.1454 0.00373
C 8.54672 13.50567 -0.00719
C 7.34577 11.36379 -0.01062
C 8.5936 10.63624 -0.00033
C 8.55739 9.27133 0.03589
C 7.32004 8.57999 -0.02759
C 7.36246 7.15142 0.0402
C 8.5733 6.4122 0.00572
C 8.60081 4.97174 0.03592
C 7.35227 4.28616 0.00406
C 7.40853 2.86856 0.00943
C 7.3713 12.81569 0.01364
C 14.69943 4.23163 0.00654
C 7.41291 25.54025 0.02147
C 8.64652 27.76135 -0.01118
C 6.14198 14.93275 0.03007
C 6.14307 13.56422 -0.00095
C 4.99478 12.83386 0.01572
C 4.90681 11.45576 -0.04848
C 6.06995 10.74527 -0.00892
C 6.13158 9.31764 -0.01362
C 4.89236 8.5019 -0.0008
C 4.90773 7.1466 0.0288
C 6.13845 6.43441 0.00393
C 8.65185 26.30817 -0.014
C 6.11708 4.99047 0.00895
C 4.85451 2.94395 0.02888
C 6.12832 2.18089 -0.00482
C 6.09021 0.73902 -0.01384
C 4.84849 0.03971 0.03693
C 7.27727 32.72183 0.01745
C 8.57161 31.99456 0.00488
C 8.65484 30.61289 -0.01004
C 7.36659 29.82877 -0.02896
C 7.39741 28.42787 -0.00131
C 4.8766 4.33414 0.00685
C 14.72489 2.88092 -0.00703
C 15.92972 2.16963 -0.04076
C 15.9324 0.69523 -0.00652
C 29.42936 25.54056 0.02108
C 29.46985 24.13998 0.00716
C 30.67786 23.44942 0.00307
C 30.69146 21.97263 0.00346
C 29.51727 21.33506 0.01713
C 29.45785 19.86508 -0.01694
C 30.6632 19.10969 0.01428
C 30.81874 17.7207 -0.02142
C 29.53726 2.84241 0.0544
C 30.73237 2.19443 0.00026
C 30.74884 0.75452 0.00682
C 29.58811 34.06828 -0.01779
C 31.93985 32.67241 0.03794
C 33.17279 32.05005 0.01927
C 33.17678 30.59279 0.01574
C 31.96453 29.7706 -0.02383
C 32.03311 28.37395 -0.01429
C 33.20897 27.66897 -0.0136
C 33.17573 26.24757 0.00594
C 30.69444 26.26418 0.0103
C 30.76166 27.67716 0.07705
C 29.54081 28.3886 0.01908
C 29.53428 29.82101 0.01518
C 28.33725 31.97443 0.00924
C 28.27719 30.52628 0.02326
C 27.10372 29.80286 0.00261
C 27.04578 28.36486 0.03265
C 28.30161 27.74031 -0.02049
C 28.22453 26.26555 -0.01854
C 27.05233 25.53026 -0.01415
C 27.04652 24.08699 -0.03039
C 28.2245 23.44246 0.01836
C 31.89206 25.51682 -0.02474
C 28.29709 21.98342 0.03531
C 27.03124 19.72892 0.0101
C 28.30029 19.27597 0.01705
C 27.06157 2.75369 -0.0405
C 28.3308 2.19088 -0.01303
C 28.31769 0.64193 -0.01461
C 27.02645 34.07478 -0.02155
C 29.54515 32.64603 -0.00944
C 30.79282 31.87668 -0.03735
C 30.79883 30.43505 -0.00971
C 27.09367 21.2576 -0.00669
C 31.90382 24.09053 0.00369
C 33.17185 23.48323 0.00455
C 33.1381 22.02725 -0.00644
C 34.37879 21.33387 -0.02213
C 34.37805 19.88214 0.01951
C 1.14309 19.17744 -0.01678
C 1.16245 17.78448 0.01223
C 34.38771 17.14465 0.00648
C 34.38415 15.62471 0.02114
C 1.29422 14.99166 -0.02957
C 1.2679 13.55184 0.00343
C 0.17753 12.79511 -0.02656
C 1.14989 22.05677 0.02712
C 0.03345 11.51216 -0.02442
C 1.25637 9.2675 -0.00583
C 0.07875 8.56623 -0.02302
C 34.32823 7.14579 -0.02849
C 1.20548 6.3772 0.02931
C 1.23276 4.94343 0.00628
C 34.40686 4.22496 -0.0345
C 34.35762 2.81958 -0.00931
C 1.13813 2.07772 -0.00939
C 1.21839 0.70748 -0.00468
C 1.1653 10.68289 -0.00027
C 27.08081 32.69925 0.0014
C 1.18839 23.48652 0.00723
C 34.41235 25.61935 -0.05239
C 31.9567 21.28356 -0.01839
C 31.93009 19.87053 0.00137
C 33.18586 19.19395 0.00199
C 33.15663 17.7104 0.04381
C 31.87135 17.09958 0.02806
C 33.31703 14.81103 0.01504
C 33.22968 6.34915 -0.00069
C 33.06871 5.03095 0.04926
C 31.97735 4.23092 -0.03838
C 34.41335 24.22146 0.03076
C 31.97562 2.8792 0.00349
C 33.19667 0.72575 -0.00841
C 31.92769 0.00982 0.0001
C 0.02061 32.68474 -0.02927
C 1.2085 31.91236 -0.01404
C 1.22247 30.52595 0.01027
C 34.38817 29.875 0.01831
C 34.41615 28.41901 -0.01037
C 1.18353 27.71998 -0.00439
C 1.25074 26.3038 -0.00598
C 33.13067 2.12019 -0.00323
C 3.66228 31.92031 0.00643
C 24.56336 0.00951 0.01324
C 25.81958 2.28203 0.01177
C 17.2112 8.49904 0.03374
C 17.17012 7.07704 -0.02845
C 18.44098 6.40557 -0.03213
C 18.40196 4.86439 0.02239
C 17.14018 4.23951 0.01153
C 17.24698 2.86393 0.02734
C 18.47051 2.12145 -0.0055
C 18.4467 0.65456 0.01515
C 17.23016 34.05661 -0.00225
C 19.70919 32.56152 0.00071
C 20.95752 31.9389 -0.01107
C 20.93628 30.50481 -0.01586
C 19.7137 29.73207 -0.01971
C 19.66865 28.37419 -0.02118
C 20.89021 27.6303 0.00733
C 20.73982 26.29002 -0.00178
C 19.58098 25.46809 0.00768
C 19.67575 24.07225 -0.0276
C 20.94561 23.35809 0.03005
C 18.43766 9.23069 0.0296
C 18.38655 10.48069 0.03046
C 17.15217 11.30154 -0.00381
C 17.24854 12.76106 0.01852
C 14.7298 34.0607 0.0058
C 17.23996 32.59537 -0.00865
C 18.45607 31.86528 0.00675
C 18.49596 30.45917 -0.00311
C 17.24948 29.75427 0.00742
C 17.23738 28.37667 -0.01594
C 18.43976 27.64997 0.0106
C 18.33982 26.1835 -0.01154
C 17.08407 25.54508 -0.01721
C 20.95494 22.01419 -0.04078
C 17.22786 24.14149 -0.02422
C 18.46344 22.00636 0.00096
C 17.21504 21.22715 -0.01527
C 17.20013 19.85688 0.01087
C 18.46913 19.1444 0.00199
C 18.43849 17.72884 0.01511
C 17.21224 17.04394 -0.00478
C 17.22624 15.60446 -0.01662
C 18.53448 14.8077 -0.01185
C 18.44691 13.38646 0.01126
C 18.45538 23.36075 0.01277
C 19.69187 21.23297 0.02117
C 19.64866 19.84952 0.02737
C 20.88761 19.07185 -0.00498
C 21.99398 4.41696 -0.02815
C 22.07278 2.93924 -0.00942
C 23.26962 2.18557 0.00487
C 23.34425 0.72606 0.00826
C 22.16797 34.04959 -0.00294
C 24.6173 32.70775 0.00152
C 25.80536 31.95307 0.01257
C 25.87513 30.51509 0.02316
C 24.64009 29.86268 0.04185
C 23.33802 19.33525 0.00622
C 24.55123 28.38151 0.00194
C 25.76489 26.21491 0.02611
C 24.57667 25.59049 0.02198
C 24.60038 24.14905 0.01094
C 25.86778 23.44871 0.00235
C 25.93927 22.00991 0.01495
C 24.69979 21.3209 0.01259
C 24.6279 19.81576 0.01799
C 25.79768 19.1545 0.01699
C 24.46221 2.81624 -0.00416
C 25.84381 27.60544 -0.00621
C 25.78663 0.75494 0.04266
C 22.13383 19.85404 -0.0032
C 23.42881 22.04706 -0.01654
C 20.79433 17.81087 0.00135
C 19.70765 16.96065 0.03102
C 19.56354 15.676 0.02555
C 19.62576 7.0556 0.01423
C 20.91977 4.93055 -0.00285
C 19.66975 4.27274 -0.009
C 19.6595 2.87699 -0.01199
C 20.90976 2.10536 -0.00229
C 20.83982 0.67286 -0.00938
C 22.18985 21.31812 -0.00037
C 19.68293 33.98976 -0.0264
C 23.42117 31.9992 0.00684
C 23.42643 30.56018 -0.01052
C 22.13377 29.82909 -0.01679
C 22.14518 28.37287 0.00367
C 23.32503 27.68593 0.04306
C 23.29329 26.25807 0.00996
C 22.00945 25.58438 0.00195
C 22.12843 24.14975 -0.00802
C 23.39789 23.43233 -0.00218
C 22.11022 32.64721 -0.01154
C 2.43624 32.60161 0.00907
