304
Graphene
C 34.26459 0.22053 0.01295
C 14.78282 2.91296 -0.01581
C 15.99239 2.13259 0.01452
C 15.91159 0.64832 0.04892
C 14.67931 34.0508 -0.00111
C 17.11873 32.59173 -0.03557
C 18.44845 31.86311 0.03754
C 18.40372 30.41008 0.01739
C 17.0888 29.72573 0.00755
C 17.14724 28.33379 -0.0054
C 18.20234 27.5202 0.00667
C 18.35495 26.09341 0.00143
C 17.05854 12.84299 -0.017
C 17.20268 11.54753 0.00364
C 18.48392 10.75017 -0.00831
C 18.47096 9.27784 -0.02957
C 14.7187 4.35788 0.02691
C 17.33507 8.45599 -0.04422
C 15.96717 5.03597 -0.01979
C 14.71127 7.0475 -0.00316
C 12.20528 4.18551 0.03505
C 12.25834 2.86659 -0.02815
C 13.48444 2.1398 -0.04147
C 13.51678 0.79111 -0.05302
C 12.39683 34.04314 0.00213
C 14.44183 32.72559 -0.00066
C 15.74914 31.88568 -0.00289
C 15.95977 30.53953 0.00028
C 15.3372 14.84123 -0.02213
C 15.86751 13.76443 0.03698
C 14.80137 12.67879 -0.00109
C 14.80925 11.28491 -0.00491
C 15.98304 10.62432 0.03338
C 16.12567 9.14908 -0.0258
C 14.80639 8.51069 -0.0331
C 15.99426 6.43137 0.02188
C 13.45403 4.98027 0.01443
C 17.27725 7.10923 0.00654
C 18.48308 4.9514 -0.04076
C 20.91584 4.94017 -0.01185
C 19.6743 4.31498 0.01126
C 19.62937 2.79625 0.01852
C 20.8288 2.04336 -0.00381
C 20.9695 0.55523 0.03046
C 19.7147 34.06851 0.0296
C 22.32084 32.56924 0.03374
C 23.67597 31.91647 -0.02845
C 23.82316 30.49837 -0.03213
C 22.23211 29.76619 0.02239
C 22.13534 28.32221 0.01153
C 23.36802 27.59651 0.02734
C 23.32803 26.17821 -0.0055
C 22.13313 25.48925 0.01515
C 22.17411 11.3065 -0.00225
C 20.78621 6.46433 -0.01662
C 18.45734 6.32318 -0.00703
C 19.63065 7.17308 -0.00478
C 20.9568 9.45516 0.00199
C 17.23882 4.25029 -0.00652
C 17.27031 2.85221 0.0058
C 18.44794 2.10323 -0.00865
C 18.43324 0.76077 0.00675
C 17.20669 34.03106 -0.00311
C 19.66338 32.60246 0.00742
C 20.98168 31.82278 -0.01594
C 20.93184 30.41792 0.0106
C 19.60101 29.69389 -0.01154
C 19.57381 28.24616 -0.01721
C 20.83659 27.54906 -0.02422
C 20.88705 26.00316 0.01277
C 19.62457 25.59209 0.00096
C 19.67048 11.4754 -0.01527
C 20.92106 10.9098 0.01087
C 19.74409 8.58244 0.01511
C 23.48021 10.88592 0.00071
C 13.45477 6.42613 0.00979
C 12.29098 8.56268 0.00889
C 6.12695 13.65523 -0.01275
C 4.89815 12.83691 0.00985
C 4.92928 11.42688 -0.02245
C 6.16171 10.75184 -0.00428
C 6.12833 9.28134 0.03101
C 4.85817 8.50965 -0.01536
C 4.78399 7.14075 -0.02689
C 6.08292 6.41957 -0.01046
C 6.03291 5.0083 -0.00891
C 4.78757 4.3489 0.02819
C 4.76333 2.89834 0.00165
C 5.98691 2.21731 -0.02971
C 5.97514 0.62393 0.02894
C 4.66086 0.11026 -0.01789
C 7.34479 15.8027 0.00444
C 6.13517 15.10207 -0.01111
C 8.56312 15.1406 -0.00925
C 4.80728 15.57987 0.02841
C 3.48895 0.81747 0.00406
C 2.72061 17.00231 0.00093
C 2.37169 15.64101 0.00057
C 3.58393 14.86903 -0.01634
C 3.67035 13.49803 -0.00334
C 2.42953 12.79981 0.02339
C 2.38348 11.4471 0.01641
C 3.68857 10.74079 -0.00719
C 3.66217 9.29201 0.01364
C 2.44308 8.57547 -0.01062
C 2.38563 7.17459 -0.00033
C 3.57221 6.38794 0.03589
C 3.4999 5.0586 -0.02759
C 2.3606 4.31945 0.0402
C 2.35485 2.90568 0.00572
C 3.47203 2.22319 0.03592
C 2.31191 0.09871 0.00943
C 12.22577 7.10429 -0.00481
C 8.61035 13.59044 0.01877
C 7.33958 11.44386 -0.02162
C 9.79387 7.14601 0.02058
C 11.00657 6.42192 -0.01957
C 10.99853 4.9402 -0.0108
C 9.83307 4.16872 -0.00368
C 9.77362 2.70627 -0.02696
C 11.02671 2.07797 -0.00114
C 11.09181 0.50171 0.00228
C 9.81243 0.03255 0.00798
C 12.55692 15.62234 0.00422
C 13.86934 14.88862 0.0351
C 13.61533 13.48204 -0.03113
C 12.34446 12.78744 0.02098
C 12.36473 11.3675 0.01848
C 13.4876 10.56109 -0.00619
C 13.54938 9.18752 -0.02162
C 9.87426 8.63223 0.01965
C 7.40179 12.9116 0.01363
C 11.09699 9.273 -0.03682
C 9.87834 11.40398 0.00374
C 8.65337 10.78053 0.00415
C 8.67867 9.33799 -0.0014
C 7.39479 8.5838 0.02162
C 7.31743 7.12928 0.0076
C 8.5307 6.35608 0.01241
C 8.54613 4.94682 -0.01454
C 7.31324 4.28943 0.01945
C 7.24479 2.85513 0.01416
C 8.48954 2.07374 0.03542
C 8.52854 0.55275 0.02299
C 7.14109 0.01051 0.00244
C 9.85379 15.65147 -0.01717
C 11.183 15.14698 0.05265
C 11.11719 13.40142 -0.01952
C 9.8929 12.79145 -0.02813
C 11.03502 10.63235 0.00052
C 23.44483 9.35841 -0.01107
C 22.18809 8.70594 -0.01586
C 22.04566 7.17713 -0.01971
C 33.04445 26.28507 0.01574
C 31.81126 25.62749 -0.02383
C 31.83938 24.1687 -0.01429
C 33.07803 23.52159 -0.0136
C 33.14466 22.0703 0.00594
C 31.94959 21.44188 -0.02474
C 31.87935 19.96965 0.00369
C 33.15585 19.23003 0.00455
C 33.27288 17.84301 -0.00644
C 31.93648 17.02065 -0.01839
C 31.8448 15.62449 0.00137
C 33.09887 14.93983 0.00199
C 33.15445 13.48475 0.04381
C 31.89751 12.79662 0.02806
C 31.91407 11.35648 0.01504
C 33.0291 27.78039 0.01927
C 33.11483 10.74075 -0.00069
C 31.75405 28.53688 0.03794
C 33.07506 30.59747 0.00682
C 29.4006 12.8378 -0.00971
C 29.45592 11.36248 0.01518
C 30.65316 10.65943 0.01908
C 30.63622 9.29293 0.07705
C 29.43162 8.56171 0.0103
C 29.42004 7.1002 0.02108
C 30.64485 6.44914 0.00716
C 30.69781 5.02052 0.00307
C 29.44697 4.38475 0.00346
C 29.46301 2.96328 0.01713
C 30.66845 2.20119 -0.01694
C 30.53122 0.7119 0.01428
C 29.24998 0.05588 -0.02142
C 31.74624 32.71107 0.0544
C 33.04633 32.09212 0.00026
C 31.75578 29.91864 -0.01779
C 30.71161 13.51995 -0.03735
C 33.09616 9.31986 0.04926
C 31.86299 7.15491 0.00349
C 34.29968 15.71049 0.02114
C 1.1169 14.89511 -0.02957
C 1.18456 13.51282 0.00343
C 34.34603 12.82541 -0.02656
C 34.39521 11.46173 -0.02442
C 1.15092 10.68644 -0.00027
C 1.1697 9.28252 -0.00583
C 34.34669 8.57116 -0.02302
C 34.37219 7.14185 -0.02849
C 1.16004 6.51833 0.02931
C 1.1888 5.06107 0.00628
C 34.39143 4.39359 -0.0345
C 34.29583 2.9152 -0.00931
C 1.08185 2.22536 -0.00939
C 1.11504 0.80324 -0.00468
C 0.13294 17.08695 0.00648
C 31.90473 8.54481 -0.03838
C 1.51465 17.87411 0.01223
C 0.09772 19.98815 0.01951
C 33.14436 6.51844 -0.00323
C 33.12572 5.08061 -0.00841
C 31.93109 4.29375 0.0001
C 31.89815 2.9129 -0.02927
C 33.09504 2.21074 -0.01404
C 32.97481 0.79818 0.01027
C 31.82185 0.07301 0.01831
C 34.29802 32.88 -0.01037
C 1.15891 32.05557 -0.00439
C 1.12712 30.69958 -0.00598
C 34.42582 29.89447 -0.05239
C 34.17707 28.55081 0.03076
C 34.21149 25.60425 0.00723
C 34.21581 24.26776 0.02712
C 34.32896 21.33374 -0.02213
C 1.23345 19.18217 -0.01678
C 30.67769 14.96821 -0.00944
C 29.4372 15.61189 -0.02155
C 29.35509 17.0799 -0.01461
C 24.59272 8.62191 -0.0264
C 24.55065 7.24038 -0.01154
C 25.73979 6.50321 0.00684
C 25.80588 5.08387 -0.01052
C 24.48334 4.32714 -0.01679
C 24.5344 2.92854 0.00367
C 25.80283 2.2643 0.04306
C 25.75899 0.90205 0.00996
C 24.61153 0.03177 0.00195
C 26.5191 32.76956 -0.00802
C 27.70649 31.95235 -0.00218
C 27.65844 30.52102 -0.01654
C 26.46349 29.7504 -0.00037
C 26.86436 28.41698 -0.0032
C 28.06309 27.80274 0.00622
C 25.7988 9.30614 -0.00938
C 28.16138 26.35003 -0.02815
C 25.86964 10.69646 -0.00229
C 25.67704 13.20143 -0.009
C 23.24929 6.44212 -0.02118
C 23.26454 5.08055 0.00733
C 22.11357 4.19588 -0.00178
C 22.17486 2.7727 0.00768
C 23.3912 2.04148 -0.0276
C 23.45551 0.63811 0.03005
C 22.1756 33.96891 -0.04078
C 24.986 32.77895 0.02117
C 24.96105 29.68522 0.02737
C 24.57306 28.34673 -0.00498
C 25.77868 27.50295 0.00135
C 25.8132 26.1888 0.03102
C 24.53233 25.42621 0.02555
C 24.72994 23.95856 0.01423
C 25.79101 23.41877 -0.00285
C 24.78377 11.6582 -0.01199
C 26.98306 25.46799 -0.00942
C 26.97845 24.10635 0.00487
C 28.27288 23.48064 0.00826
C 29.10442 32.6737 0.00924
C 30.47475 32.00919 0.02326
C 30.47426 30.59845 0.00261
C 29.15847 29.95685 0.03265
C 29.2498 28.57139 -0.02049
C 30.44653 27.84408 -0.01854
C 30.58384 26.40896 -0.01415
C 29.40318 25.66149 -0.03039
C 29.41461 24.23431 0.01836
C 30.56796 23.46627 0.03531
C 30.64963 22.04199 -0.00669
C 29.44906 21.28406 0.0101
C 29.36847 19.92016 0.01705
C 30.64031 19.14949 -0.0405
C 30.66816 17.78401 -0.01303
C 26.80303 0.05354 0.0014
C 28.0972 0.81175 0.01324
C 28.22661 2.21901 0.04266
C 27.04817 2.9418 0.01177
C 28.12258 22.07559 -0.00294
C 26.84015 21.38958 0.00152
C 28.21888 19.10826 0.01257
C 28.20738 17.96205 0.02316
C 26.75327 15.38989 0.04185
C 28.13254 14.93073 0.00194
C 28.18116 13.49125 -0.00621
C 4.2681 17.00148 0.01291
C 27.02869 12.74268 0.02611
C 28.26976 10.61577 0.01094
C 28.20067 9.19789 0.00235
C 27.00235 8.52786 0.01495
C 27.02548 7.10012 0.01259
C 28.19011 6.49755 0.01799
C 28.28079 5.11563 0.01699
C 27.07106 4.39684 -0.00416
C 27.13531 11.36529 0.02198
C 2.47177 32.77876 0.00438
