438
Graphene
C 0.04251 34.06253 0.01295
C 13.54535 10.62739 -0.00334
C 13.42091 9.30007 0.02339
C 12.26278 8.55197 0.01641
C 12.28684 7.07181 -0.00719
C 13.49574 6.38462 0.01364
C 13.53347 4.95906 -0.01062
C 12.22993 4.21958 -0.00033
C 12.24737 2.8158 0.03589
C 13.55867 2.09034 -0.02759
C 13.55006 0.71946 0.0402
C 12.34054 34.06598 0.00572
C 14.79074 32.66201 0.03592
C 16.02225 31.90892 0.00406
C 16.01322 30.46308 0.00943
C 14.68845 29.85165 0.02841
C 14.7129 28.38238 -0.01111
C 15.97387 27.65615 -0.01275
C 15.93566 26.25754 0.00985
C 14.75199 25.50602 -0.02245
C 14.74718 24.11483 -0.00428
C 15.97864 23.45118 0.03101
C 16.00939 21.95428 -0.01536
C 14.70018 21.33006 -0.02689
C 12.30372 11.46885 -0.01634
C 14.72407 19.88617 -0.01046
C 12.27531 12.82949 0.00057
C 13.4965 14.98364 0.01291
C 11.06716 4.99661 -0.04848
C 9.79783 4.35925 -0.00892
C 9.80072 2.90928 -0.01362
C 11.01373 2.14746 -0.0008
C 11.00917 0.74445 0.0288
C 9.68116 0.07271 0.00393
C 12.19235 32.65945 0.00895
C 13.52901 31.92952 0.00685
C 13.51769 30.54018 0.02888
C 12.24852 29.9039 -0.00482
C 12.23732 28.47941 -0.01384
C 13.39637 27.70481 0.03693
C 13.40631 26.37825 0.01745
C 12.17488 25.60114 0.00488
C 12.22573 24.20615 -0.01004
C 13.53343 23.42432 -0.02896
C 13.51683 21.99176 -0.00131
C 12.20334 21.30396 -0.01118
C 12.26363 19.86717 -0.014
C 13.41711 19.24723 0.02147
C 13.47948 17.82289 0.00373
C 12.20238 17.19258 -0.00191
C 12.26734 15.76832 0.00438
C 13.50514 13.51665 0.00093
C 15.99163 19.1861 -0.00891
C 15.96649 17.80565 0.02819
C 14.7661 17.09204 0.00165
C 17.2188 19.89039 -0.01957
C 18.44463 19.18198 -0.0108
C 18.42884 17.64093 -0.00368
C 17.18387 17.04441 -0.02696
C 17.17277 15.63554 -0.00114
C 18.39838 14.8486 0.00228
C 18.39876 13.43864 0.00798
C 17.18257 12.78624 0.00422
C 17.11071 11.31497 0.0351
C 18.41207 10.63277 -0.03113
C 18.38492 9.22033 0.02098
C 17.12643 8.48289 0.01848
C 17.17022 7.05027 -0.00619
C 18.36288 6.37789 -0.02162
C 18.4654 4.97148 0.00889
C 17.18511 4.27613 -0.00481
C 17.17294 2.80361 0.00979
C 18.43411 2.18649 0.01443
C 18.49473 0.71382 0.03505
C 17.23334 34.07652 -0.02815
C 19.69239 32.61819 -0.04147
C 20.85735 31.94586 -0.05302
C 20.8889 30.49837 0.00213
C 17.20181 21.28783 0.02058
C 18.47162 22.0311 0.01965
C 18.42637 23.43116 -0.03682
C 17.18881 24.13522 0.00052
C 14.72526 15.63844 -0.02971
C 15.96518 14.94698 0.02894
C 16.02992 13.53528 -0.01789
C 14.74592 12.79539 0.00444
C 14.63586 11.39784 -0.00925
C 15.88307 10.69645 0.01877
C 15.93844 9.25611 0.01363
C 14.69801 8.50759 -0.02162
C 14.63798 7.09421 0.00415
C 15.95755 6.35712 -0.0014
C 15.92236 4.92929 0.02162
C 11.04686 6.40298 0.01572
C 14.76629 4.2729 0.0076
C 15.93307 2.13619 -0.01454
C 16.02414 0.64969 0.01945
C 14.76637 0.03118 0.01416
C 17.2251 32.62141 0.03542
C 18.46987 31.92529 0.02299
C 18.43605 30.45107 0.00244
C 17.20715 29.77972 -0.01717
C 17.19755 28.39195 0.05265
C 18.38673 27.67311 -0.01952
C 18.37974 26.28557 -0.02813
C 17.1879 25.56303 0.00374
C 14.81409 2.81424 0.01241
C 9.77218 7.10703 -0.00095
C 9.79616 8.54033 0.03007
C 11.03395 9.26782 0.00054
C 3.64527 0.71059 0.00828
C 2.5307 33.93767 -0.02375
C 5.15638 32.58752 0.00558
C 5.08775 25.597 -0.0059
C 4.9694 24.23463 -0.01386
C 6.20579 23.42102 -0.02805
C 6.19598 22.09028 0.00081
C 4.89814 21.3635 0.00245
C 4.92873 19.9117 0.02728
C 6.1412 19.20107 -0.00039
C 6.10131 17.73883 0.0064
C 4.92087 17.08444 0.00211
C 4.87174 15.55919 -0.00449
C 6.11188 14.88847 -0.01979
C 6.1603 13.51612 0.02784
C 4.95305 12.84438 -0.01977
C 4.86501 11.41858 -0.00561
C 6.13323 10.69215 0.00208
C 6.11509 9.24425 0.01707
C 4.93821 8.59409 0.02769
C 4.89408 7.09032 -0.03291
C 6.12039 6.39988 -0.04999
C 6.14597 5.08001 0.04505
C 3.66993 2.07592 0.00088
C 2.4351 2.80964 0.04421
C 2.45147 4.25624 -0.00177
C 3.59016 5.01307 0.03278
C 3.65102 30.41643 -0.00018
C 2.3597 29.83942 0.01073
C 2.38724 28.453 0.01984
C 3.60652 27.8057 0.00535
C 3.87743 26.39893 -0.00198
C 2.52353 25.62311 -0.00012
C 2.54922 24.23051 -0.04306
C 3.71495 23.41082 -0.03672
C 3.69858 21.99409 0.01913
C 2.48914 21.28926 0.00267
C 2.43483 19.91071 0.00787
C 4.83597 4.29275 0.03284
C 3.61785 19.11492 0.02426
C 2.38267 17.04232 -0.01471
C 2.34832 15.55789 -0.02827
C 3.64933 14.86715 0.01078
C 3.66857 13.48611 -0.00112
C 2.44072 12.82381 0.03345
C 2.47414 11.33892 0.00748
C 3.65577 10.70418 0.00662
C 3.6743 9.26208 -0.0154
C 2.47831 8.50457 -0.01299
C 2.4023 7.07536 -0.00407
C 3.64331 6.39815 0.01138
C 3.71544 17.73803 0.01218
C 19.64448 29.82715 -0.00066
C 4.84813 2.97078 -0.04307
C 6.15356 0.77068 0.00031
C 7.30085 0.05978 0.01087
C 9.76874 32.73573 -0.01343
C 10.99314 31.96513 0.00988
C 10.97994 30.63725 0.0276
C 9.78874 29.96391 0.01305
C 9.80954 28.57473 -0.00077
C 10.9438 27.7643 0.03368
C 11.00058 26.39673 -0.02929
C 9.74462 25.71694 -0.00966
C 9.80713 24.239 -0.03337
C 11.03212 23.56296 0.01227
C 10.98071 22.10208 0.00873
C 9.77391 21.37449 -0.00049
C 9.86091 19.90853 0.00848
C 11.05276 19.25631 -0.01303
C 10.97591 17.86059 -0.01378
C 9.82257 17.04578 0.02635
C 9.84947 15.65541 0.0127
C 11.10274 14.94689 0.01396
C 11.02281 13.54876 0.01849
C 9.76486 12.76634 -0.01142
C 9.86288 11.39456 -0.00562
C 11.11512 10.71204 -0.00494
C 8.51047 0.76276 -0.05697
C 8.57123 2.21407 -0.00725
C 7.32494 2.91298 0.02322
C 7.29285 4.3726 -0.00094
C 4.96276 33.98328 -0.003
C 7.2438 32.66589 0.01402
C 8.55138 32.01448 0.02379
C 8.49196 26.36162 0.00907
C 7.24791 25.59982 0.00643
C 7.3418 24.22638 -0.01509
C 8.57436 23.54142 0.03267
C 8.57369 22.05668 0.02374
C 7.36969 21.37204 0.00402
C 7.40823 19.892 0.0073
C 8.65934 19.19049 0.0174
C 6.14247 2.20495 0.03189
C 8.56363 17.78646 0.03828
C 7.33927 15.6448 -0.00279
C 8.5709 14.96541 0.01996
C 8.61544 13.51091 -0.03996
C 7.36595 12.75142 0.01465
C 7.34772 11.35492 -0.00074
C 8.61333 10.66756 -0.00518
C 8.59243 9.24499 0.0086
C 7.37397 8.5095 -0.00643
C 7.31693 7.14735 0.017
C 8.59398 6.45205 -0.03113
C 8.59154 5.00226 -0.02566
C 7.39965 17.01534 0.01226
C 19.64 28.42223 -0.00289
C 20.86331 27.75191 0.00028
C 20.86033 26.21208 -0.02213
C 30.72802 14.90033 -0.0405
C 30.71498 13.45455 -0.01303
C 29.42911 12.72875 -0.01461
C 29.49439 11.303 -0.02155
C 30.74686 10.52204 -0.00944
C 30.73629 9.17576 -0.03735
C 29.49828 8.50185 -0.00971
C 29.50445 7.01241 0.01518
C 30.72143 6.27852 0.01908
C 30.73304 4.88547 0.07705
C 29.56208 4.19804 0.0103
C 29.55295 2.77632 0.02108
C 30.71691 2.10481 0.00716
C 30.73825 0.66959 0.00307
C 29.43663 34.03548 0.00346
C 32.01626 32.68403 0.01713
C 33.23123 31.99091 -0.01694
C 33.14353 30.56724 0.01428
C 31.93026 29.88715 -0.02142
C 31.93472 28.43819 0.0544
C 33.1672 27.75788 0.00026
C 33.12724 26.31827 0.00682
C 31.95539 25.6068 -0.01779
C 29.47113 15.57878 0.01705
C 29.42922 17.07598 0.0101
C 30.62795 17.79569 -0.00669
C 30.71995 19.17343 0.03531
C 28.2834 10.60083 0.00194
C 28.22554 9.11614 -0.00621
C 27.01781 8.49707 0.02611
C 27.08637 7.03129 0.02198
C 28.29059 6.318 0.01094
C 28.29178 4.91393 0.00235
C 27.08832 4.2449 0.01495
C 27.02148 2.75448 0.01259
C 28.31743 2.18958 0.01799
C 28.3094 0.72729 0.01699
C 27.0221 0.02744 -0.00416
C 31.93556 24.1381 0.03794
C 29.47074 32.69296 0.01177
C 30.71449 30.59153 0.01324
C 29.43568 29.92544 0.0014
C 29.50061 28.45475 0.00924
C 30.69279 27.72012 0.02326
C 30.70665 26.34529 0.00261
C 29.55104 25.60733 0.03265
C 29.52764 24.12034 -0.02049
C 30.68767 23.435 -0.01854
C 30.65556 22.0108 -0.01415
C 29.45791 21.23058 -0.03039
C 29.46044 19.83864 0.01836
C 30.72944 31.98213 0.04266
C 27.06824 11.41593 0.04185
C 33.15412 23.435 0.01927
C 32.00132 21.34104 -0.02383
C 34.39009 24.1859 0.03076
C 1.2236 23.48742 0.00723
C 1.22589 22.05775 0.02712
C 0.01804 21.29157 -0.02213
C 34.41308 19.91873 0.01951
C 1.21748 19.16462 -0.01678
C 1.22103 17.75598 0.01223
C 34.3542 16.98011 0.00648
C 34.37238 15.60065 0.02114
C 1.17392 14.91967 -0.02957
C 1.16112 13.4474 0.00343
C 34.38446 12.70531 -0.02656
C 34.38827 11.27193 -0.02442
C 1.20984 10.58888 -0.00027
C 1.18234 9.20982 -0.00583
C 0.00991 8.4335 -0.02302
C 0.03548 7.01244 -0.02849
C 1.29245 6.36296 0.02931
C 1.24472 4.92576 0.00628
C 0.10613 4.22967 -0.0345
C 0.04512 2.84679 -0.00931
C 1.20242 2.09457 -0.00939
C 1.2764 0.65486 -0.00468
C 34.39836 25.56984 -0.05239
C 1.23888 26.29914 -0.00598
C 1.15395 27.69281 -0.00439
C 34.32931 28.38682 -0.01037
C 32.00399 19.88957 -0.01429
C 33.14265 19.15569 -0.0136
C 33.15831 17.68317 0.00594
C 31.8482 17.02829 -0.02474
C 31.90008 15.59691 0.00369
C 33.13828 14.8001 0.00455
C 33.15728 13.41313 -0.00644
C 31.85824 12.72336 -0.01839
C 31.94792 11.23522 0.00137
C 33.15083 10.53921 0.00199
C 33.198 9.13253 0.04381
C 33.22038 21.96572 0.01574
C 31.99393 8.38981 0.02806
C 33.1776 6.27746 -0.00069
C 33.2329 4.90734 0.04926
C 32.03927 4.15713 -0.03838
C 31.99586 2.74932 0.00349
C 33.18983 2.1093 -0.00323
C 33.2082 0.67844 -0.00841
C 31.95135 0.02144 0.0001
C 0.06549 32.62738 -0.02927
C 1.3175 31.91688 -0.01404
C 1.15969 30.54303 0.01027
C 34.40335 29.87657 0.01831
C 31.96313 6.9996 0.01504
C 3.90075 31.83596 -0.0005
C 27.06122 12.89844 0.02316
C 28.20324 14.98263 0.00152
C 22.17635 29.75264 -0.04076
C 22.11123 28.40949 -0.00652
C 23.35768 27.68138 0.0058
C 23.35637 26.28023 -0.00865
C 22.09113 25.59998 0.00675
C 22.13117 24.24814 -0.00311
C 23.3186 23.52656 0.00742
C 23.29488 22.04245 -0.01594
C 22.10087 21.33471 0.0106
C 22.09236 19.97069 -0.01154
C 23.36496 19.17135 -0.01721
C 23.32269 17.78366 -0.02422
C 22.01756 17.01912 0.01277
C 22.13517 15.55585 0.00096
C 23.31762 14.8836 -0.01527
C 23.36339 13.5302 0.01087
C 22.05996 12.69116 0.00199
C 22.16576 11.33278 0.01511
C 23.33333 10.70625 -0.00478
C 23.35949 9.24266 -0.01662
C 22.11375 8.56796 -0.01185
C 22.03254 7.12187 0.01126
C 23.34105 6.38112 0.01852
C 23.37844 30.45855 -0.00703
C 23.30194 31.88691 0.00654
C 22.12262 32.61184 -0.04422
C 19.6244 33.96572 -0.02957
C 19.57484 25.57605 0.03698
C 19.55513 24.16425 -0.00109
C 20.82458 23.49007 -0.00491
C 20.82952 22.12435 0.03338
C 19.65861 21.32465 -0.0258
C 19.65435 19.82241 -0.0331
C 20.85667 19.19849 -0.00316
C 20.82591 17.70571 0.02188
C 19.67463 16.97844 -0.01979
C 19.63003 15.54254 0.02691
C 20.86898 14.83788 -0.01581
C 23.33336 5.00713 -0.00381
C 20.8947 13.47207 0.01452
C 19.64516 11.32871 -0.00111
C 20.83547 10.63938 -0.03557
C 20.8477 9.29948 0.03754
C 19.61315 8.54735 0.01739
C 19.58246 7.09661 0.00755
C 20.86166 6.45404 -0.0054
C 20.86536 5.02287 0.00667
C 19.67809 4.2765 0.00143
C 19.66982 2.84955 -0.017
C 20.88205 2.18773 0.00364
C 20.91686 0.70731 -0.00831
C 19.68843 12.75954 0.04892
C 28.22911 13.53149 0.01257
C 22.03675 4.25128 0.03046
C 23.29745 2.15266 0.03374
C 25.76995 5.00675 -0.01199
C 24.54451 4.2343 -0.00229
C 24.54084 2.87507 -0.00938
C 25.85068 2.10239 -0.0264
C 25.72954 0.64657 -0.01154
C 24.50546 34.03097 0.00684
C 27.03891 32.6824 -0.01052
C 28.23018 32.04338 -0.01679
C 28.27122 30.61628 0.00367
C 27.07904 29.83596 0.04306
C 27.11885 28.43551 0.00996
C 28.2258 27.72156 0.00195
C 28.29892 26.23678 -0.00802
C 27.06434 25.534 -0.00218
C 26.99745 24.09053 -0.01654
C 28.26813 23.4197 -0.00037
C 28.21659 22.02806 -0.0032
C 27.03154 21.30354 0.00622
C 26.97185 19.84737 -0.02815
C 28.16914 19.17754 -0.00942
C 28.24077 17.77285 0.00487
C 27.04212 17.09476 0.00826
C 26.96831 15.65081 -0.00294
C 25.83547 6.39647 -0.009
C 24.61322 7.10443 -0.00285
C 24.57811 8.54869 0.01423
C 25.81775 9.25063 0.02555
C 23.24998 0.66729 -0.02845
C 22.13764 34.06243 -0.03213
C 24.57544 32.65901 0.02239
C 25.81586 31.90922 0.01153
C 25.87984 30.54821 0.02734
C 24.65531 29.78318 -0.0055
C 24.58509 28.38676 0.01515
C 25.79626 27.70467 -0.00225
C 25.85544 26.27136 0.00071
C 24.64158 25.53862 -0.01107
C 24.6411 24.1989 -0.01586
C 22.0724 2.87278 0.0296
C 25.79862 23.46447 -0.01971
C 24.51502 21.37119 0.00733
C 24.53041 19.99937 -0.00178
C 25.74681 19.1704 0.00768
C 25.81882 17.79089 -0.0276
C 24.6009 17.08678 0.03005
C 24.62255 15.65914 -0.04078
C 25.80477 14.9261 0.02117
C 25.7576 13.47203 0.02737
C 24.58274 12.83253 -0.00498
C 24.6019 11.36943 0.00135
C 25.87023 10.62246 0.03102
C 25.7295 22.08294 -0.02118
C 2.57334 32.51733 0.01116
