364
Graphene
C 0.01688 0.03536 0.01295
C 9.83915 11.39737 0.00052
C 10.99581 10.65412 -0.03682
C 11.11126 9.17076 0.01965
C 9.79246 8.45148 0.02058
C 9.74644 7.10846 -0.01957
C 10.99674 6.4536 -0.0108
C 11.00086 4.98629 -0.00368
C 9.78091 4.31958 -0.02696
C 9.79699 12.75359 0.00374
C 9.74482 2.88299 -0.00114
C 10.99488 0.75975 0.00798
C 9.78767 34.02537 0.00422
C 12.22792 32.61941 0.0351
C 13.49781 31.88848 -0.03113
C 13.55159 30.51342 0.02098
C 12.29119 29.84856 0.01848
C 12.23513 28.41376 -0.00619
C 13.45294 27.75321 -0.02162
C 10.97079 2.11252 0.00228
C 11.03842 13.467 -0.02813
C 11.01928 14.87663 -0.01952
C 9.86804 15.57209 0.05265
C 8.60218 2.12539 0.02894
C 8.55033 0.71504 -0.01789
C 7.38458 0.08784 0.00444
C 9.82166 32.69489 -0.00925
C 10.9939 31.9782 0.01877
C 11.03452 30.56885 0.01363
C 9.73814 29.87788 -0.02162
C 9.735 28.43348 0.00415
C 11.01905 27.71376 -0.0014
C 11.03369 26.30733 0.02162
C 9.80393 25.55623 0.0076
C 9.82406 24.19153 0.01241
C 11.07771 23.41759 -0.01454
C 11.12072 22.06619 0.01945
C 9.89341 21.42039 0.01416
C 9.98054 19.89625 0.03542
C 11.1401 19.11192 0.02299
C 11.13606 17.73582 0.00244
C 9.86758 16.99545 -0.01717
C 13.45254 26.33557 0.00889
C 12.27834 25.59195 -0.00481
C 12.32471 24.1772 0.00979
C 13.50675 23.41767 0.01443
C 15.8298 31.96487 -0.03557
C 15.70801 30.61291 0.03754
C 14.80918 29.66562 0.01739
C 14.70896 28.29198 0.00755
C 14.72806 25.41723 -0.0054
C 14.78441 24.19054 0.00667
C 16.08318 21.96789 0.00143
C 14.86547 21.28699 -0.017
C 14.83808 19.89809 0.00364
C 16.10715 19.09424 -0.00831
C 16.04774 17.70524 -0.02957
C 14.79127 16.91043 -0.04422
C 14.76418 15.51944 0.00654
C 15.99481 14.86917 -0.00703
C 15.94537 13.4176 -0.04076
C 14.69997 12.66798 -0.00652
C 14.74121 11.23226 0.0058
C 15.99777 10.54978 -0.00865
C 15.93319 9.17271 0.00675
C 14.59169 32.74509 -0.00111
C 7.36269 2.87237 -0.02971
C 12.25585 0.04517 0.04892
C 13.41674 2.18363 -0.01581
C 13.58228 21.98482 0.03505
C 12.33191 21.34638 -0.02815
C 12.38501 19.8901 -0.04147
C 13.60356 19.18785 -0.05302
C 13.57264 17.71637 0.00213
C 12.3472 16.94479 -0.00066
C 12.28237 15.51767 -0.00289
C 13.4961 14.8658 0.00028
C 13.55016 13.40844 -0.02213
C 12.28503 12.73203 0.03698
C 12.30369 11.31606 -0.00109
C 13.55489 10.58531 -0.00491
C 13.48585 9.19929 0.03338
C 12.32953 8.44502 -0.0258
C 12.23044 7.06311 -0.0331
C 13.44741 6.32801 -0.00316
C 13.3967 4.9343 0.02188
C 12.23582 4.2491 -0.01979
C 12.22014 2.79574 0.02691
C 13.53034 0.72219 0.01452
C 14.69105 8.49305 -0.00311
C 7.3665 4.30109 0.00165
C 8.50633 6.40374 -0.00891
C 3.63987 6.484 -0.01303
C 3.6259 5.05364 -0.01378
C 2.4148 4.305 0.02635
C 2.35687 2.90436 0.0127
C 3.63479 2.12798 0.01396
C 3.61115 0.76682 0.01849
C 2.39489 0.05289 -0.01142
C 4.80766 32.71711 -0.00562
C 2.47579 7.16615 0.00848
C 6.05724 32.0269 -0.00494
C 4.8938 29.91377 0.03007
C 4.91096 28.45548 -0.00095
C 6.13685 27.71317 0.01572
C 6.12818 26.32424 -0.04848
C 4.88285 25.56963 -0.00892
C 4.94759 24.20103 -0.01362
C 6.18274 23.47571 -0.0008
C 6.2338 21.99311 0.0288
C 6.08397 30.63649 0.00054
C 2.47537 8.64843 -0.00049
C 3.68549 9.30171 0.00873
C 3.64375 10.74667 0.01227
C 3.63404 30.62616 0.0086
C 2.42448 29.80566 -0.00643
C 2.39281 28.41039 0.017
C 3.66801 27.79628 -0.03113
C 3.71843 26.36415 -0.02566
C 2.47049 25.59253 -0.00094
C 2.50495 24.12363 0.02322
C 3.73009 23.48312 -0.00725
C 3.67484 22.04766 -0.05697
C 2.46394 21.28127 0.01087
C 2.47522 19.90812 -0.01343
C 3.73021 19.19131 0.00988
C 3.71408 17.79379 0.0276
C 2.50911 17.11092 0.01305
C 2.43715 15.63764 -0.00077
C 3.70186 14.98754 0.03368
C 3.63815 13.55852 -0.02929
C 2.39479 12.83578 -0.00966
C 2.42649 11.45068 -0.03337
C 4.91411 21.30025 0.00393
C 4.95973 19.94832 0.00895
C 6.23788 19.22954 0.00685
C 6.26901 17.78876 0.02888
C 8.65858 26.36849 -0.01062
C 7.42221 25.59908 -0.00033
C 7.39638 24.17358 0.03589
C 8.68142 23.50067 -0.02759
C 8.66189 22.06694 0.0402
C 7.48442 21.28036 0.00572
C 7.48497 19.90142 0.03592
C 8.64884 19.14571 0.00406
C 8.66099 17.73596 0.00943
C 7.48435 17.0078 0.02841
C 7.41292 15.68207 -0.01111
C 8.59237 14.87411 -0.01275
C 8.55621 13.54272 0.00985
C 7.27984 12.7997 -0.02245
C 7.28245 11.30799 -0.00428
C 8.54411 10.63802 0.03101
C 8.54304 9.24351 -0.01536
C 7.30982 8.57287 -0.02689
C 7.32507 7.10898 -0.01046
C 8.51044 27.81388 0.01364
C 8.60496 5.03866 0.02819
C 7.32901 28.4771 -0.00719
C 8.55181 30.62804 0.02339
C 5.0035 17.10986 -0.00482
C 4.96566 15.72888 -0.01384
C 6.13433 14.92434 0.03693
C 6.06287 13.55766 0.01745
C 4.90083 12.81861 0.00488
C 4.89224 11.47661 -0.01004
C 6.07244 10.64633 -0.02896
C 6.1151 9.2149 -0.00131
C 4.82513 8.5619 -0.01118
C 4.88673 7.11852 -0.014
C 6.12395 6.45927 0.02147
C 6.06584 5.03209 0.00373
C 4.85499 4.3707 -0.00191
C 4.83824 2.86994 0.00438
C 6.14034 2.18822 0.01291
C 6.09464 0.78814 0.00093
C 4.84154 0.08672 0.00057
C 7.35912 32.73918 -0.01634
C 8.56524 32.04218 -0.00334
C 7.33569 29.92082 0.01641
C 14.68454 7.08099 0.00742
C 15.9723 6.31058 -0.01594
C 15.87707 4.91442 0.0106
C 30.8063 2.17925 0.00346
C 30.83754 0.79848 0.01713
C 29.53467 0.04338 -0.01694
C 31.9367 32.71993 0.01428
C 33.10493 31.92797 -0.02142
C 33.09203 30.50326 0.0544
C 31.82544 29.74351 0.00026
C 31.89505 28.35068 0.00682
C 29.54542 2.86765 0.00307
C 33.01338 27.5279 -0.01779
C 33.13138 23.69852 0.01927
C 33.11021 22.16603 0.01574
C 32.06426 21.38273 -0.02383
C 31.90159 19.92222 -0.01429
C 33.20012 19.23298 -0.0136
C 33.20794 17.84394 0.00594
C 32.04466 17.04632 -0.02474
C 31.95921 15.64073 0.00369
C 33.18675 26.17228 0.03794
C 29.44298 4.27998 0.00716
C 30.67364 4.93737 0.02108
C 30.6861 6.40004 0.0103
C 27.04458 2.86095 -0.02049
C 28.30063 2.20608 -0.01854
C 28.34696 0.81487 -0.01415
C 27.20996 33.95335 -0.03039
C 29.44366 32.80901 0.01836
C 30.6346 31.93771 0.03531
C 30.75472 30.5684 -0.00669
C 30.71187 19.1056 0.0101
C 30.78247 17.76215 0.01705
C 29.6275 17.10861 -0.0405
C 29.46407 15.65166 -0.01303
C 30.66764 14.94652 -0.01461
C 30.66913 13.53011 -0.02155
C 29.51451 12.78651 -0.00944
C 29.5698 11.36318 -0.03735
C 30.69279 10.68355 -0.00971
C 30.67061 9.22862 0.01518
C 29.39334 8.51807 0.01908
C 29.48407 7.13771 0.07705
C 33.17342 14.88215 0.00455
C 33.11066 13.50019 -0.00644
C 31.89541 12.80221 -0.01839
C 31.96269 11.26917 0.00137
C 0.00581 19.96545 0.01951
C 1.23461 19.27329 -0.01678
C 1.29332 17.80939 0.01223
C 34.42749 17.03145 0.00648
C 34.42598 15.69614 0.02114
C 1.22952 14.95739 -0.02957
C 1.12981 13.50227 0.00343
C 34.38116 12.7513 -0.02656
C 34.41441 11.36353 -0.02442
C 1.18108 10.67854 -0.00027
C 1.17507 9.28513 -0.00583
C 34.33265 8.46411 -0.02302
C 34.42865 7.10812 -0.02849
C 1.20105 6.47897 0.02931
C 1.1861 5.0324 0.00628
C 34.37948 4.3182 -0.0345
C 34.41391 2.93146 -0.00931
C 1.19207 2.19484 -0.00939
C 1.19831 0.7338 -0.00468
C 34.32504 21.38399 -0.02213
C 26.93905 4.30585 0.03265
C 1.21911 22.03576 0.02712
C 34.40505 24.11457 0.03076
C 33.17262 10.62688 0.00199
C 33.12619 9.21734 0.04381
C 31.91568 8.53377 0.02806
C 31.90487 7.05538 0.01504
C 33.14777 6.42133 -0.00069
C 33.17499 4.99351 0.04926
C 31.94427 4.3829 -0.03838
C 31.99876 2.90127 0.00349
C 33.17657 2.20246 -0.00323
C 33.19986 0.73255 -0.00841
C 31.96636 0.01779 0.0001
C 34.40403 32.6649 -0.02927
C 1.12705 31.90944 -0.01404
C 1.07537 30.50378 0.01027
C 34.26613 29.78982 0.01831
C 34.23584 28.31253 -0.01037
C 1.06787 27.68109 -0.00439
C 1.18974 26.31839 -0.00598
C 0.00539 25.64986 -0.05239
C 1.27989 23.46446 0.00723
C 28.15238 5.02421 0.00261
C 28.18319 6.46431 0.02326
C 26.92982 7.15277 0.00924
C 18.42415 1.97731 -0.0055
C 18.43506 0.6476 0.01515
C 17.19981 0.0007 -0.00225
C 19.52864 32.57917 0.00071
C 19.62792 17.04469 -0.01107
C 19.59481 15.66221 -0.01586
C 20.81176 14.82479 -0.01971
C 20.88588 13.48086 -0.02118
C 19.61994 12.66722 0.00733
C 19.61843 11.2637 -0.00178
C 20.90339 10.63486 0.00768
C 20.87944 9.17832 -0.0276
C 19.69714 8.46764 0.03005
C 19.6153 6.98632 -0.04078
C 20.83762 6.31537 0.02117
C 20.82221 4.91684 0.02737
C 19.60824 4.14901 -0.00498
C 19.63872 2.74144 0.00135
C 20.92724 2.09175 0.03102
C 17.20213 2.74617 0.02734
C 20.91937 0.60816 0.02555
C 17.1502 4.14657 0.01153
C 18.34976 6.26274 -0.03213
C 14.66473 4.21168 -0.01154
C 14.75686 2.79667 -0.01721
C 15.98631 2.13188 -0.02422
C 16.04682 0.73469 0.01277
C 14.81405 0.05847 0.00096
C 17.06972 32.65935 -0.01527
C 18.48532 32.02798 0.01087
C 17.394 19.71749 0.00199
C 18.47936 17.87093 0.01511
C 17.19711 17.04026 -0.00478
C 17.18058 15.55524 -0.01662
C 18.44301 14.852 -0.01185
C 18.39891 13.42826 0.01126
C 17.16921 12.70418 0.01852
C 17.20649 11.28816 -0.00381
C 18.46427 10.53273 0.03046
C 18.43731 9.13143 0.0296
C 17.17742 8.41339 0.03374
C 17.16487 6.99176 -0.02845
C 18.35211 4.88947 0.02239
C 3.59623 31.97501 -0.00518
C 19.66776 0.01829 0.01423
C 22.00521 15.56969 -0.009
C 24.5845 8.52381 0.00152
C 24.51542 7.17565 0.01257
C 25.66358 6.41373 0.02316
C 25.77016 5.01196 0.04185
C 24.57726 4.19492 0.00194
C 24.56816 2.81199 -0.00621
C 25.8477 2.12812 0.02611
C 26.05092 0.68234 0.02198
C 24.74444 0.21993 0.01094
C 28.27602 17.6868 0.00235
C 27.28919 17.0752 0.01495
C 27.02373 15.60292 0.01259
C 28.34903 14.94216 0.01799
C 28.33531 13.54536 0.01699
C 27.05822 12.87998 -0.00416
C 27.07551 11.44788 0.01177
C 28.29219 10.75505 0.04266
C 28.2202 9.27663 0.01324
C 27.02267 8.56494 0.0014
C 25.79604 9.29818 -0.00294
C 22.21066 16.88295 -0.00285
C 25.81419 10.70681 0.00826
C 24.61488 12.80475 -0.00942
C 23.2805 14.86233 -0.01199
C 23.27711 13.47317 -0.00229
C 22.12802 12.75081 -0.00938
C 22.0776 11.31124 -0.0264
C 23.41967 10.64537 -0.01154
C 23.35058 9.22522 0.00684
C 22.15581 8.51971 -0.01052
C 22.11798 7.07695 -0.01679
C 23.29019 6.42597 0.00367
C 23.34819 4.96204 0.04306
C 22.1324 4.19616 0.00996
C 22.12694 2.75464 0.00195
C 23.41326 2.0296 -0.00802
C 23.34659 0.57033 -0.00218
C 22.1294 33.93189 -0.01654
C 24.11683 17.05659 -0.00037
C 24.44075 15.64238 -0.0032
C 25.73425 15.03435 0.00622
C 25.82167 13.5947 -0.02815
C 24.56481 11.36035 0.00487
C 2.34159 32.72355 -0.00074
