330
Graphene
C 0.03824 34.06782 0.01295
C 11.08775 22.0007 -0.04147
C 9.91055 21.31213 -0.05302
C 9.81093 19.94737 0.00213
C 11.19339 19.18371 -0.00066
C 11.10425 17.74746 -0.00289
C 9.87839 17.01846 0.00028
C 9.86095 15.56598 -0.02213
C 11.05963 23.41239 -0.02815
C 10.89942 14.55994 0.03698
C 9.83939 12.71865 -0.00491
C 9.87736 11.31614 0.03338
C 11.15243 10.61262 -0.0258
C 11.10324 9.2068 -0.0331
C 9.90493 8.54499 -0.00316
C 9.86287 7.10562 0.02188
C 11.08827 6.39299 -0.01979
C 11.06463 13.33722 -0.00109
C 9.80109 24.06744 0.03505
C 9.77015 25.47649 0.01443
C 11.09346 26.24194 0.00979
C 8.63149 10.66182 0.02058
C 8.62837 9.23542 -0.01957
C 7.33328 8.57547 -0.0108
C 7.30949 7.17493 -0.00368
C 8.5705 6.53735 -0.02696
C 8.6545 5.05808 -0.00114
C 7.43902 4.28933 0.00228
C 7.36707 2.89895 0.00798
C 8.64701 2.10864 0.00422
C 8.63535 0.74126 0.0351
C 7.40742 0.07213 -0.03113
C 9.85626 32.66215 0.02098
C 11.05897 32.03768 0.01848
C 10.99003 30.57596 -0.00619
C 9.85917 29.791 -0.02162
C 9.83375 28.38367 0.00889
C 11.045 27.65187 -0.00481
C 11.06982 4.93282 0.02691
C 7.37149 11.34858 0.01965
C 9.88272 4.27841 -0.01581
C 11.08477 2.0919 0.04892
C 12.30644 4.15154 0.00742
C 12.31483 2.78809 -0.01594
C 13.58078 2.18718 0.0106
C 13.55718 0.75523 -0.01154
C 12.34121 34.07539 -0.01721
C 14.74798 32.75527 -0.02422
C 15.91931 32.01831 0.01277
C 13.50624 4.90468 -0.00311
C 15.96428 30.59412 0.00096
C 14.72788 28.43649 0.01087
C 15.9417 27.71395 0.00199
C 15.97558 26.26962 0.01511
C 14.71412 25.5828 -0.00478
C 14.81004 24.15063 -0.01662
C 15.99084 23.36587 -0.01185
C 15.92093 21.99138 0.01126
C 14.71888 29.83566 -0.01527
C 13.5654 6.32645 0.00675
C 12.32924 7.02851 -0.00865
C 12.34367 8.45209 0.0058
C 11.07775 0.64256 -0.00111
C 9.84654 0.04079 -0.03557
C 12.26535 32.67947 0.03754
C 13.51092 31.98496 0.01739
C 13.50147 30.55981 0.00755
C 12.18618 29.91096 -0.0054
C 12.24861 28.45785 0.00667
C 13.46222 27.79668 0.00143
C 13.49882 26.34317 -0.017
C 12.27014 25.52514 0.00364
C 12.2577 24.12899 -0.00831
C 13.5544 23.438 -0.02957
C 13.59101 22.02395 -0.04422
C 12.38372 21.26629 0.00654
C 12.30185 19.99831 -0.00703
C 12.3413 11.22243 -0.04076
C 13.43447 9.10928 -0.00652
C 9.85446 2.84973 0.01452
C 7.33399 12.72392 -0.03682
C 8.63658 13.4773 0.00052
C 8.58615 14.88987 0.00374
C 2.41673 8.46919 0.02147
C 2.39623 7.10078 0.00373
C 3.66733 6.41753 -0.00191
C 3.6815 5.01602 0.00438
C 2.52506 4.18967 0.01291
C 2.43817 2.77335 0.00093
C 3.66975 2.10121 0.00057
C 3.65487 9.18266 -0.014
C 3.73865 0.64888 -0.01634
C 4.89098 32.56597 0.02339
C 6.16788 31.94947 0.01641
C 6.17695 30.53377 -0.00719
C 4.94199 29.85447 0.01364
C 4.86895 28.40899 -0.01062
C 6.07922 27.63901 -0.00033
C 6.07326 26.2725 0.03589
C 2.44738 0.03438 -0.00334
C 3.65124 10.65153 -0.01118
C 2.47894 11.37812 -0.00131
C 2.43286 12.79769 -0.02896
C 3.6291 30.54029 -0.00095
C 2.43386 29.83794 0.01572
C 2.53207 28.45306 -0.04848
C 3.68224 27.75764 -0.00892
C 3.66029 26.30926 -0.01362
C 2.42722 25.62651 -0.0008
C 2.4104 24.25943 0.0288
C 3.66531 23.48807 0.00393
C 3.71105 22.06098 0.00895
C 2.50171 21.2773 0.00685
C 2.40059 19.87337 0.02888
C 3.68988 19.15868 -0.00482
C 3.72866 17.7944 -0.01384
C 2.51367 16.98869 0.03693
C 2.50577 15.60691 0.01745
C 3.69002 14.87551 0.00488
C 3.70615 13.49254 -0.01004
C 4.87016 25.65567 -0.02759
C 4.86108 24.17786 0.0402
C 6.1489 23.51146 0.00572
C 6.23119 22.03425 0.03592
C 7.41152 32.68441 0.01363
C 8.63344 31.96243 -0.02162
C 8.69008 30.46829 0.00415
C 7.35137 29.7496 -0.0014
C 7.30252 28.37928 0.02162
C 8.54411 27.75394 0.0076
C 8.58763 26.32814 0.01241
C 7.32973 25.65663 -0.01454
C 7.37141 24.14357 0.01945
C 8.56253 23.40582 0.01416
C 8.62908 22.01824 0.03542
C 7.40664 21.34538 0.02299
C 7.39949 19.94456 0.00244
C 8.59555 19.14254 -0.01717
C 8.57446 17.71622 0.05265
C 7.3541 16.97417 -0.01952
C 7.32052 15.56228 -0.02813
C 4.95435 34.03055 0.01877
C 14.79529 21.48958 0.01852
C 6.17094 0.73563 -0.00925
C 4.88112 2.84611 -0.01789
C 4.99298 21.31737 0.00406
C 4.9517 19.90383 0.00943
C 6.20352 19.12472 0.02841
C 6.14318 17.69949 -0.01111
C 4.89739 16.95358 -0.01275
C 4.89437 15.57418 0.00985
C 6.10008 14.8751 -0.02245
C 6.13996 13.43333 -0.00428
C 4.89271 12.75382 0.03101
C 4.9169 11.35801 -0.01536
C 6.11727 10.67955 -0.02689
C 6.0703 9.2378 -0.01046
C 4.85263 8.55031 -0.00891
C 4.87567 7.14751 0.02819
C 6.12217 6.40911 0.00165
C 6.19925 4.97784 -0.02971
C 4.94001 4.31622 0.02894
C 6.11485 2.20751 0.00444
C 14.82022 7.10746 -0.00381
C 15.9863 6.54807 0.03046
C 15.92776 5.07545 0.0296
C 29.59107 0.04361 0.00026
C 31.90701 32.74386 0.00682
C 33.19103 32.05908 -0.01779
C 33.17073 30.64004 0.03794
C 31.9265 29.87392 0.01927
C 31.93849 28.44845 0.01574
C 33.15743 27.72375 -0.02383
C 30.65724 0.62347 0.0544
C 33.17141 26.32684 -0.01429
C 31.93578 24.26664 0.00594
C 33.14791 23.47791 -0.02474
C 33.15557 22.07826 0.00369
C 31.90452 21.35778 0.00455
C 31.89941 19.90427 -0.00644
C 33.17738 19.14218 -0.01839
C 33.20911 17.7569 0.00137
C 31.87548 25.66825 -0.0136
C 30.72093 10.72556 -0.02142
C 29.74327 11.44821 0.01428
C 29.57599 12.73076 -0.01694
C 30.69962 30.58386 0.01705
C 29.46009 29.80569 -0.0405
C 29.49643 28.42961 -0.01303
C 30.69504 27.70126 -0.01461
C 30.58484 26.31801 -0.02155
C 29.37952 25.53449 -0.00944
C 29.43553 24.04802 -0.03735
C 30.70566 23.48182 -0.00971
C 30.70596 22.08375 0.01518
C 29.45416 21.26695 0.01908
C 29.47771 19.89043 0.07705
C 30.70991 19.20715 0.0103
C 30.74716 17.77045 0.02108
C 29.48353 17.07185 0.00716
C 29.58688 15.67854 0.00307
C 30.66781 14.93103 0.00346
C 30.71555 13.47999 0.01713
C 31.94808 17.08366 0.00199
C 31.94412 15.6204 0.04381
C 33.16699 14.93279 0.02806
C 33.21856 13.47624 0.01504
C 1.28489 17.72503 0.01223
C 0.04003 17.07021 0.00648
C 0.01757 15.64786 0.02114
C 1.21168 14.92465 -0.02957
C 1.17198 13.50381 0.00343
C 34.41082 12.81316 -0.02656
C 0.05833 11.34129 -0.02442
C 1.23904 10.6395 -0.00027
C 1.19335 9.25537 -0.00583
C 34.36167 8.42504 -0.02302
C 0.09247 7.06694 -0.02849
C 1.21642 6.35141 0.02931
C 1.20568 4.92382 0.00628
C 34.41334 4.2684 -0.0345
C 34.3545 2.83992 -0.00931
C 1.21227 2.10728 -0.00939
C 1.21943 0.70904 -0.00468
C 1.17231 19.10047 -0.01678
C 30.72452 32.02134 0.0101
C 34.39671 19.8287 0.01951
C 1.29567 22.01102 0.02712
C 31.94731 12.76565 -0.00069
C 31.98912 11.3095 0.04926
C 33.22121 10.56524 -0.03838
C 33.20804 9.1729 0.00349
C 33.27827 2.05195 -0.00323
C 33.2157 0.73747 -0.00841
C 31.96884 0.07234 0.0001
C 0.00802 32.70966 -0.02927
C 1.2423 31.9925 -0.01404
C 1.22549 30.61909 0.01027
C 34.40693 29.94226 0.01831
C 0.00301 28.48837 -0.01037
C 1.22306 27.81786 -0.00439
C 1.2051 26.35573 -0.00598
C 34.4213 25.55695 -0.05239
C 0.01407 24.15828 0.03076
C 1.23172 23.43351 0.00723
C 0.0144 21.30582 -0.02213
C 3.62241 31.96899 0.03007
C 29.41574 32.75753 -0.00669
C 28.38606 17.80505 0.01836
C 17.14895 0.00323 0.02737
C 19.61755 32.57487 -0.00498
C 20.88063 31.89506 0.00135
C 20.94646 30.507 0.03102
C 19.68325 29.81636 0.02555
C 19.62958 28.39587 0.01423
C 20.84183 27.70347 -0.00285
C 18.46596 0.69197 0.02117
C 20.87977 26.27598 -0.009
C 19.63495 23.91364 -0.00229
C 20.88714 23.65083 -0.00938
C 21.07096 4.86327 -0.0264
C 19.65822 4.31491 -0.01154
C 19.67343 2.83529 0.00684
C 20.84365 2.11337 -0.01052
C 20.80583 0.66026 -0.01679
C 19.63231 25.58294 -0.01199
C 18.46988 2.12686 -0.04078
C 17.20331 2.83518 0.03005
C 17.10475 4.19707 -0.0276
C 14.76327 4.35511 0.03374
C 14.80729 2.94546 -0.02845
C 15.977 2.20627 -0.03213
C 15.97297 0.73375 0.02239
C 14.72551 0.09034 0.01153
C 17.22749 32.72187 0.02734
C 18.38603 31.89114 -0.0055
C 18.44747 30.47468 0.01515
C 17.18171 29.81351 -0.00225
C 17.16418 28.3717 0.00071
C 18.35851 27.70529 -0.01107
C 18.3992 26.25471 -0.01586
C 17.17509 25.54823 -0.01971
C 17.245 24.16221 -0.02118
C 18.36312 23.5236 0.00733
C 18.46939 6.33165 -0.00178
C 18.42171 4.97742 0.00768
C 19.63304 33.96869 0.00367
C 22.10262 32.61136 0.04306
C 23.38971 31.95699 0.00996
C 23.39359 30.48677 0.00195
C 25.77677 23.34171 0.01495
C 25.88005 21.98271 0.01259
C 24.72516 34.07298 0.01799
C 27.03625 32.65958 0.01699
C 28.27706 31.92186 -0.00416
C 28.26797 30.48183 0.01177
C 27.00489 29.79527 0.04266
C 27.12014 28.36709 0.01324
C 28.31854 27.6958 0.0014
C 28.20275 26.257 0.00924
C 26.9898 25.53487 0.02326
C 27.029 24.09749 0.00261
C 28.2008 23.40446 0.03265
C 28.27674 22.01771 -0.02049
C 26.96925 21.22055 -0.01854
C 27.10133 19.94755 -0.01415
C 28.08789 19.04538 -0.03039
C 24.56563 24.03139 0.00235
C 27.02987 34.00315 0.03531
C 24.5791 25.49851 0.01094
C 25.884 27.67574 0.02611
C 22.15733 29.77586 -0.00802
C 22.1314 28.32973 -0.00218
C 23.44077 27.64005 -0.01654
C 23.37582 26.2269 -0.00037
C 22.09573 25.54816 -0.0032
C 22.16851 24.05761 0.00622
C 23.36824 23.29343 -0.02815
C 22.04103 4.23747 -0.00942
C 22.17087 2.79516 0.00487
C 23.26487 2.07888 0.00826
C 23.52127 0.70992 -0.00294
C 22.13159 0.00136 0.00152
C 24.57634 32.68178 0.01257
C 25.82087 31.94467 0.02316
C 25.80852 30.54364 0.04185
C 24.61483 29.81926 0.00194
C 24.66455 28.37605 -0.00621
C 25.79496 26.25455 0.02198
C 2.4372 32.73301 0.00054
