438
Graphene
C 0.01865 0.02011 0.01295
C 13.5538 10.67884 -0.00334
C 13.50035 9.28034 0.02339
C 12.30381 8.56072 0.01641
C 12.30443 7.10853 -0.00719
C 13.55767 6.41226 0.01364
C 13.54637 4.96725 -0.01062
C 12.26626 4.24222 -0.00033
C 12.28236 2.82858 0.03589
C 13.47404 2.03842 -0.02759
C 13.52335 0.65383 0.0402
C 12.32705 0.07368 0.00572
C 14.80251 32.60587 0.03592
C 16.03445 31.91861 0.00406
C 16.02396 30.53579 0.00943
C 14.76701 29.85504 0.02841
C 14.76418 28.38242 -0.01111
C 15.9542 27.59495 -0.01275
C 15.93427 26.22249 0.00985
C 14.77597 25.47793 -0.02245
C 14.7012 24.10395 -0.00428
C 15.92749 23.43487 0.03101
C 16.00052 21.98656 -0.01536
C 14.77785 21.3537 -0.02689
C 12.20249 11.40738 -0.01634
C 14.77398 19.92121 -0.01046
C 12.33659 12.86376 0.00057
C 13.57337 14.9403 0.01291
C 11.08832 4.9854 -0.04848
C 9.80534 4.25615 -0.00892
C 9.83817 2.84513 -0.01362
C 11.06219 2.16197 -0.0008
C 11.08956 0.81943 0.0288
C 9.82557 0.03091 0.00393
C 12.29846 32.74348 0.00895
C 13.54588 31.8988 0.00685
C 13.50878 30.55816 0.02888
C 12.28896 29.8397 -0.00482
C 12.36213 28.42795 -0.01384
C 13.51208 27.6117 0.03693
C 13.54132 26.24313 0.01745
C 12.31284 25.51974 0.00488
C 12.23983 24.12503 -0.01004
C 13.48077 23.4143 -0.02896
C 13.57681 22.04791 -0.00131
C 12.31306 21.40235 -0.01118
C 12.29167 19.95616 -0.014
C 13.5268 19.29837 0.02147
C 13.48258 17.82817 0.00373
C 12.2877 16.97064 -0.00191
C 12.2582 15.59685 0.00438
C 13.52572 13.56461 0.00093
C 15.97416 19.1467 -0.00891
C 15.96055 17.7528 0.02819
C 14.7143 17.10174 0.00165
C 17.26949 19.82896 -0.01957
C 18.49067 19.19562 -0.0108
C 18.47862 17.72188 -0.00368
C 17.24495 17.04441 -0.02696
C 17.22575 15.5922 -0.00114
C 18.48006 14.8445 0.00228
C 18.37168 13.46878 0.00798
C 17.17917 12.71962 0.00422
C 17.23744 11.31237 0.0351
C 18.46662 10.60821 -0.03113
C 18.40435 9.22071 0.02098
C 17.14811 8.54051 0.01848
C 17.12489 7.11865 -0.00619
C 18.37514 6.4433 -0.02162
C 18.40363 5.02745 0.00889
C 17.2096 4.25872 -0.00481
C 17.25571 2.8341 0.00979
C 18.44051 2.09391 0.01443
C 18.43777 0.74892 0.03505
C 17.2138 0.03448 -0.02815
C 19.71553 32.67459 -0.04147
C 20.94457 31.91048 -0.05302
C 20.93174 30.48244 0.00213
C 17.1804 21.27172 0.02058
C 18.42514 22.00195 0.01965
C 18.41705 23.42671 -0.03682
C 17.19155 24.17033 0.00052
C 14.7124 15.6754 -0.02971
C 15.92684 14.95276 0.02894
C 15.92786 13.4699 -0.01789
C 14.6995 12.80478 0.00444
C 14.79675 11.38639 -0.00925
C 16.03051 10.61468 0.01877
C 15.92295 9.18414 0.01363
C 14.7188 8.49106 -0.02162
C 14.7877 7.07865 0.00415
C 15.95123 6.35956 -0.0014
C 15.95146 4.9551 0.02162
C 11.14506 6.3708 0.01572
C 14.77041 4.26225 0.0076
C 15.96891 2.16706 -0.01454
C 15.98673 0.67409 0.01945
C 14.75662 34.04879 0.01416
C 17.2383 32.6826 0.03542
C 18.45638 31.99274 0.02299
C 18.45353 30.50074 0.00244
C 17.21076 29.81157 -0.01717
C 17.15608 28.4235 0.05265
C 18.41959 27.71081 -0.01952
C 18.44175 26.28178 -0.02813
C 17.17523 25.60591 0.00374
C 14.73614 2.76139 0.01241
C 9.87657 7.15066 -0.00095
C 9.87046 8.55558 0.03007
C 11.06715 9.23528 0.00054
C 3.62561 0.72754 0.00828
C 2.48248 0.03542 -0.02375
C 4.97946 32.68678 0.00558
C 4.92485 25.46846 -0.0059
C 4.85417 24.19014 -0.01386
C 6.19465 23.37823 -0.02805
C 6.23149 22.00615 0.00081
C 4.96063 21.27679 0.00245
C 4.96812 19.85898 0.02728
C 6.20082 19.1233 -0.00039
C 6.12236 17.73464 0.0064
C 4.86562 17.11685 0.00211
C 4.92188 15.63972 -0.00449
C 6.16896 14.92411 -0.01979
C 6.15133 13.48725 0.02784
C 4.9643 12.73565 -0.01977
C 4.92116 11.31621 -0.00561
C 6.18008 10.61651 0.00208
C 6.09393 9.21173 0.01707
C 4.82954 8.57535 0.02769
C 4.86891 7.20645 -0.03291
C 6.11856 6.42769 -0.04999
C 6.13939 5.01168 0.04505
C 3.66304 2.10788 0.00088
C 2.50229 2.8482 0.04421
C 2.50655 4.334 -0.00177
C 3.68386 4.99694 0.03278
C 3.58214 30.51736 -0.00018
C 2.41805 29.74995 0.01073
C 2.4487 28.31453 0.01984
C 3.71226 27.71805 0.00535
C 3.77123 26.30178 -0.00198
C 2.46153 25.59317 -0.00012
C 2.44061 24.23866 -0.04306
C 3.64987 23.46541 -0.03672
C 3.76034 21.99489 0.01913
C 2.51913 21.35092 0.00267
C 2.48685 19.89422 0.00787
C 4.88843 4.18451 0.03284
C 3.71223 19.19792 0.02426
C 2.41996 17.04109 -0.01471
C 2.43379 15.56279 -0.02827
C 3.68718 14.90412 0.01078
C 3.67132 13.50675 -0.00112
C 2.41026 12.77485 0.03345
C 2.45257 11.31921 0.00748
C 3.67373 10.66319 0.00662
C 3.6658 9.26878 -0.0154
C 2.47541 8.54023 -0.01299
C 2.45756 7.07695 -0.00407
C 3.72013 6.40538 0.01138
C 3.65407 17.78637 0.01218
C 19.69361 29.79857 -0.00066
C 4.85299 2.79447 -0.04307
C 6.15415 0.7075 0.00031
C 7.39755 0.05143 0.01087
C 9.788 32.71772 -0.01343
C 11.09835 32.08241 0.00988
C 11.00129 30.6357 0.0276
C 9.77224 29.85855 0.01305
C 9.84161 28.52173 -0.00077
C 10.97226 27.70365 0.03368
C 11.06532 26.32251 -0.02929
C 9.83632 25.57971 -0.00966
C 9.81921 24.16322 -0.03337
C 10.99837 23.47707 0.01227
C 11.04871 22.04917 0.00873
C 9.88652 21.32691 -0.00049
C 9.77743 19.89816 0.00848
C 10.98155 19.22247 -0.01303
C 11.07161 17.71604 -0.01378
C 9.81864 17.08855 0.02635
C 9.77842 15.6623 0.0127
C 11.03127 14.98801 0.01396
C 11.13285 13.5527 0.01849
C 9.9015 12.74087 -0.01142
C 9.84479 11.37329 -0.00562
C 11.00579 10.67463 -0.00494
C 8.62991 0.73877 -0.05697
C 8.52645 2.20592 -0.00725
C 7.26305 2.84563 0.02322
C 7.32687 4.23847 -0.00094
C 4.89541 33.97186 -0.003
C 7.41041 32.73348 0.01402
C 8.4671 31.99504 0.02379
C 8.57622 26.32653 0.00907
C 7.43014 25.56914 0.00643
C 7.37128 24.15041 -0.01509
C 8.59357 23.48925 0.03267
C 8.68237 22.01952 0.02374
C 7.43699 21.34666 0.00402
C 7.35389 19.89339 0.0073
C 8.54493 19.18467 0.0174
C 6.08028 2.10792 0.03189
C 8.5646 17.80749 0.03828
C 7.48314 15.54845 -0.00279
C 8.62231 14.86096 0.01996
C 8.70364 13.44125 -0.03996
C 7.37169 12.81918 0.01465
C 7.39951 11.40515 -0.00074
C 8.6028 10.65866 -0.00518
C 8.57873 9.22168 0.0086
C 7.35671 8.53124 -0.00643
C 7.38838 7.10866 0.017
C 8.64065 6.43304 -0.03113
C 8.59057 4.89982 -0.02566
C 7.36195 17.02565 0.01226
C 19.68639 28.38351 -0.00289
C 20.8905 27.71566 0.00028
C 20.88862 26.24381 -0.02213
C 30.65088 14.88316 -0.0405
C 30.76878 13.43255 -0.01303
C 29.48453 12.74346 -0.01461
C 29.46137 11.37964 -0.02155
C 30.70088 10.66724 -0.00944
C 30.69474 9.18268 -0.03735
C 29.50188 8.51249 -0.00971
C 29.51588 7.04433 0.01518
C 30.78572 6.37205 0.01908
C 30.77654 4.97236 0.07705
C 29.61116 4.24061 0.0103
C 29.5023 2.7238 0.02108
C 30.79132 2.11478 0.00716
C 30.77808 0.68697 0.00307
C 29.48186 0.0293 0.00346
C 32.00084 32.64366 0.01713
C 33.19585 31.96285 -0.01694
C 33.19761 30.56853 0.01428
C 31.97285 29.90332 -0.02142
C 31.93265 28.42646 0.0544
C 33.18263 27.73806 0.00026
C 33.17511 26.31333 0.00682
C 31.94457 25.56815 -0.01779
C 29.49611 15.64066 0.01705
C 29.56732 17.06857 0.0101
C 30.78553 17.74049 -0.00669
C 30.70427 19.12521 0.03531
C 28.26644 10.70597 0.00194
C 28.29897 9.26773 -0.00621
C 27.06731 8.55614 0.02611
C 26.98965 7.01151 0.02198
C 28.22365 6.34815 0.01094
C 28.30966 4.93101 0.00235
C 27.13521 4.24492 0.01495
C 27.02321 2.81595 0.01259
C 28.20771 2.107 0.01799
C 28.24237 0.66991 0.01699
C 26.98901 34.07004 -0.00416
C 31.98501 24.08886 0.03794
C 29.54072 32.71976 0.01177
C 30.75283 30.57901 0.01324
C 29.5325 29.81316 0.0014
C 29.52041 28.40013 0.00924
C 30.68358 27.67055 0.02326
C 30.68661 26.24894 0.00261
C 29.48236 25.53693 0.03265
C 29.53665 24.09903 -0.02049
C 30.76925 23.41284 -0.01854
C 30.75645 22.03884 -0.01415
C 29.50113 21.33121 -0.03039
C 29.49084 19.95659 0.01836
C 30.68473 32.00398 0.04266
C 27.01947 11.36555 0.04185
C 33.19921 23.48013 0.01927
C 31.95149 21.29059 -0.02383
C 0.02994 24.16239 0.03076
C 1.20743 23.4061 0.00723
C 1.23817 22.00381 0.02712
C 34.41652 21.34813 -0.02213
C 34.41764 19.94276 0.01951
C 1.21805 19.13599 -0.01678
C 1.20439 17.71549 0.01223
C 34.36707 17.02291 0.00648
C 34.40139 15.59944 0.02114
C 1.20576 14.86475 -0.02957
C 1.16111 13.39583 0.00343
C 34.38807 12.76423 -0.02656
C 0.02143 11.32103 -0.02442
C 1.22075 10.57954 -0.00027
C 1.19282 9.23017 -0.00583
C 0.03523 8.46126 -0.02302
C 0.01651 7.06091 -0.02849
C 1.26712 6.39127 0.02931
C 1.21501 4.9345 0.00628
C 34.43085 4.19904 -0.0345
C 34.39848 2.75939 -0.00931
C 1.20552 2.12345 -0.00939
C 1.21384 0.74608 -0.00468
C 0.02587 25.54104 -0.05239
C 1.20346 26.31677 -0.00598
C 1.11909 27.72301 -0.00439
C 34.37793 28.41066 -0.01037
C 31.93285 19.81214 -0.01429
C 33.17836 19.18159 -0.0136
C 33.24696 17.74598 0.00594
C 32.02567 17.00668 -0.02474
C 31.86622 15.63601 0.00369
C 33.10627 14.84429 0.00455
C 33.17129 13.44468 -0.00644
C 32.01374 12.69331 -0.01839
C 32.01325 11.28755 0.00137
C 33.26699 10.5842 0.00199
C 33.26645 9.1547 0.04381
C 33.18224 22.05594 0.01574
C 31.98534 8.49248 0.02806
C 33.18973 6.35638 -0.00069
C 33.20148 4.96013 0.04926
C 32.03768 4.21737 -0.03838
C 32.04851 2.76313 0.00349
C 33.20892 2.04713 -0.00323
C 33.21194 0.68632 -0.00841
C 31.99379 34.03547 0.0001
C 0.02471 32.66414 -0.02927
C 1.29557 31.96361 -0.01404
C 1.19497 30.53875 0.01027
C 34.41985 29.86148 0.01831
C 32.033 7.06514 0.01504
C 3.81463 31.8965 -0.0005
C 27.06554 12.81739 0.02316
C 28.28235 14.95744 0.00152
C 22.13839 29.75055 -0.04076
C 22.14072 28.35442 -0.00652
C 23.39816 27.71427 0.0058
C 23.34996 26.32713 -0.00865
C 22.10166 25.55801 0.00675
C 22.12652 24.14303 -0.00311
C 23.33518 23.45779 0.00742
C 23.3341 22.05237 -0.01594
C 22.13601 21.36697 0.0106
C 22.09155 19.9312 -0.01154
C 23.3162 19.18514 -0.01721
C 23.37216 17.79909 -0.02422
C 22.18667 17.02046 0.01277
C 22.1727 15.61141 0.00096
C 23.30628 14.82857 -0.01527
C 23.38039 13.50922 0.01087
C 22.14136 12.77622 0.00199
C 22.2498 11.41018 0.01511
C 23.39165 10.66619 -0.00478
C 23.36395 9.22041 -0.01662
C 22.14768 8.50994 -0.01185
C 22.03627 7.14954 0.01126
C 23.29155 6.44181 0.01852
C 23.3495 30.54092 -0.00703
C 23.35424 31.9288 0.00654
C 22.15585 32.6117 -0.04422
C 19.60398 34.07419 -0.02957
C 19.67285 25.55542 0.03698
C 19.66198 24.20484 -0.00109
C 20.85229 23.42762 -0.00491
C 20.8857 22.02125 0.03338
C 19.63618 21.29931 -0.0258
C 19.69261 19.90591 -0.0331
C 20.91619 19.1517 -0.00316
C 20.96351 17.6689 0.02188
C 19.6896 17.02049 -0.01979
C 19.6799 15.56107 0.02691
C 20.89202 14.8912 -0.01581
C 23.42938 5.0518 -0.00381
C 20.88845 13.46601 0.01452
C 19.62856 11.2643 -0.00111
C 20.93514 10.65287 -0.03557
C 20.87876 9.23341 0.03754
C 19.61986 8.54603 0.01739
C 19.67295 7.09863 0.00755
C 20.89204 6.40701 -0.0054
C 20.96122 4.96756 0.00667
C 19.63754 4.29967 0.00143
C 19.65531 2.82633 -0.017
C 20.89914 2.13308 0.00364
C 20.89202 0.73731 -0.00831
C 19.61219 12.74923 0.04892
C 28.24267 13.48026 0.01257
C 22.1846 4.26554 0.03046
C 23.35999 2.09398 0.03374
C 25.85097 4.93122 -0.01199
C 24.66906 4.25307 -0.00229
C 24.53956 2.86826 -0.00938
C 25.8288 2.16301 -0.0264
C 25.76205 0.73086 -0.01154
C 24.6209 0.0181 0.00684
C 27.06848 32.6863 -0.01052
C 28.26737 32.00815 -0.01679
C 28.31788 30.49841 0.00367
C 27.01399 29.79441 0.04306
C 27.10948 28.42182 0.00996
C 28.29364 27.73398 0.00195
C 28.29199 26.30163 -0.00802
C 27.06052 25.60462 -0.00218
C 27.09377 24.15021 -0.01654
C 28.29132 23.34987 -0.00037
C 28.23842 21.9259 -0.0032
C 27.06661 21.25831 0.00622
C 26.98818 19.85494 -0.02815
C 28.22465 19.18946 -0.00942
C 28.26442 17.75715 0.00487
C 26.98471 17.07048 0.00826
C 27.08066 15.64469 -0.00294
C 25.73395 6.28471 -0.009
C 24.50892 7.10564 -0.00285
C 24.5845 8.53284 0.01423
C 25.86885 9.2639 0.02555
C 23.35139 0.62359 -0.02845
C 22.13926 34.05839 -0.03213
C 24.59177 32.66454 0.02239
C 25.77163 31.97407 0.01153
C 25.82455 30.58053 0.02734
C 24.58344 29.79819 -0.0055
C 24.63659 28.36169 0.01515
C 25.8637 27.69223 -0.00225
C 25.8256 26.25971 0.00071
C 24.58163 25.57339 -0.01107
C 24.60745 24.17072 -0.01586
C 22.13759 2.83361 0.0296
C 25.85334 23.45594 -0.01971
C 24.58962 21.27301 0.00733
C 24.51278 19.92196 -0.00178
C 25.76808 19.14406 0.00768
C 25.69691 17.70777 -0.0276
C 24.49091 17.03085 0.03005
C 24.54794 15.6508 -0.04078
C 25.83987 15.0 0.02117
C 25.83533 13.53843 0.02737
C 24.61021 12.79621 -0.00498
C 24.6071 11.33135 0.00135
C 25.82642 10.62735 0.03102
C 25.82401 22.03857 -0.02118
C 2.46706 32.74016 0.01116
