339
Graphene
C 34.41558 0.0343 0.01295
C 9.7874 7.07434 -0.02162
C 11.16126 6.35295 0.00889
C 11.08056 4.95069 -0.00481
C 9.79905 4.30955 0.00979
C 9.8464 2.90274 0.01443
C 11.06759 2.06655 0.03505
C 11.02615 0.66824 -0.02815
C 9.81623 0.041 -0.04147
C 12.28263 32.67432 -0.05302
C 13.51602 31.97521 0.00213
C 13.53326 30.52619 -0.00066
C 12.33517 29.8111 -0.00289
C 12.45322 28.37115 0.00028
C 13.75037 27.85521 -0.02213
C 13.48337 9.30157 0.03698
C 12.24851 8.68149 -0.00109
C 12.39093 7.16983 -0.00491
C 9.71982 8.51088 -0.00619
C 13.56693 6.39419 0.03338
C 10.9734 9.00963 0.01848
C 9.93289 19.98323 -0.03113
C 8.55074 6.40464 0.05265
C 8.60601 4.98035 -0.01952
C 7.36035 4.30871 -0.02813
C 7.37299 2.93349 0.00374
C 8.54095 2.21146 0.00052
C 8.59537 0.77819 -0.03682
C 7.40279 0.01124 0.01965
C 9.84044 32.59046 0.02058
C 11.07448 31.88599 -0.01957
C 11.09636 30.45852 -0.0108
C 9.85159 29.81912 -0.00368
C 9.83096 28.4139 -0.02696
C 11.15733 27.72098 -0.00114
C 11.0964 26.41691 0.00228
C 10.01496 25.53166 0.00798
C 9.89806 24.15486 0.00422
C 9.91368 21.40231 0.0351
C 10.67355 18.84895 0.02098
C 13.51122 4.89926 -0.0258
C 12.28535 4.21111 -0.0331
C 12.27913 2.87327 -0.00316
C 17.32909 15.50714 -0.00652
C 18.61442 15.02781 0.0058
C 18.51825 13.54338 -0.00865
C 17.24214 12.97956 0.00675
C 17.05018 11.54519 -0.00311
C 18.33865 10.7345 0.00742
C 18.37101 9.31645 -0.01594
C 17.15262 8.50014 0.0106
C 17.21497 7.07954 -0.01154
C 18.42466 6.33568 -0.01721
C 18.42076 4.96584 -0.02422
C 17.22526 4.28823 0.01277
C 17.18153 2.83293 0.00096
C 18.42257 2.12796 -0.01527
C 18.44773 0.69632 0.01087
C 17.21398 34.03694 0.00199
C 19.59486 32.63501 0.01511
C 17.1524 29.87459 -0.04076
C 18.466 30.28062 -0.00703
C 18.42211 31.84807 0.00654
C 17.15589 32.63088 -0.04422
C 13.49703 2.08956 0.02188
C 13.42507 0.62425 -0.01979
C 12.24748 34.02407 0.02691
C 14.74116 32.70429 -0.01581
C 15.93183 31.91177 0.01452
C 15.92425 30.41705 0.04892
C 14.71929 29.69287 -0.00111
C 16.11596 10.57086 -0.03557
C 7.33342 7.15789 -0.01717
C 15.92119 9.23121 0.03754
C 14.75308 7.14761 0.00755
C 15.97613 6.38137 -0.0054
C 15.92517 4.99027 0.00667
C 14.77308 4.19914 0.00143
C 14.78577 2.78886 -0.017
C 16.02396 2.13141 0.00364
C 15.96331 0.63471 -0.00831
C 14.67197 0.04177 -0.02957
C 14.67122 8.59253 0.01739
C 20.91295 32.0026 -0.00478
C 7.28833 8.50763 0.00244
C 8.48626 10.5873 0.03542
C 2.42709 8.48967 -0.01384
C 2.44559 7.11334 0.03693
C 3.67032 6.34021 0.01745
C 3.649 4.98998 0.00488
C 2.4097 4.23387 -0.01004
C 2.42408 2.83791 -0.02896
C 3.755 2.21152 -0.00131
C 3.73296 0.75406 -0.01118
C 2.44186 0.07942 -0.014
C 4.96083 32.66963 0.02147
C 6.16169 32.05365 0.00373
C 6.08679 30.63734 -0.00191
C 4.87404 29.91191 0.00438
C 4.8415 28.45872 0.01291
C 6.08585 27.75847 0.00093
C 6.15246 26.27449 0.00057
C 4.89317 25.56247 -0.01634
C 3.70678 9.30455 -0.00482
C 4.9115 24.13279 -0.00334
C 3.6723 10.6626 0.02888
C 2.44328 12.77138 0.00895
C 3.67485 30.64444 0.02635
C 2.45128 29.97814 0.0127
C 2.46422 28.53004 0.01396
C 3.66376 27.73729 0.01849
C 3.66669 26.32759 -0.01142
C 2.39094 25.6208 -0.00562
C 2.44866 24.11946 -0.00494
C 3.69756 23.4418 0.00054
C 3.69487 22.03387 0.03007
C 2.54251 21.24213 -0.00095
C 2.53203 19.87136 0.01572
C 3.68877 19.13788 -0.04848
C 3.67577 17.7562 -0.00892
C 2.44388 17.04917 -0.01362
C 2.45832 15.62324 -0.0008
C 3.67259 14.88886 0.0288
C 3.6812 13.52115 0.00393
C 2.43334 11.31452 0.00685
C 6.13026 23.42456 0.02339
C 6.25797 21.95929 0.01641
C 4.9684 21.26146 -0.00719
C 8.6102 30.56806 0.00165
C 7.3269 29.82596 -0.02971
C 7.32593 28.38843 0.02894
C 8.61238 27.78324 -0.01789
C 8.66065 26.30446 0.00444
C 7.43273 25.61557 -0.00925
C 7.39695 24.13012 0.01877
C 8.67672 23.3944 0.01363
C 8.7565 21.95787 -0.02162
C 7.45934 21.23909 0.00415
C 7.32134 19.84632 -0.0014
C 8.52315 19.1561 0.02162
C 8.68061 17.75316 0.0076
C 7.56282 16.95515 0.01241
C 7.2431 15.60844 -0.01454
C 7.41303 12.94502 0.01945
C 7.51002 11.58371 0.01416
C 8.58545 31.96481 0.02819
C 7.37567 32.67344 -0.00891
C 4.98111 0.07919 -0.01046
C 6.21511 0.79527 -0.02689
C 4.93157 19.79448 0.01364
C 6.17559 19.04407 -0.01062
C 6.22752 17.61826 -0.00033
C 4.88133 17.00819 0.03589
C 4.85764 15.59958 -0.02759
C 6.06998 14.94552 0.0402
C 6.14491 13.54392 0.00572
C 4.93514 12.8311 0.03592
C 8.49755 9.19145 0.02299
C 4.90579 11.37666 0.00406
C 6.11904 9.32683 0.02841
C 4.88071 8.56664 -0.01111
C 4.84478 7.1629 -0.01275
C 6.12002 6.45124 0.00985
C 6.09941 5.03341 -0.02245
C 4.84158 4.24437 -0.00428
C 4.97084 2.79453 0.03101
C 6.2136 2.14537 -0.01536
C 6.15762 10.69231 0.00943
C 3.7021 32.04274 -0.01378
C 20.92115 30.55375 -0.01662
C 19.79568 15.87983 0.01126
C 33.21287 31.99555 -0.02142
C 33.2015 30.54455 0.0544
C 31.86401 29.85375 0.00026
C 31.99375 28.44911 0.00682
C 33.11706 27.61511 -0.01779
C 33.26957 26.23927 0.03794
C 33.19405 23.45747 0.01927
C 32.97271 22.0609 0.01574
C 31.7879 21.30526 -0.02383
C 31.95535 19.89426 -0.01429
C 33.20737 19.20193 -0.0136
C 33.18774 17.74979 0.00594
C 31.9679 17.10157 -0.02474
C 31.93878 15.64994 0.00369
C 33.19242 14.97299 0.00455
C 33.19944 13.51665 -0.00644
C 31.94266 12.80164 -0.01839
C 31.96264 32.73679 0.01428
C 31.97064 11.34194 0.00137
C 29.51831 0.00889 -0.01694
C 30.74611 2.12927 0.00346
C 29.49195 19.7199 -0.00669
C 30.71418 19.14732 0.0101
C 30.71664 17.73401 0.01705
C 29.41279 17.01134 -0.0405
C 29.45018 15.58784 -0.01303
C 30.71933 14.97458 -0.01461
C 30.74475 13.54246 -0.02155
C 29.46229 12.7816 -0.00944
C 29.51712 11.37489 -0.03735
C 30.76382 10.63366 -0.00971
C 30.61653 9.21895 0.01518
C 29.38226 8.51317 0.01908
C 29.49299 7.06057 0.07705
C 30.67443 6.3807 0.0103
C 30.74033 5.0216 0.02108
C 29.48916 4.24536 0.00716
C 29.51136 2.8096 0.00307
C 30.70451 0.73229 0.01713
C 33.14696 10.64777 0.00199
C 33.12103 9.23801 0.04381
C 31.9007 8.49418 0.02806
C 1.1884 17.75188 0.01223
C 34.40099 16.98284 0.00648
C 34.4264 15.68404 0.02114
C 1.23432 14.88207 -0.02957
C 1.21148 13.48455 0.00343
C 34.41763 12.72207 -0.02656
C 34.40892 11.38271 -0.02442
C 1.21692 10.59797 -0.00027
C 1.18016 9.17157 -0.00583
C 34.37457 8.51161 -0.02302
C 34.4021 7.09609 -0.02849
C 1.18527 6.39107 0.02931
C 1.22168 4.94505 0.00628
C 34.4218 4.26214 -0.0345
C 34.41149 2.9081 -0.00931
C 1.19556 2.13107 -0.00939
C 1.2395 0.69079 -0.00468
C 1.2735 19.21511 -0.01678
C 34.41577 19.92733 0.01951
C 34.41262 21.2868 -0.02213
C 1.21158 21.92039 0.02712
C 31.92556 7.1145 0.01504
C 33.16306 6.37404 -0.00069
C 33.17547 4.95104 0.04926
C 31.96734 4.23748 -0.03838
C 31.96013 2.85135 0.00349
C 33.18409 2.15985 -0.00323
C 33.15678 0.72077 -0.00841
C 31.96066 0.04779 0.0001
C 30.7385 30.61522 0.03531
C 34.40762 32.74902 -0.02927
C 1.22521 30.59896 0.01027
C 34.40832 29.86037 0.01831
C 34.41158 28.49477 -0.01037
C 1.21398 27.73778 -0.00439
C 1.22504 26.33646 -0.00598
C 34.42924 25.542 -0.05239
C 0.0009 24.17185 0.03076
C 1.23767 23.41531 0.00723
C 1.20492 32.05369 -0.01404
C 19.72839 29.87799 -0.01185
C 30.79042 31.99541 0.01836
C 26.99453 33.89896 -0.01415
C 22.31717 16.96532 -0.0276
C 22.14665 15.65371 0.03005
C 23.29812 14.93465 -0.04078
C 23.32187 13.48977 0.02117
C 22.10366 12.74367 0.02737
C 22.12775 11.34919 -0.00498
C 23.34222 10.65561 0.00135
C 23.32481 9.22102 0.03102
C 22.08703 8.44513 0.02555
C 22.0937 7.07948 0.01423
C 23.3394 6.4236 -0.00285
C 23.34597 5.05081 -0.009
C 22.11854 4.27672 -0.01199
C 22.0608 2.90969 -0.00229
C 23.32926 2.19333 -0.00938
C 23.29831 0.79082 -0.0264
C 22.17004 0.02585 -0.01154
C 23.36006 17.78953 0.00768
C 24.57339 32.65189 0.00684
C 22.07611 28.32769 -0.00178
C 23.364 30.55229 -0.02118
C 20.87803 14.98355 0.01852
C 20.89793 13.50946 -0.00381
C 19.7036 12.72728 0.03046
C 19.5913 11.40612 0.0296
C 20.8199 10.69304 0.03374
C 20.88201 9.22194 -0.02845
C 19.57573 8.48936 -0.03213
C 19.62148 7.13795 0.02239
C 20.92 6.39665 0.01153
C 20.82972 4.98436 0.02734
C 19.63618 4.24787 -0.0055
C 19.68268 2.83248 0.01515
C 20.92232 2.12522 -0.00225
C 20.8758 0.73071 0.00071
C 19.64112 0.00319 -0.01107
C 22.11906 32.66508 -0.01586
C 23.39563 31.90393 -0.01971
C 22.26538 29.75391 0.00733
C 25.82887 32.03619 -0.01052
C 24.47053 19.71036 -0.01679
C 25.68623 19.13975 0.00367
C 28.13935 17.78784 0.01094
C 26.96612 16.99996 0.00235
C 27.02502 15.5673 0.01495
C 28.26125 14.92434 0.01259
C 28.24134 13.52673 0.01799
C 27.05158 12.75731 0.01699
C 27.06487 11.35502 -0.00416
C 28.24171 10.64926 0.01177
C 28.23203 9.2226 0.04266
C 27.00908 8.4846 0.01324
C 27.07072 7.05056 0.0014
C 28.2958 6.32001 0.00924
C 28.33563 4.95852 0.02326
C 27.1135 4.21351 0.00261
C 27.02683 2.81096 0.03265
C 28.22788 2.03389 -0.02049
C 28.20461 0.67268 -0.01854
C 28.15561 19.30381 0.02198
C 26.89053 19.95144 0.02611
C 28.34152 31.82407 -0.00621
C 27.09504 32.34811 0.00194
C 25.76557 17.74172 0.04306
C 24.5301 17.07701 0.00996
C 24.54305 15.68357 0.00195
C 25.75209 14.91863 -0.00802
C 25.79566 13.47876 -0.00218
C 24.56942 12.76026 -0.01654
C 24.58977 11.30943 -0.00037
C 25.81034 10.66461 -0.0032
C 29.53956 32.63972 -0.03039
C 25.73009 9.18335 0.00622
C 24.60904 7.08324 -0.00942
C 25.82575 6.33461 0.00487
C 25.92905 4.91219 0.00826
C 24.61131 4.29492 -0.00294
C 24.54579 2.82863 0.00152
C 25.80677 2.17181 0.01257
C 25.74976 0.66577 0.02316
C 24.54873 0.03295 0.04185
C 24.53742 8.49546 -0.02815
C 2.47444 32.73832 -0.01303
