384
Graphene
C 34.36404 0.01154 0.01295
C 11.04857 2.20121 0.02162
C 11.05197 0.74387 0.0076
C 9.80333 0.0422 0.01241
C 12.32115 32.64176 -0.01454
C 13.53672 31.92324 0.01945
C 13.51741 30.58047 0.01416
C 12.3877 29.72068 0.03542
C 12.37822 28.27549 0.02299
C 13.42618 26.42327 0.00244
C 9.76444 2.93019 -0.0014
C 12.31012 25.58421 -0.01717
C 13.52371 23.44863 -0.01952
C 13.5301 22.02681 -0.02813
C 12.33634 21.27671 0.00374
C 12.28435 19.87504 0.00052
C 13.48172 19.07055 -0.03682
C 13.51606 17.66103 0.01965
C 12.26969 16.9447 0.02058
C 12.34517 15.50521 -0.01957
C 13.87921 14.68583 -0.0108
C 12.29578 24.13033 0.05265
C 13.53364 13.34482 -0.00368
C 9.79965 4.36348 0.00415
C 11.07427 6.46632 0.01363
C 11.06441 27.7274 0.00943
C 10.97287 26.27938 0.02841
C 9.77149 25.61366 -0.01111
C 9.86137 24.22595 -0.01275
C 11.07026 23.48889 0.00985
C 11.05005 22.06212 -0.02245
C 9.86079 21.36441 -0.00428
C 9.84195 19.93093 0.03101
C 11.05867 19.14314 -0.01536
C 11.1713 5.01765 -0.02162
C 11.0429 17.73871 -0.02689
C 9.85637 15.57238 -0.00891
C 11.06519 14.88527 0.02819
C 11.0212 13.45357 0.00165
C 9.78025 12.7106 -0.02971
C 9.81411 11.35641 0.02894
C 11.07222 10.67499 -0.01789
C 11.18573 9.2735 0.00444
C 9.86427 8.62556 -0.00925
C 9.85283 7.15911 0.01877
C 9.80183 17.10807 -0.01046
C 9.80773 28.43743 0.00406
C 12.22526 12.84603 -0.02696
C 13.39471 10.6382 0.00228
C 14.67037 2.75411 0.03338
C 15.95618 2.03324 -0.0258
C 15.97181 0.65132 -0.0331
C 14.75662 33.97472 -0.00316
C 17.27315 32.56978 0.02188
C 18.53811 31.86076 -0.01979
C 18.45128 30.45673 0.02691
C 17.14207 29.86237 -0.01581
C 17.22882 28.37476 0.01452
C 14.76038 4.1874 -0.00491
C 18.41292 27.64768 0.04892
C 17.22723 25.49914 -0.03557
C 17.18121 24.10513 0.03754
C 18.40752 23.39934 0.01739
C 18.41406 21.97316 0.00755
C 17.21766 21.21463 -0.0054
C 17.16908 19.82287 0.00667
C 18.4352 19.08872 0.00143
C 18.32509 17.64016 -0.017
C 17.0498 17.02798 0.00364
C 18.45972 26.29926 -0.00111
C 12.17956 11.43251 -0.00114
C 14.84132 15.60095 -0.00109
C 15.91979 17.71194 -0.02213
C 13.48894 9.49997 0.00798
C 12.37823 8.50663 0.00422
C 12.38587 7.08605 0.0351
C 13.46779 6.34859 -0.03113
C 13.69569 5.02705 0.02098
C 12.43791 4.31521 0.01848
C 12.29363 2.90111 -0.00619
C 13.50374 2.07422 -0.02162
C 13.55144 0.64993 0.00889
C 14.65564 17.01866 0.03698
C 12.30917 0.01694 -0.00481
C 16.09886 31.74145 0.01443
C 16.05739 26.44651 0.03505
C 14.81811 25.70233 -0.02815
C 14.78815 24.2254 -0.04147
C 15.95132 23.42859 -0.05302
C 15.96202 21.91214 0.00213
C 14.68591 21.22993 -0.00066
C 14.63606 19.81185 -0.00289
C 15.85829 19.12692 0.00028
C 14.80511 32.51175 0.00979
C 17.15222 2.88943 -0.00831
C 9.84301 29.8686 0.03592
C 11.05762 31.97699 0.0402
C 3.66797 2.22904 -0.02566
C 3.63679 0.79799 -0.00094
C 2.38268 0.10624 0.02322
C 4.9038 32.72158 -0.00725
C 6.07935 32.07135 -0.05697
C 6.08238 30.62969 0.01087
C 4.85348 29.85379 -0.01343
C 4.915 28.43952 0.00988
C 6.08941 27.7717 0.0276
C 2.36993 2.83869 -0.03113
C 6.14436 26.37331 0.01305
C 4.86835 24.25195 0.03368
C 6.11563 23.50662 -0.02929
C 6.13661 22.07695 -0.00966
C 4.87234 21.35769 -0.03337
C 4.93417 19.92108 0.01227
C 6.24354 19.25419 0.00873
C 6.22203 17.7753 -0.00049
C 4.92531 17.21792 0.00848
C 4.84049 15.78902 -0.01303
C 4.86042 25.66338 -0.00077
C 6.08683 15.00687 -0.01378
C 2.35101 4.34658 0.017
C 3.58979 6.42598 0.0086
C 3.59039 30.64044 0.00031
C 2.35895 29.8641 -0.003
C 2.43171 28.37691 0.01402
C 3.67597 27.72249 0.02379
C 3.65662 26.28089 0.00907
C 2.31766 25.57863 0.00643
C 2.44295 24.16638 -0.01509
C 3.57684 23.39913 0.03267
C 3.62164 22.02292 0.02374
C 3.63068 5.02952 -0.00643
C 2.43805 21.22198 0.00402
C 3.80584 19.09082 0.0174
C 3.48845 14.91519 0.03828
C 3.66863 13.55947 0.01226
C 2.45824 12.73604 -0.00279
C 2.42986 11.31329 0.01996
C 3.66641 10.6646 -0.03996
C 3.66257 9.26654 0.01465
C 2.37441 8.53672 -0.00074
C 2.35814 7.10345 -0.00518
C 2.50051 19.78191 0.0073
C 11.12043 30.51441 0.00572
C 6.12646 13.50672 0.02635
C 4.85164 11.30393 0.01396
C 8.622 19.24073 -0.00131
C 8.63019 17.79923 -0.01118
C 7.44275 17.09988 -0.014
C 7.37838 15.63948 0.02147
C 8.60107 14.86509 0.00373
C 8.61352 13.48094 -0.00191
C 7.3837 12.70396 0.00438
C 7.31792 11.3566 0.01291
C 8.57047 10.69385 0.00093
C 7.37998 20.00331 -0.02896
C 8.54913 9.25349 0.00057
C 7.34128 7.15707 -0.00334
C 8.54462 6.40485 0.02339
C 8.60502 5.00398 0.01641
C 7.34708 4.34363 -0.00719
C 7.35735 2.92166 0.01364
C 8.60038 2.19623 -0.01062
C 8.56063 0.722 -0.00033
C 7.30201 0.09034 0.03589
C 9.79807 32.70756 -0.02759
C 7.30334 8.56667 -0.01634
C 4.84279 12.73834 0.0127
C 7.4048 21.37419 -0.01004
C 8.5581 23.57604 0.01745
C 6.08291 10.66421 0.01849
C 6.11652 9.22146 -0.01142
C 4.8167 8.54252 -0.00562
C 4.82784 7.15694 -0.00494
C 6.07147 6.48517 0.00054
C 6.09418 5.07687 0.03007
C 4.89992 4.31156 -0.00095
C 4.89528 2.93308 0.01572
C 6.1284 2.18327 -0.04848
C 8.61075 22.09383 0.00488
C 6.13443 0.80553 -0.00892
C 7.28997 32.76922 -0.0008
C 8.56784 32.03824 0.0288
C 8.61416 30.63518 0.00393
C 7.34959 29.88224 0.00895
C 7.33332 28.49234 0.00685
C 8.57872 27.78312 0.02888
C 8.64653 26.45043 -0.00482
C 7.38378 25.72563 -0.01384
C 7.32336 24.28289 0.03693
C 4.90057 0.14811 -0.01362
C 18.36549 2.26489 -0.02957
C 18.43475 0.75861 -0.04422
C 17.2326 34.04097 0.00654
C 29.39706 4.22907 0.0103
C 29.36849 2.82023 0.02108
C 30.60732 2.12692 0.00716
C 30.66769 0.70717 0.00307
C 29.4695 0.00425 0.00346
C 31.9205 32.70782 0.01713
C 33.21827 31.96735 -0.01694
C 33.17817 30.58454 0.01428
C 31.92352 29.86621 -0.02142
C 30.61199 4.99499 0.07705
C 31.88348 28.4728 0.0544
C 33.15963 26.21408 0.00682
C 31.92214 25.54105 -0.01779
C 31.87436 24.15882 0.03794
C 33.14052 23.44731 0.01927
C 33.15844 21.99498 0.01574
C 31.94997 21.28392 -0.02383
C 32.0186 19.88194 -0.01429
C 33.20589 19.13837 -0.0136
C 33.2133 17.73972 0.00594
C 33.12551 27.69751 0.00026
C 32.06035 17.08573 -0.02474
C 30.61884 6.41588 0.01908
C 29.40504 8.5159 -0.00971
C 29.44201 29.78418 0.0014
C 29.41373 28.38695 0.00924
C 30.66485 27.69427 0.02326
C 30.63434 26.3277 0.00261
C 29.48871 25.59588 0.03265
C 29.48634 24.12358 -0.02049
C 30.70653 23.43059 -0.01854
C 30.68978 21.98065 -0.01415
C 29.44132 21.34933 -0.03039
C 29.36864 7.14886 0.01518
C 29.5064 19.81563 0.01836
C 30.8714 17.78036 -0.00669
C 29.59362 17.08411 0.0101
C 29.54797 15.61095 0.01705
C 30.80596 14.89376 -0.0405
C 30.82269 13.47236 -0.01303
C 29.58833 12.76068 -0.01461
C 29.47328 11.34496 -0.02155
C 30.72338 10.62288 -0.00944
C 30.697 9.26979 -0.03735
C 30.74497 19.22742 0.03531
C 30.69348 30.5876 0.01324
C 32.03872 15.61432 0.00369
C 33.34135 13.56148 -0.00644
C 34.38891 21.29206 -0.02213
C 0.02651 19.84344 0.01951
C 1.25762 19.14208 -0.01678
C 1.2862 17.80313 0.01223
C 0.08233 17.07512 0.00648
C 0.19211 15.66767 0.02114
C 1.47739 14.9403 -0.02957
C 1.31985 13.50022 0.00343
C 0.09224 12.83902 -0.02656
C 1.1781 21.96848 0.02712
C 0.02581 11.44837 -0.02442
C 1.13737 9.23198 -0.00583
C 34.43092 8.51154 -0.02302
C 34.37651 7.08067 -0.02849
C 1.09264 6.32833 0.02931
C 1.10005 4.93573 0.00628
C 34.33055 4.29935 -0.0345
C 34.34965 2.90199 -0.00931
C 1.11829 2.18132 -0.00939
C 1.13914 0.73528 -0.00468
C 1.21729 10.66098 -0.00027
C 33.36276 14.96089 0.00455
C 1.15902 23.433 0.00723
C 34.4267 25.54999 -0.05239
C 32.0574 12.7699 -0.01839
C 31.99505 11.27767 0.00137
C 33.23943 10.69838 0.00199
C 33.14808 9.27587 0.04381
C 31.9686 8.49012 0.02806
C 31.89358 7.12099 0.01504
C 33.16652 6.40927 -0.00069
C 33.09565 4.95411 0.04926
C 31.85339 4.23572 -0.03838
C 34.38865 24.12655 0.03076
C 31.86251 2.79897 0.00349
C 33.12584 0.74517 -0.00841
C 31.88844 0.06024 0.0001
C 34.4119 32.65796 -0.02927
C 1.21874 32.03617 -0.01404
C 1.18503 30.56436 0.01027
C 34.39431 29.86652 0.01831
C 34.38128 28.46053 -0.01037
C 1.18881 27.68584 -0.00439
C 1.20838 26.30942 -0.00598
C 33.09304 2.17734 -0.00323
C 30.67629 31.93597 0.04266
C 29.4308 32.68262 0.01177
C 26.97855 34.05475 -0.00416
C 22.06772 28.33926 -0.00381
C 23.38756 27.58166 0.03046
C 23.39666 26.19415 0.0296
C 22.18366 25.48414 0.03374
C 22.08926 24.04589 -0.02845
C 23.33878 23.34392 -0.03213
C 23.34823 22.0429 0.02239
C 22.16034 21.28252 0.01153
C 22.1235 19.84399 0.02734
C 22.14415 29.73655 0.01852
C 23.37859 19.17048 -0.0055
C 22.21827 16.94416 -0.00225
C 22.04049 2.71906 0.00071
C 23.33127 2.0908 -0.01107
C 23.27465 0.70329 -0.01586
C 22.15205 33.98149 -0.01971
C 24.60774 32.62308 -0.02118
C 25.74959 31.91799 0.00733
C 25.78751 30.40699 -0.00178
C 24.5805 29.78933 0.00768
C 23.40529 17.79014 0.01515
C 24.60658 28.34675 -0.0276
C 23.38612 30.44771 0.01126
C 22.11643 32.54326 -0.01662
C 19.66645 32.6037 -0.00703
C 20.89004 31.89134 -0.04076
C 20.91386 30.50859 -0.00652
C 19.69543 29.78674 0.0058
C 19.63344 28.30611 -0.00865
C 20.92067 27.64017 0.00675
C 20.88834 26.22716 -0.00311
C 19.6762 25.56037 0.00742
C 19.62881 24.12092 -0.01594
C 23.36934 31.88327 -0.01185
C 20.84759 23.41251 0.0106
C 19.61058 21.28682 -0.01721
C 19.63008 19.87423 -0.02422
C 20.91605 19.16084 0.01277
C 20.94743 17.68682 0.00096
C 19.66176 17.29472 -0.01527
C 19.62312 2.7228 0.01087
C 20.85588 2.14668 0.00199
C 20.86215 0.64239 0.01511
C 19.66096 34.05094 -0.00478
C 20.8818 22.03625 -0.01154
C 25.82665 27.6432 0.03005
C 25.83717 26.167 -0.04078
C 24.56713 25.50271 0.02117
C 28.21613 23.44882 0.00622
C 28.21662 22.00037 -0.02815
C 26.99532 21.27701 -0.00942
C 27.11166 19.81953 0.00487
C 28.29954 19.11654 0.00826
C 28.32357 17.6763 -0.00294
C 27.10853 16.92922 0.00152
C 27.12393 15.54838 0.01257
C 28.31968 14.85639 0.02316
C 26.9824 24.11439 -0.0032
C 28.45093 13.49326 0.04185
C 28.25624 10.67096 -0.00621
C 28.28874 9.29245 0.02611
C 26.86452 7.19357 0.02198
C 28.12647 6.44338 0.01094
C 28.21884 5.00012 0.00235
C 27.00437 4.26745 0.01495
C 26.92746 2.86578 0.01259
C 28.20933 2.13338 0.01799
C 28.18808 0.71596 0.01699
C 27.25061 12.68006 0.00194
C 27.03836 25.49862 -0.00037
C 28.21338 26.27413 -0.01654
C 28.24627 27.69343 -0.00218
C 24.54595 24.06808 0.02737
C 25.77973 23.37867 -0.00498
C 25.76798 21.96502 0.00135
C 24.54809 21.21663 0.03102
C 24.6208 19.82968 0.02555
C 25.90704 19.16202 0.01423
C 25.84755 17.69069 -0.00285
C 24.57831 17.05484 -0.009
C 24.84138 15.63643 -0.01199
C 25.83923 14.92443 -0.00229
C 25.71725 4.9154 -0.00938
C 24.54652 4.30004 -0.0264
C 24.5313 2.8512 -0.01154
C 25.69554 2.16768 0.00684
C 25.71047 0.71669 -0.01052
C 24.54449 34.0325 -0.01679
C 27.02629 32.67617 0.00367
C 28.24818 31.89332 0.04306
C 28.24384 30.52645 0.00996
C 27.06423 29.76665 0.00195
C 27.07772 28.35255 -0.00802
C 3.60262 32.04276 0.03189
C 2.38223 32.73464 -0.04307
