443
Graphene
C 34.3989 0.02184 0.01295
C 13.56394 19.17592 0.00093
C 12.27387 17.17238 0.00057
C 12.34234 15.79033 -0.01634
C 13.54497 14.99673 -0.00334
C 13.51604 13.45246 0.02339
C 12.3097 12.80656 0.01641
C 12.34739 11.41862 -0.00719
C 13.46028 10.51633 0.01364
C 13.54018 9.16453 -0.01062
C 12.22971 8.48252 -0.00033
C 12.32822 7.05166 0.03589
C 13.59482 6.39026 -0.02759
C 13.60342 4.98303 0.0402
C 12.37103 4.27505 0.00572
C 12.32788 2.74072 0.03592
C 13.46555 2.05062 0.00406
C 13.4355 0.638 0.00943
C 12.25392 33.97368 0.02841
C 14.78245 32.69524 -0.01111
C 16.03822 31.91676 -0.01275
C 15.96586 30.46632 0.00985
C 14.74855 29.82776 -0.02245
C 14.65997 28.35464 -0.00428
C 12.39124 19.89818 0.01291
C 12.29018 21.36734 0.00438
C 13.54909 22.04271 -0.00191
C 13.54531 23.44895 0.00373
C 11.05466 15.03764 0.00054
C 11.1341 13.59024 0.03007
C 9.90074 12.87712 -0.00095
C 9.82742 11.44766 0.01572
C 11.04054 10.65544 -0.04848
C 11.02767 9.29189 -0.00892
C 9.78882 8.56392 -0.01362
C 9.83475 7.16495 -0.0008
C 11.13492 6.4244 0.0288
C 11.16716 5.00616 0.00393
C 9.88296 4.31457 0.00895
C 15.88975 27.76284 0.03101
C 9.8846 2.8767 0.00685
C 10.96536 0.70151 -0.00482
C 9.75954 0.07572 -0.01384
C 12.26132 32.55119 0.03693
C 13.53368 31.95576 0.01745
C 13.60373 30.57684 0.00488
C 12.29258 29.91813 -0.01004
C 12.25012 28.44638 -0.02896
C 13.41759 27.70141 -0.00131
C 13.49609 26.36214 -0.01118
C 12.26732 25.62714 -0.014
C 12.28343 24.10447 0.02147
C 11.04684 2.13306 0.02888
C 15.92903 26.26841 -0.01536
C 14.70602 25.54023 -0.02689
C 14.76817 24.18208 -0.01046
C 17.2126 24.10946 -0.03682
C 18.46608 23.42534 0.01965
C 18.38983 21.9567 0.02058
C 17.17471 21.26273 -0.01957
C 17.09607 19.88051 -0.0108
C 18.26755 18.99366 -0.00368
C 18.3198 17.61379 -0.02696
C 17.24693 15.5576 -0.00114
C 18.43396 14.87544 0.00228
C 18.42119 13.43738 0.00798
C 17.20655 12.81931 0.00422
C 17.19068 25.60062 0.00052
C 17.20991 11.36892 0.0351
C 18.42307 9.32581 0.02098
C 17.2728 8.52422 0.01848
C 17.23609 7.11323 -0.00619
C 18.48484 6.39561 -0.02162
C 18.46591 4.9751 0.00889
C 17.23972 4.31132 -0.00481
C 17.19859 2.87816 0.00979
C 18.40797 2.10353 0.01443
C 18.34385 0.71086 0.03505
C 17.13653 0.01186 -0.02815
C 19.67228 32.64942 -0.04147
C 18.38512 10.75932 -0.03113
C 9.78442 15.63492 -0.00494
C 18.3957 26.32171 0.00374
C 17.11299 28.45905 -0.01952
C 16.02612 23.45671 -0.00891
C 16.02687 22.02045 0.02819
C 14.77972 21.22857 0.00165
C 14.86257 19.78762 -0.02971
C 14.80242 15.60117 0.02894
C 16.00313 14.97487 -0.01789
C 15.98053 13.46929 0.00444
C 14.71569 12.71301 -0.00925
C 14.68674 11.24849 0.01877
C 15.91723 10.66758 0.01363
C 15.97883 9.21724 -0.02162
C 18.33772 27.71098 -0.02813
C 14.79468 8.49792 0.00415
C 16.02977 6.39363 0.02162
C 16.03107 4.97876 0.0076
C 14.79547 4.18834 0.01241
C 14.73177 2.84189 -0.01454
C 16.00526 2.13617 0.01945
C 15.95154 0.68678 0.01416
C 14.73256 34.04459 0.03542
C 17.17206 32.64498 0.02299
C 18.41067 31.92194 0.00244
C 18.43471 30.57612 -0.01717
C 17.16124 29.84317 0.05265
C 14.8094 7.07552 -0.0014
C 20.88909 31.92363 -0.05302
C 9.81299 16.99381 -0.00562
C 10.97639 19.22686 0.01849
C 3.63301 0.76283 0.01138
C 2.41526 0.05142 0.03278
C 4.97743 32.61975 -0.00177
C 6.13623 31.99673 0.04421
C 6.18649 30.47337 0.00088
C 5.01953 29.80522 0.00828
C 4.97507 28.42043 -0.02375
C 6.25529 27.68428 0.00558
C 6.16086 26.31558 -0.0059
C 4.86562 25.60022 -0.01386
C 4.96264 24.25952 -0.02805
C 6.16944 23.51806 0.00081
C 6.17015 21.99307 0.00245
C 4.87987 21.22082 0.02728
C 4.94826 19.82579 -0.00039
C 6.13889 19.16742 0.0064
C 6.16433 17.81197 0.00211
C 4.78217 17.08702 -0.00449
C 4.81472 15.68589 -0.01979
C 6.06084 15.03025 0.02784
C 6.1417 13.55405 -0.01977
C 4.99472 12.84966 -0.00561
C 4.91319 11.3338 0.00208
C 3.63429 2.13081 -0.00407
C 2.38679 2.78655 -0.01299
C 2.43766 4.24442 -0.0154
C 3.69917 5.01376 0.00662
C 3.74326 30.49905 -0.00141
C 2.43972 29.83513 -0.00374
C 2.55226 28.47328 -0.0213
C 3.77607 27.75167 0.01116
C 3.58629 26.32037 -0.0005
C 2.46249 25.56547 -0.00018
C 2.48784 24.13339 0.01073
C 3.75461 23.44721 0.01984
C 3.66644 21.92173 0.00535
C 2.46078 21.26768 -0.00198
C 2.37072 19.79729 -0.00012
C 6.17113 10.62783 0.01707
C 3.69374 19.18137 -0.04306
C 2.33911 17.01021 0.01913
C 2.41668 15.53585 0.00267
C 3.66704 14.87117 0.00787
C 3.71715 13.51255 0.02426
C 2.51517 12.74664 0.01218
C 2.50803 11.3381 -0.01471
C 3.6705 10.65832 -0.02827
C 3.68942 9.29234 0.01078
C 2.48252 8.53111 -0.00112
C 2.42833 7.09705 0.03345
C 3.68305 6.40386 0.00748
C 3.53318 17.7333 -0.03672
C 6.10679 9.27283 0.02769
C 4.88489 8.53413 -0.03291
C 4.89729 7.13325 -0.04999
C 8.54002 10.80419 -0.02566
C 8.62338 9.35699 -0.00094
C 7.40407 8.60679 0.02322
C 7.35526 7.19781 -0.00725
C 8.64513 6.40988 -0.05697
C 8.67087 4.94675 0.01087
C 7.39964 4.30582 -0.01343
C 7.39201 2.91834 0.00988
C 8.64907 2.18956 0.0276
C 8.56508 0.79315 0.01305
C 7.33556 0.05531 -0.00077
C 7.35184 11.46165 -0.03113
C 9.74563 32.69731 0.03368
C 11.03056 30.62129 -0.00966
C 9.7681 29.91069 -0.03337
C 9.7929 28.42849 0.01227
C 11.02089 27.80474 0.00873
C 11.04028 26.32643 -0.00049
C 9.86281 25.63245 0.00848
C 9.85079 24.14293 -0.01303
C 11.06709 23.45259 -0.01378
C 11.00623 22.02742 0.02635
C 9.78788 21.31377 0.0127
C 9.82518 19.91252 0.01396
C 10.98271 31.97104 -0.02929
C 10.98877 17.87048 -0.01142
C 7.35968 12.81806 0.017
C 8.55711 14.9161 0.0086
C 6.12224 6.42531 0.04505
C 6.17158 5.04137 0.03284
C 4.93357 4.30451 -0.04307
C 4.93782 2.85289 0.03189
C 6.14608 2.17541 0.00031
C 6.11873 0.70738 -0.003
C 4.9174 0.04061 0.01402
C 7.3302 32.72395 0.02379
C 8.52948 32.00706 0.00907
C 8.63602 30.55443 0.00643
C 7.41983 29.78424 -0.01509
C 8.59894 13.53605 -0.00643
C 7.42247 28.39477 0.03267
C 8.62874 26.2093 0.00402
C 7.35499 25.53671 0.0073
C 7.38239 24.18017 0.0174
C 8.59177 23.48648 0.03828
C 8.60188 22.06895 0.01226
C 7.39116 21.29196 -0.00279
C 7.35641 19.83166 0.01996
C 8.54502 19.20295 -0.03996
C 8.51637 17.75714 0.01465
C 7.27624 17.03374 -0.00074
C 7.30028 15.60603 -0.00518
C 8.6232 27.67803 0.02374
C 3.78834 31.9009 -0.03951
C 20.86707 30.54019 0.00213
C 19.64521 28.39919 -0.00289
C 29.50444 15.64325 0.01705
C 30.70658 14.90195 -0.0405
C 30.74001 13.40476 -0.01303
C 29.48693 12.72929 -0.01461
C 29.42875 11.34606 -0.02155
C 30.69034 10.5852 -0.00944
C 30.84452 9.10976 -0.03735
C 29.54767 8.40815 -0.00971
C 29.4606 7.04253 0.01518
C 30.69212 6.27349 0.01908
C 30.73808 4.89684 0.07705
C 29.53833 4.2373 0.0103
C 29.52173 2.8835 0.02108
C 30.7733 2.15102 0.00716
C 30.81207 0.77023 0.00307
C 29.55087 0.07563 0.00346
C 31.99996 32.65905 0.01713
C 33.2557 31.97963 -0.01694
C 33.2517 30.57152 0.01428
C 31.93712 29.86613 -0.02142
C 32.03666 28.45375 0.0544
C 33.25305 27.70956 0.00026
C 33.17123 26.33732 0.00682
C 29.50942 17.11977 0.0101
C 30.73314 17.68843 -0.00669
C 30.68234 19.14737 0.03531
C 29.47345 19.92672 0.01836
C 26.97636 11.33378 0.04185
C 28.22607 10.56508 0.00194
C 28.35881 9.13396 -0.00621
C 27.01472 8.47399 0.02611
C 27.0177 7.09282 0.02198
C 28.21562 6.30736 0.01094
C 28.23217 4.93059 0.00235
C 27.00503 4.2038 0.01495
C 27.03109 2.85126 0.01259
C 28.28564 2.14496 0.01799
C 28.32418 0.78183 0.01699
C 31.9811 25.60524 -0.01779
C 27.15071 0.06232 -0.00416
C 30.76443 31.98309 0.04266
C 30.7067 30.52113 0.01324
C 29.46971 29.76456 0.0014
C 29.53003 28.41776 0.00924
C 30.8202 27.71558 0.02326
C 30.78767 26.27135 0.00261
C 29.46209 25.63781 0.03265
C 29.44694 24.19332 -0.02049
C 30.69783 23.51531 -0.01854
C 30.63945 22.09868 -0.01415
C 29.4319 21.37465 -0.03039
C 29.49079 32.76767 0.01177
C 31.91985 24.18088 0.03794
C 33.17195 23.4594 0.01927
C 33.05782 21.99946 0.01574
C 34.41614 25.56484 -0.05239
C 0.02189 24.05659 0.03076
C 1.25755 23.42203 0.00723
C 1.18555 21.94785 0.02712
C 34.36899 21.28272 -0.02213
C 34.37671 19.82576 0.01951
C 1.10378 19.06661 -0.01678
C 1.16977 17.73256 0.01223
C 34.42248 16.97754 0.00648
C 0.00426 15.54966 0.02114
C 1.2388 14.8605 -0.02957
C 1.24897 26.23858 -0.00598
C 1.19196 13.45109 0.00343
C 0.02884 11.27427 -0.02442
C 1.25354 10.58462 -0.00027
C 1.30244 9.19173 -0.00583
C 0.067 8.45335 -0.02302
C 0.0098 7.02171 -0.02849
C 1.2703 6.39085 0.02931
C 1.24317 4.98509 0.00628
C 34.42201 4.29604 -0.0345
C 34.39111 2.84266 -0.00931
C 1.19885 2.12578 -0.00939
C 1.2102 0.74987 -0.00468
C 34.4245 12.72987 -0.02656
C 27.10207 12.72281 0.02316
C 1.3127 27.68658 -0.00439
C 0.03354 29.8679 0.01831
C 31.89442 21.25608 -0.02383
C 31.95852 19.87641 -0.01429
C 33.15843 19.14557 -0.0136
C 33.14997 17.714 0.00594
C 31.93729 16.98202 -0.02474
C 31.95011 15.55358 0.00369
C 33.21894 14.81513 0.00455
C 33.2187 13.39198 -0.00644
C 31.93966 12.78433 -0.01839
C 31.99925 11.3234 0.00137
C 33.26147 10.52764 0.00199
C 0.09362 28.46225 -0.01037
C 33.24192 9.16081 0.04381
C 31.98324 7.01559 0.01504
C 33.20711 6.31045 -0.00069
C 33.22024 4.92027 0.04926
C 32.02652 4.22654 -0.03838
C 31.95562 2.84621 0.00349
C 33.20941 2.1407 -0.00323
C 33.18683 0.71755 -0.00841
C 31.95984 0.02086 0.0001
C 0.05035 32.71471 -0.02927
C 1.30781 31.98624 -0.01404
C 1.28099 30.55518 0.01027
C 32.05441 8.46475 0.02806
C 19.6985 29.76959 -0.00066
C 28.26693 13.49053 0.01257
C 27.08784 15.62801 -0.00294
C 23.37207 32.0104 0.00654
C 23.33962 30.55621 -0.00703
C 22.16683 29.81155 -0.04076
C 22.05951 28.41777 -0.00652
C 23.29429 27.74592 0.0058
C 23.29693 26.29254 -0.00865
C 22.1092 25.61081 0.00675
C 22.19096 24.08535 -0.00311
C 23.35852 23.38034 0.00742
C 23.31224 21.99077 -0.01594
C 22.17526 21.27533 0.0106
C 22.14302 19.81496 -0.01154
C 23.42613 19.24165 -0.01721
C 23.32817 17.76889 -0.02422
C 22.19076 17.07932 0.01277
C 22.14355 15.69399 0.00096
C 23.33898 14.96026 -0.01527
C 23.33661 13.48539 0.01087
C 22.09869 12.75939 0.00199
C 22.10371 11.33705 0.01511
C 23.32394 10.63434 -0.00478
C 23.31251 9.18497 -0.01662
C 22.12428 8.51373 -0.01185
C 22.11081 32.67109 -0.04422
C 19.63193 34.04932 -0.02957
C 20.84777 0.72661 -0.00831
C 20.89323 2.11071 0.00364
C 20.81934 27.63067 0.00028
C 20.82595 26.2301 -0.02213
C 19.61548 25.49771 0.03698
C 19.72207 24.15964 -0.00109
C 20.99644 23.42169 -0.00491
C 20.92316 22.04482 0.03338
C 19.67114 21.33153 -0.0258
C 19.66743 19.82197 -0.0331
C 20.92266 19.10706 -0.00316
C 20.86557 17.75276 0.02188
C 19.57456 16.99283 -0.01979
C 22.04713 7.0368 0.01126
C 19.68249 15.55055 0.02691
C 20.84993 13.55522 0.01452
C 19.59364 12.80427 0.04892
C 19.66336 11.42667 -0.00111
C 20.85991 10.60112 -0.03557
C 20.84542 9.25189 0.03754
C 19.57739 8.52264 0.01739
C 19.65084 7.12678 0.00755
C 20.87361 6.34777 -0.0054
C 20.9026 4.93428 0.00667
C 19.65589 4.24189 0.00143
C 19.63661 2.8131 -0.017
C 20.91149 14.95193 -0.01581
C 23.26883 6.43979 0.01852
C 23.39995 4.97333 -0.00381
C 22.11201 4.23099 0.03046
C 24.59774 7.04676 -0.00285
C 25.76663 6.39276 -0.009
C 25.81317 4.93605 -0.01199
C 24.57441 4.20438 -0.00229
C 24.61786 2.83361 -0.00938
C 25.82465 2.08976 -0.0264
C 25.81844 0.65215 -0.01154
C 24.64353 34.00315 0.00684
C 27.0846 32.70722 -0.01052
C 28.31227 31.9322 -0.01679
C 28.22422 30.51102 0.00367
C 24.58236 8.48551 0.01423
C 27.06875 29.80369 0.04306
C 28.30137 27.66233 0.00195
C 28.19968 26.28721 -0.00802
C 26.97223 25.55922 -0.00218
C 26.99946 24.18592 -0.01654
C 28.2497 23.47016 -0.00037
C 28.15406 22.02244 -0.0032
C 27.02924 21.32522 0.00622
C 27.00952 19.84086 -0.02815
C 28.2747 19.2521 -0.00942
C 28.28551 17.81769 0.00487
C 27.12482 17.13467 0.00826
C 27.06429 28.34114 0.00996
C 28.25978 14.88861 0.00152
C 25.79861 9.16026 0.02555
C 24.47755 11.36575 0.00135
C 22.12934 2.85008 0.0296
C 23.35141 2.15447 0.03374
C 23.36778 0.71876 -0.02845
C 22.07975 0.02756 -0.03213
C 24.59989 32.66651 0.02239
C 25.83176 31.97494 0.01153
C 25.82851 30.57822 0.02734
C 24.58158 29.90142 -0.0055
C 24.60611 28.51324 0.01515
C 25.8461 27.66059 -0.00225
C 25.71467 26.30923 0.00071
C 25.72233 10.6202 0.03102
C 24.52216 25.571 -0.01107
C 25.79973 23.47352 -0.01971
C 25.8198 21.97373 -0.02118
C 24.63898 21.3467 0.00733
C 24.64083 19.86269 -0.00178
C 25.7992 19.08544 0.00768
C 25.84333 17.724 -0.0276
C 24.62764 16.97911 0.03005
C 24.61665 15.56978 -0.04078
C 25.80467 14.94067 0.02117
C 25.79817 13.52292 0.02737
C 24.51709 12.84311 -0.00498
C 24.57568 24.1787 -0.01586
C 2.452 32.72141 -0.02419
