306
Graphene
C 0.0287 0.02011 0.01295
C 18.52398 9.18922 0.02691
C 17.2089 8.59074 -0.01581
C 17.22425 7.16128 0.01452
C 18.50217 6.41625 0.04892
C 18.49383 4.98791 -0.00111
C 17.27438 4.30178 -0.03557
C 17.1725 2.80142 0.03754
C 18.39111 2.06692 0.01739
C 18.41546 0.57345 0.00755
C 17.16908 34.06149 -0.0054
C 19.72734 32.63323 0.00667
C 20.90372 31.87957 0.00143
C 21.05467 30.46718 -0.017
C 20.94194 14.87126 0.00364
C 20.86141 13.58657 -0.00831
C 18.46932 10.62458 -0.01979
C 19.72734 12.70858 -0.02957
C 17.06987 11.32747 0.02188
C 18.48714 13.42188 -0.0331
C 15.9224 31.96334 0.01443
C 15.94547 10.65162 0.03505
C 15.93637 9.23181 -0.02815
C 14.68284 8.56895 -0.04147
C 14.62948 7.19488 -0.05302
C 16.00191 6.48072 0.00213
C 16.04677 5.01747 -0.00066
C 14.81465 4.27467 -0.00289
C 14.76492 2.86618 0.00028
C 15.96969 2.12752 -0.02213
C 16.00529 0.67808 0.03698
C 14.79683 0.05542 -0.00109
C 17.20722 32.67777 -0.00491
C 18.44936 31.99679 0.03338
C 18.46203 14.9854 -0.0258
C 17.30484 12.69034 -0.00316
C 14.75212 32.55975 0.00979
C 19.72777 11.35328 -0.04422
C 21.02318 9.22904 -0.00703
C 22.11068 12.75386 -0.01662
C 22.14364 11.3601 -0.01185
C 23.31745 10.57573 0.01126
C 23.3294 9.1929 0.01852
C 22.15183 8.45892 -0.00381
C 22.23652 7.07729 0.03046
C 23.40615 6.39455 0.0296
C 23.38634 5.0074 0.03374
C 22.08139 4.365 -0.02845
C 22.12322 2.89405 -0.03213
C 23.36187 2.04284 0.02239
C 23.36116 0.6754 0.01153
C 22.15643 0.07189 0.02734
C 24.56215 32.63166 -0.0055
C 25.76945 31.92829 0.01515
C 23.34147 13.52145 -0.00478
C 20.94742 10.59076 0.00654
C 23.46181 14.99012 0.01511
C 22.31888 17.0442 0.01087
C 19.74177 8.50939 -0.04076
C 19.71684 7.07132 -0.00652
C 20.97584 6.34964 0.0058
C 20.84492 4.97128 -0.00865
C 19.64311 4.19777 0.00675
C 19.69171 2.75508 -0.00311
C 20.92737 2.09131 0.00742
C 20.86063 0.75711 -0.01594
C 19.62961 34.06537 0.0106
C 22.06971 32.67304 -0.01154
C 23.26637 32.01197 -0.01721
C 23.31026 30.56376 -0.02422
C 22.04833 29.87924 0.01277
C 23.43251 27.6051 0.00096
C 23.27074 17.66858 -0.01527
C 22.09655 15.66152 0.00199
C 12.31874 0.07631 -0.00481
C 13.57497 0.74382 0.00889
C 13.55557 2.17764 -0.02162
C 2.46604 33.99498 0.02841
C 4.90777 32.66724 -0.01111
C 6.16031 31.94393 -0.01275
C 6.19267 30.58141 0.00985
C 4.92809 29.82685 -0.02245
C 4.8836 28.43085 -0.00428
C 6.07448 27.69456 0.03101
C 6.12281 26.26858 -0.01536
C 4.88989 25.55495 -0.02689
C 4.92632 24.10284 -0.01046
C 6.26171 23.46949 -0.00891
C 4.99224 6.98529 0.02819
C 6.03793 6.33896 0.00165
C 6.13586 4.92331 -0.02971
C 4.90684 4.26614 0.02894
C 3.63234 0.72377 0.00943
C 4.96825 2.79922 -0.01789
C 3.73576 2.14813 0.00406
C 2.40676 4.36391 0.00572
C 3.67591 30.50582 0.00438
C 2.46527 29.81017 0.01291
C 2.41472 28.41721 0.00093
C 3.67227 27.74557 0.00057
C 3.66863 26.22736 -0.01634
C 2.39916 25.60881 -0.00334
C 2.39328 24.18497 0.02339
C 3.66113 23.43397 0.01641
C 3.67613 22.06967 -0.00719
C 2.51751 21.35284 0.01364
C 2.46725 19.86421 -0.01062
C 2.45829 8.52895 -0.00033
C 2.46619 7.14884 0.03589
C 3.68897 6.46482 -0.02759
C 3.61553 5.03885 0.0402
C 2.51881 2.89236 0.03592
C 6.16557 2.09701 0.00444
C 6.09203 0.68623 -0.00925
C 4.83392 0.02175 0.01877
C 9.86901 28.34203 0.01965
C 11.26017 6.43669 0.02058
C 11.03734 4.98822 -0.01957
C 9.90356 4.22664 -0.0108
C 9.85365 2.83646 -0.00368
C 11.01521 2.16728 -0.02696
C 11.02188 0.78765 -0.00114
C 9.83019 34.03643 0.00228
C 12.31612 32.68399 0.00798
C 13.48922 32.01234 0.00422
C 12.27077 6.99474 0.0351
C 13.51678 6.35042 -0.03113
C 13.55146 4.91078 0.02098
C 12.19558 4.25605 0.01848
C 12.24526 2.86181 -0.00619
C 9.80511 29.83597 -0.03682
C 11.02655 30.60442 0.00052
C 11.10711 31.96836 0.00374
C 9.88542 32.58325 -0.02813
C 7.40634 32.6713 0.01363
C 8.63074 31.99348 -0.02162
C 8.59646 30.57886 0.00415
C 7.35934 29.80242 -0.0014
C 7.30261 28.33533 0.02162
C 8.64678 27.6402 0.0076
C 8.6252 26.26092 0.01241
C 25.79248 30.49229 -0.00225
C 7.44862 25.59654 -0.01454
C 8.60237 6.47525 0.01416
C 8.61441 5.07455 0.03542
C 7.40044 4.21933 0.02299
C 7.45609 2.83258 0.00244
C 8.65748 2.12954 -0.01717
C 8.55339 0.59269 0.05265
C 7.3388 34.04689 -0.01952
C 7.19413 24.16246 0.01945
C 24.51371 29.75776 0.00071
C 24.52713 28.3548 -0.01107
C 25.80067 27.71149 -0.01586
C 31.96359 25.5577 0.01927
C 31.99582 24.09787 0.01574
C 33.18468 23.45042 -0.02383
C 33.20998 22.05668 -0.01429
C 31.99581 21.32158 -0.0136
C 31.96649 19.87159 0.00594
C 33.21115 19.17707 -0.02474
C 33.2091 17.81528 0.00369
C 31.9765 17.0625 0.00455
C 31.92076 15.67349 -0.00644
C 33.26155 14.89834 -0.01839
C 33.2374 13.53928 0.00137
C 31.97523 12.84359 0.00199
C 31.9883 11.43042 0.04381
C 33.12769 10.75781 0.02806
C 33.1428 26.30317 0.03794
C 33.22195 9.26527 0.01504
C 33.13662 27.71122 -0.01779
C 31.95501 29.86167 0.00026
C 29.54949 11.33404 -0.03735
C 30.77501 10.67085 -0.00971
C 30.69935 9.30003 0.01518
C 29.48702 8.56876 0.01908
C 29.45486 7.13536 0.07705
C 30.64442 6.41078 0.0103
C 30.65841 4.97022 0.02108
C 29.48535 4.24384 0.00716
C 29.50479 2.82299 0.00307
C 30.70522 2.17442 0.00346
C 30.75554 0.7605 0.01713
C 29.52112 0.07343 -0.01694
C 32.00342 32.60596 0.01428
C 33.22154 31.96519 -0.02142
C 33.14537 30.53037 0.0544
C 31.95456 28.42939 0.00682
C 31.93255 8.57107 -0.00069
C 31.84015 7.1156 0.04926
C 33.10627 6.43435 -0.03838
C 1.18289 17.69907 0.02114
C 0.04267 17.04427 -0.02957
C 34.31139 15.62622 0.00343
C 34.40285 12.85834 -0.02656
C 0.04315 11.36629 -0.02442
C 1.17299 10.63744 -0.00027
C 1.28564 9.32688 -0.00583
C 0.03001 8.55048 -0.02302
C 0.00302 7.15477 -0.02849
C 1.19506 6.39455 0.02931
C 1.17281 4.98023 0.00628
C 34.38172 4.29989 -0.0345
C 34.39785 2.89471 -0.00931
C 1.27778 2.12736 -0.00939
C 1.24606 0.68821 -0.00468
C 1.39348 19.07338 0.00648
C 0.00525 19.93448 0.01223
C 34.423 21.3297 -0.01678
C 1.23005 22.06554 0.01951
C 33.16112 4.94553 0.00349
C 31.9439 4.27326 -0.00323
C 31.95086 2.87614 -0.00841
C 33.22078 2.15687 0.0001
C 33.22508 0.6463 -0.02927
C 31.99573 34.00844 -0.01404
C 0.03099 32.67756 0.01027
C 29.51466 12.8568 -0.00944
C 1.26056 31.89633 0.01831
C 34.37911 29.8187 -0.00439
C 34.42645 28.34941 -0.00598
C 1.20867 27.63327 -0.05239
C 1.17888 26.28934 0.03076
C 34.37262 25.5727 0.00723
C 34.39658 24.19346 0.02712
C 1.19136 23.48383 -0.02213
C 1.19397 30.44478 -0.01037
C 3.72106 31.89453 -0.00191
C 30.72059 13.5344 -0.02155
C 29.56822 15.62083 -0.01303
C 25.80831 4.87471 -0.00938
C 24.62685 4.25398 -0.0264
C 24.59737 2.81561 -0.01154
C 25.8087 2.07392 0.00684
C 25.83199 0.68647 -0.01052
C 24.57765 34.05718 -0.01679
C 27.033 32.62974 0.00367
C 28.30217 32.04285 0.04306
C 28.30541 30.58774 0.00996
C 27.06876 29.89963 0.00195
C 26.99837 28.44389 -0.00802
C 28.24247 27.69325 -0.00218
C 28.30023 26.2873 -0.01654
C 27.11376 25.6125 -0.00037
C 27.05329 24.13292 -0.0032
C 25.82306 6.31346 -0.00229
C 28.29868 23.42743 0.00622
C 24.59119 7.14334 -0.01199
C 25.87024 9.30298 -0.00285
C 25.72925 26.11816 -0.01971
C 24.55309 25.50644 -0.02118
C 25.84246 23.45379 0.00733
C 25.82228 22.08031 -0.00178
C 24.50409 21.15158 0.00768
C 24.53014 19.97537 -0.0276
C 25.7355 19.10185 0.03005
C 25.8024 17.73254 -0.04078
C 24.5572 17.04636 0.02117
C 24.60441 15.68118 0.02737
C 25.83261 14.96428 -0.00498
C 25.83582 13.49393 0.00135
C 24.5809 12.77445 0.03102
C 24.53961 11.32835 0.02555
C 25.75475 10.6658 0.01423
C 24.61708 8.54804 -0.009
C 28.30294 21.98687 -0.02815
C 27.07359 21.27238 -0.00942
C 26.98139 19.90178 0.00487
C 30.76084 31.98676 0.0014
C 30.72272 30.60559 0.00924
C 29.46338 29.86036 0.02326
C 29.49461 28.40242 0.00261
C 30.73446 27.72199 0.03265
C 30.77287 26.29857 -0.02049
C 29.52119 25.54433 -0.01854
C 29.50406 24.11038 -0.01415
C 30.70626 23.40425 -0.03039
C 30.73047 22.05177 0.01836
C 29.53358 21.33498 0.03531
C 29.48638 19.81823 -0.00669
C 30.74331 19.12009 0.0101
C 30.70672 17.73565 0.01705
C 29.46969 17.05724 -0.0405
C 29.59004 32.71614 0.01324
C 26.95339 34.02403 0.04266
C 28.2545 0.69839 0.01177
C 28.2669 2.11956 -0.00416
C 28.24643 19.13678 0.00826
C 28.2472 17.73607 -0.00294
C 27.06389 17.02145 0.00152
C 27.10902 15.6035 0.01257
C 28.36149 14.92115 0.02316
C 28.26599 13.47386 0.04185
C 27.06041 12.72266 0.00194
C 30.75933 14.90161 -0.01461
C 27.0153 11.32126 -0.00621
C 28.31341 9.25881 0.02198
C 27.10316 8.52463 0.01094
C 26.99429 7.12577 0.00235
C 28.19524 6.39317 0.01495
C 28.201 4.91503 0.01259
C 27.0345 4.17377 0.01799
C 27.01118 2.80502 0.01699
C 28.31489 10.64603 0.02611
C 2.49105 32.61153 0.00373
