303
Graphene
C 34.34419 0.06512 0.01295
C 13.5785 27.68468 0.01452
C 13.55543 26.19603 0.04892
C 12.2585 25.4824 -0.00111
C 12.2354 24.0842 -0.03557
C 13.47529 23.38224 0.03754
C 13.38425 22.0158 0.01739
C 12.23804 21.28452 0.00755
C 12.2293 19.77699 -0.0054
C 13.40799 19.17528 0.00667
C 13.45999 17.76994 0.00143
C 12.24871 17.01556 -0.017
C 12.18337 15.50901 0.00364
C 13.53813 15.11751 -0.00831
C 13.79034 2.1424 -0.02957
C 13.60771 0.79477 -0.04422
C 12.40397 28.41256 -0.01581
C 12.2813 0.0656 0.00654
C 12.38005 29.80634 0.02691
C 13.54465 32.01665 0.02188
C 11.16533 27.77614 -0.02815
C 11.04993 26.231 -0.04147
C 9.87588 25.53371 -0.05302
C 9.86486 24.12666 0.00213
C 11.03336 23.38635 -0.00066
C 10.96194 21.97996 -0.00289
C 9.74091 21.27531 0.00028
C 9.78657 19.87203 -0.02213
C 10.96718 19.13482 0.03698
C 11.08773 17.75204 -0.00109
C 9.81617 16.91774 -0.00491
C 9.8503 15.5646 0.03338
C 10.99585 0.68253 -0.0258
C 9.76535 0.12567 -0.0331
C 12.31297 32.72711 -0.00316
C 13.54252 30.55726 -0.01979
C 9.83893 28.42484 0.03505
C 14.79429 32.66907 -0.00703
C 15.91331 30.45354 -0.00652
C 16.05096 0.70382 0.01126
C 14.7909 0.02151 0.01852
C 17.18577 32.69175 -0.00381
C 18.41166 31.86663 0.03046
C 18.42051 30.39124 0.0296
C 17.19359 29.71434 0.03374
C 17.35915 28.36347 -0.02845
C 17.19251 17.17482 -0.03213
C 17.32858 15.6445 0.02239
C 18.53188 14.86796 0.01153
C 18.46857 13.54916 0.02734
C 16.90944 12.59282 -0.0055
C 17.13733 11.25201 0.01515
C 18.34411 10.6097 -0.00225
C 18.36801 9.09342 0.00071
C 16.059 2.20804 -0.01185
C 15.95588 31.94099 -0.04076
C 14.8675 2.91247 -0.01662
C 15.94892 13.49632 0.01511
C 14.75001 29.73146 0.0058
C 14.79757 28.31914 -0.00865
C 16.13264 27.61253 0.00675
C 16.01678 26.19734 -0.00311
C 14.7844 25.51467 0.00742
C 14.74255 24.16965 -0.01594
C 15.78882 23.31263 0.0106
C 15.77287 21.99979 -0.01154
C 14.64385 21.28157 -0.01721
C 14.69268 19.80447 -0.02422
C 15.95845 19.23916 0.01277
C 15.969 17.85374 0.00096
C 14.72668 17.11903 -0.01527
C 14.73417 15.73462 0.01087
C 15.96943 14.90608 0.00199
C 16.16888 5.24392 -0.00478
C 17.19413 8.20584 -0.01107
C 9.88661 29.7801 0.01443
C 11.09945 31.9967 -0.00481
C 2.56771 9.06999 0.00985
C 2.55519 7.47718 -0.02245
C 3.58972 6.52462 -0.00428
C 3.84555 5.11423 0.03101
C 2.50493 4.34978 -0.01536
C 2.57972 2.93726 -0.02689
C 3.79003 2.14359 -0.01046
C 3.61863 0.77963 -0.00891
C 2.41093 0.07003 0.02819
C 4.86095 32.57778 0.00165
C 6.11754 31.88709 -0.02971
C 6.16279 30.4458 0.02894
C 4.892 29.79329 -0.01789
C 4.87702 28.34809 0.00444
C 6.12283 27.72499 -0.00925
C 3.38183 9.99438 -0.01275
C 5.98747 26.32066 0.01877
C 2.69001 11.382 -0.01111
C 3.48873 14.47277 0.00943
C 3.60595 30.51926 0.00057
C 2.38634 29.75223 -0.01634
C 2.28504 28.36072 -0.00334
C 3.55616 27.61483 0.02339
C 3.60117 26.29748 0.01641
C 2.4152 25.54087 -0.00719
C 2.4724 24.14883 0.01364
C 3.69483 23.44813 -0.01062
C 3.7112 22.03185 -0.00033
C 2.45044 21.29682 0.03589
C 2.41228 19.91403 -0.02759
C 3.65857 19.06153 0.0402
C 3.66121 17.69931 0.00572
C 2.45339 17.07966 0.03592
C 2.43132 15.56959 0.00406
C 2.64721 13.06216 0.02841
C 11.14087 30.52443 0.00979
C 4.81232 25.51677 0.01363
C 6.19191 23.38285 0.00415
C 8.61678 26.21905 -0.01957
C 7.23499 25.55817 -0.0108
C 7.3804 24.14933 -0.00368
C 8.59739 23.46782 -0.02696
C 8.56544 21.99487 -0.00114
C 7.31793 21.33702 0.00228
C 7.27733 19.84575 0.00798
C 8.61164 19.18008 0.00422
C 8.55761 17.74287 0.0351
C 7.38338 17.02491 -0.03113
C 7.33726 15.68756 0.02098
C 7.68543 2.18335 0.01848
C 8.3237 0.82707 -0.00619
C 7.2932 34.02403 -0.02162
C 9.84353 32.65365 0.00889
C 8.66856 27.62526 0.02058
C 4.91827 24.09503 -0.02162
C 7.36996 28.39453 0.01965
C 8.67477 30.53431 0.00052
C 6.07963 21.97327 -0.0014
C 4.89691 21.24425 0.02162
C 4.85743 19.82471 0.0076
C 6.07016 19.13639 0.01241
C 6.0931 17.70966 -0.01454
C 4.83311 16.94824 0.01945
C 4.80897 15.45185 0.01416
C 6.11709 15.05976 0.03542
C 4.9271 4.17648 0.02299
C 5.20289 2.85294 0.00244
C 6.42923 1.90325 -0.01717
C 6.07151 0.57583 0.05265
C 4.88341 0.01563 -0.01952
C 7.36801 32.59858 -0.02813
C 8.6541 32.00282 0.00374
C 7.4093 29.8427 -0.03682
C 3.59695 31.92137 0.00093
C 17.17597 6.94692 -0.01586
C 18.48487 4.9508 -0.02118
C 31.86965 28.45846 0.01574
C 33.05926 27.62088 -0.02383
C 33.08558 26.24895 -0.01429
C 33.10213 19.37064 -0.0136
C 33.01577 17.94472 0.00594
C 31.84917 17.055 -0.02474
C 31.76344 15.70426 0.00369
C 33.14374 15.00446 0.00455
C 33.18104 13.61155 -0.00644
C 32.04247 12.86737 -0.01839
C 31.99621 11.43229 0.00137
C 33.20864 10.74918 0.00199
C 33.16529 9.33251 0.04381
C 31.93367 8.61724 0.02806
C 31.85456 7.17336 0.01504
C 31.95571 29.79389 0.01927
C 33.15093 6.45703 -0.00069
C 33.15049 30.54952 0.03794
C 31.93323 32.72841 0.00682
C 30.52035 14.91943 -0.00971
C 30.75605 13.57554 0.01518
C 29.45369 12.86112 0.01908
C 29.45392 11.41714 0.07705
C 30.73237 10.72173 0.0103
C 30.69152 9.30431 0.02108
C 29.45795 8.65729 0.00716
C 29.40631 7.24362 0.00307
C 30.63245 6.53243 0.00346
C 30.64799 5.0633 0.01713
C 29.41743 4.22139 -0.01694
C 29.45421 2.86822 0.01428
C 30.60836 2.09607 -0.02142
C 30.60122 0.72869 0.0544
C 29.41359 34.0363 0.00026
C 33.14795 32.01881 -0.01779
C 29.50616 29.85077 -0.03735
C 33.16289 5.03635 0.04926
C 31.89621 2.91009 0.00349
C 34.35958 15.74011 0.02114
C 1.13405 15.12864 -0.02957
C 1.25085 13.61819 0.00343
C 0.03903 13.0181 -0.02656
C 34.42063 11.52731 -0.02442
C 1.22669 10.91185 -0.00027
C 1.16383 9.55075 -0.00583
C 0.00025 8.69933 -0.02302
C 34.38522 7.27056 -0.02849
C 1.29032 6.65963 0.02931
C 1.29373 5.1513 0.00628
C 0.03067 4.38261 -0.0345
C 0.03772 2.91625 -0.00931
C 1.32494 2.18085 -0.00939
C 1.12964 0.8049 -0.00468
C 34.36149 17.21415 0.00648
C 31.86304 4.36413 -0.03838
C 1.11949 17.90723 0.01223
C 34.25472 20.12663 0.01951
C 33.10213 2.23304 -0.00323
C 33.07928 0.82615 -0.00841
C 31.83504 0.04771 0.0001
C 0.00695 32.68048 -0.02927
C 1.22984 31.90498 -0.01404
C 1.17027 30.52984 0.01027
C 34.36194 29.82482 0.01831
C 34.33074 28.37461 -0.01037
C 1.08041 27.64533 -0.00439
C 1.10343 26.21927 -0.00598
C 34.29939 25.34897 -0.05239
C 34.33386 23.95566 0.03076
C 1.23551 23.50133 0.00723
C 1.20845 22.0692 0.02712
C 0.01811 21.49688 -0.02213
C 1.09029 19.32173 -0.01678
C 18.49036 6.28675 -0.01971
C 30.66045 30.57512 -0.00944
C 29.46529 32.6643 -0.01461
C 19.67987 2.84976 -0.01154
C 20.83268 2.08424 0.00684
C 20.86764 0.71365 -0.01052
C 19.59899 34.04356 -0.01679
C 22.04133 32.61343 0.00367
C 23.24757 31.77553 0.04306
C 23.37768 13.52843 0.00996
C 22.09862 12.89839 0.00195
C 22.05474 11.44975 -0.00802
C 23.27984 10.70695 -0.00218
C 23.31523 9.33106 -0.01654
C 22.01805 8.55423 -0.00037
C 22.063 7.07916 -0.0032
C 23.299 6.4408 0.00622
C 23.3244 4.98486 -0.02815
C 19.63119 4.29085 -0.0264
C 21.99437 4.27825 -0.00942
C 20.85293 5.00099 -0.00938
C 19.66762 7.06531 -0.01199
C 17.18876 4.33061 0.00733
C 17.22913 2.86097 -0.00178
C 18.49462 2.19041 0.00768
C 18.47053 0.67331 -0.0276
C 17.26659 34.03874 0.03005
C 19.59217 32.6377 -0.04078
C 20.92444 31.89697 0.02117
C 20.7884 30.51146 0.02737
C 19.65761 29.71744 -0.00498
C 20.78534 13.53019 0.00135
C 19.63465 12.77046 0.03102
C 19.67108 11.32627 0.02555
C 20.83923 10.65133 0.01423
C 20.8639 9.27749 -0.00285
C 19.64471 8.53676 -0.009
C 20.89358 6.36309 -0.00229
C 30.75064 31.9757 -0.02155
C 22.1103 2.78869 0.00487
C 23.34034 0.60155 -0.00294
C 28.3452 30.54971 0.00924
C 28.36311 13.68821 0.02326
C 27.0673 13.06244 0.00261
C 27.10655 11.55542 0.03265
C 28.22643 10.79582 -0.02049
C 28.24563 9.34156 -0.01854
C 26.9983 8.60459 -0.01415
C 26.98714 7.14678 -0.03039
C 28.23546 6.43307 0.01836
C 28.19916 5.00908 0.03531
C 26.98277 4.29599 -0.00669
C 26.99824 2.86732 0.0101
C 28.23578 2.09023 0.01705
C 28.14794 0.70547 -0.0405
C 26.93188 34.04926 -0.01303
C 28.25829 31.89091 0.0014
C 23.34313 2.01883 0.00826
C 26.94659 32.59472 0.01324
C 25.72747 0.65242 0.01177
C 22.15482 34.05757 0.00152
C 24.48536 32.4479 0.01257
C 25.83766 31.85554 0.02316
C 25.73955 13.69354 0.04185
C 24.58787 12.88259 0.00194
C 24.54498 11.40841 -0.00621
C 25.78807 10.80214 0.02611
C 25.77357 9.41973 0.02198
C 24.487 8.67197 0.01094
C 24.53211 7.19809 0.00235
C 25.76839 6.43777 0.01495
C 25.72048 4.94352 0.01259
C 24.49859 4.21708 0.01799
C 24.48146 2.76941 0.01699
C 25.75101 2.06481 -0.00416
C 24.53063 33.87848 0.04266
C 2.42918 32.73585 0.01291
