413
Graphene
C 34.33957 34.05281 0.01295
C 12.23798 28.40743 -0.02245
C 13.53357 27.63778 -0.00428
C 13.5417 26.27019 0.03101
C 12.31039 25.66872 -0.01536
C 12.37256 24.17683 -0.02689
C 13.50547 23.33499 -0.01046
C 13.43325 21.95671 -0.00891
C 12.2558 21.195 0.02819
C 12.29306 19.80925 0.00165
C 13.57503 19.11622 -0.02971
C 13.58051 17.69273 0.02894
C 12.3906 17.02332 -0.01789
C 12.33367 15.61712 0.00444
C 13.54737 14.92679 -0.00925
C 13.53773 13.42284 0.01877
C 12.27515 12.79361 0.01363
C 12.28229 11.36063 -0.02162
C 13.54681 10.51352 0.00415
C 13.49576 9.12233 -0.0014
C 12.32242 8.4668 0.02162
C 12.26099 7.0247 0.0076
C 12.27407 29.82052 0.00985
C 13.45879 30.55115 -0.01275
C 13.46775 32.00586 -0.01111
C 12.21284 32.75406 0.02841
C 11.09606 22.05532 0.02147
C 9.85268 21.33534 0.00373
C 9.79584 19.872 -0.00191
C 11.02219 19.11022 0.00438
C 11.15433 17.72515 0.01291
C 9.87213 17.10369 0.00093
C 9.84 15.68132 0.00057
C 11.08058 14.97755 -0.01634
C 11.07151 13.49311 -0.00334
C 9.87978 12.84232 0.02339
C 13.45642 6.34451 0.01241
C 9.86123 11.34822 0.01641
C 11.03007 9.2189 0.01364
C 9.83554 8.54595 -0.01062
C 9.8907 7.09026 -0.00033
C 11.04261 6.38924 0.03589
C 11.07501 4.97418 -0.02759
C 9.78758 4.27406 0.0402
C 9.82095 2.87326 0.00572
C 11.14161 2.14788 0.03592
C 11.10258 0.79856 0.00406
C 9.85349 0.12475 0.00943
C 11.07077 10.59624 -0.00719
C 13.536 4.97605 -0.01454
C 12.26833 4.26864 0.01945
C 12.3292 2.79144 0.01416
C 14.79598 8.45799 0.00889
C 14.72282 7.03508 -0.00481
C 15.92083 6.38433 0.00979
C 15.98021 5.02103 0.01443
C 14.76596 4.21479 0.03505
C 14.76278 2.85348 -0.02815
C 15.93922 2.08963 -0.04147
C 15.94064 0.70062 -0.05302
C 14.74744 34.07738 0.00213
C 17.12906 32.63974 -0.00066
C 16.05818 9.17361 -0.02162
C 18.3391 31.95507 -0.00289
C 17.16954 29.87233 -0.02213
C 17.14208 28.40318 0.03698
C 18.30987 27.68365 -0.00109
C 18.36158 26.29105 -0.00491
C 17.18444 25.55006 0.03338
C 17.17973 24.1304 -0.0258
C 18.51981 23.48797 -0.0331
C 18.54266 22.00311 -0.00316
C 17.2631 21.31989 0.02188
C 17.26423 19.90632 -0.01979
C 18.4319 30.46394 0.00028
C 11.14472 23.51334 -0.014
C 15.94881 10.60437 -0.00619
C 14.72861 12.79251 0.02098
C 13.55226 2.13966 0.03542
C 13.55463 0.71467 0.02299
C 12.26333 0.06788 0.00244
C 14.67191 32.65923 -0.01717
C 15.87118 31.92611 0.05265
C 15.97345 30.52572 -0.01952
C 14.67838 29.88041 -0.02813
C 14.70627 28.46314 0.00374
C 15.9054 27.73199 0.00052
C 15.86017 26.29773 -0.03682
C 14.69415 11.31142 0.01848
C 14.73184 25.53247 0.01965
C 16.02898 23.35371 -0.01957
C 15.96183 21.93852 -0.0108
C 14.70871 21.25701 -0.00368
C 14.77514 19.87942 -0.02696
C 16.01996 19.22098 -0.00114
C 16.01232 17.75588 0.00228
C 14.7954 17.07308 0.00798
C 14.81839 15.61249 0.00422
C 16.00795 14.9588 0.0351
C 15.9565 13.52302 -0.03113
C 14.75945 24.1026 0.02058
C 9.83828 24.18635 -0.01118
C 9.80607 25.57789 -0.00131
C 11.0636 26.27885 -0.02896
C 2.43074 2.89506 0.03284
C 3.66653 2.14327 -0.04307
C 3.61926 0.78027 0.03189
C 2.4309 33.99011 0.00031
C 4.9176 32.67733 -0.003
C 6.15733 32.05451 0.01402
C 6.116 30.59142 0.02379
C 4.86113 29.81535 0.00907
C 4.91089 28.39753 0.00643
C 6.1611 27.62217 -0.01509
C 2.33366 4.26018 0.04505
C 6.15339 26.24507 0.03267
C 4.8808 24.06314 0.00402
C 6.22529 23.42373 0.0073
C 6.16979 21.99092 0.0174
C 4.91557 21.32263 0.03828
C 4.86124 19.93817 0.01226
C 6.14797 19.19228 -0.00279
C 6.13986 17.85138 0.01996
C 4.93423 17.07613 -0.03996
C 4.99852 15.60995 0.01465
C 6.19008 14.90888 -0.00074
C 4.9946 25.50318 0.02374
C 6.2029 13.48785 -0.00518
C 3.60177 5.02123 -0.04999
C 2.45967 7.01846 0.02769
C 3.71343 30.55425 -0.00177
C 2.49923 29.83727 0.04421
C 2.48251 28.39874 0.00088
C 3.72275 27.70183 0.00828
C 3.75293 26.21329 -0.02375
C 2.49 25.61395 0.00558
C 2.52052 24.21111 -0.0059
C 3.67055 23.41875 -0.01386
C 3.67622 22.00179 -0.02805
C 2.38385 21.25741 0.00081
C 3.67927 6.44893 -0.03291
C 2.34731 19.8295 0.00245
C 3.73044 17.71609 -0.00039
C 2.44383 17.07202 0.0064
C 2.50041 15.68437 0.00211
C 3.68776 14.96339 -0.00449
C 3.69589 13.5407 -0.01979
C 2.48059 12.75403 0.02784
C 2.43291 11.38655 -0.01977
C 3.62531 10.662 -0.00561
C 3.56338 9.20536 0.00208
C 2.3557 8.57207 0.01707
C 3.61021 19.15295 0.02728
C 18.47019 19.11271 0.02691
C 4.97242 12.78166 0.0086
C 6.119 10.72195 0.017
C 7.3867 15.67563 -0.01142
C 8.65057 15.00313 -0.00562
C 8.65894 13.54633 -0.00494
C 7.45843 12.77749 0.00054
C 7.42148 11.35022 0.03007
C 8.64514 10.68234 -0.00095
C 8.61099 9.25155 0.01572
C 7.34094 8.56744 -0.04848
C 7.37191 7.17221 -0.00892
C 8.66124 6.44069 -0.01362
C 7.34609 17.07704 0.01849
C 8.59115 5.0049 -0.0008
C 7.31851 2.89698 0.00393
C 8.57259 2.23596 0.00895
C 8.48277 0.84223 0.00685
C 7.25867 0.16143 0.02888
C 9.80981 32.76572 -0.00482
C 11.05565 32.01302 -0.01384
C 11.04346 30.5479 0.03693
C 9.77355 29.93071 0.01745
C 9.81835 28.48285 0.00488
C 11.03531 27.72441 -0.01004
C 7.33714 4.38986 0.0288
C 4.90752 11.3667 -0.00643
C 8.62212 17.75697 0.01396
C 7.38029 19.87711 0.02635
C 6.05489 9.25127 -0.03113
C 4.82483 8.56732 -0.02566
C 4.97749 7.11912 -0.00094
C 6.19574 6.45074 0.02322
C 6.01709 4.99287 -0.00725
C 4.80651 4.26193 -0.05697
C 4.85548 2.86574 0.01087
C 6.08389 2.19085 -0.01343
C 6.04742 0.80553 0.00988
C 4.87486 34.07243 0.0276
C 8.61808 19.15922 0.0127
C 7.31336 32.78524 0.01305
C 8.53079 30.66123 0.03368
C 7.23863 29.88165 -0.02929
C 7.30002 28.43268 -0.00966
C 8.59129 27.77211 -0.03337
C 8.61053 26.32568 0.01227
C 7.39484 25.57254 0.00873
C 7.40957 24.12956 -0.00049
C 8.63536 23.46668 0.00848
C 8.61738 22.0114 -0.01303
C 7.44705 21.2444 -0.01378
C 8.59239 32.05309 -0.00077
C 3.66605 31.98323 0.03278
C 18.39244 17.75642 -0.01581
C 17.18302 15.65836 0.04892
C 29.54584 21.32256 -0.03735
C 29.54996 19.9511 -0.00971
C 30.68553 19.13919 0.01518
C 30.72659 17.71875 0.01908
C 29.50002 17.06164 0.07705
C 29.56931 15.64781 0.0103
C 30.70267 14.81886 0.02108
C 30.64533 13.53499 0.00716
C 29.57767 2.71075 0.00307
C 30.80354 2.14377 0.00346
C 30.68795 0.70675 0.01713
C 29.47329 34.07568 -0.01694
C 31.98995 32.62434 0.01428
C 33.15681 31.89784 -0.02142
C 33.16209 30.48031 0.0544
C 31.87512 29.75962 0.00026
C 31.92454 28.42742 0.00682
C 33.1282 27.69902 -0.01779
C 33.14858 26.29378 0.03794
C 31.96399 25.54168 0.01927
C 32.03926 24.10423 0.01574
C 30.75446 22.01583 -0.00944
C 30.78556 23.43581 -0.02155
C 29.56445 24.06558 -0.01461
C 29.48126 25.43012 -0.01303
C 27.05606 24.13684 0.01259
C 28.32441 23.37237 0.01799
C 28.28293 22.00473 0.01699
C 27.078 21.32528 -0.00416
C 27.0361 19.91715 0.01177
C 28.25954 19.25807 0.04266
C 28.31888 17.8604 0.01324
C 27.05909 17.10622 0.0014
C 27.09976 15.72143 0.00924
C 28.27627 14.9631 0.02326
C 33.24546 23.36931 -0.02383
C 28.46978 13.56747 0.00261
C 28.27523 2.30502 -0.02049
C 28.277 0.64902 -0.01854
C 26.99416 34.06104 -0.01415
C 29.47064 32.58416 -0.03039
C 30.69227 31.89581 0.01836
C 30.66509 30.53681 0.03531
C 29.44118 29.75928 -0.00669
C 29.5349 28.31032 0.0101
C 30.69534 27.6111 0.01705
C 30.7468 26.18655 -0.0405
C 27.035 2.73728 0.03265
C 33.18158 21.9552 -0.01429
C 31.94532 21.23366 -0.0136
C 31.93794 19.83868 0.00594
C 1.26255 23.52624 0.00723
C 1.21853 22.07279 0.02712
C 0.00757 21.29686 -0.02213
C 34.34983 19.84548 0.01951
C 1.13944 19.15084 -0.01678
C 1.18478 17.7392 0.01223
C 34.36964 16.99999 0.00648
C 34.42381 15.62163 0.02114
C 1.2534 14.93421 -0.02957
C 1.27223 13.47595 0.00343
C 34.4277 24.19842 0.03076
C 34.42581 12.78114 -0.02656
C 1.14095 10.59549 -0.00027
C 1.15955 9.24749 -0.00583
C 34.41486 8.46661 -0.02302
C 34.40408 7.06545 -0.02849
C 1.23104 6.37925 0.02931
C 1.11954 5.01319 0.00628
C 34.32365 4.30251 -0.0345
C 34.39038 2.86025 -0.00931
C 1.19953 2.10483 -0.00939
C 1.17947 0.73836 -0.00468
C 34.36676 11.36774 -0.02442
C 27.11255 25.511 0.01495
C 34.4076 25.61041 -0.05239
C 1.20349 27.75481 -0.00439
C 33.17088 19.11466 -0.02474
C 33.16053 17.69696 0.00369
C 31.90959 17.00225 0.00455
C 31.9769 15.62516 -0.00644
C 33.24488 14.857 -0.01839
C 33.16702 13.52953 0.00137
C 31.89085 12.72755 0.00199
C 32.0874 11.39737 0.04381
C 33.0544 10.49514 0.02806
C 33.22072 9.12747 0.01504
C 1.2611 26.34619 -0.00598
C 33.24173 6.38654 -0.00069
C 31.89608 4.13323 -0.03838
C 31.98217 2.82404 0.00349
C 33.21479 2.09238 -0.00323
C 33.13886 0.72661 -0.00841
C 31.88524 34.07415 0.0001
C 34.42171 32.655 -0.02927
C 1.24042 31.86781 -0.01404
C 1.19754 30.50754 0.01027
C 34.40511 29.79395 0.01831
C 34.42751 28.37828 -0.01037
C 33.0315 5.0298 0.04926
C 28.26086 26.20435 0.00235
C 28.29749 27.61929 0.01094
C 27.0331 28.34915 0.02198
C 19.77616 21.29785 -0.02422
C 19.69128 19.8434 0.01277
C 20.9417 19.11095 0.00096
C 20.90391 17.68835 -0.01527
C 19.66822 17.00709 0.01087
C 19.71487 15.55097 0.00199
C 20.9554 14.87655 0.01511
C 20.95304 13.43262 -0.00478
C 19.77114 12.76147 -0.01662
C 19.71799 11.34972 -0.01185
C 20.98835 22.02671 -0.01721
C 20.95559 10.62181 0.01126
C 19.70319 8.52379 -0.00381
C 19.70762 7.11687 0.03046
C 20.86369 6.42884 0.0296
C 21.12959 5.12193 0.03374
C 19.7405 4.33626 -0.02845
C 19.70522 2.88164 -0.03213
C 20.88237 2.04805 0.02239
C 20.81247 0.72932 0.01153
C 19.6508 0.01007 0.02734
C 22.0623 32.61053 -0.0055
C 20.83273 9.23651 0.01852
C 23.37193 31.97279 0.01515
C 21.02889 23.44383 -0.01154
C 19.61784 25.65569 -0.01594
C 18.47616 14.89665 -0.00111
C 18.47927 13.4705 -0.03557
C 17.21036 12.80232 0.03754
C 17.18461 11.43205 0.01739
C 18.46281 10.63252 0.00755
C 18.47279 9.24778 -0.0054
C 17.25869 8.50372 0.00667
C 17.19989 7.10717 0.00143
C 18.37372 6.34746 -0.017
C 18.48543 4.95965 0.00364
C 19.67443 24.22357 0.0106
C 17.21858 4.23164 -0.00831
C 18.44603 2.12946 -0.04422
C 18.38523 0.69066 0.00654
C 17.21893 34.06753 -0.00703
C 19.60273 32.67207 -0.04076
C 20.79314 31.93957 -0.00652
C 20.8958 30.49928 0.0058
C 19.63466 29.75635 -0.00865
C 19.58875 28.343 0.00675
C 20.8075 27.69362 -0.00311
C 20.86109 26.32382 0.00742
C 17.21947 2.848 -0.02957
C 17.20378 17.02381 0.01452
C 23.33433 30.55707 -0.00225
C 22.0696 28.39538 -0.01107
C 25.8028 27.6282 0.00367
C 25.78998 26.24506 0.04306
C 24.57099 25.4739 0.00996
C 24.59769 24.11243 0.00195
C 25.85054 23.4666 -0.00802
C 25.83739 22.01001 -0.00218
C 24.68756 21.28402 -0.01654
C 24.58403 19.92156 -0.00037
C 25.75978 19.16075 -0.0032
C 25.83079 17.73693 0.00622
C 24.50485 28.45647 -0.01679
C 24.59162 17.05363 -0.02815
C 25.83091 14.91102 0.00487
C 25.85598 13.55805 0.00826
C 24.49597 2.80508 -0.00294
C 25.75425 2.25456 0.00152
C 25.76603 0.69379 0.01257
C 24.58049 0.01407 0.02316
C 27.06127 32.69477 0.04185
C 28.26989 31.92644 0.00194
C 28.19904 30.47917 -0.00621
C 27.02252 29.74794 0.02611
C 24.56904 15.61971 -0.00942
C 22.13489 29.78569 0.00071
C 24.57105 29.8972 -0.01052
C 25.77015 31.93879 -0.01154
C 23.33006 27.67235 -0.01586
C 23.38063 26.25846 -0.01971
C 22.12833 25.61512 -0.02118
C 22.21909 24.16116 0.00733
C 23.3779 23.44611 -0.00178
C 23.47315 22.00131 0.00768
C 22.1186 21.28793 -0.0276
C 22.10843 19.85836 0.03005
C 23.30415 19.20614 -0.04078
C 23.37444 17.75147 0.02117
C 25.82967 30.55328 0.00684
C 22.15629 17.03511 0.02737
C 23.39577 14.84149 0.00135
C 23.52857 13.48393 0.03102
C 22.37607 12.71713 0.02555
C 21.99186 11.42028 0.01423
C 22.14799 4.18661 -0.00285
C 22.15582 2.8118 -0.009
C 23.31226 2.11043 -0.01199
C 23.3608 0.66341 -0.00229
C 22.08029 34.00088 -0.00938
C 24.60493 32.6458 -0.0264
C 22.13305 15.51341 -0.00498
C 2.45115 32.63459 0.01138
