348
Graphene
C 0.01254 0.0156 0.01295
C 14.74726 25.58088 0.00422
C 14.74397 8.5246 0.0351
C 14.74272 7.09387 -0.03113
C 15.99398 6.36369 0.02098
C 16.01704 4.97049 0.01848
C 14.7792 4.28181 -0.00619
C 14.72549 2.84661 -0.02162
C 15.95874 2.13552 0.00889
C 15.94948 0.66772 -0.00481
C 14.73331 34.05906 0.00979
C 17.26129 32.69603 0.01443
C 18.45033 31.91332 0.03505
C 18.46001 30.51438 -0.02815
C 17.25836 29.8303 -0.04147
C 17.19666 28.46749 -0.05302
C 18.44091 27.66294 0.00213
C 18.43638 26.22639 -0.00066
C 15.95122 26.24198 0.00798
C 16.01512 27.67567 0.00228
C 14.7319 28.38157 -0.00114
C 14.75063 29.80905 -0.02696
C 12.30928 29.77184 -0.01454
C 12.27019 28.43435 0.01945
C 13.47466 27.75055 0.01416
C 13.52955 26.2903 0.03542
C 12.35812 25.56391 0.02299
C 12.30725 24.13468 0.00244
C 12.30519 8.53102 -0.01717
C 12.30953 7.09265 0.05265
C 17.22224 25.55466 -0.00289
C 13.52308 6.3734 -0.01952
C 12.30964 4.28594 0.00374
C 12.26427 2.83297 0.00052
C 13.54562 2.18073 -0.03682
C 13.54468 0.68429 0.01965
C 12.31177 34.04477 0.02058
C 14.75635 32.67521 -0.01957
C 16.02728 31.95203 -0.0108
C 15.98777 30.50442 -0.00368
C 13.50946 4.97629 -0.02813
C 17.28053 24.12155 0.00028
C 18.42365 9.20965 -0.02213
C 17.23084 8.52787 0.03698
C 19.73468 7.10999 -0.00831
C 20.9112 6.41522 -0.02957
C 20.91412 4.99224 -0.04422
C 19.65555 4.33426 0.00654
C 19.64999 2.82203 -0.00703
C 20.91698 2.09061 -0.04076
C 20.9436 0.70688 -0.00652
C 19.68834 0.0217 0.0058
C 19.68927 8.54783 0.00364
C 22.1108 32.65677 -0.00865
C 23.34575 30.54683 -0.00311
C 22.15351 29.80199 0.00742
C 22.18823 28.38874 -0.01594
C 23.38349 27.65076 0.0106
C 23.36716 26.28657 -0.01154
C 22.12868 25.55782 -0.01721
C 22.12601 24.11609 -0.02422
C 23.33911 23.41587 0.01277
C 23.37377 31.94587 0.00675
C 13.53314 30.50352 0.01241
C 20.92269 9.20728 -0.017
C 20.90164 22.03245 0.00667
C 17.18912 7.0497 -0.00109
C 18.42413 6.36906 -0.00491
C 18.39127 4.98667 0.03338
C 17.22195 4.27623 -0.0258
C 17.19726 2.83162 -0.0331
C 18.43134 2.138 -0.00316
C 18.45147 0.71031 0.02188
C 17.24965 0.00435 -0.01979
C 20.92453 10.6473 0.00143
C 19.70613 32.70135 0.02691
C 20.90857 30.53559 0.01452
C 19.68594 29.77874 0.04892
C 19.68757 28.39509 -0.00111
C 20.89066 27.66588 -0.03557
C 20.95118 26.28932 0.03754
C 19.67652 25.53954 0.01739
C 19.63947 24.14102 0.00755
C 20.89445 23.42878 -0.0054
C 20.9114 31.94712 -0.01581
C 23.30398 21.97855 0.00096
C 13.52955 31.93694 0.0076
C 9.87132 34.07739 -0.0014
C 6.11179 30.527 -0.01362
C 4.90394 29.82016 -0.0008
C 4.91148 28.39032 0.0288
C 6.16636 27.70334 0.00393
C 6.1355 26.27119 0.00895
C 4.93204 25.57063 0.00685
C 4.95291 24.12757 0.02888
C 6.1348 23.46317 -0.00482
C 6.1386 21.95476 -0.01384
C 4.91553 21.30701 0.03693
C 6.12904 9.20606 0.01745
C 4.90266 8.56226 0.00488
C 4.88703 7.07771 -0.01004
C 6.12747 6.43546 -0.02896
C 6.13752 5.01191 -0.00131
C 4.92222 4.23344 -0.01118
C 4.89809 2.84321 -0.014
C 6.16031 31.9665 -0.00892
C 4.8969 32.62844 -0.04848
C 2.43938 0.0289 0.01572
C 3.70384 0.70193 -0.00095
C 3.71809 30.51536 -0.02929
C 2.43583 29.86273 -0.00966
C 2.45021 28.40946 -0.03337
C 3.6855 27.6813 0.01227
C 3.71338 26.29604 0.00873
C 2.44871 25.56767 -0.00049
C 2.47139 24.10696 0.00848
C 3.74694 23.44775 -0.01303
C 6.12779 2.12779 0.02147
C 3.73284 22.03022 -0.01378
C 3.69823 9.23999 0.0127
C 2.43115 8.50056 0.01396
C 2.45647 7.16824 0.01849
C 3.71872 6.40295 -0.01142
C 3.69547 4.93909 -0.00562
C 2.45299 4.23427 -0.00494
C 2.50268 2.82852 0.00054
C 3.6734 2.08939 0.03007
C 2.50104 21.28399 0.02635
C 6.1089 0.6984 0.00373
C 4.91331 0.06399 -0.00191
C 7.39392 32.67826 0.00438
C 11.05666 31.9683 -0.02245
C 11.06789 30.56743 -0.00428
C 9.83687 29.78458 0.03101
C 9.84341 28.38886 -0.01536
C 11.07316 27.70854 -0.02689
C 11.09367 26.31383 -0.01046
C 9.87528 25.55405 -0.00891
C 9.8389 24.10208 0.02819
C 9.8364 32.65386 0.00985
C 11.10506 23.45943 0.00165
C 9.83622 8.50224 0.02894
C 9.83048 7.13373 -0.01789
C 11.06313 6.41652 0.00444
C 11.03816 4.97402 -0.00925
C 9.86393 4.25595 0.01877
C 9.8853 2.83776 0.01363
C 11.08374 2.12912 -0.02162
C 11.0206 0.6631 0.00415
C 11.0761 9.23018 -0.02971
C 12.28708 32.67642 0.02162
C 7.35605 0.01379 -0.01275
C 8.59934 2.14722 0.02841
C 8.57983 31.97527 0.01291
C 8.6199 30.54752 0.00093
C 7.40031 29.78536 0.00057
C 7.3732 28.43666 -0.01634
C 8.62538 27.71422 -0.00334
C 8.63449 26.3009 0.02339
C 7.38353 25.57536 0.01641
C 7.41264 24.15292 -0.00719
C 8.61626 0.71894 -0.01111
C 8.60047 23.44917 0.01364
C 7.3654 21.33783 -0.00033
C 8.61658 9.21705 0.03589
C 7.37948 8.53659 -0.02759
C 7.38042 7.12416 0.0402
C 8.61344 6.40898 0.00572
C 8.55917 5.03617 0.03592
C 7.35541 4.29188 0.00406
C 7.37538 2.83397 0.00943
C 8.58059 22.05082 -0.01062
C 22.11603 21.33697 -0.01527
C 23.3892 19.12094 0.01087
C 23.38534 17.73328 0.00199
C 29.51152 0.01283 0.01428
C 31.96986 32.66705 -0.02142
C 33.23639 31.94944 0.0544
C 33.1778 30.54179 0.00026
C 31.93927 29.83672 0.00682
C 31.96702 28.37046 -0.01779
C 33.22145 27.69623 0.03794
C 33.19772 26.28285 0.01927
C 31.97111 25.55339 0.01574
C 32.03191 24.17697 -0.02383
C 33.21843 23.41151 -0.01429
C 33.20406 22.02428 -0.0136
C 31.92449 21.30616 0.00594
C 31.98464 19.89288 -0.02474
C 33.21245 19.15902 0.00369
C 33.17864 17.72714 0.00455
C 31.97752 17.02901 -0.00644
C 30.73821 0.67952 -0.01694
C 30.7227 2.14658 0.01713
C 29.48775 2.81602 0.00346
C 29.52575 4.26404 0.00307
C 30.75338 23.39304 0.01836
C 30.73039 21.9963 0.03531
C 29.52419 21.29127 -0.00669
C 29.51815 19.87606 0.0101
C 30.7585 19.18384 0.01705
C 30.77436 17.75375 -0.0405
C 29.51348 17.04518 -0.01303
C 29.49428 15.6312 -0.01461
C 31.92658 15.65664 -0.01839
C 30.78367 14.91048 -0.02155
C 29.52094 12.79802 -0.03735
C 29.52819 11.34235 -0.00971
C 30.75055 10.65848 0.01518
C 30.75095 9.2628 0.01908
C 29.53222 8.53129 0.07705
C 29.48319 7.08182 0.0103
C 30.74954 6.3999 0.02108
C 30.73391 4.96513 0.00716
C 30.77827 13.48719 -0.00944
C 33.19759 14.84506 0.00137
C 33.20383 13.45824 0.00199
C 31.95732 12.7961 0.04381
C 1.24603 22.04336 -0.01678
C 34.42896 21.26522 0.01223
C 34.41763 19.85476 0.00648
C 1.2398 19.13859 0.02114
C 34.40776 16.99982 -0.02957
C 34.41583 15.65863 0.00343
C 34.41669 12.73265 -0.02656
C 34.39596 11.39309 -0.02442
C 1.21691 23.44246 0.01951
C 1.2217 10.6527 -0.00027
C 0.00625 8.5181 -0.02302
C 34.42939 7.11961 -0.02849
C 1.2438 6.35726 0.02931
C 1.21698 4.91338 0.00628
C 0.00762 4.22958 -0.0345
C 0.03107 2.81694 -0.00931
C 1.24172 2.13812 -0.00939
C 1.26143 0.69833 -0.00468
C 1.23375 9.22939 -0.00583
C 29.54443 24.16309 -0.03039
C 0.00205 24.17268 -0.02213
C 1.21955 26.28879 0.00723
C 32.00554 11.37253 0.02806
C 33.16097 10.68216 0.01504
C 33.20068 9.23936 -0.00069
C 31.97083 8.51728 0.04926
C 32.00067 7.12312 -0.03838
C 33.22734 6.41988 0.00349
C 33.18287 4.93425 -0.00323
C 31.96686 4.25115 -0.00841
C 34.41449 25.58171 0.02712
C 31.9936 2.87389 0.0001
C 33.18347 0.6867 -0.01404
C 31.96089 34.05863 0.01027
C 34.41557 32.65203 0.01831
C 1.26876 31.97646 -0.01037
C 1.20138 30.48002 -0.00439
C 34.41922 29.82937 -0.00598
C 34.42506 28.40861 -0.05239
C 1.20196 27.69857 0.03076
C 33.19257 2.09493 -0.02927
C 29.5065 25.61435 -0.01415
C 30.75524 26.30131 -0.01854
C 30.7446 27.63414 -0.02049
C 24.579 25.5463 -0.02118
C 24.54806 24.13483 0.00733
C 25.79225 23.40441 -0.00178
C 25.79626 22.01881 0.00768
C 24.61319 21.30582 -0.0276
C 24.58999 19.88931 0.03005
C 25.77287 19.17083 -0.04078
C 25.81147 17.77696 0.02117
C 25.81875 26.31588 -0.01971
C 24.59831 17.05888 0.02737
C 25.81133 14.92742 0.00135
C 25.82879 13.49714 0.03102
C 24.58508 12.75378 0.02555
C 24.60652 11.36851 0.01423
C 25.82494 10.61704 -0.00285
C 25.81718 9.22446 -0.009
C 24.60736 8.50169 -0.01199
C 24.55837 7.16039 -0.00229
C 24.63246 15.62452 -0.00498
C 25.85446 6.39749 -0.00938
C 25.80546 27.67872 -0.01586
C 24.57152 29.86608 0.00071
C 23.37441 14.90276 0.01511
C 23.33055 13.46182 -0.00478
C 22.10558 12.77755 -0.01662
C 22.12934 11.3553 -0.01185
C 23.39409 10.59837 0.01126
C 23.33582 9.21547 0.01852
C 22.15952 8.48028 -0.00381
C 22.1453 7.08061 0.03046
C 24.61061 28.39248 -0.01107
C 23.36746 6.38127 0.0296
C 22.14712 4.21803 -0.02845
C 22.12455 2.81382 -0.03213
C 23.35348 2.17857 0.02239
C 23.39725 0.70804 0.01153
C 22.12016 34.03921 0.02734
C 24.57967 32.67042 -0.0055
C 25.78295 31.96157 0.01515
C 25.77815 30.52747 -0.00225
C 23.35669 4.91852 0.03374
C 3.67288 31.97493 0.03368
C 25.83151 4.97425 -0.0264
C 24.59819 2.84166 0.00684
C 27.00814 12.79902 -0.00621
C 27.03693 11.34579 0.02611
C 28.28852 10.64232 0.02198
C 28.30819 9.21089 0.01094
C 27.08446 8.49775 0.00235
C 27.06203 7.06982 0.01495
C 28.30556 6.39657 0.01259
C 28.28248 4.9618 0.01799
C 28.30146 13.45618 0.00194
C 27.02597 4.23521 0.01699
C 28.24022 2.14065 0.01177
C 28.33413 0.66243 0.04266
C 27.09138 34.06407 0.01324
C 29.50389 32.62932 0.0014
C 30.74129 31.92571 0.00924
C 30.77302 30.5084 0.02326
C 29.48889 29.7997 0.00261
C 29.53017 28.38355 0.03265
C 27.03949 2.82325 -0.00416
C 24.62874 4.28689 -0.01154
C 28.3147 14.89045 0.04185
C 27.09517 17.05777 0.01257
C 25.82856 2.11066 -0.01052
C 25.86455 0.71398 -0.01679
C 24.60047 34.05755 0.00367
C 27.07095 32.68075 0.04306
C 28.28427 31.95977 0.00996
C 28.27464 30.56197 0.00195
C 27.04536 29.83314 -0.00802
C 27.06627 28.44017 -0.00218
C 27.02272 15.61477 0.02316
C 28.27552 27.68825 -0.01654
C 27.09587 25.58513 -0.0032
C 27.03218 24.16802 0.00622
C 28.28731 23.38483 -0.02815
C 28.30154 22.02644 -0.00942
C 27.06278 21.28652 0.00487
C 27.06215 19.86168 0.00826
C 28.23578 19.1687 -0.00294
C 28.2996 17.74944 0.00152
C 28.27371 26.23994 -0.00037
C 2.5201 32.70319 -0.00077
