325
Graphene
C 0.02012 0.02247 0.01295
C 12.33159 7.06837 -0.00066
C 13.49474 6.44547 -0.00289
C 13.55898 5.0068 0.00028
C 12.33489 4.24368 -0.02213
C 12.3363 2.87913 0.03698
C 13.54302 2.10973 -0.00109
C 13.48017 0.65272 -0.00491
C 12.25809 8.50093 0.00213
C 12.25159 33.97938 0.03338
C 15.97961 31.92357 -0.0331
C 16.01063 30.56612 -0.00316
C 14.77836 29.78695 0.02188
C 14.81725 28.39187 -0.01979
C 16.02481 27.68881 0.02691
C 15.97976 26.349 -0.01581
C 16.00355 19.14101 0.01452
C 14.77244 32.6093 -0.0258
C 15.93574 17.71625 0.04892
C 13.56881 9.19807 -0.05302
C 12.25081 11.33709 -0.02815
C 9.82074 7.10824 -0.02696
C 11.07295 6.34884 -0.00114
C 11.04472 5.01554 0.00228
C 9.77634 4.29992 0.00798
C 9.82602 2.88628 0.00422
C 11.09323 2.13052 0.0351
C 11.07274 0.70167 -0.03113
C 13.55684 10.67136 -0.04147
C 9.82641 0.00452 0.02098
C 13.54926 31.9538 -0.00619
C 13.54344 30.55972 -0.02162
C 12.3117 29.91328 0.00889
C 12.25955 15.6332 -0.00481
C 13.48562 14.9613 0.00979
C 13.54814 13.45158 0.01443
C 12.30088 12.75518 0.03505
C 12.32444 32.65884 0.01848
C 14.84887 17.0181 -0.00111
C 14.72453 15.56004 -0.03557
C 15.99432 14.9383 0.03754
C 17.20906 25.53239 -0.01154
C 17.15586 24.12907 -0.01721
C 18.42582 23.4115 -0.02422
C 18.50624 21.99905 0.01277
C 17.19668 21.29683 0.00096
C 17.21273 19.89976 -0.01527
C 18.4241 19.21432 0.01087
C 18.44433 26.28001 0.0106
C 18.42924 17.68826 0.00199
C 17.21978 15.59427 -0.00478
C 18.44643 14.95026 -0.01662
C 18.44455 13.45569 -0.01185
C 17.21038 12.75876 0.01126
C 17.18576 11.36897 0.01852
C 17.23235 4.21585 -0.00381
C 17.2635 2.88334 0.03046
C 17.21142 16.99103 0.01511
C 18.47931 27.65676 -0.01594
C 17.245 28.39437 0.00742
C 17.23905 29.78479 -0.00311
C 15.95348 13.47793 0.01739
C 14.73278 12.75632 0.00755
C 14.78123 11.32007 -0.0054
C 16.01248 10.61682 0.00667
C 15.97539 9.24619 0.00143
C 14.73154 8.51932 -0.017
C 14.73876 7.13706 0.00364
C 15.93676 6.44009 -0.00831
C 15.99685 5.0227 -0.02957
C 14.74294 4.28539 -0.04422
C 14.78315 2.82822 0.00654
C 15.98464 2.10597 -0.00703
C 16.01408 0.72079 -0.04076
C 14.78762 0.03418 -0.00652
C 17.25523 32.66537 0.0058
C 18.44304 31.94672 -0.00865
C 18.46228 30.4965 0.00675
C 9.82786 8.49618 -0.00368
C 11.05958 9.22882 -0.0108
C 11.09093 10.66981 -0.01957
C 9.8148 11.33783 0.02058
C 3.67517 6.40225 0.00093
C 3.66135 4.98393 0.00057
C 2.45768 4.26467 -0.01634
C 2.43568 2.85682 -0.00334
C 3.69199 2.15986 0.02339
C 3.7367 0.71205 0.01641
C 2.47119 34.07629 -0.00719
C 2.43829 7.06039 0.01291
C 4.87937 32.65846 0.01364
C 6.1511 30.51527 -0.00033
C 4.86933 29.80212 0.03589
C 4.93519 28.38099 -0.02759
C 4.96341 17.06067 0.0402
C 4.88335 15.67036 0.00572
C 6.14567 14.90157 0.03592
C 6.12248 13.50485 0.00406
C 6.14784 31.99526 -0.01062
C 2.49324 8.55434 0.00438
C 3.71056 9.20557 -0.00191
C 3.67743 10.67826 0.00373
C 3.64864 30.57358 -0.0008
C 2.43974 29.82268 0.0288
C 2.45904 28.42668 0.00393
C 3.70376 27.738 0.00895
C 3.6936 26.25018 0.00685
C 2.49129 25.5582 0.02888
C 2.46158 24.1573 -0.00482
C 2.42429 21.2918 -0.01384
C 2.43414 19.93936 0.03693
C 3.68552 19.16457 0.01745
C 3.6744 17.74446 0.00488
C 2.39947 17.03946 -0.01004
C 2.41519 15.67134 -0.02896
C 3.71909 14.88783 -0.00131
C 3.74405 13.49054 -0.01118
C 2.43496 12.77225 -0.014
C 2.51124 11.34717 0.02147
C 4.92234 12.76836 0.00943
C 18.4153 2.11384 0.0296
C 4.88701 11.44508 0.02841
C 6.15478 9.26735 -0.01275
C 7.40532 7.06923 0.0076
C 8.59163 6.39824 0.01241
C 8.64891 4.94427 -0.01454
C 7.34939 4.24128 0.01945
C 7.40531 2.85167 0.01416
C 8.52648 2.09722 0.03542
C 8.62483 0.76812 0.02299
C 7.35836 8.56309 0.02162
C 7.38122 0.00751 0.00244
C 11.11173 31.9687 0.05265
C 11.04921 30.42404 -0.01952
C 9.85181 29.82764 -0.02813
C 9.86442 15.63806 0.00374
C 11.04292 14.94407 0.00052
C 11.07849 13.49245 -0.03682
C 9.81564 12.73783 0.01965
C 9.83578 32.64228 -0.01717
C 8.64856 9.23823 -0.0014
C 8.59355 10.62444 0.00415
C 7.3781 11.36539 -0.02162
C 4.93313 8.57859 0.00985
C 4.88586 7.11904 -0.02245
C 6.17901 6.39389 -0.00428
C 6.18913 4.9726 0.03101
C 4.92618 4.28159 -0.01536
C 4.88628 2.75276 -0.02689
C 6.15625 2.13344 -0.01046
C 6.14885 0.72009 -0.00891
C 4.89155 34.03069 0.02819
C 7.38814 32.67083 0.00165
C 8.59942 31.98865 -0.02971
C 8.59058 30.53477 0.02894
C 7.38779 29.7988 -0.01789
C 7.34624 15.63241 0.00444
C 8.59089 14.9521 -0.00925
C 8.63221 13.5044 0.01877
C 7.37906 12.77164 0.01363
C 6.14448 10.65644 -0.01111
C 3.69627 31.98515 -0.01362
C 18.43463 0.69474 0.03374
C 19.64035 32.67762 -0.03213
C 31.99861 32.64874 0.00682
C 33.20659 31.98329 -0.01779
C 33.20637 30.55989 0.03794
C 31.99729 29.8671 0.01927
C 33.15496 22.04882 0.01574
C 32.01423 21.3521 -0.02383
C 31.98699 19.90386 -0.01429
C 29.46267 0.00594 0.00026
C 33.21336 19.20629 -0.0136
C 31.98956 17.03508 -0.02474
C 32.00236 15.58023 0.00369
C 33.19691 14.91971 0.00455
C 33.19837 13.51333 -0.00644
C 31.97334 12.79178 -0.01839
C 31.91062 11.33803 0.00137
C 33.14729 10.67581 0.00199
C 33.18296 17.73532 0.00594
C 33.19922 9.22404 0.04381
C 30.72243 0.74896 0.0544
C 29.49381 2.84773 0.01428
C 29.56146 19.92573 -0.01303
C 30.74666 19.14373 -0.01461
C 30.75115 17.76264 -0.02155
C 29.48302 17.0236 -0.00944
C 29.5213 15.64258 -0.03735
C 30.71736 14.93951 -0.00971
C 30.68113 13.48977 0.01518
C 30.71495 2.12895 -0.02142
C 29.49729 12.74623 0.01908
C 30.72713 10.67926 0.0103
C 30.7056 9.24104 0.02108
C 29.51866 8.53354 0.00716
C 29.51308 7.05463 0.00307
C 30.73616 6.36903 0.00346
C 30.7183 4.98459 0.01713
C 29.55242 4.25255 -0.01694
C 29.53633 11.40953 0.07705
C 31.96381 8.50134 0.02806
C 31.94675 7.11562 0.01504
C 33.18301 6.39439 -0.00069
C 34.38282 17.06225 0.00648
C 0.02771 15.60917 0.02114
C 1.23644 14.8742 -0.02957
C 1.27461 13.47208 0.00343
C 34.42903 12.78023 -0.02656
C 34.40736 11.38803 -0.02442
C 1.23187 10.67766 -0.00027
C 1.20289 17.73911 0.01223
C 1.2293 9.21355 -0.00583
C 34.40829 7.12475 -0.02849
C 1.24779 6.40515 0.02931
C 1.22388 4.8932 0.00628
C 0.02586 4.20241 -0.0345
C 0.02086 2.83548 -0.00931
C 1.24932 2.16935 -0.00939
C 1.26155 0.67176 -0.00468
C 34.383 8.53838 -0.02302
C 1.27611 19.14248 -0.01678
C 34.40007 19.84898 0.01951
C 34.39726 21.3265 -0.02213
C 33.17899 4.94888 0.04926
C 31.94122 4.29173 -0.03838
C 31.96842 2.87018 0.00349
C 33.20831 2.07313 -0.00323
C 33.22949 0.68105 -0.00841
C 31.97445 0.03002 0.0001
C 0.04732 32.64473 -0.02927
C 1.22748 31.90105 -0.01404
C 1.24295 30.52851 0.01027
C 0.02349 29.79275 0.01831
C 34.41973 28.41239 -0.01037
C 1.23762 27.65829 -0.00439
C 1.22496 26.27991 -0.00598
C 34.42661 25.5728 -0.05239
C 0.01115 24.23348 0.03076
C 1.2146 23.45453 0.00723
C 1.25308 22.06009 0.02712
C 30.77621 30.54968 -0.0405
C 30.74373 31.94275 0.01705
C 29.50193 32.65763 0.0101
C 27.09993 0.01416 -0.00669
C 20.93976 0.70051 0.03102
C 19.63425 34.02447 0.02555
C 22.13828 32.70391 0.01423
C 23.37148 31.94951 -0.00285
C 23.39243 30.57258 -0.009
C 22.12234 29.73966 -0.01199
C 22.08691 28.38428 -0.00229
C 20.87576 2.15353 0.00135
C 23.47524 27.74112 -0.00938
C 22.10647 19.87206 -0.01154
C 23.31858 19.18276 0.00684
C 23.34817 17.69049 -0.01052
C 22.12749 17.01869 -0.01679
C 22.11546 15.58739 0.00367
C 23.37473 14.96817 0.04306
C 23.38482 13.52012 0.00996
C 22.11675 21.29652 -0.0264
C 19.73342 2.84216 -0.00498
C 19.67239 12.78393 0.02737
C 20.81211 13.50342 0.02117
C 20.91513 32.0091 0.02239
C 20.95749 30.48938 0.01153
C 19.6564 29.79265 0.02734
C 19.63323 28.4213 -0.0055
C 20.90177 27.71467 0.01515
C 20.87354 26.33433 -0.00225
C 19.64598 25.59605 0.00071
C 19.65452 24.12813 -0.01107
C 20.90148 23.45782 -0.01586
C 20.93118 22.03649 -0.01971
C 19.67292 21.2923 -0.02118
C 19.63843 19.85838 0.00733
C 20.88308 19.13828 -0.00178
C 20.87427 17.76236 0.00768
C 19.66077 17.11945 -0.0276
C 19.67043 15.5894 0.03005
C 20.88158 14.86916 -0.04078
C 23.34555 2.13612 0.00195
C 17.2194 0.00501 -0.02845
C 23.40688 0.73321 -0.00802
C 24.5339 32.61548 -0.01654
C 28.25238 19.17421 0.01699
C 28.2974 17.73652 -0.00416
C 27.02074 16.99467 0.01177
C 27.04841 15.6187 0.04266
C 28.30844 14.88065 0.01324
C 28.2984 13.47602 0.0014
C 27.08209 12.7701 0.00924
C 27.03803 19.84262 0.01799
C 27.09428 11.30295 0.02326
C 28.27619 9.18549 0.03265
C 28.26726 6.33695 -0.02049
C 28.28626 4.97983 -0.01854
C 27.08928 4.25003 -0.01415
C 27.07371 2.89448 -0.03039
C 28.22933 2.1132 0.01836
C 28.22664 0.68721 0.03531
C 28.25752 10.57578 0.00261
C 27.05704 29.86969 0.01259
C 28.27683 30.49795 0.01495
C 28.32215 31.93531 0.00235
C 25.74995 31.95026 -0.00037
C 25.78924 30.48736 -0.0032
C 24.60418 29.80491 0.00622
C 24.56622 28.35095 -0.02815
C 24.61999 19.8208 -0.00942
C 25.85086 19.13508 0.00487
C 25.83418 17.72798 0.00826
C 24.57317 17.05479 -0.00294
C 24.62103 15.56009 0.00152
C 25.8025 14.89032 0.01257
C 25.79569 13.49114 0.02316
C 24.61389 12.73665 0.04185
C 24.6398 2.7893 0.00194
C 25.81068 2.11654 -0.00621
C 25.8292 0.70847 0.02611
C 24.60917 0.00671 0.02198
C 27.06786 32.62918 0.01094
C 22.18137 0.03321 -0.00218
C 2.44203 32.64737 -0.00892
