416
Graphene
C 34.33414 34.01058 0.01295
C 12.32582 28.47461 -0.01111
C 13.62172 27.71507 -0.01275
C 13.65741 26.30522 0.00985
C 12.44684 25.62575 -0.02245
C 12.3664 24.08257 -0.00428
C 13.67542 23.36727 0.03101
C 13.61354 22.00534 -0.01536
C 12.29673 21.35494 -0.02689
C 12.22318 20.05186 -0.01046
C 13.40669 19.37336 -0.00891
C 12.26899 29.95036 0.02841
C 13.43076 17.94101 0.02819
C 12.31386 15.64803 -0.02971
C 13.50223 14.93338 0.02894
C 13.56192 13.46729 -0.01789
C 12.28803 12.82402 0.00444
C 12.2369 11.43974 -0.00925
C 13.45989 10.70084 0.01877
C 13.39829 9.28633 0.01363
C 12.22989 8.57081 -0.02162
C 12.20102 7.09789 0.00415
C 13.44854 6.35146 -0.0014
C 12.2079 17.07567 0.00165
C 13.48483 4.8563 0.02162
C 13.51417 30.62689 0.00943
C 12.24368 32.76123 0.03592
C 10.98707 22.0922 -0.00131
C 9.79033 21.2831 -0.01118
C 9.77853 19.85727 -0.014
C 10.99434 19.17551 0.02147
C 10.9574 17.72066 0.00373
C 9.82473 16.99597 -0.00191
C 9.90117 15.6152 0.00438
C 11.11606 14.87524 0.01291
C 11.06231 13.55165 0.00093
C 9.78379 12.74145 0.00057
C 13.47662 32.05207 0.00406
C 9.717 11.37881 -0.01634
C 11.07467 9.32142 0.02339
C 9.80684 8.53083 0.01641
C 9.77889 7.17254 -0.00719
C 10.99703 6.38584 0.01364
C 10.97424 4.99754 -0.01062
C 9.70298 4.28516 -0.00033
C 9.75946 2.89489 0.03589
C 10.9657 2.17241 -0.02759
C 10.99505 0.72945 0.0402
C 9.75088 0.07671 0.00572
C 11.01405 10.73151 -0.00334
C 11.06169 23.54828 -0.02896
C 12.18693 4.19031 0.0076
C 13.45233 2.21213 -0.01454
C 15.97948 2.06412 -0.00619
C 15.97235 0.6617 -0.02162
C 14.74 34.07783 0.00889
C 17.18986 32.68954 -0.00481
C 18.51917 31.92166 0.00979
C 18.52986 30.45996 0.01443
C 17.24539 29.90526 0.03505
C 17.22387 28.54781 -0.02815
C 18.26392 27.50093 -0.04147
C 17.45331 26.33623 -0.05302
C 14.72451 2.80417 0.01848
C 17.10785 17.14253 0.00213
C 18.58018 15.05231 -0.00289
C 18.53733 13.63081 0.00028
C 17.33874 12.89469 -0.02213
C 17.27968 11.45869 0.03698
C 18.40071 10.69865 -0.00109
C 18.36419 9.28747 -0.00491
C 17.13108 8.51839 0.03338
C 17.19368 7.1239 -0.0258
C 18.41069 6.40237 -0.0331
C 18.47463 5.02006 -0.00316
C 17.34548 15.77307 -0.00066
C 12.14947 2.89765 0.01241
C 14.71373 4.24317 0.02098
C 16.01428 6.41499 0.0351
C 13.57161 0.79244 0.01945
C 12.25738 0.09308 0.01416
C 14.6734 32.70008 0.03542
C 15.95785 31.97238 0.02299
C 15.96751 30.50968 0.00244
C 14.71166 29.8734 -0.01717
C 14.83092 28.40002 0.05265
C 16.02353 27.88181 -0.01952
C 16.16875 26.36883 -0.02813
C 14.99182 25.56621 0.00374
C 15.96874 5.0434 -0.03113
C 14.87561 24.23114 0.00052
C 14.66565 17.18803 0.01965
C 14.77272 15.67434 0.02058
C 15.98817 15.01349 -0.01957
C 16.01575 13.53224 -0.0108
C 14.79521 12.75971 -0.00368
C 14.72028 11.36247 -0.02696
C 16.02449 10.67879 -0.00114
C 15.94383 9.21747 0.00228
C 14.61801 8.47064 0.00798
C 14.66678 7.1737 0.00422
C 15.96539 17.69423 -0.03682
C 17.26502 4.30206 0.02188
C 9.87207 24.26468 -0.01004
C 11.20655 26.27486 0.01745
C 2.36335 2.8019 -0.03291
C 3.60088 2.21487 -0.04999
C 3.58375 0.7152 0.04505
C 2.33969 34.03795 0.03284
C 4.78991 32.78664 -0.04307
C 6.01861 32.07465 0.03189
C 6.1003 30.60583 0.00031
C 4.91681 29.82295 -0.003
C 4.84609 28.37696 0.01402
C 6.13301 27.79617 0.02379
C 2.35009 4.34261 0.02769
C 6.08196 26.43113 0.00907
C 4.91502 24.23625 -0.01509
C 6.09757 23.52122 0.03267
C 6.09377 22.12247 0.02374
C 4.93384 21.39608 0.00402
C 4.95717 19.90211 0.0073
C 6.10609 19.21741 0.0174
C 6.08406 17.78645 0.03828
C 4.88728 17.04109 0.01226
C 4.86659 15.67031 -0.00279
C 6.21217 14.97619 0.01996
C 4.89686 25.72278 0.00643
C 6.22819 13.64018 -0.03996
C 3.60822 4.90804 0.01707
C 2.37384 7.04764 -0.00561
C 3.71886 30.55151 -0.00407
C 2.37122 29.81362 0.01138
C 2.4104 28.45996 0.03278
C 3.59963 27.74999 -0.00177
C 3.6325 26.36774 0.04421
C 2.37981 25.61468 0.00088
C 2.42734 24.19665 0.00828
C 3.70134 23.48518 -0.02375
C 3.68004 22.05661 0.00558
C 2.41524 21.33135 -0.0059
C 3.6231 6.37126 0.00208
C 2.47136 19.9228 -0.01386
C 3.61012 17.7181 0.00081
C 2.36278 17.05063 0.00245
C 2.38883 15.65797 0.02728
C 3.65375 14.9838 -0.00039
C 3.67464 13.57139 0.0064
C 2.50387 12.84295 0.00211
C 2.42933 11.38303 -0.00449
C 3.72441 10.76696 -0.01979
C 3.6347 9.36243 0.02784
C 2.3622 8.56561 -0.01977
C 3.68611 19.20598 -0.02805
C 9.8873 25.66855 0.00488
C 4.94218 12.98501 0.01465
C 6.11595 10.68987 -0.00518
C 7.32718 15.66405 0.0127
C 8.5242 14.93181 0.01396
C 8.5654 13.48708 0.01849
C 7.33367 12.78649 -0.01142
C 7.29301 11.36497 -0.00562
C 8.58309 10.65653 -0.00494
C 8.61895 9.2211 0.00054
C 7.26472 8.55911 0.03007
C 7.27748 7.06152 -0.00095
C 8.52971 6.47988 0.01572
C 7.41514 17.03033 0.02635
C 8.56464 4.97797 -0.04848
C 7.22421 2.92028 -0.01362
C 8.53331 2.21502 -0.0008
C 8.58031 0.80924 0.0288
C 7.29979 0.10597 0.00393
C 9.77054 32.8015 0.00895
C 11.02685 32.10897 0.00685
C 11.00447 30.61666 0.02888
C 9.77861 29.92419 -0.00482
C 9.85977 28.48794 -0.01384
C 11.17393 27.78276 0.03693
C 7.27191 4.35888 -0.00892
C 4.88732 11.55479 -0.00074
C 8.60937 17.72708 -0.01378
C 7.3492 19.95051 0.00848
C 6.07517 9.25596 0.0086
C 4.78566 8.53455 -0.00643
C 4.78649 7.19992 0.017
C 6.09183 6.39211 -0.03113
C 5.96807 5.05997 -0.02566
C 4.79511 4.28927 -0.00094
C 4.76759 2.93598 0.02322
C 6.05562 2.18763 -0.00725
C 6.08618 0.76932 -0.05697
C 4.84268 0.10349 0.01087
C 8.55466 19.11215 -0.01303
C 7.33622 32.80416 -0.01343
C 8.5107 30.66527 0.0276
C 7.35123 29.92413 0.01305
C 7.35089 28.46485 -0.00077
C 8.63851 27.7763 0.03368
C 8.61798 26.35001 -0.02929
C 7.36357 25.67689 -0.00966
C 7.42541 24.26318 -0.03337
C 8.64786 23.52266 0.01227
C 8.63235 22.12288 0.00873
C 7.42649 21.36989 -0.00049
C 8.50785 32.09268 0.00988
C 17.22608 2.85171 -0.01979
C 18.3992 2.09742 0.02691
C 18.47565 0.65995 -0.01581
C 30.74424 10.68004 -0.00944
C 30.77323 9.24021 -0.03735
C 29.56163 8.44128 -0.00971
C 29.55999 7.03843 0.01518
C 30.77373 6.35162 0.01908
C 30.69379 4.89192 0.07705
C 29.48514 4.22191 0.0103
C 29.46043 2.80488 0.02108
C 30.65893 2.13091 0.00716
C 30.69594 0.73579 0.00307
C 29.57091 11.46792 -0.02155
C 29.55543 0.03213 0.00346
C 33.0423 31.97973 -0.01694
C 33.08368 30.48818 0.01428
C 31.89438 29.72033 -0.02142
C 31.95672 28.40339 0.0544
C 33.15942 27.62178 0.00026
C 33.12937 26.25128 0.00682
C 31.91134 25.49521 -0.01779
C 31.88401 24.05684 0.03794
C 33.118 23.3609 0.01927
C 32.99738 22.02954 0.01574
C 31.87775 32.74875 0.01713
C 31.85472 21.23895 -0.02383
C 29.3508 12.90804 -0.01461
C 30.49364 17.67585 -0.0405
C 27.04039 7.1557 0.01495
C 28.28167 6.39775 0.01259
C 28.30103 4.94789 0.01799
C 26.99597 4.25256 0.01699
C 27.03202 2.86557 -0.00416
C 28.20265 2.10583 0.01177
C 28.32751 0.70661 0.04266
C 27.04099 0.04608 0.01324
C 29.41288 32.60288 0.0014
C 30.65361 31.88643 0.00924
C 30.68995 13.67387 -0.01303
C 30.72943 30.48955 0.02326
C 29.4074 28.36143 0.03265
C 30.64713 27.68424 -0.02049
C 30.66653 26.20701 -0.01854
C 29.41011 25.50782 -0.01415
C 29.39881 24.04881 -0.03039
C 30.617 23.35927 0.01836
C 30.56099 21.95514 0.03531
C 29.41236 21.25015 -0.00669
C 29.43481 19.81844 0.0101
C 30.67221 19.12449 0.01705
C 29.46195 29.8018 0.00261
C 27.05557 8.63675 0.00235
C 31.87343 19.73355 -0.01429
C 33.04167 17.5979 0.00594
C 1.1145 23.40362 0.00723
C 1.13349 21.9467 0.02712
C 34.2924 21.24736 -0.02213
C 34.30688 19.77521 0.01951
C 1.16919 19.14638 -0.01678
C 1.077 17.78294 0.01223
C 34.29816 17.01484 0.00648
C 34.33798 15.54402 0.02114
C 1.14181 14.91017 -0.02957
C 1.24195 13.46978 0.00343
C 34.34524 24.09382 0.03076
C 34.43017 12.77151 -0.02656
C 1.23016 10.65175 -0.00027
C 1.21541 9.246 -0.00583
C 0.00129 8.52191 -0.02302
C 34.40753 7.1133 -0.02849
C 1.1425 6.40068 0.02931
C 1.15804 5.04176 0.00628
C 34.37391 4.19937 -0.0345
C 34.32508 2.84798 -0.00931
C 1.1674 2.09448 -0.00939
C 1.153 0.65187 -0.00468
C 0.02917 11.35759 -0.02442
C 33.05519 18.99985 -0.0136
C 34.332 25.57269 -0.05239
C 1.15079 27.65117 -0.00439
C 31.6865 16.82247 -0.02474
C 31.77836 15.36467 0.00369
C 33.09638 14.76247 0.00455
C 33.16632 13.45848 -0.00644
C 31.9072 12.82584 -0.01839
C 31.96934 11.41378 0.00137
C 33.22908 10.66181 0.00199
C 33.19022 9.24503 0.04381
C 32.02611 8.4826 0.02806
C 32.02727 7.08439 0.01504
C 1.0586 26.27348 -0.00598
C 33.167 6.34938 -0.00069
C 31.92865 4.1388 -0.03838
C 31.96775 2.80906 0.00349
C 33.13492 2.07945 -0.00323
C 33.12463 0.67595 -0.00841
C 31.92015 0.07346 0.0001
C 34.23107 32.61932 -0.02927
C 1.07504 31.94858 -0.01404
C 1.17072 30.47036 0.01027
C 34.34884 29.82625 0.01831
C 34.34527 28.39547 -0.01037
C 33.09703 4.93694 0.04926
C 28.39434 9.22737 0.01094
C 28.38954 10.62373 0.02198
C 27.21983 11.41546 0.02611
C 23.38751 31.91072 -0.01154
C 23.31089 30.45429 -0.01721
C 22.05408 29.80515 -0.02422
C 22.07106 28.30635 0.01277
C 23.24916 27.69581 0.00096
C 23.35036 26.20356 -0.01527
C 22.2081 25.46748 0.01087
C 23.39261 23.37829 0.00199
C 23.35434 22.06377 0.01511
C 23.07742 19.1025 -0.00478
C 22.11995 32.53269 0.0106
C 23.20881 17.71221 -0.01662
C 22.32734 15.4131 0.01126
C 23.46835 14.79024 0.01852
C 23.49191 13.4379 -0.00381
C 22.27086 12.71757 0.03046
C 22.22803 11.37212 0.0296
C 23.43266 10.72071 0.03374
C 23.3978 9.32272 -0.02845
C 22.11034 8.62289 -0.03213
C 22.05459 7.15411 0.02239
C 23.36863 6.42696 0.01153
C 22.10083 16.73632 -0.01185
C 23.35672 4.96015 0.02734
C 19.75291 34.07393 -0.01594
C 20.86153 2.10837 -0.00311
C 17.23698 0.00636 0.01452
C 19.72117 32.66756 0.04892
C 20.89504 31.81449 -0.00111
C 20.80905 30.40505 -0.03557
C 19.59683 29.65873 0.03754
C 19.55948 28.1778 0.01739
C 20.78436 27.54895 0.00755
C 21.01775 26.17573 -0.0054
C 20.30803 17.0676 0.00667
C 19.93056 15.77636 0.00143
C 20.92109 0.74583 0.00742
C 21.0111 14.76103 -0.017
C 19.71185 12.73242 -0.00831
C 19.65708 11.38464 -0.02957
C 20.9175 10.62264 -0.04422
C 20.81552 9.24166 0.00654
C 19.53044 8.48631 -0.00703
C 19.65822 7.14505 -0.04076
C 20.85544 6.42526 -0.00652
C 20.86806 5.04153 0.0058
C 19.71401 4.27938 -0.00865
C 19.64326 2.80138 0.00675
C 20.9807 13.38284 0.00364
C 22.10388 4.31679 -0.0055
C 22.10599 2.9073 0.01515
C 23.28548 2.20786 -0.00225
C 25.84229 6.44166 -0.01679
C 25.75432 5.02627 0.00367
C 24.60513 4.294 0.04306
C 24.43935 2.83379 0.00996
C 25.77574 2.14047 0.00195
C 25.85586 0.77755 -0.00802
C 24.54588 0.11208 -0.00218
C 26.96396 32.65019 -0.01654
C 28.16913 31.86702 -0.00037
C 28.26029 30.48776 -0.0032
C 24.52563 7.11534 -0.01052
C 26.97221 29.77804 0.00622
C 28.15849 27.61085 -0.00942
C 28.13471 26.2169 0.00487
C 26.96481 25.3368 0.00826
C 26.99556 24.01505 -0.00294
C 28.19098 23.3056 0.00152
C 28.16866 21.96636 0.01257
C 26.99434 21.18373 0.02316
C 27.06057 19.71619 0.04185
C 28.25463 19.05638 0.00194
C 27.52403 12.82982 -0.00621
C 27.0028 28.33587 -0.02815
C 24.53528 8.55153 0.00684
C 25.85123 9.3435 -0.01154
C 25.88758 10.75324 -0.0264
C 23.32291 0.7288 0.00071
C 22.13583 33.97701 -0.01107
C 24.59548 32.75013 -0.01586
C 25.75783 32.00981 -0.01971
C 25.723 30.42894 -0.02118
C 24.54809 29.7059 0.00733
C 24.57501 28.31368 -0.00178
C 25.76718 27.5971 0.00768
C 25.81938 26.19583 -0.0276
C 24.60538 25.54712 0.03005
C 24.53867 24.12534 -0.04078
C 25.69327 23.37268 0.02117
C 25.69406 21.90577 0.02737
C 24.37099 21.13301 -0.00498
C 24.27669 19.75471 0.00135
C 25.67798 19.0104 0.03102
C 25.48801 17.67184 0.02555
C 24.42085 16.95517 0.01423
C 24.56972 15.52028 -0.00285
C 25.86003 14.97921 -0.009
C 26.15408 13.65113 -0.01199
C 24.71895 12.83689 -0.00229
C 24.64756 11.35419 -0.00938
C 3.63053 31.99777 -0.01299
C 2.31548 32.65606 -0.0154
