289
Graphene
C 34.29512 0.03156 0.01295
C 13.53576 26.31932 -0.017
C 12.28179 25.51738 0.00364
C 12.23436 24.1257 -0.00831
C 13.538 23.44395 -0.02957
C 13.45026 22.03358 -0.04422
C 12.22304 21.26049 0.00654
C 13.51987 27.71692 0.00143
C 12.214 19.85574 -0.00703
C 13.37309 17.68565 -0.00652
C 12.20645 16.91248 0.0058
C 12.19433 15.52496 -0.00865
C 12.31958 12.82679 0.00675
C 13.79842 6.31521 -0.00311
C 13.73553 5.01068 0.00742
C 13.42296 19.21641 -0.04076
C 12.56687 4.14373 -0.01594
C 12.30376 28.36229 0.00667
C 13.53997 30.45802 0.00755
C 9.80919 21.28909 0.03338
C 9.7998 19.90249 -0.0258
C 10.98277 19.14951 -0.0331
C 10.99748 17.64559 -0.00316
C 9.7685 16.9792 0.02188
C 9.77272 15.61749 -0.01979
C 12.30153 29.82878 -0.0054
C 11.00605 14.79262 0.02691
C 9.61714 12.95729 0.01452
C 11.0592 2.09709 0.04892
C 11.16031 0.70312 -0.00111
C 9.95774 34.0789 -0.03557
C 12.34021 32.60478 0.03754
C 13.55626 31.93179 0.01739
C 11.03323 13.39653 -0.01581
C 10.9889 22.00744 -0.00491
C 12.24284 2.7996 0.0106
C 13.59726 0.67402 -0.01721
C 14.80385 2.81068 0.02239
C 16.15964 2.14312 0.01153
C 16.07732 0.67057 0.02734
C 14.8001 34.04034 -0.0055
C 17.21958 32.63091 0.01515
C 18.44319 32.00459 -0.00225
C 14.92121 4.19774 -0.03213
C 18.40212 30.61897 0.00071
C 17.11943 28.45244 -0.01586
C 18.40454 27.80384 -0.01971
C 18.45899 26.42825 -0.02118
C 17.37876 25.56754 0.00733
C 17.26784 24.11116 -0.00178
C 17.57365 2.67022 0.00768
C 17.18019 29.87474 -0.01107
C 13.49759 2.04579 -0.01154
C 14.68259 17.17437 -0.02845
C 15.91155 19.33294 0.0296
C 12.4597 33.99624 -0.02422
C 14.80471 32.65096 0.01277
C 16.06659 31.98456 0.00096
C 15.99671 30.60516 -0.01527
C 14.8198 29.83618 0.01087
C 14.81922 28.42631 0.00199
C 15.65237 18.01615 0.03374
C 16.02228 27.65884 0.01511
C 14.81408 25.55935 -0.01662
C 14.7889 24.1472 -0.01185
C 16.04725 23.3405 0.01126
C 15.90073 21.80586 0.01852
C 14.61804 21.36432 -0.00381
C 14.55867 19.9866 0.03046
C 16.07595 26.30296 -0.00478
C 10.99979 23.47518 -0.00109
C 9.78298 24.13791 0.03698
C 9.7804 25.55336 -0.02213
C 3.55909 0.82979 0.00444
C 2.47035 0.05197 -0.00925
C 4.92758 32.80595 0.01877
C 6.17658 32.13902 0.01363
C 6.262 30.63124 -0.02162
C 5.03997 29.87069 0.00415
C 2.47545 12.69189 -0.01789
C 4.88535 28.44434 -0.0014
C 6.15318 26.24334 0.0076
C 4.93308 25.51392 0.01241
C 4.92285 24.12948 -0.01454
C 6.12584 23.37885 0.01945
C 6.0994 22.01273 0.01416
C 4.89191 21.33172 0.03542
C 6.11795 27.67001 0.02162
C 4.82383 19.86309 0.02299
C 3.55481 13.41832 0.02894
C 2.36353 15.58028 0.00165
C 3.79062 30.62925 0.00406
C 2.49487 29.92278 0.00943
C 2.44084 28.5005 0.02841
C 3.6531 27.78444 -0.01111
C 3.67143 26.23048 -0.01275
C 2.41851 25.56641 0.00985
C 3.57488 14.90863 -0.02971
C 2.4368 24.17752 -0.02245
C 3.66655 22.05991 0.03101
C 2.41931 21.33429 -0.01536
C 2.36867 19.90896 -0.02689
C 3.56534 19.24851 -0.01046
C 3.54777 17.76333 -0.00891
C 2.3715 16.99639 0.02819
C 3.68867 23.47555 -0.00428
C 6.0322 19.10443 0.00244
C 5.98816 17.73819 -0.01717
C 4.82062 16.99809 0.05265
C 8.54408 17.72171 -0.00619
C 7.21783 17.08174 -0.02162
C 7.28602 15.65183 0.00889
C 8.57114 14.94294 -0.00481
C 8.55836 13.56246 0.00979
C 8.76514 0.74452 0.01443
C 8.58326 19.17933 0.01848
C 7.51237 0.17457 0.03505
C 11.10949 31.92413 -0.04147
C 11.11037 30.53754 -0.05302
C 9.80698 29.84029 0.00213
C 9.87472 28.36918 -0.00066
C 11.13326 27.6132 -0.00289
C 11.01585 26.20071 0.00028
C 9.8944 32.59827 -0.02815
C 7.26312 19.89676 0.02098
C 7.34797 21.35181 -0.03113
C 8.56547 22.04344 0.0351
C 4.86426 15.60753 -0.01952
C 5.96492 14.74634 -0.02813
C 5.91509 13.49798 0.00374
C 6.16584 0.75683 0.00052
C 4.86158 0.19069 -0.03682
C 7.47 32.88355 0.01965
C 8.60048 32.01853 0.02058
C 8.59592 30.59633 -0.01957
C 7.41392 29.85511 -0.0108
C 7.38859 28.42189 -0.00368
C 8.5985 27.71182 -0.02696
C 8.55423 26.28749 -0.00114
C 7.37407 25.52208 0.00228
C 7.34371 24.17348 0.00798
C 8.55339 23.44164 0.00422
C 18.69257 2.07226 -0.0276
C 3.76986 32.04926 0.03592
C 18.51646 0.64357 0.03005
C 19.74499 32.62216 0.02117
C 33.1028 22.05672 -0.0136
C 31.87905 21.36228 0.00594
C 31.82623 19.84497 -0.02474
C 33.10806 19.16652 0.00369
C 33.14663 17.75148 0.00455
C 31.85234 17.09337 -0.00644
C 33.17366 23.4593 -0.01429
C 31.82993 15.63349 -0.01839
C 33.12521 13.4754 0.00199
C 31.88677 12.79809 0.04381
C 31.98514 11.52745 0.02806
C 33.18801 10.67362 0.01504
C 33.18399 9.25023 -0.00069
C 31.9105 8.50374 0.04926
C 33.066 14.92951 0.00137
C 31.92488 7.16333 -0.03838
C 31.94158 24.19819 -0.02383
C 33.11196 26.32418 0.01927
C 29.46163 7.25683 0.0103
C 30.65101 6.47355 0.02108
C 30.51553 5.08393 0.00716
C 29.3681 4.36029 0.00307
C 29.3936 2.95152 0.00346
C 30.69277 2.24951 0.01713
C 31.95143 25.61842 0.01574
C 30.65929 0.81052 -0.01694
C 31.94692 32.81393 -0.02142
C 33.1481 32.06091 0.0544
C 33.19177 30.63459 0.00026
C 31.95903 29.89314 0.00682
C 31.97413 28.45272 -0.01779
C 33.19273 27.69243 0.03794
C 29.44763 0.09899 0.01428
C 29.50997 8.74112 0.07705
C 33.15307 6.41091 0.00349
C 31.78551 4.32583 -0.00841
C 1.16461 17.73394 -0.02957
C 34.36027 17.00996 0.00343
C 34.32617 15.6173 -0.02656
C 1.17424 14.92263 -0.02442
C 1.22635 13.53205 -0.00027
C 34.39402 12.86191 -0.00583
C 1.19337 19.15822 0.02114
C 0.04304 11.36183 -0.02302
C 34.39092 8.53047 0.02931
C 0.00089 7.23089 0.00628
C 34.39152 4.35405 -0.0345
C 0.0278 2.88637 -0.00931
C 1.23864 2.05198 -0.00939
C 1.13243 0.7013 -0.00468
C 1.29486 10.76172 -0.02849
C 33.13893 4.96954 -0.00323
C 34.38481 19.89325 0.00648
C 1.15138 22.05352 -0.01678
C 31.89289 2.91748 0.0001
C 33.11027 2.21673 -0.02927
C 33.13106 0.79288 -0.01404
C 31.92397 0.13487 0.01027
C 34.39863 32.71842 0.01831
C 1.26762 31.96797 -0.01037
C 34.34908 21.30017 0.01223
C 1.26622 30.63037 -0.00439
C 34.38854 28.45928 -0.05239
C 1.21505 27.82339 0.03076
C 1.16459 26.3226 0.00723
C 34.35781 25.57296 0.02712
C 34.35484 24.16992 -0.02213
C 1.19169 23.52596 0.01951
C 34.40952 29.93054 -0.00598
C 30.74889 9.24469 0.01908
C 30.85763 10.72839 0.01518
C 29.48541 11.16179 -0.00971
C 25.78365 31.97062 0.00996
C 25.82628 30.52125 0.00195
C 24.62531 29.8331 -0.00802
C 24.59306 28.37031 -0.00218
C 25.79919 27.60586 -0.01654
C 25.90102 26.08027 -0.00037
C 24.53781 32.66547 0.04306
C 24.47802 2.79965 -0.0032
C 25.69929 0.78125 -0.02815
C 24.51067 34.06401 -0.00942
C 27.00443 32.68155 0.00487
C 28.2566 31.9913 0.00826
C 28.24778 30.53778 -0.00294
C 27.06438 29.74622 0.00152
C 25.80377 2.19788 0.00622
C 27.04727 28.33397 0.01257
C 22.07337 34.06253 0.00367
C 23.3998 2.12886 -0.01052
C 20.92512 31.93911 0.02737
C 20.92489 30.55254 -0.00498
C 19.67527 29.9418 0.00135
C 19.61326 28.49943 0.03102
C 20.79212 27.72651 0.02555
C 20.35014 2.16692 0.01423
C 23.24153 0.68929 -0.01679
C 20.86521 0.82252 -0.00285
C 22.08699 32.71778 -0.01199
C 23.42185 31.97476 -0.00229
C 23.41978 30.52553 -0.00938
C 22.24042 29.82567 -0.0264
C 22.09485 28.32799 -0.01154
C 23.42003 27.71189 0.00684
C 19.74545 34.01477 -0.009
C 28.28503 27.62322 0.02316
C 28.29574 26.18782 0.04185
C 26.97067 25.61422 0.00194
C 30.73269 26.21092 -0.01854
C 29.57452 25.51945 -0.01415
C 29.45757 23.97665 -0.03039
C 30.77229 23.47907 0.01836
C 30.64708 22.02522 0.03531
C 29.39041 21.56775 -0.00669
C 30.74186 27.73022 -0.02049
C 29.25364 20.08879 0.0101
C 30.62433 17.80597 -0.0405
C 29.46004 17.07546 -0.01303
C 29.42914 15.65232 -0.01461
C 30.63737 14.888 -0.02155
C 30.5872 13.38104 -0.00944
C 29.38104 12.60256 -0.03735
C 30.54288 19.33636 0.01705
C 29.4885 28.37141 0.03265
C 29.48125 29.83894 0.00261
C 30.66654 30.59425 0.02326
C 28.42465 22.96262 -0.00621
C 28.08228 19.27532 0.02611
C 28.12747 17.77686 0.02198
C 27.02804 16.9424 0.01094
C 28.20642 14.87027 0.00235
C 28.30441 13.64387 0.01495
C 28.25993 6.52414 0.01259
C 28.13624 5.16204 0.01799
C 26.95365 4.31127 0.01699
C 27.01693 2.90088 -0.00416
C 28.23724 2.18491 0.01177
C 28.16277 0.80673 0.04266
C 26.98048 0.00686 0.01324
C 29.43675 32.72497 0.0014
C 30.69674 31.99609 0.00924
C 17.28606 34.07611 -0.04078
C 2.48826 32.67206 0.00572
