335
Graphene
C 34.40583 0.00196 0.01295
C 13.42305 31.89886 0.00979
C 13.64599 30.43975 0.01443
C 12.35994 29.88201 0.03505
C 12.32271 28.43878 -0.02815
C 13.45659 27.68454 -0.04147
C 13.55007 10.67306 -0.05302
C 13.62662 9.33936 0.00213
C 12.31971 8.56907 -0.00066
C 12.35367 7.16193 -0.00289
C 13.5177 6.43065 0.00028
C 13.43835 4.99613 -0.02213
C 12.28139 4.23158 0.03698
C 12.33895 2.83199 -0.00109
C 13.54764 2.17213 -0.00491
C 13.6271 0.68824 0.03338
C 12.32731 34.04467 -0.0258
C 14.70516 32.62804 -0.0331
C 12.28163 32.60642 -0.00481
C 15.96558 31.91452 -0.00316
C 9.91281 0.0566 0.00889
C 11.12052 2.1461 -0.00619
C 9.87713 32.76824 0.00374
C 11.02905 31.97843 0.00052
C 11.07027 30.58388 -0.03682
C 9.73831 29.90266 0.01965
C 9.75191 28.50307 0.02058
C 11.06342 27.78137 -0.01957
C 11.02685 26.44513 -0.0108
C 9.82328 25.82228 -0.00368
C 9.93706 11.30731 -0.02696
C 11.02031 10.54221 -0.00114
C 11.06518 9.18914 0.00228
C 9.81453 8.55921 0.00798
C 9.83398 7.1056 0.00422
C 11.05521 6.49622 0.0351
C 11.08013 5.00556 -0.03113
C 9.8561 4.28417 0.02098
C 9.78398 2.90249 0.01848
C 11.15191 0.74851 -0.02162
C 7.33787 0.11969 -0.02813
C 16.04189 30.48861 0.02188
C 14.77865 28.21048 0.02691
C 18.38081 6.49794 -0.00865
C 18.43105 5.0573 0.00675
C 17.33362 4.23893 -0.00311
C 17.1998 2.81139 0.00742
C 18.44907 2.0696 -0.01594
C 18.39442 0.65249 0.0106
C 17.18853 34.06067 -0.01154
C 19.63463 32.67003 -0.01721
C 20.84772 31.91733 -0.02422
C 20.81212 30.55343 0.01277
C 19.61708 29.68328 0.00096
C 19.55912 28.26975 -0.01527
C 21.02879 13.31589 0.01087
C 19.80367 11.39093 0.00199
C 21.08609 10.64766 0.01511
C 20.87258 9.25089 -0.00478
C 19.61 8.60347 -0.01662
C 17.19193 7.29247 0.0058
C 14.79704 29.73283 -0.01979
C 17.20724 8.69257 -0.00652
C 18.58353 10.92467 -0.00703
C 16.23699 27.66295 -0.01581
C 15.77212 10.6673 0.01452
C 15.95594 9.37554 0.04892
C 14.74321 8.48065 -0.00111
C 14.77225 7.13145 -0.03557
C 15.97589 6.51026 0.03754
C 16.00765 5.01691 0.01739
C 14.68196 4.2939 0.00755
C 14.72543 2.80939 -0.0054
C 15.94691 2.11811 0.00667
C 16.00631 0.71292 0.00143
C 14.73671 34.06852 -0.017
C 17.18389 32.58993 0.00364
C 18.39027 31.96757 -0.00831
C 18.42178 30.54105 -0.02957
C 17.29432 29.80311 -0.04422
C 17.46139 28.36256 0.00654
C 18.43215 9.4209 -0.04076
C 19.61626 7.14404 -0.01185
C 8.64032 0.77301 -0.01952
C 7.34132 2.88807 -0.01717
C 2.49779 8.55581 -0.01004
C 2.39478 7.08061 -0.02896
C 3.59506 6.39335 -0.00131
C 3.65636 5.00553 -0.01118
C 2.41423 4.39271 -0.014
C 2.45745 2.9477 0.02147
C 3.67421 2.21739 0.00373
C 3.67674 0.77828 -0.00191
C 2.39578 0.08475 0.00438
C 4.86497 32.75054 0.01291
C 6.13937 31.95236 0.00093
C 6.13969 30.56152 0.00057
C 4.95627 29.84959 -0.01634
C 4.85476 28.44981 -0.00334
C 6.08587 27.73917 0.02339
C 6.09536 26.29238 0.01641
C 4.90932 25.47305 -0.00719
C 3.70781 9.28304 0.00488
C 5.01384 24.05166 0.01364
C 3.71417 10.74127 0.01745
C 2.36335 12.70978 -0.01384
C 3.64694 30.62418 -0.01142
C 2.48135 29.81051 -0.00562
C 2.52653 28.40187 -0.00494
C 3.69189 27.62384 0.00054
C 3.75958 26.25148 0.03007
C 2.48633 25.57674 -0.00095
C 2.54718 24.15453 0.01572
C 3.76394 23.43069 -0.04848
C 3.5965 22.0425 -0.00892
C 2.40137 21.33141 -0.01362
C 2.4222 19.92231 -0.0008
C 3.59174 19.2006 0.0288
C 3.57566 17.80542 0.00393
C 2.40535 17.05947 0.00895
C 2.46597 15.65644 0.00685
C 3.62011 14.78644 0.02888
C 3.67203 13.43977 -0.00482
C 2.40342 11.35892 0.03693
C 8.56693 2.16482 0.05265
C 6.30899 23.40329 -0.01062
C 4.95484 21.27456 0.03589
C 8.57254 31.99121 -0.01789
C 8.58939 30.60296 0.00444
C 7.34852 29.78108 -0.00925
C 7.34709 28.42283 0.01877
C 8.53811 27.65593 0.01363
C 8.54524 26.19358 -0.02162
C 7.37876 25.55065 0.00415
C 7.37616 24.1896 -0.0014
C 7.44537 12.76193 0.02162
C 7.36348 11.3883 0.0076
C 8.71376 10.68034 0.01241
C 8.63255 9.29906 -0.01454
C 7.38191 8.60254 0.01945
C 7.32647 7.17354 0.01416
C 8.5494 6.45634 0.03542
C 8.59429 4.99536 0.02299
C 7.39144 4.27689 0.00244
C 7.35638 32.76561 0.02894
C 6.16599 21.9483 -0.00033
C 4.88476 0.10776 -0.02971
C 6.13862 2.1367 0.02819
C 4.87782 19.82869 -0.02759
C 6.07049 19.02474 0.0402
C 6.08583 17.67102 0.00572
C 4.92846 17.03878 0.03592
C 4.82521 15.57723 0.00406
C 6.11281 14.95586 0.00943
C 6.29118 13.54831 0.02841
C 4.99729 12.81788 -0.01111
C 4.90775 11.36243 -0.01275
C 6.05404 10.69111 0.00985
C 6.13062 9.29674 -0.02245
C 4.90688 8.53613 -0.00428
C 4.88475 7.11399 0.03101
C 6.13769 6.45861 -0.01536
C 6.19694 5.05507 -0.02689
C 4.92704 4.24165 -0.01046
C 4.90742 2.88641 -0.00891
C 6.11196 0.77553 0.00165
C 3.63728 32.033 0.01849
C 20.81291 6.35175 0.01126
C 19.73424 4.27867 -0.00381
C 32.0048 29.80344 0.0544
C 31.96226 28.42704 0.00026
C 33.21668 27.70813 0.00682
C 33.20029 26.29849 -0.01779
C 31.96809 25.56257 0.03794
C 32.00985 24.13348 0.01927
C 33.22576 23.41629 0.01574
C 33.12409 22.03497 -0.02383
C 31.88205 21.32876 -0.01429
C 31.92949 19.95992 -0.0136
C 33.15933 19.18745 0.00594
C 33.08367 17.78115 -0.02474
C 31.89933 17.02593 0.00369
C 31.92394 15.63728 0.00455
C 33.08935 14.94658 -0.00644
C 33.1054 13.50825 -0.01839
C 31.90536 12.79055 0.00137
C 33.15838 30.58583 -0.02142
C 31.97696 11.30193 0.00199
C 33.1757 31.96494 0.01428
C 29.49382 0.01827 0.01713
C 29.46268 24.19879 0.0101
C 30.71495 23.44283 0.01705
C 30.68306 22.04514 -0.0405
C 29.41744 21.31534 -0.01303
C 29.47993 19.96321 -0.01461
C 30.65519 19.1908 -0.02155
C 30.72971 17.79233 -0.00944
C 29.37834 17.0709 -0.03735
C 29.44867 15.63104 -0.00971
C 30.69301 15.01605 0.01518
C 30.63905 13.47138 0.01908
C 29.33904 12.66134 0.07705
C 29.57725 11.32747 0.0103
C 30.77641 10.78092 0.02108
C 29.59367 2.9191 0.00716
C 30.69374 2.17204 0.00307
C 30.74611 0.74171 0.00346
C 31.92978 32.70461 -0.01694
C 29.38725 25.55705 -0.00669
C 33.12697 10.56469 0.04381
C 32.09881 8.07403 0.01504
C 1.14234 17.73799 0.01223
C 34.31219 17.08006 0.00648
C 34.35151 15.63787 0.02114
C 1.11111 14.88169 -0.02957
C 1.10204 13.52463 0.00343
C 34.28486 12.8179 -0.02656
C 34.32105 11.33165 -0.02442
C 1.16827 10.6244 -0.00027
C 1.18221 9.30333 -0.00583
C 0.0716 8.48687 -0.02302
C 34.3123 7.12032 -0.02849
C 1.1486 6.43555 0.02931
C 1.13737 4.98812 0.00628
C 34.27572 4.38309 -0.0345
C 34.34871 2.88806 -0.00931
C 1.14022 2.20696 -0.00939
C 1.2093 0.81137 -0.00468
C 1.23583 19.17324 -0.01678
C 33.10122 9.10452 0.02806
C 34.40267 19.94744 0.01951
C 1.24005 22.0531 0.02712
C 32.97526 6.73233 -0.00069
C 32.97657 5.11906 0.04926
C 31.79437 4.26682 -0.03838
C 32.00069 2.83172 0.00349
C 33.2104 2.12407 -0.00323
C 33.20602 0.73733 -0.00841
C 31.98683 34.03626 0.0001
C 34.42799 32.67817 -0.02927
C 1.212 32.02164 -0.01404
C 1.29405 30.60526 0.01027
C 34.40164 29.90245 0.01831
C 34.37886 28.44413 -0.01037
C 1.19348 27.74774 -0.00439
C 1.20923 26.26353 -0.00598
C 34.42728 25.56958 -0.05239
C 34.42713 24.12369 0.03076
C 1.24855 23.45443 0.00723
C 34.39021 21.34285 -0.02213
C 20.98434 5.02997 0.01852
C 30.70016 26.26658 0.03531
C 29.46096 28.48698 -0.03039
C 23.5154 5.04782 -0.04078
C 22.22851 4.30613 0.02117
C 22.15546 2.94954 0.02737
C 23.24836 2.14279 -0.00498
C 23.30229 0.58265 0.00135
C 22.07625 34.05689 0.03102
C 24.59402 32.53446 0.02555
C 25.85196 31.93648 0.01423
C 25.77257 30.5305 -0.00285
C 24.54286 29.73054 -0.009
C 24.43503 28.32853 -0.01199
C 25.68705 27.55785 -0.00229
C 25.66034 26.03271 -0.00938
C 24.75074 25.02265 -0.0264
C 25.58914 23.57445 -0.01154
C 25.48515 22.1912 0.00684
C 24.54274 19.91294 -0.01052
C 23.41397 6.51028 0.03005
C 25.7155 19.26903 -0.01679
C 22.12218 7.15496 -0.0276
C 23.36989 9.0274 -0.00178
C 19.63767 2.90843 0.03046
C 20.91594 2.20451 0.0296
C 20.93677 0.74555 0.03374
C 19.67056 34.07467 -0.02845
C 22.05887 32.64199 -0.03213
C 23.2626 31.86765 0.02239
C 23.28911 30.50038 0.01153
C 22.05037 29.79904 0.02734
C 22.09799 28.35046 -0.0055
C 23.20309 27.85281 0.01515
C 23.38699 18.03083 -0.00225
C 21.7329 14.84818 0.00071
C 23.16793 14.75415 -0.01107
C 23.37384 13.26241 -0.01586
C 22.14741 12.56269 -0.01971
C 22.39465 11.15498 -0.02118
C 23.79041 10.34791 0.00733
C 22.10736 8.55999 0.00768
C 30.70244 27.73653 0.01836
C 25.7797 17.7545 0.00367
C 24.39675 15.59904 0.00996
C 26.99155 19.93866 0.00235
C 28.24026 19.19104 0.01495
C 28.11238 17.73784 0.01259
C 26.92944 16.99993 0.01799
C 26.93713 15.56914 0.01699
C 28.14559 14.8351 -0.00416
C 28.09449 13.30931 0.01177
C 26.80849 12.64956 0.04266
C 26.2255 11.35066 0.01324
C 26.83057 2.90919 0.0014
C 28.17746 2.35381 0.00924
C 28.30183 0.8652 0.02326
C 27.14375 0.11502 0.00261
C 29.46436 32.66125 0.03265
C 30.75145 31.98736 -0.02049
C 30.74855 30.53754 -0.01854
C 29.45957 29.91516 -0.01415
C 26.86821 21.33587 0.01094
C 24.41647 17.08981 0.04306
C 28.15619 22.07324 0.02198
C 27.00267 24.15987 -0.00621
C 25.67634 14.92016 0.00195
C 25.73604 13.52985 -0.00802
C 24.59614 12.6517 -0.00218
C 24.99273 11.25916 -0.01654
C 24.69049 4.23416 -0.00037
C 24.51525 2.81318 -0.0032
C 25.76327 2.06361 0.00622
C 25.80851 0.60731 -0.02815
C 24.59462 33.99916 -0.00942
C 27.07242 32.73124 0.00487
C 28.16945 31.97443 0.00826
C 28.19746 30.54148 -0.00294
C 26.95192 29.78659 0.00152
C 26.93327 28.27851 0.01257
C 28.26962 27.7286 0.02316
C 28.25415 26.27625 0.04185
C 27.0362 25.51172 0.00194
C 28.17701 23.38366 0.02611
C 2.44913 32.76301 0.01396
