357
Graphene
C 34.3898 0.00598 0.01295
C 13.48868 26.27719 -0.0108
C 12.21196 25.6244 -0.00368
C 12.23528 24.17192 -0.02696
C 13.44582 23.45939 -0.00114
C 13.53051 21.95468 0.00228
C 12.28286 21.38408 0.00798
C 11.99585 4.08873 0.00422
C 12.31923 2.72493 0.0351
C 13.49451 27.75667 -0.01957
C 13.51316 2.04469 -0.03113
C 12.40351 34.0333 0.01848
C 14.87636 32.57187 -0.00619
C 16.06334 31.91884 -0.02162
C 16.03995 30.44304 0.00889
C 14.79565 29.72275 -0.00481
C 14.7459 28.36312 0.00979
C 15.96681 27.68362 0.01443
C 15.93738 26.22701 0.03505
C 13.59963 0.66888 0.02098
C 14.73744 25.46901 -0.02815
C 12.29186 28.38738 0.02058
C 13.59949 30.50887 -0.03682
C 9.81152 29.90017 -0.02162
C 9.79868 28.54366 0.00415
C 11.01356 27.80842 -0.0014
C 10.98885 26.40042 0.02162
C 9.80165 25.6405 0.0076
C 9.81442 24.24295 0.01241
C 11.03155 23.49428 -0.01454
C 11.10585 22.10165 0.01945
C 12.27224 29.8295 0.01965
C 9.95394 21.26627 0.01416
C 10.97806 4.82449 0.02299
C 9.7128 4.15361 0.00244
C 9.73735 2.84849 -0.01717
C 11.04606 2.10199 0.05265
C 11.12258 0.67408 -0.01952
C 9.90687 34.05962 -0.02813
C 12.35994 32.64007 0.00374
C 13.57576 31.92087 0.00052
C 9.78253 19.92105 0.03542
C 14.79331 24.06087 -0.04147
C 15.96934 23.36297 -0.05302
C 15.98951 21.94925 0.00213
C 20.92798 30.53096 0.00667
C 19.6829 29.8317 0.00143
C 19.65912 28.36314 -0.017
C 20.85277 27.69195 0.00364
C 20.88144 26.25767 -0.00831
C 19.62594 25.53893 -0.02957
C 19.65188 24.07558 -0.04422
C 20.91103 23.43413 0.00654
C 20.88846 31.94669 -0.0054
C 20.8491 21.9537 -0.00703
C 20.92639 4.80409 -0.00652
C 19.78971 4.22679 0.0058
C 19.5898 2.89745 -0.00865
C 20.82411 2.1074 0.00675
C 20.82821 0.70933 -0.00311
C 19.60405 0.02864 0.00742
C 22.11595 32.67893 -0.01594
C 23.27002 31.92672 0.0106
C 19.72533 21.25841 -0.04076
C 19.63846 32.69687 0.00755
C 17.18533 0.08101 0.01739
C 18.4466 0.73944 0.03754
C 14.75848 21.41578 -0.00066
C 14.60945 2.87793 -0.00289
C 15.85388 2.395 0.00028
C 15.98955 0.82841 -0.02213
C 14.82655 34.06093 0.03698
C 17.19785 32.69543 -0.00109
C 18.42256 32.02496 -0.00491
C 18.39323 30.58622 0.03338
C 17.26449 29.74809 -0.0258
C 17.17801 28.30811 -0.0331
C 18.42068 27.71298 -0.00316
C 18.4083 26.25926 0.02188
C 17.19965 25.49319 -0.01979
C 17.1791 24.08572 0.02691
C 18.45582 23.34912 -0.01581
C 18.53108 21.88963 0.01452
C 17.24663 21.40739 0.04892
C 17.16615 2.69728 -0.00111
C 18.40904 2.13976 -0.03557
C 11.05025 30.55716 0.01363
C 11.09931 31.97441 0.01877
C 9.88496 32.67893 -0.00925
C 7.36226 0.03014 0.00444
C 3.70886 6.50536 -0.00562
C 3.64905 5.07368 -0.00494
C 2.45191 4.35438 0.00054
C 2.4167 2.86397 0.03007
C 3.66291 2.15294 -0.00095
C 3.65819 0.7327 0.01572
C 2.41021 0.03331 -0.04848
C 4.88482 32.62334 -0.00892
C 2.51128 7.15424 -0.01142
C 6.06556 31.92644 -0.01362
C 4.87056 29.84755 0.0288
C 4.87163 28.44513 0.00393
C 6.14123 27.6988 0.00895
C 6.19133 26.29667 0.00685
C 4.94 25.54956 0.02888
C 4.95485 24.14997 -0.00482
C 6.17467 23.43046 -0.01384
C 6.11977 21.9986 0.03693
C 6.07149 30.55772 -0.0008
C 2.45235 8.54733 0.01849
C 3.66233 9.32194 0.01396
C 3.61469 10.77054 0.0127
C 3.65238 30.53416 -0.00725
C 2.45473 29.79499 -0.05697
C 2.43329 28.38858 0.01087
C 3.64296 27.66977 -0.01343
C 3.65639 26.2823 0.00988
C 2.43884 25.57144 0.0276
C 2.4689 24.16212 0.01305
C 3.70797 23.43499 -0.00077
C 3.70337 22.01994 0.03368
C 2.43173 21.2825 -0.02929
C 2.38995 19.91923 -0.00966
C 3.62691 19.19411 -0.03337
C 3.64473 17.72411 0.01227
C 2.42778 17.03994 0.00873
C 2.48478 15.6278 -0.00049
C 3.73423 14.98754 0.00848
C 3.74199 13.56181 -0.01303
C 2.46591 12.82455 -0.01378
C 2.39253 11.35225 0.02635
C 4.912 21.29581 0.01745
C 23.3462 30.52875 -0.01154
C 4.92969 19.92308 0.00488
C 6.07903 17.8367 -0.02896
C 8.58155 26.34289 0.00406
C 7.40891 25.58893 0.00943
C 7.40668 24.23312 0.02841
C 8.64507 23.44078 -0.01111
C 8.65526 21.99972 -0.01275
C 7.33084 21.27136 0.00985
C 7.40442 19.85434 -0.02245
C 8.64437 19.32149 -0.00428
C 8.58437 27.76881 0.03592
C 7.29424 17.05986 0.03101
C 7.45319 8.55306 -0.02689
C 7.62495 7.22442 -0.01046
C 8.6831 6.28569 -0.00891
C 8.54133 4.96719 0.02819
C 7.26686 4.29419 0.00165
C 7.34268 2.81425 -0.02971
C 8.58817 2.07388 0.02894
C 8.67278 0.70257 -0.01789
C 7.29583 15.7919 -0.01536
C 7.3463 28.43487 0.00572
C 7.33608 29.90403 0.0402
C 8.56623 30.61008 -0.02759
C 4.93598 17.06615 -0.00131
C 4.9962 15.60442 -0.01118
C 6.29236 14.80738 -0.014
C 6.16292 13.43366 0.02147
C 4.88796 12.83339 0.00373
C 4.8336 11.42522 -0.00191
C 6.10139 10.70786 0.00438
C 6.37657 9.43664 0.01291
C 4.90736 8.6718 0.00093
C 4.95451 7.25852 0.00057
C 6.18968 6.55373 -0.01634
C 6.13822 5.05633 -0.00334
C 4.84824 4.37706 0.02339
C 4.89413 2.94091 0.01641
C 6.12718 2.08674 -0.00719
C 6.0942 0.68427 0.01364
C 4.9119 34.07543 -0.01062
C 7.32784 32.7008 -0.00033
C 8.60327 32.02451 0.03589
C 6.15 19.19243 -0.01004
C 3.62048 31.95192 0.02322
C 22.14473 29.78739 -0.01721
C 23.32283 27.72595 0.01277
C 31.92879 32.72082 0.01713
C 33.20037 32.02428 -0.01694
C 33.2123 30.5697 0.01428
C 31.98231 29.83575 -0.02142
C 31.95131 28.42425 0.0544
C 33.1527 27.74365 0.00026
C 33.16237 26.3237 0.00682
C 31.95146 25.60079 -0.01779
C 29.51295 0.02388 0.00346
C 31.91429 24.19074 0.03794
C 33.12179 22.03516 0.01574
C 31.94299 21.28055 -0.02383
C 31.88738 19.8747 -0.01429
C 33.17412 19.18279 -0.0136
C 33.20725 17.75442 0.00594
C 31.97374 17.04659 -0.02474
C 31.9547 15.55116 0.00369
C 33.22746 14.86258 0.00455
C 33.14827 23.43178 0.01927
C 33.21128 13.42958 -0.00644
C 30.72283 0.6919 0.00307
C 29.55218 2.86626 0.02108
C 30.60955 21.97967 -0.01415
C 29.41267 21.28455 -0.03039
C 29.43482 19.83087 0.01836
C 30.60961 19.17866 0.03531
C 30.70036 17.7507 -0.00669
C 29.42241 17.098 0.0101
C 29.47462 15.61544 0.01705
C 30.72669 14.85887 -0.0405
C 30.75059 2.09192 0.00716
C 30.74263 13.45453 -0.01303
C 29.39504 11.39835 -0.02155
C 30.65542 10.64213 -0.00944
C 30.67284 9.26953 -0.03735
C 29.50233 8.44973 -0.00971
C 29.57866 7.06234 0.01518
C 30.77629 6.35674 0.01908
C 30.7786 4.9112 0.07705
C 29.53756 4.20778 0.0103
C 29.45477 12.82122 -0.01461
C 31.93138 12.81045 -0.01839
C 31.95746 11.32912 0.00137
C 33.22968 10.62185 0.00199
C 1.20627 19.20345 -0.01678
C 1.2043 17.71095 0.01223
C 0.01399 17.04859 0.00648
C 34.39938 15.673 0.02114
C 1.2429 14.94826 -0.02957
C 1.18991 13.49195 0.00343
C 34.39687 12.69662 -0.02656
C 0.01859 11.35088 -0.02442
C 34.38608 19.95178 0.01951
C 1.19524 10.64448 -0.00027
C 0.00885 8.50637 -0.02302
C 34.40887 7.10433 -0.02849
C 1.21027 6.40835 0.02931
C 1.18185 5.00427 0.00628
C 34.39631 4.28456 -0.0345
C 0.00858 2.89018 -0.00931
C 1.23706 2.1388 -0.00939
C 1.20958 0.67987 -0.00468
C 1.22508 9.18469 -0.00583
C 34.33602 21.41295 -0.02213
C 1.12577 22.08212 0.02712
C 1.19944 23.50528 0.00723
C 33.19786 9.22544 0.04381
C 31.98037 8.50297 0.02806
C 31.96958 7.09823 0.01504
C 33.19659 6.37869 -0.00069
C 33.14159 5.01972 0.04926
C 31.99616 4.22703 -0.03838
C 32.01038 2.85291 0.00349
C 33.20836 2.15658 -0.00323
C 33.19288 0.74247 -0.00841
C 31.98336 0.07579 0.0001
C 34.39036 32.69351 -0.02927
C 1.21873 31.97785 -0.01404
C 1.17878 30.48382 0.01027
C 34.36516 29.77918 0.01831
C 34.39211 28.43209 -0.01037
C 1.18598 27.64265 -0.00439
C 1.19222 26.28642 -0.00598
C 34.39864 25.56903 -0.05239
C 34.40263 24.134 0.03076
C 30.70756 23.43079 -0.01854
C 29.54457 24.16997 -0.02049
C 29.50118 25.60429 0.03265
C 30.71469 26.35317 0.00261
C 24.5949 25.5451 -0.01107
C 24.58474 24.12544 -0.01586
C 25.83133 23.48936 -0.01971
C 25.8073 22.09629 -0.02118
C 24.5978 21.35377 0.00733
C 24.53337 19.87728 -0.00178
C 25.68999 19.14338 0.00768
C 25.71503 17.7454 -0.0276
C 25.84297 26.2975 0.00071
C 24.36872 16.94974 0.03005
C 25.79586 14.86681 0.02117
C 25.74219 13.52152 0.02737
C 24.71784 12.62431 -0.00498
C 24.5985 11.29522 0.00135
C 25.72143 10.49547 0.03102
C 25.76443 9.08541 0.02555
C 24.70703 8.38625 0.01423
C 24.35464 7.06102 -0.00285
C 24.68968 15.59294 -0.04078
C 25.82956 27.66911 -0.00225
C 24.6275 28.40686 0.01515
C 24.63601 29.83049 -0.0055
C 23.29662 26.27346 0.00096
C 22.09659 25.57964 -0.01527
C 22.12103 24.13214 0.01087
C 23.35267 23.44385 0.00199
C 23.34623 22.0204 0.01511
C 22.12132 21.33278 -0.00478
C 22.09588 19.9513 -0.01662
C 23.26596 19.2348 -0.01185
C 23.3802 17.84801 0.01126
C 23.23521 6.29039 0.01852
C 23.43894 4.91761 -0.00381
C 22.24875 4.18419 0.03046
C 22.10046 2.75641 0.0296
C 23.32702 2.07628 0.03374
C 23.36112 0.66446 -0.02845
C 22.1483 0.0535 -0.03213
C 24.55401 32.65389 0.02239
C 25.86598 31.93168 0.01153
C 25.85226 30.52886 0.02734
C 25.76625 6.37544 -0.009
C 22.0123 28.41389 -0.02422
C 25.84783 4.9258 -0.01199
C 24.65121 2.82241 -0.00938
C 26.92777 11.32916 0.04185
C 28.19269 10.57959 0.00194
C 28.30062 9.10862 -0.00621
C 27.04926 8.43987 0.02611
C 27.03163 7.02523 0.02198
C 28.37656 6.3124 0.01094
C 28.36518 4.90403 0.00235
C 27.0595 4.19861 0.01495
C 26.94022 12.77147 0.02316
C 27.06939 2.80558 0.01259
C 28.29758 0.72111 0.01699
C 27.04258 0.0517 -0.00416
C 29.48387 32.74295 0.01177
C 30.75437 31.96038 0.04266
C 30.74579 30.5492 0.01324
C 29.51682 29.82691 0.0014
C 29.51095 28.4735 0.00924
C 30.73416 27.73424 0.02326
C 28.31569 2.10948 0.01799
C 28.2549 13.50695 0.01257
C 28.24445 14.93194 0.00152
C 27.01097 15.66611 -0.00294
C 25.82653 2.1208 -0.0264
C 25.8148 0.72229 -0.01154
C 24.53337 34.00778 0.00684
C 27.01302 32.67721 -0.01052
C 28.33203 32.01539 -0.01679
C 28.29751 30.53108 0.00367
C 27.12054 29.78619 0.04306
C 27.03937 28.35602 0.00996
C 28.33754 27.6857 0.00195
C 28.29746 26.25484 -0.00802
C 27.04781 25.53256 -0.00218
C 27.02693 24.09797 -0.01654
C 28.31413 23.42718 -0.00037
C 28.23039 22.04504 -0.0032
C 26.93973 21.3653 0.00622
C 26.98584 19.88304 -0.02815
C 28.23334 19.20921 -0.00942
C 28.2446 17.80446 0.00487
C 27.00201 17.07582 0.00826
C 24.57519 4.255 -0.00229
C 2.4401 32.67748 -0.00094
