393
Graphene
C 34.35019 0.00616 0.01295
C 16.03356 31.94295 0.01877
C 15.99785 30.51616 0.01363
C 14.79096 29.83503 -0.02162
C 14.8129 28.37433 0.00415
C 15.99211 27.7075 -0.0014
C 16.00636 26.27138 0.02162
C 14.7399 25.47393 0.0076
C 14.80848 24.04562 0.01241
C 16.17744 23.33817 -0.01454
C 14.73097 32.64051 -0.00925
C 16.00841 10.6226 0.01945
C 14.64499 8.47785 0.03542
C 14.76132 6.97434 0.02299
C 16.00835 6.30484 0.00244
C 15.90475 4.92077 -0.01717
C 14.66653 4.26369 0.05265
C 14.71782 2.83408 -0.01952
C 15.99209 2.13371 -0.02813
C 15.99907 0.76652 0.00374
C 14.81897 0.03347 0.00052
C 15.93687 9.27574 0.01416
C 12.2346 0.0864 0.00444
C 13.49606 0.70327 -0.01789
C 13.48956 2.12532 0.02894
C 9.8065 2.89809 0.03589
C 11.07759 2.13818 -0.02759
C 11.00544 0.7397 0.0402
C 9.78929 0.11201 0.00572
C 12.26352 32.72404 0.03592
C 13.45984 31.97686 0.00406
C 13.55655 30.54912 0.00943
C 12.30055 29.77778 0.02841
C 12.30686 28.37556 -0.01111
C 13.54071 27.6697 -0.01275
C 13.55342 26.15164 0.00985
C 12.292 25.52889 -0.02245
C 12.24573 24.0538 -0.00428
C 13.5546 23.39647 0.03101
C 13.43355 9.08871 -0.01536
C 12.10323 8.66243 -0.02689
C 12.22571 7.21196 -0.01046
C 13.37729 6.45608 -0.00891
C 13.39612 4.98672 0.02819
C 12.21264 4.25834 0.00165
C 12.29564 2.82479 -0.02971
C 17.18339 32.60346 -0.03682
C 9.77512 4.33291 -0.00033
C 18.42926 31.91271 0.01965
C 17.29423 29.77284 -0.01957
C 20.91293 26.36892 -0.02213
C 19.7304 25.59407 0.03698
C 19.75267 24.22879 -0.00109
C 20.92503 23.42943 -0.00491
C 20.9114 22.03218 0.03338
C 19.61271 21.33673 -0.0258
C 19.6882 19.88317 -0.0331
C 20.93327 19.27243 -0.00316
C 20.84941 17.77208 0.02188
C 20.90898 27.72675 0.00028
C 19.68819 16.93621 -0.01979
C 20.81746 14.78212 -0.01581
C 20.84419 13.39343 0.01452
C 19.65104 12.76223 0.04892
C 19.68493 11.36503 -0.00111
C 20.89014 10.61113 -0.03557
C 20.85455 9.16571 0.03754
C 19.6599 8.48834 0.01739
C 19.57242 7.09811 0.00755
C 20.80344 6.36867 -0.0054
C 19.71883 15.55836 0.02691
C 19.67715 28.32675 -0.00289
C 19.78013 29.77375 -0.00066
C 20.98341 30.49396 0.00213
C 17.21593 28.41663 -0.0108
C 18.38974 27.67343 -0.00368
C 18.46091 26.31415 -0.02696
C 17.21799 25.5639 -0.00114
C 17.25409 24.17864 0.00228
C 18.50262 23.49108 0.00798
C 18.42618 22.10163 0.00422
C 17.194 11.35569 0.0351
C 18.44063 10.73096 -0.03113
C 18.4569 9.22964 0.02098
C 17.15906 8.49975 0.01848
C 17.10681 7.05152 -0.00619
C 18.31104 6.41792 -0.02162
C 18.36382 4.95722 0.00889
C 17.16095 4.18068 -0.00481
C 17.21683 2.76686 0.00979
C 18.44387 2.00675 0.01443
C 18.39021 0.65916 0.03505
C 17.17931 34.03854 -0.02815
C 19.63885 32.58495 -0.04147
C 20.89736 31.87982 -0.05302
C 18.50855 30.49107 0.02058
C 10.95415 5.07285 -0.01062
C 11.05782 6.52726 0.01364
C 9.7122 7.13941 -0.00719
C 2.32619 4.36032 -0.03996
C 2.32343 2.9179 0.01465
C 3.55262 2.16409 -0.00074
C 3.60735 0.75923 -0.00518
C 2.37236 0.03755 0.0086
C 4.85809 32.6904 -0.00643
C 6.11578 32.001 0.017
C 6.12151 30.61286 -0.03113
C 4.94186 29.90331 -0.02566
C 3.5187 5.03359 0.01996
C 4.92378 28.49282 -0.00094
C 6.04928 26.36295 -0.00725
C 4.86517 25.66218 -0.05697
C 4.8262 24.17873 0.01087
C 6.03727 23.64186 -0.01343
C 6.25321 22.15896 0.00988
C 5.08488 21.25224 0.0276
C 5.10371 19.79772 0.01305
C 6.22547 19.06146 -0.00077
C 4.96006 17.0212 0.03368
C 6.09886 27.72427 0.02322
C 3.62731 6.37827 -0.00279
C 2.3813 7.19928 0.01226
C 2.41344 8.58575 0.03828
C 3.64782 30.59632 0.00208
C 2.43221 29.89221 0.01707
C 2.38734 28.44837 0.02769
C 3.64443 27.84107 -0.03291
C 3.61375 26.38815 -0.04999
C 2.41875 25.58741 0.04505
C 2.47884 24.19838 0.03284
C 3.67108 23.41201 -0.04307
C 3.71997 21.97387 0.03189
C 2.47616 21.30713 0.00031
C 2.55952 19.85095 -0.003
C 3.70876 19.13716 0.01402
C 3.66948 17.77356 0.02379
C 2.50672 16.9271 0.00907
C 2.46841 15.54329 0.00643
C 3.69796 14.87668 -0.01509
C 3.75202 13.53041 0.03267
C 2.55782 12.87095 0.02374
C 2.40942 11.48947 0.00402
C 3.59478 10.65412 0.0073
C 3.61718 9.2411 0.0174
C 4.95029 15.75289 -0.02929
C 6.41258 13.18127 -0.00966
C 5.04081 12.81485 -0.03337
C 4.78028 11.41427 0.01227
C 7.23537 8.57588 -0.00482
C 7.30108 7.232 -0.01384
C 8.47146 6.49783 0.03693
C 8.53883 5.05051 0.01745
C 7.37764 4.30938 0.00488
C 7.30845 3.00161 -0.01004
C 8.47301 2.22084 -0.02896
C 8.54335 0.75531 -0.00131
C 7.37736 0.07477 -0.01118
C 9.84207 32.77115 -0.014
C 11.04001 32.01187 0.02147
C 11.06436 30.53185 0.00373
C 9.80893 29.87815 -0.00191
C 9.82825 28.48983 0.00438
C 11.09014 27.63576 0.01291
C 10.98224 26.25871 0.00093
C 9.82331 25.51865 0.00057
C 9.58429 24.07411 -0.01634
C 10.86097 23.61868 -0.00334
C 10.89936 9.31205 0.02339
C 9.79506 8.5845 0.01641
C 8.50691 9.31817 0.02888
C 20.83336 4.92521 0.00667
C 8.22606 10.74957 0.00685
C 7.76528 21.85532 0.00393
C 5.97937 10.75671 0.00873
C 6.05173 9.33352 -0.00049
C 4.84133 8.5786 0.00848
C 4.79634 7.0865 -0.01303
C 6.12321 6.40479 -0.01378
C 6.097 5.05046 0.02635
C 4.81091 4.31184 0.0127
C 4.78512 2.89105 0.01396
C 6.06998 2.20718 0.01849
C 6.12663 0.7894 -0.01142
C 4.91665 0.08791 -0.00562
C 7.34096 32.77251 -0.00494
C 8.60805 32.07222 0.00054
C 8.61418 30.71429 0.03007
C 7.36707 29.97488 -0.00095
C 7.32438 28.48584 0.01572
C 8.58353 27.81661 -0.04848
C 8.5607 26.33926 -0.00892
C 7.34336 25.67614 -0.01362
C 7.33488 24.21149 -0.0008
C 8.24084 23.21328 0.0288
C 7.23934 11.60129 0.00895
C 3.6372 31.99964 -0.00561
C 19.56831 4.22919 0.00143
C 20.83899 2.11693 0.00364
C 30.62331 4.97403 0.07705
C 29.45507 4.26773 0.0103
C 29.46995 2.77099 0.02108
C 30.76684 2.12558 0.00716
C 30.67534 0.6902 0.00307
C 29.44357 34.07854 0.00346
C 31.96562 32.67986 0.01713
C 33.20872 31.94857 -0.01694
C 33.16472 30.55332 0.01428
C 30.67627 6.40036 0.01908
C 31.95886 29.87585 -0.02142
C 33.2162 27.71142 0.00026
C 33.20374 26.29845 0.00682
C 31.93602 25.60962 -0.01779
C 32.01396 24.15932 0.03794
C 33.19543 23.38593 0.01927
C 33.28174 21.99209 0.01574
C 31.95706 21.28159 -0.02383
C 32.01448 19.89585 -0.01429
C 33.25602 19.10365 -0.0136
C 32.00829 28.4392 0.0544
C 29.45961 7.10577 0.01518
C 29.46491 8.54833 -0.00971
C 30.68409 9.20406 -0.03735
C 30.61475 32.02263 0.04266
C 30.72195 30.5439 0.01324
C 29.48152 29.87006 0.0014
C 29.49498 28.45237 0.00924
C 30.73607 27.7972 0.02326
C 30.74791 26.30894 0.00261
C 29.58292 25.51024 0.03265
C 29.56627 24.1346 -0.02049
C 30.83019 23.44458 -0.01854
C 30.76808 21.98635 -0.01415
C 29.56733 21.24187 -0.03039
C 29.51027 19.86131 0.01836
C 30.75631 19.17323 0.03531
C 30.67441 17.75655 -0.00669
C 29.49351 17.03606 0.0101
C 29.44391 15.66387 0.01705
C 30.59547 14.88005 -0.0405
C 30.59451 13.45797 -0.01303
C 29.39144 12.79227 -0.01461
C 29.39861 11.38201 -0.02155
C 30.66262 10.70594 -0.00944
C 33.24637 17.6845 0.00594
C 29.44709 32.63622 0.01177
C 31.94847 16.98834 -0.02474
C 33.13768 14.9385 0.00455
C 0.07596 21.22189 -0.02213
C 0.07709 19.83273 0.01951
C 1.33757 19.19321 -0.01678
C 1.39807 17.70673 0.01223
C 0.07783 17.06411 0.00648
C 34.42175 15.64859 0.02114
C 1.1998 14.9251 -0.02957
C 1.26321 13.49173 0.00343
C 34.42416 12.85603 -0.02656
C 1.28983 21.97815 0.02712
C 34.31286 11.40502 -0.02442
C 1.15985 9.30157 -0.00583
C 34.35629 8.57722 -0.02302
C 34.36519 7.11313 -0.02849
C 1.20422 6.5232 0.02931
C 1.16707 5.0663 0.00628
C 34.39306 4.32328 -0.0345
C 34.37508 2.89278 -0.00931
C 1.16454 2.14724 -0.00939
C 1.13649 0.724 -0.00468
C 1.17074 10.72079 -0.00027
C 1.25209 23.4509 0.00723
C 34.41728 24.12743 0.03076
C 34.4159 25.54658 -0.05239
C 33.18896 13.52119 -0.00644
C 31.91675 12.77516 -0.01839
C 31.89639 11.41632 0.00137
C 33.11738 10.67735 0.00199
C 33.1436 9.27176 0.04381
C 31.88069 8.57122 0.02806
C 31.88978 7.117 0.01504
C 33.0965 6.40279 -0.00069
C 33.17667 4.9589 0.04926
C 31.91293 4.32995 -0.03838
C 31.98579 2.84139 0.00349
C 33.17816 2.16473 -0.00323
C 33.14576 0.74981 -0.00841
C 31.90506 34.05084 0.0001
C 0.0344 32.61876 -0.02927
C 1.24253 31.90361 -0.01404
C 1.17938 30.55954 0.01027
C 34.35009 29.92219 0.01831
C 34.32085 28.498 -0.01037
C 1.19524 27.80521 -0.00439
C 1.17588 26.2771 -0.00598
C 31.85909 15.62696 0.00369
C 27.04338 34.07213 -0.00416
C 28.21873 0.71034 0.01699
C 28.17574 2.15862 0.01799
C 22.12071 8.4623 -0.01185
C 22.03472 7.04711 0.01126
C 23.3058 6.32504 0.01852
C 23.28724 4.962 -0.00381
C 22.02546 4.26692 0.03046
C 22.03547 2.83809 0.0296
C 23.32193 2.13243 0.03374
C 23.30226 0.70005 -0.02845
C 22.05614 34.0556 -0.03213
C 23.33863 9.18215 -0.01662
C 24.5812 32.6137 0.02239
C 25.91314 30.51349 0.02734
C 24.59927 29.742 -0.0055
C 24.61226 28.34966 0.01515
C 25.86554 27.72824 -0.00225
C 25.90092 26.22326 0.00071
C 24.68923 25.5422 -0.01107
C 24.68821 24.12659 -0.01586
C 25.97042 23.39792 -0.01971
C 25.85107 22.01758 -0.02118
C 25.769 31.95426 0.01153
C 23.23065 10.61891 -0.00478
C 22.02942 11.30962 0.01511
C 22.11223 12.69253 0.00199
C 20.85406 0.72092 -0.00831
C 19.63322 34.03856 -0.02957
C 22.15409 32.5998 -0.04422
C 23.3396 31.86185 0.00654
C 23.44271 30.51328 -0.00703
C 22.16801 29.75358 -0.04076
C 22.19616 28.31165 -0.00652
C 23.43097 27.62786 0.0058
C 23.47455 26.26442 -0.00865
C 22.1767 25.60054 0.00675
C 22.18182 24.13114 -0.00311
C 23.39383 23.41986 0.00742
C 23.41881 22.07722 -0.01594
C 22.16079 21.38409 0.0106
C 22.19072 19.93642 -0.01154
C 23.35968 19.1567 -0.01721
C 23.30645 17.70618 -0.02422
C 21.99692 16.98011 0.01277
C 22.02391 15.59935 0.00096
C 23.22559 14.88291 -0.01527
C 23.29548 13.44623 0.01087
C 24.63491 21.32216 0.00733
C 24.58407 19.96647 -0.00178
C 25.79305 19.19353 0.00768
C 25.83195 17.77318 -0.0276
C 27.18823 24.07283 -0.01654
C 28.41024 23.35302 -0.00037
C 28.39265 21.93824 -0.0032
C 27.01896 21.25255 0.00622
C 26.99195 19.85493 -0.02815
C 28.27535 19.10303 -0.00942
C 28.23518 17.72701 0.00487
C 26.99941 17.05422 0.00826
C 26.88777 15.60749 -0.00294
C 28.15816 14.97302 0.00152
C 28.19513 13.54286 0.01257
C 26.99047 12.78596 0.02316
C 27.02925 11.35641 0.04185
C 28.25837 10.64869 0.00194
C 28.26466 9.22059 -0.00621
C 27.07265 8.44262 0.02611
C 27.01442 7.02718 0.02198
C 28.23973 6.34026 0.01094
C 28.2103 4.90379 0.00235
C 27.05434 4.23592 0.01495
C 26.94118 2.82819 0.01259
C 27.10622 25.5277 -0.00218
C 19.6183 2.84976 -0.017
C 28.38794 26.22879 -0.00802
C 27.11202 28.41347 0.00996
C 24.57821 17.06889 0.03005
C 24.46103 15.65412 -0.04078
C 25.6638 14.8732 0.02117
C 25.73926 13.4661 0.02737
C 24.54073 12.7034 -0.00498
C 24.49746 11.30101 0.00135
C 25.77897 10.66108 0.03102
C 25.87698 9.1911 0.02555
C 24.55309 8.4301 0.01423
C 24.45656 7.03446 -0.00285
C 25.74446 6.31953 -0.009
C 25.77587 4.89975 -0.01199
C 24.58417 4.25648 -0.00229
C 24.51637 2.82306 -0.00938
C 25.75981 2.12894 -0.0264
C 25.76944 0.64412 -0.01154
C 24.56219 34.0708 0.00684
C 27.0655 32.71506 -0.01052
C 28.21817 31.96775 -0.01679
C 28.29103 30.54024 0.00367
C 27.06461 29.78842 0.04306
C 28.30219 27.65534 0.00195
C 2.465 32.73323 -0.01977
