330
Graphene
C 34.39219 0.069 0.01295
C 11.04409 22.00931 -0.04147
C 9.80097 21.29143 -0.05302
C 9.7839 19.87717 0.00213
C 10.95952 19.13766 -0.00066
C 10.96091 17.61213 -0.00289
C 9.77908 16.8488 0.00028
C 9.9143 15.43586 -0.02213
C 11.06877 23.41416 -0.02815
C 11.14461 14.68205 0.03698
C 10.06258 12.46848 -0.00491
C 9.74005 11.17162 0.03338
C 10.538 9.93784 -0.0258
C 9.86012 8.6978 -0.0331
C 9.90658 7.26647 -0.00316
C 11.07977 6.50713 0.02188
C 10.98953 5.07935 -0.01979
C 10.9512 13.52616 -0.00109
C 9.83552 24.08274 0.03505
C 9.82916 25.61623 0.01443
C 10.99252 26.34977 0.00979
C 8.48246 10.51559 0.02058
C 8.50213 9.10048 -0.01957
C 7.3636 8.44433 -0.0108
C 7.36114 7.02669 -0.00368
C 8.63106 6.45508 -0.02696
C 8.5575 5.05034 -0.00114
C 7.38423 4.27628 0.00228
C 7.44267 2.85759 0.00798
C 8.55691 2.1141 0.00422
C 8.6122 0.73015 0.0351
C 7.42195 0.03456 -0.03113
C 9.83624 32.73872 0.02098
C 11.02731 31.95394 0.01848
C 11.02968 30.62178 -0.00619
C 9.84149 29.89271 -0.02162
C 9.79378 28.50155 0.00889
C 11.02748 27.81547 -0.00481
C 9.7819 4.34302 0.02691
C 7.33822 11.17972 0.01965
C 9.75905 2.88471 -0.01581
C 11.07175 0.85101 0.04892
C 13.5515 0.80373 0.00742
C 12.28702 0.12811 -0.01594
C 14.71428 32.74758 0.0106
C 15.89741 32.07145 -0.01154
C 15.91388 30.62995 -0.01721
C 14.66207 29.88829 -0.02422
C 14.72717 28.42026 0.01277
C 13.55116 2.26187 -0.00311
C 15.89688 27.70016 0.00096
C 14.69883 25.47963 0.01087
C 14.76917 24.0191 0.00199
C 16.05309 23.42099 0.01511
C 16.04635 21.98795 -0.00478
C 14.74796 21.27079 -0.01662
C 14.79627 19.78783 -0.01185
C 16.16767 19.38735 0.01126
C 15.91292 26.23718 -0.01527
C 12.23526 3.03912 0.00675
C 12.27047 4.41987 -0.00865
C 13.61898 4.92141 0.0058
C 9.87216 0.12701 -0.00111
C 12.23496 32.76921 -0.03557
C 13.50916 32.05446 0.03754
C 13.44321 30.60212 0.01739
C 12.19585 29.8596 0.00755
C 12.28803 28.4616 -0.0054
C 13.52366 27.67599 0.00667
C 13.48572 26.18442 0.00143
C 12.27242 25.55864 -0.017
C 12.28307 24.17514 0.00364
C 13.49809 23.41696 -0.00831
C 13.45732 21.94829 -0.02957
C 12.17238 21.24791 -0.04422
C 12.30079 19.85893 0.00654
C 13.62414 19.01752 -0.00703
C 13.39482 17.66481 -0.04076
C 12.46401 16.94376 -0.00652
C 11.02362 2.22034 0.01452
C 7.38726 12.67525 -0.03682
C 8.7049 13.24068 0.00052
C 8.64877 14.66087 0.00374
C 2.38147 8.54912 0.02147
C 2.44781 7.06828 0.00373
C 3.71272 6.46366 -0.00191
C 3.68012 4.99971 0.00438
C 2.40565 4.32053 0.01291
C 2.4848 2.87535 0.00093
C 3.77618 2.16875 0.00057
C 3.62845 9.23558 -0.014
C 3.68441 0.80556 -0.01634
C 4.8626 32.80204 0.02339
C 6.10369 32.05965 0.01641
C 6.1078 30.633 -0.00719
C 4.90235 29.88111 0.01364
C 4.90134 28.45176 -0.01062
C 6.03555 27.74309 -0.00033
C 6.1235 26.27971 0.03589
C 2.49119 0.07009 -0.00334
C 3.62253 10.64802 -0.01118
C 2.35378 11.34916 -0.00131
C 2.42069 12.83829 -0.02896
C 3.6981 30.63839 -0.00095
C 2.43012 29.91921 0.01572
C 2.40884 28.4525 -0.04848
C 3.68812 27.728 -0.00892
C 3.64145 26.35485 -0.01362
C 2.39662 25.63028 -0.0008
C 2.3304 24.12183 0.0288
C 3.59397 23.54128 0.00393
C 3.64247 22.07389 0.00895
C 2.38388 21.40853 0.00685
C 2.42129 19.94052 0.02888
C 3.60205 19.23141 -0.00482
C 3.59183 17.74997 -0.01384
C 2.38648 17.09559 0.03693
C 2.38048 15.66134 0.01745
C 3.58888 14.98611 0.00488
C 3.60666 13.57474 -0.01004
C 4.87658 25.57828 -0.02759
C 4.89431 24.19818 0.0402
C 6.04776 23.33262 0.00572
C 6.06527 21.98021 0.03592
C 7.31521 32.74809 0.01363
C 8.58042 31.96579 -0.02162
C 8.59243 30.57403 0.00415
C 7.38159 29.93426 -0.0014
C 7.2835 28.40693 0.02162
C 8.6002 27.77797 0.0076
C 8.53753 26.32965 0.01241
C 7.34907 25.50891 -0.01454
C 7.30841 24.13361 0.01945
C 8.60619 23.37677 0.01416
C 8.6468 21.94817 0.03542
C 7.41425 21.29539 0.02299
C 7.40389 19.86717 0.00244
C 8.58722 19.16443 -0.01717
C 8.59071 17.63635 0.05265
C 7.32894 16.9294 -0.01952
C 7.35641 15.52422 -0.02813
C 4.94682 0.08466 0.01877
C 14.65223 4.3138 0.01852
C 6.16939 0.7991 -0.00925
C 4.94891 2.87828 -0.01789
C 4.82686 21.29995 0.00406
C 4.92585 19.78702 0.00943
C 6.20227 19.12879 0.02841
C 6.14796 17.67695 -0.01111
C 4.85561 17.05575 -0.01275
C 4.88947 15.5927 0.00985
C 6.11548 14.86241 -0.02245
C 6.14885 13.48373 -0.00428
C 4.91838 12.79137 0.03101
C 4.8324 11.34358 -0.01536
C 6.06941 10.56966 -0.02689
C 6.11084 9.17353 -0.01046
C 4.87257 8.45566 -0.00891
C 4.95357 7.10245 0.02819
C 6.1077 6.35579 0.00165
C 6.11575 4.97257 -0.02971
C 4.89684 4.23327 0.02894
C 6.19341 2.18817 0.00444
C 14.87762 2.91561 -0.00381
C 16.13034 2.20055 0.03046
C 16.02175 0.76343 0.0296
C 33.15298 30.61945 0.00026
C 33.05192 27.74903 0.00682
C 33.20985 26.56273 -0.01779
C 31.45028 23.43331 0.03794
C 33.01258 23.48025 0.01927
C 33.17288 22.06947 0.01574
C 32.0351 21.33678 -0.02383
C 32.91501 31.92299 0.0544
C 31.89461 19.9736 -0.01429
C 33.09467 17.87442 0.00594
C 31.84182 17.11074 -0.02474
C 31.82727 15.6268 0.00369
C 33.1183 14.93422 0.00455
C 33.1068 13.52276 -0.00644
C 31.81214 12.80425 -0.01839
C 31.82956 11.40482 0.00137
C 33.13037 19.29846 -0.0136
C 31.85782 32.80711 -0.02142
C 29.65971 34.02972 0.01428
C 30.72914 0.73334 -0.01694
C 30.65496 19.25361 0.01705
C 30.66886 17.84037 -0.0405
C 29.36832 17.12135 -0.01303
C 29.32752 15.6362 -0.01461
C 30.59369 14.87747 -0.02155
C 30.63277 13.43422 -0.00944
C 29.37014 12.72402 -0.03735
C 29.34272 11.39001 -0.00971
C 30.61594 10.63646 0.01518
C 30.68106 9.26288 0.01908
C 29.37673 8.52453 0.07705
C 29.24736 7.06721 0.0103
C 30.60912 6.40072 0.02108
C 30.71828 4.93946 0.00716
C 29.55689 4.25152 0.00307
C 29.51096 2.74898 0.00346
C 30.74915 2.17208 0.01713
C 33.09961 10.64774 0.00199
C 33.06087 9.2 0.04381
C 31.87785 8.43168 0.02806
C 31.84241 7.08428 0.01504
C 1.14733 17.79675 0.01223
C 34.33535 17.16208 0.00648
C 34.32399 15.73604 0.02114
C 1.14414 14.95307 -0.02957
C 1.09911 13.5536 0.00343
C 34.33131 12.74854 -0.02656
C 34.28911 11.3742 -0.02442
C 1.10774 10.65976 -0.00027
C 1.09027 9.20601 -0.00583
C 34.3651 8.55317 -0.02302
C 34.35492 7.15522 -0.02849
C 1.14468 6.41216 0.02931
C 1.19963 5.01366 0.00628
C 34.43156 4.31427 -0.0345
C 0.07343 2.89282 -0.00931
C 1.27608 2.11535 -0.00939
C 1.23016 0.69497 -0.00468
C 1.1892 19.21805 -0.01678
C 29.50141 20.00536 0.0101
C 34.38468 19.95715 0.01951
C 1.14983 22.0849 0.02712
C 33.1542 6.4075 -0.00069
C 33.18518 4.98057 0.04926
C 31.96335 4.29639 -0.03838
C 31.9995 2.90474 0.00349
C 33.20458 2.24371 -0.00323
C 33.24866 0.80625 -0.00841
C 31.9939 0.17222 0.0001
C 34.38393 32.76517 -0.02927
C 1.2261 32.07797 -0.01404
C 1.13565 30.60522 0.01027
C 34.31852 29.93499 0.01831
C 34.37425 28.43996 -0.01037
C 1.24814 27.73292 -0.00439
C 1.18263 26.35516 -0.00598
C 34.32857 25.6158 -0.05239
C 34.19322 24.17538 0.03076
C 1.07775 23.48394 0.00723
C 34.41157 21.37772 -0.02213
C 3.6339 32.04039 0.03007
C 29.49793 21.6144 -0.00669
C 27.15187 34.05468 0.01836
C 19.54417 29.94658 0.02737
C 19.50275 28.44828 -0.00498
C 20.82193 27.74018 0.00135
C 20.98589 26.36544 0.03102
C 19.64691 25.66306 0.02555
C 19.71627 24.29259 0.01423
C 20.9905 23.52249 -0.00285
C 20.86332 30.42508 0.02117
C 20.90245 21.99801 -0.009
C 19.90644 19.83044 -0.00229
C 19.776 2.79405 -0.00938
C 21.01668 2.28801 -0.0264
C 20.95728 0.63522 -0.01154
C 19.69709 0.03941 0.00684
C 22.05918 32.49325 -0.01052
C 23.40564 31.99438 -0.01679
C 19.69026 21.22556 -0.01199
C 20.87551 31.815 -0.04078
C 19.67076 32.67781 0.03005
C 17.22864 0.03459 -0.0276
C 14.75934 0.03567 0.03374
C 17.18151 32.65049 -0.02845
C 18.42925 31.99855 -0.03213
C 18.3283 30.66393 0.02239
C 17.16458 29.91751 0.01153
C 17.14906 28.36379 0.02734
C 18.39921 27.72515 -0.0055
C 18.41406 26.3199 0.01515
C 17.22132 25.55754 -0.00225
C 17.27169 24.12145 0.00071
C 18.50221 23.49104 -0.01107
C 18.44352 22.10489 -0.01586
C 17.26402 21.37953 -0.01971
C 17.28727 19.89471 -0.02118
C 17.24315 2.92709 0.00733
C 18.49631 2.45943 -0.00178
C 18.43248 0.80892 0.00768
C 21.5233 29.12456 0.00367
C 21.97915 25.52899 0.04306
C 22.29392 24.23412 0.00996
C 23.38374 23.35918 0.00195
C 26.94263 21.55928 0.01495
C 26.91046 19.99559 0.01259
C 28.27629 19.29455 0.01799
C 28.13381 17.87005 0.01699
C 26.85627 17.04848 -0.00416
C 27.01834 15.71698 0.01177
C 28.01728 14.74094 0.04266
C 28.15197 13.41655 0.01324
C 28.24921 10.56964 0.0014
C 28.27697 9.28955 0.00924
C 26.77757 6.24254 0.02326
C 28.1354 6.15578 0.00261
C 28.38106 4.75266 0.03265
C 27.16145 4.03169 -0.02049
C 27.16279 2.66284 -0.01854
C 28.39355 1.99055 -0.01415
C 28.43343 0.40108 -0.03039
C 28.20317 22.06422 0.00235
C 30.84403 22.26401 0.03531
C 24.67055 33.92281 0.01094
C 25.91191 2.06325 0.02611
C 23.21951 21.89407 -0.00802
C 22.02369 21.15221 -0.00218
C 21.78836 19.72432 -0.01654
C 23.08688 19.19479 -0.00037
C 22.29939 2.93451 -0.0032
C 23.52878 2.21441 0.00622
C 23.40553 0.68366 -0.02815
C 22.13605 33.95502 -0.00942
C 24.43566 32.61695 0.00487
C 25.5935 21.98565 0.00826
C 24.4299 21.22215 -0.00294
C 24.39708 19.78356 0.00152
C 25.66433 19.13224 0.01257
C 25.68007 17.72913 0.02316
C 25.99028 4.97705 0.04185
C 24.86257 4.23432 0.00194
C 24.83344 2.90682 -0.00621
C 25.94766 0.56569 0.02198
C 2.4425 32.74453 0.00054
