368
Graphene
C 34.42608 0.00937 0.01295
C 18.48702 30.56698 -0.01952
C 17.27245 29.85998 -0.02813
C 17.22618 28.45438 0.00374
C 18.38291 27.69165 0.00052
C 18.36739 26.28268 -0.03682
C 17.12081 25.57304 0.01965
C 17.22187 24.19461 0.02058
C 18.05563 23.20201 -0.01957
C 18.22371 21.86908 -0.0108
C 18.47729 19.12505 -0.00368
C 18.51395 17.80492 -0.02696
C 17.1275 15.55216 -0.00114
C 18.38819 14.91107 0.00228
C 18.48817 13.4333 0.00798
C 17.20514 12.78762 0.00422
C 17.16638 11.39921 0.0351
C 18.37691 10.69474 -0.03113
C 18.40417 9.2656 0.02098
C 17.18322 8.50882 0.01848
C 18.48133 31.97779 0.05265
C 17.21886 7.03802 -0.00619
C 17.25125 32.73426 -0.01717
C 16.05316 0.72559 0.02299
C 15.95886 32.02238 0.02819
C 16.02233 30.54859 0.00165
C 14.74298 29.8337 -0.02971
C 14.76521 28.35775 0.02894
C 16.00155 27.76652 -0.01789
C 15.97286 26.33689 0.00444
C 14.69696 25.75518 -0.00925
C 16.07709 13.5928 0.01877
C 14.88769 12.90157 0.01363
C 14.62222 11.54663 -0.02162
C 15.90445 10.70453 0.00415
C 15.91227 9.32743 -0.0014
C 14.72282 8.53837 0.02162
C 14.75154 7.06653 0.0076
C 15.94726 6.35318 0.01241
C 16.00437 4.89704 -0.01454
C 14.73861 4.26679 0.01945
C 14.75545 2.86767 0.01416
C 16.04437 2.12097 0.03542
C 14.69788 0.08159 0.00244
C 14.74693 32.77083 -0.00891
C 18.48447 6.33966 -0.02162
C 17.2254 4.24072 -0.00481
C 19.65139 12.65584 0.04892
C 19.68815 11.29817 -0.00111
C 20.90929 10.59052 -0.03557
C 20.94175 9.21099 0.03754
C 19.6874 8.46136 0.01739
C 19.65945 7.01847 0.00755
C 20.92331 6.35372 -0.0054
C 20.91334 4.96135 0.00667
C 19.7192 4.22132 0.00143
C 19.69079 2.80699 -0.017
C 20.91424 2.10463 0.00364
C 20.91724 0.64882 -0.00831
C 19.68495 34.02216 -0.02957
C 22.07174 32.62855 -0.04422
C 23.29347 31.90018 0.00654
C 23.33866 30.41098 -0.00703
C 22.1281 29.79471 -0.04076
C 22.0937 28.39104 -0.00652
C 23.31085 27.70414 0.0058
C 20.88627 13.40624 0.01452
C 18.47357 4.92307 0.00889
C 20.90382 14.8828 -0.01581
C 19.67678 16.98068 -0.01979
C 17.24713 2.81122 0.00979
C 18.50502 2.16145 0.01443
C 18.4793 0.71578 0.03505
C 17.23964 0.03423 -0.02815
C 19.70264 32.60077 -0.04147
C 20.86319 31.88924 -0.05302
C 20.89667 30.47862 0.00213
C 19.69948 29.83689 -0.00066
C 19.66641 28.45004 -0.00289
C 20.88116 27.64257 0.00028
C 20.84399 26.20798 -0.02213
C 19.53982 25.54556 0.03698
C 19.53426 24.0595 -0.00109
C 20.76455 23.4427 -0.00491
C 20.73416 22.02923 0.03338
C 19.58164 21.26893 -0.0258
C 19.67443 19.83376 -0.0331
C 20.81628 19.12007 -0.00316
C 20.88204 17.67359 0.02188
C 19.6243 15.59107 0.02691
C 23.31781 26.25971 -0.00865
C 12.31895 0.01803 -0.01046
C 13.47281 2.1381 -0.01536
C 6.16565 30.5304 0.01227
C 4.96028 29.84197 0.00873
C 4.93975 28.36853 -0.00049
C 6.09552 27.66107 0.00848
C 4.86013 11.44771 -0.01303
C 6.0402 10.72032 -0.01378
C 6.08598 9.28364 0.02635
C 4.84523 8.61324 0.0127
C 4.92075 7.15591 0.01396
C 6.13215 6.48692 0.01849
C 6.15516 5.06686 -0.01142
C 4.87735 4.37031 -0.00562
C 4.88365 2.93256 -0.00494
C 6.16621 2.32322 0.00054
C 6.17015 0.80035 0.03007
C 4.95687 34.0737 -0.00095
C 7.39299 32.74568 0.01572
C 8.57178 32.01523 -0.04848
C 8.65664 30.59502 -0.00892
C 6.17526 31.9809 -0.03337
C 7.40168 29.83341 -0.01362
C 4.95614 32.66316 -0.00966
C 3.68463 0.74443 0.03368
C 3.69603 30.53161 -0.03996
C 2.50123 29.83967 0.01465
C 2.43583 28.46623 -0.00074
C 3.69992 27.76376 -0.00518
C 3.65058 26.37327 0.0086
C 2.35179 25.64802 -0.00643
C 2.35909 24.27633 0.017
C 3.94947 13.14281 -0.03113
C 2.57129 12.76842 -0.02566
C 2.44803 11.34934 -0.00094
C 3.65307 10.6605 0.02322
C 3.6365 9.27685 -0.00725
C 2.39755 8.6158 -0.05697
C 2.38194 7.17164 0.01087
C 3.66493 6.44352 -0.01343
C 3.66344 5.04243 0.00988
C 2.4783 4.28691 0.0276
C 2.51106 2.87069 0.01305
C 3.73094 2.16953 -0.00077
C 2.47569 34.05732 -0.02929
C 13.47424 0.77653 -0.02689
C 7.32829 28.25185 -0.0008
C 8.3962 10.65687 0.00393
C 9.80652 2.90592 0.01641
C 11.02176 2.18038 -0.00719
C 11.02351 0.75867 0.01364
C 9.84005 0.07041 -0.01062
C 12.28842 32.65525 -0.00033
C 13.52251 31.98947 0.03589
C 13.58713 30.5677 -0.02759
C 12.3866 29.84262 0.0402
C 12.42058 28.18569 0.00572
C 13.7355 27.49853 0.03592
C 12.09815 11.15793 0.00406
C 13.46618 10.77458 0.00943
C 13.51633 9.34445 0.02841
C 12.24817 8.53879 -0.01111
C 12.33411 7.15296 -0.01275
C 13.57898 6.40462 0.00985
C 13.55696 5.01445 -0.02245
C 12.29153 4.30085 -0.00428
C 12.26206 2.83634 0.03101
C 9.83399 4.31174 0.02339
C 8.60332 27.8041 0.0288
C 11.08566 4.96332 -0.00334
C 9.85518 7.17049 0.00057
C 8.53373 9.24371 0.00895
C 7.28669 8.57175 0.00685
C 7.30954 7.15606 0.02888
C 8.61806 6.50766 -0.00482
C 8.61202 5.05917 -0.01384
C 7.38924 4.40458 0.03693
C 7.40225 2.97159 0.01745
C 8.59028 2.20815 0.00488
C 8.59231 0.78872 -0.01004
C 7.40251 0.12146 -0.02896
C 9.83728 32.73661 -0.00131
C 11.06959 32.00106 -0.01118
C 11.11083 30.60398 -0.014
C 9.89498 29.90789 0.02147
C 9.84634 28.35331 0.00373
C 11.1136 27.94863 -0.00191
C 10.83633 10.67803 0.00438
C 10.96844 9.25676 0.01291
C 9.79999 8.5634 0.00093
C 11.07285 6.40931 -0.01634
C 22.08859 25.57568 0.00675
C 22.02659 24.1571 -0.00311
C 23.22281 23.42799 0.00742
C 30.68216 0.71941 0.00307
C 29.38503 0.02851 0.00346
C 31.87842 32.68524 0.01713
C 33.18148 32.00483 -0.01694
C 33.15138 30.60064 0.01428
C 31.91989 29.85566 -0.02142
C 31.93193 28.44922 0.0544
C 33.14107 27.77509 0.00026
C 33.18274 26.28973 0.00682
C 31.95573 25.5269 -0.01779
C 31.97087 24.13632 0.03794
C 33.23914 23.43294 0.01927
C 33.19853 22.01379 0.01574
C 31.99207 21.30968 -0.02383
C 31.97861 19.85099 -0.01429
C 33.25601 19.12247 -0.0136
C 33.24393 17.69552 0.00594
C 32.02073 17.06052 -0.02474
C 31.93441 15.57177 0.00369
C 30.69615 2.14908 0.00716
C 33.18485 14.94884 0.00455
C 29.46923 2.89386 0.02108
C 30.69657 4.9593 0.07705
C 29.43012 25.61005 0.03265
C 29.48288 24.14848 -0.02049
C 30.69279 23.46182 -0.01854
C 30.65626 22.02585 -0.01415
C 29.49808 21.29054 -0.03039
C 29.55278 19.80378 0.01836
C 30.75214 19.15214 0.03531
C 30.83574 17.78308 -0.00669
C 29.57115 17.05869 0.0101
C 29.55403 15.58333 0.01705
C 30.75666 14.84032 -0.0405
C 30.7844 13.46387 -0.01303
C 29.5399 12.79493 -0.01461
C 29.52161 11.36154 -0.02155
C 30.72434 10.61559 -0.00944
C 30.71133 9.2656 -0.03735
C 29.47638 8.48906 -0.00971
C 29.52658 7.08859 0.01518
C 30.71873 6.35025 0.01908
C 29.4487 4.25767 0.0103
C 30.67191 26.3095 0.00261
C 33.1859 13.50837 -0.00644
C 31.98317 11.33311 0.00137
C 0.07748 19.87638 0.01951
C 1.2145 19.0248 -0.01678
C 1.18734 17.68972 0.01223
C 0.05801 16.97314 0.00648
C 0.00048 15.64255 0.02114
C 1.28928 14.95348 -0.02957
C 1.32334 13.54402 0.00343
C 34.4152 12.79666 -0.02656
C 34.43204 11.44783 -0.02442
C 1.19743 10.71189 -0.00027
C 1.16319 9.27563 -0.00583
C 34.37225 8.5299 -0.02302
C 34.38965 7.15797 -0.02849
C 1.14964 6.37138 0.02931
C 1.25453 4.97159 0.00628
C 0.05457 4.29954 -0.0345
C 34.41236 2.88628 -0.00931
C 1.24637 2.18403 -0.00939
C 1.21466 0.70658 -0.00468
C 34.42125 21.28618 -0.02213
C 31.9425 12.8038 -0.01839
C 1.10866 22.07736 0.02712
C 0.04309 24.14438 0.03076
C 33.243 10.66563 0.00199
C 33.12825 9.21971 0.04381
C 31.91978 8.42443 0.02806
C 31.91474 7.06976 0.01504
C 33.19802 6.42379 -0.00069
C 33.20892 4.98076 0.04926
C 31.93737 4.20762 -0.03838
C 31.95831 2.84504 0.00349
C 33.159 2.14099 -0.00323
C 33.19102 0.6976 -0.00841
C 31.95214 0.0449 0.0001
C 0.00248 32.68291 -0.02927
C 1.25112 31.99456 -0.01404
C 1.24589 30.54433 0.01027
C 34.36707 29.86677 0.01831
C 34.3569 28.51352 -0.01037
C 1.16736 27.7822 -0.00439
C 1.15824 26.41118 -0.00598
C 34.4281 25.61347 -0.05239
C 1.41631 23.30032 0.00723
C 30.64715 27.69583 0.02326
C 29.40379 28.38946 0.00924
C 29.39433 29.78688 0.0014
C 25.77757 31.98949 0.01153
C 25.73687 30.53753 0.02734
C 24.59111 29.79254 -0.0055
C 24.55807 28.41905 0.01515
C 25.7792 27.67751 -0.00225
C 25.7773 26.25832 0.00071
C 24.5529 25.53026 -0.01107
C 24.47368 24.10959 -0.01586
C 25.78777 23.41381 -0.01971
C 25.75472 21.9339 -0.02118
C 24.4542 21.32971 0.00733
C 24.56824 19.83493 -0.00178
C 25.79004 19.12129 0.00768
C 25.88894 17.72363 -0.0276
C 24.64219 16.95522 0.03005
C 24.57249 15.50453 -0.04078
C 25.81239 14.84388 0.02117
C 25.80132 13.45782 0.02737
C 24.57316 12.7171 -0.00498
C 24.50368 32.65771 0.02239
C 24.65636 11.2622 0.00135
C 22.12494 34.05081 -0.03213
C 23.33902 2.11662 0.03374
C 23.28839 22.00176 -0.01594
C 22.07004 21.30841 0.0106
C 22.07628 19.86581 -0.01154
C 23.36809 19.11127 -0.01721
C 23.37001 17.6659 -0.02422
C 22.13008 17.01085 0.01277
C 22.12023 15.5753 0.00096
C 23.35996 14.92246 -0.01527
C 23.29517 13.40791 0.01087
C 22.10258 12.70021 0.00199
C 22.13051 11.30359 0.01511
C 23.38566 10.5366 -0.00478
C 23.41572 9.11274 -0.01662
C 22.13046 8.4904 -0.01185
C 22.15023 7.05332 0.01126
C 23.3669 6.37028 0.01852
C 23.38013 4.95404 -0.00381
C 22.11069 4.22454 0.03046
C 22.12742 2.8309 0.0296
C 23.38068 0.67029 -0.02845
C 25.91995 10.60179 0.03102
C 25.83569 9.21083 0.02555
C 24.69093 8.49117 0.01423
C 27.04039 15.57762 -0.00294
C 28.30711 14.87291 0.00152
C 28.35214 13.49041 0.01257
C 27.02649 12.77741 0.02316
C 27.09407 11.3523 0.04185
C 28.28305 10.63556 0.00194
C 28.28916 9.26409 -0.00621
C 27.08988 8.58093 0.02611
C 27.02596 7.14375 0.02198
C 28.33052 6.3338 0.01094
C 28.30495 4.93861 0.00235
C 27.04989 4.281 0.01495
C 26.97456 2.88828 0.01259
C 28.19389 2.16453 0.01799
C 28.15676 0.7273 0.01699
C 26.9276 0.03983 -0.00416
C 29.34805 32.67185 0.01177
C 30.63836 31.95107 0.04266
C 30.61509 30.57179 0.01324
C 27.08455 16.98262 0.00826
C 28.33192 17.73699 0.00487
C 28.34033 19.17148 -0.00942
C 27.05134 19.78805 -0.02815
C 24.60934 7.07523 -0.00285
C 25.81343 6.39527 -0.009
C 25.85319 4.96649 -0.01199
C 24.59777 4.275 -0.00229
C 24.63778 2.85604 -0.00938
C 25.77113 2.13097 -0.0264
C 25.77644 0.68959 -0.01154
C 24.53244 34.00364 0.00684
C 26.91793 32.70708 -0.01052
C 3.75289 31.94936 0.01996
C 28.20814 31.94418 -0.01679
C 26.98048 29.80943 0.04306
C 26.97558 28.37065 0.00996
C 28.21374 27.67824 0.00195
C 28.17716 26.26238 -0.00802
C 26.99707 25.46985 -0.00218
C 27.01781 24.05829 -0.01654
C 28.29267 23.43096 -0.00037
C 28.26576 22.06081 -0.0032
C 26.97534 21.24401 0.00622
C 28.15574 30.53751 0.00367
C 2.45533 32.71622 -0.00279
