356
Graphene
C 34.41273 0.05165 0.01295
C 9.76183 0.0295 -0.0108
C 12.26411 32.6945 -0.00368
C 13.41543 31.88734 -0.02696
C 13.40369 30.50011 -0.00114
C 12.15513 29.79551 0.00228
C 12.24386 28.35921 0.00798
C 13.48282 27.65325 0.00422
C 13.35865 26.16648 0.0351
C 11.02948 0.79422 -0.01957
C 12.04269 25.49015 -0.03113
C 12.30746 8.49143 0.01848
C 12.29038 7.05507 -0.00619
C 13.51877 6.35619 -0.02162
C 13.4964 4.94959 0.00889
C 12.26529 4.20324 -0.00481
C 12.25492 2.86057 0.00979
C 13.49973 2.18245 0.01443
C 13.48221 0.72403 0.03505
C 13.51279 9.26173 0.02098
C 12.31819 0.03809 -0.02815
C 11.0157 2.12682 0.02058
C 9.78226 4.34708 -0.03682
C 8.59641 0.70908 -0.02162
C 7.32314 34.07047 0.00415
C 9.80607 32.68044 -0.0014
C 11.04568 32.01605 0.02162
C 10.96827 30.56198 0.0076
C 9.7874 29.83302 0.01241
C 9.85811 28.39861 -0.01454
C 11.03222 27.73892 0.01945
C 9.71801 2.86439 0.01965
C 11.01521 26.26496 0.01416
C 9.96068 24.25994 0.02299
C 9.9034 11.23796 0.00244
C 11.07099 10.52379 -0.01717
C 11.11063 9.25773 0.05265
C 9.80402 8.46658 -0.01952
C 9.79236 7.09906 -0.02813
C 11.0772 6.36206 0.00374
C 11.02276 4.90741 0.00052
C 9.77198 25.66045 0.03542
C 14.74657 32.66101 -0.04147
C 15.91266 31.99254 -0.05302
C 15.86175 30.53868 0.00213
C 17.16941 7.12346 0.00667
C 18.35013 6.31821 0.00143
C 18.4403 4.80085 -0.017
C 17.20878 4.18329 0.00364
C 17.17358 2.82474 -0.00831
C 18.35377 2.03589 -0.02957
C 18.36966 0.60331 -0.04422
C 17.20449 34.03287 0.00654
C 17.28992 8.7277 -0.0054
C 19.67687 32.55088 -0.00703
C 20.96999 30.36514 -0.00652
C 19.64487 29.69137 0.0058
C 19.70181 28.1344 -0.00865
C 21.01013 27.61832 0.00675
C 20.91861 10.57266 -0.00311
C 20.88413 9.18383 0.00742
C 19.71977 8.4646 -0.01594
C 19.67093 7.03292 0.0106
C 20.92236 31.82955 -0.04076
C 18.5085 9.37785 0.00755
C 18.40494 27.6642 0.01739
C 17.22037 28.42411 0.03754
C 14.72592 29.81917 -0.00066
C 14.75479 28.2751 -0.00289
C 16.01209 27.70598 0.00028
C 15.77753 26.26283 -0.02213
C 14.74519 25.68343 0.03698
C 16.00539 9.18489 -0.00109
C 14.77872 8.67941 -0.00491
C 14.74202 7.14312 0.03338
C 15.95181 6.47643 -0.0258
C 15.96705 4.99864 -0.0331
C 14.74233 4.33498 -0.00316
C 14.76301 2.85264 0.02188
C 15.96618 2.12302 -0.01979
C 15.92759 0.71788 0.02691
C 14.7313 34.05058 -0.01581
C 17.25207 32.60723 0.01452
C 18.47964 31.85574 0.04892
C 18.43315 30.47668 -0.00111
C 17.16372 29.83218 -0.03557
C 8.54898 2.2059 0.01363
C 20.84131 6.28787 -0.01154
C 7.31986 2.86391 0.01877
C 8.57619 5.0687 0.00444
C 2.43661 7.24699 -0.00562
C 3.7041 6.42726 -0.00494
C 3.66067 5.00284 0.00054
C 2.38629 4.31624 0.03007
C 2.38782 2.91046 -0.00095
C 3.62321 2.16225 0.01572
C 3.62983 0.80968 -0.04848
C 2.44688 0.05983 -0.00892
C 2.45676 8.63737 -0.01142
C 4.85504 32.73669 -0.01362
C 6.10604 30.61643 0.0288
C 4.95392 29.84385 0.00393
C 4.98024 28.4631 0.00895
C 6.17716 27.74502 0.00685
C 6.13433 26.2717 0.02888
C 4.95171 25.48499 -0.00482
C 4.94346 24.1376 -0.01384
C 6.17741 23.40453 0.03693
C 5.98002 31.95191 -0.0008
C 6.18741 21.9844 0.01745
C 3.80025 9.24969 0.01849
C 2.42167 11.43497 0.0127
C 3.70122 30.5384 -0.05697
C 2.47151 29.84023 0.01087
C 2.51868 28.46155 -0.01343
C 3.67613 27.79141 0.00988
C 3.70335 26.23952 0.0276
C 2.51229 25.53074 0.01305
C 2.48306 24.07516 -0.00077
C 3.75314 23.45857 0.03368
C 3.73575 10.79243 0.01396
C 3.70222 21.94664 -0.02929
C 2.41756 19.90394 -0.03337
C 3.64741 19.17567 0.01227
C 3.65288 17.7703 0.00873
C 2.39109 17.11772 -0.00049
C 2.40083 15.72507 0.00848
C 3.62231 14.95257 -0.01303
C 3.7084 13.52576 -0.01378
C 2.49195 12.73958 0.02635
C 2.5041 21.31563 -0.00966
C 4.90242 21.32826 0.00488
C 4.8793 19.87405 -0.01004
C 6.15049 19.14369 -0.02896
C 8.55546 27.76828 0.00406
C 8.5754 26.32529 0.00943
C 7.39264 25.55874 0.02841
C 7.43607 24.11006 -0.01111
C 8.86366 23.46696 -0.01275
C 8.63998 22.07078 0.00985
C 7.57087 21.24481 -0.02245
C 7.37342 19.82078 -0.00428
C 7.364 28.49361 0.03592
C 7.22891 16.93399 0.03101
C 8.59136 13.80922 -0.02689
C 7.448 12.95084 -0.01046
C 7.3887 11.49378 -0.00891
C 8.59376 10.73122 0.02819
C 8.5739 9.30368 0.00165
C 7.34272 8.564 -0.02971
C 7.3827 7.15601 0.02894
C 8.62512 6.51337 -0.01789
C 7.45792 15.56526 -0.01536
C 7.36438 29.89229 0.00572
C 8.61511 30.58933 0.0402
C 8.54312 32.05338 -0.02759
C 6.17052 17.7171 -0.00131
C 4.90842 17.04572 -0.01118
C 4.85093 15.67349 -0.014
C 6.2154 14.99186 0.02147
C 6.1834 13.54535 0.00373
C 4.88603 12.8477 -0.00191
C 4.92921 11.4381 0.00438
C 6.23572 10.7186 0.01291
C 6.22207 9.35187 0.00093
C 5.03144 8.51717 0.00057
C 4.96093 7.13017 -0.01634
C 6.1761 6.46444 -0.00334
C 6.18025 5.01287 0.02339
C 4.87279 4.29649 0.01641
C 4.85677 2.8852 -0.00719
C 6.06919 2.17801 0.01364
C 6.07797 0.75824 -0.01062
C 4.82026 0.08585 -0.00033
C 7.27953 32.68597 0.03589
C 7.3763 4.28792 -0.00925
C 20.92567 4.87767 -0.01721
C 19.66064 4.209 -0.02422
C 19.59164 2.7729 0.01277
C 31.97063 32.61732 0.01713
C 33.18438 31.97586 -0.01694
C 33.2319 30.58881 0.01428
C 32.00719 29.88639 -0.02142
C 31.97036 28.49197 0.0544
C 33.18343 27.69356 0.00026
C 33.17631 26.31643 0.00682
C 31.93286 25.52519 -0.01779
C 29.57278 0.04818 0.00346
C 31.83448 24.13901 0.03794
C 33.1781 22.00372 0.01574
C 31.96086 21.31901 -0.02383
C 31.93213 19.87163 -0.01429
C 33.07688 19.22224 -0.0136
C 33.04433 17.7527 0.00594
C 31.87969 17.07021 -0.02474
C 31.85635 15.65555 0.00369
C 33.0612 14.96794 0.00455
C 33.09871 23.48638 0.01927
C 33.14789 13.49438 -0.00644
C 30.71875 0.76875 0.00307
C 29.47338 2.87171 0.02108
C 30.64955 22.04985 -0.01415
C 29.37954 21.38103 -0.03039
C 29.37119 19.92292 0.01836
C 30.6381 19.15002 0.03531
C 30.56373 17.74679 -0.00669
C 29.29246 17.07945 0.0101
C 29.28764 15.63029 0.01705
C 30.59948 14.96339 -0.0405
C 30.70976 2.14332 0.00716
C 30.57518 13.5585 -0.01303
C 29.47847 11.3311 -0.02155
C 30.64648 10.63765 -0.00944
C 30.74054 9.24006 -0.03735
C 29.42852 8.48888 -0.00971
C 29.4925 7.16018 0.01518
C 30.69756 6.417 0.01908
C 30.6706 4.98167 0.07705
C 29.47252 4.21191 0.0103
C 29.38381 12.78783 -0.01461
C 31.83535 12.8279 -0.01839
C 31.78306 11.47299 0.00137
C 33.13995 10.70957 0.00199
C 1.17995 19.21106 -0.01678
C 1.14272 17.86151 0.01223
C 34.34632 17.10554 0.00648
C 34.34118 15.6871 0.02114
C 1.19089 14.98817 -0.02957
C 1.24771 13.564 0.00343
C 34.42856 12.84467 -0.02656
C 34.37796 11.45327 -0.02442
C 34.28268 19.9119 0.01951
C 1.22428 10.74029 -0.00027
C 34.38486 8.59334 -0.02302
C 34.39352 7.18681 -0.02849
C 1.16501 6.47701 0.02931
C 1.21072 5.07783 0.00628
C 0.08324 4.22786 -0.0345
C 0.00824 2.81759 -0.00931
C 1.23234 2.21128 -0.00939
C 1.20526 0.75687 -0.00468
C 1.18504 9.33689 -0.00583
C 34.42859 21.31199 -0.02213
C 1.24633 22.0486 0.02712
C 1.23141 23.40138 0.00723
C 33.14053 9.22848 0.04381
C 31.94936 8.47984 0.02806
C 31.92359 7.05213 0.01504
C 33.16768 6.39018 -0.00069
C 33.21668 4.97069 0.04926
C 31.98003 4.32516 -0.03838
C 32.01625 2.91325 0.00349
C 33.20216 2.13993 -0.00323
C 33.14459 0.73899 -0.00841
C 32.01476 0.04152 0.0001
C 0.02441 32.69643 -0.02927
C 1.2133 31.99791 -0.01404
C 1.25135 30.56013 0.01027
C 0.03076 29.88657 0.01831
C 0.02343 28.46282 -0.01037
C 1.23492 27.7142 -0.00439
C 1.19672 26.30623 -0.00598
C 34.4331 25.53702 -0.05239
C 0.00772 24.08445 0.03076
C 30.68443 23.46933 -0.01854
C 29.47159 24.20736 -0.02049
C 29.46744 25.62986 0.03265
C 30.6831 26.2395 0.00261
C 25.8247 31.95326 -0.01107
C 25.82483 30.5546 -0.01586
C 24.61952 29.76612 -0.01971
C 24.79318 28.39569 -0.02118
C 25.9602 27.79978 0.00733
C 25.77452 26.39045 -0.00178
C 24.31667 26.34486 0.00768
C 25.85715 23.15381 -0.0276
C 24.57841 32.65431 0.00071
C 25.58849 17.7055 0.03005
C 25.75817 14.87312 0.02117
C 25.816 13.43821 0.02737
C 24.46255 12.9227 -0.00498
C 24.52124 11.42344 0.00135
C 25.78344 10.62193 0.03102
C 25.7243 9.20476 0.02555
C 24.5614 8.50362 0.01423
C 24.55011 7.11088 -0.00285
C 24.35085 15.12318 -0.04078
C 21.98698 33.97963 -0.00225
C 23.26526 0.67577 0.01515
C 23.27282 2.04835 -0.0055
C 20.83849 2.10663 0.00096
C 20.74884 0.67908 -0.01527
C 19.57516 34.02752 0.01087
C 22.11904 32.56569 0.00199
C 23.33115 31.91772 0.01511
C 23.35974 30.45827 -0.00478
C 22.23548 29.63927 -0.01662
C 22.22491 28.14769 -0.01185
C 23.58913 27.44234 0.01126
C 23.62102 14.09339 0.01852
C 22.0508 11.17435 -0.00381
C 23.38094 10.65813 0.03046
C 23.36853 9.17289 0.0296
C 22.19027 8.41233 0.03374
C 22.04149 7.03407 -0.02845
C 23.25903 6.29876 -0.03213
C 23.40781 4.91109 0.02239
C 22.17053 4.20763 0.01153
C 22.03522 2.82541 0.02734
C 25.70513 6.38889 -0.009
C 3.69924 32.00917 -0.00725
C 25.81338 4.9618 -0.01199
C 24.52966 2.76784 -0.00938
C 27.003 11.23205 0.04185
C 28.20593 10.64324 0.00194
C 28.24553 9.25143 -0.00621
C 26.99091 8.52719 0.02611
C 26.92842 7.07048 0.02198
C 28.18751 6.32912 0.01094
C 28.25945 4.88441 0.00235
C 27.00754 4.22242 0.01495
C 26.94214 12.66658 0.02316
C 27.01965 2.87032 0.01259
C 28.18755 0.71619 0.01699
C 27.01948 34.02901 -0.00416
C 29.57377 32.71112 0.01177
C 30.73369 31.96714 0.04266
C 30.67936 30.63491 0.01324
C 29.55472 29.92682 0.0014
C 29.53213 28.50694 0.00924
C 30.70641 27.75845 0.02326
C 28.22412 2.13859 0.01799
C 28.14341 13.4568 0.01257
C 28.07501 14.87273 0.00152
C 26.84694 15.62459 -0.00294
C 25.7413 2.0977 -0.0264
C 25.85418 0.68925 -0.01154
C 24.52887 34.037 0.00684
C 26.97126 32.60573 -0.01052
C 28.35319 32.00317 -0.01679
C 28.30231 30.65829 0.00367
C 27.06199 29.91401 0.04306
C 27.11471 28.46718 0.00996
C 28.35833 27.76423 0.00195
C 28.3327 26.35793 -0.00802
C 26.92586 25.60202 -0.00218
C 26.90573 24.16747 -0.01654
C 28.11238 23.46125 -0.00037
C 28.10233 22.01696 -0.0032
C 26.76745 21.49283 0.00622
C 26.82689 20.09071 -0.02815
C 28.04517 19.30245 -0.00942
C 28.01893 17.8338 0.00487
C 26.75171 17.00362 0.00826
C 24.57483 4.18011 -0.00229
C 2.40059 32.7274 0.02322
