311
Graphene
C 0.02178 0.02948 0.01295
C 14.7998 29.80628 -0.00316
C 14.69713 28.4677 0.02188
C 15.97327 27.73333 -0.01979
C 16.12512 26.23143 0.02691
C 16.07072 6.43516 -0.01581
C 16.00121 5.03095 0.01452
C 14.70736 4.21592 0.04892
C 14.71393 2.81279 -0.00111
C 15.95595 2.00231 -0.03557
C 15.988 0.6619 0.03754
C 14.81681 0.00013 0.01739
C 17.2547 32.60868 0.00755
C 18.49675 31.92169 -0.0054
C 18.5055 30.49433 0.00667
C 17.19527 29.9019 0.00143
C 15.99672 30.49392 -0.0331
C 15.97417 31.85351 -0.0258
C 14.6974 32.62199 0.03338
C 12.34883 34.01098 -0.00491
C 11.01877 2.11373 -0.02162
C 11.036 0.75119 0.00889
C 9.85776 34.02632 -0.00481
C 12.23821 32.68538 0.00979
C 13.41053 32.00951 0.01443
C 13.54821 30.58971 0.03505
C 12.34108 29.84732 -0.02815
C 17.26636 28.42571 -0.017
C 12.31898 28.36797 -0.04147
C 12.33428 7.04937 0.00213
C 13.46458 6.41049 -0.00066
C 13.58803 5.01066 -0.00289
C 12.32846 4.3478 0.00028
C 12.27578 2.86428 -0.02213
C 13.49701 2.18486 0.03698
C 13.56329 0.62123 -0.00109
C 13.55957 27.7195 -0.05302
C 9.85477 2.85456 -0.00619
C 18.52967 27.69029 0.00364
C 17.09899 25.56186 -0.02957
C 20.89319 2.13529 0.01511
C 20.89903 0.65979 -0.00478
C 19.61239 34.04924 -0.01662
C 22.17663 32.63365 -0.01185
C 23.44118 31.93405 0.01126
C 23.37482 30.54601 0.01852
C 22.14686 29.84963 -0.00381
C 22.09821 28.49066 0.03046
C 23.33375 27.721 0.0296
C 23.3475 26.19342 0.03374
C 22.10778 25.50251 -0.02845
C 22.24781 24.14946 -0.03213
C 23.30872 23.51239 0.02239
C 23.28157 9.20188 0.01153
C 22.15433 8.57209 0.02734
C 19.69826 2.81675 0.00199
C 19.72989 4.31621 0.01087
C 20.89987 4.9388 -0.01527
C 20.9106 6.40079 0.00096
C 18.51236 6.40963 -0.04422
C 18.47882 4.92793 0.00654
C 17.16688 4.23718 -0.00703
C 17.19363 2.79216 -0.04076
C 18.48212 2.07049 -0.00652
C 18.45224 0.67525 0.0058
C 17.21255 0.02049 -0.00865
C 18.41255 26.22734 -0.00831
C 19.64263 32.67123 0.00675
C 20.84266 30.57734 0.00742
C 19.67009 29.84838 -0.01594
C 19.68882 28.41252 0.0106
C 20.94195 27.65302 -0.01154
C 20.90558 26.25051 -0.01721
C 19.68173 25.61874 -0.02422
C 19.61472 7.08891 0.01277
C 20.95162 31.97336 -0.00311
C 22.11565 7.10328 -0.0055
C 9.85192 4.21299 0.01848
C 11.03548 6.34657 -0.03113
C 3.6732 6.39049 0.00572
C 3.72881 4.98776 0.03592
C 2.4343 4.26341 0.00406
C 2.42256 2.87143 0.00943
C 3.63295 2.14869 0.02841
C 3.6789 0.71861 -0.01111
C 2.41094 0.00166 -0.01275
C 4.92977 32.70421 0.00985
C 6.19536 31.93226 -0.02245
C 6.10546 30.52185 -0.00428
C 4.90258 29.74434 0.03101
C 4.87314 28.36423 -0.01536
C 6.15573 27.66458 -0.02689
C 6.04379 26.23059 -0.01046
C 5.01606 25.57219 -0.00891
C 2.49735 7.11932 0.0402
C 2.42046 8.58048 -0.02759
C 3.69589 9.20166 0.03589
C 3.65862 10.66606 -0.00033
C 3.67168 30.54835 -0.01118
C 2.47905 29.85159 -0.014
C 2.44981 28.33301 0.02147
C 3.65267 27.71033 0.00373
C 3.6705 26.28572 -0.00191
C 2.42747 25.58206 0.00438
C 2.49712 24.13485 0.01291
C 4.91993 12.83757 0.02819
C 3.70821 23.37311 0.00093
C 2.45868 20.02255 -0.01634
C 2.47723 17.09104 -0.00334
C 2.48625 15.67031 0.02339
C 3.5955 14.99351 0.01641
C 3.76933 13.56975 -0.00719
C 2.45263 12.78328 0.01364
C 2.42493 11.36918 -0.01062
C 2.39183 21.28899 0.00057
C 11.12125 4.89159 0.02098
C 4.9731 11.42242 0.00165
C 6.13979 9.21575 0.02894
C 8.69749 6.34061 -0.02813
C 8.62502 4.93387 0.00374
C 7.32247 4.26252 0.00052
C 7.34741 2.92934 -0.03682
C 8.61971 2.13985 0.01965
C 8.63232 0.6864 0.02058
C 7.37378 0.00943 -0.01957
C 9.89679 32.63652 -0.0108
C 11.03273 31.88219 -0.00368
C 11.10801 30.49692 -0.02696
C 9.74271 29.78156 -0.00114
C 9.79821 28.42763 0.00228
C 11.00966 27.78423 0.00798
C 9.79507 8.51306 0.00422
C 9.87567 7.16073 0.0351
C 7.38696 6.99611 -0.01952
C 7.41742 8.51004 0.05265
C 8.68199 9.30251 -0.01717
C 8.51861 10.74179 0.00244
C 4.89574 8.5036 -0.01789
C 4.86671 7.04253 0.00444
C 6.11173 6.35761 -0.00925
C 6.16946 4.97018 0.01877
C 4.92816 4.23484 0.01363
C 4.89986 2.87089 -0.02162
C 6.17191 2.20568 0.00415
C 6.12451 10.68036 -0.02971
C 6.20096 0.72858 -0.0014
C 7.44702 32.65619 0.0076
C 8.65637 31.97719 0.01241
C 8.54989 30.41084 -0.01454
C 7.33199 29.80998 0.01945
C 7.31573 28.4147 0.01416
C 8.50387 27.63175 0.03542
C 7.47545 11.27755 0.02299
C 4.91489 0.03971 0.02162
C 3.67664 31.98654 -0.00131
C 23.39214 6.33377 0.01515
C 22.1161 4.28796 0.00071
C 33.19659 23.45259 0.01927
C 33.24807 22.0293 0.01574
C 31.96472 21.29079 -0.02383
C 31.98134 19.88025 -0.01429
C 33.24766 19.22025 -0.0136
C 33.19357 17.76255 0.00594
C 31.93994 17.0743 -0.02474
C 32.03232 15.611 0.00369
C 33.22925 14.93697 0.00455
C 33.21448 13.51191 -0.00644
C 32.0102 12.84226 -0.01839
C 31.91868 11.46049 0.00137
C 33.15449 10.70766 0.00199
C 33.20146 9.25425 0.04381
C 31.8895 8.54136 0.02806
C 31.99192 24.17563 0.03794
C 31.98015 25.55261 -0.01779
C 33.21323 26.26266 0.00682
C 33.17374 27.73374 0.00026
C 30.70655 10.71884 -0.00944
C 30.74379 9.23997 -0.03735
C 29.44631 8.53125 -0.00971
C 29.47058 7.14247 0.01518
C 30.73067 6.36394 0.01908
C 30.75944 4.96274 0.07705
C 29.47866 4.32325 0.0103
C 31.92377 7.12073 0.01504
C 29.56859 2.89831 0.02108
C 30.75334 0.64072 0.00307
C 29.50969 34.07647 0.00346
C 31.91917 32.65818 0.01713
C 33.19342 31.95096 -0.01694
C 33.16177 30.56817 0.01428
C 31.87992 29.81672 -0.02142
C 31.91578 28.40539 0.0544
C 30.72193 2.0607 0.00716
C 29.5177 11.41518 -0.02155
C 33.12214 6.39067 -0.00069
C 31.97876 4.29429 -0.03838
C 0.01101 15.57805 0.02114
C 1.21264 14.91322 -0.02957
C 1.23019 13.52357 0.00343
C 0.04609 12.79576 -0.02656
C 0.00895 11.40386 -0.02442
C 1.20221 10.65052 -0.00027
C 1.2004 9.25262 -0.00583
C 34.40048 8.53652 -0.02302
C 34.35458 7.1552 -0.02849
C 1.2715 6.3885 0.02931
C 1.2342 4.91641 0.00628
C 0.04612 4.21322 -0.0345
C 34.43073 2.84098 -0.00931
C 1.21843 2.15492 -0.00939
C 1.23832 0.74111 -0.00468
C 34.40117 17.01634 0.00648
C 1.23308 17.727 0.01223
C 1.23192 19.20275 -0.01678
C 0.06662 19.94369 0.01951
C 31.98066 2.74235 0.00349
C 33.24059 2.0864 -0.00323
C 33.23059 0.71427 -0.00841
C 31.9686 0.02164 0.0001
C 34.43288 32.62137 -0.02927
C 1.18943 31.95898 -0.01404
C 1.26146 30.49276 0.01027
C 33.17355 4.92234 0.04926
C 34.39982 29.84244 0.01831
C 1.1985 27.66444 -0.00439
C 1.19323 26.28553 -0.00598
C 34.41002 25.57253 -0.05239
C 0.01587 24.09228 0.03076
C 1.24629 23.43342 0.00723
C 1.24376 22.06919 0.02712
C 0.07515 21.30109 -0.02213
C 34.41912 28.32605 -0.01037
C 23.37082 4.98035 -0.00225
C 29.56933 12.76716 -0.01461
C 30.72483 14.89577 -0.0405
C 24.60541 7.04977 -0.00229
C 25.81478 6.41916 -0.00938
C 25.81366 5.01658 -0.0264
C 24.60052 4.33527 -0.01154
C 24.57486 2.85686 0.00684
C 25.84371 2.17228 -0.01052
C 25.78636 0.72972 -0.01679
C 24.59089 0.00768 0.00367
C 27.05326 32.64948 0.04306
C 28.32984 31.98914 0.00996
C 28.32504 30.52566 0.00195
C 27.02009 29.79809 -0.00802
C 27.03115 28.42738 -0.00218
C 28.27753 27.71832 -0.01654
C 28.31403 26.34491 -0.00037
C 24.53447 8.44722 -0.01199
C 25.79157 9.16844 -0.009
C 25.78778 10.63694 -0.00285
C 24.70879 11.35926 0.01423
C 22.05516 2.81607 -0.01107
C 23.29182 2.14612 -0.01586
C 23.33843 0.6683 -0.01971
C 22.09984 34.06102 -0.02118
C 24.60512 32.61414 0.00733
C 25.8255 32.02552 -0.00178
C 25.82776 30.58851 0.00768
C 27.05039 25.57155 -0.0032
C 24.58767 29.82773 -0.0276
C 25.75543 27.68297 -0.04078
C 25.76743 26.29442 0.02117
C 24.58295 25.57773 0.02737
C 24.64438 24.09332 -0.00498
C 25.82843 23.4049 0.00135
C 25.86568 22.01869 0.03102
C 25.83152 13.4726 0.02555
C 24.57074 28.47146 0.03005
C 30.72307 13.52037 -0.01303
C 27.02542 24.14626 0.00622
C 28.27495 22.0154 -0.00942
C 30.75581 30.52566 0.01324
C 29.53468 29.81219 0.0014
C 29.49956 28.35795 0.00924
C 30.72074 27.66748 0.02326
C 30.72022 26.26786 0.00261
C 29.48845 25.61502 0.03265
C 29.5062 24.06103 -0.02049
C 30.75186 23.40602 -0.01854
C 30.7063 22.00951 -0.01415
C 29.51454 21.32816 -0.03039
C 29.53805 19.88357 0.01836
C 30.67222 19.08922 0.03531
C 30.68642 17.73518 -0.00669
C 29.50163 17.02081 0.0101
C 29.48137 15.55484 0.01705
C 30.69634 31.96098 0.04266
C 29.54598 32.6203 0.01177
C 27.07826 34.07286 -0.00416
C 28.33146 0.72613 0.01699
C 26.95435 21.32614 0.00487
C 28.31884 19.03728 0.00826
C 28.26952 17.7983 -0.00294
C 28.25186 14.88195 0.00152
C 28.28952 13.5029 0.01257
C 27.08535 12.75819 0.02316
C 27.04425 11.38054 0.04185
C 28.1825 23.41293 -0.02815
C 28.21674 10.64167 0.00194
C 27.04474 8.45671 0.02611
C 27.03446 7.1068 0.02198
C 28.33029 6.37087 0.01094
C 28.28324 4.96421 0.00235
C 26.94095 4.27049 0.01495
C 26.99048 2.78244 0.01259
C 28.31037 2.13316 0.01799
C 28.27124 9.21207 -0.00621
C 2.48138 32.64193 -0.02896
