298
Graphene
C 34.42917 0.05713 0.01295
C 11.11768 9.25443 0.03754
C 9.93936 8.48048 0.01739
C 9.92618 7.0898 0.00755
C 11.14553 6.36137 -0.0054
C 10.99652 4.88577 0.00667
C 9.80872 4.23826 0.00143
C 11.2087 10.64262 -0.03557
C 9.86612 2.86488 -0.017
C 11.05458 0.84146 -0.00831
C 9.79787 0.03878 -0.02957
C 12.2115 32.5834 -0.04422
C 13.4539 31.86842 0.00654
C 13.47319 30.51741 -0.00703
C 12.28719 29.85769 -0.04076
C 11.12831 2.16982 0.00364
C 9.97817 11.11955 -0.00111
C 9.73448 25.58807 0.04892
C 10.90011 26.34567 0.01452
C 7.32843 8.62331 -0.00066
C 7.42554 7.2016 -0.00289
C 8.60104 6.39766 0.00028
C 8.58639 5.01005 -0.02213
C 7.38069 4.25983 0.03698
C 7.45511 2.83736 -0.00109
C 8.62453 2.11019 -0.00491
C 8.57595 0.69916 0.03338
C 7.34962 0.01731 -0.0258
C 9.73201 32.718 -0.0331
C 10.97972 31.9551 -0.00316
C 11.05408 30.49577 0.02188
C 9.76346 29.80278 -0.01979
C 9.77284 28.33459 0.02691
C 11.00708 27.70155 -0.01581
C 12.27618 28.34592 -0.00652
C 8.63352 9.21922 0.00213
C 13.39281 27.62213 0.0058
C 13.61188 9.24078 0.00675
C 14.65285 4.26935 0.03046
C 14.77415 2.84836 0.0296
C 15.94006 2.10592 0.03374
C 15.93391 0.79924 -0.02845
C 14.75628 0.00246 -0.03213
C 17.12013 32.67737 0.02239
C 15.99799 4.96187 -0.00381
C 18.40907 31.92943 0.01153
C 17.17646 29.80878 -0.0055
C 17.18936 28.38247 0.01515
C 18.38989 27.74261 -0.00225
C 18.36903 26.36286 0.00071
C 18.42221 4.80927 -0.01107
C 17.25386 4.22187 -0.01586
C 18.43198 30.53368 0.02734
C 16.10995 6.30491 0.01852
C 15.0499 7.24885 0.01126
C 14.91483 8.72835 -0.01185
C 12.34707 8.43659 -0.00311
C 12.44713 7.10939 0.00742
C 13.66061 6.44532 -0.01594
C 13.48942 5.01192 0.0106
C 12.24077 4.33055 -0.01154
C 12.41234 2.9242 -0.01721
C 13.55714 2.13583 -0.02422
C 13.50016 0.76789 0.01277
C 12.24156 0.04797 0.00096
C 14.7098 32.57328 -0.01527
C 15.96538 31.89041 0.01087
C 15.95015 30.42968 0.00199
C 14.72539 29.74808 0.01511
C 14.72312 28.23209 -0.00478
C 15.9727 27.76406 -0.01662
C 13.7881 10.58243 -0.00865
C 8.69772 10.65396 -0.05302
C 7.39903 11.39523 -0.04147
C 7.44708 12.8502 -0.02815
C 3.69823 10.75329 -0.02689
C 3.69805 9.29628 -0.01046
C 2.42512 8.6107 -0.00891
C 2.39904 7.15297 0.02819
C 3.65144 6.4323 0.00165
C 3.5935 4.9882 -0.02971
C 2.49427 11.4117 -0.01536
C 2.39932 4.27911 0.02894
C 3.67597 2.16973 0.00444
C 3.65913 0.75989 -0.00925
C 2.4423 0.07068 0.01877
C 4.90685 32.62968 0.01363
C 6.16755 31.94484 -0.02162
C 6.19155 30.55054 0.00415
C 2.43104 2.87991 -0.01789
C 2.50442 12.80082 0.03101
C 3.75172 13.50423 -0.00428
C 3.55179 14.90854 -0.02245
C 3.69566 30.56556 -0.00719
C 2.44268 29.91162 0.01364
C 2.53842 28.45075 -0.01062
C 3.75869 27.70072 -0.00033
C 3.72475 26.27407 0.03589
C 2.46902 25.61024 -0.02759
C 2.44032 24.20284 0.0402
C 3.71849 23.52502 0.00572
C 3.68203 22.03401 0.03592
C 2.45017 21.29647 0.00406
C 2.34655 19.93694 0.00943
C 3.50881 19.16555 0.02841
C 3.56164 17.6712 -0.01111
C 2.328 17.08187 -0.01275
C 2.26883 15.62789 0.00985
C 4.92736 29.86486 -0.0014
C 4.89784 28.50492 0.02162
C 6.16465 27.7414 0.0076
C 6.04792 26.31471 0.01241
C 6.1729 5.04013 -0.00114
C 4.91097 4.33574 0.00228
C 4.88936 2.88373 0.00798
C 6.15018 2.24896 0.00422
C 6.10795 0.74848 0.0351
C 4.91136 0.06099 -0.03113
C 7.34306 32.70181 0.02098
C 8.60257 31.98531 0.01848
C 8.64745 30.58537 -0.00619
C 7.38794 29.77893 -0.02162
C 7.36169 28.44482 0.00889
C 8.58279 27.69437 -0.00481
C 8.5939 26.24899 0.00979
C 7.29791 25.54819 0.01443
C 7.3104 24.23661 0.03505
C 6.13315 6.47692 -0.02696
C 17.24661 2.81796 -0.01971
C 4.92026 7.09206 -0.00368
C 6.13186 9.19313 -0.01957
C 4.91442 25.54089 -0.01454
C 4.98497 24.06864 0.01945
C 6.28902 23.39708 0.01416
C 6.11029 22.02574 0.03542
C 4.88133 21.35374 0.02299
C 4.82747 19.81832 0.00244
C 6.03557 19.13909 -0.01717
C 5.97409 17.7494 0.05265
C 4.87105 17.05418 -0.01952
C 4.81576 15.59485 -0.02813
C 6.02528 14.93849 0.00374
C 6.23216 13.56609 0.00052
C 5.00475 12.82337 -0.03682
C 4.944 11.46338 0.01965
C 6.03747 10.66774 0.02058
C 4.82731 8.54974 -0.0108
C 18.3994 2.03207 -0.02118
C 18.43793 0.72055 0.00733
C 17.19524 0.02859 -0.00178
C 33.16333 22.10383 -0.02383
C 31.90731 21.43805 -0.01429
C 31.84904 19.97592 -0.0136
C 33.14205 19.22945 0.00594
C 33.13855 17.75088 -0.02474
C 31.91673 17.02571 0.00369
C 33.17829 23.50516 0.01574
C 31.99314 15.73092 0.00455
C 32.98102 13.11708 -0.01839
C 32.26143 11.99608 0.00137
C 33.15758 10.83444 0.00199
C 33.06422 9.39572 0.04381
C 31.96618 8.59992 0.02806
C 31.77235 7.1974 0.01504
C 32.90201 14.62856 -0.00644
C 31.9 24.11087 0.01927
C 31.9262 25.54933 0.03794
C 33.11653 26.34652 -0.01779
C 29.46233 19.96882 0.01518
C 30.69625 19.31159 0.01908
C 30.63375 6.43965 0.07705
C 30.58939 5.10228 0.0103
C 29.24011 4.29399 0.02108
C 29.42085 2.92405 0.00716
C 30.6018 2.22925 0.00307
C 30.67511 0.78229 0.00346
C 29.47281 0.09794 0.01713
C 31.92825 32.72231 -0.01694
C 33.17915 32.03126 0.01428
C 33.16887 30.57524 -0.02142
C 31.94509 29.86413 0.0544
C 31.94185 28.49856 0.00026
C 33.12918 27.72692 0.00682
C 33.07941 6.4742 -0.00069
C 33.07189 5.02465 0.04926
C 31.85836 4.41892 -0.03838
C 31.82292 2.89196 0.00349
C 34.2452 15.39185 0.02114
C 1.08086 14.88779 -0.02957
C 1.1426 13.46779 0.00343
C 34.38701 12.78615 -0.02656
C 0.04405 11.34424 -0.02442
C 1.23029 10.7312 -0.00027
C 1.18686 9.22975 -0.00583
C 34.35825 8.63338 -0.02302
C 34.29223 7.17041 -0.02849
C 1.13179 6.48241 0.02931
C 1.13872 5.06402 0.00628
C 34.34755 4.37248 -0.0345
C 34.36167 2.92539 -0.00931
C 1.17613 2.09691 -0.00939
C 1.19282 0.78785 -0.00468
C 34.34373 17.00164 0.00648
C 29.36739 21.30551 -0.00971
C 1.18451 17.75721 0.01223
C 34.36365 19.91262 0.01951
C 33.12564 2.26008 -0.00323
C 33.15605 0.81316 -0.00841
C 31.94547 0.06944 0.0001
C 34.40421 32.71192 -0.02927
C 1.19542 32.02658 -0.01404
C 1.20929 30.6052 0.01027
C 34.35977 29.86622 0.01831
C 34.33483 28.41674 -0.01037
C 1.12328 27.71163 -0.00439
C 1.21386 26.28064 -0.00598
C 34.36052 25.61452 -0.05239
C 34.36561 24.19862 0.03076
C 1.20375 23.49053 0.00723
C 1.19829 22.09184 0.02712
C 0.00053 21.33443 -0.02213
C 1.12066 19.25897 -0.01678
C 3.67902 31.96874 0.01641
C 30.66122 22.0491 -0.03735
C 29.44592 24.24878 -0.02155
C 23.29921 26.26272 -0.01052
C 22.11544 25.4518 -0.01679
C 22.07885 23.95187 0.00367
C 23.34736 23.48998 0.04306
C 23.12327 22.13394 0.00996
C 22.54157 4.14824 0.00195
C 23.25991 27.62585 0.00684
C 22.17325 2.86562 -0.00802
C 23.35125 0.73437 -0.01654
C 22.12192 34.03371 -0.00037
C 24.48352 32.62323 -0.0032
C 25.77415 31.98886 0.00622
C 25.85356 30.56939 -0.02815
C 24.53036 29.75871 -0.00942
C 23.38857 2.10534 -0.00218
C 22.02865 28.24786 -0.01154
C 22.08829 29.7308 -0.0264
C 23.29364 30.49175 -0.00938
C 19.65121 32.66631 0.00768
C 20.80803 31.86845 -0.0276
C 20.79741 30.47352 0.03005
C 19.67346 29.78969 -0.04078
C 19.64891 28.29327 0.02117
C 20.8724 27.56 0.02737
C 20.83629 26.0887 -0.00498
C 19.58712 25.60745 0.00135
C 19.65417 4.18103 0.03102
C 19.76559 2.8405 0.02555
C 20.91571 2.09595 0.01423
C 20.89106 0.69927 -0.00285
C 19.66991 34.01264 -0.009
C 22.11007 32.63481 -0.01199
C 23.32958 31.89097 -0.00229
C 24.48933 28.38955 0.00487
C 25.76763 27.70457 0.00826
C 25.78577 26.30147 -0.00294
C 24.5394 25.64647 0.00152
C 26.77332 21.48128 0.02326
C 27.98141 4.85117 0.00261
C 26.81546 4.18788 0.03265
C 26.90388 2.78321 -0.02049
C 28.21778 2.15925 -0.01854
C 28.22286 0.72698 -0.01415
C 27.07956 34.05985 -0.03039
C 29.49685 32.77538 0.01836
C 30.73299 31.99105 0.03531
C 30.72956 30.55235 -0.00669
C 29.48427 29.87974 0.0101
C 29.48882 28.47987 0.01705
C 30.71996 27.79699 -0.0405
C 30.64204 26.30937 -0.01303
C 29.43823 25.63337 -0.01461
C 28.10298 22.03116 0.00924
C 30.63312 23.49083 -0.00944
C 28.22269 23.4633 0.0014
C 26.99066 25.66796 0.04266
C 24.52432 24.26172 0.01257
C 25.75694 23.52781 0.02316
C 25.52675 22.144 0.04185
C 24.677 4.13509 0.00194
C 24.62906 2.80575 -0.00621
C 25.78442 2.0027 0.02611
C 25.79225 0.57171 0.02198
C 24.58485 34.07006 0.01094
C 27.03864 32.68277 0.00235
C 28.25974 32.00345 0.01495
C 28.24148 30.5285 0.01259
C 27.01883 29.84048 0.01799
C 27.01204 28.48702 0.01699
C 28.25749 27.80355 -0.00416
C 28.25364 26.34986 0.01177
C 26.9891 24.24936 0.01324
C 2.44079 32.71064 0.02339
