390
Graphene
C 34.36522 34.06664 0.01295
C 9.7909 0.00512 0.01363
C 12.27316 32.78731 -0.02162
C 13.48887 32.00223 0.00415
C 13.58305 30.61633 -0.0014
C 12.32549 29.87451 0.02162
C 12.32728 28.48608 0.0076
C 13.5261 27.68108 0.01241
C 13.43769 26.2424 -0.01454
C 12.25496 25.55592 0.01945
C 11.00049 0.83729 0.01877
C 12.29471 24.04689 0.01416
C 13.50829 22.03683 0.02299
C 12.30685 21.2787 0.00244
C 12.26962 19.82889 -0.01717
C 13.56125 19.40719 0.05265
C 12.34889 6.98534 -0.01952
C 13.38752 6.20573 -0.02813
C 13.56986 4.87327 0.00374
C 12.27532 4.16772 0.00052
C 12.29425 2.72773 -0.03682
C 13.60438 23.40124 0.03542
C 13.53282 2.14256 0.01965
C 10.96034 2.18713 -0.00925
C 9.90284 4.37843 -0.01789
C 9.87402 28.43585 0.0402
C 11.11743 27.75409 0.00572
C 11.05872 26.27568 0.03592
C 9.76989 25.63429 0.00406
C 9.85351 24.21886 0.00943
C 11.09187 23.45012 0.02841
C 11.11601 22.01609 -0.01111
C 9.79108 21.33704 -0.01275
C 9.79231 19.91228 0.00985
C 9.79848 2.97877 0.00444
C 11.05721 19.18433 -0.02245
C 9.93556 16.97739 0.03101
C 9.79633 15.6015 -0.01536
C 9.91021 12.64693 -0.02689
C 9.82379 11.38964 -0.01046
C 11.01822 9.3111 -0.00891
C 9.93707 8.55765 0.02819
C 9.91218 7.07249 0.00165
C 11.09301 6.37543 -0.02971
C 11.10308 4.95973 0.02894
C 11.0285 17.76265 -0.00428
C 13.51516 0.71613 0.02058
C 12.2839 0.08961 -0.01957
C 14.73274 32.65002 -0.0108
C 17.17756 25.50116 0.03698
C 17.18895 24.09455 -0.00109
C 18.42091 23.39033 -0.00491
C 18.44596 22.02746 0.03338
C 17.13912 21.2828 -0.0258
C 17.12358 19.9411 -0.0331
C 18.52741 4.89294 -0.00316
C 17.18023 4.48911 0.02188
C 17.20762 2.86668 -0.01979
C 18.31216 26.26162 -0.02213
C 18.47048 2.15103 0.02691
C 17.24447 34.05424 0.01452
C 19.65696 32.61232 0.04892
C 20.90714 31.89029 -0.00111
C 20.9704 30.48796 -0.03557
C 19.71191 29.819 0.03754
C 19.63051 28.37297 0.01739
C 20.84452 27.69242 0.00755
C 20.79279 26.29461 -0.0054
C 19.58981 25.579 0.00667
C 18.47413 0.67562 -0.01581
C 18.40833 27.65622 0.00028
C 17.15586 28.39305 -0.00289
C 17.26209 29.79425 -0.00066
C 15.94806 31.98419 -0.00368
C 16.06304 30.57055 -0.02696
C 14.80724 29.83233 -0.00114
C 14.76511 28.32684 0.00228
C 15.98126 27.62112 0.00798
C 15.9755 26.17507 0.00422
C 14.67672 25.57538 0.0351
C 14.72755 24.15742 -0.03113
C 15.96865 23.42966 0.02098
C 15.90651 22.01616 0.01848
C 14.76874 21.25121 -0.00619
C 14.80918 19.90974 -0.02162
C 15.9478 4.95486 0.00889
C 14.75339 4.1841 -0.00481
C 14.76442 2.79084 0.00979
C 16.0232 2.03271 0.01443
C 16.01183 0.63429 0.03505
C 14.75918 34.07401 -0.02815
C 17.21004 32.61092 -0.04147
C 18.45841 31.86963 -0.05302
C 18.48678 30.46844 0.00213
C 9.84424 29.89209 -0.02759
C 11.17137 30.56468 0.03589
C 11.06167 32.05269 -0.00033
C 9.83864 32.60361 -0.01062
C 2.43064 4.32745 -0.00518
C 2.41275 2.84839 0.0086
C 3.64917 2.16417 -0.00643
C 3.59981 0.67494 0.017
C 2.34772 0.00685 -0.03113
C 4.89583 32.69815 -0.02566
C 6.17226 32.09012 -0.00094
C 6.13297 30.60155 0.02322
C 4.92015 29.86815 -0.00725
C 3.63262 5.02983 -0.00074
C 5.01582 28.32148 -0.05697
C 6.08482 26.29836 -0.01343
C 4.91411 25.60019 0.00988
C 4.90371 24.21824 0.0276
C 6.09818 23.46847 0.01305
C 6.0372 22.01319 -0.00077
C 4.80934 21.29209 0.03368
C 4.89737 19.93016 -0.02929
C 6.19397 19.23513 -0.00966
C 6.19545 17.82103 -0.03337
C 6.1955 27.69249 0.01087
C 3.63196 6.49769 0.01465
C 2.45198 7.22193 -0.03996
C 2.40873 8.53693 0.01996
C 3.66602 30.49745 -0.03291
C 2.41185 29.79391 -0.04999
C 2.51519 28.37008 0.04505
C 3.70187 27.68479 0.03284
C 3.63631 26.31027 -0.04307
C 2.31691 25.53604 0.03189
C 2.40482 24.14416 0.00031
C 3.65895 23.50557 -0.003
C 3.63797 22.11686 0.01402
C 2.45191 21.34002 0.02379
C 2.49096 19.88531 0.00907
C 3.7456 19.21789 0.00643
C 3.7178 17.72968 -0.01509
C 2.46431 17.07632 0.03267
C 2.43529 15.64228 0.02374
C 3.64454 14.92271 0.00402
C 3.63147 13.52254 0.0073
C 2.43844 12.7462 0.0174
C 2.44082 11.34309 0.03828
C 3.71866 10.72023 0.01226
C 3.66265 9.28017 -0.00279
C 4.9622 17.0026 0.01227
C 19.63487 24.2116 0.00143
C 4.85711 15.5984 0.00873
C 6.08738 13.42199 0.00848
C 7.43107 19.93751 0.01745
C 8.63689 19.17485 0.00488
C 8.57875 17.60485 -0.01004
C 7.33288 16.90622 -0.02896
C 7.343 15.56201 -0.00131
C 8.61698 14.94805 -0.01118
C 8.74687 13.46266 -0.014
C 7.47403 12.71175 0.02147
C 7.40812 11.36399 0.00373
C 7.34149 21.40326 0.03693
C 8.68516 10.61831 -0.00191
C 7.45323 8.54178 0.01291
C 7.35271 7.1628 0.00093
C 8.54339 6.44112 0.00057
C 8.51102 5.02503 -0.01634
C 7.3042 4.32408 -0.00334
C 7.40207 2.86739 0.02339
C 8.59393 2.24884 0.01641
C 8.62951 0.74375 -0.00719
C 7.39069 0.0988 0.01364
C 8.65771 9.24081 0.00438
C 8.57875 22.13436 -0.01384
C 8.58637 23.58471 -0.00482
C 7.27537 24.19097 0.02888
C 4.89825 12.76494 -0.01303
C 4.93503 11.33179 -0.01378
C 6.17081 10.642 0.02635
C 6.1815 9.25539 0.0127
C 4.93716 8.57087 0.01396
C 4.87578 7.15525 0.01849
C 6.0558 6.45103 -0.01142
C 6.10108 5.03308 -0.00562
C 4.87563 4.26656 -0.00494
C 4.89324 2.87333 0.00054
C 6.12312 2.21147 0.03007
C 6.12232 0.75104 -0.00095
C 4.86448 0.02162 0.01572
C 7.41719 32.74239 -0.04848
C 8.57986 31.98886 -0.00892
C 8.60285 30.51371 -0.01362
C 7.38221 29.87148 -0.0008
C 7.39034 28.4666 0.0288
C 8.62889 27.7327 0.00393
C 8.54918 26.32808 0.00895
C 7.28558 25.58693 0.00685
C 6.12587 14.85091 -0.00049
C 20.85318 23.4851 -0.017
C 20.91095 22.03586 0.00364
C 19.62777 21.23296 -0.00831
C 30.70132 5.00521 0.07705
C 29.46235 4.28474 0.0103
C 29.48708 2.82973 0.02108
C 30.72281 2.22108 0.00716
C 30.69891 0.75414 0.00307
C 29.54329 0.02547 0.00346
C 31.88629 32.64763 0.01713
C 33.15551 32.02488 -0.01694
C 33.15134 30.53519 0.01428
C 30.72876 6.3974 0.01908
C 31.96181 29.74498 -0.02142
C 33.22886 27.66999 0.00026
C 33.18144 26.25896 0.00682
C 31.93543 25.61036 -0.01779
C 31.99456 24.18673 0.03794
C 33.22451 23.45254 0.01927
C 33.1976 22.03094 0.01574
C 31.99416 21.31474 -0.02383
C 32.00734 19.88061 -0.01429
C 33.18764 19.17999 -0.0136
C 31.97378 28.31993 0.0544
C 29.50368 7.11116 0.01518
C 29.48134 8.50012 -0.00971
C 30.72681 9.25654 -0.03735
C 30.72888 31.85678 0.04266
C 30.70077 30.44741 0.01324
C 29.54097 29.79913 0.0014
C 29.44945 28.35021 0.00924
C 30.69914 27.70997 0.02326
C 30.70878 26.25268 0.00261
C 29.50152 25.50248 0.03265
C 29.54482 24.15048 -0.02049
C 30.79075 23.45335 -0.01854
C 30.76537 21.99309 -0.01415
C 29.52185 21.25764 -0.03039
C 29.70124 19.91459 0.01836
C 30.89316 19.12804 0.03531
C 30.72944 17.71056 -0.00669
C 29.52363 17.03001 0.0101
C 29.45785 15.61938 0.01705
C 30.71565 14.94591 -0.0405
C 30.74432 13.56026 -0.01303
C 29.4494 12.8066 -0.01461
C 29.49937 11.41922 -0.02155
C 30.69253 10.69874 -0.00944
C 33.2212 17.6706 0.00594
C 29.48471 32.63703 0.01177
C 31.98258 16.96684 -0.02474
C 33.20057 14.89509 0.00455
C 34.33822 21.20288 -0.02213
C 34.43038 19.83181 0.01951
C 1.27605 19.20602 -0.01678
C 1.27429 17.84838 0.01223
C 0.01907 17.07035 0.00648
C 0.07522 15.71481 0.02114
C 1.27684 14.91483 -0.02957
C 1.24819 13.4704 0.00343
C 34.38716 12.80891 -0.02656
C 1.1898 21.92957 0.02712
C 0.00453 11.36952 -0.02442
C 1.11383 9.28766 -0.00583
C 34.36435 8.48932 -0.02302
C 34.35587 7.11275 -0.02849
C 1.17861 6.43143 0.02931
C 1.19447 5.0343 0.00628
C 34.42169 4.28011 -0.0345
C 34.39075 2.8363 -0.00931
C 1.21607 2.17506 -0.00939
C 1.16403 0.7452 -0.00468
C 1.1824 10.62996 -0.00027
C 1.09702 23.35614 0.00723
C 34.40947 24.12779 0.03076
C 34.40093 25.50157 -0.05239
C 33.22708 13.52176 -0.00644
C 31.99672 12.86095 -0.01839
C 31.959 11.50407 0.00137
C 33.1674 10.73029 0.00199
C 33.17669 9.25383 0.04381
C 31.97316 8.52657 0.02806
C 32.00247 7.08155 0.01504
C 33.2032 6.33731 -0.00069
C 33.19166 4.93761 0.04926
C 31.95054 4.26696 -0.03838
C 32.00922 2.82265 0.00349
C 33.17324 2.12689 -0.00323
C 33.12355 0.68886 -0.00841
C 31.92162 34.07804 0.0001
C 0.00559 32.65675 -0.02927
C 1.17186 31.88797 -0.01404
C 1.22696 30.50925 0.01027
C 34.3593 29.83084 0.01831
C 0.01995 28.3921 -0.01037
C 1.26579 27.72629 -0.00439
C 1.17763 26.23351 -0.00598
C 31.95883 15.60944 0.00369
C 3.6371 31.9331 0.02769
C 26.98966 34.03909 -0.00416
C 28.29232 2.09235 0.01799
C 22.15693 6.92741 0.01126
C 23.43197 6.40486 0.01852
C 23.36588 4.96069 -0.00381
C 22.08215 4.25029 0.03046
C 22.10596 2.84941 0.0296
C 23.35929 2.09702 0.03374
C 23.31365 0.71207 -0.02845
C 22.09171 34.07809 -0.03213
C 24.66768 32.58782 0.02239
C 23.30387 9.19472 -0.01185
C 25.85306 31.85204 0.01153
C 24.59573 29.83859 -0.0055
C 24.55952 28.39711 0.01515
C 25.75702 27.67489 -0.00225
C 25.80334 26.18038 0.00071
C 24.56606 25.52472 -0.01107
C 24.5776 24.10354 -0.01586
C 25.82012 23.36515 -0.01971
C 25.86669 21.94828 -0.02118
C 24.61134 21.38744 0.00733
C 25.88921 30.49995 0.02734
C 23.37151 17.74481 -0.01662
C 23.39794 19.10261 -0.00478
C 22.10062 19.83373 0.01511
C 19.85088 19.95862 -0.02957
C 20.94481 19.11197 -0.04422
C 21.00443 6.32803 0.00654
C 20.89258 5.00438 -0.00703
C 19.73388 4.28264 -0.04076
C 19.6734 2.81724 -0.00652
C 20.9511 2.13487 0.0058
C 20.84697 0.69599 -0.00865
C 19.61601 34.07691 0.00675
C 22.09746 32.62376 -0.00311
C 23.37636 31.93749 0.00742
C 23.39184 30.5442 -0.01594
C 22.18028 29.82813 0.0106
C 22.07752 28.32385 -0.01154
C 23.25462 27.6501 -0.01721
C 23.35122 26.24463 -0.02422
C 22.07358 25.66345 0.01277
C 22.1245 24.22949 0.00096
C 23.37409 23.4359 -0.01527
C 23.32284 22.07147 0.01087
C 22.07036 21.27189 0.00199
C 24.59858 19.93097 -0.00178
C 28.27596 0.70378 0.01699
C 25.84826 19.23195 0.00768
C 24.5179 17.01575 0.03005
C 28.2777 23.36127 -0.00037
C 28.36434 21.93923 -0.0032
C 27.06781 21.23465 0.00622
C 27.17156 19.91551 -0.02815
C 28.28762 19.16486 -0.00942
C 28.34067 17.78031 0.00487
C 27.08221 17.13652 0.00826
C 27.08107 15.72906 -0.00294
C 28.29796 14.90411 0.00152
C 27.12188 24.01395 -0.01654
C 28.2235 13.51685 0.01257
C 27.02789 11.3619 0.04185
C 28.21477 10.64597 0.00194
C 28.25199 9.22946 -0.00621
C 26.90127 8.53487 0.02611
C 27.04892 7.11165 0.02198
C 28.25789 6.46911 0.01094
C 28.23686 4.9759 0.00235
C 26.99673 4.24801 0.01495
C 27.0457 2.82022 0.01259
C 26.96974 12.78027 0.02316
C 27.03883 25.51776 -0.00218
C 28.2247 26.19369 -0.00802
C 28.20947 27.64809 0.00195
C 24.69883 15.6864 -0.04078
C 25.78338 14.91579 0.02117
C 25.71949 13.53084 0.02737
C 24.61782 12.67721 -0.00498
C 24.56351 11.32893 0.00135
C 25.75133 10.65533 0.03102
C 25.76036 9.29401 0.02555
C 24.44192 8.57794 0.01423
C 24.58676 7.07664 -0.00285
C 25.80384 6.39045 -0.009
C 25.77428 4.9744 -0.01199
C 24.57411 4.28075 -0.00229
C 24.60064 2.77633 -0.00938
C 25.79517 2.08603 -0.0264
C 25.75033 0.6743 -0.01154
C 24.52524 34.02384 0.00684
C 27.04358 32.66749 -0.01052
C 28.28588 31.92258 -0.01679
C 28.28811 30.48393 0.00367
C 27.09771 29.76062 0.04306
C 26.97494 28.2951 0.00996
C 25.82041 17.80558 -0.0276
C 2.43801 32.65181 0.01707
