386
Graphene
C 34.42471 34.07725 0.01295
C 14.714 19.89864 -0.0014
C 15.94576 19.17406 0.02162
C 15.98516 17.81871 0.0076
C 14.8369 17.09372 0.01241
C 14.78514 15.6523 -0.01454
C 16.0057 14.8903 0.01945
C 15.9451 13.43783 0.01416
C 14.70674 12.69875 0.03542
C 14.82533 11.28483 0.02299
C 15.98136 31.99491 0.00415
C 16.0653 10.67179 0.00244
C 16.07555 1.9705 0.05265
C 16.05152 0.66433 -0.01952
C 14.70768 0.08178 -0.02813
C 17.16473 32.63354 0.00374
C 18.41085 31.85954 0.00052
C 18.43667 30.49263 -0.03682
C 18.38719 21.90988 0.01965
C 17.3947 21.10986 0.02058
C 17.17473 19.84133 -0.01957
C 15.98695 9.3265 -0.01717
C 18.39625 19.21293 -0.0108
C 14.68186 32.56793 -0.02162
C 13.60271 0.78984 0.01877
C 11.05649 14.93699 0.00406
C 11.0398 13.54282 0.00943
C 9.80763 12.82792 0.02841
C 9.83185 11.32873 -0.01111
C 11.08445 10.7756 -0.01275
C 11.06126 0.70967 0.00985
C 9.88483 0.12564 -0.02245
C 12.3109 32.72343 -0.00428
C 13.40854 32.09418 0.03101
C 12.30172 0.31376 0.01363
C 12.14193 21.28797 -0.01536
C 13.5876 19.19662 -0.01046
C 13.59521 17.76242 -0.00891
C 12.36881 17.05858 0.02819
C 12.35017 15.62718 0.00165
C 13.5628 14.87805 -0.02971
C 13.4763 13.46861 0.02894
C 12.27431 12.7323 -0.01789
C 12.34871 11.205 0.00444
C 13.58283 10.61399 -0.00925
C 12.39024 19.87901 -0.02689
C 9.86618 15.63027 0.03592
C 18.416 17.72765 -0.00368
C 17.24553 15.67916 -0.00114
C 20.86658 23.35595 -0.00491
C 20.92235 21.94818 0.03338
C 19.60232 21.32659 -0.0258
C 19.62659 19.94555 -0.0331
C 20.95387 19.19679 -0.00316
C 20.91656 17.80077 0.02188
C 19.65033 17.14628 -0.01979
C 19.72894 15.62912 0.02691
C 20.92118 14.88776 -0.01581
C 19.76746 24.16632 -0.00109
C 20.87098 13.4682 0.01452
C 19.60676 11.33426 -0.00111
C 20.90882 10.61851 -0.03557
C 20.84207 9.1808 0.03754
C 19.63615 8.44368 0.01739
C 19.66539 7.06406 0.00755
C 20.85091 6.34244 -0.0054
C 20.85725 4.93254 0.00667
C 19.55685 4.32771 0.00143
C 19.52238 2.90206 -0.017
C 19.64898 12.78565 0.04892
C 17.1849 17.14282 -0.02696
C 19.83167 25.39339 0.03698
C 20.87491 27.69614 0.00028
C 18.49921 15.00691 0.00228
C 18.4653 13.59223 0.00798
C 17.25541 12.79785 0.00422
C 17.31841 11.41996 0.0351
C 18.46611 10.5932 -0.03113
C 18.43834 9.14311 0.02098
C 17.0368 8.49174 0.01848
C 17.32317 7.15536 -0.00619
C 18.41805 6.36896 -0.02162
C 20.84485 26.27624 -0.02213
C 18.3437 4.98651 0.00889
C 17.06594 2.90537 0.00979
C 18.3441 2.12479 0.01443
C 18.45749 0.73437 0.03505
C 17.27347 0.02481 -0.02815
C 19.63096 32.54401 -0.04147
C 20.892 31.86681 -0.05302
C 20.92903 30.43675 0.00213
C 19.57655 29.66643 -0.00066
C 19.70509 28.28097 -0.00289
C 17.26263 4.21773 -0.00481
C 9.93235 17.07033 0.00572
C 11.18653 17.72962 0.0402
C 11.13098 19.22553 -0.02759
C 3.63746 4.94771 0.017
C 2.3941 4.29283 -0.03113
C 2.49224 2.86802 -0.02566
C 3.6964 2.13091 -0.00094
C 3.67652 0.6769 0.02322
C 2.40227 0.00774 -0.00725
C 4.86813 32.627 -0.05697
C 6.1171 32.00553 0.01087
C 6.15241 30.60583 -0.01343
C 3.69723 6.38896 -0.00643
C 4.89975 29.88976 0.00988
C 6.15148 27.73208 0.01305
C 6.12373 26.33162 -0.00077
C 4.92838 25.59452 0.03368
C 4.83413 24.21329 -0.02929
C 6.09642 23.45959 -0.00966
C 6.08922 22.02136 -0.03337
C 4.8569 21.31601 0.01227
C 4.96488 19.85896 0.00873
C 6.25894 19.17821 -0.00049
C 4.92889 28.46099 0.0276
C 6.28698 17.79143 0.00848
C 2.39046 7.06327 0.0086
C 3.68638 9.21998 -0.00074
C 3.64491 30.5199 -0.04307
C 2.42101 29.8216 0.03189
C 2.39739 28.38299 0.00031
C 3.68886 27.68296 -0.003
C 3.62486 26.30736 0.01402
C 2.44738 25.53299 0.02379
C 2.35078 24.09806 0.00907
C 3.67745 23.48805 0.00643
C 3.61513 22.0048 -0.01509
C 2.42628 8.47079 -0.00518
C 2.4127 21.33332 0.03267
C 3.74155 19.13434 0.00402
C 3.75835 17.77777 0.0073
C 2.49946 17.06669 0.0174
C 2.48753 15.68374 0.03828
C 3.68245 14.99999 0.01226
C 3.68885 13.48221 -0.00279
C 2.40981 12.75541 0.01996
C 2.4391 11.31454 -0.03996
C 3.65078 10.61491 0.01465
C 2.54106 19.89186 0.02374
C 4.99726 17.09406 -0.01303
C 4.89289 15.67605 -0.01378
C 6.06026 14.92814 0.02635
C 8.69184 19.18909 -0.02896
C 8.70254 17.75973 -0.00131
C 7.49265 17.01581 -0.01118
C 7.36555 15.57282 -0.014
C 8.59139 14.89421 0.02147
C 8.54023 13.44568 0.00373
C 7.29793 12.78473 -0.00191
C 7.32748 11.358 0.00438
C 8.59278 10.73218 0.01291
C 7.50805 19.95122 -0.01004
C 8.59804 0.5777 0.00093
C 9.79845 32.69608 -0.01634
C 11.01686 32.04285 -0.00334
C 11.06901 30.67282 0.02339
C 9.95151 29.8015 0.01641
C 9.78794 28.45016 -0.00719
C 9.80613 24.30613 0.01364
C 11.12184 21.8726 -0.01062
C 9.86991 21.41161 -0.00033
C 9.91404 19.93743 0.03589
C 7.35894 0.11149 0.00057
C 7.3895 21.37519 0.00488
C 8.59066 22.17205 0.01745
C 8.63238 23.63016 0.03693
C 6.07406 13.49167 0.0127
C 4.85226 12.82595 0.01396
C 4.9023 11.37175 0.01849
C 6.0885 10.63156 -0.01142
C 6.1717 9.32476 -0.00562
C 5.03166 8.49761 -0.00494
C 4.80477 7.09455 0.00054
C 4.81171 4.33017 0.03007
C 4.95607 2.9861 -0.00095
C 6.01371 2.07462 0.01572
C 6.12648 0.74284 -0.04848
C 4.8287 34.05646 -0.00892
C 7.33345 32.75219 -0.01362
C 8.60095 32.01157 -0.0008
C 8.61335 30.64739 0.0288
C 7.38431 29.85495 0.00393
C 7.40575 28.44847 0.00895
C 8.71776 27.60263 0.00685
C 8.54669 26.24553 0.02888
C 7.30682 25.61547 -0.00482
C 7.30849 24.2025 -0.01384
C 20.76021 2.10766 0.00364
C 20.77991 0.69916 -0.00831
C 19.62511 34.02887 -0.02957
C 22.10253 32.64194 -0.04422
C 30.74644 4.96781 0.07705
C 29.51252 4.23881 0.0103
C 29.46865 2.81622 0.02108
C 30.70445 2.15677 0.00716
C 30.72452 0.77028 0.00307
C 29.53742 0.02648 0.00346
C 32.00187 32.75888 0.01713
C 33.17743 31.97571 -0.01694
C 33.1303 30.55714 0.01428
C 30.72275 6.34534 0.01908
C 31.92531 29.88844 -0.02142
C 33.26462 27.69253 0.00026
C 33.22966 26.29751 0.00682
C 31.98304 25.55283 -0.01779
C 31.93152 24.11913 0.03794
C 33.13394 23.45161 0.01927
C 33.17981 22.04064 0.01574
C 31.95153 21.31681 -0.02383
C 31.9687 19.89252 -0.01429
C 33.20908 19.12471 -0.0136
C 32.00845 28.43267 0.0544
C 33.22815 17.72699 0.00594
C 29.46248 7.06232 0.01518
C 30.67422 9.19718 -0.03735
C 30.68647 30.57256 0.01324
C 29.48746 29.81442 0.0014
C 29.52874 28.3382 0.00924
C 30.77821 27.65717 0.02326
C 30.77688 26.19681 0.00261
C 29.45978 25.53243 0.03265
C 29.4196 24.20745 -0.02049
C 30.69128 23.45917 -0.01854
C 30.77514 22.05104 -0.01415
C 29.4846 8.48734 -0.00971
C 29.48575 21.39008 -0.03039
C 30.76563 19.18199 0.03531
C 30.72407 17.76846 -0.00669
C 29.58404 16.98853 0.0101
C 29.56812 15.53646 0.01705
C 30.76883 14.88692 -0.0405
C 30.80451 13.48342 -0.01303
C 29.60372 12.75147 -0.01461
C 29.47738 11.33845 -0.02155
C 30.69213 10.70193 -0.00944
C 29.5555 19.94575 0.01836
C 32.00238 17.03143 -0.02474
C 31.98571 15.63057 0.00369
C 33.22571 14.88944 0.00455
C 34.40295 21.27542 -0.02213
C 0.01397 19.86432 0.01951
C 1.26222 19.14635 -0.01678
C 1.26918 17.78142 0.01223
C 0.02213 17.06167 0.00648
C 0.00216 15.58788 0.02114
C 1.25817 14.97324 -0.02957
C 1.20369 13.4866 0.00343
C 0.02218 12.77876 -0.02656
C 1.19686 21.9955 0.02712
C 0.00608 11.28162 -0.02442
C 1.15167 9.23292 -0.00583
C 34.38133 8.56186 -0.02302
C 34.38468 7.11033 -0.02849
C 1.19479 6.40031 0.02931
C 1.1772 4.94623 0.00628
C 34.38963 4.29936 -0.0345
C 34.4069 2.80872 -0.00931
C 1.22732 2.17684 -0.00939
C 1.19313 0.77445 -0.00468
C 1.22976 10.58207 -0.00027
C 1.1431 23.41618 0.00723
C 34.39002 24.15918 0.03076
C 34.39513 25.52106 -0.05239
C 33.17273 13.45605 -0.00644
C 31.98488 12.79055 -0.01839
C 31.93231 11.41465 0.00137
C 33.14789 10.71837 0.00199
C 33.16545 9.27668 0.04381
C 31.9285 8.57828 0.02806
C 31.94549 7.11552 0.01504
C 33.13858 6.39885 -0.00069
C 33.18512 4.9886 0.04926
C 31.95487 4.27044 -0.03838
C 31.94805 2.81268 0.00349
C 33.19613 2.15719 -0.00323
C 33.21897 0.76969 -0.00841
C 31.96335 0.07438 0.0001
C 0.013 32.64931 -0.02927
C 1.22368 31.89944 -0.01404
C 1.19465 30.51593 0.01027
C 34.38336 29.83094 0.01831
C 0.02187 28.39141 -0.01037
C 1.23557 27.68041 -0.00439
C 1.18511 26.21096 -0.00598
C 30.71789 32.04126 0.04266
C 3.65033 32.01923 0.03284
C 29.55828 32.68354 0.01177
C 28.29098 0.67595 0.01699
C 23.29128 6.39799 0.01852
C 23.28582 4.9693 -0.00381
C 22.08103 4.22493 0.03046
C 22.0527 2.78307 0.0296
C 23.37375 2.09981 0.03374
C 23.3491 0.70167 -0.02845
C 22.05642 0.05629 -0.03213
C 24.56086 32.64142 0.02239
C 25.75852 31.89113 0.01153
C 22.05821 7.12274 0.01126
C 25.79522 30.51787 0.02734
C 24.55259 28.30915 0.01515
C 25.82173 27.6383 -0.00225
C 25.83976 26.25142 0.00071
C 24.61879 25.57402 -0.01107
C 24.55491 24.15874 -0.01586
C 25.71495 23.39577 -0.01971
C 25.82335 21.95193 -0.02118
C 24.63648 21.23496 0.00733
C 24.68352 19.88854 -0.00178
C 24.53625 29.747 -0.0055
C 25.93587 19.18204 0.00768
C 22.0796 8.49251 -0.01185
C 23.32173 10.6161 -0.00478
C 23.35437 31.95931 0.00654
C 23.37659 30.5338 -0.00703
C 22.14696 29.7656 -0.04076
C 22.16646 28.32445 -0.00652
C 23.40423 27.56957 0.0058
C 23.39355 26.19564 -0.00865
C 22.07994 25.49251 0.00675
C 22.092 24.0766 -0.00311
C 23.29168 23.41292 0.00742
C 23.36955 9.16028 -0.01662
C 23.37264 22.041 -0.01594
C 22.18375 19.87247 -0.01154
C 23.42832 19.17536 -0.01721
C 23.38401 17.76857 -0.02422
C 22.13869 17.07222 0.01277
C 22.16057 15.61997 0.00096
C 23.43758 14.88846 -0.01527
C 23.39532 13.5107 0.01087
C 22.1536 12.79811 0.00199
C 22.13064 11.36361 0.01511
C 22.16992 21.29901 0.0106
C 25.78329 17.72509 -0.0276
C 24.56846 17.05367 0.03005
C 24.63038 15.64899 -0.04078
C 28.24068 22.03304 -0.0032
C 27.09776 21.34093 0.00622
C 27.14141 19.8722 -0.02815
C 28.37145 19.17587 -0.00942
C 28.30775 17.71607 0.00487
C 27.02235 17.05918 0.00826
C 27.03568 15.58195 -0.00294
C 28.33165 14.94025 0.00152
C 28.35316 13.47544 0.01257
C 28.15872 23.49952 -0.00037
C 27.18698 12.76037 0.02316
C 28.24793 10.62092 0.00194
C 28.23759 9.16973 -0.00621
C 26.98102 8.49165 0.02611
C 26.98992 7.08879 0.02198
C 28.2102 6.3665 0.01094
C 28.19669 4.93757 0.00235
C 27.0161 4.26721 0.01495
C 27.05725 2.84066 0.01259
C 28.28095 2.09749 0.01799
C 27.06866 11.3646 0.04185
C 26.91836 24.14873 -0.01654
C 27.02614 25.54165 -0.00218
C 28.23952 26.25052 -0.00802
C 25.85803 14.8692 0.02117
C 25.87914 13.43793 0.02737
C 24.5854 12.69304 -0.00498
C 24.56479 11.30213 0.00135
C 25.80641 10.71068 0.03102
C 25.79118 9.28835 0.02555
C 24.5894 8.49221 0.01423
C 24.56258 7.09875 -0.00285
C 25.77326 6.38149 -0.009
C 25.73692 4.96645 -0.01199
C 24.58506 4.22372 -0.00229
C 24.56434 2.81673 -0.00938
C 25.84387 2.13332 -0.0264
C 25.81523 0.73177 -0.01154
C 24.62457 0.02427 0.00684
C 27.02293 32.65604 -0.01052
C 28.24491 31.94246 -0.01679
C 28.27392 30.49098 0.00367
C 26.96867 29.78895 0.04306
C 27.01121 28.38446 0.00996
C 28.23433 27.66493 0.00195
C 27.05987 34.02355 -0.00416
C 2.40495 32.66459 0.04505
