303
Graphene
C 34.38687 0.01803 0.01295
C 10.03464 24.14933 0.01452
C 11.1647 23.36112 0.04892
C 11.04053 21.94892 -0.00111
C 9.7092 21.2702 -0.03557
C 9.2311 19.81498 0.03754
C 10.34947 19.02994 0.01739
C 11.30203 17.93089 0.00755
C 10.08652 2.5113 -0.0054
C 10.99841 0.96222 0.00667
C 10.01915 34.07481 0.00143
C 12.32935 32.7486 -0.017
C 13.60464 31.94868 0.00364
C 13.57389 30.53715 -0.00831
C 12.32448 29.80983 -0.02957
C 12.29256 28.50742 -0.04422
C 9.96333 25.60844 -0.01581
C 13.4523 27.67567 0.00654
C 11.23935 26.29241 0.02691
C 9.82421 28.29525 0.02188
C 8.22405 15.52046 -0.02815
C 8.24096 14.22402 -0.04147
C 7.49204 13.25038 -0.05302
C 7.42118 11.81002 0.00213
C 7.33134 8.49752 -0.00066
C 7.19576 7.19888 -0.00289
C 7.32004 4.16522 0.00028
C 7.49346 2.78821 -0.02213
C 8.74294 2.04325 0.03698
C 8.69192 0.59453 -0.00109
C 7.44267 34.04392 -0.00491
C 9.99775 32.66011 0.03338
C 11.13118 31.94768 -0.0258
C 11.043 30.48694 -0.0331
C 9.80342 29.83504 -0.00316
C 11.12751 27.69555 -0.01979
C 6.93232 16.16531 0.03505
C 13.70501 26.31671 -0.00703
C 12.50492 24.14381 -0.00652
C 18.52619 27.76375 0.01126
C 18.02158 0.5536 0.01852
C 16.84932 0.04277 -0.00381
C 19.44151 32.71139 0.03046
C 20.78024 31.97413 0.0296
C 20.71426 30.61071 0.03374
C 19.56741 29.78683 -0.02845
C 19.56111 28.38366 -0.03213
C 20.95605 2.16245 0.02239
C 20.68648 0.78045 0.01153
C 19.39288 0.04867 0.02734
C 22.01762 32.72444 -0.0055
C 23.20724 32.00946 0.01515
C 23.13112 30.58068 -0.00225
C 21.87596 29.90273 0.00071
C 17.1442 28.01607 -0.01185
C 12.49706 25.55067 -0.04076
C 17.13178 29.65089 -0.01662
C 18.24301 31.87876 0.01511
C 13.65078 23.5084 0.0058
C 12.14417 21.00405 -0.00865
C 11.66493 19.8685 0.00675
C 13.13675 17.3742 -0.00311
C 11.89034 16.81107 0.00742
C 12.0991 0.09835 -0.01594
C 14.80704 32.64043 0.0106
C 15.84882 31.86247 -0.01154
C 15.87617 30.43675 -0.01721
C 14.70601 29.72091 -0.02422
C 14.73272 28.34644 0.01277
C 15.87623 27.5783 0.00096
C 15.10338 26.00951 -0.01527
C 15.05991 33.97962 0.01087
C 17.02018 32.66031 0.00199
C 18.27373 30.42293 -0.00478
C 21.96178 28.36626 -0.01107
C 7.78692 19.74478 0.01443
C 8.62417 22.14353 -0.00481
C 3.69513 10.75715 0.00985
C 3.67391 9.38423 -0.02245
C 2.47577 8.63599 -0.00428
C 2.41439 7.18994 0.03101
C 3.65393 6.47272 -0.01536
C 3.69548 5.01081 -0.02689
C 2.50648 4.32056 -0.01046
C 2.43671 2.85776 -0.00891
C 3.61379 2.08545 0.02819
C 3.59639 0.68865 0.00165
C 2.38097 34.06934 -0.02971
C 4.88996 32.69824 0.02894
C 6.14801 31.98949 -0.01789
C 6.06856 30.57966 0.00444
C 4.83698 29.85216 -0.00925
C 2.35726 11.46006 -0.01275
C 4.82941 28.4725 0.01877
C 2.32582 12.89632 -0.01111
C 3.56837 15.07222 0.00943
C 3.67697 30.584 0.00057
C 2.39722 29.88584 -0.01634
C 2.38023 28.4311 -0.00334
C 3.6486 27.7582 0.02339
C 3.70466 26.20236 0.01641
C 2.42208 25.54606 -0.00719
C 2.47549 24.09476 0.01364
C 3.70341 23.32517 -0.01062
C 3.78726 21.91577 -0.00033
C 2.49006 21.32781 0.03589
C 2.56347 19.83977 -0.02759
C 3.91596 19.15541 0.0402
C 3.73828 17.7473 0.00572
C 2.47469 17.07904 0.03592
C 2.36997 15.74801 0.00406
C 3.57661 13.54809 0.02841
C 7.50376 21.26129 0.00979
C 6.013 27.63122 0.01363
C 4.88108 25.47128 0.00415
C 4.94002 4.20143 -0.01957
C 4.96532 2.84325 -0.0108
C 6.19326 2.08506 -0.00368
C 6.20279 0.64182 -0.02696
C 4.86009 34.0655 -0.00114
C 7.34948 32.67043 0.00228
C 8.62932 32.0109 0.00798
C 8.60057 30.4655 0.00422
C 7.36976 29.71864 0.0351
C 7.31554 28.31217 -0.03113
C 8.58625 27.61507 0.02098
C 8.60035 26.22644 0.01848
C 7.45695 25.53375 -0.00619
C 7.41128 24.14821 -0.02162
C 8.68926 23.54786 0.00889
C 6.15479 4.97438 0.02058
C 6.16238 26.21725 -0.02162
C 6.14887 6.40078 0.01965
C 5.00343 8.64715 0.00052
C 4.95373 24.05297 -0.0014
C 6.24766 23.36553 0.02162
C 6.30394 21.91048 0.0076
C 5.0373 21.19693 0.01241
C 5.24089 19.71332 -0.01454
C 6.57765 18.89934 0.01945
C 6.26024 17.53859 0.01416
C 4.92857 17.02054 0.03542
C 4.75824 15.63329 0.02299
C 5.95776 15.08498 0.00244
C 6.14005 13.69693 -0.01717
C 4.95102 12.86636 0.05265
C 4.98341 11.38949 -0.01952
C 6.32263 10.87892 -0.02813
C 6.28155 9.28508 0.00374
C 4.942 7.19056 -0.03682
C 3.67385 31.99108 0.00093
C 23.10223 27.89387 -0.01586
C 23.30855 6.46314 -0.02118
C 33.08462 21.96826 0.01574
C 31.79563 21.29342 -0.02383
C 31.90116 19.85614 -0.01429
C 33.12394 19.23536 -0.0136
C 33.18202 17.83564 0.00594
C 32.03268 17.09649 -0.02474
C 31.91653 15.69399 0.00369
C 33.15204 15.01387 0.00455
C 33.22632 13.56142 -0.00644
C 31.92096 12.85795 -0.01839
C 31.94675 11.40752 0.00137
C 33.14454 10.67291 0.00199
C 33.18905 9.25963 0.04381
C 31.90495 8.55072 0.02806
C 31.90627 7.07954 0.01504
C 33.06149 23.44993 0.01927
C 33.16692 6.39807 -0.00069
C 31.87056 24.13489 0.03794
C 33.07748 26.33205 0.00682
C 29.41802 8.57106 -0.00971
C 29.35124 7.11144 0.01518
C 30.58881 6.36288 0.01908
C 30.66153 5.00926 0.07705
C 29.42729 4.34908 0.0103
C 29.47304 2.81416 0.02108
C 30.69376 2.18575 0.00716
C 30.66965 0.79159 0.00307
C 29.381 0.05206 0.00346
C 31.93634 32.73718 0.01713
C 33.10817 32.00055 -0.01694
C 33.02685 30.56233 0.01428
C 31.81524 29.9411 -0.02142
C 31.8331 28.44801 0.0544
C 33.05585 27.77643 0.00026
C 31.89677 25.53026 -0.01779
C 30.70819 9.29106 -0.03735
C 33.18833 4.9955 0.04926
C 31.8984 2.86842 0.00349
C 34.37059 15.7387 0.02114
C 1.17707 15.00515 -0.02957
C 1.13933 13.60036 0.00343
C 34.35136 12.83081 -0.02656
C 34.33052 11.41477 -0.02442
C 1.16981 10.70973 -0.00027
C 1.15647 9.23501 -0.00583
C 34.40644 8.51202 -0.02302
C 0.03925 7.05445 -0.02849
C 1.21774 6.41661 0.02931
C 1.26829 4.96049 0.00628
C 0.03541 4.27153 -0.0345
C 0.00446 2.82295 -0.00931
C 1.17409 2.15096 -0.00939
C 1.1862 0.70154 -0.00468
C 0.02456 17.11591 0.00648
C 31.95998 4.28837 -0.03838
C 1.29388 17.79603 0.01223
C 0.01655 19.92932 0.01951
C 33.19878 2.17536 -0.00323
C 33.16133 0.74434 -0.00841
C 31.89807 0.06212 0.0001
C 34.37852 32.71933 -0.02927
C 1.19481 31.99961 -0.01404
C 1.14923 30.52602 0.01027
C 34.36701 29.82918 0.01831
C 34.31874 28.45199 -0.01037
C 1.1487 27.72779 -0.00439
C 1.14317 26.27381 -0.00598
C 34.30226 25.68193 -0.05239
C 34.36223 24.18696 0.03076
C 1.13241 23.38876 0.00723
C 1.15752 22.02348 0.02712
C 34.332 21.30092 -0.02213
C 1.28031 19.20806 -0.01678
C 23.75194 9.99548 -0.01971
C 30.79285 10.72474 -0.00944
C 29.49927 12.88256 -0.01461
C 25.67128 6.63319 -0.01154
C 25.64867 5.19724 0.00684
C 24.45836 4.35035 -0.01052
C 24.58017 2.95491 -0.01679
C 25.81746 2.16167 0.00367
C 25.76636 0.71997 0.04306
C 24.60781 34.03952 0.00996
C 26.93789 32.67624 0.00195
C 28.14048 32.00769 -0.00802
C 28.18575 30.58962 -0.00218
C 26.87671 29.79644 -0.01654
C 26.90531 28.36809 -0.00037
C 28.16034 27.67814 -0.0032
C 28.27855 26.23486 0.00622
C 27.0279 25.65569 -0.02815
C 24.37776 7.32181 -0.0264
C 28.15926 23.39062 -0.00942
C 24.55371 8.68471 -0.00938
C 25.95988 10.67293 -0.01199
C 23.34854 5.15908 0.00733
C 22.00422 2.83495 -0.00178
C 23.35782 2.19724 0.00768
C 23.26658 0.77383 -0.0276
C 22.00472 0.11037 0.03005
C 24.49535 32.62744 -0.04078
C 25.65092 31.96949 0.02117
C 25.60191 30.57727 0.02737
C 24.32425 29.81612 -0.00498
C 24.38843 28.34295 0.00135
C 25.66617 27.65524 0.03102
C 25.81075 26.00172 0.02555
C 25.87008 13.60174 0.01423
C 24.73033 12.61863 -0.00285
C 24.54225 11.27546 -0.009
C 25.84722 9.28703 -0.00229
C 29.50985 11.41776 -0.02155
C 28.08137 22.11349 0.00487
C 26.37033 14.95328 -0.00294
C 29.43407 28.42384 0.00924
C 30.62624 27.72539 0.02326
C 30.66403 26.26287 0.00261
C 29.46577 25.50908 0.03265
C 29.35298 24.1105 -0.02049
C 30.53343 23.40016 -0.01854
C 30.53166 21.96913 -0.01415
C 29.15253 21.2483 -0.03039
C 29.43118 19.87702 0.01836
C 30.64555 19.16935 0.03531
C 30.75398 17.73705 -0.00669
C 29.36889 17.26894 0.0101
C 29.22006 15.80945 0.01705
C 30.64174 15.0932 -0.0405
C 30.68491 13.63953 -0.01303
C 29.3609 29.88237 0.0014
C 28.57921 18.47485 0.00826
C 30.62376 30.62978 0.01324
C 29.37697 32.70817 0.01177
C 28.01907 14.93945 0.00152
C 28.31977 13.5921 0.01257
C 27.06462 12.80002 0.02316
C 27.04397 11.45514 0.04185
C 28.3441 10.74427 0.00194
C 28.24225 9.29013 -0.00621
C 27.03565 8.65366 0.02611
C 26.94198 7.26238 0.02198
C 28.12126 6.46283 0.01094
C 28.17959 5.06377 0.00235
C 26.8991 4.37304 0.01495
C 26.97035 2.86142 0.01259
C 28.23699 2.08865 0.01799
C 28.15276 0.71605 0.01699
C 26.96932 34.06431 -0.00416
C 30.58627 32.02258 0.04266
C 2.40453 32.64692 0.01291
