445
Graphene
C 0.01454 0.0168 0.01295
C 13.53839 14.90798 0.01291
C 13.52232 13.52826 0.00093
C 12.30321 12.79553 0.00057
C 12.31337 11.36568 -0.01634
C 13.57585 10.68715 -0.00334
C 13.55114 9.26137 0.02339
C 12.28232 8.52126 0.01641
C 12.30498 7.10556 -0.00719
C 13.5021 6.34971 0.01364
C 13.54415 4.99837 -0.01062
C 12.31854 4.28263 -0.00033
C 12.30304 2.82123 0.03589
C 13.54305 2.10747 -0.02759
C 13.55563 0.70726 0.0402
C 12.27154 0.03951 0.00572
C 14.73522 32.67294 0.03592
C 15.97407 31.92203 0.00406
C 15.94406 30.49811 0.00943
C 14.77735 29.79862 0.02841
C 14.71897 28.37971 -0.01111
C 15.97745 27.75273 -0.01275
C 15.99592 26.25026 0.00985
C 14.73857 25.59772 -0.02245
C 12.28809 15.64838 0.00438
C 12.3152 17.0894 -0.00191
C 13.54778 17.77237 0.00373
C 13.53197 19.18582 0.02147
C 11.08139 10.62008 -0.00494
C 11.07435 9.23191 0.00054
C 9.84702 8.49363 0.03007
C 9.85786 7.09589 -0.00095
C 11.04955 6.44691 0.01572
C 11.02265 4.96861 -0.04848
C 9.83846 4.28453 -0.00892
C 9.82477 2.80783 -0.01362
C 11.06349 2.15415 -0.0008
C 11.0942 0.72803 0.0288
C 9.89354 0.01715 0.00393
C 14.72502 24.12726 -0.00428
C 12.29813 32.69047 0.00895
C 13.54199 30.48677 0.02888
C 12.25783 29.8142 -0.00482
C 12.29016 28.36711 -0.01384
C 13.58037 27.68774 0.03693
C 13.51725 26.26207 0.01745
C 12.29424 25.57871 0.00488
C 12.23704 24.20088 -0.01004
C 13.50374 23.47918 -0.02896
C 13.52309 22.0031 -0.00131
C 12.3214 21.25874 -0.01118
C 12.28728 19.90962 -0.014
C 13.52599 31.95308 0.00685
C 15.9638 23.44084 0.03101
C 15.96327 22.00712 -0.01536
C 14.7584 21.28409 -0.02689
C 17.22573 24.1663 0.00052
C 18.4733 23.42349 -0.03682
C 18.4651 22.01547 0.01965
C 17.22746 21.26867 0.02058
C 17.22525 19.85669 -0.01957
C 18.41613 19.1761 -0.0108
C 18.4482 17.74208 -0.00368
C 17.23424 16.98543 -0.02696
C 17.22912 15.59267 -0.00114
C 18.43899 14.95073 0.00228
C 18.41828 13.47837 0.00798
C 17.20248 25.55162 0.00374
C 17.14525 12.83417 0.00422
C 18.42744 10.64525 -0.03113
C 18.4336 9.227 0.02098
C 17.2414 8.48043 0.01848
C 17.23361 7.10711 -0.00619
C 18.4453 6.42159 -0.02162
C 18.4414 5.00171 0.00889
C 17.21978 4.28274 -0.00481
C 17.19854 2.8374 0.00979
C 18.46374 2.12588 0.01443
C 18.41692 0.67645 0.03505
C 17.20203 34.07044 -0.02815
C 17.2494 11.35467 0.0351
C 9.81439 11.34409 -0.00562
C 18.41571 26.2639 -0.02813
C 17.21028 28.39751 0.05265
C 14.78006 19.89719 -0.01046
C 15.99479 19.16368 -0.00891
C 16.00703 17.75217 0.02819
C 14.78674 17.0461 0.00165
C 14.74602 15.63199 -0.02971
C 15.97786 14.87186 0.02894
C 15.95178 13.50101 -0.01789
C 14.755 12.76274 0.00444
C 14.72673 11.35158 -0.00925
C 16.00246 10.63875 0.01877
C 16.03511 9.23563 0.01363
C 18.41284 27.69664 -0.01952
C 14.7758 8.47689 -0.02162
C 15.9845 6.40419 -0.0014
C 15.98628 4.98645 0.02162
C 14.76508 4.26466 0.0076
C 14.75963 2.80235 0.01241
C 15.98479 2.11381 -0.01454
C 15.95775 0.73298 0.01945
C 14.72681 0.0315 0.01416
C 17.20306 32.66111 0.03542
C 18.48819 31.97984 0.02299
C 18.46927 30.49398 0.00244
C 17.23077 29.83993 -0.01717
C 14.73837 7.11543 0.00415
C 9.87274 12.79546 -0.01142
C 11.04419 13.55089 0.01849
C 11.0807 14.91787 0.01396
C 2.44528 34.05065 -0.01299
C 4.93369 32.64783 -0.00407
C 6.1564 31.95658 0.01138
C 6.21144 30.48602 0.03278
C 4.94102 29.81256 -0.00177
C 4.90305 28.39972 0.04421
C 6.19351 27.67545 0.00088
C 4.92925 24.14353 0.00828
C 6.09501 23.45563 -0.02375
C 6.15522 22.05138 0.00558
C 4.90934 21.31874 -0.0059
C 3.68707 0.69333 -0.0154
C 4.93499 19.87262 -0.01386
C 6.18751 17.74375 0.00081
C 4.90593 17.0114 0.00245
C 4.95066 15.61379 0.02728
C 6.0703 14.88966 -0.00039
C 6.11524 13.52102 0.0064
C 4.9051 12.78456 0.00211
C 4.92508 11.34695 -0.00449
C 6.18342 10.64465 -0.01979
C 6.12772 9.18619 0.02784
C 4.91193 8.5246 -0.01977
C 4.93265 7.11094 -0.00561
C 6.1369 19.17657 -0.02805
C 6.15438 6.39662 0.00208
C 3.67393 2.07096 0.00662
C 2.47272 4.22393 0.03345
C 3.69656 30.53135 -0.02419
C 2.47136 29.80256 -0.03951
C 2.46432 28.41893 -0.00141
C 3.68226 27.71544 -0.00374
C 2.43402 25.54169 -0.0213
C 2.5078 24.161 0.01116
C 3.74534 23.43819 -0.0005
C 3.68598 22.036 -0.00018
C 2.43137 21.22793 0.01073
C 2.45727 19.85595 0.01984
C 3.68385 19.17365 0.00535
C 2.44526 2.7713 0.00748
C 3.70681 17.749 -0.00198
C 2.45912 15.61706 -0.04306
C 3.66513 14.90221 -0.03672
C 3.7038 13.46696 0.01913
C 2.45233 12.79643 0.00267
C 2.45312 11.41322 0.00787
C 3.68728 10.65943 0.02426
C 3.6994 9.24158 0.01218
C 2.46305 8.5062 -0.01471
C 2.46223 7.11946 -0.02827
C 3.69392 6.39213 0.01078
C 3.6761 4.982 -0.00112
C 2.49004 17.07392 -0.00012
C 19.7016 32.71014 -0.04147
C 6.15734 4.9991 0.01707
C 4.97812 2.84235 -0.03291
C 8.60042 6.42626 -0.03113
C 8.60318 4.9929 -0.02566
C 7.37999 4.2721 -0.00094
C 7.32547 2.81715 0.02322
C 8.63018 2.12135 -0.00725
C 8.61279 0.71529 -0.05697
C 7.38795 0.00779 0.01087
C 9.82531 32.67428 -0.01343
C 11.0394 31.98569 0.00988
C 11.04875 30.5623 0.0276
C 9.80064 29.83411 0.01305
C 7.34783 7.14842 0.017
C 9.82601 28.40347 -0.00077
C 11.10405 26.2423 -0.02929
C 9.81819 25.59948 -0.00966
C 9.80137 24.14752 -0.03337
C 11.09328 23.46693 0.01227
C 11.11664 22.01081 0.00873
C 9.84618 21.30279 -0.00049
C 9.8018 19.87062 0.00848
C 11.10047 19.17614 -0.01303
C 11.05948 17.8074 -0.01378
C 9.80798 17.03431 0.02635
C 9.81962 15.6382 0.0127
C 11.05459 27.67324 0.03368
C 4.944 4.32932 0.02769
C 7.34294 8.51597 -0.00643
C 8.63129 10.67668 -0.00518
C 6.16594 2.10301 -0.04999
C 6.1606 0.69481 0.04505
C 4.90435 34.07213 0.03284
C 7.38584 32.64307 -0.04307
C 8.601 31.95307 0.03189
C 8.59928 30.5198 0.00031
C 7.36962 29.84593 -0.003
C 7.34306 28.40899 0.01402
C 8.57194 27.74307 0.02379
C 8.63628 26.30008 0.00907
C 7.38752 25.54624 0.00643
C 8.675 9.21951 0.0086
C 7.35009 24.16481 -0.01509
C 8.62585 22.0417 0.02374
C 7.4301 21.30216 0.00402
C 7.3782 19.87981 0.0073
C 8.59915 19.16347 0.0174
C 8.58111 17.75534 0.03828
C 7.42042 17.04837 0.01226
C 7.33013 15.61249 -0.00279
C 8.63928 14.89846 0.01996
C 8.61865 13.50126 -0.03996
C 7.38385 12.80236 0.01465
C 7.38052 11.33262 -0.00074
C 8.58982 23.42416 0.03267
C 3.72763 31.95152 0.02438
C 20.87952 31.95067 -0.05302
C 19.6496 29.82342 -0.00066
C 29.50079 15.59509 0.01705
C 30.75928 14.93889 -0.0405
C 30.73898 13.49837 -0.01303
C 29.50944 12.76093 -0.01461
C 29.55057 11.35496 -0.02155
C 30.75491 10.64507 -0.00944
C 30.77844 9.25727 -0.03735
C 29.49924 8.47737 -0.00971
C 29.53142 7.0997 0.01518
C 30.77612 6.39572 0.01908
C 30.73274 4.97403 0.07705
C 29.49872 4.23566 0.0103
C 29.52169 2.86211 0.02108
C 30.73629 2.11809 0.00716
C 30.76297 0.73161 0.00307
C 29.50743 34.0593 0.00346
C 31.97116 32.68173 0.01713
C 33.18747 31.96393 -0.01694
C 33.21178 30.5299 0.01428
C 31.98143 29.80014 -0.02142
C 32.02509 28.41998 0.0544
C 33.22938 27.70168 0.00026
C 33.17217 26.24727 0.00682
C 29.49834 17.05322 0.0101
C 30.75972 17.73696 -0.00669
C 30.75474 19.19152 0.03531
C 29.49736 19.81476 0.01836
C 27.04376 11.33182 0.04185
C 28.28611 10.64773 0.00194
C 28.32081 9.24224 -0.00621
C 27.0342 8.5133 0.02611
C 27.02384 7.10536 0.02198
C 28.29914 6.35711 0.01094
C 28.27621 4.96864 0.00235
C 27.03646 4.21957 0.01495
C 27.05899 2.8862 0.01259
C 28.29395 2.14351 0.01799
C 28.2777 0.69793 0.01699
C 31.96872 25.53975 -0.01779
C 27.03393 34.05057 -0.00416
C 30.7354 31.9388 0.04266
C 30.74063 30.54139 0.01324
C 29.53765 29.78285 0.0014
C 29.51997 28.3769 0.00924
C 30.74845 27.68826 0.02326
C 30.72239 26.2747 0.00261
C 29.5015 25.56868 0.03265
C 29.49711 24.09299 -0.02049
C 30.73493 23.44161 -0.01854
C 30.74112 22.05527 -0.01415
C 29.55997 21.31801 -0.03039
C 29.49359 32.65842 0.01177
C 31.96921 24.13636 0.03794
C 33.21176 23.41069 0.01927
C 33.20577 22.00178 0.01574
C 34.42144 25.62931 -0.05239
C 34.42581 24.11979 0.03076
C 1.22741 23.43424 0.00723
C 1.17738 22.01877 0.02712
C 34.42331 21.31042 -0.02213
C 0.01883 19.88852 0.01951
C 1.20768 19.15205 -0.01678
C 1.2052 17.73798 0.01223
C 0.01347 17.01158 0.00648
C 34.41427 15.58325 0.02114
C 1.20966 14.91794 -0.02957
C 1.26378 26.24851 -0.00598
C 1.23984 13.4983 0.00343
C 34.43221 11.38123 -0.02442
C 1.20615 10.67559 -0.00027
C 1.24549 9.19053 -0.00583
C 34.41389 8.51104 -0.02302
C 34.40845 7.09467 -0.02849
C 1.21737 6.36536 0.02931
C 1.24673 4.9335 0.00628
C 34.4299 4.24801 -0.0345
C 34.39985 2.82903 -0.00931
C 1.21982 2.13004 -0.00939
C 1.2562 0.67144 -0.00468
C 34.41613 12.75578 -0.02656
C 27.06206 12.75097 0.02316
C 1.24709 27.65565 -0.00439
C 34.36937 29.82097 0.01831
C 31.96962 21.27762 -0.02383
C 31.98578 19.88145 -0.01429
C 33.20844 19.16684 -0.0136
C 33.20321 17.73532 0.00594
C 32.00123 17.02643 -0.02474
C 32.01841 15.58685 0.00369
C 33.21053 14.88939 0.00455
C 33.24088 13.43792 -0.00644
C 31.93417 12.77039 -0.01839
C 31.95351 11.3512 0.00137
C 33.20921 10.61172 0.00199
C 0.05149 28.40265 -0.01037
C 33.16438 9.21735 0.04381
C 31.95126 7.11399 0.01504
C 33.20564 6.40026 -0.00069
C 33.2038 4.95937 0.04926
C 32.00126 4.27045 -0.03838
C 31.96209 2.86484 0.00349
C 33.19843 2.12718 -0.00323
C 33.22435 0.68065 -0.00841
C 32.00887 0.01169 0.0001
C 0.01083 32.67571 -0.02927
C 1.23432 31.98736 -0.01404
C 1.2532 30.48019 0.01027
C 31.97557 8.51149 0.02806
C 28.30981 13.5086 0.01257
C 28.26925 14.93082 0.00152
C 27.02407 15.63702 -0.00294
C 22.13352 32.68762 -0.04422
C 23.34767 31.99676 0.00654
C 23.34542 30.4939 -0.00703
C 22.17361 29.82543 -0.04076
C 22.16371 28.45017 -0.00652
C 23.37112 27.66015 0.0058
C 23.37461 26.2922 -0.00865
C 22.17746 25.56464 0.00675
C 22.15546 24.12667 -0.00311
C 23.33613 23.40416 0.00742
C 23.4047 21.98425 -0.01594
C 19.66867 0.0004 -0.02957
C 22.22696 21.30447 0.0106
C 23.33358 19.187 -0.01721
C 23.33828 17.74217 -0.02422
C 22.14288 17.01329 0.01277
C 22.05775 15.59926 0.00096
C 23.31109 14.92424 -0.01527
C 23.35645 13.45953 0.01087
C 22.12634 12.76062 0.00199
C 22.136 11.3288 0.01511
C 23.32006 10.62658 -0.00478
C 23.34794 9.23277 -0.01662
C 22.10454 8.52106 -0.01185
C 22.10807 19.88254 -0.01154
C 22.146 7.09077 0.01126
C 20.92232 0.72272 -0.00831
C 19.68024 2.82359 -0.017
C 19.66838 28.40752 -0.00289
C 20.95932 27.64591 0.00028
C 20.94038 26.26418 -0.02213
C 19.66674 25.55796 0.03698
C 19.67403 24.09338 -0.00109
C 20.94693 23.44566 -0.00491
C 20.89038 22.00854 0.03338
C 19.66506 21.26796 -0.0258
C 19.65939 19.84939 -0.0331
C 20.87299 19.21615 -0.00316
C 20.88184 17.76711 0.02188
C 20.91913 2.15636 0.00364
C 19.73159 17.05458 -0.01979
C 20.92507 14.91978 -0.01581
C 20.89967 13.49883 0.01452
C 19.66757 12.73199 0.04892
C 19.69717 11.38911 -0.00111
C 20.89711 10.63237 -0.03557
C 20.90812 9.22456 0.03754
C 19.67152 8.49213 0.01739
C 19.66194 7.07944 0.00755
C 20.90825 6.37552 -0.0054
C 20.90534 4.97533 0.00667
C 19.70052 4.23288 0.00143
C 19.67874 15.68332 0.02691
C 20.92212 30.53763 0.00213
C 23.32857 6.3637 0.01852
C 22.14487 4.22938 0.03046
C 24.60689 7.09179 -0.00285
C 25.83013 6.41901 -0.009
C 25.85167 4.9282 -0.01199
C 24.56021 4.25954 -0.00229
C 24.66646 2.86377 -0.00938
C 25.79366 2.16777 -0.0264
C 25.86433 0.73454 -0.01154
C 24.58899 0.02762 0.00684
C 27.04876 32.61212 -0.01052
C 28.32546 31.89949 -0.01679
C 28.24628 30.52309 0.00367
C 24.62415 8.52169 0.01423
C 27.06673 29.82315 0.04306
C 28.25773 27.70435 0.00195
C 28.28803 26.27793 -0.00802
C 27.03689 25.59485 -0.00218
C 27.06204 24.14354 -0.01654
C 28.25067 23.37088 -0.00037
C 28.29382 22.01829 -0.0032
C 27.0402 21.31398 0.00622
C 27.06626 19.88703 -0.02815
C 28.27562 19.10861 -0.00942
C 28.29094 17.73304 0.00487
C 27.03569 17.06985 0.00826
C 27.03276 28.40213 0.00996
C 23.36626 4.98037 -0.00381
C 25.81372 9.18899 0.02555
C 24.6065 11.36478 0.00135
C 22.15735 2.83351 0.0296
C 23.356 2.11128 0.03374
C 23.36943 0.68123 -0.02845
C 22.15265 34.07901 -0.03213
C 24.59799 32.70856 0.02239
C 25.85572 31.96347 0.01153
C 25.77051 30.49598 0.02734
C 24.55971 29.83405 -0.0055
C 24.57714 28.39195 0.01515
C 25.77489 27.6911 -0.00225
C 25.77195 26.30671 0.00071
C 25.82177 10.63693 0.03102
C 24.61099 25.58406 -0.01107
C 25.81276 23.43642 -0.01971
C 25.81564 22.02238 -0.02118
C 24.56651 21.29003 0.00733
C 24.60233 19.81229 -0.00178
C 25.79085 19.18157 0.00768
C 25.81341 17.80066 -0.0276
C 24.6159 17.05497 0.03005
C 24.60221 15.60188 -0.04078
C 25.83217 14.93678 0.02117
C 25.8385 13.48367 0.02737
C 24.6837 12.79334 -0.00498
C 24.63555 24.09196 -0.01586
C 2.49879 32.72306 0.00297
