436
Graphene
C 0.03666 0.0013 0.01295
C 13.60341 21.99852 0.02339
C 12.29231 21.38004 0.01641
C 12.27588 19.95603 -0.00719
C 13.55293 19.18505 0.01364
C 13.58382 17.76815 -0.01062
C 12.35023 17.07773 -0.00033
C 12.24601 15.58651 0.03589
C 13.49943 14.92092 -0.02759
C 12.21728 12.67083 0.0402
C 12.34217 11.34288 0.00572
C 13.60822 10.63789 0.03592
C 13.59353 9.21955 0.00406
C 12.35225 8.50795 0.00943
C 12.33872 7.07002 0.02841
C 13.51662 6.47791 -0.01111
C 13.52903 4.93534 -0.01275
C 12.2967 4.16554 0.00985
C 12.22645 2.76887 -0.02245
C 13.58868 2.05267 -0.00428
C 13.45952 0.67367 0.03101
C 12.261 0.05608 -0.01536
C 14.7526 32.63726 -0.02689
C 15.94393 31.98433 -0.01046
C 13.45321 23.48828 -0.00334
C 16.00038 30.58957 -0.00891
C 12.29826 24.18086 -0.01634
C 13.52192 26.30289 0.00093
C 9.83708 17.05995 -0.00892
C 9.8202 15.63987 -0.01362
C 11.04197 14.90921 -0.0008
C 11.1465 13.51931 0.0288
C 9.85432 12.88833 0.00393
C 9.81753 11.43554 0.00895
C 11.01624 10.69503 0.00685
C 11.09274 9.17532 0.02888
C 9.84459 8.50886 -0.00482
C 9.89446 7.13199 -0.01384
C 11.15238 6.34155 0.03693
C 11.0666 4.90291 0.01745
C 9.82057 4.26988 0.00488
C 9.83104 2.82192 -0.01004
C 10.97679 2.10438 -0.02896
C 11.08835 0.71639 -0.00131
C 9.93659 0.02933 -0.01118
C 12.30775 32.70792 -0.014
C 13.53774 32.00242 0.02147
C 13.48192 30.62931 0.00373
C 12.26258 29.85621 -0.00191
C 12.26911 28.3578 0.00438
C 13.54847 27.65931 0.01291
C 12.29675 25.65749 0.00057
C 14.76231 29.84248 0.02819
C 14.70995 28.41956 0.00165
C 15.9754 27.73428 -0.02971
C 17.20848 25.54642 -0.0108
C 17.27287 24.18353 -0.00368
C 18.45108 23.39744 -0.02696
C 18.44842 21.99029 -0.00114
C 17.2274 21.27846 0.00228
C 17.18537 19.84972 0.00798
C 18.38718 19.11741 0.00422
C 18.38217 17.69676 0.0351
C 17.2508 16.96522 -0.03113
C 18.51693 9.15691 0.02098
C 17.20647 8.6413 0.01848
C 17.13926 7.09569 -0.00619
C 18.37774 6.40655 -0.02162
C 18.35291 5.02149 0.00889
C 17.17311 4.30633 -0.00481
C 17.21961 2.86062 0.00979
C 18.48526 2.09339 0.01443
C 18.46672 0.71371 0.03505
C 17.22014 0.01795 -0.02815
C 19.67784 32.67973 -0.04147
C 20.935 31.96314 -0.05302
C 20.87297 30.56164 0.00213
C 19.67187 29.79734 -0.00066
C 18.42665 26.23773 -0.01957
C 18.44898 27.69428 0.02058
C 17.26983 28.4346 0.01965
C 17.19892 29.83455 -0.03682
C 15.94153 26.30744 0.02894
C 14.72724 25.57017 -0.01789
C 14.72471 24.16174 0.00444
C 15.93801 23.45643 -0.00925
C 16.00733 22.04171 0.01877
C 14.81354 21.26556 0.01363
C 14.74206 19.87008 -0.02162
C 15.98362 19.08238 0.00415
C 15.96165 17.669 -0.0014
C 14.7709 16.97694 0.02162
C 14.58141 15.53358 0.0076
C 11.12179 17.74526 -0.04848
C 16.0249 9.22418 0.01241
C 14.72845 7.126 0.01945
C 15.98136 6.35584 0.01416
C 15.95456 5.00474 0.03542
C 14.70984 4.28295 0.02299
C 14.77395 2.87523 0.00244
C 15.99869 2.06562 -0.01717
C 15.93645 0.70113 0.05265
C 14.70411 0.01298 -0.01952
C 17.20078 32.68681 -0.02813
C 18.43831 31.98771 0.00374
C 18.46406 30.59688 0.00052
C 14.80696 8.52614 -0.01454
C 19.71682 28.38618 -0.00289
C 11.11177 19.19285 0.01572
C 9.84763 21.31332 0.03007
C 3.65907 2.18841 -0.02375
C 3.70681 0.76669 0.00558
C 2.49135 34.0243 -0.0059
C 4.87322 32.66894 -0.01386
C 6.13867 31.9673 -0.02805
C 6.19706 30.48357 0.00081
C 4.98469 29.83754 0.00245
C 4.92525 28.4 0.02728
C 6.20847 27.62224 -0.00039
C 6.1739 26.23444 0.0064
C 4.85209 25.55321 0.00211
C 4.8839 24.19997 -0.00449
C 6.15201 23.44231 -0.01979
C 6.18093 21.97585 0.02784
C 4.92656 21.30229 -0.01977
C 4.94276 19.84673 -0.00561
C 6.12877 19.12895 0.00208
C 6.19136 17.72608 0.01707
C 4.82711 16.99204 0.02769
C 4.86362 15.70877 -0.03291
C 6.07119 14.95218 -0.04999
C 6.11157 13.52252 0.04505
C 4.96193 12.80995 0.03284
C 2.42277 2.79186 0.00828
C 4.96711 11.38323 -0.04307
C 2.49132 4.297 0.00088
C 3.68251 6.4353 -0.00177
C 3.6836 30.50956 0.01984
C 2.41185 29.74498 0.00535
C 2.4574 28.34781 -0.00198
C 3.73713 27.66041 -0.00012
C 3.68279 26.25649 -0.04306
C 2.47423 25.61889 -0.03672
C 2.46213 24.20149 0.01913
C 3.65055 23.47775 0.00267
C 3.7294 22.01005 0.00787
C 2.54499 21.3418 0.02426
C 2.4943 19.91444 0.01218
C 3.65265 19.06906 -0.01471
C 3.63624 17.67799 -0.02827
C 2.36612 17.0297 0.01078
C 2.38683 15.54291 -0.00112
C 3.68557 14.9006 0.03345
C 3.67511 13.50605 0.00748
C 2.43809 12.80613 0.00662
C 2.46129 11.30255 -0.0154
C 3.68257 10.68939 -0.01299
C 3.66205 9.29024 -0.00407
C 2.49216 8.53709 0.01138
C 2.417 7.08349 0.03278
C 3.68545 4.97501 0.04421
C 6.20246 10.68854 0.03189
C 6.13258 9.25787 0.00031
C 4.88721 8.56291 -0.003
C 7.40445 11.37589 -0.01343
C 8.63619 10.72237 0.00988
C 8.63616 9.29309 0.0276
C 7.39868 8.61169 0.01305
C 7.31546 7.21203 -0.00077
C 8.55925 6.45125 0.03368
C 8.57553 5.03334 -0.02929
C 7.30694 4.279 -0.00966
C 7.37778 2.87909 -0.03337
C 8.61043 2.12084 0.01227
C 8.64875 0.67185 0.00873
C 7.39331 0.05386 -0.00049
C 9.84338 32.71731 0.00848
C 11.0557 31.98204 -0.01303
C 10.99688 30.5355 -0.01378
C 9.76619 29.86883 0.02635
C 9.82732 28.38659 0.0127
C 11.08307 27.70638 0.01396
C 11.02734 26.31648 0.01849
C 9.8172 25.59815 -0.01142
C 9.9304 24.21383 -0.00562
C 11.09535 23.42295 -0.00494
C 11.04405 22.01555 0.00054
C 7.33001 12.76215 0.01087
C 8.60923 13.50756 -0.05697
C 8.52576 14.9726 -0.00725
C 7.29992 15.64621 0.02322
C 4.85323 7.13198 0.01402
C 6.08758 6.40246 0.02379
C 6.13045 5.01637 0.00907
C 4.87393 4.28877 0.00643
C 4.92491 2.90158 -0.01509
C 6.13596 2.13372 0.03267
C 6.15346 0.69756 0.02374
C 4.90849 0.02886 0.00402
C 7.39927 32.68223 0.0073
C 8.62775 32.00062 0.0174
C 8.58718 30.53146 0.03828
C 9.81933 19.89269 -0.00095
C 7.35729 29.79976 0.01226
C 8.54878 27.74923 0.01996
C 8.64643 26.29257 -0.03996
C 7.39847 25.50561 0.01465
C 7.44236 24.09552 -0.00074
C 8.64436 23.46479 -0.00518
C 8.61008 22.04272 0.0086
C 7.41295 21.31753 -0.00643
C 7.36941 19.85889 0.017
C 8.57824 19.17276 -0.03113
C 8.61126 17.78199 -0.02566
C 7.42902 17.07753 -0.00094
C 7.38617 28.31547 -0.00279
C 20.97376 27.67568 0.00028
C 20.92405 26.29387 -0.02213
C 19.67467 25.5801 0.03698
C 30.7575 14.85986 -0.0405
C 30.682 13.48404 -0.01303
C 29.56268 12.71124 -0.01461
C 29.47271 11.29997 -0.02155
C 30.69799 10.67034 -0.00944
C 30.70278 9.17887 -0.03735
C 29.473 8.55169 -0.00971
C 29.51668 7.12334 0.01518
C 30.74257 6.32344 0.01908
C 30.76007 4.95734 0.07705
C 29.5329 4.30002 0.0103
C 29.60099 2.79972 0.02108
C 30.76697 2.06391 0.00716
C 30.75752 0.67475 0.00307
C 29.53627 34.02763 0.00346
C 31.93574 32.62864 0.01713
C 33.19842 31.92696 -0.01694
C 33.20224 30.54507 0.01428
C 31.9634 29.84999 -0.02142
C 31.99364 28.4675 0.0544
C 33.21129 27.73181 0.00026
C 33.22477 26.35109 0.00682
C 31.93197 25.60648 -0.01779
C 29.5361 15.63115 0.01705
C 31.96336 24.14807 0.03794
C 29.58373 17.07302 0.0101
C 30.74497 19.17072 0.03531
C 28.24483 9.18464 -0.00621
C 27.01758 8.54156 0.02611
C 27.07719 7.13681 0.02198
C 28.3041 6.44619 0.01094
C 28.2156 4.88375 0.00235
C 26.99602 4.22306 0.01495
C 27.05813 2.81047 0.01259
C 28.36637 2.1223 0.01799
C 28.23989 0.65828 0.01699
C 26.99305 34.06338 -0.00416
C 29.52058 32.59269 0.01177
C 30.67306 31.91456 0.04266
C 30.74132 30.46565 0.01324
C 29.50404 29.87504 0.0014
C 29.53776 28.44858 0.00924
C 30.75052 27.70625 0.02326
C 30.71977 26.23681 0.00261
C 29.44862 25.50315 0.03265
C 29.45399 24.16111 -0.02049
C 30.74324 23.44273 -0.01854
C 30.81077 21.98124 -0.01415
C 29.5216 21.29103 -0.03039
C 29.45999 19.92104 0.01836
C 30.74951 17.7924 -0.00669
C 33.18994 23.50809 0.01927
C 33.17434 22.04769 0.01574
C 31.93677 21.29174 -0.02383
C 0.00427 24.20511 0.03076
C 1.24131 23.4572 0.00723
C 1.25395 22.01566 0.02712
C 34.4017 21.27641 -0.02213
C 34.38367 19.85608 0.01951
C 1.20494 19.22599 -0.01678
C 1.19849 17.83912 0.01223
C 34.42437 16.98449 0.00648
C 0.0056 15.56584 0.02114
C 1.16129 14.88348 -0.02957
C 1.22106 13.48507 0.00343
C 0.01208 12.78168 -0.02656
C 34.34747 11.28664 -0.02442
C 1.16798 10.6126 -0.00027
C 1.25513 9.23285 -0.00583
C 0.00845 8.46777 -0.02302
C 34.39449 7.08829 -0.02849
C 1.25924 6.35197 0.02931
C 1.26317 4.95016 0.00628
C 0.03364 4.253 -0.0345
C 0.00028 2.78635 -0.00931
C 1.2369 2.04187 -0.00939
C 1.22716 0.67921 -0.00468
C 34.39352 25.57434 -0.05239
C 1.22156 26.25719 -0.00598
C 1.27862 27.67534 -0.00439
C 0.01076 28.42244 -0.01037
C 31.88428 19.88235 -0.01429
C 33.10222 19.12983 -0.0136
C 33.20612 17.65902 0.00594
C 31.93685 17.01257 -0.02474
C 32.03323 15.6039 0.00369
C 33.22911 14.87246 0.00455
C 33.07768 13.46101 -0.00644
C 31.88596 12.69909 -0.01839
C 31.96322 11.33444 0.00137
C 33.17208 10.59683 0.00199
C 33.25348 9.15807 0.04381
C 28.31598 10.58798 0.00194
C 31.98208 8.51777 0.02806
C 33.16616 6.37832 -0.00069
C 33.23502 4.88886 0.04926
C 31.94346 4.23198 -0.03838
C 31.95366 2.80719 0.00349
C 33.25549 2.06033 -0.00323
C 33.28184 0.65255 -0.00841
C 31.95669 34.00533 0.0001
C 0.00321 32.65599 -0.02927
C 1.23916 31.92755 -0.01404
C 1.24317 30.51566 0.01027
C 0.05248 29.8549 0.01831
C 31.94623 7.07434 0.01504
C 27.07071 11.3607 0.04185
C 27.1235 12.78685 0.02316
C 28.35284 13.47979 0.01257
C 22.17562 28.43394 -0.00652
C 23.39167 27.71525 0.0058
C 23.41757 26.18483 -0.00865
C 22.12546 25.54686 0.00675
C 22.13654 24.14905 -0.00311
C 23.33399 23.48684 0.00742
C 23.3173 22.03751 -0.01594
C 22.11728 21.34186 0.0106
C 22.07156 19.91268 -0.01154
C 23.32486 19.16546 -0.01721
C 23.37601 17.78779 -0.02422
C 22.09215 17.10484 0.01277
C 22.12519 15.59504 0.00096
C 23.35489 14.93257 -0.01527
C 23.41229 13.51661 0.01087
C 22.20508 12.73836 0.00199
C 22.12878 11.33927 0.01511
C 23.40062 10.69894 -0.00478
C 23.42287 9.25117 -0.01662
C 22.25556 8.55273 -0.01185
C 22.11074 7.14596 0.01126
C 23.3486 6.33772 0.01852
C 23.34005 4.92705 -0.00381
C 22.00993 29.84568 -0.04076
C 23.26749 30.59263 -0.00703
C 23.31298 31.96772 0.00654
C 22.10628 32.68122 -0.04422
C 19.68059 24.11535 -0.00109
C 20.82698 23.36697 -0.00491
C 20.89643 21.98112 0.03338
C 19.62439 21.28536 -0.0258
C 19.57698 19.87299 -0.0331
C 20.84623 19.20331 -0.00316
C 20.90505 17.78538 0.02188
C 19.66108 17.01343 -0.01979
C 19.69402 15.62699 0.02691
C 20.87499 14.80376 -0.01581
C 20.93973 13.43703 0.01452
C 22.10902 4.241 0.03046
C 19.6981 12.69509 0.04892
C 20.9271 10.69935 -0.03557
C 20.94427 9.2303 0.03754
C 19.62322 8.46113 0.01739
C 19.65915 7.04615 0.00755
C 20.8843 6.44223 -0.0054
C 20.86416 4.99128 0.00667
C 19.63913 4.27883 0.00143
C 19.74756 2.88243 -0.017
C 20.94069 2.12879 0.00364
C 20.87761 0.74661 -0.00831
C 19.65968 34.05034 -0.02957
C 19.70636 11.47897 -0.00111
C 3.6981 31.93078 0.01073
C 22.12685 2.81939 0.0296
C 23.316 0.69844 -0.02845
C 24.60473 4.21268 -0.00229
C 24.5405 2.80656 -0.00938
C 25.85853 2.12934 -0.0264
C 25.81437 0.71124 -0.01154
C 24.60596 0.10018 0.00684
C 27.09405 32.67637 -0.01052
C 28.21459 31.93462 -0.01679
C 28.30547 30.50665 0.00367
C 27.05356 29.83954 0.04306
C 27.0801 28.47177 0.00996
C 28.30389 27.67362 0.00195
C 28.29844 26.23378 -0.00802
C 27.10361 25.5739 -0.00218
C 27.02176 24.21119 -0.01654
C 28.25318 23.45253 -0.00037
C 28.28813 22.02805 -0.0032
C 27.07825 21.26516 0.00622
C 27.0459 19.81333 -0.02815
C 28.23813 19.10358 -0.00942
C 28.33939 17.71876 0.00487
C 27.02898 17.03 0.00826
C 26.9606 15.62493 -0.00294
C 28.27016 14.93075 0.00152
C 25.75397 4.9856 -0.01199
C 25.84959 6.36275 -0.009
C 24.53337 7.00837 -0.00285
C 24.55339 8.47104 0.01423
C 22.10194 0.04995 -0.03213
C 24.61369 32.70894 0.02239
C 25.78963 31.86895 0.01153
C 25.86054 30.51832 0.02734
C 24.54261 29.89281 -0.0055
C 24.57035 28.4333 0.01515
C 25.81536 27.77034 -0.00225
C 25.85931 26.25452 0.00071
C 24.63691 25.51686 -0.01107
C 24.59865 24.11668 -0.01586
C 25.83081 23.43025 -0.01971
C 23.37273 2.09321 0.03374
C 25.86395 22.02732 -0.02118
C 24.5568 19.87889 -0.00178
C 25.83412 19.18949 0.00768
C 25.76651 17.73678 -0.0276
C 24.54016 17.08575 0.03005
C 24.55285 15.63849 -0.04078
C 25.72616 14.90125 0.02117
C 25.78793 13.50785 0.02737
C 24.59375 12.80747 -0.00498
C 24.6426 11.43927 0.00135
C 25.7974 10.65792 0.03102
C 25.82212 9.269 0.02555
C 24.58649 21.24606 0.00733
C 2.49705 32.59667 -0.00018
