345
Graphene
C 34.35017 34.06624 0.01295
C 14.78828 29.80458 0.02098
C 14.69618 28.4291 0.01848
C 15.99336 27.75795 -0.00619
C 16.04938 26.29781 -0.02162
C 14.90136 25.6098 0.00889
C 14.8134 24.2761 -0.00481
C 15.85256 23.41083 0.00979
C 15.98023 4.95383 0.01443
C 14.76827 4.07671 0.03505
C 14.77867 2.69669 -0.02815
C 16.05589 2.07318 -0.04147
C 16.0796 0.56944 -0.05302
C 14.79521 34.04933 0.00213
C 17.35042 32.60526 -0.00066
C 18.4285 31.88719 -0.00289
C 18.5056 30.46722 0.00028
C 17.28007 29.81679 -0.02213
C 15.97209 30.55314 -0.03113
C 16.10618 31.94866 0.0351
C 14.74786 32.66774 0.00422
C 12.3599 34.0414 0.00798
C 9.88411 2.82589 0.03542
C 11.10605 2.14438 0.02299
C 11.12266 0.70291 0.00244
C 9.89195 0.06656 -0.01717
C 12.31136 32.64522 0.05265
C 13.54814 32.05497 -0.01952
C 13.54319 30.65578 -0.02813
C 12.21571 29.96762 0.00374
C 17.27054 28.42503 0.03698
C 12.22889 28.55265 0.00052
C 13.73513 26.33582 0.01965
C 12.21878 23.44547 0.02058
C 13.37623 24.11205 -0.01957
C 13.54816 4.63117 -0.0108
C 12.21099 4.36455 -0.00368
C 12.35382 2.84012 -0.02696
C 13.57552 2.10038 -0.00114
C 13.53844 0.66402 0.00228
C 13.40642 27.73028 -0.03682
C 9.78653 4.27102 0.01416
C 18.46138 27.63099 -0.00109
C 17.20534 25.54293 0.03338
C 19.98271 6.93925 0.00654
C 21.31024 6.45569 -0.00703
C 20.87451 5.01367 -0.04076
C 19.60196 4.41754 -0.00652
C 19.6634 2.9585 0.0058
C 20.87596 2.20598 -0.00865
C 20.83994 0.7954 0.00675
C 19.68361 34.05831 -0.00311
C 22.11015 32.61666 0.00742
C 23.34035 31.85339 -0.01594
C 23.37811 30.44549 0.0106
C 22.10931 29.7459 -0.01154
C 22.08997 28.38395 -0.01721
C 23.3998 27.65146 -0.02422
C 23.36912 26.24034 0.01277
C 22.10937 25.51176 0.00096
C 22.01137 24.05382 -0.01527
C 19.44221 21.40433 -0.04422
C 20.84604 21.94546 -0.02957
C 20.76411 23.35759 -0.00831
C 19.59526 24.09307 0.00364
C 17.1173 24.18456 -0.0258
C 18.29899 23.44528 -0.0331
C 18.4511 21.99486 -0.00316
C 18.56481 6.59858 0.02188
C 18.40441 5.15922 -0.01979
C 17.233 4.38555 0.02691
C 17.24538 2.86799 -0.01581
C 18.46766 2.20486 0.01452
C 18.49562 26.19465 -0.00491
C 18.47836 0.75192 0.04892
C 19.63633 32.57122 -0.03557
C 20.87536 31.92775 0.03754
C 20.91211 30.51162 0.01739
C 19.71856 29.81456 0.00755
C 19.70319 28.41184 -0.0054
C 20.90493 27.60563 0.00667
C 20.88545 26.16871 0.00143
C 19.71116 25.48325 -0.017
C 17.26273 34.04632 -0.00111
C 10.96074 4.95799 0.01945
C 10.95453 24.28047 -0.01454
C 9.69459 24.15762 0.01241
C 2.51251 7.07274 0.00393
C 3.74897 6.49145 0.00895
C 3.74053 5.02255 0.00685
C 2.46631 4.26459 0.02888
C 2.49371 2.81153 -0.00482
C 3.70824 2.14762 -0.01384
C 3.6817 0.7354 0.03693
C 2.46816 0.06258 0.01745
C 4.88777 32.71029 0.00488
C 6.14548 31.98824 -0.01004
C 6.12245 30.61627 -0.02896
C 4.85949 29.87259 -0.00131
C 4.80378 28.46484 -0.01118
C 6.05751 27.67477 -0.014
C 6.11555 26.27655 0.02147
C 4.8766 25.54617 0.00373
C 4.80413 24.12804 -0.00191
C 2.47085 8.4667 0.0288
C 3.61306 9.18356 -0.0008
C 3.6003 10.53052 -0.01362
C 2.42869 11.37572 -0.00892
C 3.62824 30.58026 0.01227
C 2.34985 29.84669 0.00873
C 2.38337 28.44825 -0.00049
C 3.64076 27.66279 0.00848
C 3.63159 26.24357 -0.01303
C 2.37579 25.59352 -0.01378
C 2.36968 24.18562 0.02635
C 3.65322 23.37792 0.0127
C 6.08237 23.43264 0.00438
C 3.71144 22.00489 0.01396
C 2.43056 19.95425 -0.01142
C 3.59623 19.26658 -0.00562
C 3.57009 17.85837 -0.00494
C 2.48499 17.04356 0.00054
C 2.48275 15.56443 0.03007
C 3.72757 14.91877 -0.00095
C 3.73796 13.5596 0.01572
C 2.46945 12.8005 -0.04848
C 2.45359 21.33105 0.01849
C 6.12066 22.04383 0.01291
C 4.85171 21.23731 0.00093
C 4.94138 19.89838 0.00057
C 7.34199 25.47098 -0.01536
C 7.25272 24.02283 -0.02689
C 8.5102 23.40861 -0.01046
C 8.39107 21.95096 -0.00891
C 7.39223 21.38322 0.02819
C 7.21174 8.65335 0.00165
C 7.58344 7.21254 -0.02971
C 8.6025 6.3263 0.02894
C 8.54152 26.25573 0.03101
C 8.57751 5.00634 -0.01789
C 7.35046 2.96893 -0.00925
C 8.57255 2.15604 0.01877
C 8.60352 0.75283 0.01363
C 7.35688 0.01844 -0.02162
C 9.76227 32.70972 0.00415
C 11.0372 32.02848 -0.0014
C 10.98277 30.62725 0.02162
C 9.76211 29.91458 0.0076
C 7.31183 4.27891 0.00444
C 23.29324 23.42135 0.01087
C 8.53726 27.71348 -0.00428
C 7.35048 29.87181 0.00985
C 6.19604 19.10433 -0.01634
C 4.90161 17.11621 -0.00334
C 4.82414 15.92173 0.02339
C 5.00024 12.5952 0.01641
C 4.87876 11.35634 -0.00719
C 6.12889 9.23683 0.01364
C 4.89556 8.52032 -0.01062
C 5.01378 7.09309 -0.00033
C 7.35176 28.48475 -0.02245
C 6.25321 6.45269 0.03589
C 4.9581 4.3188 0.0402
C 4.91714 2.92291 0.00572
C 6.16945 2.14403 0.03592
C 6.0968 0.73324 0.00406
C 4.86893 0.0222 0.00943
C 7.39384 32.65099 0.02841
C 8.56813 32.03001 -0.01111
C 8.57852 30.64974 -0.01275
C 6.17046 5.05175 -0.02759
C 3.69789 31.96759 -0.03337
C 23.35973 22.01263 0.00199
C 22.17265 19.92738 -0.00478
C 31.99102 29.79631 -0.02142
C 31.96238 28.37385 0.0544
C 33.20404 27.68884 0.00026
C 33.16329 26.22369 0.00682
C 31.86096 25.50613 -0.01779
C 31.90374 24.14507 0.03794
C 33.21054 23.43231 0.01927
C 33.19075 22.02793 0.01574
C 31.93002 21.297 -0.02383
C 31.96793 19.86705 -0.01429
C 33.22817 19.2055 -0.0136
C 33.20604 17.75213 0.00594
C 31.95662 17.138 -0.02474
C 31.92199 15.67512 0.00369
C 33.22143 14.92977 0.00455
C 33.23699 13.53479 -0.00644
C 31.91849 12.79212 -0.01839
C 33.1241 30.55722 0.01428
C 33.15519 31.92571 -0.01694
C 31.97121 32.6987 0.01713
C 29.48554 9e-05 0.00346
C 30.7382 19.24463 0.03531
C 30.75169 17.81616 -0.00669
C 29.46703 17.16541 0.0101
C 29.43967 15.7359 0.01705
C 30.75871 14.93173 -0.0405
C 30.73798 13.53951 -0.01303
C 29.41231 12.80676 -0.01461
C 29.44619 11.36144 -0.02155
C 31.93163 11.35744 0.00137
C 30.67212 10.658 -0.00944
C 29.42627 8.58886 -0.00971
C 29.40543 7.10673 0.01518
C 30.72059 6.32869 0.01908
C 30.7515 4.91427 0.07705
C 29.5346 4.20769 0.0103
C 29.45738 2.77764 0.02108
C 30.71856 2.18097 0.00716
C 30.77094 0.76514 0.00307
C 30.67766 9.19549 -0.03735
C 29.49911 19.93828 0.01836
C 33.17298 10.67822 0.00199
C 32.01762 8.4469 0.02806
C 1.25595 17.69526 0.01223
C 34.37369 17.03563 0.00648
C 0.00936 15.58653 0.02114
C 1.2069 14.93808 -0.02957
C 1.259 13.47401 0.00343
C 34.42335 12.75288 -0.02656
C 34.41774 11.40323 -0.02442
C 1.21729 10.62096 -0.00027
C 1.25886 9.23055 -0.00583
C 0.00966 8.59482 -0.02302
C 0.04329 7.06105 -0.02849
C 1.29116 6.35246 0.02931
C 1.22282 4.9544 0.00628
C 0.00707 4.30351 -0.0345
C 0.00451 2.87854 -0.00931
C 1.21173 2.17043 -0.00939
C 1.15775 0.67025 -0.00468
C 1.13605 19.14235 -0.01678
C 34.38452 19.8904 0.01951
C 34.34505 21.33152 -0.02213
C 1.17753 21.98369 0.02712
C 32.01785 7.06791 0.01504
C 33.22786 6.32338 -0.00069
C 33.19711 4.96028 0.04926
C 31.93781 4.23954 -0.03838
C 31.99338 2.82326 0.00349
C 33.22941 2.14164 -0.00323
C 33.20067 0.72581 -0.00841
C 31.97128 34.06808 0.0001
C 33.17018 9.26048 0.04381
C 34.41914 32.68827 -0.02927
C 1.10528 30.56103 0.01027
C 34.34947 29.8675 0.01831
C 34.38928 28.33278 -0.01037
C 1.18601 27.69068 -0.00439
C 1.13916 26.30329 -0.00598
C 34.42396 25.55325 -0.05239
C 34.41084 24.11544 0.03076
C 1.19432 23.38362 0.00723
C 1.24158 31.96199 -0.01404
C 29.43702 21.31659 -0.03039
C 30.72787 21.93551 -0.01415
C 30.70164 23.46118 -0.01854
C 24.54037 21.26912 -0.00178
C 24.47393 19.84153 0.00768
C 25.77423 19.20961 -0.0276
C 25.82177 17.80397 0.03005
C 24.59422 17.12934 -0.04078
C 24.6134 15.72552 0.02117
C 25.81871 14.98287 0.02737
C 25.80343 13.59082 -0.00498
C 24.53281 12.75067 0.00135
C 24.53972 11.31527 0.03102
C 25.73397 10.5454 0.02555
C 25.82721 9.1661 0.01423
C 24.47257 7.14827 -0.00285
C 25.68005 6.40324 -0.009
C 25.76043 4.94148 -0.01199
C 24.52591 4.27793 -0.00229
C 24.54139 2.77322 -0.00938
C 25.74017 21.93752 0.00733
C 25.82716 23.41907 -0.02118
C 24.60902 24.18198 -0.01971
C 24.61927 25.51248 -0.01586
C 23.23149 19.04081 -0.01662
C 23.28778 17.60251 -0.01185
C 23.36208 14.96116 0.01126
C 23.36724 13.77163 0.01852
C 23.15441 6.38763 -0.00381
C 23.23453 5.01167 0.03046
C 22.05356 4.33081 0.0296
C 22.11031 2.91168 0.03374
C 25.78364 2.08303 -0.0264
C 23.35628 2.05936 -0.02845
C 22.05118 0.01128 0.02239
C 24.63073 32.62506 0.01153
C 25.81859 31.95379 0.02734
C 25.84455 30.50751 -0.0055
C 24.66315 29.79618 0.01515
C 24.66557 28.41445 -0.00225
C 25.88676 27.65235 0.00071
C 25.86612 26.22823 -0.01107
C 23.32803 0.66479 -0.03213
C 25.76789 0.6407 -0.01154
C 24.58954 33.98578 0.00684
C 27.05468 32.61335 -0.01052
C 26.98755 8.54856 0.02611
C 26.93018 7.09021 0.02198
C 28.20804 6.41173 0.01094
C 28.27326 4.9826 0.00235
C 27.01011 4.26521 0.01495
C 26.97235 2.85436 0.01259
C 28.18531 2.10325 0.01799
C 28.28837 0.65168 0.01699
C 28.2247 9.23709 -0.00621
C 27.0908 34.0404 -0.00416
C 30.73146 31.98668 0.04266
C 30.80254 30.51082 0.01324
C 29.48421 29.80213 0.0014
C 29.47018 28.41043 0.00924
C 30.76205 27.63348 0.02326
C 30.79293 26.25794 0.00261
C 29.48379 25.56468 0.03265
C 29.48619 24.1697 -0.02049
C 29.55087 32.65616 0.01177
C 22.11105 21.26904 0.01511
C 28.24855 10.6816 0.00194
C 26.94274 12.76163 0.02316
C 28.27447 31.93657 -0.01679
C 28.28786 30.43814 0.00367
C 27.05068 29.73658 0.04306
C 27.11326 28.34324 0.00996
C 28.2928 27.67686 0.00195
C 28.30614 26.2094 -0.00802
C 27.02781 25.56194 -0.00218
C 27.07218 24.14636 -0.01654
C 26.95103 11.36916 0.04185
C 28.25207 23.44535 -0.00037
C 26.99037 21.2915 0.00622
C 26.97253 19.90271 -0.02815
C 28.22956 19.16312 -0.00942
C 28.23566 17.82241 0.00487
C 27.01525 17.10588 0.00826
C 26.9812 15.63084 -0.00294
C 28.22345 15.04051 0.00152
C 28.20883 13.54985 0.01257
C 28.24671 22.00791 -0.0032
C 2.48581 32.65637 -0.00966
