348
Graphene
C 0.03161 34.04996 0.01295
C 13.57395 14.9026 0.00422
C 13.47776 13.51372 0.0351
C 12.25884 12.80732 -0.03113
C 12.35332 11.37525 0.02098
C 13.58887 10.7126 0.01848
C 13.45233 9.27428 -0.00619
C 12.24193 8.51828 -0.02162
C 12.29852 7.07121 0.00889
C 13.51985 6.34589 -0.00481
C 13.59449 4.90124 0.00979
C 12.31943 4.19402 0.01443
C 12.39922 2.84485 0.03505
C 13.649 2.1501 -0.02815
C 13.50056 0.7479 -0.04147
C 12.28946 0.08001 -0.05302
C 14.7774 32.69826 0.00213
C 15.97868 31.91995 -0.00066
C 12.32754 15.54076 0.00798
C 12.33456 16.91696 0.00228
C 13.55623 17.72651 -0.00114
C 13.52908 19.1562 -0.02696
C 11.09479 10.6765 -0.01454
C 10.99148 9.19565 0.01945
C 9.77939 8.55767 0.01416
C 9.86816 7.20461 0.03542
C 11.00849 6.42815 0.02299
C 11.12126 4.99641 0.00244
C 9.88431 4.28485 -0.01717
C 9.8133 2.87154 0.05265
C 16.00621 30.47356 -0.00289
C 11.10366 2.23036 -0.01952
C 9.86493 0.0639 0.00374
C 12.27422 32.7714 0.00052
C 13.47816 31.94649 -0.03682
C 13.59263 30.55045 0.01965
C 13.56585 23.39495 0.02058
C 13.50871 22.01843 -0.01957
C 12.3965 21.17522 -0.0108
C 12.31719 19.88425 -0.00368
C 11.07359 0.82153 -0.02813
C 14.66532 29.68887 0.00028
C 14.71382 28.27107 -0.02213
C 15.92101 27.64784 0.03698
C 14.81257 2.83807 -0.00831
C 16.06073 2.10704 -0.02957
C 16.00761 0.73166 -0.04422
C 14.8326 0.00182 0.00654
C 17.21436 32.64145 -0.00703
C 18.41109 31.93041 -0.04076
C 18.37515 30.49611 -0.00652
C 17.19399 29.80896 0.0058
C 14.81649 4.21835 0.00364
C 17.18135 28.43884 -0.00865
C 18.40842 26.30924 -0.00311
C 17.20742 25.58592 0.00742
C 17.22827 24.16873 -0.01594
C 18.45852 23.43222 0.0106
C 18.43293 21.9496 -0.01154
C 17.2233 21.29336 -0.01721
C 17.23196 19.91107 -0.02422
C 18.459 19.15021 0.01277
C 18.37541 27.7422 0.00675
C 9.84111 11.33683 0.01241
C 16.01146 4.94108 -0.017
C 14.69722 7.0737 0.00667
C 15.92743 26.25595 -0.00109
C 14.72083 25.65396 -0.00491
C 14.57801 24.26533 0.03338
C 15.96156 23.50982 -0.0258
C 15.98308 22.07534 -0.0331
C 14.82544 21.24588 -0.00316
C 14.75974 19.85504 0.02188
C 15.98832 19.18715 -0.01979
C 15.97158 6.40692 0.00143
C 15.9739 17.74778 0.02691
C 14.81543 15.60323 0.01452
C 16.00703 14.88332 0.04892
C 15.91425 13.414 -0.00111
C 14.69538 12.81555 -0.03557
C 14.77341 11.41038 0.03754
C 15.96765 10.63174 0.01739
C 15.94413 9.22447 0.00755
C 14.66699 8.52931 -0.0054
C 14.77613 17.05577 -0.01581
C 18.42863 17.78103 0.00096
C 9.81273 12.7638 0.0076
C 11.00322 14.84152 -0.0014
C 3.7068 6.37037 -0.01362
C 3.64676 4.91669 -0.0008
C 2.44074 4.17029 0.0288
C 2.43026 2.76942 0.00393
C 3.72274 2.13385 0.00895
C 3.76024 0.74389 0.00685
C 2.5454 0.04112 0.02888
C 4.9375 32.67535 -0.00482
C 6.03683 31.93856 -0.01384
C 4.99379 21.23569 0.03693
C 4.92501 19.92465 0.01745
C 6.14122 19.19439 0.00488
C 6.0942 17.83536 -0.01004
C 4.83321 17.02856 -0.02896
C 4.87295 15.63776 -0.00131
C 6.0714 14.9893 -0.01118
C 6.1326 13.4926 -0.014
C 2.43926 7.08095 -0.00892
C 2.49784 8.55388 -0.04848
C 3.68334 9.21574 0.01572
C 3.57802 10.63507 -0.00095
C 3.61477 30.6016 -0.02929
C 2.49253 29.86418 -0.00966
C 2.49979 28.38811 -0.03337
C 3.56056 27.57281 0.01227
C 2.36967 25.6509 0.00873
C 2.52312 24.23762 -0.00049
C 3.64665 23.45516 0.00848
C 3.8752 22.0717 -0.01303
C 4.87193 12.75793 0.02147
C 2.56933 21.27699 -0.01378
C 3.69301 19.13522 0.0127
C 3.63994 17.794 0.01396
C 2.37229 17.02531 0.01849
C 2.42822 15.62548 -0.01142
C 3.67045 14.94985 -0.00562
C 3.68527 13.52207 -0.00494
C 2.40106 12.74257 0.00054
C 2.41406 11.34827 0.03007
C 2.49256 19.90303 0.02635
C 4.83081 11.3891 0.00373
C 6.03291 10.69015 -0.00191
C 6.07121 9.33492 0.00438
C 8.51416 9.27261 -0.02245
C 7.32215 8.51082 -0.00428
C 7.41938 7.07827 0.03101
C 8.70493 6.45744 -0.01536
C 8.68978 5.02085 -0.02689
C 7.38911 4.28454 -0.01046
C 7.34367 2.8793 -0.00891
C 8.58066 2.15152 0.02819
C 8.55342 10.67571 0.00985
C 8.59478 0.66169 0.00165
C 9.78902 32.53481 0.02894
C 11.10561 32.05431 -0.01789
C 9.88536 21.3678 0.00444
C 9.87236 20.00224 -0.00925
C 11.07969 19.12281 0.01877
C 11.14351 17.71143 0.01363
C 9.88059 17.06558 -0.02162
C 9.8631 15.58181 0.00415
C 7.36743 0.01219 -0.02971
C 11.03003 13.45092 0.02162
C 7.34651 11.37043 -0.01275
C 8.61187 13.4835 0.02841
C 4.91662 8.5654 0.01291
C 4.87548 7.11511 0.00093
C 6.13241 6.41466 0.00057
C 6.14687 4.94922 -0.01634
C 4.89122 4.27004 -0.00334
C 4.91656 2.86008 0.02339
C 6.15141 2.15677 0.01641
C 6.14585 0.73002 -0.00719
C 7.36774 12.80039 -0.01111
C 4.97522 0.02917 0.01364
C 8.53107 32.14934 -0.00033
C 7.4486 21.32987 0.03589
C 7.35967 19.97915 -0.02759
C 8.60499 19.24147 0.0402
C 8.65035 17.85124 0.00572
C 7.40485 17.09601 0.03592
C 7.32461 15.71171 0.00406
C 8.53413 14.93159 0.00943
C 7.25402 32.54379 -0.01062
C 17.1978 16.99382 -0.01527
C 17.22601 15.60446 0.01087
C 18.47281 14.91929 0.00199
C 29.42915 2.87921 0.01428
C 30.7024 2.28585 -0.02142
C 30.69067 0.79805 0.0544
C 29.49986 0.03224 0.00026
C 31.94918 32.72562 0.00682
C 33.14722 31.95075 -0.01779
C 33.1813 30.49335 0.03794
C 31.98215 29.84312 0.01927
C 32.01389 28.46561 0.01574
C 33.2214 27.71711 -0.02383
C 33.20723 26.28915 -0.01429
C 31.947 25.56089 -0.0136
C 31.92499 24.15657 0.00594
C 33.10594 23.44428 -0.02474
C 33.11621 22.06719 0.00369
C 31.87866 21.31243 0.00455
C 31.82892 19.90407 -0.00644
C 29.5267 16.98282 -0.01694
C 30.71143 17.71487 0.01713
C 30.649 19.2014 0.00346
C 29.44653 19.96662 0.00307
C 28.24477 19.25863 0.01836
C 28.26164 17.56589 0.03531
C 26.99616 17.14351 -0.00669
C 28.42521 2.14934 0.0101
C 28.25065 0.78545 0.01705
C 27.10619 34.03462 -0.0405
C 29.45483 32.6632 -0.01303
C 30.72348 32.00507 -0.01461
C 33.15375 19.17169 -0.01839
C 30.75028 30.60531 -0.02155
C 29.587 28.34839 -0.03735
C 30.80968 27.69307 -0.00971
C 30.7557 26.27903 0.01518
C 29.49801 25.53596 0.01908
C 29.54926 24.20476 0.07705
C 30.68928 23.42921 0.0103
C 30.63301 22.00156 0.02108
C 29.45769 21.35022 0.00716
C 29.57153 29.83952 -0.00944
C 33.1787 17.7464 0.00137
C 31.939 17.01638 0.00199
C 32.03212 15.64508 0.04381
C 1.18792 19.18946 -0.01678
C 1.14214 17.81982 0.01223
C 34.42965 17.00283 0.00648
C 0.04734 15.62879 0.02114
C 1.26948 14.86948 -0.02957
C 1.20509 13.40083 0.00343
C 34.22596 12.77435 -0.02656
C 0.01276 11.30476 -0.02442
C 34.39358 19.94948 0.01951
C 1.1579 10.6177 -0.00027
C 0.11809 8.5163 -0.02302
C 34.36406 7.16091 -0.02849
C 1.27899 6.3458 0.02931
C 1.22412 4.92908 0.00628
C 34.42778 4.21015 -0.0345
C 34.41709 2.79518 -0.00931
C 1.23784 2.05509 -0.00939
C 1.25859 0.67675 -0.00468
C 1.22337 9.20708 -0.00583
C 27.04653 19.75049 -0.03039
C 34.43227 21.38919 -0.02213
C 1.19328 23.45697 0.00723
C 33.1606 14.93963 0.02806
C 33.1654 13.57526 0.01504
C 33.29095 6.37131 -0.00069
C 33.19715 5.04256 0.04926
C 32.04798 4.24159 -0.03838
C 31.98344 2.88099 0.00349
C 33.23392 2.14709 -0.00323
C 33.26293 0.73421 -0.00841
C 1.33966 22.0399 0.02712
C 31.97043 0.06013 0.0001
C 1.21952 31.91983 -0.01404
C 1.16621 30.53586 0.01027
C 0.00285 29.81197 0.01831
C 0.03068 28.40441 -0.01037
C 1.23606 27.68702 -0.00439
C 1.16343 26.21282 -0.00598
C 34.39111 25.49535 -0.05239
C 34.39096 24.10435 0.03076
C 34.41349 32.6201 -0.02927
C 27.01907 25.71068 -0.01415
C 28.24067 26.24957 -0.01854
C 28.31129 27.78723 -0.02049
C 19.65595 24.17222 -0.02118
C 20.87849 23.43424 0.00733
C 20.84837 22.04794 -0.00178
C 19.67111 21.24354 0.00768
C 19.6516 19.82788 -0.0276
C 20.90772 19.18405 0.03005
C 20.88843 17.79109 -0.04078
C 19.62352 17.04873 0.02117
C 19.60846 25.57938 -0.01971
C 19.68414 15.59162 0.02737
C 19.6261 12.71445 0.00135
C 19.61489 7.20526 0.03102
C 20.94181 4.92009 0.02555
C 19.73678 4.22982 0.01423
C 19.66254 2.80236 -0.00285
C 20.94387 2.17549 -0.009
C 20.84865 0.77497 -0.01199
C 19.64824 0.00693 -0.00229
C 20.93833 14.91049 -0.00498
C 22.13245 32.59863 -0.00938
C 20.87784 26.33024 -0.01586
C 19.68543 28.34672 0.00071
C 18.47319 13.42482 0.01511
C 17.13539 12.68713 -0.00478
C 17.23744 11.26436 -0.01662
C 18.46654 10.49961 -0.01185
C 18.39842 9.2566 0.01126
C 17.20353 8.51067 0.01852
C 17.20008 7.11142 -0.00381
C 18.53094 6.40158 0.03046
C 20.92424 27.75728 -0.01107
C 18.43885 4.90575 0.0296
C 17.24365 2.78464 -0.02845
C 18.45681 2.08791 -0.03213
C 18.39971 0.64245 0.02239
C 17.15719 34.0552 0.01153
C 19.682 32.72677 0.02734
C 20.89257 31.94656 -0.0055
C 20.83869 30.52583 0.01515
C 19.64306 29.79416 -0.00225
C 17.25843 4.18901 0.03374
C 3.76775 31.92992 0.03368
C 23.44851 31.95712 -0.0264
C 22.13354 29.87319 0.00684
C 25.83578 27.61286 -0.00621
C 25.7825 26.23555 0.02611
C 24.59333 25.45984 0.02198
C 24.68918 24.04351 0.01094
C 25.83572 23.33928 0.00235
C 24.58342 21.32709 0.01495
C 24.61215 19.89339 0.01259
C 25.89979 19.26783 0.01799
C 24.56068 28.40497 0.00194
C 25.7856 17.51891 0.01699
C 25.72382 2.09104 0.01177
C 25.87407 0.77964 0.04266
C 24.68767 34.05549 0.01324
C 27.11277 32.6418 0.0014
C 28.28665 31.92633 0.00924
C 28.3039 30.51246 0.02326
C 27.09999 29.81881 0.00261
C 27.03463 28.40264 0.03265
C 24.52241 17.04209 -0.00416
C 23.38529 30.51015 -0.01154
C 24.59881 29.81353 0.04185
C 25.83363 31.923 0.01257
C 22.19738 28.47147 -0.01052
C 23.3469 27.66101 -0.01679
C 23.38881 26.21336 0.00367
C 22.06565 25.55801 0.04306
C 22.09534 24.15906 0.00996
C 23.34843 23.46425 0.00195
C 23.37699 22.01875 -0.00802
C 22.08801 21.29528 -0.00218
C 25.87132 30.54953 0.02316
C 22.14564 19.90034 -0.01654
C 23.32046 17.73393 -0.0032
C 22.12092 17.06583 0.00622
C 22.00195 15.58776 -0.02815
C 22.26744 2.86362 -0.00942
C 23.36256 2.16395 0.00487
C 23.44737 0.67165 0.00826
C 22.13053 34.02341 -0.00294
C 24.68104 32.64905 0.00152
C 23.37454 19.22579 -0.00037
C 2.50465 32.67504 -0.00077
