436
Graphene
C 0.02158 0.02278 0.01295
C 13.58536 22.00562 0.02339
C 12.27431 21.37769 0.01641
C 12.30712 19.93395 -0.00719
C 13.55818 19.17473 0.01364
C 13.58167 17.8174 -0.01062
C 12.31986 17.07145 -0.00033
C 12.24047 15.59612 0.03589
C 13.48542 14.88301 -0.02759
C 13.50459 13.38083 0.0402
C 12.2878 12.76184 0.00572
C 12.33271 11.39866 0.03592
C 13.54662 10.62149 0.00406
C 13.56381 9.20725 0.00943
C 12.34068 8.50442 0.02841
C 12.27254 7.16952 -0.01111
C 13.56378 6.41311 -0.01275
C 12.29953 4.16301 0.00985
C 12.22935 2.8346 -0.02245
C 13.59499 0.63712 -0.00428
C 12.25273 34.07495 0.03101
C 14.72873 32.69155 -0.01536
C 15.98541 31.91223 -0.02689
C 15.97871 30.5865 -0.01046
C 13.46507 23.49708 -0.00334
C 14.80241 29.85557 -0.00891
C 12.31819 24.17057 -0.01634
C 13.55287 26.29017 0.00093
C 9.85192 17.04069 -0.00892
C 9.80725 15.63656 -0.01362
C 11.06004 14.91826 -0.0008
C 11.10027 13.52486 0.0288
C 9.85886 12.87923 0.00393
C 9.81989 11.39275 0.00895
C 11.04672 10.72643 0.00685
C 11.08578 9.16595 0.02888
C 9.84685 8.51011 -0.00482
C 9.86268 7.11236 -0.01384
C 11.14216 6.36857 0.03693
C 11.05272 4.89612 0.01745
C 9.81907 4.28811 0.00488
C 9.82675 2.81725 -0.01004
C 10.99466 2.13899 -0.02896
C 11.08882 0.71754 -0.00131
C 9.93847 0.00052 -0.01118
C 12.29295 32.68874 -0.014
C 13.53584 31.97949 0.02147
C 13.49934 30.62348 0.00373
C 12.28341 29.866 -0.00191
C 12.29581 28.34777 0.00438
C 13.53168 27.6621 0.01291
C 12.31151 25.62022 0.00057
C 14.76381 28.37962 0.02819
C 15.95674 27.70932 0.00165
C 15.97617 26.30367 -0.02971
C 18.45612 23.40973 -0.0108
C 18.5034 22.07025 -0.00368
C 17.22277 21.25207 -0.02696
C 17.23335 19.86902 -0.00114
C 18.45113 19.15783 0.00228
C 18.47219 17.70143 0.00798
C 17.14825 17.04954 0.00422
C 17.19467 15.58562 0.0351
C 18.46138 14.85315 -0.03113
C 18.46601 13.43953 0.02098
C 17.20643 12.80757 0.01848
C 17.17482 11.36275 -0.00619
C 18.41016 10.68206 -0.02162
C 18.37716 9.28248 0.00889
C 17.17911 8.55511 -0.00481
C 17.19727 7.10304 0.00979
C 18.45613 6.37616 0.01443
C 18.4269 0.67772 0.03505
C 17.2378 0.02567 -0.02815
C 19.68213 32.70202 -0.04147
C 20.94143 31.98106 -0.05302
C 20.89261 30.53864 0.00213
C 19.67352 29.77917 -0.00066
C 17.17828 24.10723 -0.01957
C 17.20872 25.54513 0.02058
C 18.49505 26.30116 0.01965
C 18.43167 27.70629 -0.03682
C 14.73131 25.57781 0.02894
C 14.7095 24.17361 -0.01789
C 15.96498 23.41526 0.00444
C 15.93171 22.00697 -0.00925
C 14.75814 21.3164 0.01877
C 14.81232 19.86391 0.01363
C 15.96647 19.14183 -0.02162
C 15.95223 17.69811 0.00415
C 14.71931 17.02426 -0.0014
C 14.7634 15.5969 0.02162
C 15.94651 14.87359 0.0076
C 11.07951 17.73282 -0.04848
C 16.03384 13.49059 0.01241
C 14.7175 11.40417 0.01945
C 15.99529 10.62767 0.01416
C 15.9529 9.26003 0.03542
C 14.76304 8.51834 0.02299
C 14.76252 7.13034 0.00244
C 14.75896 34.03037 -0.01717
C 17.19602 32.67476 0.05265
C 18.40975 31.96147 -0.01952
C 18.40515 30.51469 -0.02813
C 17.21286 29.82193 0.00374
C 17.2034 28.45111 0.00052
C 14.78213 12.72779 -0.01454
C 19.70049 28.4238 -0.00289
C 11.07802 19.19401 0.01572
C 9.84904 21.29536 0.03007
C 3.63132 2.21189 -0.02375
C 3.72275 0.73674 0.00558
C 2.45976 34.05536 -0.0059
C 4.90524 32.64304 -0.01386
C 6.11627 31.96571 -0.02805
C 6.19343 30.47744 0.00081
C 4.97915 29.83723 0.00245
C 4.90888 28.39823 0.02728
C 6.19536 27.66067 -0.00039
C 6.14919 26.24909 0.0064
C 4.8639 25.52717 0.00211
C 4.90412 24.20395 -0.00449
C 6.16052 23.42008 -0.01979
C 6.16639 21.98135 0.02784
C 4.88454 21.31595 -0.01977
C 4.95934 19.85399 -0.00561
C 6.13013 19.14048 0.00208
C 6.2006 17.74229 0.01707
C 4.84796 17.01596 0.02769
C 4.91902 15.68709 -0.03291
C 6.1139 14.93867 -0.04999
C 6.13393 13.49486 0.04505
C 4.95186 12.79679 0.03284
C 2.45067 2.78485 0.00828
C 4.94525 11.3585 -0.04307
C 2.48521 4.30039 0.00088
C 3.68358 6.4116 -0.00177
C 3.68285 30.51615 0.01984
C 2.42771 29.75985 0.00535
C 2.45537 28.3724 -0.00198
C 3.73375 27.71067 -0.00012
C 3.69646 26.23023 -0.04306
C 2.45951 25.5813 -0.03672
C 2.46408 24.20126 0.01913
C 3.65408 23.44813 0.00267
C 3.73186 22.02466 0.00787
C 2.50817 21.31212 0.02426
C 2.49956 19.93221 0.01218
C 3.65237 19.06277 -0.01471
C 3.65763 17.7198 -0.02827
C 2.41032 17.04675 0.01078
C 2.41119 15.54988 -0.00112
C 3.70949 14.8846 0.03345
C 3.68448 13.48475 0.00748
C 2.44197 12.78943 0.00662
C 2.46802 11.3014 -0.0154
C 3.66433 10.668 -0.01299
C 3.68949 9.26039 -0.00407
C 2.51094 8.53059 0.01138
C 2.46269 7.07507 0.03278
C 3.69078 4.97698 0.04421
C 6.17508 10.66722 0.03189
C 6.14034 9.23535 0.00031
C 4.88563 8.57089 -0.003
C 7.41195 11.34977 -0.01343
C 8.61616 10.70846 0.00988
C 8.5945 9.28329 0.0276
C 7.40355 8.58532 0.01305
C 7.32844 7.19635 -0.00077
C 8.57724 6.43795 0.03368
C 8.62358 4.98888 -0.02929
C 7.31983 4.27088 -0.00966
C 7.37227 2.87336 -0.03337
C 8.61597 2.12159 0.01227
C 8.65565 0.70233 0.00873
C 7.37535 0.03841 -0.00049
C 9.81597 32.69852 0.00848
C 11.08955 31.97012 -0.01303
C 11.01235 30.55042 -0.01378
C 9.8004 29.86085 0.02635
C 9.84053 28.38452 0.0127
C 11.09289 27.67996 0.01396
C 11.03191 26.33119 0.01849
C 9.83064 25.58895 -0.01142
C 9.89323 24.19013 -0.00562
C 11.0891 23.37292 -0.00494
C 11.06576 22.01616 0.00054
C 7.33128 12.78008 0.01087
C 8.61497 13.50101 -0.05697
C 8.5803 14.93425 -0.00725
C 7.29313 15.61281 0.02322
C 4.85367 7.12012 0.01402
C 6.10878 6.36998 0.02379
C 6.1574 5.03598 0.00907
C 4.87012 4.2721 0.00643
C 4.91493 2.8904 -0.01509
C 6.15073 2.10066 0.03267
C 6.16186 0.71275 0.02374
C 4.94095 0.02395 0.00402
C 7.41334 32.66612 0.0073
C 8.62478 31.997 0.0174
C 8.58582 30.5113 0.03828
C 9.82676 19.87757 -0.00095
C 7.36828 29.80716 0.01226
C 8.55377 27.75413 0.01996
C 8.65384 26.27798 -0.03996
C 7.3952 25.51714 0.01465
C 7.43389 24.10596 -0.00074
C 8.61971 23.45937 -0.00518
C 8.62728 22.03803 0.0086
C 7.39456 21.30952 -0.00643
C 7.36271 19.8855 0.017
C 8.60472 19.15389 -0.03113
C 8.5989 17.77798 -0.02566
C 7.41968 17.08193 -0.00094
C 7.35331 28.34519 -0.00279
C 20.97937 27.66287 0.00028
C 20.9378 26.28676 -0.02213
C 19.67672 25.598 0.03698
C 30.77681 14.86978 -0.0405
C 30.69419 13.50484 -0.01303
C 29.55592 12.73905 -0.01461
C 29.48609 11.31495 -0.02155
C 30.71606 10.66117 -0.00944
C 30.71184 9.21613 -0.03735
C 29.46895 8.55196 -0.00971
C 29.51298 7.1116 0.01518
C 30.75662 6.3459 0.01908
C 30.77501 4.96673 0.07705
C 29.50612 4.28939 0.0103
C 29.584 2.82612 0.02108
C 30.74722 2.05458 0.00716
C 30.75854 0.6968 0.00307
C 29.54796 34.03572 0.00346
C 31.92699 32.64153 0.01713
C 33.21355 31.92862 -0.01694
C 33.20415 30.53991 0.01428
C 31.96665 29.82526 -0.02142
C 32.01096 28.46019 0.0544
C 33.20038 27.7108 0.00026
C 33.22693 26.32872 0.00682
C 31.92982 25.58273 -0.01779
C 29.52565 15.61855 0.01705
C 31.97574 24.14173 0.03794
C 29.55446 17.07531 0.0101
C 30.76542 19.15712 0.03531
C 28.25482 9.19664 -0.00621
C 27.04936 8.55367 0.02611
C 27.06451 7.11905 0.02198
C 28.32641 6.43924 0.01094
C 28.24019 4.89342 0.00235
C 27.00948 4.22904 0.01495
C 27.05 2.83751 0.01259
C 28.35397 2.1235 0.01799
C 28.22772 0.66373 0.01699
C 27.00484 34.07469 -0.00416
C 29.49399 32.61149 0.01177
C 30.71497 31.92763 0.04266
C 30.7348 30.47071 0.01324
C 29.50945 29.86991 0.0014
C 29.52909 28.43042 0.00924
C 30.76337 27.67611 0.02326
C 30.72382 26.24221 0.00261
C 29.45946 25.50472 0.03265
C 29.45783 24.12226 -0.02049
C 30.75232 23.45699 -0.01854
C 30.793 21.98724 -0.01415
C 29.54503 21.30059 -0.03039
C 29.48071 19.90708 0.01836
C 30.75523 17.76519 -0.00669
C 33.20457 23.48227 0.01927
C 33.18781 22.02042 0.01574
C 31.96022 21.30113 -0.02383
C 34.42876 24.19283 0.03076
C 1.24184 23.45209 0.00723
C 1.23217 22.02473 0.02712
C 34.40425 21.27075 -0.02213
C 34.40756 19.87181 0.01951
C 1.22383 19.20502 -0.01678
C 1.20763 17.81884 0.01223
C 0.00113 16.97013 0.00648
C 34.429 15.5785 0.02114
C 1.17107 14.89494 -0.02957
C 1.23028 13.50948 0.00343
C 0.03612 12.76554 -0.02656
C 34.34943 11.30602 -0.02442
C 1.18041 10.65813 -0.00027
C 1.2539 9.23033 -0.00583
C 34.4195 8.47672 -0.02302
C 34.39797 7.11419 -0.02849
C 1.24966 6.3384 0.02931
C 1.23948 4.94607 0.00628
C 0.03161 4.24981 -0.0345
C 34.42369 2.80602 -0.00931
C 1.26375 2.07682 -0.00939
C 1.2322 0.69163 -0.00468
C 34.39612 25.5739 -0.05239
C 1.24037 26.26527 -0.00598
C 1.27852 27.65058 -0.00439
C 34.43231 28.4436 -0.01037
C 31.9002 19.88495 -0.01429
C 33.13389 19.15246 -0.0136
C 33.19428 17.68976 0.00594
C 31.94091 17.04717 -0.02474
C 32.03701 15.58999 0.00369
C 33.24147 14.8788 0.00455
C 33.12385 13.47927 -0.00644
C 31.89802 12.72202 -0.01839
C 31.97521 11.33296 0.00137
C 33.18249 10.62088 0.00199
C 33.22748 9.18695 0.04381
C 28.32964 10.60606 0.00194
C 32.00434 8.50861 0.02806
C 33.17819 6.39793 -0.00069
C 33.22897 4.90553 0.04926
C 31.94064 4.24055 -0.03838
C 31.95841 2.86905 0.00349
C 33.24431 2.06776 -0.00323
C 33.27606 0.6552 -0.00841
C 31.95221 34.03407 0.0001
C 34.42504 32.65022 -0.02927
C 1.24118 31.9576 -0.01404
C 1.23614 30.50624 0.01027
C 0.03821 29.838 0.01831
C 31.93363 7.09962 0.01504
C 27.06617 11.3624 0.04185
C 27.09254 12.76197 0.02316
C 28.34412 13.50121 0.01257
C 22.19312 28.44212 -0.00652
C 23.38161 27.71791 0.0058
C 23.40088 26.18992 -0.00865
C 22.13455 25.56211 0.00675
C 22.14967 24.15208 -0.00311
C 23.34478 23.48259 0.00742
C 23.34324 21.98971 -0.01594
C 22.14304 21.31599 0.0106
C 22.09038 19.91933 -0.01154
C 23.3395 19.15693 -0.01721
C 23.37427 17.77243 -0.02422
C 22.10849 17.08941 0.01277
C 22.11412 15.5658 0.00096
C 23.36587 14.95446 -0.01527
C 23.41393 13.48123 0.01087
C 22.19352 12.74033 0.00199
C 22.07411 11.31903 0.01511
C 23.39439 10.6833 -0.00478
C 23.35272 9.21485 -0.01662
C 22.25903 8.55141 -0.01185
C 22.12385 7.11546 0.01126
C 23.36262 6.34862 0.01852
C 23.36606 4.93762 -0.00381
C 22.05271 29.83063 -0.04076
C 23.28349 30.54151 -0.00703
C 23.32331 31.96958 0.00654
C 22.10422 32.67121 -0.04422
C 19.69672 24.08512 -0.00109
C 20.82011 23.36625 -0.00491
C 20.89304 21.9981 0.03338
C 19.64401 21.31401 -0.0258
C 19.62642 19.85465 -0.0331
C 20.85039 19.21152 -0.00316
C 20.90242 17.76856 0.02188
C 19.68795 17.02163 -0.01979
C 19.66802 15.63456 0.02691
C 20.91076 14.82547 -0.01581
C 20.93927 13.47637 0.01452
C 22.12329 4.22948 0.03046
C 19.68619 12.76894 0.04892
C 20.96642 10.70584 -0.03557
C 20.92906 9.23604 0.03754
C 19.63665 8.46211 0.01739
C 19.65732 7.06154 0.00755
C 20.91767 6.42618 -0.0054
C 20.85209 4.99496 0.00667
C 19.68783 4.2065 0.00143
C 19.7338 2.8944 -0.017
C 20.93494 2.16489 0.00364
C 20.90716 0.73504 -0.00831
C 19.65386 34.05344 -0.02957
C 19.68322 11.39996 -0.00111
C 3.69446 31.9416 0.01073
C 22.11987 2.82531 0.0296
C 23.33041 0.68512 -0.02845
C 24.58835 4.24571 -0.00229
C 24.57543 2.83926 -0.00938
C 25.83677 2.13795 -0.0264
C 25.85557 0.70386 -0.01154
C 24.58825 0.07528 0.00684
C 27.09658 32.66035 -0.01052
C 28.25357 31.93571 -0.01679
C 28.2978 30.5114 0.00367
C 27.06609 29.8476 0.04306
C 27.05975 28.45985 0.00996
C 28.30064 27.66762 0.00195
C 28.28265 26.23827 -0.00802
C 27.12574 25.58576 -0.00218
C 27.01783 24.2006 -0.01654
C 28.28428 23.43204 -0.00037
C 28.30612 22.04543 -0.0032
C 27.05374 21.2749 0.00622
C 27.05945 19.80383 -0.02815
C 28.23968 19.11971 -0.00942
C 28.32771 17.72688 0.00487
C 27.02824 17.02212 0.00826
C 26.98408 15.64771 -0.00294
C 28.27654 14.90289 0.00152
C 25.78423 4.96674 -0.01199
C 25.84972 6.37319 -0.009
C 24.54308 7.01185 -0.00285
C 24.5616 8.50502 0.01423
C 22.12066 0.02949 -0.03213
C 24.61691 32.74394 0.02239
C 25.81497 31.86032 0.01153
C 25.83375 30.51021 0.02734
C 24.56681 29.87039 -0.0055
C 24.57451 28.41378 0.01515
C 25.80656 27.75366 -0.00225
C 25.82761 26.26787 0.00071
C 24.61229 25.5193 -0.01107
C 24.60725 24.12063 -0.01586
C 25.82533 23.4399 -0.01971
C 23.36872 2.08635 0.03374
C 25.84611 22.02815 -0.02118
C 24.57405 19.85323 -0.00178
C 25.82053 19.19939 0.00768
C 25.78676 17.75176 -0.0276
C 24.54766 17.09312 0.03005
C 24.54858 15.59337 -0.04078
C 25.74391 14.90894 0.02117
C 25.79144 13.50844 0.02737
C 24.61044 12.80838 -0.00498
C 24.63556 11.44716 0.00135
C 25.80351 10.63093 0.03102
C 25.82377 9.24924 0.02555
C 24.57123 21.26417 0.00733
C 2.47657 32.60502 -0.00018
