378
Graphene
C 34.38677 34.06099 0.01295
C 12.2772 2.87942 0.01416
C 13.5516 2.14397 0.03542
C 13.55728 0.77518 0.02299
C 12.31497 0.01682 0.00244
C 14.69018 32.8028 -0.01717
C 15.86385 31.90572 0.05265
C 16.0 30.54184 -0.01952
C 14.59284 16.87742 -0.02813
C 14.85615 15.52102 0.00374
C 16.02543 14.82947 0.00052
C 16.02354 13.39624 -0.03682
C 14.77053 12.71954 0.01965
C 14.81089 11.32168 0.02058
C 16.00421 10.60802 -0.01957
C 15.91529 9.13663 -0.0108
C 14.72405 8.42906 -0.00368
C 14.72475 7.05498 -0.02696
C 15.97564 6.34173 -0.00114
C 15.91922 4.96392 0.00228
C 12.26717 4.29907 0.01945
C 13.50474 4.95696 -0.01454
C 13.46161 6.41283 0.01241
C 12.25704 7.09822 0.0076
C 11.02807 6.40689 -0.02245
C 11.06907 5.03161 -0.00428
C 9.84851 4.31604 0.03101
C 9.83106 2.82156 -0.01536
C 11.0481 2.0721 -0.02689
C 11.07545 0.64862 -0.01046
C 9.83204 34.00719 -0.00891
C 12.58374 32.67462 0.02819
C 12.44973 21.52818 0.00165
C 14.66616 4.27139 0.00798
C 12.11294 20.25006 -0.02971
C 12.37696 17.1371 -0.01789
C 12.36992 15.60666 0.00444
C 13.53784 14.7888 -0.00925
C 13.51871 13.40409 0.01877
C 12.3088 12.84328 0.01363
C 12.37413 11.31745 -0.02162
C 13.56566 10.61573 0.00415
C 13.54271 9.19084 -0.0014
C 12.26207 8.54758 0.02162
C 13.63113 17.61071 0.02894
C 9.79549 7.13528 0.00985
C 14.71142 2.91333 0.00422
C 15.99356 0.78079 -0.03113
C 19.66851 32.69788 0.02188
C 20.92082 31.9157 -0.01979
C 20.9571 30.49705 0.02691
C 19.67451 29.79705 -0.01581
C 19.6452 28.429 0.01452
C 20.87603 27.71594 0.04892
C 20.59826 26.30482 -0.00111
C 19.64585 15.43869 -0.03557
C 20.96934 14.96376 0.03754
C 20.94044 13.55162 0.01739
C 19.69786 12.75564 0.00755
C 19.70222 11.33078 -0.0054
C 20.84482 10.61012 0.00667
C 20.88269 9.16104 0.00143
C 19.6168 8.42715 -0.017
C 19.62739 7.05425 0.00364
C 20.8619 6.34698 -0.00831
C 20.85035 4.91904 -0.02957
C 19.6284 4.23048 -0.04422
C 17.18869 0.09786 -0.00316
C 18.40452 0.73803 -0.0331
C 18.42347 2.12767 -0.0258
C 17.16377 2.88336 0.03338
C 14.75152 0.14392 0.02098
C 17.13859 32.72181 0.01848
C 18.41208 32.02061 -0.00619
C 18.43987 30.58674 -0.02162
C 17.11899 29.7881 0.00889
C 17.38619 28.42459 -0.00481
C 18.42681 27.59927 0.00979
C 18.64257 26.13138 0.01443
C 17.17777 15.61712 0.03505
C 15.97408 2.18666 0.0351
C 18.40159 15.0057 -0.02815
C 17.26959 12.76416 -0.05302
C 17.27985 11.31782 0.00213
C 18.4826 10.61459 -0.00066
C 18.39722 9.19449 -0.00289
C 17.16794 8.42615 0.00028
C 17.16881 7.02723 -0.02213
C 18.39443 6.38777 0.03698
C 18.43238 4.95542 -0.00109
C 17.18291 4.28388 -0.00491
C 18.51031 13.50653 -0.04147
C 9.80972 8.6048 -0.01275
C 11.02657 9.26308 -0.01111
C 11.09401 10.66774 0.02841
C 3.69716 4.95068 -0.01343
C 2.41386 4.25055 0.00988
C 2.35498 2.83924 0.0276
C 3.62253 2.14178 0.01305
C 3.63112 0.73381 -0.00077
C 2.40489 0.0213 0.03368
C 4.88428 32.69953 -0.02929
C 6.10775 32.03417 -0.00966
C 6.23528 30.61385 -0.03337
C 4.97942 29.83875 0.01227
C 4.90304 28.45653 0.00873
C 6.10265 27.75719 -0.00049
C 6.13245 26.39121 0.00848
C 4.93723 25.62824 -0.01303
C 4.82894 24.21528 -0.01378
C 6.10654 23.49285 0.02635
C 6.07785 22.10114 0.0127
C 4.89212 21.3131 0.01396
C 4.92336 19.93728 0.01849
C 3.66627 6.43791 0.01087
C 2.36934 7.16965 -0.05697
C 2.39586 8.56003 -0.00725
C 3.64756 9.31864 0.02322
C 3.66593 30.5232 -0.01509
C 2.43641 29.86771 0.03267
C 2.47754 28.48047 0.02374
C 3.69786 27.71938 0.00402
C 3.71806 26.36856 0.0073
C 2.51226 25.6662 0.0174
C 2.44914 24.16709 0.03828
C 3.6302 23.3607 0.01226
C 3.58616 21.9908 -0.00279
C 6.15714 19.23546 -0.01142
C 2.41818 21.35975 0.01996
C 3.70033 19.16615 0.01465
C 3.6978 17.75298 -0.00074
C 2.45199 17.10134 -0.00518
C 2.51405 15.71029 0.0086
C 3.72249 14.9782 -0.00643
C 3.70509 13.58418 0.017
C 2.47843 12.7795 -0.03113
C 2.445 11.392 -0.02566
C 3.67513 10.7879 -0.00094
C 2.38982 19.90757 -0.03996
C 6.12191 17.80804 -0.00562
C 4.91327 17.06994 -0.00494
C 4.97778 15.69164 0.00054
C 8.55643 9.28366 -0.00191
C 7.33299 8.54802 0.00438
C 7.30581 7.17616 0.01291
C 8.51536 6.47045 0.00093
C 8.58549 4.98337 0.00057
C 7.4028 4.25319 -0.01634
C 7.38721 2.88422 -0.00334
C 8.6333 2.14841 0.02339
C 8.5945 0.67776 0.01641
C 8.6677 10.71149 0.00373
C 7.33186 0.02072 -0.00719
C 9.62258 21.21824 -0.01062
C 9.93559 19.93927 -0.00033
C 11.11566 19.34765 0.03589
C 11.17913 17.77733 -0.02759
C 9.97338 17.02196 0.0402
C 11.0532 15.02787 0.00572
C 10.99694 13.62867 0.03592
C 9.81879 12.7757 0.00406
C 9.88394 11.33501 0.00943
C 9.67169 32.66419 0.01364
C 19.63911 2.84438 0.00654
C 7.44677 11.4389 0.02147
C 8.6846 17.65753 -0.01118
C 5.04813 12.89653 0.03007
C 4.92151 11.45301 -0.00095
C 6.14752 10.7844 0.01572
C 6.10921 9.35396 -0.04848
C 4.93457 8.64205 -0.00892
C 4.91957 7.15287 -0.01362
C 6.166 6.44066 -0.0008
C 6.1628 5.00316 0.0288
C 4.94108 4.33992 0.00393
C 7.36876 17.10707 -0.014
C 4.87383 2.87554 0.00895
C 6.07124 0.71674 0.02888
C 4.85833 0.0469 -0.00482
C 7.32424 32.63174 -0.01384
C 8.52201 31.94629 0.03693
C 7.41415 29.85503 0.01745
C 8.57023 22.10885 0.00488
C 7.32783 21.44232 -0.01004
C 7.3752 19.9425 -0.02896
C 8.67459 19.28934 -0.00131
C 6.05538 2.17157 0.00685
C 20.82946 2.09087 -0.00703
C 20.80736 0.72575 -0.04076
C 19.61829 0.05365 -0.00652
C 29.46122 2.8701 0.02108
C 30.64681 2.1604 0.00716
C 30.67569 0.76459 0.00307
C 29.46705 0.01301 0.00346
C 31.95123 32.64335 0.01713
C 33.2005 31.97943 -0.01694
C 33.17103 30.60197 0.01428
C 31.94728 29.84949 -0.02142
C 31.92634 28.44257 0.0544
C 33.13317 27.76644 0.00026
C 33.21903 26.29215 0.00682
C 32.02289 25.6024 -0.01779
C 31.93836 24.19933 0.03794
C 33.19329 23.52306 0.01927
C 33.12434 22.05729 0.01574
C 31.9324 21.28384 -0.02383
C 31.99151 19.87298 -0.01429
C 33.18528 19.15677 -0.0136
C 33.16876 17.72314 0.00594
C 29.52022 4.24281 0.0103
C 30.77339 4.96486 0.07705
C 30.69606 6.40213 0.01908
C 29.48002 7.09302 0.01518
C 29.49825 28.36808 0.00924
C 30.71274 27.6637 0.02326
C 30.79055 26.35702 0.00261
C 29.57027 25.63748 0.03265
C 29.56045 24.11041 -0.02049
C 30.74808 23.3604 -0.01854
C 30.69312 21.9686 -0.01415
C 29.53795 21.30385 -0.03039
C 29.48872 19.86228 0.01836
C 31.95329 17.03421 -0.02474
C 30.76999 19.1296 0.03531
C 29.44484 17.08685 0.0101
C 29.4731 15.61745 0.01705
C 30.69228 14.87872 -0.0405
C 30.77712 13.48667 -0.01303
C 29.54699 12.76917 -0.01461
C 29.49899 11.30614 -0.02155
C 30.73127 10.58337 -0.00944
C 30.72712 9.25258 -0.03735
C 29.47667 8.49355 -0.00971
C 30.70786 17.73879 -0.00669
C 31.92019 15.56714 0.00369
C 33.18692 14.94118 0.00455
C 33.27753 13.51801 -0.00644
C 34.34795 21.3834 -0.02213
C 34.35227 19.90939 0.01951
C 1.16405 19.19967 -0.01678
C 1.17622 17.75663 0.01223
C 0.00405 17.00137 0.00648
C 0.00295 15.67272 0.02114
C 1.25798 14.97969 -0.02957
C 1.25886 13.57493 0.00343
C 0.03863 12.80924 -0.02656
C 1.1364 22.13489 0.02712
C 0.03906 11.41276 -0.02442
C 1.19666 9.24476 -0.00583
C 34.41815 8.49649 -0.02302
C 34.42579 7.1443 -0.02849
C 1.19094 6.38287 0.02931
C 1.19853 4.95298 0.00628
C 34.397 4.20119 -0.0345
C 34.33712 2.84912 -0.00931
C 1.17154 2.11921 -0.00939
C 1.18946 0.70221 -0.00468
C 1.24488 10.69464 -0.00027
C 29.49156 29.8051 0.0014
C 1.22128 23.48325 0.00723
C 0.03446 25.62756 -0.05239
C 32.0193 12.79783 -0.01839
C 31.96819 11.33257 0.00137
C 33.25055 10.66455 0.00199
C 33.22552 9.20076 0.04381
C 31.99294 8.45768 0.02806
C 31.9229 7.0508 0.01504
C 33.22328 6.37458 -0.00069
C 33.17991 4.90791 0.04926
C 31.94313 4.19158 -0.03838
C 34.42212 24.19424 0.03076
C 31.8506 2.8564 0.00349
C 33.12741 0.68278 -0.00841
C 31.91343 0.01837 0.0001
C 34.36898 32.6447 -0.02927
C 1.16951 31.95104 -0.01404
C 1.21045 30.55109 0.01027
C 34.41513 29.86686 0.01831
C 34.40479 28.4564 -0.01037
C 1.24365 27.68507 -0.00439
C 1.27599 26.34022 -0.00598
C 33.06913 2.14367 -0.00323
C 3.65652 31.93349 0.00643
C 30.68459 30.54445 0.01324
C 29.42839 32.6585 0.01177
C 23.29399 2.06901 0.03374
C 23.33878 0.62376 -0.02845
C 22.02639 34.0107 -0.03213
C 24.62381 32.63024 0.02239
C 25.89146 31.97169 0.01153
C 25.83935 30.54738 0.02734
C 24.65907 29.7793 -0.0055
C 24.63534 28.31446 0.01515
C 25.83763 27.55815 -0.00225
C 25.84925 26.19538 0.00071
C 24.5878 25.50684 -0.01107
C 24.6646 24.08908 -0.01586
C 25.8636 23.40878 -0.01971
C 25.80252 21.99214 -0.02118
C 24.57951 21.21466 0.00733
C 24.5201 19.78811 -0.00178
C 25.71548 19.1891 0.00768
C 25.66548 17.79786 -0.0276
C 24.48554 16.9675 0.03005
C 22.05842 2.81182 0.0296
C 22.05542 4.18359 0.03046
C 23.40551 4.86893 -0.00381
C 23.2994 6.36907 0.01852
C 22.1117 32.58855 0.0058
C 23.36358 31.86696 -0.00865
C 23.44047 30.47116 0.00675
C 22.1601 29.75602 -0.00311
C 22.15622 28.3376 0.00742
C 23.38572 27.60037 -0.01594
C 23.27915 26.24706 0.0106
C 21.92001 25.58718 -0.01154
C 22.1305 24.19775 -0.01721
C 24.59329 15.57645 -0.04078
C 23.22489 23.43355 -0.02422
C 22.24476 15.63254 0.00096
C 23.46782 14.84163 -0.01527
C 23.37728 13.38656 0.01087
C 22.12072 12.77888 0.00199
C 22.07107 11.31876 0.01511
C 23.35552 10.6031 -0.00478
C 23.32504 9.18369 -0.01662
C 22.04702 8.50114 -0.01185
C 22.068 7.08225 0.01126
C 23.55189 22.06773 0.01277
C 25.81678 14.86196 0.02117
C 25.79563 13.46737 0.02737
C 24.58033 12.73555 -0.00498
C 26.93866 19.8446 -0.02815
C 28.21986 19.2171 -0.00942
C 28.23752 17.80144 0.00487
C 26.95217 17.05186 0.00826
C 27.04359 15.62025 -0.00294
C 28.27947 14.90983 0.00152
C 28.32997 13.49153 0.01257
C 27.07752 12.7459 0.02316
C 27.03529 11.37596 0.04185
C 27.00571 21.29978 0.00622
C 28.24029 10.61601 0.00194
C 26.98669 8.51548 0.02611
C 26.95986 7.09813 0.02198
C 28.26676 6.43518 0.01094
C 28.31915 5.0127 0.00235
C 26.97163 4.28179 0.01495
C 26.99438 2.84727 0.01259
C 28.23878 2.16049 0.01799
C 28.24677 0.75846 0.01699
C 27.05059 0.01883 -0.00416
C 28.24386 9.20751 -0.00621
C 30.78401 31.93446 0.04266
C 28.34463 22.01871 -0.0032
C 27.07346 24.09524 -0.01654
C 24.60936 11.31625 0.00135
C 25.81714 10.63064 0.03102
C 25.74714 9.19323 0.02555
C 24.58233 8.4977 0.01423
C 24.57254 7.0614 -0.00285
C 25.76007 6.34931 -0.009
C 25.7743 4.90562 -0.01199
C 24.52931 4.1653 -0.00229
C 24.55552 2.81303 -0.00938
C 28.32862 23.429 -0.00037
C 25.72714 2.11208 -0.0264
C 24.53886 33.96091 0.00684
C 27.01786 32.62867 -0.01052
C 28.26197 31.92974 -0.01679
C 28.27032 30.55471 0.00367
C 27.07815 29.79501 0.04306
C 27.04177 28.30351 0.00996
C 28.32224 27.63992 0.00195
C 28.30398 26.26009 -0.00802
C 27.09048 25.48479 -0.00218
C 25.79812 0.70579 -0.01154
C 2.42227 32.62354 0.00907
