364
Graphene
C 34.40793 0.02431 0.01295
C 13.56444 4.88237 0.00052
C 12.26973 4.28615 -0.03682
C 12.2882 2.90359 0.01965
C 13.57634 2.21375 0.02058
C 13.58766 0.74967 -0.01957
C 12.37042 0.02479 -0.0108
C 14.74975 32.65093 -0.00368
C 15.94042 31.91608 -0.02696
C 13.46043 6.28696 0.00374
C 16.06317 30.463 -0.00114
C 16.07255 14.73861 0.00798
C 16.07443 13.5881 0.00422
C 14.71629 11.20985 0.0351
C 16.01347 10.70193 -0.03113
C 15.92512 9.2476 0.02098
C 14.74377 8.4666 0.01848
C 14.67877 6.96927 -0.00619
C 15.95359 6.31463 -0.02162
C 16.16452 17.59007 0.00228
C 12.25402 7.05953 -0.02813
C 12.26608 8.54723 -0.01952
C 13.49877 9.16513 0.05265
C 9.77053 29.90206 0.02894
C 9.65231 28.58645 -0.01789
C 9.8466 21.16575 0.00444
C 9.7041 19.9944 -0.00925
C 11.09336 9.26169 0.01877
C 9.86961 8.57153 0.01363
C 9.77837 7.13495 -0.02162
C 11.04086 6.40355 0.00415
C 11.04689 5.02466 -0.0014
C 9.81101 4.3338 0.02162
C 9.79535 2.94722 0.0076
C 11.06201 2.17851 0.01241
C 11.10424 0.72954 -0.01454
C 9.90651 34.03818 0.01945
C 12.36465 32.62743 0.01416
C 13.58027 31.84592 0.03542
C 13.41674 30.42134 0.02299
C 12.30959 29.99098 0.00244
C 13.75706 10.55235 -0.01717
C 15.92294 4.93259 0.00889
C 14.78537 4.18404 -0.00481
C 14.82785 2.84798 0.00979
C 15.99354 2.13275 0.01443
C 18.47457 0.77592 -0.03557
C 17.16931 0.08048 0.03754
C 19.65661 32.65649 0.01739
C 20.84533 31.86924 0.00755
C 20.92951 30.43864 -0.0054
C 19.66745 29.80226 0.00667
C 19.6704 28.45451 0.00143
C 20.77425 27.67399 -0.017
C 21.09682 26.24641 0.00364
C 21.02861 23.42851 -0.00831
C 20.85429 22.14366 -0.02957
C 19.92745 21.30987 -0.04422
C 19.64423 19.91965 0.00654
C 20.99302 19.20554 -0.00703
C 20.87776 17.73069 -0.04076
C 19.64173 16.9865 -0.00652
C 19.65467 15.5759 0.0058
C 20.91477 14.86094 -0.00865
C 20.8841 13.4007 0.00675
C 18.38459 2.12827 -0.00111
C 11.03289 30.50768 -0.02971
C 17.19622 2.89497 0.04892
C 18.31184 4.98871 -0.01581
C 15.95067 0.78351 0.03505
C 14.75883 0.0023 -0.02815
C 17.17844 32.64353 -0.04147
C 18.44588 31.93958 -0.05302
C 18.45595 30.53829 0.00213
C 17.15069 29.98719 -0.00066
C 18.53438 19.15297 -0.00289
C 18.44767 17.81166 0.00028
C 17.26527 16.99992 -0.02213
C 17.17544 15.55496 0.03698
C 18.42952 14.90167 -0.00109
C 18.45662 13.47163 -0.00491
C 17.16002 12.77202 0.03338
C 17.17702 11.3795 -0.0258
C 18.39696 10.67119 -0.0331
C 18.40258 9.19252 -0.00316
C 17.13467 8.53495 0.02188
C 17.1645 7.11802 -0.01979
C 18.45892 6.39555 0.02691
C 17.10556 4.28242 0.01452
C 19.70198 12.6791 -0.00311
C 11.05807 31.94873 0.00165
C 7.37551 0.01104 -0.00891
C 3.64667 6.37613 -0.01303
C 3.73724 4.9525 -0.01378
C 2.49005 4.32657 0.02635
C 2.49959 2.87636 0.0127
C 3.71641 2.1708 0.01396
C 3.65017 0.70553 0.01849
C 2.41168 34.0503 -0.01142
C 4.9338 32.75594 -0.00562
C 2.42113 7.06605 0.00848
C 6.11869 32.072 -0.00494
C 4.84946 29.8634 0.03007
C 4.86206 28.43797 -0.00095
C 6.17274 27.74029 0.01572
C 6.17517 26.33093 -0.04848
C 4.96512 25.56941 -0.00892
C 4.93513 24.14054 -0.01362
C 6.14243 23.39624 -0.0008
C 6.1264 22.04874 0.0288
C 6.02581 30.61299 0.00054
C 2.45667 8.52459 -0.00049
C 3.62961 9.23551 0.00873
C 3.66031 10.68825 0.01227
C 3.62038 30.5211 0.0086
C 2.4674 29.81914 -0.00643
C 2.5159 28.35323 0.017
C 3.69867 27.6429 -0.03113
C 3.73375 26.20813 -0.02566
C 2.48288 25.55734 -0.00094
C 2.41204 24.21776 0.02322
C 3.62649 23.53814 -0.00725
C 3.72746 22.02998 -0.05697
C 2.48816 21.33259 0.01087
C 2.48788 19.92139 -0.01343
C 3.74125 19.15688 0.00988
C 3.73508 17.72043 0.0276
C 2.45848 16.9782 0.01305
C 2.41308 15.59491 -0.00077
C 3.6631 14.9825 0.03368
C 3.63114 13.62661 -0.02929
C 2.43843 12.82902 -0.00966
C 2.47657 11.43101 -0.03337
C 4.92124 21.27866 0.00393
C 4.95583 19.84681 0.00895
C 6.22118 19.19681 0.00685
C 6.12797 17.89052 0.02888
C 8.45824 26.24172 -0.01062
C 7.36291 25.55568 -0.00033
C 7.41636 24.10004 0.03589
C 8.61295 23.45555 -0.02759
C 8.71742 22.07338 0.0402
C 7.41196 21.4063 0.00572
C 7.42783 19.95691 0.03592
C 8.63544 19.28497 0.00406
C 7.5523 11.2575 0.00943
C 8.58754 10.68192 0.02841
C 8.69183 9.29479 -0.01111
C 7.34149 8.47495 -0.01275
C 7.32434 7.06903 0.00985
C 8.54741 6.37199 -0.02245
C 8.56595 4.95151 -0.00428
C 7.29792 4.25076 0.03101
C 7.37031 2.86823 -0.01536
C 8.58748 2.15166 -0.02689
C 8.6261 0.66145 -0.01046
C 8.65876 27.68197 0.01364
C 9.77794 32.66283 0.02819
C 7.3041 28.49541 -0.00719
C 8.50957 30.57763 0.02339
C 4.99028 17.0937 -0.00482
C 5.02088 15.71526 -0.01384
C 6.07998 14.83778 0.03693
C 6.03764 13.65399 0.01745
C 4.96744 12.81342 0.00488
C 4.9247 11.4038 -0.01004
C 6.19422 10.76195 -0.02896
C 6.18122 9.30568 -0.00131
C 4.91649 8.66254 -0.01118
C 4.9014 7.19037 -0.014
C 6.08919 6.41916 0.02147
C 6.11258 5.01342 0.00373
C 4.91881 4.2416 -0.00191
C 4.9065 2.85131 0.00438
C 6.187 2.12249 0.01291
C 6.13545 0.72404 0.00093
C 4.88886 0.08395 0.00057
C 7.35799 32.65553 -0.01634
C 8.54835 31.95627 -0.00334
C 7.29174 29.89299 0.01641
C 19.66201 11.27599 0.00742
C 20.90065 10.68722 -0.01594
C 20.84236 9.26408 0.0106
C 29.43211 0.03571 0.00346
C 32.04343 32.69218 0.01713
C 33.20629 31.93963 -0.01694
C 33.15603 30.49771 0.01428
C 31.94048 29.82822 -0.02142
C 31.90009 28.41332 0.0544
C 33.19125 27.69784 0.00026
C 33.09765 26.27686 0.00682
C 30.67195 0.72144 0.00307
C 31.92129 25.51519 -0.01779
C 33.14199 23.43868 0.01927
C 33.18916 22.06937 0.01574
C 31.97176 21.28478 -0.02383
C 31.97469 19.87557 -0.01429
C 33.22605 19.18133 -0.0136
C 33.26048 17.75329 0.00594
C 32.01278 17.06982 -0.02474
C 32.02374 15.68939 0.00369
C 31.92731 24.07382 0.03794
C 30.69116 2.13284 0.00716
C 29.47432 2.85843 0.02108
C 29.50366 4.27973 0.0103
C 29.63279 25.50385 -0.02049
C 30.79897 23.40598 -0.01854
C 30.74287 22.01505 -0.01415
C 29.55952 21.30019 -0.03039
C 29.40481 20.00437 0.01836
C 30.76461 19.15578 0.03531
C 30.72369 17.74751 -0.00669
C 29.52185 17.05104 0.0101
C 29.54182 15.6424 0.01705
C 30.7679 14.943 -0.0405
C 30.76631 13.4683 -0.01303
C 29.55644 12.74971 -0.01461
C 29.51169 11.36273 -0.02155
C 30.72485 10.64863 -0.00944
C 30.75688 9.14493 -0.03735
C 29.56391 8.49023 -0.00971
C 29.49923 7.09112 0.01518
C 30.693 6.32724 0.01908
C 30.66644 4.94792 0.07705
C 33.19053 14.90565 0.00455
C 33.13259 13.4777 -0.00644
C 31.98801 12.7141 -0.01839
C 31.95849 11.34193 0.00137
C 0.02738 19.91721 0.01951
C 1.24417 19.16508 -0.01678
C 1.2839 17.74136 0.01223
C 0.01549 17.02194 0.00648
C 0.0134 15.54512 0.02114
C 1.18644 14.84592 -0.02957
C 1.18987 13.43915 0.00343
C 34.38773 12.80156 -0.02656
C 34.39174 11.33082 -0.02442
C 1.22777 10.70368 -0.00027
C 1.25323 9.31577 -0.00583
C 0.03271 8.59119 -0.02302
C 34.40112 7.16689 -0.02849
C 1.19497 6.4135 0.02931
C 1.24232 4.99677 0.00628
C 0.01332 4.29331 -0.0345
C 0.06574 2.86031 -0.00931
C 1.2657 2.12111 -0.00939
C 1.21426 0.70464 -0.00468
C 0.03282 21.36343 -0.02213
C 30.68781 26.24943 0.03265
C 1.27162 22.08378 0.02712
C 34.38909 24.16722 0.03076
C 33.18545 10.61735 0.00199
C 33.23243 9.20882 0.04381
C 31.95869 8.4946 0.02806
C 31.92388 7.04217 0.01504
C 33.13575 6.38492 -0.00069
C 33.15491 4.93962 0.04926
C 31.89145 4.24464 -0.03838
C 31.92955 2.78399 0.00349
C 33.2469 2.21539 -0.00323
C 33.21896 0.82176 -0.00841
C 31.96686 0.05285 0.0001
C 34.42025 32.66546 -0.02927
C 1.19406 31.92798 -0.01404
C 1.18494 30.52033 0.01027
C 34.42366 29.81716 0.01831
C 0.01989 28.34671 -0.01037
C 1.28379 27.74651 -0.00439
C 1.19399 26.28574 -0.00598
C 34.35651 25.56738 -0.05239
C 1.15783 23.4657 0.00723
C 30.76495 27.69875 0.00261
C 29.47075 28.44153 0.02326
C 29.50255 29.88142 0.00924
C 22.12806 12.74458 -0.0055
C 22.15706 11.32845 0.01515
C 23.37777 10.64901 -0.00225
C 23.35507 9.2029 0.00071
C 22.07426 8.58805 -0.01107
C 22.11123 7.14739 -0.01586
C 23.34328 6.3395 -0.01971
C 23.24595 4.94102 -0.02118
C 22.00586 4.23775 0.00733
C 22.08439 2.87496 -0.00178
C 23.3535 2.09996 0.00768
C 23.27175 0.63622 -0.0276
C 22.06026 34.01702 0.03005
C 24.53331 32.62476 -0.04078
C 25.79238 31.95388 0.02117
C 25.78255 30.51689 0.02737
C 24.58529 29.76469 -0.00498
C 24.65462 28.27059 0.00135
C 25.86664 27.7755 0.03102
C 23.34376 13.50136 0.02734
C 25.84467 17.66761 0.02555
C 23.28838 14.89004 0.01153
C 22.13442 17.03285 -0.03213
C 19.63724 8.51908 -0.01154
C 19.71465 7.13054 -0.01721
C 20.93381 6.41475 -0.02422
C 20.72537 4.98234 0.01277
C 19.54746 4.25002 0.00096
C 19.64343 2.78218 -0.01527
C 20.87751 2.12254 0.01087
C 20.88871 0.72195 0.00199
C 19.72525 0.00228 0.01511
C 21.98415 32.61331 -0.00478
C 23.25026 31.90044 -0.01662
C 23.39291 30.46415 -0.01185
C 22.15325 29.73196 0.01126
C 22.28612 28.311 0.01852
C 23.39908 27.62104 -0.00381
C 22.02404 25.51614 0.03046
C 22.25002 19.72815 0.0296
C 23.18479 19.06557 0.03374
C 23.40444 17.67901 -0.02845
C 22.11124 15.53509 0.02239
C 3.6991 31.97019 -0.00518
C 24.65005 16.92452 0.01423
C 25.84042 14.80992 -0.009
C 27.03928 15.62776 0.00152
C 28.27564 14.88694 0.01257
C 28.36278 13.49537 0.02316
C 27.08911 12.75659 0.04185
C 27.0518 11.35458 0.00194
C 28.29915 10.67472 -0.00621
C 28.34946 9.27654 0.02611
C 27.2 8.5571 0.02198
C 27.11015 7.1445 0.01094
C 28.31236 6.38746 0.00235
C 28.22022 4.97762 0.01495
C 26.96497 4.26097 0.01259
C 26.99957 2.89422 0.01799
C 28.26836 2.18622 0.01699
C 28.22823 0.76454 -0.00416
C 27.06302 0.0061 0.01177
C 29.43179 32.6852 0.04266
C 30.7642 31.99087 0.01324
C 30.74138 30.56559 0.0014
C 27.08797 17.08605 -0.00294
C 24.58879 15.52396 -0.00285
C 28.2966 17.81258 0.00826
C 28.34961 27.69075 -0.00942
C 25.82629 13.43494 -0.01199
C 24.57518 12.7408 -0.00229
C 24.53586 11.32606 -0.00938
C 25.8593 10.65988 -0.0264
C 25.93025 9.24784 -0.01154
C 24.6304 8.55014 0.00684
C 24.61497 7.13373 -0.01052
C 25.82024 6.42371 -0.01679
C 25.73315 4.96313 0.00367
C 24.44972 4.23489 0.04306
C 24.55877 2.84416 0.00996
C 25.77965 2.12446 0.00195
C 25.75079 0.68499 -0.00802
C 24.4732 34.00071 -0.00218
C 27.00717 32.65901 -0.01654
C 28.22108 31.98171 -0.00037
C 28.21781 30.50265 -0.0032
C 27.02817 29.84053 0.00622
C 27.09116 28.32486 -0.02815
C 28.32668 19.17447 0.00487
C 2.46454 32.64437 -0.00074
