324
Graphene
C 0.05227 0.04119 0.01295
C 9.77544 12.79471 -0.00066
C 9.82019 11.33301 -0.00289
C 11.01206 10.66782 0.00028
C 11.06249 9.30808 -0.02213
C 9.86399 8.55026 0.03698
C 9.78852 7.19008 -0.00109
C 10.97209 6.3021 -0.00491
C 11.09159 13.41862 0.00213
C 11.01734 4.8441 0.03338
C 9.84774 2.76615 -0.0331
C 11.14649 2.09369 -0.00316
C 11.1384 0.74496 0.02188
C 9.88964 0.06903 -0.01979
C 12.31003 32.58524 0.02691
C 13.62049 32.20727 -0.01581
C 12.38312 21.11359 0.01452
C 9.75607 4.17158 -0.0258
C 12.09214 19.91825 0.04892
C 11.06735 14.81119 -0.05302
C 9.88928 16.97334 -0.02815
C 8.60967 9.24991 -0.02696
C 7.34127 8.6139 -0.00114
C 7.27412 7.13347 0.00228
C 8.56031 6.48488 0.00798
C 8.64923 5.00546 0.00422
C 7.42352 4.32814 0.0351
C 7.39421 2.89358 -0.03113
C 9.85304 15.52405 -0.04147
C 8.61004 2.11878 0.02098
C 7.40077 0.00824 -0.00619
C 9.8622 32.66772 -0.02162
C 11.085 32.1726 0.00889
C 9.67714 21.31009 -0.00481
C 9.85034 19.91384 0.00979
C 11.07401 19.071 0.01443
C 11.16929 17.63657 0.03505
C 8.6545 0.71702 0.01848
C 12.36317 16.98511 -0.00111
C 12.37684 15.62428 -0.03557
C 13.46669 14.85101 0.03754
C 14.72223 7.04315 -0.01154
C 14.5584 4.21758 -0.01721
C 14.85445 2.86824 -0.02422
C 16.0571 2.18425 0.01277
C 16.06266 0.75128 0.00096
C 14.82975 0.03564 -0.01527
C 17.18776 32.68585 0.01087
C 14.85886 8.46908 0.0106
C 18.42403 31.96649 0.00199
C 17.20603 29.75718 -0.00478
C 18.54758 27.8663 -0.01662
C 17.28325 11.24613 -0.01185
C 18.33356 10.61495 0.01126
C 18.44708 9.27085 0.01852
C 17.27529 2.7862 -0.00381
C 18.49846 2.32112 0.03046
C 18.40791 30.4484 0.01511
C 16.07847 9.24638 -0.01594
C 16.07184 10.58565 0.00742
C 14.83214 11.28544 -0.00311
C 13.58674 13.52401 0.01739
C 12.3006 12.72045 0.00755
C 12.31195 11.33563 -0.0054
C 13.57886 10.60651 0.00667
C 13.50779 9.19051 0.00143
C 12.27494 8.52629 -0.017
C 12.13883 7.05696 0.00364
C 13.44613 6.46544 -0.00831
C 13.44802 5.04697 -0.02957
C 12.29589 4.21135 -0.04422
C 12.3628 2.83249 0.00654
C 13.61061 2.17277 -0.00703
C 13.56543 0.72886 -0.04076
C 12.35126 0.03729 -0.00652
C 14.81982 32.59299 0.0058
C 16.09111 31.95823 -0.00865
C 14.68893 12.63031 0.00675
C 8.58182 10.66883 -0.00368
C 18.4636 0.74268 0.0296
C 7.36068 11.36442 -0.0108
C 8.57719 13.51685 0.02058
C 3.6459 9.14253 0.00093
C 2.38427 8.53625 0.00057
C 2.37555 7.11937 -0.01634
C 3.61809 6.40207 -0.00334
C 3.73314 4.96539 0.02339
C 2.50068 4.274 0.01641
C 2.45987 2.86612 -0.00719
C 3.71271 10.56813 0.01291
C 3.69041 2.12652 0.01364
C 2.45977 0.0347 -0.00033
C 4.90726 32.65126 0.03589
C 6.15676 31.97612 -0.02759
C 6.15181 30.52563 0.0402
C 4.90994 29.89983 0.00572
C 4.91051 28.46112 0.03592
C 6.1951 27.73673 0.00406
C 3.67075 0.67553 -0.01062
C 6.16467 26.34823 0.00943
C 2.43231 11.3262 0.00438
C 3.64502 13.44829 0.00373
C 3.5925 30.54971 0.0288
C 2.41836 29.77046 0.00393
C 2.42629 28.39333 0.00895
C 3.6884 27.68403 0.00685
C 3.71414 26.33776 0.02888
C 2.48837 25.59689 -0.00482
C 2.42829 24.24307 -0.01384
C 2.47121 12.69171 -0.00191
C 3.62341 23.43347 0.03693
C 2.47411 21.33033 0.00488
C 2.41636 19.92574 -0.01004
C 3.6372 19.19492 -0.02896
C 3.70302 17.75149 -0.00131
C 2.46107 17.07083 -0.01118
C 2.49623 15.59678 -0.014
C 3.69494 14.85358 0.02147
C 3.68458 22.10348 0.01745
C 4.93971 25.55769 0.02841
C 4.85096 24.19584 -0.01111
C 6.10168 23.4629 -0.01275
C 4.90201 0.03198 0.0076
C 7.38481 32.67642 0.01241
C 8.65551 31.94827 -0.01454
C 8.67338 30.55282 0.01945
C 7.52966 29.69395 0.01416
C 7.39225 28.34153 0.03542
C 7.08408 25.50459 0.02299
C 6.15383 0.68872 0.02162
C 7.26834 24.23112 0.00244
C 7.31125 21.3907 0.05265
C 7.41951 19.90877 -0.01952
C 8.65486 19.23065 -0.02813
C 8.64739 17.72568 0.00374
C 7.45678 17.05815 0.00052
C 7.36248 15.63301 -0.03682
C 8.59574 14.90809 0.01965
C 8.56763 21.82957 -0.01717
C 6.16324 2.17851 -0.0014
C 4.92254 2.83196 0.00415
C 4.97353 4.31192 -0.02162
C 6.14473 22.14536 0.00985
C 4.9797 21.34452 -0.02245
C 4.93487 19.89833 -0.00428
C 6.1592 19.21098 0.03101
C 6.21037 17.80206 -0.01536
C 4.93917 17.06529 -0.02689
C 4.89558 15.56214 -0.01046
C 6.0989 14.90034 -0.00891
C 6.0591 13.44731 0.02819
C 4.83112 12.75564 0.00165
C 4.87611 11.29855 -0.02971
C 6.16048 10.70228 0.02894
C 6.14669 9.24498 -0.01789
C 4.90539 8.5408 0.00444
C 4.86969 7.07898 -0.00925
C 6.08477 6.40937 0.01877
C 6.16464 4.9991 0.01363
C 7.35116 12.79778 -0.01957
C 17.23954 0.09926 0.03374
C 19.61761 32.67483 -0.02845
C 20.85064 31.98502 -0.03213
C 33.22897 26.33849 0.00682
C 31.97464 25.61113 -0.01779
C 32.01075 24.16165 0.03794
C 33.21307 23.51246 0.01927
C 33.18156 22.09101 0.01574
C 31.84002 21.44544 -0.02383
C 31.83542 20.01136 -0.01429
C 33.22778 27.72163 0.00026
C 33.08489 19.23889 -0.0136
C 31.92396 17.03281 -0.02474
C 32.03231 15.70533 0.00369
C 33.21289 14.93963 0.00455
C 33.19903 13.48454 -0.00644
C 31.96024 12.84567 -0.01839
C 31.92912 11.44553 0.00137
C 33.18138 10.65301 0.00199
C 33.14792 17.80519 0.00594
C 33.21633 9.20161 0.04381
C 31.94512 28.39106 0.0544
C 33.1108 30.56133 0.01428
C 30.77051 13.62777 -0.01303
C 29.57768 12.75357 -0.01461
C 29.50411 11.34736 -0.02155
C 30.71919 10.67376 -0.00944
C 30.74153 9.21224 -0.03735
C 29.49989 8.53023 -0.00971
C 29.44023 7.09187 0.01518
C 31.88337 29.80041 -0.02142
C 30.67394 6.38985 0.01908
C 29.53775 4.29937 0.0103
C 29.45147 2.7971 0.02108
C 30.69927 2.16507 0.00716
C 30.73736 0.70975 0.00307
C 29.54758 34.03187 0.00346
C 31.98024 32.6561 0.01713
C 33.19992 32.01106 -0.01694
C 30.68086 4.97362 0.07705
C 31.91137 8.53784 0.02806
C 31.92644 7.11398 0.01504
C 33.14313 6.37547 -0.00069
C 34.3798 17.1393 0.00648
C 0.03398 15.65443 0.02114
C 1.25397 14.93521 -0.02957
C 1.27557 13.46964 0.00343
C 34.42073 12.81081 -0.02656
C 34.40094 11.32943 -0.02442
C 1.19134 10.61673 -0.00027
C 1.24011 17.71322 0.01223
C 1.15937 9.25283 -0.00583
C 34.38234 7.0634 -0.02849
C 1.21105 6.40764 0.02931
C 1.27352 4.97326 0.00628
C 0.01628 4.2578 -0.0345
C 34.41275 2.77836 -0.00931
C 1.2386 2.12022 -0.00939
C 1.26124 0.74732 -0.00468
C 34.41001 8.48045 -0.02302
C 1.21036 19.09881 -0.01678
C 34.3352 19.83789 0.01951
C 34.42801 21.28174 -0.02213
C 33.19223 4.92764 0.04926
C 31.94539 4.28068 -0.03838
C 31.9142 2.7915 0.00349
C 33.16863 2.1001 -0.00323
C 33.21309 0.72325 -0.00841
C 31.96261 34.05885 0.0001
C 0.07216 32.69239 -0.02927
C 1.24659 31.92272 -0.01404
C 1.19772 30.53294 0.01027
C 34.37909 29.83093 0.01831
C 0.00759 28.39763 -0.01037
C 1.2606 27.69023 -0.00439
C 1.21362 26.27184 -0.00598
C 34.40191 25.60043 -0.05239
C 0.00177 24.23037 0.03076
C 1.1921 23.48828 0.00723
C 1.22367 22.04978 0.02712
C 30.67329 15.04069 -0.0405
C 29.49695 15.65843 0.01705
C 30.78524 17.82023 0.0101
C 30.80764 19.07518 -0.00669
C 22.129 7.14992 0.03102
C 23.39883 6.40819 0.02555
C 23.27622 4.98104 0.01423
C 21.99416 4.33447 -0.00285
C 22.13735 2.90944 -0.009
C 23.27496 2.09967 -0.01199
C 23.37025 0.62354 -0.00229
C 22.13406 8.56696 0.00135
C 22.05592 34.01609 -0.00938
C 25.82464 31.87325 -0.01154
C 25.77918 30.44429 0.00684
C 24.50153 29.80012 -0.01052
C 24.44435 28.20466 -0.01679
C 25.76108 27.66829 0.00367
C 24.54383 11.17382 0.04306
C 25.85489 10.85054 0.00996
C 24.64987 32.58995 -0.0264
C 23.26697 9.23246 -0.00498
C 23.37319 10.60038 0.02737
C 23.19758 27.68812 0.02117
C 20.82697 30.51261 0.02239
C 19.63941 29.69895 0.01153
C 19.70719 28.34473 0.02734
C 20.8838 10.65443 -0.0055
C 20.84417 9.2972 0.01515
C 19.5546 8.58203 -0.00225
C 20.85374 6.4383 0.00071
C 20.81268 5.15397 -0.01107
C 19.79356 2.93138 -0.01586
C 20.90852 2.18715 -0.01971
C 20.90654 0.77273 -0.02118
C 19.70261 0.04086 0.00733
C 22.09428 32.66943 -0.00178
C 23.38757 31.97208 0.00768
C 23.27142 30.51111 -0.0276
C 22.0157 29.8279 0.03005
C 22.13978 28.45504 -0.04078
C 25.86951 9.24395 0.00195
C 3.66883 31.9432 -0.0008
C 24.5991 8.52874 -0.00802
C 25.83737 6.36659 -0.01654
C 27.01482 4.21272 0.01699
C 27.01791 2.76203 -0.00416
C 28.29639 2.07184 0.01177
C 28.27247 0.68125 0.04266
C 27.06001 34.01883 0.01324
C 29.58303 32.59572 0.0014
C 30.76407 31.87946 0.00924
C 28.23692 4.89468 0.01799
C 30.59716 30.48048 0.02326
C 29.48518 28.34485 0.03265
C 30.76173 27.66816 -0.02049
C 30.7553 26.20663 -0.01854
C 29.44643 25.44618 -0.01415
C 29.64089 24.18497 -0.03039
C 30.73854 23.42 0.01836
C 30.61 22.02377 0.03531
C 29.45522 29.73483 0.00261
C 28.24681 6.36005 0.01259
C 27.09836 7.08111 0.01495
C 27.0776 8.52472 0.00235
C 25.75561 4.95496 -0.00037
C 24.51337 4.18765 -0.0032
C 24.59981 2.83572 0.00622
C 25.76408 2.09077 -0.02815
C 25.80332 0.68667 -0.00942
C 24.58804 34.07625 0.00487
C 27.13929 32.63519 0.00826
C 28.35718 31.87699 -0.00294
C 28.21853 30.47053 0.00152
C 26.94738 29.73588 0.01257
C 27.01561 28.31995 0.02316
C 28.23638 27.59668 0.04185
C 28.32501 26.30414 0.00194
C 28.40976 13.43207 -0.00621
C 27.12446 11.34221 0.02611
C 28.28921 10.64828 0.02198
C 28.28853 9.24294 0.01094
C 24.62567 7.07555 -0.00218
C 2.4578 32.68884 -0.01362
