282
Graphene
C 34.42986 0.03392 0.01295
C 17.24208 2.84349 -0.01721
C 17.18034 4.32898 -0.01154
C 18.45465 4.97986 0.0106
C 18.49599 6.36092 -0.01594
C 17.29394 7.16701 0.00742
C 17.23971 8.52471 -0.00311
C 17.08811 29.82362 0.00675
C 18.39302 30.468 -0.00865
C 18.41083 31.82011 0.0058
C 17.22195 32.60976 -0.00652
C 14.81296 0.02008 -0.04076
C 16.03387 0.67149 -0.00703
C 16.03038 2.10716 0.00654
C 14.82197 2.84085 -0.04422
C 14.74175 4.3543 -0.02957
C 15.98269 4.9638 -0.00831
C 15.99357 6.35266 0.00364
C 9.77573 34.02903 -0.01979
C 12.38428 32.58461 0.02691
C 13.49064 31.93955 -0.01581
C 13.56155 6.4581 0.01452
C 13.52158 4.94365 0.04892
C 12.2716 4.29257 -0.00111
C 18.3636 2.18045 -0.02422
C 12.31343 2.8974 -0.03557
C 13.57205 0.73505 0.01739
C 12.33036 0.03667 0.00755
C 14.76259 32.65465 -0.0054
C 15.97233 31.94619 0.00667
C 16.09611 30.48911 0.00143
C 14.72643 7.07509 -0.017
C 13.55294 2.21948 0.03754
C 11.02662 0.73168 0.02188
C 18.41729 0.78246 0.01277
C 19.69093 32.58776 -0.01527
C 22.16623 4.2676 -0.04078
C 23.39634 4.9961 0.03005
C 22.26325 19.88549 -0.0276
C 22.06664 21.2009 0.00768
C 23.34609 22.04343 -0.00178
C 23.37846 23.37997 0.00733
C 22.03726 24.13804 -0.02118
C 22.14896 25.55499 -0.01971
C 23.4661 26.28367 -0.01586
C 23.35322 27.71363 -0.01107
C 22.15399 28.43809 0.00071
C 22.08685 29.92636 -0.00225
C 23.35272 30.54303 0.01515
C 23.34282 31.88545 -0.0055
C 22.12611 32.61704 0.02734
C 19.68702 0.05814 0.01153
C 20.92583 0.68442 0.02239
C 20.8513 31.94717 0.01087
C 20.87101 30.55514 0.00199
C 19.68209 29.7815 0.01511
C 19.77133 28.49832 -0.00478
C 20.8709 27.6306 -0.01662
C 20.94723 26.26152 -0.01185
C 17.23428 34.05895 0.00096
C 20.98662 23.24119 0.01126
C 19.7036 7.02878 -0.00381
C 20.7836 6.37204 0.03046
C 20.93538 4.92115 0.0296
C 19.69862 4.21996 0.03374
C 19.63789 2.86144 -0.02845
C 20.84855 2.14556 -0.03213
C 20.84145 22.08159 0.01852
C 10.9884 2.18332 -0.00316
C 9.78226 2.89238 -0.0331
C 9.80261 4.26695 -0.0258
C 4.96725 32.62024 -0.02813
C 2.47457 34.06949 -0.01952
C 3.70067 0.72998 0.05265
C 3.70448 2.15328 -0.01717
C 2.52416 2.86654 0.00244
C 2.46653 4.26468 0.02299
C 3.71342 4.92178 0.03542
C 3.64718 6.36727 0.01416
C 2.43281 7.08689 0.01945
C 2.48407 8.53999 -0.01454
C 3.68164 9.25021 0.01241
C 3.6175 10.65486 0.0076
C 2.42604 11.37962 0.02162
C 2.4539 12.76281 -0.0014
C 3.57836 13.59557 0.00415
C 3.67872 14.83004 -0.02162
C 2.52933 15.60663 0.01363
C 3.65107 30.51804 -0.00428
C 2.44106 29.74994 0.03101
C 2.41541 28.35638 -0.01536
C 3.69203 27.68318 -0.02689
C 3.68257 26.25583 -0.01046
C 2.50262 25.54826 -0.00891
C 6.21253 31.95999 0.00374
C 2.43347 24.20721 0.02819
C 3.74255 21.97372 -0.02971
C 2.43308 21.31056 0.02894
C 2.42239 19.90674 -0.01789
C 3.70145 19.16798 0.00444
C 3.67364 17.68363 -0.00925
C 2.44931 17.05787 0.01877
C 3.66804 23.4532 0.00165
C 6.11275 30.53491 0.00052
C 4.89911 29.8402 -0.03682
C 4.91878 28.44724 0.01965
C 7.32566 28.29593 0.01443
C 7.4355 7.07746 0.03505
C 8.56636 6.44504 -0.02815
C 8.62453 5.0065 -0.04147
C 7.31034 4.35897 -0.05302
C 7.38892 2.88951 0.00213
C 7.39651 29.77339 0.00979
C 8.56229 2.11748 -0.00066
C 7.32815 0.03525 0.00028
C 9.88536 32.6004 -0.02213
C 11.13915 31.93847 0.03698
C 11.007 30.49735 -0.00109
C 11.1748 6.32673 -0.00491
C 11.07694 4.98082 0.03338
C 8.54817 0.68488 -0.00289
C 22.09379 2.91938 0.02117
C 8.59169 30.57527 -0.00481
C 7.41137 32.65773 -0.02162
C 6.17962 27.74357 0.02058
C 4.97111 25.48224 -0.01957
C 4.8679 24.1872 -0.0108
C 4.97064 21.16825 -0.00368
C 4.79862 19.92439 -0.02696
C 4.89447 8.59428 -0.00114
C 8.56835 31.9792 0.00889
C 4.88723 7.1409 0.00228
C 6.16289 5.00534 0.00422
C 4.91415 4.16578 0.0351
C 4.9699 2.83321 -0.03113
C 6.18643 2.16587 0.02098
C 6.15495 0.75001 0.01848
C 4.91439 34.06831 -0.00619
C 6.08417 6.37096 0.00798
C 23.34799 2.13556 0.02737
C 23.40935 0.72604 -0.00498
C 22.15426 34.0461 0.00135
C 33.20727 5.01389 0.04926
C 33.19305 6.46825 -0.00069
C 31.91785 7.10995 0.01504
C 32.03333 8.51911 0.02806
C 33.27159 9.22879 0.04381
C 33.21033 10.69147 0.00199
C 31.94593 11.24445 0.00137
C 31.92259 12.75408 -0.01839
C 33.14469 13.47491 -0.00644
C 33.14447 14.83249 0.00455
C 31.99257 15.60231 0.00369
C 31.9599 17.05339 -0.02474
C 33.18038 17.7789 0.00594
C 33.22769 19.12286 -0.0136
C 31.95895 19.91354 -0.01429
C 31.98326 21.34495 -0.02383
C 33.2613 22.03638 0.01574
C 29.49677 2.80978 0.02108
C 30.76171 2.13597 0.00716
C 30.78026 0.7457 0.00307
C 29.52037 34.06251 0.00346
C 31.9291 32.70391 0.01713
C 33.2338 31.93853 -0.01694
C 31.98327 4.32988 -0.03838
C 33.2037 30.55537 0.01428
C 32.00246 28.45111 0.0544
C 33.17736 27.79199 0.00026
C 33.17037 26.33797 0.00682
C 31.97979 25.5794 -0.01779
C 31.91117 24.14407 0.03794
C 33.2068 23.46915 0.01927
C 31.99616 29.81593 -0.02142
C 31.98923 2.83472 0.00349
C 33.17566 2.16801 -0.00323
C 33.17575 0.76522 -0.00841
C 1.24864 14.91935 -0.02957
C 1.15884 13.49174 0.00343
C 34.38112 12.81267 -0.02656
C 34.41989 11.33653 -0.02442
C 1.23915 10.64633 -0.00027
C 1.19689 9.29587 -0.00583
C 34.39515 15.63338 0.02114
C 0.04886 8.59007 -0.02302
C 1.22543 6.32706 0.02931
C 1.21954 4.95846 0.00628
C 34.3715 4.24354 -0.0345
C 0.01042 2.8264 -0.00931
C 1.22572 2.17445 -0.00939
C 1.15193 0.71895 -0.00468
C 34.38455 7.11583 -0.02849
C 29.47586 4.20226 0.0103
C 34.42286 17.08334 0.00648
C 1.16722 19.1694 -0.01678
C 31.98087 0.041 0.0001
C 0.0056 32.63414 -0.02927
C 1.22503 31.94435 -0.01404
C 1.22624 30.56016 0.01027
C 0.04512 29.84017 0.01831
C 0.0256 28.45564 -0.01037
C 1.20318 17.7408 0.01223
C 1.20342 27.69152 -0.00439
C 34.40395 25.59084 -0.05239
C 34.37388 24.22309 0.03076
C 1.26248 23.44374 0.00723
C 1.2396 21.98305 0.02712
C 0.05816 21.2706 -0.02213
C 34.42529 19.89958 0.01951
C 1.23593 26.28376 -0.00598
C 3.70446 31.9512 -0.02245
C 30.71425 4.95819 0.07705
C 29.49869 7.10497 0.01518
C 28.2635 23.44575 0.02316
C 27.10842 24.17839 0.01257
C 27.05769 25.50477 0.00152
C 28.30311 26.22814 -0.00294
C 28.30054 27.70711 0.00826
C 27.04595 28.41999 0.00487
C 27.05441 29.76562 -0.00942
C 28.22814 30.52584 -0.02815
C 28.33718 31.89383 0.00622
C 27.01213 32.59782 -0.0032
C 24.57456 0.01079 -0.00037
C 25.77967 0.69752 -0.01654
C 25.77988 2.17136 -0.00218
C 24.57188 2.85294 -0.00802
C 24.58831 4.22703 0.00195
C 25.84108 4.98849 0.00996
C 25.92962 6.47068 0.04306
C 24.64763 32.62524 0.03102
C 25.82358 31.86731 0.02555
C 25.84139 30.50073 0.01423
C 24.63945 29.78862 -0.00285
C 24.56776 28.37616 -0.009
C 25.83485 27.67369 -0.01199
C 28.29159 22.0057 0.04185
C 25.83712 26.28058 -0.00229
C 24.62543 24.22719 -0.0264
C 25.80919 23.45759 -0.01154
C 25.86665 22.07022 0.00684
C 24.54002 21.30848 -0.01052
C 24.67343 19.8565 -0.01679
C 25.76223 19.21019 0.00367
C 24.64742 25.62146 -0.00938
C 27.08096 21.29526 0.00194
C 27.02283 19.82033 -0.00621
C 28.26349 19.1795 0.02611
C 30.73763 23.46388 -0.01415
C 30.7943 22.0866 -0.03039
C 29.48451 21.21465 0.01836
C 29.48513 19.83778 0.03531
C 30.73614 19.1624 -0.00669
C 30.81749 17.75456 0.0101
C 29.42845 24.08498 -0.01854
C 29.43145 17.02522 0.01705
C 30.70922 14.84994 -0.01303
C 30.70695 13.45273 -0.01461
C 29.52362 11.29773 -0.02155
C 30.71937 10.72622 -0.00944
C 30.72858 9.26323 -0.03735
C 29.53874 8.51685 -0.00971
C 29.56849 15.62724 -0.0405
C 30.69263 6.35949 0.01908
C 29.44035 25.55976 -0.02049
C 30.75098 27.70341 0.00261
C 28.32456 17.72424 0.02198
C 27.00597 7.02767 0.01094
C 28.25428 6.45113 0.00235
C 28.27793 5.00592 0.01495
C 27.04357 4.34068 0.01259
C 27.02607 2.87096 0.01799
C 30.69404 26.25176 0.03265
C 28.27988 2.15805 0.01699
C 27.05578 34.07156 0.01177
C 29.53052 32.64922 0.04266
C 30.72554 31.90222 0.01324
C 30.72525 30.50256 0.0014
C 29.49344 29.83554 0.00924
C 29.4932 28.47269 0.02326
C 28.28554 0.64309 -0.00416
C 2.45933 32.6324 0.00985
