344
Graphene
C 34.34884 34.0796 0.01295
C 13.91564 9.80976 0.02098
C 12.42144 6.88915 0.01848
C 13.61441 6.40166 -0.00619
C 13.53493 5.00083 -0.02162
C 12.23824 4.29372 0.00889
C 12.23705 2.8754 -0.00481
C 13.54601 2.223 0.00979
C 13.56485 0.82879 0.01443
C 12.27613 0.10482 0.03505
C 14.79841 32.73173 -0.02815
C 15.99032 31.96357 -0.04147
C 15.93856 30.53364 -0.05302
C 14.67508 29.87076 0.00213
C 14.73278 28.40323 -0.00066
C 15.98961 27.76518 -0.00289
C 16.05019 26.30867 0.00028
C 14.7825 25.59742 -0.02213
C 12.61918 10.08395 -0.03113
C 14.47927 14.2666 0.0351
C 13.04691 14.49507 0.00422
C 12.42994 15.61809 0.00798
C 11.03894 0.81131 0.03542
C 9.88782 0.08426 0.02299
C 12.32817 32.73394 0.00244
C 13.5735 32.04065 -0.01717
C 13.5512 30.58586 0.05265
C 12.32194 29.96357 -0.01952
C 12.25508 28.49556 -0.02813
C 13.49599 27.74198 0.00374
C 14.77802 24.2494 0.03698
C 13.58741 26.28946 0.00052
C 12.27047 24.26286 0.01965
C 13.50612 23.47058 0.02058
C 13.49435 22.08667 -0.01957
C 12.22324 21.43604 -0.0108
C 12.1809 19.98706 -0.00368
C 13.30486 19.20737 -0.02696
C 13.23781 17.83067 -0.00114
C 11.91371 16.99055 0.00228
C 12.38585 25.65447 -0.03682
C 10.99 2.17706 0.01416
C 15.91955 23.41992 -0.00109
C 14.65731 21.28646 0.03338
C 17.19569 24.14843 0.00654
C 18.36581 23.36826 -0.00703
C 18.3762 21.92619 -0.04076
C 17.05328 21.21702 -0.00652
C 16.88125 19.86194 0.0058
C 18.1584 19.14745 -0.00865
C 17.46592 17.76586 0.00675
C 18.49244 4.73203 -0.00311
C 17.1883 4.33051 0.00742
C 17.2172 2.78336 -0.01594
C 18.47055 2.1211 0.0106
C 18.48493 0.70695 -0.01154
C 17.21982 0.04656 -0.01721
C 19.61356 32.68505 -0.02422
C 20.87182 32.00919 0.01277
C 20.86509 30.60976 0.00096
C 19.71732 29.84387 -0.01527
C 17.17948 25.59345 -0.04422
C 18.46591 26.26109 -0.02957
C 18.49945 27.76258 -0.00831
C 17.25264 28.51075 0.00364
C 14.59659 19.82783 -0.0258
C 15.75302 19.05851 -0.0331
C 16.0064 17.63377 -0.00316
C 14.59079 16.96433 0.02188
C 14.1826 15.45586 -0.01979
C 14.61171 8.68621 0.02691
C 14.88719 7.38635 -0.01581
C 16.10335 6.48221 0.01452
C 15.89609 22.02703 -0.00491
C 15.96279 5.01602 0.04892
C 14.75343 2.84176 -0.03557
C 15.9807 2.13016 0.03754
C 15.96463 0.74336 0.01739
C 14.74467 0.04586 0.00755
C 17.20377 32.63565 -0.0054
C 18.4357 31.9937 0.00667
C 18.49842 30.50914 0.00143
C 17.23842 29.87787 -0.017
C 14.80229 4.28744 -0.00111
C 19.70953 28.40115 0.01087
C 9.80322 2.87048 0.01945
C 11.02105 5.0449 0.01241
C 3.59066 0.69478 0.00895
C 2.34968 0.00914 0.00685
C 4.88249 32.64077 0.02888
C 6.10434 31.98508 -0.00482
C 6.04053 30.48027 -0.01384
C 4.85109 29.80747 0.03693
C 4.85072 28.36885 0.01745
C 6.09424 27.65176 0.00488
C 6.117 26.24033 -0.01004
C 4.93259 25.56801 -0.02896
C 4.88203 24.16692 -0.00131
C 6.16591 23.41055 -0.01118
C 6.19138 22.05184 -0.014
C 4.90701 21.37431 0.02147
C 4.95769 20.01161 0.00373
C 6.02989 19.04812 -0.00191
C 5.31259 17.8272 0.00438
C 3.6419 2.12614 0.00393
C 2.4415 2.84486 0.0288
C 2.46641 4.28339 -0.0008
C 3.68484 4.84545 -0.01362
C 3.65354 30.57278 0.00873
C 2.40864 29.77948 -0.00049
C 2.36638 28.38806 0.00848
C 3.60912 27.68743 -0.01303
C 3.65309 26.32641 -0.01378
C 2.43651 25.58428 0.02635
C 2.45449 24.2358 0.0127
C 3.61682 23.50125 0.01396
C 5.91131 5.04771 0.01291
C 3.60202 22.16968 0.01849
C 2.49882 19.9063 -0.00562
C 3.70217 19.30246 -0.00494
C 3.91293 17.838 0.00054
C 2.77485 16.97262 0.03007
C 2.49143 15.69328 -0.00095
C 2.50708 8.68751 0.01572
C 2.72799 7.16577 -0.04848
C 3.83086 6.21252 -0.00892
C 2.43871 21.32061 -0.01142
C 9.81356 4.42539 -0.01454
C 4.87386 4.13796 0.00093
C 6.09677 2.10415 -0.01634
C 7.36346 0.05531 -0.02689
C 9.81548 32.75376 -0.01046
C 11.0822 32.05525 -0.00891
C 11.0498 30.62675 0.02819
C 9.82481 29.81863 0.00165
C 9.7848 28.37906 -0.02971
C 11.03062 27.72011 0.02894
C 11.11199 26.37573 -0.01789
C 9.79729 25.68178 0.00444
C 9.81855 24.23555 -0.00925
C 11.03905 23.55707 0.01877
C 10.99266 22.18271 0.01363
C 9.79502 21.41557 -0.02162
C 9.78505 20.05558 0.00415
C 11.01796 19.37529 -0.0014
C 10.96832 17.90264 0.02162
C 11.27612 6.55118 0.0076
C 8.58626 0.78989 -0.01536
C 8.58107 2.23778 0.03101
C 7.32062 2.95113 -0.00428
C 7.27494 4.43909 -0.02245
C 6.15692 0.75006 -0.00334
C 4.82767 0.06802 0.02339
C 7.37737 32.65838 0.01641
C 8.61277 31.95726 -0.00719
C 8.51028 30.4689 0.01364
C 7.25489 29.80238 -0.01062
C 7.32985 28.37026 -0.00033
C 8.51587 27.73059 0.03589
C 4.91527 2.73874 0.00057
C 8.52816 26.36922 -0.02759
C 7.31727 24.16897 0.00572
C 8.55271 23.52527 0.03592
C 8.55743 22.11631 0.00406
C 7.38874 21.25785 0.00943
C 7.32411 19.62388 0.02841
C 8.75988 19.05768 -0.01111
C 9.3031 17.75131 -0.01275
C 8.53863 5.06117 0.00985
C 7.36011 25.58371 0.0402
C 20.94816 27.65005 0.00199
C 20.90321 26.20885 0.01511
C 19.73361 25.51942 -0.00478
C 31.94065 29.84052 -0.02142
C 31.9289 28.43597 0.0544
C 33.11785 27.64396 0.00026
C 33.12229 26.21227 0.00682
C 31.84364 25.55768 -0.01779
C 31.86476 24.11875 0.03794
C 33.16933 23.42372 0.01927
C 33.11087 22.01429 0.01574
C 31.86666 21.25742 -0.02383
C 31.86322 19.82657 -0.01429
C 33.15085 19.07355 -0.0136
C 33.24236 17.70627 0.00594
C 31.99214 17.06274 -0.02474
C 31.91149 15.62436 0.00369
C 33.16967 14.88755 0.00455
C 33.13582 13.50716 -0.00644
C 31.87876 12.89174 -0.01839
C 33.17722 30.53594 0.01428
C 33.20912 31.98819 -0.01694
C 31.91507 32.66845 0.01713
C 29.49368 0.03817 0.00346
C 30.63019 19.09565 0.03531
C 30.74075 17.74236 -0.00669
C 29.45046 17.05528 0.0101
C 29.43297 15.66216 0.01705
C 30.64272 14.96023 -0.0405
C 30.57826 13.54023 -0.01303
C 29.35549 12.88845 -0.01461
C 29.47876 11.57537 -0.02155
C 31.93579 11.43135 0.00137
C 30.6876 10.70377 -0.00944
C 29.45889 8.5942 -0.00971
C 29.44584 7.19881 0.01518
C 30.77384 6.50561 0.01908
C 30.802 5.04358 0.07705
C 29.58412 4.28399 0.0103
C 29.5645 2.88473 0.02108
C 30.72471 2.09993 0.00716
C 30.69214 0.67128 0.00307
C 30.78657 9.32041 -0.03735
C 29.51637 19.92914 0.01836
C 33.13771 10.71729 0.00199
C 32.01863 8.5314 0.02806
C 1.39259 17.70902 0.01223
C 0.13696 16.95849 0.00648
C 0.03136 15.54637 0.02114
C 1.4395 14.80158 -0.02957
C 1.21369 13.38693 0.00343
C 34.27854 12.82661 -0.02656
C 34.37766 11.42798 -0.02442
C 1.10277 10.82258 -0.00027
C 1.30999 9.43965 -0.00583
C 0.06536 8.55654 -0.02302
C 0.06476 7.15629 -0.02849
C 1.28794 6.40524 0.02931
C 1.19933 4.96106 0.00628
C 34.36674 4.26028 -0.0345
C 34.36459 2.92226 -0.00931
C 1.17589 2.16203 -0.00939
C 1.2099 0.70887 -0.00468
C 1.35238 19.15089 -0.01678
C 0.00729 19.75208 0.01951
C 34.32831 21.22499 -0.02213
C 1.14793 22.04875 0.02712
C 31.97654 7.15934 0.01504
C 33.19147 6.48985 -0.00069
C 33.20867 5.09316 0.04926
C 32.01578 4.32085 -0.03838
C 31.94936 2.89901 0.00349
C 33.17403 2.19983 -0.00323
C 33.12607 0.76095 -0.00841
C 31.94711 0.07096 0.0001
C 33.19572 9.28713 0.04381
C 34.39995 32.58808 -0.02927
C 1.14523 30.41995 0.01027
C 34.30039 29.72107 0.01831
C 34.32676 28.34642 -0.01037
C 1.17187 27.60752 -0.00439
C 1.12774 26.21621 -0.00598
C 34.2838 25.51361 -0.05239
C 34.36246 24.12606 0.03076
C 1.21107 23.48687 0.00723
C 1.16438 31.87441 -0.01404
C 29.4542 21.30948 -0.03039
C 30.59117 21.97337 -0.01415
C 30.62014 23.36664 -0.01854
C 21.99803 21.14753 -0.00178
C 22.00776 19.65641 0.00768
C 23.26302 19.06996 -0.0276
C 22.17814 2.87348 0.03005
C 23.40047 2.22843 -0.04078
C 23.37349 0.70662 0.02117
C 22.07945 34.04216 0.02737
C 24.61276 32.7282 -0.00498
C 25.80218 31.96028 0.00135
C 25.82303 30.51536 0.03102
C 24.62276 29.7361 0.02555
C 24.62546 28.3635 0.01423
C 25.81315 27.62347 -0.00285
C 25.77153 26.19215 -0.009
C 24.49381 25.46635 -0.01199
C 24.47428 24.08094 -0.00229
C 25.77362 23.3881 -0.00938
C 23.20238 21.89614 0.00733
C 23.27381 23.32287 -0.02118
C 22.03314 23.96717 -0.01971
C 22.11694 25.47941 -0.01586
C 19.62853 24.04093 -0.01662
C 20.80365 23.26979 -0.01185
C 20.80625 21.83467 0.01126
C 19.50151 21.14674 0.01852
C 19.48623 19.70144 -0.00381
C 20.75303 19.20149 0.03046
C 19.53948 4.29817 0.0296
C 19.71127 2.85188 0.03374
C 25.67938 21.99863 -0.0264
C 20.88872 2.18444 -0.02845
C 19.67436 0.06847 0.02239
C 22.14913 32.56869 0.01153
C 23.38356 31.94923 0.02734
C 23.3968 30.55191 -0.0055
C 22.15705 29.83966 0.01515
C 22.18699 28.40939 -0.00225
C 23.40481 27.72711 0.00071
C 23.32201 26.24634 -0.01107
C 20.83106 0.74443 -0.03213
C 24.5301 21.16241 -0.01154
C 24.42951 19.72865 0.00684
C 25.76405 19.06654 -0.01052
C 27.07307 16.89397 0.02611
C 28.20429 15.09958 0.02198
C 28.28937 6.37046 0.01094
C 28.32212 5.02559 0.00235
C 27.13829 4.25118 0.01495
C 27.16189 2.88868 0.01259
C 28.35848 2.14227 0.01799
C 28.2411 0.74791 0.01699
C 28.19975 17.77665 -0.00621
C 27.02882 0.05111 -0.00416
C 30.75259 32.04266 0.04266
C 30.70791 30.62889 0.01324
C 29.49234 29.89734 0.0014
C 29.49621 28.45806 0.00924
C 30.70752 27.71738 0.02326
C 30.56882 26.29965 0.00261
C 29.39098 25.56411 0.03265
C 29.36901 24.07984 -0.02049
C 29.45488 32.72306 0.01177
C 3.58274 31.95693 0.01227
C 28.23705 19.20659 0.00194
C 26.90386 21.27944 0.02316
C 25.88061 17.63238 -0.01679
C 25.79511 4.80517 0.00367
C 24.71269 4.24935 0.04306
C 24.5933 2.85958 0.00996
C 25.87794 2.13312 0.00195
C 25.81289 0.78795 -0.00802
C 24.64112 0.02278 -0.00218
C 27.01478 32.71224 -0.01654
C 26.9327 19.85753 0.04185
C 28.23548 31.97498 -0.00037
C 27.0159 29.86727 0.00622
C 26.97947 28.41463 -0.02815
C 28.24549 27.73273 -0.00942
C 28.2006 26.24541 0.00487
C 27.00804 25.50772 0.00826
C 26.96584 24.08562 -0.00294
C 28.19361 23.33744 0.00152
C 28.18778 21.98126 0.01257
C 28.28521 30.60591 -0.0032
C 2.3375 32.61611 -0.03337
