317
Graphene
C 0.01965 0.03724 0.01295
C 18.49144 21.9563 -0.00491
C 17.12742 21.36101 0.03338
C 17.17172 19.94558 -0.0258
C 18.47916 19.13818 -0.0331
C 18.52657 17.8157 -0.00316
C 17.25614 4.25593 0.02188
C 17.16308 2.84754 -0.01979
C 18.42802 2.0769 0.02691
C 18.43115 0.58319 -0.01581
C 17.20333 34.03046 0.01452
C 19.79043 32.68596 0.04892
C 20.95364 31.88337 -0.00111
C 20.99263 30.50425 -0.03557
C 19.71962 29.82228 0.03754
C 19.6343 28.47681 0.01739
C 18.45546 23.3585 -0.00109
C 17.17972 24.03486 0.03698
C 17.16852 25.49495 -0.02213
C 18.51833 26.16683 0.00028
C 15.90696 23.33723 -0.03113
C 15.93578 22.14175 0.02098
C 16.06321 19.06294 0.01848
C 15.84421 17.82241 -0.00619
C 14.68377 17.19776 -0.02162
C 14.80513 4.30174 0.00889
C 14.79376 2.91898 -0.00481
C 20.92401 27.72976 0.00755
C 15.99927 2.13661 0.00979
C 14.73965 0.03825 0.03505
C 17.23199 32.63843 -0.02815
C 18.49715 32.00413 -0.04147
C 18.48108 30.6268 -0.05302
C 17.22342 29.8449 0.00213
C 17.197 28.44593 -0.00066
C 18.47204 27.61581 -0.00289
C 15.99191 0.70213 0.01443
C 20.93259 26.328 -0.0054
C 19.81152 25.49726 0.00667
C 19.65571 24.0524 0.00143
C 22.13695 24.19047 0.00096
C 23.35013 23.3654 -0.01527
C 23.28684 21.98735 0.01087
C 22.12784 21.27654 0.00199
C 22.23171 19.8847 0.01511
C 23.37006 19.18674 -0.00478
C 23.36374 17.76227 -0.01662
C 22.10096 25.65142 0.01277
C 22.04681 17.12741 -0.01185
C 23.34869 6.26866 0.01852
C 23.34422 4.93043 -0.00381
C 22.12097 4.31818 0.03046
C 22.1198 2.81901 0.0296
C 23.34639 2.14656 0.03374
C 23.33478 0.74199 -0.02845
C 22.14299 34.05756 -0.03213
C 23.44749 14.97842 0.01126
C 14.66417 25.53793 0.0351
C 23.38498 26.27824 -0.02422
C 22.1368 28.39047 -0.01154
C 20.93418 23.38193 -0.017
C 20.86434 21.97261 0.00364
C 19.66961 21.24957 -0.00831
C 19.72401 19.83606 -0.02957
C 20.93941 19.14633 -0.04422
C 20.9284 17.76812 0.00654
C 20.78176 4.88207 -0.00703
C 23.3262 27.70545 -0.01721
C 19.63176 4.34906 -0.04076
C 20.89573 2.17154 0.0058
C 20.90092 0.73046 -0.00865
C 19.71913 34.02999 0.00675
C 22.1764 32.64058 -0.00311
C 23.39245 31.97631 0.00742
C 23.36986 30.58777 -0.01594
C 22.20092 29.84253 0.0106
C 19.65303 2.87334 -0.00652
C 15.97806 26.17127 0.00422
C 15.92797 27.66951 0.00798
C 14.74309 28.38574 0.00228
C 4.94596 32.70206 0.01364
C 6.11238 31.94256 -0.01062
C 6.10831 30.56114 -0.00033
C 4.89181 29.80389 0.03589
C 4.81992 28.33459 -0.02759
C 6.07202 13.47341 0.0402
C 4.93098 12.82508 0.00572
C 2.52319 34.06435 -0.00719
C 4.91531 11.32619 0.03592
C 4.87291 8.37354 0.00943
C 4.85902 7.14513 0.02841
C 6.24446 4.87973 -0.01111
C 4.83512 4.26116 -0.01275
C 4.91827 2.83828 0.00985
C 6.21604 2.16681 -0.02245
C 6.1148 0.77613 -0.00428
C 6.21349 10.64496 0.00406
C 4.88664 0.04845 0.03101
C 3.67312 0.77648 0.01641
C 3.6984 5.05687 -0.00334
C 3.66703 30.46396 0.03693
C 2.43825 29.83846 0.01745
C 2.40248 28.41398 0.00488
C 3.67686 27.72905 -0.01004
C 2.47289 25.60428 -0.02896
C 2.44943 17.10401 -0.00131
C 2.52714 15.5924 -0.01118
C 3.70427 2.1576 0.02339
C 3.70765 14.89295 -0.014
C 2.46559 12.84073 0.00373
C 2.40004 11.44698 -0.00191
C 3.66475 10.6872 0.00438
C 3.71395 9.21147 0.01291
C 2.43452 8.49281 0.00093
C 2.41022 7.13598 0.00057
C 3.72259 6.33231 -0.01634
C 3.75226 13.55132 0.02147
C 24.58435 32.65928 0.02239
C 7.45661 32.65317 -0.01536
C 8.63617 30.52994 -0.01046
C 9.76357 34.04798 0.02299
C 12.247 32.74693 0.00244
C 13.52987 31.96525 -0.01717
C 13.5626 30.51392 0.05265
C 12.29536 29.80917 -0.01952
C 12.34847 28.41516 -0.02813
C 13.42579 27.59443 0.00374
C 11.09854 0.6931 0.03542
C 13.49373 26.10558 0.00052
C 13.47942 2.24375 0.01965
C 13.46707 0.77644 0.02058
C 12.28196 0.02822 -0.01957
C 14.80388 32.69152 -0.0108
C 16.00094 31.85776 -0.00368
C 16.03132 30.53582 -0.02696
C 14.80006 29.85436 -0.00114
C 12.29708 2.88599 -0.03682
C 8.60239 31.93326 -0.02689
C 11.01846 2.12869 0.01416
C 9.8342 12.85413 -0.01454
C 7.42516 29.78233 -0.00891
C 7.41095 28.37318 0.02819
C 8.68442 13.45016 0.00165
C 7.3775 12.92445 -0.02971
C 7.20961 11.34998 0.02894
C 7.36354 4.28888 -0.01789
C 7.47163 2.85518 0.00444
C 9.83324 2.88557 0.01945
C 8.57994 2.03386 -0.00925
C 7.34652 34.05299 0.01363
C 9.76604 32.67966 -0.02162
C 11.00733 31.88739 0.00415
C 11.06974 30.52614 -0.0014
C 9.84543 29.8108 0.02162
C 9.81587 28.4659 0.0076
C 11.0531 13.32196 0.01241
C 8.58373 0.69397 0.01877
C 3.6828 31.97582 -0.01384
C 25.81645 31.94864 0.01153
C 24.56738 29.81353 -0.0055
C 31.99771 24.14435 0.03794
C 33.24377 23.47008 0.01927
C 33.1969 22.04327 0.01574
C 31.92442 21.35302 -0.02383
C 32.0169 19.89332 -0.01429
C 33.22257 19.22755 -0.0136
C 33.22998 17.80156 0.00594
C 32.00962 17.09873 -0.02474
C 31.94502 15.72704 0.00369
C 33.17961 14.95707 0.00455
C 33.19905 13.507 -0.00644
C 31.91166 12.77502 -0.01839
C 31.96794 11.39525 0.00137
C 33.20412 10.64138 0.00199
C 33.23147 9.19321 0.04381
C 31.91871 25.60293 -0.01779
C 33.16775 26.33152 0.00682
C 33.22565 27.71786 0.00026
C 31.92588 28.38971 0.0544
C 29.47195 11.38684 -0.02155
C 30.7365 10.63933 -0.00944
C 30.75611 9.18305 -0.03735
C 29.4712 8.58106 -0.00971
C 29.49491 7.14775 0.01518
C 30.7835 6.4479 0.01908
C 30.75691 4.92145 0.07705
C 31.96091 8.54785 0.02806
C 29.4695 4.26886 0.0103
C 30.74617 2.1527 0.00716
C 30.69321 0.7468 0.00307
C 29.41169 0.02176 0.00346
C 31.91131 32.65346 0.01713
C 33.14054 31.90136 -0.01694
C 33.2018 30.55493 0.01428
C 31.91075 29.8148 -0.02142
C 29.50508 2.8624 0.02108
C 31.99736 7.08618 0.01504
C 33.18769 6.38805 -0.00069
C 33.20267 5.00122 0.04926
C 0.01373 17.04911 0.00648
C 0.02564 15.66713 0.02114
C 1.20287 14.89005 -0.02957
C 1.21364 13.49399 0.00343
C 34.41078 12.8063 -0.02656
C 34.35901 11.39648 -0.02442
C 1.26031 10.65699 -0.00027
C 1.27288 17.7294 0.01223
C 1.27835 9.21493 -0.00583
C 34.40452 7.10178 -0.02849
C 1.2208 6.38859 0.02931
C 1.24642 4.99667 0.00628
C 0.01112 4.26022 -0.0345
C 0.0273 2.79032 -0.00931
C 1.24229 2.14226 -0.00939
C 1.31834 0.80369 -0.00468
C 0.01323 8.45421 -0.02302
C 29.55882 12.75418 -0.01461
C 1.23984 19.20528 -0.01678
C 34.43248 21.3304 -0.02213
C 31.97659 4.22873 -0.03838
C 31.93403 2.81887 0.00349
C 33.24798 2.05132 -0.00323
C 33.17005 0.6529 -0.00841
C 31.89079 0.00709 0.0001
C 34.38732 32.6403 -0.02927
C 1.16831 31.97657 -0.01404
C 0.01632 19.90329 0.01951
C 1.22296 30.48536 0.01027
C 0.04255 28.37467 -0.01037
C 1.21935 27.7495 -0.00439
C 1.31422 26.23943 -0.00598
C 34.40703 25.49375 -0.05239
C 0.05304 24.15772 0.03076
C 1.27728 23.32741 0.00723
C 1.15191 22.12047 0.02712
C 0.02534 29.80876 0.01831
C 30.72808 13.52396 -0.01303
C 30.73143 14.93988 -0.0405
C 29.54821 15.66711 0.01705
C 24.512 7.10109 -0.00285
C 25.88896 6.4323 -0.009
C 25.77904 5.00896 -0.01199
C 24.62397 4.25179 -0.00229
C 24.57948 2.83307 -0.00938
C 25.89338 2.18811 -0.0264
C 25.85458 0.7307 -0.01154
C 24.56748 8.44754 0.01423
C 24.60685 0.07059 0.00684
C 28.26615 31.9926 -0.01679
C 28.31469 30.58557 0.00367
C 26.98098 29.73771 0.04306
C 27.02052 28.36911 0.00996
C 28.27202 27.68292 0.00195
C 28.34696 26.26509 -0.00802
C 26.98438 25.52692 -0.00218
C 27.02114 32.67344 -0.01052
C 27.01349 24.1041 -0.01654
C 25.77493 9.18867 0.02555
C 24.60795 11.39528 0.00135
C 24.56654 28.45161 0.01515
C 25.79564 27.75685 -0.00225
C 25.80846 26.2729 0.00071
C 24.57876 25.54872 -0.01107
C 24.5178 24.10741 -0.01586
C 25.74812 23.43921 -0.01971
C 25.80445 22.04557 -0.02118
C 25.83494 10.56438 0.03102
C 24.59819 21.2751 0.00733
C 25.7983 19.22627 0.00768
C 25.8082 17.78594 -0.0276
C 24.58527 17.14388 0.03005
C 24.54959 15.6702 -0.04078
C 25.79336 14.92857 0.02117
C 25.81467 13.54776 0.02737
C 24.64823 12.70157 -0.00498
C 24.58703 19.90966 -0.00178
C 25.80994 30.4904 0.02734
C 28.24612 23.40183 -0.00037
C 27.03256 21.32311 0.00622
C 29.50936 32.72599 0.01177
C 30.71642 31.89209 0.04266
C 30.72862 30.46385 0.01324
C 29.43835 29.80953 0.0014
C 29.51926 28.41673 0.00924
C 30.76372 27.66761 0.02326
C 30.67487 26.19575 0.00261
C 27.02032 34.06251 -0.00416
C 29.50422 25.51296 0.03265
C 30.73353 23.39155 -0.01854
C 30.7325 22.02839 -0.01415
C 29.53731 21.24359 -0.03039
C 29.52947 19.86119 0.01836
C 30.79617 19.17223 0.03531
C 30.71281 17.73674 -0.00669
C 29.52365 16.99775 0.0101
C 29.48927 24.1019 -0.02049
C 28.24708 21.96955 -0.0032
C 28.25784 0.71234 0.01699
C 27.09155 2.80947 0.01259
C 27.00954 19.94006 -0.02815
C 28.1838 19.15385 -0.00942
C 28.19177 17.70897 0.00487
C 27.02886 16.98597 0.00826
C 26.99184 15.59535 -0.00294
C 28.32996 14.90193 0.00152
C 28.30281 13.45917 0.01257
C 28.21221 2.12983 0.01799
C 26.98687 12.70968 0.02316
C 28.30299 10.64919 0.00194
C 28.27506 9.22627 -0.00621
C 27.09211 8.4456 0.02611
C 27.13696 7.05165 0.02198
C 28.33718 6.36442 0.01094
C 28.24529 4.96626 0.00235
C 27.08292 4.20119 0.01495
C 27.00574 11.30551 0.04185
C 2.43465 32.70458 -0.00482
