376
Graphene
C 34.36334 0.05905 0.01295
C 9.83384 7.11865 0.03542
C 11.08386 6.44919 0.02299
C 11.08869 5.03121 0.00244
C 9.87259 4.29989 -0.01717
C 9.87473 2.86556 0.05265
C 11.07195 2.09755 -0.01952
C 11.04727 0.66144 -0.02813
C 9.75816 0.02061 0.00374
C 12.30123 32.59404 0.00052
C 13.49243 31.90948 -0.03682
C 13.55645 30.52407 0.01965
C 12.37066 29.83106 0.02058
C 12.38814 28.3667 -0.01957
C 13.60704 27.69959 -0.0108
C 13.51594 26.24361 -0.00368
C 12.32346 25.5433 -0.02696
C 12.27069 24.091 -0.00114
C 13.47492 23.26979 0.00228
C 13.47512 21.9161 0.00798
C 9.8276 8.45387 0.01416
C 11.027 9.22164 0.01945
C 11.01844 10.70696 -0.01454
C 9.8052 11.36462 0.01241
C 9.77556 32.67057 -0.00428
C 10.98285 31.95386 0.03101
C 11.13165 30.55737 -0.01536
C 9.85654 29.89018 -0.02689
C 9.88419 28.42294 -0.01046
C 11.09368 27.69927 -0.00891
C 11.11311 26.28022 0.02819
C 9.84119 25.67234 0.00165
C 9.83584 24.26549 -0.02971
C 12.34198 21.23945 0.00422
C 11.01888 23.50942 0.02894
C 9.90275 21.30996 0.00444
C 9.94486 19.86013 -0.00925
C 11.25163 19.11083 0.01877
C 11.13184 17.69436 0.01363
C 9.89025 17.08222 -0.02162
C 9.85806 15.56869 0.00415
C 10.98156 14.87136 -0.0014
C 11.08012 13.50293 0.02162
C 9.77246 12.80147 0.0076
C 11.06676 22.04532 -0.01789
C 7.3328 0.00788 -0.02245
C 12.32731 19.95689 0.0351
C 12.37323 11.4732 0.02098
C 14.73543 8.51158 -0.01979
C 14.78172 7.03422 0.02691
C 15.97666 6.37999 -0.01581
C 15.95207 4.93618 0.01452
C 14.74018 4.30322 0.04892
C 14.69607 2.81911 -0.00111
C 15.99293 2.1385 -0.03557
C 16.07405 0.69289 0.03754
C 14.7804 0.06963 0.01739
C 17.22998 32.58035 0.00755
C 18.45527 31.92242 -0.0054
C 18.46814 30.5059 0.00667
C 17.2168 29.80821 0.00143
C 17.21102 28.35425 -0.017
C 18.43903 27.60663 0.00364
C 18.45779 26.2185 -0.00831
C 17.22779 25.55329 -0.02957
C 17.1906 24.1226 -0.04422
C 18.36368 23.44681 0.00654
C 15.89168 9.22429 0.02188
C 14.82305 21.4613 -0.00316
C 15.80633 22.09884 -0.0331
C 15.93523 23.42354 -0.0258
C 13.54039 10.60923 0.01848
C 13.52777 9.23101 -0.00619
C 12.27759 8.57218 -0.02162
C 12.31997 7.18241 0.00889
C 13.53912 6.3876 -0.00481
C 13.55042 4.97281 0.00979
C 12.27034 4.21469 0.01443
C 12.29688 2.81362 0.03505
C 13.48968 2.12051 -0.02815
C 12.29623 12.86973 -0.03113
C 13.50391 0.68859 -0.04147
C 14.72694 32.73731 0.00213
C 15.93461 31.93722 -0.00066
C 15.99332 30.49691 -0.00289
C 14.75063 29.80626 0.00028
C 14.79101 28.39894 -0.02213
C 15.97228 27.61932 0.03698
C 15.96939 26.23615 -0.00109
C 14.7024 25.52705 -0.00491
C 14.67638 24.0432 0.03338
C 12.27567 33.97034 -0.05302
C 18.45926 9.09915 -0.00703
C 8.55354 0.73642 0.00985
C 7.42592 2.86129 -0.01111
C 3.68354 4.99355 0.0276
C 2.4339 4.25931 0.01305
C 2.48564 2.83368 -0.00077
C 3.65721 2.17285 0.03368
C 3.60391 0.79544 -0.02929
C 2.46366 0.00585 -0.00966
C 4.82087 32.71406 -0.03337
C 6.06004 31.9942 0.01227
C 6.09388 30.56236 0.00873
C 4.97144 29.8503 -0.00049
C 4.94164 28.44738 0.00848
C 6.16903 27.7526 -0.01303
C 6.17255 26.26856 -0.01378
C 4.91916 25.64701 0.02635
C 4.8932 24.19937 0.0127
C 6.16954 23.53754 0.01396
C 6.12049 22.06034 0.01849
C 4.88569 21.27806 -0.01142
C 4.98311 19.88655 -0.00562
C 3.72522 6.42797 0.00988
C 2.44244 7.13424 -0.01343
C 2.44954 8.47953 0.01087
C 3.66695 9.25731 -0.05697
C 3.70058 30.5052 0.02374
C 2.44939 29.82428 0.00402
C 2.36675 28.41092 0.0073
C 3.65972 27.77936 0.0174
C 3.73898 26.3567 0.03828
C 2.46173 25.5833 0.01226
C 2.5028 24.08 -0.00279
C 3.67267 23.39203 0.01996
C 3.62886 21.94188 -0.03996
C 6.23824 19.18092 -0.00494
C 2.33084 21.22357 0.01465
C 3.64219 19.21846 -0.00518
C 3.65234 17.81333 0.0086
C 2.46939 17.12569 -0.00643
C 2.49155 15.61584 0.017
C 3.67437 14.90434 -0.03113
C 3.71594 13.48008 -0.02566
C 2.49631 12.83748 -0.00094
C 2.47272 11.43814 0.02322
C 3.62574 10.73641 -0.00725
C 2.38726 19.8602 -0.00074
C 8.66255 2.10526 -0.01275
C 6.18526 17.68795 0.00054
C 4.89406 15.60997 -0.00095
C 8.67883 23.522 0.01291
C 8.6184 22.06354 0.00093
C 7.39135 21.36347 0.00057
C 7.46155 19.86594 -0.01634
C 8.67922 19.16602 -0.00334
C 8.64284 17.72102 0.02339
C 7.39855 16.985 0.01641
C 7.33197 15.57572 -0.00719
C 8.5803 14.85007 0.01364
C 8.55823 13.42633 -0.01062
C 7.32734 12.79295 -0.00033
C 7.33157 11.39684 0.03589
C 8.5614 10.68142 -0.02759
C 8.56719 9.21602 0.0402
C 7.34726 8.58381 0.00572
C 7.40256 7.12001 0.03592
C 8.6269 6.4013 0.00406
C 8.62557 4.99939 0.00943
C 7.37963 4.27306 0.02841
C 7.34999 24.22993 0.00438
C 7.39526 25.60868 -0.00191
C 8.60789 26.33702 0.00373
C 8.6785 27.76269 0.02147
C 6.15846 14.91136 0.01572
C 6.20819 13.57405 -0.04848
C 4.94367 12.87861 -0.00892
C 4.87812 11.44874 -0.01362
C 6.07508 10.71497 -0.0008
C 6.07781 9.32895 0.0288
C 4.88735 8.55031 0.00393
C 4.8999 7.14753 0.00895
C 6.13512 6.41974 0.00685
C 4.9179 17.04951 0.03007
C 6.10813 5.01019 0.02888
C 4.92056 2.87653 -0.01384
C 6.13329 2.16055 0.03693
C 6.102 0.76188 0.01745
C 4.85235 0.0327 0.00488
C 7.35761 32.68421 -0.01004
C 8.548 31.96428 -0.02896
C 8.57558 30.55887 -0.00131
C 7.33556 29.93509 -0.01118
C 7.47335 28.46263 -0.014
C 4.87493 4.31324 -0.00482
C 17.11371 8.65542 -0.04076
C 17.16312 7.08597 -0.00652
C 18.42538 6.38683 0.0058
C 30.70374 2.18676 0.00716
C 30.63539 0.76914 0.00307
C 29.45127 34.05403 0.00346
C 31.94955 32.64669 0.01713
C 33.15628 31.98433 -0.01694
C 33.20575 30.57506 0.01428
C 31.99256 29.77967 -0.02142
C 31.96085 28.36701 0.0544
C 33.21629 27.708 0.00026
C 33.21904 26.31635 0.00682
C 31.97246 25.62116 -0.01779
C 31.97705 24.15667 0.03794
C 33.14525 23.43241 0.01927
C 33.12972 22.03442 0.01574
C 31.89056 21.32376 -0.02383
C 31.94591 19.88961 -0.01429
C 33.19402 19.17139 -0.0136
C 33.25681 17.7236 0.00594
C 32.04113 16.90819 -0.02474
C 29.49094 2.8701 0.02108
C 29.50388 4.34468 0.0103
C 30.75071 4.96204 0.07705
C 30.6764 6.28894 0.01908
C 28.21947 0.69457 0.02326
C 27.02333 0.04428 0.00261
C 29.53169 32.63563 0.03265
C 30.74294 31.91347 -0.02049
C 30.76589 30.43595 -0.01854
C 29.53115 29.82633 -0.01415
C 29.52211 28.427 -0.03039
C 30.7349 27.68197 0.01836
C 30.69566 26.22537 0.03531
C 31.96754 15.52625 0.00369
C 29.45408 25.53623 -0.00669
C 30.7654 23.46563 0.01705
C 30.67877 22.03364 -0.0405
C 29.52625 21.2826 -0.01303
C 29.52729 19.85387 -0.01461
C 30.72542 19.14317 -0.02155
C 30.84927 17.70893 -0.00944
C 29.6248 16.96438 -0.03735
C 29.75642 15.57795 -0.00971
C 30.68175 14.82459 0.01518
C 29.53551 24.11305 0.0101
C 28.3333 2.0892 0.00924
C 33.24734 14.91338 0.00455
C 32.02615 12.7546 -0.01839
C 34.40375 19.90425 0.01951
C 1.15665 19.17595 -0.01678
C 1.21174 17.81083 0.01223
C 0.03218 17.11303 0.00648
C 0.01055 15.66867 0.02114
C 1.25278 14.97685 -0.02957
C 1.23217 13.53351 0.00343
C 34.4179 12.86371 -0.02656
C 0.03948 11.37324 -0.02442
C 1.26424 10.61378 -0.00027
C 1.23492 9.22987 -0.00583
C 34.41293 8.53553 -0.02302
C 34.39716 7.13711 -0.02849
C 1.22272 6.40187 0.02931
C 1.18774 4.91049 0.00628
C 34.37164 4.24046 -0.0345
C 0.01847 2.80636 -0.00931
C 1.22202 2.08471 -0.00939
C 1.22531 0.68837 -0.00468
C 34.36771 21.31544 -0.02213
C 1.15049 21.97537 0.02712
C 1.18742 23.3874 0.00723
C 34.38561 24.11593 0.03076
C 32.00387 11.53853 0.00137
C 33.17538 10.73542 0.00199
C 33.16914 9.26359 0.04381
C 32.02806 8.51945 0.02806
C 31.79749 7.13775 0.01504
C 33.13792 6.41854 -0.00069
C 33.17868 4.99606 0.04926
C 32.01133 4.25112 -0.03838
C 31.9649 2.79648 0.00349
C 33.12158 13.50519 -0.00644
C 33.21275 2.18484 -0.00323
C 31.87993 0.04605 0.0001
C 34.40554 32.73148 -0.02927
C 1.18883 31.99243 -0.01404
C 1.25515 30.58377 0.01027
C 0.03234 29.86092 0.01831
C 0.00239 28.38598 -0.01037
C 1.17688 27.67114 -0.00439
C 1.19991 26.21475 -0.00598
C 34.39614 25.51792 -0.05239
C 33.16285 0.8029 -0.00841
C 27.0909 2.71512 0.0014
C 27.00879 4.26099 0.01324
C 28.2227 4.90731 0.04266
C 19.67739 2.79431 -0.02845
C 20.91274 2.12492 -0.03213
C 20.86585 0.62091 0.02239
C 19.65851 34.01473 0.01153
C 22.14159 32.64859 0.02734
C 23.32047 31.95048 -0.0055
C 23.3339 30.48787 0.01515
C 22.14469 29.76302 -0.00225
C 22.20125 28.3152 0.00071
C 23.39553 27.6864 -0.01107
C 23.3871 26.24007 -0.01586
C 22.19864 25.44876 -0.01971
C 22.12399 24.05586 -0.02118
C 23.34418 23.35618 0.00733
C 23.36858 21.9806 -0.00178
C 22.11839 21.32389 0.00768
C 23.28105 19.2693 -0.0276
C 21.93337 11.4659 0.03005
C 21.8715 8.4246 -0.04078
C 19.60549 4.2547 0.03374
C 20.85057 4.93406 0.0296
C 20.90605 6.36883 0.03046
C 19.70276 7.07181 -0.00381
C 18.34266 4.9315 -0.00865
C 17.10531 4.20501 0.00675
C 17.21909 2.76616 -0.00311
C 18.45182 2.05643 0.00742
C 18.44146 0.68524 -0.01594
C 17.27575 33.99166 0.0106
C 19.69311 32.6131 -0.01154
C 20.92805 31.88362 -0.01721
C 20.93713 30.46981 -0.02422
C 22.26692 7.09826 0.02117
C 19.68624 29.78901 0.01277
C 20.99225 27.58626 -0.01527
C 20.96461 26.18855 0.01087
C 19.70645 25.509 0.00199
C 19.62425 24.05321 0.01511
C 20.84515 23.34052 -0.00478
C 21.07761 21.89979 -0.01662
C 21.02659 10.56557 -0.01185
C 20.83175 9.28064 0.01126
C 19.58841 8.52237 0.01852
C 19.74212 28.37151 0.00096
C 23.44864 6.4416 0.02737
C 23.34203 5.07441 -0.00498
C 22.12292 4.30805 0.00135
C 25.82164 2.11128 -0.00942
C 25.77811 0.69203 0.00487
C 24.53172 34.06604 0.00826
C 26.99367 32.69118 -0.00294
C 28.24414 32.03052 0.00152
C 28.23527 30.5585 0.01257
C 27.02483 29.85756 0.02316
C 27.05882 28.39199 0.04185
C 28.33592 27.71132 0.00194
C 24.58402 2.8593 -0.02815
C 28.29304 26.25297 -0.00621
C 27.1277 24.16592 0.02198
C 28.29707 23.42283 0.01094
C 28.2513 22.00267 0.00235
C 27.09258 21.30944 0.01495
C 27.02075 19.84565 0.01259
C 28.31317 19.21418 0.01799
C 28.41003 17.80317 0.01699
C 27.0685 17.04569 -0.00416
C 27.05557 15.70434 0.01177
C 27.06793 25.56013 0.02611
C 3.65492 31.94643 0.03267
C 24.58569 4.31114 0.00622
C 24.45871 15.80989 -0.00037
C 22.15737 2.88958 0.03102
C 23.37862 2.11819 0.02555
C 23.30655 0.65635 0.01423
C 22.02279 34.03274 -0.00285
C 24.52399 32.659 -0.009
C 25.72713 32.02908 -0.01199
C 25.7907 30.52911 -0.00229
C 24.51654 29.79295 -0.00938
C 24.65485 28.36799 -0.0264
C 25.73235 4.91814 -0.0032
C 25.8108 27.59556 -0.01154
C 24.60103 25.53987 -0.01052
C 24.5224 24.10442 -0.01679
C 25.89338 23.49898 0.00367
C 25.84 22.05569 0.04306
C 24.65642 21.34715 0.00996
C 24.53316 19.83263 0.00195
C 25.82694 19.16202 -0.00802
C 25.74805 17.7403 -0.00218
C 24.53291 16.99789 -0.01654
C 25.85198 26.17759 0.00684
C 2.4374 32.65172 -0.01509
