386
Graphene
C 34.39723 0.06951 0.01295
C 12.10074 24.31718 -0.0014
C 13.2777 23.52891 0.02162
C 13.69822 22.15791 0.0076
C 14.02741 18.78018 0.01241
C 13.77407 8.90647 -0.01454
C 12.37801 8.56068 0.01945
C 12.34919 7.15594 0.01416
C 13.54257 6.34942 0.03542
C 13.44862 4.83134 0.02299
C 12.14513 25.63999 0.00415
C 12.2615 4.25584 0.00244
C 13.52455 2.07492 0.05265
C 13.55935 0.63558 -0.01952
C 12.27783 0.00122 -0.02813
C 14.75566 32.64196 0.00374
C 16.11144 31.89581 0.00052
C 16.0164 30.4644 -0.03682
C 14.76648 29.83062 0.01965
C 14.76454 28.41175 0.02058
C 15.92519 27.66947 -0.01957
C 12.23239 2.82078 -0.01717
C 15.94127 26.26545 -0.0108
C 13.48562 26.2798 -0.02162
C 12.23675 28.45442 0.01877
C 9.99196 15.94837 0.00406
C 11.04528 14.93663 0.00943
C 10.96653 13.66741 0.02841
C 9.83988 12.86613 -0.01111
C 9.91594 11.37502 -0.01275
C 11.12257 10.6159 0.00985
C 11.10045 9.23794 -0.02245
C 9.82694 8.59311 -0.00428
C 9.89151 7.10251 0.03101
C 13.5119 27.68264 0.01363
C 11.17408 6.41351 -0.01536
C 9.76983 4.28362 -0.01046
C 9.7972 2.86997 -0.00891
C 11.03748 2.14308 0.02819
C 11.03908 0.71469 0.00165
C 9.82805 0.0848 -0.02971
C 12.32626 32.66522 0.02894
C 13.47939 31.9001 -0.01789
C 13.49364 30.4848 0.00444
C 12.21566 29.83483 -0.00925
C 11.08318 5.04779 -0.02689
C 9.92417 17.47143 0.03592
C 14.72101 25.49576 -0.00368
C 15.87949 23.51579 -0.00114
C 17.12036 4.56785 -0.00491
C 17.19555 3.02006 0.03338
C 18.33983 2.19364 -0.0258
C 18.4152 0.63872 -0.0331
C 17.22338 33.92591 -0.00316
C 19.64893 32.61112 0.02188
C 20.8392 31.87929 -0.01979
C 20.89093 30.46327 0.02691
C 19.59958 29.71165 -0.01581
C 18.51672 5.25227 -0.00109
C 19.67563 28.35104 0.01452
C 20.87351 26.1803 -0.00111
C 19.65269 25.47376 -0.03557
C 19.58767 24.02876 0.03754
C 20.87438 23.44853 0.01739
C 20.96603 22.06757 0.00755
C 19.78287 21.31763 -0.0054
C 20.49014 8.92326 0.00667
C 19.43592 8.25218 0.00143
C 19.25531 6.7155 -0.017
C 20.87025 27.65315 0.04892
C 14.62377 24.09514 -0.02696
C 17.08853 21.37207 0.03698
C 18.42046 23.29203 0.00028
C 16.03682 22.10888 0.00228
C 14.79521 21.36256 0.00798
C 14.57045 19.91469 0.00422
C 14.76684 8.10842 0.0351
C 15.04607 6.57696 -0.03113
C 15.73733 5.22344 0.02098
C 14.74045 4.28367 0.01848
C 14.81293 2.83534 -0.00619
C 16.03537 2.15421 -0.02162
C 18.45703 21.80369 -0.02213
C 16.00125 0.66903 0.00889
C 17.30587 32.5258 0.00979
C 18.4291 31.83613 0.01443
C 18.41596 30.42943 0.03505
C 17.24348 29.73826 -0.02815
C 17.179 28.33318 -0.04147
C 18.48789 27.59888 -0.05302
C 18.4693 26.21723 0.00213
C 17.21418 25.5459 -0.00066
C 17.1851 24.11024 -0.00289
C 14.8387 33.99209 -0.00481
C 11.25313 17.64953 0.00572
C 9.81086 25.58896 0.0402
C 10.93287 26.42864 -0.02759
C 3.60845 4.97702 0.017
C 2.38888 4.30157 -0.03113
C 2.38878 2.845 -0.02566
C 3.64674 2.14126 -0.00094
C 3.59663 0.85269 0.02322
C 2.40034 0.06054 -0.00725
C 4.86142 32.73395 -0.05697
C 6.12135 32.05193 0.01087
C 6.0783 30.60372 -0.01343
C 3.59386 6.39162 -0.00643
C 4.86808 29.90091 0.00988
C 6.12147 27.81215 0.01305
C 6.09236 26.30057 -0.00077
C 4.78438 25.59692 0.03368
C 4.8385 24.12838 -0.02929
C 5.93422 23.32624 -0.00966
C 5.04847 21.64047 -0.03337
C 5.05519 20.171 0.01227
C 6.29754 19.19099 0.00873
C 6.23246 17.87871 -0.00049
C 4.85306 28.4374 0.0276
C 4.95249 17.09318 0.00848
C 2.36558 7.13027 0.0086
C 3.56224 9.27801 -0.00074
C 3.64758 30.61875 -0.04307
C 2.46095 29.89603 0.03189
C 2.4581 28.40699 0.00031
C 3.66225 27.70833 -0.003
C 3.6498 26.2928 0.01402
C 2.41116 25.58677 0.02379
C 2.41683 24.17919 0.00907
C 3.51389 23.40614 0.00643
C 3.70987 22.08468 -0.01509
C 2.39639 8.5607 -0.00518
C 2.42077 21.30547 0.03267
C 3.83202 19.45649 0.00402
C 3.74346 17.88804 0.0073
C 2.54975 17.09851 0.0174
C 2.54336 15.6475 0.03828
C 3.73519 14.98618 0.01226
C 3.78311 13.50469 -0.00279
C 2.47599 12.80998 0.01996
C 2.40425 11.41106 -0.03996
C 3.62506 10.6896 0.01465
C 2.50966 19.88634 0.02374
C 5.03542 15.68025 -0.01303
C 6.33313 15.01573 -0.01378
C 6.17645 13.57423 0.02635
C 8.69675 13.57013 -0.02896
C 7.49426 12.82378 -0.00131
C 7.38682 11.47465 -0.01118
C 8.60865 10.67689 -0.014
C 8.64368 9.32016 0.02147
C 7.40854 8.59953 0.00373
C 7.34015 7.09941 -0.00191
C 8.59946 6.40825 0.00438
C 8.56638 5.00409 0.01291
C 8.78694 15.0586 -0.01004
C 7.35108 4.28408 0.00093
C 8.59399 2.13602 -0.01634
C 8.57615 0.74486 -0.00334
C 7.38101 0.03583 0.02339
C 9.85178 32.72087 0.01641
C 11.03229 32.00908 -0.00719
C 10.96956 30.5967 0.01364
C 9.68313 29.8482 -0.01062
C 9.72625 28.46844 -0.00033
C 11.01574 27.82392 0.03589
C 7.41999 2.91462 0.00057
C 7.56208 15.72044 0.00488
C 7.55338 17.20557 0.01745
C 8.57049 18.07824 0.03693
C 4.95741 12.8203 0.0127
C 4.91279 11.36682 0.01396
C 6.09512 10.65318 0.01849
C 6.14257 9.27904 -0.01142
C 4.86587 8.52898 -0.00562
C 4.82986 7.12354 -0.00494
C 6.05462 6.43027 0.00054
C 6.07763 4.9945 0.03007
C 4.85353 4.32088 -0.00095
C 4.89295 2.82846 0.01572
C 6.15124 2.23142 -0.04848
C 6.11085 0.76757 -0.00892
C 4.84762 0.10401 -0.01362
C 7.35632 32.72394 -0.0008
C 8.59597 32.02247 0.0288
C 8.55718 30.58678 0.00393
C 7.32792 29.86454 0.00895
C 7.35347 28.46665 0.00685
C 8.52789 27.68076 0.02888
C 8.56043 26.22396 -0.00482
C 7.19775 25.54752 -0.01384
C 20.66779 6.35639 0.00364
C 20.74034 4.96908 -0.00831
C 19.52297 4.23099 -0.02957
C 19.61131 2.82048 -0.04422
C 30.57869 4.99878 0.07705
C 29.46291 4.32314 0.0103
C 29.4604 2.82673 0.02108
C 30.72396 2.15514 0.00716
C 30.71901 0.73368 0.00307
C 29.46212 0.01625 0.00346
C 31.95423 32.68611 0.01713
C 33.13957 31.97607 -0.01694
C 33.18287 30.5546 0.01428
C 30.62671 6.36761 0.01908
C 31.92919 29.85827 -0.02142
C 33.10995 27.68412 0.00026
C 33.16296 26.22619 0.00682
C 31.91754 25.57472 -0.01779
C 31.91145 24.17482 0.03794
C 33.0853 23.39336 0.01927
C 33.15494 21.95549 0.01574
C 31.86818 21.28788 -0.02383
C 31.97285 19.91096 -0.01429
C 33.22069 19.20956 -0.0136
C 31.90507 28.4347 0.0544
C 33.24423 17.71319 0.00594
C 29.45221 7.09353 0.01518
C 30.68627 9.14763 -0.03735
C 30.75678 30.50753 0.01324
C 29.4739 29.83353 0.0014
C 29.44031 28.48119 0.00924
C 30.66424 27.75273 0.02326
C 30.67654 26.33894 0.00261
C 29.46736 25.61239 0.03265
C 29.5031 24.18574 -0.02049
C 30.63822 23.46856 -0.01854
C 30.68534 22.0137 -0.01415
C 29.45891 8.48321 -0.00971
C 29.47648 21.25337 -0.03039
C 30.79385 19.20768 0.03531
C 30.81485 17.78131 -0.00669
C 29.55156 17.07604 0.0101
C 29.49302 15.68917 0.01705
C 30.75068 14.91692 -0.0405
C 30.66895 13.44674 -0.01303
C 29.44747 12.74455 -0.01461
C 29.49644 11.3369 -0.02155
C 30.69807 10.64386 -0.00944
C 29.51185 19.9007 0.01836
C 32.01296 17.01821 -0.02474
C 32.03052 15.65709 0.00369
C 33.25002 15.01704 0.00455
C 34.37568 21.27595 -0.02213
C 0.0256 19.92315 0.01951
C 1.26689 19.18791 -0.01678
C 1.31795 17.79465 0.01223
C 0.02538 17.0403 0.00648
C 0.03576 15.65043 0.02114
C 1.25454 14.91726 -0.02957
C 1.30794 13.49818 0.00343
C 0.01584 12.79825 -0.02656
C 1.17724 21.95352 0.02712
C 34.36508 11.38386 -0.02442
C 1.22086 9.24569 -0.00583
C 34.31947 8.47014 -0.02302
C 34.28419 7.10614 -0.02849
C 1.17883 6.43556 0.02931
C 1.17178 5.00687 0.00628
C 34.36955 4.34347 -0.0345
C 34.37088 2.93669 -0.00931
C 1.13532 2.15539 -0.00939
C 1.17941 0.70987 -0.00468
C 1.18394 10.67558 -0.00027
C 1.17481 23.37503 0.00723
C 34.35164 24.1149 0.03076
C 34.38838 25.56899 -0.05239
C 33.25211 13.4964 -0.00644
C 32.02155 12.72868 -0.01839
C 31.97575 11.30262 0.00137
C 33.21437 10.63189 0.00199
C 33.12663 9.18651 0.04381
C 31.84917 8.51127 0.02806
C 31.87112 7.07243 0.01504
C 33.10471 6.42982 -0.00069
C 33.15426 5.00047 0.04926
C 31.88617 4.32068 -0.03838
C 31.94914 2.8195 0.00349
C 33.16207 2.17779 -0.00323
C 33.16505 0.76932 -0.00841
C 31.91903 0.02085 0.0001
C 34.35815 32.73444 -0.02927
C 1.14404 32.00474 -0.01404
C 1.14891 30.57811 0.01027
C 34.41968 29.87802 0.01831
C 34.354 28.37481 -0.01037
C 1.13378 27.73187 -0.00439
C 1.15316 26.31249 -0.00598
C 30.6716 31.94485 0.04266
C 3.64825 31.98216 0.03284
C 29.46185 32.6611 0.01177
C 28.24688 0.75182 0.01699
C 23.16653 6.36928 0.01852
C 23.20912 5.02906 -0.00381
C 21.982 4.31966 0.03046
C 22.07213 2.83028 0.0296
C 23.29264 2.13743 0.03374
C 23.30246 0.69791 -0.02845
C 22.15591 34.0456 -0.03213
C 24.59753 32.55237 0.02239
C 25.83503 31.94222 0.01153
C 21.90572 7.10866 0.01126
C 25.86147 30.48867 0.02734
C 24.60119 28.36346 0.01515
C 25.80078 27.70056 -0.00225
C 25.76674 26.219 0.00071
C 24.51122 25.46143 -0.01107
C 24.50853 24.07157 -0.01586
C 25.82099 23.39232 -0.01971
C 25.8359 21.99677 -0.02118
C 24.61856 21.22396 0.00733
C 24.57958 19.80089 -0.00178
C 24.6171 29.78905 -0.0055
C 25.84917 19.11129 0.00768
C 21.93653 8.48642 -0.01185
C 23.26077 10.62263 -0.00478
C 20.84623 2.06397 0.00654
C 20.91028 0.70256 -0.00703
C 19.67396 34.0102 -0.04076
C 22.07973 32.568 -0.00652
C 23.2717 31.91871 0.0058
C 23.32917 30.5256 -0.00865
C 22.10976 29.78472 0.00675
C 22.09141 28.32263 -0.00311
C 23.358 27.6187 0.00742
C 23.16071 9.2483 -0.01662
C 23.27666 26.23555 -0.01594
C 22.1115 24.0781 -0.01154
C 23.35156 23.4121 -0.01721
C 23.41585 22.01119 -0.02422
C 22.13195 21.35322 0.01277
C 22.15239 19.89549 0.00096
C 23.31526 19.11097 -0.01527
C 23.46252 17.66669 0.01087
C 23.41873 14.89664 0.00199
C 23.49169 13.65171 0.01511
C 22.07077 25.52504 0.0106
C 25.9845 17.70917 -0.0276
C 24.73987 17.05455 0.03005
C 24.71392 15.663 -0.04078
C 28.25056 21.97978 -0.0032
C 27.05442 21.26483 0.00622
C 26.99686 19.88968 -0.02815
C 28.27987 19.18807 -0.00942
C 28.35084 17.77018 0.00487
C 27.1594 16.97767 0.00826
C 27.11502 15.57135 -0.00294
C 28.31284 14.89714 0.00152
C 28.27425 13.49446 0.01257
C 28.31795 23.44341 -0.00037
C 26.94056 12.76696 0.02316
C 28.29805 10.65819 0.00194
C 28.15889 9.22337 -0.00621
C 26.93344 8.48779 0.02611
C 26.91029 7.08284 0.02198
C 28.17532 6.40272 0.01094
C 28.20751 4.97311 0.00235
C 26.95315 4.19222 0.01495
C 26.92806 2.79726 0.01259
C 28.20789 2.19677 0.01799
C 26.9634 11.32113 0.04185
C 27.08123 24.13451 -0.01654
C 26.99947 25.53367 -0.00218
C 28.27969 26.26138 -0.00802
C 25.83887 14.91773 0.02117
C 25.7401 13.44627 0.02737
C 24.61776 12.7363 -0.00498
C 24.50214 11.27333 0.00135
C 25.78244 10.5615 0.03102
C 25.82239 9.22746 0.02555
C 24.44673 8.50407 0.01423
C 24.31893 7.03948 -0.00285
C 25.67297 6.32951 -0.009
C 25.70346 4.96735 -0.01199
C 24.4483 4.29924 -0.00229
C 24.46779 2.8306 -0.00938
C 25.79088 2.08936 -0.0264
C 25.76525 0.65419 -0.01154
C 24.57825 34.01854 0.00684
C 27.09235 32.63371 -0.01052
C 28.24401 31.96812 -0.01679
C 28.33325 30.53617 0.00367
C 27.05171 29.75119 0.04306
C 27.0913 28.3504 0.00996
C 28.30372 27.6653 0.00195
C 27.01753 34.04615 -0.00416
C 2.41428 32.6896 0.04505
