274
Graphene
C 34.36031 0.0633 0.01295
C 12.33893 11.32531 0.01087
C 12.3374 12.84209 -0.01527
C 13.6276 13.53694 0.00096
C 13.50371 14.98785 0.01277
C 12.24143 15.72087 -0.02422
C 9.67053 34.02076 -0.01721
C 10.90661 0.49233 -0.01154
C 11.00631 1.98013 0.0106
C 9.81238 2.7809 -0.01594
C 9.83986 4.26298 0.00742
C 11.11628 4.91115 -0.00311
C 11.10482 6.29565 0.00675
C 9.87597 7.11687 -0.00865
C 9.83309 8.52846 0.0058
C 13.55553 10.66904 0.00199
C 11.08825 9.22458 -0.00652
C 9.81786 11.35638 -0.00703
C 9.79494 12.84869 0.00654
C 11.1037 13.53321 -0.04422
C 11.18039 14.92371 -0.02957
C 9.94289 15.5216 -0.00831
C 9.73182 16.98135 0.00364
C 7.23102 0.09074 -0.017
C 8.4495 0.74843 0.00143
C 8.58143 2.19484 0.00667
C 7.34374 2.89731 -0.0054
C 7.38339 4.29936 0.00755
C 8.66329 4.94854 0.01739
C 8.70176 6.36318 0.03754
C 7.4675 6.99113 -0.03557
C 11.04738 10.66315 -0.04076
C 7.4202 8.52187 -0.00111
C 13.5003 9.27373 0.01511
C 12.31213 7.10547 -0.01662
C 20.87685 0.71937 0.00135
C 20.8731 2.1023 -0.00498
C 19.64111 2.74604 0.02737
C 21.11366 30.5849 0.02117
C 20.87301 31.9472 -0.04078
C 19.5894 32.65408 0.03005
C 17.25164 0.09298 -0.0276
C 18.37597 0.64393 0.00768
C 18.39512 2.16965 -0.00178
C 17.24564 2.91617 0.00733
C 17.29102 4.36219 -0.02118
C 14.83356 0.13909 -0.01971
C 16.02926 0.77519 -0.01586
C 16.04289 2.17304 -0.01107
C 12.31529 8.51774 -0.00478
C 14.78484 2.85668 0.00071
C 16.023 5.01201 0.01515
C 15.9098 6.31183 -0.0055
C 14.81267 7.23619 0.02734
C 14.67331 8.5902 0.01153
C 14.6447 11.5357 0.02239
C 14.83593 12.7767 -0.03213
C 14.72906 15.48826 -0.02845
C 12.25819 34.07408 0.03374
C 13.5378 0.56682 0.0296
C 13.56039 2.03725 0.03046
C 12.27782 2.68646 -0.00381
C 12.30774 4.15443 0.01852
C 13.60658 4.95758 0.01126
C 13.62479 6.39052 -0.01185
C 14.76879 4.2859 -0.00225
C 8.5922 9.20635 0.04892
C 8.62804 10.66777 0.01452
C 7.39158 11.41814 -0.01581
C 2.36107 0.07102 -0.0108
C 3.62471 0.79751 -0.01957
C 3.64841 2.20036 0.02058
C 2.38826 2.95551 0.01965
C 2.44132 4.36261 -0.03682
C 3.67399 4.96368 0.00052
C 3.7618 6.37409 0.00374
C 2.44465 7.19083 -0.02813
C 2.46471 8.57866 -0.01952
C 3.71091 9.24532 0.05265
C 3.65062 10.63051 -0.01717
C 2.42522 11.30109 0.00244
C 2.40248 12.72051 0.02299
C 3.63034 13.50791 0.03542
C 4.89802 32.66309 -0.00368
C 3.6634 14.97745 0.01416
C 2.41114 17.07037 -0.01454
C 3.67976 17.82176 0.01241
C 3.75661 19.1939 0.0076
C 2.45187 19.87642 0.02162
C 2.50093 21.27534 -0.0014
C 3.69405 21.99702 0.00415
C 3.68115 23.33933 -0.02162
C 2.50271 24.15995 0.01363
C 2.45051 25.5763 0.01877
C 3.64179 26.29297 -0.00925
C 3.55623 27.77833 0.00444
C 2.33922 28.48123 -0.01789
C 2.29136 29.9008 0.02894
C 3.55384 30.57459 -0.02971
C 2.39873 15.70814 0.01945
C 6.15876 31.99263 -0.02696
C 5.94719 30.70375 -0.00114
C 4.83488 29.89955 0.00228
C 7.31658 12.82016 0.02691
C 8.54955 13.46291 -0.01979
C 8.60216 14.89126 0.02188
C 7.38998 15.69536 -0.00316
C 7.32753 17.11884 -0.0331
C 8.74451 17.7252 -0.0258
C 7.35716 32.76314 0.03338
C 4.85067 0.02177 -0.00491
C 6.06719 0.80049 -0.00109
C 6.07913 2.21887 0.03698
C 4.90736 2.92548 -0.02213
C 4.9792 4.33028 0.00028
C 6.19359 4.97305 -0.00289
C 6.24288 6.39088 -0.00066
C 4.96334 7.04925 0.00213
C 4.93251 8.52482 -0.05302
C 6.13355 9.2713 -0.04147
C 4.71248 28.4032 0.00798
C 4.86954 25.61321 0.00422
C 4.73002 24.32227 0.0351
C 4.898 21.23225 -0.03113
C 5.14434 19.96224 0.02098
C 6.21254 19.09262 0.01848
C 19.65463 33.99976 0.03102
C 6.13462 17.77353 -0.00619
C 4.8974 15.63699 0.00889
C 6.16079 15.00534 -0.00481
C 6.06719 13.53066 0.00979
C 4.86942 12.81006 0.01443
C 4.83804 11.40337 0.03505
C 6.1133 10.66149 -0.02815
C 4.9014 17.11799 -0.02162
C 22.07667 32.60974 0.02555
C 23.33136 31.92383 0.01423
C 23.33488 30.47349 -0.00285
C 31.85796 4.31393 -0.03838
C 33.09988 5.02753 0.04926
C 33.07707 6.4614 -0.00069
C 31.77037 7.17869 0.01504
C 31.98824 8.51828 0.02806
C 33.18119 9.21497 0.04381
C 33.25873 10.63061 0.00199
C 31.9835 11.42096 0.00137
C 32.05369 12.64267 -0.01839
C 33.30093 13.67575 -0.00644
C 33.17571 14.99823 0.00455
C 31.88393 15.55548 0.00369
C 31.62197 16.93621 -0.02474
C 33.02474 17.74954 0.00594
C 31.95679 2.91167 0.00349
C 33.16245 19.14356 -0.0136
C 31.97448 21.36432 -0.02383
C 33.18032 22.01314 0.01574
C 33.1947 23.47189 0.01927
C 31.94889 24.17533 0.03794
C 31.97608 25.57229 -0.01779
C 33.19538 26.23729 0.00682
C 33.1169 27.69573 0.00026
C 31.95763 28.44851 0.0544
C 31.94772 29.82507 -0.02142
C 33.12628 30.62285 0.01428
C 33.11519 32.01631 -0.01694
C 31.87754 32.76809 0.01713
C 29.46802 0.05553 0.00346
C 30.73773 0.73842 0.00307
C 31.97232 19.93423 -0.01429
C 33.209 2.23327 -0.00323
C 33.16905 0.77623 -0.00841
C 31.91343 0.08452 0.0001
C 1.15864 0.82681 -0.00468
C 1.2047 2.25996 -0.00939
C 0.00905 2.93595 -0.00931
C 34.40119 4.34077 -0.0345
C 1.19099 5.02317 0.00628
C 1.21698 6.41103 0.02931
C 34.36207 7.10013 -0.02849
C 0.01703 8.5203 -0.02302
C 1.2347 9.24021 -0.00583
C 1.20743 10.64845 -0.00027
C 0.0413 11.38673 -0.02442
C 34.4083 12.73374 -0.02656
C 1.19144 13.56064 0.00343
C 1.11336 14.92582 -0.02957
C 34.36356 15.70677 0.02114
C 34.27476 17.0327 0.00648
C 1.12805 17.70904 0.01223
C 34.31712 32.75483 -0.02927
C 1.10942 32.03807 -0.01404
C 1.12446 30.62828 0.01027
C 34.3634 29.82921 0.01831
C 34.35819 28.44525 -0.01037
C 1.13028 27.67587 -0.00439
C 30.70323 2.15278 0.00716
C 1.24601 26.26662 -0.00598
C 0.03837 24.09918 0.03076
C 1.28322 23.41456 0.00723
C 1.20701 21.94045 0.02712
C 34.34905 21.30423 -0.02213
C 34.36286 19.86464 0.01951
C 1.1477 19.16557 -0.01678
C 0.02981 25.55769 -0.05239
C 3.58932 31.9827 0.00165
C 29.5022 2.88337 0.02108
C 30.52119 5.03895 0.07705
C 25.81044 0.8431 -0.00621
C 25.88661 2.32442 0.00194
C 24.61364 2.80645 0.04185
C 24.68393 19.87438 0.02316
C 24.66471 21.28709 0.01257
C 25.82438 21.97893 0.00152
C 25.8943 23.39526 -0.00294
C 24.62895 24.07991 0.00826
C 24.6031 25.50568 0.00487
C 25.83967 26.29155 -0.00942
C 25.84902 27.68899 -0.02815
C 24.57946 28.38241 0.00622
C 24.61846 29.8045 -0.0032
C 25.78949 30.56042 -0.00037
C 24.55593 0.07209 0.02611
C 25.77189 31.93723 -0.01654
C 22.10266 0.03019 -0.00802
C 23.31274 0.80914 0.00195
C 23.32164 2.24143 0.00996
C 22.05753 2.76498 0.04306
C 22.08595 19.70347 0.00367
C 22.37757 20.93932 -0.01679
C 23.42785 21.91576 -0.01052
C 23.36825 23.27378 0.00684
C 22.1758 24.11926 -0.01154
C 22.34029 25.32805 -0.0264
C 23.44991 26.2911 -0.00938
C 23.36834 27.66099 -0.00229
C 22.16826 28.20482 -0.01199
C 22.10952 29.71011 -0.009
C 24.54114 32.70505 -0.00218
C 27.04588 32.70312 0.02198
C 28.2755 31.96561 0.01094
C 28.24511 30.58321 0.00235
C 30.80524 6.3366 0.01908
C 30.6851 17.83172 0.01518
C 30.73711 19.19265 -0.00971
C 29.57263 19.95908 -0.03735
C 29.50285 21.30141 -0.00944
C 30.71479 22.0484 -0.02155
C 30.68981 23.53558 -0.01461
C 29.45625 24.12514 -0.01303
C 29.52412 25.60147 -0.0405
C 30.70836 26.27807 0.01705
C 30.70303 27.75413 0.0101
C 29.50179 28.41871 -0.00669
C 29.46644 29.85088 0.03531
C 30.66996 30.54887 0.01836
C 30.69682 32.06357 -0.03039
C 29.44998 32.78329 -0.01415
C 27.01277 0.09933 -0.01854
C 26.99557 29.79038 0.01495
C 27.05693 28.47107 0.01259
C 28.28055 27.71288 0.01799
C 28.24689 26.25921 0.01699
C 27.02948 25.5958 -0.00416
C 27.06585 24.14462 0.01177
C 29.35992 4.25065 0.0103
C 28.3075 23.37731 0.04266
C 27.04587 21.30568 0.0014
C 27.04556 19.89429 0.00924
C 28.12529 19.38454 0.02326
C 27.1299 2.95297 0.00261
C 28.26542 2.17503 0.03265
C 28.27907 0.74057 -0.02049
C 28.22911 21.98649 0.01324
C 2.40332 32.70325 0.02819
