328
Graphene
C 34.35512 0.02441 0.01295
C 10.96371 6.39391 -0.05302
C 10.95205 4.83908 0.00213
C 9.71569 4.18093 -0.00066
C 9.68484 2.75659 -0.00289
C 10.98394 2.10837 0.00028
C 10.95386 0.70145 -0.02213
C 9.79544 0.03471 0.03698
C 9.83405 7.16123 -0.04147
C 12.3006 32.75027 -0.00109
C 13.49134 30.55673 0.03338
C 12.22768 29.81898 -0.0258
C 12.24671 28.34287 -0.0331
C 13.50173 27.6709 -0.00316
C 13.55271 26.24558 0.02188
C 12.33494 25.53666 -0.01979
C 12.26313 23.97872 0.02691
C 13.53691 31.9767 -0.00491
C 9.83313 8.55879 -0.02815
C 11.24731 9.27988 0.03505
C 11.08565 10.6058 0.01443
C 7.36015 4.26664 -0.01957
C 7.37478 2.86656 -0.0108
C 8.55934 2.04687 -0.00368
C 8.58372 0.63029 -0.02696
C 7.33918 0.01891 -0.00114
C 9.81313 32.65145 0.00228
C 11.05135 31.96306 0.00798
C 10.9733 30.55024 0.00422
C 9.84879 29.78455 0.0351
C 9.85251 28.29623 -0.03113
C 11.07787 27.52144 0.02098
C 11.02651 26.01971 0.01848
C 9.81981 25.37245 -0.00619
C 9.69589 23.93732 -0.02162
C 10.89847 23.37559 0.00889
C 9.69632 12.80286 -0.00481
C 9.94611 11.34659 0.00979
C 13.48729 23.43406 -0.01581
C 8.55767 5.05069 0.02058
C 12.28 8.30483 0.01452
C 13.41357 6.24648 -0.00111
C 15.9632 2.21459 -0.01594
C 15.95481 0.77527 0.0106
C 14.67071 0.06581 -0.01154
C 17.23561 32.71506 -0.01721
C 18.43499 31.97528 -0.02422
C 18.49786 30.5574 0.01277
C 17.26704 29.7705 0.00096
C 14.72047 2.85498 0.00742
C 17.218 28.42921 -0.01527
C 18.4221 26.25919 0.00199
C 17.23316 25.61783 0.01511
C 17.24734 24.02524 -0.00478
C 18.54418 23.49213 -0.01662
C 17.07965 7.08541 -0.01185
C 18.32878 6.51937 0.01126
C 18.3673 5.06413 0.01852
C 18.48729 27.69234 0.01087
C 14.64353 4.23153 -0.00311
C 15.89592 4.98193 0.00675
C 15.87565 6.53214 -0.00865
C 13.38456 4.84091 -0.03557
C 12.19334 4.20886 0.03754
C 12.21343 2.74529 0.01739
C 13.5197 2.13011 0.00755
C 13.53972 0.68617 -0.0054
C 12.26478 0.05965 0.00667
C 14.72481 32.66937 0.00143
C 15.99466 31.9414 -0.017
C 16.02504 30.55903 0.00364
C 14.76289 29.85848 -0.00831
C 14.7049 28.40676 -0.02957
C 15.97239 27.74477 -0.04422
C 16.01162 26.34558 0.00654
C 14.79411 25.5731 -0.00703
C 14.79203 24.0542 -0.04076
C 15.98618 23.47397 -0.00652
C 14.52346 7.11447 0.0058
C 12.19045 6.97634 0.04892
C 17.14136 4.27569 -0.00381
C 8.51836 6.44955 0.01965
C 7.36386 8.5342 0.00052
C 2.28326 8.53044 -0.00191
C 2.32633 7.11478 0.00438
C 3.58733 6.43151 0.01291
C 3.65288 5.00175 0.00093
C 2.33628 4.33323 0.00057
C 2.39524 2.90134 -0.01634
C 3.64121 2.18006 -0.00334
C 3.63058 9.21785 0.00373
C 3.67576 0.74918 0.02339
C 4.91873 32.80574 -0.00719
C 6.08573 32.03293 0.01364
C 6.14293 30.54691 -0.01062
C 4.9558 29.80298 -0.00033
C 4.92638 28.45246 0.03589
C 6.20632 27.72852 -0.02759
C 6.1786 26.33899 0.0402
C 2.44697 0.02772 0.01641
C 3.56131 10.69638 0.02147
C 2.30486 11.40592 -0.014
C 2.37578 12.77071 -0.01118
C 3.6919 30.57614 -0.04848
C 2.41789 29.91145 -0.00892
C 2.48411 28.48144 -0.01362
C 3.67581 27.77446 -0.0008
C 3.69068 26.32199 0.0288
C 2.43144 25.56171 0.00393
C 2.41918 24.19014 0.00895
C 3.66682 23.49303 0.00685
C 3.7421 22.0773 0.02888
C 2.55403 21.42749 -0.00482
C 2.485 19.96088 -0.01384
C 3.72066 19.24615 0.03693
C 3.66957 17.85866 0.01745
C 2.40881 17.08471 0.00488
C 2.45198 15.63125 -0.01004
C 3.62694 14.94553 -0.02896
C 3.54429 13.51313 -0.00131
C 4.91622 25.71968 0.00572
C 7.35705 7.15183 -0.03682
C 4.84946 24.28237 0.03592
C 6.34091 22.15797 0.00943
C 7.35519 32.71149 0.00415
C 8.61932 31.96664 -0.0014
C 8.60108 30.58837 0.02162
C 7.42212 29.82254 0.0076
C 7.48243 28.43176 0.01241
C 8.67075 27.61243 -0.01454
C 8.65533 26.20958 0.01945
C 4.91002 0.11779 -0.02162
C 7.37043 25.5764 0.01416
C 8.34745 23.37344 0.02299
C 7.79869 22.14999 0.00244
C 8.57938 13.29625 -0.01717
C 7.26081 12.77723 0.05265
C 7.29561 11.28179 -0.01952
C 8.55537 10.61405 -0.02813
C 8.60115 9.18074 0.00374
C 7.20262 24.26337 0.03542
C 6.16479 0.7997 0.01363
C 6.15913 2.17206 0.01877
C 4.8725 2.74199 -0.00925
C 5.12712 21.44004 0.02841
C 4.90761 19.96724 -0.01111
C 5.98022 18.98197 -0.01275
C 6.13585 17.81239 0.00985
C 5.02404 17.11522 -0.02245
C 4.94176 15.61317 -0.00428
C 6.16483 14.91763 0.03101
C 6.07273 13.60099 -0.01536
C 4.80896 12.80822 -0.02689
C 4.83296 11.36683 -0.01046
C 6.06242 10.57613 -0.00891
C 6.10495 9.23123 0.02819
C 4.86105 8.51076 0.00165
C 4.83483 7.10564 -0.02971
C 6.06905 6.42109 0.02894
C 6.10786 5.01952 -0.01789
C 4.87105 4.22541 0.00444
C 6.03288 23.53908 0.00406
C 17.13906 2.87777 0.03046
C 18.44915 2.22146 0.0296
C 18.34245 0.78854 0.03374
C 33.13928 26.35342 0.00682
C 31.9156 25.5749 -0.01779
C 31.93891 24.164 0.03794
C 33.21913 23.38803 0.01927
C 33.23209 21.998 0.01574
C 31.98461 21.33473 -0.02383
C 31.96255 19.90052 -0.01429
C 33.10731 27.73171 0.00026
C 33.23619 19.24535 -0.0136
C 31.92981 17.22765 -0.02474
C 32.02548 15.85737 0.00369
C 33.10704 14.96211 0.00455
C 33.01308 13.54361 -0.00644
C 31.84611 12.87434 -0.01839
C 31.60429 11.48389 0.00137
C 32.87508 10.70977 0.00199
C 33.12457 17.85965 0.00594
C 31.94942 28.39515 0.0544
C 31.95824 29.82401 -0.02142
C 33.15421 30.5519 0.01428
C 30.76115 23.46494 -0.0405
C 30.7359 21.98266 -0.01303
C 29.65863 21.21211 -0.01461
C 30.71686 19.18962 -0.02155
C 30.52131 10.57217 -0.00944
C 30.47407 9.23604 -0.03735
C 29.34741 8.39922 -0.00971
C 29.43125 7.04278 0.01518
C 30.67612 6.32881 0.01908
C 30.73432 4.90103 0.07705
C 29.4316 4.1171 0.0103
C 29.50145 2.79038 0.02108
C 30.78928 2.08346 0.00716
C 30.66783 0.68973 0.00307
C 29.43469 34.02391 0.00346
C 31.89577 32.6711 0.01713
C 33.18953 31.98236 -0.01694
C 32.88857 9.30808 0.04381
C 29.54546 24.17784 0.01705
C 31.69702 8.52584 0.02806
C 33.08923 6.42766 -0.00069
C 34.39263 17.19725 0.00648
C 34.35668 15.74619 0.02114
C 1.21029 14.93551 -0.02957
C 1.12309 13.51572 0.00343
C 34.27908 12.75591 -0.02656
C 34.18432 11.39766 -0.02442
C 0.9844 10.6607 -0.00027
C 1.20821 17.80293 0.01223
C 0.94979 9.20237 -0.00583
C 34.24208 7.24535 -0.02849
C 0.96163 6.49738 0.02931
C 1.12909 5.05917 0.00628
C 34.39642 4.26736 -0.0345
C 34.41207 2.88077 -0.00931
C 1.23152 2.13015 -0.00939
C 1.18868 0.67893 -0.00468
C 34.19388 8.62447 -0.02302
C 1.31694 19.25299 -0.01678
C 0.10021 19.92611 0.01951
C 0.10954 21.3465 -0.02213
C 33.10956 4.97971 0.04926
C 31.94557 4.26483 -0.03838
C 31.98889 2.83981 0.00349
C 33.19708 2.13534 -0.00323
C 33.11025 0.74204 -0.00841
C 31.8756 0.12278 0.0001
C 0.02642 32.70184 -0.02927
C 1.2311 32.05241 -0.01404
C 1.17845 30.63426 0.01027
C 34.36341 29.8738 0.01831
C 34.39092 28.52876 -0.01037
C 1.25938 27.72932 -0.00439
C 1.20443 26.25373 -0.00598
C 34.36275 25.58053 -0.05239
C 34.37873 24.11805 0.03076
C 1.22612 23.47659 0.00723
C 1.32493 22.07547 0.02712
C 31.8088 7.10136 0.01504
C 29.40135 25.53063 0.0101
C 30.66482 26.28513 -0.00669
C 30.67511 27.7082 0.03531
C 23.32004 30.50512 -0.00498
C 22.10335 29.72885 0.00135
C 22.12733 28.29833 0.03102
C 23.34538 27.62419 0.02555
C 23.39432 26.15207 0.01423
C 22.13086 25.51844 -0.00285
C 22.05131 24.07028 -0.009
C 23.35063 31.91638 0.02737
C 23.36299 23.44276 -0.01199
C 23.37109 6.5489 -0.00938
C 23.36096 4.97143 -0.0264
C 22.13101 4.32683 -0.01154
C 22.17194 2.82283 0.00684
C 23.39916 2.13127 -0.01052
C 23.33687 0.74747 -0.01679
C 22.07147 0.01756 0.00367
C 22.15616 7.06625 -0.00229
C 22.1313 32.66573 0.02117
C 19.57322 0.04338 -0.04078
C 20.78839 0.76885 0.03005
C 17.18595 0.06093 -0.02845
C 19.72711 32.67957 -0.03213
C 20.91711 31.9491 0.02239
C 20.96092 30.49476 0.01153
C 19.7042 29.84671 0.02734
C 19.72593 28.41601 -0.0055
C 20.91759 27.64185 0.01515
C 20.92538 26.27408 -0.00225
C 19.67554 25.64303 0.00071
C 19.73193 24.1597 -0.01107
C 20.9081 23.37446 -0.01586
C 19.63944 7.08324 -0.01971
C 20.90241 6.59208 -0.02118
C 20.82459 4.98096 0.00733
C 19.60759 4.33537 -0.00178
C 19.71002 2.91897 0.00768
C 20.94948 2.18112 -0.0276
C 24.57128 32.55868 0.04306
C 25.87598 31.88253 0.00996
C 25.82598 30.48494 0.00195
C 24.4897 29.74824 -0.00802
C 27.03786 25.49193 0.01259
C 27.0723 23.96166 0.01799
C 28.32562 23.38531 0.01699
C 28.5016 21.89582 -0.00416
C 27.1547 7.02302 0.01177
C 28.33609 6.26896 0.04266
C 28.28194 4.91799 0.01324
C 27.06816 4.22396 0.0014
C 27.0461 2.79089 0.00924
C 28.21183 2.05225 0.02326
C 28.17502 0.64463 0.00261
C 27.02428 33.9821 0.03265
C 29.48745 32.61075 -0.02049
C 30.71794 31.97909 -0.01854
C 30.67675 30.60238 -0.01415
C 29.45483 29.82645 -0.03039
C 29.457 28.41642 0.01836
C 28.18515 26.24226 0.01495
C 3.66098 32.02245 0.01572
C 28.23812 27.73964 0.00235
C 26.91332 29.75071 0.02198
C 24.52355 28.32466 -0.00218
C 25.72062 27.59345 -0.01654
C 25.74861 26.14762 -0.00037
C 24.5347 25.39161 -0.0032
C 24.65467 23.90412 0.00622
C 25.88529 23.27409 -0.02815
C 24.6823 7.0854 -0.00942
C 25.91804 6.42871 0.00487
C 25.80494 4.9208 0.00826
C 24.53822 4.23724 -0.00294
C 24.63406 2.81088 0.00152
C 25.82472 2.18055 0.01257
C 25.7979 0.68758 0.02316
C 24.51735 34.02094 0.04185
C 27.03154 32.59911 0.00194
C 28.25585 31.88662 -0.00621
C 28.19165 30.45945 0.02611
C 26.94881 28.35687 0.01094
C 2.44014 32.67494 -0.00095
