399
Graphene
C 0.00811 0.02056 0.01295
C 13.43575 31.98608 -0.02971
C 13.5269 30.49253 0.02894
C 12.25476 29.8321 -0.01789
C 12.33914 28.4312 0.00444
C 13.54134 27.64631 -0.00925
C 13.53301 26.2188 0.01877
C 12.33851 25.54627 0.01363
C 12.35575 24.07413 -0.02162
C 13.53915 23.34226 0.00415
C 12.37493 11.16228 -0.0014
C 13.68925 10.64833 0.02162
C 13.53621 9.31749 0.0076
C 12.32455 8.5666 0.01241
C 12.31339 7.09168 -0.01454
C 13.50085 6.28343 0.01945
C 13.59362 4.93245 0.01416
C 12.39516 4.22032 0.03542
C 12.36459 2.80497 0.02299
C 13.52036 2.06889 0.00244
C 13.40603 0.63922 -0.01717
C 12.12726 34.0208 0.05265
C 12.16568 32.68836 0.00165
C 14.68872 32.58775 -0.01952
C 9.7169 0.08093 0.02819
C 11.03004 2.18069 -0.01046
C 11.04021 26.27455 0.01641
C 9.79646 25.62269 -0.00719
C 9.81138 24.21329 0.01364
C 11.07787 23.49724 -0.01062
C 11.11809 22.04502 -0.00033
C 9.98207 21.26873 0.03589
C 9.69629 19.95071 -0.02759
C 9.78089 17.12102 0.0402
C 10.01897 15.68136 0.00572
C 10.963 14.8065 0.03592
C 11.11351 13.41931 0.00406
C 9.86071 12.70821 0.00943
C 9.89403 11.36546 0.02841
C 11.17195 10.62449 -0.01111
C 11.0933 9.18066 -0.01275
C 9.84479 8.47525 0.00985
C 9.88751 7.04895 -0.02245
C 11.08238 6.40628 -0.00428
C 11.17906 4.9514 0.03101
C 9.89273 4.39521 -0.01536
C 9.84186 3.00255 -0.02689
C 10.956 0.71657 -0.00891
C 11.1162 27.6906 0.02339
C 15.96899 31.92724 -0.02813
C 14.7403 29.80674 0.00052
C 18.46262 10.62102 0.00213
C 18.40914 9.28478 -0.00066
C 17.19481 8.60243 -0.00289
C 17.21349 7.13385 0.00028
C 18.44343 6.46672 -0.02213
C 18.47726 5.00387 0.03698
C 17.30366 4.26089 -0.00109
C 17.25783 2.82692 -0.00491
C 18.42446 2.10209 0.03338
C 18.4125 0.67246 -0.0258
C 17.16742 33.99515 -0.0331
C 19.70567 32.6853 -0.00316
C 20.88606 31.94578 0.02188
C 20.88889 30.52866 -0.01979
C 19.67367 29.84117 0.02691
C 19.69647 28.43516 -0.01581
C 20.91602 27.76254 0.01452
C 20.84654 26.29671 0.04892
C 19.66136 25.53145 -0.00111
C 19.82131 24.18159 -0.03557
C 20.93526 23.42554 0.03754
C 17.31237 24.12702 -0.05302
C 15.99336 30.51366 0.00374
C 17.18882 25.51764 -0.04147
C 18.41629 27.7188 0.03505
C 14.79679 28.3855 -0.03682
C 15.98647 27.71068 0.01965
C 15.95896 26.208 0.02058
C 14.7419 25.48115 -0.01957
C 14.64791 24.12141 -0.0108
C 15.77201 10.74275 -0.00368
C 15.93759 9.27668 -0.02696
C 14.71828 8.54017 -0.00114
C 14.72848 7.09208 0.00228
C 16.00318 6.33969 0.00798
C 16.02091 4.96514 0.00422
C 14.82719 4.18116 0.0351
C 14.76045 2.79203 -0.03113
C 16.03598 2.13064 0.02098
C 15.9403 0.64871 0.01848
C 14.68326 34.03984 -0.00619
C 17.22064 32.63424 -0.02162
C 18.43259 31.9692 0.00889
C 18.40938 30.53199 -0.00481
C 17.2251 29.76304 0.00979
C 17.21745 28.43275 0.01443
C 18.42988 26.26796 -0.02815
C 19.66989 11.25049 0.01739
C 9.81562 28.35229 -0.00334
C 10.93822 30.55236 0.00057
C 2.38091 4.29887 0.0073
C 2.45538 2.89022 0.0174
C 3.69663 2.23138 0.03828
C 3.68915 0.80274 0.01226
C 2.39725 0.10457 -0.00279
C 4.90459 32.69131 0.01996
C 6.13964 32.01998 -0.03996
C 6.10379 30.58792 0.01465
C 4.84065 29.91859 -0.00074
C 4.85747 28.44093 -0.00518
C 6.02715 27.72757 0.0086
C 6.03248 26.28518 -0.00643
C 4.87672 25.59969 0.017
C 4.91363 24.12756 -0.03113
C 6.11212 23.47486 -0.02566
C 6.20083 22.00666 -0.00094
C 4.98796 21.23765 0.02322
C 4.89339 19.84719 -0.00725
C 6.11491 19.17677 -0.05697
C 6.11476 17.74388 0.01087
C 4.84483 17.01226 -0.01343
C 3.66194 5.01875 0.00402
C 4.92477 15.65822 0.00988
C 3.67282 6.4378 0.02374
C 2.40455 8.58925 -0.01509
C 3.62561 30.5838 0.00211
C 2.37552 29.85648 -0.00449
C 2.40814 28.42902 -0.01979
C 3.6077 27.74674 0.02784
C 3.6711 26.31998 -0.01977
C 2.46106 25.58635 -0.00561
C 2.44665 24.13715 0.00208
C 3.66558 23.41061 0.01707
C 3.70309 21.98403 0.02769
C 2.45363 21.24118 -0.03291
C 2.40818 19.86152 -0.04999
C 3.6483 19.22288 0.04505
C 3.59049 17.80403 0.03284
C 2.38163 17.04172 -0.04307
C 2.40867 15.6372 0.03189
C 3.68681 14.95906 0.00031
C 3.67952 13.54178 -0.003
C 2.41161 12.74491 0.01402
C 2.45829 11.36724 0.02379
C 3.6438 10.73216 0.00907
C 3.64927 9.28351 0.00643
C 2.48801 7.13707 0.03267
C 9.7143 29.868 -0.01634
C 6.16069 14.92654 0.0276
C 4.92214 12.80524 -0.00077
C 8.6349 19.17973 0.0288
C 8.49693 17.77669 0.00393
C 7.29994 16.99851 0.00895
C 7.40622 15.60726 0.00685
C 8.68299 15.02179 0.02888
C 8.71296 13.53455 -0.00482
C 7.41498 12.78358 -0.01384
C 7.38592 11.40623 0.03693
C 8.66944 10.67348 0.01745
C 8.64655 9.28275 0.00488
C 7.35668 8.56914 -0.01004
C 7.31281 7.16479 -0.02896
C 8.61181 6.4406 -0.00131
C 8.60651 5.03593 -0.01118
C 7.36018 4.3518 -0.014
C 7.37172 2.963 0.02147
C 8.60321 2.29112 0.00373
C 8.5131 0.8757 -0.00191
C 7.30557 0.10934 0.00438
C 9.72822 32.7396 0.01291
C 11.00977 31.94052 0.00093
C 7.38236 19.88756 -0.0008
C 6.14694 13.53562 0.01305
C 7.43806 21.29808 -0.01362
C 8.64768 23.47246 -0.04848
C 4.89571 11.40187 0.03368
C 6.12936 10.72288 -0.02929
C 6.20895 9.32575 -0.00966
C 4.94926 8.559 -0.03337
C 4.86568 7.15721 0.01227
C 6.11286 6.50507 0.00873
C 6.16355 5.01674 -0.00049
C 4.88389 4.32829 0.00848
C 4.92968 2.90677 -0.01303
C 6.11607 2.2532 -0.01378
C 6.03595 0.73921 0.02635
C 4.84262 0.0269 0.0127
C 7.35768 32.76982 0.01396
C 8.57113 32.00159 0.01849
C 8.57212 30.56266 -0.01142
C 7.29181 29.82729 -0.00562
C 7.26464 28.43631 -0.00494
C 8.5261 27.6932 0.00054
C 8.57101 26.28495 0.03007
C 7.33954 25.57502 -0.00095
C 7.35058 24.20817 0.01572
C 8.71897 22.06556 -0.00892
C 3.66673 31.95691 0.0064
C 20.86913 10.6747 0.00755
C 19.68642 8.55414 0.00667
C 29.46136 7.02157 0.01518
C 30.69605 6.37989 0.01908
C 30.67303 4.95877 0.07705
C 29.42354 4.19098 0.0103
C 29.52425 2.85739 0.02108
C 30.71723 2.07713 0.00716
C 30.75125 0.69189 0.00307
C 29.54608 0.02072 0.00346
C 32.03634 32.58663 0.01713
C 33.30809 31.90796 -0.01694
C 33.26957 30.5204 0.01428
C 32.04097 29.80339 -0.02142
C 31.96508 28.34317 0.0544
C 33.11948 27.62789 0.00026
C 33.21431 26.26332 0.00682
C 31.99538 25.53668 -0.01779
C 31.98405 24.12119 0.03794
C 33.23041 23.37732 0.01927
C 33.20722 22.02842 0.01574
C 32.00168 21.33542 -0.02383
C 31.95689 19.92688 -0.01429
C 29.47851 8.45081 -0.00971
C 33.21296 19.17433 -0.0136
C 30.66458 9.27413 -0.03735
C 29.49797 11.40281 -0.02155
C 27.10321 0.06477 -0.00416
C 29.54069 32.73289 0.01177
C 30.82379 31.93487 0.04266
C 30.76604 30.52595 0.01324
C 29.544 29.77694 0.0014
C 29.54434 28.39051 0.00924
C 30.76376 27.61431 0.02326
C 30.70324 26.22827 0.00261
C 29.45583 25.59858 0.03265
C 29.44442 24.16951 -0.02049
C 30.70897 23.45814 -0.01854
C 30.67738 22.01616 -0.01415
C 29.42288 21.31918 -0.03039
C 29.49348 19.91109 0.01836
C 30.68514 19.20801 0.03531
C 30.72607 17.77621 -0.00669
C 29.46233 17.089 0.0101
C 29.44941 15.63402 0.01705
C 30.67677 14.91189 -0.0405
C 30.67824 13.48706 -0.01303
C 29.46627 12.81924 -0.01461
C 30.66985 10.62023 -0.00944
C 28.32027 0.76027 0.01699
C 33.12611 17.75151 0.00594
C 31.92504 15.70417 0.00369
C 1.2459 22.05261 0.02712
C 0.00719 21.34509 -0.02213
C 0.01341 19.89583 0.01951
C 1.28715 19.15856 -0.01678
C 1.18104 17.69204 0.01223
C 34.35717 17.01688 0.00648
C 34.37869 15.62786 0.02114
C 1.21015 14.94849 -0.02957
C 1.19764 13.49097 0.00343
C 34.39502 12.71575 -0.02656
C 34.41207 11.35571 -0.02442
C 1.21668 10.65958 -0.00027
C 1.22684 9.22095 -0.00583
C 34.41404 8.45729 -0.02302
C 34.42898 7.05848 -0.02849
C 1.23265 6.46807 0.02931
C 1.15901 5.04899 0.00628
C 34.36742 4.32037 -0.0345
C 34.34164 2.94196 -0.00931
C 1.18377 2.22836 -0.00939
C 1.20873 0.79311 -0.00468
C 1.26528 23.4378 0.00723
C 31.92582 17.09423 -0.02474
C 0.00713 24.07186 0.03076
C 1.20721 26.22742 -0.00598
C 33.15768 14.94875 0.00455
C 33.17826 13.50008 -0.00644
C 31.92427 12.7758 -0.01839
C 31.92842 11.31182 0.00137
C 33.15134 10.68586 0.00199
C 33.10134 9.25775 0.04381
C 31.91401 8.48727 0.02806
C 31.91758 7.07201 0.01504
C 33.15155 6.38144 -0.00069
C 33.10259 5.01176 0.04926
C 31.87752 4.21615 -0.03838
C 31.93359 2.82074 0.00349
C 33.1868 2.16975 -0.00323
C 33.2154 0.71676 -0.00841
C 32.00293 34.07265 0.0001
C 0.03806 32.68012 -0.02927
C 1.26413 31.99072 -0.01404
C 1.20701 30.56406 0.01027
C 34.42575 29.81684 0.01831
C 34.3589 28.40131 -0.01037
C 1.17597 27.64585 -0.00439
C 34.42278 25.50357 -0.05239
C 20.90573 9.26561 -0.0054
C 28.29137 2.1666 0.01799
C 26.91697 4.29389 0.01495
C 22.17517 11.33721 0.01511
C 23.34825 10.5962 -0.00478
C 23.44162 9.20618 -0.01662
C 22.15406 8.56828 -0.01185
C 22.18713 7.09471 0.01126
C 23.42713 6.37328 0.01852
C 23.37288 4.97046 -0.00381
C 22.12897 4.18288 0.03046
C 22.17969 2.77113 0.0296
C 23.37061 2.07017 0.03374
C 23.42601 0.66312 -0.02845
C 22.16099 34.0535 -0.03213
C 24.60365 32.57838 0.02239
C 25.88006 31.94899 0.01153
C 25.87375 30.50327 0.02734
C 24.64656 29.8073 -0.0055
C 24.61865 28.42459 0.01515
C 25.81469 27.69966 -0.00225
C 25.76014 26.27028 0.00071
C 24.52233 25.54097 -0.01107
C 24.58826 24.10764 -0.01586
C 22.12719 12.71647 0.00199
C 25.77656 23.37549 -0.01971
C 23.14769 13.56846 0.01087
C 23.3504 17.82508 0.00096
C 19.6799 7.15528 0.00143
C 20.89283 6.37366 -0.017
C 20.91609 4.94102 0.00364
C 19.71382 4.20055 -0.00831
C 19.73672 2.86537 -0.02957
C 20.95343 2.07641 -0.04422
C 20.94062 0.6749 0.00654
C 19.7063 33.98636 -0.00703
C 22.12404 32.6667 -0.04076
C 23.3433 31.9294 -0.00652
C 23.38063 30.5096 0.0058
C 22.10453 29.84142 -0.00865
C 22.14891 28.40772 0.00675
C 23.40142 27.66927 -0.00311
C 23.3153 26.316 0.00742
C 22.04105 25.58341 -0.01594
C 22.10231 24.18472 0.0106
C 23.31457 23.4726 -0.01154
C 23.30325 22.01842 -0.01721
C 21.89411 21.40517 -0.02422
C 23.40819 19.1572 0.01277
C 23.61642 14.81675 -0.01527
C 27.03931 2.86055 0.01259
C 25.733 21.95201 -0.02118
C 24.49977 19.88788 -0.00178
C 28.23863 26.23146 -0.00802
C 27.03176 25.48681 -0.00218
C 27.04872 24.06099 -0.01654
C 28.2686 23.41751 -0.00037
C 28.16845 22.03592 -0.0032
C 26.99281 21.32132 0.00622
C 27.00446 19.83337 -0.02815
C 28.2861 19.20305 -0.00942
C 28.23689 17.79147 0.00487
C 26.98769 17.01799 0.00826
C 27.07507 15.61471 -0.00294
C 28.262 14.90298 0.00152
C 28.26229 13.4968 0.01257
C 26.96705 12.74948 0.02316
C 27.01049 11.33503 0.04185
C 28.26311 10.63604 0.00194
C 28.28247 9.20904 -0.00621
C 27.05417 8.50401 0.02611
C 27.00226 7.12847 0.02198
C 28.22156 6.38319 0.01094
C 28.1873 4.96528 0.00235
C 28.31243 27.64358 0.00195
C 24.52121 21.30358 0.00733
C 27.08584 28.38831 0.00996
C 28.31128 30.47493 0.00367
C 25.67476 19.15569 0.00768
C 25.74589 17.77032 -0.0276
C 24.54093 17.07611 0.03005
C 24.69531 15.5677 -0.04078
C 25.88698 14.82196 0.02117
C 25.75699 13.40141 0.02737
C 24.49435 12.72625 -0.00498
C 24.50467 11.31515 0.00135
C 25.81752 10.62362 0.03102
C 25.82075 9.21143 0.02555
C 24.65427 8.53221 0.01423
C 24.59604 7.07445 -0.00285
C 25.76326 6.46235 -0.009
C 25.74549 5.05336 -0.01199
C 24.51662 4.27726 -0.00229
C 24.62128 2.78495 -0.00938
C 25.79701 2.06605 -0.0264
C 25.86905 0.71592 -0.01154
C 24.65722 33.9775 0.00684
C 27.02574 32.68043 -0.01052
C 28.4079 31.89835 -0.01679
C 27.12028 29.81626 0.04306
C 2.46115 32.68514 -0.00039
