413
Graphene
C 34.41045 0.01996 0.01295
C 16.00788 30.50611 -0.02245
C 14.74075 29.89059 -0.00428
C 14.75539 28.46932 0.03101
C 16.02596 27.70692 -0.01536
C 16.07462 26.28593 -0.02689
C 14.79554 25.57289 -0.01046
C 14.70082 24.12904 -0.00891
C 15.9126 23.36234 0.02819
C 15.97146 21.85971 0.00165
C 14.73863 21.28165 -0.02971
C 14.83525 19.9131 0.02894
C 16.05233 19.1251 -0.01789
C 16.01512 17.75779 0.00444
C 14.82275 17.04301 -0.00925
C 14.72671 15.65305 0.01877
C 15.97605 14.84383 0.01363
C 15.93526 13.3998 -0.02162
C 14.69271 12.69974 0.00415
C 14.77116 11.29581 -0.0014
C 15.96185 10.61083 0.02162
C 15.92938 9.27095 0.0076
C 15.98643 31.91505 0.00985
C 14.73037 32.70202 -0.01275
C 12.20682 0.13366 -0.01111
C 13.47644 0.77509 0.02841
C 13.53578 30.60125 0.02147
C 12.31828 29.86355 0.00373
C 12.3268 28.41761 -0.00191
C 13.50662 27.73598 0.00438
C 13.5953 26.28091 0.01291
C 12.33038 25.61815 0.00093
C 12.30525 24.24162 0.00057
C 13.50036 23.47167 -0.01634
C 13.49277 22.09119 -0.00334
C 12.33589 21.28941 0.02339
C 14.75059 8.44651 0.01241
C 12.3332 19.92184 0.01641
C 13.63299 17.75834 0.01364
C 12.27523 17.00646 -0.01062
C 12.28954 15.65571 -0.00033
C 13.53631 14.88398 0.03589
C 13.45014 13.48299 -0.02759
C 12.27632 12.74708 0.0402
C 12.35383 11.38539 0.00572
C 13.56986 10.6516 0.03592
C 13.52309 9.23179 0.00406
C 12.27455 8.72342 0.00943
C 13.54338 19.2035 -0.00719
C 14.69996 7.0546 -0.01454
C 15.93034 6.3349 0.01945
C 16.06285 4.97031 0.01416
C 18.41822 9.19557 0.00889
C 17.16544 8.5314 -0.00481
C 17.21959 7.14878 0.00979
C 18.45048 6.39345 0.01443
C 18.50761 5.05097 0.03505
C 17.19564 4.27853 -0.02815
C 17.2514 2.83322 -0.04147
C 18.47134 2.09684 -0.05302
C 18.43906 0.67156 0.00213
C 17.17033 34.06966 -0.00066
C 18.4381 10.62216 -0.02162
C 19.6813 32.5764 -0.00289
C 20.95719 30.51769 -0.02213
C 19.70779 29.85025 0.03698
C 19.66776 28.42346 -0.00109
C 20.81268 27.69274 -0.00491
C 20.83883 26.33441 0.03338
C 19.62176 25.57748 -0.0258
C 19.65205 24.15987 -0.0331
C 20.9325 23.39364 -0.00316
C 20.94524 22.02693 0.02188
C 19.67697 21.34918 -0.01979
C 20.91709 31.94275 0.00028
C 13.58386 32.01415 -0.014
C 17.19648 11.33224 -0.00619
C 18.4516 13.43343 0.02098
C 14.74136 2.74186 0.03542
C 15.92803 2.16744 0.02299
C 16.02018 0.74374 0.00244
C 14.7065 0.07508 -0.01717
C 17.13702 32.66357 0.05265
C 18.40974 31.95532 -0.01952
C 18.41868 30.52709 -0.02813
C 17.16018 29.79087 0.00374
C 17.22705 28.39846 0.00052
C 18.43469 27.616 -0.03682
C 17.19186 12.75252 0.01848
C 18.42618 26.18544 0.01965
C 17.16821 24.06208 -0.01957
C 18.43278 23.38844 -0.0108
C 18.4152 21.9789 -0.00368
C 17.23846 21.27778 -0.02696
C 17.26152 19.88418 -0.00114
C 18.46053 19.20316 0.00228
C 18.47516 17.71106 0.00798
C 17.23212 17.01927 0.00422
C 17.18337 15.63541 0.0351
C 18.46695 14.94646 -0.03113
C 17.22608 25.4885 0.02058
C 12.26138 32.74577 -0.01118
C 9.82997 0.00174 -0.00131
C 9.74824 8.54609 -0.02896
C 4.95889 32.66981 0.03284
C 6.14625 31.98069 -0.04307
C 6.1911 30.4847 0.03189
C 4.89557 29.85881 0.00031
C 4.92535 28.41911 -0.003
C 6.14393 27.75057 0.01402
C 6.08128 26.3617 0.02379
C 4.92113 25.60445 0.00907
C 4.88514 24.0664 0.00643
C 6.07894 23.43181 -0.01509
C 2.40027 34.04488 0.04505
C 4.93199 15.47492 0.03267
C 6.19677 13.49914 0.00402
C 4.92263 12.78511 0.0073
C 5.01203 11.33895 0.0174
C 6.20209 10.61761 0.03828
C 6.10812 9.21938 0.01226
C 4.94854 8.55641 -0.00279
C 4.91803 7.1147 0.01996
C 6.17123 6.41026 -0.03996
C 6.16386 4.99112 0.01465
C 4.96981 4.25381 -0.00074
C 6.15206 14.93028 0.02374
C 4.99301 2.82813 -0.00518
C 3.60619 0.65871 -0.04999
C 2.47478 2.86845 0.02769
C 3.66823 30.58144 -0.00177
C 2.45099 29.82853 0.04421
C 2.50312 28.43316 0.00088
C 3.70176 27.66562 0.00828
C 3.75551 26.26205 -0.02375
C 2.49669 25.63879 0.00558
C 2.50438 24.18722 -0.0059
C 3.60558 23.44251 -0.01386
C 2.31725 21.20694 -0.02805
C 2.40604 16.96165 0.00081
C 3.73089 2.13921 -0.03291
C 2.4804 15.60508 0.00245
C 3.71431 13.50298 -0.00039
C 2.45151 12.85369 0.0064
C 2.42994 11.38902 0.00211
C 3.75417 10.65588 -0.00449
C 3.68316 9.27801 -0.01979
C 2.46966 8.53753 0.02784
C 2.42587 6.9851 -0.01977
C 3.66705 6.3684 -0.00561
C 3.64408 4.95823 0.00208
C 2.38463 4.26164 0.01707
C 3.7159 14.92017 0.02728
C 19.67466 19.90361 0.02691
C 6.14887 2.16031 0.0086
C 4.93007 34.00767 0.017
C 11.02667 31.97702 -0.01142
C 11.07806 30.59477 -0.00562
C 9.86626 29.85708 -0.00494
C 9.80583 28.37401 0.00054
C 11.09799 27.70945 0.03007
C 11.10871 26.31276 -0.00095
C 9.84689 25.57954 0.01572
C 9.74822 24.17624 -0.04848
C 11.12013 23.48331 -0.00892
C 11.08935 22.07262 -0.01362
C 9.8366 32.75208 0.01849
C 9.88179 21.31075 -0.0008
C 10.99642 19.31056 0.00393
C 11.01689 17.84782 0.00895
C 9.88202 17.04946 0.00685
C 9.74663 15.67892 0.02888
C 11.05174 14.95107 -0.00482
C 11.0999 13.49104 -0.01384
C 9.82263 12.78765 0.03693
C 9.78098 11.41521 0.01745
C 11.03342 10.73487 0.00488
C 11.05094 9.20596 -0.01004
C 9.72036 20.02453 0.0288
C 6.11174 0.76056 -0.00643
C 7.33081 34.06745 0.01396
C 8.61859 2.0915 0.02635
C 7.29682 32.70632 -0.03113
C 8.57036 32.01062 -0.02566
C 8.66718 30.58722 -0.00094
C 7.42865 29.78202 0.02322
C 7.34566 28.41611 -0.00725
C 8.56915 27.67938 -0.05697
C 8.58422 26.27167 0.01087
C 7.31687 25.6533 -0.01343
C 7.22341 24.10969 0.00988
C 8.55293 23.46353 0.0276
C 8.59712 0.67669 0.0127
C 7.38324 15.72488 0.01305
C 8.57093 13.50913 0.03368
C 7.40232 12.82048 -0.02929
C 7.3727 11.31211 -0.00966
C 8.58905 10.67844 -0.03337
C 8.61983 9.27494 0.01227
C 7.37652 8.52724 0.00873
C 7.46736 7.14462 -0.00049
C 8.54746 6.36465 0.00848
C 7.33996 4.33057 -0.01303
C 7.4667 2.8793 -0.01378
C 8.49483 15.00158 -0.00077
C 3.70151 31.92804 0.03278
C 20.90134 19.15825 -0.01581
C 19.71917 17.00367 0.04892
C 30.72872 9.22419 -0.03735
C 29.51972 8.55575 -0.00971
C 29.52907 7.12495 0.01518
C 30.72454 6.35833 0.01908
C 30.7196 4.95911 0.07705
C 29.52243 4.30598 0.0103
C 29.56895 2.84602 0.02108
C 30.7754 2.06017 0.00716
C 30.74124 0.65729 0.00307
C 29.52241 0.00717 0.00346
C 31.994 32.68741 0.01713
C 33.17688 31.90378 -0.01694
C 33.15799 30.51906 0.01428
C 31.99854 29.75556 -0.02142
C 31.91608 28.34881 0.0544
C 33.14074 27.68605 0.00026
C 33.16289 26.27262 0.00682
C 31.92186 25.59276 -0.01779
C 31.96544 24.12123 0.03794
C 33.20625 23.39244 0.01927
C 33.24756 21.97086 0.01574
C 30.77294 10.69962 -0.00944
C 29.55112 11.33046 -0.02155
C 29.52474 12.70163 -0.01461
C 30.71994 13.47599 -0.01303
C 27.0846 2.80621 0.01259
C 28.2862 2.11718 0.01799
C 28.31714 0.68406 0.01699
C 27.06311 0.01587 -0.00416
C 29.51732 32.67451 0.01177
C 30.73001 32.03025 0.04266
C 30.78051 30.53761 0.01324
C 29.53922 29.89035 0.0014
C 29.48039 28.44503 0.00924
C 30.70236 27.71201 0.02326
C 31.94688 21.27025 -0.02383
C 30.7553 26.30533 0.00261
C 29.51295 24.14068 -0.02049
C 30.73189 23.40536 -0.01854
C 30.7853 22.01992 -0.01415
C 29.52677 21.31972 -0.03039
C 29.55918 19.95514 0.01836
C 30.69539 19.07133 0.03531
C 30.66364 17.68591 -0.00669
C 29.50501 17.00229 0.0101
C 29.55396 15.60835 0.01705
C 30.68434 14.85279 -0.0405
C 29.47873 25.54861 0.03265
C 31.92493 19.81506 -0.01429
C 33.15125 19.13218 -0.0136
C 33.17318 17.66299 0.00594
C 1.21739 23.55454 0.00723
C 1.28004 22.05929 0.02712
C 0.01927 21.29708 -0.02213
C 0.01119 19.85302 0.01951
C 1.11941 19.15929 -0.01678
C 1.22504 17.79749 0.01223
C 34.39237 17.04147 0.00648
C 0.05434 15.5672 0.02114
C 1.24343 14.90772 -0.02957
C 1.17602 13.52615 0.00343
C 0.00347 24.19637 0.03076
C 34.41613 12.84225 -0.02656
C 1.18873 10.65426 -0.00027
C 1.20082 9.25934 -0.00583
C 34.42873 8.55198 -0.02302
C 34.42647 7.10512 -0.02849
C 1.19481 6.35195 0.02931
C 1.1668 4.91471 0.00628
C 34.37064 4.25074 -0.0345
C 34.41469 2.8408 -0.00931
C 1.22876 2.22128 -0.00939
C 1.21692 0.69168 -0.00468
C 34.42502 11.34372 -0.02442
C 27.02921 4.2397 0.01495
C 34.40016 25.59497 -0.05239
C 1.26913 27.73081 -0.00439
C 31.88113 16.92871 -0.02474
C 31.94008 15.58531 0.00369
C 33.22326 14.88254 0.00455
C 33.15691 13.43689 -0.00644
C 31.95295 12.76512 -0.01839
C 32.00484 11.34509 0.00137
C 33.22281 10.64364 0.00199
C 33.22852 9.23122 0.04381
C 31.93299 8.52343 0.02806
C 31.98867 7.0363 0.01504
C 1.23355 26.26166 -0.00598
C 33.17095 6.34927 -0.00069
C 31.93946 4.24517 -0.03838
C 32.00164 2.7796 0.00349
C 33.19774 2.14795 -0.00323
C 33.11315 0.72166 -0.00841
C 31.90979 34.03606 0.0001
C 34.41861 32.60466 -0.02927
C 1.20822 31.91701 -0.01404
C 1.24259 30.52738 0.01027
C 0.03274 29.83545 0.01831
C 34.33971 28.40152 -0.01037
C 33.13959 4.90986 0.04926
C 28.25689 4.95109 0.00235
C 28.30253 6.36169 0.01094
C 27.09495 7.04304 0.02198
C 23.41468 19.11607 -0.02422
C 23.34942 17.73137 0.01277
C 22.12851 17.03771 0.00096
C 22.15908 15.54438 -0.01527
C 23.31514 14.8848 0.01087
C 23.35293 13.4999 0.00199
C 22.20642 12.72391 0.01511
C 22.21122 11.30979 -0.00478
C 23.37798 10.57756 -0.01662
C 23.34829 9.20517 -0.01185
C 22.16421 19.89745 -0.01721
C 22.11657 8.50393 0.01126
C 23.38622 6.40254 -0.00381
C 23.32358 4.97278 0.03046
C 22.10118 4.2692 0.0296
C 22.21165 2.83579 0.03374
C 23.43683 2.15193 -0.02845
C 23.42813 0.76831 -0.03213
C 22.11166 0.0433 0.02239
C 24.57745 32.57553 0.01153
C 25.85813 31.92585 0.02734
C 25.84915 30.4932 -0.0055
C 22.14497 7.13763 0.01852
C 24.53689 29.81899 0.01515
C 22.19421 21.3274 -0.01154
C 23.31449 23.49671 -0.01594
C 19.6738 15.57659 -0.00111
C 20.94755 14.93337 -0.03557
C 20.89486 13.52009 0.03754
C 19.68251 12.77165 0.01739
C 19.7367 11.37538 0.00755
C 20.96169 10.63984 -0.0054
C 20.96078 9.18654 0.00667
C 19.60155 8.50302 0.00143
C 19.69646 7.12526 -0.017
C 20.8829 6.36056 0.00364
C 23.48751 22.08798 0.0106
C 20.85848 4.99759 -0.00831
C 19.69095 2.83391 -0.04422
C 20.90696 2.09709 0.00654
C 20.8025 0.76041 -0.00703
C 19.57162 34.04084 -0.04076
C 22.11151 32.72249 -0.00652
C 23.32488 31.91397 0.0058
C 23.41485 30.46094 -0.00865
C 23.24709 26.17075 0.00675
C 22.07833 25.57799 -0.00311
C 22.08665 24.151 0.00742
C 19.64748 4.24818 -0.02957
C 20.87707 17.75986 0.01452
C 25.8224 27.73473 -0.00225
C 24.54605 25.56212 -0.01107
C 28.27734 30.53213 0.00367
C 27.07242 29.74283 0.04306
C 27.05036 28.35881 0.00996
C 28.2797 27.68097 0.00195
C 28.32002 26.29057 -0.00802
C 27.11923 25.65093 -0.00218
C 27.07216 24.17783 -0.01654
C 28.22971 23.36888 -0.00037
C 28.25471 21.93922 -0.0032
C 27.05343 21.30805 0.00622
C 28.17964 31.99433 -0.01679
C 27.04117 19.86656 -0.02815
C 28.34786 17.79028 0.00487
C 27.12733 17.07662 0.00826
C 27.04322 15.63403 -0.00294
C 28.26101 14.89273 0.00152
C 28.26364 13.47145 0.01257
C 27.0854 12.77366 0.02316
C 27.03574 11.33748 0.04185
C 28.27123 10.62037 0.00194
C 28.26009 9.20082 -0.00621
C 27.01134 8.46265 0.02611
C 28.31193 19.19396 -0.00942
C 25.83395 26.28339 0.00071
C 27.02155 32.72464 -0.01052
C 25.85309 0.76173 -0.01154
C 24.53731 24.13169 -0.01586
C 25.83607 23.41693 -0.01971
C 25.85413 22.04623 -0.02118
C 24.67185 21.30449 0.00733
C 24.58549 19.86176 -0.00178
C 25.83994 19.12465 0.00768
C 25.90095 17.7245 -0.0276
C 24.59725 17.07093 0.03005
C 24.59495 15.65757 -0.04078
C 25.82711 14.95388 0.02117
C 24.64339 34.04898 0.00684
C 25.86226 13.45281 0.02737
C 24.55723 11.31975 0.00135
C 25.83742 10.61609 0.03102
C 25.80808 9.20271 0.02555
C 24.52199 8.51767 0.01423
C 24.5765 7.11122 -0.00285
C 25.80552 6.37118 -0.009
C 25.77515 4.96304 -0.01199
C 24.54019 4.17952 -0.00229
C 24.5598 2.82873 -0.00938
C 25.85845 2.18209 -0.0264
C 24.59125 12.81512 -0.00498
C 2.44383 32.55108 0.01138
