374
Graphene
C 34.43131 0.10126 0.01295
C 9.75676 8.5812 0.02299
C 9.80754 7.10346 0.00244
C 11.0223 6.41061 -0.01717
C 11.09743 5.04837 0.05265
C 9.86209 4.309 -0.01952
C 9.77216 2.86122 -0.02813
C 10.9815 2.07334 0.00374
C 10.99257 0.60929 0.00052
C 9.74944 34.05899 -0.03682
C 12.32159 32.67109 0.01965
C 13.49281 31.90667 0.02058
C 13.60161 30.52541 -0.01957
C 12.34851 29.82834 -0.0108
C 12.25675 28.43137 -0.00368
C 13.49569 27.62308 -0.02696
C 13.41974 26.27782 -0.00114
C 12.2844 25.47772 0.00228
C 12.30722 24.04738 0.00798
C 13.50828 23.40266 0.00422
C 11.14511 9.22508 0.03542
C 13.60794 21.93936 0.0351
C 11.09593 10.65195 0.01416
C 9.70496 12.77597 -0.01454
C 9.7927 32.54502 -0.01536
C 11.04785 31.96544 -0.02689
C 11.12318 30.55988 -0.01046
C 9.87755 29.86453 -0.00891
C 9.83594 28.4516 0.02819
C 11.10527 27.68191 0.00165
C 11.12425 26.26857 -0.02971
C 9.84426 25.68913 0.02894
C 9.81691 24.21603 -0.01789
C 11.00178 23.46182 0.00444
C 11.08239 21.99376 -0.00925
C 9.87845 21.31081 0.01877
C 9.90616 19.84962 0.01363
C 11.16169 19.15745 -0.02162
C 11.14782 17.70577 0.00415
C 9.9466 17.01921 -0.0014
C 9.85378 15.50352 0.02162
C 11.21402 14.80135 0.0076
C 10.96361 13.41444 0.01241
C 9.82202 11.34245 0.01945
C 12.27404 21.37026 -0.03113
C 12.37513 19.94456 0.02098
C 13.53193 19.17829 0.01848
C 15.93549 23.40078 0.02691
C 15.95928 22.01253 -0.01581
C 14.78268 21.2992 0.01452
C 14.77819 19.87325 0.04892
C 15.99447 19.10729 -0.00111
C 15.92094 17.7542 -0.03557
C 14.71133 17.0859 0.03754
C 15.98039 10.68274 0.01739
C 16.05431 9.29995 0.00755
C 14.78573 8.52019 -0.0054
C 14.78457 7.12592 0.00667
C 16.02176 6.39454 0.00143
C 16.00667 4.95416 -0.017
C 14.77007 4.22901 0.00364
C 14.68698 2.78847 -0.00831
C 15.88592 2.06988 -0.02957
C 15.92899 0.66766 -0.04422
C 14.69833 34.06732 0.00654
C 17.19379 32.63586 -0.00703
C 14.68719 24.18323 -0.01979
C 14.65364 25.58362 0.02188
C 15.90629 26.24153 -0.00316
C 15.93685 27.68353 -0.0331
C 13.5215 17.74428 -0.00619
C 12.36663 16.96663 -0.02162
C 12.33032 15.56946 0.00889
C 12.31709 11.39366 -0.00481
C 13.48448 10.79264 0.00979
C 13.56369 9.32204 0.01443
C 12.38206 8.5541 0.03505
C 12.29501 7.12904 -0.02815
C 13.54708 6.35197 -0.04147
C 7.32272 0.03846 0.03101
C 13.54721 4.86737 -0.05302
C 12.1895 2.80798 -0.00066
C 13.41815 2.1302 -0.00289
C 13.46213 0.70709 0.00028
C 12.24255 34.07183 -0.02213
C 14.78946 32.65127 0.03698
C 15.97148 31.97869 -0.00109
C 15.97539 30.55775 -0.00491
C 14.84326 29.77066 0.03338
C 14.71131 28.4083 -0.0258
C 12.34423 4.25099 0.00213
C 8.55185 0.67499 -0.00428
C 8.61742 2.10443 -0.02245
C 7.33205 2.83336 0.00985
C 3.68708 5.01804 -0.00077
C 2.49436 4.28939 0.03368
C 2.38272 2.94005 -0.02929
C 3.67691 2.20045 -0.00966
C 3.71452 0.75202 -0.03337
C 2.45683 0.036 0.01227
C 4.81148 32.70967 0.00873
C 6.09189 31.99339 -0.00049
C 6.07869 30.60419 0.00848
C 4.85744 29.86096 -0.01303
C 4.84151 28.41457 -0.01378
C 6.1071 27.70774 0.02635
C 6.18374 26.34046 0.0127
C 4.91456 25.64831 0.01396
C 4.89997 24.22501 0.01849
C 6.12409 23.55242 -0.01142
C 6.17426 22.0986 -0.00562
C 4.94831 21.29831 -0.00494
C 4.85071 19.86694 0.00054
C 3.62869 6.41651 0.01305
C 2.44478 7.08684 0.0276
C 2.5268 8.59194 0.00988
C 3.72606 9.30383 -0.01343
C 3.65117 30.61659 0.0073
C 2.4267 29.8501 0.0174
C 2.41726 28.4503 0.03828
C 3.68724 27.75256 0.01226
C 3.69745 26.26473 -0.00279
C 2.4403 25.53713 0.01996
C 2.43385 24.12451 -0.03996
C 3.76 23.43543 0.01465
C 3.71866 22.03377 -0.00074
C 6.11993 19.16472 0.03007
C 2.43225 21.33492 -0.00518
C 3.65135 19.22069 -0.00643
C 3.65166 17.69051 0.017
C 2.42148 17.09429 -0.03113
C 2.49798 15.70889 -0.02566
C 3.72014 14.93159 -0.00094
C 3.70679 13.61201 0.02322
C 2.4027 12.88109 -0.00725
C 2.49741 11.40087 -0.05697
C 3.75125 10.72699 0.01087
C 2.38181 19.93091 0.0086
C 18.39799 31.93004 -0.04076
C 6.17807 17.73584 -0.00095
C 4.96299 15.63988 -0.04848
C 8.64828 23.50262 0.00057
C 8.65139 21.98304 -0.01634
C 7.32143 21.34779 -0.00334
C 7.36426 19.89361 0.02339
C 8.61105 19.17364 0.01641
C 8.6343 17.74066 -0.00719
C 7.42099 16.98397 0.01364
C 7.42584 15.63716 -0.01062
C 8.59505 14.86166 -0.00033
C 8.4947 13.46703 0.03589
C 7.32313 12.81657 -0.02759
C 7.32657 11.37057 0.0402
C 8.6212 10.65677 0.00572
C 8.62959 9.22724 0.03592
C 7.35985 8.61733 0.00406
C 7.33898 7.13064 0.00943
C 8.57824 6.42873 0.02841
C 8.65003 5.01443 -0.01111
C 7.46126 4.25703 -0.01275
C 7.41895 24.17474 0.00093
C 7.43562 25.55967 0.01291
C 8.62378 26.41021 0.00438
C 8.58232 27.78331 -0.00191
C 6.12602 14.92291 -0.00892
C 6.13251 13.49199 -0.01362
C 4.95054 12.85091 -0.0008
C 4.88896 11.46367 0.0288
C 6.12385 10.68122 0.00393
C 6.16478 9.28737 0.00895
C 4.94652 8.56082 0.00685
C 4.86718 7.16288 0.02888
C 6.08094 6.43195 -0.00482
C 4.91057 17.03613 0.01572
C 6.23307 5.05921 -0.01384
C 4.89246 2.95063 0.01745
C 6.10325 2.18805 0.00488
C 6.09313 0.76848 -0.01004
C 4.93021 34.069 -0.02896
C 7.32938 32.65648 -0.00131
C 8.5031 31.94175 -0.01118
C 8.59591 30.54085 -0.014
C 7.35384 29.88423 0.02147
C 7.31588 28.51266 0.00373
C 4.93903 4.34851 0.03693
C 18.41034 30.47797 -0.00652
C 17.21236 29.78221 0.0058
C 17.19208 28.41384 -0.00865
C 29.51357 4.29635 0.00716
C 29.43745 2.84623 0.00307
C 30.67434 2.13224 0.00346
C 30.65272 0.70021 0.01713
C 29.42031 33.99995 -0.01694
C 31.89403 32.7364 0.01428
C 33.15045 32.07412 -0.02142
C 33.13423 30.5721 0.0544
C 31.81572 29.75872 0.00026
C 32.01782 28.37108 0.00682
C 33.24004 27.74056 -0.01779
C 33.22161 26.32559 0.03794
C 32.07121 25.61473 0.01927
C 31.81701 24.28955 0.01574
C 33.11964 23.44852 -0.02383
C 33.12827 22.04316 -0.01429
C 31.99959 21.25962 -0.0136
C 32.0621 19.92225 0.00594
C 33.21091 19.17159 -0.02474
C 30.72505 4.97999 0.02108
C 30.62527 6.32324 0.0103
C 30.82017 17.82473 0.07705
C 30.85555 19.18741 0.01908
C 26.98829 32.48512 0.02326
C 28.25113 31.89274 0.00261
C 28.35239 22.01177 0.03265
C 27.06114 21.73428 -0.02049
C 27.08142 19.2779 -0.01854
C 28.39225 19.17594 -0.01415
C 28.45414 6.40689 -0.03039
C 28.32629 5.04376 0.01836
C 27.1445 4.22841 0.03531
C 33.15923 17.74444 0.00369
C 27.09702 2.75977 -0.00669
C 28.23451 0.58614 0.01705
C 26.98423 33.92462 -0.0405
C 29.44973 32.58452 -0.01303
C 30.72843 31.96951 -0.01461
C 30.77297 30.63874 -0.02155
C 30.82043 23.36661 -0.00944
C 30.69018 21.98484 -0.03735
C 29.48518 21.33897 -0.00971
C 29.52813 19.89619 0.01518
C 28.32062 2.03317 0.0101
C 24.57124 0.02503 0.00924
C 31.83047 16.98066 0.00455
C 33.07838 14.71549 -0.01839
C 34.39892 19.84574 0.01951
C 1.19195 19.19528 -0.01678
C 1.19455 17.83696 0.01223
C 34.35378 17.07866 0.00648
C 34.41968 15.6743 0.02114
C 1.19725 14.96819 -0.02957
C 1.23651 13.57155 0.00343
C 0.02082 12.81021 -0.02656
C 0.08528 11.38181 -0.02442
C 1.29868 10.61802 -0.00027
C 1.26353 9.25442 -0.00583
C 34.42794 8.60105 -0.02302
C 34.31218 7.09929 -0.02849
C 1.14629 6.46553 0.02931
C 1.17073 4.99638 0.00628
C 34.40352 4.28891 -0.0345
C 34.40278 2.81658 -0.00931
C 1.20557 2.15232 -0.00939
C 1.21126 0.76357 -0.00468
C 34.38053 21.26727 -0.02213
C 1.2037 21.93703 0.02712
C 1.20424 23.40418 0.00723
C 34.4106 24.10568 0.03076
C 33.19991 13.37143 0.00137
C 33.23827 10.8171 0.00199
C 33.06379 9.3895 0.04381
C 32.07039 8.50203 0.02806
C 31.80588 7.1398 0.01504
C 33.12984 6.38298 -0.00069
C 33.18913 4.9259 0.04926
C 31.95237 4.17439 -0.03838
C 31.84229 2.81331 0.00349
C 32.04212 15.62972 -0.00644
C 33.16424 2.11104 -0.00323
C 31.91255 0.08183 0.0001
C 34.38872 32.7427 -0.02927
C 1.1741 31.99829 -0.01404
C 1.27874 30.58721 0.01027
C 0.00486 29.86457 0.01831
C 0.01482 28.44842 -0.01037
C 1.2062 27.70123 -0.00439
C 1.20878 26.2575 -0.00598
C 0.00603 25.51365 -0.05239
C 33.19239 0.77492 -0.00841
C 3.5765 31.97829 0.00402
C 25.8053 0.69592 0.0014
C 24.65237 2.8629 0.04266
C 18.41946 0.69582 -0.03213
C 17.18608 34.01061 0.02239
C 19.55971 32.62801 0.01153
C 20.92082 31.90368 0.02734
C 20.92465 30.42888 -0.0055
C 19.66903 29.73001 0.01515
C 19.60011 28.36353 -0.00225
C 20.91597 27.69453 0.00071
C 20.91156 26.32841 -0.01107
C 19.59671 25.58857 -0.01586
C 19.71309 24.11498 -0.01971
C 20.99557 23.39089 -0.02118
C 20.89581 21.98855 0.00733
C 19.70538 21.21957 -0.00178
C 19.65438 19.8134 0.00768
C 20.81369 19.0852 -0.0276
C 20.85623 17.74094 0.03005
C 19.66108 17.04064 -0.04078
C 19.60782 15.62594 0.02117
C 18.37603 2.08936 -0.02845
C 17.099 2.82532 0.03374
C 17.21861 4.19027 0.0296
C 18.36495 4.94796 0.03046
C 18.3137 27.65851 0.00675
C 18.3576 26.20771 -0.00311
C 17.08805 25.57163 0.00742
C 17.17621 24.13456 -0.01594
C 18.47468 23.39945 0.0106
C 18.45666 21.97365 -0.01154
C 17.22172 21.30976 -0.01721
C 17.20785 19.88793 -0.02422
C 18.42782 19.12562 0.01277
C 21.01844 14.85301 0.02737
C 18.43993 17.77941 0.00096
C 17.26499 15.62136 0.01087
C 18.30024 14.78548 0.00199
C 18.57917 13.43235 0.01511
C 17.15914 11.28791 -0.00478
C 18.42713 10.68338 -0.01662
C 18.45132 9.24543 -0.01185
C 17.24986 8.54475 0.01126
C 17.23122 7.09543 0.01852
C 18.45743 6.35072 -0.00381
C 17.17128 16.98373 -0.01527
C 25.85991 2.05685 0.01324
C 20.97357 13.40373 -0.00498
C 19.62063 11.37882 0.03102
C 21.99529 15.72424 0.00487
C 22.01067 8.43009 0.00826
C 22.20343 7.02717 -0.00294
C 23.4712 6.3933 0.00152
C 23.39428 5.00659 0.01257
C 22.15393 4.32516 0.02316
C 22.05681 2.89304 0.04185
C 23.35281 2.15651 0.00194
C 23.37984 0.75745 -0.00621
C 22.09584 34.03143 0.02611
C 24.60528 32.59999 0.02198
C 25.71418 31.96421 0.01094
C 25.84153 22.0127 0.00235
C 24.686 21.35856 0.01495
C 24.58597 19.83409 0.01259
C 25.83097 19.09736 0.01799
C 25.85024 6.39412 0.01699
C 25.97481 5.04887 -0.00416
C 24.60283 4.21085 0.01177
C 22.22824 17.04358 -0.00942
C 23.36729 17.82435 -0.02815
C 23.34492 19.16624 0.00622
C 22.08755 19.81559 -0.0032
C 20.71192 10.55643 0.02555
C 20.98915 9.2443 0.01423
C 19.66959 8.48789 -0.00285
C 19.59908 7.08698 -0.009
C 20.88214 6.33129 -0.01199
C 20.84066 4.89409 -0.00229
C 19.62174 4.16359 -0.00938
C 19.56709 2.80018 -0.0264
C 20.8283 2.12359 -0.01154
C 19.83492 12.75805 0.00135
C 20.90574 0.74391 0.00684
C 22.04189 32.62954 -0.01679
C 23.31734 31.85783 0.00367
C 23.49337 30.43554 0.04306
C 22.08749 28.37193 0.00996
C 22.09588 25.59544 0.00195
C 22.4309 24.25508 -0.00802
C 23.35466 23.26362 -0.00218
C 23.39377 21.98108 -0.01654
C 22.10253 21.23085 -0.00037
C 19.65933 0.02139 -0.01052
C 2.39835 32.72637 0.02374
