335
Graphene
C 34.42954 0.01412 0.01295
C 10.99318 9.21079 0.00979
C 9.76166 8.58767 0.01443
C 9.7965 7.16157 0.03505
C 10.95399 6.46747 -0.02815
C 10.98247 5.03719 -0.04147
C 9.77057 4.28851 -0.05302
C 9.86095 2.84451 0.00213
C 11.06018 2.08727 -0.00066
C 11.07411 0.70661 -0.00289
C 9.86164 34.04021 0.00028
C 12.40513 32.62265 -0.02213
C 13.63403 31.95775 0.03698
C 13.59632 30.50134 -0.00109
C 12.34296 29.8882 -0.00491
C 12.35906 28.37445 0.03338
C 13.59465 27.81087 -0.0258
C 12.05037 12.52146 -0.0331
C 11.06666 10.64602 -0.00481
C 12.29709 11.22485 -0.00316
C 9.83675 11.4021 0.00889
C 11.0246 13.2867 -0.00619
C 7.29507 8.64341 0.00374
C 7.36294 7.19636 0.00052
C 8.66965 6.47917 -0.03682
C 8.63086 5.05918 0.01965
C 7.40925 4.38506 0.02058
C 7.39783 2.96128 -0.01957
C 8.6437 2.18558 -0.0108
C 8.59257 0.73636 -0.00368
C 7.37944 0.01357 -0.02696
C 9.83545 32.6196 -0.00114
C 11.11832 31.94733 0.00228
C 11.14284 30.53136 0.00798
C 9.87689 29.82717 0.00422
C 9.85977 28.42928 0.0351
C 11.13966 27.7263 -0.03113
C 11.06648 26.32314 0.02098
C 9.89306 25.70105 0.01848
C 9.78287 12.83903 -0.02162
C 8.52027 9.3279 -0.02813
C 13.53235 10.5543 0.02188
C 12.31932 8.54277 0.02691
C 15.99833 0.69833 -0.00865
C 14.74371 0.04058 0.00675
C 17.26033 32.72 -0.00311
C 18.46284 31.91742 0.00742
C 18.47183 30.42502 -0.01594
C 17.22627 29.77214 0.0106
C 17.20923 28.45103 -0.01154
C 18.41601 27.83961 -0.01721
C 18.30607 2.15215 -0.02422
C 18.45106 0.79851 0.01277
C 17.25092 0.01344 0.00096
C 19.63587 32.73318 -0.01527
C 20.88694 31.91725 0.01087
C 20.8394 30.51541 0.00199
C 19.64948 29.80131 0.01511
C 19.73805 28.13369 -0.00478
C 20.96931 27.48133 -0.01662
C 16.13069 2.17507 0.0058
C 13.64696 9.06411 -0.01979
C 14.91751 2.92655 -0.00652
C 14.75175 6.94543 -0.00703
C 12.28453 7.08275 -0.01581
C 13.53168 6.38034 0.01452
C 13.44984 4.97014 0.04892
C 12.22955 4.28028 -0.00111
C 12.26643 2.7707 -0.03557
C 13.54098 2.18064 0.03754
C 13.55595 0.77775 0.01739
C 12.34148 0.00527 0.00755
C 14.82076 32.69722 -0.0054
C 16.03021 32.00949 0.00667
C 16.03769 30.53189 0.00143
C 14.82991 29.79508 -0.017
C 14.74278 28.46831 0.00364
C 14.70039 11.36908 -0.00831
C 15.79425 10.46433 -0.02957
C 16.03989 9.12166 -0.04422
C 14.93318 8.31823 0.00654
C 14.62839 4.21726 -0.04076
C 20.85515 2.16544 -0.01185
C 8.5156 10.73401 -0.01952
C 7.38041 12.89428 -0.01717
C 2.41936 8.48019 -0.01004
C 2.44451 7.08392 -0.02896
C 3.65755 6.38276 -0.00131
C 3.66173 4.93559 -0.01118
C 2.42191 4.20175 -0.014
C 2.43897 2.76219 0.02147
C 3.68212 2.10485 0.00373
C 3.74473 0.72583 -0.00191
C 2.49915 0.02572 0.00438
C 4.9202 32.70461 0.01291
C 6.1929 32.02543 0.00093
C 6.06877 30.57341 0.00057
C 4.84401 29.86698 -0.01634
C 4.95358 28.39564 -0.00334
C 6.12762 27.61758 0.02339
C 6.161 26.27731 0.01641
C 4.94504 25.53803 -0.00719
C 3.65063 9.20995 0.00488
C 4.97472 24.11484 0.01364
C 3.60903 10.62709 0.01745
C 2.46713 12.79532 -0.01384
C 3.70418 30.59689 -0.01142
C 2.43098 29.95156 -0.00562
C 2.4291 28.51931 -0.00494
C 3.66473 27.79557 0.00054
C 3.66637 26.28275 0.03007
C 2.40394 25.58659 -0.00095
C 2.46441 24.1865 0.01572
C 3.73391 23.41667 -0.04848
C 3.77265 21.96835 -0.00892
C 2.47844 21.25488 -0.01362
C 2.43018 19.80277 -0.0008
C 3.70084 19.05668 0.0288
C 3.63849 17.65442 0.00393
C 2.35532 17.00531 0.00895
C 2.40369 15.60437 0.00685
C 3.66309 14.8976 0.02888
C 3.69262 13.52261 -0.00482
C 2.43217 11.39012 0.03693
C 7.29412 11.47034 0.05265
C 6.18063 23.36033 -0.01062
C 4.96857 21.29194 0.03589
C 8.59815 32.00379 -0.01789
C 8.66424 30.50308 0.00444
C 7.34314 29.85884 -0.00925
C 7.37053 28.35011 0.01877
C 8.65263 27.7022 0.01363
C 8.67415 26.22865 -0.02162
C 7.43051 25.57831 0.00415
C 7.41422 24.1222 -0.0014
C 8.7386 23.47454 0.02162
C 8.4022 22.06528 0.0076
C 7.58199 21.04093 0.01241
C 7.40371 19.63628 -0.01454
C 8.42784 18.00127 0.01945
C 7.34267 17.08968 0.01416
C 7.35871 15.68887 0.03542
C 8.58933 14.9326 0.02299
C 8.60125 13.54249 0.00244
C 7.41088 32.6961 0.02894
C 6.17762 21.86713 -0.00033
C 4.97006 0.04951 -0.02971
C 6.16987 2.22384 0.02819
C 4.89859 19.86907 -0.02759
C 6.08927 19.11363 0.0402
C 6.136 17.65471 0.00572
C 4.86776 17.00122 0.03592
C 4.92469 15.58767 0.00406
C 6.16816 14.89893 0.00943
C 6.13189 13.55536 0.02841
C 4.88614 12.82857 -0.01111
C 4.85723 11.42524 -0.01275
C 6.09418 10.67353 0.00985
C 6.03287 9.29591 -0.02245
C 4.87477 8.52867 -0.00428
C 4.84071 7.11999 0.03101
C 6.10281 6.43057 -0.01536
C 6.12941 5.01689 -0.02689
C 4.90813 4.30695 -0.01046
C 4.88492 2.86355 -0.00891
C 6.18627 0.81442 0.00165
C 3.7528 32.00953 0.01849
C 20.83112 0.77382 0.01126
C 22.1386 32.70653 -0.00381
C 31.92676 28.37316 0.0544
C 33.13986 27.72587 0.00026
C 33.18507 26.28182 0.00682
C 31.97555 25.52909 -0.01779
C 31.92063 24.16391 0.03794
C 33.21119 23.4697 0.01927
C 33.25186 21.98575 0.01574
C 32.01119 21.27681 -0.02383
C 31.99011 19.85432 -0.01429
C 33.23277 19.17465 -0.0136
C 33.14365 17.76953 0.00594
C 31.8653 17.08772 -0.02474
C 31.88114 15.65121 0.00369
C 33.17599 14.95988 0.00455
C 33.22045 13.52767 -0.00644
C 31.9077 12.80962 -0.01839
C 31.96079 11.41466 0.00137
C 31.95659 29.79056 -0.02142
C 33.21471 10.67008 0.00199
C 33.19271 30.55214 0.01428
C 31.95078 32.68163 0.01713
C 29.47323 17.08085 0.0101
C 29.45807 15.64794 0.01705
C 30.69536 14.948 -0.0405
C 30.71156 13.48747 -0.01303
C 29.50277 12.79953 -0.01461
C 29.45356 11.38093 -0.02155
C 30.69589 10.70725 -0.00944
C 30.70632 9.31073 -0.03735
C 29.4649 8.5183 -0.00971
C 29.48938 7.06591 0.01518
C 30.77991 6.40227 0.01908
C 30.74482 5.00054 0.07705
C 29.45801 4.28521 0.0103
C 29.50331 2.88163 0.02108
C 30.71532 2.11179 0.00716
C 30.69106 0.70882 0.00307
C 29.48307 0.00492 0.00346
C 33.18619 31.99789 -0.01694
C 30.71567 17.79085 -0.00669
C 33.16968 9.23644 0.04381
C 31.99463 7.09688 0.01504
C 1.17184 17.78799 0.01223
C 34.41899 17.09212 0.00648
C 34.37345 15.68019 0.02114
C 1.15587 14.91166 -0.02957
C 1.22563 13.54019 0.00343
C 34.40853 12.80134 -0.02656
C 0.00968 11.38659 -0.02442
C 1.19454 10.66118 -0.00027
C 1.22044 9.1932 -0.00583
C 34.37744 8.50448 -0.02302
C 0.0122 7.08844 -0.02849
C 1.22297 6.35426 0.02931
C 1.20795 4.9386 0.00628
C 34.38668 4.236 -0.0345
C 34.41895 2.84039 -0.00931
C 1.22016 2.10743 -0.00939
C 1.19062 0.70296 -0.00468
C 1.20307 19.16459 -0.01678
C 31.95631 8.4972 0.02806
C 34.38596 19.88297 0.01951
C 1.25352 22.01257 0.02712
C 33.19864 6.37535 -0.00069
C 33.1219 4.96422 0.04926
C 31.90957 4.26157 -0.03838
C 31.9264 2.89153 0.00349
C 33.14674 2.17492 -0.00323
C 33.18316 0.71692 -0.00841
C 31.96468 0.01468 0.0001
C 34.40579 32.68353 -0.02927
C 1.2371 31.99332 -0.01404
C 1.22287 30.56698 0.01027
C 0.0056 29.83791 0.01831
C 34.42728 28.45163 -0.01037
C 1.22887 27.71775 -0.00439
C 1.17564 26.34488 -0.00598
C 0.00651 25.63335 -0.05239
C 0.01547 24.13587 0.03076
C 1.27909 23.41569 0.00723
C 0.01701 21.27647 -0.02213
C 19.59627 0.05021 0.01852
C 30.70159 19.18794 0.03531
C 29.4713 21.28579 -0.03039
C 25.70426 23.37168 -0.04078
C 25.68952 22.02966 0.02117
C 24.54244 21.20358 0.02737
C 24.67193 19.89284 -0.00498
C 25.79667 19.12966 0.00135
C 25.77525 17.74187 0.03102
C 24.5038 17.09341 0.02555
C 24.94415 15.84802 0.01423
C 25.89065 14.81432 -0.00285
C 26.00725 6.27703 -0.009
C 25.6871 4.94788 -0.01199
C 24.40007 4.19697 -0.00229
C 24.53594 2.78093 -0.00938
C 25.70191 2.12877 -0.0264
C 25.79817 0.74653 -0.01154
C 24.50092 34.07505 0.00684
C 26.94826 32.63766 -0.01052
C 24.69186 24.26628 0.03005
C 28.2501 31.90416 -0.01679
C 24.60206 25.62409 -0.0276
C 25.86702 27.61752 -0.00178
C 23.32722 31.9647 0.03046
C 23.36354 30.57386 0.0296
C 22.09653 29.8724 0.03374
C 22.13508 28.44931 -0.02845
C 23.32986 27.71111 -0.03213
C 23.32408 26.30912 0.02239
C 22.03365 25.61502 0.01153
C 23.09238 4.75481 0.02734
C 22.08391 2.91334 -0.0055
C 23.24686 2.14405 0.01515
C 23.25707 0.77522 -0.00225
C 22.04684 0.13698 0.00071
C 24.53391 32.6685 -0.01107
C 25.73984 31.95259 -0.01586
C 25.80712 30.55614 -0.01971
C 24.56933 29.84273 -0.02118
C 24.5752 28.41882 0.00733
C 25.8369 26.24187 0.00768
C 29.50357 19.85892 0.01836
C 28.18861 30.51134 0.00367
C 27.05465 28.32817 0.00996
C 28.22073 4.99653 0.00235
C 26.99059 4.23011 0.01495
C 26.99931 2.83894 0.01259
C 28.26124 2.10437 0.01799
C 28.2742 0.67548 0.01699
C 27.04018 0.02207 -0.00416
C 29.44788 32.67729 0.01177
C 30.77321 31.97796 0.04266
C 30.70977 30.58153 0.01324
C 29.444 29.83759 0.0014
C 29.45163 28.36292 0.00924
C 30.74082 27.68873 0.02326
C 30.74097 26.27584 0.00261
C 29.53363 25.51493 0.03265
C 29.55046 24.03325 -0.02049
C 30.73651 23.40187 -0.01854
C 30.69435 21.98623 -0.01415
C 28.22899 6.4286 0.01094
C 27.0418 29.78176 0.04306
C 26.94439 7.22575 0.02198
C 28.23875 9.22097 -0.00621
C 28.28678 27.59053 0.00195
C 28.27375 26.18137 -0.00802
C 27.04745 25.50968 -0.00218
C 27.09049 24.08378 -0.01654
C 28.32646 23.3311 -0.00037
C 28.22403 21.96235 -0.0032
C 26.89378 21.31075 0.00622
C 26.9286 19.85404 -0.02815
C 28.20966 19.21217 -0.00942
C 28.22479 17.76402 0.00487
C 26.96655 17.05596 0.00826
C 26.97175 15.61118 -0.00294
C 28.2139 14.89616 0.00152
C 28.30178 13.5433 0.01257
C 27.18291 12.65091 0.02316
C 27.09237 11.40814 0.04185
C 28.21496 10.61354 0.00194
C 27.05005 8.51764 0.02611
C 2.47997 32.66246 0.01396
