440
Graphene
C 0.00908 34.01645 0.01295
C 12.12143 19.972 -0.01634
C 13.48902 19.13042 -0.00334
C 13.46076 17.74046 0.02339
C 12.17577 17.07893 0.01641
C 12.15175 15.62959 -0.00719
C 13.4482 15.00833 0.01364
C 13.5214 13.64382 -0.01062
C 12.32115 12.83508 -0.00033
C 12.30265 11.52108 0.03589
C 13.5003 10.69715 -0.02759
C 13.44867 9.19895 0.0402
C 12.25481 8.50829 0.00572
C 12.33279 7.05512 0.03592
C 13.56999 6.3433 0.00406
C 13.67052 4.86974 0.00943
C 12.35302 4.36858 0.02841
C 12.29632 2.91023 -0.01111
C 13.52697 2.17679 -0.01275
C 13.44322 0.73897 0.00985
C 12.25767 0.09989 -0.02245
C 14.68839 32.58847 -0.00428
C 15.95543 32.04665 0.03101
C 15.99636 30.56767 -0.01536
C 12.22092 21.30922 0.00057
C 13.45765 22.05043 0.00093
C 13.51446 23.53393 0.01291
C 12.36548 24.21908 0.00438
C 9.72307 15.70081 -0.00095
C 10.92367 14.91544 0.01572
C 11.01255 13.49622 -0.04848
C 9.77187 12.80616 -0.00892
C 9.78424 11.3466 -0.01362
C 11.09311 10.73246 -0.0008
C 11.1226 9.2728 0.0288
C 9.83679 8.62968 0.00393
C 9.81337 7.22297 0.00895
C 11.00815 6.4332 0.00685
C 11.01219 5.04346 0.02888
C 14.78971 29.91231 -0.02689
C 9.90081 4.28372 -0.00482
C 11.04291 2.22555 0.03693
C 11.08208 0.76097 0.01745
C 9.80806 0.09476 0.00488
C 12.21722 32.70768 -0.01004
C 13.42613 31.92562 -0.02896
C 13.51115 30.58321 -0.00131
C 12.26594 29.73486 -0.01118
C 12.29769 28.3792 -0.014
C 13.56563 27.70251 0.02147
C 13.57509 26.26779 0.00373
C 12.26553 25.66678 -0.00191
C 9.76942 2.83967 -0.01384
C 9.69302 17.1034 0.03007
C 14.78679 28.47212 -0.01046
C 15.93702 26.26521 0.02819
C 17.23501 29.77642 0.02058
C 17.2112 28.44302 -0.01957
C 18.47896 27.70454 -0.0108
C 18.42994 26.34749 -0.00368
C 17.19548 25.62688 -0.02696
C 17.17589 24.1463 -0.00114
C 18.40983 23.48895 0.00228
C 18.34427 22.06694 0.00798
C 17.11471 21.38023 0.00422
C 17.14095 19.86248 0.0351
C 18.36682 19.17134 -0.03113
C 18.40389 17.80294 0.02098
C 17.15476 17.06559 0.01848
C 17.05717 15.70521 -0.00619
C 18.31356 14.90445 -0.02162
C 18.40383 13.49596 0.00889
C 17.18723 12.79482 -0.00481
C 17.23174 11.34289 0.00979
C 18.44283 10.6673 0.01443
C 18.33734 9.26241 0.03505
C 17.14831 8.47597 -0.02815
C 17.15691 6.99557 -0.04147
C 18.42037 6.34706 -0.05302
C 18.40872 30.66947 0.01965
C 18.38878 32.03008 -0.03682
C 17.15587 32.74526 0.00052
C 14.64912 34.00624 0.00374
C 14.77494 25.54517 0.00165
C 14.7634 24.21391 -0.02971
C 15.92767 23.474 0.02894
C 15.92922 22.06627 -0.01789
C 14.65943 21.31939 0.00444
C 14.69984 19.87669 -0.00925
C 15.9062 19.18474 0.01877
C 15.89648 17.80601 0.01363
C 14.71594 17.09081 -0.02162
C 14.70974 15.75812 0.00415
C 15.87067 14.9592 -0.0014
C 15.9354 27.66247 -0.00891
C 15.97911 13.45808 0.02162
C 14.69378 11.43829 0.01241
C 16.02603 10.65479 -0.01454
C 15.91832 9.16474 0.01945
C 14.68352 8.35335 0.01416
C 14.76833 7.03682 0.03542
C 16.02148 6.18157 0.02299
C 16.15608 4.78288 0.00244
C 14.85519 4.21577 -0.01717
C 14.79538 2.76016 0.05265
C 15.99046 1.92756 -0.01952
C 15.89581 0.56807 -0.02813
C 14.71187 12.78241 0.0076
C 18.53722 4.88341 0.00213
C 11.02378 17.77835 0.00054
C 9.79849 19.84127 -0.00562
C 3.71648 0.71952 0.04421
C 2.51138 0.01268 0.00088
C 4.94735 32.73561 0.00828
C 6.13345 31.98822 -0.02375
C 6.09201 30.56463 0.00558
C 4.81553 29.84062 -0.0059
C 4.86691 28.37563 -0.01386
C 6.04228 27.73278 -0.02805
C 6.09057 26.31132 0.00081
C 4.94479 25.54106 0.00245
C 4.92765 24.1027 0.02728
C 6.06337 23.40773 -0.00039
C 6.07782 21.98987 0.0064
C 4.79205 21.37511 0.00211
C 4.81933 19.96333 -0.00449
C 6.03741 19.2522 -0.01979
C 5.97793 17.83266 0.02784
C 4.86988 16.99027 -0.01977
C 4.86744 15.56502 -0.00561
C 6.11467 14.89514 0.00208
C 6.15388 13.5278 0.01707
C 4.81267 12.78667 0.02769
C 4.91118 11.42712 -0.03291
C 3.72373 2.16324 -0.00177
C 2.52774 2.84167 0.03278
C 2.55881 4.3169 0.01138
C 3.78835 5.0216 -0.00407
C 3.69827 30.62808 0.01116
C 2.46042 29.84553 -0.0005
C 2.44232 28.40458 -0.00018
C 3.63423 27.66065 0.01073
C 3.70267 26.26102 0.01984
C 2.46842 25.52418 0.00535
C 2.49254 24.12424 -0.00198
C 3.65517 23.45023 -0.00012
C 3.54712 22.00382 -0.04306
C 2.31049 21.26434 -0.03672
C 2.36985 19.88491 0.01913
C 6.15701 10.76691 -0.04999
C 3.66062 19.12977 0.00267
C 2.37109 17.0829 0.02426
C 2.31866 15.68854 0.01218
C 3.58018 14.91255 -0.01471
C 3.55754 13.50494 -0.02827
C 2.31743 12.78451 0.01078
C 2.33129 11.25275 -0.00112
C 3.63223 10.69935 0.03345
C 3.73704 9.2542 0.00748
C 2.50951 8.59037 0.00662
C 2.49505 7.11932 -0.0154
C 3.75595 6.45157 -0.01299
C 3.62778 17.71903 0.00787
C 10.98773 19.15265 -0.00494
C 6.09992 9.30596 0.04505
C 5.00893 7.13919 -0.04307
C 8.59401 10.64734 -0.00725
C 8.55131 9.22677 -0.05697
C 7.34401 8.53641 0.01087
C 7.38269 7.2031 -0.01343
C 8.57692 6.54543 0.00988
C 8.68618 5.07006 0.0276
C 7.43346 4.34693 0.01305
C 7.30686 2.90902 -0.00077
C 8.55814 2.21145 0.03368
C 8.61384 0.73096 -0.02929
C 7.34905 0.0572 -0.00966
C 9.8168 32.73817 -0.03337
C 11.08878 31.98135 0.01227
C 11.09608 30.55224 0.00873
C 9.83222 29.78488 -0.00049
C 9.75947 28.42822 0.00848
C 11.03751 27.68783 -0.01303
C 11.03802 26.27884 -0.01378
C 9.7982 25.5874 0.02635
C 9.76279 24.23916 0.0127
C 11.06167 23.46911 0.01396
C 11.00098 22.02811 0.01849
C 9.763 21.32292 -0.01142
C 7.42427 11.41552 0.02322
C 7.42742 12.91062 -0.00094
C 8.63761 13.56645 -0.02566
C 8.49938 15.02599 -0.03113
C 6.19724 6.46919 0.03189
C 6.21403 5.05591 0.00031
C 4.95673 4.32476 -0.003
C 4.95275 2.95248 0.01402
C 6.16723 2.19853 0.02379
C 6.1447 0.8113 0.00907
C 4.93504 0.03164 0.00643
C 7.31824 32.69696 -0.01509
C 8.6088 31.97196 0.03267
C 8.68127 30.52145 0.02374
C 7.43187 29.88732 0.00402
C 4.95856 8.53981 0.03284
C 7.29588 28.42643 0.0073
C 8.57416 26.42308 0.03828
C 7.34377 25.6184 0.01226
C 7.29656 24.16388 -0.00279
C 8.57331 23.45504 0.01996
C 8.55624 22.05396 -0.03996
C 7.404 21.35131 0.01465
C 7.33223 19.91574 -0.00074
C 8.55614 19.21401 -0.00518
C 8.4345 17.84281 0.0086
C 7.24152 17.11276 -0.00643
C 7.27336 15.74315 0.017
C 8.57738 27.81617 0.0174
C 17.52698 3.98078 -0.00066
C 17.50638 2.40642 -0.00289
C 18.2595 1.13493 0.00028
C 30.61148 14.93856 -0.0405
C 30.61564 13.45475 -0.01303
C 29.42841 12.66345 -0.01461
C 29.54245 11.29972 -0.02155
C 30.7452 10.45342 -0.00944
C 30.78739 9.08409 -0.03735
C 29.50617 8.40624 -0.00971
C 29.47428 7.04015 0.01518
C 30.74175 6.29554 0.01908
C 30.73184 4.9127 0.07705
C 29.5031 4.23568 0.0103
C 29.60266 2.78544 0.02108
C 30.78848 2.03922 0.00716
C 30.79347 0.71008 0.00307
C 29.4929 34.06363 0.00346
C 31.97087 32.67575 0.01713
C 33.25091 31.91722 -0.01694
C 33.22227 30.48099 0.01428
C 31.95342 29.83785 -0.02142
C 31.96233 28.35901 0.0544
C 33.24238 27.65856 0.00026
C 33.18894 26.26276 0.00682
C 31.94246 25.57539 -0.01779
C 29.37107 15.60611 0.01705
C 29.42135 17.02521 0.0101
C 30.66156 17.72726 -0.00669
C 30.66317 19.1097 0.03531
C 28.27571 10.55662 0.00194
C 28.26528 9.09102 -0.00621
C 27.07493 8.43116 0.02611
C 27.00289 7.03715 0.02198
C 28.19512 6.37987 0.01094
C 28.18995 4.96445 0.00235
C 27.01781 4.24032 0.01495
C 27.11274 2.76648 0.01259
C 28.32525 2.06007 0.01799
C 28.24386 0.6789 0.01699
C 26.92636 0.07307 -0.00416
C 31.89245 24.06574 0.03794
C 29.46119 32.64212 0.01177
C 30.69903 30.5757 0.01324
C 29.46261 29.88377 0.0014
C 29.53258 28.51214 0.00924
C 30.76604 27.71388 0.02326
C 30.72464 26.27221 0.00261
C 29.47703 25.54015 0.03265
C 29.42528 24.10487 -0.02049
C 30.67196 23.41241 -0.01854
C 30.65433 22.00415 -0.01415
C 29.48301 21.2954 -0.03039
C 29.46638 19.83199 0.01836
C 30.78258 31.9108 0.04266
C 27.03438 11.24257 0.04185
C 33.13687 23.44909 0.01927
C 31.86578 21.31819 -0.02383
C 34.41335 24.20265 0.03076
C 1.20905 23.44221 0.00723
C 1.08507 21.97083 0.02712
C 34.34219 21.2413 -0.02213
C 34.32759 19.90911 0.01951
C 1.07571 19.1061 -0.01678
C 1.19419 17.73197 0.01223
C 34.39923 17.02253 0.00648
C 34.30373 15.64573 0.02114
C 1.16456 14.90507 -0.02957
C 1.12745 13.50072 0.00343
C 34.30454 12.70663 -0.02656
C 34.34651 11.34577 -0.02442
C 1.14294 10.59782 -0.00027
C 1.20169 9.22283 -0.00583
C 34.38925 8.48569 -0.02302
C 34.40977 7.0367 -0.02849
C 1.24602 6.36343 0.02931
C 1.29699 4.98284 0.00628
C 0.07789 4.26525 -0.0345
C 0.07217 2.87695 -0.00931
C 1.22732 2.13274 -0.00939
C 1.26414 0.69333 -0.00468
C 0.01576 25.58133 -0.05239
C 1.29413 26.37204 -0.00598
C 1.31195 27.75355 -0.00439
C 0.05374 28.47597 -0.01037
C 31.91299 19.79649 -0.01429
C 33.12176 19.19776 -0.0136
C 33.10791 17.72987 0.00594
C 31.99728 16.99987 -0.02474
C 31.91611 15.59483 0.00369
C 33.11261 14.84535 0.00455
C 33.08178 13.39708 -0.00644
C 31.82089 12.75856 -0.01839
C 31.87081 11.23765 0.00137
C 33.13528 10.54497 0.00199
C 33.15302 9.11544 0.04381
C 33.06209 22.06879 0.01574
C 31.99886 8.32268 0.02806
C 33.2368 6.26654 -0.00069
C 33.19317 4.90765 0.04926
C 31.92595 4.16586 -0.03838
C 32.02959 2.82087 0.00349
C 33.2682 2.14578 -0.00323
C 33.26129 0.73289 -0.00841
C 32.03681 0.06367 0.0001
C 0.04532 32.59244 -0.02927
C 1.33642 32.02171 -0.01404
C 1.27904 30.56012 0.01027
C 34.39056 29.81824 0.01831
C 31.9379 6.95429 0.01504
C 26.99038 12.64303 0.02316
C 28.22134 13.31933 0.01257
C 28.20699 14.85376 0.00152
C 21.9045 32.85511 -0.00703
C 23.16782 32.13181 -0.04076
C 23.30341 30.64059 -0.00652
C 22.08823 29.92571 0.0058
C 22.08481 28.47793 -0.00865
C 23.35259 27.66135 0.00675
C 23.25142 26.30281 -0.00311
C 22.1026 25.59253 0.00742
C 22.16755 24.18796 -0.01594
C 23.28349 23.42771 0.0106
C 23.30688 21.93894 -0.01154
C 22.0603 21.29492 -0.01721
C 22.09178 19.91393 -0.02422
C 23.36048 19.18609 0.01277
C 23.31481 17.74471 0.00096
C 22.10913 17.1109 -0.01527
C 22.02634 15.59058 0.01087
C 23.28981 14.85169 0.00199
C 23.29253 13.4595 0.01511
C 22.02078 12.77377 -0.00478
C 22.11587 11.36932 -0.01662
C 23.31274 10.57875 -0.01185
C 23.29799 9.13578 0.01126
C 19.66573 0.31127 0.00654
C 20.71522 6.3068 -0.04422
C 19.60809 7.09661 -0.02957
C 19.64681 8.53064 -0.00831
C 17.28425 34.07785 -0.02213
C 19.5773 32.9345 0.03698
C 20.75906 32.05456 -0.00109
C 20.83273 30.66871 -0.00491
C 19.61976 29.95476 0.03338
C 19.66047 28.49069 -0.0258
C 20.85927 27.82056 -0.0331
C 20.85825 26.28764 -0.00316
C 19.67272 25.65415 0.02188
C 19.65293 24.21098 -0.01979
C 20.8473 23.44138 0.02691
C 22.01922 8.38974 0.01852
C 20.83064 22.03497 -0.01581
C 19.58982 19.86175 0.04892
C 20.92922 19.20482 -0.00111
C 20.91557 17.78425 -0.03557
C 19.6141 17.08126 0.03754
C 19.59004 15.58303 0.01739
C 20.84675 14.90918 0.00755
C 20.84645 13.45438 -0.0054
C 19.62611 12.77853 0.00667
C 19.6365 11.30319 0.00143
C 20.85422 10.66583 -0.017
C 20.87542 9.27513 0.00364
C 19.52166 21.30239 0.01452
C 21.99202 6.95013 -0.00381
C 23.31484 6.2346 0.03046
C 23.44038 4.857 0.0296
C 25.76457 6.35664 -0.009
C 25.84018 4.94315 -0.01199
C 24.61714 4.23585 -0.00229
C 24.65773 2.89015 -0.00938
C 25.7337 2.12765 -0.0264
C 25.64155 0.73853 -0.01154
C 24.31242 0.13737 0.00684
C 26.87474 32.75821 -0.01052
C 28.22292 31.96475 -0.01679
C 28.12353 30.5407 0.00367
C 27.01475 29.89198 0.04306
C 24.53961 6.88633 -0.00285
C 27.01314 28.44649 0.00996
C 28.27605 26.33683 -0.00802
C 27.05199 25.71868 -0.00218
C 27.07467 24.30136 -0.01654
C 28.18626 23.4644 -0.00037
C 28.20305 22.00331 -0.0032
C 27.04036 21.3388 0.00622
C 27.04588 19.90422 -0.02815
C 28.28138 19.18307 -0.00942
C 28.23586 17.76184 0.00487
C 27.06048 17.03292 0.00826
C 27.04662 15.56451 -0.00294
C 28.2994 27.74692 0.00195
C 3.69866 31.99346 -0.0213
C 24.4612 8.38814 0.01423
C 25.72047 10.60106 0.03102
C 23.26345 2.28781 0.03374
C 22.99218 0.96161 -0.02845
C 21.7233 0.14759 -0.03213
C 24.42205 32.80934 0.02239
C 25.70306 32.07046 0.01153
C 25.74024 30.66027 0.02734
C 24.56208 29.93452 -0.0055
C 24.5454 28.45712 0.01515
C 25.79378 27.72429 -0.00225
C 25.67979 26.31225 0.00071
C 24.43958 25.51745 -0.01107
C 25.72403 9.11972 0.02555
C 24.49414 24.07621 -0.01586
C 25.83007 22.06963 -0.02118
C 24.61417 21.34629 0.00733
C 24.58064 19.88861 -0.00178
C 25.72433 19.23809 0.00768
C 25.7937 17.74968 -0.0276
C 24.49755 17.05798 0.03005
C 24.44013 15.60253 -0.04078
C 25.70035 14.87622 0.02117
C 25.83584 13.50528 0.02737
C 24.61666 12.79968 -0.00498
C 24.52026 11.32581 0.00135
C 25.78221 23.50784 -0.01971
C 2.45335 32.69276 -0.00374
