382
Graphene
C 34.36438 0.04066 0.01295
C 11.05528 2.0959 0.01241
C 11.01072 0.70693 -0.01454
C 9.94045 33.8702 0.01945
C 12.24975 32.75868 0.01416
C 13.45382 32.02701 0.03542
C 13.41881 30.6065 0.02299
C 12.13999 29.96385 0.00244
C 12.26052 28.53207 -0.01717
C 13.47503 27.72047 0.05265
C 13.44582 26.31474 -0.01952
C 12.30251 25.58469 -0.02813
C 12.32938 24.12316 0.00374
C 13.55293 23.38708 0.00052
C 13.58331 21.93734 -0.03682
C 12.33339 21.32758 0.01965
C 12.31003 19.81183 0.02058
C 13.57519 19.18247 -0.01957
C 13.54537 17.82888 -0.0108
C 12.38461 17.03233 -0.00368
C 9.68915 2.81338 0.0076
C 9.80503 4.34111 0.02162
C 11.08257 4.9549 -0.0014
C 11.08055 6.44292 0.00415
C 11.08294 27.74255 -0.01111
C 11.06507 26.24562 -0.01275
C 9.83844 25.58524 0.00985
C 9.84225 24.16619 -0.02245
C 11.11915 23.47667 -0.00428
C 11.12774 22.06094 0.03101
C 9.87569 21.34953 -0.01536
C 9.87662 19.92918 -0.02689
C 11.0553 19.16905 -0.01046
C 12.28311 15.68346 -0.02696
C 11.00772 17.76861 -0.00891
C 9.82923 15.60698 0.00165
C 11.06355 14.85639 -0.02971
C 11.04876 13.41588 0.02894
C 9.83271 12.71543 -0.01789
C 9.83528 11.28768 0.00444
C 11.11427 10.73289 -0.00925
C 11.14052 9.27552 0.01877
C 9.81633 8.54698 0.01363
C 9.86601 7.11151 -0.02162
C 9.82107 17.06986 0.02819
C 13.52253 14.93711 -0.00114
C 13.50609 13.51008 0.00228
C 12.26622 12.77907 0.00798
C 14.80172 19.8587 -0.0258
C 16.01348 19.06241 -0.0331
C 16.04041 17.63551 -0.00316
C 14.79725 17.04129 0.02188
C 14.78915 15.55855 -0.01979
C 15.98856 14.86937 0.02691
C 16.0011 13.52822 -0.01581
C 14.78821 12.80485 0.01452
C 14.80642 11.41303 0.04892
C 14.79284 21.19742 0.03338
C 15.96981 10.60708 -0.00111
C 14.85704 8.50942 0.03754
C 14.94498 7.06506 0.01739
C 16.11842 6.34581 0.00755
C 14.69007 4.11453 -0.0054
C 14.85527 2.76527 0.00667
C 15.99226 0.63104 0.00143
C 14.72904 0.01565 -0.017
C 17.1923 32.66723 0.00364
C 18.27243 31.812 -0.00831
C 16.00412 9.21141 -0.03557
C 9.90337 28.53632 0.02841
C 15.94228 21.89515 -0.00491
C 14.81265 23.99586 0.03698
C 12.36739 11.29803 0.00422
C 13.55131 10.61592 0.0351
C 13.57467 9.23117 -0.03113
C 12.35717 8.5182 0.02098
C 12.34657 7.10385 0.01848
C 13.60896 6.39561 -0.00619
C 13.52953 4.98095 -0.02162
C 12.30115 4.26905 0.00889
C 12.30874 2.86248 -0.00481
C 16.02879 23.2931 -0.00109
C 13.52134 2.19071 0.00979
C 12.36742 0.14751 0.03505
C 14.66972 32.61669 -0.02815
C 15.92459 31.96241 -0.04147
C 15.89357 30.48053 -0.05302
C 14.65921 29.82351 0.00213
C 14.71483 28.41853 -0.00066
C 15.96501 27.64054 -0.00289
C 15.94497 26.23778 0.00028
C 14.74894 25.49685 -0.02213
C 13.51703 0.73511 0.01443
C 9.80907 29.92544 0.00943
C 10.96972 30.74744 0.00406
C 10.98025 32.19441 0.03592
C 3.66614 4.98549 0.02322
C 2.43586 4.29572 -0.00725
C 2.40073 2.87487 -0.05697
C 3.63218 2.22066 0.01087
C 3.54718 0.72318 -0.01343
C 2.36049 34.07854 0.00988
C 4.85299 32.76361 0.0276
C 6.10889 32.18513 0.01305
C 6.17268 30.7175 -0.00077
C 3.59778 6.47404 -0.00094
C 4.888 29.94532 0.03368
C 6.03809 27.77365 -0.00966
C 6.22289 26.30824 -0.03337
C 4.96424 25.6028 0.01227
C 4.88742 24.22765 0.00873
C 6.14232 23.46222 -0.00049
C 6.17185 22.01916 0.00848
C 4.92609 21.3371 -0.01303
C 4.91795 19.93533 -0.01378
C 6.25216 19.22915 0.02635
C 4.88224 28.57096 -0.02929
C 6.24296 17.81964 0.0127
C 2.44853 7.10089 -0.02566
C 3.62334 9.30242 0.017
C 3.57865 30.60594 0.01402
C 2.42253 29.86319 0.02379
C 2.40681 28.37505 0.00907
C 3.66047 27.76122 0.00643
C 3.71169 26.36783 -0.01509
C 2.53108 25.6837 0.03267
C 2.41146 24.21048 0.02374
C 3.69907 23.5446 0.00402
C 3.64887 22.0493 0.0073
C 2.4793 8.53545 -0.03113
C 2.41599 21.37796 0.0174
C 3.6308 19.23324 0.01226
C 3.75764 17.80839 -0.00279
C 2.41366 17.11491 0.01996
C 2.42749 15.74132 -0.03996
C 3.59607 14.95914 0.01465
C 3.60781 13.49673 -0.00074
C 2.40026 12.82451 -0.00518
C 2.40913 11.37453 0.0086
C 3.63512 10.68397 -0.00643
C 2.46374 19.90869 0.03828
C 18.30433 30.39633 -0.02957
C 4.97582 17.11529 0.01396
C 6.21276 14.95065 -0.01142
C 7.40832 19.97392 -0.014
C 8.65568 19.22828 0.02147
C 8.61939 17.83964 0.00373
C 7.44026 17.13764 -0.00191
C 7.41192 15.5651 0.00438
C 8.63306 14.91424 0.01291
C 8.57827 13.56429 0.00093
C 7.36075 12.78937 0.00057
C 7.36602 11.42639 -0.01634
C 7.36167 21.38038 -0.01118
C 8.59564 10.71421 -0.00334
C 7.34718 8.51 0.01641
C 7.35684 7.14591 -0.00719
C 8.62352 6.42093 0.01364
C 8.57546 4.99882 -0.01062
C 7.33914 4.18434 -0.00033
C 7.35003 2.7848 0.03589
C 8.57346 2.02008 -0.02759
C 8.56068 0.4759 0.0402
C 7.1252 33.85154 0.00572
C 8.61196 9.24893 0.02339
C 4.92957 15.63322 0.01849
C 8.59316 22.08464 -0.00131
C 7.38695 24.21016 -0.01004
C 6.11238 13.53907 -0.00562
C 4.86151 12.80847 -0.00494
C 4.86067 11.36922 0.00054
C 6.05856 10.7342 0.03007
C 6.0447 9.3206 -0.00095
C 4.83252 8.56107 0.01572
C 4.88702 7.09754 -0.04848
C 6.13069 6.39944 -0.00892
C 6.09189 4.97636 -0.01362
C 8.59155 23.49087 -0.02896
C 4.80918 4.28763 -0.0008
C 6.07076 2.14955 0.00393
C 6.06825 0.63366 0.00895
C 4.77132 0.06483 0.00685
C 8.53886 30.70747 0.02888
C 7.35617 29.97416 -0.00482
C 7.31845 28.57879 -0.01384
C 8.62365 27.85587 0.03693
C 8.67628 26.43257 0.01745
C 7.42168 25.61674 0.00488
C 4.8721 2.87044 0.0288
C 17.09698 29.72907 -0.04422
C 17.17516 28.25423 0.00654
C 18.4887 27.56396 -0.00703
C 29.44738 8.50971 0.0103
C 29.4988 7.14347 0.02108
C 30.67528 6.3553 0.00716
C 30.66647 4.97298 0.00307
C 29.38911 4.27595 0.00346
C 29.55367 2.88388 0.01713
C 30.70126 2.12842 -0.01694
C 30.69286 0.66511 0.01428
C 29.4356 0.01837 -0.02142
C 30.71491 9.18016 0.07705
C 31.86026 32.7074 0.0544
C 33.17452 30.61667 0.00682
C 31.94213 29.93971 -0.01779
C 31.94293 28.47673 0.03794
C 33.07188 27.60003 0.01927
C 33.23036 26.22617 0.01574
C 33.19677 23.46775 -0.02383
C 33.27174 22.23832 -0.01429
C 33.20788 19.27149 -0.0136
C 33.28359 17.86144 0.00594
C 33.11837 32.00874 0.00026
C 32.04263 17.06924 -0.02474
C 30.71688 10.64372 0.01908
C 29.56775 12.76078 -0.00971
C 28.26784 10.67075 0.0014
C 28.19723 9.23688 0.00924
C 26.99987 8.51797 0.02326
C 27.03023 7.06174 0.00261
C 28.20952 6.39984 0.03265
C 28.20655 4.93489 -0.02049
C 26.95862 4.20845 -0.01854
C 27.05043 2.83966 -0.01415
C 28.33072 2.08935 -0.03039
C 29.4487 11.41064 0.01518
C 28.21551 0.68875 0.01836
C 29.41077 32.62345 -0.00669
C 30.65348 31.97641 0.0101
C 30.69379 30.5512 0.01705
C 29.5717 29.79266 -0.0405
C 30.72926 17.55595 -0.01303
C 29.57241 17.08567 -0.01461
C 29.48872 15.53661 -0.02155
C 30.70527 14.9405 -0.00944
C 30.80468 13.52063 -0.03735
C 26.99401 33.99385 0.03531
C 27.05317 11.46712 0.01324
C 32.00027 15.6595 0.00369
C 33.19133 13.53684 -0.00644
C 34.37558 21.29503 -0.02213
C 34.40077 19.88505 0.01951
C 1.19924 19.21093 -0.01678
C 1.20974 17.82004 0.01223
C 0.08081 17.09492 0.00648
C 0.01748 15.64256 0.02114
C 1.14982 14.92722 -0.02957
C 1.19176 13.53533 0.00343
C 34.39244 12.87199 -0.02656
C 1.1846 22.02876 0.02712
C 34.34878 11.36927 -0.02442
C 1.22664 9.17173 -0.00583
C 34.35972 8.52471 -0.02302
C 34.36173 7.10019 -0.02849
C 1.09826 6.41044 0.02931
C 1.21594 5.03968 0.00628
C 34.41234 4.34619 -0.0345
C 34.34933 2.92045 -0.00931
C 1.15889 2.12177 -0.00939
C 1.16595 0.77769 -0.00468
C 1.22681 10.73498 -0.00027
C 33.20908 14.9599 0.00455
C 1.21696 23.43621 0.00723
C 0.00704 25.64584 -0.05239
C 31.93547 12.8186 -0.01839
C 31.88783 11.36156 0.00137
C 33.17 10.66296 0.00199
C 33.18477 9.29147 0.04381
C 31.93202 8.54476 0.02806
C 31.92552 7.06566 0.01504
C 33.09271 6.41353 -0.00069
C 33.11485 4.98562 0.04926
C 31.893 4.28205 -0.03838
C 0.04933 24.28098 0.03076
C 31.90078 2.86348 0.00349
C 33.15858 0.77635 -0.00841
C 31.90586 34.06213 0.0001
C 34.36129 32.66428 -0.02927
C 1.17068 31.88899 -0.01404
C 1.20018 30.49092 0.01027
C 34.37134 29.75444 0.01831
C 34.36382 28.35991 -0.01037
C 1.13875 27.69683 -0.00439
C 1.2844 26.34467 -0.00598
C 33.15891 2.22508 -0.00323
C 3.56867 31.96673 -0.003
C 26.99069 12.89293 0.04266
C 28.22489 14.82435 -0.00416
C 19.6973 28.3303 0.03046
C 20.96731 27.65897 0.0296
C 20.88157 26.2243 0.03374
C 19.77209 25.42191 -0.02845
C 19.65362 24.05025 -0.03213
C 19.63966 21.27755 0.02239
C 19.76391 19.80308 0.01153
C 20.89063 19.04655 0.02734
C 21.04953 17.69395 -0.0055
C 19.5673 29.8083 -0.00381
C 19.81899 16.95778 0.01515
C 20.8629 14.80712 0.00071
C 20.93619 13.41151 -0.01107
C 19.70667 12.75189 -0.01586
C 19.67571 11.2997 -0.01971
C 20.88406 10.62992 -0.02118
C 20.86351 9.16975 0.00733
C 19.56811 8.43284 -0.00178
C 19.18792 7.11634 0.00768
C 20.71589 0.51042 -0.0276
C 19.69373 15.55708 -0.00225
C 19.67252 33.97765 0.03005
C 20.81516 30.53305 0.01852
C 19.56283 32.5243 -0.01185
C 18.48796 26.16888 -0.04076
C 17.23336 25.52582 -0.00652
C 17.26794 24.01801 0.0058
C 18.42336 23.30281 -0.00865
C 18.39578 21.92509 0.00675
C 17.21532 21.17294 -0.00311
C 17.28487 19.79502 0.00742
C 18.44386 19.14282 -0.01594
C 18.51813 17.72906 0.0106
C 20.77265 31.97629 0.01126
C 17.27453 16.98869 -0.01154
C 18.45699 14.85389 -0.02422
C 18.47159 13.43513 0.01277
C 17.23424 12.81645 0.00096
C 17.1629 11.3648 -0.01527
C 18.42271 10.65098 0.01087
C 18.40724 9.28034 0.00199
C 17.22977 8.53175 0.01511
C 17.34163 7.0924 -0.00478
C 17.0744 34.06208 -0.01662
C 17.21812 15.64006 -0.01721
C 28.30886 13.45736 0.01177
C 21.96936 32.72563 -0.04078
C 23.22597 30.59527 0.02737
C 25.74737 15.15045 0.00622
C 25.78061 13.61223 -0.02815
C 24.58085 12.80825 -0.00942
C 24.57472 11.36692 0.00487
C 25.85547 10.60435 0.00826
C 25.84823 9.20429 -0.00294
C 24.5835 8.52056 0.00152
C 24.49958 7.07789 0.01257
C 25.69493 6.43208 0.02316
C 24.49527 15.64156 -0.0032
C 25.80346 5.02361 0.04185
C 24.57642 2.86475 -0.00621
C 25.72338 2.18504 0.02611
C 25.75832 0.6679 0.02198
C 24.55138 34.00773 0.01094
C 27.0346 32.54333 0.00235
C 28.2535 31.85373 0.01495
C 28.21505 30.44063 0.01259
C 26.94425 29.92181 0.01799
C 27.11225 15.60498 0.01699
C 24.50668 4.24241 0.00194
C 23.21398 32.00692 0.02117
C 24.35581 29.79284 -0.00037
C 25.77905 31.92394 -0.00218
C 21.95185 29.85655 -0.00498
C 22.15034 28.49188 0.00135
C 22.23726 16.84971 0.03102
C 22.04066 15.51136 0.02555
C 23.32608 14.82575 0.01423
C 23.3192 13.50834 -0.00285
C 22.15552 12.66603 -0.009
C 22.15798 11.31852 -0.01199
C 23.44251 10.69889 -0.00229
C 25.69528 30.45169 -0.01654
C 23.33305 9.21231 -0.00938
C 22.00494 7.13463 -0.01154
C 23.17841 6.39402 0.00684
C 23.28361 4.99509 -0.01052
C 22.10122 4.20198 -0.01679
C 22.27547 2.93936 0.00367
C 23.2673 2.05381 0.04306
C 23.33734 0.62897 0.00996
C 22.04967 34.07344 0.00195
C 24.52045 32.64919 -0.00802
C 22.12258 8.55636 -0.0264
C 2.36521 32.65926 0.00031
