317
Graphene
C 34.25475 33.99359 0.01295
C 9.86621 24.17618 -0.00491
C 11.05913 23.44851 0.03338
C 11.0768 21.97148 -0.0258
C 9.76754 21.25401 -0.0331
C 9.74553 19.83719 -0.00316
C 11.06338 19.07336 0.02188
C 11.14973 17.70906 -0.01979
C 9.94637 16.9347 0.02691
C 9.88706 15.50008 -0.01581
C 9.85924 8.71146 0.01452
C 9.9739 7.24938 0.04892
C 11.07951 6.53374 -0.00111
C 10.9866 5.06597 -0.03557
C 9.86855 4.31538 0.03754
C 9.83315 2.87326 0.01739
C 9.83281 25.62243 -0.00109
C 11.09328 26.30964 0.03698
C 11.08569 27.7403 -0.02213
C 9.84838 28.40472 0.00028
C 7.1325 11.45847 -0.03113
C 8.35799 10.87105 0.02098
C 8.67632 9.52683 0.01848
C 7.36714 8.59844 -0.00619
C 7.49978 7.1655 -0.02162
C 8.64708 6.36894 0.00889
C 8.59957 4.99528 -0.00481
C 10.99184 2.16882 0.00755
C 7.37657 4.27363 0.00979
C 8.59896 2.10175 0.03505
C 8.56622 0.6784 -0.02815
C 7.35425 0.07894 -0.04147
C 9.80314 32.58036 -0.05302
C 11.14843 31.98257 0.00213
C 11.15332 30.63076 -0.00066
C 9.87636 29.89078 -0.00289
C 7.39338 2.89393 0.01443
C 11.03156 0.69096 -0.0054
C 9.77857 34.02871 0.00667
C 12.31097 32.73823 0.00143
C 15.96877 31.99466 0.00096
C 16.002 30.61807 -0.01527
C 14.8504 29.88282 0.01087
C 14.80379 28.41215 0.00199
C 16.0087 27.62889 0.01511
C 16.00737 26.26432 -0.00478
C 14.75604 25.54826 -0.01662
C 14.81919 32.78838 0.01277
C 14.66401 24.11284 -0.01185
C 15.85339 21.92164 0.01852
C 14.71972 21.2066 -0.00381
C 14.75783 19.66987 0.03046
C 16.02371 19.32916 0.0296
C 16.07746 5.06708 0.03374
C 14.68682 4.7621 -0.02845
C 14.77879 3.11114 -0.03213
C 15.91563 23.37108 0.01126
C 7.09516 12.83089 0.0351
C 12.25863 34.06253 -0.02422
C 13.50622 2.28602 -0.01154
C 13.58021 32.05019 -0.017
C 13.55127 30.65518 0.00364
C 12.34112 29.90359 -0.00831
C 12.30834 28.52355 -0.02957
C 13.50459 27.77947 -0.04422
C 13.53134 26.32898 0.00654
C 12.2651 25.56883 -0.00703
C 13.50303 0.79229 -0.01721
C 12.31573 24.17502 -0.04076
C 13.46502 21.90097 0.0058
C 12.26119 21.20155 -0.00865
C 12.33048 19.86875 0.00675
C 13.44498 19.10432 -0.00311
C 13.38603 5.10244 0.00742
C 12.19419 4.3052 -0.01594
C 12.25324 2.91575 0.0106
C 13.51331 23.41852 -0.00652
C 8.39797 13.37008 0.00422
C 8.70212 14.73948 0.00798
C 7.44117 15.56783 0.00228
C 2.41028 7.07537 0.01364
C 3.67583 6.38925 -0.01062
C 3.64124 4.95719 -0.00033
C 2.40251 4.21584 0.03589
C 2.35813 2.7836 -0.02759
C 3.68338 2.15365 0.0402
C 3.61654 0.70206 0.00572
C 2.39137 8.49934 -0.00719
C 2.33687 0.00068 0.03592
C 6.14133 32.06572 0.00943
C 6.00828 30.63352 0.02841
C 4.81802 29.86999 -0.01111
C 4.89232 28.48955 -0.01275
C 6.07979 27.64031 0.00985
C 6.10062 26.19623 -0.02245
C 4.87217 25.45301 -0.00428
C 4.88697 32.74579 0.00406
C 4.84724 24.00388 0.03101
C 3.64488 9.2123 0.01641
C 2.29002 11.43172 -0.00334
C 3.6541 30.61471 0.03693
C 2.43961 29.85208 0.01745
C 2.41655 28.44219 0.00488
C 3.63532 27.75285 -0.01004
C 3.70243 26.28569 -0.02896
C 2.45844 25.64461 -0.00131
C 2.39719 24.07974 -0.01118
C 3.5378 10.61394 0.02339
C 3.53999 23.32362 -0.014
C 2.40835 20.93826 0.00373
C 2.4808 19.26115 -0.00191
C 3.99676 18.59742 0.00438
C 2.47315 15.80459 0.01291
C 3.66092 15.09939 0.00093
C 3.59539 13.60788 0.00057
C 2.32506 12.87809 -0.01634
C 3.57435 21.77525 0.02147
C 15.98036 2.29636 0.02239
C 6.10619 23.36164 -0.01536
C 4.94982 21.09231 -0.01046
C 7.39871 32.73408 0.02299
C 8.57177 31.88765 0.00244
C 8.5583 30.555 -0.01717
C 7.31058 29.85262 0.05265
C 7.22069 28.39158 -0.01952
C 8.52507 27.71535 -0.02813
C 8.65696 26.30141 0.00374
C 4.85254 0.05151 0.03542
C 7.45345 25.54831 0.00052
C 8.66864 23.46767 0.01965
C 8.64065 22.01298 0.02058
C 7.42009 21.23941 -0.01957
C 7.44723 19.86268 -0.0108
C 8.59917 19.02554 -0.00368
C 8.6606 17.61676 -0.02696
C 7.44045 17.00537 -0.00114
C 7.4449 24.14522 -0.03682
C 6.13146 21.91316 -0.02689
C 6.10572 0.76099 0.01416
C 4.8986 2.85975 -0.01454
C 4.99983 19.67522 -0.00891
C 6.23071 19.07845 0.02819
C 6.28101 17.76405 0.00165
C 4.86101 17.37514 -0.02971
C 4.78246 15.92425 0.02894
C 6.07334 15.04574 -0.01789
C 5.90074 13.60734 0.00444
C 6.16064 2.14191 0.01945
C 4.75009 12.79549 -0.00925
C 6.03644 10.63712 0.01363
C 6.1092 9.22082 -0.02162
C 4.85995 8.54153 0.00415
C 4.91966 7.12525 -0.0014
C 6.21107 6.41178 0.02162
C 6.13619 5.01104 0.0076
C 4.87168 4.34664 0.01241
C 4.77396 11.32145 0.01877
C 3.61168 32.00212 -0.01384
C 15.95933 0.8507 0.01153
C 17.1654 32.83822 -0.0055
C 32.10388 25.71443 0.03794
C 31.94396 24.20452 0.01927
C 33.17754 23.58376 0.01574
C 33.20219 22.19612 -0.02383
C 31.81707 21.4867 -0.01429
C 31.86768 20.03863 -0.0136
C 33.0454 19.36088 0.00594
C 33.1238 17.99665 -0.02474
C 32.055 17.16027 0.00369
C 31.98205 15.70452 0.00455
C 33.27509 15.10437 -0.00644
C 33.19119 13.69837 -0.01839
C 31.98086 12.86709 0.00137
C 31.86582 11.4856 0.00199
C 33.10888 10.71096 0.04381
C 33.32055 26.31802 -0.01779
C 33.29327 27.71927 0.00682
C 31.84724 28.12855 0.00026
C 31.65922 29.55908 0.0544
C 29.46664 12.83696 -0.02155
C 29.51558 11.40352 -0.00944
C 30.65038 10.81263 -0.03735
C 30.62928 9.32591 -0.00971
C 29.29529 8.5013 0.01518
C 29.26549 7.17275 0.01908
C 30.59207 6.45965 0.07705
C 33.05021 9.27617 0.02806
C 30.56001 4.89634 0.0103
C 29.17927 2.74702 0.00716
C 30.54884 2.1612 0.00307
C 30.63394 0.74116 0.00346
C 29.38374 34.02408 0.01713
C 31.74305 32.61153 -0.01694
C 32.97315 31.82592 0.01428
C 32.95425 30.35185 -0.02142
C 29.25417 4.20265 0.02108
C 31.8408 8.5326 0.01504
C 31.82892 7.1659 -0.00069
C 33.0458 6.32615 0.04926
C 0.09408 17.53977 0.00648
C 0.14947 15.98872 0.02114
C 1.2516 15.10191 -0.02957
C 1.14028 13.69113 0.00343
C 0.01582 12.88139 -0.02656
C 34.34929 11.44967 -0.02442
C 1.10728 10.6834 -0.00027
C 1.00499 18.77395 0.01223
C 1.10111 9.26218 -0.00583
C 34.33803 7.06924 -0.02849
C 1.10981 6.30652 0.02931
C 1.14914 4.86344 0.00628
C 34.2742 4.1961 -0.0345
C 34.32851 2.75478 -0.00931
C 1.10545 2.05076 -0.00939
C 1.09328 0.64725 -0.00468
C 34.28957 8.52816 -0.02302
C 30.69436 13.55357 -0.01461
C 34.3484 19.92259 -0.01678
C 1.23355 21.82503 -0.02213
C 33.0292 4.90465 -0.03838
C 31.81373 4.31565 0.00349
C 31.73228 2.8876 -0.00323
C 32.99217 2.12013 -0.00841
C 33.03102 0.70229 0.0001
C 31.81562 34.04645 -0.02927
C 34.23959 32.59647 -0.01404
C 34.34551 21.28156 0.01951
C 1.05154 31.92036 0.01027
C 34.30831 29.88145 -0.01037
C 0.01089 28.46592 -0.00439
C 1.23676 27.7603 -0.00598
C 1.21171 26.339 -0.05239
C 0.03597 25.59946 0.03076
C 0.01899 24.18429 0.00723
C 1.16056 23.31997 0.02712
C 1.06987 30.48931 0.01831
C 30.67602 15.01074 -0.01303
C 29.45913 15.60843 -0.0405
C 29.45948 17.03341 0.01705
C 21.02796 17.87044 -0.00285
C 20.94345 0.66868 -0.009
C 19.67216 0.10882 -0.01199
C 21.91568 32.74077 -0.00229
C 22.35157 19.74569 -0.00938
C 23.59554 19.08603 -0.0264
C 23.4436 17.63735 -0.01154
C 20.99673 19.31297 0.01423
C 22.08194 16.95007 0.00684
C 23.12305 14.69268 -0.01679
C 23.21164 13.2501 0.00367
C 23.5124 10.2437 0.04306
C 23.56008 0.42673 0.00996
C 22.17565 0.06051 0.00195
C 25.24866 32.96971 -0.00802
C 25.86198 19.10767 -0.00218
C 22.11489 15.53464 -0.01052
C 25.81903 17.60282 -0.01654
C 19.70544 20.08525 0.02555
C 20.77589 32.12157 0.00135
C 18.27538 32.02032 0.01515
C 18.42417 30.62652 -0.00225
C 17.40653 29.79155 0.00071
C 17.12455 28.44728 -0.01107
C 17.23344 25.43646 -0.01586
C 17.16669 24.14984 -0.01971
C 18.25316 22.24097 -0.02118
C 19.38004 21.42016 0.03102
C 17.10731 21.4444 0.00733
C 18.45016 19.28258 0.00768
C 17.0404 4.37083 -0.0276
C 17.4085 3.0241 0.03005
C 18.5407 2.26485 -0.04078
C 18.45781 0.92373 0.02117
C 17.18554 0.20007 0.02737
C 19.53291 32.73909 -0.00498
C 17.25442 19.92156 -0.00178
C 14.78629 0.17615 0.02734
C 24.58667 16.82475 -0.00037
C 25.6745 14.67829 0.00622
C 28.20351 6.35419 0.01177
C 28.21773 5.04675 0.04266
C 26.55326 2.36131 0.01324
C 28.04843 2.07504 0.0014
C 28.21024 0.65559 0.00924
C 26.98237 0.12392 0.02326
C 29.23022 32.54804 0.00261
C 26.6333 9.17805 -0.00416
C 30.47805 31.79929 0.03265
C 31.03991 26.99863 -0.01854
C 30.67463 23.59013 -0.01415
C 30.57252 22.32681 -0.03039
C 29.36611 21.39968 0.01836
C 29.4097 20.02208 0.03531
C 30.67275 19.25184 -0.00669
C 30.71866 17.82151 0.0101
C 30.6096 30.40646 -0.02049
C 24.47335 15.4225 -0.0032
C 28.14862 9.30225 0.01699
C 27.10033 11.32591 0.01259
C 25.69917 13.2768 -0.02815
C 24.47066 12.48154 -0.00942
C 24.63694 10.94709 0.00487
C 26.06955 10.23313 0.00826
C 25.93277 0.99108 -0.00294
C 24.84696 0.23739 0.00152
C 26.75028 32.79742 0.01257
C 28.32819 10.6587 0.01799
C 27.85093 32.23987 0.02316
C 28.23043 19.19258 0.00194
C 28.17261 17.68497 -0.00621
C 27.00244 16.93771 0.02611
C 26.87222 15.47751 0.02198
C 28.21085 14.86554 0.01094
C 28.23805 13.46803 0.00235
C 26.94 12.68859 0.01495
C 26.9337 19.78507 0.04185
C 2.34291 32.66574 -0.00482
