397
Graphene
C 0.01748 0.02836 0.01295
C 9.87449 34.07037 -0.01789
C 12.25194 32.71506 0.00444
C 13.51113 31.98388 -0.00925
C 13.55501 30.51111 0.01877
C 12.3536 29.85819 0.01363
C 12.32125 28.41217 -0.02162
C 13.46601 27.66091 0.00415
C 13.49786 26.26177 -0.0014
C 12.28009 25.47323 0.02162
C 11.05891 0.68917 0.02894
C 12.33972 24.14683 0.0076
C 13.55756 21.96261 -0.01454
C 12.32171 21.29556 0.01945
C 12.32206 19.88662 0.01416
C 13.49431 19.23883 0.03542
C 13.56599 17.72349 0.02299
C 12.30762 16.97514 0.00244
C 12.25868 15.58518 -0.01717
C 13.58467 14.82868 0.05265
C 13.47448 13.44774 -0.01952
C 13.50462 23.45353 0.01241
C 11.0761 2.1033 -0.02971
C 9.82185 2.89548 0.00165
C 9.78448 4.31224 0.02819
C 11.09034 26.31822 0.01364
C 9.86895 25.6133 -0.01062
C 9.849 24.1659 -0.00033
C 11.07043 23.43658 0.03589
C 11.05228 22.01614 -0.02759
C 9.84709 21.30293 0.0402
C 9.8459 19.9022 0.00572
C 11.05938 19.26068 0.03592
C 11.04021 17.7702 0.00406
C 9.81191 17.08976 0.00943
C 9.8396 15.57779 0.02841
C 11.07118 14.90339 -0.01111
C 11.09617 13.53907 -0.01275
C 9.9167 12.77645 0.00985
C 9.80994 11.32253 -0.02245
C 11.0443 10.68891 -0.00428
C 11.08138 9.19769 0.03101
C 9.76726 8.49418 -0.01536
C 9.85038 7.08302 -0.02689
C 11.15349 6.41095 -0.01046
C 11.09968 4.98852 -0.00891
C 12.30268 12.78749 -0.02813
C 12.26101 11.42714 0.00374
C 13.49673 10.66912 0.00052
C 13.53039 9.18992 -0.03682
C 14.75621 15.58002 -0.00066
C 16.00937 14.95465 -0.00289
C 16.03501 13.46431 0.00028
C 14.74341 12.78729 -0.02213
C 14.74036 11.38588 0.03698
C 15.99485 10.59664 -0.00109
C 16.0236 9.25612 -0.00491
C 14.74931 8.48098 0.03338
C 14.77865 7.09863 -0.0258
C 15.99287 6.37495 -0.0331
C 15.99826 4.94167 -0.00316
C 14.70983 4.26269 0.02188
C 14.75945 2.82014 -0.01979
C 16.01314 2.11295 0.02691
C 16.00852 0.68912 -0.01581
C 14.74034 0.04228 0.01452
C 17.18095 32.63815 0.04892
C 18.43031 31.96255 -0.00111
C 18.39096 30.55622 -0.03557
C 17.21311 29.84937 0.03754
C 17.21038 28.40514 0.01739
C 14.78578 16.99705 0.00213
C 11.10019 27.70283 -0.00719
C 16.00179 17.79199 -0.05302
C 14.75216 19.9079 -0.02815
C 12.34256 8.53729 0.01965
C 12.31392 7.09651 0.02058
C 13.52984 6.35181 -0.01957
C 13.50231 4.95058 -0.0108
C 12.30164 4.25179 -0.00368
C 12.33877 2.8416 -0.02696
C 13.51014 2.12511 -0.00114
C 13.49523 0.73121 0.00228
C 12.25845 0.01338 0.00798
C 14.72395 32.67203 0.00422
C 15.93666 31.93205 0.0351
C 15.97774 30.52803 -0.03113
C 14.78985 29.78759 0.02098
C 14.7342 28.36957 0.01848
C 15.98709 27.64678 -0.00619
C 15.94812 26.26525 -0.02162
C 14.75774 25.55163 0.00889
C 14.69951 24.13243 -0.00481
C 15.99459 23.41174 0.00979
C 16.04157 22.03884 0.01443
C 14.7302 21.33102 0.03505
C 16.03031 19.16382 -0.04147
C 9.82637 28.42217 0.01641
C 9.83526 29.84534 0.02339
C 11.09912 30.58491 -0.00334
C 2.45783 4.20387 0.03828
C 2.44216 2.85279 0.01226
C 3.63725 2.17125 -0.00279
C 3.66687 0.72325 0.01996
C 2.46224 0.0051 -0.03996
C 4.92498 32.70913 0.01465
C 6.16803 31.91471 -0.00074
C 6.17608 30.56001 -0.00518
C 4.96526 29.8358 0.0086
C 4.91256 28.40753 -0.00643
C 6.08775 27.76288 0.017
C 6.16525 26.29208 -0.03113
C 4.91885 25.54444 -0.02566
C 4.89523 24.13707 -0.00094
C 6.10451 23.43562 0.02322
C 6.19628 21.94245 -0.00725
C 4.96856 21.3213 -0.05697
C 4.89846 19.88198 0.01087
C 6.21449 19.14615 -0.01343
C 6.14661 17.74319 0.00988
C 4.84406 17.0406 0.0276
C 3.6576 5.04909 0.0174
C 4.91117 15.63922 0.01305
C 3.72986 6.37819 0.0073
C 2.46172 8.54847 0.02374
C 3.74927 30.49688 -0.01979
C 2.42173 29.78352 0.02784
C 2.47331 28.3765 -0.01977
C 3.6103 27.64714 -0.00561
C 3.6847 26.33262 0.00208
C 2.43799 25.6111 0.01707
C 2.46342 24.18244 0.02769
C 3.74114 23.44596 -0.03291
C 3.70567 21.93894 -0.04999
C 2.5037 21.30367 0.04505
C 2.47571 19.90214 0.03284
C 3.67395 19.18347 -0.04307
C 3.65279 17.73305 0.03189
C 2.4197 16.99 0.00031
C 2.43655 15.61206 -0.003
C 3.70577 14.92653 0.01402
C 3.69802 13.47605 0.02379
C 2.4652 12.83287 0.00907
C 2.46155 11.42605 0.00643
C 3.6388 10.65786 -0.01509
C 3.74455 9.21646 0.03267
C 2.53525 7.0979 0.00402
C 18.45619 27.72133 0.00755
C 6.10465 14.84373 -0.00077
C 4.9269 12.75822 -0.02929
C 8.57118 19.19326 0.00895
C 8.55532 17.71619 0.00685
C 7.3794 17.01994 0.02888
C 7.35999 15.63577 -0.00482
C 8.57652 14.91214 -0.01384
C 8.64398 13.42959 0.03693
C 7.35642 12.79643 0.01745
C 7.34319 11.3899 0.00488
C 8.59927 10.68308 -0.01004
C 8.5845 9.24856 -0.02896
C 7.39111 8.54116 -0.00131
C 7.41688 7.11854 -0.01118
C 8.59506 6.39064 -0.014
C 8.57413 5.01128 0.02147
C 7.4225 4.2616 0.00373
C 7.40025 2.90302 -0.00191
C 8.6289 2.1605 0.00438
C 8.62756 0.76429 0.01291
C 7.35994 0.06995 0.00093
C 9.81937 32.68916 0.00057
C 11.08129 31.98142 -0.01634
C 7.33496 19.89318 0.00393
C 6.15936 13.52986 0.03368
C 7.40553 21.28852 0.0288
C 8.6064 23.42085 -0.01362
C 4.89238 11.3967 -0.00966
C 6.10572 10.68999 -0.03337
C 6.16741 9.24782 0.01227
C 4.89975 8.53294 0.00873
C 4.89591 7.13149 -0.00049
C 6.14567 6.36304 0.00848
C 6.18757 4.96012 -0.01303
C 4.88218 4.33433 -0.01378
C 4.89954 2.86227 0.02635
C 6.19894 2.19587 0.0127
C 6.16895 0.67035 0.01396
C 4.92071 0.0376 0.01849
C 7.35822 32.66313 -0.01142
C 8.60977 31.93449 -0.00562
C 8.58872 30.53591 -0.00494
C 7.32013 29.80897 0.00054
C 7.33434 28.3924 0.03007
C 8.58669 27.6375 -0.00095
C 8.59377 26.31551 0.01572
C 7.31193 25.55162 -0.04848
C 7.38327 24.16537 -0.00892
C 8.60344 22.00542 -0.0008
C 3.69884 31.93205 -0.00449
C 18.44006 26.29096 -0.0054
C 17.2489 24.12984 0.00143
C 30.76487 6.44497 0.01908
C 30.73522 4.9675 0.07705
C 29.49048 4.25748 0.0103
C 29.49629 2.84631 0.02108
C 30.69144 2.16518 0.00716
C 30.78574 0.69492 0.00307
C 29.53083 34.01907 0.00346
C 32.00184 32.62601 0.01713
C 33.19846 31.96801 -0.01694
C 29.51901 7.11792 0.01518
C 33.2216 30.53155 0.01428
C 31.97491 28.38671 0.0544
C 33.20221 27.69091 0.00026
C 33.17697 26.29824 0.00682
C 32.01089 25.58495 -0.01779
C 31.99015 24.08017 0.03794
C 33.24614 23.38934 0.01927
C 33.22696 22.0078 0.01574
C 31.99227 21.33827 -0.02383
C 31.97575 19.84663 -0.01429
C 31.94497 29.81972 -0.02142
C 29.55315 8.48068 -0.00971
C 30.71049 9.21046 -0.03735
C 30.72566 10.64956 -0.00944
C 28.23696 2.10325 0.01177
C 28.26689 0.71843 0.04266
C 27.03608 0.00694 0.01324
C 29.52197 32.59239 0.0014
C 30.7728 31.92049 0.00924
C 30.75706 30.53643 0.02326
C 29.54956 29.79453 0.00261
C 29.50918 28.31779 0.03265
C 30.75715 27.65786 -0.02049
C 30.78343 26.24929 -0.01854
C 29.4799 25.56903 -0.01415
C 29.55586 24.13635 -0.03039
C 30.74904 23.42589 0.01836
C 30.7282 22.00076 0.03531
C 29.52313 21.3595 -0.00669
C 30.72132 19.14356 0.0101
C 30.78516 17.82451 0.01705
C 30.75449 14.94434 -0.0405
C 30.73104 13.50928 -0.01303
C 29.5076 12.77727 -0.01461
C 29.5519 11.41007 -0.02155
C 33.23061 19.16437 -0.0136
C 33.16378 17.72391 0.00594
C 31.96602 17.07017 -0.02474
C 31.99486 15.61112 0.00369
C 1.24446 22.07654 0.02712
C 34.39405 21.23015 -0.02213
C 34.40196 19.86301 0.01951
C 1.22735 19.17645 -0.01678
C 1.27546 17.74118 0.01223
C 34.37924 16.98769 0.00648
C 34.38132 15.6191 0.02114
C 1.21139 14.87593 -0.02957
C 1.20502 13.49629 0.00343
C 34.42834 12.71654 -0.02656
C 34.41281 11.41112 -0.02442
C 1.22457 10.71593 -0.00027
C 1.23402 9.22984 -0.00583
C 34.42527 8.51387 -0.02302
C 34.38415 7.07605 -0.02849
C 1.17109 6.38626 0.02931
C 1.22316 4.96728 0.00628
C 0.03275 4.19552 -0.0345
C 0.01082 2.81597 -0.00931
C 1.21947 2.17104 -0.00939
C 1.25556 0.73643 -0.00468
C 1.22152 23.50562 0.00723
C 27.02841 2.84678 -0.00416
C 34.39881 24.1504 0.03076
C 1.23782 26.29707 -0.00598
C 33.22964 14.88524 0.00455
C 33.23551 13.4746 -0.00644
C 31.9469 12.75401 -0.01839
C 31.94539 11.33419 0.00137
C 33.17057 10.66275 0.00199
C 33.17048 9.29803 0.04381
C 31.98259 8.47341 0.02806
C 31.96257 7.09085 0.01504
C 33.14633 6.38488 -0.00069
C 33.20646 4.98846 0.04926
C 32.00995 4.26843 -0.03838
C 31.91872 2.80991 0.00349
C 33.16766 2.11458 -0.00323
C 33.21641 0.69609 -0.00841
C 31.96811 34.03332 0.0001
C 34.40521 32.67895 -0.02927
C 1.25502 31.92812 -0.01404
C 1.24309 30.52169 0.01027
C 0.02171 29.83174 0.01831
C 34.4197 28.40124 -0.01037
C 1.24433 27.62655 -0.00439
C 34.4138 25.56571 -0.05239
C 27.01946 4.2464 0.01699
C 28.2882 4.96239 0.01799
C 28.3273 6.37372 0.01259
C 20.89723 26.2935 -0.00478
C 19.60282 25.55546 -0.01662
C 19.61974 24.1138 -0.01185
C 20.91817 23.35175 0.01126
C 19.67772 11.32661 0.01852
C 20.90903 10.633 -0.00381
C 20.93331 9.21649 0.03046
C 19.59875 8.52887 0.0296
C 19.61414 7.03616 0.03374
C 20.91473 6.3702 -0.02845
C 20.91281 4.94884 -0.03213
C 19.71401 4.25638 0.02239
C 19.72473 2.80595 0.01153
C 20.91066 2.09637 0.02734
C 20.88367 0.70146 -0.0055
C 19.69019 34.02956 0.01515
C 22.07978 32.63552 -0.00225
C 23.32945 31.99863 0.00071
C 23.40976 30.4783 -0.01107
C 22.21129 29.7827 -0.01586
C 22.10548 28.37455 -0.01971
C 20.89015 27.67243 0.01511
C 23.36235 27.6969 -0.02118
C 19.67886 28.36778 0.00199
C 20.93647 30.53704 -0.01527
C 18.42361 23.41375 -0.017
C 18.45434 22.06956 0.00364
C 17.2946 21.29355 -0.00831
C 17.26245 19.9064 -0.02957
C 17.23014 17.0513 -0.04422
C 17.2092 15.73451 0.00654
C 17.22502 12.67612 -0.00703
C 17.22081 11.35349 -0.04076
C 18.49125 10.67916 -0.00652
C 18.43238 9.27842 0.0058
C 17.18917 8.51327 -0.00865
C 17.22845 7.12386 0.00675
C 18.40698 6.41115 -0.00311
C 18.449 4.95518 0.00742
C 17.26569 4.24912 -0.01594
C 17.21485 2.88138 0.0106
C 18.44586 2.10743 -0.01154
C 18.45789 0.7572 -0.01721
C 17.22914 34.07818 -0.02422
C 19.71511 32.62782 0.01277
C 20.82232 31.89532 0.00096
C 19.70988 29.81823 0.01087
C 17.19093 25.54005 0.00667
C 23.46605 26.30525 0.00733
C 22.08699 24.14589 0.00768
C 25.83243 4.97474 -0.00218
C 24.60441 4.24981 -0.01654
C 24.51507 2.83627 -0.00037
C 25.77257 2.15094 -0.0032
C 25.77838 0.70519 0.00622
C 24.56919 34.06036 -0.02815
C 27.08132 32.62406 -0.00942
C 28.20528 31.89963 0.00487
C 28.26475 30.52183 0.00826
C 27.00455 29.84708 -0.00294
C 27.02925 28.37578 0.00152
C 28.25736 27.71384 0.01257
C 28.2645 26.26385 0.02316
C 27.05191 25.5343 0.04185
C 27.04128 24.14081 0.00194
C 28.2969 23.36548 -0.00621
C 28.35668 22.00596 0.02611
C 28.28266 10.61941 0.02198
C 28.30605 9.22432 0.01094
C 27.1299 8.59056 0.00235
C 27.05191 7.105 0.01495
C 25.79201 6.35557 -0.00802
C 22.12186 25.52591 -0.00178
C 24.59384 7.12926 0.00195
C 25.81981 9.25974 0.04306
C 23.36502 23.45026 -0.0276
C 23.39759 9.26487 0.03005
C 22.14907 8.52073 -0.04078
C 22.10934 7.11483 0.02117
C 23.35812 6.36617 0.02737
C 23.38804 5.02628 -0.00498
C 22.15006 4.2768 0.00135
C 22.10452 2.81628 0.03102
C 23.31914 2.09027 0.02555
C 23.3637 0.68333 0.01423
C 22.11515 34.05697 -0.00285
C 24.60501 32.65454 -0.009
C 25.85652 31.9212 -0.01199
C 25.80281 30.59414 -0.00229
C 24.64902 29.86069 -0.00938
C 24.55268 28.41027 -0.0264
C 25.84779 27.67383 -0.01154
C 25.82027 26.28426 0.00684
C 24.59746 25.58903 -0.01052
C 24.63351 24.08697 -0.01679
C 25.81599 23.40951 0.00367
C 24.65668 8.54686 0.00996
C 2.43742 32.68796 0.00211
