396
Graphene
C 34.38773 0.03735 0.01295
C 15.87342 14.79568 -0.01789
C 16.00146 13.56068 0.00444
C 14.54993 11.23897 -0.00925
C 15.8276 10.73603 0.01877
C 15.71885 9.27005 0.01363
C 14.47201 8.55741 -0.02162
C 14.61759 7.14633 0.00415
C 15.93163 6.45942 -0.0014
C 15.97407 5.04724 0.02162
C 15.96735 17.77403 0.02894
C 14.77102 4.28732 0.0076
C 16.00932 2.15158 -0.01454
C 15.99414 0.69504 0.01945
C 14.78668 0.04729 0.01416
C 17.24228 32.58793 0.03542
C 18.46676 31.96191 0.02299
C 18.51962 30.55695 0.00244
C 17.21676 29.91547 -0.01717
C 17.25033 28.48721 0.05265
C 18.4453 27.70441 -0.01952
C 14.77119 2.85672 0.01241
C 15.80523 19.19709 -0.02971
C 14.5823 19.8895 0.00165
C 14.50084 21.28531 0.02819
C 13.06472 9.28977 0.01364
C 11.92588 8.587 -0.01062
C 12.21835 7.0563 -0.00033
C 13.46945 6.45336 0.03589
C 13.52241 4.94979 -0.02759
C 12.32783 4.33587 0.0402
C 12.2438 2.88256 0.00572
C 13.52209 2.17535 0.03592
C 13.62144 0.74035 0.00406
C 12.40076 0.01668 0.00943
C 14.77021 32.72857 0.02841
C 16.01566 31.9347 -0.01111
C 15.9542 30.61474 -0.01275
C 14.73349 29.81229 0.00985
C 14.77128 28.4113 -0.02245
C 15.98439 27.7535 -0.00428
C 15.93725 26.33434 0.03101
C 14.72349 25.64186 -0.01536
C 14.67826 24.15797 -0.02689
C 15.83168 23.42753 -0.01046
C 15.77139 21.99556 -0.00891
C 18.45905 26.21662 -0.02813
C 17.1666 25.53737 0.00374
C 17.06817 24.11817 0.00052
C 18.3193 23.48904 -0.03682
C 19.68238 29.78492 -0.00066
C 19.73292 28.34835 -0.00289
C 20.97762 27.63977 0.00028
C 21.01011 26.30166 -0.02213
C 19.75924 25.548 0.03698
C 19.55307 24.08225 -0.00109
C 20.76339 23.33054 -0.00491
C 20.80842 21.95551 0.03338
C 19.57979 21.24692 -0.0258
C 19.55888 19.86272 -0.0331
C 20.77463 19.21476 -0.00316
C 20.87798 17.81391 0.02188
C 19.59101 17.12608 -0.01979
C 19.48496 15.73236 0.02691
C 20.78349 14.92096 -0.01581
C 20.85088 13.40839 0.01452
C 19.66822 12.69066 0.04892
C 19.63273 11.3054 -0.00111
C 20.79955 10.55928 -0.03557
C 20.77735 9.17801 0.03754
C 19.53427 8.55534 0.01739
C 20.95726 30.47143 0.00213
C 13.52122 10.64897 -0.00719
C 20.98705 31.91767 -0.05302
C 17.27904 33.95396 -0.02815
C 18.31706 21.94427 0.01965
C 17.0561 21.32583 0.02058
C 17.10885 19.99474 -0.01957
C 18.32491 19.21854 -0.0108
C 18.30471 17.81088 -0.00368
C 17.09788 17.02053 -0.02696
C 17.10114 15.6972 -0.00114
C 18.31777 14.91744 0.00228
C 18.471 13.47331 0.00798
C 17.15614 12.7614 0.00422
C 17.14259 11.29918 0.0351
C 18.30657 10.6088 -0.03113
C 18.32774 9.24821 0.02098
C 17.06827 8.58318 0.01848
C 17.17746 7.17455 -0.00619
C 18.41217 6.46665 -0.02162
C 18.43492 4.98743 0.00889
C 17.19439 4.3124 -0.00481
C 17.20884 2.84032 0.00979
C 18.40403 2.05501 0.01443
C 18.45005 0.59956 0.03505
C 19.73544 32.70563 -0.04147
C 19.66738 7.12024 0.00755
C 11.92264 21.66178 0.01641
C 13.36975 23.44685 -0.00334
C 6.14492 32.04977 0.01226
C 6.11598 30.61608 -0.00279
C 5.02274 29.79062 0.01996
C 4.88877 28.40428 -0.03996
C 6.15528 27.6884 0.01465
C 6.08813 26.25347 -0.00074
C 4.87218 25.6306 -0.00518
C 4.88206 24.14855 0.0086
C 6.13068 23.4171 -0.00643
C 4.88108 32.70613 0.03828
C 6.08647 22.01146 0.017
C 6.11593 9.23455 -0.02566
C 4.87012 8.60301 -0.00094
C 4.87877 7.17398 0.02322
C 6.15438 6.45011 -0.00725
C 6.09607 5.09394 -0.05697
C 4.90658 4.3519 0.01087
C 4.8873 2.91882 -0.01343
C 6.09742 2.30942 0.00988
C 6.09268 0.88355 0.0276
C 4.98714 21.51313 -0.03113
C 2.43434 34.03784 0.0174
C 3.66048 0.71535 0.0073
C 3.68469 2.16458 0.00402
C 3.66725 30.52088 0.02784
C 2.35378 29.89692 -0.01977
C 2.38858 28.48414 -0.00561
C 3.62852 27.79222 0.00208
C 3.61602 26.36654 0.01707
C 2.46201 25.54215 0.02769
C 2.42406 24.08676 -0.03291
C 3.64948 23.43099 -0.04999
C 3.64265 21.95131 0.04505
C 2.36117 21.27664 0.03284
C 2.56494 19.75427 -0.04307
C 2.29943 12.85829 0.03189
C 2.40932 11.44022 0.00031
C 3.59144 10.68933 -0.003
C 3.62058 9.26781 0.01402
C 2.3371 8.53856 0.02379
C 2.41265 7.13248 0.00907
C 3.68625 6.43148 0.00643
C 3.65516 4.97055 -0.01509
C 2.43056 4.25852 0.03267
C 2.415 2.86587 0.02374
C 4.90061 0.07649 0.01305
C 7.28287 32.8049 -0.00077
C 8.53496 32.03334 0.03368
C 8.62172 30.66569 -0.02929
C 9.72791 24.33747 0.00895
C 10.96309 23.6143 0.00685
C 10.6356 22.21765 0.02888
C 10.67407 8.68804 -0.00482
C 10.03528 7.34712 -0.01384
C 11.10941 6.41336 0.03693
C 11.08617 5.01047 0.01745
C 9.8546 4.34508 0.00488
C 9.84178 2.87413 -0.01004
C 11.07054 2.20422 -0.02896
C 11.17399 0.81464 -0.00131
C 9.89245 0.12161 -0.01118
C 12.30115 32.67762 -0.014
C 13.59748 31.97667 0.02147
C 13.57845 30.59937 0.00373
C 12.29803 29.88824 -0.00191
C 12.21602 28.42291 0.00438
C 13.39336 27.74715 0.01291
C 13.46705 26.29924 0.00093
C 12.23328 25.62533 0.00057
C 12.18812 24.23356 -0.01634
C 9.72664 25.76109 0.00393
C 13.15626 22.05194 0.02339
C 11.05466 26.34118 0.0288
C 9.82412 28.44997 -0.01362
C 7.35122 29.93387 -0.00966
C 7.33624 28.47633 -0.03337
C 8.55452 27.76309 0.01227
C 8.47959 26.41571 0.00873
C 7.33743 25.52355 -0.00049
C 7.3747 24.0512 0.00848
C 8.57794 23.42341 -0.01303
C 9.41527 22.20878 -0.01378
C 7.08618 8.61518 0.02635
C 7.4184 7.20841 0.0127
C 8.68172 6.62756 0.01396
C 8.60052 5.17946 0.01849
C 7.41557 4.39795 -0.01142
C 7.4294 2.95923 -0.00562
C 8.63029 2.23008 -0.00494
C 8.64495 0.83205 0.00054
C 7.45713 0.104 0.03007
C 9.93698 32.7315 -0.00095
C 11.11001 32.02916 0.01572
C 11.06662 30.53258 -0.04848
C 9.88579 29.86909 -0.00892
C 11.0178 27.72831 -0.0008
C 20.85732 6.34628 -0.0054
C 20.7925 4.94857 0.00667
C 19.63828 4.15801 0.00143
C 30.61869 6.45482 0.01908
C 30.71108 4.9367 0.07705
C 29.40863 4.22352 0.0103
C 29.45714 2.86342 0.02108
C 30.67368 2.12963 0.00716
C 30.76917 0.66393 0.00307
C 29.53523 34.04419 0.00346
C 31.92695 32.70234 0.01713
C 33.17721 31.97381 -0.01694
C 29.43035 7.08763 0.01518
C 33.18173 30.51309 0.01428
C 31.98439 28.38277 0.0544
C 33.1673 27.61212 0.00026
C 33.20878 26.22469 0.00682
C 31.98249 25.50231 -0.01779
C 31.95879 24.10384 0.03794
C 33.18072 23.38221 0.01927
C 33.19536 21.93921 0.01574
C 32.02175 21.30818 -0.02383
C 31.99824 19.84716 -0.01429
C 31.94821 29.82928 -0.02142
C 29.44315 8.48292 -0.00971
C 30.61927 9.31522 -0.03735
C 30.69793 10.68257 -0.00944
C 29.49819 32.61987 0.01177
C 30.82186 31.98437 0.04266
C 30.75276 30.55447 0.01324
C 29.61551 29.71565 0.0014
C 29.51181 28.3684 0.00924
C 30.76706 27.64434 0.02326
C 30.73504 26.23051 0.00261
C 29.47409 25.49154 0.03265
C 29.45687 24.04889 -0.02049
C 30.75447 23.41192 -0.01854
C 30.7687 22.02142 -0.01415
C 29.57595 21.30157 -0.03039
C 29.55659 19.83544 0.01836
C 30.77175 19.19645 0.03531
C 30.76399 17.74752 -0.00669
C 29.39143 16.98103 0.0101
C 29.39572 15.56691 0.01705
C 30.64065 14.88191 -0.0405
C 30.66112 13.46222 -0.01303
C 29.40146 12.76762 -0.01461
C 29.42841 11.36083 -0.02155
C 33.17018 19.09345 -0.0136
C 33.10178 17.70865 0.00594
C 31.95259 17.05584 -0.02474
C 31.80096 15.57986 0.00369
C 1.1528 22.02258 0.02712
C 0.00761 21.10465 -0.02213
C 0.10075 19.76088 0.01951
C 1.42828 18.97794 -0.01678
C 1.18449 17.5872 0.01223
C 34.33933 17.04108 0.00648
C 34.33497 15.66147 0.02114
C 1.11508 15.1091 -0.02957
C 1.24335 13.76995 0.00343
C 34.41078 12.83412 -0.02656
C 34.41345 11.45379 -0.02442
C 1.19207 10.71275 -0.00027
C 1.14754 9.26831 -0.00583
C 34.35092 8.53722 -0.02302
C 34.40604 7.12733 -0.02849
C 1.21805 6.40553 0.02931
C 1.21107 5.00222 0.00628
C 34.41149 4.25123 -0.0345
C 34.41637 2.87643 -0.00931
C 1.21056 2.11528 -0.00939
C 1.25638 0.6831 -0.00468
C 1.15276 23.41126 0.00723
C 27.14331 34.03968 -0.00416
C 34.37224 24.12894 0.03076
C 1.2123 26.2973 -0.00598
C 33.0727 14.91383 0.00455
C 33.13138 13.49304 -0.00644
C 31.88309 12.83799 -0.01839
C 31.94172 11.38371 0.00137
C 33.1845 10.7183 0.00199
C 33.18406 9.28296 0.04381
C 31.94696 8.58149 0.02806
C 31.87649 7.25001 0.01504
C 33.18357 6.45785 -0.00069
C 33.19465 4.96794 0.04926
C 31.95364 4.20115 -0.03838
C 31.96944 2.8573 0.00349
C 33.27404 2.14557 -0.00323
C 33.2104 0.72992 -0.00841
C 31.98446 0.02878 0.0001
C 34.36658 32.73618 -0.02927
C 1.1556 32.03767 -0.01404
C 1.1585 30.57086 0.01027
C 34.35844 29.80099 0.01831
C 34.34756 28.38987 -0.01037
C 1.20326 27.73792 -0.00439
C 34.39934 25.5859 -0.05239
C 28.33317 0.65856 0.01699
C 28.31173 2.09331 0.01799
C 27.03943 2.84234 0.01259
C 23.19824 10.67759 -0.00478
C 23.18452 9.2171 -0.01662
C 22.01162 8.46398 -0.01185
C 22.07174 7.06667 0.01126
C 23.28469 6.40805 0.01852
C 23.31928 4.96865 -0.00381
C 22.0334 4.24022 0.03046
C 22.07873 2.85273 0.0296
C 23.35398 2.12674 0.03374
C 23.41715 0.72743 -0.02845
C 22.17786 34.00506 -0.03213
C 24.59172 32.60743 0.02239
C 25.84611 31.95028 0.01153
C 25.74695 30.51645 0.02734
C 24.61399 29.77337 -0.0055
C 24.68467 28.33295 0.01515
C 25.89682 27.65206 -0.00225
C 25.89588 26.23745 0.00071
C 24.62982 25.49597 -0.01107
C 24.58078 24.09654 -0.01586
C 25.80915 23.44983 -0.01971
C 22.00037 11.35749 0.01511
C 25.80138 21.95444 -0.02118
C 22.02051 12.67505 0.00199
C 23.27558 14.85063 -0.01527
C 19.64956 2.72247 -0.017
C 20.97025 2.08024 0.00364
C 21.0281 0.64857 -0.00831
C 19.7074 0.04466 -0.02957
C 22.19883 32.6104 -0.04422
C 23.42203 31.92485 0.00654
C 23.35481 30.49028 -0.00703
C 22.20741 29.80357 -0.04076
C 22.17342 28.41245 -0.00652
C 23.43911 27.62958 0.0058
C 23.41853 26.24336 -0.00865
C 22.2002 25.59418 0.00675
C 22.02743 24.06494 -0.00311
C 23.34591 23.40696 0.00742
C 23.35767 21.93551 -0.01594
C 22.10403 21.26556 0.0106
C 22.05873 19.85808 -0.01154
C 23.32908 19.11754 -0.01721
C 23.31425 17.69264 -0.02422
C 22.09939 17.01242 0.01277
C 22.00168 15.62203 0.00096
C 23.26102 13.3937 0.01087
C 3.64765 31.98692 -0.01979
C 24.59759 21.28347 0.00733
C 25.76996 19.1547 0.00768
C 27.15884 25.57833 -0.00218
C 27.03518 24.16544 -0.01654
C 28.21686 23.3483 -0.00037
C 28.31389 21.95073 -0.0032
C 27.10035 21.31787 0.00622
C 27.09461 19.94573 -0.02815
C 28.28342 19.18865 -0.00942
C 28.16616 17.69539 0.00487
C 27.01868 17.0529 0.00826
C 26.95421 15.61576 -0.00294
C 28.1666 14.86823 0.00152
C 28.16485 13.45984 0.01257
C 26.90488 12.66479 0.02316
C 26.93759 11.3164 0.04185
C 28.17398 10.62558 0.00194
C 28.24486 9.22907 -0.00621
C 26.97419 8.55919 0.02611
C 26.93235 7.09578 0.02198
C 28.18209 6.37468 0.01094
C 28.2169 4.98913 0.00235
C 26.87396 4.25337 0.01495
C 28.29725 26.24653 -0.00802
C 24.56235 19.81101 -0.00178
C 28.28797 27.70064 0.00195
C 27.09902 29.85228 0.04306
C 25.78775 17.75791 -0.0276
C 24.583 16.95209 0.03005
C 24.46173 15.48327 -0.04078
C 25.70261 14.83209 0.02117
C 25.74276 13.43028 0.02737
C 24.52459 12.8192 -0.00498
C 24.42431 11.38017 0.00135
C 25.68647 10.65584 0.03102
C 25.70233 9.27019 0.02555
C 24.49127 8.51619 0.01423
C 24.5248 7.11959 -0.00285
C 25.77007 6.43639 -0.009
C 25.69209 5.03049 -0.01199
C 24.48567 4.30069 -0.00229
C 24.58141 2.76916 -0.00938
C 25.79177 2.10655 -0.0264
C 25.8964 0.67959 -0.01154
C 24.60256 34.00889 0.00684
C 27.01276 32.62503 -0.01052
C 28.31613 31.8866 -0.01679
C 28.3383 30.47137 0.00367
C 27.07511 28.46163 0.00996
C 2.34007 32.65554 -0.00449
