300
Graphene
C 34.32649 0.07458 0.01295
C 13.72937 21.83739 -0.00111
C 12.45751 21.15397 -0.03557
C 12.38801 2.97954 0.03754
C 13.60478 2.38107 0.01739
C 13.52715 0.87033 0.00755
C 12.33738 0.15523 -0.0054
C 13.61325 23.40198 0.04892
C 14.7486 32.74091 0.00667
C 15.93223 30.54886 -0.017
C 14.64603 29.84231 0.00364
C 14.66486 28.34411 -0.00831
C 15.89913 27.63317 -0.02957
C 15.93391 26.26565 -0.04422
C 14.67428 25.50607 0.00654
C 16.083 31.91819 0.00143
C 12.27852 24.0324 0.01452
C 12.25754 25.43384 -0.01581
C 13.51005 26.23895 0.02691
C 9.78973 25.53559 -0.05302
C 9.81629 24.10839 0.00213
C 11.0105 23.42064 -0.00066
C 11.1003 21.78913 -0.00289
C 9.87868 21.22093 0.00028
C 9.81938 3.06928 -0.02213
C 11.09756 2.32187 0.03698
C 11.09368 0.87641 -0.00109
C 9.80714 0.125 -0.00491
C 12.30098 32.78523 0.03338
C 13.52434 32.02891 -0.0258
C 13.43204 30.57056 -0.0331
C 12.20199 29.8704 -0.00316
C 12.27648 28.39801 0.02188
C 13.50898 27.61903 -0.01979
C 14.80915 23.96561 -0.00703
C 16.03967 23.4649 -0.04076
C 16.06112 22.02342 -0.00652
C 15.0058 21.24769 0.0058
C 17.18429 34.05938 0.01852
C 19.71954 32.61065 -0.00381
C 20.89361 31.9319 0.03046
C 20.91334 30.50174 0.0296
C 19.69396 29.79136 0.03374
C 19.59211 28.3601 -0.02845
C 20.80568 27.63547 -0.03213
C 20.87883 26.30004 0.02239
C 19.66683 25.61672 0.01153
C 19.70551 24.21111 0.02734
C 20.81038 23.2566 -0.0055
C 20.03638 22.06703 0.01515
C 19.52544 4.05935 -0.00225
C 19.67401 2.62385 0.00071
C 20.87182 1.9742 -0.01107
C 18.45601 0.599 0.01126
C 11.06142 26.16266 -0.04147
C 18.50129 1.95384 -0.01185
C 18.33876 4.22815 -0.00478
C 14.85938 2.95971 -0.00865
C 16.12336 2.30375 0.00675
C 16.01581 0.79641 -0.00311
C 14.80167 0.17885 0.00742
C 17.29657 32.63376 -0.01594
C 18.49123 31.94734 0.0106
C 18.43363 30.50936 -0.01154
C 17.18963 29.77769 -0.01721
C 17.15853 28.2602 -0.02422
C 18.40403 27.60761 0.01277
C 18.4141 26.25293 0.00096
C 17.22901 25.60848 -0.01527
C 17.2902 24.15802 0.01087
C 18.48417 23.46713 0.00199
C 18.85857 22.04216 0.01511
C 17.43614 2.97103 -0.01662
C 20.85111 0.60346 -0.01586
C 11.05021 27.62018 -0.02815
C 9.85241 29.96048 0.01443
C 3.47347 9.33392 0.03101
C 2.33642 8.52134 -0.01536
C 2.4407 7.12923 -0.02689
C 3.7362 6.39933 -0.01046
C 3.58144 4.93753 -0.00891
C 2.37019 4.27291 0.02819
C 3.45913 10.52768 -0.00428
C 2.40311 2.86019 0.00165
C 3.70925 0.7683 0.02894
C 2.45167 0.15129 -0.01789
C 4.89998 32.69448 0.00444
C 6.14882 32.01828 -0.00925
C 6.15181 30.59206 0.01877
C 4.91974 29.87539 0.01363
C 3.6453 2.16915 -0.02971
C 2.38293 11.49862 -0.02245
C 2.46848 12.93594 0.00985
C 3.29525 14.26122 -0.01275
C 3.6649 30.56934 0.02339
C 2.43142 29.85627 0.01641
C 2.43261 28.52333 -0.00719
C 3.66319 27.78437 0.01364
C 3.69042 26.36115 -0.01062
C 2.38349 25.56934 -0.00033
C 2.39304 24.20855 0.03589
C 3.65004 23.40073 -0.02759
C 3.62922 21.9935 0.0402
C 2.4209 21.2382 0.00572
C 2.38964 19.80929 0.03592
C 3.66851 18.96897 0.00406
C 3.65877 17.58158 0.00943
C 2.53615 16.76732 0.02841
C 2.43306 15.43739 -0.01111
C 4.94132 28.42901 -0.02162
C 6.1453 27.73148 0.00415
C 6.06193 26.33384 -0.0014
C 4.79625 25.62496 0.02162
C 8.64924 26.29109 -0.00368
C 7.3649 25.55323 -0.02696
C 7.38579 24.16493 -0.00114
C 8.60876 23.34995 0.00228
C 8.57024 21.99249 0.00798
C 7.39836 21.27813 0.00422
C 7.21184 19.96124 0.0351
C 7.03552 4.36866 -0.03113
C 7.30108 3.06352 0.02098
C 8.49254 2.40184 0.01848
C 8.55661 0.95857 -0.00619
C 7.41808 0.11928 -0.02162
C 9.806 32.76044 0.00889
C 11.12253 32.10722 -0.00481
C 11.06923 30.63587 0.00979
C 8.67569 27.80586 -0.0108
C 9.84999 28.45712 0.03505
C 7.39155 28.51059 -0.01957
C 8.61761 30.60907 0.01965
C 4.84675 24.1277 0.0076
C 6.11438 23.53841 0.01241
C 6.13192 21.99225 -0.01454
C 4.85727 21.2549 0.01945
C 4.90203 19.74143 0.01416
C 6.27925 19.23865 0.03542
C 5.17453 6.61277 0.02299
C 5.8654 5.22683 0.00244
C 4.7703 4.25746 -0.01717
C 4.87732 2.90867 0.05265
C 6.12876 2.23642 -0.01952
C 6.13127 0.7705 -0.02813
C 4.94589 0.04881 0.00374
C 7.38703 32.77194 0.00052
C 8.61051 32.0383 -0.03682
C 7.35919 29.90772 0.02058
C 19.67339 34.06989 -0.01971
C 22.19086 32.62767 -0.02118
C 23.3452 31.89801 0.00733
C 33.19184 26.32848 -0.02383
C 31.93447 25.64558 -0.01429
C 31.95421 24.18466 -0.0136
C 33.19515 23.46792 0.00594
C 33.19085 22.06088 -0.02474
C 31.91237 21.25908 0.00369
C 33.16183 27.69326 0.01574
C 31.82458 19.77569 0.00455
C 33.25087 17.81592 -0.01839
C 31.96344 17.05406 0.00137
C 32.00097 15.64011 0.00199
C 33.22923 14.93964 0.04381
C 33.17832 13.54406 0.02806
C 31.93189 12.92665 0.01504
C 33.20096 19.17952 -0.00644
C 31.8809 28.38813 0.01927
C 31.87305 29.83111 0.03794
C 33.10595 30.60177 -0.01779
C 29.33611 16.76526 0.01518
C 29.38314 15.38888 0.01908
C 30.82378 14.95181 0.07705
C 30.7976 13.56055 0.0103
C 29.56707 12.88767 0.02108
C 29.39787 11.56406 0.00716
C 30.77403 10.83771 0.00307
C 30.88764 9.46648 0.00346
C 29.67627 8.81569 0.01713
C 29.17873 3.39997 -0.01694
C 30.58459 2.60793 0.01428
C 30.5765 0.99125 -0.02142
C 29.37615 0.2111 0.0544
C 31.87868 32.77557 0.00026
C 33.13801 32.09055 0.00682
C 31.87861 11.54119 -0.00069
C 33.01795 10.73858 0.04926
C 32.81151 9.2962 -0.03838
C 31.87044 3.20183 0.00349
C 0.00879 15.65085 0.02114
C 1.12466 14.83459 -0.02957
C 1.13485 13.46976 0.00343
C 34.31213 12.7418 -0.02656
C 34.24077 11.42021 -0.02442
C 1.01978 10.61549 -0.00027
C 0.96631 9.2308 -0.00583
C 34.06008 8.42585 -0.02302
C 34.3293 7.04559 -0.02849
C 1.15796 6.38661 0.02931
C 1.06873 4.99269 0.00628
C 34.19188 4.40135 -0.0345
C 34.28689 2.98502 -0.00931
C 1.08451 2.22888 -0.00939
C 1.16629 0.79811 -0.00468
C 0.04728 17.05198 0.00648
C 30.65628 17.54221 -0.00971
C 1.21986 17.66814 0.01223
C 34.41582 19.8928 0.01951
C 33.00755 2.40692 -0.00323
C 33.0659 0.87019 -0.00841
C 31.85975 0.15016 0.0001
C 34.36302 32.75175 -0.02927
C 1.17112 32.07179 -0.01404
C 1.19557 30.66671 0.01027
C 34.34708 29.93163 0.01831
C 34.35551 28.45531 -0.01037
C 1.1451 27.76342 -0.00439
C 1.15276 26.31634 -0.00598
C 34.35457 25.60711 -0.05239
C 34.43014 24.13355 0.03076
C 1.20551 23.48152 0.00723
C 1.2471 22.00883 0.02712
C 0.01816 21.2929 -0.02213
C 1.22594 19.154 -0.01678
C 30.58945 19.07855 -0.03735
C 29.38714 19.80291 -0.00944
C 29.4685 21.25668 -0.02155
C 24.58904 28.33537 0.00684
C 25.75626 27.68406 -0.01052
C 25.81153 26.28002 -0.01679
C 24.52095 25.53203 0.00367
C 24.54531 24.09609 0.04306
C 25.82499 23.46434 0.00996
C 25.76717 21.95906 0.00195
C 24.53046 21.32688 -0.00802
C 25.7935 6.4283 -0.00218
C 25.63656 5.0111 -0.01654
C 24.31337 4.32944 -0.00037
C 24.40231 2.82547 -0.0032
C 25.61239 2.13791 0.00622
C 25.65064 0.7117 -0.02815
C 24.4441 34.02659 -0.00942
C 24.65499 29.73197 -0.01154
C 26.99225 32.80143 0.00487
C 25.77127 30.60477 -0.0264
C 24.45129 32.6181 -0.00229
C 23.34604 30.40574 -0.00178
C 22.09895 29.78148 0.00768
C 22.13274 28.35752 -0.0276
C 23.34028 27.59123 0.03005
C 23.29739 26.20562 -0.04078
C 22.14272 25.4917 0.02117
C 22.04752 23.91637 0.02737
C 23.25376 23.27847 -0.00498
C 23.43126 21.83487 0.00135
C 23.04189 4.94509 0.03102
C 21.79628 4.15013 0.02555
C 22.03133 2.81248 0.01423
C 23.2412 2.06379 -0.00285
C 23.2928 0.69417 -0.009
C 22.07015 33.99372 -0.01199
C 25.78613 32.03294 -0.00938
C 3.60619 32.02478 -0.00334
C 28.27538 32.11631 0.00826
C 27.08422 29.90163 0.00152
C 26.91249 2.85702 0.02326
C 28.12639 2.31878 0.00261
C 28.12374 0.92455 0.03265
C 26.93146 0.14911 -0.02049
C 29.48242 32.88334 -0.01854
C 30.64134 32.10662 -0.01415
C 30.72027 30.6358 -0.03039
C 29.56049 29.89885 0.01836
C 29.46057 28.49486 0.03531
C 30.68225 27.70552 -0.00669
C 30.70589 26.31789 0.0101
C 29.52372 25.60854 0.01705
C 29.49278 24.22533 -0.0405
C 30.71226 23.463 -0.01303
C 30.6859 22.02031 -0.01461
C 26.88511 4.24595 0.00924
C 28.27614 30.70182 -0.00294
C 28.35074 4.62566 0.0014
C 27.0048 7.08093 0.04266
C 27.00501 28.42257 0.01257
C 28.20662 27.72973 0.02316
C 28.30013 26.32069 0.04185
C 27.01007 25.56932 0.00194
C 27.04493 24.17795 -0.00621
C 28.29081 23.51834 0.02611
C 28.25499 22.09782 0.02198
C 27.05344 21.33467 0.01094
C 26.99237 19.9493 0.00235
C 28.06354 19.03826 0.01495
C 28.3022 17.68401 0.01259
C 28.47374 14.31313 0.01799
C 28.43741 10.61403 0.01699
C 28.2707 9.31755 -0.00416
C 27.15607 8.41579 0.01177
C 28.44125 5.93535 0.01324
C 2.40726 32.77989 -0.01634
