331
Graphene
C 0.03873 0.02316 0.01295
C 15.9254 0.73829 -0.02815
C 14.8014 0.06736 -0.04147
C 17.16533 32.67365 -0.05302
C 18.42282 32.02821 0.00213
C 18.37957 30.64181 -0.00066
C 17.19542 29.83777 -0.00289
C 17.21585 28.32641 0.00028
C 16.16309 2.21685 0.03505
C 18.3913 27.62578 -0.02213
C 17.14536 25.49026 -0.00109
C 17.1266 24.0368 -0.00491
C 18.33176 23.35538 0.03338
C 18.57872 21.90213 -0.0258
C 17.09492 2.86377 -0.0331
C 18.48282 2.25957 -0.00316
C 18.41025 0.80468 0.02188
C 18.34237 26.22681 0.03698
C 15.99332 23.26861 0.01443
C 14.69737 23.87616 0.00979
C 14.70467 25.4776 -0.00481
C 13.46111 30.62513 0.01965
C 12.24462 29.90335 0.02058
C 12.27731 28.46678 -0.01957
C 13.44792 27.65309 -0.0108
C 13.54523 26.22462 -0.00368
C 12.26277 25.49064 -0.02696
C 12.14863 23.93629 -0.00114
C 13.43237 23.54747 0.00228
C 13.64697 0.80678 0.00798
C 12.32573 0.4105 0.00422
C 14.73429 32.69568 0.0351
C 15.94307 31.88285 -0.03113
C 15.86487 30.47428 0.02098
C 14.57971 29.7213 0.01848
C 14.71524 28.35726 -0.00619
C 15.92161 27.6417 -0.02162
C 15.92931 26.17829 0.00889
C 17.19651 0.00442 -0.01979
C 19.59994 32.75276 0.02691
C 20.86182 32.02223 -0.01581
C 20.82262 30.6222 0.01452
C 23.28557 26.2162 -0.00311
C 22.09538 25.53995 0.00742
C 22.10672 24.107 -0.01594
C 23.28706 23.33441 0.0106
C 23.3424 21.87203 -0.01154
C 22.11836 21.12901 -0.01721
C 22.17127 19.7745 -0.02422
C 23.2286 18.95823 0.01277
C 23.16754 17.54131 0.00096
C 22.16053 16.67012 -0.01527
C 23.09907 14.68793 0.01087
C 23.22778 13.3623 0.00199
C 22.45227 12.15631 0.01511
C 23.11064 11.0174 -0.00478
C 23.0573 9.35749 -0.01662
C 22.15594 8.2872 -0.01185
C 22.24314 7.1013 0.01126
C 23.34555 27.6159 0.00675
C 13.46401 32.10509 -0.03682
C 22.07161 28.36686 -0.00865
C 23.25213 30.51492 -0.00652
C 19.60145 29.9233 0.04892
C 19.59667 28.40594 -0.00111
C 20.83624 27.65106 -0.03557
C 20.86604 26.24347 0.03754
C 19.61295 25.46949 0.01739
C 19.6689 24.08612 0.00755
C 20.93627 23.42593 -0.0054
C 21.0153 21.95951 0.00667
C 19.59326 21.33947 0.00143
C 21.00798 5.05441 -0.017
C 19.93938 4.44021 0.00364
C 19.71352 3.03291 -0.00831
C 20.92198 2.25872 -0.02957
C 20.84676 0.74871 -0.04422
C 19.65253 0.06289 0.00654
C 22.07646 32.67582 -0.00703
C 23.32929 31.92545 -0.04076
C 22.01919 29.83239 0.0058
C 23.39305 6.36685 0.01852
C 12.27185 32.84611 0.00052
C 10.99818 0.89634 -0.02813
C 2.23435 8.39427 -0.014
C 2.2763 7.01531 0.02147
C 3.63957 6.54519 0.00373
C 3.81329 5.14102 -0.00191
C 2.57803 4.31874 0.00438
C 2.47383 2.88579 0.01291
C 3.7744 2.22639 0.00093
C 3.41133 9.00425 -0.01118
C 3.6986 0.74833 0.00057
C 4.92868 32.76175 -0.00334
C 6.14843 32.07387 0.02339
C 6.19682 30.64392 0.01641
C 4.99068 29.89764 -0.00719
C 4.96246 28.46488 0.01364
C 6.19673 27.73711 -0.01062
C 6.14403 26.24796 -0.00033
C 2.43946 0.10126 -0.01634
C 3.71965 10.43857 -0.00131
C 2.44182 11.20775 -0.02896
C 2.46972 12.66905 -0.01004
C 3.70665 30.5997 0.03007
C 2.47421 29.81901 -0.00095
C 2.50497 28.43306 0.01572
C 3.75201 27.71819 -0.04848
C 3.81118 26.26892 -0.00892
C 2.51752 25.63798 -0.01362
C 2.49542 24.18396 -0.0008
C 3.70777 23.37488 0.0288
C 3.65539 21.95992 0.00393
C 2.41571 21.38645 0.00895
C 2.367 20.00186 0.00685
C 3.51207 19.19547 0.02888
C 3.50445 17.81663 -0.00482
C 2.29993 17.05799 -0.01384
C 2.38444 15.60963 0.03693
C 3.87034 14.98667 0.01745
C 3.8533 13.52817 0.00488
C 4.99617 25.49232 0.03589
C 4.90033 24.09698 -0.02759
C 6.07883 23.34956 0.0402
C 6.08039 21.81317 0.00572
C 7.27521 24.0976 0.01877
C 8.62713 23.43136 0.01363
C 8.51076 22.14133 -0.02162
C 7.38471 21.38794 0.00415
C 7.68719 2.16179 -0.0014
C 8.38405 1.12155 0.02162
C 7.31013 0.1034 0.0076
C 9.74222 32.92444 0.01241
C 11.04328 32.21587 -0.01454
C 11.07219 30.7283 0.01945
C 9.88264 29.953 0.01416
C 9.92167 28.49919 0.03542
C 11.14169 27.7544 0.02299
C 11.09433 26.32635 0.00244
C 9.8664 25.60302 -0.01717
C 9.81398 24.14532 0.05265
C 10.93538 23.31993 -0.01952
C 7.30156 25.53418 -0.00925
C 9.7251 0.45653 0.00374
C 8.641 26.25396 0.00444
C 7.44843 28.36029 0.02894
C 4.91377 21.11144 0.03592
C 4.84859 19.68162 0.00406
C 5.62777 18.53261 0.00943
C 5.0095 17.44331 0.02841
C 4.8016 15.9532 -0.01111
C 4.85645 12.44867 -0.01275
C 4.78562 11.2491 0.00985
C 4.59023 7.65575 -0.02245
C 4.87588 4.40592 -0.00428
C 5.0692 2.86629 0.03101
C 6.23241 2.12361 -0.01536
C 6.08229 0.70768 -0.02689
C 4.93142 0.07891 -0.01046
C 7.35936 32.88703 -0.00891
C 8.56954 32.11402 0.02819
C 8.64872 30.68445 0.00165
C 7.43274 29.87083 -0.02971
C 8.72468 27.74924 -0.01789
C 3.70387 32.01952 0.00054
C 23.45076 4.96833 -0.00381
C 22.22255 2.92445 0.0296
C 33.16389 27.72358 0.00026
C 33.22126 26.26664 0.00682
C 31.91484 25.57957 -0.01779
C 31.89243 24.21282 0.03794
C 33.22962 23.48587 0.01927
C 33.22899 22.06953 0.01574
C 31.97852 21.3041 -0.02383
C 31.91737 28.3759 0.0544
C 31.92276 19.90683 -0.01429
C 33.15034 17.82038 0.00594
C 31.91326 17.14771 -0.02474
C 31.87735 15.66067 0.00369
C 33.15349 14.93939 0.00455
C 33.20533 13.50312 -0.00644
C 31.91022 12.79599 -0.01839
C 31.9307 11.35089 0.00137
C 33.17331 19.22239 -0.0136
C 31.88178 29.8325 -0.02142
C 33.17916 30.4943 0.01428
C 33.19721 31.94405 -0.01694
C 29.38797 15.60947 0.01705
C 30.668 14.92966 -0.0405
C 30.6785 13.41976 -0.01303
C 29.51817 12.75894 -0.01461
C 29.45638 11.37917 -0.02155
C 30.6604 10.64065 -0.00944
C 30.70497 9.27129 -0.03735
C 29.519 8.47831 -0.00971
C 29.50853 7.12584 0.01518
C 30.67665 6.37864 0.01908
C 30.78071 4.92275 0.07705
C 29.46232 4.21403 0.0103
C 29.49625 2.82239 0.02108
C 30.70147 2.08352 0.00716
C 30.73405 0.66738 0.00307
C 29.46036 0.00777 0.00346
C 31.9052 32.61496 0.01713
C 33.20359 10.61764 0.00199
C 33.172 9.24038 0.04381
C 31.92339 8.49665 0.02806
C 31.96303 7.08504 0.01504
C 1.13347 17.89901 0.01223
C 34.37903 17.05505 0.00648
C 34.37078 15.5928 0.02114
C 1.20922 14.84678 -0.02957
C 1.28729 13.39936 0.00343
C 34.39971 12.74218 -0.02656
C 34.42496 11.36361 -0.02442
C 1.15312 10.56735 -0.00027
C 1.1116 9.12086 -0.00583
C 34.34325 8.44241 -0.02302
C 34.39164 7.02301 -0.02849
C 1.14297 6.26016 0.02931
C 1.18548 4.88756 0.00628
C 34.40131 4.23811 -0.0345
C 34.40987 2.86616 -0.00931
C 1.25468 2.24346 -0.00939
C 1.25373 0.76213 -0.00468
C 1.1235 19.29495 -0.01678
C 29.36005 17.0555 0.0101
C 34.37054 19.99186 0.01951
C 1.21257 22.14727 0.02712
C 33.18694 6.31482 -0.00069
C 33.17462 4.97632 0.04926
C 31.98584 4.20548 -0.03838
C 31.99051 2.75864 0.00349
C 33.26211 2.07953 -0.00323
C 33.22831 0.65055 -0.00841
C 31.99782 34.07473 0.0001
C 34.38601 32.67898 -0.02927
C 1.18839 31.94648 -0.01404
C 1.20526 30.47716 0.01027
C 34.37087 29.81357 0.01831
C 0.00554 28.39159 -0.01037
C 1.28077 27.67657 -0.00439
C 1.24272 26.28929 -0.00598
C 34.39678 25.6157 -0.05239
C 34.37436 24.22317 0.03076
C 1.16702 23.51904 0.00723
C 0.00441 21.3727 -0.02213
C 22.23748 4.36069 0.03046
C 30.61836 17.75711 -0.00669
C 29.44898 19.87694 0.01836
C 25.76064 13.48612 0.02737
C 24.61888 12.7964 -0.00498
C 24.55181 11.39442 0.00135
C 25.83728 10.71426 0.03102
C 25.7878 9.28986 0.02555
C 24.52644 8.54609 0.01423
C 24.61607 7.17326 -0.00285
C 25.68846 14.92595 0.02117
C 25.87505 6.45435 -0.009
C 24.5763 4.27488 -0.00229
C 24.65472 2.81771 -0.00938
C 25.79435 2.13252 -0.0264
C 25.86895 0.72246 -0.01154
C 24.57172 34.07499 0.00684
C 27.01924 32.61569 -0.01052
C 28.22354 31.90669 -0.01679
C 25.85449 5.03773 -0.01199
C 24.23888 15.41928 -0.04078
C 24.38796 16.83158 0.03005
C 25.57888 17.60872 -0.0276
C 23.39254 2.12563 0.03374
C 23.35517 0.72343 -0.02845
C 22.08409 0.03591 -0.03213
C 24.57613 32.67618 0.02239
C 25.8282 31.94843 0.01153
C 25.68463 30.55758 0.02734
C 24.48152 29.83786 -0.0055
C 24.49059 28.38663 0.01515
C 25.77787 27.61637 -0.00225
C 25.80113 26.24171 0.00071
C 24.5606 25.57665 -0.01107
C 24.53053 24.15557 -0.01586
C 25.76744 23.44517 -0.01971
C 25.79366 21.99598 -0.02118
C 24.61431 21.28923 0.00733
C 24.48373 19.85919 -0.00178
C 25.65878 19.11849 0.00768
C 28.09614 30.52171 0.00367
C 26.93251 29.85022 0.04306
C 26.99502 28.42994 0.00996
C 28.22575 27.70849 0.00195
C 27.02504 4.29289 0.01495
C 27.00972 2.85447 0.01259
C 28.21931 2.18354 0.01799
C 28.24121 0.74915 0.01699
C 27.05311 34.07149 -0.00416
C 29.4028 32.66348 0.01177
C 30.71212 31.95612 0.04266
C 30.63505 30.5428 0.01324
C 29.43194 29.85215 0.0014
C 29.50766 28.42153 0.00924
C 30.70582 27.7031 0.02326
C 30.70106 26.31815 0.00261
C 29.45574 25.63421 0.03265
C 29.45461 24.12684 -0.02049
C 30.63321 23.44263 -0.01854
C 30.64308 22.04998 -0.01415
C 29.47002 21.27533 -0.03039
C 28.31383 4.99696 0.00235
C 30.65372 19.14659 0.03531
C 28.32879 6.35288 0.01094
C 27.05886 8.53485 0.02611
C 28.22039 26.29215 -0.00802
C 26.99859 25.54155 -0.00218
C 26.99521 24.15399 -0.01654
C 28.1954 23.43521 -0.00037
C 28.22953 22.03465 -0.0032
C 26.92622 21.25852 0.00622
C 26.91971 19.88509 -0.02815
C 28.18258 19.19636 -0.00942
C 28.10324 17.76592 0.00487
C 26.83145 17.0073 0.00826
C 26.93215 15.57785 -0.00294
C 28.21384 14.85444 0.00152
C 28.26449 13.44928 0.01257
C 27.00478 12.7347 0.02316
C 27.04237 11.31275 0.04185
C 28.26591 10.64088 0.00194
C 28.2567 9.2725 -0.00621
C 27.09335 7.0619 0.02198
C 2.44633 32.68411 -0.00494
