365
Graphene
C 34.39564 0.01573 0.01295
C 11.18314 10.65752 0.00052
C 11.06725 9.20849 -0.03682
C 9.78592 8.55146 0.01965
C 9.86899 7.1766 0.02058
C 11.09454 6.40406 -0.01957
C 10.99162 4.97849 -0.0108
C 9.81114 4.23302 -0.00368
C 9.79852 2.79634 -0.02696
C 9.86462 11.30839 0.00374
C 11.02981 2.08569 -0.00114
C 9.81244 0.04161 0.00798
C 12.40461 32.61415 0.00422
C 13.59051 31.92805 0.0351
C 13.50729 30.571 -0.03113
C 12.34259 29.82008 0.02098
C 12.3337 28.44948 0.01848
C 13.66618 27.52609 -0.00619
C 13.34745 26.17601 -0.02162
C 11.07993 0.69154 0.00228
C 9.82608 12.64764 -0.02813
C 11.09207 13.41166 -0.01952
C 11.08099 14.91699 0.05265
C 8.55973 0.69839 0.02894
C 7.32482 0.03006 -0.01789
C 9.84552 32.7226 0.00444
C 11.11295 31.99892 -0.00925
C 11.04787 30.59785 0.01877
C 9.79894 29.89413 0.01363
C 9.83296 28.46873 -0.02162
C 11.11185 27.74529 0.00415
C 11.00747 26.313 -0.0014
C 9.78294 25.63187 0.02162
C 9.83754 24.26566 0.0076
C 11.06281 23.42767 0.01241
C 11.05168 22.09672 -0.01454
C 9.87239 21.26028 0.01945
C 9.88802 19.79659 0.01416
C 11.10122 19.12554 0.03542
C 11.08466 17.73932 0.02299
C 9.85973 16.95144 0.00244
C 9.78602 15.54642 -0.01717
C 12.21315 25.47636 0.00889
C 12.33553 24.0844 -0.00481
C 13.6016 23.55582 0.00979
C 13.65058 22.12619 0.01443
C 14.84998 21.41387 -0.03557
C 14.78551 19.94167 0.03754
C 15.99323 19.38573 0.01739
C 14.58547 8.37216 0.00755
C 14.82775 7.07061 -0.0054
C 16.07948 6.39651 0.00667
C 15.97363 5.02444 0.00143
C 14.72081 4.28969 -0.017
C 14.72302 2.82037 0.00364
C 15.97882 2.21592 -0.00831
C 15.91026 0.71584 -0.02957
C 14.74539 0.04255 -0.04422
C 17.17963 32.60267 0.00654
C 18.41412 31.87153 -0.00703
C 18.38634 30.44782 -0.04076
C 17.15411 29.8456 -0.00652
C 18.37164 21.84543 0.0058
C 17.39149 21.07783 -0.00865
C 17.1645 19.74485 0.00675
C 14.66801 28.40889 -0.00111
C 8.56115 2.1159 -0.02971
C 14.74921 29.81272 0.04892
C 16.02029 31.91489 -0.01581
C 12.3721 21.34477 0.03505
C 12.37114 19.91073 -0.02815
C 13.55375 19.18147 -0.04147
C 13.56687 17.81141 -0.05302
C 12.48109 16.97086 0.00213
C 12.21411 15.64622 -0.00066
C 12.28928 12.74276 -0.00289
C 12.23331 11.47839 0.00028
C 13.50057 9.00806 -0.02213
C 12.26307 8.5548 0.03698
C 12.37665 7.16823 -0.00109
C 13.53015 6.39985 -0.00491
C 13.49401 4.99849 0.03338
C 12.23598 4.27404 -0.0258
C 12.23375 2.84856 -0.0331
C 13.49459 2.14525 -0.00316
C 13.55308 0.71828 0.02188
C 12.36156 33.98061 -0.01979
C 14.734 32.6871 0.02691
C 15.95018 30.54112 0.01452
C 7.3235 2.8535 0.00165
C 7.31739 4.24616 0.02819
C 8.50845 4.93876 -0.00891
C 3.71177 6.45196 0.00848
C 3.70402 5.00152 -0.01303
C 2.47138 4.26704 -0.01378
C 2.48001 2.84015 0.02635
C 3.6707 2.18122 0.0127
C 3.61609 0.72791 0.01396
C 2.4237 33.98391 0.01849
C 4.91355 32.67999 -0.01142
C 6.15049 32.01432 -0.00562
C 6.16049 30.50968 -0.00494
C 4.95809 29.7838 0.00054
C 4.9426 28.40781 0.03007
C 6.13321 27.74343 -0.00095
C 6.14794 26.25109 0.01572
C 4.93654 25.59429 -0.04848
C 4.91101 24.12705 -0.00892
C 6.14684 23.43321 -0.01362
C 6.11856 22.04214 -0.0008
C 4.90723 21.30107 0.0288
C 2.40645 7.1221 -0.00049
C 4.87778 19.89496 0.00393
C 2.43085 8.55465 0.00873
C 3.71587 10.70431 -0.03337
C 3.71346 30.53965 -0.00518
C 2.46359 29.80789 0.0086
C 2.51942 28.41789 -0.00643
C 3.67819 27.62347 0.017
C 3.67775 26.22065 -0.03113
C 2.41911 25.64858 -0.02566
C 2.39225 24.12717 -0.00094
C 3.64092 23.51513 0.02322
C 3.58156 22.12342 -0.00725
C 2.45604 21.26751 -0.05697
C 2.48236 19.84819 0.01087
C 3.72654 19.12077 -0.01343
C 3.64978 17.69984 0.00988
C 2.46728 17.05314 0.0276
C 2.38775 15.56216 0.01305
C 3.67777 14.98118 -0.00077
C 3.70729 13.59428 0.03368
C 2.45744 12.78621 -0.02929
C 2.45024 11.45587 -0.00966
C 3.63067 9.307 0.01227
C 17.18464 7.17474 -0.00311
C 6.15573 19.23006 0.00895
C 4.99202 17.10554 0.02888
C 7.33851 25.53951 -0.01062
C 7.40402 24.11763 -0.00033
C 8.63231 23.43899 0.03589
C 8.65558 22.04762 -0.02759
C 7.3758 21.38301 0.0402
C 7.36965 19.96066 0.00572
C 8.66354 19.21132 0.03592
C 8.6545 17.81085 0.00406
C 7.45564 17.09898 0.00943
C 7.41477 15.60246 0.02841
C 8.61155 14.86027 -0.01111
C 8.51224 13.32633 -0.01275
C 7.26172 12.73561 0.00985
C 7.34317 11.39966 -0.02245
C 8.52656 10.59151 -0.00428
C 8.55277 9.20008 0.03101
C 7.36676 8.53385 -0.01536
C 7.37172 7.13427 -0.02689
C 8.64664 6.32517 -0.01046
C 8.54811 26.265 0.01364
C 6.22552 17.79978 0.00685
C 8.57383 27.7101 -0.00719
C 7.35398 29.80025 0.02339
C 4.89374 15.67976 -0.00482
C 6.16719 15.0143 -0.01384
C 6.12731 13.56962 0.03693
C 4.86813 12.89954 0.01745
C 4.88529 11.42346 0.00488
C 6.09524 10.68629 -0.01004
C 6.13107 9.2674 -0.02896
C 4.9333 8.58639 -0.00131
C 4.86722 7.20622 -0.01118
C 6.12111 6.43292 -0.014
C 6.1584 5.00246 0.02147
C 4.90443 4.22217 0.00373
C 4.90571 2.84119 -0.00191
C 6.09903 2.16963 0.00438
C 6.06484 0.75141 0.01291
C 4.85063 0.04123 0.00093
C 7.30449 32.73257 0.00057
C 8.60789 32.03417 -0.01634
C 8.57066 30.55605 -0.00334
C 7.34992 28.41489 0.01641
C 3.75187 31.92414 -0.00074
C 18.42168 6.56879 0.00742
C 17.25243 4.29118 0.0106
C 30.70914 4.94067 0.00346
C 29.58403 4.26969 0.01713
C 29.4852 2.80276 -0.01694
C 30.74554 2.13437 0.01428
C 30.72863 0.73338 -0.02142
C 29.50361 0.0274 0.0544
C 31.9042 32.68374 0.00026
C 33.09823 31.98594 0.00682
C 30.77137 6.30013 0.00307
C 33.23775 30.53418 -0.01779
C 31.97969 28.46416 0.01927
C 33.13634 27.71981 0.01574
C 33.14732 26.33901 -0.02383
C 31.93764 25.58386 -0.01429
C 31.96832 24.13217 -0.0136
C 33.17618 23.48 0.00594
C 33.15671 22.01986 -0.02474
C 31.94923 21.354 0.00369
C 32.00501 29.86357 0.03794
C 29.52404 17.11844 0.00716
C 30.72745 17.73345 0.02108
C 30.70324 19.2293 0.0103
C 28.3604 4.87232 -0.02049
C 27.0945 4.25801 -0.01854
C 27.06665 2.81331 -0.01415
C 28.24564 2.12193 -0.03039
C 28.27795 0.76705 0.01836
C 27.15169 0.03228 0.03531
C 29.44412 32.73252 -0.00669
C 30.65851 31.96357 0.0101
C 30.7416 30.53356 0.01705
C 29.56968 29.7731 -0.0405
C 29.52692 28.34813 -0.01303
C 30.76578 27.65254 -0.01461
C 30.72448 26.25276 -0.02155
C 29.47089 25.60845 -0.00944
C 29.53022 24.05782 -0.03735
C 30.72361 23.39075 -0.00971
C 30.7215 21.97798 0.01518
C 29.46277 21.25308 0.01908
C 29.50325 19.88935 0.07705
C 31.99861 19.90618 0.00455
C 33.20366 19.15236 -0.00644
C 33.20745 17.72445 -0.01839
C 31.9176 17.03977 0.00137
C 0.02042 19.84414 0.01951
C 1.2337 19.14453 -0.01678
C 1.19847 17.7897 0.01223
C 34.42314 16.97726 0.00648
C 34.42893 15.58613 0.02114
C 1.2404 14.85163 -0.02957
C 1.22612 13.46062 0.00343
C 34.29818 12.75647 -0.02656
C 0.03384 11.3601 -0.02442
C 1.20275 10.65644 -0.00027
C 1.24277 9.33256 -0.00583
C 0.05641 8.58113 -0.02302
C 34.34563 7.21643 -0.02849
C 1.19493 6.48054 0.02931
C 1.29768 5.05844 0.00628
C 0.01953 4.30846 -0.0345
C 0.0047 2.90276 -0.00931
C 1.24362 2.17597 -0.00939
C 1.21404 0.67129 -0.00468
C 34.38707 21.29726 -0.02213
C 27.03974 17.20651 0.03265
C 1.22767 22.03436 0.02712
C 0.01077 24.22027 0.03076
C 32.01999 15.65956 0.00199
C 33.12332 14.81234 0.04381
C 33.1445 13.48136 0.02806
C 31.8781 7.0135 0.01504
C 33.0824 6.4766 -0.00069
C 33.20573 4.98802 0.04926
C 31.95825 4.31004 -0.03838
C 31.93573 2.78118 0.00349
C 33.20734 2.17908 -0.00323
C 33.20711 0.78759 -0.00841
C 31.95327 0.03068 0.0001
C 34.33427 32.71616 -0.02927
C 1.16291 31.92722 -0.01404
C 1.26573 30.52557 0.01027
C 0.04395 29.87169 0.01831
C 34.4011 28.42489 -0.01037
C 1.25226 27.75679 -0.00439
C 1.16981 26.36782 -0.00598
C 34.41982 25.57601 -0.05239
C 1.18151 23.41354 0.00723
C 28.33142 17.6484 0.00261
C 28.23395 19.19613 0.02326
C 27.0102 19.97057 0.00924
C 19.62983 34.01396 -0.0055
C 22.12613 32.67265 0.01515
C 23.33668 32.00311 -0.00225
C 23.30761 30.58171 0.00071
C 22.12533 29.77932 -0.01107
C 22.01187 28.37533 -0.01586
C 23.25378 27.62787 -0.01971
C 23.37163 26.21362 -0.02118
C 22.09614 25.50787 0.00733
C 22.01014 24.12978 -0.00178
C 23.26591 23.35788 0.00768
C 23.30952 21.90435 -0.0276
C 22.10021 21.13157 0.03005
C 22.10613 19.77078 -0.04078
C 23.35171 19.01795 0.02117
C 23.43982 17.67263 0.02737
C 23.47267 10.61637 -0.00498
C 23.38152 9.27492 0.00135
C 22.14092 8.4417 0.03102
C 20.98841 0.63039 0.02734
C 22.1113 7.11836 0.02555
C 20.88397 1.97433 0.01153
C 19.73252 4.18932 -0.03213
C 17.2287 2.87978 -0.01154
C 18.47096 2.07811 -0.01721
C 18.43271 0.69956 -0.02422
C 17.18659 0.00864 0.01277
C 19.6399 32.65543 0.00096
C 20.90615 31.91876 -0.01527
C 20.89418 30.55786 0.01087
C 19.69106 29.76796 0.00199
C 19.51184 28.39239 0.01511
C 20.58796 27.55962 -0.00478
C 20.93752 26.22788 -0.01662
C 20.94977 23.34051 -0.01185
C 20.86813 21.97414 0.01126
C 19.63639 21.25216 0.01852
C 19.7314 19.85815 -0.00381
C 20.87257 19.18997 0.03046
C 19.65946 6.90643 0.0296
C 20.9005 6.36279 0.03374
C 20.94265 4.90106 -0.02845
C 19.65146 2.74629 0.02239
C 18.43018 5.02189 -0.01594
C 23.35113 6.36194 0.01423
C 22.11942 4.21735 -0.009
C 25.85178 6.33767 0.00152
C 25.91129 4.97605 0.01257
C 24.63103 4.29734 0.02316
C 24.61391 2.89463 0.04185
C 25.8285 2.15436 0.00194
C 25.89637 0.76063 -0.00621
C 24.65765 0.0254 0.02611
C 27.06552 32.63769 0.02198
C 28.27976 31.89772 0.01094
C 28.32269 30.48838 0.00235
C 27.07815 29.81752 0.01495
C 26.9728 28.40213 0.01259
C 28.2796 27.6905 0.01799
C 28.27975 26.32697 0.01699
C 27.00039 25.61843 -0.00416
C 27.00104 24.18721 0.01177
C 28.20309 23.50238 0.04266
C 28.2149 22.05609 0.01324
C 27.0197 21.37123 0.0014
C 24.65959 7.09014 -0.00294
C 23.37145 4.91713 -0.00285
C 24.60155 8.4703 0.00826
C 24.6138 17.00543 -0.00942
C 22.07749 2.84077 -0.01199
C 23.33646 2.12028 -0.00229
C 23.51855 0.76354 -0.00938
C 22.16272 34.00859 -0.0264
C 24.57672 32.67098 -0.01154
C 25.82499 31.95906 0.00684
C 25.76994 30.56858 -0.01052
C 24.51136 29.83661 -0.01679
C 24.4978 28.40038 0.00367
C 25.71077 27.71847 0.04306
C 25.7542 26.27864 0.00996
C 24.48257 25.49873 0.00195
C 24.48128 24.0633 -0.00802
C 25.69704 23.43288 -0.00218
C 25.75967 22.03387 -0.01654
C 24.54889 21.31848 -0.00037
C 24.53786 19.84563 -0.0032
C 25.81065 19.21842 0.00622
C 25.90746 17.81792 -0.02815
C 24.51471 15.65151 0.00487
C 2.42478 32.61856 0.01465
