352
Graphene
C 0.01929 0.03845 0.01295
C 9.88578 15.57144 -0.00114
C 11.05841 14.9661 0.00228
C 11.05365 13.55004 0.00798
C 9.87141 12.76781 0.00422
C 9.88164 11.4178 0.0351
C 11.11125 10.6654 -0.03113
C 11.00595 9.17872 0.02098
C 9.77918 8.4847 0.01848
C 9.80987 16.93003 -0.02696
C 9.83212 7.05325 -0.00619
C 11.14017 4.98756 0.00889
C 9.87487 4.23031 -0.00481
C 9.89441 2.82309 0.00979
C 11.10761 2.11759 0.01443
C 11.04088 0.79975 0.03505
C 9.83984 34.05661 -0.02815
C 12.30059 32.61652 -0.04147
C 13.46962 31.90617 -0.05302
C 11.13036 6.32454 -0.02162
C 13.46524 30.50717 0.00213
C 11.03127 17.7755 -0.00368
C 9.84921 19.82203 -0.01957
C 8.56244 5.01518 0.02162
C 7.29387 4.33971 0.0076
C 7.40159 2.87891 0.01241
C 8.64114 2.16017 -0.01454
C 8.63113 0.72407 0.01945
C 7.38045 0.04302 0.01416
C 9.82426 32.6659 0.03542
C 11.08005 31.95483 0.02299
C 11.08991 19.19264 -0.0108
C 11.08904 30.6064 0.00244
C 9.82698 28.42955 0.05265
C 11.06084 27.74213 -0.01952
C 11.06831 26.21146 -0.02813
C 9.84236 25.53325 0.00374
C 9.87276 24.14559 0.00052
C 11.13746 23.39472 -0.03682
C 11.05549 21.94068 0.01965
C 9.81783 21.31919 0.02058
C 9.86524 29.79569 -0.01717
C 8.53809 6.38315 -0.0014
C 12.30755 29.78638 -0.00066
C 13.61652 27.68052 0.00028
C 13.51713 0.75537 -0.017
C 12.31289 0.02726 0.00364
C 14.69603 32.75624 -0.00831
C 15.96363 31.98531 -0.02957
C 15.97306 30.4645 -0.04422
C 14.74239 29.7839 0.00654
C 14.81182 28.4662 -0.00703
C 15.98597 27.65988 -0.04076
C 13.47213 2.16593 0.00143
C 15.98421 26.27429 -0.00652
C 14.78622 24.0973 -0.00865
C 16.04093 23.48716 0.00675
C 15.98179 21.9969 -0.00311
C 14.78201 21.27783 0.00742
C 14.78665 19.86331 -0.01594
C 16.03192 19.11143 0.0106
C 15.91379 17.72255 -0.01154
C 14.71974 17.02845 -0.01721
C 14.78156 25.50463 0.0058
C 12.3324 28.34409 -0.00289
C 12.29659 2.88736 0.00667
C 13.51145 4.99233 0.00755
C 13.50416 26.27164 -0.02213
C 12.24075 25.60125 0.03698
C 12.30703 24.19618 -0.00109
C 13.51081 23.42672 -0.00491
C 13.57536 21.96039 0.03338
C 12.30385 21.28317 -0.0258
C 12.30593 19.92107 -0.0331
C 13.54063 19.20089 -0.00316
C 12.31594 4.27528 -0.0054
C 13.50866 17.77765 0.02188
C 12.29411 15.58189 0.02691
C 13.48797 14.85568 -0.01581
C 13.51384 13.5132 0.01452
C 12.38733 12.7865 0.04892
C 12.2421 11.34955 -0.00111
C 12.20024 8.52991 -0.03557
C 12.31087 7.14262 0.03754
C 13.4994 6.35456 0.01739
C 12.23389 17.05528 -0.01979
C 14.75714 15.61155 -0.02422
C 7.41288 7.09936 0.00415
C 8.56657 9.21883 0.01363
C 2.42868 7.0229 -0.00095
C 3.65886 6.36024 0.01572
C 3.66986 4.95694 -0.04848
C 2.38797 4.22435 -0.00892
C 2.49356 2.82588 -0.01362
C 3.73659 2.16216 -0.0008
C 3.66084 0.79066 0.0288
C 2.49153 34.05145 0.00393
C 2.42548 8.51378 0.03007
C 4.88878 32.68516 0.00895
C 6.15311 30.58757 0.02888
C 4.92512 29.76631 -0.00482
C 4.88473 28.42026 -0.01384
C 6.0907 27.69048 0.03693
C 6.10774 26.28164 0.01745
C 4.92511 25.55862 0.00488
C 4.9163 24.20379 -0.01004
C 6.1488 23.40611 -0.02896
C 6.14363 32.00026 0.00685
C 6.16766 22.02842 -0.00131
C 3.69538 9.22405 0.00054
C 2.40231 11.42244 -0.00562
C 3.70883 30.55192 0.0276
C 2.42795 29.80149 0.01305
C 2.41169 28.38873 -0.00077
C 3.62527 27.71453 0.03368
C 3.7187 26.24195 -0.02929
C 2.53002 25.56306 -0.00966
C 2.45049 24.13261 -0.03337
C 3.7585 23.41365 0.01227
C 3.70244 10.65401 -0.00494
C 3.64247 21.98426 0.00873
C 2.44553 19.99692 0.00848
C 3.67804 19.19782 -0.01303
C 3.72143 17.74876 -0.01378
C 2.44621 17.06639 0.02635
C 2.51159 15.60964 0.0127
C 3.67802 14.87223 0.01396
C 3.7398 13.45339 0.01849
C 2.36412 12.75103 -0.01142
C 2.41609 21.41426 -0.00049
C 7.34898 8.56146 -0.02162
C 4.90439 21.32604 -0.01118
C 6.20429 19.22612 0.02147
C 7.372 28.31361 -0.01111
C 8.6509 27.69988 -0.01275
C 8.65045 26.33664 0.00985
C 7.3747 25.61925 -0.02245
C 7.36113 24.15095 -0.00428
C 8.54798 23.36553 0.03101
C 8.59921 21.98357 -0.01536
C 7.41491 21.31833 -0.02689
C 7.38 29.7658 0.02841
C 7.38709 19.90391 -0.01046
C 8.62338 17.77666 0.02819
C 7.35924 17.04471 0.00165
C 7.4518 15.62103 -0.02971
C 8.67839 14.91511 0.02894
C 8.61481 13.52622 -0.01789
C 7.33219 12.6797 0.00444
C 7.3645 11.32055 -0.00925
C 8.57407 10.66136 0.01877
C 8.55682 19.11466 -0.00891
C 4.94287 19.87578 -0.014
C 8.59106 30.56148 0.00943
C 7.34563 32.73095 0.03592
C 6.18013 17.71297 0.00373
C 4.91409 17.0778 -0.00191
C 4.89805 15.66588 0.00438
C 6.2091 14.94247 0.01291
C 6.14075 13.47469 0.00093
C 4.94424 12.7996 0.00057
C 4.9601 11.38479 -0.01634
C 6.13731 10.65476 -0.00334
C 8.54428 32.00954 0.00406
C 6.1957 9.23331 0.02339
C 4.91092 7.1679 -0.00719
C 6.15378 6.45532 0.01364
C 6.15954 5.04816 -0.01062
C 4.88068 4.37466 -0.00033
C 4.90627 2.92165 0.03589
C 6.15807 2.16764 -0.02759
C 6.07299 0.72543 0.0402
C 4.90966 0.05453 0.00572
C 4.96081 8.52605 0.01641
C 16.06926 14.94723 0.01277
C 14.68605 4.27514 0.00096
C 14.71988 2.89328 -0.01527
C 33.21429 31.9538 -0.01694
C 33.11613 30.53164 0.01428
C 31.9169 29.8445 -0.02142
C 31.99503 28.38145 0.0544
C 33.22976 27.67576 0.00026
C 33.14337 26.34387 0.00682
C 31.93682 25.5973 -0.01779
C 32.04164 24.20667 0.03794
C 31.97719 32.5853 0.01713
C 33.20433 23.47306 0.01927
C 31.89581 21.31882 -0.02383
C 31.98547 19.90659 -0.01429
C 33.18551 19.21147 -0.0136
C 33.09592 17.76208 0.00594
C 31.91312 17.0128 -0.02474
C 31.9496 15.55462 0.00369
C 33.20197 14.92817 0.00455
C 33.14759 13.46226 -0.00644
C 33.19755 22.07388 0.01574
C 31.96628 12.73184 -0.01839
C 29.51453 34.06665 0.00346
C 30.74652 2.16362 0.00716
C 30.78992 27.69533 -0.03039
C 30.76091 26.33022 0.01836
C 29.52073 25.51112 0.03531
C 29.50402 24.16932 -0.00669
C 30.69247 23.4166 0.0101
C 30.6975 22.06296 0.01705
C 30.8607 19.15591 -0.0405
C 30.7014 17.74125 -0.01303
C 30.7888 0.67048 0.00307
C 29.50943 17.04901 -0.01461
C 30.74084 14.93234 -0.00944
C 30.75167 13.48806 -0.03735
C 29.44174 12.72323 -0.00971
C 29.52164 11.35758 0.01518
C 30.69733 10.68369 0.01908
C 30.7573 9.27084 0.07705
C 29.55587 8.42189 0.0103
C 29.56124 2.78256 0.02108
C 29.49398 15.69841 -0.02155
C 29.51089 28.44179 -0.01415
C 31.98728 11.32618 0.00137
C 33.16149 9.24651 0.04381
C 1.2753 19.1221 -0.01678
C 1.18228 17.68918 0.01223
C 34.35264 17.06072 0.00648
C 34.40028 15.60174 0.02114
C 1.18913 14.95569 -0.02957
C 1.20767 13.49928 0.00343
C 0.008 12.72808 -0.02656
C 0.04542 11.32339 -0.02442
C 0.00869 19.91734 0.01951
C 1.27877 10.62308 -0.00027
C 34.40449 8.45575 -0.02302
C 0.01926 7.09159 -0.02849
C 1.26144 6.33636 0.02931
C 1.1844 4.93414 0.00628
C 34.42828 4.22001 -0.0345
C 0.00277 2.83562 -0.00931
C 1.22141 2.14419 -0.00939
C 1.27124 0.79538 -0.00468
C 1.20912 9.22513 -0.00583
C 33.23923 10.70292 0.00199
C 34.38471 21.33379 -0.02213
C 1.20831 23.44808 0.00723
C 31.95172 8.50912 0.02806
C 32.05612 7.14854 0.01504
C 33.22094 6.38713 -0.00069
C 33.16142 4.92 0.04926
C 31.97377 4.30493 -0.03838
C 31.97436 2.87847 0.00349
C 33.23509 2.19044 -0.00323
C 33.16755 0.62407 -0.00841
C 1.17432 22.00531 0.02712
C 31.95671 34.02815 0.0001
C 1.2716 31.92991 -0.01404
C 1.14725 30.49307 0.01027
C 34.35293 29.82977 0.01831
C 34.42082 28.34898 -0.01037
C 1.19056 27.68505 -0.00439
C 1.23568 26.21396 -0.00598
C 34.40815 25.64412 -0.05239
C 0.00679 24.22578 0.03076
C 0.02069 32.66944 -0.02927
C 29.49868 29.79953 -0.01854
C 30.69236 30.49456 -0.02049
C 30.67663 31.92503 0.03265
C 18.41695 0.75259 -0.01586
C 17.25964 34.01439 -0.01971
C 19.64439 32.67226 -0.02118
C 20.86145 31.99438 0.00733
C 20.89893 30.57533 -0.00178
C 19.6696 29.89408 0.00768
C 19.62426 28.42875 -0.0276
C 20.85366 27.69728 0.03005
C 18.43029 2.24602 -0.01107
C 20.91174 26.27955 -0.04078
C 19.70281 24.13255 0.02737
C 20.94557 23.45574 -0.00498
C 19.63194 21.21245 0.00135
C 19.62083 19.98138 0.03102
C 20.78177 17.80494 0.02555
C 19.75088 17.03976 0.01423
C 19.66395 2.74279 -0.00285
C 20.85828 2.15523 -0.009
C 19.68898 25.57461 0.02117
C 20.9284 0.70683 -0.01199
C 17.10952 2.75656 0.00071
C 17.18147 17.02083 0.01515
C 15.98376 2.12573 0.01087
C 15.98251 0.62968 0.00199
C 14.7215 0.03976 0.01511
C 17.24796 32.61523 -0.00478
C 18.45972 31.93024 -0.01662
C 18.4585 30.55392 -0.01185
C 17.18899 29.78162 0.01126
C 17.24428 28.31946 0.01852
C 17.07102 15.56739 -0.00225
C 18.41696 27.66608 -0.00381
C 17.24065 25.55691 0.0296
C 17.29275 24.12837 0.03374
C 18.45165 23.46798 -0.02845
C 18.36719 22.02139 -0.03213
C 17.1333 21.25434 0.02239
C 17.20441 19.82421 0.01153
C 18.42993 19.16997 0.02734
C 18.49243 17.68443 -0.0055
C 18.46936 26.2601 0.03046
C 19.58999 0.00935 -0.00229
C 22.05571 32.61197 -0.00938
C 23.38861 31.94472 -0.0264
C 25.84626 0.66291 0.00194
C 24.64203 34.02454 -0.00621
C 27.12591 32.60323 0.02611
C 28.33386 31.92126 0.02198
C 28.26406 30.52982 0.01094
C 27.06985 29.7457 0.00235
C 27.05507 28.37845 0.01495
C 28.27189 27.72554 0.01259
C 25.87493 2.07534 0.04185
C 28.35824 26.23211 0.01799
C 28.28271 14.73165 -0.00416
C 28.26992 13.58754 0.01177
C 27.03259 4.27745 0.04266
C 27.0858 2.80941 0.01324
C 28.35801 2.15157 0.0014
C 28.2735 0.6951 0.00924
C 27.05965 0.00448 0.02326
C 29.55395 32.64061 0.00261
C 27.14529 25.60671 0.01699
C 24.64306 2.9053 0.02316
C 24.67808 4.3347 0.01257
C 25.89174 4.75029 0.00152
C 23.35404 30.53942 -0.01154
C 22.16679 29.84318 0.00684
C 22.10371 28.46918 -0.01052
C 23.32533 27.70417 -0.01679
C 23.38003 26.28999 0.00367
C 22.09844 25.58887 0.04306
C 22.04692 24.11117 0.00996
C 22.18185 2.85951 0.00195
C 23.33926 2.22502 -0.00802
C 23.38096 0.67955 -0.00218
C 22.18259 0.05723 -0.01654
C 24.66283 32.65604 -0.00037
C 25.89141 31.90685 -0.0032
C 25.78036 30.48487 0.00622
C 24.6051 29.82906 -0.02815
C 24.59474 28.35673 -0.00942
C 25.94104 27.72081 0.00487
C 25.79308 26.25489 0.00826
C 24.5697 25.58153 -0.00294
C 3.69079 31.95224 0.00988
C 2.38566 32.68534 -0.01343
