395
Graphene
C 0.00618 0.03278 0.01295
C 14.80318 12.78015 0.00444
C 14.72374 11.42863 -0.00925
C 15.97049 10.68317 0.01877
C 16.03759 9.21171 0.01363
C 14.81068 8.60165 -0.02162
C 14.81065 7.15976 0.00415
C 15.91041 6.34781 -0.0014
C 15.91436 4.92973 0.02162
C 14.71416 4.17582 0.0076
C 15.96024 13.46282 -0.01789
C 14.80272 2.81822 0.01241
C 16.01364 0.68933 0.01945
C 14.79375 0.01209 0.01416
C 17.25698 32.6481 0.03542
C 18.43097 32.0374 0.02299
C 18.46483 30.49265 0.00244
C 17.21271 29.74507 -0.01717
C 17.18842 28.35069 0.05265
C 18.51036 27.59336 -0.01952
C 18.41394 26.22613 -0.02813
C 15.95881 2.15424 -0.01454
C 15.97371 14.89868 0.02894
C 14.7402 15.67357 -0.02971
C 14.69117 17.12034 0.00165
C 13.54005 6.43534 -0.01062
C 13.55973 4.9965 -0.00033
C 12.31808 4.28901 0.03589
C 12.3105 2.85809 -0.02759
C 13.51823 2.13813 0.0402
C 13.5461 0.733 0.00572
C 12.32948 0.0311 0.03592
C 14.77349 32.76589 0.00406
C 15.96118 31.99927 0.00943
C 15.96862 30.57963 0.02841
C 14.78562 29.77697 -0.01111
C 14.79913 28.3643 -0.01275
C 16.00068 27.69381 0.00985
C 16.08132 26.2797 -0.02245
C 14.66271 25.48467 -0.00428
C 14.78013 24.18853 0.03101
C 15.93413 23.35007 -0.01536
C 15.91604 21.91192 -0.02689
C 14.86447 19.88216 -0.01046
C 16.06327 19.18896 -0.00891
C 16.01002 17.78027 0.02819
C 17.20353 25.57304 0.00374
C 17.18065 24.21664 0.00052
C 18.38174 23.45029 -0.03682
C 18.44923 21.9457 0.01965
C 19.70028 28.32444 -0.00289
C 20.94046 27.74936 0.00028
C 20.91079 26.26126 -0.02213
C 19.64126 25.55797 0.03698
C 19.66711 24.1863 -0.00109
C 20.91863 23.44518 -0.00491
C 20.97543 22.05736 0.03338
C 19.68562 21.25598 -0.0258
C 19.69204 19.87542 -0.0331
C 20.93333 19.13296 -0.00316
C 20.93952 17.69611 0.02188
C 19.61961 17.04645 -0.01979
C 19.65931 15.578 0.02691
C 20.91735 14.85433 -0.01581
C 20.93452 13.43504 0.01452
C 19.63787 12.82548 0.04892
C 19.57989 11.35034 -0.00111
C 20.83049 10.67751 -0.03557
C 20.81797 9.26982 0.03754
C 19.64379 8.56333 0.01739
C 19.64766 7.11828 0.00755
C 19.72144 29.76324 -0.00066
C 12.30657 7.10292 0.01364
C 20.93597 30.54932 0.00213
C 19.69439 32.71106 -0.04147
C 17.22833 21.33639 0.02058
C 17.29772 19.88931 -0.01957
C 18.44641 19.11406 -0.0108
C 18.40795 17.70595 -0.00368
C 17.1944 17.04274 -0.02696
C 17.24931 15.62612 -0.00114
C 18.42399 14.907 0.00228
C 18.38137 13.51313 0.00798
C 17.17715 12.78564 0.00422
C 17.17225 11.37173 0.0351
C 18.38144 10.65341 -0.03113
C 18.44776 9.24201 0.02098
C 17.27427 8.49189 0.01848
C 17.17527 7.05066 -0.00619
C 18.41816 6.31288 -0.02162
C 18.39614 4.92219 0.00889
C 17.20069 4.22082 -0.00481
C 17.18146 2.81234 0.00979
C 18.45954 2.10311 0.01443
C 18.49707 0.74865 0.03505
C 17.20312 0.0513 -0.02815
C 20.94047 31.91144 -0.05302
C 20.83491 6.39818 -0.0054
C 12.26408 8.55167 -0.00719
C 13.50669 10.72754 0.02339
C 4.96123 29.74942 -0.00279
C 4.79803 28.39397 0.01996
C 4.9569 15.57988 -0.03996
C 5.99501 14.95739 0.01465
C 6.16306 13.53897 -0.00074
C 4.9174 12.84485 -0.00518
C 4.94295 11.33405 0.0086
C 6.18255 10.69221 -0.00643
C 6.14196 9.25781 0.017
C 6.16298 30.54155 0.01226
C 4.83266 8.61867 -0.03113
C 6.14565 6.41188 -0.00094
C 6.12731 4.97238 0.02322
C 4.87419 4.27244 -0.00725
C 4.89935 2.85996 -0.05697
C 6.18889 2.07625 0.01087
C 6.19834 0.72803 -0.01343
C 4.90896 3e-05 0.00988
C 7.4489 32.63973 0.0276
C 8.61698 31.93923 0.01305
C 4.8445 7.10632 -0.02566
C 6.13817 32.06571 0.03828
C 4.88543 32.67788 0.0174
C 2.5038 34.04063 0.0073
C 3.66781 30.53728 -0.01977
C 2.50579 29.77731 -0.00561
C 2.44272 28.29708 0.00208
C 3.82278 27.72317 0.01707
C 2.31039 25.49699 0.02769
C 2.44582 17.11729 -0.03291
C 2.3962 15.69562 -0.04999
C 3.64867 14.95084 0.04505
C 3.7276 13.52947 0.03284
C 2.46112 12.70176 -0.04307
C 2.51242 11.37027 0.03189
C 3.74063 10.71107 0.00031
C 3.66428 9.28713 -0.003
C 2.43282 8.52078 0.01402
C 2.37794 7.02764 0.02379
C 3.64353 6.35652 0.00907
C 3.71658 4.97026 0.00643
C 2.4672 4.23745 -0.01509
C 2.47376 2.88952 0.03267
C 3.69312 2.19768 0.02374
C 3.64213 0.74156 0.00402
C 8.66308 30.48355 -0.00077
C 7.43492 29.84996 0.03368
C 8.70238 14.95015 -0.02929
C 8.51881 13.38222 -0.00966
C 9.82154 7.09091 0.00685
C 11.01002 6.40074 0.02888
C 10.99939 4.90063 -0.00482
C 9.83582 4.25148 -0.01384
C 9.83561 2.86688 0.03693
C 11.05126 2.15045 0.01745
C 11.07137 0.66024 0.00488
C 9.83935 34.07406 -0.01004
C 12.29733 32.70262 -0.02896
C 13.55443 31.99395 -0.00131
C 13.51604 30.53098 -0.01118
C 12.29361 29.82294 -0.014
C 12.35729 28.48828 0.02147
C 13.48626 27.70684 0.00373
C 13.50249 26.36042 -0.00191
C 13.55646 17.75709 0.00438
C 12.31693 15.68341 0.01291
C 13.49215 14.99071 0.00093
C 13.57913 13.56477 0.00057
C 12.2792 12.9043 -0.01634
C 12.27196 11.46293 -0.00334
C 9.87064 8.56092 0.00895
C 13.48133 9.26043 0.01641
C 11.09272 9.30173 0.00393
C 9.85912 11.3636 -0.0008
C 7.36918 12.7561 -0.03337
C 7.35459 11.4119 0.01227
C 8.56478 10.70581 0.00873
C 8.62072 9.27109 -0.00049
C 7.31803 8.54451 0.00848
C 7.31025 7.14741 -0.01303
C 8.60738 6.35439 -0.01378
C 8.61261 4.96843 0.02635
C 7.32241 4.3138 0.0127
C 7.35564 2.89274 0.01396
C 8.64845 2.19537 0.01849
C 8.59704 0.70034 -0.01142
C 7.40681 0.0273 -0.00562
C 9.78248 32.66602 -0.00494
C 11.05905 31.96122 0.00054
C 11.01274 30.55997 0.03007
C 9.77016 29.82475 -0.00095
C 9.6815 15.58012 0.01572
C 11.02637 14.95083 -0.04848
C 11.02378 13.55437 -0.00892
C 9.78937 12.78822 -0.01362
C 11.09199 10.7407 0.0288
C 3.68702 31.90789 0.02784
C 20.88179 4.95699 0.00667
C 19.67922 2.86985 -0.017
C 30.7782 6.40251 0.01908
C 30.75329 5.02687 0.07705
C 29.51174 4.2654 0.0103
C 29.49861 2.82857 0.02108
C 30.73091 2.1657 0.00716
C 30.68798 0.77171 0.00307
C 29.53367 0.00695 0.00346
C 32.00081 32.5988 0.01713
C 33.24224 31.90414 -0.01694
C 29.50863 7.14395 0.01518
C 33.1973 30.52993 0.01428
C 32.00559 28.38698 0.0544
C 33.21588 27.67875 0.00026
C 33.20422 26.25585 0.00682
C 31.95226 25.60667 -0.01779
C 32.0441 24.18326 0.03794
C 33.21195 23.34886 0.01927
C 33.26846 21.97404 0.01574
C 31.99474 21.31106 -0.02383
C 31.96615 19.9352 -0.01429
C 31.975 29.78666 -0.02142
C 29.4696 8.5385 -0.00971
C 30.76036 9.14592 -0.03735
C 30.68672 10.59943 -0.00944
C 29.51652 32.68885 0.01177
C 30.67893 31.93281 0.04266
C 30.70259 30.52254 0.01324
C 29.47998 29.81493 0.0014
C 29.53878 28.32743 0.00924
C 30.7795 27.68233 0.02326
C 30.75516 26.28234 0.00261
C 29.59501 25.51445 0.03265
C 29.51899 24.05369 -0.02049
C 30.79182 23.42903 -0.01854
C 30.82477 21.9939 -0.01415
C 29.49272 21.26945 -0.03039
C 29.51032 19.856 0.01836
C 30.75984 19.18324 0.03531
C 30.72395 17.76902 -0.00669
C 29.52402 17.11043 0.0101
C 29.50752 15.64716 0.01705
C 30.77035 14.97355 -0.0405
C 30.7071 13.54777 -0.01303
C 29.50993 12.79406 -0.01461
C 29.49597 11.34718 -0.02155
C 33.21044 19.20041 -0.0136
C 33.26374 17.73976 0.00594
C 31.95636 16.99663 -0.02474
C 31.99801 15.66718 0.00369
C 1.21548 22.17817 0.02712
C 0.08394 21.33623 -0.02213
C 0.00053 19.81695 0.01951
C 1.14566 19.13301 -0.01678
C 1.27833 17.77689 0.01223
C 0.0445 17.02858 0.00648
C 34.37808 15.58286 0.02114
C 1.15466 14.91297 -0.02957
C 1.20646 13.4137 0.00343
C 34.39873 12.76484 -0.02656
C 34.39334 11.29077 -0.02442
C 1.22032 10.71205 -0.00027
C 1.21015 9.31384 -0.00583
C 34.42826 8.52974 -0.02302
C 34.41469 7.08648 -0.02849
C 1.15581 6.35288 0.02931
C 1.14978 4.95942 0.00628
C 34.39889 4.25277 -0.0345
C 0.03218 2.75932 -0.00931
C 1.25412 2.11454 -0.00939
C 1.20895 0.74442 -0.00468
C 1.22325 23.40599 0.00723
C 27.03921 0.04279 -0.00416
C 34.42062 24.14622 0.03076
C 1.20601 26.22835 -0.00598
C 33.18461 14.92596 0.00455
C 33.2023 13.48633 -0.00644
C 31.98693 12.77132 -0.01839
C 31.92232 11.32982 0.00137
C 33.15779 10.63552 0.00199
C 33.19041 9.24079 0.04381
C 31.95596 8.59393 0.02806
C 32.00906 7.06078 0.01504
C 33.18893 6.35354 -0.00069
C 33.1507 4.95447 0.04926
C 31.95408 4.30473 -0.03838
C 32.00369 2.83004 0.00349
C 33.13699 2.05833 -0.00323
C 33.16629 0.68647 -0.00841
C 31.95781 34.05059 0.0001
C 34.43283 32.63008 -0.02927
C 1.19644 31.9334 -0.01404
C 1.26537 30.48508 0.01027
C 0.03878 29.8312 0.01831
C 0.03998 28.39839 -0.01037
C 1.20283 27.70115 -0.00439
C 34.40636 25.4966 -0.05239
C 19.63557 4.25508 0.00143
C 28.26943 0.70016 0.01699
C 27.07249 2.84282 0.01259
C 23.39147 9.17978 -0.01662
C 22.10979 8.56102 -0.01185
C 22.01694 7.11156 0.01126
C 23.2824 6.33448 0.01852
C 23.32514 4.89219 -0.00381
C 22.08793 4.25803 0.03046
C 22.18591 2.82718 0.0296
C 23.42096 2.12436 0.03374
C 23.26422 0.7265 -0.02845
C 23.2794 10.57276 -0.00478
C 22.12827 34.07905 -0.03213
C 25.84069 31.89291 0.01153
C 25.88411 30.46319 0.02734
C 24.64194 29.75493 -0.0055
C 24.62794 28.35355 0.01515
C 25.82 27.68424 -0.00225
C 25.87178 26.18501 0.00071
C 24.55967 25.52864 -0.01107
C 24.56514 24.14138 -0.01586
C 25.87434 23.37601 -0.01971
C 24.7008 32.62426 0.02239
C 22.08318 11.29393 0.01511
C 22.13886 12.73739 0.00199
C 23.38174 13.50362 0.01087
C 20.93341 2.10349 0.00364
C 20.94598 0.74203 -0.00831
C 19.67556 0.01737 -0.02957
C 22.16302 32.65755 -0.04422
C 23.44685 31.94567 0.00654
C 23.46781 30.57585 -0.00703
C 22.18388 29.88887 -0.04076
C 22.18131 28.444 -0.00652
C 23.42075 27.61815 0.0058
C 23.36958 26.26007 -0.00865
C 22.1419 25.58024 0.00675
C 22.11269 24.1972 -0.00311
C 23.31716 23.43475 0.00742
C 23.32734 22.05145 -0.01594
C 22.10004 21.34091 0.0106
C 22.11864 19.87346 -0.01154
C 23.38434 19.21368 -0.01721
C 23.3322 17.82931 -0.02422
C 22.12043 17.00834 0.01277
C 22.17971 15.65231 0.00096
C 23.3908 14.89065 -0.01527
C 25.83265 21.98499 -0.02118
C 24.53747 21.23743 0.00733
C 24.5947 19.91562 -0.00178
C 25.7981 19.1498 0.00768
C 27.22706 25.6283 -0.00218
C 27.05045 24.2003 -0.01654
C 28.26502 23.39613 -0.00037
C 28.27171 21.9617 -0.0032
C 26.97648 21.28032 0.00622
C 26.94455 19.89724 -0.02815
C 28.20426 19.16271 -0.00942
C 28.23912 17.74811 0.00487
C 27.05613 17.00238 0.00826
C 26.98186 15.59146 -0.00294
C 28.25736 14.92657 0.00152
C 28.21745 13.49201 0.01257
C 27.02325 12.76232 0.02316
C 27.00663 11.3763 0.04185
C 28.27484 10.66994 0.00194
C 28.26047 9.22548 -0.00621
C 27.02339 8.50024 0.02611
C 27.08413 6.99905 0.02198
C 28.32284 6.36961 0.01094
C 28.26579 4.93415 0.00235
C 27.05991 4.25443 0.01495
C 28.44231 26.32157 -0.00802
C 28.28606 2.13811 0.01799
C 28.25424 27.66014 0.00195
C 27.04567 29.77577 0.04306
C 25.795 17.75436 -0.0276
C 24.51956 17.08165 0.03005
C 24.59719 15.62966 -0.04078
C 25.83336 14.93448 0.02117
C 25.85883 13.52169 0.02737
C 24.59248 12.78743 -0.00498
C 24.55011 11.30042 0.00135
C 25.79318 10.68006 0.03102
C 25.82795 9.2393 0.02555
C 24.55867 8.4585 0.01423
C 24.52599 7.05052 -0.00285
C 25.82038 6.33194 -0.009
C 25.77901 4.95865 -0.01199
C 24.62422 4.22761 -0.00229
C 24.59513 2.82195 -0.00938
C 25.8563 2.20654 -0.0264
C 25.84428 0.77899 -0.01154
C 24.56552 0.03245 0.00684
C 27.08236 32.63199 -0.01052
C 28.26654 31.98674 -0.01679
C 28.30819 30.57208 0.00367
C 27.06904 28.36327 0.00996
C 2.43182 32.62265 -0.01979
