351
Graphene
C 0.02934 0.01551 0.01295
C 13.51493 10.67694 0.00228
C 13.54123 9.20362 0.00798
C 12.31391 8.53106 0.00422
C 12.31486 7.1644 0.0351
C 13.50981 6.41599 -0.03113
C 13.50648 4.98055 0.02098
C 12.33551 4.28391 0.01848
C 12.29576 2.79601 -0.00619
C 12.33358 11.46652 -0.00114
C 13.5308 2.09587 -0.02162
C 12.40559 0.06299 -0.00481
C 14.87206 32.70455 0.00979
C 15.85012 31.79936 0.01443
C 16.1188 30.52528 0.03505
C 16.10261 27.52526 -0.02815
C 15.74201 26.30778 -0.04147
C 14.92277 24.19601 -0.05302
C 15.81975 13.39437 0.00213
C 13.63634 0.70354 0.00889
C 14.66827 12.66534 -0.00066
C 12.20286 12.75928 -0.02696
C 13.51417 14.82772 -0.0108
C 11.02541 13.50696 0.0076
C 9.84905 12.80465 0.01241
C 9.82926 11.37376 -0.01454
C 11.05102 10.66852 0.01945
C 11.06047 9.23414 0.01416
C 9.79784 8.56259 0.03542
C 9.8709 7.15015 0.02299
C 11.07035 6.48285 0.00244
C 13.38971 13.38605 -0.00368
C 11.05346 4.9656 -0.01717
C 9.81373 2.8591 -0.01952
C 11.01304 2.02127 -0.02813
C 11.17643 0.49546 0.00374
C 9.89656 34.0607 0.00052
C 12.21629 21.14923 -0.03682
C 12.38873 19.91019 0.01965
C 12.09533 17.01308 0.02058
C 12.40426 15.6181 -0.01957
C 9.8089 4.32791 0.05265
C 11.06379 14.9844 0.02162
C 14.758 11.28062 -0.00289
C 15.927 9.23192 -0.02213
C 18.41544 6.45638 0.00364
C 18.39906 5.02442 -0.00831
C 17.21995 4.31566 -0.02957
C 17.22709 2.90709 -0.04422
C 18.41641 2.1662 0.00654
C 18.45921 0.66526 -0.00703
C 17.21169 34.02175 -0.04076
C 19.65692 32.60254 -0.00652
C 17.20001 7.1483 -0.017
C 20.89908 31.89175 0.0058
C 19.67914 29.80595 0.00675
C 19.6876 28.21309 -0.00311
C 20.9392 27.70812 0.00742
C 20.86631 13.43803 -0.01594
C 19.58285 12.87984 0.0106
C 19.57733 11.39423 -0.01154
C 20.83051 10.61843 -0.01721
C 20.90163 9.22788 -0.02422
C 20.89669 30.50609 -0.00865
C 16.02123 10.658 0.00028
C 17.23633 8.52577 0.00143
C 18.42546 10.68511 -0.0054
C 14.75828 8.64934 0.03698
C 14.73799 7.19866 -0.00109
C 15.90931 6.52045 -0.00491
C 15.94178 5.08908 0.03338
C 14.728 4.29809 -0.0258
C 14.725 2.81816 -0.0331
C 15.99818 2.19761 -0.00316
C 16.03044 0.74097 0.02188
C 18.39441 9.25847 0.00667
C 14.90745 34.01337 -0.01979
C 18.39384 31.93335 -0.01581
C 18.4983 30.51599 0.01452
C 17.29226 29.79996 0.04892
C 17.17773 28.32403 -0.00111
C 18.46897 27.8597 -0.03557
C 18.36089 13.39089 0.03754
C 17.11236 12.93913 0.01739
C 17.16936 11.42624 0.00755
C 17.20952 32.62059 0.02691
C 19.67013 8.56329 0.01277
C 9.73127 15.69663 -0.0014
C 11.01511 17.81038 -0.02162
C 2.49716 7.08099 0.01572
C 3.73993 6.33373 -0.04848
C 3.67818 4.92826 -0.00892
C 2.48033 4.22911 -0.01362
C 2.4774 2.85107 -0.0008
C 3.71186 2.15362 0.0288
C 3.76574 0.73722 0.00393
C 2.48331 0.05187 0.00895
C 2.45287 8.44383 -0.00095
C 4.93746 32.71358 0.00685
C 4.97271 25.5431 -0.00482
C 5.1137 24.27935 -0.01384
C 6.16101 23.35232 0.03693
C 6.0753 21.98834 0.01745
C 4.85001 21.32856 0.00488
C 4.86235 19.89728 -0.01004
C 6.11455 19.16676 -0.02896
C 6.0801 17.8232 -0.00131
C 6.1194 32.15629 0.02888
C 4.8469 17.04693 -0.01118
C 3.62558 9.23195 0.03007
C 2.46436 11.32716 -0.00494
C 3.59808 30.43726 0.01305
C 2.38989 29.82081 -0.00077
C 2.35795 28.41628 0.03368
C 3.581 27.68222 -0.02929
C 3.8328 26.40268 -0.00966
C 2.49857 25.54415 -0.03337
C 2.52494 24.14275 0.01227
C 3.65451 23.46028 0.00873
C 3.62403 10.68978 0.00054
C 3.64992 22.02491 -0.00049
C 2.40145 19.89347 -0.01303
C 3.62187 19.23923 -0.01378
C 3.61337 17.80164 0.02635
C 2.44215 17.01435 0.0127
C 2.41894 15.58549 0.01396
C 3.70797 14.85025 0.01849
C 3.65779 13.41865 -0.01142
C 2.45138 12.83845 -0.00562
C 2.33484 21.32943 0.00848
C 9.76539 17.06046 0.00415
C 4.90224 15.60047 -0.014
C 6.13187 13.51324 0.00373
C 8.59319 13.5849 -0.01275
C 7.33994 12.79185 0.00985
C 7.39383 11.36007 -0.02245
C 8.61969 10.67628 -0.00428
C 8.61253 9.28069 0.03101
C 7.40469 8.56458 -0.01536
C 7.42372 7.09637 -0.02689
C 8.62293 6.38489 -0.01046
C 8.54866 14.92969 -0.01111
C 8.61406 4.97779 -0.00891
C 7.4011 2.87486 0.00165
C 8.64564 2.15361 -0.02971
C 8.72522 0.74011 0.02894
C 7.49885 0.13645 -0.01789
C 11.08102 21.90403 0.00444
C 9.82106 21.48048 -0.00925
C 9.83783 19.91337 0.01877
C 11.17372 19.22498 0.01363
C 7.42883 4.36929 0.02819
C 6.16866 14.95931 0.02147
C 7.39547 15.66478 0.02841
C 8.56496 17.79398 0.00406
C 4.93259 12.79953 -0.00191
C 4.95373 11.32172 0.00438
C 6.16619 10.65602 0.01291
C 6.12594 9.23372 0.00093
C 4.88865 8.53973 0.00057
C 4.90847 7.08363 -0.01634
C 6.12976 6.37046 -0.00334
C 6.13562 5.00543 0.02339
C 7.37959 17.05644 0.00943
C 4.88628 4.28578 0.01641
C 6.18467 2.13823 0.01364
C 6.26231 0.76731 -0.01062
C 4.94248 0.04642 -0.00033
C 7.17917 32.91987 0.03589
C 8.53949 22.02258 -0.02759
C 7.28585 21.36068 0.0402
C 7.36305 19.95454 0.00572
C 8.52607 19.23161 0.03592
C 4.97622 2.89331 -0.00719
C 3.76747 31.90215 0.0276
C 19.65499 7.1308 0.00096
C 20.82249 4.96082 0.01087
C 33.25927 31.93997 -0.01694
C 33.16205 30.52582 0.01428
C 31.9106 29.78457 -0.02142
C 31.90797 28.43223 0.0544
C 33.11127 27.74458 0.00026
C 33.19171 26.28628 0.00682
C 31.95239 25.61171 -0.01779
C 31.88459 24.20554 0.03794
C 31.98175 32.61507 0.01713
C 33.1824 23.5455 0.01927
C 31.92977 21.38452 -0.02383
C 31.93363 19.92966 -0.01429
C 33.16405 19.1904 -0.0136
C 33.08989 17.79074 0.00594
C 31.87764 17.02517 -0.02474
C 31.89653 15.61454 0.00369
C 33.13132 14.84821 0.00455
C 33.18725 13.44893 -0.00644
C 33.1046 22.0972 0.01574
C 31.95497 12.7534 -0.01839
C 29.59788 34.06672 0.00346
C 30.85933 2.0468 0.00716
C 29.47767 21.35875 -0.03039
C 29.61488 19.93592 0.01836
C 30.76085 19.20479 0.03531
C 30.68799 17.76023 -0.00669
C 29.48101 17.10072 0.0101
C 29.52851 15.59233 0.01705
C 30.6498 14.85641 -0.0405
C 30.72991 13.45974 -0.01303
C 30.78283 0.68502 0.00307
C 29.48839 12.77763 -0.01461
C 30.7411 10.63823 -0.00944
C 30.72167 9.2537 -0.03735
C 29.53645 8.45411 -0.00971
C 29.52716 7.06559 0.01518
C 30.79454 6.42488 0.01908
C 30.71695 4.9859 0.07705
C 29.58053 4.23278 0.0103
C 29.60829 2.80329 0.02108
C 29.50305 11.36559 -0.02155
C 30.67148 22.08101 -0.01415
C 32.01201 11.33305 0.00137
C 33.25071 9.23595 0.04381
C 1.15914 19.21138 -0.01678
C 1.19386 17.76491 0.01223
C 34.31795 17.07437 0.00648
C 34.37109 15.68457 0.02114
C 1.20562 14.93355 -0.02957
C 1.15652 13.54358 0.00343
C 34.38363 12.79452 -0.02656
C 0.05241 11.33627 -0.02442
C 34.40332 19.87695 0.01951
C 1.23561 10.5805 -0.00027
C 34.40796 8.51416 -0.02302
C 0.01268 7.0418 -0.02849
C 1.21993 6.33224 0.02931
C 1.23723 4.917 0.00628
C 34.39585 4.25679 -0.0345
C 0.00599 2.84259 -0.00931
C 1.27577 2.14889 -0.00939
C 1.23883 0.6885 -0.00468
C 1.19595 9.12948 -0.00583
C 33.27143 10.5928 0.00199
C 34.35053 21.33946 -0.02213
C 1.19518 23.52702 0.00723
C 32.0022 8.55555 0.02806
C 31.99962 7.09948 0.01504
C 33.23641 6.35305 -0.00069
C 33.19752 4.99934 0.04926
C 31.96298 4.26319 -0.03838
C 32.01386 2.87763 0.00349
C 33.18969 2.0825 -0.00323
C 33.23583 0.75951 -0.00841
C 1.11156 22.1454 0.02712
C 32.01565 34.01063 0.0001
C 1.22067 31.92143 -0.01404
C 1.18567 30.51277 0.01027
C 34.34724 29.77701 0.01831
C 34.37448 28.40955 -0.01037
C 1.1884 27.64404 -0.00439
C 1.25546 26.30372 -0.00598
C 34.40181 25.60008 -0.05239
C 34.42109 24.21512 0.03076
C 0.0668 32.68363 -0.02927
C 20.8249 6.44518 -0.01527
C 30.71083 23.54402 -0.01854
C 29.49962 25.57877 0.03265
C 23.32042 2.15279 -0.01971
C 23.34568 0.79377 -0.02118
C 22.18927 0.00948 0.00733
C 24.56572 32.70937 -0.00178
C 25.73795 31.99844 0.00768
C 25.77503 30.54745 -0.0276
C 24.58196 29.81732 0.03005
C 24.67701 28.44391 -0.04078
C 22.07065 2.80007 -0.01586
C 25.86925 27.76747 0.02117
C 25.79627 14.79829 -0.00498
C 25.86309 13.46427 0.00135
C 24.63068 12.71386 0.03102
C 24.50967 11.27918 0.02555
C 25.80942 10.55072 0.01423
C 25.83548 9.20545 -0.00285
C 24.57248 8.49292 -0.009
C 24.60538 7.01092 -0.01199
C 25.82836 26.38083 0.02737
C 25.79389 6.34425 -0.00229
C 22.059 4.29626 -0.01107
C 23.31691 6.30873 -0.00225
C 19.58855 4.24285 0.00199
C 19.61896 2.82874 0.01511
C 20.89321 2.05293 -0.00478
C 20.95224 0.66383 -0.01662
C 19.71968 34.00436 -0.01185
C 22.12564 32.62055 0.01126
C 23.33914 31.96115 0.01852
C 23.3245 30.52665 -0.00381
C 23.28124 4.92602 0.00071
C 22.15002 29.70514 0.03046
C 23.48732 27.71554 0.03374
C 23.4069 13.47352 -0.02845
C 22.14451 12.97742 -0.03213
C 22.06855 11.31928 0.02239
C 23.28274 10.61009 0.01153
C 23.30656 9.20968 0.02734
C 22.1361 8.46826 -0.0055
C 22.05472 7.07625 0.01515
C 22.17279 28.15166 0.0296
C 29.49177 24.15933 -0.02049
C 25.85029 4.97724 -0.00938
C 24.57198 2.84885 -0.01154
C 28.3083 10.61752 0.00194
C 28.3087 9.19453 -0.00621
C 27.06434 8.48622 0.02611
C 27.07271 6.99861 0.02198
C 28.32717 6.24968 0.01094
C 28.29502 4.88489 0.00235
C 27.05664 4.20286 0.01495
C 27.12475 2.77121 0.01259
C 27.05465 11.38675 0.04185
C 28.28421 2.09604 0.01799
C 27.10816 0.06249 -0.00416
C 29.51981 32.66655 0.01177
C 30.74652 31.90913 0.04266
C 30.65843 30.53825 0.01324
C 29.43097 29.81999 0.0014
C 29.50365 28.42759 0.00924
C 30.68698 27.69267 0.02326
C 30.65679 26.31445 0.00261
C 28.29557 0.66127 0.01699
C 24.47093 4.18702 -0.0264
C 27.06874 12.71938 0.02316
C 28.20989 15.02688 0.00152
C 25.84602 2.15715 0.00684
C 25.82132 0.73388 -0.01052
C 24.61498 0.05419 -0.01679
C 27.03152 32.69625 0.00367
C 28.27428 31.95663 0.04306
C 28.26726 30.54424 0.00996
C 27.039 29.89001 0.00195
C 27.05952 28.44083 -0.00802
C 28.30205 13.49256 0.01257
C 28.28065 27.7356 -0.00218
C 26.91733 25.52538 -0.00037
C 27.25388 24.25198 -0.0032
C 28.05632 23.23733 0.00622
C 28.23538 21.83446 -0.02815
C 28.41546 19.32571 -0.00942
C 28.32976 17.99924 0.00487
C 27.26438 16.98477 0.00826
C 26.92571 15.66046 -0.00294
C 28.2266 26.29172 -0.01654
C 2.53749 32.62843 0.00988
