385
Graphene
C 0.01509 0.02832 0.01295
C 9.89302 4.24306 0.02162
C 9.79848 2.87477 0.0076
C 11.05837 2.15329 0.01241
C 11.0916 0.67142 -0.01454
C 9.86923 0.04455 0.01945
C 12.30315 32.69833 0.01416
C 13.47684 31.92376 0.03542
C 13.52595 30.51358 0.02299
C 12.28494 29.72956 0.00244
C 11.07039 4.96315 -0.0014
C 12.34943 28.41876 -0.01717
C 13.54491 26.21726 -0.01952
C 12.31558 25.53797 -0.02813
C 12.3337 24.10993 0.00374
C 13.48679 23.48772 0.00052
C 13.56391 21.9934 -0.03682
C 12.3056 21.24627 0.01965
C 12.26169 19.83488 0.02058
C 13.55577 19.10927 -0.01957
C 13.48351 17.7366 -0.0108
C 13.51948 27.70111 0.05265
C 12.31336 16.99964 -0.00368
C 11.0219 6.43115 0.00415
C 9.78967 8.5672 0.01363
C 9.84877 29.84531 0.00943
C 9.84717 28.42421 0.02841
C 11.07748 27.70852 -0.01111
C 11.08648 26.30651 -0.01275
C 9.83287 25.58101 0.00985
C 9.84105 24.14498 -0.02245
C 11.07448 23.4621 -0.00428
C 11.07427 22.07667 0.03101
C 9.80421 21.29599 -0.01536
C 9.82503 7.1457 -0.02162
C 9.84851 19.82701 -0.02689
C 11.11591 17.73879 -0.00891
C 9.87834 17.05963 0.02819
C 9.90895 15.62244 0.00165
C 11.05247 14.87605 -0.02971
C 11.05467 13.51274 0.02894
C 9.84409 12.76354 -0.01789
C 9.78137 11.34998 0.00444
C 11.07214 10.64305 -0.00925
C 11.13492 9.23414 0.01877
C 11.0833 19.20075 -0.01046
C 11.0815 30.55161 0.00406
C 12.26964 15.66762 -0.02696
C 13.5166 13.52498 0.00228
C 14.73678 19.82489 0.03338
C 15.99257 19.13706 -0.0258
C 16.00016 17.78271 -0.0331
C 14.72927 17.03454 -0.00316
C 14.72788 15.63497 0.02188
C 15.98992 14.92755 -0.01979
C 16.0165 13.49321 0.02691
C 14.80761 12.84218 -0.01581
C 14.76519 11.33132 0.01452
C 14.76079 21.28532 -0.00491
C 15.9973 10.63028 0.04892
C 14.77874 8.46873 -0.03557
C 14.73692 7.10436 0.03754
C 15.98247 6.35867 0.01739
C 15.99695 4.91957 0.00755
C 14.7827 4.22987 -0.0054
C 14.73616 2.87068 0.00667
C 15.95938 2.1141 0.00143
C 15.95901 0.71554 -0.017
C 14.71092 0.066 0.00364
C 15.98987 9.26053 -0.00111
C 13.51096 14.92143 -0.00114
C 15.99818 23.35022 -0.00109
C 14.78545 25.55516 -0.02213
C 12.30209 12.7991 0.00798
C 12.27223 11.40819 0.00422
C 13.56582 10.64679 0.0351
C 13.51941 9.21301 -0.03113
C 12.30042 8.47035 0.02098
C 12.27386 7.05865 0.01848
C 13.52881 6.3944 -0.00619
C 13.56155 5.00688 -0.02162
C 12.27248 4.27559 0.00889
C 14.73635 24.14765 0.03698
C 12.2421 2.86726 -0.00481
C 13.52849 0.71853 0.01443
C 12.24724 34.07076 0.03505
C 14.74847 32.67937 -0.02815
C 16.02945 31.95534 -0.04147
C 15.96269 30.5417 -0.05302
C 14.74686 29.76107 0.00213
C 14.71727 28.37114 -0.00066
C 15.99652 27.66931 -0.00289
C 15.99544 26.24362 0.00028
C 13.52627 2.11518 0.00979
C 11.08751 31.9875 0.03592
C 9.80463 32.70967 0.00572
C 7.40113 34.06011 0.0402
C 3.67136 4.97422 -0.03113
C 2.45027 4.27293 -0.02566
C 2.46495 2.88365 -0.00094
C 3.68517 2.05992 0.02322
C 3.68216 0.69896 -0.00725
C 2.43084 0.02179 -0.05697
C 4.88793 32.67239 0.01087
C 6.14723 31.95718 -0.01343
C 6.13415 30.58009 0.00988
C 3.69792 6.36629 0.017
C 4.90196 29.86974 0.0276
C 6.14981 27.72378 -0.00077
C 6.15547 26.29544 0.03368
C 4.89155 25.60379 -0.02929
C 4.93353 24.16742 -0.00966
C 6.12573 23.40966 -0.03337
C 6.13345 22.00807 0.01227
C 4.91398 21.34585 0.00873
C 4.96292 19.83279 -0.00049
C 6.19769 19.18108 0.00848
C 4.89217 28.41124 0.01305
C 6.23206 17.74136 -0.01303
C 2.45939 7.08545 -0.00643
C 3.66181 9.21677 -0.00518
C 3.64711 30.58853 0.03189
C 2.45627 29.82249 0.00031
C 2.47822 28.39687 -0.003
C 3.65698 27.72045 0.01402
C 3.7269 26.27786 0.02379
C 2.44321 25.5511 0.00907
C 2.49152 24.13542 0.00643
C 3.60385 23.39594 -0.01509
C 3.68404 22.05953 0.03267
C 2.45507 8.55535 0.0086
C 2.45672 21.32408 0.02374
C 3.73225 19.20016 0.0073
C 3.68435 17.69163 0.0174
C 2.47794 17.03973 0.03828
C 2.4811 15.64889 0.01226
C 3.66008 14.96334 -0.00279
C 3.68517 13.49984 0.01996
C 2.42933 12.74051 -0.03996
C 2.45424 11.34382 0.01465
C 3.7219 10.65376 -0.00074
C 2.50304 19.85952 0.00402
C 4.93098 17.09169 -0.01378
C 4.93488 15.67347 0.02635
C 6.12196 14.92827 0.0127
C 7.42785 21.31125 -0.00131
C 7.43969 19.86533 -0.01118
C 8.61996 19.19721 -0.014
C 8.57676 17.66698 0.02147
C 7.37502 17.02984 0.00373
C 7.35007 15.65197 -0.00191
C 8.59084 14.86681 0.00438
C 8.59619 13.4944 0.01291
C 7.37819 12.79912 0.00093
C 8.58205 22.06203 -0.02896
C 7.40535 11.30896 0.00057
C 8.61357 9.27157 -0.00334
C 7.38374 8.55611 0.02339
C 7.41499 7.13607 0.01641
C 8.61989 6.39281 -0.00719
C 8.61996 4.99182 0.01364
C 7.41554 4.32594 -0.01062
C 7.36297 2.85293 -0.00033
C 8.56248 2.16267 0.03589
C 8.64017 0.6933 -0.02759
C 8.61785 10.70278 -0.01634
C 8.57247 23.46999 -0.01004
C 7.38197 24.1871 0.00488
C 7.33497 25.61371 0.01745
C 6.13689 13.51699 0.01396
C 4.9413 12.81349 0.01849
C 4.89089 11.36976 -0.01142
C 6.14969 10.66206 -0.00562
C 6.1632 9.19365 -0.00494
C 4.94414 8.49578 0.00054
C 4.89718 7.11645 0.03007
C 6.13008 6.41973 -0.00095
C 6.138 4.98911 0.01572
C 4.84494 4.24724 -0.04848
C 4.88262 2.85956 -0.00892
C 6.1258 2.11444 -0.01362
C 6.15766 0.71924 -0.0008
C 4.8922 0.04078 0.0288
C 7.36276 32.69368 0.00393
C 8.64943 32.00894 0.00895
C 8.61991 30.50725 0.00685
C 7.37568 29.8237 0.02888
C 7.33513 28.3962 -0.00482
C 8.60119 27.67392 -0.01384
C 8.59641 26.2948 0.03693
C 17.16758 32.66873 -0.00831
C 3.63464 31.94373 -0.04307
C 18.42809 31.91622 -0.02957
C 17.2212 29.88399 0.00654
C 29.4561 4.2523 0.0103
C 29.52788 2.87996 0.02108
C 30.74545 2.09176 0.00716
C 30.74072 0.69319 0.00307
C 29.50566 0.004 0.00346
C 31.98462 32.6531 0.01713
C 33.22369 31.98964 -0.01694
C 33.1932 30.51805 0.01428
C 31.9725 29.8133 -0.02142
C 30.73647 4.9757 0.07705
C 31.94322 28.43836 0.0544
C 33.22763 26.2752 0.00682
C 31.98107 25.51378 -0.01779
C 32.03148 24.12328 0.03794
C 33.21454 23.43799 0.01927
C 33.21218 22.02139 0.01574
C 32.01115 21.30706 -0.02383
C 31.97012 19.88047 -0.01429
C 33.19792 19.16313 -0.0136
C 33.16838 17.78101 0.00594
C 33.24519 27.74177 0.00026
C 31.97717 16.98946 -0.02474
C 30.77681 6.37442 0.01908
C 29.5147 8.52902 -0.00971
C 30.7353 31.96752 0.0014
C 30.75005 30.47463 0.00924
C 29.49048 29.80885 0.02326
C 29.53403 28.34841 0.00261
C 30.70639 27.62916 0.03265
C 30.71895 26.24307 -0.02049
C 29.48946 25.54867 -0.01854
C 29.48167 24.18658 -0.01415
C 30.75944 23.45247 -0.03039
C 29.5288 7.05148 0.01518
C 30.78624 21.99026 0.01836
C 29.53508 19.89875 -0.00669
C 30.77132 19.1469 0.0101
C 30.75079 17.67314 0.01705
C 30.80275 14.9269 -0.0405
C 30.76581 13.48028 -0.01303
C 29.47802 12.7783 -0.01461
C 29.5324 11.35351 -0.02155
C 30.75314 10.64038 -0.00944
C 30.72997 9.2619 -0.03735
C 29.51484 21.33914 0.03531
C 29.49528 32.6598 0.01324
C 32.02744 15.63851 0.00369
C 33.18962 13.49026 -0.00644
C 34.42801 21.29954 -0.02213
C 34.43033 19.87691 0.01951
C 1.28385 19.21957 -0.01678
C 1.25082 17.73723 0.01223
C 34.40884 16.98466 0.00648
C 34.42006 15.63083 0.02114
C 1.23098 14.92159 -0.02957
C 1.25645 13.54522 0.00343
C 34.40177 12.69663 -0.02656
C 1.18408 22.00756 0.02712
C 34.40342 11.36053 -0.02442
C 1.28499 9.22797 -0.00583
C 34.37547 8.49562 -0.02302
C 34.3819 7.11094 -0.02849
C 1.202 6.33751 0.02931
C 1.19499 4.94832 0.00628
C 34.42372 4.19088 -0.0345
C 0.00531 2.8719 -0.00931
C 1.2574 2.17789 -0.00939
C 1.25217 0.71472 -0.00468
C 1.22336 10.66279 -0.00027
C 33.18206 14.86136 0.00455
C 1.17772 23.46034 0.00723
C 34.42982 25.59918 -0.05239
C 31.99659 12.74287 -0.01839
C 31.96816 11.33205 0.00137
C 33.15505 10.6772 0.00199
C 33.18757 9.25956 0.04381
C 31.96893 8.56491 0.02806
C 31.93943 7.13246 0.01504
C 33.1692 6.39369 -0.00069
C 33.20569 5.00137 0.04926
C 31.98896 4.26852 -0.03838
C 0.00391 24.15712 0.03076
C 31.95967 2.83493 0.00349
C 33.18562 0.68495 -0.00841
C 31.96192 0.0091 0.0001
C 34.41766 32.7206 -0.02927
C 1.2297 31.91411 -0.01404
C 1.22965 30.49988 0.01027
C 34.37868 29.81019 0.01831
C 0.00744 28.43462 -0.01037
C 1.26576 27.6715 -0.00439
C 1.1874 26.22466 -0.00598
C 33.17136 2.11642 -0.00323
C 27.091 34.06197 0.04266
C 28.25727 0.66855 0.01177
C 28.26059 2.14057 -0.00416
C 19.70352 29.77278 -0.00381
C 19.69755 28.37647 0.03046
C 20.94336 27.71287 0.0296
C 19.63499 12.73712 0.03374
C 19.70583 11.30979 -0.02845
C 20.88765 10.61691 -0.03213
C 20.88158 9.2633 0.02239
C 19.69752 8.5173 0.01153
C 19.67803 7.05659 0.02734
C 20.88484 30.53727 0.01852
C 20.83716 6.37849 -0.0055
C 19.61128 4.25338 -0.00225
C 19.65648 2.81361 0.00071
C 20.86554 2.12635 -0.01107
C 20.94602 0.69203 -0.01586
C 19.69909 0.00582 -0.01971
C 22.04961 32.66755 -0.02118
C 23.29236 31.90665 0.00733
C 23.36244 30.49705 -0.00178
C 22.11159 29.80875 0.00768
C 20.93068 4.9396 0.01515
C 22.16989 28.37352 -0.0276
C 20.94855 31.91771 0.01126
C 17.19344 0.0095 -0.01662
C 17.22055 28.32367 -0.00703
C 18.43488 27.65754 -0.04076
C 18.43579 26.29215 -0.00652
C 17.28981 25.52593 0.0058
C 17.26662 16.99937 -0.00865
C 17.22541 15.59791 0.00675
C 18.4219 14.89547 -0.00311
C 18.48111 13.49989 0.00742
C 17.23349 12.72476 -0.01594
C 19.70681 32.66575 -0.01185
C 17.19981 11.33393 0.0106
C 18.44229 9.24656 -0.01721
C 17.23167 8.50927 -0.02422
C 17.25839 7.09926 0.01277
C 18.44293 6.3996 0.00096
C 18.43358 5.00133 -0.01527
C 17.25333 4.17455 0.01087
C 17.20945 2.82374 0.00199
C 18.45454 2.13655 0.01511
C 18.42721 0.7596 -0.00478
C 18.41518 10.65368 -0.01154
C 23.37772 27.7351 0.03005
C 23.3105 9.22888 -0.04078
C 22.11394 8.52336 0.02117
C 24.62662 0.01066 0.00622
C 27.04171 32.69074 -0.02815
C 28.2805 31.90662 -0.00942
C 28.3004 30.55916 0.00487
C 27.07652 29.82333 0.00826
C 27.08469 28.3897 -0.00294
C 28.22246 27.64914 0.00152
C 28.3164 26.30023 0.01257
C 27.0109 25.50856 0.02316
C 25.96091 0.74985 -0.0032
C 27.04461 24.15435 0.04185
C 28.29714 22.01708 -0.00621
C 28.30329 10.63821 0.02611
C 28.21281 9.24338 0.02198
C 27.01102 8.5192 0.01094
C 27.02551 7.0973 0.00235
C 28.2513 6.3804 0.01495
C 28.30305 4.94948 0.01259
C 26.98695 4.21599 0.01799
C 27.04264 2.83264 0.01699
C 28.24526 23.4396 0.00194
C 25.79454 2.09743 -0.00037
C 24.55982 2.87047 -0.01654
C 24.59494 4.28739 -0.00218
C 22.14448 7.09477 0.02737
C 23.37619 6.42576 -0.00498
C 23.37884 4.92152 0.00135
C 22.15976 4.24533 0.03102
C 22.10967 2.79834 0.02555
C 23.36493 2.13443 0.01423
C 23.44382 0.75885 -0.00285
C 22.14501 0.00914 -0.009
C 24.55959 32.59484 -0.01199
C 25.80047 31.94482 -0.00229
C 25.84074 30.57921 -0.00938
C 24.55453 29.84828 -0.0264
C 24.61639 28.3964 -0.01154
C 25.85972 27.71295 0.00684
C 25.84149 26.25954 -0.01052
C 25.86056 10.64432 -0.01679
C 25.80463 9.20924 0.00367
C 24.59213 8.57454 0.04306
C 24.59717 7.11364 0.00996
C 25.79835 6.37735 0.00195
C 25.8057 4.96476 -0.00802
C 18.44715 30.52168 -0.04422
C 2.42414 32.63697 0.03284
