394
Graphene
C 34.42669 34.00489 0.01295
C 13.51724 17.94701 -0.00925
C 12.28223 17.25114 0.01877
C 11.96398 15.85504 0.01363
C 13.43298 15.1033 -0.02162
C 13.51482 13.6886 0.00415
C 12.4379 12.79085 -0.0014
C 12.24322 11.47733 0.02162
C 12.14884 8.36364 0.0076
C 12.17743 7.11389 0.01241
C 13.46896 19.32398 0.00444
C 13.4806 4.99308 -0.01454
C 12.312 2.8517 0.01416
C 13.61892 2.21576 0.03542
C 13.51689 0.78294 0.02299
C 12.3842 0.00349 0.00244
C 14.7899 32.66562 -0.01717
C 15.97793 31.95149 0.05265
C 16.01141 30.53356 -0.01952
C 14.73734 29.84095 -0.02813
C 14.77263 28.40457 0.00374
C 12.18581 4.34475 0.01945
C 12.24053 19.83112 -0.01789
C 12.12655 21.31068 0.02894
C 13.36322 22.05848 -0.02971
C 11.08908 10.70909 -0.00033
C 10.9573 9.25658 0.03589
C 9.77145 8.53141 -0.02759
C 9.84306 7.11855 0.0402
C 11.00709 6.3536 0.00572
C 10.91807 4.91574 0.03592
C 9.73337 4.21806 0.00406
C 9.8467 2.82678 0.00943
C 11.1105 2.1217 0.02841
C 11.15788 0.7003 -0.01111
C 9.88016 0.06588 -0.01275
C 12.29406 32.61952 0.00985
C 13.57122 31.92983 -0.02245
C 13.53137 30.4784 -0.00428
C 12.23323 29.78322 0.03101
C 12.26994 28.35905 -0.01536
C 13.54939 27.71687 -0.02689
C 13.48467 26.26458 -0.01046
C 12.19656 25.57359 -0.00891
C 12.23342 24.20708 0.02819
C 13.39123 23.41913 0.00165
C 15.9272 27.65705 0.00052
C 9.85263 11.50757 -0.01062
C 15.93109 26.21232 -0.03682
C 14.6507 24.04901 0.02058
C 17.16113 21.37477 0.00028
C 17.20287 19.94584 -0.02213
C 18.41688 19.15484 0.03698
C 18.44129 17.7357 -0.00109
C 17.14649 17.05743 -0.00491
C 17.28513 15.58898 0.03338
C 18.43271 14.99025 -0.0258
C 17.2789 2.81266 -0.0331
C 18.60249 2.19724 -0.00316
C 18.43009 22.04119 -0.00289
C 18.50415 0.65251 0.02188
C 19.66637 32.5675 0.02691
C 20.94996 31.93091 -0.01581
C 20.91592 30.50689 0.01452
C 19.66934 29.82788 0.04892
C 19.61289 28.36533 -0.00111
C 20.93222 27.70242 -0.03557
C 20.87539 26.29138 0.03754
C 19.70651 25.5958 0.01739
C 19.71179 24.16915 0.00755
C 17.2289 0.0203 -0.01979
C 18.44755 23.45708 -0.00066
C 17.16561 24.12338 0.00213
C 17.2362 25.46235 -0.05302
C 15.93404 23.38335 -0.01957
C 15.97516 22.00637 -0.0108
C 14.70938 21.33568 -0.00368
C 14.77899 19.912 -0.02696
C 16.02293 19.1746 -0.00114
C 15.97438 17.75975 0.00228
C 14.71949 17.17237 0.00798
C 14.69205 15.69414 0.00422
C 15.75551 14.84399 0.0351
C 14.641 4.29202 -0.03113
C 14.86224 2.85286 0.02098
C 16.09439 2.0665 0.01848
C 15.98541 0.63252 -0.00619
C 14.76003 34.05588 -0.02162
C 17.27882 32.66026 0.00889
C 18.45592 31.89899 -0.00481
C 18.47452 30.47791 0.00979
C 17.13277 29.76491 0.01443
C 17.19596 28.34335 0.03505
C 18.41851 27.63419 -0.02815
C 18.44591 26.18853 -0.04147
C 14.67159 25.46643 0.01965
C 9.86174 12.82709 0.01364
C 10.96262 13.60066 -0.00719
C 10.90843 14.93165 0.01641
C 2.35815 4.33022 0.01996
C 2.36824 2.82573 -0.03996
C 3.59166 2.1119 0.01465
C 3.64621 0.71946 -0.00074
C 2.38907 0.04474 -0.00518
C 4.90792 32.69059 0.0086
C 6.20221 31.98572 -0.00643
C 6.1316 30.58074 0.017
C 4.94508 29.87054 -0.03113
C 3.6119 5.01317 -0.00279
C 4.9318 28.44454 -0.02566
C 6.12451 26.22196 0.02322
C 4.89727 25.63179 -0.00725
C 4.87971 24.08017 -0.05697
C 6.07377 23.35483 0.01087
C 5.82943 21.79423 -0.01343
C 4.71622 21.12845 0.00988
C 4.98197 17.05106 0.0276
C 5.14726 15.65903 0.01305
C 6.4787 14.84615 -0.00077
C 6.17349 27.6438 -0.00094
C 3.61657 6.45123 0.01226
C 2.41182 7.07619 0.03828
C 2.35778 8.54065 0.0174
C 3.67851 30.57438 -0.00561
C 2.46596 29.84371 0.00208
C 2.32872 28.44417 0.01707
C 3.65326 27.72916 0.02769
C 3.67441 26.35011 -0.03291
C 2.4614 25.57237 -0.04999
C 2.43231 24.11916 0.04505
C 3.65472 23.43706 0.03284
C 3.54613 22.05096 -0.04307
C 2.31602 21.40151 0.03189
C 2.57826 19.93097 0.00031
C 3.81923 19.43141 -0.003
C 3.84727 17.907 0.01402
C 2.66559 17.11952 0.02379
C 2.66773 15.66552 0.00907
C 3.8582 14.96242 0.00643
C 3.75248 13.56344 -0.01509
C 2.44111 12.90734 0.03267
C 2.39883 11.37883 0.02374
C 3.61438 10.68883 0.00402
C 3.57051 9.23015 0.0073
C 6.17157 13.50078 0.03368
C 4.88417 12.85373 -0.02929
C 4.88514 11.43633 -0.00966
C 6.09883 10.71811 -0.03337
C 8.54457 9.23541 0.02888
C 7.29799 8.58796 -0.00482
C 7.31273 7.20059 -0.01384
C 8.51026 6.42009 0.03693
C 8.53534 5.0185 0.01745
C 7.31241 4.34472 0.00488
C 7.33474 2.92325 -0.01004
C 8.56308 2.20332 -0.02896
C 8.5649 0.75358 -0.00131
C 7.34286 0.09546 -0.01118
C 9.88208 32.78473 -0.014
C 11.07198 31.98484 0.02147
C 11.02464 30.58405 0.00373
C 9.86554 29.86938 -0.00191
C 9.77903 28.52207 0.00438
C 11.00726 27.72088 0.01291
C 10.98975 26.3336 0.00093
C 9.74745 25.68963 0.00057
C 9.77979 24.20478 -0.01634
C 10.97915 23.42 -0.00334
C 10.95584 22.0459 0.02339
C 8.65405 10.70598 0.00685
C 20.9317 23.41245 -0.0054
C 7.34044 11.38213 0.00895
C 8.57557 13.64129 0.0288
C 6.12222 9.35467 0.01227
C 4.84682 8.55751 0.00873
C 4.84599 7.11239 -0.00049
C 6.13646 6.43821 0.00848
C 6.02438 4.97794 -0.01303
C 4.77778 4.27873 -0.01378
C 4.75886 2.91602 0.02635
C 6.10865 2.17777 0.0127
C 6.1787 0.73734 0.01396
C 4.9041 0.01014 0.01849
C 7.37352 32.73105 -0.01142
C 8.66055 32.04824 -0.00562
C 8.6616 30.64126 -0.00494
C 7.31148 29.9051 0.00054
C 7.37596 28.49213 0.03007
C 8.5722 27.79816 -0.00095
C 8.48023 26.28927 0.01572
C 7.28551 25.50283 -0.04848
C 7.31878 24.07691 -0.00892
C 8.63465 23.48051 -0.01362
C 8.15193 15.01855 -0.0008
C 7.32783 12.72355 0.00393
C 20.91133 22.003 0.00667
C 19.61512 21.39022 0.00143
C 19.63871 19.92509 -0.017
C 30.61862 6.3568 0.01908
C 30.66985 4.91087 0.07705
C 29.47476 4.25679 0.0103
C 29.48176 2.79424 0.02108
C 30.73241 2.10001 0.00716
C 30.75058 0.7208 0.00307
C 29.53739 0.00427 0.00346
C 31.95116 32.71082 0.01713
C 33.07508 31.94553 -0.01694
C 29.442 7.13503 0.01518
C 33.1658 30.53817 0.01428
C 31.94945 28.43944 0.0544
C 33.14465 27.7109 0.00026
C 33.1855 26.27984 0.00682
C 31.93687 25.62801 -0.01779
C 31.96226 24.16053 0.03794
C 33.18891 23.46615 0.01927
C 33.18733 21.92903 0.01574
C 31.9445 21.30655 -0.02383
C 31.97262 19.87297 -0.01429
C 31.96936 29.85201 -0.02142
C 29.49954 8.59845 -0.00971
C 30.7223 9.19401 -0.03735
C 30.68395 10.64367 -0.00944
C 29.51169 32.6752 0.01177
C 30.66999 31.96811 0.04266
C 30.75696 30.51183 0.01324
C 29.51204 29.87302 0.0014
C 29.48673 28.41897 0.00924
C 30.73707 27.71379 0.02326
C 30.76275 26.29512 0.00261
C 29.60451 25.52551 0.03265
C 29.51565 24.12052 -0.02049
C 30.73012 23.39187 -0.01854
C 30.79516 22.01057 -0.01415
C 29.54209 21.30676 -0.03039
C 29.53042 19.88581 0.01836
C 30.75098 19.18967 0.03531
C 30.64044 17.78081 -0.00669
C 29.48541 17.00818 0.0101
C 29.5366 15.63536 0.01705
C 30.69616 14.93087 -0.0405
C 30.65969 13.52716 -0.01303
C 29.41272 12.78108 -0.01461
C 29.43744 11.3129 -0.02155
C 33.20575 19.15315 -0.0136
C 33.23512 17.67684 0.00594
C 31.89095 17.04017 -0.02474
C 31.89728 15.65729 0.00369
C 1.13173 22.03053 0.02712
C 34.41586 21.22224 -0.02213
C 0.05018 19.84302 0.01951
C 1.31724 19.20828 -0.01678
C 1.37981 17.8084 0.01223
C 0.09604 17.05988 0.00648
C 0.04849 15.61788 0.02114
C 1.29855 14.97097 -0.02957
C 1.20545 13.55837 0.00343
C 34.40512 12.90125 -0.02656
C 34.36943 11.38897 -0.02442
C 1.1767 10.66407 -0.00027
C 1.13579 9.25693 -0.00583
C 34.36412 8.61507 -0.02302
C 34.36552 7.12706 -0.02849
C 1.16802 6.43977 0.02931
C 1.15782 5.04083 0.00628
C 34.41766 4.3027 -0.0345
C 34.35649 2.88145 -0.00931
C 1.11535 2.08465 -0.00939
C 1.1696 0.72745 -0.00468
C 1.23617 23.43331 0.00723
C 27.01564 34.04494 -0.00416
C 0.0389 24.16845 0.03076
C 1.17723 26.24383 -0.00598
C 33.13498 14.91343 0.00455
C 33.09189 13.48017 -0.00644
C 31.8921 12.77322 -0.01839
C 31.87628 11.37597 0.00137
C 33.11062 10.72235 0.00199
C 33.16914 9.25346 0.04381
C 31.91009 8.56876 0.02806
C 31.86501 7.07592 0.01504
C 33.13902 6.35379 -0.00069
C 33.24672 4.95309 0.04926
C 32.01719 4.28955 -0.03838
C 31.9225 2.85913 0.00349
C 33.15851 2.10943 -0.00323
C 33.20759 0.66852 -0.00841
C 31.96698 34.04534 0.0001
C 34.38722 32.57151 -0.02927
C 1.18726 31.89819 -0.01404
C 1.25017 30.5152 0.01027
C 0.00455 29.91098 0.01831
C 34.35367 28.4579 -0.01037
C 1.12615 27.7655 -0.00439
C 34.37947 25.55223 -0.05239
C 3.70652 31.98301 -0.01977
C 28.30477 0.73207 0.01699
C 27.00308 2.88251 0.01259
C 22.12447 15.64967 -0.01662
C 23.35473 14.97602 -0.01185
C 23.23856 13.57562 0.01126
C 23.1438 6.35105 0.01852
C 23.1449 4.8896 -0.00381
C 21.97284 4.00237 0.03046
C 22.09613 2.66699 0.0296
C 23.43829 2.04732 0.03374
C 23.37259 0.61328 -0.02845
C 22.1158 17.11466 -0.00478
C 22.1235 33.95823 -0.03213
C 25.77417 31.92122 0.01153
C 25.87181 30.49285 0.02734
C 24.58633 29.79859 -0.0055
C 24.59983 28.37131 0.01515
C 25.78787 27.70099 -0.00225
C 25.87274 26.20872 0.00071
C 24.64211 25.58059 -0.01107
C 24.61522 24.17192 -0.01586
C 25.82567 23.41745 -0.01971
C 24.54766 32.5236 0.02239
C 23.36631 17.87227 0.01511
C 23.36657 19.24142 0.00199
C 22.08292 19.91003 0.01087
C 20.86641 19.17949 0.00364
C 20.86881 17.80096 -0.00831
C 19.70911 17.00594 -0.02957
C 19.76209 15.51741 -0.04422
C 21.04564 14.78251 0.00654
C 19.93021 2.7711 -0.00703
C 20.91933 1.92459 -0.04076
C 20.8694 0.5073 -0.00652
C 19.64508 34.01475 0.0058
C 22.17904 32.59175 -0.00865
C 23.33207 31.86369 0.00675
C 23.29684 30.49348 -0.00311
C 22.09487 29.74227 0.00742
C 22.13625 28.38539 -0.01594
C 23.37624 27.69009 0.0106
C 23.38147 26.24627 -0.01154
C 22.13155 25.5643 -0.01721
C 22.22688 24.13974 -0.02422
C 23.36481 23.50385 0.01277
C 23.34486 22.08819 0.00096
C 22.10879 21.29393 -0.01527
C 25.8277 22.03293 -0.02118
C 24.54327 21.29617 0.00733
C 24.60483 19.97331 -0.00178
C 25.8425 19.21608 0.00768
C 27.10389 25.4576 -0.00218
C 27.10298 24.11485 -0.01654
C 28.32735 23.41877 -0.00037
C 28.25602 21.95359 -0.0032
C 27.06535 21.26046 0.00622
C 27.07824 19.87964 -0.02815
C 28.2903 19.14512 -0.00942
C 28.25557 17.7469 0.00487
C 27.00559 17.07384 0.00826
C 27.01779 15.58275 -0.00294
C 28.28325 14.96289 0.00152
C 28.13634 13.51522 0.01257
C 26.99579 12.78423 0.02316
C 27.01749 11.37632 0.04185
C 28.2286 10.60313 0.00194
C 28.22645 9.18299 -0.00621
C 26.97159 8.48077 0.02611
C 26.89112 7.07886 0.02198
C 28.1806 6.46215 0.01094
C 28.19815 5.0022 0.00235
C 26.91175 4.33859 0.01495
C 28.31762 26.16441 -0.00802
C 28.22671 2.14698 0.01799
C 28.28986 27.64481 0.00195
C 27.04218 29.75723 0.04306
C 25.76943 17.78056 -0.0276
C 24.53271 17.08248 0.03005
C 24.61799 15.66127 -0.04078
C 25.77521 14.83898 0.02117
C 25.70431 13.38899 0.02737
C 24.3186 12.66438 -0.00498
C 24.53759 11.20358 0.00135
C 25.8146 10.624 0.03102
C 25.79876 9.23599 0.02555
C 24.57807 8.58755 0.01423
C 24.39976 7.12166 -0.00285
C 25.60552 6.41056 -0.009
C 25.62927 5.02698 -0.01199
C 24.42041 4.26086 -0.00229
C 24.5415 2.82941 -0.00938
C 25.80601 2.11416 -0.0264
C 25.78377 0.68128 -0.01154
C 24.64175 33.99936 0.00684
C 27.07353 32.68708 -0.01052
C 28.25806 31.95352 -0.01679
C 28.32727 30.55735 0.00367
C 27.01667 28.33228 0.00996
C 2.41136 32.69453 0.02784
