313
Graphene
C 34.3761 0.04523 0.01295
C 9.77955 24.11348 -0.0331
C 10.94229 23.04058 -0.00316
C 10.27172 21.98353 0.02188
C 9.82923 11.30473 -0.01979
C 10.92031 10.68259 0.02691
C 11.10404 9.27728 -0.01581
C 9.80718 8.58267 0.01452
C 9.8739 7.15477 0.04892
C 11.10128 6.49633 -0.00111
C 11.07514 4.99501 -0.03557
C 9.77836 4.30717 0.03754
C 9.78327 2.8827 0.01739
C 11.14141 2.16623 0.00755
C 11.00439 0.69788 -0.0054
C 9.88589 33.99751 0.00667
C 9.8605 25.48215 -0.0258
C 11.08943 26.24738 0.03338
C 11.08791 27.68461 -0.00491
C 9.81475 28.42887 -0.00109
C 7.34099 11.41752 -0.00619
C 8.54712 10.69891 -0.02162
C 8.58515 9.26978 0.00889
C 7.38911 8.50749 -0.00481
C 7.41596 7.07422 0.00979
C 8.60379 6.44054 0.01443
C 8.59189 5.04833 0.03505
C 12.28004 32.61258 0.00143
C 7.37434 4.28974 -0.02815
C 8.58815 2.09313 -0.05302
C 8.64707 0.69491 0.00213
C 7.41451 0.03696 -0.00066
C 9.93787 32.54124 -0.00289
C 11.12462 31.82172 0.00028
C 11.11795 30.36657 -0.02213
C 9.89185 29.75605 0.03698
C 7.37139 2.88026 -0.04147
C 7.36662 12.94078 0.01848
C 13.49585 32.02009 -0.017
C 12.36147 29.7793 -0.00831
C 14.80855 25.3751 0.00199
C 15.04163 24.00976 0.01511
C 15.01636 2.63385 -0.00478
C 15.77 1.01719 -0.01662
C 14.71963 34.07976 -0.01185
C 17.07779 32.85456 0.01126
C 18.38824 32.15866 0.01852
C 18.45096 30.68174 -0.00381
C 17.19875 29.8777 0.03046
C 17.18649 28.43783 0.0296
C 18.37825 27.78218 0.03374
C 18.33767 26.32883 -0.02845
C 17.17432 25.63391 -0.03213
C 16.98078 24.15145 0.02239
C 18.24009 23.55279 0.01153
C 16.00043 26.35024 0.01087
C 15.94424 27.67794 -0.01527
C 14.72844 28.41353 0.00096
C 14.74036 29.80915 0.01277
C 12.28875 28.28623 -0.02957
C 13.48491 27.59085 -0.04422
C 13.52529 26.08488 0.00654
C 12.28676 25.36078 -0.00703
C 12.05579 23.77931 -0.04076
C 12.26233 8.39774 -0.00652
C 12.30363 7.02701 0.0058
C 13.54882 30.52534 0.00364
C 13.60982 4.94714 -0.00865
C 12.4624 2.87078 -0.00311
C 13.63512 2.12631 0.00742
C 13.50941 0.6547 -0.01594
C 12.23512 34.07075 0.0106
C 14.7307 32.71017 -0.01154
C 15.94968 32.0356 -0.01721
C 16.00204 30.6127 -0.02422
C 12.35196 4.32013 0.00675
C 8.40232 13.89588 0.02098
C 7.37904 15.39767 -0.03113
C 7.25672 16.78301 0.0351
C 3.66447 9.27891 -0.02759
C 2.34549 8.52237 0.0402
C 2.32787 7.10653 0.00572
C 3.64479 6.43931 0.03592
C 3.66004 5.01445 0.00406
C 2.40598 4.30551 0.00943
C 2.40499 2.86866 0.02841
C 3.61882 2.12251 -0.01111
C 3.6305 0.66553 -0.01275
C 2.45126 34.04742 0.00985
C 4.89995 32.63861 -0.02245
C 6.16857 31.93063 -0.00428
C 6.13381 30.50805 0.03101
C 4.91444 29.85677 -0.01536
C 4.88327 28.38217 -0.02689
C 3.63318 10.73162 0.03589
C 2.45538 11.42735 -0.00033
C 2.43419 12.91924 -0.01062
C 3.63923 13.54013 0.01364
C 3.6677 30.56527 -0.02896
C 2.41528 29.77711 -0.00131
C 2.3874 28.44192 -0.01118
C 3.68854 27.66716 -0.014
C 3.68686 26.23024 0.02147
C 2.40384 25.52044 0.00373
C 2.46499 24.11212 -0.00191
C 6.12803 27.60093 -0.01046
C 3.67681 23.40953 0.00438
C 2.47905 21.24242 0.00093
C 2.5019 19.84702 0.00057
C 3.77308 19.17155 -0.01634
C 3.72064 17.70925 -0.00334
C 2.41584 17.09789 0.02339
C 2.39098 15.73237 0.01641
C 3.63429 14.96012 -0.00719
C 3.72795 21.91903 0.01291
C 6.12665 26.2814 -0.00891
C 4.89254 25.56523 0.02819
C 4.94348 24.11882 0.00165
C 6.15473 2.10591 0.05265
C 6.24988 0.71644 -0.01952
C 5.00602 34.05216 -0.02813
C 7.41018 32.66419 0.00374
C 8.66442 31.93597 0.00052
C 8.64281 30.4285 -0.03682
C 7.37458 29.76471 0.01965
C 4.91016 2.79898 -0.01717
C 7.36846 28.40386 0.02058
C 8.57727 26.19312 -0.0108
C 7.42223 25.56967 -0.00368
C 7.36092 24.09419 -0.02696
C 8.63072 23.48963 -0.00114
C 8.88061 22.00517 0.00228
C 7.5278 21.17219 0.00798
C 7.50165 19.82785 0.00422
C 8.59073 27.66314 -0.01957
C 18.33983 0.99429 0.02734
C 4.85456 4.2238 0.00244
C 6.13752 6.4224 0.03542
C 6.18372 23.44444 -0.02971
C 6.2618 22.00904 0.02894
C 4.94614 21.27624 -0.01789
C 4.99429 19.89619 0.00444
C 6.22564 19.14941 -0.00925
C 6.20713 17.62496 0.01877
C 4.93428 17.02014 0.01363
C 6.05603 4.99402 0.02299
C 4.8328 15.61916 -0.02162
C 6.00449 13.49102 -0.0014
C 4.83521 12.869 0.02162
C 4.89028 11.37871 0.0076
C 6.12075 10.66726 0.01241
C 6.17648 9.32046 -0.01454
C 4.91235 8.60182 0.01945
C 4.91938 7.11246 0.01416
C 6.13268 14.85906 0.00415
C 3.67354 32.03373 -0.01004
C 17.06124 0.41197 -0.0055
C 20.84537 32.18328 -0.00225
C 31.93687 25.43734 0.01927
C 31.90084 24.05019 0.01574
C 33.14066 23.44559 -0.02383
C 33.15204 21.99177 -0.01429
C 31.98145 21.30522 -0.0136
C 31.9628 19.85821 0.00594
C 33.15115 19.24423 -0.02474
C 33.14323 17.82035 0.00369
C 31.91939 17.09834 0.00455
C 31.89986 15.71276 -0.00644
C 33.11919 14.94413 -0.01839
C 33.2057 13.55967 0.00137
C 33.07514 10.83434 0.00199
C 32.96514 9.44983 0.04381
C 31.90032 8.55895 0.02806
C 33.18335 26.2063 0.03794
C 33.1214 27.68361 -0.01779
C 31.8977 28.35461 0.00682
C 31.90894 29.71942 0.00026
C 30.69893 21.94647 -0.00944
C 29.48106 21.37757 -0.03735
C 29.43462 19.91985 -0.00971
C 30.62954 19.19304 0.01518
C 30.58998 17.70728 0.01908
C 29.3748 17.01554 0.07705
C 30.26602 6.42686 0.0103
C 31.65464 7.264 0.01504
C 30.63124 4.97033 0.02108
C 29.32752 2.83886 0.00307
C 30.66177 2.21344 0.00346
C 30.65277 0.76886 0.01713
C 29.42826 0.00342 -0.01694
C 31.89901 32.63331 0.01428
C 33.09092 31.8922 -0.02142
C 33.11042 30.48397 0.0544
C 29.46624 4.15283 0.00716
C 30.7339 23.33128 -0.02155
C 32.96949 6.46925 -0.00069
C 31.87934 4.30916 -0.03838
C 34.3401 15.67123 0.02114
C 1.19046 15.00477 -0.02957
C 1.23927 13.65502 0.00343
C 0.01389 12.9088 -0.02656
C 34.3727 11.43991 -0.02442
C 1.21289 10.67896 -0.00027
C 1.07802 9.28875 -0.00583
C 34.17144 8.66881 -0.02302
C 34.15578 7.19845 -0.02849
C 1.04098 6.43783 0.02931
C 1.17007 5.02534 0.00628
C 34.40717 4.27934 -0.0345
C 0.01524 2.80397 -0.00931
C 1.17439 2.04633 -0.00939
C 1.23698 0.70458 -0.00468
C 34.34455 17.13978 0.00648
C 1.20395 17.80691 0.01223
C 1.20578 19.20092 -0.01678
C 34.41248 19.95445 0.01951
C 31.87232 2.90434 0.00349
C 33.17129 2.16581 -0.00323
C 33.13618 0.74039 -0.00841
C 31.88557 0.03336 0.0001
C 34.38953 32.6447 -0.02927
C 1.17287 31.92273 -0.01404
C 1.17638 30.47804 0.01027
C 33.1255 5.03527 0.04926
C 34.35551 29.77 0.01831
C 1.16306 27.64956 -0.00439
C 1.12808 26.20645 -0.00598
C 34.35874 25.50885 -0.05239
C 34.37213 24.12941 0.03076
C 1.24102 23.46233 0.00723
C 1.17768 22.08121 0.02712
C 0.00714 21.364 -0.02213
C 34.36232 28.36021 -0.01037
C 29.44887 24.05249 -0.01461
C 29.48924 25.47527 -0.01303
C 30.68123 26.16323 -0.0405
C 23.26805 23.40218 -0.01199
C 23.20671 21.96972 -0.00229
C 21.78861 21.31369 -0.00938
C 22.0325 19.97974 -0.0264
C 23.24225 19.10024 -0.01154
C 23.41272 17.53574 0.00684
C 23.5731 0.80142 -0.01052
C 22.24754 0.24256 -0.01679
C 24.44067 32.55251 0.00367
C 25.67915 31.85717 0.04306
C 25.74563 30.46115 0.00996
C 24.50905 29.77006 0.00195
C 24.52961 28.3964 -0.00802
C 25.73153 27.60292 -0.00218
C 25.73201 26.28001 -0.01654
C 22.09508 24.20224 -0.009
C 22.02477 25.63171 -0.00285
C 23.26049 26.2337 0.01423
C 23.35408 27.71364 0.02555
C 20.95004 30.71995 0.00071
C 19.66094 29.99832 -0.01107
C 19.61931 28.46272 -0.01586
C 20.77621 27.77225 -0.01971
C 20.78443 26.27024 -0.02118
C 19.52103 25.60077 0.00733
C 19.46367 24.23108 -0.00178
C 24.48175 25.49356 -0.00037
C 20.8017 23.49849 0.00768
C 21.03833 0.82229 0.03005
C 19.62026 0.25758 -0.04078
C 22.07658 32.784 0.02117
C 23.24838 31.93656 0.02737
C 23.34998 30.50338 -0.00498
C 22.09459 29.8793 0.00135
C 22.03626 28.3842 0.03102
C 20.63537 22.07979 -0.0276
C 24.486 24.12863 -0.0032
C 25.69996 23.37564 0.00622
C 25.67096 21.9901 -0.02815
C 26.98419 19.90037 0.04266
C 28.18347 19.23551 0.01324
C 28.2468 17.84167 0.0014
C 29.13405 6.52852 0.00924
C 28.36762 5.17455 0.02326
C 27.25431 4.46204 0.00261
C 26.90595 2.98188 0.03265
C 27.02028 21.32146 0.01177
C 28.11007 2.18501 -0.02049
C 26.96707 34.05189 -0.01415
C 29.49973 32.68219 -0.03039
C 30.68397 31.90136 0.01836
C 30.68267 30.48493 0.03531
C 29.42801 29.82363 -0.00669
C 29.42566 28.28592 0.0101
C 30.61825 27.62566 0.01705
C 28.17108 0.74844 -0.01854
C 19.60665 32.87144 0.01515
C 28.23771 21.99695 -0.00416
C 26.99674 24.12773 0.01799
C 24.37855 21.26772 -0.00942
C 24.46749 19.84224 0.00487
C 25.75087 19.2139 0.00826
C 25.91694 17.78716 -0.00294
C 24.75404 17.30252 0.00152
C 25.68895 2.07412 0.01257
C 25.81998 0.72058 0.02316
C 28.25694 23.43236 0.01699
C 24.67759 33.99211 0.04185
C 28.1999 31.93824 -0.00621
C 28.15033 30.51205 0.02611
C 27.04823 29.7096 0.02198
C 27.06575 28.35646 0.01094
C 28.20572 27.57275 0.00235
C 28.21486 26.18862 0.01495
C 26.90556 25.51464 0.01259
C 26.9474 32.66033 0.00194
C 2.44651 32.64823 0.00488
