302
Graphene
C 34.36704 0.13493 0.01295
C 11.05566 26.28376 0.04892
C 9.96352 25.56264 -0.00111
C 9.79993 12.99563 -0.03557
C 9.90181 11.46679 0.03754
C 11.28457 10.78975 0.01739
C 11.18264 9.27753 0.00755
C 11.09217 27.68105 0.01452
C 9.91293 8.5794 -0.0054
C 11.21774 6.32668 0.00143
C 11.10595 4.93826 -0.017
C 9.82963 4.2677 0.00364
C 9.7624 2.74076 -0.00831
C 10.99103 2.12323 -0.02957
C 10.99325 0.63704 -0.04422
C 9.85014 7.14959 0.00667
C 9.84006 28.28787 -0.01581
C 9.77583 29.73844 0.02691
C 11.0715 30.49287 -0.01979
C 7.36769 12.88667 -0.04147
C 7.47797 11.43717 -0.05302
C 8.65007 10.74829 0.00213
C 8.62691 9.35734 -0.00066
C 7.41772 8.60756 -0.00289
C 7.42394 7.17536 0.00028
C 8.58621 6.3934 -0.02213
C 8.50233 4.99246 0.03698
C 7.33816 4.22615 -0.00109
C 7.29007 2.77983 -0.00491
C 8.4928 2.09258 0.03338
C 8.5688 0.68539 -0.0258
C 7.32945 0.01532 -0.0331
C 9.79657 32.56899 -0.00316
C 11.04307 31.86387 0.02188
C 9.75114 33.99716 0.00654
C 12.19758 32.63511 -0.00703
C 13.41869 31.91536 -0.04076
C 13.53197 30.53789 -0.00652
C 15.7791 26.19478 0.01126
C 14.64202 3.06637 0.01852
C 15.70194 2.2947 -0.00381
C 15.9063 0.7185 0.03046
C 14.71526 34.02753 0.0296
C 17.14539 32.59737 0.03374
C 18.39942 31.94055 -0.02845
C 18.41233 30.5709 -0.03213
C 17.20748 29.76517 0.02239
C 17.1898 28.32979 0.01153
C 18.35814 27.6302 0.02734
C 18.34504 26.18356 -0.0055
C 17.01898 25.7769 0.01515
C 18.34534 0.87134 -0.00225
C 17.15428 0.07307 0.00071
C 15.88284 27.66215 -0.01185
C 8.6742 13.48511 -0.02815
C 14.7264 28.37959 -0.01662
C 15.96681 30.446 0.01511
C 12.27617 29.74545 0.0058
C 12.29537 28.35996 -0.00865
C 13.50365 27.64925 0.00675
C 13.31687 26.2374 -0.00311
C 12.28892 11.66136 0.00742
C 12.31987 8.42451 -0.01594
C 12.31614 7.20128 0.0106
C 13.5957 4.77194 -0.01154
C 12.28997 4.09667 -0.01721
C 12.19953 2.73995 -0.02422
C 13.52835 2.13743 0.01277
C 13.52544 0.68962 0.00096
C 12.2585 0.03579 -0.01527
C 14.73124 32.5477 0.01087
C 15.97941 31.78933 0.00199
C 14.72983 29.76027 -0.00478
C 7.38963 15.77165 0.03505
C 7.29824 16.90913 0.01443
C 7.19828 21.61368 0.00979
C 3.65346 10.70889 -0.02245
C 3.6262 9.26913 -0.00428
C 2.38771 8.6802 0.03101
C 2.38705 7.17036 -0.01536
C 3.69543 6.55368 -0.02689
C 3.61795 5.07716 -0.01046
C 2.35169 4.39332 -0.00891
C 2.34876 2.94543 0.02819
C 3.57463 2.25002 0.00165
C 3.57578 0.81906 -0.02971
C 2.41964 0.03826 0.02894
C 4.84188 32.7426 -0.01789
C 6.07755 31.96273 0.00444
C 6.10832 30.55252 -0.00925
C 4.91955 29.79313 0.01877
C 2.38671 11.43064 0.00985
C 4.92269 28.37417 0.01363
C 2.43141 12.9636 -0.01275
C 3.71629 15.0661 0.02841
C 3.68019 30.53495 -0.01634
C 2.42106 29.83409 -0.00334
C 2.35874 28.43122 0.02339
C 3.65011 27.75471 0.01641
C 3.65813 26.34051 -0.00719
C 2.41786 25.59888 0.01364
C 2.36206 24.22136 -0.01062
C 3.57026 23.482 -0.00033
C 3.61174 21.98166 0.03589
C 2.4186 21.34623 -0.02759
C 2.46099 19.94266 0.0402
C 3.7325 19.21074 0.00572
C 3.68892 17.85444 0.03592
C 2.47524 17.10062 0.00406
C 2.44825 15.66005 0.00943
C 3.70558 13.60996 -0.01111
C 19.59931 32.69967 -0.01107
C 6.17602 27.54567 -0.02162
C 4.87995 25.53003 -0.0014
C 4.85165 4.40989 -0.0108
C 4.78751 2.95181 -0.00368
C 6.05547 2.11905 -0.02696
C 6.06189 0.6851 -0.00114
C 4.80907 0.09677 0.00228
C 7.36243 32.66792 0.00798
C 8.54467 31.94559 0.00422
C 8.55774 30.46355 0.0351
C 7.31436 29.78225 -0.03113
C 7.38567 28.36439 0.02098
C 8.60984 27.48072 0.01848
C 8.69044 26.07981 -0.00619
C 7.49739 25.33813 -0.02162
C 7.33738 23.94939 0.00889
C 8.34305 22.84933 -0.00481
C 6.11009 5.03673 -0.01957
C 6.20883 26.055 0.00415
C 6.158 6.49067 0.02058
C 4.96779 8.65868 -0.03682
C 4.7864 24.14539 0.02162
C 5.96352 23.49879 0.0076
C 5.9003 22.04388 0.01241
C 4.82919 21.26227 -0.01454
C 5.07515 19.90993 0.01945
C 6.41275 19.28672 0.01416
C 6.42188 17.9301 0.03542
C 4.99216 17.14912 0.02299
C 4.9932 15.81232 0.00244
C 6.18322 14.95917 -0.01717
C 6.10368 13.56985 0.05265
C 4.92012 12.81636 -0.01952
C 4.91246 11.45233 -0.02813
C 6.22848 10.68199 0.00374
C 6.17775 9.19776 0.00052
C 4.95617 7.26994 0.01965
C 20.84541 31.94413 -0.01586
C 20.84186 30.59009 -0.01971
C 19.64219 29.81235 -0.02118
C 33.12798 22.00955 0.01574
C 31.9267 21.29132 -0.02383
C 31.85783 19.87276 -0.01429
C 33.12009 19.17508 -0.0136
C 33.09829 17.81188 0.00594
C 31.95433 17.00984 -0.02474
C 31.9607 15.52125 0.00369
C 33.20092 14.89286 0.00455
C 33.15749 13.44408 -0.00644
C 31.86929 12.82495 -0.01839
C 31.87856 11.34208 0.00137
C 33.11607 10.73966 0.00199
C 33.18552 9.27093 0.04381
C 31.91985 8.58635 0.02806
C 31.76106 7.13714 0.01504
C 33.13588 23.46933 0.01927
C 33.06894 6.44087 -0.00069
C 31.88826 24.16715 0.03794
C 33.08531 26.28617 0.00682
C 29.57645 8.41021 -0.00971
C 29.34287 7.2436 0.01518
C 30.50543 6.44647 0.01908
C 30.52795 5.0382 0.07705
C 29.29265 4.2365 0.0103
C 29.42533 2.90821 0.02108
C 30.65659 2.19631 0.00716
C 30.73884 0.7497 0.00307
C 29.44252 0.0835 0.00346
C 31.90579 32.77303 0.01713
C 33.14794 32.01305 -0.01694
C 33.13045 30.61318 0.01428
C 31.81164 29.86046 -0.02142
C 31.84128 28.46914 0.0544
C 33.06459 27.76871 0.00026
C 31.86788 25.50304 -0.01779
C 30.69938 9.31935 -0.03735
C 33.15786 5.0093 0.04926
C 31.8917 2.98493 0.00349
C 34.39676 15.62992 0.02114
C 1.21836 15.00252 -0.02957
C 1.10792 13.6396 0.00343
C 34.37317 12.79701 -0.02656
C 34.30623 11.40973 -0.02442
C 1.11169 10.81756 -0.00027
C 1.14388 9.34058 -0.00583
C 34.41347 8.55838 -0.02302
C 34.38289 7.11161 -0.02849
C 1.16957 6.4377 0.02931
C 1.12013 5.06592 0.00628
C 34.3963 4.30612 -0.0345
C 34.42522 2.91362 -0.00931
C 1.20573 2.16596 -0.00939
C 1.17578 0.73585 -0.00468
C 34.39383 17.04966 0.00648
C 31.84021 4.38782 -0.03838
C 1.22285 17.7971 0.01223
C 34.37726 19.89427 0.01951
C 33.14906 2.22114 -0.00323
C 33.13326 0.81447 -0.00841
C 31.94882 0.15016 0.0001
C 34.36523 32.75945 -0.02927
C 1.214 31.97929 -0.01404
C 1.17975 30.55231 0.01027
C 34.36076 29.88054 0.01831
C 34.33907 28.52591 -0.01037
C 1.12517 27.65838 -0.00439
C 1.13824 26.2949 -0.00598
C 34.38288 25.54223 -0.05239
C 34.31627 24.14884 0.03076
C 1.16847 23.45159 0.00723
C 1.15152 22.02839 0.02712
C 34.4107 21.28453 -0.02213
C 1.20503 19.18823 -0.01678
C 3.6826 31.9797 0.00057
C 30.6739 10.69762 -0.00944
C 29.06427 12.80105 -0.01461
C 24.58343 32.77174 -0.01154
C 25.74317 32.02985 0.00684
C 25.76556 30.55885 -0.01052
C 24.50344 29.82348 -0.01679
C 24.44161 28.44855 0.00367
C 25.70096 27.74071 0.04306
C 25.73525 26.28363 0.00996
C 24.53638 25.5725 0.00195
C 24.37289 24.12974 -0.00802
C 25.53268 23.41163 -0.00218
C 26.09384 2.31255 -0.01654
C 25.82325 0.89889 -0.00037
C 24.60115 0.19201 -0.0032
C 27.04118 32.70853 0.00622
C 28.22944 31.98089 -0.02815
C 22.07554 0.26524 -0.0264
C 28.25972 30.60162 -0.00942
C 23.37677 0.90211 -0.00938
C 22.19442 25.56596 -0.01199
C 19.6404 28.45023 0.00733
C 20.87734 27.58005 -0.00178
C 20.83876 26.11687 0.00768
C 19.63292 25.33456 -0.0276
C 19.98516 23.94207 0.03005
C 21.10469 23.48185 -0.04078
C 20.87694 0.7262 0.02117
C 19.67175 0.09161 0.02737
C 22.13867 32.69652 -0.00498
C 23.36307 31.93174 0.00135
C 23.30395 30.53394 0.03102
C 22.06753 29.79626 0.02555
C 22.12392 28.45589 0.01423
C 23.30434 27.66882 -0.00285
C 23.35198 26.29415 -0.009
C 22.42993 24.0963 -0.00229
C 29.44663 11.42902 -0.02155
C 27.01035 29.87902 0.00487
C 28.15494 27.76975 -0.00294
C 29.40883 28.44397 0.00924
C 30.6411 27.68752 0.02326
C 30.64343 26.27616 0.00261
C 29.40351 25.54888 0.03265
C 29.34034 24.06817 -0.02049
C 30.66852 23.3963 -0.01854
C 30.60646 21.95252 -0.01415
C 29.33598 21.18943 -0.03039
C 29.28029 19.7099 0.01836
C 30.6101 19.12219 0.03531
C 30.73408 17.73356 -0.00669
C 29.53262 16.99617 0.0101
C 29.6062 15.55537 0.01705
C 30.76381 14.85481 -0.0405
C 30.65982 13.48207 -0.01303
C 29.37712 29.87563 0.0014
C 26.94985 28.41453 0.00826
C 30.63806 30.66304 0.01324
C 29.44556 32.72932 0.01177
C 28.17575 26.28463 0.00152
C 26.97291 25.63798 0.01257
C 26.75179 24.14622 0.02316
C 28.06738 23.46196 0.04185
C 28.15631 22.02821 0.00194
C 28.15412 18.86271 -0.00621
C 28.11724 17.42808 0.02611
C 27.31615 16.46227 0.02198
C 28.16946 15.12315 0.01094
C 28.009 13.80196 0.00235
C 27.86297 4.57448 0.01495
C 27.16716 3.16251 0.01259
C 28.17689 2.19979 0.01799
C 28.18977 0.78636 0.01699
C 27.02827 0.07244 -0.00416
C 30.68723 32.05059 0.04266
C 2.43111 32.71634 0.00093
