368
Graphene
C 0.01875 0.03359 0.01295
C 16.02526 9.18936 -0.01952
C 14.70236 8.57325 -0.02813
C 14.75626 7.12331 0.00374
C 15.99478 6.36879 0.00052
C 16.04633 5.01828 -0.03682
C 14.79869 4.2778 0.01965
C 14.71909 2.7951 0.02058
C 15.94482 2.11311 -0.01957
C 15.95979 0.61963 -0.0108
C 14.75622 34.05915 -0.00368
C 17.26748 32.66304 -0.02696
C 18.48318 31.91492 -0.00114
C 18.47677 30.52497 0.00228
C 17.25539 29.80433 0.00798
C 17.1604 28.48389 0.00422
C 18.45433 27.64435 0.0351
C 18.4362 26.18618 -0.03113
C 17.16418 25.51189 0.02098
C 17.26709 24.06551 0.01848
C 15.96088 10.60265 0.05265
C 18.44242 23.47021 -0.00619
C 16.00779 13.49572 -0.01717
C 16.01465 17.79099 0.02299
C 12.25284 4.3087 0.02819
C 12.32542 2.8929 0.00165
C 13.54812 2.1529 -0.02971
C 13.54253 0.72483 0.02894
C 12.3031 0.02318 -0.01789
C 14.74473 32.6707 0.00444
C 15.99239 31.9429 -0.00925
C 16.01338 30.5506 0.01877
C 14.77844 29.8873 0.01363
C 14.72814 28.39484 -0.02162
C 15.94895 27.75245 0.00415
C 16.01097 26.22539 -0.0014
C 14.77718 25.55566 0.02162
C 14.78866 24.1478 0.0076
C 16.05524 23.40766 0.01241
C 15.96956 21.94408 -0.01454
C 14.74037 21.32814 0.01945
C 14.76637 19.88551 0.01416
C 15.89827 19.14943 0.03542
C 16.02536 14.83987 0.00244
C 13.62934 4.97554 -0.00891
C 18.43936 22.04865 -0.02162
C 17.21936 19.9048 -0.00481
C 19.64657 28.45835 0.04892
C 20.90634 27.71436 -0.00111
C 20.88595 26.207 -0.03557
C 19.69019 25.52658 0.03754
C 19.6937 24.17218 0.01739
C 20.89753 23.39665 0.00755
C 20.88571 22.01122 -0.0054
C 19.65477 21.32711 0.00667
C 19.69575 19.85233 0.00143
C 20.96124 19.22239 -0.017
C 20.92277 17.74756 0.00364
C 19.71181 17.05554 -0.00831
C 19.69385 15.63253 -0.02957
C 20.93234 14.88105 -0.04422
C 20.8513 13.51005 0.00654
C 19.64328 12.74256 -0.00703
C 19.70862 11.3108 -0.04076
C 20.94955 10.62961 -0.00652
C 20.89029 9.26115 0.0058
C 19.6405 29.82043 0.01452
C 17.18212 21.31561 0.00889
C 20.85821 30.56821 -0.01581
C 19.68164 32.68487 -0.01979
C 18.41481 19.1795 0.00979
C 18.48783 17.7343 0.01443
C 17.21616 17.02869 0.03505
C 17.21321 15.6348 -0.02815
C 18.46351 14.9577 -0.04147
C 18.47706 13.5268 -0.05302
C 17.20512 12.77603 0.00213
C 17.20689 11.30849 -0.00066
C 18.42948 10.6235 -0.00289
C 18.46907 9.2289 0.00028
C 17.27627 8.5387 -0.02213
C 17.18955 7.10328 0.03698
C 18.41169 6.36357 -0.00109
C 18.40577 4.95355 -0.00491
C 17.19935 4.24104 0.03338
C 17.16928 2.83823 -0.0258
C 18.43389 2.13799 -0.0331
C 18.45437 0.70887 -0.00316
C 17.19278 34.06492 0.02188
C 20.90844 31.92366 0.02691
C 19.6443 8.49928 -0.00865
C 13.56254 6.39225 -0.01046
C 12.28177 8.50414 -0.01536
C 4.94405 29.81029 0.01227
C 4.99241 28.43424 0.00873
C 6.12785 27.72749 -0.00049
C 6.16856 26.2333 0.00848
C 4.91866 25.57438 -0.01303
C 4.91469 24.17059 -0.01378
C 6.162 23.47717 0.02635
C 4.92574 7.05061 0.0127
C 6.13379 6.42155 0.01396
C 6.12964 5.00316 0.01849
C 4.91103 4.26867 -0.01142
C 4.90882 2.83063 -0.00562
C 6.14105 2.14908 -0.00494
C 6.16558 0.66426 0.00054
C 4.93033 0.01363 0.03007
C 7.39196 32.67199 -0.00095
C 8.59618 31.97162 0.01572
C 8.52971 30.58701 -0.04848
C 7.39021 29.83329 -0.00892
C 6.13163 30.50887 -0.03337
C 7.33929 28.39642 -0.01362
C 6.12668 31.97912 -0.00966
C 2.49639 34.05461 0.03368
C 3.73553 30.55324 -0.03996
C 2.45137 29.81035 0.01465
C 2.52863 28.37867 -0.00074
C 3.724 27.68729 -0.00518
C 3.66472 26.26053 0.0086
C 2.43251 25.64312 -0.00643
C 2.45212 24.16328 0.017
C 3.73489 23.40703 -0.03113
C 3.67168 22.03983 -0.02566
C 2.52176 21.2839 -0.00094
C 2.36886 19.80681 0.02322
C 2.51203 8.47328 -0.00725
C 2.37807 7.06817 -0.05697
C 3.67515 6.47539 0.01087
C 3.66182 5.00521 -0.01343
C 2.43522 4.27976 0.00988
C 2.4726 2.89793 0.0276
C 3.68027 2.08066 0.01305
C 3.7229 0.73005 -0.00077
C 4.959 32.68548 -0.02929
C 12.29041 7.13108 -0.02689
C 8.58409 27.71456 -0.0008
C 7.35167 25.53778 0.00393
C 11.0692 4.97345 0.01641
C 9.89151 4.27419 -0.00719
C 9.83941 2.83143 0.01364
C 11.08229 2.19064 -0.01062
C 11.06645 0.77699 -0.00033
C 9.7884 0.01441 0.03589
C 12.34429 32.64237 -0.02759
C 13.57934 31.95219 0.0402
C 13.53883 30.56556 0.00572
C 12.24255 29.75049 0.03592
C 12.2749 28.39476 0.00406
C 13.47621 27.69366 0.00943
C 13.47209 26.23314 0.02841
C 12.29014 25.55608 -0.01111
C 12.29384 24.18392 -0.01275
C 13.51116 23.45952 0.00985
C 13.54445 21.96679 -0.02245
C 12.23373 21.37583 -0.00428
C 13.47551 9.22822 0.03101
C 11.09332 6.42751 0.02339
C 8.59575 26.26933 0.0288
C 9.87592 7.10557 -0.00334
C 11.10109 23.45695 0.00057
C 7.37979 24.13642 0.00895
C 8.5863 23.49996 0.00685
C 7.42177 7.05239 0.02888
C 8.62229 6.45217 -0.00482
C 8.60049 4.97245 -0.01384
C 7.41062 4.29921 0.03693
C 7.32937 2.89488 0.01745
C 8.57022 2.17484 0.00488
C 8.58637 0.73556 -0.01004
C 7.32009 0.01567 -0.02896
C 9.85247 32.70879 -0.00131
C 11.09716 31.92511 -0.01118
C 11.06172 30.51258 -0.014
C 9.7968 29.86322 0.02147
C 9.81037 28.45632 0.00373
C 11.08255 27.7175 -0.00191
C 11.03606 26.26992 0.00438
C 9.79025 25.60522 0.01291
C 9.84393 24.11778 0.00093
C 11.1299 22.00125 -0.01634
C 19.63913 7.13997 0.00675
C 20.87385 6.41037 -0.00311
C 20.94606 5.01668 0.00742
C 29.53251 4.20468 0.00307
C 29.50636 2.83755 0.00346
C 30.68199 2.11368 0.01713
C 30.75826 0.70637 -0.01694
C 29.50388 0.02441 0.01428
C 31.90927 32.64453 -0.02142
C 33.17388 31.94925 0.0544
C 33.18287 30.49192 0.00026
C 31.96984 29.86043 0.00682
C 31.9244 28.39388 -0.01779
C 33.21492 27.73654 0.03794
C 33.21612 26.23871 0.01927
C 31.9808 25.54831 0.01574
C 31.99011 24.16192 -0.02383
C 33.23837 23.43244 -0.01429
C 33.22445 22.05241 -0.0136
C 31.94636 21.29491 0.00594
C 31.97594 19.89504 -0.02474
C 33.19927 19.14907 0.00369
C 30.69354 5.00227 0.00716
C 33.25923 17.73251 0.00455
C 30.75806 6.36422 0.02108
C 29.5641 8.49686 0.07705
C 30.72552 30.53047 0.03265
C 29.50534 29.80593 -0.02049
C 29.52856 28.40567 -0.01854
C 30.72584 27.69712 -0.01415
C 30.76369 26.26923 -0.03039
C 29.50719 25.57084 0.01836
C 29.55877 24.16685 0.03531
C 30.76355 23.35502 -0.00669
C 30.76299 21.9749 0.0101
C 29.52803 21.29612 0.01705
C 29.53883 19.93672 -0.0405
C 30.74023 19.12292 -0.01303
C 30.69905 17.76893 -0.01461
C 30.81572 14.86254 -0.02155
C 30.69611 13.44364 -0.00944
C 29.47133 12.82329 -0.03735
C 29.47881 11.35409 -0.00971
C 30.71443 10.67739 0.01518
C 30.73888 9.25578 0.01908
C 29.50896 7.04196 0.0103
C 30.75656 31.92573 0.00261
C 31.98446 17.06593 -0.00644
C 33.25636 14.87054 0.00137
C 1.22236 23.37877 0.01951
C 1.24905 22.02512 -0.01678
C 0.0339 21.2708 0.01223
C 34.40707 19.83533 0.00648
C 1.25563 19.16217 0.02114
C 34.43259 17.01387 -0.02957
C 34.41112 15.67139 0.00343
C 0.00805 12.8165 -0.02656
C 34.41021 11.38067 -0.02442
C 1.24561 10.72201 -0.00027
C 1.22031 9.25828 -0.00583
C 34.42658 8.5244 -0.02302
C 34.42834 7.09422 -0.02849
C 1.24596 6.40583 0.02931
C 1.24409 4.95067 0.00628
C 34.40775 4.19973 -0.0345
C 0.00313 2.85009 -0.00931
C 1.25443 2.15635 -0.00939
C 1.28232 0.76573 -0.00468
C 34.39365 24.07364 -0.02213
C 31.92414 15.60755 -0.01839
C 34.41282 25.56377 0.02712
C 1.27779 27.70427 0.03076
C 33.13763 13.44356 0.00199
C 31.91202 12.78384 0.04381
C 31.96218 11.31992 0.02806
C 33.15796 10.65761 0.01504
C 33.19007 9.19174 -0.00069
C 31.97084 8.57693 0.04926
C 31.98241 7.14401 -0.03838
C 33.20757 6.40871 0.00349
C 33.19828 4.94614 -0.00323
C 31.92832 4.22045 -0.00841
C 31.91872 2.84739 0.0001
C 33.20048 2.14572 -0.02927
C 33.23923 0.68266 -0.01404
C 31.98633 34.06216 0.01027
C 34.39194 32.69573 0.01831
C 1.22892 31.99092 -0.01037
C 1.22654 30.56265 -0.00439
C 34.41902 29.83953 -0.00598
C 34.40878 28.41988 -0.05239
C 1.2242 26.32206 0.00723
C 29.54245 32.64405 0.02326
C 27.06787 34.06781 0.00924
C 28.26817 0.67695 0.0014
C 23.36355 13.49175 0.01153
C 22.08842 12.78424 0.02734
C 22.11799 11.41712 -0.0055
C 23.3611 10.61376 0.01515
C 23.3494 9.21247 -0.00225
C 22.0701 8.53213 0.00071
C 22.13142 7.11127 -0.01107
C 23.40627 6.38956 -0.01586
C 23.30345 4.93197 -0.01971
C 22.09536 4.25445 -0.02118
C 22.13201 2.84612 0.00733
C 23.35046 2.07229 -0.00178
C 23.32107 0.72247 0.00768
C 22.15143 34.06486 -0.0276
C 24.5949 32.65835 0.03005
C 25.82778 31.95403 -0.04078
C 25.79502 30.52364 0.02117
C 24.61846 29.78582 0.02737
C 24.60708 28.40379 -0.00498
C 23.34155 14.93859 0.02239
C 25.8343 27.70134 0.00135
C 22.17584 15.58414 -0.03213
C 23.33796 17.76654 0.03374
C 19.62943 4.2249 -0.01594
C 19.62747 2.80471 0.0106
C 20.90043 2.08687 -0.01154
C 20.86112 0.7215 -0.01721
C 19.68403 34.06942 -0.02422
C 22.1566 32.65107 0.01277
C 23.2624 31.9376 0.00096
C 23.30162 30.48104 -0.01527
C 22.15134 29.78934 0.01087
C 22.14776 28.3663 0.00199
C 23.39508 27.64288 0.01511
C 23.3995 26.22882 -0.00478
C 22.15378 25.54461 -0.01662
C 22.11851 24.13447 -0.01185
C 23.40454 23.35127 0.01126
C 23.32644 21.96071 0.01852
C 22.12021 21.3043 -0.00381
C 22.18347 19.82184 0.03046
C 23.44558 19.12744 0.0296
C 22.11905 16.99963 -0.02845
C 25.821 26.25365 0.03102
C 24.59734 25.54411 0.02555
C 24.59816 24.11673 0.01423
C 28.31381 27.71163 -0.00294
C 28.26117 26.25713 0.00152
C 27.06241 25.57763 0.01257
C 27.08165 24.11417 0.02316
C 28.33979 23.43094 0.04185
C 28.31656 22.04564 0.00194
C 27.07334 21.33726 -0.00621
C 27.08181 19.82026 0.02611
C 27.00929 12.79079 0.02198
C 27.0901 11.37439 0.01094
C 28.26954 10.69322 0.00235
C 28.25588 9.22753 0.01495
C 27.0613 8.54227 0.01259
C 27.02638 7.1179 0.01799
C 28.26839 6.3642 0.01699
C 28.31315 4.97292 -0.00416
C 27.01802 4.30981 0.01177
C 27.06387 2.79137 0.04266
C 28.30445 2.17135 0.01324
C 27.07951 28.39831 0.00826
C 27.083 29.78883 0.00487
C 28.22667 30.4845 -0.00942
C 28.3132 31.95022 -0.02815
C 25.81829 23.39601 -0.00285
C 25.94284 22.04149 -0.009
C 24.58745 21.30944 -0.01199
C 24.58924 19.8846 -0.00229
C 25.89139 19.19367 -0.00938
C 25.76548 13.49673 -0.0264
C 24.55679 12.80652 -0.01154
C 24.5519 11.35478 0.00684
C 25.78788 10.62131 -0.01052
C 3.72696 31.92876 0.01996
C 25.77109 9.18243 -0.01679
C 24.60647 7.11983 0.04306
C 25.78644 6.40888 0.00996
C 25.78983 4.95178 0.00195
C 24.56137 4.29489 -0.00802
C 24.59392 2.86313 -0.00218
C 25.82048 2.11821 -0.01654
C 25.81451 0.70839 -0.00037
C 24.61901 34.01669 -0.0032
C 27.06621 32.64841 0.00622
C 24.57573 8.51197 0.00367
C 2.42836 32.68616 -0.00279
