262
Graphene
C 34.43027 0.13842 0.01295
C 14.80172 32.54955 0.01852
C 12.20891 33.91435 0.01126
C 13.43622 0.57538 -0.01185
C 13.5027 2.05272 -0.01662
C 12.27645 2.79521 -0.00478
C 12.3397 4.14956 0.01511
C 13.52319 31.97153 0.00199
C 12.09763 32.38681 0.01087
C 9.84342 0.08428 -0.01527
C 11.05602 0.69731 0.00096
C 11.07537 2.07489 0.01277
C 9.82893 2.75673 -0.02422
C 9.78798 4.15974 -0.01721
C 16.05549 31.88368 -0.00381
C 10.08608 18.07938 -0.01154
C 10.8455 31.75907 -0.01594
C 9.87124 32.75327 0.00742
C 7.37106 0.03859 -0.00311
C 8.48969 0.77263 0.00675
C 8.53601 2.18297 -0.00865
C 7.30292 2.87309 0.0058
C 7.33275 4.30929 -0.00652
C 8.65252 4.76921 -0.04076
C 7.24363 7.57952 -0.00703
C 7.31454 15.79822 0.00654
C 7.511 17.18647 -0.04422
C 8.80793 17.70022 -0.02957
C 7.36178 28.31432 -0.00831
C 10.17527 30.45204 0.0106
C 15.91192 4.90698 0.03046
C 14.74753 4.15255 0.0296
C 14.62036 2.79916 0.03374
C 20.94261 2.1165 -0.01199
C 19.70931 2.79034 -0.009
C 19.65275 4.28468 -0.00285
C 20.90018 5.05933 0.01423
C 20.84018 6.39243 0.02555
C 19.47611 7.06003 0.03102
C 19.64381 8.41106 0.00135
C 20.8287 9.07307 -0.00498
C 20.67662 10.63952 0.02737
C 19.65597 11.43118 0.02117
C 19.32845 12.72805 -0.04078
C 21.07772 28.93218 0.03005
C 19.61143 29.93349 -0.0276
C 20.78864 30.79812 0.00768
C 20.90232 32.046 -0.00178
C 19.59973 32.79694 0.00733
C 17.22166 0.06627 -0.02118
C 18.39683 0.80651 -0.01971
C 18.43645 2.14363 -0.01586
C 17.13412 2.85177 -0.01107
C 17.13245 4.21744 0.00071
C 18.38197 4.90892 -0.00225
C 18.33093 6.33734 0.01515
C 18.50164 30.52238 -0.0055
C 18.42548 32.10767 0.02734
C 17.21253 32.67081 0.01153
C 14.74715 34.01626 0.02239
C 15.95089 0.72917 -0.03213
C 15.89931 2.15716 -0.02845
C 7.60256 29.72555 0.00364
C 8.91816 30.60378 -0.017
C 8.59796 32.0881 0.00143
C 7.37017 32.62328 0.00667
C 3.66673 0.75015 -0.00619
C 3.7225 2.22572 0.01848
C 2.52077 2.95723 0.02098
C 2.47484 4.38794 -0.03113
C 3.7211 5.10913 0.0351
C 3.66057 6.53913 0.00422
C 2.45381 7.19661 0.00798
C 2.37446 8.66528 0.00228
C 3.64177 9.33685 -0.00114
C 3.59881 10.75733 -0.02696
C 2.42706 11.45145 -0.00368
C 2.43909 12.85283 -0.0108
C 3.70341 13.56523 -0.01957
C 3.69221 14.93882 0.02058
C 2.4091 15.61371 0.01965
C 2.49522 16.99753 -0.03682
C 3.71694 17.6802 0.00052
C 3.78224 19.1481 0.00374
C 2.49078 19.90039 -0.02813
C 2.42245 21.31193 -0.01952
C 3.56091 21.99544 0.05265
C 3.54926 23.45506 -0.01717
C 2.29547 24.10503 0.00244
C 2.22925 25.62015 0.02299
C 3.54653 26.30403 0.03542
C 3.63882 27.73638 0.01416
C 2.34872 28.36456 0.01945
C 2.43274 29.80203 -0.01454
C 3.6864 30.46373 0.01241
C 2.4381 0.03618 -0.02162
C 20.89071 0.77954 -0.00229
C 4.86237 32.602 0.00889
C 6.21777 30.44799 0.00979
C 4.85315 33.99284 -0.0054
C 6.09663 0.72894 0.00755
C 6.12226 2.09017 0.01739
C 4.9885 2.94299 0.03754
C 4.99171 4.45213 -0.03557
C 6.23635 5.11689 -0.00111
C 6.20442 6.57723 0.04892
C 4.88922 7.20353 0.01452
C 4.83731 8.57313 -0.01581
C 6.21392 9.12813 0.02691
C 6.09952 10.5567 -0.01979
C 4.94909 11.35144 0.02188
C 4.89071 12.77467 -0.00316
C 6.16517 13.43295 -0.0331
C 6.20102 14.87249 -0.0258
C 4.938 15.60852 0.03338
C 4.93659 17.12335 -0.00491
C 6.12963 17.84916 -0.00109
C 6.08868 19.20817 0.03698
C 4.92604 19.91656 -0.02213
C 4.86713 21.35815 0.00028
C 6.02587 22.08145 -0.00289
C 6.00001 23.47816 -0.00066
C 4.84596 24.14611 0.00213
C 4.71877 25.5734 -0.05302
C 5.99605 26.20016 -0.04147
C 6.18933 27.56333 -0.02815
C 4.97121 28.42238 0.03505
C 4.95537 29.7893 0.01443
C 6.16794 31.9422 -0.00481
C 19.67128 0.07774 -0.00938
C 22.18292 32.69282 -0.0264
C 23.39913 31.94305 -0.01154
C 33.14099 2.21423 -0.00323
C 31.93793 2.99173 0.00349
C 31.92937 4.37092 -0.03838
C 33.17593 5.08726 0.04926
C 33.16806 6.49553 -0.00069
C 31.91185 7.17733 0.01504
C 32.01985 8.57478 0.02806
C 33.15046 9.32049 0.04381
C 33.11118 10.70164 0.00199
C 31.92275 11.46046 0.00137
C 31.98668 12.83006 -0.01839
C 33.14901 13.57632 -0.00644
C 33.06003 14.97361 0.00455
C 31.84426 15.65061 0.00369
C 33.09215 17.7156 -0.02474
C 33.28508 19.1086 0.00594
C 33.11308 21.89751 -0.0136
C 32.96541 23.34215 -0.01429
C 31.76949 24.06041 -0.02383
C 31.55685 25.49309 0.01574
C 33.00246 26.30842 0.01927
C 33.01176 27.67994 0.03794
C 31.83048 28.45151 -0.01779
C 31.87809 29.89841 0.00682
C 33.14218 30.49268 0.00026
C 33.18109 31.9666 0.0544
C 31.94886 32.71617 -0.02142
C 29.55874 0.11247 0.01428
C 30.80039 0.73693 -0.01694
C 33.17965 0.77577 -0.00841
C 30.69354 2.16299 0.01713
C 32.02047 0.06163 0.0001
C 1.20705 32.0257 -0.01404
C 1.21484 0.79227 -0.00468
C 1.25307 2.24681 -0.00939
C 34.3936 2.9106 -0.00931
C 0.01106 4.30377 -0.0345
C 1.21759 5.05288 0.00628
C 1.16179 6.50765 0.02931
C 34.42548 7.23858 -0.02849
C 34.36288 8.62407 -0.02302
C 1.12458 9.38483 -0.00583
C 1.16155 10.79646 -0.00027
C 34.36804 11.43295 -0.02442
C 34.36641 12.83591 -0.02656
C 1.18823 13.53945 0.00343
C 1.21126 14.96038 -0.02957
C 34.32789 15.70979 0.02114
C 34.32669 17.15174 0.00648
C 1.19447 17.76159 0.01223
C 1.29748 19.16419 -0.01678
C 34.41541 19.82398 0.01951
C 34.36636 21.23829 -0.02213
C 1.14706 22.02376 0.02712
C 1.05846 23.35295 0.00723
C 34.26448 24.07953 0.03076
C 34.20831 25.50429 -0.05239
C 0.99209 26.1886 -0.00598
C 1.11602 27.61342 -0.00439
C 34.31322 28.328 -0.01037
C 34.38651 29.79304 0.01831
C 1.17191 30.51261 0.01027
C 0.03125 32.74505 -0.02927
C 3.65395 31.89812 0.0076
C 29.44577 2.86606 0.00346
C 30.72199 5.06784 0.00716
C 25.80973 0.68065 0.01495
C 25.82255 2.09144 0.00235
C 24.59691 2.79515 0.01094
C 24.62032 4.2397 0.02198
C 25.85444 4.94162 0.02611
C 25.83039 6.41307 -0.00621
C 24.57425 7.12017 0.00194
C 24.58964 8.56621 0.04185
C 25.7893 9.31592 0.02316
C 25.75578 10.76448 0.01257
C 24.52477 11.33175 0.00152
C 24.49496 29.79113 -0.00294
C 25.83818 30.4306 0.00826
C 25.87664 31.8941 0.00487
C 24.64426 32.63842 -0.00942
C 22.1883 34.05746 -0.02815
C 23.31962 0.66987 0.00622
C 23.31547 2.19933 -0.0032
C 22.0659 2.97211 -0.00037
C 22.16105 4.30172 -0.01654
C 23.43467 4.97727 -0.00218
C 23.32604 6.4164 -0.00802
C 22.16027 7.0963 0.00195
C 22.07539 8.46134 0.00996
C 23.38756 9.17571 0.04306
C 23.28419 10.72356 0.00367
C 21.99185 11.30562 -0.01679
C 21.99472 29.75217 -0.01052
C 23.2999 30.42545 0.00684
C 24.57567 34.06873 0.01259
C 29.48824 4.2911 0.00307
C 27.05424 32.62508 0.01799
C 28.2458 30.69104 -0.00416
C 30.71445 6.53921 0.02108
C 29.45901 7.15005 0.0103
C 29.46631 8.56154 0.07705
C 30.75563 9.24714 0.01908
C 30.69505 10.6807 0.01518
C 29.48833 11.36424 -0.00971
C 29.66925 12.74679 -0.03735
C 30.73423 13.55519 -0.00944
C 30.47853 26.37439 -0.02155
C 30.41547 27.69786 -0.01461
C 29.324 28.57652 -0.01303
C 29.48385 30.04801 -0.0405
C 30.72453 30.62512 0.01705
C 30.71285 32.00216 0.0101
C 29.5506 32.75051 -0.00669
C 27.08418 0.01758 0.03531
C 28.29905 0.72951 0.01836
C 28.26232 2.10454 -0.03039
C 27.02742 2.73255 -0.01415
C 27.0469 4.2092 -0.01854
C 28.21757 4.94037 -0.02049
C 28.29403 6.40104 0.03265
C 26.98632 7.14946 0.00261
C 27.06558 8.57584 0.02326
C 28.27577 9.18593 0.00924
C 28.25033 10.67247 0.0014
C 27.06453 11.37812 0.01324
C 27.94954 28.42222 0.04266
C 27.21599 29.73844 0.01177
C 28.26569 32.06693 0.01699
C 2.44959 32.72745 0.02162
