279
Graphene
C 34.36812 0.05447 0.01295
C 9.84848 7.21288 0.01277
C 9.86361 8.63338 -0.02422
C 11.06178 9.53256 -0.01721
C 11.17767 10.87339 -0.01154
C 9.7705 11.39285 0.0106
C 9.73486 12.81726 -0.01594
C 11.1006 13.31087 0.00742
C 11.07822 14.7958 -0.00311
C 9.85833 15.55332 0.00675
C 9.88036 17.00115 -0.00865
C 11.06314 17.58078 0.0058
C 10.11092 28.49583 -0.00652
C 9.91986 29.80582 -0.04076
C 11.13788 30.59045 -0.00703
C 11.11369 31.91159 0.00654
C 9.84115 32.73613 -0.04422
C 7.3957 34.03166 -0.02957
C 8.61171 14.99013 -0.01581
C 8.55677 13.58107 0.01452
C 7.30467 12.89107 0.04892
C 7.26105 11.42933 -0.00111
C 8.54841 10.72353 -0.03557
C 8.5619 9.21646 0.03754
C 11.16385 6.62655 0.00096
C 7.36061 8.56182 0.01739
C 8.5202 6.48687 -0.0054
C 8.61054 5.08097 0.00667
C 7.37034 4.29394 0.00143
C 7.431 2.89705 -0.017
C 8.71268 2.18468 0.00364
C 8.66154 0.75876 -0.00831
C 7.33821 7.17917 0.00755
C 7.33847 15.58583 0.02691
C 11.12115 5.2229 -0.01527
C 9.93662 2.9856 0.00199
C 14.72327 21.41685 0.02737
C 15.28885 22.57113 0.02117
C 15.90495 23.80279 -0.04078
C 14.9873 25.15325 0.03005
C 15.99947 26.08656 -0.0276
C 15.94173 27.60847 0.00768
C 14.57283 28.34991 -0.00178
C 14.64289 29.78831 0.00733
C 15.93801 30.48577 -0.02118
C 16.00332 31.89494 -0.01971
C 14.84069 32.69889 -0.01586
C 12.32469 0.01129 -0.01107
C 13.53102 0.73837 0.00071
C 13.60489 2.18892 -0.00225
C 12.41059 2.94994 0.01515
C 12.22487 4.37663 -0.0055
C 12.16058 12.384 0.02734
C 11.14531 2.21464 0.01511
C 11.12732 0.78021 -0.00478
C 9.95731 0.09511 -0.01662
C 12.41219 32.61723 -0.01185
C 13.62734 31.94454 0.01126
C 13.49034 30.56776 0.01852
C 9.86474 4.45339 0.01087
C 12.26646 29.83801 -0.00381
C 13.25225 27.79203 0.0296
C 13.64871 19.03851 0.03374
C 13.45087 17.64151 -0.02845
C 12.26249 16.92764 -0.03213
C 12.20378 15.51517 0.02239
C 13.46998 14.93012 0.01153
C 12.24178 28.44586 0.03046
C 13.94543 20.24651 -0.00498
C 7.33352 17.03219 -0.01979
C 8.48538 19.02753 -0.00316
C 4.897 32.69076 -0.03682
C 2.45582 0.05349 0.00052
C 3.6383 0.77123 0.00374
C 3.68705 2.16497 -0.02813
C 2.53006 2.94267 -0.01952
C 2.50795 4.32137 0.05265
C 3.7277 5.04055 -0.01717
C 3.68942 6.4355 0.00244
C 2.49092 7.17402 0.02299
C 2.44475 8.58826 0.03542
C 3.65909 9.23997 0.01416
C 3.61109 10.67671 0.01945
C 2.41162 11.46655 -0.01454
C 2.32253 12.85332 0.01241
C 3.56729 13.55463 0.0076
C 3.52545 14.94198 0.02162
C 2.25125 15.65841 -0.0014
C 3.74161 30.54149 -0.02689
C 2.4804 29.84348 -0.01046
C 2.45699 28.43234 -0.00891
C 3.75165 27.66911 0.02819
C 3.67531 26.23183 0.00165
C 2.46654 25.52743 -0.02971
C 6.12794 31.91253 0.01965
C 2.35709 24.17535 0.02894
C 3.48214 22.01169 0.00444
C 2.25129 21.20859 -0.00925
C 2.41854 19.86314 0.01877
C 3.63257 19.18545 0.01363
C 3.58401 17.77474 -0.02162
C 2.35014 17.02096 0.00415
C 3.59167 23.44327 -0.01789
C 8.61281 17.69096 0.02188
C 6.12169 30.54397 0.02058
C 4.9962 28.37953 -0.0108
C 7.34634 19.74497 -0.0331
C 7.56797 28.46223 -0.0258
C 7.49144 29.79982 0.03338
C 8.70615 30.60743 -0.00491
C 8.67916 31.9619 -0.00109
C 7.41289 32.56761 0.03698
C 4.89551 0.09731 -0.02213
C 6.13938 0.71279 0.00028
C 6.17062 2.13776 -0.00289
C 4.90944 2.87822 -0.00066
C 4.94652 4.29881 0.00213
C 6.17368 4.99351 -0.05302
C 6.06311 6.43379 -0.04147
C 4.89416 7.17443 -0.02815
C 4.92274 8.62029 0.03505
C 6.1841 9.19165 0.01443
C 6.15189 10.68098 0.00979
C 6.32549 27.65525 -0.00368
C 6.16456 26.32106 -0.02696
C 5.01687 25.53964 -0.00114
C 4.86765 24.01945 0.00228
C 4.71904 21.42431 0.00798
C 4.867 19.96862 0.00422
C 4.95753 29.8251 -0.01957
C 6.07884 19.17278 0.0351
C 4.8333 17.02573 0.02098
C 4.77822 15.64576 0.01848
C 6.0415 14.98079 -0.00619
C 6.02048 13.5332 -0.02162
C 4.81006 12.78735 0.00889
C 4.89668 11.34082 -0.00481
C 6.13992 17.69664 -0.03113
C 3.68541 32.00063 -0.01536
C 16.20701 18.86103 0.00135
C 14.71405 16.91617 0.02555
C 31.88606 4.36429 -0.03838
C 33.19988 5.02248 0.04926
C 33.19381 6.39721 -0.00069
C 31.99609 7.06739 0.01504
C 31.9103 8.50413 0.02806
C 33.1461 9.21207 0.04381
C 33.15215 10.57865 0.00199
C 31.89468 11.31723 0.00137
C 31.81124 12.67111 -0.01839
C 33.01079 13.57473 -0.00644
C 33.05654 14.99003 0.00455
C 33.13634 22.06122 0.00369
C 33.03027 23.37164 -0.02474
C 31.86521 24.15487 0.00594
C 31.85033 25.60376 -0.0136
C 33.09952 26.32994 -0.01429
C 33.1362 27.767 -0.02383
C 29.61034 8.22319 0.00716
C 29.42518 6.86585 0.00307
C 30.76635 6.38683 0.00346
C 30.68634 5.02146 0.01713
C 29.34246 4.34187 -0.01694
C 29.51283 2.8595 0.01428
C 31.91764 2.93794 0.00349
C 30.76296 2.20002 -0.02142
C 29.41755 0.11176 0.00026
C 31.99378 32.73771 0.00682
C 33.21732 32.03961 -0.01779
C 33.05663 30.54185 0.03794
C 31.8572 29.84596 0.01927
C 31.94803 28.45655 0.01574
C 30.62145 0.77316 0.0544
C 30.57672 9.23344 0.02108
C 33.16464 2.32257 -0.00323
C 31.96302 0.07151 0.0001
C 1.16741 0.74056 -0.00468
C 1.22014 2.16654 -0.00939
C 0.00071 2.92871 -0.00931
C 0.02927 4.34262 -0.0345
C 1.33044 5.0315 0.00628
C 1.32537 6.44911 0.02931
C 0.00107 7.13015 -0.02849
C 34.3603 8.55127 -0.02302
C 1.18769 9.30038 -0.00583
C 1.20208 10.72164 -0.00027
C 34.31433 11.3515 -0.02442
C 34.26701 12.82495 -0.02656
C 1.03695 13.52429 0.00343
C 0.99608 14.98681 -0.02957
C 34.18372 15.72668 0.02114
C 34.31728 17.14777 0.00648
C 1.06921 17.79156 0.01223
C 34.40861 32.70156 -0.02927
C 1.19838 32.01177 -0.01404
C 1.19926 30.59116 0.01027
C 34.36155 29.89769 0.01831
C 0.01379 28.42594 -0.01037
C 1.23336 27.75937 -0.00439
C 33.15123 0.88644 -0.00841
C 1.2167 26.25894 -0.00598
C 34.32389 24.11455 0.03076
C 1.10644 23.40466 0.00723
C 1.09902 21.97852 0.02712
C 34.32291 21.23283 -0.02213
C 34.32347 19.73068 0.01951
C 1.14519 19.1505 -0.01678
C 34.31988 25.58321 -0.05239
C 16.00006 17.51731 0.03102
C 30.54568 10.65772 0.0103
C 30.65752 26.35553 0.01908
C 23.32432 30.53056 0.00194
C 23.34712 31.96698 0.04185
C 22.10912 32.67957 0.02316
C 20.19997 34.07844 0.01257
C 19.84205 24.18257 0.00152
C 19.72628 25.48834 -0.00294
C 20.96254 26.22 0.00826
C 20.95316 27.65953 0.00487
C 19.65291 28.37149 -0.00942
C 19.71382 29.81487 -0.02815
C 20.92464 30.52527 0.00622
C 20.95241 31.89338 -0.0032
C 19.76154 32.79764 -0.00037
C 17.15647 34.01269 -0.01654
C 17.34232 17.45164 -0.00218
C 17.16471 19.77418 -0.00802
C 17.99004 20.90345 0.00195
C 14.63925 15.42963 0.01423
C 16.05595 0.61988 -0.00285
C 14.73934 0.05168 -0.009
C 17.23665 32.64634 -0.01199
C 18.53173 31.94788 -0.00229
C 18.42861 30.5306 -0.00938
C 22.14988 29.84973 -0.00621
C 17.18098 29.77421 -0.0264
C 18.45473 27.6655 0.00684
C 18.4936 26.30763 -0.01052
C 17.30484 25.51825 -0.01679
C 17.26611 24.10528 0.00367
C 18.59471 23.43661 0.04306
C 18.42139 22.08698 0.00996
C 17.14864 28.31122 -0.01154
C 29.40452 25.70584 0.07705
C 22.06696 28.46694 0.02611
C 23.55786 26.25578 0.01094
C 30.6965 27.78432 0.01518
C 29.47142 28.4627 -0.00971
C 29.42919 29.84919 -0.03735
C 30.65828 30.59991 -0.00944
C 30.68911 32.01108 -0.02155
C 29.4407 32.73012 -0.01461
C 26.95545 0.09482 -0.01303
C 28.15743 0.85129 -0.0405
C 28.32057 2.26326 0.01705
C 27.11177 2.87475 0.0101
C 28.11404 4.87527 -0.00669
C 28.28395 26.32026 0.03531
C 28.17908 27.71556 0.01836
C 26.9783 28.42603 -0.03039
C 26.98904 29.87251 -0.01415
C 28.21495 30.52505 -0.01854
C 28.22412 32.04294 -0.02049
C 22.41646 25.70917 0.00235
C 23.0607 0.56467 0.01495
C 21.79199 34.05873 0.01259
C 24.54953 32.72616 0.01799
C 25.76105 32.02688 0.01699
C 25.77026 30.62662 -0.00416
C 23.32542 27.81316 0.02198
C 24.61301 29.90726 0.01177
C 25.70867 27.6492 0.01324
C 25.4382 26.29436 0.0014
C 25.93209 2.23033 0.00924
C 25.6638 0.87943 0.02326
C 24.41321 0.12461 0.00261
C 26.97459 32.75368 0.03265
C 24.53037 28.5671 0.04266
C 2.42338 32.68045 0.03101
