313
Graphene
C 34.40371 0.03755 0.01295
C 9.90138 21.3918 -0.0331
C 9.82674 19.87567 -0.00316
C 11.08731 19.22364 0.02188
C 11.11451 17.83648 -0.01979
C 9.90403 17.02924 0.02691
C 9.8299 15.65742 -0.01581
C 10.98844 14.85381 0.01452
C 10.96074 13.42403 0.04892
C 9.74274 12.67658 -0.00111
C 9.81581 11.28308 -0.03557
C 11.09938 10.61414 0.03754
C 11.10927 9.24846 0.01739
C 9.90657 8.54533 0.00755
C 9.81673 7.13097 -0.0054
C 11.12131 6.43403 0.00667
C 11.20584 21.86936 -0.0258
C 9.82083 23.96669 0.03338
C 9.71603 29.67583 -0.00491
C 11.05598 31.77493 -0.00109
C 8.58137 14.93524 -0.00619
C 8.58595 13.44506 -0.02162
C 7.34592 12.83758 0.00889
C 7.26405 11.37758 -0.00481
C 8.52539 10.70891 0.00979
C 8.60302 9.2724 0.01443
C 7.42603 8.55157 0.03505
C 11.13418 5.06908 0.00143
C 7.41042 7.11875 -0.02815
C 8.68192 4.94534 -0.05302
C 7.45273 4.28061 0.00213
C 7.44643 2.87282 -0.00066
C 8.63588 2.18825 -0.00289
C 8.6101 0.77136 0.00028
C 7.37139 0.10127 -0.02213
C 9.91907 32.49701 0.03698
C 8.61524 6.36821 -0.04147
C 7.35589 15.67334 0.01848
C 9.92129 4.30172 -0.017
C 11.02489 2.10206 -0.00831
C 13.50346 2.08824 0.00199
C 13.51311 0.62872 0.01511
C 12.25415 34.05184 -0.00478
C 14.8001 32.45482 -0.01662
C 16.12856 31.87581 -0.01185
C 16.08937 13.38657 0.01126
C 14.82634 12.88701 0.01852
C 14.58292 11.58314 -0.00381
C 14.73848 4.14902 0.03046
C 14.72685 2.79991 0.0296
C 15.97815 2.15392 0.03374
C 15.96153 0.70121 -0.02845
C 14.76661 34.03357 -0.03213
C 17.20697 32.66263 0.02239
C 18.40116 32.0226 0.01153
C 12.26661 2.86041 0.01087
C 12.33362 4.25717 -0.01527
C 13.68615 5.04182 0.00096
C 13.47709 6.41818 0.01277
C 11.03001 0.66054 -0.02957
C 9.86759 33.97874 -0.04422
C 12.23319 32.49754 0.00654
C 13.50589 31.98378 -0.00703
C 12.19442 21.14671 -0.04076
C 12.29011 19.91276 -0.00652
C 12.26178 17.0509 0.0058
C 9.88585 2.83719 0.00364
C 12.34605 15.6982 -0.00865
C 13.43579 13.64067 -0.00311
C 12.23091 12.81106 0.00742
C 12.31874 11.44439 -0.01594
C 13.72393 10.56094 0.0106
C 13.52942 9.18334 -0.01154
C 12.37759 8.53149 -0.01721
C 12.3782 7.13845 -0.02422
C 13.5222 14.92146 0.00675
C 7.37428 17.07481 0.02098
C 8.65074 17.72659 -0.03113
C 8.55697 19.115 0.0351
C 3.68921 9.27695 -0.02759
C 2.41809 8.53421 0.0402
C 2.40513 7.13034 0.00572
C 3.63665 6.40452 0.03592
C 3.6695 4.99509 0.00406
C 2.47717 4.24548 0.00943
C 2.47146 2.81643 0.02841
C 3.73645 2.18672 -0.01111
C 3.66632 0.68386 -0.01275
C 2.45212 34.06787 0.00985
C 4.88109 32.575 -0.02245
C 6.1335 31.92266 -0.00428
C 6.10977 30.48666 0.03101
C 4.88556 29.79674 -0.01536
C 4.90834 28.39987 -0.02689
C 3.64705 10.65237 0.03589
C 2.44861 11.36947 -0.00033
C 2.46046 12.77539 -0.01062
C 3.71512 13.4528 0.01364
C 3.65792 30.46667 -0.02896
C 2.4047 29.77296 -0.00131
C 2.41092 28.42378 -0.01118
C 3.70437 27.66678 -0.014
C 3.6915 26.28147 0.02147
C 2.42815 25.58113 0.00373
C 2.47385 24.13568 -0.00191
C 6.14164 27.65577 -0.01046
C 3.64697 23.46129 0.00438
C 2.46438 21.34501 0.00093
C 2.50721 19.97356 0.00057
C 3.69803 19.22814 -0.01634
C 3.62431 17.80912 -0.00334
C 2.42265 17.0747 0.02339
C 2.45462 15.64162 0.01641
C 3.66731 14.91046 -0.00719
C 3.73362 22.01604 0.01291
C 6.13342 26.30041 -0.00891
C 4.92553 25.58473 0.02819
C 4.91509 24.12628 0.00165
C 6.21864 2.1047 0.05265
C 6.125 0.71034 -0.01952
C 4.90112 34.02083 -0.02813
C 7.33942 32.75337 0.00374
C 8.59816 32.00808 0.00052
C 8.61966 30.47314 -0.03682
C 7.3529 29.78471 0.01965
C 5.00136 2.84586 -0.01717
C 7.41005 28.43796 0.02058
C 8.70629 26.31917 -0.0108
C 7.38723 25.5548 -0.00368
C 7.25949 24.15332 -0.02696
C 8.56968 23.52302 -0.00114
C 8.61894 22.02687 0.00228
C 7.42155 21.30559 0.00798
C 7.40883 19.81313 0.00422
C 8.68467 27.57768 -0.01957
C 18.47049 30.56541 0.02734
C 4.93515 4.31607 0.00244
C 6.16078 6.41492 0.03542
C 6.09341 23.3876 -0.02971
C 6.15561 21.98629 0.02894
C 4.91573 21.27115 -0.01789
C 4.92818 19.91202 0.00444
C 6.14102 19.1941 -0.00925
C 6.12536 17.79269 0.01877
C 4.86471 17.10659 0.01363
C 6.14463 4.99148 0.02299
C 4.90263 15.6938 -0.02162
C 6.11138 13.48815 -0.0014
C 4.88 12.74086 0.02162
C 4.8813 11.32095 0.0076
C 6.0906 10.59776 0.01241
C 6.12515 9.22069 -0.01454
C 4.87683 8.49054 0.01945
C 4.87203 7.0622 0.01416
C 6.21132 14.93543 0.00415
C 3.7124 31.89349 -0.01004
C 17.11986 29.99899 -0.0055
C 17.0806 2.86119 -0.00225
C 33.24939 23.42363 0.01927
C 33.24796 22.00811 0.01574
C 31.94797 21.31839 -0.02383
C 31.97535 19.90066 -0.01429
C 33.19016 19.16937 -0.0136
C 33.20375 17.76952 0.00594
C 31.97165 17.03128 -0.02474
C 31.98613 15.65519 0.00369
C 33.21131 14.96507 0.00455
C 33.20265 13.56746 -0.00644
C 31.99494 12.85723 -0.01839
C 31.94782 11.49473 0.00137
C 33.16051 10.71613 0.00199
C 33.14311 9.30316 0.04381
C 31.86711 8.60772 0.02806
C 32.04234 24.09908 0.03794
C 31.98253 25.55394 -0.01779
C 33.20172 26.31532 0.00682
C 33.17489 27.70717 0.00026
C 30.71331 10.70597 -0.00944
C 30.66555 9.21385 -0.03735
C 29.50579 8.48008 -0.00971
C 29.45867 7.06565 0.01518
C 30.76628 6.43046 0.01908
C 30.69058 4.97758 0.07705
C 29.50944 4.26382 0.0103
C 32.03972 7.1842 0.01504
C 29.51611 2.77545 0.02108
C 30.71446 0.71617 0.00307
C 29.48626 34.0431 0.00346
C 31.95954 32.65295 0.01713
C 33.15238 31.95607 -0.01694
C 33.07181 30.53805 0.01428
C 31.86473 29.78411 -0.02142
C 31.8913 28.39775 0.0544
C 30.7915 2.14752 0.00716
C 29.35561 11.42801 -0.02155
C 33.24352 6.47177 -0.00069
C 31.93882 4.26636 -0.03838
C 0.01105 15.64241 0.02114
C 1.24528 14.94181 -0.02957
C 1.2809 13.51569 0.00343
C 0.04695 12.86819 -0.02656
C 34.4175 11.37725 -0.02442
C 1.20306 10.65569 -0.00027
C 1.18142 9.28957 -0.00583
C 34.37845 8.57762 -0.02302
C 0.03595 7.13107 -0.02849
C 1.2465 6.3567 0.02931
C 1.23926 4.93221 0.00628
C 34.40103 4.32509 -0.0345
C 0.00047 2.88012 -0.00931
C 1.17947 2.11535 -0.00939
C 1.21363 0.72181 -0.00468
C 34.39689 17.10808 0.00648
C 1.22632 17.79941 0.01223
C 1.2822 19.18537 -0.01678
C 0.03939 19.79455 0.01951
C 32.01469 2.80904 0.00349
C 33.24763 2.15328 -0.00323
C 33.19923 0.75102 -0.00841
C 31.95094 34.07276 0.0001
C 34.42538 32.69102 -0.02927
C 1.22638 31.88886 -0.01404
C 1.1627 30.49145 0.01027
C 33.15888 5.02494 0.04926
C 34.33079 29.82863 0.01831
C 1.19597 27.73548 -0.00439
C 1.15743 26.28216 -0.00598
C 34.40526 25.54041 -0.05239
C 0.0511 24.13786 0.03076
C 1.28038 23.4295 0.00723
C 1.25501 22.00579 0.02712
C 0.03733 21.21164 -0.02213
C 34.38368 28.40421 -0.01037
C 29.60426 12.71698 -0.01461
C 30.68156 13.50714 -0.01303
C 30.70928 14.89395 -0.0405
C 22.03821 2.89748 -0.01199
C 23.37684 2.16399 -0.00229
C 23.31703 0.74554 -0.00938
C 22.12659 0.0518 -0.0264
C 24.56496 32.70904 -0.01154
C 25.79193 31.95143 0.00684
C 25.81156 30.58317 -0.01052
C 24.50957 29.82881 -0.01679
C 24.8144 28.4879 0.00367
C 25.73876 27.75092 0.04306
C 25.82588 9.097 0.00996
C 24.5099 8.65561 0.00195
C 24.59471 7.10931 -0.00802
C 25.77941 6.35334 -0.00218
C 25.81801 4.91581 -0.01654
C 22.0908 4.2281 -0.009
C 23.21957 5.04032 -0.00285
C 23.56299 6.33591 0.01423
C 23.26685 9.37758 0.02555
C 18.33342 2.22803 0.00071
C 18.37917 0.70231 -0.01107
C 17.15739 0.05374 -0.01586
C 19.63673 32.64385 -0.01971
C 20.9355 32.02728 -0.02118
C 20.92228 30.4951 0.00733
C 19.63116 29.88761 -0.00178
C 24.54558 4.24637 -0.00037
C 19.61201 2.74673 0.00768
C 20.82662 0.73536 0.03005
C 19.64254 0.02632 -0.04078
C 22.183 32.68029 0.02117
C 23.40423 32.00676 0.02737
C 23.32767 30.55184 -0.00498
C 22.14005 29.98878 0.00135
C 23.28916 10.54742 0.03102
C 20.79908 2.16971 -0.0276
C 24.55489 2.83033 -0.0032
C 25.85469 2.14251 0.00622
C 25.82062 0.75839 -0.02815
C 30.66859 31.93483 0.04266
C 30.68401 30.50102 0.01324
C 29.4829 29.77834 0.0014
C 29.43819 28.38968 0.00924
C 30.64515 27.68681 0.02326
C 30.74601 26.21633 0.00261
C 29.36407 25.46642 0.03265
C 29.50235 32.61971 0.01177
C 29.58573 24.14066 -0.02049
C 30.73579 21.98926 -0.01415
C 29.49713 21.15177 -0.03039
C 29.53801 19.91261 0.01836
C 30.73502 19.13936 0.03531
C 30.6614 17.71895 -0.00669
C 29.50059 16.86764 0.0101
C 29.67 15.73696 0.01705
C 30.75218 23.42144 -0.01854
C 17.22493 12.94753 0.01515
C 26.99881 34.02369 -0.00416
C 28.32914 2.00323 0.01799
C 24.60114 0.09357 -0.00942
C 26.99647 32.62716 0.00487
C 28.23823 31.90433 0.00826
C 28.29016 30.4989 -0.00294
C 27.03985 29.85967 0.00152
C 26.96893 28.38804 0.01257
C 28.1883 27.6556 0.02316
C 28.2438 0.61041 0.01699
C 28.23916 26.30455 0.04185
C 28.27132 9.22192 -0.00621
C 27.01996 8.56052 0.02611
C 27.01495 7.13462 0.02198
C 28.17877 6.3671 0.01094
C 28.21059 4.92641 0.00235
C 27.05314 4.18823 0.01495
C 27.1076 2.75398 0.01259
C 28.37383 10.52754 0.00194
C 2.5042 32.6075 0.00488
