327
Graphene
C 0.01789 0.02064 0.01295
C 13.55191 0.6779 0.00213
C 12.2612 0.03906 -0.00066
C 14.77404 32.67803 -0.00289
C 16.03352 31.93948 0.00028
C 14.78992 19.89042 -0.02213
C 15.99857 19.19601 0.03698
C 15.94349 17.67952 -0.00109
C 13.49908 2.14517 -0.05302
C 14.72968 16.93861 -0.00491
C 15.99526 14.89446 -0.0258
C 16.01489 13.49583 -0.0331
C 14.7536 12.77703 -0.00316
C 14.78022 11.35127 0.02188
C 16.04252 10.63204 -0.01979
C 15.9712 9.31129 0.02691
C 14.77015 8.50992 -0.01581
C 14.73511 15.55918 0.03338
C 12.27298 2.83354 -0.04147
C 12.32855 4.20869 -0.02815
C 13.48093 4.93824 0.03505
C 9.82186 2.86714 -0.0108
C 11.08324 2.10469 -0.00368
C 11.04798 0.70424 -0.02696
C 9.7854 0.03697 -0.00114
C 13.56878 19.22214 0.00228
C 13.53843 17.75738 0.00798
C 12.26988 17.08405 0.00422
C 12.31641 15.60544 0.0351
C 13.50451 14.89451 -0.03113
C 13.5296 13.47303 0.02098
C 12.32115 12.77719 0.01848
C 12.31101 11.42158 -0.00619
C 13.50688 10.67628 -0.02162
C 13.50751 9.28621 0.00889
C 12.29129 8.4883 -0.00481
C 12.29304 7.08493 0.00979
C 13.55862 6.42708 0.01443
C 14.81496 7.09628 0.01452
C 9.80961 4.22538 -0.01957
C 15.98672 6.39599 0.04892
C 14.75884 4.21399 -0.03557
C 18.41326 13.45696 0.0106
C 17.22147 12.78425 -0.01154
C 17.26003 11.36757 -0.01721
C 18.41965 10.66348 -0.02422
C 18.45944 9.22588 0.01277
C 17.16075 8.55715 0.00096
C 17.19364 7.12315 -0.01527
C 18.45872 14.82685 -0.01594
C 18.45923 6.34252 0.01087
C 17.2095 4.28473 0.01511
C 17.21977 2.81957 -0.00478
C 18.412 2.1416 -0.01662
C 18.42601 0.71989 -0.01185
C 17.25405 34.04245 0.01126
C 19.69491 32.681 0.01852
C 20.92706 31.90048 -0.00381
C 18.46474 4.95449 0.00199
C 17.23512 15.60832 0.00742
C 17.23255 17.00731 -0.00311
C 18.42501 17.75801 0.00675
C 14.7658 2.83071 0.03754
C 16.01237 2.08279 0.01739
C 15.99195 0.67636 0.00755
C 14.75949 0.01476 -0.0054
C 17.18476 32.6572 0.00667
C 18.43753 31.94476 0.00143
C 18.40012 30.55824 -0.017
C 17.21727 29.87565 0.00364
C 17.22886 28.44095 -0.00831
C 18.4686 27.67455 -0.02957
C 18.47625 26.27394 -0.04422
C 17.23333 24.18717 0.00654
C 18.42228 23.42638 -0.00703
C 18.4887 22.01389 -0.04076
C 17.25944 21.31527 -0.00652
C 17.22869 19.85039 0.0058
C 18.42096 19.14202 -0.00865
C 16.00134 4.9749 -0.00111
C 20.9319 30.5319 0.03046
C 11.05297 4.94238 0.02058
C 9.83785 7.1227 -0.03682
C 3.69148 4.98186 0.00438
C 2.43924 4.26222 0.01291
C 2.44151 2.84644 0.00093
C 3.69288 2.14054 0.00057
C 3.7191 0.71542 -0.01634
C 2.46797 0.00305 -0.00334
C 4.91663 32.63947 0.02339
C 3.66639 6.40056 -0.00191
C 4.91299 21.31825 0.01641
C 6.11441 19.16855 0.01364
C 6.18512 17.78438 -0.01062
C 4.94693 17.05536 -0.00033
C 4.88522 15.6572 0.03589
C 6.15987 14.87188 -0.02759
C 6.13238 13.50479 0.0402
C 4.89159 12.78465 0.00572
C 4.96479 19.92776 -0.00719
C 2.46844 7.06714 0.00373
C 2.43695 8.53433 0.02147
C 3.6501 9.24622 -0.014
C 3.67273 30.52105 -0.00892
C 2.43995 29.82384 -0.01362
C 2.43308 28.46918 -0.0008
C 2.48338 25.50386 0.0288
C 2.4737 24.20262 0.00393
C 3.72587 22.01928 0.00895
C 2.46204 21.33194 0.00685
C 2.42668 19.90764 0.02888
C 3.69959 19.18992 -0.00482
C 3.6686 17.71026 -0.01384
C 2.44568 17.02942 0.03693
C 2.42115 15.6224 0.01745
C 3.69489 14.8852 0.00488
C 3.69052 13.515 -0.01004
C 2.43386 12.80476 -0.02896
C 2.51648 11.37108 -0.00131
C 3.71105 10.62242 -0.01118
C 4.85335 11.36851 0.03592
C 11.05603 6.45218 0.01965
C 6.13678 10.6653 0.00406
C 4.92836 8.52231 0.02841
C 8.60551 4.99467 -0.0014
C 7.42544 4.26004 0.02162
C 7.36068 2.79202 0.0076
C 8.63648 2.1161 0.01241
C 8.55785 0.63865 -0.01454
C 7.34636 0.07013 0.01945
C 11.02718 17.80889 0.01416
C 8.57415 6.4028 0.00415
C 9.86146 17.07034 0.03542
C 11.08314 14.84653 0.00244
C 11.10455 13.49493 -0.01717
C 9.87352 12.79343 0.05265
C 9.82052 11.36163 -0.01952
C 11.04646 10.63732 -0.02813
C 11.04385 9.18095 0.00374
C 9.80756 8.49778 0.00052
C 9.90699 15.62128 0.02299
C 7.38747 7.06238 -0.02162
C 7.39604 8.53737 0.01363
C 8.61282 9.27155 0.01877
C 4.88379 7.09865 -0.01111
C 6.18661 6.41944 -0.01275
C 6.19773 4.97393 0.00985
C 4.93737 4.30188 -0.02245
C 4.87715 2.78683 -0.00428
C 6.13429 2.11918 0.03101
C 6.10257 0.7029 -0.01536
C 4.87376 34.03201 -0.02689
C 8.63524 19.18982 -0.01046
C 8.63303 17.76792 -0.00891
C 7.38452 17.05227 0.02819
C 7.40249 15.59506 0.00165
C 8.60532 14.94771 -0.02971
C 8.59962 13.50249 0.02894
C 7.39011 12.81461 -0.01789
C 7.35929 11.34946 0.00444
C 8.60222 10.65328 -0.00925
C 6.16383 9.24191 0.00943
C 3.66058 31.93828 -0.04848
C 19.67277 29.84147 0.0296
C 19.68495 25.53929 -0.02845
C 33.20094 30.56618 0.00682
C 33.20239 27.67382 -0.01779
C 33.23971 26.34241 0.03794
C 33.20178 23.47094 0.01927
C 33.19037 22.02749 0.01574
C 32.02103 21.31079 -0.02383
C 31.93633 19.88902 -0.01429
C 33.21475 31.98436 0.00026
C 33.21731 19.16784 -0.0136
C 31.98858 17.03659 -0.02474
C 31.97781 15.61913 0.00369
C 33.19766 14.9186 0.00455
C 33.23744 13.48025 -0.00644
C 31.91546 12.78533 -0.01839
C 31.93598 11.36708 0.00137
C 33.18137 10.6224 0.00199
C 33.19916 17.74423 0.00594
C 31.96145 32.68619 0.0544
C 29.50078 34.07256 -0.02142
C 30.78739 0.74567 0.01428
C 30.78792 19.14808 -0.0405
C 30.74054 17.76362 -0.01303
C 29.46684 17.04649 -0.01461
C 29.53706 15.62031 -0.02155
C 30.74213 14.91631 -0.00944
C 30.68369 13.52168 -0.03735
C 29.46875 12.77821 -0.00971
C 29.50287 11.31678 0.01518
C 30.75753 10.69925 0.01908
C 30.71492 9.23823 0.07705
C 29.50073 8.52798 0.0103
C 29.52887 7.09642 0.02108
C 30.73492 6.37107 0.00716
C 30.74032 4.97025 0.00307
C 29.54958 4.23545 0.00346
C 29.50708 2.87125 0.01713
C 30.74185 2.122 -0.01694
C 33.17253 9.24195 0.04381
C 29.51074 19.86037 0.01705
C 31.93977 8.54696 0.02806
C 33.22725 6.39423 -0.00069
C 0.01008 16.98264 0.00648
C 0.0254 15.58967 0.02114
C 1.21899 14.92183 -0.02957
C 1.22504 13.51827 0.00343
C 0.01542 12.75452 -0.02656
C 34.40203 11.36388 -0.02442
C 1.21655 10.67166 -0.00027
C 1.20896 17.75889 0.01223
C 1.26146 9.25516 -0.00583
C 34.43183 7.05013 -0.02849
C 1.23813 6.34278 0.02931
C 1.22796 4.96195 0.00628
C 34.42843 4.25335 -0.0345
C 0.01274 2.79681 -0.00931
C 1.22402 2.15139 -0.00939
C 1.2889 0.6786 -0.00468
C 34.39568 8.49275 -0.02302
C 1.2197 19.2017 -0.01678
C 34.40795 19.86983 0.01951
C 34.40253 21.31805 -0.02213
C 33.19483 4.97706 0.04926
C 31.98639 4.22382 -0.03838
C 32.00241 2.85977 0.00349
C 33.19821 2.13941 -0.00323
C 33.24155 0.67863 -0.00841
C 31.97442 34.03488 0.0001
C 0.00536 32.66282 -0.02927
C 1.25643 31.94779 -0.01404
C 1.20435 30.52137 0.01027
C 34.42297 29.80549 0.01831
C 34.43055 28.4305 -0.01037
C 1.22437 27.67032 -0.00439
C 1.26279 26.31741 -0.00598
C 34.41881 25.58715 -0.05239
C 0.0118 24.1862 0.03076
C 1.2056 23.46572 0.00723
C 1.20924 22.02815 0.02712
C 31.95099 7.11033 0.01504
C 19.68982 28.42101 0.03374
C 30.73537 31.96226 0.0101
C 27.02732 34.04427 0.03531
C 20.90683 2.16937 0.00135
C 20.91074 0.70564 0.03102
C 19.68108 0.01815 0.02555
C 22.10349 32.61689 0.01423
C 22.11522 21.25985 -0.00285
C 22.13185 19.87922 -0.009
C 23.42903 19.15195 -0.01199
C 19.6644 2.84656 -0.00498
C 23.30541 17.77943 -0.00229
C 22.11649 15.60378 -0.0264
C 23.37159 14.92262 -0.01154
C 23.34571 13.45339 0.00684
C 22.12357 12.78948 -0.01052
C 22.17008 11.37337 -0.01679
C 23.36129 10.66321 0.00367
C 23.38684 9.23722 0.04306
C 22.12585 17.03809 -0.00938
C 19.65254 4.28177 0.02737
C 20.89179 4.99499 0.02117
C 20.90255 6.34485 -0.04078
C 19.6845 24.11768 -0.03213
C 20.8801 23.51159 0.02239
C 20.94797 22.03248 0.01153
C 19.63509 21.3111 0.02734
C 19.646 19.88133 -0.0055
C 20.87815 19.17864 0.01515
C 20.89554 17.7832 -0.00225
C 19.66858 17.07085 0.00071
C 19.68497 15.6063 -0.01107
C 20.89737 14.88275 -0.01586
C 20.88975 13.49482 -0.01971
C 19.65059 12.78369 -0.02118
C 19.64287 11.41783 0.00733
C 20.90712 10.58387 -0.00178
C 20.87879 9.20867 0.00768
C 19.63516 8.53751 -0.0276
C 19.66793 7.12704 0.03005
C 22.15178 8.52301 0.00996
C 29.50683 32.58875 -0.00669
C 22.11174 7.10006 0.00195
C 23.37898 4.99398 -0.00218
C 24.59049 34.03988 0.01799
C 27.02314 19.87837 0.01699
C 28.30654 19.14408 -0.00416
C 28.26352 17.73968 0.01177
C 27.09701 17.03143 0.04266
C 27.03923 15.61031 0.01324
C 28.30169 14.86276 0.0014
C 25.81867 0.69139 0.01259
C 28.26087 13.46502 0.00924
C 27.04152 11.35027 0.00261
C 28.30848 10.6069 0.03265
C 28.27017 9.19962 -0.02049
C 27.0075 8.53632 -0.01854
C 27.00454 2.84242 -0.01415
C 28.31054 2.10505 -0.03039
C 28.2592 0.69396 0.01836
C 27.10016 12.74429 0.02326
C 25.83063 2.13633 0.01495
C 24.5362 2.84909 0.00235
C 24.57433 7.05824 0.01094
C 22.1474 4.26286 -0.01654
C 22.13664 2.81413 -0.00037
C 23.41778 2.11756 -0.0032
C 23.38546 0.6712 0.00622
C 22.16255 34.04617 -0.02815
C 24.58685 19.8723 -0.00942
C 25.83124 19.11945 0.00487
C 25.78417 17.719 0.00826
C 24.5659 17.0756 -0.00294
C 24.63011 15.57354 0.00152
C 25.88821 14.89118 0.01257
C 25.79611 13.44362 0.02316
C 24.59568 12.75836 0.04185
C 24.6088 11.36299 0.00194
C 25.82372 10.64748 -0.00621
C 25.86738 9.25073 0.02611
C 24.57365 8.50663 0.02198
C 23.38327 6.41367 -0.00802
C 2.46057 32.66937 0.01572
