300
Graphene
C 34.41399 0.02697 0.01295
C 13.56387 21.79477 -0.00111
C 12.35195 21.49369 -0.03557
C 12.31171 2.8268 0.03754
C 13.54874 2.2391 0.01739
C 13.64199 0.70056 0.00755
C 12.34954 0.04607 -0.0054
C 13.52023 23.39142 0.04892
C 14.71077 32.63292 0.00667
C 15.97286 30.49191 -0.017
C 14.73764 29.75188 0.00364
C 14.772 28.34516 -0.00831
C 16.01337 27.67982 -0.02957
C 15.94939 26.27592 -0.04422
C 14.74821 25.55388 0.00654
C 15.8967 31.937 0.00143
C 12.2498 24.04119 0.01452
C 12.2671 25.50292 -0.01581
C 13.48862 26.20987 0.02691
C 9.86909 25.53299 -0.05302
C 9.86433 24.14027 0.00213
C 11.02999 23.44442 -0.00066
C 11.0234 21.89011 -0.00289
C 9.75714 21.41506 0.00028
C 9.70879 2.93376 -0.02213
C 11.07893 2.3206 0.03698
C 11.14125 0.81534 -0.00109
C 9.92839 0.03897 -0.00491
C 12.304 32.67279 0.03338
C 13.47736 31.93721 -0.0258
C 13.56156 30.57352 -0.0331
C 12.38902 29.87584 -0.00316
C 12.31668 28.47539 0.02188
C 13.49741 27.73436 -0.01979
C 14.7565 24.12384 -0.00703
C 16.01082 23.39912 -0.04076
C 16.04353 21.95572 -0.00652
C 14.91976 21.43082 0.0058
C 17.25081 34.05835 0.01852
C 19.59796 32.54539 -0.00381
C 20.88335 31.88703 0.03046
C 20.84117 30.48375 0.0296
C 19.6729 29.73666 0.03374
C 19.67412 28.34677 -0.02845
C 20.95245 27.7189 -0.03213
C 20.931 26.2351 0.02239
C 19.60519 25.66429 0.01153
C 19.66367 24.23936 0.02734
C 20.82048 23.36333 -0.0055
C 20.81002 21.97554 0.01515
C 19.66665 4.23534 -0.00225
C 19.73118 2.84648 0.00071
C 20.88163 2.09934 -0.01107
C 18.46615 0.69939 0.01126
C 11.06753 26.26616 -0.04147
C 18.47494 2.1373 -0.01185
C 17.43344 4.32749 -0.00478
C 14.83221 2.69482 -0.00865
C 15.99763 2.12335 0.00675
C 16.07432 0.64943 -0.00311
C 14.80725 34.06817 0.00742
C 17.16194 32.66796 -0.01594
C 18.3479 31.84726 0.0106
C 18.40645 30.45077 -0.01154
C 17.20204 29.78703 -0.01721
C 17.23862 28.37184 -0.02422
C 18.40697 27.67974 0.01277
C 18.39795 26.3149 0.00096
C 17.19275 25.54806 -0.01527
C 17.12816 24.18238 0.01087
C 18.37981 23.3933 0.00199
C 18.52884 22.01946 0.01511
C 17.29319 2.93628 -0.01662
C 20.85484 0.66878 -0.01586
C 11.05011 27.81285 -0.02815
C 9.84721 29.8573 0.01443
C 3.59357 9.29779 0.03101
C 2.471 8.47759 -0.01536
C 2.41689 7.0736 -0.02689
C 3.69628 6.37576 -0.01046
C 3.70896 4.95173 -0.00891
C 2.46974 4.31415 0.02819
C 3.57384 10.50801 -0.00428
C 2.42407 2.84553 0.00165
C 3.61297 0.71492 0.02894
C 2.41143 0.01183 -0.01789
C 4.96815 32.68804 0.00444
C 6.21401 31.94066 -0.00925
C 6.15099 30.51284 0.01877
C 4.90317 29.81808 0.01363
C 3.63175 2.10644 -0.02971
C 2.50352 11.41392 -0.02245
C 2.40783 12.85477 0.00985
C 3.61418 13.51232 -0.01275
C 3.71089 30.54517 0.02339
C 2.46964 29.84282 0.01641
C 2.41168 28.40783 -0.00719
C 3.68584 27.68076 0.01364
C 3.68892 26.24878 -0.01062
C 2.50964 25.51994 -0.00033
C 2.45299 24.12343 0.03589
C 3.70585 23.46912 -0.02759
C 3.63063 22.03771 0.0402
C 2.39384 21.34821 0.00572
C 2.41733 19.87083 0.03592
C 3.6759 19.19388 0.00406
C 3.7516 17.80406 0.00943
C 2.58082 16.97611 0.02841
C 2.46323 15.5647 -0.01111
C 4.82815 28.42397 -0.02162
C 6.11967 27.74548 0.00415
C 6.10511 26.33323 -0.0014
C 4.93296 25.58115 0.02162
C 8.57113 26.21549 -0.00368
C 7.33896 25.56444 -0.02696
C 7.38459 24.08748 -0.00114
C 8.5934 23.39265 0.00228
C 8.63814 22.03163 0.00798
C 7.5192 21.13682 0.00422
C 7.25591 19.83859 0.0351
C 7.18122 4.26649 -0.03113
C 7.39167 2.8986 0.02098
C 8.57818 2.18483 0.01848
C 8.62349 0.68235 -0.00619
C 7.39431 0.00016 -0.02162
C 9.91659 32.65347 0.00889
C 11.13874 31.91849 -0.00481
C 11.13912 30.54046 0.00979
C 8.47235 27.68152 -0.0108
C 9.77691 28.45718 0.03505
C 7.29852 28.46723 -0.01957
C 8.65865 30.57411 0.01965
C 4.9605 24.15204 0.0076
C 6.20826 23.39062 0.01241
C 6.22565 21.94748 -0.01454
C 4.93761 21.35727 0.01945
C 4.9176 19.90805 0.01416
C 6.16829 19.33254 0.03542
C 4.86693 6.97081 0.02299
C 6.13392 4.93721 0.00244
C 4.93457 4.24886 -0.01717
C 4.86387 2.83413 0.05265
C 6.16272 2.21818 -0.01952
C 6.14331 0.76686 -0.02813
C 4.892 0.0539 0.00374
C 7.47773 32.67445 0.00052
C 8.67082 31.95979 -0.03682
C 7.38014 29.91973 0.02058
C 19.64593 33.94 -0.01971
C 22.09513 32.68751 -0.02118
C 23.37337 31.96757 0.00733
C 33.17143 26.27478 -0.02383
C 31.93548 25.55106 -0.01429
C 31.92818 24.13252 -0.0136
C 33.21306 23.43832 0.00594
C 33.23414 21.96014 -0.02474
C 31.95361 21.35595 0.00369
C 33.20911 27.7401 0.01574
C 31.97175 19.95888 0.00455
C 33.1931 17.75648 -0.01839
C 31.91494 17.12622 0.00137
C 31.94293 15.66183 0.00199
C 33.20175 14.94164 0.04381
C 33.14153 13.56195 0.02806
C 31.99676 12.81693 0.01504
C 33.17539 19.18648 -0.00644
C 31.97727 28.50486 0.01927
C 31.9443 29.9155 0.03794
C 33.17547 30.67111 -0.01779
C 29.41244 17.10448 0.01518
C 29.42976 15.60519 0.01908
C 30.7298 14.94312 0.07705
C 30.74022 13.50157 0.0103
C 29.55514 12.81618 0.02108
C 29.41297 11.41218 0.00716
C 30.7953 10.72103 0.00307
C 30.64625 9.31704 0.00346
C 29.62314 8.57238 0.01713
C 29.33453 2.87254 -0.01694
C 30.65397 2.30975 0.01428
C 30.72527 0.77178 -0.02142
C 29.5136 34.07972 0.0544
C 31.91602 32.75285 0.00026
C 33.14612 32.10032 0.00682
C 32.01028 11.39592 -0.00069
C 33.17356 10.60194 0.04926
C 33.1369 9.23891 -0.03838
C 31.95763 2.77138 0.00349
C 34.40373 15.65201 0.02114
C 1.21362 14.96618 -0.02957
C 1.07811 13.48582 0.00343
C 34.30142 12.80371 -0.02656
C 34.42049 11.30873 -0.02442
C 1.2299 10.63218 -0.00027
C 1.20071 9.27143 -0.00583
C 34.32056 8.46664 -0.02302
C 34.43291 7.07668 -0.02849
C 1.18949 6.40482 0.02931
C 1.21905 4.99581 0.00628
C 0.08159 4.28728 -0.0345
C 34.43188 2.87737 -0.00931
C 1.19291 2.153 -0.00939
C 1.16001 0.7546 -0.00468
C 34.41275 17.069 0.00648
C 30.69337 17.84857 -0.00971
C 1.22837 17.71636 0.01223
C 0.02168 19.81267 0.01951
C 33.21654 2.18606 -0.00323
C 33.22437 0.75889 -0.00841
C 31.96002 0.09072 0.0001
C 34.41962 32.71344 -0.02927
C 1.21122 31.9592 -0.01404
C 1.19568 30.58019 0.01027
C 34.4087 29.90951 0.01831
C 0.03368 28.40097 -0.01037
C 1.26936 27.68735 -0.00439
C 1.24971 26.22617 -0.00598
C 34.42956 25.5519 -0.05239
C 34.41959 24.16895 0.03076
C 1.17629 23.42283 0.00723
C 1.19047 21.99459 0.02712
C 0.01195 21.21412 -0.02213
C 1.21435 19.08783 -0.01678
C 30.72366 19.21732 -0.03735
C 29.46132 19.96536 -0.00944
C 29.44313 21.32457 -0.02155
C 24.62378 28.40293 0.00684
C 25.84318 27.69934 -0.01052
C 25.78843 26.25876 -0.01679
C 24.62232 25.5875 0.00367
C 24.61548 24.13192 0.04306
C 25.88552 23.37016 0.00996
C 25.87584 21.89254 0.00195
C 24.60567 21.3325 -0.00802
C 25.77408 6.33537 -0.00218
C 25.78055 5.00946 -0.01654
C 24.51787 4.32204 -0.00037
C 24.50639 2.86206 -0.0032
C 25.79832 2.18477 0.00622
C 25.88409 0.79797 -0.02815
C 24.63382 0.06617 -0.00942
C 24.55779 29.81682 -0.01154
C 27.08543 32.65355 0.00487
C 25.79308 30.56389 -0.0264
C 24.63081 32.71492 -0.00229
C 23.31363 30.59714 -0.00178
C 22.1566 29.83585 0.00768
C 22.18227 28.39931 -0.0276
C 23.37676 27.73459 0.03005
C 23.38531 26.32619 -0.04078
C 22.12274 25.51821 0.02117
C 22.08294 24.0605 0.02737
C 23.34561 23.39111 -0.00498
C 23.64052 22.05069 0.00135
C 23.1564 4.76201 0.03102
C 22.02248 4.26312 0.02555
C 22.0679 2.7858 0.01423
C 23.31944 2.11823 -0.00285
C 23.37039 0.70973 -0.009
C 22.10408 0.02927 -0.01199
C 25.78657 31.96436 -0.00938
C 3.68736 31.99529 -0.00334
C 28.28832 31.90367 0.00826
C 26.99534 29.80671 0.00152
C 26.98886 2.95683 0.02326
C 28.24081 2.11496 0.00261
C 28.31985 0.68334 0.03265
C 27.09228 0.0375 -0.02049
C 29.4631 32.63997 -0.01854
C 30.69239 32.03186 -0.01415
C 30.69446 30.60408 -0.03039
C 29.50669 29.8567 0.01836
C 29.52667 28.41609 0.03531
C 30.73911 27.75597 -0.00669
C 30.76141 26.3149 0.0101
C 29.50055 25.54138 0.01705
C 29.45812 24.09913 -0.0405
C 30.71158 23.42991 -0.01303
C 30.72036 22.01199 -0.01461
C 27.06631 4.32461 0.00924
C 28.24933 30.458 -0.00294
C 28.34019 4.95211 0.0014
C 26.89994 7.14173 0.04266
C 27.03142 28.33573 0.01257
C 28.28279 27.65161 0.02316
C 28.26406 26.22489 0.04185
C 27.02346 25.47205 0.00194
C 27.06002 24.06429 -0.00621
C 28.2539 23.41001 0.02611
C 28.26714 22.00251 0.02198
C 27.0538 21.24577 0.01094
C 27.11352 19.8999 0.00235
C 28.20885 19.11036 0.01495
C 28.2707 17.74677 0.01259
C 28.43659 14.70681 0.01799
C 28.32183 10.56231 0.01699
C 28.15311 9.21778 -0.00416
C 27.05635 8.43745 0.01177
C 28.40494 6.21899 0.01324
C 2.42294 32.65999 -0.01634
