358
Graphene
C 34.42839 0.04415 0.01295
C 11.12321 4.88163 -0.01957
C 9.82908 4.30244 -0.0108
C 9.81767 2.88899 -0.00368
C 11.11475 2.17825 -0.02696
C 11.11127 0.76635 -0.00114
C 9.87986 0.05007 0.00228
C 12.23505 32.65004 0.00798
C 13.49976 31.89971 0.00422
C 10.9959 6.29603 0.02058
C 13.52099 30.50263 0.0351
C 12.38198 28.3564 0.02098
C 13.59342 27.64821 0.01848
C 13.58893 26.20248 -0.00619
C 12.35863 25.57109 -0.02162
C 12.26977 24.20729 0.00889
C 13.57594 23.47995 -0.00481
C 12.1581 8.43424 0.00979
C 12.20208 7.00517 0.01443
C 12.37207 29.75799 -0.03113
C 13.47053 6.37246 0.03505
C 9.80158 7.1142 0.01965
C 11.18908 9.09866 0.00052
C 7.29005 2.93171 0.01363
C 8.52358 2.24832 -0.02162
C 8.66301 0.78407 0.00415
C 7.41892 0.05356 -0.0014
C 9.85253 32.70403 0.02162
C 11.04955 31.94776 0.0076
C 11.07963 30.5092 0.01241
C 9.83226 29.89646 -0.01454
C 9.82854 8.55285 -0.03682
C 9.8665 28.46467 0.01945
C 11.07024 26.30427 0.03542
C 9.78072 25.6209 0.02299
C 9.82641 24.07095 0.00244
C 11.09437 23.39643 -0.01717
C 11.10675 22.0638 0.05265
C 10.04087 21.22472 -0.01952
C 9.78637 19.83439 -0.02813
C 9.78711 11.39394 0.00374
C 11.09754 27.66482 0.01416
C 13.46798 4.959 -0.02815
C 12.29883 4.20473 -0.04147
C 12.36233 2.83818 -0.05302
C 17.18568 29.84975 -0.0054
C 17.23543 28.44257 0.00667
C 18.40801 27.80163 0.00143
C 18.39255 26.26827 -0.017
C 17.17186 25.50276 0.00364
C 17.22812 7.02029 -0.00831
C 18.45716 6.51087 -0.02957
C 18.45061 4.91946 -0.04422
C 18.42255 30.53632 0.00755
C 17.18712 4.26407 0.00654
C 18.4598 2.11897 -0.04076
C 18.52455 0.71879 -0.00652
C 17.24417 0.01179 0.0058
C 19.71681 32.62932 -0.00865
C 20.91187 31.9191 0.00675
C 20.93234 30.45521 -0.00311
C 19.61226 29.79893 0.00742
C 19.64821 28.41271 -0.01594
C 17.24425 2.80073 -0.00703
C 18.47085 31.93893 0.01739
C 17.23201 32.66781 0.03754
C 14.6839 0.01465 -0.03557
C 13.50752 2.15649 0.00213
C 13.43823 0.75307 -0.00066
C 12.26401 0.01372 -0.00289
C 14.70079 32.64829 0.00028
C 16.02689 31.92827 -0.02213
C 16.00943 30.50345 0.03698
C 14.77528 29.86373 -0.00109
C 14.78169 28.4241 -0.00491
C 16.05451 27.71987 0.03338
C 16.00095 26.25669 -0.0258
C 14.81876 25.48668 -0.0331
C 14.56518 24.05588 -0.00316
C 14.69903 7.04573 0.02188
C 16.01628 6.51885 -0.01979
C 15.93398 4.95674 0.02691
C 14.69547 4.28249 -0.01581
C 14.70596 2.85891 0.01452
C 15.95622 2.12202 0.04892
C 15.89855 0.66396 -0.00111
C 7.35381 4.33308 0.01877
C 8.61994 4.97964 -0.00925
C 8.58906 6.39024 0.00444
C 7.40022 7.03212 -0.01789
C 3.63721 6.36695 -0.01142
C 3.67395 4.95098 -0.00562
C 2.41272 4.24297 -0.00494
C 2.49236 2.80149 0.00054
C 3.76925 2.17501 0.03007
C 3.67032 0.76882 -0.00095
C 2.50408 34.03919 0.01572
C 4.90836 32.6841 -0.04848
C 2.43319 7.09139 0.01849
C 6.14287 32.02565 -0.00892
C 4.92588 29.76774 -0.0008
C 4.88611 28.41579 0.0288
C 6.10047 27.72214 0.00393
C 6.1084 26.31001 0.00895
C 4.92886 25.56216 0.00685
C 4.9203 24.20383 0.02888
C 6.14927 23.39342 -0.00482
C 6.1567 22.02582 -0.01384
C 6.18582 30.5545 -0.01362
C 2.45342 8.56201 0.01396
C 3.61728 9.33151 0.0127
C 3.65603 10.75458 0.02635
C 3.68154 30.49308 0.02322
C 2.39336 29.8332 -0.00725
C 2.42094 28.3792 -0.05697
C 3.71844 27.64872 0.01087
C 3.72261 26.29668 -0.01343
C 2.4494 25.54651 0.00988
C 2.53183 24.11088 0.0276
C 3.72083 23.43046 0.01305
C 3.64402 22.00985 -0.00077
C 2.41958 21.37435 0.03368
C 2.45477 19.93991 -0.02929
C 3.68816 19.13382 -0.00966
C 3.67355 17.7799 -0.03337
C 2.48939 17.02584 0.01227
C 2.4561 15.56417 0.00873
C 3.75359 14.89471 -0.00049
C 3.6709 13.48106 0.00848
C 2.3979 12.85007 -0.01303
C 2.40039 11.41375 -0.01378
C 4.85683 21.28162 0.03693
C 20.92129 27.72515 0.0106
C 4.90464 19.8427 0.01745
C 6.17568 17.8048 -0.01004
C 8.64431 26.35091 0.03592
C 7.36961 25.61504 0.00406
C 7.35437 24.15881 0.00943
C 8.57679 23.34987 0.02841
C 8.62325 21.98663 -0.01111
C 7.40461 21.25348 -0.01275
C 7.34714 19.89033 0.00985
C 8.61932 19.15201 -0.02245
C 8.62363 27.81119 0.00572
C 8.49235 17.76731 -0.00428
C 7.48411 15.62129 -0.01536
C 8.69452 14.82524 -0.02689
C 8.61692 13.60806 -0.01046
C 7.36762 12.68529 -0.00891
C 7.32512 11.33231 0.02819
C 8.61824 10.66372 0.00165
C 8.56421 9.15631 -0.02971
C 7.39979 8.47956 0.02894
C 7.35466 17.06046 0.03101
C 7.34422 28.40665 0.0402
C 7.39978 29.81622 -0.02759
C 8.59204 30.57067 0.03589
C 4.90653 17.08345 -0.02896
C 4.9693 15.64983 -0.00131
C 6.16552 14.91492 -0.01118
C 6.19556 13.46342 -0.014
C 4.92941 12.8146 0.02147
C 4.91617 11.40359 0.00373
C 6.11937 10.67566 -0.00191
C 6.15819 9.25922 0.00438
C 4.94686 8.61334 0.01291
C 4.89348 7.17201 0.00093
C 6.15175 6.48671 0.00057
C 6.10811 5.07954 -0.01634
C 4.89255 4.32805 -0.00334
C 4.93666 2.88888 0.02339
C 6.09007 2.15624 0.01641
C 6.14793 0.75778 -0.00719
C 4.93816 0.00305 0.01364
C 7.37784 32.66835 -0.01062
C 8.61002 32.00671 -0.00033
C 6.15566 19.20514 0.00488
C 20.86067 26.26113 -0.01154
C 19.60715 25.59448 -0.01721
C 19.68835 7.15776 -0.02422
C 31.99371 32.61095 0.01713
C 33.1997 31.9483 -0.01694
C 33.14746 30.58502 0.01428
C 31.9653 29.84785 -0.02142
C 32.0444 28.45134 0.0544
C 33.24385 27.66349 0.00026
C 33.15168 26.28916 0.00682
C 31.91394 25.57501 -0.01779
C 29.55511 0.02314 0.00346
C 31.94018 24.16958 0.03794
C 33.11515 22.03094 0.01574
C 31.86054 21.27394 -0.02383
C 31.94101 19.82662 -0.01429
C 33.21242 19.22293 -0.0136
C 33.19451 17.76678 0.00594
C 31.99983 17.02814 -0.02474
C 32.01132 15.59638 0.00369
C 33.22787 14.85765 0.00455
C 33.16026 23.47838 0.01927
C 30.78895 0.72459 0.00307
C 30.79478 2.19916 0.00716
C 29.49447 2.81133 0.02108
C 30.7198 23.43788 -0.01854
C 30.72081 22.02845 -0.01415
C 29.4031 21.35824 -0.03039
C 29.57202 19.898 0.01836
C 30.77205 19.08788 0.03531
C 30.77073 17.70664 -0.00669
C 29.48461 17.08487 0.0101
C 29.52132 15.66386 0.01705
C 30.73716 14.91472 -0.0405
C 30.71994 13.49218 -0.01303
C 29.5105 12.76588 -0.01461
C 29.50377 11.3779 -0.02155
C 30.77738 10.69102 -0.00944
C 30.76023 9.13444 -0.03735
C 29.59069 8.47401 -0.00971
C 29.53186 7.10286 0.01518
C 30.7577 6.42358 0.01908
C 30.71815 4.93455 0.07705
C 29.47861 4.27737 0.0103
C 33.23686 13.4117 -0.00644
C 29.44069 24.12292 -0.02049
C 31.96774 12.77632 -0.01839
C 33.19231 10.62404 0.00199
C 1.21693 19.18331 -0.01678
C 1.21724 17.75296 0.01223
C 34.42062 17.00055 0.00648
C 0.03751 15.57839 0.02114
C 1.25548 14.93413 -0.02957
C 1.25603 13.49967 0.00343
C 0.04082 12.72191 -0.02656
C 34.41561 11.29728 -0.02442
C 0.04313 19.9101 0.01951
C 1.19944 10.63424 -0.00027
C 34.43277 8.507 -0.02302
C 34.39233 7.0841 -0.02849
C 1.21647 6.44307 0.02931
C 1.23758 5.02174 0.00628
C 34.41181 4.30133 -0.0345
C 0.02192 2.87757 -0.00931
C 1.21297 2.14717 -0.00939
C 1.21542 0.73336 -0.00468
C 1.20953 9.23178 -0.00583
C 0.03177 21.34906 -0.02213
C 1.23867 22.04305 0.02712
C 1.19909 23.41883 0.00723
C 33.21559 9.24042 0.04381
C 31.98043 8.57945 0.02806
C 32.02191 7.14493 0.01504
C 33.14066 6.3159 -0.00069
C 33.15093 4.92193 0.04926
C 31.94949 4.25926 -0.03838
C 32.02605 2.82912 0.00349
C 33.16691 2.09094 -0.00323
C 33.13991 0.71011 -0.00841
C 31.94954 33.99661 0.0001
C 34.41658 32.67795 -0.02927
C 1.20911 31.92706 -0.01404
C 1.21683 30.57678 0.01027
C 34.43254 29.89952 0.01831
C 0.01602 28.38908 -0.01037
C 1.21934 27.69508 -0.00439
C 1.14958 26.22686 -0.00598
C 34.33787 25.57135 -0.05239
C 34.42545 24.17811 0.03076
C 32.00378 11.34595 0.00137
C 3.67216 31.90621 -0.00094
C 29.44305 25.58884 0.03265
C 30.80225 27.73573 0.02326
C 22.11309 2.88157 0.00071
C 23.32011 2.18662 -0.01107
C 23.33186 0.74362 -0.01586
C 22.13017 0.04511 -0.01971
C 24.59267 32.65285 -0.02118
C 25.86276 31.9278 0.00733
C 25.78439 30.5277 -0.00178
C 24.56266 29.84873 0.00768
C 22.08909 4.31488 -0.00225
C 24.57439 28.43192 -0.0276
C 25.83071 26.2019 -0.04078
C 24.57531 25.48887 0.02117
C 24.5121 24.09093 0.02737
C 25.79328 23.46079 -0.00498
C 25.78374 22.00217 0.00135
C 24.52311 21.2495 0.03102
C 25.78672 10.61767 0.02555
C 25.85253 9.2299 0.01423
C 25.8035 27.61991 0.03005
C 23.32752 4.97286 0.01515
C 23.37917 6.37168 -0.0055
C 22.1561 7.10354 0.02734
C 20.85863 6.41341 0.01277
C 20.86598 4.97015 0.00096
C 19.66249 4.16524 -0.01527
C 19.6593 2.80883 0.01087
C 20.8651 2.13169 0.00199
C 20.93753 0.72132 0.01511
C 19.74082 34.04415 -0.00478
C 22.10972 32.73007 -0.01662
C 23.25933 31.93785 -0.01185
C 23.22115 30.51731 0.01126
C 22.12924 29.73672 0.01852
C 22.13281 28.36662 -0.00381
C 23.41296 27.68662 0.03046
C 23.36151 26.24009 0.0296
C 22.01187 25.52295 0.03374
C 22.14796 24.00091 -0.02845
C 23.27768 23.45195 -0.03213
C 23.30927 9.11614 0.02239
C 22.36882 8.46488 0.01153
C 24.63749 8.50873 -0.00285
C 30.74549 26.2667 0.00261
C 24.56235 7.07391 -0.009
C 25.82911 4.88535 -0.00229
C 27.06626 12.75226 0.02316
C 26.94782 11.39381 0.04185
C 28.37045 10.57734 0.00194
C 28.38008 9.15542 -0.00621
C 27.05821 8.45665 0.02611
C 27.03595 7.05685 0.02198
C 28.29405 6.39357 0.01094
C 28.23989 4.9621 0.00235
C 28.25809 13.47352 0.01257
C 27.03633 4.28597 0.01495
C 28.28257 2.15982 0.01799
C 28.35882 0.72281 0.01699
C 27.1278 0.00848 -0.00416
C 29.58865 32.68186 0.01177
C 30.72568 31.9625 0.04266
C 30.74829 30.45329 0.01324
C 29.49578 29.82838 0.0014
C 29.63215 28.45478 0.00924
C 27.03784 2.89736 0.01259
C 28.22214 14.96415 0.00152
C 27.09736 15.71172 -0.00294
C 28.25203 17.70741 0.00826
C 24.53383 4.23935 -0.00938
C 24.61552 2.87222 -0.0264
C 25.79462 2.19429 -0.01154
C 25.86187 0.69096 0.00684
C 24.61355 0.06304 -0.01052
C 27.09605 32.66543 -0.01679
C 28.36844 31.90048 0.00367
C 28.22351 30.49001 0.04306
C 27.04336 29.8079 0.00996
C 27.06056 28.35993 0.00195
C 28.41822 27.73897 -0.00802
C 28.25265 26.32257 -0.00218
C 27.05676 25.55694 -0.01654
C 27.05057 24.18172 -0.00037
C 28.16446 23.38568 -0.0032
C 28.18232 22.02109 0.00622
C 26.97464 21.24678 -0.02815
C 27.03129 19.8853 -0.00942
C 28.2601 19.11706 0.00487
C 25.71825 6.33825 -0.01199
C 2.44053 32.643 -0.02566
