364
Graphene
C 34.3716 0.01631 0.01295
C 9.73927 2.82238 0.00052
C 11.11521 2.07975 -0.03682
C 11.0389 0.74112 0.01965
C 9.77133 0.10072 0.02058
C 12.3447 32.74684 -0.01957
C 13.54399 31.94916 -0.0108
C 13.52446 30.56049 -0.00368
C 12.30676 29.76462 -0.02696
C 9.72068 4.27116 0.00374
C 12.44554 28.33308 -0.00114
C 12.3305 12.76655 0.00798
C 12.43953 11.39717 0.00422
C 13.68595 10.71204 0.0351
C 13.55522 9.26063 -0.03113
C 12.34091 8.4974 0.02098
C 12.29249 7.11304 0.01848
C 13.46131 6.35102 -0.00619
C 13.38078 4.90009 -0.02162
C 13.68898 27.65815 0.00228
C 10.95499 4.92658 -0.02813
C 11.06443 6.32239 -0.01952
C 9.81393 7.07652 0.05265
C 8.55576 2.15041 0.02894
C 8.61033 0.76599 -0.01789
C 7.29763 0.04006 0.00444
C 9.83439 32.69498 -0.00925
C 11.13223 32.00202 0.01877
C 11.03199 30.56788 0.01363
C 9.79459 29.88237 -0.02162
C 9.83552 28.48676 0.00415
C 11.10321 27.75897 -0.0014
C 11.02457 26.36213 0.02162
C 9.91859 25.68192 0.0076
C 9.67017 24.34229 0.01241
C 9.85391 15.2756 -0.01454
C 11.12289 13.40116 0.01945
C 9.87112 12.75724 0.01416
C 9.83081 11.41336 0.03542
C 11.1567 10.68374 0.02299
C 11.04077 9.17381 0.00244
C 9.79279 8.50582 -0.01717
C 12.16864 4.18267 0.00889
C 12.27993 2.80362 -0.00481
C 13.50516 2.16963 0.00979
C 13.52286 0.7721 0.01443
C 18.48845 10.69555 -0.03557
C 18.37874 9.25306 0.03754
C 17.20561 8.49231 0.01739
C 17.24828 7.13114 0.00755
C 18.43294 6.3637 -0.0054
C 18.44481 4.89774 0.00667
C 17.1739 4.28192 0.00143
C 17.16325 2.82992 -0.017
C 18.39881 2.14725 0.00364
C 18.45339 0.73489 -0.00831
C 17.16066 0.01471 -0.02957
C 19.64515 32.55223 -0.04422
C 20.88446 31.9012 0.00654
C 20.829 30.46609 -0.00703
C 19.53325 29.81482 -0.04076
C 19.53854 28.40026 -0.00652
C 20.70183 27.6936 0.0058
C 19.82552 11.08663 -0.00865
C 21.07322 10.66796 0.00675
C 17.15348 28.45304 -0.00111
C 7.33407 2.89663 -0.02971
C 17.19642 29.81252 0.04892
C 18.46599 31.86947 -0.01581
C 12.3003 0.08766 0.03505
C 14.79949 32.66631 -0.02815
C 15.98664 32.00646 -0.04147
C 15.94404 30.56654 -0.05302
C 14.73257 29.8553 0.00213
C 14.70653 28.50915 -0.00066
C 14.86654 11.28871 -0.00289
C 15.98142 10.48196 0.00028
C 15.98653 9.19278 -0.02213
C 14.7917 8.4836 0.03698
C 14.74041 6.99193 -0.00109
C 15.97204 6.3522 -0.00491
C 15.93208 4.98299 0.03338
C 14.67765 4.27469 -0.0258
C 14.77776 2.87935 -0.0331
C 15.94146 2.17531 -0.00316
C 15.98508 0.73599 0.02188
C 14.73307 0.00013 -0.01979
C 17.17757 32.73498 0.02691
C 18.41643 30.51878 0.01452
C 20.94288 9.16423 -0.00311
C 7.27618 4.30226 0.00165
C 8.58129 6.31903 -0.00891
C 3.72685 6.42141 -0.01303
C 3.6907 4.98899 -0.01378
C 2.42876 4.29703 0.02635
C 2.51358 2.85149 0.0127
C 3.6615 2.19129 0.01396
C 3.60857 0.7332 0.01849
C 2.40553 34.03839 -0.01142
C 4.86903 32.77479 -0.00562
C 2.4002 7.15724 0.00848
C 6.11352 32.09452 -0.00494
C 4.83063 29.86178 0.03007
C 4.91313 28.44928 -0.00095
C 6.13465 27.76929 0.01572
C 6.18995 26.29451 -0.04848
C 4.98311 25.62611 -0.00892
C 4.91998 24.14529 -0.01362
C 6.13953 23.39933 -0.0008
C 6.1015 22.00592 0.0288
C 6.05302 30.64083 0.00054
C 2.3922 8.50349 -0.00049
C 3.6163 9.32025 0.00873
C 3.67348 10.72138 0.01227
C 3.62912 30.54975 0.0086
C 2.38692 29.82556 -0.00643
C 2.47823 28.36543 0.017
C 3.75005 27.62766 -0.03113
C 3.66696 26.24396 -0.02566
C 2.43069 25.63319 -0.00094
C 2.42212 24.2407 0.02322
C 3.68056 23.46062 -0.00725
C 3.70801 22.0737 -0.05697
C 2.49196 21.38093 0.01087
C 2.5268 19.88696 -0.01343
C 3.70699 19.14991 0.00988
C 3.75107 17.74147 0.0276
C 2.44778 16.99807 0.01305
C 2.45524 15.62156 -0.00077
C 3.69689 14.98141 0.03368
C 3.64892 13.59965 -0.02929
C 2.44496 12.85636 -0.00966
C 2.44032 11.42769 -0.03337
C 4.91963 21.36239 0.00393
C 4.94636 19.84677 0.00895
C 6.25127 19.21825 0.00685
C 6.27907 17.80749 0.02888
C 8.53877 26.30153 -0.01062
C 7.37989 25.55574 -0.00033
C 7.41874 24.10455 0.03589
C 8.75774 23.36091 -0.02759
C 8.68052 22.00167 0.0402
C 7.40011 21.40224 0.00572
C 7.47627 19.9733 0.03592
C 8.40882 19.09711 0.00406
C 8.74412 17.81325 0.00943
C 7.52038 17.09805 0.02841
C 7.4289 15.62721 -0.01111
C 8.6376 14.85151 -0.01275
C 8.58351 13.33057 0.00985
C 7.32052 12.73476 -0.02245
C 7.39454 11.38273 -0.00428
C 8.63846 10.69846 0.03101
C 8.63646 9.22797 -0.01536
C 7.4126 8.516 -0.02689
C 7.36716 7.12995 -0.01046
C 8.59505 27.70927 0.01364
C 8.4991 4.86529 0.02819
C 7.30702 28.49716 -0.00719
C 8.52029 30.57485 0.02339
C 5.02128 17.14536 -0.00482
C 4.90852 15.71297 -0.01384
C 6.16953 15.05271 0.03693
C 6.12677 13.55742 0.01745
C 4.82982 12.93318 0.00488
C 4.8779 11.39454 -0.01004
C 6.1272 10.66835 -0.02896
C 6.11424 9.26017 -0.00131
C 4.90924 8.58397 -0.01118
C 4.91651 7.20427 -0.014
C 6.09385 6.44694 0.02147
C 6.12584 5.03471 0.00373
C 4.91363 4.21396 -0.00191
C 4.9198 2.8515 0.00438
C 6.09511 2.16888 0.01291
C 6.11193 0.73853 0.00093
C 4.85725 0.06498 0.00057
C 7.34174 32.75044 -0.01634
C 8.63303 31.97417 -0.00334
C 7.2495 29.9061 0.01641
C 19.59063 8.57636 0.00742
C 19.56952 7.13112 -0.01594
C 20.85985 6.34319 0.0106
C 29.47367 0.04338 0.00346
C 31.98289 32.69442 0.01713
C 33.19401 31.97454 -0.01694
C 33.15631 30.48227 0.01428
C 31.92495 29.84215 -0.02142
C 31.87712 28.41796 0.0544
C 33.1641 27.65067 0.00026
C 33.13525 26.26737 0.00682
C 30.69995 0.74132 0.00307
C 31.88797 25.57072 -0.01779
C 33.13143 23.42129 0.01927
C 33.23437 22.04898 0.01574
C 32.00174 21.21624 -0.02383
C 32.00967 19.86057 -0.01429
C 33.27636 19.19018 -0.0136
C 33.29195 17.74155 0.00594
C 31.98283 17.11804 -0.02474
C 31.96404 15.65017 0.00369
C 31.89306 24.11238 0.03794
C 30.67202 2.13321 0.00716
C 29.4809 2.92538 0.02108
C 29.46454 4.25865 0.0103
C 29.47028 24.11259 -0.02049
C 30.72181 23.37195 -0.01854
C 30.68117 21.95229 -0.01415
C 29.44855 21.31068 -0.03039
C 29.54698 19.91164 0.01836
C 30.74494 19.18502 0.03531
C 30.76722 17.77953 -0.00669
C 29.54035 17.06411 0.0101
C 29.51129 15.5861 0.01705
C 30.71645 14.88863 -0.0405
C 30.77973 13.52756 -0.01303
C 29.52284 12.79661 -0.01461
C 29.51962 11.33111 -0.02155
C 30.73083 10.57238 -0.00944
C 30.74861 9.22223 -0.03735
C 29.56306 8.49529 -0.00971
C 29.48212 7.14637 0.01518
C 30.71415 6.37738 0.01908
C 30.69414 4.91271 0.07705
C 33.18971 14.94077 0.00455
C 33.16393 13.46592 -0.00644
C 31.97061 12.71249 -0.01839
C 31.94012 11.34607 0.00137
C 0.00814 19.9522 0.01951
C 1.2856 19.15242 -0.01678
C 1.22697 17.74945 0.01223
C 0.07243 17.07112 0.00648
C 34.41423 15.56024 0.02114
C 1.1505 14.82862 -0.02957
C 1.17587 13.44521 0.00343
C 34.31726 12.78199 -0.02656
C 34.39347 11.35386 -0.02442
C 1.25943 10.73353 -0.00027
C 1.25234 9.26492 -0.00583
C 0.06528 8.59819 -0.02302
C 34.34963 7.12026 -0.02849
C 1.19811 6.42751 0.02931
C 1.23252 5.04802 0.00628
C 0.02058 4.32703 -0.0345
C 0.0407 2.88142 -0.00931
C 1.25286 2.13946 -0.00939
C 1.20814 0.74295 -0.00468
C 0.04871 21.37486 -0.02213
C 29.47453 25.53443 0.03265
C 1.24397 22.03049 0.02712
C 34.36686 24.23982 0.03076
C 33.22045 10.61758 0.00199
C 33.21981 9.2078 0.04381
C 31.91563 8.43846 0.02806
C 31.94892 7.05536 0.01504
C 33.1975 6.35763 -0.00069
C 33.13869 4.97332 0.04926
C 31.89435 4.19858 -0.03838
C 31.9354 2.86817 0.00349
C 33.25409 2.1978 -0.00323
C 33.20254 0.8099 -0.00841
C 31.9686 0.11082 0.0001
C 34.41128 32.68402 -0.02927
C 1.23912 31.95535 -0.01404
C 1.23413 30.49363 0.01027
C 34.37157 29.75561 0.01831
C 34.4026 28.41664 -0.01037
C 1.2682 27.70445 -0.00439
C 1.21399 26.27334 -0.00598
C 34.32515 25.57648 -0.05239
C 1.18519 23.46606 0.00723
C 30.69473 26.27504 0.00261
C 30.67974 27.72701 0.02326
C 29.41696 28.41682 0.00924
C 23.28766 2.12585 -0.0055
C 23.33031 0.71524 0.01515
C 22.10812 0.03656 -0.00225
C 24.58511 32.73824 0.00071
C 25.79754 32.02981 -0.01107
C 25.69158 30.54617 -0.01586
C 24.52201 29.79178 -0.01971
C 24.4889 28.32202 -0.02118
C 25.77109 27.65026 0.00733
C 25.81418 26.21403 -0.00178
C 24.60811 25.62771 0.00768
C 25.72256 23.40917 -0.0276
C 25.82109 21.99466 0.03005
C 25.9112 18.00762 -0.04078
C 25.8765 14.90311 0.02117
C 25.80592 13.47073 0.02737
C 24.61701 12.63621 -0.00498
C 24.70851 11.20899 0.00135
C 25.93303 10.56739 0.03102
C 22.06328 2.80649 0.02734
C 25.91792 9.20072 0.02555
C 22.08037 4.19333 0.01153
C 23.32223 6.31021 -0.03213
C 20.88231 4.99494 -0.01154
C 19.65954 4.30279 -0.01721
C 19.5988 2.84844 -0.02422
C 20.85172 2.09775 0.01277
C 20.85354 0.66552 0.00096
C 19.64081 34.02019 -0.01527
C 22.1338 32.62885 0.01087
C 23.31086 31.94612 0.00199
C 23.29196 30.44993 0.01511
C 22.139 29.68355 -0.00478
C 22.00326 28.24694 -0.01662
C 23.20039 27.54969 -0.01185
C 23.48497 26.26104 0.01126
C 23.32305 13.20554 0.01852
C 22.30071 11.33839 -0.00381
C 23.4758 10.51134 0.03046
C 23.47581 9.08703 0.0296
C 22.16143 8.48908 0.03374
C 22.10767 7.07109 -0.02845
C 23.30893 4.8795 0.02239
C 3.65444 32.04171 -0.00518
C 24.64141 8.42184 0.01423
C 25.90265 6.32145 -0.009
C 28.2362 14.9494 0.00152
C 28.31619 13.5106 0.01257
C 27.06975 12.83385 0.02316
C 27.07285 11.39384 0.04185
C 28.30723 10.67183 0.00194
C 28.33018 9.22168 -0.00621
C 27.11275 8.49748 0.02611
C 27.0516 7.0511 0.02198
C 28.27747 6.40518 0.01094
C 28.24963 5.00795 0.00235
C 27.04682 4.28436 0.01495
C 27.09887 2.83944 0.01259
C 28.26544 2.15007 0.01799
C 28.27445 0.7404 0.01699
C 27.11592 0.0348 -0.00416
C 29.45533 32.70837 0.01177
C 30.79571 32.02081 0.04266
C 30.68178 30.63696 0.01324
C 29.41029 29.86283 0.0014
C 26.98503 15.68097 -0.00294
C 24.62021 6.99506 -0.00285
C 27.04489 17.15039 0.00826
C 28.30187 19.24844 -0.00942
C 25.81414 4.89938 -0.01199
C 24.60235 4.24365 -0.00229
C 24.55783 2.80453 -0.00938
C 25.83667 2.15902 -0.0264
C 25.76286 0.70343 -0.01154
C 24.62634 0.03436 0.00684
C 27.04225 32.71594 -0.01052
C 28.2314 31.94286 -0.01679
C 28.20454 30.49739 0.00367
C 26.91897 29.81313 0.04306
C 26.95204 28.3927 0.00996
C 28.20568 27.68783 0.00195
C 28.16555 26.232 -0.00802
C 27.0172 25.53124 -0.00218
C 26.87374 24.07836 -0.01654
C 28.20927 23.40946 -0.00037
C 28.15202 21.99868 -0.0032
C 26.85366 21.11564 0.00622
C 27.02801 19.75637 -0.02815
C 28.36777 17.83992 0.00487
C 2.44347 32.61323 -0.00074
