335
Graphene
C 0.01584 0.02685 0.01295
C 16.01633 27.66352 0.00979
C 15.96258 26.35637 0.01443
C 14.73261 4.26369 0.03505
C 14.77343 2.81384 -0.02815
C 16.04581 2.19434 -0.04147
C 16.0033 0.75049 -0.05302
C 14.70954 34.03765 0.00213
C 17.17895 32.64481 -0.00066
C 18.41784 31.85705 -0.00289
C 18.47685 30.50813 0.00028
C 17.28114 29.84273 -0.02213
C 17.24812 28.37236 0.03698
C 18.47337 27.63689 -0.00109
C 18.4805 26.22247 -0.00491
C 17.15049 25.61244 0.03338
C 17.24965 24.11763 -0.0258
C 18.43363 23.36672 -0.0331
C 14.68624 28.37581 -0.00481
C 18.46878 21.95333 -0.00316
C 14.70196 29.81256 0.00889
C 15.97553 31.98165 -0.00619
C 9.84546 34.03341 0.00374
C 12.25674 32.69519 0.00052
C 13.47616 32.01221 -0.03682
C 13.55081 30.5706 0.01965
C 12.32121 29.81002 0.02058
C 12.33171 28.40461 -0.01957
C 13.50758 27.72329 -0.0108
C 12.29223 8.52747 -0.00368
C 12.32738 7.07665 -0.02696
C 13.54844 6.41243 -0.00114
C 13.55474 5.06271 0.00228
C 12.27374 4.26565 0.00798
C 12.25394 2.91036 0.00422
C 13.54488 2.05997 0.0351
C 13.52935 0.67159 -0.03113
C 12.30821 0.0154 0.02098
C 14.82566 32.6408 0.01848
C 15.96543 30.49424 -0.02162
C 11.04862 0.72958 -0.02813
C 17.24295 21.26671 0.02188
C 18.4028 2.16276 0.02691
C 20.9207 0.6964 -0.00865
C 19.75715 0.00067 0.00675
C 22.13417 32.69202 -0.00311
C 23.39277 31.95896 0.00742
C 23.34582 30.57919 -0.01594
C 22.12729 29.82731 0.0106
C 22.11253 28.35547 -0.01154
C 23.35406 27.66398 -0.01721
C 23.35171 26.30834 -0.02422
C 22.13742 25.51943 0.01277
C 22.08788 24.13155 0.00096
C 23.33916 23.45411 -0.01527
C 23.39262 21.97023 0.01087
C 22.18784 21.34215 0.00199
C 22.12953 19.84413 0.01511
C 23.37746 19.16818 -0.00478
C 23.36053 17.74269 -0.01662
C 20.93187 2.08559 0.0058
C 17.1895 2.83329 -0.01979
C 19.69898 2.82804 -0.00652
C 19.69512 16.9366 -0.00703
C 18.4761 0.68297 -0.01581
C 17.20438 0.03778 0.01452
C 19.64274 32.64032 0.04892
C 20.88963 31.96471 -0.00111
C 20.85176 30.5572 -0.03557
C 19.68209 29.84618 0.03754
C 19.66764 28.39602 0.01739
C 20.92254 27.65125 0.00755
C 20.93139 26.2561 -0.0054
C 19.68455 25.575 0.00667
C 19.68837 24.16012 0.00143
C 20.93791 23.44259 -0.017
C 20.92296 22.04193 0.00364
C 19.69996 21.26197 -0.00831
C 19.65783 19.8717 -0.02957
C 20.88441 19.18307 -0.04422
C 20.92533 17.79297 0.00654
C 19.67145 15.64078 -0.04076
C 22.10174 17.03394 -0.01185
C 11.01599 2.12992 -0.01952
C 9.83874 4.25376 -0.01717
C 2.38096 8.52847 -0.01004
C 2.44519 7.13681 -0.02896
C 3.72035 6.39235 -0.00131
C 3.67274 4.94845 -0.01118
C 2.43821 4.20961 -0.014
C 2.42307 2.82756 0.02147
C 3.70307 2.12454 0.00373
C 3.66122 0.71467 -0.00191
C 2.51049 34.05749 0.00438
C 4.94977 32.68873 0.01291
C 6.13393 31.99776 0.00093
C 6.18375 30.49042 0.00057
C 4.90678 29.84274 -0.01634
C 4.92227 28.42152 -0.00334
C 6.16787 27.74359 0.02339
C 6.17059 26.24812 0.01641
C 4.9428 25.57874 -0.00719
C 3.6384 9.2567 0.00488
C 4.861 24.15915 0.01364
C 3.67405 10.63671 0.01745
C 2.4442 12.80717 -0.01384
C 3.72394 30.50222 -0.01142
C 2.46236 29.83212 -0.00562
C 2.47935 28.38689 -0.00494
C 3.71222 27.69186 0.00054
C 3.6359 26.3157 0.03007
C 2.48096 25.56923 -0.00095
C 2.42227 24.12819 0.01572
C 3.64712 23.41019 -0.04848
C 3.65616 22.01678 -0.00892
C 2.47442 21.26983 -0.01362
C 2.49908 19.91762 -0.0008
C 3.69181 19.17888 0.0288
C 3.77978 17.75145 0.00393
C 2.47557 17.04008 0.00895
C 2.40707 15.62214 0.00685
C 3.67178 14.96915 0.02888
C 3.6931 13.49129 -0.00482
C 2.49244 11.33975 0.03693
C 9.82836 2.8474 0.05265
C 4.97791 19.92133 -0.01062
C 4.86916 15.63545 0.03589
C 7.40952 7.1037 -0.01789
C 8.52463 6.34991 0.00444
C 8.58452 5.03026 -0.00925
C 7.34565 4.29351 0.01877
C 7.3811 2.85093 0.01363
C 8.64066 2.14759 -0.02162
C 8.59387 0.64515 0.00415
C 7.41178 0.01374 -0.0014
C 9.86721 32.69693 0.02162
C 11.06145 31.95705 0.0076
C 11.05314 30.52293 0.01241
C 9.81789 29.75239 -0.01454
C 9.78768 28.37556 0.01945
C 9.84133 8.5627 0.01416
C 9.83948 7.07314 0.03542
C 11.08865 6.4041 0.02299
C 11.0842 5.02065 0.00244
C 7.33699 8.5319 0.02894
C 4.95361 16.98134 -0.00033
C 8.68425 9.22076 -0.02971
C 7.42132 28.43073 0.02819
C 4.86201 12.67508 -0.02759
C 4.91873 11.35099 0.0402
C 6.09422 10.64974 0.00572
C 6.07705 9.20467 0.03592
C 4.8978 8.5234 0.00406
C 4.89955 7.11808 0.00943
C 6.12246 6.42837 0.02841
C 6.16806 4.92304 -0.01111
C 4.90707 4.31236 -0.01275
C 4.91382 2.87252 0.00985
C 6.17255 2.16215 -0.02245
C 6.12647 0.71531 -0.00428
C 4.92329 0.01263 0.03101
C 7.39994 32.68184 -0.01536
C 8.60236 31.95879 -0.02689
C 8.60072 30.5814 -0.01046
C 7.45416 29.80915 -0.00891
C 8.65168 27.7688 0.00165
C 3.69275 31.98932 0.01849
C 22.19511 15.65876 0.01126
C 23.34711 13.53633 -0.00381
C 31.97164 28.42697 0.0544
C 33.22359 27.71451 0.00026
C 33.13534 26.27379 0.00682
C 31.97034 25.58159 -0.01779
C 31.99929 24.1374 0.03794
C 33.23248 23.40571 0.01927
C 33.19262 22.03258 0.01574
C 31.97122 21.34651 -0.02383
C 31.98797 19.8969 -0.01429
C 33.15466 19.17477 -0.0136
C 33.14915 17.79059 0.00594
C 31.97344 17.01877 -0.02474
C 32.01183 15.58433 0.00369
C 33.17658 14.93014 0.00455
C 33.199 13.49134 -0.00644
C 32.00486 12.83379 -0.01839
C 31.97805 11.29988 0.00137
C 31.97517 29.82748 -0.02142
C 33.14296 10.63877 0.00199
C 33.21671 30.52505 0.01428
C 31.93963 32.68591 0.01713
C 29.43078 17.03264 0.0101
C 29.47884 15.61665 0.01705
C 30.74839 14.87042 -0.0405
C 30.75403 13.53583 -0.01303
C 29.46296 12.7902 -0.01461
C 29.53821 11.39874 -0.02155
C 30.75179 10.61104 -0.00944
C 30.73555 9.24335 -0.03735
C 29.49739 8.54395 -0.00971
C 29.55848 7.10123 0.01518
C 30.77082 6.44718 0.01908
C 30.73248 4.96769 0.07705
C 29.48673 4.25972 0.0103
C 29.50598 2.84589 0.02108
C 30.69549 2.16775 0.00716
C 30.78399 0.69857 0.00307
C 29.52272 34.02496 0.00346
C 33.25125 31.92368 -0.01694
C 30.73824 17.75069 -0.00669
C 33.17767 9.25676 0.04381
C 31.97918 7.12313 0.01504
C 1.21407 17.73453 0.01223
C 34.42275 17.00725 0.00648
C 34.40709 15.63368 0.02114
C 1.26192 14.9446 -0.02957
C 1.23374 13.43263 0.00343
C 0.03126 12.73069 -0.02656
C 34.4267 11.37529 -0.02442
C 1.2146 10.70553 -0.00027
C 1.21885 9.19347 -0.00583
C 34.37903 8.5366 -0.02302
C 0.03295 7.06247 -0.02849
C 1.18364 6.33396 0.02931
C 1.18915 4.96924 0.00628
C 34.40559 4.21297 -0.0345
C 34.40561 2.85118 -0.00931
C 1.23482 2.14144 -0.00939
C 1.26738 0.65925 -0.00468
C 1.27225 19.17463 -0.01678
C 31.97538 8.5488 0.02806
C 0.05094 19.8747 0.01951
C 1.20931 21.96362 0.02712
C 33.20813 6.40144 -0.00069
C 33.23775 4.94969 0.04926
C 31.94643 4.25892 -0.03838
C 31.98722 2.84149 0.00349
C 33.19466 2.12991 -0.00323
C 33.19245 0.7036 -0.00841
C 31.99414 0.05642 0.0001
C 34.41861 32.66146 -0.02927
C 1.26144 32.00543 -0.01404
C 1.19931 30.54992 0.01027
C 34.42904 29.8209 0.01831
C 0.00397 28.4056 -0.01037
C 1.27278 27.70418 -0.00439
C 1.26875 26.26428 -0.00598
C 34.40234 25.54694 -0.05239
C 34.42052 24.17741 0.03076
C 1.22331 23.45653 0.00723
C 0.01874 21.34858 -0.02213
C 23.29645 14.80925 0.01852
C 30.71146 19.13868 0.03531
C 29.53501 21.30972 -0.03039
C 24.62291 17.02923 -0.04078
C 24.52747 15.59569 0.02117
C 25.78872 14.93595 0.02737
C 25.84599 13.48081 -0.00498
C 24.55677 12.79024 0.00135
C 24.59375 11.30807 0.03102
C 25.79418 10.67708 0.02555
C 25.84194 9.26542 0.01423
C 24.61444 7.07808 -0.00285
C 25.82089 6.37878 -0.009
C 25.79345 4.91988 -0.01199
C 24.52682 4.29846 -0.00229
C 24.61301 2.87536 -0.00938
C 25.85648 2.10421 -0.0264
C 25.84547 0.71394 -0.01154
C 24.56063 0.0356 0.00684
C 27.04679 32.64745 -0.01052
C 25.80853 17.81342 0.03005
C 28.27522 31.94992 -0.01679
C 25.79644 19.18803 -0.0276
C 24.59595 21.30534 -0.00178
C 23.34521 4.94343 0.03046
C 22.19833 4.27275 0.0296
C 22.10995 2.80189 0.03374
C 23.35851 2.11983 -0.02845
C 23.35159 0.71782 -0.03213
C 22.12277 0.1014 0.02239
C 24.61338 32.61614 0.01153
C 25.80071 31.89892 0.02734
C 25.76919 30.50964 -0.0055
C 24.58867 29.84249 0.01515
C 24.61193 28.41089 -0.00225
C 25.74837 27.66079 0.00071
C 25.7972 26.25816 -0.01107
C 24.61204 25.55968 -0.01586
C 24.57484 24.11042 -0.01971
C 25.78211 23.44348 -0.02118
C 25.83184 21.98092 0.00733
C 24.5848 19.87347 0.00768
C 29.54671 19.88135 0.01836
C 28.26276 30.52507 0.00367
C 27.05744 28.35647 0.00996
C 28.27408 4.9482 0.00235
C 27.01385 4.2427 0.01495
C 27.06748 2.8432 0.01259
C 28.32799 2.10017 0.01799
C 28.27075 0.7286 0.01699
C 26.99349 34.0633 -0.00416
C 29.4427 32.63738 0.01177
C 30.75692 31.88231 0.04266
C 30.70917 30.53294 0.01324
C 29.54636 29.79777 0.0014
C 29.54102 28.38201 0.00924
C 30.68184 27.67737 0.02326
C 30.67026 26.21031 0.00261
C 29.5174 25.52081 0.03265
C 29.51562 24.07926 -0.02049
C 30.78563 23.4015 -0.01854
C 30.78347 21.99236 -0.01415
C 28.3326 6.37176 0.01094
C 27.0523 29.83786 0.04306
C 27.08238 7.04285 0.02198
C 28.2547 9.21851 -0.00621
C 28.26898 27.71493 0.00195
C 28.33425 26.23453 -0.00802
C 27.12907 25.54727 -0.00218
C 27.02482 24.11194 -0.01654
C 28.27395 23.40585 -0.00037
C 28.31533 22.02006 -0.0032
C 27.0494 21.27887 0.00622
C 27.09315 19.87773 -0.02815
C 28.26323 19.15192 -0.00942
C 28.27431 17.75715 0.00487
C 27.07447 17.03464 0.00826
C 27.09412 15.64729 -0.00294
C 28.30783 14.93594 0.00152
C 28.29011 13.52705 0.01257
C 27.07512 12.70028 0.02316
C 27.05369 11.34993 0.04185
C 28.31557 10.66632 0.00194
C 27.03266 8.58695 0.02611
C 2.44185 32.65402 0.01396
