303
Graphene
C 34.41119 0.05102 0.01295
C 9.87167 24.07199 0.01452
C 11.17152 23.38453 0.04892
C 11.18162 22.03612 -0.00111
C 9.89534 21.38004 -0.03557
C 9.79863 20.02276 0.03754
C 10.94535 19.15517 0.01739
C 11.00646 17.82396 0.00755
C 9.87606 2.73922 -0.0054
C 11.13857 0.48772 0.00667
C 9.83614 0.00525 0.00143
C 12.32306 32.68085 -0.017
C 13.54306 31.96961 0.00364
C 13.50927 30.50095 -0.00831
C 12.23775 29.80205 -0.02957
C 12.19284 28.41818 -0.04422
C 9.86071 25.52924 -0.01581
C 13.52499 27.76226 0.00654
C 11.12942 26.245 0.02691
C 9.83289 28.42847 0.02188
C 8.37205 15.00655 -0.02815
C 8.48978 13.77005 -0.04147
C 7.36882 12.71588 -0.05302
C 7.36675 11.25368 0.00213
C 7.16516 8.47462 -0.00066
C 7.33736 7.22867 -0.00289
C 7.40878 4.22921 0.00028
C 7.40938 2.85285 -0.02213
C 8.59906 2.17238 0.03698
C 8.57747 0.6817 -0.00109
C 7.35292 34.05058 -0.00491
C 9.8039 32.66808 0.03338
C 11.10286 32.01172 -0.0258
C 11.0749 30.56075 -0.0331
C 9.8946 29.82808 -0.00316
C 11.05412 27.60309 -0.01979
C 7.13607 15.99564 0.03505
C 13.56317 26.30304 -0.00703
C 12.46746 24.08951 -0.00652
C 18.40177 27.86215 0.01126
C 18.30836 0.61887 0.01852
C 17.2781 33.96678 -0.00381
C 19.67905 32.78136 0.03046
C 20.87781 31.96949 0.0296
C 20.8929 30.51875 0.03374
C 19.72086 29.79534 -0.02845
C 19.55004 28.45246 -0.03213
C 21.0119 2.18621 0.02239
C 20.78173 0.88028 0.01153
C 19.58755 0.18204 0.02734
C 22.05672 32.6931 -0.0055
C 23.30125 31.94417 0.01515
C 23.35202 30.49989 -0.00225
C 22.07054 29.93314 0.00071
C 17.10432 28.22291 -0.01185
C 12.41935 25.5027 -0.04076
C 17.23256 29.63051 -0.01662
C 18.47944 31.91536 0.01511
C 13.69739 23.42688 0.0058
C 12.22363 21.17889 -0.00865
C 12.23067 19.87227 0.00675
C 13.32198 17.67154 -0.00311
C 12.11734 16.95997 0.00742
C 12.45416 34.07704 -0.01594
C 14.7992 32.65088 0.0106
C 15.9702 31.89939 -0.01154
C 16.04869 30.45324 -0.01721
C 14.75743 29.84703 -0.02422
C 14.75432 28.46512 0.01277
C 15.87467 27.64847 0.00096
C 14.86646 25.76288 -0.01527
C 14.90166 0.00184 0.01087
C 17.20239 32.55254 0.00199
C 18.44334 30.45111 -0.00478
C 22.20052 28.45105 -0.01107
C 7.56169 19.94226 0.01443
C 8.63386 22.00367 -0.00481
C 3.74149 10.63297 0.00985
C 3.66377 9.21096 -0.02245
C 2.43618 8.51301 -0.00428
C 2.47848 7.06983 0.03101
C 3.69698 6.30837 -0.01536
C 3.69769 4.90277 -0.02689
C 2.42113 4.31061 -0.01046
C 2.41345 2.84146 -0.00891
C 3.68125 2.12303 0.02819
C 3.72561 0.70921 0.00165
C 2.45456 0.02645 -0.02971
C 4.91057 32.60714 0.02894
C 6.13611 31.92543 -0.01789
C 6.12613 30.46527 0.00444
C 4.88702 29.74466 -0.00925
C 2.52406 11.39377 -0.01275
C 4.89897 28.32617 0.01877
C 2.48572 12.73914 -0.01111
C 3.64311 14.93205 0.00943
C 3.69718 30.44935 0.00057
C 2.4379 29.81527 -0.01634
C 2.45637 28.35561 -0.00334
C 3.64442 27.65677 0.02339
C 3.61487 26.20844 0.01641
C 2.35241 25.56354 -0.00719
C 2.39307 24.1416 0.01364
C 3.61481 23.42908 -0.01062
C 3.64026 22.00424 -0.00033
C 2.42285 21.31602 0.03589
C 2.41298 19.89389 -0.02759
C 3.71169 19.25051 0.0402
C 3.67792 17.79256 0.00572
C 2.42512 17.08496 0.03592
C 2.44369 15.69549 0.00406
C 3.65879 13.56281 0.02841
C 7.41213 21.31669 0.00979
C 6.22403 27.70977 0.01363
C 4.83288 25.58277 0.00415
C 4.94284 4.29408 -0.01957
C 4.92747 2.88934 -0.0108
C 6.17991 2.17971 -0.00368
C 6.16832 0.71835 -0.02696
C 4.93433 34.0545 -0.00114
C 7.37287 32.64583 0.00228
C 8.63706 31.88343 0.00798
C 8.66572 30.4731 0.00422
C 7.46631 29.7841 0.0351
C 7.43873 28.37545 -0.03113
C 8.64127 27.67197 0.02098
C 8.58194 26.25403 0.01848
C 7.40274 25.56795 -0.00619
C 7.3405 24.10568 -0.02162
C 8.62152 23.42238 0.00889
C 6.22451 4.97261 0.02058
C 6.13234 26.25808 -0.02162
C 6.20913 6.36474 0.01965
C 4.86699 8.47638 0.00052
C 4.82526 24.13989 -0.0014
C 6.08685 23.42237 0.02162
C 6.15466 21.96742 0.0076
C 4.89788 21.30247 0.01241
C 5.02658 19.84149 -0.01454
C 6.4697 19.02454 0.01945
C 6.36979 17.54485 0.01416
C 4.94096 17.0874 0.03542
C 4.87928 15.68676 0.02299
C 6.0693 14.96775 0.00244
C 6.22432 13.55178 -0.01717
C 4.95144 12.87195 0.05265
C 4.84303 11.4052 -0.01952
C 6.04308 10.72846 -0.02813
C 6.02628 9.28243 0.00374
C 4.9878 7.07246 -0.03682
C 3.69119 31.91678 0.00093
C 23.17814 27.6282 -0.01586
C 23.5443 6.17629 -0.02118
C 33.10713 22.05455 0.01574
C 31.88353 21.34743 -0.02383
C 31.97022 19.93755 -0.01429
C 33.13888 19.18123 -0.0136
C 33.12979 17.75985 0.00594
C 31.94318 17.05882 -0.02474
C 31.85339 15.64181 0.00369
C 33.11383 14.9516 0.00455
C 33.21175 13.53494 -0.00644
C 31.91789 12.79524 -0.01839
C 31.96797 11.37614 0.00137
C 33.20409 10.69394 0.00199
C 33.22374 9.32593 0.04381
C 32.01962 8.56676 0.02806
C 32.00259 7.15645 0.01504
C 33.06179 23.47076 0.01927
C 33.23061 6.4257 -0.00069
C 31.853 24.23174 0.03794
C 33.16676 26.25992 0.00682
C 29.50884 8.48661 -0.00971
C 29.51204 7.06419 0.01518
C 30.78121 6.44227 0.01908
C 30.73962 5.0248 0.07705
C 29.49085 4.27941 0.0103
C 29.47895 2.86457 0.02108
C 30.70543 2.11326 0.00716
C 30.65941 0.71466 0.00307
C 29.42358 34.07001 0.00346
C 31.89026 32.69051 0.01713
C 33.20497 32.02389 -0.01694
C 33.20788 30.57394 0.01428
C 31.94388 29.88877 -0.02142
C 31.95166 28.45469 0.0544
C 33.14203 27.71212 0.00026
C 31.89214 25.64278 -0.01779
C 30.75199 9.31328 -0.03735
C 33.12357 5.02566 0.04926
C 31.89694 2.89313 0.00349
C 34.36642 15.71235 0.02114
C 1.23001 14.95797 -0.02957
C 1.28189 13.55241 0.00343
C 0.03089 12.79666 -0.02656
C 0.02255 11.44683 -0.02442
C 1.26403 10.70236 -0.00027
C 1.24428 9.24141 -0.00583
C 34.43234 8.58385 -0.02302
C 0.02153 7.15687 -0.02849
C 1.18372 6.43384 0.02931
C 1.19266 5.0402 0.00628
C 34.38692 4.33069 -0.0345
C 34.35038 2.90468 -0.00931
C 1.13731 2.16031 -0.00939
C 1.21835 0.70552 -0.00468
C 0.00772 17.08428 0.00648
C 31.92675 4.26987 -0.03838
C 1.23058 17.82243 0.01223
C 34.36053 19.94973 0.01951
C 33.14455 2.15643 -0.00323
C 33.14263 0.71836 -0.00841
C 31.88893 0.04402 0.0001
C 34.41012 32.69925 -0.02927
C 1.20343 32.00542 -0.01404
C 1.22774 30.53247 0.01027
C 34.42681 29.84325 0.01831
C 34.36589 28.42775 -0.01037
C 1.1656 27.68664 -0.00439
C 1.14053 26.27575 -0.00598
C 34.3621 25.62153 -0.05239
C 34.34428 24.15685 0.03076
C 1.14818 23.4519 0.00723
C 1.18212 22.0582 0.02712
C 34.33774 21.38897 -0.02213
C 1.18857 19.26822 -0.01678
C 23.37986 10.42453 -0.01971
C 30.77508 10.6508 -0.00944
C 29.49157 12.73438 -0.01461
C 25.7899 6.38986 -0.01154
C 25.77312 4.96633 0.00684
C 24.62085 4.14846 -0.01052
C 24.61158 2.81633 -0.01679
C 25.72913 2.10148 0.00367
C 25.79437 0.70496 0.04306
C 24.46748 34.07391 0.00996
C 26.98937 32.65483 0.00195
C 28.20834 31.94118 -0.00802
C 28.20071 30.55358 -0.00218
C 26.93528 29.76583 -0.01654
C 26.9076 28.38059 -0.00037
C 28.1698 27.74917 -0.0032
C 28.2539 26.33281 0.00622
C 27.03528 25.60496 -0.02815
C 24.45475 7.27564 -0.0264
C 28.38318 23.41172 -0.00942
C 24.49778 8.7974 -0.00938
C 25.81674 10.63667 -0.01199
C 23.44938 4.98201 0.00733
C 22.15144 2.78935 -0.00178
C 23.34226 2.15348 0.00768
C 23.2272 0.75906 -0.0276
C 21.96471 0.07535 0.03005
C 24.49502 32.59684 -0.04078
C 25.6979 31.9018 0.02117
C 25.71237 30.45218 0.02737
C 24.50499 29.67507 -0.00498
C 24.3975 28.22493 0.00135
C 25.70936 27.7244 0.03102
C 26.00282 26.38931 0.02555
C 25.90231 13.54369 0.01423
C 24.80042 12.72519 -0.00285
C 24.44655 11.39038 -0.009
C 25.78494 9.26129 -0.00229
C 29.47832 11.33783 -0.02155
C 28.40279 22.20078 0.00487
C 26.95109 15.47894 -0.00294
C 29.42489 28.44193 0.00924
C 30.67292 27.80758 0.02326
C 30.65593 26.39555 0.00261
C 29.44986 25.69838 0.03265
C 29.50062 24.26083 -0.02049
C 30.61763 23.46894 -0.01854
C 30.56691 21.96277 -0.01415
C 29.37126 21.10428 -0.03039
C 29.43338 19.655 0.01836
C 30.74848 19.21774 0.03531
C 30.78439 17.77769 -0.00669
C 29.48417 17.1224 0.0101
C 29.43707 15.66394 0.01705
C 30.68143 14.96248 -0.0405
C 30.68189 13.52162 -0.01303
C 29.42866 29.8505 0.0014
C 28.36898 18.05358 0.00826
C 30.69784 30.54496 0.01324
C 29.39434 32.67685 0.01177
C 28.25455 14.86669 0.00152
C 28.3408 13.49994 0.01257
C 27.08607 12.79841 0.02316
C 26.98755 11.39581 0.04185
C 28.23191 10.62821 0.00194
C 28.23671 9.19088 -0.00621
C 27.06382 8.49138 0.02611
C 26.9806 7.0653 0.02198
C 28.27264 6.41583 0.01094
C 28.29739 5.01161 0.00235
C 27.03079 4.23485 0.01495
C 26.9845 2.82425 0.01259
C 28.21776 2.09058 0.01799
C 28.19277 0.70329 0.01699
C 27.00506 34.06392 -0.00416
C 30.70558 31.95464 0.04266
C 2.41595 32.64458 0.01291
