374
Graphene
C 0.0066 0.10181 0.01295
C 9.75707 8.55239 0.02299
C 9.82226 7.1025 0.00244
C 11.00987 6.43353 -0.01717
C 11.11352 5.09169 0.05265
C 9.88742 4.34034 -0.01952
C 9.8083 2.87236 -0.02813
C 11.01587 2.10957 0.00374
C 10.97602 0.65119 0.00052
C 9.72644 34.05369 -0.03682
C 12.32511 32.66879 0.01965
C 13.51785 31.9442 0.02058
C 13.59047 30.53041 -0.01957
C 12.35833 29.81775 -0.0108
C 12.2738 28.42937 -0.00368
C 13.56023 27.68366 -0.02696
C 13.45702 26.29455 -0.00114
C 12.29507 25.47393 0.00228
C 12.27076 24.07024 0.00798
C 13.48397 23.46357 0.00422
C 11.0237 9.21183 0.03542
C 13.52168 22.04689 0.0351
C 11.20878 10.55054 0.01416
C 9.73119 12.79369 -0.01454
C 9.78709 32.56095 -0.01536
C 11.05687 31.9813 -0.02689
C 11.12671 30.55712 -0.01046
C 9.87917 29.86422 -0.00891
C 9.83837 28.45503 0.02819
C 11.10799 27.68008 0.00165
C 11.12718 26.26987 -0.02971
C 9.8569 25.68413 0.02894
C 9.81945 24.2133 -0.01789
C 10.98568 23.46857 0.00444
C 11.07724 22.00213 -0.00925
C 9.87992 21.3019 0.01877
C 9.90174 19.85021 0.01363
C 11.15553 19.16872 -0.02162
C 11.16886 17.7178 0.00415
C 9.92438 17.01981 -0.0014
C 9.82675 15.53342 0.02162
C 11.05215 14.90355 0.0076
C 11.02989 13.47004 0.01241
C 9.84314 11.36671 0.01945
C 12.285 21.37559 -0.03113
C 12.36331 19.94453 0.02098
C 13.54469 19.23999 0.01848
C 14.72821 21.31393 0.02691
C 14.76318 19.94848 -0.01581
C 15.98326 19.15696 0.01452
C 15.98447 17.73058 0.04892
C 14.71526 17.01622 -0.00111
C 14.73685 15.68592 -0.03557
C 15.88925 14.85824 0.03754
C 16.01444 13.45445 0.01739
C 14.78122 12.815 0.00755
C 14.93165 11.35147 -0.0054
C 15.98708 10.5773 0.00667
C 16.02988 6.3055 0.00143
C 16.02503 4.94467 -0.017
C 14.77317 4.19064 0.00364
C 14.68559 2.76993 -0.00831
C 15.91454 2.08125 -0.02957
C 15.90397 0.68528 -0.04422
C 14.69489 34.07102 0.00654
C 17.19053 32.59974 -0.00703
C 15.92075 22.06386 -0.01979
C 15.93229 23.44446 0.02188
C 14.72025 24.14407 -0.00316
C 14.67363 25.57906 -0.0331
C 13.56534 17.76969 -0.00619
C 12.37233 16.98709 -0.02162
C 12.30359 15.56729 0.00889
C 13.55172 14.91698 -0.00481
C 13.59071 13.53737 0.00979
C 12.27529 12.74931 0.01443
C 12.34836 11.43208 0.03505
C 13.58634 4.842 -0.02815
C 12.3394 4.24532 -0.04147
C 7.32474 0.04255 0.03101
C 12.23485 2.77353 -0.05302
C 13.4846 0.68244 -0.00066
C 12.24286 34.05585 -0.00289
C 14.74189 32.66538 0.00028
C 15.9246 31.94725 -0.02213
C 15.99021 30.53457 0.03698
C 14.79172 29.7884 -0.00109
C 14.76468 28.3973 -0.00491
C 16.01568 27.58273 0.03338
C 15.90883 26.1987 -0.0258
C 13.48564 2.11011 0.00213
C 8.56355 0.66777 -0.00428
C 8.61638 2.09536 -0.02245
C 7.33362 2.83864 0.00985
C 3.70358 5.01648 -0.00077
C 2.49215 4.29353 0.03368
C 2.39081 2.92772 -0.02929
C 3.67659 2.18045 -0.00966
C 3.70617 0.75371 -0.03337
C 2.46384 0.037 0.01227
C 4.82817 32.6911 0.00873
C 6.10892 31.99525 -0.00049
C 6.08098 30.60551 0.00848
C 4.85077 29.8531 -0.01303
C 4.85012 28.40209 -0.01378
C 6.1071 27.72116 0.02635
C 6.17914 26.31732 0.0127
C 4.91048 25.65421 0.01396
C 4.90782 24.21244 0.01849
C 6.12511 23.53822 -0.01142
C 6.16354 22.10584 -0.00562
C 4.95118 21.30199 -0.00494
C 4.8476 19.84794 0.00054
C 3.61625 6.41589 0.01305
C 2.43911 7.08084 0.0276
C 2.52755 8.57998 0.00988
C 3.73494 9.30634 -0.01343
C 3.65889 30.60722 0.0073
C 2.45223 29.82913 0.0174
C 2.42832 28.43914 0.03828
C 3.67173 27.7648 0.01226
C 3.69734 26.27037 -0.00279
C 2.43896 25.54137 0.01996
C 2.44414 24.12102 -0.03996
C 3.75653 23.43711 0.01465
C 3.73412 22.02836 -0.00074
C 6.11517 19.15679 0.03007
C 2.45123 21.32481 -0.00518
C 3.64444 19.21818 -0.00643
C 3.64408 17.69753 0.017
C 2.41539 17.10171 -0.03113
C 2.5013 15.7102 -0.02566
C 3.72743 14.92213 -0.00094
C 3.71416 13.58619 0.02322
C 2.40332 12.87044 -0.00725
C 2.50147 11.40654 -0.05697
C 3.74712 10.72055 0.01087
C 2.3732 19.92411 0.0086
C 18.44232 31.86049 -0.04076
C 6.16605 17.72962 -0.00095
C 4.97715 15.63905 -0.04848
C 8.65057 23.50092 0.00057
C 8.65471 21.98208 -0.01634
C 7.31706 21.36454 -0.00334
C 7.35925 19.8913 0.02339
C 8.62714 19.17238 0.01641
C 8.64243 17.74773 -0.00719
C 7.43135 17.00505 0.01364
C 7.41485 15.60442 -0.01062
C 8.58861 14.86808 -0.00033
C 8.50141 13.46731 0.03589
C 7.31264 12.8051 -0.02759
C 7.32907 11.36689 0.0402
C 8.62486 10.67111 0.00572
C 8.63358 9.2301 0.03592
C 7.36705 8.60025 0.00406
C 7.34063 7.12789 0.00943
C 8.58636 6.41839 0.02841
C 8.65714 5.02569 -0.01111
C 7.44381 4.23794 -0.01275
C 7.41841 24.16928 0.00093
C 7.44921 25.55925 0.01291
C 8.6141 26.40261 0.00438
C 8.58245 27.76885 -0.00191
C 6.12859 14.92019 -0.00892
C 6.14055 13.49825 -0.01362
C 4.95167 12.84217 -0.0008
C 4.89165 11.47681 0.0288
C 6.12156 10.69223 0.00393
C 6.15623 9.29731 0.00895
C 4.94964 8.55346 0.00685
C 4.85692 7.1624 0.02888
C 6.08729 6.42662 -0.00482
C 4.91306 17.03095 0.01572
C 6.23644 5.05233 -0.01384
C 4.88767 2.9559 0.01745
C 6.10604 2.19183 0.00488
C 6.10226 0.76849 -0.01004
C 4.91406 34.06078 -0.02896
C 7.33019 32.65323 -0.00131
C 8.50474 31.94352 -0.01118
C 8.61306 30.52558 -0.014
C 7.34346 29.8889 0.02147
C 7.31581 28.50969 0.00373
C 4.93799 4.34267 0.03693
C 18.4199 30.42479 -0.00652
C 17.19318 29.80447 0.0058
C 17.20849 28.39268 -0.00865
C 29.52665 4.31393 0.00716
C 29.47851 2.90102 0.00307
C 30.682 2.13788 0.00346
C 30.68963 0.71938 0.01713
C 29.50052 34.03793 -0.01694
C 31.92092 32.72927 0.01428
C 33.16773 32.05534 -0.02142
C 33.16286 30.5682 0.0544
C 32.00093 29.78371 0.00026
C 31.96075 28.36029 0.00682
C 33.22318 27.74558 -0.01779
C 33.20171 26.32371 0.03794
C 31.97268 25.63347 0.01927
C 31.86288 24.20399 0.01574
C 33.10952 23.43234 -0.02383
C 33.05433 21.987 -0.01429
C 31.8117 21.48865 -0.0136
C 33.31015 18.99206 0.00594
C 33.20218 17.80771 -0.02474
C 30.7291 4.97478 0.02108
C 30.74581 6.40182 0.0103
C 29.51064 7.09959 0.07705
C 29.56552 8.5163 0.01908
C 28.28834 4.97493 0.02326
C 27.07549 4.26923 0.00261
C 27.06886 2.84273 0.03265
C 28.24976 2.16626 -0.02049
C 28.28933 0.67701 -0.01854
C 27.03768 0.0104 -0.01415
C 29.50545 32.59717 -0.03039
C 30.76916 31.95077 0.01836
C 30.79405 30.50629 0.03531
C 31.96587 15.5843 0.00369
C 29.5399 29.73026 -0.00669
C 30.75016 27.63421 0.01705
C 30.66831 26.1919 -0.0405
C 29.53601 25.44696 -0.01303
C 30.64386 23.62199 -0.01461
C 30.69614 13.46267 -0.02155
C 29.66641 12.76242 -0.00944
C 29.61066 11.36401 -0.03735
C 30.79333 10.60929 -0.00971
C 30.7747 9.24001 0.01518
C 29.53051 28.29788 0.0101
C 28.29077 6.37099 0.00924
C 33.11782 14.94221 0.00455
C 31.95224 12.77511 -0.01839
C 34.37755 19.8593 0.01951
C 1.18683 19.18946 -0.01678
C 1.20258 17.84108 0.01223
C 34.3967 17.08274 0.00648
C 0.04879 15.69952 0.02114
C 1.22975 14.97574 -0.02957
C 1.24009 13.54906 0.00343
C 6e-05 12.81196 -0.02656
C 0.06034 11.37483 -0.02442
C 1.28682 10.63547 -0.00027
C 1.2744 9.25829 -0.00583
C 0.01171 8.57523 -0.02302
C 34.34132 7.08732 -0.02849
C 1.15408 6.47142 0.02931
C 1.1837 5.00271 0.00628
C 34.38301 4.27188 -0.0345
C 34.39859 2.79928 -0.00931
C 1.21151 2.13706 -0.00939
C 1.22246 0.76424 -0.00468
C 34.36819 21.25669 -0.02213
C 1.19024 21.93682 0.02712
C 1.20053 23.40445 0.00723
C 34.39693 24.11141 0.03076
C 31.96243 11.4294 0.00137
C 33.22651 10.69273 0.00199
C 33.24132 9.27321 0.04381
C 32.02492 8.54596 0.02806
C 31.9559 7.08967 0.01504
C 33.16518 6.36985 -0.00069
C 33.18547 4.93147 0.04926
C 31.95438 4.19636 -0.03838
C 31.85861 2.80207 0.00349
C 33.14793 13.43705 -0.00644
C 33.16559 2.11202 -0.00323
C 31.92446 0.0777 0.0001
C 34.39179 32.74409 -0.02927
C 1.17737 31.98981 -0.01404
C 1.27025 30.57839 0.01027
C 0.01808 29.87453 0.01831
C 0.00807 28.42675 -0.01037
C 1.2108 27.70323 -0.00439
C 1.20039 26.24714 -0.00598
C 34.42534 25.52087 -0.05239
C 33.19195 0.77994 -0.00841
C 3.58703 31.99658 0.00402
C 27.07868 7.08173 0.0014
C 28.34031 9.24916 0.04266
C 17.12908 34.03033 -0.03213
C 19.68365 32.54733 0.02239
C 20.92823 32.02616 0.01153
C 20.77291 25.85849 0.02734
C 19.44584 25.52351 -0.0055
C 19.62167 24.18587 0.01515
C 19.59809 12.68285 -0.00225
C 19.66855 11.25256 0.00071
C 20.88097 10.65328 -0.01107
C 20.87883 9.211 -0.01586
C 19.68182 8.46507 -0.01971
C 19.73867 7.08911 -0.02118
C 20.88737 6.32187 0.00733
C 20.86097 4.91462 -0.00178
C 19.65514 4.20315 0.00768
C 19.657 2.73069 -0.0276
C 20.91941 2.14946 0.03005
C 20.89816 0.70022 -0.04078
C 19.60887 34.07924 0.02117
C 18.3108 0.66832 -0.02845
C 18.39268 2.0983 0.03374
C 17.1747 2.7744 0.0296
C 17.20395 4.23519 0.03046
C 18.34434 27.66959 0.00675
C 18.26777 26.31951 -0.00311
C 17.10754 25.46427 0.00742
C 17.16666 24.08111 -0.01594
C 18.5795 23.27492 0.0106
C 18.47773 21.93307 -0.01154
C 17.37576 21.14632 -0.01721
C 17.17254 19.76166 -0.02422
C 17.16006 17.00667 0.01277
C 22.18853 32.60292 0.02737
C 17.2593 15.67205 0.00096
C 18.55237 13.59293 0.01087
C 17.23858 12.73466 0.00199
C 17.21912 11.27343 0.01511
C 18.48386 10.57657 -0.00478
C 18.44547 9.16547 -0.01662
C 17.25498 8.53661 -0.01185
C 17.09956 7.17537 0.01126
C 18.45978 6.39292 0.01852
C 18.44318 4.98261 -0.00381
C 18.35803 14.92023 -0.01527
C 27.07847 8.47966 0.01324
C 23.40921 31.89691 -0.00498
C 23.50507 27.53304 0.03102
C 24.55891 8.49014 0.00487
C 24.56341 7.07794 0.00826
C 25.86337 6.34248 -0.00294
C 25.81134 4.97243 0.00152
C 24.54076 4.3107 0.01257
C 24.56757 2.92797 0.02316
C 25.76846 2.17799 0.04185
C 25.81601 0.73419 0.00194
C 24.63822 34.04517 -0.00621
C 27.08268 32.67421 0.02611
C 28.33616 31.93458 0.02198
C 28.38945 30.54742 0.01094
C 27.12823 29.83613 0.00235
C 27.09636 28.38159 0.01495
C 28.25039 27.55576 0.01259
C 28.27036 26.03516 0.01799
C 26.89546 25.75393 0.01699
C 27.18124 11.20924 -0.00416
C 28.33288 10.63259 0.01177
C 25.82491 9.18717 -0.00942
C 25.86816 10.76927 -0.02815
C 24.59262 11.20356 0.00622
C 25.77153 26.22572 -0.0032
C 23.00279 26.48949 0.02555
C 21.98707 25.79168 0.01423
C 22.07921 11.29171 -0.00285
C 23.35741 10.68609 -0.009
C 23.32743 9.21389 -0.01199
C 22.06284 8.44625 -0.00229
C 22.04544 7.03446 -0.00938
C 23.30899 6.41283 -0.0264
C 23.26077 4.96997 -0.01154
C 23.44349 30.54759 0.00135
C 22.09778 4.25663 0.00684
C 23.32645 2.10042 -0.01679
C 23.35707 0.65922 0.00367
C 22.07191 34.00967 0.04306
C 24.6919 32.66446 0.00996
C 25.90982 32.03469 0.00195
C 25.90059 30.5834 -0.00802
C 24.60317 29.84095 -0.00218
C 24.59411 28.44125 -0.01654
C 25.78412 27.67017 -0.00037
C 22.15899 2.84733 -0.01052
C 2.40124 32.7222 0.02374
