335
Graphene
C 34.42392 0.02016 0.01295
C 12.266 15.64745 0.00979
C 13.53006 14.93208 0.01443
C 13.50145 13.59879 0.03505
C 12.29886 12.87423 -0.02815
C 12.32884 11.38965 -0.04147
C 13.52177 10.60607 -0.05302
C 13.47294 9.1897 0.00213
C 12.25432 8.43671 -0.00066
C 12.33023 7.00837 -0.00289
C 13.52219 6.35675 0.00028
C 13.59645 4.94446 -0.02213
C 12.36978 4.22932 0.03698
C 12.34455 2.81929 -0.00109
C 13.59432 2.19264 -0.00491
C 13.5159 0.70717 0.03338
C 12.36133 34.05364 -0.0258
C 14.75242 32.55748 -0.0331
C 12.17769 16.99678 -0.00481
C 16.0571 31.79043 -0.00316
C 13.38236 17.68216 0.00889
C 12.33734 19.91895 -0.00619
C 9.82979 15.6528 0.00374
C 11.09054 14.95951 0.00052
C 11.00272 13.55994 -0.03682
C 9.81425 12.82594 0.01965
C 9.86186 11.45689 0.02058
C 11.14002 10.6935 -0.01957
C 11.05176 9.2462 -0.0108
C 9.77449 8.55241 -0.00368
C 9.81753 7.13473 -0.02696
C 11.05326 6.40374 -0.00114
C 11.1182 4.96541 0.00228
C 9.8895 4.3336 0.00798
C 9.85523 2.81342 0.00422
C 11.07837 2.09813 0.0351
C 11.10812 0.54412 -0.03113
C 9.82152 0.09496 0.02098
C 12.42544 21.34249 0.01848
C 13.4228 19.02147 -0.02162
C 9.83423 17.03681 -0.02813
C 16.06058 30.4786 0.02188
C 14.65586 17.00559 0.02691
C 18.55559 14.91169 -0.00865
C 18.50803 13.47927 0.00675
C 17.24908 12.83892 -0.00311
C 17.18035 11.43451 0.00742
C 18.42283 10.73854 -0.01594
C 18.35713 9.36212 0.0106
C 17.31889 8.38711 -0.01154
C 17.20457 7.02613 -0.01721
C 17.2088 4.3351 -0.02422
C 17.25559 2.92113 0.01277
C 18.34935 2.10934 0.00096
C 18.52892 0.75818 -0.01527
C 17.20789 0.01721 0.01087
C 19.71876 32.69066 0.00199
C 20.89239 31.86026 0.01511
C 21.08168 30.48555 -0.00478
C 20.93175 17.77506 -0.01662
C 17.25727 15.56146 0.0058
C 15.81842 17.69166 -0.01979
C 17.13527 17.08516 -0.00652
C 18.49905 31.92098 -0.00703
C 14.74491 15.63976 -0.01581
C 16.00288 14.91091 0.01452
C 15.94984 13.52064 0.04892
C 14.65659 12.82597 -0.00111
C 14.73006 11.4372 -0.03557
C 15.93703 10.70889 0.03754
C 15.94108 9.28519 0.01739
C 14.76459 8.50355 0.00755
C 14.76031 7.1065 -0.0054
C 16.02101 6.40234 0.00667
C 16.02582 5.03849 0.00143
C 14.84042 4.28208 -0.017
C 14.81564 2.8102 0.00364
C 15.95353 2.06238 -0.00831
C 15.96949 0.62168 -0.02957
C 14.701 33.96717 -0.04422
C 17.38081 32.59666 0.00654
C 18.38072 17.69695 -0.04076
C 19.66793 17.15681 -0.01185
C 11.0107 17.79789 -0.01952
C 9.82832 19.95243 -0.01717
C 3.57264 6.41362 -0.01004
C 3.65756 4.97583 -0.02896
C 2.45499 4.22055 -0.00131
C 2.43724 2.84023 -0.01118
C 3.68106 2.05674 -0.014
C 3.69304 0.64281 0.02147
C 2.45029 34.01404 0.00373
C 4.98595 32.63676 -0.00191
C 6.18517 32.0293 0.00438
C 6.2483 23.46414 0.01291
C 6.10451 22.14189 0.00093
C 4.89614 21.30143 0.00057
C 4.90396 19.86851 -0.01634
C 6.10065 19.21032 -0.00334
C 6.18068 17.80042 0.02339
C 4.97257 17.03841 0.01641
C 4.89811 15.61066 -0.00719
C 2.34199 7.09179 0.00488
C 6.18684 14.9452 0.01364
C 2.43656 8.5436 0.01745
C 3.64181 10.69851 -0.01384
C 3.69651 30.54892 -0.01142
C 2.58674 29.82084 -0.00562
C 2.45812 28.46323 -0.00494
C 2.43379 25.63156 0.00054
C 2.50911 24.26242 0.03007
C 3.70475 23.39992 -0.00095
C 3.69698 22.00872 0.01572
C 2.44386 21.29017 -0.04848
C 2.44488 19.88352 -0.00892
C 3.72156 19.1676 -0.01362
C 3.75804 17.70178 -0.0008
C 2.47183 17.04749 0.0288
C 2.52532 15.60621 0.00393
C 3.74177 14.8687 0.00895
C 3.71511 13.48231 0.00685
C 2.43587 12.83777 0.02888
C 2.42323 11.42552 -0.00482
C 3.64169 9.24998 0.03693
C 11.01109 19.20789 0.05265
C 6.19746 13.46859 -0.01062
C 4.90038 11.32269 0.03589
C 7.38982 12.70481 -0.01789
C 7.24741 11.31066 0.00444
C 8.55797 10.74728 -0.00925
C 8.56691 9.32768 0.01877
C 7.35438 8.53915 0.01363
C 7.39368 7.13281 -0.02162
C 8.66131 6.37857 0.00415
C 8.61738 4.94909 -0.0014
C 7.38967 4.32227 0.02162
C 7.37799 2.94362 0.0076
C 8.57025 2.13898 0.01241
C 8.54342 0.53799 -0.01454
C 7.2371 33.99549 0.01945
C 9.85595 24.01444 0.01416
C 10.87413 23.41273 0.03542
C 11.22818 22.05905 0.02299
C 9.89403 21.39693 0.00244
C 8.61824 13.49814 0.02894
C 4.98075 12.75287 -0.00033
C 8.60489 14.89469 -0.02971
C 7.42327 17.1542 0.02819
C 6.02731 10.52789 -0.02759
C 6.07807 9.09121 0.0402
C 4.8699 8.45694 0.00572
C 4.82722 7.03186 0.03592
C 6.1117 6.41746 0.00406
C 6.14748 5.02117 0.00943
C 4.8909 4.26561 0.02841
C 4.88001 2.83566 -0.01111
C 6.1538 2.16088 -0.01275
C 6.16607 0.77699 0.00985
C 4.92003 0.03252 -0.02245
C 8.66666 23.47855 -0.00428
C 8.64566 22.08393 0.03101
C 7.41746 21.36736 -0.01536
C 7.37096 19.96732 -0.02689
C 8.59067 19.19915 -0.01046
C 8.61496 17.83113 -0.00891
C 7.40812 15.69839 0.00165
C 3.68453 31.8777 0.01849
C 19.67827 15.66357 0.01126
C 20.887 13.45543 -0.00381
C 31.90201 28.43117 0.0544
C 33.18709 27.71553 0.00026
C 33.15477 26.30856 0.00682
C 31.91196 25.57435 -0.01779
C 32.01061 24.11474 0.03794
C 33.20861 23.46478 0.01927
C 33.1928 22.06084 0.01574
C 31.98206 21.30359 -0.02383
C 31.94059 19.91444 -0.01429
C 33.17303 19.20656 -0.0136
C 33.14897 17.75695 0.00594
C 31.92635 17.00066 -0.02474
C 31.91649 15.625 0.00369
C 33.19369 14.9379 0.00455
C 33.2122 13.53617 -0.00644
C 32.01136 12.79786 -0.01839
C 31.9533 11.38615 0.00137
C 31.94752 29.8582 -0.02142
C 33.19357 10.66079 0.00199
C 33.20092 30.52556 0.01428
C 31.99386 32.68379 0.01713
C 29.46644 17.02418 0.0101
C 29.44844 15.63642 0.01705
C 30.66773 14.91424 -0.0405
C 30.7426 13.48842 -0.01303
C 29.54291 12.7722 -0.01461
C 29.49809 11.36563 -0.02155
C 30.70577 10.67253 -0.00944
C 30.70822 9.17558 -0.03735
C 29.4119 8.48607 -0.00971
C 29.6262 7.142 0.01518
C 30.77369 6.41827 0.01908
C 30.69066 4.97892 0.07705
C 29.5388 4.34347 0.0103
C 29.37963 2.91798 0.02108
C 30.70456 2.18845 0.00716
C 30.71729 0.76031 0.00307
C 29.52689 34.04623 0.00346
C 33.21586 31.94876 -0.01694
C 30.66233 17.72796 -0.00669
C 33.18614 9.25035 0.04381
C 32.05682 7.14659 0.01504
C 1.22347 17.71797 0.01223
C 34.36379 17.09659 0.00648
C 0.01988 15.64699 0.02114
C 1.28327 14.94707 -0.02957
C 1.19838 13.49329 0.00343
C 34.42997 12.78871 -0.02656
C 34.41432 11.32841 -0.02442
C 1.22747 10.63086 -0.00027
C 1.17658 9.24213 -0.00583
C 34.40175 8.50864 -0.02302
C 34.40554 7.08123 -0.02849
C 1.19026 6.35324 0.02931
C 1.21071 4.91063 0.00628
C 34.40194 4.25955 -0.0345
C 34.38998 2.81498 -0.00931
C 1.17243 2.09641 -0.00939
C 1.22877 0.68597 -0.00468
C 1.23385 19.12281 -0.01678
C 31.94295 8.57502 0.02806
C 0.04593 19.8846 0.01951
C 1.24207 22.01555 0.02712
C 33.23107 6.37455 -0.00069
C 33.18273 4.95022 0.04926
C 31.95052 4.24884 -0.03838
C 31.92485 2.80954 0.00349
C 33.18817 2.14374 -0.00323
C 33.24117 0.78074 -0.00841
C 31.99247 0.03827 0.0001
C 0.01786 32.70669 -0.02927
C 1.21484 31.9748 -0.01404
C 1.19795 30.60992 0.01027
C 0.02294 29.83006 0.01831
C 0.02748 28.38513 -0.01037
C 1.3084 27.74651 -0.00439
C 1.25465 26.28515 -0.00598
C 34.38008 25.55577 -0.05239
C 0.017 24.14927 0.03076
C 1.21554 23.42926 0.00723
C 34.42227 21.30991 -0.02213
C 20.90746 14.94654 0.01852
C 30.75823 19.16681 0.03531
C 29.53031 21.26297 -0.03039
C 25.8986 31.93847 -0.04078
C 25.77561 30.50968 0.02117
C 24.49511 29.7803 0.02737
C 24.43719 28.28511 -0.00498
C 25.83805 27.63236 0.00135
C 25.77508 26.27018 0.03102
C 24.56387 25.57284 0.02555
C 24.67833 24.36369 0.01423
C 25.76295 23.43721 -0.00285
C 25.78215 21.97672 -0.009
C 24.55595 21.31089 -0.01199
C 24.55948 19.89928 -0.00229
C 25.8096 19.20496 -0.00938
C 25.88209 17.77047 -0.0264
C 24.51911 17.04438 -0.01154
C 24.56126 15.62937 0.00684
C 25.76407 14.96578 -0.01052
C 24.64225 32.80836 0.03005
C 25.76961 13.49643 -0.01679
C 21.99099 34.06574 -0.0276
C 22.10773 11.28075 -0.00178
C 19.73385 12.77362 0.03046
C 19.69471 11.33886 0.0296
C 20.84387 10.61542 0.03374
C 19.6325 34.04511 -0.02845
C 22.07538 32.74686 -0.03213
C 23.34163 32.00526 0.02239
C 23.25355 30.51553 0.01153
C 22.10624 29.83383 0.02734
C 23.28991 27.6862 -0.0055
C 22.13252 19.85926 0.01515
C 23.26244 19.14516 -0.00225
C 23.32321 17.66492 0.00071
C 22.03417 17.00321 -0.01107
C 22.09144 15.55949 -0.01586
C 23.32361 14.89116 -0.01971
C 23.33433 13.46073 -0.02118
C 22.12335 12.75474 0.00733
C 23.38771 10.72119 0.00768
C 29.51687 19.8832 0.01836
C 24.57768 12.78357 0.00367
C 25.86836 10.58034 0.00996
C 27.00052 11.30215 0.00235
C 28.27458 10.64278 0.01495
C 28.30753 9.29385 0.01259
C 28.41638 2.03763 0.01799
C 28.15762 0.73155 0.01699
C 26.87852 34.00589 -0.00416
C 29.56118 32.60554 0.01177
C 30.70712 31.95551 0.04266
C 30.73336 30.49054 0.01324
C 29.50843 29.7736 0.0014
C 29.48543 28.39899 0.00924
C 30.6738 27.65251 0.02326
C 30.69698 26.22172 0.00261
C 29.48609 25.47391 0.03265
C 29.56818 24.11214 -0.02049
C 30.81188 23.36182 -0.01854
C 30.77073 21.96747 -0.01415
C 27.02829 12.75555 0.01094
C 24.57215 11.24669 0.04306
C 28.27004 13.49346 0.02198
C 27.00375 15.61646 -0.00621
C 24.60587 0.10319 0.00195
C 27.12625 32.60785 -0.00802
C 28.30389 31.80459 -0.00218
C 28.29014 30.43801 -0.01654
C 27.00914 29.81408 -0.00037
C 27.02264 28.34876 -0.0032
C 28.3199 27.65258 0.00622
C 28.28771 26.25697 -0.02815
C 27.03451 25.54641 -0.00942
C 27.0643 24.13663 0.00487
C 28.34689 23.42583 0.00826
C 28.37466 22.01376 -0.00294
C 27.12509 21.37082 0.00152
C 27.09244 19.91082 0.01257
C 28.34301 19.17542 0.02316
C 28.23926 17.73623 0.04185
C 27.03807 17.01824 0.00194
C 28.20448 14.90402 0.02611
C 2.47411 32.66682 0.01396
