386
Graphene
C 34.42392 0.08441 0.01295
C 15.85656 6.49519 -0.0014
C 15.7909 5.15859 0.02162
C 14.65128 4.36072 0.0076
C 14.71083 2.89008 0.01241
C 15.9071 2.17696 -0.01454
C 15.93647 0.77909 0.01945
C 14.73422 34.01779 0.01416
C 17.14246 32.62136 0.03542
C 18.43371 31.8655 0.02299
C 14.60518 7.31948 0.00415
C 18.4964 30.50702 0.00244
C 17.25346 28.30808 0.05265
C 18.49733 27.64896 -0.01952
C 18.49226 26.23973 -0.02813
C 17.21992 25.55757 0.00374
C 17.25058 24.06191 0.00052
C 18.41969 23.34811 -0.03682
C 18.40603 21.94363 0.01965
C 17.1428 21.20772 0.02058
C 17.10963 19.73941 -0.01957
C 17.18352 29.80299 -0.01717
C 18.46579 19.08141 -0.0108
C 14.74685 8.75758 -0.02162
C 15.91814 10.73646 0.01877
C 14.81167 32.69398 0.00406
C 15.98959 31.93803 0.00943
C 15.9847 30.47207 0.02841
C 14.74217 29.8701 -0.01111
C 14.72897 28.44255 -0.01275
C 16.00858 27.6479 0.00985
C 16.05463 26.23995 -0.02245
C 14.81628 25.62493 -0.00428
C 14.79383 24.18847 0.03101
C 15.98837 9.30557 0.01363
C 15.98091 23.36198 -0.01536
C 14.61641 21.24339 -0.01046
C 14.84439 19.86101 -0.00891
C 15.74448 18.81675 0.02819
C 15.7648 17.24996 0.00165
C 15.03301 15.99526 -0.02971
C 16.11558 15.00353 0.02894
C 15.98342 13.64267 -0.01789
C 14.73899 12.957 0.00444
C 14.7354 11.375 -0.00925
C 15.80751 22.04107 -0.02689
C 12.32912 34.03562 0.03592
C 18.43773 17.73133 -0.00368
C 17.34666 15.56556 -0.00114
C 20.836 23.34923 -0.00491
C 20.94202 21.94585 0.03338
C 19.70787 21.28545 -0.0258
C 19.76639 19.79436 -0.0331
C 20.98551 19.13262 -0.00316
C 20.94395 17.75533 0.02188
C 19.75722 17.02277 -0.01979
C 19.74291 15.6463 0.02691
C 20.95183 14.95935 -0.01581
C 19.6703 24.10862 -0.00109
C 20.95385 13.53916 0.01452
C 19.70045 11.37026 -0.00111
C 20.83659 10.6835 -0.03557
C 20.84226 9.24172 0.03754
C 19.6264 8.56715 0.01739
C 19.61351 7.10484 0.00755
C 20.80802 6.3859 -0.0054
C 20.78372 4.90495 0.00667
C 19.59215 4.19464 0.00143
C 19.63824 2.80722 -0.017
C 19.71768 12.82567 0.04892
C 17.19136 17.00258 -0.02696
C 19.65556 25.45645 0.03698
C 20.91215 27.51089 0.00028
C 18.5084 14.87772 0.00228
C 18.45211 13.48877 0.00798
C 17.24028 12.84823 0.00422
C 17.20275 11.46886 0.0351
C 18.45564 10.71459 -0.03113
C 18.35278 9.30029 0.02098
C 17.19052 8.53999 0.01848
C 17.06825 7.14229 -0.00619
C 18.27031 6.43096 -0.02162
C 20.88855 26.10995 -0.02213
C 18.34725 4.9827 0.00889
C 17.1382 2.84047 0.00979
C 18.34583 2.09968 0.01443
C 18.39623 0.69393 0.03505
C 17.12791 0.0191 -0.02815
C 19.67341 32.61003 -0.04147
C 20.86632 31.86486 -0.05302
C 20.87263 30.48886 0.00213
C 19.71314 29.75696 -0.00066
C 19.67728 28.29597 -0.00289
C 17.12374 4.30284 -0.00481
C 13.574 0.62701 0.00572
C 13.54341 2.0848 0.0402
C 12.39993 2.73796 -0.02759
C 3.64995 2.24718 0.017
C 3.64671 0.825 -0.03113
C 2.47458 0.08439 -0.02566
C 4.87121 32.70825 -0.00094
C 6.04951 32.06856 0.02322
C 6.04622 30.65993 -0.00725
C 4.86695 29.86198 -0.05697
C 4.84105 28.43999 0.01087
C 6.05467 27.75545 -0.01343
C 2.45685 2.86869 -0.00643
C 6.13936 26.30709 0.00988
C 4.89918 24.23005 0.01305
C 6.10053 23.4868 -0.00077
C 5.9518 22.08244 0.03368
C 4.87135 21.3179 -0.02929
C 4.95978 19.86027 -0.00966
C 6.12168 19.17126 -0.03337
C 4.93573 16.97672 0.01227
C 4.95343 15.79065 0.00873
C 4.73571 4.41202 -0.00049
C 4.84781 25.61086 0.0276
C 5.01792 2.90175 0.00848
C 2.35358 4.32822 0.0086
C 2.29156 7.12158 -0.00074
C 3.61236 30.64276 -0.04307
C 2.43251 29.85606 0.03189
C 2.46487 28.38331 0.00031
C 3.65616 27.70776 -0.003
C 3.61658 26.27953 0.01402
C 2.41363 25.54471 0.02379
C 2.45074 24.15321 0.00907
C 3.57346 23.43739 0.00643
C 3.64247 22.04664 -0.01509
C 3.65193 4.98226 -0.00518
C 2.38238 21.3082 0.03267
C 3.68846 19.3169 0.00402
C 3.71758 17.81257 0.0073
C 2.54074 17.01841 0.0174
C 2.52991 15.62317 0.03828
C 3.79279 14.87756 0.01226
C 3.59979 13.52741 -0.00279
C 2.54869 12.67161 0.01996
C 2.41733 11.29033 -0.03996
C 2.38738 8.33526 0.01465
C 2.44707 19.85651 0.02374
C 6.19465 2.24374 -0.01303
C 6.17776 0.8545 -0.01378
C 4.87716 0.11711 0.02635
C 11.1736 23.4713 -0.02896
C 10.0926 2.89616 -0.00131
C 11.15603 2.1493 -0.01118
C 11.08832 0.65357 -0.014
C 9.83092 0.14801 0.02147
C 12.22637 32.66117 0.00373
C 13.53903 31.94426 -0.00191
C 13.52617 30.59631 0.00438
C 12.28789 29.93982 0.01291
C 9.85581 24.21428 -0.01004
C 12.30351 28.43965 0.00093
C 13.54336 26.32439 -0.01634
C 12.27771 25.6505 -0.00334
C 12.33124 24.27384 0.02339
C 13.55957 23.5416 0.01641
C 13.45324 22.18098 -0.00719
C 13.63975 14.01028 0.01364
C 13.57232 6.4503 -0.01062
C 13.42554 5.1202 -0.00033
C 12.20203 4.17321 0.03589
C 13.54491 27.77356 0.00057
C 9.81441 25.61037 0.00488
C 11.05745 26.30866 0.01745
C 10.99892 27.76015 0.03693
C 7.29016 32.74737 0.0127
C 8.53683 32.04326 0.01396
C 8.49744 30.60732 0.01849
C 7.28474 29.94289 -0.01142
C 7.27223 28.47992 -0.00562
C 8.53162 27.79673 -0.00494
C 8.59668 26.40683 0.00054
C 7.37613 25.66664 0.03007
C 7.38091 24.18667 -0.00095
C 8.5771 23.53728 0.01572
C 8.18242 22.20727 -0.04848
C 7.33656 21.35913 -0.00892
C 7.41538 2.9317 -0.01362
C 8.62262 2.31677 -0.0008
C 8.59467 0.8276 0.0288
C 7.4002 0.12201 0.00393
C 9.77852 32.76233 0.00895
C 10.9715 32.04728 0.00685
C 10.94924 30.64195 0.02888
C 9.7732 29.89593 -0.00482
C 9.78862 28.54306 -0.01384
C 20.83385 2.05814 0.00364
C 20.84438 0.66334 -0.00831
C 19.6227 33.99911 -0.02957
C 22.06931 32.6194 -0.04422
C 30.59895 4.97089 0.07705
C 29.44924 4.32787 0.0103
C 29.4623 2.8205 0.02108
C 30.73333 2.17083 0.00716
C 30.73832 0.73238 0.00307
C 29.45752 0.01778 0.00346
C 31.96547 32.69024 0.01713
C 33.16765 31.99908 -0.01694
C 33.18089 30.5681 0.01428
C 30.6298 6.38325 0.01908
C 31.91691 29.8399 -0.02142
C 33.10954 27.70543 0.00026
C 33.16485 26.23378 0.00682
C 31.93495 25.57355 -0.01779
C 31.90893 24.18161 0.03794
C 33.09676 23.39044 0.01927
C 33.17366 21.95745 0.01574
C 31.88613 21.28776 -0.02383
C 31.98951 19.90297 -0.01429
C 33.21187 19.21863 -0.0136
C 31.89868 28.42636 0.0544
C 33.23375 17.71314 0.00594
C 29.44572 7.08683 0.01518
C 30.7225 9.1653 -0.03735
C 30.7459 30.52531 0.01324
C 29.45828 29.81894 0.0014
C 29.43874 28.4765 0.00924
C 30.68208 27.73568 0.02326
C 30.68043 26.35317 0.00261
C 29.48016 25.63653 0.03265
C 29.47633 24.16722 -0.02049
C 30.62102 23.47487 -0.01854
C 30.67638 22.02267 -0.01415
C 29.47034 8.47067 -0.00971
C 29.48846 21.26396 -0.03039
C 30.79615 19.21668 0.03531
C 30.81708 17.77756 -0.00669
C 29.5254 17.06786 0.0101
C 29.51544 15.7053 0.01705
C 30.77557 14.90367 -0.0405
C 30.69986 13.4553 -0.01303
C 29.4856 12.75012 -0.01461
C 29.4867 11.34063 -0.02155
C 30.6962 10.63275 -0.00944
C 29.53203 19.91363 0.01836
C 31.99225 17.02154 -0.02474
C 32.04106 15.63611 0.00369
C 33.26963 14.99759 0.00455
C 34.38838 21.28426 -0.02213
C 0.00431 19.91057 0.01951
C 1.21219 19.18183 -0.01678
C 1.30932 17.75794 0.01223
C 0.01847 17.00716 0.00648
C 0.10753 15.63766 0.02114
C 1.32185 14.83891 -0.02957
C 1.35548 13.45908 0.00343
C 0.0345 12.74177 -0.02656
C 1.1691 21.95907 0.02712
C 34.40494 11.37619 -0.02442
C 1.23062 9.2016 -0.00583
C 34.37053 8.41837 -0.02302
C 34.30899 7.09544 -0.02849
C 1.08116 6.3458 0.02931
C 1.104 4.96255 0.00628
C 34.37476 4.27454 -0.0345
C 0.02412 2.91284 -0.00931
C 1.25411 2.20008 -0.00939
C 1.21014 0.76422 -0.00468
C 1.22882 10.65124 -0.00027
C 1.18011 23.37487 0.00723
C 34.33791 24.10091 0.03076
C 34.41474 25.57509 -0.05239
C 33.31916 13.48313 -0.00644
C 32.0515 12.73486 -0.01839
C 31.96724 11.29986 0.00137
C 33.23021 10.59711 0.00199
C 33.21903 9.17332 0.04381
C 31.91085 8.52058 0.02806
C 31.87405 7.08393 0.01504
C 33.1213 6.42691 -0.00069
C 33.16284 4.97582 0.04926
C 31.91604 4.30577 -0.03838
C 31.95831 2.82125 0.00349
C 33.18757 2.1579 -0.00323
C 33.18317 0.74963 -0.00841
C 31.94415 0.02853 0.0001
C 34.3937 32.73417 -0.02927
C 1.17086 32.00278 -0.01404
C 1.13654 30.56978 0.01027
C 34.40919 29.88328 0.01831
C 34.36137 28.38796 -0.01037
C 1.1469 27.69601 -0.00439
C 1.1807 26.30636 -0.00598
C 30.69097 31.95123 0.04266
C 3.64053 31.97829 0.03284
C 29.43209 32.66855 0.01177
C 28.24253 0.73644 0.01699
C 23.33764 6.29529 0.01852
C 23.25335 4.92094 -0.00381
C 21.99302 4.2214 0.03046
C 22.03227 2.80603 0.0296
C 23.20993 2.10891 0.03374
C 23.22671 0.68141 -0.02845
C 22.09596 33.9963 -0.03213
C 24.55587 32.58092 0.02239
C 25.78119 31.95455 0.01153
C 22.03347 7.03538 0.01126
C 25.79031 30.47836 0.02734
C 24.58681 28.34302 0.01515
C 25.78803 27.69625 -0.00225
C 25.76074 26.18208 0.00071
C 24.52676 25.44621 -0.01107
C 24.52375 24.04317 -0.01586
C 25.82961 23.37944 -0.01971
C 25.84059 22.03183 -0.02118
C 24.62347 21.29162 0.00733
C 24.62854 19.86145 -0.00178
C 24.6222 29.75207 -0.0055
C 25.89347 19.15064 0.00768
C 22.05137 8.49173 -0.01185
C 23.3326 10.61296 -0.00478
C 23.23182 31.85524 0.00654
C 23.30119 30.49396 -0.00703
C 22.12754 29.70685 -0.04076
C 22.15686 28.30207 -0.00652
C 23.32075 27.64591 0.0058
C 23.33316 26.22278 -0.00865
C 22.15067 25.45908 0.00675
C 22.13375 24.0413 -0.00311
C 23.36986 23.35395 0.00742
C 23.22379 9.23837 -0.01662
C 23.35919 21.98328 -0.01594
C 22.22894 19.86224 -0.01154
C 23.45314 19.15082 -0.01721
C 23.4547 17.73782 -0.02422
C 22.14755 17.10644 0.01277
C 22.20299 15.61393 0.00096
C 23.34352 14.88491 -0.01527
C 23.36171 13.48854 0.01087
C 22.10774 12.74354 0.00199
C 22.05573 11.29297 0.01511
C 22.15005 21.28152 0.0106
C 25.95977 17.7287 -0.0276
C 24.72843 17.00846 0.03005
C 24.69795 15.58565 -0.04078
C 28.2466 22.02827 -0.0032
C 27.05389 21.25821 0.00622
C 27.06983 19.90387 -0.02815
C 28.32901 19.1699 -0.00942
C 28.36162 17.76703 0.00487
C 27.17019 16.97619 0.00826
C 27.17307 15.5888 -0.00294
C 28.34474 14.88015 0.00152
C 28.33821 13.5064 0.01257
C 28.27394 23.45232 -0.00037
C 26.99711 12.76549 0.02316
C 28.29922 10.63487 0.00194
C 28.17058 9.22022 -0.00621
C 26.97227 8.48004 0.02611
C 26.94355 7.07517 0.02198
C 28.18475 6.39589 0.01094
C 28.23768 4.97896 0.00235
C 26.95984 4.19225 0.01495
C 26.94129 2.78939 0.01259
C 28.20425 2.18759 0.01799
C 26.98922 11.30898 0.04185
C 27.05031 24.13192 -0.01654
C 26.98206 25.52375 -0.00218
C 28.26798 26.26472 -0.00802
C 25.89895 14.89679 0.02117
C 25.80425 13.43717 0.02737
C 24.6077 12.7971 -0.00498
C 24.58932 11.34701 0.00135
C 25.78112 10.57178 0.03102
C 25.84513 9.20935 0.02555
C 24.44703 8.53548 0.01423
C 24.43844 7.05369 -0.00285
C 25.73 6.32324 -0.009
C 25.72818 4.95302 -0.01199
C 24.46944 4.24059 -0.00229
C 24.43672 2.79382 -0.00938
C 25.7679 2.07596 -0.0264
C 25.74231 0.63886 -0.01154
C 24.49011 34.05676 0.00684
C 27.0389 32.60111 -0.01052
C 28.21957 31.96194 -0.01679
C 28.28184 30.52942 0.00367
C 27.00369 29.75863 0.04306
C 27.07793 28.35354 0.00996
C 28.29516 27.6734 0.00195
C 26.98609 34.0658 -0.00416
C 2.4228 32.71625 0.04505
