389
Graphene
C 34.4153 0.05438 0.01295
C 14.64414 21.56868 -0.02162
C 14.75082 20.11037 0.00415
C 16.10418 19.27035 -0.0014
C 16.00806 17.84281 0.02162
C 14.67125 17.06615 0.0076
C 14.67715 15.63173 0.01241
C 15.92735 14.96431 -0.01454
C 15.906 13.53126 0.01945
C 14.7871 12.71856 0.01416
C 15.96699 22.10051 0.01363
C 14.6941 11.26881 0.03542
C 16.19783 5.02627 0.00244
C 14.88337 4.39564 -0.01717
C 14.7901 2.89419 0.05265
C 15.98103 2.07863 -0.01952
C 15.98115 0.71192 -0.02813
C 14.76771 0.05993 0.00374
C 17.19735 32.63173 0.00052
C 18.37853 31.97257 -0.03682
C 18.44505 30.50559 0.01965
C 16.00609 10.53636 0.02299
C 17.23151 29.84937 0.02058
C 15.94765 23.47988 0.01877
C 14.88772 25.60322 0.00444
C 12.24712 17.1022 0.00572
C 12.20297 15.67515 0.03592
C 13.46056 14.87927 0.00406
C 13.54273 13.43138 0.00943
C 12.2789 12.81925 0.02841
C 12.17403 11.18907 -0.01111
C 13.41014 10.56548 -0.01275
C 13.56461 5.00487 0.00985
C 12.43676 4.17603 -0.02245
C 14.71935 24.24626 -0.00925
C 12.20729 2.8025 -0.00428
C 13.53025 0.80332 -0.01536
C 12.33646 34.07001 -0.02689
C 14.66964 32.68262 -0.01046
C 15.96376 32.00967 -0.00891
C 16.02268 30.53365 0.02819
C 14.72824 29.90957 0.00165
C 14.68231 28.42578 -0.02971
C 15.94912 27.72831 0.02894
C 15.94884 26.30461 -0.01789
C 13.54293 2.15472 0.03101
C 17.22157 28.40449 -0.01957
C 18.53368 27.611 -0.0108
C 18.46349 26.29013 -0.00368
C 20.8982 30.50421 -0.00109
C 19.61952 29.80901 -0.00491
C 19.69086 28.32567 0.03338
C 20.8973 27.66553 -0.0258
C 21.01515 26.18839 -0.0331
C 19.72331 25.52642 -0.00316
C 19.742 24.16347 0.02188
C 20.89534 23.33966 -0.01979
C 20.96734 21.98006 0.02691
C 20.91666 31.86648 0.03698
C 19.78577 21.22812 -0.01581
C 19.67105 15.91599 0.04892
C 20.86656 15.12021 -0.00111
C 20.85242 13.65139 -0.03557
C 19.65983 12.84409 0.03754
C 19.63536 11.438 0.01739
C 20.78534 10.64879 0.00755
C 20.66633 9.25497 -0.0054
C 19.40753 8.4664 0.00667
C 19.35928 6.9857 0.00143
C 20.09196 19.81336 0.01452
C 19.71129 32.59969 -0.02213
C 17.19455 34.007 0.00028
C 18.44675 0.56297 -0.00289
C 17.22431 25.61286 -0.02696
C 17.22408 24.18592 -0.00114
C 18.45603 23.48343 0.00228
C 18.47035 22.082 0.00798
C 17.29823 21.36575 0.00422
C 17.46205 19.93413 0.0351
C 18.86729 19.01227 -0.03113
C 18.63432 17.45971 0.02098
C 17.27791 17.04599 0.01848
C 17.1673 15.61636 -0.00619
C 18.50897 14.98322 -0.02162
C 18.45716 13.55304 0.00889
C 17.17378 12.85294 -0.00481
C 17.12946 11.3275 0.00979
C 18.36257 10.69016 0.01443
C 18.33525 9.32227 0.03505
C 18.26462 6.16042 -0.02815
C 18.44978 4.81891 -0.04147
C 17.28061 4.1158 -0.05302
C 17.23375 2.78907 0.00213
C 18.41699 1.98015 -0.00066
C 13.43711 17.8482 0.0402
C 13.50676 19.34372 -0.02759
C 12.22993 20.08152 0.03589
C 12.16125 21.53422 -0.00033
C 2.36384 0.04139 0.0086
C 4.8243 32.7173 -0.00643
C 6.10877 32.17113 0.017
C 6.13205 30.63437 -0.03113
C 4.86564 29.89299 -0.02566
C 4.93376 28.46119 -0.00094
C 6.14512 27.74008 0.02322
C 6.27186 26.30655 -0.00725
C 5.07222 25.58088 -0.05697
C 3.61504 0.67261 -0.00518
C 5.00588 24.15102 0.01087
C 5.01801 21.15731 0.00988
C 4.85636 19.68908 0.0276
C 6.06163 19.19961 0.01305
C 6.08921 17.85468 -0.00077
C 4.8525 17.12367 0.03368
C 4.83734 15.64695 -0.02929
C 6.10268 14.97522 -0.00966
C 6.05695 13.41559 -0.03337
C 4.83465 12.63151 0.01227
C 6.54833 21.39504 -0.01343
C 3.72226 2.11004 -0.00074
C 2.55829 2.9933 0.01465
C 2.37434 4.35498 -0.03996
C 3.57827 30.54608 -0.04999
C 2.43915 29.77578 0.04505
C 2.42438 28.38824 0.03284
C 3.6341 27.73337 -0.04307
C 3.807 26.33203 0.03189
C 2.52842 25.50359 0.00031
C 2.61038 24.13047 -0.003
C 3.89005 23.40681 0.01402
C 3.86504 21.98809 0.02379
C 2.54719 21.34066 0.00907
C 2.43574 19.86122 0.00643
C 3.58826 19.14711 -0.01509
C 3.62743 17.75544 0.03267
C 2.44268 17.06416 0.02374
C 2.40263 15.61662 0.00402
C 3.61345 14.853 0.0073
C 3.66221 13.37587 0.0174
C 2.34868 12.74659 0.03828
C 2.30634 11.39271 0.01226
C 3.60274 10.66632 -0.00279
C 2.16344 8.18202 0.01996
C 4.74039 11.19004 0.00873
C 20.72676 6.31127 -0.017
C 6.05214 0.82134 -0.00049
C 7.3778 32.73585 -0.01303
C 9.71202 17.24311 0.00488
C 9.7148 15.83765 -0.01004
C 10.9252 15.08055 -0.02896
C 11.00577 13.63694 -0.00131
C 9.74787 12.96259 -0.01118
C 9.59739 11.50401 -0.014
C 10.84118 10.75385 0.02147
C 10.96773 2.02846 0.00373
C 11.09238 0.67492 -0.00191
C 10.9875 17.96144 0.01745
C 9.90683 34.07375 0.00438
C 13.53237 31.96859 0.00093
C 13.48389 30.59945 0.00057
C 12.25479 29.73356 -0.01634
C 12.23323 28.26235 -0.00334
C 13.44141 27.574 0.02339
C 13.49477 26.19314 0.01641
C 12.64446 25.08916 -0.00719
C 13.32557 23.9318 0.01364
C 13.23293 22.41285 -0.01062
C 12.34798 32.6416 0.01291
C 11.00657 19.37379 0.03693
C 9.8131 20.07279 -0.01384
C 11.00749 27.69842 -0.00482
C 8.67096 31.96538 -0.01378
C 8.61776 30.56276 0.02635
C 7.39721 29.90132 0.0127
C 7.3225 28.46547 0.01396
C 8.46947 27.63472 0.01849
C 7.17344 20.21518 -0.01142
C 8.5192 19.65727 -0.00562
C 8.53131 18.164 -0.00494
C 7.32162 17.1657 0.00054
C 7.33873 15.79473 0.03007
C 8.50417 15.06716 -0.00095
C 8.55625 13.56536 0.01572
C 7.37253 12.686 -0.04848
C 7.37586 11.33066 -0.00892
C 8.75775 0.77568 -0.01362
C 7.46143 0.22686 -0.0008
C 9.8346 32.66593 0.0288
C 11.04059 31.93821 0.00393
C 11.02051 30.39104 0.00895
C 9.80448 29.77238 0.00685
C 9.72967 28.26546 0.02888
C 4.90088 0.10097 0.00848
C 3.58985 31.93952 -0.03291
C 20.84264 4.90881 0.00364
C 19.66409 2.68503 -0.02957
C 30.69012 4.94395 0.07705
C 29.44766 4.24024 0.0103
C 29.50903 2.82102 0.02108
C 30.68843 2.12922 0.00716
C 30.60916 0.66147 0.00307
C 29.44211 34.03776 0.00346
C 31.92885 32.6066 0.01713
C 33.1226 31.96419 -0.01694
C 33.16355 30.499 0.01428
C 30.61529 6.37039 0.01908
C 31.90559 29.8361 -0.02142
C 33.1603 27.67776 0.00026
C 33.18288 26.30275 0.00682
C 31.95261 25.55229 -0.01779
C 32.00583 24.05166 0.03794
C 33.29728 23.40129 0.01927
C 33.20074 22.0161 0.01574
C 31.95182 21.31673 -0.02383
C 32.03421 19.91017 -0.01429
C 33.26071 19.22019 -0.0136
C 31.93146 28.37121 0.0544
C 33.23657 17.73134 0.00594
C 29.39927 7.1435 0.01518
C 30.56927 9.21662 -0.03735
C 30.70395 30.52495 0.01324
C 29.44039 29.78371 0.0014
C 29.39097 28.36288 0.00924
C 30.65426 27.63486 0.02326
C 30.70958 26.24922 0.00261
C 29.56609 25.47304 0.03265
C 29.52392 24.0982 -0.02049
C 30.77911 23.37096 -0.01854
C 30.74671 21.97194 -0.01415
C 29.36413 8.53687 -0.00971
C 29.56695 21.27404 -0.03039
C 30.88336 19.24627 0.03531
C 30.76753 17.75535 -0.00669
C 29.53151 17.10762 0.0101
C 29.52996 15.69852 0.01705
C 30.67618 14.95949 -0.0405
C 30.65063 13.47172 -0.01303
C 29.40542 12.80065 -0.01461
C 29.44142 11.33215 -0.02155
C 30.67282 10.63579 -0.00944
C 29.60465 19.82206 0.01836
C 32.02644 17.07252 -0.02474
C 31.95367 15.68356 0.00369
C 33.15513 14.89682 0.00455
C 0.0982 21.31563 -0.02213
C 0.0671 19.86906 0.01951
C 1.31092 19.16355 -0.01678
C 1.24441 17.74107 0.01223
C 0.03605 17.06196 0.00648
C 34.36547 15.57765 0.02114
C 1.18493 14.95437 -0.02957
C 1.20392 13.50225 0.00343
C 34.39921 12.80639 -0.02656
C 1.28251 22.09331 0.02712
C 34.35822 11.41578 -0.02442
C 1.16273 9.19555 -0.00583
C 34.27035 8.61011 -0.02302
C 34.41364 7.1748 -0.02849
C 1.25517 6.78452 0.02931
C 1.31627 5.31999 0.00628
C 0.02558 4.43921 -0.0345
C 0.05421 3.00674 -0.00931
C 1.31109 2.22247 -0.00939
C 1.24891 0.83695 -0.00468
C 1.15284 10.63058 -0.00027
C 1.28474 23.45688 0.00723
C 0.02222 24.17235 0.03076
C 0.00683 25.58831 -0.05239
C 33.15327 13.43038 -0.00644
C 31.88398 12.78207 -0.01839
C 31.87087 11.38856 0.00137
C 33.1172 10.71322 0.00199
C 33.04124 9.32042 0.04381
C 31.80072 8.55989 0.02806
C 31.85595 7.19156 0.01504
C 33.13219 6.5017 -0.00069
C 33.15363 5.1016 0.04926
C 31.95676 4.26973 -0.03838
C 31.92479 2.90107 0.00349
C 33.18337 2.18055 -0.00323
C 33.164 0.76213 -0.00841
C 31.8948 33.99712 0.0001
C 34.35944 32.73604 -0.02927
C 1.16171 31.95022 -0.01404
C 1.17802 30.49647 0.01027
C 34.39792 29.79902 0.01831
C 34.38428 28.32608 -0.01037
C 1.17022 27.70832 -0.00439
C 1.32072 26.29649 -0.00598
C 30.7409 31.94046 0.04266
C 29.47936 32.64403 0.01177
C 26.96947 34.0575 -0.00416
C 28.17615 0.69464 0.01699
C 23.22574 6.42419 0.01852
C 23.23524 5.03655 -0.00381
C 22.027 4.2019 0.03046
C 22.16982 2.7797 0.0296
C 23.31426 2.0355 0.03374
C 23.28165 0.65249 -0.02845
C 22.08495 33.9895 -0.03213
C 24.65957 32.58523 0.02239
C 25.82438 31.8906 0.01153
C 21.91466 7.1095 0.01126
C 25.76894 30.45459 0.02734
C 24.51913 28.37078 0.01515
C 25.78227 27.62206 -0.00225
C 25.86775 26.1379 0.00071
C 24.60093 25.48787 -0.01107
C 24.63392 24.10023 -0.01586
C 25.86512 23.39477 -0.01971
C 25.85107 21.98513 -0.02118
C 24.56206 21.26295 0.00733
C 24.59267 19.81208 -0.00178
C 24.5805 29.7659 -0.0055
C 21.9018 8.5193 -0.01185
C 23.23017 9.17801 -0.01662
C 23.25749 10.61932 -0.00478
C 20.90825 2.03518 -0.04422
C 20.83235 0.66681 0.00654
C 19.77018 34.05055 -0.00703
C 22.17833 32.62127 -0.04076
C 23.38012 31.90506 -0.00652
C 23.40679 30.52872 0.0058
C 22.12635 29.8122 -0.00865
C 22.14766 28.40014 0.00675
C 23.3342 27.56897 -0.00311
C 23.36801 26.18046 0.00742
C 22.16275 25.50108 -0.01594
C 22.12807 24.09627 0.0106
C 23.40695 23.37956 -0.01154
C 23.34067 22.00705 -0.01721
C 22.20185 21.17127 -0.02422
C 22.11646 19.71593 0.01277
C 23.45658 18.85834 0.00096
C 22.90867 14.99585 -0.01527
C 23.14021 13.58201 0.01087
C 21.96452 12.74432 0.00199
C 22.00101 11.32797 0.01511
C 25.85271 19.21621 0.00768
C 19.6273 4.11477 -0.00831
C 25.76845 17.88389 -0.0276
C 24.2508 15.84361 -0.04078
C 28.34988 21.93748 -0.0032
C 27.10746 21.3004 0.00622
C 27.19265 19.90892 -0.02815
C 28.33444 19.13612 -0.00942
C 28.3449 17.767 0.00487
C 26.84648 17.02035 0.00826
C 26.86717 15.63258 -0.00294
C 28.15771 15.03329 0.00152
C 28.10761 13.57067 0.01257
C 28.36094 23.36687 -0.00037
C 26.89544 12.91021 0.02316
C 28.18434 10.7117 0.00194
C 28.15985 9.25736 -0.00621
C 26.86879 8.54969 0.02611
C 26.94558 7.10547 0.02198
C 28.11873 6.46452 0.01094
C 28.18395 4.95471 0.00235
C 26.98853 4.23488 0.01495
C 27.03057 2.80629 0.01259
C 28.25962 2.14035 0.01799
C 26.89068 11.47085 0.04185
C 27.09879 24.05676 -0.01654
C 27.09741 25.5385 -0.00218
C 28.29282 26.19781 -0.00802
C 25.52211 15.0059 0.02117
C 25.62925 13.62033 0.02737
C 24.39277 12.86484 -0.00498
C 24.43605 11.45779 0.00135
C 25.71446 10.75234 0.03102
C 25.70446 9.28683 0.02555
C 24.47212 8.49194 0.01423
C 24.50098 7.07553 -0.00285
C 25.70969 6.36017 -0.009
C 25.75133 4.92019 -0.01199
C 24.50177 4.25365 -0.00229
C 24.56482 2.81182 -0.00938
C 25.79719 2.14256 -0.0264
C 25.76508 0.6696 -0.01154
C 24.56372 34.01305 0.00684
C 27.01441 32.6517 -0.01052
C 28.30152 31.91782 -0.01679
C 28.23123 30.48026 0.00367
C 27.01688 29.78234 0.04306
C 27.00516 28.33789 0.00996
C 28.20372 27.60571 0.00195
C 24.3577 17.38946 0.03005
C 2.33636 32.67136 0.02769
