421
Graphene
C 34.41902 33.99094 0.01295
C 13.49163 26.36964 0.00406
C 12.34096 25.61134 0.00943
C 12.32652 24.04194 0.02841
C 13.51733 23.21977 -0.01111
C 13.6155 21.82103 -0.01275
C 12.40667 21.07906 0.00985
C 12.3942 19.56926 -0.02245
C 13.31345 18.00179 -0.00428
C 12.23963 17.11929 0.03101
C 12.25021 15.6707 -0.01536
C 13.49384 27.76438 0.03592
C 13.46191 15.04437 -0.02689
C 12.3342 12.6839 -0.00891
C 12.32633 11.31617 0.02819
C 13.57193 10.59971 0.00165
C 13.50982 9.141 -0.02971
C 12.28508 8.54641 0.02894
C 12.30588 7.09534 -0.01789
C 13.53821 6.39848 0.00444
C 13.49534 4.94226 -0.00925
C 12.24829 4.15848 0.01877
C 12.19603 2.83781 0.01363
C 13.54602 13.47839 -0.01046
C 13.49595 2.14345 -0.02162
C 12.2253 28.56435 0.00572
C 13.55942 30.56533 -0.02759
C 9.86116 19.87544 0.00488
C 11.02933 19.13132 -0.01004
C 10.94628 17.69271 -0.02896
C 9.73056 17.06594 -0.00131
C 9.78401 15.60433 -0.01118
C 11.05462 14.86795 -0.014
C 11.13125 13.45358 0.02147
C 9.83396 12.74934 0.00373
C 9.82466 11.2997 -0.00191
C 11.07197 10.68719 0.00438
C 12.24105 29.97109 0.0402
C 11.08123 9.27699 0.01291
C 9.77735 7.06322 0.00057
C 11.05724 6.37036 -0.01634
C 11.05293 5.00129 -0.00334
C 9.75269 4.31683 0.02339
C 9.75309 2.86792 0.01641
C 10.96533 2.14601 -0.00719
C 11.04435 0.76621 0.01364
C 9.71278 0.06364 -0.01062
C 12.26107 32.67118 -0.00033
C 13.54393 31.99882 0.03589
C 9.82113 8.4861 0.00093
C 13.53723 0.77089 0.00415
C 12.24658 0.02639 -0.0014
C 14.72483 32.77523 0.02162
C 16.06316 2.06613 0.02098
C 16.00367 0.70632 0.01848
C 14.76922 0.11272 -0.00619
C 17.22699 32.61861 -0.02162
C 18.44368 31.98983 0.00889
C 18.40352 30.55913 -0.00481
C 17.14626 29.85527 0.00979
C 17.15893 28.4038 0.01443
C 18.45648 27.65898 0.03505
C 18.38571 26.25483 -0.02815
C 14.77341 2.82094 -0.03113
C 17.14937 25.53031 -0.04147
C 18.36475 23.46228 0.00213
C 18.47635 22.06052 -0.00066
C 17.31743 21.26716 -0.00289
C 17.19173 19.90868 0.00028
C 18.48679 19.18344 -0.02213
C 18.40174 17.78315 0.03698
C 17.11265 17.19165 -0.00109
C 17.14614 15.76052 -0.00491
C 18.35875 14.99869 0.03338
C 18.40981 13.57735 -0.0258
C 17.15393 24.09075 -0.05302
C 14.75029 4.21581 0.0351
C 16.02282 4.997 0.00422
C 15.99474 6.40336 0.00798
C 15.9798 32.04138 0.0076
C 15.84031 30.56846 0.01241
C 14.69532 29.82417 -0.01454
C 14.67614 28.46099 0.01945
C 15.95633 27.70873 0.01416
C 15.91548 26.29775 0.03542
C 14.63384 25.55156 0.02299
C 14.60608 24.0742 0.00244
C 15.89487 23.41613 -0.01717
C 15.96373 21.92582 0.05265
C 14.92558 21.09742 -0.01952
C 15.85375 19.62233 -0.02813
C 15.87882 18.07713 0.00374
C 14.68203 17.26298 0.00052
C 14.69635 15.67596 -0.03682
C 15.96283 14.97236 0.01965
C 15.99567 13.54749 0.02058
C 14.81311 12.76602 -0.01957
C 14.78115 11.32439 -0.0108
C 15.9645 10.56286 -0.00368
C 15.96394 9.1852 -0.02696
C 14.71115 8.46335 -0.00114
C 14.7937 7.00414 0.00228
C 9.94595 21.25015 0.01745
C 11.16618 21.91598 0.03693
C 11.09629 23.45849 -0.01384
C 9.86952 24.17775 -0.00482
C 3.56633 2.22227 -0.00561
C 3.65309 0.79055 0.00208
C 2.4494 0.03985 0.01707
C 4.90036 32.72843 0.02769
C 6.11094 32.0336 -0.03291
C 6.12602 30.59033 -0.04999
C 4.93227 29.7983 0.04505
C 4.8642 28.38384 0.03284
C 6.1315 27.78801 -0.04307
C 6.11337 26.35652 0.03189
C 2.37266 2.89891 -0.01977
C 4.87302 25.60418 0.00031
C 6.13025 23.48556 0.01402
C 6.12648 22.05229 0.02379
C 4.84106 21.32721 0.00907
C 4.89612 19.86416 0.00643
C 6.15979 19.17665 -0.01509
C 6.09546 17.75565 0.03267
C 4.88741 17.02646 0.02374
C 4.822 15.68643 0.00402
C 6.11782 14.92489 0.0073
C 6.12667 13.51929 0.0174
C 4.9384 24.2023 -0.003
C 2.34499 4.30243 0.02784
C 3.58596 5.00064 -0.01979
C 3.57189 6.37956 -0.00449
C 3.65214 30.51687 0.03345
C 2.43657 29.78401 0.00748
C 2.47861 28.33234 0.00662
C 3.72489 27.63212 -0.0154
C 3.70313 26.32184 -0.01299
C 2.44555 25.49183 -0.00407
C 2.47741 24.07694 0.01138
C 3.70356 23.42897 0.03278
C 3.64205 22.02615 -0.00177
C 2.4527 21.29797 0.04421
C 2.58153 19.86355 0.00088
C 3.75855 19.13842 0.00828
C 3.71839 17.71617 -0.02375
C 2.43807 17.06373 0.00558
C 2.42665 15.6462 -0.0059
C 3.61352 15.01625 -0.01386
C 3.5987 13.49916 -0.02805
C 2.37392 12.80663 0.00081
C 2.45943 11.40351 0.00245
C 3.6693 10.76483 0.02728
C 3.57937 9.2717 -0.00039
C 2.28373 8.59019 0.0064
C 2.37007 7.1084 0.00211
C 4.89321 12.85748 0.03828
C 17.22799 12.82456 -0.0331
C 4.89643 11.41378 0.01226
C 6.09818 9.20825 0.01996
C 8.54255 13.43658 -0.01303
C 7.33092 12.74511 -0.01378
C 7.34348 11.39337 0.02635
C 8.59458 10.64241 0.0127
C 8.62634 9.22016 0.01396
C 7.36892 8.5166 0.01849
C 7.34157 7.08206 -0.01142
C 8.57899 6.36851 -0.00562
C 8.45237 5.04788 -0.00494
C 7.29876 4.32142 0.00054
C 8.62686 14.8424 0.00848
C 7.27262 2.93055 0.03007
C 8.52511 0.78276 0.01572
C 7.26926 0.09644 -0.04848
C 9.78039 32.77306 -0.00892
C 11.03973 32.04304 -0.01362
C 11.00406 30.61603 -0.0008
C 9.79723 29.91587 0.0288
C 9.8253 28.48558 0.00393
C 11.01067 27.76758 0.00895
C 11.06462 26.30651 0.00685
C 9.83841 25.66301 0.02888
C 8.51917 2.21538 -0.00095
C 7.34596 15.6054 -0.00049
C 7.35425 17.03215 0.00873
C 8.53361 17.79471 0.01227
C 4.80809 8.59971 -0.03996
C 4.76873 7.11829 0.01465
C 6.07721 6.50632 -0.00074
C 6.06315 5.07096 -0.00518
C 4.83106 4.31891 0.0086
C 4.81768 2.93271 -0.00643
C 6.01592 2.16212 0.017
C 6.03793 0.82885 -0.03113
C 4.86936 0.07752 -0.02566
C 7.35485 32.82689 -0.00094
C 8.54509 32.02753 0.02322
C 8.57211 30.63793 -0.00725
C 7.38544 29.90932 -0.05697
C 7.33907 28.50747 0.01087
C 8.59107 27.80904 -0.01343
C 8.57846 26.30497 0.00988
C 7.35775 25.55767 0.0276
C 7.3699 24.15101 0.01305
C 8.61721 23.47699 -0.00077
C 8.75551 22.0613 0.03368
C 7.3821 21.44908 -0.02929
C 7.32836 19.95236 -0.00966
C 8.57761 19.23891 -0.03337
C 6.19888 10.66708 -0.00279
C 3.72741 31.99959 -0.00112
C 17.26959 11.2786 -0.00316
C 18.37941 9.25733 -0.01979
C 30.74534 27.64765 -0.02155
C 30.78381 26.26603 -0.00944
C 29.55475 25.52007 -0.03735
C 29.53758 24.11536 -0.00971
C 30.72407 23.39146 0.01518
C 30.67199 21.92388 0.01908
C 29.53967 21.21953 0.07705
C 30.64342 10.55897 0.0103
C 30.57696 9.1987 0.02108
C 29.40541 8.44872 0.00716
C 29.54126 28.32526 -0.01461
C 29.39617 6.98396 0.00307
C 30.65401 4.98692 0.01713
C 29.4306 4.24274 -0.01694
C 29.43912 2.81725 0.01428
C 30.67427 2.05549 -0.02142
C 30.68159 0.60416 0.0544
C 29.52398 33.98543 0.00026
C 31.98544 32.63449 0.00682
C 33.14997 31.96682 -0.01779
C 33.19914 30.46936 0.03794
C 32.02871 29.7339 0.01927
C 30.59619 6.33839 0.00346
C 32.01783 28.33783 0.01574
C 29.51899 29.78389 -0.01303
C 30.82767 31.93103 0.01705
C 27.09758 28.44295 0.00235
C 28.32926 27.69097 0.01495
C 28.30369 26.21547 0.01259
C 27.0774 25.55851 0.01799
C 27.08195 24.11672 0.01699
C 28.32573 23.40636 -0.00416
C 28.44769 21.99659 0.01177
C 27.12754 21.35922 0.04266
C 27.02398 19.98474 0.01324
C 26.99243 11.20455 0.0014
C 30.80244 30.46922 -0.0405
C 28.17078 10.69615 0.00924
C 26.95164 8.54407 0.00261
C 26.96744 7.15612 0.03265
C 28.16226 6.45141 -0.02049
C 28.15489 4.97852 -0.01854
C 26.97733 4.2867 -0.01415
C 26.97708 2.84779 -0.03039
C 28.25231 2.07079 0.01836
C 28.28447 0.58491 0.03531
C 26.96872 0.03346 -0.00669
C 29.53338 32.57488 0.0101
C 28.23518 9.24092 0.02326
C 33.23981 27.64684 -0.02383
C 33.19476 26.22177 -0.01429
C 31.98768 25.49539 -0.0136
C 1.21387 23.38109 0.00723
C 1.19186 21.93723 0.02712
C 34.4173 21.24355 -0.02213
C 0.05345 19.80778 0.01951
C 1.33219 19.20319 -0.01678
C 1.27135 17.85076 0.01223
C 0.01023 17.15009 0.00648
C 0.167 15.83903 0.02114
C 1.13371 14.90721 -0.02957
C 1.12777 13.46687 0.00343
C 34.36975 24.05794 0.03076
C 34.32973 12.91153 -0.02656
C 1.21258 10.6515 -0.00027
C 1.01399 9.27149 -0.00583
C 34.24756 8.55775 -0.02302
C 34.26488 7.14583 -0.02849
C 1.11744 6.44719 0.02931
C 1.0636 4.99661 0.00628
C 34.34132 4.27143 -0.0345
C 34.27731 2.88061 -0.00931
C 1.04111 2.14505 -0.00939
C 1.2167 0.71831 -0.00468
C 34.3248 11.43122 -0.02442
C 34.42841 25.42413 -0.05239
C 1.19992 26.22182 -0.00598
C 1.26573 27.66531 -0.00439
C 31.96252 24.06467 0.00594
C 33.16103 23.34261 -0.02474
C 33.14202 21.93222 0.00369
C 31.90063 21.1942 0.00455
C 32.15875 19.75625 -0.00644
C 33.32982 19.14179 -0.01839
C 31.76437 11.29696 0.00137
C 33.02687 10.6603 0.00199
C 33.04992 9.21463 0.04381
C 31.79611 8.55272 0.02806
C 31.83871 7.03777 0.01504
C 33.09806 6.3197 -0.00069
C 33.12458 4.91328 0.04926
C 31.87314 4.22478 -0.03838
C 31.84942 2.74774 0.00349
C 33.1013 2.07377 -0.00323
C 33.21778 0.64522 -0.00841
C 31.98091 34.02363 0.0001
C 34.38216 32.6053 -0.02927
C 1.18752 31.88715 -0.01404
C 1.16607 30.44195 0.01027
C 34.42205 29.79722 0.01831
C 0.02009 28.37207 -0.01037
C 26.99775 29.79374 0.01094
C 28.17861 30.52146 0.02198
C 28.21329 31.91712 0.02611
C 27.00886 32.68652 -0.00621
C 20.95779 13.48788 0.0106
C 19.68543 12.77053 -0.01154
C 19.70882 11.37029 -0.01721
C 20.89132 10.6502 -0.02422
C 20.7915 9.23041 0.01277
C 19.58429 8.51651 0.00096
C 19.68218 7.06256 -0.01527
C 20.86726 6.41549 0.01087
C 20.80128 5.04502 0.00199
C 19.6124 4.25943 0.01511
C 20.93151 14.89983 -0.01594
C 19.70846 2.88117 -0.00478
C 20.8964 0.71533 -0.01185
C 19.65852 0.03774 0.01126
C 22.1192 32.64349 0.01852
C 23.30277 31.94192 -0.00381
C 23.24738 30.51779 0.03046
C 22.04411 29.77016 0.0296
C 22.09645 28.38493 0.03374
C 23.30937 27.70275 -0.02845
C 23.38502 26.30105 -0.03213
C 22.09252 25.52816 0.02239
C 20.87661 2.0964 -0.01662
C 19.71951 15.61522 0.00742
C 19.65043 17.08328 -0.00311
C 20.87303 17.81784 0.00675
C 17.18631 8.5168 0.02691
C 17.24245 7.1147 -0.01581
C 18.42276 6.30428 0.01452
C 18.40864 4.92795 0.04892
C 17.0878 4.21563 -0.00111
C 17.23921 2.84946 -0.03557
C 18.45289 2.17044 0.03754
C 18.4209 0.68163 0.01739
C 17.24152 34.07321 0.00755
C 19.63848 32.68203 -0.0054
C 20.8739 32.02382 0.00667
C 20.88671 30.59476 0.00143
C 19.62311 29.88095 -0.017
C 19.68004 28.39385 0.00364
C 20.84413 27.68448 -0.00831
C 20.87071 26.27603 -0.02957
C 19.58283 25.54561 -0.04422
C 19.56983 24.07126 0.00654
C 20.87358 23.40956 -0.00703
C 20.96683 21.98586 -0.04076
C 19.71345 21.3093 -0.00652
C 19.7314 19.93302 0.0058
C 20.87523 19.21578 -0.00865
C 22.11102 24.17655 0.01153
C 18.45256 10.64368 0.02188
C 23.40607 23.4414 0.02734
C 22.16316 21.24625 0.01515
C 24.5789 25.57615 -0.01052
C 24.593 24.18985 -0.01679
C 25.84396 23.46359 0.00367
C 25.80658 22.08424 0.04306
C 24.59338 21.34168 0.00996
C 24.61816 19.88749 0.00195
C 25.82881 19.30624 -0.00802
C 24.64862 17.03632 -0.00218
C 24.58142 15.64817 -0.01654
C 24.64541 12.71852 -0.00037
C 25.78816 26.29188 0.00684
C 24.60556 11.3361 -0.0032
C 25.72678 9.20919 -0.02815
C 24.54174 8.50798 -0.00942
C 24.61121 7.14721 0.00487
C 25.7833 6.46261 0.00826
C 25.7232 5.02097 -0.00294
C 24.5618 4.22534 0.00152
C 24.5381 2.79218 0.01257
C 25.83996 2.118 0.02316
C 25.7641 0.69926 0.04185
C 24.5045 0.02296 0.00194
C 25.83531 10.65058 0.00622
C 25.81317 27.81035 -0.01154
C 24.51733 28.45874 -0.0264
C 24.4893 29.857 -0.00938
C 22.03916 19.85738 -0.00225
C 23.32475 19.20642 0.00071
C 23.35738 17.75805 -0.01107
C 22.08876 17.04884 -0.01586
C 22.18643 15.61531 -0.01971
C 23.4072 14.86937 -0.02118
C 23.42331 13.37889 0.00733
C 22.12446 12.71891 -0.00178
C 22.16844 11.32474 0.00768
C 23.38718 10.64831 -0.0276
C 23.41561 9.25464 0.03005
C 22.12502 8.55805 -0.04078
C 22.16017 7.08129 0.02117
C 23.3533 6.41121 0.02737
C 23.36724 5.01252 -0.00498
C 22.08173 4.28022 0.00135
C 22.0769 2.83289 0.03102
C 23.30341 2.09672 0.02555
C 23.28197 0.67717 0.01423
C 22.06738 0.01249 -0.00285
C 24.57482 32.62075 -0.009
C 25.80256 32.00747 -0.01199
C 25.85677 30.50824 -0.00229
C 23.37627 22.04462 -0.0055
C 2.42574 32.7218 0.01078
