370
Graphene
C 34.38371 34.06471 0.01295
C 13.47163 2.19661 0.05265
C 13.52738 0.70514 -0.01952
C 12.24287 0.02459 -0.02813
C 14.79569 32.72289 0.00374
C 16.07285 31.97467 0.00052
C 16.12938 30.65504 -0.03682
C 15.86726 17.47404 0.01965
C 14.64639 16.83194 0.02058
C 14.73387 15.54264 -0.01957
C 16.00718 14.89743 -0.0108
C 16.0149 13.45425 -0.00368
C 14.84324 12.74048 -0.02696
C 14.83825 11.32152 -0.00114
C 16.02105 10.66546 0.00228
C 15.97042 9.184 0.00798
C 14.74496 8.45847 0.00422
C 14.69709 7.06141 0.0351
C 15.98157 6.30207 -0.03113
C 16.01323 4.91865 0.02098
C 12.32697 2.84849 -0.01717
C 14.76566 4.25761 0.01848
C 12.28447 4.27305 0.00244
C 13.44321 6.3393 0.03542
C 11.06095 6.37221 -0.00891
C 11.07575 4.9801 0.02819
C 9.85717 4.34321 0.00165
C 9.84719 2.88964 -0.02971
C 11.04075 2.13708 0.02894
C 10.99426 0.71754 -0.01789
C 9.7893 34.06265 0.00444
C 12.16762 32.54279 -0.00925
C 13.51145 32.24769 0.01877
C 12.24441 17.13216 0.01363
C 12.2871 15.67624 -0.02162
C 13.48707 14.82487 0.00415
C 13.60279 13.36641 -0.0014
C 12.3443 12.68952 0.02162
C 12.28191 11.33079 0.0076
C 13.62443 10.64272 0.01241
C 13.54388 9.10233 -0.01454
C 12.25769 8.50548 0.01945
C 12.2717 7.09332 0.01416
C 13.46641 4.98948 0.02299
C 9.71042 7.15321 -0.01046
C 14.72059 2.89256 -0.00619
C 15.88189 0.73839 0.00889
C 20.94815 32.30098 0.01452
C 19.74751 19.83418 0.04892
C 20.86948 19.20008 -0.00111
C 20.86375 17.71927 -0.03557
C 19.59412 17.03267 0.03754
C 19.60223 15.65675 0.01739
C 20.91106 14.90512 0.00755
C 20.94356 13.47601 -0.0054
C 19.70573 12.80648 0.00667
C 19.69628 11.31213 0.00143
C 20.95448 10.63861 -0.017
C 20.85223 9.15905 0.00364
C 19.59341 8.47168 -0.00831
C 19.61288 7.08597 -0.02957
C 20.94527 6.30016 -0.04422
C 20.87421 4.92386 0.00654
C 19.62967 4.23901 -0.00703
C 19.58558 2.83371 -0.04076
C 20.81036 2.0624 -0.00652
C 19.65112 32.54608 -0.01581
C 15.96882 2.15089 -0.02162
C 17.17447 34.06541 0.02691
C 18.40903 2.059 0.02188
C 14.72291 0.04441 -0.00481
C 17.26348 32.76352 0.00979
C 18.40155 31.89121 0.01443
C 18.52225 19.19154 0.03505
C 18.35569 17.84676 -0.02815
C 17.12598 17.11465 -0.04147
C 17.21489 15.62288 -0.05302
C 18.41424 14.90852 0.00213
C 18.51452 13.47315 -0.00066
C 17.27174 12.77178 -0.00289
C 17.25292 11.34941 0.00028
C 18.51323 10.65785 -0.02213
C 18.41949 9.22109 0.03698
C 17.15528 8.53507 -0.00109
C 17.1021 7.11132 -0.00491
C 18.42623 6.38525 0.03338
C 18.48706 4.94006 -0.0258
C 17.26578 4.18094 -0.0331
C 17.24579 2.79982 -0.00316
C 18.33442 0.73725 -0.01979
C 9.8832 8.56229 -0.02689
C 11.08056 9.26159 -0.01536
C 11.1126 10.67089 0.03101
C 3.71953 6.49372 -0.00966
C 3.69818 5.03384 -0.03337
C 2.50994 4.26033 0.01227
C 2.42849 2.91057 0.00873
C 3.73553 2.17769 -0.00049
C 3.72617 0.72099 0.00848
C 2.44316 0.03097 -0.01303
C 4.83811 32.66401 -0.01378
C 6.07911 31.91371 0.02635
C 6.10983 30.53512 0.0127
C 4.93064 29.83669 0.01396
C 4.95106 28.40786 0.01849
C 6.24882 27.9622 -0.01142
C 4.83653 25.55938 -0.00562
C 4.90556 24.16079 -0.00494
C 4.90595 21.37695 0.00054
C 4.98033 20.02701 0.03007
C 6.08366 19.13936 -0.00095
C 6.10403 17.8025 0.01572
C 2.49673 7.15692 -0.02929
C 4.90144 17.09136 -0.04848
C 2.45857 8.52266 0.03368
C 3.70424 10.67173 0.01305
C 3.60201 30.53091 -0.00279
C 2.46816 29.82334 0.01996
C 2.43329 28.41718 -0.03996
C 3.74502 27.65029 0.01465
C 3.78481 26.28936 -0.00074
C 2.42869 25.57295 -0.00518
C 2.49351 24.20145 0.0086
C 3.74173 23.4511 -0.00643
C 3.72511 21.99962 0.017
C 2.44635 21.23629 -0.03113
C 2.50631 19.84157 -0.02566
C 3.68031 19.1707 -0.00094
C 3.69256 17.78126 0.02322
C 2.34659 17.04509 -0.00725
C 2.4081 15.68973 -0.05697
C 3.62005 15.00001 0.01087
C 3.62829 13.54404 -0.01343
C 2.50513 12.83606 0.00988
C 2.49125 11.32832 0.0276
C 3.66051 9.22452 -0.00077
C 4.87721 15.63476 -0.00892
C 6.14922 14.89452 -0.01362
C 6.1538 13.50648 -0.0008
C 8.63757 10.66632 0.02339
C 8.59413 9.24492 0.01641
C 7.38367 8.60096 -0.00719
C 7.39824 7.17119 0.01364
C 8.57125 6.41058 -0.01062
C 8.69117 5.05456 -0.00033
C 7.38476 4.36108 0.03589
C 7.40845 2.89437 -0.02759
C 8.63846 2.07806 0.0402
C 8.62221 0.75679 0.00572
C 7.32275 0.04407 0.03592
C 9.80292 32.62069 0.00406
C 10.97067 31.9018 0.00943
C 9.71738 17.10168 0.02841
C 9.88319 15.71515 -0.01111
C 11.05148 14.92184 -0.01275
C 11.08526 13.53836 0.00985
C 9.8635 12.8008 -0.02245
C 9.85828 11.35577 -0.00428
C 7.39677 11.38282 -0.00334
C 7.40374 12.81596 -0.01634
C 8.60571 13.55476 0.00057
C 8.6307 14.96483 0.00093
C 4.86515 12.80216 0.0288
C 4.9628 11.37088 0.00393
C 6.15309 10.73792 0.00895
C 6.18831 9.308 0.00685
C 4.96443 8.63783 0.02888
C 4.91192 7.23528 -0.00482
C 6.20666 6.48727 -0.01384
C 6.21527 5.08405 0.03693
C 4.95373 4.35254 0.01745
C 20.85266 0.67656 0.0058
C 4.94642 2.90535 0.00488
C 6.10868 0.74181 -0.02896
C 4.88858 34.05422 -0.00131
C 7.28743 32.64489 -0.01118
C 8.51498 31.93313 -0.014
C 8.35901 30.5943 0.02147
C 7.29832 29.89944 0.00373
C 8.57371 17.70625 -0.00191
C 7.34221 17.11453 0.00438
C 7.34871 15.65038 0.01291
C 6.2199 2.15683 -0.01004
C 19.57852 34.05538 -0.00865
C 22.1695 32.62474 0.00675
C 23.36635 31.89605 -0.00311
C 30.73791 2.08004 0.00716
C 30.78894 0.72171 0.00307
C 29.55097 0.01233 0.00346
C 31.96189 32.66385 0.01713
C 33.18345 31.95509 -0.01694
C 33.11941 30.55927 0.01428
C 31.89295 29.84573 -0.02142
C 31.84746 28.36245 0.0544
C 33.16397 27.73222 0.00026
C 33.18889 26.26114 0.00682
C 31.97429 25.61439 -0.01779
C 31.93191 24.15959 0.03794
C 33.18833 23.44291 0.01927
C 33.19797 22.0433 0.01574
C 31.99192 21.30242 -0.02383
C 32.01747 19.92868 -0.01429
C 33.20558 19.17598 -0.0136
C 33.1516 17.75196 0.00594
C 31.95248 16.98441 -0.02474
C 29.51002 2.88027 0.02108
C 31.91113 15.63231 0.00369
C 29.52152 4.30852 0.0103
C 30.77981 6.36417 0.01908
C 30.73935 26.28309 0.00261
C 29.47995 25.59621 0.03265
C 29.49708 24.19799 -0.02049
C 30.70666 23.47188 -0.01854
C 30.7873 22.00397 -0.01415
C 29.57667 21.21702 -0.03039
C 29.56623 19.90016 0.01836
C 30.76131 19.20535 0.03531
C 30.68702 17.73195 -0.00669
C 29.47812 17.03522 0.0101
C 29.54831 15.67133 0.01705
C 30.77279 14.81477 -0.0405
C 30.74685 13.41961 -0.01303
C 29.54287 12.80226 -0.01461
C 29.46757 11.35944 -0.02155
C 30.63953 10.65414 -0.00944
C 30.66892 9.21846 -0.03735
C 29.46296 8.45751 -0.00971
C 29.48576 7.11815 0.01518
C 30.78473 4.98067 0.07705
C 33.16545 14.89409 0.00455
C 33.1658 13.51128 -0.00644
C 32.02298 12.75312 -0.01839
C 0.00203 19.84839 0.01951
C 1.18861 19.17104 -0.01678
C 1.10201 17.7843 0.01223
C 34.33187 17.0767 0.00648
C 34.39521 15.64487 0.02114
C 1.2256 14.95652 -0.02957
C 1.28424 13.49321 0.00343
C 0.06091 12.84741 -0.02656
C 34.39041 11.37839 -0.02442
C 1.27014 10.66386 -0.00027
C 1.18951 9.2903 -0.00583
C 34.42767 8.56518 -0.02302
C 0.04417 7.11192 -0.02849
C 1.24229 6.40758 0.02931
C 1.2538 5.03162 0.00628
C 34.40181 4.29232 -0.0345
C 34.42195 2.88927 -0.00931
C 1.17681 2.10362 -0.00939
C 1.23267 0.78587 -0.00468
C 0.07095 21.31287 -0.02213
C 1.29834 21.97566 0.02712
C 1.23055 23.41855 0.00723
C 0.07797 24.16163 0.03076
C 31.94255 11.2735 0.00137
C 33.18818 10.65435 0.00199
C 33.18073 9.22761 0.04381
C 31.9073 8.58908 0.02806
C 31.9815 7.08883 0.01504
C 33.25757 6.43862 -0.00069
C 33.17617 5.04391 0.04926
C 32.00198 4.24157 -0.03838
C 32.00886 2.82831 0.00349
C 30.68391 27.6951 0.02326
C 33.22076 2.14541 -0.00323
C 31.95527 0.08543 0.0001
C 34.3382 32.67505 -0.02927
C 1.22605 32.00597 -0.01404
C 1.20725 30.58821 0.01027
C 34.35269 29.88651 0.01831
C 34.38044 28.50649 -0.01037
C 1.20915 27.80738 -0.00439
C 1.14986 26.35247 -0.00598
C 34.40209 25.56629 -0.05239
C 33.19485 0.75347 -0.00841
C 3.65871 31.9673 0.01226
C 29.4206 28.42917 0.00924
C 30.68186 30.50105 0.01324
C 24.57837 32.54381 0.02239
C 25.79099 31.97882 0.01153
C 25.72062 30.5238 0.02734
C 24.4005 29.68193 -0.0055
C 24.70163 28.34603 0.01515
C 25.78324 27.60627 -0.00225
C 25.76497 26.19901 0.00071
C 24.52594 25.47385 -0.01107
C 24.71285 24.12174 -0.01586
C 25.77957 23.36271 -0.01971
C 25.9225 21.91322 -0.02118
C 24.6244 21.30479 0.00733
C 24.54156 19.84399 -0.00178
C 25.80416 19.13678 0.00768
C 25.77181 17.70238 -0.0276
C 24.50743 16.99195 0.03005
C 24.6084 15.54774 -0.04078
C 25.89089 14.89254 0.02117
C 25.84602 13.46021 0.02737
C 22.02353 0.07207 -0.03213
C 24.64976 12.66313 -0.00498
C 23.32507 0.76952 -0.02845
C 22.06008 2.8274 0.0296
C 23.24049 30.53897 0.00742
C 23.43122 21.99995 -0.01594
C 22.27375 21.18116 0.0106
C 21.99135 19.863 -0.01154
C 23.36176 19.08486 -0.01721
C 23.34775 17.69546 -0.02422
C 22.09779 16.94682 0.01277
C 22.14564 15.51711 0.00096
C 23.36967 14.85197 -0.01527
C 23.36012 13.42833 0.01087
C 22.13339 12.76572 0.00199
C 22.2105 11.32315 0.01511
C 23.38467 10.63144 -0.00478
C 23.34057 9.18634 -0.01662
C 22.10891 8.39693 -0.01185
C 22.12661 7.04309 0.01126
C 23.34562 6.35414 0.01852
C 23.29804 4.93957 -0.00381
C 22.03166 4.20912 0.03046
C 23.23012 2.15177 0.03374
C 24.61701 11.30888 0.00135
C 25.82091 10.65471 0.03102
C 25.7717 9.2607 0.02555
C 26.99035 16.9851 0.00826
C 27.0544 15.60864 -0.00294
C 28.28825 14.93054 0.00152
C 28.32456 13.50481 0.01257
C 27.09996 12.77532 0.02316
C 27.06083 11.43912 0.04185
C 28.2553 10.6107 0.00194
C 28.22886 9.20179 -0.00621
C 27.00624 8.52362 0.02611
C 27.04065 7.14739 0.02198
C 28.23342 6.4085 0.01094
C 28.28574 4.97506 0.00235
C 26.97169 4.31306 0.01495
C 26.99639 2.85462 0.01259
C 28.32431 2.12582 0.01799
C 28.31151 0.78739 0.01699
C 27.01846 0.00524 -0.00416
C 29.56525 32.6886 0.01177
C 30.77011 31.92576 0.04266
C 28.27919 17.76949 0.00487
C 28.28714 19.14015 -0.00942
C 27.12779 19.91607 -0.02815
C 27.05759 21.27465 0.00622
C 24.56449 8.47473 0.01423
C 24.62737 7.09045 -0.00285
C 25.80585 6.41652 -0.009
C 25.75702 4.95805 -0.01199
C 24.50079 4.17324 -0.00229
C 24.5619 2.7904 -0.00938
C 25.80324 2.1211 -0.0264
C 25.70797 0.73152 -0.01154
C 24.55622 0.03527 0.00684
C 29.44385 29.82884 0.0014
C 27.09937 32.70647 -0.01052
C 28.24982 30.60483 0.00367
C 27.02201 29.78955 0.04306
C 27.04181 28.3939 0.00996
C 28.23618 27.66986 0.00195
C 28.21249 26.20374 -0.00802
C 26.94926 25.50557 -0.00218
C 26.98819 24.00931 -0.01654
C 28.32724 23.42326 -0.00037
C 28.41299 22.00136 -0.0032
C 28.27341 31.95588 -0.01679
C 2.42765 32.71909 0.03828
