350
Graphene
C 0.01394 0.01698 0.01295
C 9.8625 15.59766 0.00798
C 11.00826 14.97219 0.00422
C 11.07384 13.48775 0.0351
C 9.83967 12.74066 -0.03113
C 9.8615 11.37167 0.02098
C 11.08778 10.6418 0.01848
C 11.04868 9.21979 -0.00619
C 9.80861 8.53345 -0.02162
C 9.81243 7.05195 0.00889
C 11.04231 6.39025 -0.00481
C 11.0805 4.98111 0.00979
C 9.8709 4.25889 0.01443
C 9.84487 2.8134 0.03505
C 11.08902 2.1126 -0.02815
C 11.06798 0.7771 -0.04147
C 9.84019 0.01071 -0.05302
C 12.28814 32.61169 0.00213
C 9.80331 17.04067 0.00228
C 11.10238 17.70305 -0.00114
C 11.0444 19.1281 -0.02696
C 9.83691 19.90379 -0.00368
C 8.60828 4.9398 0.01241
C 7.36914 4.26132 -0.01454
C 7.32229 2.88088 0.01945
C 8.60722 2.18238 0.01416
C 8.6133 0.72211 0.03542
C 7.42981 0.00808 0.02299
C 9.85848 32.65788 0.00244
C 11.06822 31.95841 -0.01717
C 13.52142 31.93214 -0.00066
C 11.10116 30.52413 0.05265
C 9.83242 28.43281 -0.02813
C 11.06269 27.68284 0.00374
C 11.03797 26.29752 0.00052
C 9.87414 25.54157 -0.03682
C 9.85522 24.13641 0.01965
C 11.08782 23.41645 0.02058
C 11.09621 22.00699 -0.01957
C 9.82588 21.2742 -0.0108
C 9.81737 29.81598 -0.01952
C 13.5403 30.5096 -0.00289
C 12.30535 29.81071 0.00028
C 12.32707 28.38765 -0.02213
C 12.3521 4.30174 0.00364
C 12.31729 2.86192 -0.00831
C 13.54621 2.15354 -0.02957
C 13.50217 0.7749 -0.04422
C 12.28882 0.04437 0.00654
C 14.72995 32.59052 -0.00703
C 16.01036 31.92672 -0.04076
C 16.02711 30.57237 -0.00652
C 13.53571 4.9468 -0.017
C 14.74599 29.82145 0.0058
C 15.99641 27.70884 0.00675
C 15.98769 26.25856 -0.00311
C 14.79683 25.5901 0.00742
C 14.78524 24.07586 -0.01594
C 16.0125 23.41168 0.0106
C 15.98338 22.02106 -0.01154
C 14.76462 21.27449 -0.01721
C 14.70093 19.88385 -0.02422
C 14.73876 28.38205 -0.00865
C 8.61985 6.34208 0.0076
C 13.55357 6.35669 0.00143
C 12.3035 8.53265 -0.0054
C 13.49988 27.69371 0.03698
C 13.50148 26.22735 -0.00109
C 12.25403 25.5578 -0.00491
C 12.2675 24.15162 0.03338
C 13.53034 23.43783 -0.0258
C 13.53654 21.97419 -0.0331
C 12.27593 21.32216 -0.00316
C 12.30011 19.89296 0.02188
C 12.29154 7.12589 0.00667
C 13.5758 19.17308 -0.01979
C 12.30907 17.04953 -0.01581
C 12.3029 15.59902 0.01452
C 13.51834 14.87603 0.04892
C 13.55089 13.49456 -0.00111
C 12.31115 12.77364 -0.03557
C 12.30542 11.36438 0.03754
C 13.51944 10.63873 0.01739
C 13.48852 9.23131 0.00755
C 13.53087 17.77448 0.02691
C 7.35832 7.10947 0.02162
C 7.39062 8.53979 -0.0014
C 8.60491 9.22674 0.00415
C 2.41193 7.08315 -0.04848
C 3.69844 6.34852 -0.00892
C 3.64313 4.96191 -0.01362
C 2.4525 4.2765 -0.0008
C 2.4488 2.8298 0.0288
C 3.71519 2.14371 0.00393
C 3.72545 0.73177 0.00895
C 2.44123 0.05226 0.00685
C 2.44433 8.50852 0.01572
C 4.90946 32.64433 0.02888
C 6.12099 30.51091 -0.01384
C 4.93067 29.84274 0.03693
C 4.91577 28.34596 0.01745
C 6.11999 27.71293 0.00488
C 6.09202 26.29408 -0.01004
C 4.88635 25.59253 -0.02896
C 4.92381 24.17072 -0.00131
C 6.16383 23.43651 -0.01118
C 6.15648 31.92309 -0.00482
C 6.13833 22.02732 -0.014
C 3.70432 9.22301 -0.00095
C 2.47992 11.3578 0.00054
C 3.64699 30.58782 -0.00077
C 2.4741 29.8509 0.03368
C 2.4802 28.36482 -0.02929
C 3.68031 27.69395 -0.00966
C 3.64697 26.28643 -0.03337
C 2.48197 25.53332 0.01227
C 2.52692 24.18101 0.00873
C 3.68824 23.41597 -0.00049
C 3.73413 10.6165 0.03007
C 3.68632 21.99952 0.00848
C 2.42944 19.90233 -0.01378
C 3.69108 19.21441 0.02635
C 3.69639 17.76929 0.0127
C 2.4804 17.01836 0.01396
C 2.4595 15.65456 0.01849
C 3.74935 14.91413 -0.01142
C 3.6618 13.45185 -0.00562
C 2.4896 12.73527 -0.00494
C 2.4368 21.27858 -0.01303
C 15.98384 19.19078 0.01277
C 4.8878 21.32689 0.02147
C 6.14385 19.20277 -0.00191
C 7.40342 28.42931 0.00985
C 8.60464 27.65796 -0.02245
C 8.61411 26.29271 -0.00428
C 7.38927 25.58915 0.03101
C 7.36141 24.14295 -0.01536
C 8.59403 23.42706 -0.02689
C 8.61103 22.00583 -0.01046
C 7.40994 21.28287 -0.00891
C 7.40347 29.86341 -0.01275
C 7.40098 19.85432 0.02819
C 8.61255 17.78476 -0.02971
C 7.38232 17.06856 0.02894
C 7.34803 15.64292 -0.01789
C 8.62955 14.89928 0.00444
C 8.63138 13.48835 -0.00925
C 7.3931 12.80656 0.01877
C 7.37638 11.3016 0.01363
C 8.60484 10.61716 -0.02162
C 8.59086 19.1953 0.00165
C 4.89309 19.85888 0.00373
C 8.60181 30.519 -0.01111
C 7.3612 32.66107 0.00943
C 6.17247 17.7631 0.00438
C 4.91588 17.02118 0.01291
C 4.93153 15.64102 0.00093
C 6.14951 14.9202 0.00057
C 6.16937 13.52344 -0.01634
C 4.93427 12.78567 -0.00334
C 4.9341 11.37974 0.02339
C 6.17943 10.68938 0.01641
C 8.59466 31.97053 0.02841
C 6.15997 9.26673 -0.00719
C 4.96268 7.13681 -0.01062
C 6.14652 6.42322 -0.00033
C 6.13232 4.98536 0.03589
C 4.93357 4.27361 -0.02759
C 4.90101 2.8962 0.0402
C 6.12269 2.14701 0.00572
C 6.13276 0.74388 0.03592
C 4.87321 0.00904 0.00406
C 4.91988 8.56193 0.01364
C 15.95805 17.71571 0.00096
C 14.758 17.0351 -0.01527
C 14.75073 15.61097 0.01087
C 29.50505 2.86252 -0.01694
C 30.76272 2.13288 0.01428
C 30.72187 0.69367 -0.02142
C 29.51403 0.01899 0.0544
C 31.97675 32.65765 0.00026
C 33.20152 31.93903 0.00682
C 33.16979 30.54681 -0.01779
C 31.96346 29.84295 0.03794
C 29.51442 4.28671 0.01713
C 32.00359 28.36045 0.01927
C 33.23078 26.28876 -0.02383
C 31.94922 25.56282 -0.01429
C 31.98192 24.14802 -0.0136
C 33.16809 23.46198 0.00594
C 33.15807 22.02298 -0.02474
C 31.97023 21.27544 0.00369
C 31.96958 19.82241 0.00455
C 33.2375 19.18497 -0.00644
C 33.18708 27.67297 0.01574
C 33.18758 17.77685 -0.01839
C 30.74553 4.93044 0.00346
C 30.74337 19.14791 0.00716
C 28.31866 5.00244 -0.03039
C 27.08444 4.24395 0.01836
C 27.05982 2.85222 0.03531
C 28.28898 2.10114 -0.00669
C 28.26492 0.70921 0.0101
C 27.04693 34.06658 0.01705
C 29.51924 32.70267 -0.0405
C 30.77365 31.95217 -0.01303
C 30.7711 6.35385 0.00307
C 30.76305 30.52558 -0.01461
C 29.52124 28.38808 -0.00944
C 30.74344 27.74253 -0.03735
C 30.73986 26.27149 -0.00971
C 29.51377 25.55203 0.01518
C 29.52384 24.15113 0.01908
C 30.73913 23.4567 0.07705
C 30.74647 22.01666 0.0103
C 29.5146 21.28668 0.02108
C 29.55065 29.80013 -0.02155
C 28.30103 22.03538 -0.01415
C 31.96199 17.0345 0.00137
C 33.18258 13.491 0.04381
C 1.21918 19.19587 -0.01678
C 1.25002 17.71146 0.01223
C 34.41632 16.98554 0.00648
C 34.39706 15.62446 0.02114
C 1.21021 14.89151 -0.02957
C 1.21214 13.51946 0.00343
C 34.42105 12.74768 -0.02656
C 34.4232 11.33909 -0.02442
C 0.01403 19.88036 0.01951
C 1.21534 10.70522 -0.00027
C 0.02194 8.51625 -0.02302
C 34.42653 7.05882 -0.02849
C 1.21637 6.36893 0.02931
C 1.24044 4.93708 0.00628
C 34.41703 4.22065 -0.0345
C 0.01688 2.81774 -0.00931
C 1.25655 2.14972 -0.00939
C 1.24649 0.71466 -0.00468
C 1.24896 9.26164 -0.00583
C 33.17608 14.88621 0.00199
C 0.01205 21.32823 -0.02213
C 1.20605 23.46519 0.00723
C 33.22316 9.21528 0.02806
C 31.93863 7.1057 0.01504
C 33.22231 6.42369 -0.00069
C 33.22175 4.96811 0.04926
C 31.9634 4.23855 -0.03838
C 31.97854 2.88704 0.00349
C 33.19948 2.12425 -0.00323
C 33.21713 0.721 -0.00841
C 1.18502 21.98247 0.02712
C 31.95855 34.07129 0.0001
C 1.22333 31.96548 -0.01404
C 1.2703 30.52289 0.01027
C 34.38529 29.79358 0.01831
C 34.40931 28.4304 -0.01037
C 1.22562 27.6356 -0.00439
C 1.22614 26.26905 -0.00598
C 34.42844 25.55595 -0.05239
C 34.41896 24.18346 0.03076
C 34.42999 32.67861 -0.02927
C 3.68458 31.96732 0.01305
C 28.28921 23.43657 -0.01854
C 27.01709 25.51263 0.03265
C 18.41701 23.45725 -0.01971
C 18.43188 22.01354 -0.02118
C 17.21366 21.28058 0.00733
C 17.21715 19.8402 -0.00178
C 17.15636 8.54216 0.00768
C 17.22561 7.14786 -0.0276
C 18.43284 6.43231 0.03005
C 18.40307 4.96253 -0.04078
C 17.20783 24.12955 -0.01586
C 17.19936 4.2923 0.02117
C 18.48888 2.16331 -0.00498
C 18.45947 0.73539 0.00135
C 17.21048 34.05783 0.03102
C 19.64724 32.6292 0.02555
C 20.89913 31.96658 0.01423
C 20.90537 30.55475 -0.00285
C 19.67736 29.78939 -0.009
C 19.69124 28.35919 -0.01199
C 17.2007 2.84544 0.02737
C 20.8811 27.72384 -0.00229
C 17.23691 25.54465 -0.01107
C 18.39544 27.66226 -0.00225
C 14.74206 12.7609 0.00199
C 14.7575 11.35456 0.01511
C 15.97997 10.61985 -0.00478
C 15.95549 9.24732 -0.01662
C 14.75848 8.4872 -0.01185
C 14.79647 7.07175 0.01126
C 15.99291 6.37301 0.01852
C 15.97947 4.94483 -0.00381
C 18.43308 26.27359 0.00071
C 14.75082 4.23189 0.03046
C 15.95923 2.10427 0.03374
C 15.99327 0.69493 -0.02845
C 14.77891 34.04587 -0.03213
C 17.21717 32.73162 0.02239
C 18.42726 31.94347 0.01153
C 18.37084 30.49318 0.02734
C 17.20626 29.77442 -0.0055
C 17.18942 28.41742 0.01515
C 14.79449 2.83163 0.0296
C 27.07305 24.07756 -0.02049
C 20.88532 26.30649 -0.00938
C 19.66966 24.12681 -0.01154
C 25.83996 30.52245 0.00194
C 24.59582 29.8229 -0.00621
C 24.63009 28.39162 0.02611
C 25.84508 27.65764 0.02198
C 25.86818 26.25821 0.01094
C 25.82826 4.96885 0.00235
C 24.59225 4.22129 0.01495
C 24.57994 2.83459 0.01259
C 25.82062 31.95156 0.04185
C 25.85578 2.08834 0.01799
C 24.64311 34.04824 -0.00416
C 27.00805 32.63471 0.01177
C 28.30738 31.92448 0.04266
C 28.28839 30.53487 0.01324
C 27.05732 29.79605 0.0014
C 27.08165 28.39021 0.00924
C 28.28978 27.65749 0.02326
C 28.26263 26.27222 0.00261
C 25.84115 0.69272 0.01699
C 19.69824 25.57567 -0.0264
C 24.59668 32.66144 0.02316
C 23.36984 0.71839 0.00152
C 19.67667 21.26086 0.00684
C 20.88607 4.93121 -0.01052
C 19.7253 4.25843 -0.01679
C 19.65513 2.89059 0.00367
C 20.9101 2.14498 0.04306
C 20.89614 0.72529 0.00996
C 19.65965 0.01702 0.00195
C 22.13804 32.66685 -0.00802
C 22.16742 0.02338 0.01257
C 23.36158 32.01254 -0.00218
C 22.13454 29.78059 -0.00037
C 22.174 28.44699 -0.0032
C 23.37657 27.68285 0.00622
C 23.39825 26.23234 -0.02815
C 23.32864 4.93423 -0.00942
C 22.14191 4.2669 0.00487
C 22.11057 2.81712 0.00826
C 23.43137 2.17068 -0.00294
C 23.34259 30.55631 -0.01654
C 2.43394 32.68283 0.0276
