431
Graphene
C 0.01503 0.01452 0.01295
C 13.57729 23.42707 -0.01062
C 13.47748 22.08993 -0.00033
C 12.29587 21.33581 0.03589
C 12.33097 19.86463 -0.02759
C 13.56372 19.19138 0.0402
C 13.54032 17.77356 0.00572
C 12.25043 17.0051 0.03592
C 12.26295 15.59983 0.00406
C 13.4952 14.8142 0.00943
C 13.53458 13.43272 0.02841
C 12.33762 12.82026 -0.01111
C 12.33742 11.29767 -0.01275
C 13.5636 10.62394 0.00985
C 13.55013 9.21635 -0.02245
C 12.27962 8.60471 -0.00428
C 12.30605 7.07442 0.03101
C 13.51906 6.32009 -0.01536
C 13.47399 4.92229 -0.02689
C 12.33506 4.15378 -0.01046
C 12.24811 2.81024 -0.00891
C 13.5141 2.16454 0.02819
C 13.54589 0.6685 0.00165
C 12.29517 0.0625 -0.02971
C 12.21312 24.21242 0.01364
C 14.77514 32.70542 0.02894
C 12.30578 25.61461 -0.00719
C 13.5552 27.73136 0.02339
C 11.06083 17.76547 0.00393
C 9.82062 17.06981 0.00895
C 9.8443 15.62638 0.00685
C 11.07628 14.95631 0.02888
C 11.07831 13.56364 -0.00482
C 9.81164 12.83199 -0.01384
C 9.83743 11.42431 0.03693
C 11.10209 10.61595 0.01745
C 11.05914 9.2192 0.00488
C 9.86606 8.56388 -0.01004
C 9.92727 7.11432 -0.02896
C 11.05661 6.31826 -0.00131
C 11.06687 4.98476 -0.01118
C 9.86462 4.21712 -0.014
C 9.78341 2.82118 0.02147
C 11.07984 2.13134 0.00373
C 11.15696 0.74832 -0.00191
C 9.8594 0.04195 0.00438
C 12.32223 32.71909 0.01291
C 13.47612 32.06716 0.00093
C 13.48853 30.59223 0.00057
C 12.27131 29.75286 -0.01634
C 12.30709 28.36144 -0.00334
C 13.53353 26.35623 0.01641
C 11.07286 19.16892 0.0288
C 15.97075 31.97604 -0.01789
C 14.72798 29.8624 -0.00925
C 14.77327 34.0571 -0.00114
C 17.2749 32.73776 0.00228
C 18.43501 31.93846 0.00798
C 18.46628 30.50906 0.00422
C 17.21488 29.79918 0.0351
C 17.23736 28.34682 -0.03113
C 18.39663 27.65121 0.02098
C 18.42655 26.24279 0.01848
C 17.22541 25.49873 -0.00619
C 17.24101 24.10304 -0.02162
C 18.43186 23.46305 0.00889
C 18.38964 22.01496 -0.00481
C 17.15866 21.32641 0.00979
C 17.12711 19.92373 0.01443
C 18.40423 19.2349 0.03505
C 18.41636 17.79309 -0.02815
C 17.22707 17.01196 -0.04147
C 17.2407 15.62225 -0.05302
C 18.45405 14.95175 0.00213
C 18.4834 13.54203 -0.00066
C 17.28726 12.79385 -0.00289
C 17.22501 11.36561 0.00028
C 18.46007 10.58556 -0.02213
C 15.95562 0.69875 -0.02696
C 15.97967 30.53238 0.00444
C 16.00402 2.14736 -0.00368
C 14.71908 4.26948 -0.01957
C 14.73242 28.43828 0.01877
C 15.92472 27.68782 0.01363
C 15.96558 26.25215 -0.02162
C 14.70328 25.57611 0.00415
C 14.7763 24.17439 -0.0014
C 16.0335 23.4016 0.02162
C 15.92126 21.99672 0.0076
C 14.7194 21.2299 0.01241
C 14.73305 19.86805 -0.01454
C 15.99176 19.14663 0.01945
C 15.95128 17.723 0.01416
C 14.77688 17.02211 0.03542
C 14.79168 15.6231 0.02299
C 15.98795 14.96332 0.00244
C 16.01267 13.43808 -0.01717
C 14.73672 12.782 0.05265
C 14.75509 11.37672 -0.01952
C 16.02048 10.68837 -0.02813
C 16.00393 9.14155 0.00374
C 14.74656 8.53233 0.00052
C 14.69456 7.10297 -0.03682
C 15.93496 6.37364 0.01965
C 15.94584 4.98026 0.02058
C 14.75697 2.90465 -0.0108
C 18.47305 9.13448 0.03698
C 9.84967 19.91341 -0.0008
C 11.06413 22.0216 -0.00892
C 3.68221 2.16002 0.00081
C 3.61374 0.8122 0.00245
C 2.46576 0.04332 0.02728
C 4.909 32.65633 -0.00039
C 6.11465 31.95844 0.0064
C 6.09818 30.55801 0.00211
C 4.95723 29.75871 -0.00449
C 4.96918 28.41165 -0.01979
C 6.15851 27.65109 0.02784
C 6.23314 26.23351 -0.01977
C 4.93374 25.54993 -0.00561
C 4.84189 24.13718 0.00208
C 6.12321 23.55194 0.01707
C 6.15751 22.03422 0.02769
C 4.96768 21.29669 -0.03291
C 4.94345 19.8793 -0.04999
C 6.20844 19.12852 0.04505
C 6.11313 17.70201 0.03284
C 4.93251 16.96077 -0.04307
C 4.80634 15.5534 0.03189
C 6.09022 15.01401 0.00031
C 6.0795 13.56368 -0.003
C 4.91239 12.77849 0.01402
C 2.53087 2.89807 -0.02805
C 4.9271 11.28178 0.02379
C 2.49439 4.28604 -0.01386
C 3.6735 6.44281 0.00558
C 3.69734 30.55615 -0.03672
C 2.43291 29.79615 0.01913
C 2.419 28.33953 0.00267
C 3.67802 27.65985 0.00787
C 3.74932 26.28784 0.02426
C 2.46495 25.5251 0.01218
C 2.44909 24.18227 -0.01471
C 3.67942 23.48426 -0.02827
C 3.67357 22.01629 0.01078
C 2.52366 21.28847 -0.00112
C 2.54558 19.85827 0.03345
C 3.74074 19.17649 0.00748
C 3.64809 17.60303 0.00662
C 2.41432 16.98605 -0.0154
C 2.39139 15.60469 -0.01299
C 3.57612 14.82387 -0.00407
C 3.67715 13.46704 0.01138
C 2.4392 12.80003 0.03278
C 2.45512 11.39674 -0.00177
C 3.71594 10.58418 0.04421
C 3.66064 9.26287 0.00088
C 2.41742 8.55946 0.00828
C 2.49281 7.11776 -0.02375
C 3.69922 4.97627 -0.0059
C 9.84552 21.32497 -0.01362
C 6.19459 10.69275 0.00907
C 4.88963 8.52278 -0.01509
C 7.3227 12.85757 -0.00077
C 7.44327 11.38308 0.03368
C 8.63095 10.73362 -0.02929
C 8.5992 9.28159 -0.00966
C 7.39677 8.61092 -0.03337
C 7.32865 7.21408 0.01227
C 8.58501 6.45359 0.00873
C 8.62007 5.01228 -0.00049
C 7.33794 4.26272 0.00848
C 7.37254 2.88034 -0.01303
C 8.61792 2.09692 -0.01378
C 8.64572 0.70652 0.02635
C 7.37292 0.03397 0.0127
C 9.82639 32.73145 0.01396
C 11.08052 31.9674 0.01849
C 10.9874 30.53063 -0.01142
C 9.79486 29.85312 -0.00562
C 9.85473 28.37449 -0.00494
C 11.10094 27.66586 0.00054
C 11.02157 26.32377 0.03007
C 9.78159 25.61778 -0.00095
C 9.90014 24.19708 0.01572
C 11.08293 23.40349 -0.04848
C 8.57497 13.53291 0.01305
C 6.08184 9.24685 0.00643
C 8.61617 14.93679 0.0276
C 7.345 17.09083 -0.01343
C 4.84297 7.11804 0.03267
C 6.08851 6.39901 0.02374
C 6.10128 4.9342 0.00402
C 4.91434 4.31953 0.0073
C 4.87135 2.8582 0.0174
C 6.16365 2.17963 0.03828
C 6.11267 0.69988 0.01226
C 4.89948 34.07858 -0.00279
C 7.35607 32.6946 0.01996
C 8.64696 31.97734 -0.03996
C 8.61442 30.58685 0.01465
C 7.36521 29.8191 -0.00074
C 7.35988 28.40916 -0.00518
C 8.57929 27.69478 0.0086
C 8.54594 26.34526 -0.00643
C 7.4315 25.54345 0.017
C 7.41178 24.11062 -0.03113
C 8.67731 23.40929 -0.02566
C 8.59147 22.02752 -0.00094
C 7.37389 21.34305 0.02322
C 7.39053 19.88999 -0.00725
C 8.61719 19.16812 -0.05697
C 8.59319 17.74316 0.01087
C 7.34341 15.68058 0.00988
C 3.71473 31.9956 -0.04306
C 17.22992 8.41119 -0.00109
C 18.49954 6.34965 0.03338
C 29.53309 19.9288 -0.01303
C 30.74475 19.22115 -0.01461
C 30.69033 17.69857 -0.02155
C 29.47927 17.0747 -0.00944
C 30.74572 9.15223 -0.03735
C 29.49964 8.50612 -0.00971
C 29.44751 7.13993 0.01518
C 30.69986 6.37664 0.01908
C 30.69092 4.9991 0.07705
C 29.51093 4.26232 0.0103
C 29.52254 2.75076 0.02108
C 30.78794 2.13373 0.00716
C 30.75461 0.74454 0.00307
C 29.57735 0.00213 0.00346
C 31.9696 32.57775 0.01713
C 33.22344 31.93695 -0.01694
C 33.23349 30.50308 0.01428
C 31.95556 29.7932 -0.02142
C 31.97938 28.38123 0.0544
C 33.223 27.70097 0.00026
C 33.20502 26.30066 0.00682
C 31.99285 25.64275 -0.01779
C 31.94505 24.15019 0.03794
C 29.56581 21.37417 -0.0405
C 33.14404 23.46736 0.01927
C 30.79353 22.03139 0.01705
C 29.50831 24.12318 -0.00669
C 28.34976 22.07626 0.02611
C 27.12625 21.30117 0.02198
C 27.02912 19.83595 0.01094
C 28.29315 19.22131 0.00235
C 28.30329 17.73182 0.01495
C 27.04797 17.1813 0.01259
C 26.94519 8.42704 0.01799
C 27.01843 7.05657 0.01699
C 28.25478 6.36733 -0.00416
C 28.34135 4.96372 0.01177
C 26.97505 4.22987 0.04266
C 27.0078 2.82937 0.01324
C 28.26171 2.07248 0.0014
C 28.26254 0.68214 0.00924
C 27.03293 34.02791 0.02326
C 29.51855 32.71124 0.00261
C 30.72647 31.96674 0.03265
C 30.74691 30.52638 -0.02049
C 29.49517 29.79477 -0.01854
C 29.45177 28.36713 -0.01415
C 30.66618 27.70677 -0.03039
C 30.73742 26.31056 0.01836
C 29.56297 25.49641 0.03531
C 30.76667 23.41563 0.0101
C 28.26009 23.48013 -0.00621
C 33.2188 22.04666 0.01574
C 31.97082 19.94665 -0.01429
C 34.39132 24.16255 0.03076
C 1.17978 23.44289 0.00723
C 1.24235 22.05355 0.02712
C 0.0277 21.31707 -0.02213
C 0.0404 19.88445 0.01951
C 1.22064 19.12589 -0.01678
C 1.19118 17.74378 0.01223
C 34.38059 17.07788 0.00648
C 34.40524 15.68064 0.02114
C 1.21077 14.84661 -0.02957
C 1.23123 13.42687 0.00343
C 34.36436 12.76819 -0.02656
C 34.40258 11.3632 -0.02442
C 1.24523 10.64006 -0.00027
C 1.13366 9.18684 -0.00583
C 34.35569 8.51281 -0.02302
C 0.0112 7.08797 -0.02849
C 1.21847 6.34803 0.02931
C 1.21224 4.95642 0.00628
C 0.03655 4.19704 -0.0345
C 0.03047 2.7831 -0.00931
C 1.28201 2.14491 -0.00939
C 1.21256 0.71576 -0.00468
C 0.0026 25.50825 -0.05239
C 31.96982 21.2977 -0.02383
C 1.19831 26.24018 -0.00598
C 0.01585 28.38406 -0.01037
C 33.25113 19.1638 -0.0136
C 33.18244 17.78317 0.00594
C 31.88693 16.99184 -0.02474
C 31.90489 15.58513 0.00369
C 33.17639 14.85001 0.00455
C 33.13359 13.46649 -0.00644
C 32.02388 12.66841 -0.01839
C 31.97935 11.42256 0.00137
C 33.06542 10.63755 0.00199
C 33.13703 9.16432 0.04381
C 31.94448 8.50379 0.02806
C 31.97903 7.05262 0.01504
C 33.24715 6.33024 -0.00069
C 33.27289 4.89988 0.04926
C 32.00871 4.27032 -0.03838
C 31.97594 2.82808 0.00349
C 33.22981 2.04764 -0.00323
C 33.16469 0.66033 -0.00841
C 31.93023 34.07673 0.0001
C 0.07872 32.60416 -0.02927
C 1.33389 31.8951 -0.01404
C 1.20467 30.4882 0.01027
C 0.00311 29.80392 0.01831
C 1.22896 27.68937 -0.00439
C 17.21462 7.02087 -0.00491
C 27.07784 24.16755 0.00194
C 28.27001 26.24502 0.02316
C 20.91985 10.68311 -0.00865
C 20.96652 9.23034 0.00675
C 19.77418 8.54274 -0.00311
C 19.72578 7.12263 0.00742
C 20.92508 6.42478 -0.01594
C 20.94318 4.86815 0.0106
C 19.64835 4.27259 -0.01154
C 19.67041 2.87644 -0.01721
C 20.87178 2.18407 -0.02422
C 20.8388 0.71494 0.01277
C 19.66622 0.02194 0.00096
C 22.08904 32.65169 -0.01527
C 23.35596 31.95648 0.01087
C 23.39022 30.55099 0.00199
C 22.11911 29.88936 0.01511
C 22.12074 28.37787 -0.00478
C 23.39172 27.74769 -0.01662
C 23.43167 26.27845 -0.01185
C 22.19976 25.49494 0.01126
C 22.08991 24.08795 0.01852
C 23.36034 23.43924 -0.00381
C 23.42017 22.01365 0.03046
C 22.27967 21.31698 0.0296
C 19.64839 11.39478 0.0058
C 22.15949 19.87542 0.03374
C 19.69797 12.77427 -0.00652
C 20.81652 14.93653 -0.00703
C 18.35203 4.97523 -0.0258
C 17.14987 4.26444 -0.0331
C 17.20573 2.82446 -0.00316
C 18.46853 2.08805 0.02188
C 18.3523 0.68947 -0.01979
C 17.19205 0.00666 0.02691
C 19.62248 32.6603 -0.01581
C 20.84461 31.93487 0.01452
C 20.85859 30.56661 0.04892
C 19.64335 29.81091 -0.00111
C 19.6686 28.38104 -0.03557
C 20.8816 27.66125 0.03754
C 20.9492 26.15725 0.01739
C 19.71751 25.53142 0.00755
C 19.64567 24.11525 -0.0054
C 20.887 23.41053 0.00667
C 21.03257 22.08626 0.00143
C 19.68857 21.33516 -0.017
C 19.6202 19.81438 0.00364
C 20.87919 19.1604 -0.00831
C 20.88188 17.79329 -0.02957
C 19.62821 17.0864 -0.04422
C 19.6423 15.61688 0.00654
C 20.93909 13.54181 -0.04076
C 27.06103 25.5725 0.04185
C 23.3481 19.17088 -0.02845
C 22.09666 16.97126 0.02239
C 24.597 21.33582 -0.00938
C 24.61059 19.91001 -0.0264
C 25.76929 19.1427 -0.01154
C 25.79194 17.70835 0.00684
C 24.59163 16.96831 -0.01052
C 24.55492 15.58945 -0.01679
C 24.57037 11.38443 0.00367
C 25.91354 9.16474 0.04306
C 24.61645 8.60583 0.00996
C 24.63039 7.15393 0.00195
C 25.76764 6.38242 -0.00802
C 25.8317 4.9322 -0.00218
C 24.59715 4.30843 -0.01654
C 24.61444 2.91767 -0.00037
C 25.81771 2.07972 -0.0032
C 25.8463 0.65623 0.00622
C 24.66161 0.01167 -0.02815
C 27.02183 32.68313 -0.00942
C 28.28482 31.97985 0.00487
C 28.29185 30.5712 0.00826
C 27.06182 29.78595 -0.00294
C 27.03375 28.31478 0.00152
C 28.21574 27.62016 0.01257
C 25.91839 22.0084 -0.00229
C 23.34374 17.71165 -0.03213
C 25.77103 23.4783 -0.01199
C 24.57471 25.54582 -0.00285
C 22.04179 15.62762 0.01153
C 23.43477 14.84003 0.02734
C 23.27138 13.35924 -0.0055
C 22.1075 12.77413 0.01515
C 22.09434 11.40389 -0.00225
C 23.40859 10.74038 0.00071
C 23.3494 9.14992 -0.01107
C 22.1712 8.52362 -0.01586
C 22.12954 7.14362 -0.01971
C 23.34535 6.43263 -0.02118
C 23.34842 5.02039 0.00733
C 22.16331 4.20805 -0.00178
C 22.14559 2.78399 0.00768
C 23.37302 2.10783 -0.0276
C 23.36699 0.70438 0.03005
C 22.13226 34.06962 -0.04078
C 24.63511 32.66441 0.02117
C 25.81569 31.96712 0.02737
C 25.8344 30.57028 -0.00498
C 24.59504 29.81703 0.00135
C 24.5488 28.46688 0.03102
C 25.77968 27.64797 0.02555
C 25.75417 26.22636 0.01423
C 24.5357 24.13546 -0.009
C 2.47725 32.66946 -0.00012
