342
Graphene
C 34.38215 34.04504 0.01295
C 9.6894 8.53798 0.01848
C 9.77223 7.05659 -0.00619
C 11.00729 6.44611 -0.02162
C 11.03586 5.08743 0.00889
C 9.85066 4.29884 -0.00481
C 9.8383 2.88233 0.00979
C 11.04609 2.10639 0.01443
C 11.03172 0.66114 0.03505
C 9.83927 0.03839 -0.02815
C 12.3189 32.64778 -0.04147
C 13.54717 31.91501 -0.05302
C 13.62526 30.52094 0.00213
C 12.4003 29.84937 -0.00066
C 12.2885 28.40703 -0.00289
C 13.66137 27.91643 0.00028
C 12.16287 25.48797 -0.02213
C 12.32661 24.19406 0.03698
C 11.00135 9.17898 0.02098
C 12.38954 21.16887 -0.00109
C 10.92285 19.1194 -0.03113
C 9.92155 21.28349 0.00422
C 8.5902 5.02951 0.00244
C 7.33625 4.36752 -0.01717
C 7.35545 2.95127 0.05265
C 8.56969 2.24673 -0.01952
C 8.59642 0.74311 -0.02813
C 7.38046 34.07362 0.00374
C 9.85823 32.59753 0.00052
C 11.13383 31.91214 -0.03682
C 11.20074 30.55917 0.01965
C 9.91641 29.91558 0.02058
C 9.8448 28.44865 -0.01957
C 11.07713 27.72677 -0.0108
C 11.13789 26.27266 -0.00368
C 9.92017 25.62632 -0.02696
C 9.98993 24.13056 -0.00114
C 11.23334 23.30892 0.00228
C 11.213 21.91326 0.00798
C 9.75052 19.91234 0.0351
C 12.26586 19.60248 -0.00491
C 13.505 19.12643 0.03338
C 13.56085 9.1363 -0.0258
C 14.71625 4.28681 -0.00703
C 14.72697 2.85774 -0.04076
C 16.02152 2.13319 -0.00652
C 16.01884 0.73609 0.0058
C 14.81557 0.05698 -0.00865
C 17.24487 32.55466 0.00675
C 18.5038 31.90414 -0.00311
C 16.9395 15.76804 0.00742
C 18.2821 14.99152 -0.01594
C 18.33677 13.51143 0.0106
C 17.12142 12.78993 -0.01154
C 17.20046 11.35731 -0.01721
C 18.39411 10.67671 -0.02422
C 18.40191 9.20786 0.01277
C 17.24319 8.56205 0.00096
C 17.19122 7.06088 -0.01527
C 18.45163 6.36655 0.01087
C 15.93962 4.99592 0.00654
C 15.96229 6.34631 -0.04422
C 14.68259 7.05043 -0.02957
C 14.67715 8.50685 -0.00831
C 12.20474 8.70618 -0.0331
C 12.24581 7.11196 -0.00316
C 13.45327 6.38918 0.02188
C 13.47977 4.96318 -0.01979
C 12.27827 4.24895 0.02691
C 12.22548 2.81804 -0.01581
C 13.52101 2.21608 0.01452
C 13.46164 0.8346 0.04892
C 8.51406 6.40339 0.02299
C 12.256 34.0678 -0.00111
C 15.99401 31.94739 0.03754
C 15.92129 30.61475 0.01739
C 14.87909 29.89014 0.00755
C 16.20187 17.25568 -0.0054
C 16.06993 14.80408 0.00667
C 15.94855 13.49909 0.00143
C 15.99225 10.59044 -0.017
C 15.99015 9.21149 0.00364
C 14.81441 32.76431 -0.03557
C 7.35413 7.12861 0.03542
C 7.28316 8.55207 0.01416
C 8.55588 9.23912 0.01945
C 2.44133 7.09997 0.02888
C 3.6734 6.41625 -0.00482
C 3.69959 4.95609 -0.01384
C 2.47323 4.22019 0.03693
C 2.4979 2.74065 0.01745
C 3.71907 2.12875 0.00488
C 3.76736 0.71054 -0.01004
C 2.44375 34.0526 -0.02896
C 4.84184 32.722 -0.00131
C 6.1281 31.91102 -0.01118
C 6.10102 30.60314 -0.014
C 4.92441 29.85806 0.02147
C 4.88713 28.43611 0.00373
C 6.10735 27.68504 -0.00191
C 6.17885 26.31987 0.00438
C 4.91631 25.58138 0.01291
C 4.93428 24.15288 0.00093
C 2.41369 8.53356 0.00685
C 3.61504 9.26884 0.00895
C 3.64731 10.63926 0.00393
C 2.39313 11.36012 0.0288
C 3.67337 30.61693 0.00848
C 2.43057 29.88731 -0.01303
C 2.41671 28.49778 -0.01378
C 3.68553 27.71837 0.02635
C 3.62951 26.33438 0.0127
C 2.41824 25.59792 0.01396
C 2.44176 24.14404 0.01849
C 3.71352 23.44647 -0.01142
C 6.15886 23.43732 0.00057
C 3.74434 22.05793 -0.00562
C 2.49449 19.84112 0.00054
C 3.59618 19.12719 0.03007
C 3.65485 17.71093 -0.00095
C 2.48285 17.07395 0.01572
C 2.45501 15.57931 -0.04848
C 3.62403 14.94722 -0.00892
C 3.64338 13.55283 -0.01362
C 2.45638 12.72967 -0.0008
C 2.54564 21.30312 -0.00494
C 18.46827 4.97297 0.00199
C 6.17478 21.96321 -0.01634
C 4.92511 19.89671 0.02339
C 7.41898 29.88986 -0.00891
C 7.36428 28.50101 0.02819
C 8.60818 27.77641 0.00165
C 8.63738 26.26139 -0.02971
C 7.44223 25.59741 0.02894
C 7.41711 24.10677 -0.01789
C 8.69837 23.41346 0.00444
C 8.67833 22.00061 -0.00925
C 7.43662 21.22062 0.01877
C 7.28631 19.82779 0.01363
C 8.49312 19.13443 -0.02162
C 8.68647 17.71851 0.00415
C 7.51665 16.96963 -0.0014
C 7.26785 15.57868 0.02162
C 7.40039 12.84542 0.0076
C 7.55105 11.4776 0.01241
C 8.59914 10.62482 -0.01454
C 8.63441 30.58759 -0.01046
C 8.63137 31.91774 -0.02689
C 7.40729 32.71731 -0.01536
C 4.98468 0.06306 0.03101
C 6.05762 19.07336 0.01641
C 6.14087 17.7198 -0.00719
C 4.85842 16.96826 0.01364
C 4.87285 15.57292 -0.01062
C 6.11393 14.87583 -0.00033
C 6.14053 13.57534 0.03589
C 4.93765 12.83761 -0.02759
C 4.88265 11.4302 0.0402
C 4.94917 21.26652 -0.00334
C 6.15196 10.78863 0.00572
C 4.8514 8.5987 0.00406
C 4.88636 7.1492 0.00943
C 6.13413 6.48761 0.02841
C 6.1145 5.04196 -0.01111
C 4.87647 4.30894 -0.01275
C 4.88713 2.82422 0.00985
C 6.12687 2.18708 -0.02245
C 6.15543 0.73628 -0.00428
C 6.11818 9.26148 0.03592
C 17.20031 4.26127 0.01511
C 17.18142 2.88585 -0.00478
C 18.45698 2.16746 -0.01662
C 31.92321 29.796 -0.02142
C 31.98159 28.41775 0.0544
C 33.22934 27.72292 0.00026
C 33.14558 26.25858 0.00682
C 31.86729 25.60835 -0.01779
C 31.85361 24.19456 0.03794
C 33.16124 23.47016 0.01927
C 33.1735 22.00381 0.01574
C 31.99081 21.27382 -0.02383
C 31.95585 19.88695 -0.01429
C 33.27076 19.165 -0.0136
C 33.23986 17.78465 0.00594
C 31.92803 17.04164 -0.02474
C 31.94752 15.70574 0.00369
C 33.19141 14.89336 0.00455
C 33.16368 13.4974 -0.00644
C 31.91733 12.7761 -0.01839
C 33.1416 30.57606 0.01428
C 33.17813 32.0187 -0.01694
C 31.91475 32.68225 0.01713
C 29.55251 33.99352 0.00346
C 30.72756 19.18379 0.03531
C 30.7352 17.82754 -0.00669
C 29.44757 17.07962 0.0101
C 29.53782 15.72148 0.01705
C 30.75248 14.95062 -0.0405
C 30.76752 13.5057 -0.01303
C 29.50625 12.8488 -0.01461
C 29.50938 11.36984 -0.02155
C 31.95798 11.39783 0.00137
C 30.73214 10.66138 -0.00944
C 29.48857 8.53469 -0.00971
C 29.54545 7.0863 0.01518
C 30.70456 6.42943 0.01908
C 30.79242 5.03773 0.07705
C 29.52447 4.24439 0.0103
C 29.51026 2.80749 0.02108
C 30.75741 2.14925 0.00716
C 30.71038 0.71904 0.00307
C 30.72433 9.2503 -0.03735
C 29.43028 19.95878 0.01836
C 33.23163 10.70129 0.00199
C 31.9592 8.59146 0.02806
C 1.1926 17.77075 0.01223
C 34.37 17.0731 0.00648
C 34.40616 15.60347 0.02114
C 1.23536 14.88167 -0.02957
C 1.16805 13.5128 0.00343
C 34.39805 12.77125 -0.02656
C 34.40844 11.39774 -0.02442
C 1.23089 10.62245 -0.00027
C 1.19343 9.15826 -0.00583
C 34.40091 8.54844 -0.02302
C 3e-05 7.09567 -0.02849
C 1.2244 6.39114 0.02931
C 1.25024 4.99054 0.00628
C 34.43116 4.30002 -0.0345
C 0.01526 2.80891 -0.00931
C 1.16056 2.05072 -0.00939
C 1.23266 0.68334 -0.00468
C 1.22249 19.10362 -0.01678
C 34.41769 19.906 0.01951
C 0.03676 21.32098 -0.02213
C 1.2969 21.96289 0.02712
C 31.96623 7.18337 0.01504
C 33.19478 6.45495 -0.00069
C 33.23231 4.99947 0.04926
C 32.05817 4.32979 -0.03838
C 31.95441 2.87976 0.00349
C 33.23507 2.15769 -0.00323
C 33.18217 0.75847 -0.00841
C 31.94143 0.04572 0.0001
C 33.18967 9.30428 0.04381
C 34.34199 32.66668 -0.02927
C 1.2069 30.56675 0.01027
C 34.37022 29.8519 0.01831
C 0.01186 28.44493 -0.01037
C 1.19163 27.68927 -0.00439
C 1.16311 26.29278 -0.00598
C 34.35297 25.50276 -0.05239
C 34.39978 24.06097 0.03076
C 1.17948 23.35996 0.00723
C 1.20031 31.94894 -0.01404
C 3.69971 32.03259 -0.00049
C 29.60241 21.29803 -0.03039
C 30.75584 23.32222 -0.01854
C 23.44761 15.05179 0.00768
C 23.42116 13.41854 -0.0276
C 22.14146 12.78193 0.03005
C 22.09674 11.39258 -0.04078
C 23.26081 10.59539 0.02117
C 23.29723 9.1904 0.02737
C 22.09807 8.43527 -0.00498
C 22.17929 7.05948 0.00135
C 23.3831 6.43819 0.03102
C 23.39585 5.00413 0.02555
C 22.15 4.27987 0.01423
C 22.06804 2.88325 -0.00285
C 23.32489 2.21405 -0.009
C 23.30858 0.75944 -0.01199
C 22.08414 34.00235 -0.00229
C 24.4489 32.64289 -0.00938
C 24.66923 15.60719 -0.0264
C 22.17526 15.53532 -0.00178
C 23.34371 32.16944 0.00733
C 22.1543 32.62217 -0.02118
C 19.60959 34.01288 -0.01971
C 18.40365 0.67009 -0.01185
C 17.20527 0.03089 0.01126
C 19.53668 32.67153 0.01852
C 19.61697 15.55562 -0.00381
C 20.86899 15.10359 0.03046
C 20.82192 13.48766 0.0296
C 19.66549 12.80914 0.03374
C 19.67247 11.31931 -0.02845
C 25.84241 14.90345 -0.01154
C 20.88737 10.67493 -0.03213
C 19.65197 8.46572 0.01153
C 19.69106 7.12644 0.02734
C 20.95033 6.41139 -0.0055
C 20.83769 4.96645 0.01515
C 19.67789 4.20239 -0.00225
C 19.64672 2.81089 0.00071
C 20.89476 2.10814 -0.01107
C 20.83872 0.66167 -0.01586
C 20.81142 9.18787 0.02239
C 30.71734 21.93165 -0.01415
C 25.85778 13.44238 0.00684
C 24.59081 11.3001 -0.01679
C 28.29166 9.23053 0.02198
C 27.01785 8.51593 0.01094
C 27.12409 7.04954 0.00235
C 28.27988 6.35233 0.01495
C 28.30179 4.90771 0.01259
C 27.12989 4.1946 0.01799
C 27.02315 2.80911 0.01699
C 28.24837 2.08879 -0.00416
C 28.31057 0.64595 0.01177
C 27.01964 0.01069 0.04266
C 29.414 32.49705 0.01324
C 30.67557 31.85003 0.0014
C 30.74166 30.45871 0.00924
C 30.87595 27.6151 0.02326
C 30.51942 26.29423 0.00261
C 29.43539 25.46459 0.03265
C 29.66137 24.09403 -0.02049
C 28.25496 10.64917 0.02611
C 27.09928 11.32585 -0.00621
C 27.06436 12.76801 0.00194
C 28.2905 13.53898 0.04185
C 25.79649 10.60082 0.00367
C 25.75137 9.15724 0.04306
C 24.56857 8.51778 0.00996
C 24.6216 7.09566 0.00195
C 25.81221 6.40538 -0.00802
C 25.81299 5.00437 -0.00218
C 24.62468 4.31692 -0.01654
C 24.58004 2.8827 -0.00037
C 24.59244 12.81479 -0.01052
C 25.75191 2.0735 -0.0032
C 24.54064 34.05966 -0.02815
C 27.05825 32.65355 -0.00942
C 28.18796 32.04202 0.00487
C 28.30944 19.17325 0.00826
C 28.10445 17.87113 -0.00294
C 27.02619 17.02399 0.00152
C 27.03693 15.63335 0.01257
C 28.3368 14.91402 0.02316
C 25.81672 0.69835 0.00622
C 2.35543 32.5799 0.00873
