414
Graphene
C 0.00627 34.06651 0.01295
C 12.34126 12.82071 0.00985
C 12.23536 11.42761 -0.02245
C 13.36435 10.59082 -0.00428
C 13.63463 9.19803 0.03101
C 13.58323 6.41454 -0.01536
C 13.52389 5.01678 -0.02689
C 12.25874 4.22143 -0.01046
C 12.25965 2.79864 -0.00891
C 13.47258 2.06881 0.02819
C 13.5517 0.6252 0.00165
C 12.29684 34.07143 -0.02971
C 14.80279 32.68709 0.02894
C 16.05892 31.89152 -0.01789
C 16.02903 30.53849 0.00444
C 14.82125 29.84391 -0.00925
C 14.83426 28.40436 0.01877
C 15.96655 27.58442 0.01363
C 15.95084 26.17592 -0.02162
C 14.73756 25.42683 0.00415
C 14.65414 24.04356 -0.0014
C 15.90943 23.39388 0.02162
C 13.55118 13.49943 -0.01275
C 13.47865 15.01863 -0.01111
C 12.23605 15.71174 0.02841
C 12.25995 17.1833 0.00943
C 9.94695 12.85015 -0.014
C 11.13562 4.97337 0.02147
C 9.85816 4.42285 0.00373
C 9.85425 2.85595 -0.00191
C 11.02967 2.1747 0.00438
C 11.16916 0.75615 0.01291
C 9.86617 0.09589 0.00093
C 12.2761 32.73302 0.00057
C 13.52418 31.9882 -0.01634
C 13.5218 30.59084 -0.00334
C 15.96704 22.00486 0.0076
C 12.3197 29.84948 0.02339
C 13.55158 27.65285 -0.00719
C 13.57154 26.20864 0.01364
C 12.23223 25.56648 -0.01062
C 12.25223 24.16465 -0.00033
C 13.479 23.36867 0.03589
C 13.58762 21.98743 -0.02759
C 12.34157 21.3 0.0402
C 12.29866 19.93347 0.00572
C 13.52162 19.21176 0.03592
C 13.50377 17.82754 0.00406
C 12.31276 28.45238 0.01641
C 14.78204 21.24076 0.01241
C 14.76711 19.86911 -0.01454
C 16.0653 19.20407 0.01945
C 17.16899 24.12028 -0.02162
C 18.43232 23.43232 0.00889
C 18.45624 22.0364 -0.00481
C 17.25914 21.36375 0.00979
C 17.29457 19.87446 0.01443
C 18.55737 19.20558 0.03505
C 18.46147 17.7579 -0.02815
C 17.19415 17.01458 -0.04147
C 17.17564 15.56285 -0.05302
C 18.34758 14.85965 0.00213
C 17.18687 25.51959 -0.00619
C 17.17718 12.84233 -0.00066
C 18.5251 10.6175 0.00028
C 18.38636 9.24633 -0.02213
C 17.14888 8.52619 0.03698
C 17.12413 7.14491 -0.00109
C 18.35815 6.44329 -0.00491
C 18.40153 5.01272 0.03338
C 17.18259 4.22723 -0.0258
C 17.24566 2.84316 -0.0331
C 18.49915 2.09712 -0.00316
C 18.48214 0.70942 0.02188
C 17.36604 11.40448 -0.00289
C 11.10813 13.5614 -0.01118
C 18.47429 26.24491 0.01848
C 17.21693 28.34632 -0.03113
C 15.99339 17.7469 0.01416
C 14.72155 17.11818 0.03542
C 14.7041 15.6752 0.02299
C 15.95928 14.92295 0.00244
C 15.9862 13.46383 -0.01717
C 14.72517 12.7867 0.05265
C 14.71352 11.39598 -0.01952
C 15.94809 10.66958 -0.02813
C 15.96191 9.26963 0.00374
C 14.79737 8.4825 0.00052
C 18.4624 27.68633 0.02098
C 14.78789 7.02231 -0.03682
C 15.94823 4.89341 0.02058
C 14.71813 4.18746 -0.01957
C 14.71229 2.73297 -0.0108
C 15.99646 2.11421 -0.00368
C 16.01613 0.74202 -0.02696
C 14.81653 0.00536 -0.00114
C 17.23809 32.65122 0.00228
C 18.48367 31.97646 0.00798
C 18.49074 30.53424 0.00422
C 17.235 29.79753 0.0351
C 15.95365 6.26562 0.01965
C 10.97246 14.94848 -0.00131
C 9.7499 15.59925 -0.02896
C 9.82245 17.07651 -0.01004
C 4.9075 32.65992 0.04505
C 6.16228 31.97772 0.03284
C 6.09921 30.57909 -0.04307
C 4.88962 29.85931 0.03189
C 4.89464 28.42863 0.00031
C 6.13343 27.77458 -0.003
C 6.13737 26.35986 0.01402
C 4.93808 25.56475 0.02379
C 4.89353 24.10467 0.00907
C 6.13229 23.37317 0.00643
C 2.40209 34.03713 -0.04999
C 6.16733 21.95414 -0.01509
C 4.96484 19.8214 0.02374
C 6.20408 19.16795 0.00402
C 6.18552 17.72615 0.0073
C 4.92398 16.99697 0.0174
C 4.76742 15.66593 0.03828
C 6.00581 15.05846 0.01226
C 6.10731 13.53416 -0.00279
C 5.05098 12.7185 0.01996
C 4.73579 11.49275 -0.03996
C 6.45411 10.50722 0.01465
C 4.91272 21.27384 0.03267
C 6.20383 9.22627 -0.00074
C 3.59924 0.73906 -0.03291
C 2.46471 2.79945 0.01707
C 3.59393 30.55734 0.03278
C 2.38705 29.89182 -0.00177
C 2.46632 28.40287 0.04421
C 3.71349 27.7086 0.00088
C 3.72876 26.25185 0.00828
C 2.5234 25.5835 -0.02375
C 2.43191 24.21709 0.00558
C 3.6686 23.38646 -0.0059
C 3.60573 21.9674 -0.01386
C 2.41341 21.24129 -0.02805
C 3.73594 2.12847 0.02769
C 2.44518 19.81922 0.00081
C 3.72242 17.79299 0.02728
C 2.53974 17.04543 -0.00039
C 2.3742 15.66248 0.0064
C 3.78606 10.58499 0.00211
C 3.72009 9.27122 -0.00449
C 2.47288 8.51473 -0.01979
C 2.41023 7.0203 0.02784
C 3.6791 6.36265 -0.01977
C 3.59884 4.96359 -0.00561
C 2.36133 4.27371 0.00208
C 3.74575 19.18307 0.00245
C 17.24007 0.00777 -0.01979
C 5.01615 8.54193 -0.00518
C 6.12296 6.4131 -0.00643
C 7.30307 11.47935 0.01849
C 8.54064 4.97651 -0.01142
C 7.39123 4.30376 -0.00562
C 7.39939 2.84587 -0.00494
C 8.61539 2.18119 0.00054
C 8.62735 0.78687 0.03007
C 7.37811 0.04758 -0.00095
C 9.83913 32.74378 0.01572
C 11.06954 32.03568 -0.04848
C 11.0794 30.60523 -0.00892
C 7.36415 12.8027 0.01396
C 9.81413 29.92206 -0.01362
C 10.98679 27.84629 0.0288
C 11.02126 26.38636 0.00393
C 9.7879 25.63022 0.00895
C 9.80762 24.17678 0.00685
C 11.01895 23.47409 0.02888
C 11.11467 22.00939 -0.00482
C 9.86817 21.35848 -0.01384
C 9.77917 19.90213 0.03693
C 11.03518 19.2614 0.01745
C 11.03379 17.80708 0.00488
C 9.74262 28.4887 -0.0008
C 4.88266 7.10527 0.0086
C 8.64894 13.39876 0.0127
C 7.35773 15.58141 -0.01378
C 6.1307 4.97201 0.017
C 4.83361 4.34848 -0.03113
C 4.9833 2.88646 -0.02566
C 6.18809 2.10288 -0.00094
C 6.12371 0.67958 0.02322
C 4.81911 0.00053 -0.00725
C 7.34523 32.69835 -0.05697
C 8.56214 31.98674 0.01087
C 8.52395 30.61748 -0.01343
C 7.32574 29.85947 0.00988
C 8.56919 14.86101 0.02635
C 7.32992 28.46775 0.0276
C 8.55399 26.34287 -0.00077
C 7.30326 25.5919 0.03368
C 7.30255 24.1741 -0.02929
C 8.57059 23.43462 -0.00966
C 8.66979 22.04622 -0.03337
C 7.43445 21.33167 0.01227
C 7.38504 19.88079 0.00873
C 8.58509 19.20183 -0.00049
C 8.58634 17.78637 0.00848
C 7.40421 16.99934 -0.01303
C 8.50722 27.76663 0.01305
C 19.71126 32.60728 0.02691
C 20.9295 31.89869 -0.01581
C 20.93421 30.49746 0.01452
C 29.48596 11.45139 -0.00944
C 30.73318 10.65464 -0.03735
C 30.75293 9.26854 -0.00971
C 29.52913 8.50286 0.01518
C 29.48062 7.07547 0.01908
C 30.72596 6.4307 0.07705
C 30.77548 5.04383 0.0103
C 29.52494 4.18129 0.02108
C 29.52974 2.79028 0.00716
C 30.72082 2.0717 0.00307
C 29.48145 12.83867 -0.02155
C 30.76526 0.71435 0.00346
C 31.955 32.62911 -0.01694
C 33.24377 31.90306 0.01428
C 33.12586 30.47822 -0.02142
C 31.85199 29.80722 0.0544
C 31.85932 28.36915 0.00026
C 33.07899 27.67203 0.00682
C 33.14104 26.3123 -0.01779
C 31.97367 25.49226 0.03794
C 32.01928 24.11606 0.01927
C 33.25945 23.4281 0.01574
C 29.56116 0.03857 0.01713
C 33.14039 21.96989 -0.02383
C 30.78219 13.50895 -0.01461
C 29.48597 15.5858 -0.0405
C 28.31267 4.91713 0.01495
C 27.05282 4.23367 0.01259
C 27.06082 2.85278 0.01799
C 28.29891 2.16994 0.01699
C 28.30133 0.76554 -0.00416
C 27.12396 0.08699 0.01177
C 29.49905 32.70821 0.04266
C 30.74137 31.95682 0.01324
C 30.68911 30.56546 0.0014
C 29.50631 29.80797 0.00924
C 30.77914 14.90963 -0.01303
C 29.48749 28.39174 0.02326
C 30.75883 26.17944 0.03265
C 29.48684 25.60612 -0.02049
C 29.50738 24.08476 -0.01854
C 30.77652 23.4125 -0.01415
C 30.61451 21.93332 -0.03039
C 29.45499 21.13866 0.01836
C 29.55722 19.91933 0.03531
C 30.71544 19.13367 -0.00669
C 30.71712 17.6998 0.0101
C 29.42071 17.04883 0.01705
C 30.75067 27.57798 0.00261
C 28.29512 6.33835 0.00235
C 31.91097 21.27413 -0.01429
C 33.18409 19.19307 0.00594
C 0.00921 24.21727 0.00723
C 1.24876 23.45489 0.02712
C 1.20311 22.00414 -0.02213
C 34.40996 21.27742 0.01951
C 34.39433 19.86449 -0.01678
C 1.20867 19.15432 0.01223
C 1.22285 17.77046 0.00648
C 34.42105 17.06566 0.02114
C 34.38925 15.62701 -0.02957
C 1.22411 14.98026 0.00343
C 0.01867 25.66917 0.03076
C 34.38859 12.82674 -0.02656
C 1.17375 10.62298 -0.00027
C 1.28164 9.30637 -0.00583
C 0.05624 8.51051 -0.02302
C 0.00707 7.09536 -0.02849
C 1.16892 6.32034 0.02931
C 1.16855 4.93424 0.00628
C 34.41553 4.27373 -0.0345
C 34.37179 2.81145 -0.00931
C 1.20176 2.1125 -0.00939
C 1.19297 0.71102 -0.00468
C 0.01691 11.37994 -0.02442
C 31.95224 19.8661 -0.0136
C 1.26785 26.30665 -0.05239
C 34.33408 28.34214 -0.00439
C 33.16786 17.78209 -0.02474
C 31.92746 17.0382 0.00369
C 32.0146 15.63684 0.00455
C 33.17829 14.9026 -0.00644
C 33.235 13.47743 -0.01839
C 31.9894 12.80593 0.00137
C 31.98748 11.37731 0.00199
C 33.18253 10.56837 0.04381
C 33.19447 9.17958 0.02806
C 31.98587 8.47944 0.01504
C 1.19279 27.71918 -0.00598
C 31.9783 7.08719 -0.00069
C 33.2058 4.98088 -0.03838
C 31.9704 4.27877 0.00349
C 31.90673 2.88562 -0.00323
C 33.11542 2.12912 -0.00841
C 33.16935 0.65319 0.0001
C 31.96821 34.02662 -0.02927
C 0.06996 32.63361 -0.01404
C 1.27711 31.93977 0.01027
C 1.10658 30.50195 0.01831
C 34.29611 29.67564 -0.01037
C 33.22444 6.38269 0.04926
C 3.69246 31.9544 0.01138
C 27.0342 7.08968 0.01094
C 28.28605 9.19372 0.02611
C 19.71569 34.0698 -0.01721
C 22.1779 32.59336 -0.02422
C 23.37561 31.90824 0.01277
C 23.36827 30.50042 0.00096
C 22.15165 29.6952 -0.01527
C 22.18627 28.32898 0.01087
C 23.41985 27.596 0.00199
C 23.44723 26.16532 0.01511
C 22.12991 25.54334 -0.00478
C 22.21137 24.07738 -0.01662
C 20.91565 0.70149 -0.01154
C 23.41512 23.50681 -0.01185
C 22.14897 19.99059 0.01852
C 23.4654 17.75079 -0.00381
C 22.2003 17.10543 0.03046
C 22.14467 15.64134 0.0296
C 23.38444 14.94957 0.03374
C 23.38916 13.5051 -0.02845
C 22.10897 12.83361 -0.03213
C 22.03405 11.27027 0.02239
C 23.25833 10.66301 0.01153
C 23.38476 9.30696 0.02734
C 22.06332 21.19001 0.01126
C 22.15226 8.54513 -0.0055
C 20.87402 2.17538 0.0106
C 19.60179 4.2776 0.00742
C 19.68492 29.8925 0.04892
C 19.64449 28.43651 -0.00111
C 20.93974 27.74821 -0.03557
C 20.92699 26.25582 0.03754
C 19.72464 25.56544 0.01739
C 19.67902 24.13703 0.00755
C 20.87793 23.37386 -0.0054
C 20.9562 21.97619 0.00667
C 19.67921 21.34283 0.00143
C 19.77447 19.9129 -0.017
C 19.62639 2.8969 -0.01594
C 20.99227 19.09928 0.00364
C 19.65713 17.0266 -0.02957
C 19.5218 15.55453 -0.04422
C 20.79253 14.8413 0.00654
C 20.89584 13.53734 -0.00703
C 20.81137 10.57571 -0.04076
C 20.81534 9.20656 -0.00652
C 19.60273 8.47567 0.0058
C 19.59177 7.09946 -0.00865
C 20.83247 6.36427 0.00675
C 20.87482 4.94537 -0.00311
C 20.88857 17.7208 -0.00831
C 27.07587 8.50593 0.02198
C 22.07546 7.11538 0.01515
C 23.38142 4.95179 0.00071
C 24.59813 2.80021 -0.01679
C 25.88855 2.05989 0.00367
C 25.78885 0.68152 0.04306
C 24.58786 34.06809 0.00996
C 27.13896 32.73256 0.00195
C 28.3258 31.95718 -0.00802
C 28.25299 30.46338 -0.00218
C 27.00284 29.81581 -0.01654
C 26.97736 28.39892 -0.00037
C 28.23126 27.72746 -0.0032
C 24.60871 4.26501 -0.01052
C 28.30206 26.3138 0.00622
C 27.22886 24.12668 -0.00942
C 28.28285 23.5167 0.00487
C 28.15417 17.63123 0.00826
C 27.03632 17.08402 -0.00294
C 27.00794 15.67268 0.00152
C 28.25617 14.88309 0.01257
C 28.24486 13.48902 0.02316
C 26.99598 12.74565 0.04185
C 27.02478 11.32272 0.00194
C 28.29082 10.62187 -0.00621
C 27.10953 25.51318 -0.02815
C 23.34574 6.43938 -0.00225
C 25.84953 4.92105 0.00684
C 24.60418 7.15287 -0.0264
C 22.11666 4.29013 -0.01107
C 22.12151 2.85449 -0.01586
C 23.36725 2.08351 -0.01971
C 23.356 0.69489 -0.02118
C 22.1434 34.03 0.00733
C 24.59963 32.68415 -0.00178
C 25.95147 32.01672 0.00768
C 25.80425 30.56343 -0.0276
C 24.59556 29.82891 0.03005
C 24.64927 28.41157 -0.04078
C 25.79573 6.36621 -0.01154
C 25.80479 27.60616 0.02117
C 24.53765 25.45375 -0.00498
C 24.49354 17.0634 0.00135
C 24.60221 15.69838 0.03102
C 25.81099 14.94626 0.02555
C 25.79638 13.45861 0.01423
C 24.55471 12.74562 -0.00285
C 24.56926 11.3254 -0.009
C 25.77075 10.67465 -0.01199
C 25.87267 9.22494 -0.00229
C 24.54094 8.57164 -0.00938
C 25.83448 26.1091 0.02737
C 2.4922 32.65159 -0.00407
