386
Graphene
C 34.39875 0.01293 0.01295
C 14.74042 29.8526 -0.0014
C 14.73766 28.3793 0.02162
C 15.98963 27.69994 0.0076
C 16.15039 26.33997 0.01241
C 14.87845 25.78162 -0.01454
C 15.94479 13.41008 0.01945
C 14.6838 12.97146 0.01416
C 14.70958 11.48064 0.03542
C 15.96442 10.78513 0.02299
C 15.93634 30.5823 0.00415
C 15.92524 9.18428 0.00244
C 14.83971 7.05131 0.05265
C 16.05834 6.36707 -0.01952
C 16.02118 4.96954 -0.02813
C 14.82289 4.19118 0.00374
C 14.72647 2.83961 0.00052
C 15.9276 2.11503 -0.03682
C 15.99415 0.68318 0.01965
C 14.70877 34.0794 0.02058
C 17.1819 32.63697 -0.01957
C 14.75304 8.4286 -0.01717
C 18.36914 31.95523 -0.0108
C 15.97148 31.91946 -0.02162
C 12.33299 34.07611 0.01877
C 12.20575 32.69249 0.00406
C 13.42297 31.97216 0.00943
C 13.50761 30.62012 0.02841
C 12.28597 29.86046 -0.01111
C 12.29521 28.47372 -0.01275
C 13.48407 27.71788 0.00985
C 13.68849 26.38722 -0.02245
C 13.44897 13.53605 -0.00428
C 12.36181 12.70885 0.03101
C 14.70867 32.67583 0.01363
C 12.2262 11.38356 -0.01536
C 13.54394 9.23418 -0.01046
C 12.30163 8.52964 -0.00891
C 12.30318 7.11642 0.02819
C 13.57841 6.40366 0.00165
C 13.5408 4.91993 -0.02971
C 12.2601 4.23962 0.02894
C 12.36215 2.84396 -0.01789
C 13.5336 2.1746 0.00444
C 13.46461 0.75508 -0.00925
C 13.51486 10.65808 -0.02689
C 9.79842 34.05547 0.03592
C 18.52172 30.51517 -0.00368
C 17.18533 28.47152 -0.00114
C 19.67685 28.46238 -0.00491
C 20.87183 27.65239 0.03338
C 20.93143 26.2037 -0.0258
C 19.67521 25.51233 -0.0331
C 19.60796 24.09759 -0.00316
C 20.86073 23.421 0.02188
C 20.96309 22.02347 -0.01979
C 19.6869 21.2038 0.02691
C 19.73276 19.82379 -0.01581
C 19.6936 29.80764 -0.00109
C 20.98053 19.12518 0.01452
C 19.66022 16.95677 -0.00111
C 19.62731 15.48988 -0.03557
C 20.86606 14.84976 0.03754
C 20.93399 13.45564 0.01739
C 19.64937 12.78639 0.00755
C 19.6188 11.33678 -0.0054
C 20.79643 10.60571 0.00667
C 20.71965 9.14824 0.00143
C 19.47921 8.46109 -0.017
C 20.90654 17.66826 0.04892
C 17.26169 29.85395 -0.02696
C 20.92226 30.48066 0.03698
C 19.62967 32.61448 0.00028
C 18.41113 27.76682 0.00228
C 18.49814 26.29085 0.00798
C 17.28504 25.60031 0.00422
C 17.32484 24.18725 0.0351
C 18.25037 23.2675 -0.03113
C 18.55789 21.95255 0.02098
C 18.56463 19.06706 0.01848
C 18.47857 13.61641 -0.00619
C 17.26881 13.0018 -0.02162
C 20.90469 31.84334 -0.02213
C 17.17905 11.4282 0.00889
C 18.29667 9.28355 0.00979
C 17.20492 8.5141 0.01443
C 17.31595 7.04205 0.03505
C 18.55775 6.45813 -0.02815
C 17.22195 4.1024 -0.04147
C 17.11742 2.74201 -0.05302
C 18.33861 2.00752 0.00213
C 18.38187 0.61752 -0.00066
C 17.23028 34.0207 -0.00289
C 18.29923 10.6924 -0.00481
C 11.02138 0.6766 0.00572
C 11.06031 2.17891 0.0402
C 9.79038 2.91385 -0.02759
C 3.65189 5.00653 0.017
C 2.43131 4.2634 -0.03113
C 2.45263 2.85378 -0.02566
C 3.7009 2.22652 -0.00094
C 3.61399 0.73491 0.02322
C 2.37993 0.04027 -0.00725
C 4.8694 32.74983 -0.05697
C 6.03343 31.97555 0.01087
C 6.05652 30.56074 -0.01343
C 3.64585 6.41723 -0.00643
C 4.86376 29.82736 0.00988
C 6.1488 27.72861 0.01305
C 6.05904 26.29782 -0.00077
C 4.93614 25.57805 0.03368
C 4.79645 24.23595 -0.02929
C 4.81126 16.95649 -0.00966
C 4.99257 15.60669 -0.03337
C 6.15813 14.84124 0.01227
C 6.15058 13.52999 0.00873
C 4.894 12.79512 -0.00049
C 4.91886 28.44728 0.0276
C 4.85974 11.4262 0.00848
C 2.41515 7.08818 0.0086
C 3.6366 9.2664 -0.00074
C 3.63782 30.52596 -0.04307
C 2.40743 29.80346 0.03189
C 2.43896 28.43615 0.00031
C 3.66789 27.72722 -0.003
C 3.59669 26.27389 0.01402
C 2.41377 25.53068 0.02379
C 2.36081 24.10224 0.00907
C 3.83975 23.43516 0.00643
C 3.52399 22.06229 -0.01509
C 2.39373 8.45544 -0.00518
C 2.37323 21.25442 0.03267
C 3.73272 19.23693 0.00402
C 3.85748 17.93509 0.0073
C 2.51716 17.12459 0.0174
C 2.44834 15.65941 0.03828
C 3.70717 14.83432 0.01226
C 3.67291 13.48909 -0.00279
C 2.50709 12.76681 0.01996
C 2.46362 11.35071 -0.03996
C 3.67156 10.69693 0.01465
C 2.49938 19.88263 0.02374
C 6.16668 10.71667 -0.01303
C 6.06359 9.30992 -0.01378
C 4.87148 8.55247 0.02635
C 7.39479 4.32266 -0.02896
C 7.37568 2.86432 -0.00131
C 8.63985 2.07389 -0.01118
C 8.63111 0.7387 -0.014
C 7.30312 0.05871 0.02147
C 9.81859 32.63481 0.00373
C 11.02973 32.01281 -0.00191
C 11.06842 30.55364 0.00438
C 9.78249 29.81616 0.01291
C 8.63194 5.05542 -0.01004
C 9.87182 28.50508 0.00093
C 9.87595 12.78283 -0.01634
C 9.92135 11.38869 -0.00334
C 11.08883 10.67608 0.02339
C 11.0705 9.27686 0.01641
C 9.84761 8.60669 -0.00719
C 9.86378 7.17289 0.01364
C 11.13955 6.43433 -0.01062
C 11.10055 4.98396 -0.00033
C 9.8303 4.35172 0.03589
C 11.04355 27.81971 0.00057
C 8.64836 6.49305 0.00488
C 7.38812 7.23196 0.01745
C 7.40647 8.64159 0.03693
C 4.89932 7.1556 0.0127
C 6.17229 6.46786 0.01396
C 6.19664 5.01799 0.01849
C 4.91595 4.23369 -0.01142
C 4.94075 2.86547 -0.00562
C 6.17269 2.1665 -0.00494
C 6.11159 0.75956 0.00054
C 4.8684 0.00157 0.03007
C 7.27143 32.66064 -0.00095
C 8.53924 31.96813 0.01572
C 8.5896 30.52634 -0.04848
C 7.33132 29.90164 -0.00892
C 7.34317 28.46824 -0.01362
C 8.69866 27.78526 -0.0008
C 8.46764 26.35747 0.0288
C 7.38467 25.8297 0.00393
C 8.68807 13.32583 0.00895
C 7.3472 12.86649 0.00685
C 7.44939 11.43248 0.02888
C 8.66703 10.80545 -0.00482
C 8.61071 9.35714 -0.01384
C 19.5417 2.77985 0.00364
C 20.84494 2.28265 -0.00831
C 20.86092 0.80317 -0.02957
C 19.62219 34.04126 -0.04422
C 30.75804 4.92456 0.07705
C 29.4096 4.21533 0.0103
C 29.46094 2.87392 0.02108
C 30.7071 2.17841 0.00716
C 30.73506 0.75748 0.00307
C 29.48334 0.04154 0.00346
C 31.9428 32.72721 0.01713
C 33.20398 32.04068 -0.01694
C 33.15583 30.58908 0.01428
C 30.69536 6.39663 0.01908
C 31.93832 29.8005 -0.02142
C 33.15692 27.71643 0.00026
C 33.1797 26.30506 0.00682
C 31.95972 25.57132 -0.01779
C 31.88279 24.14386 0.03794
C 33.14722 23.4092 0.01927
C 33.14498 22.01396 0.01574
C 31.97546 21.32251 -0.02383
C 32.01945 19.88697 -0.01429
C 33.24322 19.15084 -0.0136
C 31.92927 28.38987 0.0544
C 33.2341 17.78521 0.00594
C 29.39662 7.05902 0.01518
C 30.64432 9.26365 -0.03735
C 30.67346 30.59738 0.01324
C 29.4881 29.82619 0.0014
C 29.53556 28.34084 0.00924
C 30.73973 27.69208 0.02326
C 30.77343 26.30193 0.00261
C 29.52791 25.61814 0.03265
C 29.39682 24.17094 -0.02049
C 30.66894 23.45361 -0.01854
C 30.68134 22.05727 -0.01415
C 29.42531 8.48351 -0.00971
C 29.47715 21.40326 -0.03039
C 30.7552 19.19771 0.03531
C 30.74768 17.77214 -0.00669
C 29.54601 17.05694 0.0101
C 29.57431 15.59939 0.01705
C 30.76739 14.87715 -0.0405
C 30.8305 13.4867 -0.01303
C 29.55814 12.77851 -0.01461
C 29.45807 11.33391 -0.02155
C 30.69806 10.61313 -0.00944
C 29.5472 19.90534 0.01836
C 31.98384 17.05366 -0.02474
C 31.95663 15.55237 0.00369
C 33.23039 14.87381 0.00455
C 34.38362 21.29321 -0.02213
C 0.01238 19.83077 0.01951
C 1.23589 19.15686 -0.01678
C 1.25185 17.75512 0.01223
C 0.08139 17.06264 0.00648
C 0.04267 15.62928 0.02114
C 1.24053 14.90565 -0.02957
C 1.22577 13.48354 0.00343
C 0.01387 12.79954 -0.02656
C 1.14451 22.00116 0.02712
C 0.03483 11.37453 -0.02442
C 1.13852 9.14606 -0.00583
C 34.35151 8.5561 -0.02302
C 34.39714 7.12358 -0.02849
C 1.12798 6.42125 0.02931
C 1.17926 5.03058 0.00628
C 34.3822 4.31681 -0.0345
C 34.41551 2.88815 -0.00931
C 1.20481 2.14786 -0.00939
C 1.16434 0.75902 -0.00468
C 1.22584 10.60893 -0.00027
C 1.17227 23.40222 0.00723
C 34.36915 24.06934 0.03076
C 34.39659 25.52313 -0.05239
C 33.22113 13.53742 -0.00644
C 31.99576 12.79861 -0.01839
C 31.94079 11.35208 0.00137
C 33.16147 10.64941 0.00199
C 33.11744 9.25881 0.04381
C 31.92589 8.52036 0.02806
C 31.91159 7.13496 0.01504
C 33.14629 6.38204 -0.00069
C 33.10276 4.99248 0.04926
C 31.9416 4.22405 -0.03838
C 31.95138 2.90144 0.00349
C 33.19877 2.17213 -0.00323
C 33.21471 0.73866 -0.00841
C 32.00395 0.06297 0.0001
C 34.41478 32.70625 -0.02927
C 1.17852 31.96219 -0.01404
C 1.21482 30.51345 0.01027
C 34.34769 29.79787 0.01831
C 34.39773 28.42321 -0.01037
C 1.25543 27.66974 -0.00439
C 1.23391 26.23534 -0.00598
C 30.76701 32.0197 0.04266
C 3.6119 32.03538 0.03284
C 29.47189 32.70515 0.01177
C 28.23668 0.71307 0.01699
C 22.16579 7.16354 0.01852
C 23.15381 6.19752 -0.00381
C 23.21497 4.78119 0.03046
C 22.09325 2.84745 0.0296
C 23.32947 2.09208 0.03374
C 23.38737 0.67449 -0.02845
C 22.08316 34.03488 -0.03213
C 24.53908 32.68375 0.02239
C 25.79494 31.90661 0.01153
C 22.01036 8.49007 0.01126
C 25.83339 30.45372 0.02734
C 24.5813 28.32407 0.01515
C 25.838 27.60207 -0.00225
C 25.78739 26.23145 0.00071
C 24.57112 25.53876 -0.01107
C 24.5793 24.152 -0.01586
C 25.74325 23.41764 -0.01971
C 25.83608 21.99151 -0.02118
C 24.63813 21.31559 0.00733
C 24.71126 19.86871 -0.00178
C 24.58392 29.76832 -0.0055
C 25.90659 19.16046 0.00768
C 23.27946 9.13967 -0.01185
C 22.07655 11.32772 -0.00478
C 22.1122 32.60366 0.00654
C 23.35729 31.84972 -0.00703
C 23.36802 30.47871 -0.04076
C 22.14291 29.76381 -0.00652
C 22.15548 28.3163 0.0058
C 23.34474 27.58929 -0.00865
C 23.37756 26.21735 0.00675
C 22.12862 25.54701 -0.00311
C 22.04876 24.17971 0.00742
C 23.30333 10.54628 -0.01662
C 23.30291 23.43455 -0.01594
C 22.15743 21.35373 -0.01154
C 22.19321 19.83664 -0.01721
C 23.44574 19.14428 -0.02422
C 23.37971 17.73418 0.01277
C 22.0874 17.04566 0.00096
C 22.06507 15.60551 -0.01527
C 23.37466 14.9152 0.01087
C 23.3967 13.43951 0.00199
C 22.15526 12.74365 0.01511
C 23.42609 22.00926 0.0106
C 25.89123 17.75716 -0.0276
C 24.6044 17.05371 0.03005
C 24.59841 15.61338 -0.04078
C 28.26922 22.09483 -0.0032
C 27.06491 21.31929 0.00622
C 27.17081 19.84556 -0.02815
C 28.36323 19.15803 -0.00942
C 28.3133 17.75245 0.00487
C 27.12691 17.02756 0.00826
C 27.10843 15.58877 -0.00294
C 28.3375 14.89061 0.00152
C 28.3192 13.47362 0.01257
C 28.16125 23.45935 -0.00037
C 27.11638 12.78514 0.02316
C 28.20757 10.57386 0.00194
C 28.27477 9.16566 -0.00621
C 27.03192 8.49568 0.02611
C 26.98551 7.07289 0.02198
C 28.20008 6.36399 0.01094
C 28.2083 4.99097 0.00235
C 26.99794 4.2832 0.01495
C 27.05176 2.83616 0.01259
C 28.27037 2.08039 0.01799
C 27.10159 11.3937 0.04185
C 26.9171 24.08119 -0.01654
C 27.00073 25.49672 -0.00218
C 28.21506 26.26253 -0.00802
C 25.86778 14.82101 0.02117
C 25.85493 13.45218 0.02737
C 24.56023 12.75931 -0.00498
C 24.51799 11.34345 0.00135
C 25.80204 10.71056 0.03102
C 25.68827 9.20568 0.02555
C 24.50997 8.49235 0.01423
C 24.54123 7.11035 -0.00285
C 25.71161 6.39653 -0.009
C 25.71711 4.90055 -0.01199
C 24.49626 4.18059 -0.00229
C 24.59843 2.80483 -0.00938
C 25.75364 2.07656 -0.0264
C 25.81956 0.67654 -0.01154
C 24.5743 34.04486 0.00684
C 26.9898 32.65055 -0.01052
C 28.28644 31.89235 -0.01679
C 28.1966 30.49507 0.00367
C 27.07963 29.7853 0.04306
C 27.01828 28.37197 0.00996
C 28.25141 27.68203 0.00195
C 27.04906 0.01837 -0.00416
C 2.3661 32.71024 0.04505
