342
Graphene
C 34.39548 34.05701 0.01295
C 12.16575 28.3963 0.01848
C 13.50151 27.66059 -0.00619
C 13.51979 26.28643 -0.02162
C 12.3386 25.57826 0.00889
C 12.33702 24.1038 -0.00481
C 13.50994 23.47817 0.00979
C 12.16251 21.17271 0.01443
C 11.88937 12.46647 0.03505
C 12.37058 11.34921 -0.02815
C 13.43628 10.59212 -0.04147
C 13.76969 9.3323 -0.05302
C 13.60442 4.87946 0.00213
C 12.34866 2.73239 -0.00066
C 13.5896 2.21543 -0.00289
C 13.52042 0.69001 0.00028
C 12.30966 0.05796 -0.02213
C 14.75817 32.5057 0.03698
C 12.18415 29.77696 0.02098
C 16.01966 31.97162 -0.00109
C 13.42991 30.43087 -0.03113
C 12.35062 32.61946 0.00422
C 11.06034 26.2736 0.00244
C 9.8337 25.59254 -0.01717
C 9.86228 24.23196 0.05265
C 11.0935 23.58377 -0.01952
C 11.13452 22.08245 -0.02813
C 9.79737 21.35891 0.00374
C 9.88824 19.93158 0.00052
C 11.00429 19.14049 -0.03682
C 11.09607 17.9137 0.01965
C 9.95868 17.14058 0.02058
C 9.83286 15.6742 -0.01957
C 10.91285 14.91053 -0.0108
C 11.102 13.53574 -0.00368
C 9.8635 12.85378 -0.02696
C 11.22742 2.20542 -0.00114
C 11.13313 0.75101 0.00228
C 9.9088 0.04065 0.00798
C 13.477 31.85801 0.0351
C 15.99005 30.45433 -0.00491
C 14.69576 29.79814 0.03338
C 14.74719 28.38199 -0.0258
C 18.43963 10.58704 -0.00703
C 18.36152 9.25331 -0.04076
C 17.19776 8.59666 -0.00652
C 17.15563 7.21463 0.0058
C 18.42891 6.47258 -0.00865
C 18.34863 5.02265 0.00675
C 17.20372 4.24226 -0.00311
C 17.20747 2.76922 0.00742
C 18.45264 2.1217 -0.01594
C 18.3605 0.74914 0.0106
C 17.19915 34.05013 -0.01154
C 19.66064 32.59321 -0.01721
C 20.903 31.96439 -0.02422
C 20.94196 30.46748 0.01277
C 19.75442 29.84367 0.00096
C 19.70202 28.22651 -0.01527
C 20.92068 27.707 0.01087
C 18.38346 27.64357 0.00654
C 17.248 28.33775 -0.04422
C 17.20081 29.76209 -0.02957
C 18.43168 30.46965 -0.00831
C 15.93596 27.7109 -0.0331
C 15.87583 26.29068 -0.00316
C 14.81905 25.54462 0.02188
C 14.61715 24.23903 -0.01979
C 14.7688 11.31925 0.02691
C 15.83273 10.72063 -0.01581
C 16.07692 9.38528 0.01452
C 14.74117 8.48742 0.04892
C 11.00233 27.6523 0.02299
C 14.75116 7.04186 -0.00111
C 16.03416 4.9786 0.03754
C 14.80719 4.29138 0.01739
C 14.85723 2.83443 0.00755
C 15.96423 2.06043 -0.0054
C 15.91836 0.62177 0.00667
C 14.67907 33.98226 0.00143
C 17.22572 32.64827 -0.017
C 18.46046 31.87269 0.00364
C 16.02736 6.45318 -0.03557
C 9.81755 28.34595 0.03542
C 9.76134 29.80178 0.01416
C 11.00504 30.49557 0.01945
C 2.4602 7.09821 0.02888
C 3.61476 6.39928 -0.00482
C 3.72868 5.03301 -0.01384
C 2.43102 4.1937 0.03693
C 2.47878 2.75945 0.01745
C 3.68056 2.1158 0.00488
C 3.75021 0.70854 -0.01004
C 2.44813 34.04784 -0.02896
C 4.85971 32.72505 -0.00131
C 6.16279 32.00088 -0.01118
C 6.13316 30.59637 -0.014
C 4.92172 29.86872 0.02147
C 4.8877 28.44806 0.00373
C 6.15339 27.7165 -0.00191
C 6.1254 26.35147 0.00438
C 4.91987 25.59416 0.01291
C 4.91933 24.15638 0.00093
C 2.43653 8.53529 0.00685
C 3.55573 9.26283 0.00895
C 3.79877 10.599 0.00393
C 2.40839 11.35108 0.0288
C 3.67121 30.62928 0.00848
C 2.43087 29.88095 -0.01303
C 2.42438 28.48622 -0.01378
C 3.6818 27.73483 0.02635
C 3.63327 26.33997 0.0127
C 2.42928 25.5903 0.01396
C 2.45143 24.1389 0.01849
C 3.69527 23.45352 -0.01142
C 6.16522 23.44949 0.00057
C 3.77077 22.07623 -0.00562
C 2.50531 19.83282 0.00054
C 3.62216 19.10739 0.03007
C 3.65997 17.71064 -0.00095
C 2.47788 17.07388 0.01572
C 2.45676 15.59859 -0.04848
C 3.6179 14.95954 -0.00892
C 3.65345 13.55153 -0.01362
C 2.46439 12.70742 -0.0008
C 2.54374 21.30776 -0.00494
C 19.63255 11.25855 0.00199
C 6.1843 21.99051 -0.01634
C 4.94518 19.90437 0.02339
C 8.61243 23.48183 -0.00891
C 8.63587 22.09564 0.02819
C 7.46538 21.29669 0.00165
C 7.3848 19.8437 -0.02971
C 8.6547 19.22259 0.02894
C 8.67359 17.73555 -0.01789
C 7.39209 17.08757 0.00444
C 7.37227 15.66224 -0.00925
C 8.56679 14.91511 0.01877
C 8.58768 13.26349 0.01363
C 7.30084 12.71934 -0.02162
C 7.4961 2.77046 0.00415
C 8.5491 2.08675 -0.0014
C 8.74385 0.73354 0.02162
C 7.42767 0.13018 0.0076
C 9.91435 32.69622 0.01241
C 11.03633 31.97313 -0.01454
C 7.32122 24.15981 -0.01046
C 7.33065 25.51596 -0.02689
C 8.59352 26.33714 -0.01536
C 8.58379 27.66386 0.03101
C 6.11932 19.16663 0.01641
C 6.14022 17.79869 -0.00719
C 4.87579 16.99832 0.01364
C 4.8801 15.5693 -0.01062
C 6.15477 14.9191 -0.00033
C 6.15669 13.50542 0.03589
C 4.93955 12.83478 -0.02759
C 4.88129 11.48127 0.0402
C 4.94824 21.29085 -0.00334
C 4.83208 4.27566 0.00572
C 6.18602 2.28804 0.00406
C 6.15777 0.85051 0.00943
C 4.95964 0.05371 0.02841
C 7.39095 32.77009 -0.01111
C 8.56707 32.03416 -0.01275
C 8.58648 30.57968 0.00985
C 7.41613 29.8984 -0.02245
C 7.40936 28.43733 -0.00428
C 4.92352 2.84523 0.03592
C 20.92277 10.84963 0.01511
C 20.87405 9.30644 -0.00478
C 19.75247 8.59326 -0.01662
C 32.02565 29.75725 -0.02142
C 31.97672 28.36239 0.0544
C 33.23585 27.71259 0.00026
C 33.15109 26.27424 0.00682
C 31.93402 25.58333 -0.01779
C 31.90411 24.17903 0.03794
C 33.16212 23.46267 0.01927
C 33.15235 22.01712 0.01574
C 31.95065 21.27514 -0.02383
C 31.9376 19.88594 -0.01429
C 33.25021 19.17623 -0.0136
C 33.25229 17.80206 0.00594
C 31.94111 17.04958 -0.02474
C 31.97017 15.69606 0.00369
C 33.19253 14.89302 0.00455
C 33.14419 13.49268 -0.00644
C 31.92056 12.76606 -0.01839
C 33.17316 30.5847 0.01428
C 33.15273 32.01417 -0.01694
C 31.91888 32.66259 0.01713
C 29.50424 34.07775 0.00346
C 30.71113 19.17429 0.03531
C 30.76886 17.83754 -0.00669
C 29.44184 17.07573 0.0101
C 29.47763 15.65856 0.01705
C 30.71441 14.93677 -0.0405
C 30.77625 13.50132 -0.01303
C 29.5415 12.83077 -0.01461
C 29.4839 11.37429 -0.02155
C 31.93976 11.3971 0.00137
C 30.69754 10.6736 -0.00944
C 29.51476 8.5229 -0.00971
C 29.47392 7.06695 0.01518
C 30.69425 6.41171 0.01908
C 30.77478 5.00309 0.07705
C 29.52716 4.25422 0.0103
C 29.46959 2.78217 0.02108
C 30.74408 2.17558 0.00716
C 30.69467 0.73875 0.00307
C 30.74243 9.21824 -0.03735
C 29.49867 19.89448 0.01836
C 33.22802 10.70726 0.00199
C 31.97446 8.61257 0.02806
C 1.18796 17.75679 0.01223
C 34.37481 17.07179 0.00648
C 34.42012 15.60493 0.02114
C 1.23038 14.89934 -0.02957
C 1.15911 13.49928 0.00343
C 34.38782 12.77504 -0.02656
C 34.40596 11.37881 -0.02442
C 1.24084 10.60537 -0.00027
C 1.16439 9.17964 -0.00583
C 34.40706 8.55291 -0.02302
C 34.41281 7.09488 -0.02849
C 1.22318 6.38475 0.02931
C 1.25535 4.96243 0.00628
C 34.42521 4.29668 -0.0345
C 0.00781 2.80437 -0.00931
C 1.15586 2.03381 -0.00939
C 1.23087 0.68108 -0.00468
C 1.22524 19.09293 -0.01678
C 34.43093 19.89417 0.01951
C 0.0185 21.31745 -0.02213
C 1.29937 21.95842 0.02712
C 31.97661 7.17451 0.01504
C 33.18613 6.45393 -0.00069
C 33.23254 5.00548 0.04926
C 32.05158 4.3381 -0.03838
C 31.95044 2.87621 0.00349
C 33.22529 2.16332 -0.00323
C 33.18252 0.75855 -0.00841
C 31.93757 0.01902 0.0001
C 33.21576 9.30623 0.04381
C 34.35592 32.66493 -0.02927
C 1.21307 30.54843 0.01027
C 34.38813 29.85589 0.01831
C 0.02097 28.43237 -0.01037
C 1.21056 27.71872 -0.00439
C 1.16605 26.25738 -0.00598
C 34.33907 25.49567 -0.05239
C 34.41419 24.07594 0.03076
C 1.19817 23.3725 0.00723
C 1.20641 31.93006 -0.01404
C 3.70527 32.04803 -0.00049
C 29.53956 21.18282 -0.03039
C 30.7998 23.3402 -0.01854
C 22.12862 4.29504 0.00768
C 22.14713 2.76988 -0.0276
C 23.36775 2.11273 0.03005
C 23.32815 0.75944 -0.04078
C 22.09118 34.02982 0.02117
C 24.53214 32.69682 0.02737
C 25.78353 31.96493 -0.00498
C 25.82706 30.55073 0.00135
C 24.62165 29.84222 0.03102
C 24.64335 28.33686 0.02555
C 25.93012 27.69708 0.01423
C 25.86183 13.65462 -0.00285
C 24.54292 12.95247 -0.009
C 24.54096 11.42521 -0.01199
C 25.82773 10.70691 -0.00229
C 25.84752 9.19962 -0.00938
C 24.60933 8.52685 -0.0264
C 23.30158 4.98426 -0.00178
C 23.3594 6.40538 0.00733
C 22.09264 7.04967 -0.02118
C 22.08875 8.47996 -0.01971
C 19.67657 7.09617 -0.01185
C 20.81671 6.38057 0.01126
C 20.84481 4.93042 0.01852
C 19.60254 4.29517 -0.00381
C 19.69223 2.84932 0.03046
C 20.88218 2.09469 0.0296
C 20.8952 0.69702 0.03374
C 19.58466 34.05843 -0.02845
C 24.53782 7.0789 -0.01154
C 22.13984 32.64021 -0.03213
C 23.41065 30.47168 0.01153
C 22.19626 29.8335 0.02734
C 22.16982 28.23718 -0.0055
C 23.40489 27.74872 0.01515
C 23.18203 13.3577 -0.00225
C 22.17746 11.35035 0.00071
C 23.35279 10.61568 -0.01107
C 23.35814 9.19198 -0.01586
C 23.31436 31.8748 0.02239
C 30.7187 21.94452 -0.01415
C 25.78349 6.29691 0.00684
C 24.57003 4.21718 -0.01679
C 27.05227 7.04614 0.02198
C 28.21092 6.39446 0.01094
C 28.3553 4.92353 0.00235
C 27.08137 4.22232 0.01495
C 27.02758 2.82186 0.01259
C 28.2996 2.0471 0.01799
C 28.25916 0.67345 0.01699
C 26.97356 34.03471 -0.00416
C 29.60719 32.60449 0.01177
C 30.73158 31.87207 0.04266
C 30.77634 30.45788 0.01324
C 29.55647 29.7861 0.0014
C 29.52865 28.3553 0.00924
C 30.72073 27.67815 0.02326
C 30.68262 26.22093 0.00261
C 29.44077 25.4646 0.03265
C 29.4044 24.089 -0.02049
C 27.00778 8.46811 0.02611
C 28.30096 9.24171 -0.00621
C 28.27094 10.68728 0.00194
C 27.03429 11.4349 0.04185
C 24.61116 2.81466 0.00367
C 25.80557 2.10342 0.04306
C 25.82165 0.71735 0.00996
C 24.5291 0.03395 0.00195
C 27.03407 32.6184 -0.00802
C 28.32949 31.93223 -0.00218
C 28.3723 30.52939 -0.01654
C 27.1129 29.92412 -0.00037
C 25.80191 4.95446 -0.01052
C 27.04452 28.45838 -0.0032
C 28.20013 26.27433 -0.02815
C 26.94859 25.79761 -0.00942
C 28.27246 23.3941 0.00487
C 28.32689 17.83721 0.00826
C 27.0233 15.60884 -0.00294
C 28.20153 14.97859 0.00152
C 28.30933 13.49693 0.01257
C 27.07086 12.87013 0.02316
C 28.30038 27.73683 0.00622
C 2.36806 32.5945 0.00873
