436
Graphene
C 0.01597 34.00158 0.01295
C 13.52315 22.04868 0.02339
C 12.32949 21.33006 0.01641
C 12.27268 19.90834 -0.00719
C 13.5543 19.17617 0.01364
C 13.4701 17.74747 -0.01062
C 12.24026 17.10276 -0.00033
C 12.20651 15.68114 0.03589
C 13.45914 14.93026 -0.02759
C 13.4636 13.47596 0.0402
C 12.23466 12.88041 0.00572
C 12.32208 11.45175 0.03592
C 13.52926 10.66091 0.00406
C 13.52682 9.16916 0.00943
C 12.28739 8.45512 0.02841
C 12.23973 7.06966 -0.01111
C 13.52367 6.41675 -0.01275
C 13.52595 5.0297 0.00985
C 12.26838 4.33167 -0.02245
C 12.22448 2.9303 -0.00428
C 13.53447 2.15795 0.03101
C 13.50201 0.70168 -0.01536
C 12.24716 0.04045 -0.02689
C 14.6959 32.58786 -0.01046
C 13.64399 23.45933 -0.00334
C 15.92464 32.01033 -0.00891
C 12.3597 24.13724 -0.01634
C 13.51217 26.40509 0.00093
C 9.71988 17.08926 -0.00892
C 9.89811 15.69093 -0.01362
C 10.99681 14.85789 -0.0008
C 11.02386 13.53236 0.0288
C 9.85206 12.78889 0.00393
C 9.79388 11.38414 0.00895
C 11.12002 10.65431 0.00685
C 11.08024 9.20544 0.02888
C 9.78289 8.58334 -0.00482
C 9.83035 7.172 -0.01384
C 10.96703 6.42 0.03693
C 10.97888 5.01899 0.01745
C 9.81151 4.24829 0.00488
C 9.77948 2.92045 -0.01004
C 11.00478 2.18936 -0.02896
C 10.97052 0.7484 -0.00131
C 9.7337 34.07344 -0.01118
C 12.32661 32.657 -0.014
C 13.51461 31.94165 0.02147
C 13.55853 30.54329 0.00373
C 12.29767 29.89192 -0.00191
C 12.32079 28.50546 0.00438
C 13.60064 27.77027 0.01291
C 12.28826 25.66721 0.00057
C 15.96001 30.575 0.02819
C 14.78975 29.82923 0.00165
C 14.90224 28.40146 -0.02971
C 18.38361 32.01383 -0.0108
C 18.33217 30.61145 -0.00368
C 17.21256 29.91072 -0.02696
C 17.57295 28.53818 -0.00114
C 17.94265 23.34826 0.00228
C 18.20096 21.96793 0.00798
C 17.10141 21.11395 0.00422
C 17.19524 19.81687 0.0351
C 18.54529 19.14037 -0.03113
C 18.43796 17.74237 0.02098
C 17.14624 16.99037 0.01848
C 17.16326 15.56542 -0.00619
C 18.37857 14.85059 -0.02162
C 18.45996 13.43446 0.00889
C 17.17376 12.80516 -0.00481
C 17.28804 11.37774 0.00979
C 18.48853 10.66528 0.01443
C 18.45547 9.27217 0.03505
C 17.24141 8.54755 -0.02815
C 17.20504 7.06109 -0.04147
C 18.43324 6.3575 -0.05302
C 18.38187 4.95931 0.00213
C 17.11981 4.33166 -0.00066
C 17.20717 32.74969 -0.01957
C 14.73707 0.00319 0.02058
C 15.93477 0.72024 0.01965
C 15.95473 2.18066 -0.03682
C 16.29526 27.72798 0.02894
C 15.94172 26.4098 -0.01789
C 14.84685 25.68307 0.00444
C 14.99071 24.15265 -0.00925
C 16.29341 23.29724 0.01877
C 15.87398 21.94618 0.01363
C 14.7254 21.28345 -0.02162
C 14.7539 19.87402 0.00415
C 15.94576 19.1638 -0.0014
C 15.91315 17.791 0.02162
C 14.75081 17.07528 0.0076
C 11.02418 17.76848 -0.04848
C 14.76669 15.62156 0.01241
C 15.95726 13.48731 0.01945
C 14.74452 12.79277 0.01416
C 14.80117 11.35946 0.03542
C 15.95537 10.62721 0.02299
C 15.97754 9.16742 0.00244
C 14.74483 8.52664 -0.01717
C 14.74255 7.12027 0.05265
C 15.98763 6.4193 -0.01952
C 15.9101 4.98446 -0.02813
C 14.75474 4.25003 0.00374
C 14.7444 2.82349 0.00052
C 15.99548 14.93299 -0.01454
C 17.18645 2.85366 -0.00289
C 11.08792 19.15276 0.01572
C 9.89024 21.36142 0.03007
C 3.73296 2.05925 -0.02375
C 3.72601 0.66807 0.00558
C 2.45461 34.01486 -0.0059
C 4.91401 32.68924 -0.01386
C 6.15722 31.90256 -0.02805
C 6.15943 30.53289 0.00081
C 4.93975 29.80794 0.00245
C 4.93353 28.414 0.02728
C 6.18333 27.73702 -0.00039
C 6.16336 26.33432 0.0064
C 4.91653 25.56615 0.00211
C 4.95234 24.06253 -0.00449
C 6.19372 23.39228 -0.01979
C 6.11712 22.00123 0.02784
C 4.87839 21.32654 -0.01977
C 4.82644 19.97486 -0.00561
C 6.12464 19.25071 0.00208
C 6.04902 17.79215 0.01707
C 4.78993 17.0729 0.02769
C 4.83301 15.65941 -0.03291
C 6.09831 14.97198 -0.04999
C 6.05126 13.56442 0.04505
C 4.80084 12.85029 0.03284
C 2.47391 2.83983 0.00828
C 4.84149 11.49139 -0.04307
C 2.4165 4.25434 0.00088
C 3.72035 6.45365 -0.00177
C 3.7592 30.5546 0.01984
C 2.47845 29.85913 0.00535
C 2.48674 28.42759 -0.00198
C 3.66834 27.60418 -0.00012
C 3.68705 26.22489 -0.04306
C 2.49505 25.54474 -0.03672
C 2.48448 24.0784 0.01913
C 3.71013 23.39768 0.00267
C 3.57245 21.9537 0.00787
C 2.38016 21.33089 0.02426
C 2.31878 19.85153 0.01218
C 3.61566 19.28194 -0.01471
C 3.60663 17.7986 -0.02827
C 2.38984 17.11287 0.01078
C 2.30491 15.59002 -0.00112
C 3.59736 14.91948 0.03345
C 3.52063 13.50578 0.00748
C 2.33319 12.75831 0.00662
C 2.39727 11.34943 -0.0154
C 3.65525 10.66981 -0.01299
C 3.66412 9.30435 -0.00407
C 2.42727 8.57038 0.01138
C 2.45144 7.08455 0.03278
C 3.63631 5.00632 0.04421
C 6.15837 10.80633 0.03189
C 6.18441 9.36104 0.00031
C 4.94744 8.61131 -0.003
C 7.36682 11.5292 -0.01343
C 8.56589 10.69516 0.00988
C 8.60966 9.32816 0.0276
C 7.41231 8.62709 0.01305
C 7.39446 7.16668 -0.00077
C 8.59565 6.42287 0.03368
C 8.59611 5.00674 -0.02929
C 7.3607 4.3672 -0.00966
C 7.30572 2.94479 -0.03337
C 8.53753 2.2226 0.01227
C 8.51621 0.7451 0.00873
C 7.32458 0.07479 -0.00049
C 9.78511 32.65947 0.00848
C 10.98077 32.02881 -0.01303
C 11.07952 30.63313 -0.01378
C 9.83478 29.85297 0.02635
C 9.82445 28.46519 0.0127
C 11.08787 27.75315 0.01396
C 11.08318 26.29673 0.01849
C 9.86825 25.5747 -0.01142
C 9.83997 24.11999 -0.00562
C 11.11086 23.47756 -0.00494
C 11.08664 22.04308 0.00054
C 7.35465 12.86359 0.01087
C 8.63464 13.58515 -0.05697
C 8.6181 15.06071 -0.00725
C 7.36281 15.70564 0.02322
C 4.92781 7.18838 0.01402
C 6.15173 6.51937 0.02379
C 6.11804 5.0407 0.00907
C 4.89006 4.32461 0.00643
C 4.89626 2.88628 -0.01509
C 6.10153 2.2054 0.03267
C 6.11799 0.74242 0.02374
C 4.96588 34.04364 0.00402
C 7.29659 32.7186 0.0073
C 8.53641 31.92377 0.0174
C 8.55632 30.57511 0.03828
C 9.87171 19.95319 -0.00095
C 7.35895 29.86179 0.01226
C 8.58626 27.74331 0.01996
C 8.5708 26.32133 -0.03996
C 7.39614 25.58781 0.01465
C 7.32083 24.14247 -0.00074
C 8.56029 23.41413 -0.00518
C 8.60156 22.01779 0.0086
C 7.40974 21.29976 -0.00643
C 7.40232 19.88912 0.017
C 8.57668 19.23627 -0.03113
C 8.54386 17.79242 -0.02566
C 7.31095 17.11264 -0.00094
C 7.36252 28.50249 -0.00279
C 18.36264 2.19191 0.00028
C 18.32311 0.76657 -0.02213
C 17.20179 0.01018 0.03698
C 30.65273 14.8299 -0.0405
C 30.65551 13.38814 -0.01303
C 29.43762 12.75849 -0.01461
C 29.53054 11.35239 -0.02155
C 30.71917 10.56236 -0.00944
C 30.67853 9.04003 -0.03735
C 29.42485 8.40311 -0.00971
C 29.46928 7.00005 0.01518
C 30.70207 6.18826 0.01908
C 30.72387 4.85146 0.07705
C 29.56233 4.19199 0.0103
C 29.50529 2.75641 0.02108
C 30.71812 2.09273 0.00716
C 30.75726 0.67676 0.00307
C 29.53122 0.02613 0.00346
C 32.03057 32.6447 0.01713
C 33.22747 31.86805 -0.01694
C 33.19609 30.45424 0.01428
C 31.93664 29.82779 -0.02142
C 31.9686 28.41222 0.0544
C 33.18128 27.67075 0.00026
C 33.18257 26.25572 0.00682
C 31.97841 25.58474 -0.01779
C 29.44574 15.56819 0.01705
C 31.92506 24.1506 0.03794
C 29.39409 17.01902 0.0101
C 30.76404 19.10778 0.03531
C 28.27292 9.17467 -0.00621
C 27.07649 8.41925 0.02611
C 26.98057 7.02235 0.02198
C 28.19186 6.31716 0.01094
C 28.28886 4.87417 0.00235
C 27.0308 4.23846 0.01495
C 26.98814 2.88147 0.01259
C 28.20745 2.12657 0.01799
C 28.26555 0.70665 0.01699
C 27.03229 34.05218 -0.00416
C 29.55955 32.66998 0.01177
C 30.75186 31.92766 0.04266
C 30.71754 30.54258 0.01324
C 29.49138 29.85064 0.0014
C 29.4514 28.43927 0.00924
C 30.75299 27.79657 0.02326
C 30.70566 26.28003 0.00261
C 29.43225 25.60531 0.03265
C 29.4928 24.26497 -0.02049
C 30.72055 23.47 -0.01854
C 30.72496 22.04341 -0.01415
C 29.47773 21.26785 -0.03039
C 29.50307 19.84622 0.01836
C 30.60411 17.70969 -0.00669
C 33.16388 23.45185 0.01927
C 33.11754 22.03166 0.01574
C 31.85799 21.3311 -0.02383
C 34.3874 24.17019 0.03076
C 1.17553 23.45915 0.00723
C 1.17375 22.04174 0.02712
C 34.39953 21.32113 -0.02213
C 0.01524 19.90654 0.01951
C 1.1407 19.14143 -0.01678
C 1.11129 17.71094 0.01223
C 34.29591 16.96539 0.00648
C 34.24184 15.56552 0.02114
C 0.99894 14.90926 -0.02957
C 1.13029 13.48946 0.00343
C 34.39545 12.70499 -0.02656
C 34.37284 11.25635 -0.02442
C 1.18228 10.58881 -0.00027
C 1.17681 9.26523 -0.00583
C 34.3181 8.49443 -0.02302
C 34.38906 7.03953 -0.02849
C 1.22099 6.34367 0.02931
C 1.19283 4.9239 0.00628
C 34.38288 4.14926 -0.0345
C 0.07006 2.73441 -0.00931
C 1.25911 2.07461 -0.00939
C 1.17746 0.71391 -0.00468
C 34.43166 25.56442 -0.05239
C 1.24897 26.25089 -0.00598
C 1.21442 27.75543 -0.00439
C 34.40408 28.36478 -0.01037
C 31.93126 19.93434 -0.01429
C 33.19378 19.31637 -0.0136
C 33.12513 17.78164 0.00594
C 31.8413 16.99256 -0.02474
C 31.8972 15.60224 0.00369
C 33.08426 14.86297 0.00455
C 33.12902 13.39781 -0.00644
C 31.91859 12.69031 -0.01839
C 31.98026 11.28911 0.00137
C 33.16405 10.5222 0.00199
C 33.11924 9.15936 0.04381
C 28.23499 10.60264 0.00194
C 31.91894 8.38936 0.02806
C 33.17112 6.27456 -0.00069
C 33.17885 4.8619 0.04926
C 31.94494 4.1764 -0.03838
C 31.90459 2.72176 0.00349
C 33.24675 2.02834 -0.00323
C 33.24001 0.597 -0.00841
C 31.99762 34.04726 0.0001
C 0.06902 32.60056 -0.02927
C 1.27219 31.86112 -0.01404
C 1.26774 30.52451 0.01027
C 0.01468 29.82253 0.01831
C 31.95065 6.93602 0.01504
C 26.96619 11.29344 0.04185
C 26.9993 12.79031 0.02316
C 28.24485 13.42303 0.01257
C 20.72144 0.68112 -0.00652
C 19.56623 34.07618 0.0058
C 22.08074 32.68617 -0.00865
C 23.25694 31.91384 0.00675
C 23.24414 30.56066 -0.00311
C 22.02464 29.74504 0.00742
C 21.87618 28.38782 -0.01594
C 23.25583 27.73676 0.0106
C 23.31027 26.33053 -0.01154
C 22.00748 25.71357 -0.01721
C 22.22285 24.27396 -0.02422
C 23.41215 23.59809 0.01277
C 23.39382 17.74331 0.00096
C 22.14193 17.10862 -0.01527
C 22.14176 15.66847 0.01087
C 23.37465 14.91133 0.00199
C 23.41453 13.52876 0.01511
C 22.09991 12.88642 -0.00478
C 22.08952 11.43531 -0.01662
C 23.26919 10.64054 -0.01185
C 23.29519 9.17639 0.01126
C 22.06938 8.49229 0.01852
C 22.10792 7.12546 -0.00381
C 20.82417 2.15173 -0.04076
C 19.65468 2.86742 -0.00703
C 19.60219 4.23746 0.00654
C 20.84259 4.99177 -0.04422
C 19.59904 32.69351 -0.00109
C 20.91315 31.99885 -0.00491
C 20.83376 30.55526 0.03338
C 19.47441 29.86241 -0.0258
C 19.04936 28.52055 -0.0331
C 20.45159 27.65702 -0.00316
C 20.84709 26.37263 0.02188
C 21.40849 23.10851 -0.01979
C 20.61364 22.11657 0.02691
C 19.5339 21.31239 -0.01581
C 19.8336 19.84015 0.01452
C 23.2973 6.46083 0.03046
C 20.96169 19.09521 0.04892
C 19.65309 17.07676 -0.03557
C 19.56582 15.64973 0.03754
C 20.80215 14.94516 0.01739
C 20.93063 13.55053 0.00755
C 19.69434 12.80159 -0.0054
C 19.72453 11.38288 0.00667
C 20.84316 10.6569 0.00143
C 20.87742 9.20347 -0.017
C 19.61928 8.56963 0.00364
C 19.61152 7.17968 -0.00831
C 20.86336 6.48004 -0.02957
C 20.85391 17.73479 -0.00111
C 3.74759 31.94686 0.01073
C 23.30721 5.02069 0.0296
C 22.09373 2.7706 -0.02845
C 24.53044 4.19461 -0.00229
C 24.47971 2.817 -0.00938
C 25.76091 2.12829 -0.0264
C 25.7808 0.72414 -0.01154
C 24.5871 34.04086 0.00684
C 27.03208 32.69191 -0.01052
C 28.24469 31.95236 -0.01679
C 28.27395 30.57662 0.00367
C 27.04829 29.84675 0.04306
C 26.95991 28.45947 0.00996
C 28.17383 27.69105 0.00195
C 28.24666 26.25118 -0.00802
C 27.02743 25.57947 -0.00218
C 27.10028 24.18053 -0.01654
C 28.26491 23.49907 -0.00037
C 28.2214 21.99385 -0.0032
C 26.94539 21.30481 0.00622
C 26.93098 19.88164 -0.02815
C 28.21114 19.17892 -0.00942
C 28.2369 17.80336 0.00487
C 27.06811 17.04966 0.00826
C 27.04245 15.61501 -0.00294
C 28.19325 14.89089 0.00152
C 25.77119 4.89671 -0.01199
C 25.70191 6.25915 -0.009
C 24.56163 7.10212 -0.00285
C 24.60111 8.49156 0.01423
C 23.31876 2.13987 -0.03213
C 23.33325 0.65882 0.02239
C 22.07377 0.02447 0.01153
C 24.53158 32.63115 0.02734
C 25.82073 31.91739 -0.0055
C 25.80038 30.5262 0.01515
C 24.51723 29.89145 -0.00225
C 24.4777 28.4586 0.00071
C 25.67467 27.76203 -0.01107
C 25.80475 26.31874 -0.01586
C 24.53905 25.62632 -0.01971
C 22.09865 4.25147 0.03374
C 24.59817 24.23397 -0.02118
C 25.68631 22.01581 -0.00178
C 25.79062 19.14526 0.00768
C 25.80678 17.73797 -0.0276
C 24.57341 17.08095 0.03005
C 24.61543 15.64019 -0.04078
C 25.82637 14.95793 0.02117
C 25.75445 13.52306 0.02737
C 24.50672 12.77815 -0.00498
C 24.53371 11.31145 0.00135
C 25.72316 10.62858 0.03102
C 25.92376 9.21459 0.02555
C 25.79612 23.44588 0.00733
C 2.51106 32.60747 -0.00018
