328
Graphene
C 34.35142 0.00568 0.01295
C 10.93225 6.27358 -0.05302
C 10.8442 4.93357 0.00213
C 9.6637 4.21838 -0.00066
C 9.75031 2.77133 -0.00289
C 11.00446 2.08323 0.00028
C 11.07545 0.70986 -0.02213
C 9.72738 34.06526 0.03698
C 9.80502 7.14045 -0.04147
C 12.28961 32.67719 -0.00109
C 13.38409 30.50103 0.03338
C 12.2343 29.78587 -0.0258
C 12.26363 28.3131 -0.0331
C 13.47825 27.75324 -0.00316
C 13.54472 26.28762 0.02188
C 12.31588 25.48787 -0.01979
C 12.20052 23.89494 0.02691
C 13.52072 31.96287 -0.00491
C 9.94419 8.51912 -0.02815
C 11.20318 9.32939 0.03505
C 11.14052 10.77189 0.01443
C 7.35108 4.33636 -0.01957
C 7.40056 2.79116 -0.0108
C 8.54579 2.05241 -0.00368
C 8.52203 0.68962 -0.02696
C 7.32525 0.00937 -0.00114
C 9.82683 32.73968 0.00228
C 11.04611 31.98461 0.00798
C 11.01054 30.46989 0.00422
C 9.81242 29.73635 0.0351
C 9.88767 28.26573 -0.03113
C 11.0249 27.58024 0.02098
C 11.00767 26.11152 0.01848
C 9.76131 25.43631 -0.00619
C 9.71913 23.88099 -0.02162
C 10.95102 23.27413 0.00889
C 9.69425 12.71198 -0.00481
C 9.95083 11.3522 0.00979
C 13.49194 23.39128 -0.01581
C 8.51916 4.93811 0.02058
C 12.20421 8.44595 0.01452
C 13.47452 6.25116 -0.00111
C 15.92315 2.16288 -0.01594
C 15.97352 0.78416 0.0106
C 14.78684 0.05818 -0.01154
C 17.20404 32.68317 -0.01721
C 18.50339 31.90809 -0.02422
C 18.50339 30.45789 0.01277
C 17.23838 29.82013 0.00096
C 14.70096 2.8475 0.00742
C 17.13111 28.36007 -0.01527
C 18.47196 26.2046 0.00199
C 17.17401 25.53755 0.01511
C 17.27359 24.01473 -0.00478
C 18.58917 23.47938 -0.01662
C 17.06957 7.1715 -0.01185
C 18.35029 6.56801 0.01126
C 18.3133 5.12175 0.01852
C 18.47407 27.67374 0.01087
C 14.61739 4.30499 -0.00311
C 15.89082 5.05216 0.00675
C 15.82013 6.56963 -0.00865
C 13.36393 4.87781 -0.03557
C 12.17736 4.19827 0.03754
C 12.24219 2.79128 0.01739
C 13.49015 2.13903 0.00755
C 13.44585 0.74659 -0.0054
C 12.24614 0.08865 0.00667
C 14.73878 32.7227 0.00143
C 16.00245 31.98831 -0.017
C 16.01874 30.55398 0.00364
C 14.75583 29.81837 -0.00831
C 14.69718 28.4002 -0.02957
C 15.89697 27.74212 -0.04422
C 15.96 26.33605 0.00654
C 14.76271 25.48968 -0.00703
C 14.67938 24.07168 -0.04076
C 16.00341 23.59017 -0.00652
C 14.50126 7.09898 0.0058
C 12.14609 6.95514 0.04892
C 17.11843 4.34217 -0.00381
C 8.59723 6.43207 0.01965
C 7.27415 8.4796 0.00052
C 2.26344 8.58978 -0.00191
C 2.28347 7.17249 0.00438
C 3.53672 6.48804 0.01291
C 3.59241 5.03563 0.00093
C 2.34328 4.31218 0.00057
C 2.31504 2.90814 -0.01634
C 3.60403 2.18325 -0.00334
C 3.58041 9.24892 0.00373
C 3.65103 0.82515 0.02339
C 4.92585 32.77162 -0.00719
C 6.14356 31.99446 0.01364
C 6.15833 30.5843 -0.01062
C 4.92463 29.90572 -0.00033
C 4.97024 28.45409 0.03589
C 6.17927 27.75937 -0.02759
C 6.21171 26.35882 0.0402
C 2.4315 0.07924 0.01641
C 3.53405 10.66021 0.02147
C 2.28422 11.43243 -0.014
C 2.32533 12.82846 -0.01118
C 3.68389 30.55133 -0.04848
C 2.45466 29.87216 -0.00892
C 2.46043 28.44293 -0.01362
C 3.7281 27.80231 -0.0008
C 3.6462 26.39903 0.0288
C 2.38688 25.60853 0.00393
C 2.40094 24.18544 0.00895
C 3.63728 23.61787 0.00685
C 3.85816 22.1428 0.02888
C 2.57712 21.3937 -0.00482
C 2.52046 19.99953 -0.01384
C 3.69164 19.22977 0.03693
C 3.63286 17.81314 0.01745
C 2.41096 17.12961 0.00488
C 2.41531 15.70229 -0.01004
C 3.66012 14.96739 -0.02896
C 3.56521 13.52229 -0.00131
C 4.90638 25.6624 0.00572
C 7.29592 7.12045 -0.03682
C 4.85652 24.3109 0.03592
C 6.27767 22.22912 0.00943
C 7.2892 32.67047 0.00415
C 8.65358 31.92289 -0.0014
C 8.68473 30.4506 0.02162
C 7.44277 29.83566 0.0076
C 7.43388 28.30816 0.01241
C 8.69685 27.59495 -0.01454
C 8.60867 26.19933 0.01945
C 4.91188 0.1152 -0.02162
C 7.36232 25.66834 0.01416
C 8.43404 23.59185 0.02299
C 7.72747 22.08436 0.00244
C 8.55813 13.21485 -0.01717
C 7.25672 12.77863 0.05265
C 7.26367 11.33476 -0.01952
C 8.62287 10.67413 -0.02813
C 8.6492 9.20148 0.00374
C 7.17631 24.27094 0.03542
C 6.11396 0.77061 0.01363
C 6.13179 2.17782 0.01877
C 4.87192 2.84804 -0.00925
C 5.11331 21.43176 0.02841
C 5.0035 19.90518 -0.01111
C 5.97158 19.04833 -0.01275
C 6.1564 17.76677 0.00985
C 4.94631 17.0077 -0.02245
C 4.89096 15.66168 -0.00428
C 6.10242 15.01424 0.03101
C 6.07194 13.4855 -0.01536
C 4.80985 12.84272 -0.02689
C 4.77091 11.39055 -0.01046
C 6.04224 10.65336 -0.00891
C 6.08061 9.136 0.02819
C 4.86344 8.46932 0.00165
C 4.83367 7.07758 -0.02971
C 6.10189 6.40636 0.02894
C 6.1041 5.01347 -0.01789
C 4.90944 4.24066 0.00444
C 6.00324 23.61037 0.00406
C 17.15316 2.85453 0.03046
C 18.36788 2.2317 0.0296
C 18.45627 0.77666 0.03374
C 33.17762 26.26749 0.00682
C 31.91698 25.5437 -0.01779
C 32.00521 24.10536 0.03794
C 33.1792 23.38344 0.01927
C 33.33054 21.97693 0.01574
C 32.07728 21.35207 -0.02383
C 32.03774 19.86841 -0.01429
C 33.13505 27.68981 0.00026
C 33.26125 19.25076 -0.0136
C 31.91366 17.19485 -0.02474
C 32.00309 16.01742 0.00369
C 33.06896 14.99307 0.00455
C 33.03072 13.54201 -0.00644
C 31.83276 12.86883 -0.01839
C 31.51131 11.51037 0.00137
C 32.80382 10.67126 0.00199
C 33.18997 17.88912 0.00594
C 31.86096 28.42509 0.0544
C 31.91367 29.82875 -0.02142
C 33.18245 30.59869 0.01428
C 30.74101 23.42566 -0.0405
C 30.77444 22.03376 -0.01303
C 29.55346 21.20948 -0.01461
C 30.77374 19.27689 -0.02155
C 30.5122 10.5881 -0.00944
C 30.48853 9.25118 -0.03735
C 29.39048 8.39318 -0.00971
C 29.49375 7.00781 0.01518
C 30.68109 6.36949 0.01908
C 30.62055 4.92546 0.07705
C 29.46296 4.19676 0.0103
C 29.43929 2.71282 0.02108
C 30.6898 2.12228 0.00716
C 30.60475 0.75478 0.00307
C 29.40487 34.03887 0.00346
C 31.94902 32.77178 0.01713
C 33.20115 31.97914 -0.01694
C 32.87314 9.27223 0.04381
C 29.47941 24.12605 0.01705
C 31.76534 8.4905 0.02806
C 33.07293 6.43064 -0.00069
C 34.35285 17.12763 0.00648
C 34.33936 15.74016 0.02114
C 1.19818 15.01908 -0.02957
C 1.08784 13.4845 0.00343
C 34.18419 12.80698 -0.02656
C 34.19997 11.40121 -0.02442
C 1.05642 10.71304 -0.00027
C 1.20954 17.80596 0.01223
C 1.0101 9.2824 -0.00583
C 34.20138 7.21419 -0.02849
C 1.00622 6.50507 0.02931
C 1.04938 5.0907 0.00628
C 34.36036 4.32343 -0.0345
C 0.00769 2.88607 -0.00931
C 1.13522 2.19389 -0.00939
C 1.18294 0.67674 -0.00468
C 34.12896 8.59401 -0.02302
C 1.32044 19.27352 -0.01678
C 34.43029 19.94004 0.01951
C 0.13266 21.33243 -0.02213
C 33.10551 4.97747 0.04926
C 31.8851 4.23276 -0.03838
C 31.94777 2.83449 0.00349
C 33.18449 2.20879 -0.00323
C 33.16913 0.69238 -0.00841
C 31.85818 34.07768 0.0001
C 0.00385 32.75959 -0.02927
C 1.19784 32.0117 -0.01404
C 1.1618 30.63776 0.01027
C 34.40386 29.84243 0.01831
C 34.39416 28.36418 -0.01037
C 1.26209 27.61651 -0.00439
C 1.19007 26.27418 -0.00598
C 34.36653 25.5499 -0.05239
C 0.02418 24.11443 0.03076
C 1.20882 23.41841 0.00723
C 1.39796 22.07846 0.02712
C 31.79738 7.10667 0.01504
C 29.40444 25.53685 0.0101
C 30.65766 26.26494 -0.00669
C 30.61698 27.68066 0.03531
C 23.35267 30.5115 -0.00498
C 22.11709 29.75778 0.00135
C 22.17869 28.34356 0.03102
C 23.33006 27.52294 0.02555
C 23.3254 26.15205 0.01423
C 22.10079 25.42157 -0.00285
C 22.13421 23.97486 -0.009
C 23.35678 31.90136 0.02737
C 23.32675 23.43723 -0.01199
C 23.46157 6.61498 -0.00938
C 23.35888 5.04874 -0.0264
C 22.16413 4.31363 -0.01154
C 22.14576 2.89619 0.00684
C 23.39286 2.10776 -0.01052
C 23.32183 0.7082 -0.01679
C 22.01939 0.05735 0.00367
C 22.15639 7.13228 -0.00229
C 22.05013 32.69288 0.02117
C 19.6216 0.07288 -0.04078
C 20.84267 0.74229 0.03005
C 17.20666 0.05589 -0.02845
C 19.70067 32.70223 -0.03213
C 20.97474 31.8745 0.02239
C 20.9342 30.45711 0.01153
C 19.73757 29.75763 0.02734
C 19.67202 28.38713 -0.0055
C 20.93383 27.70858 0.01515
C 20.88685 26.24279 -0.00225
C 19.69458 25.54901 0.00071
C 19.76513 24.13688 -0.01107
C 20.87192 23.42768 -0.01586
C 19.61084 6.96666 -0.01971
C 20.89806 6.59535 -0.02118
C 20.87396 5.15101 0.00733
C 19.60249 4.29835 -0.00178
C 19.63494 2.8138 0.00768
C 20.90779 2.16505 -0.0276
C 24.64824 32.62093 0.04306
C 25.7788 31.86219 0.00996
C 25.74602 30.44245 0.00195
C 24.57792 29.72536 -0.00802
C 26.97967 25.4779 0.01259
C 27.02226 23.97006 0.01799
C 28.39128 23.32603 0.01699
C 28.56634 21.88999 -0.00416
C 27.13789 7.01067 0.01177
C 28.29085 6.31046 0.04266
C 28.30264 4.86999 0.01324
C 27.03471 4.18931 0.0014
C 27.07689 2.76411 0.00924
C 28.23443 2.04195 0.02326
C 28.20607 0.65632 0.00261
C 26.9701 34.04877 0.03265
C 29.41018 32.62589 -0.02049
C 30.67475 31.93834 -0.01854
C 30.7148 30.48163 -0.01415
C 29.4763 29.81157 -0.03039
C 29.47725 28.39649 0.01836
C 28.19487 26.33652 0.01495
C 3.58978 32.01993 0.01572
C 28.15654 27.76009 0.00235
C 27.00699 29.74481 0.02198
C 24.53015 28.33551 -0.00218
C 25.73855 27.64332 -0.01654
C 25.72831 26.16729 -0.00037
C 24.5783 25.41209 -0.0032
C 24.62897 23.90218 0.00622
C 25.84961 23.33692 -0.02815
C 24.66539 7.16542 -0.00942
C 25.83437 6.43974 0.00487
C 25.82105 4.91605 0.00826
C 24.57328 4.26657 -0.00294
C 24.54627 2.83629 0.00152
C 25.82779 2.11702 0.01257
C 25.78744 0.65178 0.02316
C 24.52123 34.0195 0.04185
C 27.07579 32.65903 0.00194
C 28.2068 31.89485 -0.00621
C 28.25203 30.46778 0.02611
C 26.96572 28.39694 0.01094
C 2.41309 32.70153 -0.00095
