348
Graphene
C 34.41027 34.01305 0.01295
C 12.25359 34.05369 0.00422
C 14.77264 32.54278 0.0351
C 16.00888 32.14142 -0.03113
C 16.07494 13.54189 0.02098
C 14.81491 13.00065 0.01848
C 14.67822 11.41576 -0.00619
C 15.87713 10.6495 -0.02162
C 15.95597 9.15703 0.00889
C 14.71744 8.45504 -0.00481
C 14.8017 6.94114 0.00979
C 16.12857 6.328 0.01443
C 16.04685 4.87745 0.03505
C 14.78896 4.20737 -0.02815
C 14.7979 2.7721 -0.04147
C 16.0557 2.0506 -0.05302
C 16.02637 0.65973 0.00213
C 14.80603 0.03938 -0.00066
C 13.55281 0.65498 0.00798
C 13.49788 2.14289 0.00228
C 12.30231 2.81931 -0.00114
C 12.31365 4.17847 -0.02696
C 11.10989 6.40025 -0.01454
C 11.05384 4.97182 0.01945
C 9.7913 4.31389 0.01416
C 9.83721 2.85851 0.03542
C 11.10293 2.1514 0.02299
C 11.07474 0.69563 0.00244
C 9.86657 0.01747 -0.01717
C 12.23783 32.51329 0.05265
C 17.30023 32.43684 -0.00289
C 13.48273 31.99486 -0.01952
C 12.33317 12.9753 0.00374
C 12.26917 11.46505 0.00052
C 13.51428 10.65689 -0.03682
C 13.50586 9.26223 0.01965
C 12.34576 8.45493 0.02058
C 12.35803 7.05196 -0.01957
C 13.57242 6.28393 -0.0108
C 13.55508 4.89257 -0.00368
C 13.54383 13.58877 -0.02813
C 18.54742 31.8166 0.00028
C 18.32433 14.77542 -0.02213
C 18.40204 13.44674 0.03698
C 20.87999 9.21749 -0.00831
C 19.6149 8.6099 -0.02957
C 19.69216 7.18018 -0.04422
C 20.87602 6.38442 0.00654
C 20.89131 4.92602 -0.00703
C 19.70353 4.28793 -0.04076
C 19.66322 2.83564 -0.00652
C 20.87521 2.077 0.0058
C 20.88179 10.69575 0.00364
C 20.87706 0.65705 -0.00865
C 22.08458 32.65403 -0.00311
C 23.36394 31.97394 0.00742
C 23.33761 30.5104 -0.01594
C 22.23051 29.80929 0.0106
C 23.17735 27.73967 -0.01154
C 23.47193 19.04431 -0.01721
C 23.23367 17.68979 -0.02422
C 22.04032 17.06834 0.01277
C 19.67124 34.05804 0.00675
C 9.81952 7.10864 0.01241
C 19.65004 11.40549 -0.017
C 20.84512 13.5464 0.00667
C 17.20434 12.69826 -0.00109
C 17.15253 11.31122 -0.00491
C 18.39522 10.68744 0.03338
C 18.42035 9.30073 -0.0258
C 17.21677 8.48746 -0.0331
C 17.26126 7.14138 -0.00316
C 18.50067 6.44585 0.02188
C 18.50468 4.96493 -0.01979
C 19.655 12.77065 0.00143
C 17.27286 4.24507 0.02691
C 18.41761 2.06373 0.01452
C 18.36687 0.61061 0.04892
C 17.21186 33.98797 -0.00111
C 19.65649 32.58233 -0.03557
C 20.903 31.85787 0.03754
C 21.0802 30.5571 0.01739
C 19.46509 15.48169 0.00755
C 20.80485 14.99788 -0.0054
C 17.27432 2.78318 -0.01581
C 22.02107 15.66051 0.00096
C 9.88048 8.44436 0.0076
C 11.10877 10.64997 -0.0014
C 2.47225 7.10434 -0.01362
C 3.65639 6.40127 -0.0008
C 3.62402 4.90273 0.0288
C 2.42222 4.17385 0.00393
C 2.48139 2.71367 0.00895
C 3.73505 2.18835 0.00685
C 3.76725 0.72031 0.02888
C 2.51633 0.01185 -0.00482
C 4.94951 32.74521 -0.01384
C 6.19624 32.00526 0.03693
C 6.14205 30.53505 0.01745
C 4.86701 29.82903 0.00488
C 4.89166 28.43489 -0.01004
C 6.18816 27.67003 -0.02896
C 4.7569 25.74118 -0.00131
C 4.87429 24.26376 -0.01118
C 4.98875 21.18395 -0.014
C 2.52973 8.48463 -0.00892
C 3.69996 9.2321 -0.04848
C 3.67462 10.64211 0.01572
C 2.48405 11.34868 -0.00095
C 3.66997 30.52685 -0.02929
C 2.40711 29.81081 -0.00966
C 2.40311 28.39325 -0.03337
C 3.63215 27.71801 0.01227
C 3.54879 26.35199 0.00873
C 2.37188 25.50596 -0.00049
C 2.47913 24.14187 0.00848
C 3.81752 23.42584 -0.01303
C 4.84857 19.77552 0.02147
C 3.84704 22.01786 -0.01378
C 2.39319 19.97299 0.0127
C 3.56132 19.15164 0.01396
C 3.49969 17.75783 0.01849
C 2.31135 17.04151 -0.01142
C 2.3844 15.60273 -0.00562
C 3.67407 14.89754 -0.00494
C 3.63308 13.53884 0.00054
C 2.44415 12.74799 0.03007
C 2.54234 21.36996 0.02635
C 6.03405 17.82094 0.00373
C 4.78316 17.09333 -0.00191
C 4.89213 15.67931 0.00438
C 7.39468 12.81566 -0.02245
C 7.36516 11.3726 -0.00428
C 8.65624 10.7 0.03101
C 8.61982 9.20956 -0.01536
C 7.35698 8.50708 -0.02689
C 7.32616 7.13735 -0.01046
C 8.57901 6.43292 -0.00891
C 8.51667 5.00793 0.02819
C 8.68323 13.44244 0.00985
C 7.26548 4.28297 0.00165
C 8.64485 2.19541 0.02894
C 8.65995 0.80377 -0.01789
C 7.40735 0.06984 0.00444
C 9.82534 32.70311 -0.00925
C 10.92486 31.93991 0.01877
C 11.00366 13.52689 0.01363
C 9.8679 12.68958 -0.02162
C 9.8604 11.41232 0.00415
C 7.40808 2.87903 -0.02971
C 11.1247 9.17076 0.02162
C 8.28226 14.78771 -0.01275
C 7.34974 29.89063 0.02841
C 6.09447 15.08889 0.01291
C 6.17545 13.6157 0.00093
C 4.88463 12.835 0.00057
C 4.95668 11.40086 -0.01634
C 6.19554 10.64171 -0.00334
C 6.16631 9.2373 0.02339
C 4.96125 8.53032 0.01641
C 4.91942 7.07067 -0.00719
C 7.31934 15.68659 -0.01111
C 6.10006 6.38655 0.01364
C 4.8542 4.2961 -0.00033
C 4.89469 2.91716 0.03589
C 6.15603 2.2091 -0.02759
C 6.1879 0.81136 0.0402
C 4.95126 0.0709 0.00572
C 7.38403 32.71959 0.03592
C 8.61062 32.0344 0.00406
C 8.42619 30.71171 0.00943
C 6.10803 5.00506 -0.01062
C 23.28443 14.9537 -0.01527
C 23.32921 13.53064 0.01087
C 22.08425 12.85349 0.00199
C 33.19782 30.52728 0.01428
C 31.93787 29.77993 -0.02142
C 31.9392 28.3652 0.0544
C 33.13893 27.67388 0.00026
C 33.17261 26.26774 0.00682
C 31.93989 25.61401 -0.01779
C 31.89593 24.21835 0.03794
C 33.20996 23.47929 0.01927
C 33.22538 22.03494 0.01574
C 31.98549 21.34405 -0.02383
C 31.97769 19.97485 -0.01429
C 33.21562 19.22368 -0.0136
C 33.20468 17.77428 0.00594
C 31.96109 17.0906 -0.02474
C 31.88689 15.6267 0.00369
C 33.11508 14.94582 0.00455
C 33.1243 13.52797 -0.00644
C 33.22777 31.99526 -0.01694
C 31.93972 32.69911 0.01713
C 29.55604 0.01961 0.00346
C 30.71548 0.75803 0.00307
C 29.53502 19.9341 0.01836
C 30.76622 19.274 0.03531
C 30.78379 17.83349 -0.00669
C 29.53509 17.11119 0.0101
C 29.45848 15.67801 0.01705
C 30.68639 14.93742 -0.0405
C 30.69977 13.46489 -0.01303
C 29.47138 12.77801 -0.01461
C 31.90323 12.7657 -0.01839
C 29.4918 11.30273 -0.02155
C 30.73984 9.27492 -0.03735
C 29.4617 8.48688 -0.00971
C 29.49494 7.06317 0.01518
C 30.76553 6.40975 0.01908
C 30.79527 4.9834 0.07705
C 29.5521 4.24667 0.0103
C 29.56115 2.86371 0.02108
C 30.75436 2.15789 0.00716
C 30.77381 10.6059 -0.00944
C 31.9921 11.35455 0.00137
C 33.25153 10.65573 0.00199
C 33.23442 9.22449 0.04381
C 1.18134 19.19169 -0.01678
C 1.12215 17.77759 0.01223
C 34.42247 17.00684 0.00648
C 34.33542 15.63529 0.02114
C 1.19149 14.8816 -0.02957
C 1.18406 13.46624 0.00343
C 34.32234 12.77331 -0.02656
C 0.01494 11.39429 -0.02442
C 34.40991 19.9364 0.01951
C 1.25098 10.70344 -0.00027
C 0.06693 8.46911 -0.02302
C 0.04855 7.04851 -0.02849
C 1.23715 6.35677 0.02931
C 1.22023 4.95483 0.00628
C 0.00906 4.27224 -0.0345
C 34.4242 2.88291 -0.00931
C 1.21154 2.08436 -0.00939
C 1.24756 0.65792 -0.00468
C 1.27684 9.20459 -0.00583
C 29.53067 21.37069 -0.03039
C 0.03985 21.35504 -0.02213
C 1.29819 23.46555 0.00723
C 32.03486 8.47812 0.02806
C 32.00086 7.11324 0.01504
C 33.25836 6.42536 -0.00069
C 33.23053 5.00975 0.04926
C 32.00165 4.26945 -0.03838
C 31.97608 2.91719 0.00349
C 33.20378 2.16731 -0.00323
C 33.20551 0.6945 -0.00841
C 1.31053 22.06578 0.02712
C 31.93839 0.03499 0.0001
C 1.25007 32.03713 -0.01404
C 1.21639 30.53622 0.01027
C 34.35069 29.79252 0.01831
C 34.33542 28.40548 -0.01037
C 1.19913 27.6815 -0.00439
C 1.17636 26.27146 -0.00598
C 34.36077 25.57941 -0.05239
C 0.01891 24.14054 0.03076
C 34.42569 32.67435 -0.02927
C 30.71148 22.01777 -0.01415
C 30.67775 23.46522 -0.01854
C 29.46319 24.20792 -0.02049
C 25.73221 22.06381 -0.02118
C 24.60443 21.37299 0.00733
C 24.37666 19.96532 -0.00178
C 25.81514 19.15755 0.00768
C 25.84946 17.77934 -0.0276
C 24.59347 17.05726 0.03005
C 24.53912 15.59138 -0.04078
C 25.78186 14.86352 0.02117
C 25.64097 23.45755 -0.01971
C 25.7712 13.43997 0.02737
C 24.60048 11.3098 0.00135
C 25.85608 10.63087 0.03102
C 25.792 9.20885 0.02555
C 24.60446 8.49586 0.01423
C 24.59362 7.07947 -0.00285
C 25.77146 6.35299 -0.009
C 25.8644 4.87999 -0.01199
C 24.58752 4.15869 -0.00229
C 24.53562 12.76136 -0.00498
C 24.63924 2.79555 -0.00938
C 24.51362 24.21904 -0.01586
C 25.8127 26.3618 0.00071
C 22.08392 11.39013 0.01511
C 23.39075 10.60727 -0.00478
C 23.37309 9.17924 -0.01662
C 22.10577 8.51056 -0.01185
C 22.1181 7.0641 0.01126
C 23.32361 6.39855 0.01852
C 23.37232 4.94076 -0.00381
C 22.11531 4.2625 0.03046
C 24.69473 25.56936 -0.01107
C 22.16181 2.82429 0.0296
C 23.35726 0.68722 -0.02845
C 22.13127 34.06112 -0.03213
C 24.6404 32.65713 0.02239
C 25.9012 31.95639 0.01153
C 25.83525 30.55048 0.02734
C 24.5895 29.90302 -0.0055
C 24.49809 28.46965 0.01515
C 25.74078 27.74291 -0.00225
C 23.36758 2.11469 0.03374
C 3.71084 32.03484 0.03368
C 25.7929 2.10344 -0.0264
C 24.55539 33.97824 0.00684
C 28.29498 9.1687 -0.00621
C 27.04702 8.48766 0.02611
C 26.98477 7.03662 0.02198
C 28.27006 6.34248 0.01094
C 28.3481 4.9688 0.00235
C 27.06735 4.26152 0.01495
C 27.05386 2.83311 0.01259
C 28.30242 2.09909 0.01799
C 28.24112 10.64858 0.00194
C 28.29859 0.70097 0.01699
C 29.52016 32.67226 0.01177
C 30.75163 31.99783 0.04266
C 30.71731 30.59 0.01324
C 29.56152 29.81698 0.0014
C 29.49036 28.35704 0.00924
C 30.71344 27.6679 0.02326
C 30.69924 26.32669 0.00261
C 29.47411 25.66721 0.03265
C 27.04522 0.01171 -0.00416
C 25.8087 0.68891 -0.01154
C 27.07033 11.42578 0.04185
C 28.29165 13.53688 0.01257
C 27.0346 32.63378 -0.01052
C 28.3334 31.90119 -0.01679
C 28.29504 30.54548 0.00367
C 27.0962 29.82422 0.04306
C 26.96091 28.36391 0.00996
C 28.24451 27.66214 0.00195
C 28.24268 26.29686 -0.00802
C 27.00538 25.58482 -0.00218
C 27.06335 12.82133 0.02316
C 26.94344 24.16248 -0.01654
C 28.2519 22.05468 -0.0032
C 27.00188 21.33181 0.00622
C 27.02864 19.92496 -0.02815
C 28.28433 19.21584 -0.00942
C 28.30949 17.7926 0.00487
C 27.11141 17.04129 0.00826
C 27.09841 15.65745 -0.00294
C 28.2911 14.91186 0.00152
C 28.24672 23.50356 -0.00037
C 2.40532 32.66168 -0.00077
