366
Graphene
C 0.01711 0.04735 0.01295
C 14.72943 4.24041 0.00374
C 14.72819 2.88651 0.00052
C 15.95821 2.16812 -0.03682
C 16.05792 0.70298 0.01965
C 14.81961 0.04726 0.02058
C 17.25291 32.67272 -0.01957
C 18.38158 31.89088 -0.0108
C 18.37627 30.48186 -0.00368
C 15.97855 4.85299 -0.02813
C 17.19228 29.78327 -0.02696
C 18.50261 27.65608 0.00228
C 18.43218 26.26516 0.00798
C 17.28373 25.48151 0.00422
C 17.19324 24.09203 0.0351
C 18.46727 23.47993 -0.03113
C 18.64498 21.9997 0.02098
C 18.4951 18.98154 0.01848
C 18.38729 14.71773 -0.00619
C 17.26734 28.29705 -0.00114
C 15.91818 6.33605 -0.01952
C 14.68952 7.12553 0.05265
C 14.76812 8.5077 -0.01717
C 13.46287 6.45934 -0.02971
C 13.45277 5.08539 0.02894
C 12.28553 4.30924 -0.01789
C 12.33138 2.88799 0.00444
C 13.53366 2.1488 -0.00925
C 13.5734 0.73663 0.01877
C 12.27267 0.04442 0.01363
C 14.73949 32.65897 -0.02162
C 16.04158 32.00252 0.00415
C 16.00197 30.59595 -0.0014
C 14.74534 29.86235 0.02162
C 14.75144 28.45947 0.0076
C 16.01865 27.61538 0.01241
C 16.00196 26.23717 -0.01454
C 14.76122 25.56209 0.01945
C 15.0175 24.15264 0.01416
C 15.88642 23.40206 0.03542
C 16.12656 10.72533 0.02299
C 15.97412 9.23321 0.00244
C 18.37127 13.54617 -0.02162
C 17.18761 11.2625 0.00889
C 18.5181 10.66316 -0.00481
C 18.45473 9.28715 0.00979
C 19.58423 15.72516 -0.00111
C 20.87725 14.99851 -0.03557
C 20.81835 13.50448 0.03754
C 19.60059 12.71769 0.01739
C 19.72846 11.31896 0.00755
C 20.90986 10.66063 -0.0054
C 20.92678 9.1818 0.00667
C 19.62526 8.5537 0.00143
C 19.66649 7.12973 -0.017
C 20.94245 6.39083 0.00364
C 20.95793 5.03596 -0.00831
C 19.72274 4.2547 -0.02957
C 19.7202 2.83732 -0.04422
C 20.92987 2.07097 0.00654
C 20.98146 0.655 -0.00703
C 19.62429 34.0548 -0.04076
C 22.12855 32.58336 -0.00652
C 23.40759 31.8993 0.0058
C 23.40198 30.50928 -0.00865
C 19.63654 17.1639 0.04892
C 12.21644 7.11497 0.00165
C 20.84001 17.74757 0.01452
C 19.56899 19.86425 0.02691
C 17.20015 8.53185 0.01443
C 17.17055 7.09432 0.03505
C 18.47667 6.37944 -0.02815
C 18.47421 4.94668 -0.04147
C 17.24973 4.27147 -0.05302
C 17.25236 2.9143 0.00213
C 18.49781 2.17073 -0.00066
C 18.46506 0.73474 -0.00289
C 17.2285 34.05525 0.00028
C 19.60172 32.6097 -0.02213
C 20.90206 31.92376 0.03698
C 20.95123 30.57396 -0.00109
C 19.64848 29.84205 -0.00491
C 19.67544 28.43157 0.03338
C 20.85338 27.70079 -0.0258
C 20.88389 26.25474 -0.0331
C 19.65249 25.52129 -0.00316
C 19.63174 24.19735 0.02188
C 19.57947 21.30295 -0.01979
C 20.85978 19.19176 -0.01581
C 12.4106 8.4903 0.02819
C 13.37565 9.08564 -0.00891
C 12.31706 25.55317 -0.01046
C 3.66774 2.11902 -0.00049
C 3.73703 0.71428 0.00848
C 2.51002 0.00588 -0.01303
C 4.90945 32.70876 -0.01378
C 6.16875 31.94614 0.02635
C 6.13881 30.51825 0.0127
C 4.93582 29.85032 0.01396
C 4.96942 28.4175 0.01849
C 6.15082 27.66366 -0.01142
C 6.07856 26.28934 -0.00562
C 4.85838 25.57529 -0.00494
C 4.84657 24.16873 0.00054
C 4.90798 11.30692 0.03007
C 6.0884 9.31265 -0.00095
C 4.97285 8.50604 0.01572
C 4.93518 7.13082 -0.04848
C 6.10299 6.41606 -0.00892
C 6.16111 4.99492 -0.01362
C 4.87159 4.30408 -0.0008
C 2.46617 2.86347 0.00873
C 4.87238 2.84857 0.0288
C 2.46645 4.28913 0.01227
C 3.66047 6.40482 -0.00966
C 3.75743 30.52078 -0.00074
C 2.53547 29.81215 -0.00518
C 2.46972 28.38139 0.0086
C 3.79801 27.69046 -0.00643
C 3.68365 26.22878 0.017
C 2.37455 25.61622 -0.03113
C 2.3884 24.22145 -0.02566
C 3.7353 23.39527 -0.00094
C 3.6996 22.00048 0.02322
C 2.46243 21.30155 -0.00725
C 2.50987 19.83661 -0.05697
C 2.36431 16.8258 0.01087
C 2.50998 15.70515 -0.01343
C 2.25914 12.75211 0.00988
C 2.43275 11.46463 0.0276
C 3.6571 10.74947 0.01305
C 3.67151 9.26114 -0.00077
C 2.49384 8.54119 0.03368
C 2.40584 7.0491 -0.02929
C 3.67801 5.03687 -0.03337
C 22.1565 29.8433 0.00675
C 6.14823 2.18697 0.00393
C 4.94751 0.04468 0.00685
C 11.0323 27.67428 0.01364
C 11.06346 26.15923 -0.01062
C 9.87581 25.63187 -0.00033
C 9.69196 8.54405 0.03589
C 9.85659 7.17386 -0.02759
C 11.03348 6.43116 0.0402
C 11.0407 5.04163 0.00572
C 9.89738 4.24135 0.03592
C 9.89894 2.8534 0.00406
C 11.10782 2.16376 0.00943
C 11.03523 0.60142 0.02841
C 9.79276 34.07767 -0.01111
C 12.25461 32.66144 -0.01275
C 13.45057 31.9103 0.00985
C 13.50684 30.5101 -0.02245
C 12.28549 29.83408 -0.00428
C 12.2558 28.41789 0.03101
C 13.54882 27.70091 -0.01536
C 13.50952 26.27208 -0.02689
C 9.79292 28.43685 -0.00719
C 6.1683 0.77357 0.00895
C 9.80806 29.83439 0.01641
C 11.03173 31.98451 -0.00334
C 7.40264 32.69829 0.02888
C 8.60313 31.96781 -0.00482
C 8.59237 30.59365 -0.01384
C 7.38371 29.83174 0.03693
C 7.4004 28.44852 0.01745
C 8.61956 27.76709 0.00488
C 8.65489 26.28437 -0.01004
C 7.31298 25.75502 -0.02896
C 8.72582 9.1933 -0.00131
C 7.3561 8.66211 -0.01118
C 7.34302 7.11244 -0.014
C 8.59211 6.4462 0.02147
C 8.63022 4.98646 0.00373
C 7.38851 4.27578 -0.00191
C 7.32372 2.92824 0.00438
C 8.61846 2.18587 0.01291
C 8.5724 0.75352 0.00093
C 7.34008 0.02168 0.00057
C 9.79075 32.65884 -0.01634
C 11.04217 30.53074 0.02339
C 22.12301 28.40614 -0.00311
C 23.30018 27.72114 0.00742
C 23.29719 26.29222 -0.01594
C 30.7784 0.75895 0.00307
C 29.53167 0.00143 0.00346
C 31.94876 32.6736 0.01713
C 33.11971 31.94297 -0.01694
C 33.19803 30.53607 0.01428
C 31.94311 29.8558 -0.02142
C 31.86757 28.41578 0.0544
C 33.1244 27.69153 0.00026
C 33.17448 26.25515 0.00682
C 31.95871 25.57978 -0.01779
C 31.93165 24.15221 0.03794
C 33.1722 23.47085 0.01927
C 33.21279 22.01665 0.01574
C 31.95306 21.30624 -0.02383
C 31.97063 19.91219 -0.01429
C 33.2599 19.20838 -0.0136
C 33.2671 17.78578 0.00594
C 31.98577 17.03938 -0.02474
C 31.95629 15.66656 0.00369
C 30.77163 2.18136 0.00716
C 33.14147 14.93341 0.00455
C 29.54411 2.82342 0.02108
C 30.71725 4.96264 0.07705
C 29.5372 25.52046 0.03265
C 29.48776 24.16987 -0.02049
C 30.72384 23.44694 -0.01854
C 30.78469 22.02276 -0.01415
C 29.49506 21.2744 -0.03039
C 29.47944 19.86449 0.01836
C 30.74827 19.21212 0.03531
C 30.77276 17.79117 -0.00669
C 29.57521 16.93298 0.0101
C 29.58178 15.561 0.01705
C 30.76721 14.90577 -0.0405
C 30.73021 13.51455 -0.01303
C 29.51852 12.75303 -0.01461
C 29.52519 11.36938 -0.02155
C 30.776 10.61378 -0.00944
C 30.66982 9.13494 -0.03735
C 29.45916 8.5322 -0.00971
C 29.45315 7.1117 0.01518
C 30.67294 6.39198 0.01908
C 29.53953 4.27515 0.0103
C 30.77048 26.20378 0.00261
C 33.17747 13.47735 -0.00644
C 31.9936 11.35019 0.00137
C 0.10498 19.877 0.01951
C 1.27042 19.09955 -0.01678
C 1.28471 17.73117 0.01223
C 0.03444 17.02338 0.00648
C 34.41642 15.59633 0.02114
C 1.27438 14.89974 -0.02957
C 1.2151 13.51035 0.00343
C 34.41934 12.84822 -0.02656
C 0.0201 11.40311 -0.02442
C 1.19498 10.68419 -0.00027
C 1.2449 9.3286 -0.00583
C 34.38589 8.56289 -0.02302
C 34.41009 7.11676 -0.02849
C 1.22161 6.39281 0.02931
C 1.26258 4.99209 0.00628
C 0.03474 4.24165 -0.0345
C 34.41803 2.77898 -0.00931
C 1.24639 2.16078 -0.00939
C 1.27364 0.75545 -0.00468
C 0.03361 21.33833 -0.02213
C 31.93141 12.71613 -0.01839
C 1.21408 22.03329 0.02712
C 34.4198 24.17723 0.03076
C 33.26694 10.66636 0.00199
C 33.12557 9.20308 0.04381
C 31.85547 8.51467 0.02806
C 31.94318 7.05983 0.01504
C 33.16885 6.36807 -0.00069
C 33.23477 4.9218 0.04926
C 31.9673 4.33355 -0.03838
C 31.97806 2.88152 0.00349
C 33.17998 2.11913 -0.00323
C 33.19561 0.70058 -0.00841
C 31.93708 34.05142 0.0001
C 34.36236 32.69077 -0.02927
C 1.21866 31.95514 -0.01404
C 1.29421 30.5071 0.01027
C 0.03599 29.84305 0.01831
C 34.36658 28.40965 -0.01037
C 1.22803 27.78671 -0.00439
C 1.17559 26.34769 -0.00598
C 34.39734 25.58708 -0.05239
C 1.18571 23.43801 0.00723
C 3.70989 31.9943 0.01465
C 30.70109 27.65205 0.02326
C 29.51146 29.79512 0.0014
C 25.82718 30.48571 0.02734
C 24.5674 29.79193 -0.0055
C 24.52829 28.41779 0.01515
C 25.73862 27.74979 -0.00225
C 25.80911 26.21088 0.00071
C 24.57473 25.49706 -0.01107
C 24.51131 24.10841 -0.01586
C 25.76831 23.44958 -0.01971
C 25.81542 22.01443 -0.02118
C 24.49679 21.20382 0.00733
C 24.47316 19.87976 -0.00178
C 25.80679 19.14426 0.00768
C 25.7918 17.68983 -0.0276
C 24.55131 17.01628 0.03005
C 24.63068 15.60006 -0.04078
C 25.86175 14.90746 0.02117
C 25.8451 13.50604 0.02737
C 24.54692 12.75643 -0.00498
C 24.61202 11.30209 0.00135
C 25.74797 31.89632 0.01153
C 25.8195 10.6202 0.03102
C 24.59074 32.6192 0.02239
C 23.38585 0.69663 -0.02845
C 22.09729 25.6413 0.0106
C 22.00682 19.85474 -0.01154
C 23.21648 19.13801 -0.01721
C 23.31563 17.67431 -0.02422
C 22.05781 17.01879 0.01277
C 22.1699 15.6332 0.00096
C 23.37548 14.85904 -0.01527
C 23.24408 13.48441 0.01087
C 22.03291 12.72759 0.00199
C 22.16857 11.32165 0.01511
C 23.37708 10.60166 -0.00478
C 23.42423 9.1689 -0.01662
C 22.20055 8.45825 -0.01185
C 22.16958 7.08633 0.01126
C 23.41107 6.34207 0.01852
C 23.40157 4.89245 -0.00381
C 22.13177 4.24199 0.03046
C 22.11463 2.81888 0.0296
C 23.43019 2.10669 0.03374
C 22.23058 34.01791 -0.03213
C 29.49809 28.35672 0.00924
C 25.8539 9.22901 0.02555
C 24.61897 7.10175 -0.00285
C 27.08127 15.61529 -0.00294
C 28.32192 14.91944 0.00152
C 28.25055 13.46629 0.01257
C 27.0778 12.79044 0.02316
C 27.09303 11.34158 0.04185
C 28.34573 10.68642 0.00194
C 28.30617 9.28659 -0.00621
C 27.0697 8.54354 0.02611
C 27.10711 7.05358 0.02198
C 28.28148 6.37436 0.01094
C 28.28866 4.98609 0.00235
C 27.06852 4.32502 0.01495
C 27.02588 2.85595 0.01259
C 28.28481 2.17524 0.01799
C 28.2688 0.72868 0.01699
C 27.0265 34.05741 -0.00416
C 29.55304 32.65943 0.01177
C 30.69714 32.0038 0.04266
C 30.73542 30.50268 0.01324
C 27.07536 17.08637 0.00826
C 24.62911 8.47531 0.01423
C 28.36637 17.6722 0.00487
C 26.98544 19.83048 -0.02815
C 25.86918 6.39775 -0.009
C 25.85924 5.03338 -0.01199
C 24.72426 4.25672 -0.00229
C 24.56386 2.86377 -0.00938
C 25.83882 2.12104 -0.0264
C 25.79824 0.68205 -0.01154
C 24.5859 34.07925 0.00684
C 26.99227 32.65991 -0.01052
C 28.18448 31.95389 -0.01679
C 28.27775 30.5097 0.00367
C 27.02142 29.75049 0.04306
C 26.98036 28.37376 0.00996
C 28.22818 27.67353 0.00195
C 28.24981 26.26973 -0.00802
C 26.99585 25.5511 -0.00218
C 27.00997 24.17665 -0.01654
C 28.24774 23.44017 -0.00037
C 28.26399 21.97326 -0.0032
C 27.03827 21.27358 0.00622
C 28.2888 19.05691 -0.00942
C 2.49651 32.67574 -0.03996
