298
Graphene
C 34.37988 0.11214 0.01295
C 15.9532 2.15753 0.03754
C 16.05125 0.67353 0.01739
C 14.79531 34.03809 0.00755
C 17.27473 32.60375 -0.0054
C 18.51426 31.89371 0.00667
C 18.39028 30.49929 0.00143
C 14.81996 2.869 -0.03557
C 17.22883 29.82676 -0.017
C 18.47005 27.63141 -0.00831
C 18.40881 26.16342 -0.02957
C 17.21134 25.60245 -0.04422
C 18.58841 22.87366 0.00654
C 17.52667 4.21949 -0.00703
C 17.20611 2.71026 -0.04076
C 17.20982 28.28872 0.00364
C 14.93524 4.36078 -0.00111
C 16.29247 4.80924 0.04892
C 15.95549 26.17435 0.01452
C 12.25242 29.95251 -0.00066
C 12.24455 28.53435 -0.00289
C 13.42228 27.87172 0.00028
C 13.66459 5.16332 -0.02213
C 12.31698 4.43328 0.03698
C 12.35586 2.95142 -0.00109
C 13.51718 2.11605 -0.00491
C 13.54127 0.69239 0.03338
C 12.32928 0.08511 -0.0258
C 14.78594 32.60686 -0.0331
C 16.02873 31.86497 -0.00316
C 16.01994 30.48573 0.02188
C 14.80097 29.85957 -0.01979
C 14.65247 28.38602 0.02691
C 15.92927 27.6299 -0.01581
C 18.51462 2.08015 -0.00652
C 13.59777 30.55851 0.00213
C 18.54008 0.71681 0.0058
C 19.76344 32.65638 0.00675
C 22.07619 29.78078 0.03046
C 22.13 28.37178 0.0296
C 23.32844 27.66222 0.03374
C 23.29111 26.28451 -0.02845
C 22.07919 25.59852 -0.03213
C 22.15998 24.19099 0.02239
C 23.29949 30.48963 -0.00381
C 23.32955 23.34669 0.01153
C 21.91497 21.24733 -0.0055
C 22.0321 19.80926 0.01515
C 23.25579 19.07205 -0.00225
C 23.19307 17.59768 0.00071
C 23.4032 14.65383 -0.01107
C 22.18516 2.927 -0.01586
C 23.25067 22.00762 0.02734
C 23.3017 31.91709 0.01852
C 22.13776 32.68603 0.01126
C 19.7465 0.02566 -0.01185
C 20.92912 31.94497 -0.00311
C 20.9135 30.58183 0.00742
C 19.6397 29.74714 -0.01594
C 19.72447 28.26709 0.0106
C 20.92605 27.62051 -0.01154
C 20.85595 26.20492 -0.01721
C 19.55439 25.43454 -0.02422
C 19.59018 24.05274 0.01277
C 20.91829 23.44707 0.00096
C 20.80317 22.00264 -0.01527
C 19.51558 21.76836 0.01087
C 18.89284 4.2564 0.00199
C 19.56784 3.15765 0.01511
C 20.90296 2.45814 -0.00478
C 20.91999 0.75377 -0.01662
C 17.24672 0.05278 -0.00865
C 13.57887 31.92886 -0.05302
C 12.35881 32.70947 -0.04147
C 9.84787 34.03363 -0.02815
C 2.39832 7.21017 -0.02689
C 3.73706 6.44969 -0.01046
C 3.68509 5.04735 -0.00891
C 2.47894 4.3344 0.02819
C 2.48031 2.90471 0.00165
C 3.6755 2.18341 -0.02971
C 2.27789 8.68448 -0.01536
C 3.68108 0.71161 0.02894
C 4.95616 32.58645 0.00444
C 6.18476 31.84863 -0.00925
C 6.19382 30.43991 0.01877
C 4.90598 29.76827 0.01363
C 4.73503 28.43574 -0.02162
C 5.96388 27.46332 0.00415
C 2.3987 0.06809 -0.01789
C 3.54174 9.34079 0.03101
C 3.53609 10.71168 -0.00428
C 2.22311 11.52803 -0.02245
C 3.69346 30.5813 -0.00719
C 2.42824 29.88764 0.01364
C 2.43223 28.42432 -0.01062
C 3.59695 27.70986 -0.00033
C 3.88715 26.26317 0.03589
C 2.6373 25.51431 -0.02759
C 2.52301 24.0122 0.0402
C 3.28355 22.88918 0.00572
C 2.53359 21.53339 0.03592
C 2.31299 20.06633 0.00406
C 2.37551 17.21669 0.00943
C 2.60374 15.8493 0.02841
C 3.67636 14.86966 -0.01111
C 3.60417 13.56832 -0.01275
C 2.26192 12.90416 0.00985
C 5.39276 26.24584 -0.0014
C 4.6897 12.68607 0.02162
C 4.71146 11.39894 0.0076
C 6.0956 9.26112 0.01241
C 7.36468 4.35706 -0.00114
C 7.37128 2.87992 0.00228
C 8.65978 2.13768 0.00798
C 8.60388 0.75787 0.00422
C 7.3971 34.03744 0.0351
C 9.80264 32.68543 -0.03113
C 11.02424 32.04298 0.02098
C 11.00905 30.55168 0.01848
C 9.82956 29.82225 -0.00619
C 9.72668 28.36977 -0.02162
C 10.98404 4.98474 0.00889
C 9.78381 4.27691 -0.00481
C 9.89985 2.79293 0.00979
C 11.06893 2.15086 0.01443
C 11.0827 0.76444 0.03505
C 8.56331 5.03704 -0.02696
C 23.44043 2.09576 -0.01971
C 8.74841 6.36566 -0.00368
C 7.26778 8.5557 -0.01957
C 4.85407 8.69492 -0.01454
C 4.96086 7.17533 0.01945
C 6.20206 6.43927 0.01416
C 6.13642 5.0106 0.03542
C 4.93883 4.33067 0.02299
C 4.95584 2.92382 0.00244
C 6.15383 2.18049 -0.01717
C 6.22762 0.7871 0.05265
C 4.94989 0.02779 -0.01952
C 7.36215 32.59844 -0.02813
C 8.59905 31.9078 0.00374
C 8.52188 30.42794 0.00052
C 7.32837 29.6532 -0.03682
C 7.25585 28.08383 0.01965
C 8.51963 27.6864 0.02058
C 7.57703 7.23946 -0.0108
C 23.34829 0.57392 -0.02118
C 22.08778 0.06332 0.00733
C 24.60102 32.61984 -0.00178
C 31.97025 24.12914 -0.02383
C 33.1859 23.55415 -0.01429
C 33.11401 22.14416 -0.0136
C 31.9068 21.4018 0.00594
C 31.85032 19.88584 -0.02474
C 33.01399 19.16847 0.00369
C 31.95723 25.64153 0.01574
C 33.1038 17.65502 0.00455
C 32.05519 15.31101 -0.01839
C 33.46271 14.54252 0.00137
C 33.08455 10.81877 0.00199
C 33.09992 9.39597 0.04381
C 31.9974 8.60849 0.02806
C 31.95697 7.08062 0.01504
C 31.88697 16.86374 -0.00644
C 33.23233 26.33527 0.01927
C 33.18421 27.76193 0.03794
C 31.94585 28.4599 -0.01779
C 28.84629 12.18451 0.01518
C 30.75691 9.20621 0.01908
C 29.51421 8.63222 0.07705
C 29.51816 7.24393 0.0103
C 30.66147 6.4121 0.02108
C 30.59087 5.04127 0.00716
C 29.3538 4.32089 0.00307
C 29.41507 2.91574 0.00346
C 30.67593 2.22292 0.01713
C 30.73016 0.80965 -0.01694
C 29.53923 0.06747 0.01428
C 31.99253 32.70286 -0.02142
C 33.18375 32.03183 0.0544
C 33.15484 30.58593 0.00026
C 31.96628 29.85887 0.00682
C 33.199 6.42742 -0.00069
C 33.14573 4.98474 0.04926
C 31.89801 4.38287 -0.03838
C 31.94765 2.88583 0.00349
C 0.0441 15.6236 0.02114
C 1.2917 15.12617 -0.02957
C 1.15188 13.70871 0.00343
C 34.22017 13.30782 -0.02656
C 34.02437 11.78281 -0.02442
C 0.90961 10.87257 -0.00027
C 1.01211 9.43775 -0.00583
C 34.33672 8.71323 -0.02302
C 34.37003 7.19281 -0.02849
C 1.20226 6.48657 0.02931
C 1.21632 5.03154 0.00628
C 34.41068 4.31147 -0.0345
C 34.371 2.91235 -0.00931
C 1.18528 2.16753 -0.00939
C 1.17892 0.79969 -0.00468
C 34.37119 16.96951 0.00648
C 30.80017 14.80356 -0.00971
C 1.15659 17.84413 0.01223
C 34.27733 19.89615 0.01951
C 33.16723 2.24175 -0.00323
C 33.16327 0.83632 -0.00841
C 31.98504 0.09011 0.0001
C 0.02795 32.74408 -0.02927
C 1.23725 32.02725 -0.01404
C 1.19198 30.6158 0.01027
C 34.38242 29.85493 0.01831
C 34.4317 28.42242 -0.01037
C 1.14442 27.66061 -0.00439
C 1.33182 26.26394 -0.00598
C 0.01849 25.65583 -0.05239
C 34.34817 24.20918 0.03076
C 1.16768 23.48702 0.00723
C 1.11683 22.11513 0.02712
C 34.33887 21.35414 -0.02213
C 1.16412 19.35679 -0.01678
C 3.71002 31.98146 0.01641
C 29.48604 15.42725 -0.03735
C 30.66405 17.60388 -0.02155
C 25.5627 5.02335 -0.01052
C 24.39157 4.20749 -0.01679
C 24.59487 2.82955 0.00367
C 25.86665 2.1278 0.04306
C 25.79165 0.69496 0.00996
C 24.56919 33.99966 0.00195
C 25.78661 6.44142 0.00684
C 27.06813 32.70342 -0.00802
C 28.23981 30.64304 -0.01654
C 27.0116 29.85554 -0.00037
C 27.04297 28.41874 -0.0032
C 28.29762 27.75127 0.00622
C 28.28197 26.29237 -0.02815
C 27.01506 25.52746 -0.00942
C 28.34454 32.04299 -0.00218
C 25.73527 13.4474 -0.01154
C 25.77365 14.79789 -0.0264
C 24.51162 15.4488 -0.00938
C 25.81738 31.94203 0.00768
C 25.75725 30.51135 -0.0276
C 24.54155 29.76933 0.03005
C 24.56235 28.39236 -0.04078
C 25.78567 27.69766 0.02117
C 25.8414 26.26419 0.02737
C 24.62094 25.50505 -0.00498
C 24.5454 24.14775 0.00135
C 25.78361 23.40057 0.03102
C 25.69174 21.99487 0.02555
C 24.42175 21.25366 0.01423
C 24.45354 19.89452 -0.00285
C 25.69701 19.14047 -0.009
C 25.71581 17.71683 -0.01199
C 24.40362 16.88162 -0.00229
C 27.03363 24.14123 0.00487
C 28.29912 23.40667 0.00826
C 28.19318 21.98955 -0.00294
C 26.91949 21.30699 0.00152
C 27.00771 0.03786 0.02326
C 29.59652 32.70951 0.00261
C 30.80043 32.01416 0.03265
C 30.75725 30.60144 -0.02049
C 29.49508 29.95874 -0.01854
C 29.52012 28.49589 -0.01415
C 30.75523 27.7837 -0.03039
C 30.66112 26.33103 0.01836
C 29.4253 25.52593 0.03531
C 29.53953 24.13997 -0.00669
C 30.72249 23.45319 0.0101
C 30.7005 22.04534 0.01705
C 29.41605 21.33018 -0.0405
C 29.3827 19.85996 -0.01303
C 30.63352 19.11008 -0.01461
C 28.19006 0.7515 0.00924
C 29.38119 16.9648 -0.00944
C 28.25565 2.10814 0.0014
C 26.92098 4.30503 0.04266
C 26.92485 19.85095 0.01257
C 28.21947 19.16092 0.02316
C 28.18523 17.71162 0.04185
C 26.93067 16.96838 0.00194
C 27.03384 15.50883 -0.00621
C 28.23353 14.64468 0.02611
C 28.27354 13.24463 0.02198
C 26.58628 12.50122 0.01094
C 26.91411 11.01141 0.00235
C 28.28971 10.9072 0.01495
C 28.32168 9.37571 0.01259
C 26.98919 8.78052 0.01799
C 26.84801 7.20881 0.01699
C 28.20937 6.48012 -0.00416
C 28.16759 4.99475 0.01177
C 27.02798 2.87132 0.01324
C 2.46076 32.66634 0.02339
