424
Graphene
C 34.3503 33.99963 0.01295
C 12.28225 25.63291 0.00572
C 12.25546 24.17537 0.03592
C 13.46895 23.4599 0.00406
C 13.48595 22.00725 0.00943
C 12.2385 21.25929 0.02841
C 12.33193 19.89186 -0.01111
C 13.59834 19.21601 -0.01275
C 13.58597 17.79855 0.00985
C 12.34313 17.13932 -0.02245
C 12.32644 15.65158 -0.00428
C 13.43305 26.32964 0.0402
C 13.50028 14.94598 0.03101
C 12.35135 12.72551 -0.02689
C 12.31349 11.31331 -0.01046
C 13.53031 10.61489 -0.00891
C 13.57244 9.1445 0.02819
C 12.28742 8.50928 0.00165
C 12.30769 7.11513 -0.02971
C 13.52453 6.35482 0.02894
C 13.50399 4.92785 -0.01789
C 12.2386 4.24279 0.00444
C 12.17314 2.87106 -0.00925
C 13.59096 13.49003 -0.01536
C 13.5069 27.73917 -0.02759
C 12.29823 28.49964 0.03589
C 12.24898 29.89281 -0.00033
C 9.84942 19.91946 -0.01384
C 11.07867 19.20858 0.03693
C 11.0791 17.79215 0.01745
C 9.89463 17.05805 0.00488
C 9.86875 15.66407 -0.01004
C 11.06196 14.96528 -0.02896
C 11.06191 13.51578 -0.00131
C 9.81155 12.77202 -0.01118
C 9.87294 11.35371 -0.014
C 11.09743 10.68174 0.02147
C 11.04316 9.29327 0.00373
C 9.77254 8.48085 -0.00191
C 9.77325 7.0827 0.00438
C 11.08664 6.40586 0.01291
C 11.08111 5.02244 0.00093
C 9.76595 4.35032 0.00057
C 9.68337 2.88882 -0.01634
C 10.885 2.1526 -0.00334
C 10.97524 0.76228 0.02339
C 9.73597 0.101 0.01641
C 12.22141 32.71305 -0.00719
C 13.45111 31.98251 0.01364
C 13.44964 30.57316 -0.01062
C 13.41552 2.18672 0.01877
C 9.87691 21.31872 -0.00482
C 13.42945 0.71512 0.01363
C 14.7475 32.66511 0.00415
C 14.77996 2.86026 0.0351
C 16.06463 2.12278 -0.03113
C 16.02064 0.67595 0.02098
C 14.70687 0.05339 0.01848
C 17.10245 32.70709 -0.00619
C 18.36311 31.95879 -0.02162
C 18.3872 30.58149 0.00889
C 17.17952 29.82878 -0.00481
C 17.20949 28.42405 0.00979
C 18.38055 27.62603 0.01443
C 14.75152 4.24448 0.00422
C 18.37291 26.2594 0.03505
C 17.22435 24.08968 -0.04147
C 18.41484 23.34589 -0.05302
C 18.44681 21.95804 0.00213
C 17.16447 21.32257 -0.00066
C 17.16302 19.8397 -0.00289
C 18.40101 19.17098 0.00028
C 18.37757 17.73098 -0.02213
C 17.16107 17.04405 0.03698
C 17.26603 15.65702 -0.00109
C 18.44928 14.88444 -0.00491
C 17.14305 25.55033 -0.02815
C 15.97938 4.9684 0.00798
C 15.97033 6.32928 0.00228
C 14.76888 7.07216 -0.00114
C 15.9159 31.96687 -0.0014
C 15.88875 30.58826 0.02162
C 14.65474 29.87839 0.0076
C 14.6867 28.46082 0.01241
C 15.91963 27.74955 -0.01454
C 15.92968 26.2841 0.01945
C 14.66056 25.65022 0.01416
C 14.73683 24.21633 0.03542
C 15.96615 23.44323 0.02299
C 15.92787 22.06623 0.00244
C 14.77452 21.32075 -0.01717
C 14.7346 19.96392 0.05265
C 15.93664 19.15014 -0.01952
C 15.97729 17.71423 -0.02813
C 14.78844 17.057 0.00374
C 14.77826 15.58687 0.00052
C 15.96533 14.88878 -0.03682
C 15.99888 13.46248 0.01965
C 14.77781 12.80701 0.02058
C 14.76637 11.33792 -0.01957
C 15.99293 10.62326 -0.0108
C 16.02628 9.19083 -0.00368
C 14.84187 8.54884 -0.02696
C 12.19353 0.08092 -0.02162
C 18.45458 13.43373 0.03338
C 11.04943 22.08814 0.02888
C 9.90813 24.20171 0.00895
C 3.61189 2.17728 -0.01979
C 3.59694 0.69762 0.02784
C 2.39833 34.07464 -0.01977
C 4.91706 32.73885 -0.00561
C 6.15884 31.98457 0.00208
C 6.15948 30.57409 0.01707
C 4.89382 29.83742 0.02769
C 4.90284 28.51407 -0.03291
C 6.15961 27.71275 -0.04999
C 6.13539 26.25695 0.04505
C 2.3812 2.86107 -0.00449
C 4.95629 25.55167 0.03284
C 6.20494 23.47772 0.03189
C 6.17741 22.09442 0.00031
C 4.93784 21.30179 -0.003
C 4.96605 19.88639 0.01402
C 6.17915 19.14743 0.02379
C 6.1839 17.74214 0.00907
C 4.86106 17.15005 0.00643
C 4.92371 15.71674 -0.01509
C 6.08398 14.96304 0.03267
C 6.13261 13.46467 0.02374
C 4.93244 24.11693 -0.04307
C 2.29896 4.2945 0.00211
C 3.5549 5.08438 0.0064
C 3.62611 6.44875 -0.00039
C 3.68889 30.50644 -0.02827
C 2.47197 29.74095 0.01078
C 2.46242 28.35663 -0.00112
C 3.71249 27.70889 0.03345
C 3.73494 26.22956 0.00748
C 2.45754 25.58865 0.00662
C 2.49035 24.17307 -0.0154
C 3.62731 23.42906 -0.01299
C 3.66376 21.98978 -0.00407
C 2.42254 21.29839 0.01138
C 2.40596 19.93179 0.03278
C 3.67061 19.18729 -0.00177
C 3.63106 17.73756 0.04421
C 2.41177 17.06855 0.00088
C 2.3791 15.64242 0.00828
C 3.64396 14.96306 -0.02375
C 3.65881 13.57175 0.00558
C 2.45036 12.79875 -0.0059
C 2.31606 11.37128 -0.01386
C 3.62039 10.63638 -0.02805
C 3.64337 9.21495 0.00081
C 2.38689 8.52601 0.00245
C 2.31929 7.08654 0.02728
C 4.83761 12.81741 0.00402
C 11.07146 23.44624 0.00685
C 4.86783 11.39796 0.0073
C 6.11337 9.30237 0.03828
C 8.59315 13.48849 0.00873
C 7.38275 12.78589 -0.00049
C 7.38384 11.43787 0.00848
C 8.57017 10.68357 -0.01303
C 8.57671 9.2901 -0.01378
C 7.34112 8.57728 0.02635
C 7.36128 7.13934 0.0127
C 8.55963 6.42234 0.01396
C 8.5282 5.02466 0.01849
C 7.30295 4.33894 -0.01142
C 8.62811 14.8911 0.01227
C 7.28185 2.93035 -0.00562
C 8.43943 0.75851 0.00054
C 7.24066 0.1573 0.03007
C 9.74467 32.81191 -0.00095
C 11.0108 32.05025 0.01572
C 10.97851 30.62479 -0.04848
C 9.69788 29.8791 -0.00892
C 9.8101 28.48155 -0.01362
C 11.03523 27.77194 -0.0008
C 11.03133 26.3711 0.0288
C 9.77966 25.60228 0.00393
C 8.43691 2.20664 -0.00494
C 7.46387 15.63433 -0.03337
C 7.41597 17.0547 -0.00966
C 8.63492 17.81815 -0.02929
C 4.84638 8.61424 0.01226
C 4.80361 7.23025 -0.00279
C 5.99688 6.52034 0.01996
C 6.10423 5.08344 -0.03996
C 4.77681 4.35986 0.01465
C 4.79518 2.93343 -0.00074
C 6.02719 2.26858 -0.00518
C 6.02617 0.85709 0.0086
C 4.86254 0.11213 -0.00643
C 7.31278 32.74112 0.017
C 8.51609 32.10497 -0.03113
C 8.54675 30.66384 -0.02566
C 7.38873 29.88899 -0.00094
C 7.41521 28.48909 0.02322
C 8.54701 27.81673 -0.00725
C 8.53585 26.38497 -0.05697
C 7.36442 25.62079 0.01087
C 7.41964 24.20579 -0.01343
C 8.75699 23.48165 0.00988
C 8.64031 22.03002 0.0276
C 7.37961 21.33513 0.01305
C 7.37227 19.93637 -0.00077
C 8.59365 19.22733 0.03368
C 6.13836 10.6766 0.0174
C 17.1753 12.7793 -0.0258
C 17.17406 11.39663 -0.0331
C 18.43207 10.60972 -0.00316
C 30.72641 13.61277 -0.02155
C 29.48409 12.85481 -0.00944
C 29.43001 11.31025 -0.03735
C 30.61587 10.59609 -0.00971
C 30.67787 9.20964 0.01518
C 29.48971 8.43758 0.01908
C 29.44494 7.01137 0.07705
C 30.71925 6.35834 0.0103
C 30.60452 4.93059 0.02108
C 29.4321 4.19432 0.00716
C 30.74159 15.01514 -0.01461
C 29.49012 2.7196 0.00307
C 30.70316 0.61016 0.01713
C 29.45228 33.9756 -0.01694
C 32.03635 32.57703 0.01428
C 33.18313 31.80127 -0.02142
C 33.2425 30.42679 0.0544
C 32.0685 29.7187 0.00026
C 32.10512 28.34673 0.00682
C 33.26176 27.58403 -0.01779
C 33.25075 26.2278 0.03794
C 31.99468 25.44997 0.01927
C 30.70289 2.01531 0.00346
C 29.53248 15.74336 -0.01303
C 29.64732 17.25481 -0.0405
C 30.80338 18.05112 0.01705
C 27.09232 15.69249 0.01094
C 28.29677 14.90678 0.00235
C 28.31512 13.52289 0.01495
C 27.02332 12.77816 0.01259
C 27.05113 11.45856 0.01799
C 28.20953 10.66642 0.01699
C 28.26108 9.2153 -0.00416
C 27.02796 8.50067 0.01177
C 27.02467 7.10009 0.04266
C 28.2703 6.33602 0.01324
C 28.21014 4.93639 0.0014
C 26.96802 4.28116 0.00924
C 26.94942 2.87869 0.02326
C 28.28595 2.07008 0.00261
C 28.25368 0.63159 0.03265
C 26.99744 0.02222 -0.02049
C 29.54434 32.56847 -0.01854
C 30.79803 31.89833 -0.01415
C 30.78973 30.44197 -0.03039
C 29.55386 29.79024 0.01836
C 29.55921 28.30575 0.03531
C 30.81599 27.67244 -0.00669
C 30.88919 26.1879 0.0101
C 33.12851 23.38379 0.01574
C 27.04765 17.04641 0.02198
C 33.09764 22.12754 -0.02383
C 33.00192 19.15235 -0.0136
C 1.19545 23.4581 0.00723
C 1.17601 22.0149 0.02712
C 34.23163 21.27466 -0.02213
C 34.30368 19.86528 0.01951
C 1.16972 19.20683 -0.01678
C 1.19628 17.7939 0.01223
C 0.02462 17.09331 0.00648
C 34.42546 15.68091 0.02114
C 1.16673 14.98808 -0.02957
C 1.12386 13.48614 0.00343
C 34.33082 24.13676 0.03076
C 34.30138 12.77511 -0.02656
C 1.094 10.60121 -0.00027
C 1.15195 9.22675 -0.00583
C 34.35022 8.45585 -0.02302
C 34.32694 6.99227 -0.02849
C 1.16287 6.35629 0.02931
C 1.06345 5.01346 0.00628
C 34.27137 4.2746 -0.0345
C 34.36651 2.7993 -0.00931
C 1.1399 2.0601 -0.00939
C 1.0951 0.68936 -0.00468
C 34.35025 11.32063 -0.02442
C 0.05646 25.51521 -0.05239
C 1.2208 26.23531 -0.00598
C 1.25838 27.60508 -0.00439
C 33.30787 17.77496 0.00594
C 32.08451 17.11237 -0.02474
C 31.9311 15.73983 0.00369
C 33.19609 15.07211 0.00455
C 33.1216 13.61932 -0.00644
C 31.96917 12.79862 -0.01839
C 31.8523 11.3857 0.00137
C 33.12703 10.66644 0.00199
C 33.11956 9.21021 0.04381
C 31.90937 8.49872 0.02806
C 31.91717 7.05953 0.01504
C 33.09159 6.27227 -0.00069
C 33.01186 4.89289 0.04926
C 31.80894 4.12247 -0.03838
C 31.92136 2.65066 0.00349
C 33.16131 2.06196 -0.00323
C 33.16283 0.67246 -0.00841
C 31.92017 34.01629 0.0001
C 34.36164 32.54928 -0.02927
C 1.22821 31.92163 -0.01404
C 1.23835 30.52749 0.01027
C 0.05798 29.76909 0.01831
C 0.00249 28.27254 -0.01037
C 31.57486 19.43688 -0.01429
C 28.34161 27.53826 0.02611
C 27.23899 28.36593 -0.00621
C 27.11859 29.81101 0.00194
C 20.90289 14.91302 0.00742
C 20.88497 13.53749 -0.01594
C 19.62816 12.77543 0.0106
C 19.67178 11.35292 -0.01154
C 20.8848 10.6823 -0.01721
C 20.93104 9.30849 -0.02422
C 19.66222 8.48336 0.01277
C 19.66381 7.11158 0.00096
C 20.88506 6.32877 -0.01527
C 20.91591 4.97557 0.01087
C 19.68462 15.56387 -0.00311
C 19.71015 4.35228 0.00199
C 20.8683 2.11829 -0.00478
C 20.82717 0.70563 -0.01662
C 19.65698 34.02092 -0.01185
C 22.12258 32.73452 0.01126
C 23.38263 31.90559 0.01852
C 23.30593 30.47115 -0.00381
C 22.09667 29.85208 0.03046
C 22.1392 28.42673 0.0296
C 23.34062 27.70159 0.03374
C 23.33558 26.22315 -0.02845
C 19.71113 2.84448 0.01511
C 19.60236 16.99007 0.00675
C 20.81927 17.73476 -0.00865
C 20.88217 19.09671 0.0058
C 18.40322 9.1673 0.02188
C 17.22299 8.51423 -0.01979
C 17.18497 7.08773 0.02691
C 18.43464 6.43165 -0.01581
C 18.42006 4.98465 0.01452
C 17.23986 4.28607 0.04892
C 17.27972 2.80127 -0.00111
C 18.50055 2.14399 -0.03557
C 18.39523 0.683 0.03754
C 17.19343 0.01643 0.01739
C 19.58658 32.6456 0.00755
C 20.8811 32.01607 -0.0054
C 20.88522 30.58722 0.00667
C 19.65584 29.84909 0.00143
C 19.62711 28.37023 -0.017
C 20.88286 27.63956 0.00364
C 20.84229 26.28574 -0.00831
C 19.6063 25.54631 -0.02957
C 19.57649 24.09648 -0.04422
C 20.81942 23.37232 0.00654
C 20.8598 22.00042 -0.00703
C 19.62623 21.26554 -0.04076
C 19.68202 19.83602 -0.00652
C 22.06407 25.59415 -0.03213
C 22.08558 24.02275 0.02239
C 23.16172 23.29896 0.01153
C 23.24234 21.95819 0.02734
C 25.7374 26.28464 -0.01154
C 24.52237 25.68535 0.00684
C 25.84908 17.71483 -0.01052
C 24.57401 17.04698 -0.01679
C 24.65829 15.58817 0.00367
C 25.84513 14.87321 0.04306
C 25.81924 13.47281 0.00996
C 24.60652 12.72907 0.00195
C 24.58209 11.34396 -0.00802
C 25.85269 10.68953 -0.00218
C 25.824 9.27458 -0.01654
C 24.6282 8.58459 -0.00037
C 24.59771 7.12331 -0.0032
C 25.8274 6.40757 0.00622
C 25.76671 4.9726 -0.02815
C 24.57816 4.23007 -0.00942
C 24.57212 2.77557 0.00487
C 25.83558 2.12399 0.00826
C 25.76772 0.70284 -0.00294
C 24.53518 0.03148 0.00152
C 27.01706 32.56715 0.01257
C 28.32124 31.9454 0.02316
C 28.34814 30.49623 0.04185
C 25.90281 27.72859 -0.0264
C 3.70312 31.9719 -0.01471
C 24.56236 28.41461 -0.00938
C 25.82334 30.53714 -0.01199
C 22.04847 21.25906 -0.0055
C 22.09566 19.79637 0.01515
C 23.37993 19.09939 -0.00225
C 23.37774 17.71584 0.00071
C 22.08351 17.02896 -0.01107
C 22.16413 15.55909 -0.01586
C 23.42431 14.85711 -0.01971
C 23.40231 13.46209 -0.02118
C 22.13512 12.76377 0.00733
C 22.15391 11.42999 -0.00178
C 23.37129 10.6643 0.00768
C 23.42009 9.2634 -0.0276
C 22.12649 8.52141 0.03005
C 22.18375 7.07499 -0.04078
C 23.39133 6.33027 0.02117
C 23.39843 4.92645 0.02737
C 22.11695 4.28653 -0.00498
C 22.05643 2.78461 0.00135
C 23.2998 2.10003 0.03102
C 23.31541 0.73232 0.02555
C 22.0869 34.07658 0.01423
C 24.57034 32.67088 -0.00285
C 25.79448 31.93922 -0.009
C 24.58419 29.82696 -0.00229
C 2.44219 32.66815 0.01218
