387
Graphene
C 0.01038 0.03995 0.01295
C 9.89262 4.25012 0.00415
C 9.80627 2.91618 -0.0014
C 11.07264 2.17044 0.02162
C 11.09616 0.68386 0.0076
C 9.87456 0.04543 0.01241
C 12.3095 32.66781 -0.01454
C 13.4754 31.91755 0.01945
C 13.4603 30.52025 0.01416
C 12.26464 29.71199 0.03542
C 11.06416 4.95254 -0.02162
C 12.36356 28.41186 0.02299
C 13.56322 26.23178 -0.01717
C 12.34755 25.53513 0.05265
C 12.33738 24.10851 -0.01952
C 13.5057 23.48765 -0.02813
C 13.47356 21.93305 0.00374
C 12.32304 21.2375 0.00052
C 12.23851 12.71782 -0.03682
C 12.36249 11.3023 0.01965
C 13.49455 10.6067 0.02058
C 13.52058 27.71957 0.00244
C 13.53078 9.17129 -0.01957
C 11.03661 6.45039 0.01363
C 9.76009 8.58983 -0.00925
C 9.85473 29.87799 0.03592
C 9.86122 28.43191 0.00406
C 11.09786 27.71871 0.00943
C 11.08903 26.27965 0.02841
C 9.80766 25.59512 -0.01111
C 9.85153 24.1402 -0.01275
C 11.09773 23.46879 0.00985
C 11.07616 22.08955 -0.02245
C 9.8061 21.31682 -0.00428
C 9.82173 7.18899 0.01877
C 9.86345 19.8169 0.03101
C 11.09585 17.80971 -0.02689
C 9.90018 17.06444 -0.01046
C 9.96707 15.61318 -0.00891
C 11.03995 14.84819 0.02819
C 11.09729 13.5313 0.00165
C 9.84944 12.74432 -0.02971
C 9.77751 11.3543 0.02894
C 11.08528 10.64049 -0.01789
C 11.14134 9.24796 0.00444
C 11.04913 19.13125 -0.01536
C 12.31887 8.54192 -0.0108
C 12.26124 7.19346 -0.00368
C 13.51353 6.42006 -0.02696
C 15.96873 2.05587 -0.00491
C 15.98683 0.66515 0.03338
C 14.75668 0.03379 -0.0258
C 17.20285 32.64505 -0.0331
C 18.40587 31.97893 -0.00316
C 18.44627 30.57198 0.02188
C 17.24532 29.81859 -0.01979
C 17.28033 28.46254 0.02691
C 18.45447 27.65112 -0.01581
C 14.767 2.82647 -0.00109
C 18.45383 26.26897 0.01452
C 17.23695 24.07046 -0.00111
C 17.15586 11.3221 -0.03557
C 18.42399 10.66377 0.03754
C 18.45974 9.16624 0.01739
C 17.22929 8.48777 0.00755
C 17.20788 7.13792 -0.0054
C 18.40855 6.37402 0.00667
C 18.40704 4.97723 0.00143
C 17.16154 4.30877 -0.017
C 17.20522 25.57569 0.04892
C 14.74971 4.26773 0.03698
C 16.00986 4.94483 -0.02213
C 16.02105 6.3804 0.00028
C 13.53749 4.99853 -0.00114
C 12.30403 4.3019 0.00228
C 12.33031 2.87961 0.00798
C 13.52266 2.12632 0.00422
C 13.52161 0.65744 0.0351
C 12.27668 34.02543 -0.03113
C 14.74716 32.64925 0.02098
C 16.02149 31.96426 0.01848
C 15.96188 30.52559 -0.00619
C 14.70801 29.8583 -0.02162
C 14.70741 28.4376 0.00889
C 15.97356 27.70016 -0.00481
C 15.92835 26.28154 0.00979
C 14.75834 25.57281 0.01443
C 14.80036 24.1054 0.03505
C 16.0115 23.44342 -0.02815
C 14.72287 11.28225 -0.04147
C 15.93363 10.65765 -0.05302
C 15.9829 9.18102 0.00213
C 14.70825 8.48406 -0.00066
C 14.79271 7.06101 -0.00289
C 11.11632 30.53867 0.00572
C 17.17736 2.9036 0.00364
C 11.09745 31.90543 0.0402
C 7.34575 0.03871 0.03589
C 3.66845 4.9969 -0.00643
C 2.46555 4.30816 0.017
C 2.48123 2.79048 -0.03113
C 3.66729 2.14369 -0.02566
C 3.63132 0.73318 -0.00094
C 2.42697 34.05899 0.02322
C 4.90566 32.6614 -0.00725
C 6.15981 32.02293 -0.05697
C 6.16559 30.49668 0.01087
C 3.69867 6.42044 0.0086
C 4.94103 29.83596 -0.01343
C 6.16057 27.72156 0.0276
C 6.06794 26.36139 0.01305
C 4.92838 25.60467 -0.00077
C 4.92056 24.13573 0.03368
C 6.12211 23.43187 -0.02929
C 6.09892 22.03797 -0.00966
C 4.94448 21.25796 -0.03337
C 4.9878 19.89712 0.01227
C 6.14906 19.17578 0.00873
C 4.98917 28.38931 0.00988
C 6.16187 17.75732 -0.00049
C 2.39527 7.07137 -0.00518
C 3.65601 9.31827 0.01465
C 3.68916 30.50459 0.03284
C 2.48248 29.7786 -0.04307
C 2.42928 28.3987 0.03189
C 3.73989 27.68045 0.00031
C 3.65498 26.23979 -0.003
C 2.49772 25.54164 0.01402
C 2.35362 24.10698 0.02379
C 3.65789 23.53268 0.00907
C 3.6445 22.07576 0.00643
C 2.42796 8.53262 -0.00074
C 2.47981 21.35917 -0.01509
C 3.71146 19.09789 0.02374
C 3.74569 17.77018 0.00402
C 2.50166 17.09637 0.0073
C 2.45812 15.66889 0.0174
C 3.6729 14.89633 0.03828
C 3.62535 13.43498 0.01226
C 2.42654 12.75878 -0.00279
C 2.49021 11.37149 0.01996
C 3.705 10.63728 -0.03996
C 2.48173 19.90668 0.03267
C 4.94907 17.09362 0.00848
C 4.87585 15.62925 -0.01303
C 6.19325 14.89547 -0.01378
C 7.41842 21.3187 -0.01004
C 7.40758 19.94319 -0.02896
C 8.56672 19.05585 -0.00131
C 8.59344 17.71887 -0.01118
C 7.33047 17.04068 -0.014
C 7.3337 15.5753 0.02147
C 8.62373 14.9222 0.00373
C 8.61352 13.53337 -0.00191
C 7.36899 12.8219 0.00438
C 8.62866 21.95713 0.00488
C 7.36614 11.40749 0.01291
C 8.59185 9.28109 0.00057
C 7.41729 8.5508 -0.01634
C 7.37724 7.10068 -0.00334
C 8.62834 6.41371 0.02339
C 8.65907 5.02528 0.01641
C 7.3797 4.28258 -0.00719
C 7.33855 2.89642 0.01364
C 8.64726 2.14504 -0.01062
C 8.62191 0.78281 -0.00033
C 8.58309 10.68501 0.00093
C 8.64542 23.48652 0.01745
C 7.33661 24.21655 0.03693
C 7.31977 25.6127 -0.01384
C 6.17582 13.51133 0.02635
C 4.86234 12.77786 0.0127
C 4.93295 11.39883 0.01396
C 6.16414 10.65077 0.01849
C 6.17295 9.21971 -0.01142
C 4.892 8.5655 -0.00562
C 4.90648 7.15143 -0.00494
C 6.17534 6.39459 0.00054
C 6.08972 4.96123 0.03007
C 4.8592 4.29179 -0.00095
C 4.90299 2.81294 0.01572
C 6.1503 2.12372 -0.04848
C 6.07525 0.75929 -0.00892
C 4.86327 0.02036 -0.01362
C 7.43066 32.73741 -0.0008
C 8.62184 31.92052 0.0288
C 8.59332 30.5568 0.00393
C 7.3324 29.82499 0.00895
C 7.38582 28.41527 0.00685
C 8.58163 27.73363 0.02888
C 8.50308 26.26812 -0.00482
C 9.79797 32.66323 -0.02759
C 3.66955 31.86755 0.04505
C 18.44587 2.20263 -0.00831
C 17.15564 34.07565 -0.04422
C 30.71875 5.00909 0.07705
C 29.53162 4.24354 0.0103
C 29.49565 2.84005 0.02108
C 30.74216 2.15476 0.00716
C 30.79412 0.69982 0.00307
C 29.55143 0.03481 0.00346
C 31.93723 32.62424 0.01713
C 33.1785 31.95155 -0.01694
C 33.19468 30.5291 0.01428
C 29.47392 12.88977 0.01908
C 32.02819 29.79636 -0.02142
C 33.22172 27.6279 0.00026
C 33.26575 26.23504 0.00682
C 31.96722 25.58484 -0.01779
C 31.97294 24.16483 0.03794
C 33.22172 23.43255 0.01927
C 33.19814 22.00024 0.01574
C 31.97982 21.28396 -0.02383
C 31.96035 19.91533 -0.01429
C 33.25797 19.22892 -0.0136
C 32.00261 28.3218 0.0544
C 33.24859 17.73295 0.00594
C 30.741 13.51041 0.01518
C 29.50529 15.66441 -0.03735
C 27.0713 2.78815 0.01324
C 28.23734 2.1176 0.0014
C 28.33435 0.65509 0.00924
C 27.02484 34.0187 0.02326
C 29.45858 32.67119 0.00261
C 30.68456 31.90181 0.03265
C 30.71224 30.53453 -0.02049
C 29.4888 29.82347 -0.01854
C 29.53548 28.35736 -0.01415
C 30.77057 14.91501 -0.00971
C 30.7531 27.72616 -0.03039
C 29.57399 25.52145 0.03531
C 29.50283 24.0506 -0.00669
C 30.76538 23.42441 0.0101
C 30.80276 21.98274 0.01705
C 29.49017 21.29271 -0.0405
C 29.51688 19.86095 -0.01303
C 30.74043 19.19084 -0.01461
C 30.74174 17.77531 -0.02155
C 29.54165 17.12799 -0.00944
C 30.72981 26.27492 0.01836
C 32.0171 17.09737 -0.02474
C 31.9452 15.64143 0.00369
C 33.21407 14.89846 0.00455
C 34.42631 21.29606 -0.02213
C 0.06403 19.92993 0.01951
C 1.27425 19.16507 -0.01678
C 1.20772 17.70499 0.01223
C 34.41878 17.05679 0.00648
C 0.00433 15.62734 0.02114
C 1.25498 14.97662 -0.02957
C 1.16108 13.42069 0.00343
C 34.39405 12.74453 -0.02656
C 1.19923 22.02331 0.02712
C 0.052 11.35733 -0.02442
C 1.14832 9.19449 -0.00583
C 34.34906 8.52947 -0.02302
C 34.40512 7.06345 -0.02849
C 1.18593 6.36759 0.02931
C 1.21139 4.90541 0.00628
C 34.41969 4.31011 -0.0345
C 0.01221 2.8736 -0.00931
C 1.24928 2.12957 -0.00939
C 1.23318 0.69742 -0.00468
C 1.18895 10.62187 -0.00027
C 1.14737 23.45351 0.00723
C 34.42739 24.17609 0.03076
C 0.04404 25.52423 -0.05239
C 33.21316 13.46158 -0.00644
C 31.93471 12.81027 -0.01839
C 31.96934 11.39857 0.00137
C 33.16308 10.72207 0.00199
C 33.14062 9.26029 0.04381
C 31.94235 8.45157 0.02806
C 31.97548 7.19977 0.01504
C 33.19107 6.39072 -0.00069
C 33.22466 4.97539 0.04926
C 31.93938 4.25411 -0.03838
C 31.94562 2.83292 0.00349
C 33.18655 2.15373 -0.00323
C 33.18838 0.77968 -0.00841
C 31.98023 34.01284 0.0001
C 34.42296 32.64014 -0.02927
C 1.17741 31.93799 -0.01404
C 1.22909 30.55049 0.01027
C 0.04276 29.82043 0.01831
C 34.36564 28.33947 -0.01037
C 1.18377 27.67818 -0.00439
C 1.25507 26.26879 -0.00598
C 27.01709 4.20779 0.04266
C 18.39465 0.7538 -0.02957
C 27.0478 12.74621 0.01177
C 28.29966 14.91636 0.01699
C 23.41035 30.52746 0.01852
C 22.13811 29.76882 -0.00381
C 22.1563 28.32509 0.03046
C 23.34756 27.64757 0.0296
C 23.3298 26.24853 0.03374
C 22.13318 25.54279 -0.02845
C 22.17196 24.10192 -0.03213
C 23.36265 23.47321 0.02239
C 23.30522 22.03534 0.01153
C 23.31602 31.91279 0.01126
C 23.36566 19.05399 0.02734
C 23.2667 13.53418 0.01515
C 22.18648 12.75049 -0.00225
C 22.1398 11.40268 0.00071
C 23.30117 10.63562 -0.01107
C 23.27394 9.16641 -0.01586
C 22.14903 8.50776 -0.01971
C 22.13882 7.06445 -0.02118
C 23.37228 6.32836 0.00733
C 23.39779 4.91799 -0.00178
C 23.41875 14.88052 -0.0055
C 22.10546 4.27326 0.00768
C 22.15367 32.56435 -0.01185
C 20.86205 0.67918 -0.00478
C 19.64442 32.69666 0.00654
C 20.94638 31.87953 -0.00703
C 20.99909 30.46954 -0.04076
C 19.66462 29.78269 -0.00652
C 19.6766 28.38674 0.0058
C 20.92425 27.68568 -0.00865
C 20.91827 26.24076 0.00675
C 19.71947 25.55858 -0.00311
C 19.69536 24.10185 0.00742
C 19.66209 0.03629 -0.01662
C 20.92555 23.41231 -0.01594
C 20.95008 10.68557 -0.01154
C 20.92326 9.28932 -0.01721
C 19.6854 8.54685 -0.02422
C 19.68862 7.01196 0.01277
C 20.88185 6.37829 0.00096
C 20.9136 4.98317 -0.01527
C 19.64884 4.317 0.01087
C 19.6558 2.84226 0.00199
C 20.91052 2.14455 0.01511
C 19.65844 11.36537 0.0106
C 22.11856 2.83463 -0.0276
C 23.38986 2.1581 0.03005
C 23.33094 0.7702 -0.04078
C 25.82136 2.08852 -0.0032
C 25.86141 0.75232 0.00622
C 24.63063 0.00899 -0.02815
C 27.10213 32.62608 -0.00942
C 28.21096 31.89903 0.00487
C 28.29887 30.54864 0.00826
C 27.03511 29.79552 -0.00294
C 27.18922 28.45221 0.00152
C 28.27806 27.70885 0.01257
C 24.61726 2.82359 -0.00037
C 28.29835 26.2407 0.02316
C 26.94978 24.16032 0.00194
C 28.19411 23.4466 -0.00621
C 28.24101 22.01317 0.02611
C 27.03668 21.29339 0.02198
C 27.07333 19.83244 0.01094
C 28.20676 19.11459 0.00235
C 28.27484 17.74451 0.01495
C 27.0176 17.05171 0.01259
C 27.01983 15.58732 0.01799
C 27.01775 25.57547 0.04185
C 24.60916 4.26124 -0.01654
C 25.88325 4.92878 -0.00218
C 24.54671 11.40487 -0.00802
C 22.13132 33.97883 0.02117
C 24.63666 32.65308 0.02737
C 25.83242 31.94056 -0.00498
C 25.83525 30.5464 0.00135
C 24.68326 29.89326 0.03102
C 24.60831 28.4054 0.02555
C 25.78813 27.62085 0.01423
C 25.80841 26.23962 -0.00285
C 24.58364 25.59135 -0.009
C 24.54927 24.17812 -0.01199
C 25.81764 23.41916 -0.00229
C 25.88832 22.06577 -0.00938
C 24.61029 21.34211 -0.0264
C 24.568 19.88089 -0.01154
C 25.80413 19.11459 0.00684
C 25.80488 17.76779 -0.01052
C 24.62698 17.05089 -0.01679
C 24.52354 15.62383 0.00367
C 25.79864 14.882 0.04306
C 25.83163 13.46334 0.00996
C 24.57538 12.73877 0.00195
C 28.28395 13.44834 -0.00416
C 2.48497 32.61731 -0.04999
