379
Graphene
C 34.34431 34.076 0.01295
C 13.44149 5.01646 0.01945
C 12.29468 4.22951 0.01416
C 12.31967 2.8155 0.03542
C 13.51564 2.1688 0.02299
C 13.57657 0.59492 0.00244
C 12.33034 0.13773 -0.01717
C 15.83372 22.0796 0.05265
C 14.55634 21.28871 -0.01952
C 14.75401 19.89059 -0.02813
C 15.93212 19.07895 0.00374
C 15.93365 17.6199 0.00052
C 14.8742 16.89929 -0.03682
C 14.81515 15.55351 0.01965
C 16.07442 14.81322 0.02058
C 16.1747 13.41484 -0.01957
C 14.80497 12.755 -0.0108
C 14.72628 11.3958 -0.00368
C 16.02693 10.64952 -0.02696
C 15.95077 9.2831 -0.00114
C 13.4731 6.40567 -0.01454
C 12.22298 7.16514 0.01241
C 12.21199 8.5717 0.0076
C 13.44834 9.2213 0.02162
C 9.81408 8.58405 0.00985
C 9.81699 7.21568 -0.02245
C 10.97745 6.38249 -0.00428
C 11.03724 4.99718 0.03101
C 9.75359 4.34762 -0.01536
C 9.8062 2.91786 -0.02689
C 11.03936 2.22423 -0.01046
C 11.0541 0.68422 -0.00891
C 9.77337 34.06649 0.02819
C 14.70803 8.54089 0.00228
C 13.12989 21.1924 0.00165
C 13.62782 19.03034 0.02894
C 13.67624 17.60047 -0.01789
C 12.30838 17.03734 0.00444
C 12.33259 15.67235 -0.00925
C 13.62266 14.88729 0.01877
C 13.55455 13.46981 0.01363
C 12.32439 12.81871 -0.02162
C 12.28781 11.43505 0.00415
C 13.50276 10.64577 -0.0014
C 12.43162 19.92553 -0.02971
C 14.72927 7.09231 0.00798
C 15.91068 6.44133 0.00422
C 16.03429 4.9367 0.0351
C 18.47824 9.17448 -0.00316
C 17.21689 8.57906 0.02188
C 17.18931 7.16319 -0.01979
C 18.39619 6.4064 0.02691
C 18.42711 5.01835 -0.01581
C 17.24382 4.27044 0.01452
C 17.29303 2.85313 0.04892
C 18.52679 2.14862 -0.00111
C 18.44427 0.70264 -0.03557
C 18.51747 10.56567 -0.0331
C 17.22232 0.09248 0.03754
C 20.77043 31.94535 0.00755
C 20.79373 30.48473 -0.0054
C 19.53446 29.80437 0.00667
C 19.48265 28.38308 0.00143
C 20.73597 27.63514 -0.017
C 20.76527 26.22742 0.00364
C 19.52982 25.48554 -0.00831
C 19.42227 24.12792 -0.02957
C 20.68134 23.33006 -0.04422
C 19.59346 32.64793 0.01739
C 11.02015 9.33682 -0.01275
C 17.33402 11.27953 -0.0258
C 18.6566 13.40587 -0.00491
C 14.69532 4.29594 -0.03113
C 14.70758 2.91006 0.02098
C 15.99424 2.21974 0.01848
C 15.94674 0.84577 -0.00619
C 14.82082 0.04205 -0.02162
C 17.19368 32.82605 0.00889
C 18.27674 31.90912 -0.00481
C 18.40664 30.58559 0.00979
C 18.39078 27.57884 0.01443
C 17.4161 12.6752 0.03338
C 18.40483 26.24858 0.03505
C 18.09503 23.28749 -0.04147
C 18.13025 21.8933 -0.05302
C 16.98559 21.14802 0.00213
C 17.14261 19.75215 -0.00066
C 18.37921 19.06943 -0.00289
C 18.47189 17.59683 0.00028
C 17.24332 16.88119 -0.02213
C 17.35088 15.51135 0.03698
C 18.60324 14.76728 -0.00109
C 16.78779 23.75244 -0.02815
C 20.68607 21.89561 0.00654
C 11.04653 10.68506 -0.01111
C 9.82977 12.84558 0.00943
C 3.60381 2.14863 0.01087
C 3.58326 0.73606 -0.01343
C 2.33422 0.07125 0.00988
C 4.80551 32.73126 0.0276
C 6.21675 32.11859 0.01305
C 6.0954 30.70795 -0.00077
C 4.74667 30.10584 0.03368
C 4.96091 28.85843 -0.02929
C 5.60012 27.78182 -0.00966
C 5.67741 26.47396 -0.03337
C 5.33768 25.33714 0.01227
C 5.32682 23.97905 0.00873
C 6.5489 23.18079 -0.00049
C 6.23906 21.83246 0.00848
C 4.92998 21.25696 -0.01303
C 4.89885 19.91717 -0.01378
C 6.1747 19.24301 0.02635
C 6.20907 17.86192 0.0127
C 4.93557 17.20136 0.01396
C 2.36819 2.90756 -0.05697
C 2.3677 4.30388 -0.00725
C 3.60491 5.0086 0.02322
C 3.66003 6.44609 -0.00094
C 3.45524 30.56349 0.00643
C 2.34094 29.72976 -0.01509
C 2.29859 28.13587 0.03267
C 2.60514 24.22735 0.02374
C 3.80703 23.52504 0.00402
C 3.66096 22.08489 0.0073
C 2.41547 21.42789 0.0174
C 2.40725 20.00366 0.03828
C 3.6522 19.27823 0.01226
C 4.98014 15.86269 0.01849
C 3.57039 17.87739 -0.00279
C 2.41757 15.66246 -0.03996
C 3.70774 15.02737 0.01465
C 3.62938 13.55139 -0.00074
C 2.45277 12.87786 -0.00518
C 2.4528 11.446 0.0086
C 3.641 10.70656 -0.00643
C 3.66279 9.31845 0.017
C 2.43553 8.56739 -0.03113
C 2.49246 7.17903 -0.02566
C 2.48618 17.14318 0.01996
C 6.1249 15.05534 -0.01142
C 6.07665 13.60834 -0.00562
C 4.8757 12.83095 -0.00494
C 7.34867 11.48194 0.00373
C 8.50373 10.77636 -0.00191
C 8.59459 9.38067 0.00438
C 7.27123 8.6293 0.01291
C 7.34491 7.17905 0.00093
C 8.59591 6.56124 0.00057
C 8.59023 5.08976 -0.01634
C 7.3572 4.38181 -0.00334
C 7.31271 2.98618 0.02339
C 7.33944 12.93994 0.02147
C 8.56232 2.25156 0.01641
C 7.38909 0.05445 0.01364
C 9.58894 21.49315 -0.01062
C 9.8731 20.08485 -0.00033
C 11.11455 19.3281 0.03589
C 11.05024 17.78611 -0.02759
C 9.8928 17.10536 0.0402
C 9.84478 15.65951 0.00572
C 11.07771 14.9932 0.03592
C 11.108 13.5689 0.00406
C 8.59758 0.76791 -0.00719
C 9.76595 11.42556 0.02841
C 8.5701 13.65693 -0.014
C 7.42084 15.75267 -0.00131
C 4.85678 11.48215 0.00054
C 6.12805 10.73671 0.03007
C 6.17282 9.33143 -0.00095
C 4.88968 8.56443 0.01572
C 4.87734 7.14254 -0.04848
C 6.12113 6.41251 -0.00892
C 5.97727 5.03268 -0.01362
C 4.81803 4.31382 -0.0008
C 4.79406 2.819 0.0288
C 8.63361 15.04191 -0.01118
C 6.02247 2.22954 0.00393
C 4.82811 0.11529 0.00685
C 7.445 32.71538 0.02888
C 7.97311 23.39585 -0.00482
C 8.5858 22.3837 -0.01384
C 7.53632 21.25488 0.03693
C 7.46361 19.86758 0.01745
C 8.684 19.22102 0.00488
C 8.69699 17.89897 -0.01004
C 7.48057 17.17786 -0.02896
C 6.13495 0.76298 0.00895
C 3.47881 32.03783 0.00907
C 19.47012 21.19112 -0.00703
C 20.85026 19.20002 -0.00652
C 29.40439 4.32242 0.02108
C 29.4375 2.9092 0.00716
C 30.6583 2.14414 0.00307
C 30.68609 0.67641 0.00346
C 29.41528 34.07387 0.01713
C 31.95491 32.69639 -0.01694
C 33.14739 32.01666 0.01428
C 33.06583 30.57041 -0.02142
C 31.86145 29.83775 0.0544
C 31.82556 28.40315 0.00026
C 33.08368 27.73227 0.00682
C 33.18565 26.34465 -0.01779
C 31.97312 25.67404 0.03794
C 31.95883 24.21039 0.01927
C 33.15151 23.51409 0.01574
C 33.10329 22.07391 -0.02383
C 31.85191 21.39585 -0.01429
C 31.83839 19.88742 -0.0136
C 33.03009 19.20376 0.00594
C 30.62675 4.93829 0.0103
C 30.71923 6.37165 0.07705
C 29.52374 7.11592 0.01908
C 29.47342 8.50054 0.01518
C 30.65497 30.53393 0.00924
C 29.45848 29.81207 0.02326
C 29.44681 28.39611 0.00261
C 30.64536 27.63171 0.03265
C 30.65986 26.25171 -0.02049
C 29.49575 25.5522 -0.01854
C 29.46407 24.08105 -0.01415
C 30.65692 23.44055 -0.03039
C 30.6791 22.06551 0.01836
C 33.09074 17.79464 -0.02474
C 29.41775 21.27381 0.03531
C 30.60084 18.99018 0.0101
C 30.60805 17.53582 0.01705
C 29.5496 15.68163 -0.0405
C 30.70442 14.94902 -0.01303
C 30.80761 13.56016 -0.01461
C 29.59173 12.87317 -0.02155
C 29.56767 11.41441 -0.00944
C 30.82562 10.66927 -0.03735
C 30.72807 9.15523 -0.00971
C 29.43528 19.7938 -0.00669
C 31.86963 16.9928 0.00369
C 31.90667 15.61046 0.00455
C 33.1388 14.89193 -0.00644
C 34.35297 21.37518 -0.02213
C 34.28219 19.94622 0.01951
C 1.13267 19.25678 -0.01678
C 1.20501 17.87262 0.01223
C 34.3964 17.18031 0.00648
C 34.35751 15.73931 0.02114
C 1.15907 14.94299 -0.02957
C 1.18871 13.57952 0.00343
C 34.41912 12.78467 -0.02656
C 1.22352 22.16573 0.02712
C 0.00965 11.3538 -0.02442
C 1.18315 9.20594 -0.00583
C 0.02703 8.54768 -0.02302
C 0.03605 7.12193 -0.02849
C 1.2437 6.43381 0.02931
C 1.0939 5.04832 0.00628
C 34.39695 4.26069 -0.0345
C 34.3156 2.84401 -0.00931
C 1.13234 2.18956 -0.00939
C 1.16903 0.72514 -0.00468
C 1.2206 10.72606 -0.00027
C 30.74089 31.93228 0.0014
C 1.31359 23.67235 0.00723
C 0.07609 25.82842 -0.05239
C 33.18193 13.53349 -0.01839
C 32.03909 12.80364 0.00137
C 32.08402 11.37957 0.00199
C 33.18373 10.56105 0.04381
C 33.16568 9.15613 0.02806
C 31.94865 8.4757 0.01504
C 31.94802 7.05127 -0.00069
C 33.13994 6.34488 0.04926
C 33.11816 4.90825 -0.03838
C 0.0428 24.39753 0.03076
C 31.92118 4.25276 0.00349
C 33.04492 2.10469 -0.00841
C 33.05204 0.7136 0.0001
C 31.87889 0.02729 -0.02927
C 34.32784 32.68712 -0.01404
C 1.11812 32.00039 0.01027
C 1.11508 30.5101 0.01831
C 34.30688 29.81906 -0.01037
C 34.27401 28.47101 -0.00439
C 1.05669 27.57477 -0.00598
C 31.87648 2.8199 -0.00323
C 19.64724 19.87277 -0.04076
C 29.40856 32.63156 0.01324
C 28.20958 0.7608 0.01177
C 23.19863 26.26474 0.03374
C 22.00579 25.50887 -0.02845
C 21.90417 24.07097 -0.03213
C 23.23628 23.39407 0.02239
C 23.07817 22.07264 0.01153
C 21.88209 21.36941 0.02734
C 22.36077 12.62033 -0.0055
C 22.22286 11.13077 0.01515
C 23.43968 10.53781 -0.00225
C 23.34766 9.14118 0.00071
C 22.09573 8.43919 -0.01107
C 22.07275 7.05605 -0.01586
C 23.27859 6.40606 -0.01971
C 23.30448 4.88062 -0.02118
C 22.15537 4.18873 0.00733
C 22.15106 2.79558 -0.00178
C 23.34916 2.14265 0.00768
C 23.30924 0.63735 -0.0276
C 21.99337 34.05639 0.03005
C 23.3029 27.63632 0.0296
C 22.10031 28.24994 0.03046
C 22.09872 29.70714 -0.00381
C 23.28187 30.43102 0.01852
C 20.85517 17.89333 0.0058
C 19.8013 16.94406 -0.00865
C 19.83829 15.5014 0.00675
C 21.08525 14.72616 -0.00311
C 21.23742 13.35886 0.00742
C 19.92717 12.73845 -0.01594
C 19.81513 11.30134 0.0106
C 20.97665 10.51947 -0.01154
C 20.82534 9.18021 -0.01721
C 24.48185 32.60195 -0.04078
C 19.645 8.48847 -0.02422
C 20.80703 6.31561 0.00096
C 20.94552 4.94478 -0.01527
C 19.69574 4.28925 0.01087
C 19.71464 2.84281 0.00199
C 20.90295 2.07962 0.01511
C 20.83332 0.72504 -0.00478
C 19.61736 0.02037 -0.01662
C 22.00193 32.62827 -0.01185
C 23.30779 31.89423 0.01126
C 19.66645 7.0652 0.01277
C 25.71624 31.94769 0.02117
C 25.78248 30.49393 0.02737
C 24.61759 29.72878 -0.00498
C 26.99118 28.3492 -0.02815
C 28.22442 27.7205 -0.00942
C 28.24253 26.23458 0.00487
C 27.03395 25.5214 0.00826
C 26.98558 24.14495 -0.00294
C 28.1934 23.39511 0.00152
C 28.13803 21.95749 0.01257
C 26.92061 21.48527 0.02316
C 28.34883 13.55046 0.04185
C 26.93629 29.76886 0.00622
C 27.13536 12.8978 0.00194
C 28.3075 10.75004 0.02611
C 28.25972 9.25486 0.02198
C 26.97926 8.62473 0.01094
C 26.8831 7.12367 0.00235
C 28.15533 6.33918 0.01495
C 28.15632 4.95553 0.01259
C 26.96222 4.18378 0.01799
C 27.02726 2.76884 0.01699
C 28.27152 2.16898 -0.00416
C 27.08879 11.48491 -0.00621
C 27.04533 34.07639 0.04266
C 28.18537 30.56298 -0.0032
C 26.97324 32.68675 -0.01654
C 24.56064 28.34077 0.00135
C 25.82939 27.58699 0.03102
C 25.7736 26.17804 0.02555
C 24.43467 25.62656 0.01423
C 24.44233 24.06854 -0.00285
C 25.6966 23.45376 -0.009
C 25.73566 22.03961 -0.01199
C 23.63996 12.76359 -0.00229
C 24.53837 11.43809 -0.00938
C 28.16062 31.97038 -0.00037
C 25.78309 10.75319 -0.0264
C 24.57348 8.45319 0.00684
C 24.49544 7.07996 -0.01052
C 25.81496 6.39184 -0.01679
C 25.75211 4.91353 0.00367
C 24.60207 4.17083 0.04306
C 24.61086 2.78233 0.00996
C 25.82731 2.0588 0.00195
C 25.73308 0.62169 -0.00802
C 24.55168 33.99143 -0.00218
C 25.81896 9.28835 -0.01154
C 2.29559 32.78785 0.02379
