358
Graphene
C 0.01331 0.06663 0.01295
C 11.03732 9.21522 -0.01957
C 9.87613 8.5428 -0.0108
C 9.8219 7.10555 -0.00368
C 11.07019 6.34766 -0.02696
C 11.00011 4.88847 -0.00114
C 9.72643 4.25917 0.00228
C 9.76274 2.88516 0.00798
C 11.01631 2.09886 0.00422
C 11.03982 10.67732 0.02058
C 10.96977 0.7187 0.0351
C 12.1839 32.70981 0.02098
C 13.44024 31.96936 0.01848
C 13.50804 30.49855 -0.00619
C 12.29855 29.81369 -0.02162
C 12.35955 28.36098 0.00889
C 13.62516 27.63783 -0.00481
C 13.62598 26.15159 0.00979
C 12.21335 25.5524 0.01443
C 9.73557 0.03476 -0.03113
C 12.19157 24.23966 0.03505
C 9.81335 11.35684 0.01965
C 11.14965 13.52966 0.00052
C 9.74723 32.61707 0.01363
C 11.01174 31.94675 -0.02162
C 11.03761 30.46132 0.00415
C 9.71547 29.71216 -0.0014
C 9.82838 28.27265 0.02162
C 11.10895 27.72561 0.0076
C 10.97356 26.3157 0.01241
C 9.51475 26.02823 -0.01454
C 9.90749 12.76899 -0.03682
C 9.22675 24.55893 0.01945
C 10.89971 22.26693 0.03542
C 9.72308 21.41824 0.02299
C 9.86808 19.89369 0.00244
C 11.11595 19.14497 -0.01717
C 11.0688 17.75018 0.05265
C 9.85022 17.06507 -0.01952
C 9.93287 15.6377 -0.02813
C 11.17078 14.88849 0.00374
C 10.77908 23.67925 0.01416
C 13.49425 23.43381 -0.02815
C 13.29998 21.99701 -0.04147
C 12.09048 21.26274 -0.05302
C 14.71801 29.78138 -0.0054
C 14.78675 28.32957 0.00667
C 16.05428 27.47098 0.00143
C 16.20996 26.12819 -0.017
C 14.88116 25.31343 0.00364
C 14.82499 23.75007 -0.00831
C 15.7388 22.2227 -0.02957
C 14.59908 21.35012 -0.04422
C 15.92783 30.47044 0.00755
C 14.65895 19.89981 0.00654
C 16.1241 17.92196 -0.04076
C 14.90533 17.08292 -0.00652
C 14.88813 15.70311 0.0058
C 15.93351 14.86623 -0.00865
C 15.96436 13.50214 0.00675
C 14.8366 12.81296 -0.00311
C 14.88779 11.35583 0.00742
C 16.03528 10.67355 -0.01594
C 15.84385 19.33953 -0.00703
C 15.84656 31.89961 0.01739
C 14.69719 32.66784 0.03754
C 12.2159 0.05803 -0.03557
C 12.31483 19.85518 0.00213
C 13.55023 19.18507 -0.00066
C 13.62978 17.77145 -0.00289
C 12.32945 17.06357 0.00028
C 12.3128 15.68593 -0.02213
C 13.61649 14.9365 0.03698
C 13.55724 13.5309 -0.00109
C 12.35632 12.81278 -0.00491
C 12.3024 11.34473 0.03338
C 13.61352 10.63649 -0.0258
C 13.56096 9.23866 -0.0331
C 12.31449 8.49871 -0.00316
C 12.30395 7.11112 0.02188
C 13.4894 6.49643 -0.01979
C 13.41666 5.05218 0.02691
C 12.23329 4.25321 -0.01581
C 12.29182 2.84476 0.01452
C 13.48787 2.17111 0.04892
C 13.4696 0.74269 -0.00111
C 7.31503 34.0599 0.01877
C 8.53008 0.73517 -0.00925
C 8.50814 2.1664 0.00444
C 7.301 2.94038 -0.01789
C 3.65541 6.47065 -0.01142
C 3.61901 5.08469 -0.00562
C 2.42757 4.37817 -0.00494
C 2.40928 2.93918 0.00054
C 3.5697 2.14457 0.03007
C 3.66072 0.70721 -0.00095
C 2.43429 0.08524 0.01572
C 4.93763 32.6613 -0.04848
C 2.34483 7.12985 0.01849
C 6.16357 31.8111 -0.00892
C 4.91903 29.69737 -0.0008
C 4.87577 28.28299 0.0288
C 5.88588 27.2565 0.00393
C 5.16862 25.98775 0.00895
C 5.3936 24.49465 0.00685
C 6.68136 23.52618 0.02888
C 6.25107 22.11341 -0.00482
C 4.96454 21.41606 -0.01384
C 6.15617 30.30206 -0.01362
C 2.34606 8.54482 0.01396
C 3.66106 9.17891 0.0127
C 3.65923 10.64618 0.02635
C 3.67759 30.55055 0.02322
C 2.42247 29.88834 -0.00725
C 2.41776 28.40822 -0.05697
C 3.58369 27.76666 0.01087
C 3.75531 26.36258 -0.01343
C 2.52946 25.64089 0.00988
C 2.52754 24.21035 0.0276
C 3.90523 23.64096 0.01305
C 3.78592 22.22398 -0.00077
C 2.53922 21.36124 0.03368
C 2.47519 19.96425 -0.02929
C 3.72647 19.19732 -0.00966
C 3.75865 17.76655 -0.03337
C 2.42189 17.08489 0.01227
C 2.42699 15.64727 0.00873
C 3.61147 14.90153 -0.00049
C 3.73719 13.51919 0.00848
C 2.51716 12.72651 -0.01303
C 2.49626 11.33928 -0.01378
C 5.0136 19.8931 0.03693
C 16.11161 9.22652 0.0106
C 6.16442 19.21462 0.01745
C 4.93209 17.12222 -0.01004
C 8.47769 22.08323 0.03592
C 7.38672 21.21011 0.00406
C 7.34898 19.86866 0.00943
C 8.65086 19.24293 0.02841
C 8.6505 17.80429 -0.01111
C 7.35551 17.04858 -0.01275
C 7.46862 15.67359 0.00985
C 8.6784 14.89782 -0.02245
C 8.07679 23.50765 0.00572
C 8.76625 13.47297 -0.00428
C 7.33368 11.36991 -0.01536
C 8.56364 10.68765 -0.02689
C 8.57303 9.2416 -0.01046
C 7.34088 8.59215 -0.00891
C 7.25508 7.13891 0.02819
C 8.51734 6.42761 0.00165
C 8.53047 5.03484 -0.02971
C 7.25546 4.3323 0.02894
C 7.48324 12.73314 0.03101
C 8.8156 27.32778 0.0402
C 7.42795 27.81557 -0.02759
C 7.36681 29.54646 0.03589
C 4.95383 15.66201 -0.02896
C 6.16878 14.92723 -0.00131
C 6.15069 13.49891 -0.01118
C 4.87491 12.82698 -0.014
C 4.83949 11.41459 0.02147
C 6.08445 10.72047 0.00373
C 6.13744 9.27835 -0.00191
C 4.90222 8.59151 0.00438
C 4.92918 7.15151 0.01291
C 6.07867 6.44011 0.00093
C 6.03199 5.04351 0.00057
C 4.89123 4.24926 -0.01634
C 4.83682 2.83201 -0.00334
C 6.08167 2.19215 0.02339
C 6.0723 0.78954 0.01641
C 4.80205 0.00829 -0.00719
C 7.36721 32.58598 0.01364
C 8.5562 31.88241 -0.01062
C 8.51052 30.44085 -0.00033
C 6.17687 17.70476 0.00488
C 14.81013 8.45768 -0.01154
C 14.85891 7.07095 -0.01721
C 16.04438 6.2845 -0.02422
C 29.4524 2.82722 0.01713
C 30.73637 2.19381 -0.01694
C 30.73495 0.69409 0.01428
C 29.46079 0.06772 -0.02142
C 31.9615 32.69061 0.0544
C 33.17175 31.99763 0.00026
C 33.17683 30.53966 0.00682
C 31.99062 29.8266 -0.01779
C 29.46179 4.25879 0.00346
C 31.94831 28.40464 0.03794
C 33.17533 26.26608 0.01574
C 31.9657 25.51617 -0.02383
C 31.96713 24.18527 -0.01429
C 33.15561 23.41508 -0.0136
C 33.23289 21.99431 0.00594
C 31.93025 21.23756 -0.02474
C 31.70852 19.87953 0.00369
C 33.00056 19.15389 0.00455
C 33.12685 27.61444 0.01927
C 30.74962 4.95212 0.00307
C 30.55927 6.2899 0.00716
C 30.29324 19.75619 0.02108
C 26.95084 21.29925 -0.01854
C 28.35685 5.07057 -0.01415
C 27.02275 4.41743 -0.03039
C 26.931 2.92054 0.01836
C 28.19901 2.22298 0.03531
C 28.23094 0.85724 -0.00669
C 27.06819 0.16502 0.0101
C 29.40675 32.7191 0.01705
C 30.68136 32.06141 -0.0405
C 30.74902 30.56809 -0.01303
C 29.52013 29.84807 -0.01461
C 29.43384 28.44584 -0.02155
C 30.62539 27.73713 -0.00944
C 30.69731 26.23097 -0.03735
C 29.44794 25.50089 -0.00971
C 29.41807 24.05064 0.01518
C 30.69802 23.33649 0.01908
C 30.71464 21.98436 0.07705
C 29.70837 20.90686 0.0103
C 33.17051 17.86134 -0.00644
C 28.27457 21.5784 -0.02049
C 33.31433 14.91572 -0.01839
C 33.18021 10.70894 0.00199
C 1.20958 19.18224 -0.01678
C 1.24361 17.79077 0.01223
C 34.37565 17.1587 0.00648
C 34.41173 15.69559 0.02114
C 1.23052 14.93186 -0.02957
C 1.23955 13.53528 0.00343
C 34.4312 12.88844 -0.02656
C 34.37043 11.2979 -0.02442
C 34.34418 19.89455 0.01951
C 1.28091 10.66154 -0.00027
C 34.35315 8.62494 -0.02302
C 34.31594 7.20081 -0.02849
C 1.13423 6.51704 0.02931
C 1.1389 5.06142 0.00628
C 34.39831 4.35592 -0.0345
C 34.31573 2.88816 -0.00931
C 1.20835 2.23618 -0.00939
C 1.25037 0.82888 -0.00468
C 1.17696 9.32386 -0.00583
C 0.02145 21.24752 -0.02213
C 1.21779 22.00639 0.02712
C 1.22462 23.40935 0.00723
C 32.98016 9.34113 0.04381
C 31.98441 8.48459 0.02806
C 31.74917 7.10856 0.01504
C 33.12908 6.46768 -0.00069
C 33.19576 5.05399 0.04926
C 32.0443 4.3001 -0.03838
C 31.94698 2.90023 0.00349
C 33.19417 2.16105 -0.00323
C 33.21701 0.7403 -0.00841
C 31.97957 0.09713 0.0001
C 0.03344 32.64077 -0.02927
C 1.1988 31.98777 -0.01404
C 1.22065 30.55023 0.01027
C 34.42867 29.88809 0.01831
C 34.33017 28.41847 -0.01037
C 1.11507 27.73836 -0.00439
C 1.21305 26.31692 -0.00598
C 0.00855 25.53659 -0.05239
C 34.4248 24.10347 0.03076
C 33.23019 13.52285 0.00137
C 3.63411 32.00008 -0.00094
C 28.29707 23.19688 0.03265
C 27.03651 25.45238 0.02326
C 18.28252 1.97663 0.00071
C 18.37576 0.59761 -0.01107
C 17.10923 34.03236 -0.01586
C 19.58127 32.60728 -0.01971
C 20.83105 31.91297 -0.02118
C 20.88162 30.45925 0.00733
C 19.66494 29.6934 -0.00178
C 19.62448 28.27454 0.00768
C 17.02001 2.77517 -0.00225
C 20.87655 27.56336 -0.0276
C 19.63354 25.40994 -0.04078
C 20.89439 23.44416 0.02117
C 20.8643 22.02979 0.02737
C 20.01925 20.77022 -0.00498
C 19.25402 19.69234 0.00135
C 20.58801 5.00115 0.03102
C 19.47516 4.15845 0.02555
C 19.49263 2.74354 0.01423
C 20.91271 26.19172 0.03005
C 17.19358 4.15186 0.01515
C 18.32803 4.91151 -0.0055
C 18.55728 6.20761 0.02734
C 15.91418 4.91905 0.01277
C 14.64709 4.30063 0.00096
C 14.67951 2.87759 -0.01527
C 15.83093 2.13468 0.01087
C 15.9323 0.77156 0.00199
C 14.68322 0.05041 0.01511
C 17.01796 32.64868 -0.00478
C 18.36234 31.92865 -0.01662
C 18.44281 30.46765 -0.01185
C 17.18232 29.68585 0.01126
C 17.23595 28.29648 0.01852
C 18.41325 27.51583 -0.00381
C 18.37147 26.11718 0.03046
C 16.95886 21.56521 0.0296
C 16.99597 20.11682 0.03374
C 18.15029 18.83853 -0.02845
C 17.47945 17.77419 -0.03213
C 17.24898 8.38527 0.02239
C 17.39863 7.05654 0.01153
C 20.75042 2.13813 -0.00285
C 27.03574 23.98283 0.00261
C 20.83426 0.67761 -0.009
C 22.01992 32.64708 -0.00229
C 25.87321 26.30164 0.02316
C 24.61849 25.65686 0.04185
C 24.56503 24.26546 0.00194
C 25.72715 23.41058 -0.00621
C 25.81191 22.14373 0.02611
C 25.77239 4.94589 0.02198
C 24.54784 4.38719 0.01094
C 24.48388 2.88569 0.00235
C 25.82227 27.68073 0.01257
C 25.74955 2.2535 0.01495
C 24.56283 0.04521 0.01799
C 26.9974 32.78849 0.01699
C 28.17968 31.98452 -0.00416
C 28.3106 30.57591 0.01177
C 27.04431 29.91183 0.04266
C 27.01867 28.50037 0.01324
C 28.26333 27.67783 0.0014
C 28.22609 26.23729 0.00924
C 25.78595 0.788 0.01259
C 24.57644 28.42157 0.00152
C 24.55178 29.814 -0.00294
C 25.8077 30.51912 0.00826
C 23.25912 31.92142 -0.00938
C 23.34213 30.53771 -0.0264
C 22.14624 29.72799 -0.01154
C 22.13261 28.35713 0.00684
C 23.33515 27.65227 -0.01052
C 23.37572 26.29992 -0.01679
C 22.17295 25.54828 0.00367
C 22.09259 24.13846 0.04306
C 23.37382 23.37028 0.00996
C 23.44849 22.05317 0.00195
C 22.12079 21.64417 -0.00802
C 23.19576 5.01896 -0.00218
C 21.90483 4.34198 -0.01654
C 21.96744 2.86089 -0.00037
C 23.28306 2.19498 -0.0032
C 23.345 0.82506 0.00622
C 22.15007 0.04524 -0.02815
C 24.53578 32.65788 -0.00942
C 25.77516 32.0059 0.00487
C 19.65959 34.04397 -0.01199
C 2.3749 32.68988 -0.02566
