381
Graphene
C 34.36674 34.06328 0.01295
C 12.25518 12.8382 -0.01454
C 12.31828 11.37058 0.01945
C 13.53201 10.70294 0.01416
C 13.60059 9.33275 0.03542
C 12.36342 8.58147 0.02299
C 12.34317 7.13235 0.00244
C 13.56068 6.36101 -0.01717
C 13.50057 4.87203 0.05265
C 12.32179 4.17411 -0.01952
C 12.34898 2.71352 -0.02813
C 13.5708 2.02541 0.00374
C 13.55358 0.64759 0.00052
C 12.3055 33.97082 -0.03682
C 14.60902 32.52912 0.01965
C 15.9923 32.09942 0.02058
C 16.03722 17.53033 -0.01957
C 14.76246 17.03716 -0.0108
C 14.78011 15.53641 -0.00368
C 15.9286 14.87051 -0.02696
C 13.52568 13.55699 0.01241
C 13.48428 14.87905 0.0076
C 12.23736 15.72231 0.02162
C 12.30499 17.07968 -0.0014
C 9.89359 17.06585 -0.01275
C 9.81288 15.59688 0.00985
C 11.03945 14.9442 -0.02245
C 11.05454 13.54447 -0.00428
C 9.84347 12.78926 0.03101
C 9.82614 11.39715 -0.01536
C 11.06883 10.71822 -0.02689
C 11.11423 9.30932 -0.01046
C 9.89102 8.61995 -0.00891
C 16.02099 13.41828 -0.00114
C 9.93347 7.18752 0.02819
C 11.09672 4.97157 -0.02971
C 9.8583 4.2668 0.02894
C 9.91211 2.81027 -0.01789
C 11.08297 2.03155 0.00444
C 11.1279 0.66798 -0.00925
C 9.81635 0.07462 0.01877
C 12.17529 32.48738 0.01363
C 13.48138 31.9327 -0.02162
C 13.5354 17.63958 0.00415
C 11.08884 6.41329 0.00165
C 14.7308 12.82383 0.00228
C 14.70799 11.4103 0.00798
C 16.00792 10.64863 0.00422
C 17.24882 7.06266 -0.0331
C 18.4733 6.35162 -0.00316
C 18.44064 4.91416 0.02188
C 17.16542 4.22667 -0.01979
C 17.17038 2.88567 0.02691
C 18.41695 2.12885 -0.01581
C 18.46743 0.71886 0.01452
C 17.24159 0.04245 0.04892
C 19.5903 32.66071 -0.00111
C 17.19895 8.56688 -0.0258
C 20.83114 31.961 -0.03557
C 19.66973 29.89923 0.01739
C 21.17074 27.58335 0.00755
C 20.95082 26.25115 -0.0054
C 20.96865 23.34154 0.00667
C 20.74695 22.094 0.00143
C 19.80464 21.19381 -0.017
C 19.40097 19.90966 0.00364
C 20.79389 19.12825 -0.00831
C 20.85704 17.68435 -0.02957
C 20.91997 30.50065 0.03754
C 11.09195 17.80211 -0.01111
C 18.43976 9.19008 0.03338
C 17.20884 11.33646 -0.00109
C 15.99811 9.29503 0.0351
C 14.79495 8.55621 -0.03113
C 14.73828 7.08481 0.02098
C 15.9449 6.40791 0.01848
C 15.93353 4.99176 -0.00619
C 14.72722 4.24316 -0.02162
C 14.82194 2.81858 0.00889
C 16.00992 2.11041 -0.00481
C 16.00229 0.66276 0.00979
C 18.47098 10.61641 -0.00491
C 14.84825 34.01443 0.01443
C 18.44179 31.90684 -0.02815
C 18.53366 30.61334 -0.04147
C 18.31941 19.13874 -0.05302
C 18.4216 17.75258 0.00213
C 17.24695 16.97836 -0.00066
C 17.21624 15.54906 -0.00289
C 18.39003 14.79602 0.00028
C 18.44734 13.35807 -0.02213
C 17.19567 12.73326 0.03698
C 17.22823 32.69014 0.03505
C 10.99112 19.21209 0.02841
C 9.85347 19.88198 0.00943
C 10.90083 32.13556 0.00406
C 3.58253 5.02913 -0.00725
C 2.36664 4.23409 -0.05697
C 2.41067 2.79538 0.01087
C 3.63171 2.10293 -0.01343
C 3.6909 0.77408 0.00988
C 2.47174 34.06721 0.0276
C 4.85557 32.65716 0.01305
C 6.07603 31.93635 -0.00077
C 6.184 30.51076 0.03368
C 3.72819 6.37386 0.02322
C 4.88451 29.88556 -0.02929
C 6.19885 27.73278 -0.03337
C 6.15372 26.34846 0.01227
C 4.89511 25.65395 0.00873
C 4.96846 24.13643 -0.00049
C 6.16653 23.48009 0.00848
C 6.06547 22.11182 -0.01303
C 4.86359 21.32475 -0.01378
C 4.94418 19.84244 0.02635
C 6.14465 19.23369 0.0127
C 4.91339 28.43016 -0.00966
C 6.22874 17.7638 0.01396
C 2.46641 7.15637 -0.00094
C 3.68833 9.2267 -0.03113
C 3.678 30.58285 0.02379
C 2.40184 29.79506 0.00907
C 2.46159 28.45009 0.00643
C 3.70519 27.77582 -0.01509
C 3.67696 26.3106 0.03267
C 2.4088 25.52972 0.02374
C 2.47179 24.12318 0.00402
C 3.64103 23.42187 0.0073
C 3.6905 22.0314 0.0174
C 2.43256 8.49665 -0.02566
C 2.38881 21.31517 0.03828
C 3.67429 19.22087 -0.00279
C 3.66584 17.76111 0.01996
C 2.48273 17.11197 -0.03996
C 2.52177 15.62274 0.01465
C 3.74612 14.95057 -0.00074
C 3.63654 13.54696 -0.00518
C 2.44267 12.75616 0.0086
C 2.45747 11.35818 -0.00643
C 3.66853 10.67806 0.017
C 2.37715 19.93014 0.01226
C 19.60735 17.01343 -0.04422
C 4.93185 17.12737 0.01849
C 6.15901 15.07877 -0.00562
C 8.67459 19.31481 0.02147
C 8.58769 17.87659 0.00373
C 7.41068 17.09337 -0.00191
C 7.46506 15.6195 0.00438
C 8.64525 14.93058 0.01291
C 8.55315 13.40006 0.00093
C 7.24133 12.77386 0.00057
C 7.25957 11.3907 -0.01634
C 8.52118 10.71055 -0.00334
C 7.39076 19.92983 -0.014
C 8.62029 9.28126 0.02339
C 7.39222 7.15831 -0.00719
C 8.70117 6.44407 0.01364
C 8.65615 5.00984 -0.01062
C 7.32609 4.31264 -0.00033
C 7.38121 2.93726 0.03589
C 8.63386 2.23459 -0.02759
C 8.57129 0.80441 0.0402
C 7.35674 0.08631 0.00572
C 9.70119 32.78572 0.03592
C 7.38969 8.52944 0.01641
C 4.95408 15.74954 -0.01142
C 7.40087 21.42761 -0.01118
C 7.37889 24.16174 -0.02896
C 6.11637 13.6347 -0.00494
C 4.86351 12.9029 0.00054
C 4.81388 11.44071 0.03007
C 6.06919 10.6437 -0.00095
C 6.18374 9.18513 0.01572
C 4.93956 8.55061 -0.04848
C 4.96112 7.154 -0.00892
C 6.15711 6.39648 -0.01362
C 6.139 4.97916 -0.0008
C 8.62974 22.01483 -0.00131
C 4.8888 4.30291 0.0288
C 6.16251 2.12767 0.00895
C 6.13929 0.77641 0.00685
C 4.8932 0.0161 0.02888
C 7.26808 32.72347 -0.00482
C 8.48374 32.09413 -0.01384
C 8.64537 30.69917 0.03693
C 7.61978 29.84768 0.01745
C 7.42899 28.46419 0.00488
C 7.2262 25.52658 -0.01004
C 4.86218 2.87333 0.00393
C 3.62511 31.93333 0.01402
C 19.6548 15.55017 0.00654
C 20.91812 13.45353 -0.04076
C 29.43267 2.85527 0.02108
C 30.70871 2.16745 0.00716
C 30.77641 0.8059 0.00307
C 29.48579 0.06991 0.00346
C 31.96922 32.69252 0.01713
C 33.20129 31.98895 -0.01694
C 33.21512 30.5494 0.01428
C 31.98339 29.83023 -0.02142
C 31.98095 28.37679 0.0544
C 33.19787 27.68593 0.00026
C 33.16833 26.23724 0.00682
C 31.92355 25.56794 -0.01779
C 31.93998 24.05401 0.03794
C 33.12782 23.43183 0.01927
C 33.16459 22.06406 0.01574
C 31.90491 21.30895 -0.02383
C 31.94477 19.85307 -0.01429
C 33.21166 19.17803 -0.0136
C 33.18686 17.7864 0.00594
C 29.37686 4.21949 0.0103
C 30.61572 5.00386 0.07705
C 30.71294 6.37807 0.01908
C 29.47983 7.08783 0.01518
C 30.75367 30.56208 0.00924
C 29.46758 29.82779 0.02326
C 29.49486 28.38679 0.00261
C 30.76617 27.694 0.03265
C 30.67413 26.33168 -0.02049
C 29.50082 25.50763 -0.01854
C 29.41379 24.08726 -0.01415
C 30.70835 23.36799 -0.03039
C 30.77779 21.94245 0.01836
C 31.96298 17.11497 -0.02474
C 30.72874 19.21609 0.03531
C 29.56271 16.92122 0.0101
C 29.59048 15.61415 0.01705
C 30.77709 14.90847 -0.0405
C 30.79316 13.44749 -0.01303
C 29.55816 12.7165 -0.01461
C 29.5491 11.35096 -0.02155
C 30.7418 10.58902 -0.00944
C 30.77887 9.23926 -0.03735
C 29.60522 8.51955 -0.00971
C 30.52719 17.87861 -0.00669
C 31.98548 15.65431 0.00369
C 33.2752 15.00957 0.00455
C 33.1456 13.5591 -0.00644
C 0.00991 21.35058 -0.02213
C 34.39705 19.88031 0.01951
C 1.24778 19.16796 -0.01678
C 1.26031 17.77395 0.01223
C 0.05614 17.10121 0.00648
C 0.076 15.62981 0.02114
C 1.3101 14.89449 -0.02957
C 1.24906 13.54052 0.00343
C 34.38584 12.87779 -0.02656
C 1.18085 22.06574 0.02712
C 34.3766 11.41987 -0.02442
C 1.17751 9.27683 -0.00583
C 0.0101 8.46849 -0.02302
C 0.05128 7.05216 -0.02849
C 1.24274 6.38281 0.02931
C 1.18049 4.99586 0.00628
C 34.33183 4.28946 -0.0345
C 34.36164 2.89733 -0.00931
C 1.17002 2.10964 -0.00939
C 1.20794 0.72096 -0.00468
C 1.15735 10.59551 -0.00027
C 30.80009 31.89395 0.0014
C 1.19302 23.45583 0.00723
C 34.39445 25.5341 -0.05239
C 32.02188 12.84598 -0.01839
C 31.99696 11.36269 0.00137
C 33.2119 10.68848 0.00199
C 33.19696 9.28979 0.04381
C 32.02948 8.53395 0.02806
C 31.97849 7.10617 0.01504
C 33.18629 6.43928 -0.00069
C 33.0946 5.03156 0.04926
C 31.90023 4.33362 -0.03838
C 34.42455 24.13134 0.03076
C 31.94114 2.9122 0.00349
C 33.14857 0.73273 -0.00841
C 31.93622 0.02813 0.0001
C 34.38919 32.70627 -0.02927
C 1.16389 32.03993 -0.01404
C 1.16767 30.59031 0.01027
C 34.41219 29.79468 0.01831
C 34.42527 28.43055 -0.01037
C 1.25164 27.6917 -0.00439
C 1.25314 26.22399 -0.00598
C 33.1436 2.14121 -0.00323
C 29.56393 32.74457 0.01324
C 26.98391 0.01281 0.04266
C 28.15804 0.68887 0.01177
C 22.46056 20.95638 0.0296
C 22.07319 19.70282 0.03374
C 23.25575 17.88986 -0.02845
C 22.12318 17.06636 -0.03213
C 22.15979 15.59194 0.02239
C 23.36268 14.82855 0.01153
C 23.36403 13.45602 0.02734
C 22.10049 12.76663 -0.0055
C 22.15928 11.2386 0.01515
C 23.25346 21.9798 0.03046
C 23.40785 10.52205 -0.00225
C 22.12668 8.32736 -0.01107
C 22.14694 6.87548 -0.01586
C 23.18212 4.96096 -0.01971
C 22.07823 4.12149 -0.02118
C 22.12226 2.77844 0.00733
C 23.4368 2.11417 -0.00178
C 23.3375 0.71975 0.00768
C 22.16005 34.06882 -0.0276
C 24.58381 32.63644 0.03005
C 23.48522 9.06751 0.00071
C 25.73245 31.95537 -0.04078
C 23.35661 23.33668 -0.00381
C 22.01768 25.49802 0.01126
C 19.63571 12.72056 -0.00652
C 19.67668 11.24874 0.0058
C 20.92517 10.47087 -0.00865
C 20.8848 9.1029 0.00675
C 19.6594 8.43101 -0.00311
C 19.68506 6.98918 0.00742
C 20.82786 6.327 -0.01594
C 20.8171 4.90969 0.0106
C 19.67901 4.21196 -0.01154
C 22.04549 24.04773 0.01852
C 19.63671 2.75685 -0.01721
C 20.97093 0.71621 0.01277
C 19.65665 0.06142 0.00096
C 22.11819 32.67398 -0.01527
C 23.30743 31.93996 0.01087
C 23.29736 30.59643 0.00199
C 22.0615 29.86529 0.01511
C 22.11513 28.44356 -0.00478
C 23.28823 27.58945 -0.01662
C 23.30787 26.25319 -0.01185
C 20.88563 2.08319 -0.02422
C 20.86865 14.89516 -0.00703
C 25.7373 30.49897 0.02117
C 24.53454 28.3541 -0.00498
C 26.94768 28.42736 -0.02815
C 28.26753 27.73736 -0.00942
C 28.25341 26.3225 0.00487
C 26.9971 25.60095 0.00826
C 27.07862 24.017 -0.00294
C 28.25718 23.44784 0.00152
C 27.24608 15.65053 0.01257
C 28.36054 14.87704 0.02316
C 28.37544 13.46755 0.04185
C 27.02478 29.9118 0.00622
C 27.12559 12.73276 0.00194
C 28.31111 10.66338 0.02611
C 28.24673 9.20193 0.02198
C 27.11794 8.57053 0.01094
C 27.06451 7.19956 0.00235
C 28.24671 6.41413 0.01495
C 28.20528 4.9667 0.01259
C 26.87619 4.35601 0.01799
C 26.97151 2.90294 0.01699
C 28.18816 2.10733 -0.00416
C 27.03455 11.33189 -0.00621
C 24.58072 29.81716 0.02737
C 28.25821 30.56014 -0.0032
C 27.0567 32.64316 -0.01654
C 25.75868 27.73053 0.00135
C 25.82281 26.2484 0.03102
C 24.59976 25.5044 0.02555
C 24.57917 24.0931 0.01423
C 25.82627 23.55517 -0.00285
C 24.624 15.44807 -0.009
C 25.95662 15.11756 -0.01199
C 25.89987 13.48046 -0.00229
C 24.61644 12.77396 -0.00938
C 28.27284 31.94688 -0.00037
C 24.56144 11.32092 -0.0264
C 25.83177 9.23267 0.00684
C 24.69328 8.36966 -0.01052
C 25.75836 6.61162 -0.01679
C 25.60986 5.18348 0.00367
C 24.38274 4.43023 0.04306
C 24.51383 2.90049 0.00996
C 25.75039 2.13132 0.00195
C 25.71115 0.68759 -0.00802
C 24.5526 34.07219 -0.00218
C 25.81406 10.57554 -0.01154
C 2.39184 32.66302 -0.003
