385
Graphene
C 34.34801 0.05146 0.01295
C 14.8607 8.56088 0.02162
C 14.66625 7.20387 0.0076
C 15.88986 6.50691 0.01241
C 15.94207 4.99031 -0.01454
C 14.82431 4.23589 0.01945
C 14.77307 2.79592 0.01416
C 15.95896 2.07467 0.03542
C 15.97751 0.68588 0.02299
C 14.7087 34.05685 0.00244
C 15.96301 9.3806 -0.0014
C 17.20168 32.60385 -0.01717
C 18.49488 30.4653 -0.01952
C 17.28823 29.77596 -0.02813
C 17.33653 28.32028 0.00374
C 18.45379 27.62655 0.00052
C 18.43801 26.14781 -0.03682
C 17.18241 25.52326 0.01965
C 17.09551 24.15491 0.02058
C 18.46999 23.35689 -0.01957
C 18.47449 21.93085 -0.0108
C 18.42169 31.95355 0.05265
C 17.19949 21.21916 -0.00368
C 15.95858 10.92156 0.00415
C 15.97148 14.95985 0.01363
C 13.5276 2.08946 0.00943
C 13.47258 0.66137 0.02841
C 12.22614 0.02177 -0.01111
C 14.73692 32.70074 -0.01275
C 15.90712 31.9489 0.00985
C 15.95987 30.47681 -0.02245
C 14.79951 29.74298 -0.00428
C 14.81291 28.39484 0.03101
C 16.07162 27.67925 -0.01536
C 15.9803 13.45694 -0.02162
C 16.01929 26.26775 -0.02689
C 14.75922 24.13238 -0.00891
C 15.9509 23.46332 0.02819
C 15.97226 22.00638 0.00165
C 14.61559 21.28715 -0.02971
C 14.72271 19.96695 0.02894
C 15.97315 19.13495 -0.01789
C 15.93471 17.75156 0.00444
C 14.64971 17.08267 -0.00925
C 14.81571 15.64989 0.01877
C 14.79868 25.56641 -0.01046
C 12.30795 2.79116 0.00406
C 17.19421 19.88458 -0.02696
C 18.44612 17.73067 0.00228
C 19.636 25.45196 0.03338
C 19.67308 24.07535 -0.0258
C 20.91059 23.41677 -0.0331
C 20.92723 21.93254 -0.00316
C 19.74223 21.2199 0.02188
C 19.71475 19.82718 -0.01979
C 20.91527 19.1469 0.02691
C 20.90795 17.84583 -0.01581
C 19.66281 17.05494 0.01452
C 20.85851 26.2242 -0.00491
C 19.6863 15.64672 0.04892
C 20.94199 13.47243 -0.03557
C 19.6802 12.7571 0.03754
C 19.66502 11.3549 0.01739
C 20.87205 10.65813 0.00755
C 20.88387 9.26698 -0.0054
C 19.65812 8.5236 0.00667
C 19.62559 7.01571 0.00143
C 20.82931 6.29061 -0.017
C 20.81214 4.9357 0.00364
C 20.90185 14.99803 -0.00111
C 18.47577 19.12947 -0.00114
C 20.93004 27.62771 -0.00109
C 19.68609 29.71215 -0.02213
C 17.23863 17.03939 0.00798
C 17.18511 15.62436 0.00422
C 18.4765 14.92789 0.0351
C 18.53417 13.52718 -0.03113
C 17.31627 12.81285 0.02098
C 17.23093 11.42706 0.01848
C 18.44112 10.66974 -0.00619
C 18.43825 9.26653 -0.02162
C 17.13972 8.59677 0.00889
C 19.61597 28.29457 0.03698
C 17.07603 7.20661 -0.00481
C 18.40267 4.95678 0.01443
C 17.11157 4.26144 0.03505
C 17.17442 2.82161 -0.02815
C 18.42818 2.07 -0.04147
C 18.38723 0.6424 -0.05302
C 17.19255 34.00201 0.00213
C 19.66692 32.58584 -0.00066
C 20.9524 31.87714 -0.00289
C 20.82789 30.47422 0.00028
C 18.39406 6.40186 0.00979
C 12.39677 4.18999 0.03592
C 13.52971 4.99308 0.00572
C 13.2985 6.29868 0.0402
C 4.94064 28.41884 -0.03113
C 6.14758 27.70984 -0.02566
C 6.1151 26.32629 -0.00094
C 4.85255 25.62187 0.02322
C 4.88702 24.29343 -0.00725
C 6.12621 23.59764 -0.05697
C 6.08923 22.17394 0.01087
C 4.92022 21.41712 -0.01343
C 4.94367 19.96629 0.00988
C 4.86992 29.78122 0.017
C 6.10742 5.02677 0.0276
C 4.9155 2.95355 -0.00077
C 6.13598 2.1982 0.03368
C 6.06192 0.7909 -0.02929
C 4.86567 0.06759 -0.00966
C 7.25607 32.72135 -0.03337
C 8.45591 31.99303 0.01227
C 8.5652 30.55308 0.00873
C 7.30719 29.84989 -0.00049
C 7.35372 28.50221 0.00848
C 4.8894 4.3114 0.01305
C 8.59887 27.75093 -0.01303
C 6.06448 30.58436 -0.00643
C 4.84052 32.66317 -0.00518
C 3.58767 30.58922 0.03189
C 2.40828 29.81543 0.00031
C 2.46085 28.38738 -0.003
C 3.67816 27.76283 0.01402
C 3.63283 26.31975 0.02379
C 2.43506 25.5542 0.00907
C 2.42137 24.15245 0.00643
C 3.59613 23.47145 -0.01509
C 3.5935 22.13972 0.03267
C 6.07547 32.02636 0.0086
C 2.42808 21.33394 0.02374
C 3.88393 19.40992 0.0073
C 2.43871 6.94981 0.0174
C 3.55965 6.45592 0.03828
C 3.69262 5.04749 0.01226
C 2.44368 4.31508 -0.00279
C 2.40716 2.88039 0.01996
C 3.63393 2.18978 -0.03996
C 3.56915 0.80198 0.01465
C 2.36951 0.07012 -0.00074
C 2.4647 19.86324 0.00402
C 8.5992 26.3506 -0.01378
C 7.3417 25.64999 0.02635
C 7.33224 24.19801 0.0127
C 9.98071 4.39085 -0.00131
C 9.89372 2.87817 -0.01118
C 11.05127 2.24196 -0.014
C 10.99973 0.71286 0.02147
C 9.82158 0.07622 0.00373
C 12.24185 32.65102 -0.00191
C 13.48119 31.92399 0.00438
C 13.56715 30.49922 0.01291
C 12.25799 29.9076 0.00093
C 11.20578 5.06693 -0.02896
C 12.3272 28.38701 0.00057
C 13.57621 26.29172 -0.00334
C 12.32847 25.64802 0.02339
C 12.29787 24.23235 0.01641
C 13.47975 23.42858 -0.00719
C 13.43144 22.01831 0.01364
C 12.25676 21.4034 -0.01062
C 12.27404 19.96246 -0.00033
C 13.48022 19.2981 0.03589
C 13.3825 17.84999 -0.02759
C 13.54471 27.69091 -0.01634
C 10.90127 19.48218 -0.01004
C 9.87818 20.11407 0.00488
C 9.71725 21.59471 0.01745
C 8.55092 23.58836 0.01396
C 8.54605 22.20488 0.01849
C 7.30542 21.38233 -0.01142
C 7.3413 19.97451 -0.00562
C 8.68403 4.85665 -0.00494
C 7.38667 4.50463 0.00054
C 7.36225 2.95653 0.03007
C 8.60204 2.2296 -0.00095
C 8.59723 0.79277 0.01572
C 7.29872 0.04572 -0.04848
C 9.70723 32.7434 -0.00892
C 10.97578 32.01325 -0.01362
C 11.06776 30.58481 -0.0008
C 9.83993 29.84289 0.0288
C 9.82271 28.3835 0.00393
C 11.11554 27.7738 0.00895
C 11.12321 26.30592 0.00685
C 9.86141 25.67477 0.02888
C 9.78605 24.20817 -0.00482
C 11.06237 23.51621 -0.01384
C 11.03009 22.14486 0.03693
C 19.5941 4.21666 -0.00831
C 3.60716 31.93166 -0.04307
C 19.60977 2.72552 -0.02957
C 20.84877 0.6861 0.00654
C 29.40013 7.11971 0.0103
C 30.63075 6.40304 0.02108
C 30.63525 4.96422 0.00716
C 29.45186 4.27635 0.00307
C 29.47936 2.89388 0.00346
C 30.72471 2.12909 0.01713
C 30.67426 0.74839 -0.01694
C 29.41551 34.04884 0.01428
C 31.97095 32.68511 -0.02142
C 29.46921 8.4934 0.07705
C 33.1506 31.94913 0.0544
C 31.92438 29.83745 0.00682
C 31.92902 28.40415 -0.01779
C 33.18841 27.70964 0.03794
C 33.20838 26.2862 0.01927
C 31.98135 25.56065 0.01574
C 31.93091 24.11434 -0.02383
C 33.14389 23.45109 -0.01429
C 33.18507 22.03502 -0.0136
C 32.00296 21.33933 0.00594
C 33.17758 30.52032 0.00026
C 32.0217 19.82365 -0.02474
C 30.66688 9.26482 0.01908
C 29.49925 11.41539 -0.00971
C 29.38875 32.6496 0.0014
C 30.72992 31.92145 0.00924
C 30.64186 30.57705 0.02326
C 29.53107 29.87176 0.00261
C 29.51854 28.44657 0.03265
C 30.75883 27.76204 -0.02049
C 30.7591 26.30539 -0.01854
C 29.50285 25.65093 -0.01415
C 29.51624 24.18467 -0.03039
C 30.70089 10.64469 0.01518
C 30.76431 23.36299 0.01836
C 29.5798 21.30541 -0.00669
C 29.53539 19.8963 0.0101
C 30.71413 19.14203 0.01705
C 30.77885 17.75398 -0.0405
C 29.5027 17.02039 -0.01303
C 29.41563 15.60639 -0.01461
C 30.67459 14.86596 -0.02155
C 30.69927 13.47963 -0.00944
C 29.48288 12.76977 -0.03735
C 30.8071 22.00296 0.03531
C 27.03954 34.00254 0.01324
C 33.30911 19.15485 0.00369
C 32.01103 17.07019 -0.00644
C 34.38084 24.12238 -0.02213
C 1.16277 23.36912 0.01951
C 1.20316 21.99791 -0.01678
C 34.40836 21.29057 0.01223
C 34.42642 19.82864 0.00648
C 1.24836 19.14889 0.02114
C 1.22793 17.76678 -0.02957
C 0.11551 17.01645 0.00343
C 34.43017 15.47817 -0.02656
C 0.0185 25.53094 0.02712
C 34.30458 12.61541 -0.02442
C 1.30369 9.10104 -0.00583
C 34.37831 8.50334 -0.02302
C 34.32711 7.16988 -0.02849
C 1.10069 6.33533 0.02931
C 1.20857 4.96199 0.00628
C 34.41644 4.2251 -0.0345
C 34.39962 2.89291 -0.00931
C 1.20812 2.2161 -0.00939
C 1.10535 0.78233 -0.00468
C 34.39818 11.38508 -0.00027
C 33.29736 17.64634 0.00455
C 1.20789 26.28173 0.00723
C 34.3968 28.42509 -0.05239
C 31.94393 15.57583 -0.01839
C 33.22448 14.94412 0.00137
C 33.10704 13.54878 0.00199
C 31.92192 12.72192 0.04381
C 31.9368 11.35698 0.02806
C 33.14988 10.6013 0.01504
C 33.13882 9.17795 -0.00069
C 31.88266 8.56336 0.04926
C 31.85698 7.10302 -0.03838
C 1.22392 27.68409 0.03076
C 33.13673 6.45791 0.00349
C 31.86607 4.28189 -0.00841
C 31.90269 2.83405 0.0001
C 33.13884 2.20952 -0.02927
C 33.15572 0.6856 -0.01404
C 31.92748 0.02808 0.01027
C 34.34059 32.68744 0.01831
C 1.16826 32.00356 -0.01037
C 1.25274 30.57375 -0.00439
C 34.35974 29.79269 -0.00598
C 33.13319 5.03854 -0.00323
C 28.23937 0.72584 0.04266
C 28.25976 2.11771 0.01177
C 26.97689 2.81796 -0.00416
C 22.0798 8.48683 -0.00381
C 22.03021 7.05971 0.03046
C 23.27126 6.41711 0.0296
C 23.24032 4.93534 0.03374
C 22.05953 4.17749 -0.02845
C 22.06187 2.80138 -0.03213
C 23.25567 2.09427 0.02239
C 23.32154 0.65088 0.01153
C 22.1141 33.95185 0.02734
C 23.35949 9.23296 0.01852
C 24.49371 32.62868 -0.0055
C 25.798 30.50364 -0.00225
C 24.54937 29.74735 0.00071
C 24.52159 28.36708 -0.01107
C 25.78391 27.60399 -0.01586
C 25.77423 26.22809 -0.01971
C 24.52406 25.51244 -0.02118
C 24.63444 24.09808 0.00733
C 25.84451 23.40524 -0.00178
C 25.90772 22.02957 0.00768
C 25.80134 31.8715 0.01515
C 24.70023 21.30546 -0.0276
C 23.32283 10.63289 0.01126
C 22.08815 12.74993 -0.01662
C 19.64389 33.98471 -0.00703
C 22.13692 32.53372 -0.04076
C 23.37286 31.87517 -0.00652
C 23.30381 30.40571 0.0058
C 22.11406 29.70107 -0.00865
C 22.10837 28.28428 0.00675
C 23.36571 27.5704 -0.00311
C 23.38106 26.14438 0.00742
C 22.08653 25.47086 -0.01594
C 22.11136 11.3742 -0.01185
C 22.11684 24.05877 0.0106
C 23.38143 22.04089 -0.01721
C 22.17571 21.2371 -0.02422
C 22.15665 19.83517 0.01277
C 23.43635 19.18351 0.00096
C 23.39659 17.74994 -0.01527
C 22.14335 17.05163 0.01087
C 22.10748 15.6734 0.00199
C 23.36111 14.86683 0.01511
C 23.32948 13.4617 -0.00478
C 23.4389 23.45743 -0.01154
C 24.73395 19.91681 0.03005
C 25.89981 19.18003 -0.04078
C 25.87256 17.74479 0.02117
C 27.05489 24.12828 0.00622
C 28.26576 23.49608 -0.02815
C 28.36613 21.94175 -0.00942
C 27.13817 21.35837 0.00487
C 27.17109 19.89734 0.00826
C 28.33682 19.18122 -0.00294
C 28.21199 17.7676 0.00152
C 27.08963 17.08352 0.01257
C 27.07199 15.60446 0.02316
C 27.03378 25.54639 -0.0032
C 28.23311 14.86559 0.04185
C 27.01866 12.78711 -0.00621
C 27.00494 11.29338 0.02611
C 28.21923 10.63557 0.02198
C 28.25268 9.20934 0.01094
C 27.01252 8.52744 0.00235
C 26.9513 7.13108 0.01495
C 28.22637 6.42136 0.01259
C 28.18846 5.01165 0.01799
C 27.06162 4.22831 0.01699
C 28.26281 13.46359 0.00194
C 28.19564 26.2012 -0.00037
C 28.28406 27.69935 -0.01654
C 27.04555 28.34249 -0.00218
C 24.64492 17.04857 0.02737
C 24.52161 15.65654 -0.00498
C 25.80164 14.92945 0.00135
C 25.81845 13.5779 0.03102
C 24.60777 12.77129 0.02555
C 24.54414 11.34453 0.01423
C 25.80266 10.67972 -0.00285
C 25.83213 9.20567 -0.009
C 24.52099 8.46907 -0.01199
C 24.53525 7.08711 -0.00229
C 25.7102 6.35185 -0.00938
C 25.73978 4.89606 -0.0264
C 24.46546 4.18477 -0.01154
C 24.54337 2.82106 0.00684
C 25.78059 2.09789 -0.01052
C 25.81832 0.66976 -0.01679
C 24.56963 34.00957 0.00367
C 26.9705 32.62227 0.04306
C 28.19209 31.93306 0.00996
C 28.23497 30.5251 0.00195
C 27.06475 29.75022 -0.00802
C 20.87631 2.06915 -0.04422
C 2.38185 32.70534 0.03284
