392
Graphene
C 34.39464 0.03801 0.01295
C 10.93678 2.25466 0.01877
C 11.03471 0.7759 0.01363
C 9.76112 0.12675 -0.02162
C 12.1756 32.74921 0.00415
C 13.40524 32.00181 -0.0014
C 13.37517 30.58129 0.02162
C 12.22665 29.81329 0.0076
C 12.26333 28.37992 0.01241
C 13.44094 27.75381 -0.01454
C 9.77071 2.97295 -0.00925
C 13.41572 26.27977 0.01945
C 12.16258 24.18381 0.03542
C 13.34998 23.4181 0.02299
C 13.42571 21.97859 0.00244
C 12.25891 21.27418 -0.01717
C 12.30265 19.92123 0.05265
C 13.60245 19.20759 -0.01952
C 13.60315 17.75415 -0.02813
C 12.3591 17.12905 0.00374
C 12.37889 15.7032 0.00052
C 12.28593 25.52031 0.01416
C 9.76685 4.41251 0.00444
C 11.03515 5.00432 -0.01789
C 11.08678 6.42294 0.02894
C 9.78044 28.46221 0.03589
C 10.99802 27.63136 -0.02759
C 11.02021 26.2482 0.0402
C 9.78399 25.54564 0.00572
C 9.8253 24.0975 0.03592
C 10.99238 23.39864 0.00406
C 11.04256 21.96727 0.00943
C 9.85051 21.31823 0.02841
C 9.86239 19.86687 -0.01111
C 11.12911 19.11835 -0.01275
C 11.09593 17.7697 0.00985
C 9.85215 17.1049 -0.02245
C 9.81655 15.61258 -0.00428
C 11.10136 14.96122 0.03101
C 11.12264 13.5751 -0.01536
C 9.88392 12.74748 -0.02689
C 9.83285 11.4206 -0.01046
C 11.07533 10.62229 -0.00891
C 11.00499 9.22763 0.02819
C 9.73958 8.55523 0.00165
C 9.85381 7.15993 -0.02971
C 13.52658 15.02677 -0.03682
C 9.77194 29.83532 -0.00033
C 13.60383 13.55449 0.01965
C 12.29856 11.41453 -0.01957
C 15.95222 17.76618 -0.02213
C 14.74408 17.02081 0.03698
C 14.74055 15.66115 -0.00109
C 16.01771 14.79651 -0.00491
C 16.09623 13.34561 0.03338
C 14.81198 12.78492 -0.0258
C 14.80859 11.29363 -0.0331
C 16.07878 10.6617 -0.00316
C 15.95722 9.23293 0.02188
C 16.03844 19.11708 0.00028
C 14.72703 8.60205 -0.01979
C 16.08318 6.4563 -0.01581
C 16.00434 5.03778 0.01452
C 14.6817 4.36694 0.04892
C 14.67844 2.93847 -0.00111
C 15.93142 2.09882 -0.03557
C 15.9956 0.71115 0.03754
C 14.75499 34.03139 0.01739
C 17.18152 32.58809 0.00755
C 18.35363 31.84521 -0.0054
C 14.78175 7.17626 0.02691
C 14.80627 19.85412 -0.00289
C 14.73179 21.24196 -0.00066
C 16.00431 21.88337 0.00213
C 13.59457 10.60762 -0.0108
C 13.4996 9.2056 -0.00368
C 12.26208 8.53777 -0.02696
C 12.25344 7.18345 -0.00114
C 13.54369 6.48357 0.00228
C 13.51831 5.05512 0.00798
C 12.21912 4.27183 0.00422
C 12.26304 2.85492 0.0351
C 13.5266 2.11249 -0.03113
C 13.54748 0.69886 0.02098
C 12.24838 0.0743 0.01848
C 14.70692 32.65758 -0.00619
C 15.84635 31.94211 -0.02162
C 15.8612 30.55136 0.00889
C 14.69072 29.83781 -0.00481
C 14.67252 28.42169 0.00979
C 15.95044 27.6549 0.01443
C 15.89973 26.23528 0.03505
C 14.68514 25.5443 -0.02815
C 14.63766 24.0816 -0.04147
C 15.87031 23.32872 -0.05302
C 12.42045 12.77647 0.02058
C 18.26797 30.49074 0.00667
C 10.9742 30.5444 -0.01062
C 9.75103 32.74233 -0.00719
C 2.41985 4.30124 0.01465
C 2.37131 2.91847 -0.00074
C 3.65234 2.24937 -0.00518
C 3.62238 0.82024 0.0086
C 2.41888 0.09758 -0.00643
C 4.84322 32.76489 0.017
C 6.08164 31.99799 -0.03113
C 6.10544 30.63062 -0.02566
C 4.89663 29.9122 -0.00094
C 3.62712 5.0356 -0.03996
C 4.84999 28.5079 0.02322
C 6.12069 26.28936 -0.05697
C 4.86473 25.52488 0.01087
C 4.89957 24.21435 -0.01343
C 6.13528 23.50938 0.00988
C 6.13562 22.04754 0.0276
C 4.85835 21.28966 0.01305
C 4.81215 19.79178 -0.00077
C 6.1223 19.2167 0.03368
C 6.1039 17.82737 -0.02929
C 6.07474 27.8221 -0.00725
C 3.65827 6.47713 0.01996
C 2.37253 7.19516 -0.00279
C 2.36988 8.60671 0.01226
C 3.61388 30.57435 0.01707
C 2.34409 29.92996 0.02769
C 2.31371 28.4922 -0.03291
C 3.63208 27.77808 -0.04999
C 3.59415 26.26356 0.04505
C 2.4279 25.58038 0.03284
C 2.47982 24.08306 -0.04307
C 3.69663 23.37347 0.03189
C 3.63404 21.95197 0.00031
C 2.27161 21.13927 -0.003
C 2.31312 19.81276 0.01402
C 3.56957 19.0826 0.02379
C 3.61838 17.66455 0.00907
C 2.39653 16.96797 0.00643
C 2.39124 15.56813 -0.01509
C 3.6969 14.94859 0.03267
C 3.70015 13.533 0.02374
C 2.45121 12.81649 0.00402
C 2.43531 11.43917 0.0073
C 3.58458 10.65824 0.0174
C 3.59981 9.23363 0.03828
C 4.95749 17.12382 -0.00966
C 10.94849 31.98504 0.01364
C 4.88029 15.7097 -0.03337
C 6.10966 13.52331 0.00873
C 7.37841 19.95461 -0.01384
C 8.60789 19.23677 0.03693
C 8.61209 17.71781 0.01745
C 7.38135 17.13196 0.00488
C 7.35548 15.68619 -0.01004
C 8.60072 14.92067 -0.02896
C 8.59554 13.50886 -0.00131
C 7.32684 12.79809 -0.01118
C 7.3897 11.35654 -0.014
C 7.37119 21.33011 -0.00482
C 8.63405 10.66082 0.02147
C 7.29956 8.64267 -0.00191
C 7.35882 7.20532 0.00438
C 8.57739 6.51178 0.01291
C 8.53475 5.11046 0.00093
C 7.25824 4.31016 0.00057
C 7.20228 2.92988 -0.01634
C 8.51953 2.21611 -0.00334
C 8.57369 0.87054 0.02339
C 7.29295 0.10548 0.01641
C 8.62084 9.22381 0.00373
C 8.61527 21.99716 0.02888
C 8.56739 23.41226 0.00685
C 7.38009 24.13614 0.00895
C 4.85682 12.80384 -0.00049
C 4.77785 11.44836 0.00848
C 6.0709 10.76409 -0.01303
C 6.08515 9.35033 -0.01378
C 4.92892 8.54915 0.02635
C 4.83304 7.22736 0.0127
C 6.12225 6.45511 0.01396
C 6.09186 5.00909 0.01849
C 4.8368 4.39201 -0.01142
C 4.79947 2.98458 -0.00562
C 6.03991 2.22642 -0.00494
C 6.05367 0.83539 0.00054
C 4.7606 0.08291 0.03007
C 7.2746 32.79365 -0.00095
C 8.50422 31.96542 0.01572
C 8.54851 30.55792 -0.04848
C 7.31933 29.886 -0.00892
C 7.24308 28.48327 -0.01362
C 8.58846 27.76659 -0.0008
C 8.52279 26.3156 0.0288
C 7.31565 25.58486 0.00393
C 6.12424 14.92357 0.01227
C 17.16233 29.80428 0.00143
C 17.11906 28.32872 -0.017
C 18.33086 27.65959 0.00364
C 29.56783 23.94627 0.07705
C 30.98807 23.30823 0.0103
C 30.9187 10.69091 0.02108
C 30.6294 9.3403 0.00716
C 29.51331 8.60365 0.00307
C 29.51708 7.11588 0.00346
C 30.69872 6.39871 0.01713
C 30.69939 4.97815 -0.01694
C 29.45636 4.27209 0.01428
C 29.74098 25.25326 0.01908
C 29.4477 2.86453 -0.02142
C 30.69483 0.697 0.00026
C 29.47549 34.07179 0.00682
C 31.90285 32.68052 -0.01779
C 33.12757 31.9529 0.03794
C 33.11894 30.53917 0.01927
C 31.90567 29.79447 0.01574
C 31.80777 28.40059 -0.02383
C 33.09875 27.81722 -0.01429
C 33.18488 26.37268 -0.0136
C 30.70153 2.09209 0.0544
C 30.67139 26.27851 0.01518
C 30.5462 27.78451 -0.00971
C 29.35446 28.44685 -0.03735
C 24.53912 33.97454 0.04266
C 26.95199 32.63239 0.01324
C 28.23958 31.94481 0.0014
C 28.22108 30.54758 0.00924
C 27.06219 29.79319 0.02326
C 26.91886 23.37549 0.00261
C 28.21502 23.60411 0.03265
C 28.22675 9.28839 -0.02049
C 27.06662 8.56355 -0.01854
C 27.1242 7.12191 -0.01415
C 28.37301 6.39887 -0.03039
C 28.30674 4.94787 0.01836
C 27.0322 4.28605 0.03531
C 27.04224 2.82325 -0.00669
C 28.21194 2.11685 0.0101
C 28.23253 0.63112 0.01705
C 27.00327 33.98446 -0.0405
C 29.50949 32.62091 -0.01303
C 30.73959 31.97715 -0.01461
C 30.69014 30.53632 -0.02155
C 29.51021 29.83955 -0.00944
C 31.96037 25.60633 0.00594
C 25.71402 0.65911 0.01177
C 32.07572 24.21775 -0.02474
C 32.93032 22.06001 0.00455
C 34.10336 21.26376 -0.02213
C 34.35844 19.89729 0.01951
C 0.98094 19.11137 -0.01678
C 1.09105 17.68308 0.01223
C 0.01807 16.86434 0.00648
C 34.35879 15.43148 0.02114
C 1.20927 14.85656 -0.02957
C 1.1917 13.50498 0.00343
C 34.41021 12.90024 -0.02656
C 1.10165 22.00192 0.02712
C 0.00883 11.41641 -0.02442
C 1.2036 9.32632 -0.00583
C 0.0188 8.62152 -0.02302
C 34.36268 7.19504 -0.02849
C 1.14348 6.45761 0.02931
C 1.14564 5.08407 0.00628
C 34.36084 4.31904 -0.0345
C 34.40129 2.88834 -0.00931
C 1.18011 2.18629 -0.00939
C 1.20312 0.76917 -0.00468
C 1.22369 10.75028 -0.00027
C 1.19807 23.49104 0.00723
C 0.02519 24.20986 0.03076
C 34.36815 25.59869 -0.05239
C 31.57366 21.90651 -0.00644
C 33.26428 13.79197 -0.01839
C 31.9521 11.37828 0.00137
C 33.18251 10.73447 0.00199
C 33.18832 9.31117 0.04381
C 31.93447 8.5682 0.02806
C 31.93537 7.14257 0.01504
C 33.22349 6.45552 -0.00069
C 33.15947 5.0615 0.04926
C 31.92711 4.25332 -0.03838
C 31.94922 2.85804 0.00349
C 33.21595 2.15682 -0.00323
C 33.22031 0.74703 -0.00841
C 31.91234 0.03701 0.0001
C 34.3247 32.65318 -0.02927
C 1.21907 32.07337 -0.01404
C 1.17919 30.61306 0.01027
C 34.3277 29.90995 0.01831
C 34.36627 28.5451 -0.01037
C 1.11746 27.7064 -0.00439
C 1.15466 26.32558 -0.00598
C 33.25916 23.53875 0.00369
C 25.76215 2.08721 -0.00416
C 24.60015 2.86458 0.01699
C 24.57188 4.28743 0.01799
C 17.2024 0.03849 -0.01185
C 19.62649 32.63309 0.01126
C 20.81132 31.91351 0.01852
C 20.65418 30.53946 -0.00381
C 19.46186 29.74667 0.03046
C 19.60594 28.37676 0.0296
C 20.83189 27.67458 0.03374
C 20.69545 26.31083 -0.02845
C 19.52622 25.43832 -0.03213
C 18.35789 0.75654 -0.01662
C 19.53226 24.05054 0.02239
C 20.94201 21.96406 0.02734
C 19.77828 21.19153 -0.0055
C 19.82653 19.71813 0.01515
C 20.97237 18.854 -0.00225
C 21.03419 17.4299 0.00071
C 19.71777 17.01396 -0.01107
C 19.69933 15.60049 -0.01586
C 20.952 14.96665 -0.01971
C 21.12724 13.63017 -0.02118
C 20.8572 23.45519 0.01153
C 18.42204 2.11126 -0.00478
C 17.15324 2.91528 0.01511
C 17.14472 4.33479 0.00199
C 18.29985 26.20451 -0.00831
C 17.07728 25.46039 -0.02957
C 17.15725 24.00368 -0.04422
C 18.3909 23.27815 0.00654
C 18.48333 21.84921 -0.00703
C 17.33773 21.17011 -0.04076
C 17.31991 19.73677 -0.00652
C 18.56613 19.12075 0.0058
C 18.54577 17.75876 -0.00865
C 17.2405 17.0618 0.00675
C 17.21576 15.52582 -0.00311
C 18.49381 14.94484 0.00742
C 18.589 13.4869 -0.01594
C 17.33906 12.7477 0.0106
C 17.23801 11.3465 -0.01154
C 18.4222 10.70858 -0.01721
C 18.43615 9.2273 -0.02422
C 17.26833 8.51604 0.01277
C 17.32643 7.12687 0.00096
C 18.51464 6.38499 -0.01527
C 18.44823 4.93543 0.01087
C 19.80732 12.90774 0.00733
C 19.64358 11.40482 -0.00178
C 20.86407 10.66358 0.00768
C 20.88809 9.17727 -0.0276
C 22.22617 7.14465 -0.01654
C 23.31622 6.31397 -0.00037
C 23.38268 4.95503 -0.0032
C 22.04408 4.21503 0.00622
C 22.15236 2.79004 -0.02815
C 23.40066 2.18938 -0.00942
C 23.3287 0.65297 0.00487
C 22.11565 34.01347 0.00826
C 24.53909 32.50022 -0.00294
C 25.76209 31.88497 0.00152
C 25.77233 30.35648 0.01257
C 24.43329 29.7411 0.02316
C 24.57754 23.70915 0.04185
C 25.80713 24.14642 0.00194
C 24.6397 11.22528 -0.00621
C 25.76028 10.53866 0.02611
C 25.85095 9.18281 0.02198
C 24.60753 8.46839 0.01094
C 24.60927 7.06654 0.00235
C 25.93095 6.36544 0.01495
C 25.80047 5.01822 0.01259
C 22.23904 8.50968 -0.00218
C 3.61108 32.03366 0.00208
C 23.45414 9.22331 -0.00802
C 22.15183 11.31979 0.00996
C 19.66434 8.41192 0.03005
C 19.76289 7.03431 -0.04078
C 20.98746 6.46992 0.02117
C 20.93603 4.95936 0.02737
C 19.707 4.26544 -0.00498
C 19.63017 2.82779 0.00135
C 20.83737 2.06954 0.03102
C 20.79926 0.62973 0.02555
C 19.58424 34.06292 0.01423
C 22.10129 32.63751 -0.00285
C 23.25888 31.82809 -0.009
C 23.20979 30.44556 -0.01199
C 21.94156 29.7105 -0.00229
C 22.04524 28.31566 -0.00938
C 21.9616 25.61763 -0.0264
C 22.07075 24.23611 -0.01154
C 23.30321 23.41841 0.00684
C 23.33181 22.06019 -0.01052
C 22.18108 21.1591 -0.01679
C 22.01112 19.80798 0.00367
C 22.15748 12.69798 0.04306
C 23.44438 10.66507 0.00195
C 2.3943 32.71801 -0.00561
