385
Graphene
C 0.0127 0.0485 0.01295
C 9.89898 34.04978 0.02162
C 12.25796 32.71905 0.0076
C 13.51617 31.97747 0.01241
C 13.55563 30.51684 -0.01454
C 12.34406 29.88541 0.01945
C 12.3155 28.4424 0.01416
C 13.46878 27.66117 0.03542
C 13.4709 26.24045 0.02299
C 12.27146 25.46452 0.00244
C 11.07858 0.71065 -0.0014
C 12.36081 24.13907 -0.01717
C 13.57034 21.9646 -0.01952
C 12.33752 21.26482 -0.02813
C 12.3068 19.84729 0.00374
C 13.51246 19.2487 0.00052
C 13.53526 17.71475 -0.03682
C 12.31751 16.94218 0.01965
C 12.27076 15.57444 0.02058
C 13.59785 14.81709 -0.01957
C 13.48955 13.43287 -0.0108
C 13.51659 23.45364 0.05265
C 12.30219 12.73758 -0.00368
C 11.00288 2.15209 0.00415
C 9.7235 4.34825 0.01363
C 11.0964 27.75248 0.00943
C 11.10286 26.28548 0.02841
C 9.85256 25.61227 -0.01111
C 9.85539 24.15704 -0.01275
C 11.06197 23.4583 0.00985
C 11.08598 22.01212 -0.02245
C 9.86232 21.36321 -0.00428
C 9.85583 19.98411 0.03101
C 11.04466 19.1696 -0.01536
C 9.86376 2.97527 -0.02162
C 11.10991 17.68516 -0.02689
C 9.86674 15.61288 -0.00891
C 11.09796 14.91603 0.02819
C 11.15869 13.46799 0.00165
C 9.81681 12.74492 -0.02971
C 9.82659 11.4003 0.02894
C 11.08064 10.60937 -0.01789
C 11.01336 9.21015 0.00444
C 9.86584 8.47081 -0.00925
C 9.94086 7.10778 0.01877
C 9.86246 17.03549 -0.01046
C 9.85941 28.43115 0.00406
C 12.25062 11.43294 -0.02696
C 13.50073 9.22484 0.00228
C 15.96416 10.556 0.03338
C 15.99255 9.15422 -0.0258
C 14.77844 8.60581 -0.0331
C 15.97807 0.66723 -0.00316
C 14.69787 0.0709 0.02188
C 17.18729 32.68528 -0.01979
C 18.46952 31.94436 0.02691
C 18.5059 30.60712 -0.01581
C 17.2354 29.77386 0.01452
C 14.77182 11.32784 -0.00491
C 17.22981 28.38815 0.04892
C 18.48936 26.22357 -0.03557
C 17.14081 25.55647 0.03754
C 17.17718 24.10572 0.01739
C 18.46788 23.36265 0.00755
C 18.48988 21.95247 -0.0054
C 17.20102 21.33263 0.00667
C 17.14296 19.87528 0.00143
C 18.38983 19.20441 -0.017
C 18.3712 17.79565 0.00364
C 18.43993 27.71794 -0.00111
C 13.49139 10.688 -0.00114
C 14.78531 12.73365 -0.00109
C 16.00085 14.89688 -0.02213
C 12.27709 8.57228 0.00798
C 13.49902 0.76287 0.00422
C 12.35328 0.0409 0.0351
C 14.75405 32.65812 -0.03113
C 16.00082 31.89086 0.02098
C 15.96993 30.48505 0.01848
C 14.75201 29.80778 -0.00619
C 14.78783 28.42853 -0.02162
C 15.94536 27.70044 0.00889
C 15.95183 13.46737 0.03698
C 15.9298 26.29619 -0.00481
C 14.74174 24.11646 0.01443
C 15.92402 23.43015 0.03505
C 15.98978 22.04271 -0.02815
C 14.80369 21.27063 -0.04147
C 14.73024 19.86986 -0.05302
C 15.95658 19.09935 0.00213
C 15.93631 17.71381 -0.00066
C 14.76064 16.99569 -0.00289
C 14.72025 15.5835 0.00028
C 14.78275 25.5435 0.00979
C 9.88453 29.84936 0.03592
C 11.04086 30.59873 0.00572
C 11.09364 31.91121 0.0402
C 3.65151 4.98182 -0.03113
C 2.43858 4.28539 -0.02566
C 2.47998 2.89124 -0.00094
C 3.69379 2.06175 0.02322
C 3.64952 0.70934 -0.00725
C 2.423 0.0087 -0.05697
C 4.88656 32.62068 0.01087
C 6.16893 31.96899 -0.01343
C 4.86207 28.4882 0.00988
C 3.70873 6.32832 0.017
C 6.12307 27.77819 0.0276
C 4.93702 25.59227 -0.00077
C 4.90488 24.15649 0.03368
C 6.07233 23.52142 -0.02929
C 6.13884 22.05094 -0.00966
C 4.90768 21.28658 -0.03337
C 4.90449 19.88182 0.01227
C 6.11224 19.21226 0.00873
C 6.20246 17.71915 -0.00049
C 4.99463 17.05157 0.00848
C 6.11459 26.27862 0.01305
C 4.98641 15.62173 -0.01303
C 2.45848 7.07907 -0.00643
C 3.63926 9.21297 -0.00518
C 3.61509 30.6125 0.03189
C 2.47207 29.83083 0.00031
C 2.47082 28.36717 -0.003
C 3.68714 27.74478 0.01402
C 3.73273 26.27778 0.02379
C 2.43491 25.52022 0.00907
C 2.48104 24.13351 0.00643
C 3.60351 23.39012 -0.01509
C 3.6582 22.08173 0.03267
C 2.42041 8.5499 0.0086
C 2.43179 21.31957 0.02374
C 3.73739 19.18635 0.0073
C 3.70376 17.66728 0.0174
C 2.49653 17.04619 0.03828
C 2.46197 15.68815 0.01226
C 3.71655 14.94714 -0.00279
C 3.65217 13.50816 0.01996
C 2.41839 12.72617 -0.03996
C 2.43775 11.33083 0.01465
C 3.73206 10.64992 -0.00074
C 2.49895 19.86938 0.00402
C 6.16191 14.9197 -0.01378
C 6.16284 13.5572 0.02635
C 4.88283 12.80819 0.0127
C 8.67371 19.17538 -0.00131
C 8.68123 17.76628 -0.01118
C 7.43261 17.06932 -0.014
C 7.35678 15.52896 0.02147
C 8.60222 14.90009 0.00373
C 8.56387 13.50095 -0.00191
C 7.31519 12.7372 0.00438
C 7.39584 11.34494 0.01291
C 8.5937 10.66875 0.00093
C 7.36143 19.93234 -0.02896
C 8.64499 9.17649 0.00057
C 7.36624 7.16515 -0.00334
C 8.63136 6.45254 0.02339
C 8.65307 5.02094 0.01641
C 7.36221 4.25476 -0.00719
C 7.37911 2.85295 0.01364
C 8.62674 2.1736 -0.01062
C 8.61297 0.73245 -0.00033
C 7.32744 0.0712 0.03589
C 9.88301 32.63869 -0.02759
C 7.39035 8.58479 -0.01634
C 7.3722 21.36497 -0.01004
C 8.63052 22.08354 0.00488
C 8.5671 23.54108 0.01745
C 4.89853 11.41469 0.01396
C 6.15059 10.67384 0.01849
C 6.07463 9.25329 -0.01142
C 4.93004 8.54558 -0.00562
C 4.94946 7.07812 -0.00494
C 6.18187 6.3694 0.00054
C 6.1301 5.00108 0.03007
C 4.88008 4.3152 -0.00095
C 4.90392 2.84471 0.01572
C 6.06517 2.13881 -0.04848
C 6.06804 0.75494 -0.00892
C 4.91824 34.04255 -0.01362
C 7.36937 32.64562 -0.0008
C 8.57544 32.04155 0.0288
C 8.5613 30.58423 0.00393
C 7.46095 29.91778 0.00895
C 7.38895 28.40043 0.00685
C 8.60331 27.71716 0.02888
C 8.54401 26.25532 -0.00482
C 7.36783 25.57415 -0.01384
C 7.3364 24.18431 0.03693
C 17.1176 17.04006 -0.00831
C 3.63103 31.9339 -0.04307
C 17.19143 15.57075 -0.02957
C 18.43979 13.53885 0.00654
C 30.66567 23.42294 0.0103
C 30.8842 22.02998 0.02108
C 30.81941 10.61367 0.00716
C 30.71309 9.22818 0.00307
C 29.50671 8.52635 0.00346
C 29.56439 7.10788 0.01713
C 30.76134 6.43858 -0.01694
C 30.73853 4.96222 0.01428
C 29.51065 4.26996 -0.02142
C 29.47423 24.1258 0.07705
C 29.46152 2.89733 0.0544
C 30.78713 0.72287 0.00682
C 29.54176 34.01997 -0.01779
C 32.02707 32.62908 0.03794
C 33.20561 31.98366 0.01927
C 33.20139 30.56807 0.01574
C 31.99948 29.82601 -0.02383
C 31.95805 28.39779 -0.01429
C 33.19043 27.69106 -0.0136
C 33.17269 26.31033 0.00594
C 30.78626 2.18721 0.00026
C 31.98546 25.4764 -0.02474
C 29.54302 25.52523 0.01908
C 30.75594 27.7069 -0.00971
C 28.28434 26.30364 0.0014
C 27.00388 25.4716 0.00924
C 27.10332 24.07065 0.02326
C 28.26748 23.42495 0.00261
C 28.20443 10.54808 0.03265
C 28.23767 9.26062 -0.02049
C 26.98795 8.48354 -0.01854
C 27.01119 7.14013 -0.01415
C 28.26147 6.396 -0.03039
C 30.76858 26.20632 0.01518
C 28.32764 4.97573 0.01836
C 27.05682 2.87745 -0.00669
C 28.3563 2.10021 0.0101
C 28.30251 0.62165 0.01705
C 27.04649 34.06841 -0.0405
C 29.54545 32.62257 -0.01303
C 30.73299 31.9267 -0.01461
C 30.7708 30.50926 -0.02155
C 29.51682 29.85368 -0.00944
C 29.49747 28.402 -0.03735
C 27.08932 4.32944 0.03531
C 28.27452 27.69167 0.01324
C 32.0191 24.16451 0.00369
C 33.14759 21.99916 -0.00644
C 34.42415 21.27843 -0.02213
C 0.0164 19.87558 0.01951
C 1.27634 19.22676 -0.01678
C 1.24582 17.7596 0.01223
C 34.42915 16.88764 0.00648
C 0.00808 15.72651 0.02114
C 1.21417 14.93414 -0.02957
C 1.23902 13.54195 0.00343
C 34.40167 12.6857 -0.02656
C 1.18592 21.99779 0.02712
C 34.39636 11.35004 -0.02442
C 1.2836 9.2425 -0.00583
C 34.36366 8.48913 -0.02302
C 34.3548 7.10962 -0.02849
C 1.19804 6.34174 0.02931
C 1.18418 4.94222 0.00628
C 34.40837 4.20972 -0.0345
C 34.42591 2.86837 -0.00931
C 1.24625 2.1919 -0.00939
C 1.23669 0.73898 -0.00468
C 1.23603 10.63128 -0.00027
C 33.1538 23.39343 0.00455
C 1.1579 23.46008 0.00723
C 34.40321 25.58946 -0.05239
C 31.92538 21.32021 -0.01839
C 31.87795 11.27369 0.00137
C 33.14112 10.71297 0.00199
C 33.19081 9.27029 0.04381
C 31.95886 8.59885 0.02806
C 31.9434 7.13441 0.01504
C 33.14507 6.39651 -0.00069
C 33.20463 5.00854 0.04926
C 31.99608 4.28091 -0.03838
C 34.43271 24.16579 0.03076
C 31.96574 2.81858 0.00349
C 33.18267 0.70712 -0.00841
C 31.95693 0.00382 0.0001
C 34.42165 32.75207 -0.02927
C 1.21819 31.87966 -0.01404
C 1.21328 30.49233 0.01027
C 34.3769 29.81302 0.01831
C 34.43306 28.41121 -0.01037
C 1.28264 27.70071 -0.00439
C 1.16355 26.20472 -0.00598
C 33.16574 2.11852 -0.00323
C 27.06318 28.38795 0.04266
C 27.07262 29.74995 0.01177
C 28.24576 30.54177 -0.00416
C 20.90345 19.09836 -0.00381
C 20.95635 17.72116 0.03046
C 19.70419 17.05402 0.0296
C 19.6625 15.60708 0.03374
C 20.94182 14.84102 -0.02845
C 20.8636 13.47012 -0.03213
C 19.63191 12.78719 0.02239
C 19.68597 11.37879 0.01153
C 20.96601 10.6197 0.02734
C 19.68431 19.8944 0.01852
C 20.83726 9.21599 -0.0055
C 19.60244 7.0771 -0.00225
C 20.88344 6.32136 0.00071
C 20.87141 4.99494 -0.01107
C 19.70423 4.24829 -0.01586
C 19.66685 2.83039 -0.01971
C 20.79381 2.12762 -0.02118
C 20.82331 0.65266 0.00733
C 19.67816 34.0558 -0.00178
C 22.13357 32.65421 0.00768
C 19.70048 8.44766 0.01515
C 23.3893 31.91966 -0.0276
C 19.72738 21.26903 0.01126
C 20.85179 23.47254 -0.01662
C 17.23254 12.71002 -0.00703
C 17.16822 11.29955 -0.04076
C 18.44834 10.6768 -0.00652
C 18.5185 9.17402 0.0058
C 17.31559 8.45305 -0.00865
C 17.19164 7.07586 0.00675
C 18.38447 6.33785 -0.00311
C 18.50856 4.96488 0.00742
C 18.48345 2.06612 -0.01594
C 21.02188 22.05413 -0.01185
C 18.39933 0.69021 0.0106
C 19.68672 32.66474 -0.01721
C 20.94418 31.93583 -0.02422
C 20.94317 30.5492 0.01277
C 19.71981 29.87715 0.00096
C 19.68772 28.43175 -0.01527
C 20.94681 27.60288 0.01087
C 20.91323 26.23169 0.00199
C 19.69266 25.58427 0.01511
C 19.66332 24.19499 -0.00478
C 17.15126 0.00958 -0.01154
C 23.36651 30.55378 0.03005
C 22.10877 29.84898 -0.04078
C 22.12156 28.3661 0.02117
C 24.64876 29.85537 0.00622
C 24.58312 28.49495 -0.02815
C 25.82108 27.62445 -0.00942
C 25.84608 26.3434 0.00487
C 25.78919 21.97582 0.00826
C 24.70142 21.31631 -0.00294
C 24.54996 11.27348 0.00152
C 25.82814 10.70911 0.01257
C 25.79742 9.21761 0.02316
C 25.97397 30.5706 -0.0032
C 24.55429 8.55116 0.04185
C 25.82015 6.38563 -0.00621
C 25.82455 4.95927 0.02611
C 24.50095 4.265 0.02198
C 24.50457 2.85905 0.01094
C 25.7731 2.12576 0.00235
C 25.80921 0.71399 0.01495
C 24.6155 34.04265 0.01259
C 26.95392 32.61557 0.01799
C 28.26606 31.94269 0.01699
C 24.55631 7.118 0.00194
C 25.7768 31.9306 -0.00037
C 24.55447 32.68747 -0.01654
C 22.10635 0.00919 -0.00218
C 23.36559 27.67974 0.02737
C 23.35292 26.27238 -0.00498
C 22.19074 25.46297 0.00135
C 22.19154 21.25274 0.03102
C 22.13636 19.85062 0.02555
C 23.35863 19.17354 0.01423
C 22.27352 17.08223 -0.00285
C 22.14008 15.69114 -0.009
C 23.3058 13.36427 -0.01199
C 22.1425 12.76913 -0.00229
C 22.10193 11.38823 -0.00938
C 23.31354 10.68885 -0.0264
C 23.35835 9.22258 -0.01154
C 22.18821 8.55266 0.00684
C 22.17002 7.11617 -0.01052
C 23.3484 6.39717 -0.01679
C 23.33996 4.92639 0.00367
C 22.10708 4.29833 0.04306
C 22.12194 2.85295 0.00996
C 23.31104 2.1121 0.00195
C 23.33099 0.68809 -0.00802
C 18.43367 14.90295 -0.04422
C 2.4024 32.64761 0.03284
