337
Graphene
C 34.36599 34.05249 0.01295
C 13.56655 31.83844 -0.00481
C 13.56776 30.48722 0.00979
C 12.31694 29.819 0.01443
C 12.35689 28.39563 0.03505
C 13.63075 27.778 -0.02815
C 13.30206 26.22613 -0.04147
C 12.29779 25.64487 -0.05302
C 12.10973 4.0747 0.00213
C 12.34093 2.61539 -0.00066
C 13.60582 1.96209 -0.00289
C 13.49742 0.63417 0.00028
C 12.26336 34.01271 -0.02213
C 14.74166 32.67482 0.03698
C 16.01612 31.93082 -0.00109
C 16.05788 30.52332 -0.00491
C 14.8586 29.76115 0.03338
C 14.83154 28.38589 -0.0258
C 12.2619 32.59994 0.00889
C 16.00515 27.63521 -0.0331
C 9.84911 34.0588 -0.02162
C 11.05774 2.15248 0.01848
C 8.5801 2.17686 -0.02813
C 8.66122 0.83112 0.00374
C 7.41178 0.08086 0.00052
C 9.85792 32.67772 -0.03682
C 11.12558 31.93666 0.01965
C 11.09769 30.52683 0.02058
C 9.82142 29.86051 -0.01957
C 9.88168 28.45808 -0.0108
C 11.1406 27.75426 -0.00368
C 11.03098 26.36001 -0.02696
C 9.79406 25.70321 -0.00114
C 9.83195 24.23089 0.00228
C 9.75513 21.12521 0.00798
C 9.81746 19.96632 0.00422
C 11.08079 4.8306 0.0351
C 9.81484 4.29363 -0.03113
C 9.87566 2.87405 0.02098
C 11.03648 0.66033 -0.00619
C 7.29541 2.96336 -0.01952
C 14.8118 2.77798 -0.00316
C 15.98472 0.74341 -0.01979
C 19.67134 2.84128 0.0058
C 20.95091 2.17319 -0.00865
C 20.88665 0.71492 0.00675
C 19.68347 34.0754 -0.00311
C 22.06683 32.70275 0.00742
C 23.30199 31.94055 -0.01594
C 23.2903 30.47611 0.0106
C 22.09586 29.79313 -0.01154
C 22.1197 28.42757 -0.01721
C 23.37945 27.57173 -0.02422
C 23.26017 26.16267 0.01277
C 21.87188 25.45015 0.00096
C 22.2993 24.07748 -0.01527
C 23.2591 23.20934 0.01087
C 23.33622 21.70712 0.00199
C 22.36314 20.50647 0.01511
C 23.37505 19.35263 -0.00478
C 19.66084 4.29891 -0.00652
C 16.02535 2.19566 0.02188
C 20.83935 4.98125 -0.04076
C 20.84808 27.66019 0.00654
C 14.76187 0.05527 0.02691
C 17.23161 32.7085 -0.01581
C 18.41634 31.9838 0.01452
C 18.41343 30.5607 0.04892
C 17.2486 29.77323 -0.00111
C 17.20965 28.27538 -0.03557
C 18.47353 27.85459 0.03754
C 17.66464 4.25605 0.01739
C 17.3607 2.90167 0.00755
C 18.47644 2.06229 -0.0054
C 18.46814 0.68477 0.00667
C 17.27642 0.03536 0.00143
C 19.66791 32.67982 -0.017
C 20.8745 31.94718 0.00364
C 20.83868 30.54809 -0.00831
C 19.62718 29.89033 -0.02957
C 19.67246 28.5204 -0.04422
C 20.74196 26.30404 -0.00703
C 7.36993 4.36187 0.05265
C 8.58786 5.07242 -0.01717
C 8.56988 6.39947 0.00244
C 2.48795 8.46672 0.01745
C 2.45781 7.06918 0.00488
C 3.69721 6.40639 -0.01004
C 3.63683 5.02659 -0.02896
C 2.46307 4.24622 -0.00131
C 2.43573 2.89329 -0.01118
C 3.66721 2.20174 -0.014
C 3.63027 0.8001 0.02147
C 2.47467 0.05731 0.00373
C 4.91982 32.69115 -0.00191
C 6.09685 32.07632 0.00438
C 6.21227 30.5938 0.01291
C 4.90987 29.91878 0.00093
C 4.89692 28.48267 0.00057
C 6.12516 27.74511 -0.01634
C 6.07499 26.25783 -0.00334
C 4.89082 25.55268 0.02339
C 3.70097 9.23021 0.03693
C 4.9432 24.13832 0.01641
C 3.64593 10.65708 -0.01384
C 2.34943 12.81382 0.02888
C 3.69551 30.54532 0.01396
C 2.42659 29.95644 0.01849
C 2.40559 28.5037 -0.01142
C 3.66446 27.73334 -0.00562
C 3.64387 26.31879 -0.00494
C 2.44882 25.64751 0.00054
C 2.39581 24.11238 0.03007
C 3.66091 23.41318 -0.00095
C 3.64076 22.00849 0.01572
C 2.4593 21.22549 -0.04848
C 2.41465 19.87174 -0.00892
C 3.61879 19.14534 -0.01362
C 3.68511 17.70907 -0.0008
C 2.3998 16.99313 0.0288
C 2.44112 15.57421 0.00393
C 3.67545 14.91738 0.00895
C 3.55617 13.43623 0.00685
C 2.4314 11.32579 -0.00482
C 6.15498 23.43262 -0.00719
C 6.18677 22.00142 0.01364
C 4.91785 21.27915 -0.01062
C 8.60696 30.5763 0.02894
C 7.31807 29.79092 -0.01789
C 7.3922 28.45215 0.00444
C 8.63902 27.72876 -0.00925
C 8.53213 26.29524 0.01877
C 7.30783 25.68818 0.01363
C 7.34543 24.13453 -0.02162
C 8.6273 23.55181 0.00415
C 8.58388 22.09865 -0.0014
C 7.33619 21.29391 0.02162
C 7.42799 19.88258 0.0076
C 8.54475 19.05368 0.01241
C 8.567 17.75052 -0.01454
C 7.4773 16.93672 0.01945
C 7.31527 15.48199 0.01416
C 7.31262 8.66815 0.03542
C 7.4776 7.30651 0.02299
C 8.53837 31.99849 -0.02971
C 7.37093 32.70208 0.00165
C 4.94718 0.02623 0.02819
C 6.20115 0.74938 -0.00891
C 4.9243 19.76608 -0.00033
C 6.23011 19.10998 0.03589
C 6.26433 17.70401 -0.02759
C 4.90603 16.96926 0.0402
C 4.93039 15.55182 0.00572
C 6.13101 14.76871 0.03592
C 6.08099 13.3174 0.00406
C 4.82568 12.77707 0.00943
C 23.31372 17.99166 -0.01662
C 4.84962 11.41415 0.02841
C 6.11389 9.38477 -0.01275
C 4.94412 8.60722 0.00985
C 4.91409 7.20372 -0.02245
C 6.16367 6.55357 -0.00428
C 6.17259 5.07063 0.03101
C 4.87784 4.37408 -0.01536
C 4.92059 2.90626 -0.02689
C 6.10814 2.21346 -0.01046
C 6.12268 10.8678 -0.01111
C 3.69372 32.00112 0.0127
C 23.30526 9.45844 -0.01185
C 23.23305 6.50066 0.01852
C 32.06502 28.44046 0.0544
C 33.15327 27.69849 0.00026
C 33.21117 26.29757 0.00682
C 31.9646 25.56377 -0.01779
C 32.03848 24.13947 0.03794
C 33.2076 23.38877 0.01927
C 33.22519 21.97773 0.01574
C 31.99241 21.26812 -0.02383
C 32.0189 19.83297 -0.01429
C 33.24634 19.18492 -0.0136
C 33.18867 17.69896 0.00594
C 31.93361 17.00894 -0.02474
C 31.89802 15.63134 0.00369
C 33.13689 14.92274 0.00455
C 33.23675 13.56837 -0.00644
C 31.99016 12.7957 -0.01839
C 32.02448 11.42312 0.00137
C 31.91735 29.83619 -0.02142
C 33.18596 10.65194 0.00199
C 33.18854 30.55538 0.01428
C 31.91983 32.7113 0.01713
C 29.39612 17.1188 0.0101
C 29.45835 15.62963 0.01705
C 30.7223 14.92117 -0.0405
C 30.67775 13.46628 -0.01303
C 29.48704 12.82468 -0.01461
C 29.4931 11.3204 -0.02155
C 30.78017 10.68218 -0.00944
C 30.68919 9.26683 -0.03735
C 29.485 8.51608 -0.00971
C 29.45636 7.14387 0.01518
C 30.66937 6.42332 0.01908
C 30.66768 5.00669 0.07705
C 29.46239 4.22676 0.0103
C 29.40155 2.81491 0.02108
C 30.69298 2.10394 0.00716
C 30.63324 0.66201 0.00307
C 29.45062 34.04936 0.00346
C 33.18921 31.92288 -0.01694
C 30.69814 17.8303 -0.00669
C 33.13447 9.22927 0.04381
C 31.92412 7.12156 0.01504
C 1.14769 17.72647 0.01223
C 34.35708 17.03888 0.00648
C 34.39183 15.68641 0.02114
C 1.19049 14.97658 -0.02957
C 1.19061 13.53535 0.00343
C 34.41061 12.8169 -0.02656
C 34.40845 11.38672 -0.02442
C 1.23172 10.64616 -0.00027
C 1.23541 9.21708 -0.00583
C 0.00732 8.51018 -0.02302
C 34.42719 7.04178 -0.02849
C 1.22258 6.3725 0.02931
C 1.2093 4.92235 0.00628
C 34.37413 4.25523 -0.0345
C 34.39116 2.83281 -0.00931
C 1.24056 2.13101 -0.00939
C 1.1897 0.74411 -0.00468
C 1.11816 19.22824 -0.01678
C 31.93224 8.52738 0.02806
C 34.41778 19.94252 0.01951
C 1.25722 22.02448 0.02712
C 33.19997 6.35292 -0.00069
C 33.14538 4.91115 0.04926
C 31.89214 4.25891 -0.03838
C 31.87489 2.81376 0.00349
C 33.12679 2.12988 -0.00323
C 33.14072 0.74093 -0.00841
C 31.85917 0.05449 0.0001
C 34.42325 32.66517 -0.02927
C 1.20074 32.02189 -0.01404
C 1.19064 30.62572 0.01027
C 34.41237 29.86177 0.01831
C 34.35496 28.52281 -0.01037
C 1.14423 27.84714 -0.00439
C 1.19734 26.38253 -0.00598
C 0.03232 25.60988 -0.05239
C 0.01258 24.11609 0.03076
C 1.23057 23.43837 0.00723
C 0.02124 21.2987 -0.02213
C 30.7673 19.16762 0.03531
C 29.51451 19.87584 0.01836
C 29.53831 21.29764 -0.03039
C 24.3871 17.01677 0.03005
C 24.50421 15.65191 -0.04078
C 25.76752 14.95479 0.02117
C 25.73034 13.55869 0.02737
C 24.53284 12.62265 -0.00498
C 24.50212 11.42787 0.00135
C 25.79429 10.60515 0.03102
C 25.76897 9.20167 0.02555
C 24.53067 8.62319 0.01423
C 24.4642 7.1676 -0.00285
C 25.68831 6.46808 -0.009
C 25.73227 5.02532 -0.01199
C 24.5408 4.30938 -0.00229
C 24.58173 2.89851 -0.00938
C 25.79361 2.13266 -0.0264
C 25.80009 0.62956 -0.01154
C 24.54586 34.06575 0.00684
C 25.70947 17.69701 -0.0276
C 26.97329 32.63682 -0.01052
C 25.81431 19.09771 0.00768
C 24.69913 21.29802 0.00733
C 23.3055 5.06705 -0.00381
C 22.10787 4.29879 0.03046
C 22.1085 2.87268 0.0296
C 23.39216 2.15688 0.03374
C 23.3224 0.73386 -0.02845
C 22.11685 34.00968 -0.03213
C 24.52261 32.59609 0.02239
C 25.71891 31.88433 0.01153
C 25.75046 30.42394 0.02734
C 24.54348 29.77895 -0.0055
C 24.56638 28.30499 0.01515
C 25.76288 27.56906 -0.00225
C 25.80033 26.11611 0.00071
C 24.49106 25.38336 -0.01107
C 24.53097 24.02665 -0.01586
C 25.8734 23.40283 -0.01971
C 25.88973 22.03562 -0.02118
C 24.70106 19.90881 -0.00178
C 28.16466 31.93487 -0.01679
C 28.21439 30.47014 0.00367
C 26.95636 29.70851 0.04306
C 28.23628 5.00501 0.00235
C 27.03269 4.32154 0.01495
C 27.05862 2.82186 0.01259
C 28.22383 2.14775 0.01799
C 28.19871 0.72057 0.01699
C 27.01275 34.05873 -0.00416
C 29.42109 32.62539 0.01177
C 30.66685 32.01871 0.04266
C 30.70437 30.49452 0.01324
C 29.398 29.72463 0.0014
C 29.41881 28.28103 0.00924
C 30.77352 27.64078 0.02326
C 30.75123 26.2797 0.00261
C 29.51636 25.52261 0.03265
C 29.56219 24.09252 -0.02049
C 30.78864 23.41863 -0.01854
C 30.76544 22.01493 -0.01415
C 28.1766 6.4608 0.01094
C 26.98064 7.18927 0.02198
C 26.96747 8.60846 0.02611
C 28.23297 9.2881 -0.00621
C 27.03701 28.27869 0.00996
C 28.25031 27.59169 0.00195
C 28.26871 26.18542 -0.00802
C 27.07325 25.43951 -0.00218
C 27.12919 24.0574 -0.01654
C 28.33917 23.38244 -0.00037
C 28.34638 22.03682 -0.0032
C 27.07659 21.2919 0.00622
C 22.02421 7.10991 0.01126
C 27.07011 19.8608 -0.02815
C 28.18876 17.72096 0.00487
C 26.94286 17.00588 0.00826
C 26.95949 15.6685 -0.00294
C 28.24361 14.94706 0.00152
C 28.20021 13.55914 0.01257
C 26.98158 12.789 0.02316
C 26.97688 11.35312 0.04185
C 28.25699 10.65336 0.00194
C 28.27046 19.14688 -0.00942
C 2.46111 32.75104 0.02635
