400
Graphene
C 0.01091 0.00256 0.01295
C 13.46337 27.721 0.00165
C 13.49553 26.35686 -0.02971
C 12.31053 25.58174 0.02894
C 12.33667 24.06556 -0.01789
C 13.52627 23.34884 0.00444
C 13.57772 21.83924 -0.00925
C 12.15277 21.29005 0.01877
C 12.69003 11.198 0.01363
C 13.64207 10.22541 -0.02162
C 13.59409 8.85069 0.00415
C 12.28083 8.46824 -0.0014
C 12.32391 7.00011 0.02162
C 13.58979 6.50533 0.0076
C 13.73766 4.9497 0.01241
C 12.40779 4.27863 -0.01454
C 12.39096 2.79465 0.01945
C 13.55721 2.05635 0.01416
C 13.44668 0.73469 0.03542
C 12.23728 34.06638 0.02299
C 14.71104 32.60237 0.00244
C 15.99851 31.93511 -0.01717
C 12.17603 28.36784 0.02819
C 15.97694 30.5135 0.05265
C 12.16425 29.90163 -0.00891
C 13.47641 31.92896 -0.02689
C 11.04585 26.28171 0.02339
C 9.8283 25.57567 0.01641
C 9.82476 24.24076 -0.00719
C 11.06073 23.5217 0.01364
C 11.06965 22.0659 -0.01062
C 9.85957 21.38632 -0.00033
C 9.96494 20.01734 0.03589
C 9.83779 12.74092 -0.02759
C 9.92471 11.39555 0.0402
C 11.26181 10.64264 0.00572
C 11.07299 9.26837 0.03592
C 9.82325 8.54568 0.00406
C 9.88961 7.12192 0.00943
C 11.0617 6.26551 0.02841
C 11.19065 4.95036 -0.01111
C 9.88392 4.28435 -0.01275
C 9.79033 2.93563 0.00985
C 11.06018 2.18087 -0.02245
C 11.02187 0.74129 -0.00428
C 9.74684 34.06163 0.03101
C 12.24815 32.70517 -0.01536
C 13.4164 30.52013 -0.01046
C 10.95997 27.72217 -0.00334
C 14.71564 29.77619 -0.01952
C 15.92523 27.72646 0.00374
C 18.3044 19.16196 -0.05302
C 18.51814 17.66099 0.00213
C 18.48858 15.15736 -0.00066
C 18.19792 13.81606 -0.00289
C 17.80765 12.47273 0.00028
C 17.17354 2.93146 -0.02213
C 18.46354 2.33731 0.03698
C 18.48071 0.77684 -0.00109
C 17.30283 34.07566 -0.00491
C 19.63046 32.59728 0.03338
C 20.84309 31.9769 -0.0258
C 20.87851 30.54873 -0.0331
C 19.63177 29.83458 -0.00316
C 19.65144 28.40664 0.02188
C 20.8455 27.70485 -0.01979
C 20.89721 26.2753 0.02691
C 19.69876 25.55741 -0.01581
C 19.70219 24.20047 0.01452
C 20.87356 23.4187 0.04892
C 20.90972 22.0014 -0.00111
C 19.68358 21.30612 -0.03557
C 17.16903 19.94825 -0.04147
C 14.70241 28.37449 -0.02813
C 17.21366 21.39159 -0.02815
C 18.49963 23.51488 0.01443
C 16.00955 26.31904 0.00052
C 14.72984 25.52439 -0.03682
C 14.68809 24.08224 0.01965
C 15.95574 23.46469 0.02058
C 16.04783 22.09007 -0.01957
C 14.84359 21.32604 -0.0108
C 13.92776 11.78224 -0.00368
C 14.78315 4.12016 -0.02696
C 14.78098 2.75512 -0.00114
C 15.97776 2.04682 0.00228
C 16.04415 0.67102 0.00798
C 14.75291 34.01907 0.00422
C 17.2223 32.69532 0.0351
C 18.38793 31.91723 -0.03113
C 18.33756 30.57609 0.02098
C 17.20235 29.84819 0.01848
C 17.12568 28.39412 -0.00619
C 18.42846 27.66753 -0.02162
C 18.46905 26.26675 0.00889
C 17.1936 25.57115 -0.00481
C 17.23822 24.15512 0.00979
C 18.44552 22.10499 0.03505
C 19.61684 19.8983 0.03754
C 9.73048 28.45984 -0.01634
C 10.99725 30.55151 0.00093
C 2.3861 4.36067 0.00402
C 2.38747 2.93039 0.0073
C 3.57745 2.15059 0.0174
C 3.67727 0.73677 0.03828
C 2.45063 0.04634 0.01226
C 4.87498 32.7541 -0.00279
C 6.03487 32.01364 0.01996
C 6.08526 30.56088 -0.03996
C 4.77703 29.80073 0.01465
C 4.82159 28.4409 -0.00074
C 6.07162 27.72969 -0.00518
C 6.12572 26.31552 0.0086
C 4.8827 25.57927 -0.00643
C 4.86484 24.14925 0.017
C 6.19829 23.43453 -0.03113
C 6.18152 22.03211 -0.02566
C 4.84485 21.32906 -0.00094
C 4.96225 19.89883 0.02322
C 6.15864 19.18613 -0.00725
C 6.08161 17.79473 -0.05697
C 4.89906 17.1363 0.01087
C 3.6469 5.01327 0.02374
C 4.76736 15.63802 -0.01343
C 3.675 6.50678 0.03267
C 2.43245 8.54509 0.00643
C 3.64104 30.64056 0.0064
C 2.41884 29.8927 0.00211
C 2.43957 28.39358 -0.00449
C 3.64315 27.65818 -0.01979
C 3.638 26.2183 0.02784
C 2.45553 25.53198 -0.01977
C 2.51025 24.14762 -0.00561
C 3.67781 23.40253 0.00208
C 3.65216 22.0082 0.01707
C 2.46474 21.23802 0.02769
C 2.45497 19.87326 -0.03291
C 3.69453 19.12367 -0.04999
C 3.69627 17.76057 0.04505
C 2.469 17.12951 0.03284
C 2.3799 15.65652 -0.04307
C 3.5922 14.90241 0.03189
C 3.65736 13.48207 0.00031
C 2.4447 12.81478 -0.003
C 2.40366 11.38781 0.01402
C 3.66234 10.64796 0.02379
C 3.67034 9.27706 0.00907
C 2.41879 7.14378 -0.01509
C 9.79289 29.8518 0.00057
C 6.00632 14.93507 0.00988
C 4.91339 12.83172 0.01305
C 8.73986 18.99949 -0.0008
C 8.5706 17.67155 0.0288
C 7.29855 17.08822 0.00393
C 7.27452 15.66066 0.00895
C 8.60753 15.04441 0.00685
C 8.7522 13.62494 0.02888
C 7.42302 12.91528 -0.00482
C 7.43945 11.46749 -0.01384
C 8.59368 10.66434 0.03693
C 8.61603 9.28799 0.01745
C 7.46034 8.5442 0.00488
C 7.45465 7.18725 -0.01004
C 8.56369 6.44107 -0.02896
C 8.63138 4.9906 -0.00131
C 7.33717 4.32919 -0.01118
C 7.34653 2.85465 -0.014
C 8.63461 2.17195 0.02147
C 8.53554 0.76095 0.00373
C 7.32008 0.09803 -0.00191
C 9.70414 32.68797 0.00438
C 10.96149 32.02258 0.01291
C 7.48351 19.86936 -0.01362
C 6.19268 13.5078 0.0276
C 7.40749 21.27886 -0.00892
C 8.57535 23.56391 0.01572
C 4.869 11.41047 -0.00077
C 6.15988 10.68659 0.03368
C 6.17368 9.31373 -0.02929
C 4.88833 8.69135 -0.00966
C 4.94906 7.23531 -0.03337
C 6.20307 6.50678 0.01227
C 6.11476 5.08611 0.00873
C 4.8933 4.38849 -0.00049
C 4.86271 2.94642 0.00848
C 6.07139 2.23156 -0.01303
C 6.16824 0.85823 -0.01378
C 4.89208 0.15847 0.02635
C 7.31423 32.68493 0.0127
C 8.54763 32.02289 0.01396
C 8.51727 30.61189 0.01849
C 7.29472 29.90626 -0.01142
C 7.30138 28.42717 -0.00562
C 8.48051 27.7438 -0.00494
C 8.48188 26.27431 0.00054
C 7.2976 25.62528 0.03007
C 7.34097 24.21072 -0.00095
C 8.56378 22.1097 -0.04848
C 20.85873 19.24154 0.01739
C 20.96862 17.84926 0.00755
C 19.74034 17.18112 -0.0054
C 29.45851 7.13355 0.01518
C 30.63693 6.29536 0.01908
C 30.68518 4.87459 0.07705
C 29.45597 4.26122 0.0103
C 29.4376 2.75443 0.02108
C 30.7134 2.15247 0.00716
C 30.79695 0.69342 0.00307
C 29.54069 0.00019 0.00346
C 32.02544 32.68064 0.01713
C 33.22745 31.95267 -0.01694
C 33.21185 30.49717 0.01428
C 31.98728 29.74389 -0.02142
C 31.922 28.36603 0.0544
C 33.19027 27.67286 0.00026
C 33.13693 26.16395 0.00682
C 31.86882 25.53194 -0.01779
C 31.90995 24.12286 0.03794
C 33.16409 23.44667 0.01927
C 33.22379 21.98778 0.01574
C 31.90846 21.34165 -0.02383
C 31.90608 19.89142 -0.01429
C 29.4308 8.54184 -0.00971
C 33.08594 19.17151 -0.0136
C 30.72675 9.1254 -0.03735
C 29.45276 11.32333 -0.02155
C 27.13116 33.99938 -0.00416
C 29.58989 32.58178 0.01177
C 30.76056 31.91756 0.04266
C 30.77643 30.46219 0.01324
C 29.48267 29.83853 0.0014
C 29.4861 28.37192 0.00924
C 30.65696 27.71285 0.02326
C 30.69623 26.28676 0.00261
C 29.51368 25.51015 0.03265
C 29.49942 24.15185 -0.02049
C 30.64145 23.41705 -0.01854
C 30.65465 22.02844 -0.01415
C 29.43154 21.31163 -0.03039
C 29.42866 19.87817 0.01836
C 30.70521 19.18993 0.03531
C 30.65911 17.80885 -0.00669
C 29.47551 17.05764 0.0101
C 29.43793 15.68661 0.01705
C 30.64967 14.98795 -0.0405
C 30.70739 13.53458 -0.01303
C 29.45398 12.78075 -0.01461
C 30.71376 10.62926 -0.00944
C 28.34082 0.69479 0.01699
C 33.13719 17.7613 0.00594
C 31.86776 15.62701 0.00369
C 1.26701 21.99015 0.02712
C 0.06437 21.2926 -0.02213
C 34.41746 19.91753 0.01951
C 1.11774 19.16162 -0.01678
C 1.16405 17.807 0.01223
C 34.3933 17.09933 0.00648
C 34.40292 15.6553 0.02114
C 1.13991 14.86007 -0.02957
C 1.18197 13.45219 0.00343
C 34.35644 12.81065 -0.02656
C 34.36459 11.33667 -0.02442
C 1.1613 10.66801 -0.00027
C 1.13774 9.27273 -0.00583
C 34.36116 8.59287 -0.02302
C 34.28965 7.16351 -0.02849
C 1.14878 6.44248 0.02931
C 1.18821 5.04112 0.00628
C 34.37176 4.36578 -0.0345
C 0.01864 2.90127 -0.00931
C 1.20303 2.17579 -0.00939
C 1.24138 0.70852 -0.00468
C 1.25241 23.41278 0.00723
C 31.87073 17.05646 -0.02474
C 0.00066 24.1052 0.03076
C 1.1863 26.26582 -0.00598
C 33.1178 14.98585 0.00455
C 33.11225 13.51988 -0.00644
C 31.88296 12.75756 -0.01839
C 31.88657 11.34655 0.00137
C 33.1525 10.60835 0.00199
C 33.22079 9.20882 0.04381
C 31.94423 8.53586 0.02806
C 31.84111 7.10342 0.01504
C 33.07559 6.42206 -0.00069
C 33.14904 4.97373 0.04926
C 31.96306 4.28315 -0.03838
C 31.92223 2.85352 0.00349
C 33.15944 2.1492 -0.00323
C 33.21301 0.74124 -0.00841
C 32.02043 34.05734 0.0001
C 0.04627 32.66997 -0.02927
C 1.2354 32.00163 -0.01404
C 1.16966 30.59857 0.01027
C 0.00272 29.78969 0.01831
C 34.39212 28.36541 -0.01037
C 1.19354 27.7151 -0.00439
C 34.39747 25.49276 -0.05239
C 28.30227 2.08033 0.01799
C 27.04357 2.8518 0.01259
C 27.00247 4.29898 0.01495
C 23.35866 14.92069 0.00199
C 23.34335 13.50243 0.01511
C 22.0521 12.79645 -0.00478
C 22.0684 11.42346 -0.01662
C 23.16408 10.48047 -0.01185
C 23.31276 9.10719 0.01126
C 23.29465 6.42719 0.01852
C 23.21252 5.05113 -0.00381
C 22.08111 4.1151 0.03046
C 22.17524 2.70989 0.0296
C 23.46701 2.04011 0.03374
C 23.37146 0.652 -0.02845
C 22.16688 33.92693 -0.03213
C 24.62848 32.59133 0.02239
C 25.81966 31.93323 0.01153
C 25.84943 30.53266 0.02734
C 24.63339 29.85814 -0.0055
C 24.59119 28.46936 0.01515
C 25.77602 27.73568 -0.00225
C 25.82 26.26929 0.00071
C 24.58293 25.53718 -0.01107
C 22.16079 15.66049 0.01087
C 24.51901 24.1499 -0.01586
C 22.06379 17.00909 -0.01527
C 23.30073 19.15738 0.01277
C 19.74662 15.69434 0.00667
C 20.9666 14.93586 0.00143
C 20.74777 13.53618 -0.017
C 19.36818 12.98141 0.00364
C 19.82122 2.75551 -0.00831
C 20.95303 1.93595 -0.02957
C 20.9506 0.51272 -0.04422
C 19.64779 34.06323 0.00654
C 22.15404 32.58332 -0.00703
C 23.37322 31.91174 -0.04076
C 23.30649 30.47672 -0.00652
C 22.11701 29.77926 0.0058
C 22.13051 28.39141 -0.00865
C 23.32561 27.7674 0.00675
C 23.3507 26.26101 -0.00311
C 22.10411 25.56706 0.00742
C 22.07644 24.17159 -0.01594
C 23.27572 23.48509 0.0106
C 23.30522 22.10559 -0.01154
C 22.1752 21.42015 -0.01721
C 22.10611 19.93874 -0.02422
C 23.43179 17.79528 0.00096
C 25.73778 23.448 -0.01971
C 25.78333 22.01434 -0.02118
C 24.55535 21.31225 0.00733
C 28.3127 26.23729 -0.00802
C 27.052 25.55317 -0.00218
C 26.97576 24.13267 -0.01654
C 28.26798 23.46091 -0.00037
C 28.28669 22.04765 -0.0032
C 27.02448 21.27397 0.00622
C 27.0207 19.918 -0.02815
C 28.22908 19.14787 -0.00942
C 28.26829 17.75532 0.00487
C 27.06505 17.00561 0.00826
C 27.0136 15.56754 -0.00294
C 28.23021 14.94067 0.00152
C 28.21254 13.49405 0.01257
C 27.02939 12.81385 0.02316
C 27.0222 11.3663 0.04185
C 28.22696 10.67205 0.00194
C 28.15969 9.20841 -0.00621
C 26.95137 8.49555 0.02611
C 26.98731 7.07061 0.02198
C 28.22334 6.37252 0.01094
C 28.24844 4.9652 0.00235
C 28.33421 27.63894 0.00195
C 27.08573 28.34561 0.00996
C 27.0339 29.74462 0.04306
C 28.3291 30.52753 0.00367
C 24.56181 19.93557 -0.00178
C 25.85775 19.14375 0.00768
C 25.80525 17.66914 -0.0276
C 24.62459 16.99663 0.03005
C 24.63042 15.59996 -0.04078
C 25.80005 14.82593 0.02117
C 25.739 13.418 0.02737
C 24.5018 12.72655 -0.00498
C 24.47794 11.26777 0.00135
C 25.72799 10.56713 0.03102
C 3.6211 32.04896 -0.00039
C 25.75493 9.2029 0.02555
C 24.57675 7.11988 -0.00285
C 25.70777 6.34224 -0.009
C 25.69559 4.93342 -0.01199
C 24.48062 4.2974 -0.00229
C 24.56598 2.86907 -0.00938
C 25.8961 2.07653 -0.0264
C 25.86144 0.58145 -0.01154
C 24.6503 0.00263 0.00684
C 27.17847 32.66063 -0.01052
C 28.33894 31.91682 -0.01679
C 24.55858 8.49657 0.01423
C 2.42428 32.73232 0.02728
