439
Graphene
C 0.05859 34.04508 0.01295
C 12.28493 17.14216 -0.00334
C 12.27223 15.75781 0.02339
C 13.52345 14.97576 0.01641
C 13.40742 13.52534 -0.00719
C 12.25532 12.7883 0.01364
C 12.23775 11.34554 -0.01062
C 13.44816 10.72057 -0.00033
C 13.47398 9.24971 0.03589
C 12.27291 8.51462 -0.02759
C 12.22743 7.10284 0.0402
C 13.45485 6.4016 0.00572
C 13.50256 4.89501 0.03592
C 12.28034 4.16805 0.00406
C 12.3248 2.81481 0.00943
C 13.57874 2.05076 0.02841
C 13.61225 0.61965 -0.01111
C 12.33426 34.0511 -0.01275
C 14.67612 32.59408 0.00985
C 15.98513 31.77603 -0.02245
C 15.89198 30.43033 -0.00428
C 14.6825 24.25586 0.03101
C 15.9648 23.51359 -0.01536
C 15.98711 22.05204 -0.02689
C 13.53579 17.79855 -0.01634
C 13.51599 19.22185 0.00057
C 12.31102 19.9069 0.00093
C 12.30232 21.36286 0.01291
C 9.84441 15.70015 0.01572
C 11.05323 15.00883 -0.04848
C 11.01781 13.51643 -0.00892
C 9.85275 12.8183 -0.01362
C 9.81849 11.34534 -0.0008
C 11.03296 10.67224 0.0288
C 11.04353 9.21302 0.00393
C 9.81425 8.60263 0.00895
C 9.82736 7.17982 0.00685
C 11.01128 6.46739 0.02888
C 11.06078 4.97192 -0.00482
C 14.73461 21.36219 -0.01046
C 9.83871 4.25316 -0.01384
C 11.08411 2.14878 0.01745
C 11.05402 0.76523 0.00488
C 9.89939 0.08016 -0.01004
C 12.31553 32.70421 -0.02896
C 13.44523 31.90704 -0.00131
C 13.53653 30.43336 -0.01118
C 12.30745 29.58483 -0.014
C 12.43336 25.57038 0.02147
C 12.28863 24.19854 0.00373
C 13.50839 23.46387 -0.00191
C 13.53293 22.07883 0.00438
C 9.84358 2.81987 0.03693
C 9.76732 17.12738 -0.00095
C 14.68444 19.94802 -0.00891
C 15.97836 17.76985 0.00165
C 17.19128 19.82047 -0.01957
C 18.45803 19.14611 -0.0108
C 18.44676 17.71446 -0.00368
C 17.23355 17.06784 -0.02696
C 17.17164 15.60856 -0.00114
C 18.39273 14.85072 0.00228
C 18.36363 13.47066 0.00798
C 17.1739 12.7363 0.00422
C 17.11276 11.37805 0.0351
C 18.38468 10.70954 -0.03113
C 18.33486 9.24269 0.02098
C 17.11768 8.51327 0.01848
C 17.12189 7.08313 -0.00619
C 18.34843 6.42263 -0.02162
C 18.4547 4.9547 0.00889
C 17.26472 4.25482 -0.00481
C 17.28785 2.85675 0.00979
C 18.39734 2.08468 0.01443
C 18.40693 0.6763 0.03505
C 17.16263 34.01259 -0.02815
C 19.57184 32.636 -0.04147
C 20.86081 32.01218 -0.05302
C 20.89826 30.62182 0.00213
C 17.18746 21.28834 0.02058
C 18.42193 22.00708 0.01965
C 18.40725 23.46367 -0.03682
C 17.18303 24.25583 0.00052
C 14.7402 17.05632 -0.02971
C 14.82924 15.64409 0.02894
C 15.96835 14.83551 -0.01789
C 15.86402 13.52614 0.00444
C 14.64683 12.80603 -0.00925
C 14.67971 11.40544 0.01877
C 15.86058 10.61693 0.01363
C 15.91138 9.20369 -0.02162
C 14.70331 8.50285 0.00415
C 14.69985 7.0531 -0.0014
C 15.94204 6.35594 0.02162
C 15.91134 19.23094 0.02819
C 15.95925 5.01325 0.0076
C 14.77533 2.76835 -0.01454
C 16.04298 2.08645 0.01945
C 16.00815 0.70168 0.01416
C 14.82048 34.00011 0.03542
C 17.12074 32.52282 0.02299
C 18.3331 31.88958 0.00244
C 18.29846 30.49957 -0.01717
C 17.16592 29.53821 0.05265
C 18.1489 27.96398 -0.01952
C 18.19196 26.46651 -0.02813
C 16.98708 25.59595 0.00374
C 14.72042 4.18585 0.01241
C 19.66741 29.94182 -0.00066
C 11.03596 17.81184 0.03007
C 9.78746 19.93075 -0.00494
C 3.71878 0.74902 0.00088
C 2.47603 34.05387 0.00828
C 4.95034 32.64488 -0.02375
C 6.08933 31.94721 0.00558
C 6.1944 30.50024 -0.0059
C 4.92978 29.80121 -0.01386
C 4.88016 28.38947 -0.02805
C 6.13119 27.68704 0.00081
C 6.15561 26.2923 0.00245
C 4.9019 25.55748 0.02728
C 4.89524 24.14684 -0.00039
C 6.1743 23.45249 0.0064
C 6.01946 21.99083 0.00211
C 4.81436 21.25348 -0.00449
C 4.79954 19.92354 -0.01979
C 6.11545 19.24577 0.02784
C 6.05041 17.81389 -0.01977
C 4.82488 16.99482 -0.00561
C 4.83065 15.52767 0.00208
C 6.10097 14.89644 0.01707
C 6.12389 13.45127 0.02769
C 4.80956 12.90794 -0.03291
C 4.83047 11.40226 -0.04999
C 3.72816 2.16956 0.04421
C 2.53348 2.89114 -0.00177
C 2.50214 4.25121 0.03278
C 3.71099 5.03611 0.01138
C 3.71767 30.52496 -0.0005
C 2.49329 29.84638 -0.00018
C 2.47157 28.42279 0.01073
C 3.67713 27.66187 0.01984
C 3.75357 26.23736 0.00535
C 2.50627 25.65541 -0.00198
C 2.42609 24.09284 -0.00012
C 3.68427 23.42613 -0.04306
C 3.69132 22.01765 -0.03672
C 2.41905 21.32066 0.01913
C 2.40168 19.8739 0.00267
C 6.12243 10.79153 0.04505
C 3.64279 19.10246 0.00787
C 2.38954 17.00615 0.01218
C 2.37867 15.61591 -0.01471
C 3.60191 14.9092 -0.02827
C 3.54202 13.48962 0.01078
C 2.32632 12.73569 -0.00112
C 2.40587 11.34208 0.03345
C 3.66689 10.65278 0.00748
C 3.69428 9.27045 0.00662
C 2.48745 8.54536 -0.0154
C 2.50338 7.17988 -0.01299
C 3.70405 6.41562 -0.00407
C 3.70289 17.72883 0.02426
C 10.99107 19.2214 0.00054
C 6.14917 9.39451 0.03284
C 4.97156 7.17802 0.03189
C 8.58689 10.72504 -0.05697
C 8.57389 9.28791 0.01087
C 7.33306 8.63171 -0.01343
C 7.40024 7.14198 0.00988
C 8.66729 6.41962 0.0276
C 8.66974 5.03881 0.01305
C 7.43566 4.39593 -0.00077
C 7.40715 2.96471 0.03368
C 8.57605 2.21147 -0.02929
C 8.60441 0.78061 -0.00966
C 7.41427 0.0611 -0.03337
C 9.82945 32.71884 0.01227
C 10.98921 31.96396 0.00873
C 11.02303 30.58441 -0.00049
C 9.831 29.9154 0.00848
C 9.95105 28.4774 -0.01303
C 11.26594 28.01525 -0.01378
C 11.24204 26.47728 0.02635
C 10.00718 25.68517 0.0127
C 9.88929 24.22907 0.01396
C 11.05599 23.50635 0.01849
C 10.95504 22.0935 -0.01142
C 9.82237 21.31057 -0.00562
C 7.34209 11.50882 -0.00725
C 7.42183 12.87749 0.02322
C 8.58268 13.63709 -0.00094
C 8.58346 15.04836 -0.02566
C 6.17097 6.47598 0.00031
C 6.21505 5.1012 -0.003
C 5.01446 4.39654 0.01402
C 4.91601 2.952 0.02379
C 6.10059 2.19681 0.00907
C 6.14133 0.72215 0.00643
C 4.95562 0.00579 -0.01509
C 7.31962 32.69567 0.03267
C 8.59039 31.98422 0.02374
C 8.53308 30.58139 0.00402
C 7.33521 29.86003 0.0073
C 4.94239 8.56599 -0.04307
C 7.40988 28.45407 0.0174
C 8.67545 26.33614 0.01226
C 7.46645 25.60015 -0.00279
C 7.35048 24.21626 0.01996
C 8.6402 23.47468 -0.03996
C 8.59057 22.03723 0.01465
C 7.36512 21.31641 -0.00074
C 7.36432 19.90873 -0.00518
C 8.56986 19.16345 0.0086
C 8.53321 17.7751 -0.00643
C 7.23359 17.0744 0.017
C 7.25233 15.65954 -0.03113
C 8.68258 27.76057 0.03828
C 3.72987 31.97508 0.01116
C 19.46759 28.43456 -0.00289
C 20.73383 26.38195 -0.02213
C 30.66974 14.89995 -0.0405
C 30.68379 13.49584 -0.01303
C 29.48066 12.70661 -0.01461
C 29.48596 11.23683 -0.02155
C 30.71904 10.56158 -0.00944
C 30.75862 9.01269 -0.03735
C 29.52984 8.41114 -0.00971
C 29.52072 7.00246 0.01518
C 30.71936 6.31106 0.01908
C 30.70773 4.90483 0.07705
C 29.49739 4.20945 0.0103
C 29.56201 2.77392 0.02108
C 30.79881 2.12866 0.00716
C 30.73685 0.65501 0.00307
C 29.50712 34.06041 0.00346
C 32.03779 32.6592 0.01713
C 33.21025 31.94706 -0.01694
C 33.15265 30.55083 0.01428
C 31.95287 29.82179 -0.02142
C 31.98389 28.45138 0.0544
C 33.2104 27.74482 0.00026
C 33.13906 26.32342 0.00682
C 31.87882 25.58173 -0.01779
C 29.49063 15.6592 0.01705
C 29.47511 16.99233 0.0101
C 30.65583 17.6769 -0.00669
C 30.68609 19.13006 0.03531
C 28.28925 10.53653 0.00194
C 28.28348 9.1607 -0.00621
C 26.93199 8.46442 0.02611
C 27.05822 7.0702 0.02198
C 28.31166 6.33136 0.01094
C 28.2842 4.92716 0.00235
C 27.02868 4.23011 0.01495
C 27.03279 2.84289 0.01259
C 28.329 2.14416 0.01799
C 28.28126 0.66878 0.01699
C 26.99455 34.07412 -0.00416
C 31.89779 24.13608 0.03794
C 29.54239 32.6112 0.01177
C 30.73568 30.54751 0.01324
C 29.45129 29.8753 0.0014
C 29.51044 28.42855 0.00924
C 30.71157 27.74973 0.02326
C 30.66407 26.29879 0.00261
C 29.48741 25.54339 0.03265
C 29.50368 24.19039 -0.02049
C 30.66493 23.39523 -0.01854
C 30.67054 21.9693 -0.01415
C 29.3967 21.26443 -0.03039
C 29.45054 19.82837 0.01836
C 30.74479 32.02437 0.04266
C 27.01818 11.26407 0.04185
C 33.18247 23.45591 0.01927
C 31.91477 21.30646 -0.02383
C 34.43099 24.13987 0.03076
C 1.17178 23.36321 0.00723
C 1.17602 21.985 0.02712
C 34.34951 21.31329 -0.02213
C 34.34577 19.84794 0.01951
C 1.13693 19.16415 -0.01678
C 1.1334 17.75074 0.01223
C 34.32791 16.99346 0.00648
C 34.3115 15.5067 0.02114
C 1.0924 14.90345 -0.02957
C 1.09583 13.46429 0.00343
C 34.40067 12.7331 -0.02656
C 34.3942 11.2762 -0.02442
C 1.17707 10.61188 -0.00027
C 1.18992 9.22415 -0.00583
C 0.01476 8.44652 -0.02302
C 34.41658 7.02278 -0.02849
C 1.30506 6.40089 0.02931
C 1.32421 4.96738 0.00628
C 0.06213 4.27792 -0.0345
C 0.05432 2.85342 -0.00931
C 1.29535 2.11164 -0.00939
C 1.23742 0.69396 -0.00468
C 34.39218 25.60847 -0.05239
C 1.20486 26.31513 -0.00598
C 1.16496 27.73364 -0.00439
C 34.41266 28.4128 -0.01037
C 31.84774 19.92056 -0.01429
C 33.13726 19.12008 -0.0136
C 33.16202 17.70778 0.00594
C 31.84352 16.99458 -0.02474
C 31.89255 15.5959 0.00369
C 33.09879 14.78046 0.00455
C 33.16508 13.36851 -0.00644
C 31.95035 12.66881 -0.01839
C 31.96845 11.31907 0.00137
C 33.18105 10.57111 0.00199
C 33.20455 9.13913 0.04381
C 33.20032 22.01151 0.01574
C 31.98498 8.3955 0.02806
C 33.18669 6.30221 -0.00069
C 33.21867 4.87949 0.04926
C 31.98575 4.20253 -0.03838
C 32.01683 2.74256 0.00349
C 33.28412 2.11604 -0.00323
C 33.26594 0.69579 -0.00841
C 31.99674 34.03424 0.0001
C 0.06555 32.61866 -0.02927
C 1.28358 31.91988 -0.01404
C 1.19529 30.59353 0.01027
C 0.03501 29.90963 0.01831
C 32.01567 6.96152 0.01504
C 20.75488 27.74176 0.00028
C 27.09996 12.67652 0.02316
C 28.20565 14.87809 0.00152
C 22.04442 29.79459 -0.04076
C 22.08707 28.39828 -0.00652
C 23.3265 27.73187 0.0058
C 23.31634 26.3189 -0.00865
C 22.03609 25.63308 0.00675
C 22.03093 24.22924 -0.00311
C 23.25915 23.47008 0.00742
C 23.25969 22.10563 -0.01594
C 22.03408 21.426 0.0106
C 22.10908 19.91379 -0.01154
C 23.35974 19.21335 -0.01721
C 23.36516 17.72484 -0.02422
C 22.07094 17.00441 0.01277
C 22.13608 15.582 0.00096
C 23.34684 14.8227 -0.01527
C 23.31393 13.44019 0.01087
C 22.07191 12.70881 0.00199
C 22.05782 11.35912 0.01511
C 23.29288 10.65218 -0.00478
C 23.3486 9.26676 -0.01662
C 22.05508 8.53902 -0.01185
C 21.98763 7.16145 0.01126
C 23.30549 6.38492 0.01852
C 23.29883 30.54561 -0.00703
C 23.35377 31.90476 0.00654
C 22.08942 32.67711 -0.04422
C 19.64848 34.01459 -0.02957
C 19.4823 25.72675 0.03698
C 19.59191 24.27823 -0.00109
C 20.78952 23.54623 -0.00491
C 20.85606 22.08389 0.03338
C 19.63528 21.32139 -0.0258
C 19.62361 19.93084 -0.0331
C 20.91243 19.15123 -0.00316
C 20.87635 17.74797 0.02188
C 19.623 16.97045 -0.01979
C 19.69008 15.54569 0.02691
C 20.91369 14.92274 -0.01581
C 23.30565 4.98512 -0.00381
C 20.94243 13.49884 0.01452
C 19.59785 11.32605 -0.00111
C 20.83517 10.67384 -0.03557
C 20.82139 9.23621 0.03754
C 19.59196 8.56822 0.01739
C 19.5951 7.18405 0.00755
C 20.77968 6.53199 -0.0054
C 20.88354 5.06805 0.00667
C 19.67212 4.29517 0.00143
C 19.63776 2.85489 -0.017
C 20.85555 2.14436 0.00364
C 20.8796 0.71651 -0.00831
C 19.65 12.7719 0.04892
C 28.23684 13.39563 0.01257
C 22.06697 4.36295 0.03046
C 23.30656 2.08543 0.03374
C 25.78562 4.93164 -0.01199
C 24.58657 4.28657 -0.00229
C 24.4868 2.83613 -0.00938
C 25.82973 2.16282 -0.0264
C 25.73009 0.6816 -0.01154
C 24.55386 0.05136 0.00684
C 27.04814 32.70177 -0.01052
C 28.19488 31.9801 -0.01679
C 28.25189 30.53955 0.00367
C 27.01661 29.74358 0.04306
C 27.06903 28.388 0.00996
C 28.28514 27.69071 0.00195
C 28.23317 26.2747 -0.00802
C 26.93561 25.57656 -0.00218
C 27.01914 24.1439 -0.01654
C 28.25938 23.49191 -0.00037
C 28.23528 22.07467 -0.0032
C 27.01154 21.33416 0.00622
C 27.04407 19.90601 -0.02815
C 28.2734 19.10092 -0.00942
C 28.30175 17.76274 0.00487
C 27.03425 17.13432 0.00826
C 27.01911 15.62214 -0.00294
C 25.8387 6.34572 -0.009
C 24.55258 7.13667 -0.00285
C 24.54316 8.53557 0.01423
C 25.73586 9.16999 0.02555
C 23.29858 0.68591 -0.02845
C 22.07629 0.03073 -0.03213
C 24.56945 32.65015 0.02239
C 25.74906 31.96133 0.01153
C 25.84464 30.48741 0.02734
C 24.53402 29.78498 -0.0055
C 24.56008 28.40121 0.01515
C 25.77981 27.71567 -0.00225
C 25.73306 26.25071 0.00071
C 24.51327 25.57881 -0.01107
C 24.51522 24.16349 -0.01586
C 22.04915 2.89903 0.0296
C 25.76389 23.46239 -0.01971
C 24.50105 21.30759 0.00733
C 24.57919 19.9262 -0.00178
C 25.80884 19.19051 0.00768
C 25.78469 17.80826 -0.0276
C 24.61405 17.04187 0.03005
C 24.68253 15.60269 -0.04078
C 25.88186 14.87557 0.02117
C 25.86636 13.45957 0.02737
C 24.54336 12.77939 -0.00498
C 24.56549 11.39752 0.00135
C 25.75945 10.61705 0.03102
C 25.67635 22.0827 -0.02118
C 2.53615 32.69468 -0.0213
