436
Graphene
C 0.05764 34.01258 0.01295
C 13.51591 9.26429 0.02339
C 12.32116 8.56474 0.01641
C 12.27245 7.17702 -0.00719
C 13.50652 6.41296 0.01364
C 13.51622 4.93245 -0.01062
C 12.35027 4.26472 -0.00033
C 12.30988 2.86249 0.03589
C 13.49267 2.05567 -0.02759
C 13.51635 0.61889 0.0402
C 12.25679 34.06576 0.00572
C 14.83734 32.59345 0.03592
C 16.0414 31.89849 0.00406
C 16.08287 30.49909 0.00943
C 14.82334 29.8542 0.02841
C 14.82047 28.36565 -0.01111
C 15.94585 27.60075 -0.01275
C 15.88772 26.21144 0.00985
C 14.72188 25.4217 -0.02245
C 14.66996 24.05424 -0.00428
C 15.99584 23.40928 0.03101
C 16.00707 21.99286 -0.01536
C 14.79158 21.33617 -0.02689
C 14.77779 19.87204 -0.01046
C 13.48884 10.65669 -0.00334
C 15.92644 19.15059 -0.00891
C 12.23696 11.43967 -0.01634
C 13.51162 13.50016 0.00093
C 9.84265 4.30156 -0.00892
C 9.80859 2.86904 -0.01362
C 11.02565 2.1417 -0.0008
C 11.08356 0.76096 0.0288
C 9.85011 0.06008 0.00393
C 12.29253 32.67361 0.00895
C 13.55657 31.95982 0.00685
C 13.56447 30.58741 0.02888
C 12.32592 29.84622 -0.00482
C 12.35844 28.40748 -0.01384
C 13.5427 27.67259 0.03693
C 13.52572 26.25004 0.01745
C 12.25197 25.54216 0.00488
C 12.28531 24.14876 -0.01004
C 13.53418 23.35517 -0.02896
C 13.58042 21.99669 -0.00131
C 12.32527 21.32893 -0.01118
C 12.34956 19.93431 -0.014
C 13.524 19.27354 0.02147
C 13.4606 17.82886 0.00373
C 12.22464 17.05415 -0.00191
C 12.2852 15.65064 0.00438
C 13.55283 14.91842 0.01291
C 12.25725 12.87767 0.00057
C 15.97482 17.74765 0.02819
C 14.68123 17.11689 0.00165
C 14.6952 15.6847 -0.02971
C 18.41451 19.17124 -0.0108
C 18.46638 17.70674 -0.00368
C 17.26953 17.05768 -0.02696
C 17.22017 15.5835 -0.00114
C 18.46362 14.83213 0.00228
C 18.42535 13.46526 0.00798
C 17.20001 12.74724 0.00422
C 17.18302 11.36254 0.0351
C 18.48088 10.62351 -0.03113
C 18.47419 9.18071 0.02098
C 17.21192 8.52026 0.01848
C 17.10444 7.11076 -0.00619
C 18.34549 6.39943 -0.02162
C 18.37956 4.99388 0.00889
C 17.19004 4.2471 -0.00481
C 17.2881 2.84864 0.00979
C 18.48449 2.13447 0.01443
C 18.45662 0.7182 0.03505
C 17.18891 0.03753 -0.02815
C 19.66937 32.62646 -0.04147
C 20.88226 31.95307 -0.05302
C 20.83229 30.58203 0.00213
C 19.67649 29.85269 -0.00066
C 17.23246 19.88771 -0.01957
C 17.21021 21.34232 0.02058
C 18.38241 22.03484 0.01965
C 18.37817 23.45825 -0.03682
C 15.93464 14.98419 0.02894
C 15.92215 13.50909 -0.01789
C 14.71814 12.77877 0.00444
C 14.71171 11.36789 -0.00925
C 15.91765 10.63491 0.01877
C 15.94248 9.24754 0.01363
C 14.79627 8.49241 -0.02162
C 14.75745 7.07718 0.00415
C 15.93064 6.3221 -0.0014
C 15.90949 4.93425 0.02162
C 14.76211 4.24772 0.0076
C 11.15826 5.01257 -0.04848
C 14.7232 2.78976 0.01241
C 15.99559 0.68479 0.01945
C 14.78052 34.03839 0.01416
C 17.22234 32.69105 0.03542
C 18.40549 32.00272 0.02299
C 18.45476 30.5375 0.00244
C 17.26589 29.82701 -0.01717
C 17.17521 28.35687 0.05265
C 18.45764 27.71664 -0.01952
C 18.4365 26.30871 -0.02813
C 17.16706 25.5739 0.00374
C 17.17791 24.13416 0.00052
C 15.99871 2.20146 -0.01454
C 19.70848 28.34902 -0.00289
C 11.11301 6.41023 0.01572
C 9.82447 8.54909 0.03007
C 4.85588 25.74898 -0.02375
C 4.87839 24.21505 0.00558
C 6.16084 23.44844 -0.0059
C 6.10326 22.03302 -0.01386
C 4.95435 21.26391 -0.02805
C 4.98774 19.88961 0.00081
C 6.23052 19.17342 0.00245
C 6.18776 17.76656 0.02728
C 4.94165 17.04587 -0.00039
C 4.91021 15.64641 0.0064
C 6.10891 14.91539 0.00211
C 6.10824 13.44991 -0.00449
C 4.89432 12.74179 -0.01979
C 4.89102 11.30065 0.02784
C 6.21829 10.60341 -0.01977
C 6.1622 9.22346 -0.00561
C 4.94628 8.47464 0.00208
C 4.86045 7.06357 0.01707
C 6.137 6.40007 0.02769
C 6.08526 4.97368 -0.03291
C 4.88822 4.28746 -0.04999
C 4.894 2.90687 0.04505
C 6.10122 2.176 0.03284
C 6.10051 26.09599 0.00828
C 6.17575 0.81278 -0.04307
C 5.01303 32.78056 0.00088
C 3.7059 0.73212 -0.00177
C 2.43783 25.50796 0.01984
C 2.44941 24.10282 0.00535
C 3.69394 23.45049 -0.00198
C 3.68475 21.96631 -0.00012
C 2.4681 21.36076 -0.04306
C 2.47261 19.93455 -0.03672
C 3.7177 19.18262 0.01913
C 3.73808 17.79355 0.00267
C 2.46376 17.04423 0.00787
C 2.49068 15.6272 0.02426
C 3.67483 14.82393 0.01218
C 3.67038 13.43731 -0.01471
C 2.40547 12.72359 -0.02827
C 2.34145 11.29848 0.01078
C 3.6133 10.6192 -0.00112
C 3.65234 9.17481 0.03345
C 2.42512 8.52474 0.00748
C 2.45268 7.0959 0.00662
C 3.69698 6.41355 -0.0154
C 3.67457 4.97552 -0.01299
C 2.45574 4.24517 -0.00407
C 2.45136 2.84587 0.01138
C 3.67319 2.16349 0.03278
C 2.51328 33.98236 0.04421
C 4.97178 0.04405 0.03189
C 7.26686 32.75278 0.00031
C 8.45843 31.94226 -0.003
C 9.81641 32.79223 -0.01343
C 11.06145 31.98706 0.00988
C 11.129 30.59389 0.0276
C 9.76513 29.97707 0.01305
C 9.72995 28.50507 -0.00077
C 11.00251 27.77265 0.03368
C 10.95454 26.37126 -0.02929
C 9.80248 25.61417 -0.00966
C 9.84157 24.1568 -0.03337
C 11.05591 23.41873 0.01227
C 11.09973 21.98614 0.00873
C 9.86485 21.37004 -0.00049
C 9.87213 19.97502 0.00848
C 11.01926 19.24003 -0.01303
C 10.99868 17.77158 -0.01378
C 9.75333 17.04365 0.02635
C 9.78462 15.66204 0.0127
C 11.01781 14.96351 0.01396
C 11.05649 13.51336 0.01849
C 9.84222 12.83226 -0.01142
C 9.91121 11.42251 -0.00562
C 11.08641 10.74717 -0.00494
C 11.04009 9.26099 0.00054
C 7.37589 0.00237 0.01087
C 8.58916 0.76045 -0.05697
C 8.51098 2.20749 -0.00725
C 7.38216 2.9744 0.02322
C 8.56179 30.58552 0.01402
C 8.58584 27.76755 0.02379
C 8.51487 26.29019 0.00907
C 7.36606 25.57607 0.00643
C 7.39166 24.10771 -0.01509
C 8.59913 23.49306 0.03267
C 8.57818 22.03905 0.02374
C 7.33323 21.32388 0.00402
C 7.4354 19.93866 0.0073
C 8.65229 19.19515 0.0174
C 8.54784 17.8014 0.03828
C 9.82446 7.13001 -0.00095
C 7.32309 17.00196 0.01226
C 8.60105 14.8927 0.01996
C 8.5731 13.52542 -0.03996
C 7.39469 12.79204 0.01465
C 7.39666 11.35827 -0.00074
C 8.69596 10.68643 -0.00518
C 8.62373 9.26826 0.0086
C 7.4325 8.523 -0.00643
C 7.35479 7.06795 0.017
C 8.56017 6.43618 -0.03113
C 8.63378 4.98966 -0.02566
C 7.35044 4.31722 -0.00094
C 7.30739 15.57681 -0.00279
C 20.928 27.7131 0.00028
C 20.90378 26.28459 -0.02213
C 19.68007 25.57173 0.03698
C 30.72686 14.88637 -0.0405
C 30.71147 13.41687 -0.01303
C 29.50335 12.70002 -0.01461
C 29.48917 11.30297 -0.02155
C 30.70188 10.61392 -0.00944
C 30.72127 9.18843 -0.03735
C 29.49783 8.49832 -0.00971
C 29.5265 7.10966 0.01518
C 30.71499 6.35997 0.01908
C 30.72397 4.93909 0.07705
C 29.53818 4.24408 0.0103
C 29.57789 2.79985 0.02108
C 30.80348 2.08758 0.00716
C 30.74889 0.61897 0.00307
C 29.49026 34.01967 0.00346
C 31.94803 32.59315 0.01713
C 33.18624 31.95152 -0.01694
C 33.21271 30.55029 0.01428
C 31.98237 29.87258 -0.02142
C 31.95655 28.43079 0.0544
C 33.24391 27.77022 0.00026
C 33.17423 26.33869 0.00682
C 31.96911 25.61992 -0.01779
C 29.54734 15.64361 0.01705
C 31.92879 24.19481 0.03794
C 29.5843 17.0355 0.0101
C 30.65139 19.21467 0.03531
C 28.24151 9.19861 -0.00621
C 26.97894 8.51763 0.02611
C 27.06166 7.13223 0.02198
C 28.24798 6.39585 0.01094
C 28.23034 4.94556 0.00235
C 26.98706 4.22107 0.01495
C 27.09513 2.78223 0.01259
C 28.33681 2.09765 0.01799
C 28.30266 0.67506 0.01699
C 27.0218 34.05586 -0.00416
C 29.50036 32.60452 0.01177
C 30.68772 31.87447 0.04266
C 30.73736 30.52893 0.01324
C 29.51123 29.82089 0.0014
C 29.5271 28.43872 0.00924
C 30.73822 27.7506 0.02326
C 30.6981 26.26924 0.00261
C 29.49587 25.55443 0.03265
C 29.48715 24.15627 -0.02049
C 30.71779 23.41338 -0.01854
C 30.74184 22.01867 -0.01415
C 29.48607 21.30815 -0.03039
C 29.44671 19.88235 0.01836
C 30.76096 17.79922 -0.00669
C 33.18298 23.49991 0.01927
C 33.17217 22.07216 0.01574
C 31.96422 21.28247 -0.02383
C 34.43083 24.18082 0.03076
C 1.17919 23.38914 0.00723
C 1.2242 21.97093 0.02712
C 34.39837 21.31048 -0.02213
C 34.30975 19.84616 0.01951
C 1.16759 19.21275 -0.01678
C 1.22079 17.76054 0.01223
C 0.00799 17.0388 0.00648
C 0.02143 15.57057 0.02114
C 1.27778 14.90492 -0.02957
C 1.18961 13.46741 0.00343
C 34.33607 12.77582 -0.02656
C 34.38385 11.31676 -0.02442
C 1.13784 10.58119 -0.00027
C 1.19987 9.21844 -0.00583
C 0.05089 8.46974 -0.02302
C 34.41559 7.0135 -0.02849
C 1.22959 6.38823 0.02931
C 1.25476 4.95419 0.00628
C 0.02551 4.2136 -0.0345
C 0.05998 2.77625 -0.00931
C 1.26515 2.08847 -0.00939
C 1.26757 0.66639 -0.00468
C 34.41526 25.61424 -0.05239
C 1.216 26.27033 -0.00598
C 1.26411 27.70724 -0.00439
C 0.09238 28.38404 -0.01037
C 31.92169 19.8713 -0.01429
C 33.10611 19.09477 -0.0136
C 33.19256 17.66451 0.00594
C 31.96583 16.96809 -0.02474
C 31.96678 15.60465 0.00369
C 33.17761 14.85762 0.00455
C 33.09547 13.42457 -0.00644
C 31.89926 12.7191 -0.01839
C 31.91309 11.3037 0.00137
C 33.15108 10.55397 0.00199
C 33.23012 9.14892 0.04381
C 28.23183 10.58311 0.00194
C 31.93441 8.49507 0.02806
C 33.16992 6.3172 -0.00069
C 33.20711 4.91225 0.04926
C 31.99101 4.19355 -0.03838
C 31.99436 2.70934 0.00349
C 33.23394 2.06992 -0.00323
C 33.21707 0.6568 -0.00841
C 31.99903 34.00053 0.0001
C 0.03515 32.65037 -0.02927
C 1.37307 31.8403 -0.01404
C 1.25252 30.5248 0.01027
C 0.04826 29.84729 0.01831
C 31.96662 7.04311 0.01504
C 27.0814 11.35209 0.04185
C 27.11705 12.82127 0.02316
C 28.33884 13.46531 0.01257
C 22.12179 28.40711 -0.00652
C 23.39309 27.67143 0.0058
C 23.40829 26.24593 -0.00865
C 22.13475 25.53291 0.00675
C 22.06637 24.12932 -0.00311
C 23.33916 23.44857 0.00742
C 23.3239 22.09397 -0.01594
C 22.08758 21.34493 0.0106
C 22.07865 19.89502 -0.01154
C 23.29813 19.21512 -0.01721
C 23.31538 17.79652 -0.02422
C 22.11124 17.07228 0.01277
C 22.11793 15.65633 0.00096
C 23.33152 14.90412 -0.01527
C 23.37015 13.54884 0.01087
C 22.21259 12.77435 0.00199
C 22.27587 11.3948 0.01511
C 23.42741 10.6992 -0.00478
C 23.51873 9.31803 -0.01662
C 22.15635 8.54638 -0.01185
C 22.1231 7.15856 0.01126
C 23.29638 6.32789 0.01852
C 23.31127 4.91239 -0.00381
C 22.04995 29.86022 -0.04076
C 23.27452 30.62757 -0.00703
C 23.33116 32.01053 0.00654
C 22.12064 32.71676 -0.04422
C 19.61377 24.21391 -0.00109
C 20.89074 23.4147 -0.00491
C 20.86149 21.96963 0.03338
C 19.63384 21.28381 -0.0258
C 19.6102 19.93267 -0.0331
C 20.86527 19.196 -0.00316
C 20.88474 17.81028 0.02188
C 19.68999 17.05444 -0.01979
C 19.68908 15.53561 0.02691
C 20.8993 14.85018 -0.01581
C 20.97209 13.37458 0.01452
C 22.07669 4.25679 0.03046
C 19.69768 12.7741 0.04892
C 20.86592 10.63946 -0.03557
C 20.93271 9.22122 0.03754
C 19.71102 8.47053 0.01739
C 19.63013 7.06058 0.00755
C 20.87025 6.42659 -0.0054
C 20.88521 4.99264 0.00667
C 19.59575 4.34872 0.00143
C 19.70783 2.87025 -0.017
C 20.90517 2.10498 0.00364
C 20.84696 0.72545 -0.00831
C 19.67654 0.01681 -0.02957
C 19.66106 11.3303 -0.00111
C 3.5237 26.28813 0.01073
C 22.15758 2.82665 0.0296
C 23.3317 0.73701 -0.02845
C 24.57034 4.18572 -0.00229
C 24.56822 2.76602 -0.00938
C 25.84841 2.10671 -0.0264
C 25.76933 0.75097 -0.01154
C 24.58727 0.04639 0.00684
C 27.00309 32.66493 -0.01052
C 28.23561 31.92783 -0.01679
C 28.26611 30.54297 0.00367
C 27.06845 29.82304 0.04306
C 27.09597 28.42126 0.00996
C 28.31254 27.71171 0.00195
C 28.31099 26.28129 -0.00802
C 27.02745 25.57141 -0.00218
C 27.04588 24.16132 -0.01654
C 28.201 23.46983 -0.00037
C 28.26078 21.99574 -0.0032
C 27.10274 21.26594 0.00622
C 27.03097 19.86578 -0.02815
C 28.27672 19.11753 -0.00942
C 28.30691 17.70075 0.00487
C 27.03116 17.04013 0.00826
C 26.97462 15.58014 -0.00294
C 28.26592 14.96058 0.00152
C 25.76636 4.97051 -0.01199
C 25.81631 6.37569 -0.009
C 24.57464 7.0516 -0.00285
C 24.59948 8.43805 0.01423
C 22.06368 0.04324 -0.03213
C 24.581 32.63328 0.02239
C 25.78817 31.9794 0.01153
C 25.82748 30.52808 0.02734
C 24.51539 29.89588 -0.0055
C 24.58159 28.48517 0.01515
C 25.84842 27.74541 -0.00225
C 25.88954 26.28959 0.00071
C 24.67536 25.53034 -0.01107
C 24.58893 24.11478 -0.01586
C 25.83453 23.41904 -0.01971
C 23.33845 2.12127 0.03374
C 25.86673 21.98194 -0.02118
C 24.55029 19.90127 -0.00178
C 25.80114 19.13844 0.00768
C 25.78307 17.74401 -0.0276
C 24.55733 17.03969 0.03005
C 24.54962 15.71382 -0.04078
C 25.74434 14.90871 0.02117
C 25.83453 13.49456 0.02737
C 24.59546 12.81378 -0.00498
C 24.60868 11.38261 0.00135
C 25.82974 10.71874 0.03102
C 25.78296 9.25183 0.02555
C 24.60107 21.30191 0.00733
C 2.57804 32.66946 -0.00018
