345
Graphene
C 34.32056 34.07497 0.01295
C 11.10343 0.73564 0.02098
C 9.74292 0.10172 0.01848
C 12.32313 32.69457 -0.00619
C 13.576 31.92271 -0.02162
C 13.55449 30.55998 0.00889
C 12.20692 29.96507 -0.00481
C 12.2182 28.49077 0.00979
C 13.27774 27.60101 0.01443
C 12.37724 6.74569 0.03505
C 13.49989 6.33183 -0.02815
C 13.57211 4.90864 -0.04147
C 12.32798 4.17196 -0.05302
C 12.34281 2.80484 0.00213
C 13.57993 2.05364 -0.00066
C 13.52561 0.73484 -0.00289
C 12.29869 0.0087 0.00028
C 14.75857 32.63442 -0.02213
C 10.99454 2.13722 -0.03113
C 9.81635 2.80921 0.0351
C 9.76415 4.21286 0.00422
C 10.97541 4.95397 0.00798
C 8.6266 5.00385 0.03542
C 7.35533 4.3073 0.02299
C 7.30017 2.89355 0.00244
C 8.59663 2.13652 -0.01717
C 8.53445 0.72243 0.05265
C 7.33258 0.05645 -0.01952
C 9.83147 32.7229 -0.02813
C 11.03253 32.00678 0.00374
C 15.98757 31.92201 0.03698
C 10.97423 30.62528 0.00052
C 9.75555 28.54996 0.01965
C 10.98257 27.85406 0.02058
C 11.081 26.53396 -0.01957
C 9.97468 25.55443 -0.0108
C 9.97769 24.07702 -0.00368
C 9.88121 8.42252 -0.02696
C 9.78996 7.03279 -0.00114
C 10.97439 6.26117 0.00228
C 9.7583 29.91772 -0.03682
C 8.51727 6.40367 0.01416
C 15.94859 30.45387 -0.00109
C 14.62678 28.29317 0.03338
C 19.6868 32.61945 0.00654
C 20.87186 31.94314 -0.00703
C 20.87916 30.45487 -0.04076
C 19.67089 29.77187 -0.00652
C 19.7056 28.33769 0.0058
C 20.9657 27.71572 -0.00865
C 20.8829 9.23067 0.00675
C 19.81688 8.69924 -0.00311
C 19.56264 7.12493 0.00742
C 20.80211 6.40789 -0.01594
C 20.83963 4.96212 0.0106
C 19.64866 4.23805 -0.01154
C 19.61787 2.88733 -0.01721
C 20.83943 2.1131 -0.02422
C 20.88517 0.70987 0.01277
C 19.70242 0.01625 0.00096
C 22.11952 32.61777 -0.01527
C 17.23842 0.03066 -0.04422
C 18.44776 0.74255 -0.02957
C 18.40325 2.14815 -0.00831
C 17.21629 2.8791 0.00364
C 15.86882 27.82822 -0.0258
C 16.00463 6.38334 -0.0331
C 15.94955 4.93373 -0.00316
C 14.73434 4.20738 0.02188
C 14.76438 2.80638 -0.01979
C 16.03016 2.16513 0.02691
C 16.05603 0.69647 -0.01581
C 14.80245 0.0203 0.01452
C 14.73567 29.74923 -0.00491
C 17.24993 32.70036 0.04892
C 18.522 30.42313 -0.03557
C 17.24578 29.75638 0.03754
C 17.21047 28.32036 0.01739
C 18.4554 27.69365 0.00755
C 16.96966 7.03264 -0.0054
C 18.37778 6.42763 0.00667
C 18.42689 4.97668 0.00143
C 17.24415 4.30108 -0.017
C 18.40581 31.87225 -0.00111
C 7.40225 7.23109 0.01945
C 7.54821 8.63257 -0.01454
C 8.83664 9.32576 0.01241
C 2.4597 7.0941 0.00393
C 3.67201 6.52842 0.00895
C 3.63988 5.05488 0.00685
C 2.44902 4.29359 0.02888
C 2.45407 2.84166 -0.00482
C 3.64727 2.13023 -0.01384
C 3.66312 0.73252 0.03693
C 2.45826 0.06148 0.01745
C 4.88236 32.7512 0.00488
C 6.15052 31.97113 -0.01004
C 6.10781 30.55152 -0.02896
C 4.83734 29.81623 -0.00131
C 4.81471 28.44582 -0.01118
C 6.06692 27.67378 -0.014
C 6.15413 26.30974 0.02147
C 4.93147 25.56967 0.00373
C 4.84847 24.12625 -0.00191
C 2.48669 8.53003 0.0288
C 3.69911 9.2908 -0.0008
C 3.71913 10.65239 -0.01362
C 2.44243 11.37953 -0.00892
C 3.60906 30.52969 0.01227
C 2.30886 29.80845 0.00873
C 2.37722 28.4319 -0.00049
C 3.6735 27.64298 0.00848
C 3.66988 26.21447 -0.01303
C 2.40088 25.59263 -0.01378
C 2.36824 24.21682 0.02635
C 3.67497 23.40947 0.0127
C 6.151 23.3517 0.00438
C 3.72148 22.03996 0.01396
C 2.40456 19.92909 -0.01142
C 3.6139 19.17908 -0.00562
C 3.61268 17.74364 -0.00494
C 2.46755 17.0268 0.00054
C 2.45857 15.57668 0.03007
C 3.69823 14.85742 -0.00095
C 3.6566 13.49879 0.01572
C 2.41788 12.7993 -0.04848
C 2.44527 21.34827 0.01849
C 6.19606 21.95152 0.01291
C 4.89984 21.2492 0.00093
C 4.91461 19.90003 0.00057
C 7.40059 29.88725 -0.01536
C 7.28597 28.42477 -0.02689
C 8.56808 27.77105 -0.01046
C 8.69794 26.21485 -0.00891
C 7.49647 25.52139 0.02819
C 7.39653 24.06324 0.00165
C 8.70843 23.32363 -0.02971
C 8.3545 21.95939 0.02894
C 8.58855 30.63302 0.03101
C 7.51827 20.93504 -0.01789
C 8.33067 18.452 -0.00925
C 7.34984 17.23218 0.01877
C 7.41576 15.86688 0.01363
C 8.58702 14.96596 -0.02162
C 8.56894 13.75315 0.00415
C 7.48272 12.78745 -0.0014
C 7.48145 11.37756 0.02162
C 8.63671 10.7295 0.0076
C 7.49945 19.47452 0.00444
C 23.35661 31.8844 0.01087
C 8.5219 32.13198 -0.00428
C 4.86818 0.04563 0.00985
C 6.15598 19.11301 -0.01634
C 6.06002 17.75676 -0.00334
C 4.88869 17.05712 0.02339
C 4.96491 15.56708 0.01641
C 6.18056 15.00751 -0.00719
C 6.24063 13.58 0.01364
C 4.99984 12.8443 -0.01062
C 4.95025 11.36655 -0.00033
C 7.2856 32.74275 -0.02245
C 6.18957 10.65245 0.03589
C 4.93735 8.55107 0.0402
C 4.89876 7.20265 0.00572
C 6.19471 6.45444 0.03592
C 6.14315 5.05711 0.00406
C 4.86008 4.31381 0.00943
C 4.92508 2.84287 0.02841
C 6.11265 2.19725 -0.01111
C 6.1076 0.75244 -0.01275
C 6.27004 9.2097 -0.02759
C 3.66265 31.94838 -0.03337
C 23.3205 30.46913 0.00199
C 22.13066 28.4273 -0.00478
C 31.98739 29.79571 -0.02142
C 31.96948 28.38759 0.0544
C 33.19962 27.68113 0.00026
C 33.14804 26.22344 0.00682
C 31.82629 25.51709 -0.01779
C 31.90228 24.14761 0.03794
C 33.21007 23.44219 0.01927
C 33.1915 22.0366 0.01574
C 31.91732 21.29375 -0.02383
C 31.93282 19.87374 -0.01429
C 33.19909 19.20888 -0.0136
C 33.20215 17.74949 0.00594
C 31.91958 17.12591 -0.02474
C 31.91784 15.68472 0.00369
C 33.22155 14.92786 0.00455
C 33.22728 13.53208 -0.00644
C 31.93164 12.79336 -0.01839
C 33.10964 30.55841 0.01428
C 33.14427 31.92372 -0.01694
C 31.97957 32.70452 0.01713
C 29.47408 0.01433 0.00346
C 30.68133 19.25041 0.03531
C 30.69679 17.81514 -0.00669
C 29.42443 17.17277 0.0101
C 29.44382 15.77064 0.01705
C 30.74522 14.93987 -0.0405
C 30.73738 13.54559 -0.01303
C 29.43206 12.80279 -0.01461
C 29.46328 11.35252 -0.02155
C 31.93303 11.358 0.00137
C 30.68056 10.65215 -0.00944
C 29.43829 8.59633 -0.00971
C 29.41842 7.10914 0.01518
C 30.71401 6.32805 0.01908
C 30.75459 4.91026 0.07705
C 29.55792 4.21937 0.0103
C 29.45665 2.76841 0.02108
C 30.72985 2.18128 0.00716
C 30.74946 0.76302 0.00307
C 30.68903 9.17305 -0.03735
C 29.44054 19.93169 0.01836
C 33.18112 10.68679 0.00199
C 32.01307 8.44308 0.02806
C 1.23988 17.71908 0.01223
C 34.35469 17.03465 0.00648
C 34.41446 15.59653 0.02114
C 1.16023 14.95161 -0.02957
C 1.20925 13.48933 0.00343
C 34.42103 12.77302 -0.02656
C 34.41969 11.3914 -0.02442
C 1.23006 10.61777 -0.00027
C 1.23304 9.23494 -0.00583
C 34.41179 8.59947 -0.02302
C 0.01423 7.05422 -0.02849
C 1.26347 6.3493 0.02931
C 1.22271 4.94667 0.00628
C 0.00543 4.30286 -0.0345
C 0.00108 2.86421 -0.00931
C 1.18777 2.17653 -0.00939
C 1.12966 0.69412 -0.00468
C 1.09902 19.14798 -0.01678
C 34.35208 19.90222 0.01951
C 34.33539 21.33081 -0.02213
C 1.15558 21.99126 0.02712
C 32.01675 7.05465 0.01504
C 33.19887 6.32425 -0.00069
C 33.20059 4.96268 0.04926
C 31.94163 4.24395 -0.03838
C 31.99801 2.81317 0.00349
C 33.23407 2.12929 -0.00323
C 33.18019 0.73355 -0.00841
C 31.96403 34.06987 0.0001
C 33.17088 9.25953 0.04381
C 34.42531 32.67127 -0.02927
C 1.0996 30.56475 0.01027
C 34.34389 29.88172 0.01831
C 34.40185 28.31779 -0.01037
C 1.17734 27.68327 -0.00439
C 1.16027 26.30291 -0.00598
C 34.42992 25.55039 -0.05239
C 34.42416 24.11687 0.03076
C 1.19257 23.4003 0.00723
C 1.23805 31.95546 -0.01404
C 29.42089 21.2985 -0.03039
C 30.736 21.93201 -0.01415
C 30.69927 23.46801 -0.01854
C 24.71677 24.32568 -0.00178
C 25.69905 23.38026 0.00768
C 25.77826 21.97008 -0.0276
C 25.84321 19.08741 0.03005
C 25.87414 17.9159 -0.04078
C 25.95945 14.95618 0.02117
C 25.64792 13.59563 0.02737
C 24.52915 12.73256 -0.00498
C 24.54989 11.37354 0.00135
C 25.83534 10.5948 0.03102
C 25.84784 9.24349 0.02555
C 24.63966 8.57152 0.01423
C 24.56282 7.14662 -0.00285
C 25.78975 6.37874 -0.009
C 25.79623 4.90837 -0.01199
C 24.54734 4.24612 -0.00229
C 24.56196 2.74077 -0.00938
C 24.50983 25.59775 0.00733
C 25.75529 26.22672 -0.02118
C 25.7956 27.65598 -0.01971
C 24.62599 28.33015 -0.01586
C 23.34751 27.67659 -0.01662
C 23.17462 26.33201 -0.01185
C 21.97262 11.30164 0.01126
C 23.29477 10.67868 0.01852
C 23.40935 9.22175 -0.00381
C 22.2066 8.56729 0.03046
C 22.11498 7.14983 0.0296
C 23.34512 6.41431 0.03374
C 25.79384 2.06195 -0.0264
C 23.30119 5.00525 -0.02845
C 22.11662 2.8324 0.02239
C 23.39155 2.11068 0.01153
C 23.41073 0.66293 0.02734
C 22.15315 34.06713 -0.0055
C 24.645 32.55695 0.01515
C 25.8521 31.91063 -0.00225
C 25.83268 30.4847 0.00071
C 24.6218 29.77908 -0.01107
C 22.08441 4.32637 -0.03213
C 25.76813 0.63495 -0.01154
C 24.58555 33.96935 0.00684
C 27.08375 32.61489 -0.01052
C 26.99833 8.54089 0.02611
C 27.00895 7.12678 0.02198
C 28.24517 6.41729 0.01094
C 28.29589 4.98708 0.00235
C 27.06575 4.23073 0.01495
C 26.98087 2.8272 0.01259
C 28.18623 2.10679 0.01799
C 28.28547 0.65466 0.01699
C 28.23461 9.28374 -0.00621
C 27.09667 34.02329 -0.00416
C 30.71479 31.99763 0.04266
C 30.81114 30.49171 0.01324
C 29.48699 29.82361 0.0014
C 29.46248 28.42903 0.00924
C 30.77341 27.64841 0.02326
C 30.74331 26.25066 0.00261
C 29.41545 25.58334 0.03265
C 29.44222 24.20924 -0.02049
C 29.54139 32.68114 0.01177
C 22.09302 29.77383 0.01511
C 28.28309 10.73387 0.00194
C 26.92735 12.86363 0.02316
C 28.2615 31.97176 -0.01679
C 28.31313 30.48027 0.00367
C 27.0662 29.72265 0.04306
C 27.04903 28.32558 0.00996
C 28.25554 27.70214 0.00195
C 28.23877 26.21888 -0.00802
C 26.97522 25.50976 -0.00218
C 26.97166 24.12362 -0.01654
C 26.95963 11.46885 0.04185
C 28.17582 23.45982 -0.00037
C 26.98612 21.36742 0.00622
C 27.03096 19.95183 -0.02815
C 28.19481 19.16324 -0.00942
C 28.19333 17.82626 0.00487
C 27.00861 17.10867 0.00826
C 27.06817 15.6547 -0.00294
C 28.2919 15.07439 0.00152
C 28.21539 13.58415 0.01257
C 28.2622 22.0492 -0.0032
C 2.45767 32.63796 -0.00966
