409
Graphene
C 34.3468 34.04304 0.01295
C 12.06693 29.94042 -0.01536
C 12.23115 28.46235 -0.02689
C 13.39654 27.69846 -0.01046
C 13.38059 26.26505 -0.00891
C 12.18764 25.44466 0.02819
C 12.22672 24.03888 0.00165
C 13.53827 23.4492 -0.02971
C 13.53966 22.05069 0.02894
C 12.30814 21.38212 -0.01789
C 12.23538 19.94515 0.00444
C 13.46298 19.21031 -0.00925
C 13.4639 17.74385 0.01877
C 12.21808 16.9697 0.01363
C 12.29276 15.63765 -0.02162
C 13.63079 14.90053 0.00415
C 13.55992 13.54584 -0.0014
C 12.2921 12.85665 0.02162
C 12.31824 11.43303 0.0076
C 13.4877 10.64929 0.01241
C 13.61441 9.26396 -0.01454
C 12.38271 8.53993 0.01945
C 13.34874 30.59304 0.03101
C 13.4795 31.99556 -0.00428
C 12.28029 32.7918 -0.02245
C 9.7469 0.12626 0.00985
C 10.96338 23.40989 0.00438
C 11.08211 21.97124 0.01291
C 9.84066 21.25724 0.00093
C 9.83504 19.82442 0.00057
C 11.04435 19.1642 -0.01634
C 10.95256 17.73217 -0.00334
C 9.77512 16.97814 0.02339
C 9.80132 15.60549 0.01641
C 11.04813 14.92312 -0.00719
C 11.06253 13.54591 0.01364
C 12.37511 7.14674 0.01416
C 9.79463 12.76243 -0.01062
C 11.09774 10.64217 0.03589
C 11.13787 9.26328 -0.02759
C 9.84282 8.5286 0.0402
C 9.86034 7.19615 0.00572
C 11.15063 6.46616 0.03592
C 11.12873 5.07115 0.00406
C 9.8309 4.32751 0.00943
C 9.83458 2.90254 0.02841
C 11.04983 2.23311 -0.01111
C 11.05657 0.78205 -0.01275
C 9.87844 11.3609 -0.00033
C 9.81073 24.18468 -0.00191
C 13.64042 6.41747 0.03542
C 12.3592 4.34146 0.00244
C 16.00882 9.23341 0.01443
C 14.84882 8.49553 0.03505
C 14.82675 7.08242 -0.02815
C 16.00872 6.34546 -0.04147
C 16.06275 4.90647 -0.05302
C 14.85315 4.28079 0.00213
C 14.7979 2.89907 -0.00066
C 16.01186 2.14565 -0.00289
C 15.92062 0.80191 0.00028
C 14.75214 0.08459 -0.02213
C 17.16569 32.71841 0.03698
C 18.40282 32.04109 -0.00109
C 18.38942 30.5984 -0.00491
C 17.15246 29.80297 0.03338
C 17.15114 28.37611 -0.0258
C 18.36194 27.70539 -0.0331
C 18.37094 26.23843 -0.00316
C 17.08482 25.55779 0.02188
C 17.15155 24.15777 -0.01979
C 18.38621 23.43244 0.02691
C 18.42554 22.02235 -0.01581
C 16.06919 10.63929 0.00979
C 14.78594 11.2975 -0.00481
C 14.73536 12.78287 0.00889
C 15.99719 13.42944 -0.02162
C 12.34364 2.92903 -0.01717
C 13.55932 2.1578 0.05265
C 13.52021 0.74883 -0.01952
C 12.21728 0.10672 -0.02813
C 14.72454 32.79065 0.00374
C 15.95253 32.01132 0.00052
C 15.87755 30.56476 -0.03682
C 14.58044 29.8909 0.01965
C 14.71574 28.49199 0.02058
C 15.94165 27.64546 -0.01957
C 13.56163 4.97357 0.02299
C 15.90244 26.27591 -0.0108
C 14.72619 24.22753 -0.02696
C 15.98291 23.43552 -0.00114
C 16.01831 21.97204 0.00228
C 14.80347 21.32501 0.00798
C 14.81303 19.83927 0.00422
C 15.98497 19.12138 0.0351
C 16.01613 17.67647 -0.03113
C 14.73849 17.02375 0.02098
C 14.78291 15.63388 0.01848
C 15.97892 14.84669 -0.00619
C 14.66903 25.56075 -0.00368
C 9.78228 25.61131 0.00373
C 11.04529 26.27095 0.02147
C 11.03149 27.76318 -0.014
C 2.44597 2.83297 -0.003
C 3.67976 2.18741 0.01402
C 3.63734 0.73252 0.02379
C 2.36945 0.06365 0.00907
C 4.80846 32.69009 0.00643
C 6.12935 32.00162 -0.01509
C 6.04404 30.62097 0.03267
C 4.83459 29.86375 0.02374
C 4.77578 28.45644 0.00402
C 6.10073 27.76214 0.0073
C 6.1484 26.29997 0.0174
C 4.92095 25.62597 0.03828
C 4.82843 24.26106 0.01226
C 6.0808 23.43767 -0.00279
C 6.1051 22.08494 0.01996
C 4.85817 21.3173 -0.03996
C 4.91179 19.876 0.01465
C 6.14332 19.21014 -0.00074
C 6.0553 17.77599 -0.00518
C 4.80627 17.09773 0.0086
C 4.83942 15.66838 -0.00643
C 2.43313 4.2483 0.00031
C 3.58018 5.06202 0.03189
C 3.62572 6.44868 -0.04307
C 2.37749 7.11032 0.03284
C 3.63499 30.6059 -0.02375
C 2.42941 29.77989 0.00558
C 2.39686 28.35953 -0.0059
C 3.61961 27.66318 -0.01386
C 3.66743 26.2582 -0.02805
C 2.4306 25.59578 0.00081
C 2.42029 24.21894 0.00245
C 3.62058 23.54285 0.02728
C 3.64181 22.07946 -0.00039
C 2.38185 21.29465 0.0064
C 6.15044 14.9814 0.017
C 2.38637 19.88444 0.00211
C 3.56424 17.80532 -0.01979
C 2.37857 17.08249 0.02784
C 2.46784 15.61862 -0.01977
C 3.6443 14.857 -0.00561
C 3.6798 13.43414 0.00208
C 2.38785 12.76169 0.01707
C 2.36331 11.33411 0.02769
C 3.63876 10.70783 -0.03291
C 3.66769 9.32187 -0.04999
C 2.44809 8.5189 0.04505
C 3.66051 19.21636 -0.00449
C 6.16472 13.64923 -0.03113
C 4.9432 12.84225 -0.02566
C 4.95737 11.44799 -0.00094
C 7.31582 17.09694 0.00054
C 7.40489 15.68852 0.03007
C 8.63192 14.86536 -0.00095
C 8.63529 13.48245 0.01572
C 7.3842 12.83429 -0.04848
C 7.31547 11.38848 -0.00892
C 8.60221 10.65234 -0.01362
C 8.56366 9.17985 -0.0008
C 7.32237 8.55758 0.0288
C 7.3939 7.16593 0.00393
C 8.57613 17.75791 -0.00494
C 8.59049 6.47995 0.00895
C 7.32443 4.30821 0.02888
C 7.35354 2.93594 -0.00482
C 8.59122 2.23045 -0.01384
C 8.54026 0.83927 0.03693
C 7.28759 0.12333 0.01745
C 9.76261 32.78749 0.00488
C 10.94215 32.07134 -0.01004
C 10.87842 30.61147 -0.02896
C 9.63784 29.90608 -0.00131
C 9.73245 28.43449 -0.01118
C 8.55616 5.07497 0.00685
C 17.22936 21.28818 0.01452
C 8.64397 19.12589 -0.00562
C 7.33215 21.3139 0.01849
C 6.11757 10.69553 0.02322
C 6.12737 9.30963 -0.00725
C 4.91586 8.57915 -0.05697
C 4.84675 7.1884 0.01087
C 6.08574 6.45107 -0.01343
C 6.09143 5.01099 0.00988
C 4.82935 4.32243 0.0276
C 4.84119 2.95287 0.01305
C 6.09622 2.26023 -0.00077
C 6.05762 0.81438 0.03368
C 7.36547 19.88147 -0.01142
C 4.82814 0.09901 -0.02929
C 8.48727 32.11047 -0.03337
C 8.48951 30.66883 0.01227
C 7.26992 29.94786 0.00873
C 7.28636 28.5167 -0.00049
C 8.53566 27.82909 0.00848
C 8.57016 26.34335 -0.01303
C 7.36279 25.57299 -0.01378
C 7.33137 24.20647 0.02635
C 8.59161 23.45164 0.0127
C 8.64282 22.06978 0.01396
C 7.26103 32.75731 -0.00966
C 3.54108 32.00253 0.00828
C 17.21205 19.86629 0.04892
C 18.49682 17.78816 -0.03557
C 29.44717 11.36431 -0.00971
C 30.59654 10.49665 0.01518
C 30.6896 9.08416 0.01908
C 30.82233 6.29275 0.07705
C 30.7646 4.92014 0.0103
C 29.54476 2.77926 0.02108
C 30.76579 2.10629 0.00716
C 30.7401 0.72391 0.00307
C 29.48814 0.00294 0.00346
C 31.90721 32.72932 0.01713
C 33.05327 31.96233 -0.01694
C 33.07401 30.53511 0.01428
C 31.8951 29.75116 -0.02142
C 31.92835 28.38466 0.0544
C 33.17627 27.65612 0.00026
C 33.14423 26.32825 0.00682
C 31.90699 25.61925 -0.01779
C 31.90605 24.07731 0.03794
C 33.16613 23.41593 0.01927
C 33.17271 21.93692 0.01574
C 31.87632 21.27608 -0.02383
C 29.53737 12.75202 -0.03735
C 30.76038 13.4822 -0.00944
C 30.72225 14.86501 -0.02155
C 29.48508 15.55586 -0.01461
C 28.19591 14.83268 0.01799
C 28.28674 13.37009 0.01699
C 27.22217 12.49454 -0.00416
C 28.37609 2.15258 0.01177
C 28.25757 0.68337 0.04266
C 27.02305 34.04189 0.01324
C 29.48807 32.66479 0.0014
C 30.65033 31.95392 0.00924
C 30.72625 30.56546 0.02326
C 29.46666 29.83573 0.00261
C 31.84585 19.84983 -0.01429
C 29.50547 28.41679 0.03265
C 30.66762 26.27692 -0.01854
C 29.45057 25.54193 -0.01415
C 29.46387 24.17119 -0.03039
C 30.70869 23.40016 0.01836
C 30.65947 21.94821 0.03531
C 29.3765 21.29958 -0.00669
C 29.42318 19.81811 0.0101
C 30.66279 19.2078 0.01705
C 30.62193 17.70926 -0.0405
C 29.46468 16.99413 -0.01303
C 30.68917 27.65543 -0.02049
C 27.00789 15.48219 0.01259
C 33.11759 19.17168 -0.0136
C 31.83632 16.95161 -0.02474
C 1.13652 21.9876 0.02712
C 34.37723 21.28754 -0.02213
C 34.34498 19.85158 0.01951
C 1.10485 19.20778 -0.01678
C 1.05245 17.80765 0.01223
C 34.32495 17.0394 0.00648
C 0.02138 15.63968 0.02114
C 1.21771 14.95931 -0.02957
C 1.19144 13.54781 0.00343
C 34.4261 12.83783 -0.02656
C 34.32518 11.33523 -0.02442
C 1.14734 10.61233 -0.00027
C 1.17431 9.26349 -0.00583
C 34.42111 8.40784 -0.02302
C 34.38082 6.9961 -0.02849
C 1.19015 6.37996 0.02931
C 1.18541 4.92155 0.00628
C 34.40844 4.25497 -0.0345
C 34.3839 2.8655 -0.00931
C 1.17122 2.18817 -0.00939
C 1.14722 0.76303 -0.00468
C 1.24437 23.46886 0.00723
C 0.00035 24.06921 0.03076
C 34.4034 25.53521 -0.05239
C 1.1531 26.19504 -0.00598
C 31.90916 15.63081 0.00369
C 33.20343 14.93796 0.00455
C 33.19609 13.48397 -0.00644
C 31.96548 12.68239 -0.01839
C 31.86952 11.23475 0.00137
C 33.15184 10.61667 0.00199
C 33.21291 9.25225 0.04381
C 31.92911 8.50683 0.02806
C 31.98819 7.09225 0.01504
C 33.15501 6.3371 -0.00069
C 33.10388 17.66693 0.00594
C 33.24038 4.97997 0.04926
C 31.9809 2.78019 0.00349
C 33.26149 2.11393 -0.00323
C 33.14363 0.74552 -0.00841
C 31.89883 0.01608 0.0001
C 34.33039 32.61196 -0.02927
C 1.13115 31.86016 -0.01404
C 1.22648 30.52108 0.01027
C 34.42105 29.85937 0.01831
C 34.30134 28.46602 -0.01037
C 1.13573 27.6728 -0.00439
C 31.98972 4.26157 -0.03838
C 26.98233 16.91687 0.01495
C 28.18928 17.60301 0.00235
C 28.17835 19.07707 0.01094
C 20.87801 23.47467 0.00096
C 20.8857 22.00313 -0.01527
C 19.6417 21.37489 0.01087
C 19.72262 19.94526 0.00199
C 20.92478 19.15292 0.01511
C 20.89311 17.71172 -0.00478
C 19.71714 17.09882 -0.01662
C 19.71569 15.69391 -0.01185
C 20.83628 14.95825 0.01126
C 20.87614 13.51072 0.01852
C 19.64167 12.86334 -0.00381
C 19.73728 11.55993 0.03046
C 19.71408 2.65122 0.0296
C 20.93477 2.17076 0.03374
C 20.90744 0.74107 -0.02845
C 19.68198 34.0545 -0.03213
C 22.15498 32.55634 0.02239
C 23.3296 31.90394 0.01153
C 23.3789 30.49841 0.02734
C 22.07019 29.80108 -0.0055
C 22.04352 28.3574 0.01515
C 19.64264 24.12392 0.01277
C 19.62477 25.5668 -0.02422
C 20.88585 26.23998 -0.01721
C 20.74513 27.66049 -0.01154
C 17.23209 17.00572 0.03754
C 17.26824 15.59742 0.01739
C 18.51848 14.97706 0.00755
C 18.34233 13.57156 -0.0054
C 17.20068 12.73346 0.00667
C 17.35767 11.30996 0.00143
C 18.68673 10.65244 -0.017
C 18.48512 9.21094 0.00364
C 17.24206 8.4749 -0.00831
C 17.2519 7.02369 -0.02957
C 23.31397 27.72871 -0.00225
C 18.38882 6.31742 -0.04422
C 17.3066 4.24655 -0.00703
C 17.33874 2.79079 -0.04076
C 18.45734 2.05522 -0.00652
C 18.51168 0.67867 0.0058
C 17.17804 0.09083 -0.00865
C 19.67645 32.63633 0.00675
C 20.96281 31.9222 -0.00311
C 20.84907 30.5478 0.00742
C 19.60415 29.88466 -0.01594
C 19.562 28.45486 0.0106
C 18.47056 4.97582 0.00654
C 23.4052 26.29071 0.00071
C 22.07335 25.57743 -0.01107
C 22.09476 24.15082 -0.01586
C 25.7962 19.12071 0.04306
C 25.80428 17.63394 0.00996
C 24.58492 16.8236 0.00195
C 24.60724 15.38457 -0.00802
C 25.80795 14.73233 -0.00218
C 25.93762 13.21299 -0.01654
C 24.56766 12.65741 -0.00037
C 25.8487 0.73073 -0.0032
C 24.60949 0.1196 0.00622
C 27.05864 32.61445 -0.02815
C 24.5733 19.85781 0.00367
C 28.27734 31.97003 -0.00942
C 27.08306 29.87101 0.00826
C 27.01657 28.41419 -0.00294
C 28.17622 27.68664 0.00152
C 28.23953 26.2675 0.01257
C 27.04094 25.53504 0.02316
C 26.98864 24.14 0.04185
C 28.24368 23.41678 0.00194
C 28.15303 22.00426 -0.00621
C 26.99991 21.25853 0.02611
C 27.00388 19.84866 0.02198
C 28.26702 30.5517 0.00487
C 18.47043 19.2316 -0.00111
C 24.5553 21.342 -0.01679
C 25.79987 23.40692 0.00684
C 23.33358 23.42507 -0.01971
C 23.33011 21.98347 -0.02118
C 22.08906 21.21665 0.00733
C 22.12677 19.85524 -0.00178
C 23.42703 19.11376 0.00768
C 23.39318 17.60379 -0.0276
C 22.12595 17.00116 0.03005
C 22.14776 15.58889 -0.04078
C 23.39617 14.71826 0.02117
C 23.28803 13.2302 0.02737
C 25.76837 22.0396 -0.01052
C 21.99397 12.6323 -0.00498
C 22.18484 0.02338 0.03102
C 24.56809 32.75206 0.02555
C 25.815 31.96864 0.01423
C 25.78238 30.53522 -0.00285
C 24.58446 29.82279 -0.009
C 24.51551 28.46878 -0.01199
C 25.82124 27.7271 -0.00229
C 25.8363 26.30371 -0.00938
C 24.56898 25.60047 -0.0264
C 24.56975 24.14033 -0.01154
C 23.32643 0.63937 0.00135
C 2.32735 32.7403 0.00088
