334
Graphene
C 34.36613 0.01933 0.01295
C 9.80317 21.31143 0.01443
C 9.82019 19.82014 0.03505
C 11.05864 19.1892 -0.02815
C 11.06288 17.83035 -0.04147
C 9.80526 17.02763 -0.05302
C 9.77257 15.57732 0.00213
C 10.94205 14.81195 -0.00066
C 11.20646 22.02867 0.00979
C 9.51117 12.36432 -0.00289
C 11.19307 4.94456 -0.02213
C 9.91472 4.24611 0.03698
C 9.9364 2.86023 -0.00109
C 11.15376 2.14856 -0.00491
C 11.14158 0.71833 0.03338
C 9.91287 0.04405 -0.0258
C 12.44758 32.59586 -0.0331
C 9.87781 6.87125 0.00028
C 10.98708 23.39707 -0.00481
C 9.79439 24.13553 0.00889
C 9.83306 25.55575 -0.02162
C 8.57061 9.29869 0.00052
C 7.36204 8.64036 -0.03682
C 7.31653 7.17582 0.01965
C 8.56023 6.45755 0.02058
C 8.71834 5.02548 -0.01957
C 7.48016 4.35412 -0.0108
C 7.45293 2.92359 -0.00368
C 8.68975 2.22202 -0.02696
C 8.67688 0.81538 -0.00114
C 7.46471 0.0387 0.00228
C 9.86405 32.71669 0.00798
C 11.09192 32.0214 0.00422
C 11.06013 30.59061 0.0351
C 9.83062 29.79364 -0.03113
C 9.89138 28.47295 0.02098
C 11.20873 27.53989 0.01848
C 10.99424 26.22378 -0.00619
C 13.57261 31.86959 -0.00316
C 13.53438 30.4526 0.02188
C 12.27282 29.77885 -0.01979
C 12.29563 28.45554 0.02691
C 18.14821 17.56749 -0.00865
C 18.59743 2.19263 0.00675
C 18.48284 0.77247 -0.00311
C 17.30249 0.08003 0.00742
C 19.62853 32.68769 -0.01594
C 20.82829 31.96807 0.0106
C 21.0497 30.70355 -0.01154
C 20.71075 17.1485 -0.01721
C 19.43832 17.33175 -0.02422
C 20.89491 2.14102 0.01277
C 20.92974 0.82211 0.00096
C 19.76072 0.09645 -0.01527
C 22.08293 32.68262 0.01087
C 23.29259 31.96216 0.00199
C 23.34756 30.46319 0.01511
C 22.18312 29.96371 -0.00478
C 23.44498 19.08934 -0.01662
C 18.39716 32.00818 0.0058
C 8.5834 10.78711 0.00374
C 17.3083 32.75799 -0.00652
C 16.04502 0.76915 -0.00703
C 12.24588 21.19452 -0.01581
C 12.37994 19.89482 0.01452
C 13.44442 19.01676 0.04892
C 13.53519 17.66404 -0.00111
C 12.29503 17.03338 -0.03557
C 11.94713 15.80294 0.03754
C 12.3813 2.89499 0.01739
C 13.468 2.12001 0.00755
C 13.56704 0.78236 -0.0054
C 12.40755 34.05854 0.00667
C 14.8191 32.62878 0.00143
C 16.07468 31.97089 -0.017
C 16.00387 30.65443 0.00364
C 14.8109 29.99163 -0.00831
C 16.16651 17.2585 -0.02957
C 14.79144 17.20789 -0.04422
C 15.92992 2.19996 0.00654
C 14.76675 0.04973 -0.04076
C 7.36586 11.3927 -0.02813
C 7.31673 12.80132 -0.01952
C 8.63857 13.40466 0.05265
C 2.4318 8.48109 -0.02896
C 2.41712 7.07361 -0.00131
C 3.65531 6.38753 -0.01118
C 3.62549 5.0105 -0.014
C 2.4871 4.20933 0.02147
C 2.42687 2.79308 0.00373
C 3.72067 2.11701 -0.00191
C 3.7484 0.69557 0.00438
C 2.45276 0.07687 0.01291
C 4.95267 32.76445 0.00093
C 6.16053 31.97486 0.00057
C 6.1035 30.59846 -0.01634
C 4.88327 29.92049 -0.00334
C 4.8886 28.48591 0.02339
C 6.10201 27.70041 0.01641
C 6.12292 26.23283 -0.00719
C 4.88557 25.59666 0.01364
C 3.63896 9.20131 -0.01004
C 4.89624 24.1279 -0.01062
C 3.66288 10.67116 0.00488
C 2.40654 12.81949 0.03693
C 3.67402 30.63874 -0.00562
C 2.47315 29.96227 -0.00494
C 2.48239 28.52103 0.00054
C 3.66999 27.72612 0.03007
C 3.74554 26.32437 -0.00095
C 2.49848 25.62266 0.01572
C 2.4342 24.20449 -0.04848
C 3.63802 23.44934 -0.00892
C 3.69035 22.00681 -0.01362
C 2.53255 21.23999 -0.0008
C 2.45205 19.85325 0.0288
C 3.68946 19.14673 0.00393
C 3.73419 17.73491 0.00895
C 2.41016 17.10402 0.00685
C 2.40762 15.63731 0.02888
C 3.65324 14.94058 -0.00482
C 3.64219 13.44169 -0.01384
C 2.45827 11.37885 0.01745
C 23.31889 17.74067 -0.01185
C 6.14072 23.44697 -0.00033
C 4.91891 21.32519 -0.02759
C 8.69604 31.98548 0.00444
C 8.56808 30.57546 -0.00925
C 7.36794 29.91226 0.01877
C 7.32163 28.43615 0.01363
C 8.59901 27.71877 -0.02162
C 8.57327 26.31487 0.00415
C 7.35498 25.55763 -0.0014
C 7.3623 24.20913 0.02162
C 8.55702 23.42758 0.0076
C 8.57286 21.99675 0.01241
C 7.37051 21.2753 -0.01454
C 7.33945 19.88327 0.01945
C 8.58825 19.18073 0.01416
C 8.58515 17.71029 0.03542
C 7.37267 16.97142 0.02299
C 7.34798 15.5612 0.00244
C 8.62004 14.87236 -0.01717
C 7.45699 32.64931 -0.01789
C 6.184 22.05136 0.03589
C 4.95882 0.05553 0.02894
C 6.17496 2.20035 0.00165
C 4.92278 19.85295 0.0402
C 6.16894 19.11427 0.00572
C 6.10635 17.64921 0.03592
C 4.91737 16.9696 0.00406
C 4.87484 15.59134 0.00943
C 6.07031 14.91088 0.02841
C 6.06735 13.4461 -0.01111
C 4.85518 12.77469 -0.01275
C 4.86006 11.40076 0.00985
C 6.15351 10.67141 -0.02245
C 6.10386 9.27418 -0.00428
C 4.88739 8.54192 0.03101
C 4.85261 7.16583 -0.01536
C 6.07906 6.42716 -0.02689
C 6.16993 4.99903 -0.01046
C 4.95312 4.28794 -0.00891
C 4.96475 2.80128 0.02819
C 6.21157 0.77438 -0.02971
C 22.02883 17.03659 0.01126
C 22.29754 15.73898 0.01852
C 23.46967 15.09943 -0.00381
C 31.92425 28.33325 0.0544
C 33.19816 27.69243 0.00026
C 33.11821 26.2916 0.00682
C 31.94857 25.58993 -0.01779
C 31.91795 24.14055 0.03794
C 33.18147 23.47685 0.01927
C 33.18836 22.02383 0.01574
C 31.98466 21.24919 -0.02383
C 31.98928 19.83367 -0.01429
C 33.18903 19.18495 -0.0136
C 33.19745 17.78304 0.00594
C 31.94156 16.99434 -0.02474
C 31.89067 15.56901 0.00369
C 33.12978 14.9276 0.00455
C 33.24629 13.49894 -0.00644
C 31.9417 12.8473 -0.01839
C 31.93352 11.36884 0.00137
C 31.91951 29.83813 -0.02142
C 33.23593 10.67046 0.00199
C 33.22182 30.58982 0.01428
C 31.86311 32.64522 0.01713
C 29.45824 17.06911 0.0101
C 29.5292 15.63906 0.01705
C 30.69592 14.93518 -0.0405
C 30.68158 13.54248 -0.01303
C 29.42445 12.76531 -0.01461
C 29.5135 11.34214 -0.02155
C 30.73793 10.68284 -0.00944
C 30.77003 9.32143 -0.03735
C 29.56587 8.47484 -0.00971
C 29.53554 7.03558 0.01518
C 30.768 6.38145 0.01908
C 30.7676 4.94209 0.07705
C 29.54691 4.25567 0.0103
C 29.48276 2.88679 0.02108
C 30.70394 2.13216 0.00716
C 30.76518 0.70839 0.00307
C 29.51435 0.01391 0.00346
C 33.16558 32.02809 -0.01694
C 30.69519 17.7442 -0.00669
C 33.21267 9.24997 0.04381
C 31.97279 7.12119 0.01504
C 1.20315 17.70538 0.01223
C 34.43021 17.06538 0.00648
C 34.36649 15.66886 0.02114
C 1.17778 14.90461 -0.02957
C 1.14108 13.51935 0.00343
C 34.40784 12.8241 -0.02656
C 0.02687 11.41927 -0.02442
C 1.25625 10.64612 -0.00027
C 1.22406 9.1498 -0.00583
C 34.41597 8.51467 -0.02302
C 0.00343 7.05489 -0.02849
C 1.13362 6.31339 0.02931
C 1.24801 4.92175 0.00628
C 34.4242 4.21778 -0.0345
C 34.33551 2.85336 -0.00931
C 1.14565 2.1656 -0.00939
C 1.20354 0.73576 -0.00468
C 1.25072 19.14393 -0.01678
C 32.00152 8.52737 0.02806
C 0.03854 19.84158 0.01951
C 1.25932 22.03145 0.02712
C 33.22456 6.37756 -0.00069
C 33.1335 4.93648 0.04926
C 31.92683 4.21052 -0.03838
C 31.92595 2.85885 0.00349
C 33.10499 2.13112 -0.00323
C 33.12307 0.69841 -0.00841
C 31.93323 34.06702 0.0001
C 34.39635 32.67274 -0.02927
C 1.22583 32.02036 -0.01404
C 1.22236 30.58639 0.01027
C 0.01657 29.86178 0.01831
C 34.40094 28.52226 -0.01037
C 1.19542 27.78143 -0.00439
C 1.18364 26.31998 -0.00598
C 34.36322 25.6093 -0.05239
C 0.02163 24.18356 0.03076
C 1.26659 23.48367 0.00723
C 0.0396 21.32016 -0.02213
C 3.71214 32.01665 -0.01142
C 30.74738 19.18713 0.03531
C 29.52031 21.23541 -0.03039
C 24.72731 15.59508 -0.04078
C 25.81662 14.85532 0.02117
C 25.75178 13.46824 0.02737
C 24.47397 12.7491 -0.00498
C 24.68945 11.38355 0.00135
C 25.75989 10.63263 0.03102
C 25.7682 9.22766 0.02555
C 24.55562 8.54084 0.01423
C 24.74589 7.15531 -0.00285
C 25.79673 6.3699 -0.009
C 25.74077 4.97129 -0.01199
C 24.47145 4.29922 -0.00229
C 24.56074 2.80941 -0.00938
C 25.72284 2.10851 -0.0264
C 25.77844 0.7542 -0.01154
C 24.55053 34.06905 0.00684
C 26.9586 32.72061 -0.01052
C 24.62391 16.9681 0.03005
C 28.22351 31.97261 -0.01679
C 25.83531 17.74425 -0.0276
C 24.41625 20.011 -0.00178
C 23.33061 5.06503 0.03046
C 22.10012 2.86594 0.0296
C 23.25722 2.11469 0.03374
C 23.36736 0.72826 -0.02845
C 22.13266 0.06477 -0.03213
C 24.54362 32.66444 0.02239
C 25.81847 31.91267 0.01153
C 25.82369 30.57531 0.02734
C 24.62333 29.78958 -0.0055
C 24.51655 28.32787 0.01515
C 25.72441 27.60091 -0.00225
C 25.70885 26.21053 0.00071
C 24.65992 25.4386 -0.01107
C 24.71108 24.1137 -0.01586
C 25.80101 23.31207 -0.01971
C 25.80803 21.95128 -0.02118
C 24.61982 21.34075 0.00733
C 25.77418 19.19729 0.00768
C 29.51695 19.81746 0.01836
C 28.20767 30.55012 0.00367
C 27.00916 28.38339 0.00996
C 28.29281 4.96777 0.00235
C 27.00379 4.23136 0.01495
C 27.02963 2.81046 0.01259
C 28.25096 2.13319 0.01799
C 28.27006 0.75371 0.01699
C 27.05599 0.09347 -0.00416
C 29.46877 32.66776 0.01177
C 30.73865 31.92138 0.04266
C 30.65255 30.56258 0.01324
C 29.48754 29.7958 0.0014
C 29.38878 28.40285 0.00924
C 30.62362 27.65248 0.02326
C 30.68394 26.26231 0.00261
C 29.45304 25.54386 0.03265
C 29.49779 24.0764 -0.02049
C 30.71872 23.40682 -0.01854
C 30.67383 21.99063 -0.01415
C 28.26421 6.347 0.01094
C 27.06495 29.83776 0.04306
C 27.05095 7.00846 0.02198
C 28.27468 9.18635 -0.00621
C 28.24257 27.65999 0.00195
C 28.18029 26.20085 -0.00802
C 26.92452 25.4733 -0.00218
C 26.98014 24.02628 -0.01654
C 28.31581 23.3162 -0.00037
C 28.28308 21.89588 -0.0032
C 26.98945 21.23982 0.00622
C 27.03022 19.8519 -0.02815
C 28.26068 19.16639 -0.00942
C 28.26721 17.7779 0.00487
C 27.07595 17.0307 0.00826
C 27.03143 15.6508 -0.00294
C 28.27148 14.93401 0.00152
C 28.21139 13.48737 0.01257
C 26.94776 12.73629 0.02316
C 26.96976 11.37678 0.04185
C 28.23275 10.60531 0.00194
C 27.02756 8.45846 0.02611
C 2.48484 32.71214 0.01849
