295
Graphene
C 0.02924 0.0416 0.01295
C 11.13823 0.65866 0.00755
C 9.78603 0.05258 -0.0054
C 12.33468 32.66765 0.00667
C 13.56035 31.92532 0.00143
C 12.43625 15.61825 -0.017
C 13.49463 14.99023 0.00364
C 11.03221 2.06591 0.01739
C 13.46949 13.51767 -0.00831
C 12.2567 11.25173 -0.04422
C 13.55851 10.59072 0.00654
C 13.56036 9.25782 -0.00703
C 12.38645 8.47727 -0.04076
C 12.37536 7.05754 -0.00652
C 13.57349 6.36112 0.0058
C 12.26922 12.87638 -0.02957
C 9.85324 2.78419 0.03754
C 9.85047 4.16248 -0.03557
C 11.00084 4.92042 -0.00111
C 11.15888 31.84455 0.00028
C 10.99163 30.51194 -0.02213
C 9.83698 29.83024 0.03698
C 9.83063 28.33317 -0.00109
C 9.79037 17.05733 -0.00491
C 9.75047 15.70225 0.03338
C 11.09667 14.99489 -0.0258
C 11.08281 13.53705 -0.0331
C 9.85093 12.81533 -0.00316
C 9.81689 11.37012 0.02188
C 11.05968 10.67049 -0.01979
C 11.0752 9.2186 0.02691
C 9.92109 8.59038 -0.01581
C 9.81999 7.22373 0.01452
C 11.0646 6.38772 0.04892
C 13.56367 5.04639 -0.00865
C 9.87774 32.56701 -0.00289
C 12.30476 4.23298 0.00675
C 13.54939 2.14908 0.00742
C 21.00103 31.90274 0.03374
C 20.91919 30.4259 -0.02845
C 19.64351 15.56148 -0.03213
C 20.86087 14.9657 0.02239
C 20.81629 0.64573 0.01153
C 19.67331 0.02823 0.02734
C 19.76469 32.6039 0.0296
C 22.14095 32.64079 -0.0055
C 23.39218 30.53412 -0.00225
C 22.04549 30.01708 0.00071
C 23.37603 27.7367 -0.01107
C 23.36934 19.0756 -0.01586
C 23.35147 17.72248 -0.01971
C 22.16244 17.08586 -0.02118
C 23.35369 31.92807 0.01515
C 17.18216 0.05589 0.03046
C 18.39427 0.69435 -0.00381
C 18.48913 14.87904 0.01852
C 13.56735 0.79991 -0.01594
C 12.32224 34.04774 0.0106
C 14.77627 32.63158 -0.01154
C 15.98539 31.97681 -0.01721
C 16.05575 14.76617 -0.02422
C 15.86382 13.55979 0.01277
C 14.75229 12.70199 0.00096
C 14.74259 11.32683 -0.01527
C 14.76187 4.21006 0.01087
C 14.77168 2.8931 0.00199
C 15.90519 2.07584 0.01511
C 15.92955 0.73523 -0.00478
C 14.6993 0.06304 -0.01662
C 17.21179 32.63146 -0.01185
C 18.46378 32.00427 0.01126
C 12.34081 2.79068 -0.00311
C 22.15169 15.60808 0.00733
C 7.38595 0.01701 -0.00066
C 8.63429 2.16839 -0.05302
C 2.52458 2.88313 0.02819
C 3.7134 2.14497 0.00165
C 3.69908 0.66144 -0.02971
C 2.44816 34.03725 0.02894
C 4.93829 32.67188 -0.01789
C 6.19804 31.99157 0.00444
C 2.37263 4.29923 -0.00891
C 6.10619 30.54963 -0.00925
C 4.87725 28.40028 0.01363
C 6.13857 27.68196 -0.02162
C 6.07429 26.27465 0.00415
C 4.89171 25.57441 -0.0014
C 4.96948 24.1175 0.02162
C 6.14636 23.42669 0.0076
C 4.90413 29.7578 0.01877
C 2.36257 12.77602 -0.01046
C 3.70201 13.41282 -0.02689
C 3.63842 14.90012 -0.01536
C 3.73371 30.52021 -0.00033
C 2.51879 29.85523 0.03589
C 2.42938 28.47206 -0.02759
C 3.70317 27.6467 0.0402
C 3.64905 26.28312 0.00572
C 2.43081 25.59285 0.03592
C 2.46492 24.19893 0.00406
C 3.69841 23.39519 0.00943
C 3.64275 22.01373 0.02841
C 2.4008 21.34897 -0.01111
C 2.41001 19.87523 -0.01275
C 3.6797 19.20387 0.00985
C 3.67904 17.81506 -0.02245
C 2.48102 16.9998 -0.00428
C 2.46741 15.63912 0.03101
C 6.15695 22.01658 0.01241
C 8.60594 0.73876 0.00213
C 4.83631 21.37353 -0.01454
C 6.15308 19.20348 0.01416
C 7.31961 21.27338 0.00422
C 7.38461 19.8983 0.0351
C 8.51847 19.16557 -0.03113
C 8.67994 17.71487 0.02098
C 7.41442 17.06307 0.01848
C 7.34823 15.60425 -0.00619
C 7.46015 24.08587 0.00798
C 8.59017 14.89894 -0.02162
C 7.34506 12.74679 -0.00481
C 8.57245 10.80727 0.00979
C 8.65426 6.39076 0.01443
C 8.60983 4.95919 0.03505
C 7.35548 4.27179 -0.02815
C 7.42858 2.84983 -0.04147
C 8.52988 13.4439 0.00889
C 7.43418 25.4984 0.00228
C 8.47792 26.23416 -0.00114
C 8.60763 27.73785 -0.02696
C 6.12565 17.81484 0.03542
C 4.89629 17.06239 0.02299
C 4.9613 15.64417 0.00244
C 6.15593 14.83439 -0.01717
C 6.16932 13.45029 0.05265
C 4.95448 12.83765 -0.01952
C 4.93182 2.86655 -0.02813
C 6.12521 2.13573 0.00374
C 6.10924 0.65128 0.00052
C 4.87801 34.0559 -0.03682
C 7.43497 32.66235 0.01965
C 8.63408 31.91954 0.02058
C 8.59839 30.55374 -0.01957
C 7.36878 29.88983 -0.0108
C 7.31636 28.42128 -0.00368
C 4.96906 19.89341 0.01945
C 3.75328 31.94436 -0.01062
C 23.39589 14.99105 -0.00178
C 22.06613 33.99337 -0.0276
C 33.19116 21.97365 -0.01429
C 31.91954 21.30769 -0.0136
C 31.90323 19.82341 0.00594
C 33.18559 19.16007 -0.02474
C 33.18635 17.77985 0.00369
C 31.96071 17.07302 0.00455
C 33.24972 23.34985 -0.02383
C 31.92737 15.66435 -0.00644
C 33.16926 13.53193 0.00137
C 31.98549 12.80079 0.00199
C 31.95777 11.34067 0.04381
C 33.18714 10.66668 0.02806
C 33.25731 9.26493 0.01504
C 31.96547 8.53149 -0.00069
C 33.15703 14.95775 -0.01839
C 32.04918 24.12115 0.01574
C 32.00268 25.59519 0.01927
C 33.20999 26.2915 0.03794
C 29.53834 8.57754 0.01908
C 29.42161 7.1896 0.07705
C 30.69737 6.4471 0.0103
C 30.7468 4.9789 0.02108
C 29.45863 4.2578 0.00716
C 29.51612 2.86614 0.00307
C 30.75329 2.10105 0.00346
C 30.76896 0.67974 0.01713
C 29.48481 0.0374 -0.01694
C 31.9459 32.69724 0.01428
C 33.22234 31.96141 -0.02142
C 33.13971 30.51882 0.0544
C 31.92549 29.85251 0.00026
C 31.96922 28.37214 0.00682
C 33.22363 27.68126 -0.01779
C 31.90794 7.1717 0.04926
C 30.72374 9.2664 0.01518
C 33.24244 6.45305 -0.03838
C 31.99551 4.22191 -0.00323
C 34.40992 17.0446 -0.02957
C 34.36562 15.60704 0.00343
C 1.22734 14.93617 -0.02656
C 1.19975 13.51581 -0.02442
C 34.31272 12.79568 -0.00027
C 34.40369 11.3691 -0.00583
C 1.20175 17.67297 0.02114
C 1.22067 10.75028 -0.02302
C 34.37882 7.17053 0.02931
C 1.29062 4.96829 0.00628
C 0.00864 4.24066 -0.0345
C 0.01211 2.81651 -0.00931
C 1.25058 2.16505 -0.00939
C 1.27833 0.72325 -0.00468
C 0.01739 8.53389 -0.02849
C 1.20343 19.14006 0.00648
C 34.4221 19.88676 0.01223
C 34.4113 21.29846 -0.01678
C 31.91598 2.87425 -0.00841
C 33.24366 2.11753 0.0001
C 33.23399 0.67309 -0.02927
C 32.02591 34.04506 -0.01404
C 34.42286 32.69831 0.01027
C 1.22449 31.98222 0.01831
C 1.24041 30.5334 -0.01037
C 34.41753 29.81319 -0.00439
C 34.41175 28.38041 -0.00598
C 1.21029 27.73774 -0.05239
C 1.25838 26.34592 0.03076
C 0.00755 25.4933 0.00723
C 0.04821 24.10085 0.02712
C 1.25508 23.4695 -0.02213
C 1.21137 22.06585 0.01951
C 33.2111 4.90096 0.00349
C 23.27827 0.72043 0.00768
C 30.7837 10.60554 -0.00971
C 29.48332 12.75728 -0.00944
C 25.76634 2.13936 0.00367
C 25.78208 0.70131 0.04306
C 24.52065 0.0724 0.00996
C 27.03456 32.64606 0.00195
C 28.30391 31.90305 -0.00802
C 28.34193 30.50406 -0.00218
C 25.92617 13.51372 -0.01679
C 27.13349 29.8076 -0.01654
C 28.26939 27.60164 -0.0032
C 28.30317 26.26547 0.00622
C 27.09221 25.51942 -0.02815
C 27.00201 24.09953 -0.00942
C 28.28435 23.3969 0.00487
C 28.27208 22.00225 0.00826
C 27.04701 28.40231 -0.00037
C 25.83364 14.97955 -0.01052
C 24.56945 15.62413 0.00684
C 24.6339 17.09412 -0.01154
C 24.53048 32.6962 0.03005
C 25.81178 31.97452 -0.04078
C 25.84127 30.5315 0.02117
C 24.6434 29.88639 0.02737
C 24.60995 28.3994 -0.00498
C 25.81583 27.63895 0.00135
C 25.80736 26.29027 0.03102
C 24.60398 25.52022 0.02555
C 24.66728 24.29437 0.01423
C 25.74765 23.33275 -0.00285
C 25.76451 21.95077 -0.009
C 24.60175 21.28649 -0.01199
C 24.6224 19.89648 -0.00229
C 25.75842 19.133 -0.00938
C 25.78813 17.78669 -0.0264
C 27.03188 21.23407 -0.00294
C 29.46812 11.34273 -0.03735
C 27.03775 19.81583 0.00152
C 28.28503 17.82318 0.02316
C 30.75267 27.70502 0.03265
C 30.75927 26.2543 -0.02049
C 29.50678 25.5369 -0.01854
C 29.45908 24.10855 -0.01415
C 30.68121 23.4551 -0.03039
C 30.73216 22.04675 0.01836
C 29.56133 28.33428 0.00261
C 29.52028 21.28381 0.03531
C 30.69823 19.20007 0.0101
C 30.76088 17.78908 0.01705
C 29.50085 17.11809 -0.0405
C 29.4833 15.65466 -0.01303
C 30.70227 14.92199 -0.01461
C 30.73634 13.5289 -0.02155
C 29.5092 19.8887 -0.00669
C 29.53316 29.79809 0.02326
C 30.71618 30.4967 0.00924
C 30.72156 31.94061 0.0014
C 27.02574 17.07941 0.04185
C 27.03853 15.69437 0.00194
C 28.28201 14.85533 -0.00621
C 28.27467 13.43086 0.02611
C 26.9365 12.81123 0.02198
C 28.30773 10.59462 0.01094
C 28.36229 9.34616 0.00235
C 28.21017 6.3462 0.01495
C 28.20504 4.97402 0.01259
C 27.09864 4.22954 0.01799
C 26.99515 2.80365 0.01699
C 28.25484 2.13441 -0.00416
C 28.31499 0.67662 0.01177
C 27.0645 34.06446 0.04266
C 29.55275 32.68317 0.01324
C 28.25995 19.15108 0.01257
C 2.48534 32.59299 0.01364
