417
Graphene
C 0.01078 0.03754 0.01295
C 13.58143 9.27207 -0.01111
C 12.32667 8.57329 -0.01275
C 12.28279 7.20303 0.00985
C 13.52454 6.43739 -0.02245
C 13.57194 4.98373 -0.00428
C 12.3401 4.24146 0.03101
C 12.27879 2.81034 -0.01536
C 13.4651 2.06133 -0.02689
C 13.45951 0.59794 -0.01046
C 12.22993 33.97963 -0.00891
C 13.55978 10.63688 0.02841
C 14.69641 32.64489 0.02819
C 16.01128 30.55283 -0.02971
C 14.82665 29.8905 0.02894
C 14.78534 28.41208 -0.01789
C 15.95576 27.64911 0.00444
C 15.8986 26.13627 -0.00925
C 14.63068 25.54251 0.01877
C 16.23605 14.73517 0.01363
C 15.90591 13.46769 -0.02162
C 14.68428 12.81493 0.00415
C 14.70067 11.42376 -0.0014
C 16.00259 31.93862 0.00165
C 15.93462 10.65988 0.02162
C 12.35762 11.44377 0.00943
C 13.54401 13.56948 0.03592
C 11.11964 13.55757 -0.00131
C 9.8615 12.86745 -0.01118
C 9.8895 11.39431 -0.014
C 11.11212 10.74355 0.02147
C 11.07123 9.33088 0.00373
C 9.84372 8.59239 -0.00191
C 9.81333 7.23234 0.00438
C 11.09924 6.44566 0.01291
C 11.08193 4.98212 0.00093
C 9.85787 4.25928 0.00057
C 12.37074 12.87662 0.00406
C 9.85837 2.80352 -0.01634
C 11.0681 0.61105 0.02339
C 9.78706 0.02129 0.01641
C 12.26006 32.60489 -0.00719
C 13.55522 31.88798 0.01364
C 13.59462 30.49265 -0.01062
C 12.37073 29.82889 -0.00033
C 12.31811 28.43652 0.03589
C 13.51691 27.82302 -0.02759
C 13.45003 26.29523 0.0402
C 12.21859 25.69279 0.00572
C 11.03929 2.00222 -0.00334
C 10.85955 14.94917 -0.02896
C 15.99133 9.28709 0.0076
C 14.74682 7.12219 -0.01454
C 17.16737 7.08257 -0.00619
C 18.44574 6.38114 -0.02162
C 18.49329 5.0064 0.00889
C 17.27636 4.27732 -0.00481
C 17.21338 2.86566 0.00979
C 18.37598 2.08726 0.01443
C 18.4335 0.72187 0.03505
C 17.23462 34.06659 -0.02815
C 19.61749 32.63263 -0.04147
C 20.86668 31.92115 -0.05302
C 17.19852 8.53728 0.01848
C 20.90783 30.54969 0.00213
C 19.65361 28.41425 -0.00289
C 20.81424 27.70591 0.00028
C 20.80711 26.29914 -0.02213
C 19.60599 25.56913 0.03698
C 19.64685 24.19719 -0.00109
C 20.89476 23.47782 -0.00491
C 20.91706 22.0021 0.03338
C 19.72315 21.18978 -0.0258
C 19.69021 19.99462 -0.0331
C 20.89038 19.10751 -0.00316
C 19.67917 29.84206 -0.00066
C 14.81499 8.5064 0.01241
C 18.46184 9.14209 0.02098
C 17.19064 11.30213 0.0351
C 15.97614 6.38377 0.01945
C 16.03105 4.96168 0.01416
C 14.79591 4.29164 0.03542
C 14.6193 2.84862 0.02299
C 15.92639 2.13117 0.00244
C 15.95665 0.66769 -0.01717
C 14.73347 34.02863 0.05265
C 17.25455 32.64624 -0.01952
C 18.43246 31.90859 -0.02813
C 18.43037 30.50168 0.00374
C 18.47274 10.58085 -0.03113
C 17.22823 29.80885 0.00052
C 18.41369 27.68933 0.01965
C 18.36152 26.29786 0.02058
C 17.14924 25.48898 -0.01957
C 17.34889 24.17758 -0.0108
C 18.42623 23.54996 -0.00368
C 18.4663 17.66518 -0.02696
C 17.1315 15.59389 -0.00114
C 18.40754 14.97402 0.00228
C 18.43104 13.54265 0.00798
C 17.26632 12.6913 0.00422
C 17.15967 28.33436 -0.03682
C 9.91432 15.60206 -0.01004
C 9.73504 24.20841 0.00488
C 9.8185 25.5513 0.01745
C 2.45422 2.78942 0.02769
C 3.64677 2.17195 -0.03291
C 3.70038 0.69172 -0.04999
C 2.46682 0.051 0.04505
C 4.87062 32.65539 0.03284
C 6.14506 32.01998 -0.04307
C 6.13922 30.60533 0.03189
C 4.90641 29.83772 0.00031
C 4.91293 28.41325 -0.003
C 6.1452 27.73079 0.01402
C 2.46929 4.3128 0.01707
C 6.22148 26.32712 0.02379
C 4.92088 24.09951 0.00643
C 6.18744 23.40897 -0.01509
C 6.08226 22.04821 0.03267
C 4.86848 21.35493 0.02374
C 4.8762 19.93472 0.00402
C 6.17737 19.20067 0.0073
C 6.18063 17.7665 0.0174
C 4.93696 17.09311 0.03828
C 4.94682 15.67093 0.01226
C 6.23108 14.83705 -0.00279
C 5.00549 25.52132 0.00907
C 6.07608 13.4444 0.01996
C 3.67688 4.99306 0.00208
C 2.42292 7.09913 -0.01977
C 3.70141 30.53568 -0.01299
C 2.40997 29.77978 -0.00407
C 2.48434 28.35937 0.01138
C 3.68312 27.67846 0.03278
C 3.80182 26.29569 -0.00177
C 2.5293 25.5614 0.04421
C 2.43479 24.14944 0.00088
C 3.63333 23.41089 0.00828
C 3.65141 21.97755 -0.02375
C 2.39122 21.32471 0.00558
C 3.65176 6.47092 -0.00561
C 2.48405 19.8941 -0.0059
C 3.684 17.83051 -0.02805
C 2.46229 17.03841 0.00081
C 2.53242 15.64131 0.00245
C 3.75619 14.91828 0.02728
C 3.66722 13.46288 -0.00039
C 2.42286 12.75447 0.0064
C 2.43709 11.30345 0.00211
C 3.65793 10.57835 -0.00449
C 3.66702 9.20662 -0.01979
C 2.42128 8.49176 0.02784
C 3.68165 19.28423 -0.01386
C 4.82118 12.72481 -0.03996
C 4.85967 11.32601 0.01465
C 6.18592 10.6938 -0.00074
C 8.6042 14.9748 0.0127
C 8.63415 13.55475 0.01396
C 7.35333 12.77351 0.01849
C 7.37707 11.39327 -0.01142
C 8.63454 10.69758 -0.00562
C 8.59702 9.32351 -0.00494
C 7.35057 8.54992 0.00054
C 7.3855 7.16592 0.03007
C 8.63123 6.46083 -0.00095
C 8.63115 5.00253 0.01572
C 7.34463 15.62406 0.02635
C 7.33692 4.36375 -0.04848
C 8.5921 2.22952 -0.01362
C 8.5576 0.7767 -0.0008
C 7.30547 0.08397 0.0288
C 9.80968 32.689 0.00393
C 11.06103 31.93531 0.00895
C 11.12308 30.51881 0.00685
C 9.82422 29.93294 0.02888
C 9.79981 28.48885 -0.00482
C 11.053 27.76748 -0.01384
C 11.00973 26.27879 0.03693
C 7.23591 2.93757 -0.00892
C 7.4589 17.02944 -0.01378
C 8.61226 17.8748 -0.01303
C 8.54338 19.02663 0.00848
C 6.14399 9.3038 -0.00518
C 4.88525 8.51762 0.0086
C 4.94322 7.12731 -0.00643
C 6.16888 6.37637 0.017
C 6.05699 5.04486 -0.03113
C 4.84826 4.30548 -0.02566
C 4.85843 2.87157 -0.00094
C 6.05424 2.16513 0.02322
C 6.00746 0.72756 -0.00725
C 4.87027 34.03301 -0.05697
C 7.30817 32.71083 0.01087
C 8.56953 32.04836 -0.01343
C 8.57536 30.5915 0.00988
C 7.39405 29.83275 0.0276
C 7.33103 28.41727 0.01305
C 8.5946 27.73063 -0.00077
C 8.63471 26.31845 0.03368
C 7.4224 25.64799 -0.02929
C 7.37952 24.18264 -0.00966
C 8.67379 23.38252 -0.03337
C 8.53214 22.01562 0.01227
C 7.33797 21.3197 0.00873
C 7.40771 19.96831 -0.00049
C 20.98102 17.72059 0.02188
C 3.69251 31.94282 -0.0154
C 19.65199 17.08168 -0.01979
C 20.89511 14.89725 -0.01581
C 30.69236 10.69193 -0.00944
C 30.68646 9.18361 -0.03735
C 29.47029 8.55242 -0.00971
C 29.54685 7.1265 0.01518
C 30.74443 6.38925 0.01908
C 30.71617 4.97504 0.07705
C 29.53985 4.2727 0.0103
C 29.52107 2.83839 0.02108
C 30.70806 2.09144 0.00716
C 30.77838 0.66405 0.00307
C 29.48825 11.3653 -0.02155
C 29.53469 34.07426 0.00346
C 33.15608 31.92831 -0.01694
C 33.14276 30.493 0.01428
C 31.92945 29.82919 -0.02142
C 31.9277 28.39708 0.0544
C 33.18334 27.66287 0.00026
C 33.21473 26.27454 0.00682
C 31.98127 25.52717 -0.01779
C 31.99049 24.05475 0.03794
C 33.19179 23.39066 0.01927
C 33.17773 21.99947 0.01574
C 31.98466 32.6352 0.01713
C 31.93083 21.26517 -0.02383
C 29.47208 12.74768 -0.01461
C 30.67973 14.8425 -0.0405
C 27.08613 4.28863 0.01495
C 27.06903 2.862 0.01259
C 28.29339 2.19001 0.01799
C 28.36772 0.78559 0.01699
C 27.1005 0.04018 -0.00416
C 29.53572 32.61726 0.01177
C 30.70061 31.97491 0.04266
C 30.76777 30.54794 0.01324
C 29.55275 29.81829 0.0014
C 29.51759 28.40836 0.00924
C 30.72734 13.43777 -0.01303
C 30.71698 27.67081 0.02326
C 29.51895 25.57478 0.03265
C 29.52219 24.18219 -0.02049
C 30.72817 23.3822 -0.01854
C 30.76173 21.92274 -0.01415
C 29.50029 21.24762 -0.03039
C 29.49697 19.87237 0.01836
C 30.73623 19.13938 0.03531
C 30.65442 17.69226 -0.00669
C 29.45997 16.98705 0.0101
C 29.46525 15.55408 0.01705
C 30.77981 26.23684 0.00261
C 28.3075 4.95076 0.00235
C 31.92699 19.83408 -0.01429
C 33.13709 17.70887 0.00594
C 1.19398 23.39848 0.00723
C 1.20627 21.98332 0.02712
C 34.41992 21.24033 -0.02213
C 34.42115 19.815 0.01951
C 1.2383 19.14722 -0.01678
C 1.20237 17.74279 0.01223
C 34.38552 17.10946 0.00648
C 0.00787 15.67667 0.02114
C 1.27823 14.98325 -0.02957
C 1.21418 13.51165 0.00343
C 0.01336 24.13135 0.03076
C 0.00821 12.81702 -0.02656
C 1.22648 10.58254 -0.00027
C 1.18023 9.22788 -0.00583
C 34.41131 8.50037 -0.02302
C 34.37802 7.09823 -0.02849
C 1.17433 6.44452 0.02931
C 1.22795 4.98476 0.00628
C 0.00778 4.22669 -0.0345
C 34.37864 2.75096 -0.00931
C 1.2154 2.13106 -0.00939
C 1.23035 0.74251 -0.00468
C 0.03424 11.33424 -0.02442
C 33.14041 19.14727 -0.0136
C 0.00621 25.51833 -0.05239
C 1.25779 27.67518 -0.00439
C 31.91095 16.98828 -0.02474
C 31.96625 15.57879 0.00369
C 33.22719 14.90475 0.00455
C 33.19325 13.47945 -0.00644
C 31.99725 12.736 -0.01839
C 32.00332 11.36264 0.00137
C 33.23893 10.61042 0.00199
C 33.18223 9.16078 0.04381
C 31.89981 8.53682 0.02806
C 31.99599 7.1041 0.01504
C 1.22258 26.25296 -0.00598
C 33.19717 6.35145 -0.00069
C 31.95402 4.21264 -0.03838
C 31.92391 2.77427 0.00349
C 33.14647 2.10081 -0.00323
C 33.21575 0.69647 -0.00841
C 31.98305 34.02583 0.0001
C 34.36784 32.69737 -0.02927
C 1.17169 31.90808 -0.01404
C 1.19695 30.50069 0.01027
C 34.38322 29.7752 0.01831
C 34.43262 28.33384 -0.01037
C 33.19696 4.91429 0.04926
C 28.33141 6.41007 0.01094
C 27.13601 7.09736 0.02198
C 27.02031 8.49968 0.02611
C 22.10098 19.82805 -0.01154
C 23.35887 19.14523 -0.01721
C 23.35926 17.72071 -0.02422
C 22.15727 16.98288 0.01277
C 22.20802 15.56403 0.00096
C 23.41466 14.80831 -0.01527
C 23.34165 13.44488 0.01087
C 22.13375 12.73829 0.00199
C 22.19775 11.33522 0.01511
C 23.3859 10.66866 -0.00478
C 22.13976 21.26071 0.0106
C 23.33259 9.27105 -0.01662
C 22.27054 7.17833 0.01126
C 23.48904 6.42236 0.01852
C 23.39246 5.02168 -0.00381
C 22.15359 4.29484 0.03046
C 22.12247 2.81535 0.0296
C 23.423 2.16224 0.03374
C 23.34029 0.76331 -0.02845
C 22.07131 0.09232 -0.03213
C 24.56542 32.60422 0.02239
C 25.79282 31.98075 0.01153
C 22.13152 8.55053 -0.01185
C 25.8584 30.5726 0.02734
C 23.32734 22.0367 -0.01594
C 22.11216 24.15918 -0.00311
C 20.93986 13.49213 0.01452
C 19.67445 12.82827 0.04892
C 19.6862 11.32428 -0.00111
C 20.94696 10.61555 -0.03557
C 20.87284 9.19051 0.03754
C 19.63532 8.44629 0.01739
C 19.75576 7.09209 0.00755
C 20.99921 6.42112 -0.0054
C 20.95658 5.00048 0.00667
C 19.66074 4.29844 0.00143
C 23.33604 23.42585 0.00742
C 19.6396 2.87438 -0.017
C 20.79022 0.73578 -0.00831
C 19.60311 34.06505 -0.02957
C 22.09776 32.67422 -0.04422
C 23.32117 31.89284 0.00654
C 23.34079 30.53108 -0.00703
C 22.05233 29.78064 -0.04076
C 22.04666 28.36258 -0.00652
C 23.30558 27.66862 0.0058
C 23.34379 26.24943 -0.00865
C 22.04824 25.60281 0.00675
C 20.83953 2.11591 0.00364
C 24.54144 29.75837 -0.0055
C 24.56409 28.32942 0.01515
C 25.86565 27.74345 -0.00225
C 28.24811 31.95396 -0.01679
C 28.3873 30.54146 0.00367
C 27.0668 29.84971 0.04306
C 27.10765 28.46451 0.00996
C 28.27066 27.65867 0.00195
C 28.25927 26.23015 -0.00802
C 27.00471 25.58838 -0.00218
C 27.08223 24.21293 -0.01654
C 28.30061 23.51126 -0.00037
C 28.28198 22.01167 -0.0032
C 27.09345 32.72122 -0.01052
C 27.07572 21.35628 0.00622
C 28.30283 19.182 -0.00942
C 28.26341 17.72162 0.00487
C 27.04053 17.01095 0.00826
C 27.02312 15.58058 -0.00294
C 28.20984 14.87924 0.00152
C 28.1956 13.44397 0.01257
C 27.00275 12.77975 0.02316
C 27.03419 11.33503 0.04185
C 28.27591 10.67425 0.00194
C 28.25218 9.23531 -0.00621
C 27.0638 19.92152 -0.02815
C 24.59743 0.00792 0.00684
C 25.79767 0.70819 -0.01154
C 25.83625 2.14873 -0.0264
C 25.832 26.28085 0.00071
C 24.59002 25.56009 -0.01107
C 24.61759 24.11171 -0.01586
C 25.84882 23.44504 -0.01971
C 25.86472 22.04915 -0.02118
C 24.63363 21.30912 0.00733
C 24.58604 19.90516 -0.00178
C 25.85732 19.14565 0.00768
C 25.77112 17.65311 -0.0276
C 24.5391 16.98119 0.03005
C 24.5853 15.60237 -0.04078
C 25.80699 14.89938 0.02117
C 25.76747 13.47135 0.02737
C 24.53905 12.74902 -0.00498
C 24.63603 11.35256 0.00135
C 25.80729 10.6022 0.03102
C 25.78158 9.19033 0.02555
C 24.49137 8.49908 0.01423
C 24.64914 7.13768 -0.00285
C 25.87981 6.40651 -0.009
C 25.83895 4.9982 -0.01199
C 24.61394 4.25096 -0.00229
C 24.56615 2.85009 -0.00938
C 19.66157 15.5817 0.02691
C 2.43477 32.69588 0.00662
