348
Graphene
C 34.42357 34.01452 0.01295
C 11.07107 0.63816 0.00422
C 9.79126 0.06111 0.0351
C 12.35479 32.61272 -0.03113
C 13.52466 31.92329 0.02098
C 13.51869 30.41732 0.01848
C 12.29625 29.90797 -0.00619
C 11.99079 12.67479 -0.02162
C 12.27046 11.29653 0.00889
C 13.4835 10.61327 -0.00481
C 13.59575 9.10199 0.00979
C 12.31718 8.38229 0.01443
C 12.3722 7.02778 0.03505
C 13.61832 6.34891 -0.02815
C 13.54502 4.93141 -0.04147
C 12.29905 4.21149 -0.05302
C 12.28171 2.8494 0.00213
C 13.52766 2.11396 -0.00066
C 11.15611 2.04739 0.00798
C 9.78636 2.80837 0.00228
C 9.81064 4.217 -0.00114
C 10.99641 4.91604 -0.02696
C 7.30136 2.90093 -0.01454
C 8.56839 2.15279 0.01945
C 8.60324 0.78792 0.01416
C 7.33574 0.0675 0.03542
C 9.74837 32.71837 0.02299
C 11.0811 32.01219 0.00244
C 11.07963 30.55196 -0.01717
C 9.84208 29.85088 0.05265
C 13.53585 0.64426 -0.00289
C 9.85593 28.49625 -0.01952
C 11.08941 13.61545 0.00374
C 9.87223 12.95485 0.00052
C 9.88093 11.405 -0.03682
C 11.02699 10.6741 0.01965
C 11.13058 9.20299 0.02058
C 9.89512 8.50413 -0.01957
C 9.8505 7.10744 -0.0108
C 11.11689 6.4013 -0.00368
C 9.79752 15.77051 -0.02813
C 12.32154 34.04083 0.00028
C 14.80707 32.60008 -0.02213
C 16.03025 31.88711 0.03698
C 18.49366 6.41471 -0.00831
C 18.46358 5.01762 -0.02957
C 17.2186 4.33952 -0.04422
C 17.19616 2.84233 0.00654
C 18.40423 2.16522 -0.00703
C 18.43127 0.7416 -0.04076
C 17.17836 34.04007 -0.00652
C 19.61727 32.62255 0.0058
C 17.30045 7.08478 0.00364
C 20.81851 31.8637 -0.00865
C 19.59413 30.0302 -0.00311
C 19.74087 11.26814 0.00742
C 20.92723 10.63907 -0.01594
C 20.96409 9.21653 0.0106
C 19.7127 8.53905 -0.01154
C 19.78641 7.10247 -0.01721
C 20.89927 6.32583 -0.02422
C 20.89311 4.90944 0.01277
C 20.87097 30.28447 0.00675
C 7.34498 4.28719 0.01241
C 17.2349 8.58317 -0.017
C 18.44354 10.86472 0.00667
C 15.85372 30.63281 -0.00109
C 14.78152 29.89009 -0.00491
C 14.55516 11.38856 0.03338
C 15.82351 10.8365 -0.0258
C 16.01462 9.26589 -0.0331
C 14.82982 8.49655 -0.00316
C 14.83133 7.07744 0.02188
C 16.03648 6.40135 -0.01979
C 18.45573 9.29731 0.00143
C 15.98777 4.99648 0.02691
C 14.75802 2.77484 0.01452
C 15.96853 2.13016 0.04892
C 15.98851 0.64992 -0.00111
C 14.76909 34.00781 -0.03557
C 17.1699 32.58197 0.03754
C 18.4135 31.95338 0.01739
C 18.39775 30.58636 0.00755
C 17.12434 11.34059 -0.0054
C 14.83221 4.22013 -0.01581
C 19.66366 4.26258 0.00096
C 8.58344 4.95229 0.0076
C 7.39706 7.08933 -0.0014
C 2.49682 7.09946 -0.01362
C 3.69164 6.38208 -0.0008
C 3.65879 4.94995 0.0288
C 2.42887 4.13904 0.00393
C 2.44852 2.74357 0.00895
C 3.69516 2.18958 0.00685
C 3.7499 0.75313 0.02888
C 2.55501 0.05547 -0.00482
C 4.94024 32.67883 -0.01384
C 6.19427 31.99242 0.03693
C 6.13004 30.5753 0.01745
C 4.87451 29.80588 0.00488
C 4.8983 28.44067 -0.01004
C 6.20026 27.6969 -0.02896
C 6.10799 26.31358 -0.00131
C 4.86783 25.62175 -0.01118
C 4.97119 24.20093 -0.014
C 2.43571 8.51364 -0.00892
C 3.64924 9.29719 -0.04848
C 3.72367 10.63677 0.01572
C 2.44192 11.33997 -0.00095
C 3.58917 30.56394 -0.02929
C 2.41503 29.81389 -0.00966
C 2.42382 28.43033 -0.03337
C 3.63988 27.68982 0.01227
C 3.55947 26.25043 0.00873
C 2.36326 25.51455 -0.00049
C 2.45059 24.17055 0.00848
C 3.71195 23.43777 -0.01303
C 6.1982 23.42628 0.02147
C 3.67771 22.06563 -0.01378
C 2.39 19.92488 0.0127
C 3.65862 19.25176 0.01396
C 3.67197 17.71295 0.01849
C 2.42631 17.01307 -0.01142
C 2.42646 15.61892 -0.00562
C 3.71225 14.90047 -0.00494
C 3.64661 13.48575 0.00054
C 2.44645 12.80365 0.03007
C 2.49746 21.35518 0.02635
C 6.24174 22.01839 0.00373
C 4.9365 21.26743 -0.00191
C 4.8306 19.92672 0.00438
C 7.35674 29.82667 -0.02245
C 7.40985 28.38134 -0.00428
C 8.77286 27.67778 0.03101
C 8.65112 26.2456 -0.01536
C 7.44213 25.56436 -0.02689
C 7.2429 24.20491 -0.01046
C 7.22162 21.12955 -0.00891
C 7.28478 19.90365 0.02819
C 8.56592 30.51097 0.00985
C 8.60445 17.71846 0.00165
C 7.36498 15.69802 0.02894
C 8.66998 14.98309 -0.01789
C 8.59524 13.53721 0.00444
C 7.43711 12.81273 -0.00925
C 7.42493 11.3726 0.01877
C 8.64788 10.69234 0.01363
C 8.61806 9.21011 -0.02162
C 7.38551 8.56226 0.00415
C 7.43061 17.11185 -0.02971
C 8.69577 6.36957 0.02162
C 8.61878 31.94409 -0.01275
C 4.97987 34.05696 0.02841
C 6.079 19.18056 0.01291
C 6.11274 17.78861 0.00093
C 4.86326 17.12675 0.00057
C 4.89989 15.61874 -0.01634
C 6.12767 14.94139 -0.00334
C 6.13109 13.50493 0.02339
C 4.95477 12.78978 0.01641
C 4.95229 11.36403 -0.00719
C 7.37748 32.69985 -0.01111
C 6.20613 10.62957 0.01364
C 4.86987 8.46354 -0.00033
C 4.90194 7.10327 0.03589
C 6.17761 6.40832 -0.02759
C 6.20018 5.02186 0.0402
C 4.90763 4.38131 0.00572
C 4.92125 2.92674 0.03592
C 6.06417 2.18175 0.00406
C 6.10863 0.77141 0.00943
C 6.12416 9.18691 -0.01062
C 19.62526 2.81344 -0.01527
C 20.84652 2.17425 0.01087
C 20.91714 0.75171 0.00199
C 33.17898 30.50385 0.01428
C 32.00482 29.7789 -0.02142
C 31.92352 28.43229 0.0544
C 33.1944 27.70822 0.00026
C 33.15811 26.26856 0.00682
C 31.96726 25.58148 -0.01779
C 31.92878 24.19751 0.03794
C 33.19524 23.47253 0.01927
C 33.22837 22.12156 0.01574
C 31.93072 21.32799 -0.02383
C 31.96426 19.94478 -0.01429
C 33.20535 19.18267 -0.0136
C 33.19969 17.76318 0.00594
C 31.91261 17.07372 -0.02474
C 31.89829 15.64184 0.00369
C 33.13535 14.92614 0.00455
C 33.05556 13.50961 -0.00644
C 33.17069 31.99339 -0.01694
C 31.98517 32.7081 0.01713
C 29.49245 0.038 0.00346
C 30.69427 0.7723 0.00307
C 29.52705 19.94924 0.01836
C 30.77654 19.21465 0.03531
C 30.76114 17.79574 -0.00669
C 29.54791 17.08201 0.0101
C 29.56523 15.65389 0.01705
C 30.71239 14.93931 -0.0405
C 30.65666 13.50232 -0.01303
C 29.46564 12.78868 -0.01461
C 31.90388 12.71797 -0.01839
C 29.46626 11.33843 -0.02155
C 30.76853 9.234 -0.03735
C 29.49884 8.50344 -0.00971
C 29.48595 7.03925 0.01518
C 30.73194 6.39711 0.01908
C 30.76148 4.99351 0.07705
C 29.60698 4.19899 0.0103
C 29.5235 2.80826 0.02108
C 30.771 2.18733 0.00716
C 30.72626 10.62611 -0.00944
C 32.01513 11.40186 0.00137
C 33.24253 10.64563 0.00199
C 33.30281 9.20865 0.04381
C 1.18304 19.15244 -0.01678
C 1.17023 17.76382 0.01223
C 34.40297 17.01057 0.00648
C 34.33807 15.59754 0.02114
C 1.24668 14.87658 -0.02957
C 1.15677 13.40385 0.00343
C 34.31332 12.81622 -0.02656
C 0.02877 11.32511 -0.02442
C 34.42619 19.96526 0.01951
C 1.22174 10.67853 -0.00027
C 0.04456 8.50814 -0.02302
C 0.04088 7.06339 -0.02849
C 1.22328 6.34053 0.02931
C 1.26115 4.93047 0.00628
C 0.00164 4.21951 -0.0345
C 34.37877 2.82923 -0.00931
C 1.19674 2.07356 -0.00939
C 1.19208 0.69901 -0.00468
C 1.22763 9.22793 -0.00583
C 29.48493 21.33435 -0.03039
C 0.02468 21.37569 -0.02213
C 1.24845 23.44121 0.00723
C 32.02401 8.54336 0.02806
C 32.0141 7.14725 0.01504
C 33.20754 6.44322 -0.00069
C 33.26279 5.02651 0.04926
C 31.99595 4.27756 -0.03838
C 31.97896 2.87474 0.00349
C 33.23714 2.17282 -0.00323
C 33.24618 0.72138 -0.00841
C 1.32408 22.03871 0.02712
C 31.94701 0.05853 0.0001
C 1.23763 31.96977 -0.01404
C 1.15113 30.51909 0.01027
C 34.35811 29.80058 0.01831
C 34.3439 28.38433 -0.01037
C 1.24004 27.71843 -0.00439
C 1.12773 26.23271 -0.00598
C 34.31535 25.56426 -0.05239
C 34.40884 24.13924 0.03076
C 34.42155 32.62919 -0.02927
C 30.75516 22.03775 -0.01415
C 30.74314 23.48403 -0.01854
C 29.53025 24.25709 -0.02049
C 24.58954 29.82261 -0.02118
C 24.45536 28.46497 0.00733
C 25.59801 27.66417 -0.00178
C 25.90442 26.31956 0.00768
C 26.00645 23.30949 -0.0276
C 25.91233 21.95813 0.03005
C 25.84499 19.17046 -0.04078
C 25.88779 17.89818 0.02117
C 25.80227 30.5302 -0.01971
C 24.64834 15.61506 0.02737
C 25.82569 13.41959 0.00135
C 24.53304 12.82237 0.03102
C 24.59181 11.38785 0.02555
C 25.79507 10.59637 0.01423
C 25.8078 9.19467 -0.00285
C 24.57198 8.50079 -0.009
C 24.502 7.0844 -0.01199
C 25.73538 6.4705 -0.00229
C 25.72421 14.90576 -0.00498
C 24.56363 4.28816 -0.00938
C 25.79438 32.01236 -0.01586
C 22.09393 33.97315 0.00071
C 19.66652 0.0284 0.01511
C 22.06616 32.61469 -0.00478
C 23.32044 31.94703 -0.01662
C 23.32623 30.5094 -0.01185
C 22.13134 29.7761 0.01126
C 23.33293 13.51012 0.01852
C 22.3236 12.69174 -0.00381
C 22.18479 11.34957 0.03046
C 24.50795 32.7628 -0.01107
C 23.39737 10.57671 0.0296
C 22.12259 8.43173 -0.02845
C 22.13427 6.97455 -0.03213
C 23.33484 6.31458 0.02239
C 23.38125 4.93865 0.01153
C 22.1334 4.30654 0.02734
C 22.10613 2.86167 -0.0055
C 23.34128 2.12935 0.01515
C 23.35133 0.72588 -0.00225
C 23.33611 9.17298 0.03374
C 3.75705 31.96382 0.03368
C 24.62459 2.92055 -0.0264
C 25.83256 0.79423 0.00684
C 28.33121 10.5416 -0.00621
C 28.29689 9.1746 0.02611
C 26.98793 8.42272 0.02198
C 27.02189 6.9611 0.01094
C 28.23983 6.20655 0.00235
C 28.32497 4.81106 0.01495
C 27.1512 2.89934 0.01259
C 28.30593 2.09707 0.01799
C 27.02 11.35196 0.00194
C 28.22638 0.70909 0.01699
C 29.57913 32.60794 0.01177
C 30.75698 31.98404 0.04266
C 30.69161 30.5182 0.01324
C 29.546 29.77757 0.0014
C 29.4883 28.3662 0.00924
C 30.73035 27.68787 0.02326
C 30.79318 26.29585 0.00261
C 29.49975 25.63128 0.03265
C 27.02419 34.06249 -0.00416
C 25.9325 2.21958 -0.01154
C 27.00648 12.77057 0.04185
C 28.32635 14.98522 0.01257
C 24.57617 0.10261 -0.01052
C 27.00988 32.60519 -0.01679
C 28.30144 31.93829 0.00367
C 28.31936 30.46201 0.04306
C 26.99351 29.88278 0.00996
C 26.9464 28.44554 0.00195
C 28.18877 27.70545 -0.00802
C 28.25322 26.25821 -0.00218
C 28.30941 13.53723 0.02316
C 27.01322 25.57421 -0.01654
C 28.23738 23.48593 -0.0032
C 28.27687 22.00872 0.00622
C 27.03322 21.31806 -0.02815
C 27.00964 19.85761 -0.00942
C 28.28495 19.13842 0.00487
C 28.26723 17.73009 0.00826
C 26.9899 17.04971 -0.00294
C 27.07208 15.62344 0.00152
C 27.00518 24.17536 -0.00037
C 2.45018 32.71511 -0.00077
