363
Graphene
C 34.37208 0.01075 0.01295
C 13.5087 30.37195 -0.03682
C 12.27358 29.91169 0.01965
C 12.71291 28.7208 0.02058
C 13.235 27.62083 -0.01957
C 13.38039 26.42119 -0.0108
C 12.75625 25.31864 -0.00368
C 12.22467 24.19618 -0.02696
C 13.38786 23.44186 -0.00114
C 13.63078 31.85865 0.00052
C 12.13083 21.41033 0.00228
C 13.5723 13.53976 0.00422
C 12.42733 12.82154 0.0351
C 12.34904 11.38552 -0.03113
C 13.57784 10.71609 0.02098
C 13.51816 9.17907 0.01848
C 12.2108 8.56085 -0.00619
C 12.27729 7.13629 -0.02162
C 13.53565 6.36801 0.00889
C 12.60737 15.20388 0.00798
C 12.36229 32.56815 0.00374
C 9.83424 34.06605 -0.02813
C 11.05392 0.69701 -0.01952
C 10.92111 23.58975 -0.01789
C 11.06065 22.09368 0.00444
C 9.79813 21.29815 -0.00925
C 9.93483 19.93878 0.01877
C 11.04947 19.17301 0.01363
C 11.02781 17.85722 -0.02162
C 9.95063 17.05356 0.00415
C 9.88386 15.67344 -0.0014
C 11.19466 15.0129 0.02162
C 11.37232 13.57575 0.0076
C 11.13224 10.77103 0.01241
C 10.84561 9.28711 -0.01454
C 9.79828 8.40864 0.01945
C 9.79521 6.95072 0.01416
C 11.04083 6.28754 0.03542
C 11.0058 4.91912 0.02299
C 9.84191 4.23403 0.00244
C 9.88468 2.78362 -0.01717
C 11.05194 2.09644 0.05265
C 13.52314 4.92361 -0.00481
C 12.22986 4.18162 0.00979
C 12.24603 2.79295 0.01443
C 13.56965 2.10762 0.03505
C 17.19111 8.59841 0.03754
C 17.2415 7.091 0.01739
C 18.41659 6.34581 0.00755
C 18.42549 4.97544 -0.0054
C 17.13652 4.27084 0.00667
C 17.17495 2.779 0.00143
C 18.37067 2.09987 -0.017
C 18.38073 0.65833 0.00364
C 17.1368 34.0537 -0.00831
C 19.74692 32.64571 -0.02957
C 20.91102 13.48418 -0.04422
C 19.92233 12.71002 0.00654
C 19.65534 11.3917 -0.00703
C 20.87739 10.5961 -0.04076
C 20.83568 9.15961 -0.00652
C 19.6612 8.48219 0.0058
C 19.66799 7.04289 -0.00865
C 20.89197 6.28692 0.00675
C 20.93881 4.85137 -0.00311
C 18.43026 9.29257 -0.03557
C 9.66167 24.19211 0.02894
C 18.45955 10.79881 -0.00111
C 16.89767 12.8471 0.01452
C 13.50612 0.64541 -0.02815
C 12.2933 34.00809 -0.04147
C 14.78119 32.51349 -0.05302
C 16.06891 32.09946 0.00213
C 14.58122 23.98006 -0.00066
C 14.88792 12.88249 -0.00289
C 14.76569 11.43983 0.00028
C 15.93118 10.64398 -0.02213
C 15.89958 9.26046 0.03698
C 14.6977 8.4967 -0.00109
C 14.69855 7.06987 -0.00491
C 15.91677 6.41097 0.03338
C 15.96194 5.01328 -0.0258
C 14.7642 4.27576 -0.0331
C 14.80293 2.90265 -0.00316
C 15.9584 2.15189 0.02188
C 15.92611 0.7026 -0.01979
C 14.68612 33.97376 0.02691
C 17.27096 32.71399 -0.01581
C 17.14536 11.49844 0.04892
C 19.66928 4.25225 0.00742
C 9.70782 29.85243 -0.02971
C 10.97827 31.92971 0.02819
C 3.68687 6.47027 -0.01378
C 3.67731 4.99925 0.02635
C 2.41329 4.30866 0.0127
C 2.50546 2.83237 0.01396
C 3.64654 2.18647 0.01849
C 3.64017 0.72567 -0.01142
C 2.41426 34.04339 -0.00562
C 4.83687 32.7362 -0.00494
C 2.41175 7.16523 -0.01303
C 6.10036 32.08214 0.00054
C 4.84516 29.86437 -0.00095
C 4.8923 28.4644 0.01572
C 6.08753 27.75982 -0.04848
C 6.246 26.34133 -0.00892
C 5.01814 25.5988 -0.01362
C 4.92455 24.14022 -0.0008
C 6.13289 23.42419 0.0288
C 6.12493 22.02053 0.00393
C 6.04554 30.61284 0.03007
C 2.45008 8.51533 0.00848
C 3.70821 9.30257 -0.00049
C 3.68157 10.70665 0.00873
C 3.61123 30.5522 -0.00643
C 2.38905 29.85102 0.017
C 2.46982 28.36012 -0.03113
C 3.74346 27.6369 -0.02566
C 3.72326 26.24239 -0.00094
C 2.42915 25.64752 0.02322
C 2.44066 24.23943 -0.00725
C 3.66364 23.42937 -0.05697
C 3.71477 22.08493 0.01087
C 2.48868 21.38441 -0.01343
C 2.54853 19.88938 0.00988
C 3.7155 19.13773 0.0276
C 3.73432 17.74467 0.01305
C 2.43022 17.00263 -0.00077
C 2.43191 15.63297 0.03368
C 3.68458 14.95175 -0.02929
C 3.6965 13.59549 -0.00966
C 2.46963 12.83744 -0.03337
C 2.45492 11.41859 0.01227
C 4.92372 21.36314 0.00895
C 4.94477 19.879 0.00685
C 6.21132 19.1887 0.02888
C 6.19405 17.83773 -0.00482
C 8.49126 23.42564 -0.00033
C 8.57997 22.03864 0.03589
C 7.35993 21.29006 -0.02759
C 7.45399 19.9063 0.0402
C 8.73877 19.22664 0.00572
C 8.69014 17.76814 0.03592
C 7.38952 17.06648 0.00406
C 7.45824 15.70113 0.00943
C 8.59517 14.96691 0.02841
C 7.53168 8.69426 -0.01111
C 7.37408 7.13905 -0.01275
C 8.56059 6.33707 0.00985
C 8.55547 4.8484 -0.02245
C 7.29791 4.20621 -0.00428
C 7.3729 2.85677 0.03101
C 8.60723 2.16454 -0.01536
C 8.58739 0.72572 -0.02689
C 7.35397 0.03311 -0.01046
C 9.75623 32.70348 -0.00891
C 7.35469 24.21183 -0.01062
C 10.92601 30.44794 0.00165
C 7.43399 25.65989 0.01364
C 7.21817 29.928 0.01641
C 4.96556 17.13128 -0.01384
C 4.8741 15.71864 0.03693
C 6.16508 15.04378 0.01745
C 6.13097 13.63335 0.00488
C 4.99613 12.73575 -0.01004
C 4.9083 11.27475 -0.02896
C 6.34157 9.33657 -0.00131
C 4.97938 8.68694 -0.01118
C 4.91356 7.224 -0.014
C 6.13136 6.51524 0.02147
C 6.08576 5.05266 0.00373
C 4.95294 4.30552 -0.00191
C 4.91126 2.80037 0.00438
C 6.07935 2.13663 0.01291
C 6.07048 0.73561 0.00093
C 4.83974 0.06268 0.00057
C 7.37282 32.67759 -0.01634
C 8.5291 31.94685 -0.00334
C 8.51157 30.54127 0.02339
C 7.24292 28.52559 -0.00719
C 3.63766 32.02869 0.0086
C 19.62411 2.79439 -0.01594
C 20.93674 0.62149 -0.01154
C 29.48564 34.0734 0.00346
C 31.97591 32.7004 0.01713
C 33.20486 31.97544 -0.01694
C 33.15008 30.49644 0.01428
C 31.91085 29.88426 -0.02142
C 31.88195 28.46154 0.0544
C 33.15856 27.66256 0.00026
C 33.12804 26.26538 0.00682
C 30.70938 0.72662 0.00307
C 31.8768 25.58861 -0.01779
C 33.14205 23.42552 0.01927
C 33.24044 22.03856 0.01574
C 32.00339 21.22048 -0.02383
C 32.0027 19.85546 -0.01429
C 33.27325 19.19031 -0.0136
C 33.28857 17.74371 0.00594
C 31.97659 17.11371 -0.02474
C 31.95426 15.64311 0.00369
C 31.89491 24.1242 0.03794
C 30.66661 2.1275 0.00716
C 29.49223 2.8986 0.02108
C 29.47138 4.23526 0.0103
C 29.47855 24.14796 -0.02049
C 30.71766 23.3899 -0.01854
C 30.67527 21.96525 -0.01415
C 29.46358 21.33783 -0.03039
C 29.51782 19.92382 0.01836
C 30.71832 19.19547 0.03531
C 30.74329 17.77495 -0.00669
C 29.4979 17.06698 0.0101
C 29.51948 15.58434 0.01705
C 30.72361 14.89036 -0.0405
C 30.7773 13.54096 -0.01303
C 29.52822 12.79312 -0.01461
C 29.53795 11.3225 -0.02155
C 30.75224 10.56113 -0.00944
C 30.7238 9.2224 -0.03735
C 29.53051 8.50276 -0.00971
C 29.52279 7.14767 0.01518
C 30.73807 6.37904 0.01908
C 30.71237 4.90486 0.07705
C 33.19076 14.93896 0.00455
C 33.16176 13.47275 -0.00644
C 31.95706 12.72481 -0.01839
C 31.95425 11.33922 0.00137
C 0.00169 19.95796 0.01951
C 1.29728 19.15068 -0.01678
C 1.22519 17.74091 0.01223
C 0.07561 17.0663 0.00648
C 34.41266 15.57109 0.02114
C 1.14677 14.82643 -0.02957
C 1.1773 13.45157 0.00343
C 34.31221 12.77301 -0.02656
C 34.40553 11.36227 -0.02442
C 1.26674 10.74533 -0.00027
C 1.28209 9.25993 -0.00583
C 0.0646 8.59263 -0.02302
C 34.3452 7.11692 -0.02849
C 1.16749 6.42203 0.02931
C 1.2232 5.03719 0.00628
C 0.01514 4.33187 -0.0345
C 0.03456 2.88445 -0.00931
C 1.25324 2.14636 -0.00939
C 1.23337 0.73554 -0.00468
C 0.04723 21.36773 -0.02213
C 29.45928 25.58855 0.03265
C 1.23785 22.02765 0.02712
C 34.36006 24.2341 0.03076
C 33.22927 10.61937 0.00199
C 33.20772 9.20937 0.04381
C 31.90664 8.43519 0.02806
C 31.96063 7.05641 0.01504
C 33.21141 6.35788 -0.00069
C 33.14138 4.97546 0.04926
C 31.90473 4.19686 -0.03838
C 31.93156 2.8718 0.00349
C 33.2464 2.19648 -0.00323
C 33.19548 0.80447 -0.00841
C 31.97689 0.11743 0.0001
C 34.41108 32.68101 -0.02927
C 1.21731 31.94735 -0.01404
C 1.22903 30.47237 0.01027
C 34.35326 29.74795 0.01831
C 34.3972 28.41279 -0.01037
C 1.23918 27.69377 -0.00439
C 1.21531 26.28355 -0.00598
C 34.32573 25.57536 -0.05239
C 1.17467 23.47078 0.00723
C 20.91298 2.07561 0.0106
C 30.69217 26.3319 0.00261
C 29.38412 28.41169 0.00924
C 25.70919 30.57756 0.01515
C 24.52097 29.82677 -0.00225
C 25.71673 27.5635 0.00071
C 25.7613 26.19883 -0.01107
C 24.49636 24.231 -0.01586
C 25.68134 23.41333 -0.01971
C 25.71371 22.07072 -0.02118
C 24.46761 21.34808 0.00733
C 25.81734 32.01179 -0.0055
C 24.38583 19.85053 -0.00178
C 25.67664 17.67183 -0.0276
C 24.42163 17.00707 0.03005
C 24.53095 15.5359 -0.04078
C 25.79748 14.84361 0.02117
C 25.79545 13.45507 0.02737
C 24.57919 12.65699 -0.00498
C 24.53915 11.29068 0.00135
C 25.8197 10.62262 0.03102
C 25.69324 19.11557 0.00768
C 24.59212 32.6467 0.02734
C 22.07981 33.9866 0.01153
C 23.35386 0.58365 0.02239
C 19.64322 33.98665 -0.01721
C 22.19784 32.55745 -0.02422
C 23.34758 31.90736 0.01277
C 23.43693 22.20365 0.00096
C 23.3256 19.14513 -0.01527
C 23.30258 17.71425 0.01087
C 23.34887 14.8649 0.00199
C 23.35748 13.40333 0.01511
C 22.06497 12.80976 -0.00478
C 22.07244 11.34802 -0.01662
C 23.40003 10.58413 -0.01185
C 23.35107 9.18902 0.01126
C 22.05552 8.37569 0.01852
C 22.19906 6.93237 -0.00381
C 23.47262 6.28253 0.03046
C 23.49586 4.87798 0.0296
C 22.21808 4.18893 0.03374
C 22.16487 2.76563 -0.02845
C 23.32741 2.01147 -0.03213
C 25.78435 9.19604 0.02555
C 24.55967 8.41623 0.01423
C 24.69887 7.04168 -0.00285
C 25.9511 6.38053 -0.009
C 28.32444 14.86488 0.00152
C 28.32115 13.44511 0.01257
C 27.02994 12.72651 0.02316
C 27.07129 11.34327 0.04185
C 28.26238 10.62612 0.00194
C 28.2823 9.2332 -0.00621
C 27.03582 8.51034 0.02611
C 27.12913 7.13035 0.02198
C 28.32056 6.43469 0.01094
C 28.29749 5.01781 0.00235
C 27.13106 4.22092 0.01495
C 27.07702 2.90417 0.01259
C 28.29593 2.13708 0.01799
C 28.25753 0.72776 0.01699
C 27.07589 0.03286 -0.00416
C 29.45199 32.68383 0.01177
C 30.75926 32.0218 0.04266
C 30.68792 30.62016 0.01324
C 29.46203 29.87478 0.0014
C 27.04943 15.56292 -0.00294
C 30.67475 27.69593 0.02326
C 27.05151 17.05887 0.00826
C 28.25609 19.21919 -0.00942
C 25.93447 4.90277 -0.01199
C 24.67339 4.16062 -0.00229
C 24.65748 2.75931 -0.00938
C 25.82036 2.12325 -0.0264
C 25.899 0.77459 -0.01154
C 24.54082 33.99612 0.00684
C 26.99787 32.70785 -0.01052
C 28.16975 31.95386 -0.01679
C 28.13716 30.51583 0.00367
C 26.99092 29.75461 0.04306
C 26.88157 28.3504 0.00996
C 28.15462 27.72159 0.00195
C 28.18932 26.26125 -0.00802
C 26.92589 25.54117 -0.00218
C 27.0572 24.15033 -0.01654
C 28.26751 23.45469 -0.00037
C 28.23872 22.03253 -0.0032
C 26.98956 21.3743 0.00622
C 27.03017 19.88007 -0.02815
C 28.28148 17.81933 0.00487
C 2.39285 32.65194 -0.00518
