361
Graphene
C 34.41617 0.07487 0.01295
C 12.01681 24.0549 0.02058
C 13.33216 23.33601 -0.01957
C 13.43125 21.91895 -0.0108
C 12.03271 21.18283 -0.00368
C 12.17961 19.80921 -0.02696
C 13.46711 19.12145 -0.00114
C 13.42708 17.75061 0.00228
C 12.16308 16.94775 0.00798
C 12.06467 25.51187 0.01965
C 12.34993 15.64752 0.00422
C 13.4594 13.46806 -0.03113
C 12.21519 12.88639 0.02098
C 12.16439 11.45801 0.01848
C 13.40108 10.63374 -0.00619
C 13.4936 9.21404 -0.02162
C 12.26166 8.57985 0.00889
C 12.26326 7.16377 -0.00481
C 13.54325 6.4445 0.00979
C 13.56883 14.85474 0.0351
C 13.39776 26.2144 -0.03682
C 13.46529 27.63025 0.00052
C 12.22811 28.40904 0.00374
C 11.20085 14.91805 -0.00925
C 11.07067 13.58244 0.01877
C 9.80286 12.97914 0.01363
C 9.70706 11.53559 -0.02162
C 10.92986 10.71972 0.00415
C 11.02489 9.3274 -0.0014
C 9.80039 8.62039 0.02162
C 9.85815 7.15481 0.0076
C 11.08927 6.44446 0.01241
C 11.08337 4.94359 -0.01454
C 9.79887 4.28173 0.01945
C 9.87413 2.87947 0.01416
C 11.10463 2.12995 0.03542
C 11.08982 0.67801 0.02299
C 9.79589 0.01106 0.00244
C 12.25289 32.59452 -0.01717
C 13.53177 31.90861 0.05265
C 13.49595 30.44251 -0.01952
C 12.22769 29.83894 -0.02813
C 13.51849 5.01892 0.01443
C 9.8723 15.8871 0.00444
C 12.28799 4.18705 0.03505
C 13.61608 2.10154 -0.04147
C 15.78793 10.63408 0.00755
C 15.97328 9.23029 -0.0054
C 14.75301 8.50358 0.00667
C 14.74104 7.15201 0.00143
C 15.92798 6.38891 -0.017
C 15.97069 4.96332 0.00364
C 14.77013 4.29648 -0.00831
C 14.72418 2.85369 -0.02957
C 14.60704 11.35806 0.01739
C 15.99162 2.07385 -0.04422
C 14.73443 33.97064 -0.00703
C 17.14554 32.52059 -0.04076
C 18.4019 31.923 -0.00652
C 18.37017 30.46201 0.0058
C 17.1428 29.59939 -0.00865
C 17.20503 28.1978 0.00675
C 18.46224 27.56813 -0.00311
C 18.47762 26.1251 0.00742
C 15.95274 0.61989 0.00654
C 14.7408 12.72531 0.03754
C 15.98752 13.30823 -0.03557
C 16.02863 14.79821 -0.00111
C 13.57354 0.65299 -0.05302
C 12.2726 34.02845 0.00213
C 14.6879 32.58668 -0.00066
C 15.90206 31.81082 -0.00289
C 15.9297 30.37924 0.00028
C 14.72572 29.71028 -0.02213
C 14.66625 28.35911 0.03698
C 15.91748 27.51803 -0.00109
C 15.91372 26.12683 -0.00491
C 14.57405 25.47322 0.03338
C 14.60424 24.08095 -0.0258
C 15.8079 23.38922 -0.0331
C 15.86455 22.03639 -0.00316
C 14.75574 21.24887 0.02188
C 14.84074 19.75344 -0.01979
C 16.05643 19.03993 0.02691
C 16.22932 17.60183 -0.01581
C 14.76456 17.02082 0.01452
C 14.77324 15.56088 0.04892
C 12.33948 2.81174 -0.02815
C 10.83088 17.08087 -0.01789
C 10.9202 22.04447 0.02894
C 10.61684 23.30286 -0.02971
C 2.35088 4.40018 0.0127
C 2.41242 2.96618 0.01396
C 3.62134 2.25936 0.01849
C 3.58528 0.86233 -0.01142
C 2.37353 0.08511 -0.00562
C 4.90373 32.84136 -0.00494
C 6.10306 32.05325 0.00054
C 6.15908 30.55484 0.03007
C 3.62085 5.08627 0.02635
C 4.89832 29.90452 -0.00095
C 6.08535 27.67829 -0.04848
C 6.07915 26.17322 -0.00892
C 4.80454 25.49741 -0.01362
C 4.79084 24.04622 -0.0008
C 4.83601 15.58711 0.0288
C 6.12248 15.17923 0.00393
C 6.12793 13.82214 0.00895
C 4.86945 12.95555 0.00685
C 4.85193 28.42213 0.01572
C 3.65712 6.52923 -0.01378
C 2.41151 7.1727 -0.01303
C 2.27375 8.5629 0.00848
C 3.68066 30.60125 -0.03113
C 2.44966 29.84768 -0.02566
C 2.43016 28.47647 -0.00094
C 3.62845 27.70654 0.02322
C 3.62675 26.2753 -0.00725
C 2.31305 25.56724 -0.05697
C 2.41796 24.1206 0.01087
C 3.62626 23.42875 -0.01343
C 2.49797 21.41506 0.00988
C 2.47598 20.10919 0.0276
C 4.04762 17.14748 0.01305
C 2.71215 17.07815 -0.00077
C 2.42793 15.70114 0.03368
C 3.54678 14.89983 -0.02929
C 3.63138 13.59697 -0.00966
C 2.38752 12.81072 -0.03337
C 2.3539 11.39892 0.01227
C 3.63518 10.75054 0.00873
C 3.58799 9.29722 -0.00049
C 4.91977 11.51856 0.02888
C 6.15558 10.86875 -0.00482
C 6.10771 9.36682 -0.01384
C 4.90229 8.64314 0.03693
C 8.57776 9.35836 -0.02759
C 7.37411 8.64523 0.0402
C 7.4149 7.22957 0.00572
C 8.57737 6.54989 0.03592
C 8.56583 5.11401 0.00406
C 7.35917 4.29277 0.00943
C 7.3244 2.93769 0.02841
C 8.60752 2.08697 -0.01111
C 8.56927 0.75893 -0.01275
C 7.37458 0.02496 0.00985
C 9.80863 32.64433 -0.02245
C 11.01709 31.92779 -0.00428
C 11.06837 30.60985 0.03101
C 9.79277 29.86777 -0.01536
C 9.78286 28.36962 -0.02689
C 11.02937 27.64307 -0.01046
C 10.89562 26.15786 -0.00891
C 9.6901 25.55844 0.02819
C 9.23762 24.12728 0.00165
C 8.46233 10.84199 0.03589
C 17.24729 25.40063 -0.01594
C 7.34846 11.65464 -0.00033
C 8.57519 13.81269 0.01364
C 4.94393 7.16655 0.01745
C 6.20945 6.49589 0.00488
C 6.12975 5.05862 -0.01004
C 4.90365 4.3984 -0.02896
C 4.91107 2.96999 -0.00131
C 6.13814 2.18328 -0.01118
C 6.15722 0.76023 -0.014
C 4.84692 0.18267 0.02147
C 7.33956 32.66332 0.00373
C 8.61922 31.98052 -0.00191
C 8.59455 30.54387 0.00438
C 7.30071 29.81645 0.01291
C 7.31649 28.41339 0.00093
C 8.49182 27.72593 0.00057
C 8.45961 26.35354 -0.01634
C 7.32656 25.5316 -0.00334
C 7.97435 23.99149 0.02339
C 7.39651 15.77252 0.01641
C 8.66165 15.31329 -0.00719
C 7.40561 13.14483 -0.01062
C 3.6796 32.12055 0.017
C 17.14322 24.00815 0.0106
C 17.51424 16.77186 -0.01721
C 29.40617 2.93142 0.01713
C 30.64749 2.14661 -0.01694
C 30.59838 0.76889 0.01428
C 29.42286 0.01982 -0.02142
C 31.93209 32.69929 0.0544
C 33.1977 32.0422 0.00026
C 33.20096 30.57055 0.00682
C 31.946 29.8824 -0.01779
C 29.5103 4.36672 0.00346
C 31.89299 28.4419 0.03794
C 33.15899 26.30344 0.01574
C 31.97695 25.61289 -0.02383
C 31.91775 24.21139 -0.01429
C 33.14472 23.45518 -0.0136
C 33.11253 22.07838 0.00594
C 31.83555 21.24995 -0.02474
C 31.97487 19.85501 0.00369
C 33.14083 19.18498 0.00455
C 33.1212 27.69578 0.01927
C 30.71741 4.96873 0.00307
C 30.71159 6.33733 0.00716
C 29.55836 7.00092 0.02108
C 28.2934 5.07325 -0.01854
C 27.00382 4.44831 -0.01415
C 26.98645 3.0224 -0.03039
C 28.1491 2.21712 0.01836
C 28.17936 0.78224 0.03531
C 26.97007 0.00544 -0.00669
C 29.49025 32.73688 0.0101
C 30.67712 32.00313 0.01705
C 30.73162 30.6291 -0.0405
C 29.48877 29.83848 -0.01303
C 29.53222 28.43929 -0.01461
C 30.74432 27.74526 -0.02155
C 30.6946 26.28527 -0.00944
C 29.43828 25.63945 -0.03735
C 29.54573 24.2125 -0.00971
C 30.75185 23.47397 0.01518
C 30.54612 21.99009 0.01908
C 29.30135 21.64187 0.07705
C 30.22926 8.69786 0.0103
C 33.50926 17.84707 -0.00644
C 28.20339 6.50059 -0.02049
C 33.31233 14.95207 -0.01839
C 33.0532 10.66294 0.00199
C 1.39778 19.34469 -0.01678
C 1.53961 17.89303 0.01223
C 0.23255 17.12573 0.00648
C 0.0383 15.75399 0.02114
C 1.18044 14.91578 -0.02957
C 1.17006 13.55039 0.00343
C 34.238 12.79378 -0.02656
C 34.29306 11.43273 -0.02442
C 0.05845 19.82968 0.01951
C 1.0661 10.67048 -0.00027
C 34.19085 8.57349 -0.02302
C 0.00279 7.20952 -0.02849
C 1.12102 6.48571 0.02931
C 1.18512 5.10255 0.00628
C 0.00424 4.33294 -0.0345
C 34.42484 2.95737 -0.00931
C 1.20435 2.19186 -0.00939
C 1.17046 0.79508 -0.00468
C 1.03061 9.21632 -0.00583
C 0.02784 21.32555 -0.02213
C 1.20485 22.0362 0.02712
C 1.211 23.42597 0.00723
C 32.8301 9.25088 0.04381
C 31.61034 8.55203 0.02806
C 31.93783 7.11562 0.01504
C 33.20339 6.44903 -0.00069
C 33.15871 5.01084 0.04926
C 31.89972 4.29535 -0.03838
C 31.97557 2.88523 0.00349
C 33.19101 2.18688 -0.00323
C 33.22194 0.80842 -0.00841
C 31.89515 0.0789 0.0001
C 34.38798 32.75801 -0.02927
C 1.18132 32.02834 -0.01404
C 1.24283 30.52614 0.01027
C 34.41621 29.86316 0.01831
C 34.37649 28.44774 -0.01037
C 1.21539 27.73279 -0.00439
C 1.15151 26.26129 -0.00598
C 34.35687 25.61345 -0.05239
C 34.35726 24.14351 0.03076
C 33.21237 13.82208 0.00137
C 27.01118 7.16067 0.03265
C 28.02151 21.83289 0.00261
C 28.42053 23.49926 0.02326
C 19.69877 25.37894 -0.00225
C 19.7098 23.82283 0.00071
C 21.01399 22.98594 -0.01107
C 19.36029 17.18171 -0.01586
C 19.26699 15.86808 -0.01971
C 19.16429 12.00452 -0.02118
C 20.98389 9.12681 0.00733
C 19.64697 8.53394 -0.00178
C 20.93244 26.12919 0.01515
C 19.5567 7.08236 0.00768
C 20.82336 5.03541 0.03005
C 19.58004 4.23677 -0.04078
C 19.66411 2.8561 0.02117
C 20.95672 2.07265 0.02737
C 20.95506 0.63735 -0.00498
C 19.64921 34.05848 0.00135
C 22.0696 32.60211 0.03102
C 23.3051 31.89 0.02555
C 20.77182 6.43384 -0.0276
C 20.90389 27.58722 -0.0055
C 19.67142 28.26435 0.02734
C 19.67517 29.70919 0.01153
C 17.25713 15.3486 -0.02422
C 18.66422 14.59029 0.01277
C 18.53983 13.13035 0.00096
C 17.11904 12.63772 -0.01527
C 17.03958 11.23876 0.01087
C 18.31965 10.70642 0.00199
C 18.44945 9.35233 0.01511
C 17.22007 8.58373 -0.00478
C 17.1829 7.11395 -0.01662
C 18.39516 6.34265 -0.01185
C 18.39428 4.91173 0.01126
C 17.14381 4.14867 0.01852
C 17.24606 2.79909 -0.00381
C 18.46013 2.11341 0.03046
C 18.47373 0.66335 0.0296
C 17.26022 33.95598 0.03374
C 19.61722 32.60656 -0.02845
C 20.82319 31.88616 -0.03213
C 20.88244 30.49299 0.02239
C 23.32358 30.482 0.01423
C 22.13527 29.68598 -0.00285
C 22.16546 28.31784 -0.009
C 23.44635 27.66938 -0.01199
C 26.03768 23.35507 0.01257
C 26.67919 22.17568 0.02316
C 24.40387 7.04727 0.04185
C 25.82726 6.75789 0.00194
C 25.75757 5.11823 -0.00621
C 24.48779 4.37744 0.02611
C 24.52921 2.84755 0.02198
C 25.81582 2.20403 0.01094
C 25.73501 0.81371 0.00235
C 24.48252 0.00517 0.01495
C 26.9366 32.69437 0.01259
C 28.2662 31.97463 0.01799
C 28.22282 30.50704 0.01699
C 27.01382 29.82996 -0.00416
C 26.98883 28.41838 0.01177
C 28.31307 27.73454 0.04266
C 28.27019 26.34178 0.01324
C 27.09761 25.62525 0.0014
C 27.17968 24.18371 0.00924
C 24.73711 23.88252 0.00152
C 18.33513 23.26117 -0.01154
C 24.66108 25.48511 -0.00294
C 25.81479 27.65022 0.00487
C 23.39158 26.21284 -0.00229
C 22.20494 25.37548 -0.00938
C 22.15095 23.95916 -0.0264
C 23.50352 23.33745 -0.01154
C 22.91977 21.94439 0.00684
C 21.67746 21.91169 -0.01052
C 21.9329 7.29572 -0.01679
C 23.08343 6.58534 0.00367
C 23.20786 4.99428 0.04306
C 21.99223 4.29238 0.00996
C 22.07139 2.90361 0.00195
C 23.33686 2.11135 -0.00802
C 23.32494 0.68804 -0.00218
C 22.0953 34.03152 -0.01654
C 24.5124 32.61673 -0.00037
C 25.77145 31.95982 -0.0032
C 25.81983 30.52832 0.00622
C 24.6392 29.78527 -0.02815
C 24.61279 28.36688 -0.00942
C 25.80707 26.24969 0.00826
C 2.47968 32.75153 -0.00643
