332
Graphene
C 34.42485 0.06649 0.01295
C 13.58692 13.49952 0.03505
C 12.27299 12.83653 -0.02815
C 12.29802 11.36839 -0.04147
C 13.53603 10.58152 -0.05302
C 13.51446 9.18806 0.00213
C 12.27339 8.54118 -0.00066
C 12.2032 7.1382 -0.00289
C 13.5695 15.031 0.01443
C 13.46777 6.44359 0.00028
C 12.33499 4.2974 0.03698
C 12.29715 2.93742 -0.00109
C 13.41143 2.12477 -0.00491
C 13.41956 0.71854 0.03338
C 12.22432 34.047 -0.0258
C 14.76694 32.53935 -0.0331
C 16.05366 31.83636 -0.00316
C 13.56326 5.03519 -0.02213
C 12.29923 15.74656 0.00979
C 12.33758 17.14158 -0.00481
C 13.49945 17.83358 0.00889
C 11.07583 5.06282 -0.03682
C 9.85653 4.24204 0.01965
C 9.80994 2.88343 0.02058
C 11.03817 2.22073 -0.01957
C 11.04645 0.79895 -0.0108
C 9.81291 0.03225 -0.00368
C 12.25778 32.51753 -0.02696
C 13.51039 31.74076 -0.00114
C 13.57395 30.3843 0.00228
C 12.63059 29.25875 0.00798
C 13.37971 27.84655 0.00422
C 13.42533 26.63343 0.0351
C 13.56314 23.45839 -0.03113
C 13.35156 22.07687 0.02098
C 12.1507 21.34629 0.01848
C 12.2054 19.95333 -0.00619
C 13.49776 19.29437 -0.02162
C 16.07146 30.43727 0.02188
C 14.79573 29.77984 -0.01979
C 14.79451 28.47984 0.02691
C 15.86057 27.66621 -0.01581
C 14.729 4.24564 0.00675
C 14.66093 2.8172 -0.00311
C 15.9295 2.0714 0.00742
C 15.92777 0.64634 -0.01594
C 14.7113 33.92556 0.0106
C 17.25958 32.60018 -0.01154
C 18.50367 31.72133 -0.01721
C 18.58626 30.27309 -0.02422
C 17.26967 29.67459 0.01277
C 17.1735 28.22528 0.00096
C 18.24506 27.17586 -0.01527
C 17.39234 25.78811 0.01087
C 17.29854 24.1544 0.00199
C 18.15093 22.79134 0.01511
C 17.13357 21.63688 -0.00478
C 17.13671 20.12614 -0.01662
C 18.56838 19.42025 -0.01185
C 15.98434 4.98839 -0.00865
C 11.10988 6.40697 0.00052
C 16.00339 6.45518 0.0058
C 14.75326 8.51749 -0.04076
C 15.93462 26.332 0.01452
C 14.52481 25.80125 0.04892
C 14.65959 24.43351 -0.00111
C 15.92404 23.71177 -0.03557
C 15.84402 22.26383 0.03754
C 14.64534 21.45475 0.01739
C 14.71655 19.99235 0.00755
C 16.01232 19.31795 -0.0054
C 15.95056 17.86014 0.00667
C 14.74677 17.13099 0.00143
C 14.84976 15.7527 -0.017
C 16.06397 14.97761 0.00364
C 16.10976 13.43936 -0.00831
C 14.76653 12.74147 -0.02957
C 14.79298 11.33141 -0.04422
C 15.99976 10.66604 0.00654
C 15.95328 9.28134 -0.00703
C 14.83464 7.16014 -0.00652
C 18.42047 17.99068 0.01126
C 9.72615 7.01627 0.00374
C 11.00678 9.26366 -0.01952
C 2.38209 34.01893 -0.01118
C 4.86066 32.67414 -0.014
C 4.97847 21.21245 0.02147
C 4.86076 19.81825 0.00373
C 6.06696 19.14201 -0.00191
C 6.0588 17.71359 0.00438
C 4.81974 17.0391 0.01291
C 3.6825 0.68525 -0.00131
C 4.83533 15.68028 0.00093
C 6.08932 13.52759 -0.01634
C 4.88626 12.80377 -0.00334
C 4.8062 11.38818 0.02339
C 6.11799 10.60299 0.01641
C 6.09058 9.23892 -0.00719
C 4.82154 8.54978 0.01364
C 4.89655 7.09679 -0.01062
C 6.10228 14.92129 0.00057
C 3.70127 2.12079 -0.02896
C 2.48462 2.92516 -0.01004
C 2.5247 4.3551 0.00488
C 3.88969 21.83818 0.00054
C 2.44068 21.43854 0.03007
C 2.50133 19.94914 -0.00095
C 3.62708 19.22339 0.01572
C 3.63819 17.78506 -0.04848
C 2.4368 17.02781 -0.00892
C 2.3305 15.7404 -0.01362
C 3.60743 15.08017 -0.0008
C 3.64882 13.59694 0.0288
C 2.46157 12.85399 0.00393
C 2.36924 11.46326 0.00895
C 3.58354 10.65937 0.00685
C 3.60809 9.32068 0.02888
C 2.40648 8.53805 -0.00482
C 2.453 7.12219 -0.01384
C 3.61997 6.41195 0.03693
C 3.71084 5.03637 0.01745
C 6.16151 6.40257 -0.00033
C 6.19643 4.94969 0.03589
C 5.01907 4.2633 -0.02759
C 4.94327 2.85054 0.0402
C 8.59689 2.1012 -0.00925
C 8.49386 0.63105 0.01877
C 7.32746 0.022 0.01363
C 10.08879 32.82627 -0.02162
C 10.95703 31.88563 0.00415
C 10.88139 21.78754 -0.0014
C 9.75699 21.31883 0.02162
C 9.71864 19.94349 0.0076
C 10.93755 19.19328 0.01241
C 11.01623 17.78494 -0.01454
C 9.82612 17.01506 0.01945
C 9.81772 15.61899 0.01416
C 11.10794 14.98343 0.03542
C 11.05716 13.49138 0.02299
C 9.8374 12.84665 0.00244
C 9.81916 11.42784 -0.01717
C 11.06166 10.6444 0.05265
C 7.38603 2.86223 0.00444
C 9.7548 8.58183 -0.02813
C 7.39214 4.26846 -0.01789
C 8.61124 6.2765 -0.02971
C 6.18386 2.10028 0.00572
C 6.12127 0.7694 0.03592
C 4.85259 34.04189 0.00406
C 6.99536 21.27564 0.00943
C 7.22144 19.92088 0.02841
C 8.42926 19.09276 -0.01111
C 8.5252 17.71314 -0.01275
C 7.27375 16.98112 0.00985
C 7.33853 15.55312 -0.02245
C 8.64571 14.89435 -0.00428
C 8.60184 13.5352 0.03101
C 7.32856 12.78278 -0.01536
C 7.3457 11.35348 -0.02689
C 8.5453 10.71987 -0.01046
C 8.5434 9.325 -0.00891
C 7.38772 8.47872 0.02819
C 7.37994 7.00091 0.00165
C 8.61674 4.95231 0.02894
C 17.40757 17.14389 0.01852
C 17.31712 15.71557 -0.00381
C 17.13738 12.46562 0.03046
C 33.11255 30.56093 0.00026
C 31.88774 29.79872 0.00682
C 31.89882 28.39321 -0.01779
C 33.15834 27.7328 0.03794
C 33.17574 26.311 0.01927
C 31.96638 25.65873 0.01574
C 31.94457 24.13322 -0.02383
C 33.12656 32.00815 0.0544
C 33.20073 23.47341 -0.01429
C 31.92327 21.26124 0.00594
C 31.91239 19.85391 -0.02474
C 33.07798 19.05062 0.00369
C 33.23444 17.66405 0.00455
C 32.35138 16.46993 -0.00644
C 32.95901 15.36062 -0.01839
C 33.19913 14.05043 0.00137
C 33.20374 22.00694 -0.0136
C 31.84953 32.75679 -0.02142
C 29.41162 34.00392 0.01428
C 30.65488 0.71372 -0.01694
C 30.67332 30.51583 0.01705
C 29.41432 29.80675 -0.0405
C 29.45279 28.36366 -0.01303
C 30.67716 27.66192 -0.01461
C 30.68258 26.28075 -0.02155
C 29.45468 25.57796 -0.00944
C 29.45751 24.19413 -0.03735
C 30.65527 23.46608 -0.00971
C 30.75091 22.03577 0.01518
C 29.52088 21.38475 0.01908
C 29.63128 20.06113 0.07705
C 30.64711 19.28155 0.0103
C 30.53318 6.31471 0.02108
C 30.7851 4.96782 0.00716
C 29.43633 4.28061 0.00307
C 29.48998 2.83813 0.00346
C 30.72878 2.16067 0.01713
C 33.12833 10.65524 0.00199
C 33.11902 9.28568 0.04381
C 32.0006 8.44462 0.02806
C 31.7978 7.13918 0.01504
C 1.1736 17.74239 0.01223
C 0.015 17.05564 0.00648
C 34.42059 15.66486 0.02114
C 1.12903 14.98345 -0.02957
C 1.23009 13.53934 0.00343
C 34.26264 12.97385 -0.02656
C 34.24494 11.55613 -0.02442
C 1.09343 10.78615 -0.00027
C 1.20666 9.30979 -0.00583
C 34.41229 8.5171 -0.02302
C 34.4221 7.12515 -0.02849
C 1.21387 6.42848 0.02931
C 1.26515 5.08344 0.00628
C 0.05601 4.30639 -0.0345
C 0.05209 2.8421 -0.00931
C 1.27023 2.19392 -0.00939
C 1.21417 0.70279 -0.00468
C 1.1465 19.24016 -0.01678
C 30.60578 31.99469 0.0101
C 34.36745 19.85928 0.01951
C 1.26895 22.15779 0.02712
C 33.22571 6.38753 -0.00069
C 33.25358 5.00063 0.04926
C 31.99748 4.28543 -0.03838
C 31.99219 2.96524 0.00349
C 33.23148 2.20281 -0.00323
C 33.12679 0.75476 -0.00841
C 31.92605 0.03077 0.0001
C 34.4029 32.71846 -0.02927
C 1.12515 31.92891 -0.01404
C 1.06169 30.60332 0.01027
C 34.29758 29.84905 0.01831
C 34.34826 28.426 -0.01037
C 1.15774 27.8091 -0.00439
C 1.06017 26.46636 -0.00598
C 34.39485 25.60652 -0.05239
C 34.39144 24.26102 0.03076
C 1.13851 23.54302 0.00723
C 0.04815 21.3699 -0.02213
C 29.36593 32.65756 -0.00669
C 26.93912 0.00864 0.03531
C 28.20646 0.69256 0.01836
C 20.82101 6.44397 0.02117
C 20.85588 4.94307 0.02737
C 19.66936 4.21305 -0.00498
C 19.66583 2.71047 0.00135
C 20.87069 1.99211 0.03102
C 20.88369 0.52095 0.02555
C 19.64362 33.87604 0.01423
C 22.10302 32.43436 -0.00285
C 23.33757 31.77923 -0.009
C 23.196 30.4062 -0.01199
C 21.98354 29.47187 -0.00229
C 22.03658 28.06784 -0.00938
C 23.38725 27.64493 -0.0264
C 23.25143 26.22273 -0.01154
C 21.81095 25.78242 0.00684
C 21.83483 24.31689 -0.01052
C 23.05648 23.73216 -0.01679
C 19.70207 6.92096 -0.04078
C 23.16326 21.99006 0.00367
C 19.36783 20.50338 0.03005
C 20.91329 22.40038 0.00768
C 17.32021 11.24853 0.0296
C 18.36091 9.30983 0.03374
C 17.22704 8.58509 -0.02845
C 17.2745 7.11651 -0.03213
C 18.49385 6.35557 0.02239
C 18.39642 4.84879 0.01153
C 17.14286 4.12286 0.02734
C 17.12663 2.68314 -0.0055
C 18.40398 2.02253 0.01515
C 18.46572 0.58461 -0.00225
C 17.24536 34.00418 0.00071
C 19.6876 32.40704 -0.01107
C 20.89937 31.66923 -0.01586
C 20.81257 30.16488 -0.01971
C 19.69754 29.4026 -0.02118
C 19.64525 27.51824 0.00733
C 20.96569 27.00943 -0.00178
C 19.42871 21.97449 -0.0276
C 3.65973 32.03773 -0.00494
C 21.77917 21.58888 0.04306
C 22.08687 4.2238 0.00195
C 24.52666 34.03549 0.01495
C 26.89424 32.70361 0.01259
C 28.11021 31.94083 0.01799
C 28.14363 30.53324 0.01699
C 26.96115 29.81332 -0.00416
C 27.0248 28.44438 0.01177
C 28.177 27.63715 0.04266
C 28.27034 26.2972 0.01324
C 27.04092 25.63952 0.0014
C 26.99501 24.1074 0.00924
C 28.23577 23.41155 0.02326
C 28.24344 22.09069 0.00261
C 27.05936 21.39201 0.03265
C 28.32595 5.04609 -0.02049
C 27.13733 4.30354 -0.01854
C 27.06965 2.89884 -0.01415
C 28.31034 2.08089 -0.03039
C 25.73724 0.66146 0.00235
C 23.24236 4.99073 0.00996
C 25.76066 2.17409 0.01094
C 24.50144 4.30906 0.02611
C 22.10311 2.85601 -0.00802
C 23.3233 2.10597 -0.00218
C 23.28484 0.61618 -0.01654
C 22.13822 33.87539 -0.00037
C 24.4907 32.57779 -0.0032
C 25.75782 31.95982 0.00622
C 25.78983 30.51859 -0.02815
C 24.57616 29.7089 -0.00942
C 24.54851 28.30637 0.00487
C 25.81515 27.7175 0.00826
C 25.87588 26.28905 -0.00294
C 24.51821 25.55748 0.00152
C 24.40312 24.13628 0.01257
C 25.73205 23.38109 0.02316
C 25.73987 21.84427 0.04185
C 24.35764 21.51367 0.00194
C 25.85598 4.62999 -0.00621
C 24.49074 2.89505 0.02198
C 2.36923 32.66994 -0.00562
