402
Graphene
C 34.41793 0.04967 0.01295
C 12.34227 8.64014 0.02819
C 12.24668 7.15805 0.00165
C 13.48542 6.47151 -0.02971
C 13.52223 4.99235 0.02894
C 12.31598 4.37107 -0.01789
C 12.29138 2.81868 0.00444
C 13.58038 2.12828 -0.00925
C 13.46591 0.74549 0.01877
C 12.25477 0.09497 0.01363
C 14.75044 32.66504 -0.02162
C 15.88205 31.86944 0.00415
C 15.89386 30.39873 -0.0014
C 14.66893 29.80719 0.02162
C 14.62073 28.2628 0.0076
C 15.84387 27.59025 0.01241
C 16.23069 26.3315 -0.01454
C 16.01462 13.60942 0.01945
C 14.70369 13.08033 0.01416
C 14.70048 11.51918 0.03542
C 15.97984 10.67492 0.02299
C 15.97733 9.19585 0.00244
C 13.52145 9.36151 -0.00891
C 14.68035 8.52701 -0.01717
C 13.53571 10.76626 -0.01046
C 12.09462 12.97983 -0.01536
C 9.72933 12.82271 -0.00334
C 9.72762 11.45127 0.02339
C 11.05108 10.75405 0.01641
C 11.08895 9.30223 -0.00719
C 9.86678 8.53486 0.01364
C 9.88289 7.18852 -0.01062
C 11.04884 6.43822 -0.00033
C 11.09106 5.01254 0.03589
C 9.82758 4.31977 -0.02759
C 9.76069 2.88625 0.0402
C 10.97636 2.15877 0.00572
C 10.92962 0.76792 0.03592
C 9.72928 0.02878 0.00406
C 12.20884 32.78621 0.00943
C 13.48903 32.093 0.02841
C 13.49785 30.56821 -0.01111
C 12.28566 29.89273 -0.01275
C 12.27447 28.48887 0.00985
C 13.33403 27.6101 -0.02245
C 12.51406 26.27659 -0.00428
C 13.42915 13.55706 0.03101
C 12.20626 11.4644 -0.02689
C 10.85527 13.60118 -0.01634
C 14.71325 7.05869 0.05265
C 16.00695 5.01391 -0.02813
C 18.4097 2.09438 -0.04147
C 18.53324 0.71094 -0.05302
C 17.28617 34.07774 0.00213
C 19.71163 32.64707 -0.00066
C 20.92039 31.87521 -0.00289
C 20.9354 30.46195 0.00028
C 19.67431 29.81255 -0.02213
C 19.65656 28.44764 0.03698
C 20.88743 27.6956 -0.00109
C 20.84149 26.31903 -0.00491
C 19.60731 25.59824 0.03338
C 19.63884 24.1715 -0.0258
C 20.74997 23.33218 -0.0331
C 20.75337 21.95361 -0.00316
C 20.86206 19.05318 0.02188
C 20.89515 17.82669 -0.01979
C 19.51038 15.41781 0.02691
C 20.85046 14.78904 -0.01581
C 20.86123 13.35597 0.01452
C 19.6274 12.69519 0.04892
C 19.62143 11.30734 -0.00111
C 17.1778 2.87723 -0.02815
C 15.94242 6.49926 -0.01952
C 17.1665 4.26427 0.03505
C 18.42726 6.32473 0.00979
C 14.76861 4.348 0.00374
C 14.79857 2.87592 0.00052
C 16.07514 2.18535 -0.03682
C 16.05008 0.73256 0.01965
C 14.71698 0.02778 0.02058
C 17.17551 32.62753 -0.01957
C 18.44087 31.93874 -0.0108
C 18.41606 30.52716 -0.00368
C 17.19064 29.7344 -0.02696
C 17.11939 28.35044 -0.00114
C 18.34833 27.78337 0.00228
C 18.3848 26.29902 0.00798
C 17.17907 25.60645 0.00422
C 18.3618 14.90068 0.0351
C 18.32426 13.44113 -0.03113
C 17.17113 12.82004 0.02098
C 17.27747 11.32992 0.01848
C 18.43471 10.50264 -0.00619
C 18.42013 9.11829 -0.02162
C 17.1911 8.5243 0.00889
C 17.21196 7.09679 -0.00481
C 18.44981 4.90324 0.01443
C 9.75439 24.23475 0.00057
C 10.06464 25.60767 0.00093
C 11.25871 26.32666 0.01291
C 2.42352 4.2983 0.03267
C 2.45182 2.92795 0.02374
C 3.69831 2.23685 0.00402
C 3.61619 0.86466 0.0073
C 2.41305 0.1268 0.0174
C 4.86012 32.75668 0.03828
C 6.09654 32.03528 0.01226
C 6.03881 30.60458 -0.00279
C 4.84887 29.84652 0.01996
C 4.83563 28.34266 -0.03996
C 6.14336 27.82754 0.01465
C 6.19394 26.36236 -0.00074
C 4.98882 25.61043 -0.00518
C 4.97289 24.15289 0.0086
C 6.11878 23.40795 -0.00643
C 6.11449 22.1061 0.017
C 4.89687 21.34843 -0.03113
C 4.9177 19.939 -0.02566
C 6.21165 19.22017 -0.00094
C 6.2137 17.75474 0.02322
C 4.93285 16.95273 -0.00725
C 3.65687 5.08709 -0.01509
C 4.83 15.61683 -0.05697
C 3.57223 6.49812 0.00643
C 2.34918 8.57503 0.02379
C 3.65755 30.61662 0.02728
C 2.43961 29.89336 -0.00039
C 2.38009 28.43969 0.0064
C 3.6338 27.69871 0.00211
C 3.68982 26.22897 -0.00449
C 2.47261 25.43456 -0.01979
C 2.36758 24.02053 0.02784
C 3.59706 23.38754 -0.01977
C 3.62137 22.05571 -0.00561
C 2.44285 21.24734 0.00208
C 2.44505 19.84879 0.01707
C 3.6856 19.25064 0.02769
C 3.71146 17.66245 -0.03291
C 2.40128 17.03824 -0.04999
C 2.41117 15.59269 0.04505
C 3.58826 14.94763 0.03284
C 3.60472 13.56188 -0.04307
C 2.39316 12.80556 0.03189
C 2.39411 11.40415 0.00031
C 3.67426 10.74362 -0.003
C 3.57119 9.2709 0.01402
C 2.37365 7.18592 0.00907
C 6.08221 14.93433 0.01087
C 5.99777 13.52301 -0.01343
C 4.79823 12.81065 0.00988
C 8.68447 14.93638 -0.01362
C 8.45441 13.59195 -0.0008
C 7.24427 12.84902 0.0288
C 7.26181 11.46759 0.00393
C 8.50647 10.73279 0.00895
C 8.56562 9.28305 0.00685
C 7.29506 8.48585 0.02888
C 7.34293 7.11498 -0.00482
C 8.65432 6.43548 -0.01384
C 8.62167 5.05375 0.03693
C 7.34317 4.40647 0.01745
C 7.34709 3.00176 0.00488
C 8.4753 2.13659 -0.01004
C 8.49592 0.72926 -0.02896
C 7.26109 0.08461 -0.00131
C 9.71772 32.66171 -0.01118
C 10.9573 32.06265 -0.014
C 11.01315 30.58205 0.02147
C 9.76254 29.83372 0.00373
C 9.81212 28.44188 -0.00191
C 11.07381 27.75102 0.00438
C 7.52921 15.69036 -0.00892
C 7.39841 17.05297 -0.04848
C 7.27513 19.99397 0.01572
C 7.26783 21.19385 -0.00095
C 4.86133 11.45881 0.0276
C 6.07723 10.7228 0.01305
C 6.01801 9.27337 -0.00077
C 4.85083 8.52454 0.03368
C 4.87915 7.06749 -0.02929
C 6.10159 6.49498 -0.00966
C 6.08416 5.06682 -0.03337
C 4.90976 4.30916 0.01227
C 4.8948 2.95845 0.00873
C 6.13126 2.28275 -0.00049
C 20.8158 10.6037 -0.03557
C 6.08575 0.82422 0.00848
C 7.31457 32.73685 -0.01378
C 8.55514 31.93257 0.02635
C 8.54182 30.56586 0.0127
C 7.35595 29.82509 0.01396
C 7.36571 28.49537 0.01849
C 8.63247 27.78679 -0.01142
C 8.69759 26.28791 -0.00562
C 7.50444 25.56936 -0.00494
C 7.36623 24.17716 0.00054
C 8.71935 23.70479 0.03007
C 4.82148 0.14399 -0.01303
C 20.88611 9.17226 0.03754
C 19.66563 8.46461 0.01739
C 19.66285 7.02355 0.00755
C 29.50493 8.49246 -0.00971
C 29.45618 7.09624 0.01518
C 30.70412 6.48768 0.01908
C 30.79048 4.97907 0.07705
C 29.47749 4.29207 0.0103
C 29.51505 2.82566 0.02108
C 30.73137 2.10387 0.00716
C 30.75378 0.66023 0.00307
C 29.55178 34.02916 0.00346
C 31.9187 32.65682 0.01713
C 33.22138 32.01572 -0.01694
C 33.17244 30.52205 0.01428
C 31.93709 29.79047 -0.02142
C 31.96743 28.32555 0.0544
C 33.19168 27.6456 0.00026
C 33.14168 26.16964 0.00682
C 31.90436 25.44763 -0.01779
C 31.93565 24.06853 0.03794
C 33.18305 23.4066 0.01927
C 33.09161 21.9791 0.01574
C 31.95479 21.28952 -0.02383
C 30.66107 9.26296 -0.03735
C 31.85835 19.87811 -0.01429
C 30.67701 10.65524 -0.00944
C 29.39065 12.79511 -0.01461
C 28.34224 0.6451 0.01699
C 27.12198 0.02952 -0.00416
C 29.51291 32.61745 0.01177
C 30.79443 31.91845 0.04266
C 30.72417 30.54478 0.01324
C 29.52007 29.83715 0.0014
C 29.55035 28.34787 0.00924
C 30.72333 27.59722 0.02326
C 30.69124 26.1904 0.00261
C 29.457 25.49571 0.03265
C 29.48451 24.00963 -0.02049
C 30.6977 23.36301 -0.01854
C 30.63496 21.9 -0.01415
C 29.46737 21.21791 -0.03039
C 29.46805 19.80404 0.01836
C 30.69924 19.17845 0.03531
C 30.70016 17.74222 -0.00669
C 29.42056 17.05507 0.0101
C 29.37246 15.59154 0.01705
C 30.62972 14.94345 -0.0405
C 30.62317 13.51723 -0.01303
C 29.44541 11.38293 -0.02155
C 33.08626 19.20731 -0.0136
C 33.10729 17.8278 0.00594
C 31.9316 17.18638 -0.02474
C 1.16684 21.97512 0.02712
C 34.31254 21.34964 -0.02213
C 34.38174 19.89111 0.01951
C 1.2576 19.20295 -0.01678
C 1.1976 17.73137 0.01223
C 34.40217 17.14557 0.00648
C 34.29015 15.69208 0.02114
C 1.14108 14.94002 -0.02957
C 1.14963 13.52216 0.00343
C 34.32059 12.76721 -0.02656
C 34.3407 11.42508 -0.02442
C 1.16541 10.71188 -0.00027
C 1.1706 9.26995 -0.00583
C 34.34021 8.59698 -0.02302
C 34.36298 7.21898 -0.02849
C 1.13371 6.46209 0.02931
C 1.16463 5.01359 0.00628
C 34.40074 4.24959 -0.0345
C 34.35885 2.88418 -0.00931
C 1.20554 2.19825 -0.00939
C 1.18861 0.75035 -0.00468
C 1.15546 23.34036 0.00723
C 34.39492 24.08133 0.03076
C 34.39831 25.56295 -0.05239
C 1.25063 26.24615 -0.00598
C 31.84027 15.66403 0.00369
C 33.04635 14.90348 0.00455
C 33.12148 13.48975 -0.00644
C 31.79307 12.80398 -0.01839
C 31.84859 11.40737 0.00137
C 33.04334 10.71587 0.00199
C 33.09384 9.2901 0.04381
C 31.92318 8.55486 0.02806
C 31.95907 7.1272 0.01504
C 33.22898 6.50537 -0.00069
C 28.33405 2.06646 0.01799
C 33.1661 4.98961 0.04926
C 31.99636 2.90468 0.00349
C 33.18134 2.18145 -0.00323
C 33.13255 0.71767 -0.00841
C 31.96663 34.06642 0.0001
C 34.4043 32.71826 -0.02927
C 1.20443 31.99528 -0.01404
C 1.18931 30.53104 0.01027
C 34.43095 29.81235 0.01831
C 34.39088 28.39476 -0.01037
C 1.26408 27.68941 -0.00439
C 31.96335 4.28631 -0.03838
C 3.69062 32.07519 0.00245
C 27.08772 2.75986 0.01259
C 28.2895 4.94972 0.00235
C 23.32686 13.48166 0.01087
C 22.07843 12.74677 0.00199
C 22.04004 11.34239 0.01511
C 23.32259 10.66836 -0.00478
C 23.3257 9.25629 -0.01662
C 22.12576 8.59273 -0.01185
C 22.13326 7.10673 0.01126
C 23.36931 6.39325 0.01852
C 23.34861 4.96055 -0.00381
C 22.1335 4.182 0.03046
C 22.18095 2.83493 0.0296
C 23.34019 2.0843 0.03374
C 23.43151 0.68581 -0.02845
C 22.16482 34.01746 -0.03213
C 24.61138 32.65369 0.02239
C 25.84651 31.94778 0.01153
C 25.77014 30.49254 0.02734
C 24.62203 29.80114 -0.0055
C 24.52977 28.40623 0.01515
C 25.79051 27.67388 -0.00225
C 25.74494 26.27547 0.00071
C 23.29232 14.88286 -0.01527
C 24.47299 25.5338 -0.01107
C 22.03422 15.54424 0.00096
C 23.29884 17.73375 -0.02422
C 20.95006 6.38114 -0.0054
C 20.83127 4.98075 0.00667
C 19.7075 4.2141 0.00143
C 19.69987 2.78564 -0.017
C 21.02519 2.12143 0.00364
C 20.92737 0.67306 -0.00831
C 19.74794 34.06043 -0.02957
C 22.17741 32.61665 -0.04422
C 23.44921 31.94329 0.00654
C 23.37411 30.4734 -0.00703
C 22.14554 29.72409 -0.04076
C 22.18523 28.39959 -0.00652
C 23.31957 27.65435 0.0058
C 23.29677 26.25901 -0.00865
C 22.04637 25.57281 0.00675
C 22.04567 24.11217 -0.00311
C 23.28914 23.41509 0.00742
C 23.38332 21.96802 -0.01594
C 22.05289 21.2304 0.0106
C 21.96375 19.9062 -0.01154
C 23.33217 19.1204 -0.01721
C 22.05325 17.00851 0.01277
C 24.52958 24.09072 -0.01586
C 25.80637 23.43714 -0.01971
C 25.79282 22.00509 -0.02118
C 28.2848 27.7006 0.00195
C 28.26257 26.29233 -0.00802
C 27.03144 25.63597 -0.00218
C 27.03183 24.17012 -0.01654
C 28.30169 23.39938 -0.00037
C 28.23646 22.00421 -0.0032
C 27.0642 21.23419 0.00622
C 26.98737 19.88138 -0.02815
C 28.23956 19.15452 -0.00942
C 28.15593 17.67828 0.00487
C 26.94145 16.99782 0.00826
C 26.934 15.58054 -0.00294
C 28.16493 14.85408 0.00152
C 28.16871 13.48225 0.01257
C 26.87209 12.71804 0.02316
C 27.01151 11.27416 0.04185
C 28.26779 10.57872 0.00194
C 28.31192 9.16658 -0.00621
C 27.02474 8.47947 0.02611
C 27.06794 7.01894 0.02198
C 28.29458 6.33859 0.01094
C 27.06271 28.39459 0.00996
C 27.03824 29.82134 0.04306
C 28.27201 30.431 0.00367
C 28.36072 31.85065 -0.01679
C 24.51434 21.35205 0.00733
C 24.53673 19.94861 -0.00178
C 25.76181 19.1904 0.00768
C 25.7162 17.79557 -0.0276
C 24.50761 17.06388 0.03005
C 24.49488 15.61534 -0.04078
C 25.68124 14.99138 0.02117
C 25.7063 13.60345 0.02737
C 24.47782 12.85565 -0.00498
C 24.4863 11.45665 0.00135
C 26.99263 4.22558 0.01495
C 25.7351 10.64245 0.03102
C 24.54573 8.52009 0.01423
C 24.62858 7.03074 -0.00285
C 25.85808 6.39111 -0.009
C 25.79297 4.96358 -0.01199
C 24.54538 4.27076 -0.00229
C 24.61756 2.77945 -0.00938
C 25.83138 2.09795 -0.0264
C 25.93808 0.68395 -0.01154
C 24.64777 34.02655 0.00684
C 27.04894 32.61949 -0.01052
C 25.738 9.21311 0.02555
C 2.39217 32.73206 0.00081
