391
Graphene
C 34.38278 34.07391 0.01295
C 14.71955 11.46572 0.01363
C 15.8794 10.74567 -0.02162
C 16.00463 9.26052 0.00415
C 14.76244 8.54177 -0.0014
C 14.71869 7.14531 0.02162
C 15.94059 6.41537 0.0076
C 15.97928 4.96685 0.01241
C 14.79418 4.30254 -0.01454
C 14.79058 2.85075 0.01945
C 14.72564 12.92792 0.01877
C 15.97267 2.09099 0.01416
C 14.74096 34.00325 0.02299
C 17.24702 32.5567 0.00244
C 18.5139 31.82224 -0.01717
C 18.43295 30.46128 0.05265
C 17.23244 29.72307 -0.01952
C 17.22117 28.30377 -0.02813
C 18.40103 27.70106 0.00374
C 18.56648 26.29924 0.00052
C 17.27271 25.56427 -0.03682
C 15.99801 0.68424 0.03542
C 15.94095 13.56102 -0.00925
C 15.9527 14.95481 0.00444
C 14.79595 15.75277 -0.01789
C 12.29981 12.82133 -0.02759
C 12.2774 11.39898 0.0402
C 13.48463 10.76614 0.00572
C 13.53139 9.33408 0.03592
C 12.27559 8.62894 0.00406
C 12.26751 7.19121 0.00943
C 13.45278 6.36498 0.02841
C 13.56947 5.00266 -0.01111
C 12.29318 4.24462 -0.01275
C 12.25523 2.91378 0.00985
C 13.53687 2.21074 -0.02245
C 13.492 0.77018 -0.00428
C 12.31136 34.07952 0.03101
C 14.79392 32.59053 -0.01536
C 15.9103 31.81815 -0.02689
C 15.95152 30.45143 -0.01046
C 14.71314 29.67364 -0.00891
C 14.6599 28.31249 0.02819
C 15.99896 27.70623 0.00165
C 16.04132 26.31744 -0.02971
C 14.66934 25.69695 0.02894
C 17.15409 24.15369 0.01965
C 13.43702 13.68469 0.03589
C 18.4125 23.35225 0.02058
C 18.47553 19.21925 -0.0108
C 19.67666 25.48635 0.03698
C 19.67667 24.1228 -0.00109
C 20.91649 23.39425 -0.00491
C 20.96744 22.02932 0.03338
C 19.78712 21.38034 -0.0258
C 19.74294 19.94701 -0.0331
C 20.92449 19.19966 -0.00316
C 20.84959 17.70047 0.02188
C 19.62461 17.07222 -0.01979
C 20.95058 26.22547 -0.02213
C 19.66073 15.62438 0.02691
C 20.9249 13.48694 0.01452
C 19.72928 12.78734 0.04892
C 19.68731 11.35612 -0.00111
C 20.85387 10.65732 -0.03557
C 20.85885 9.29653 0.03754
C 19.66832 8.5381 0.01739
C 19.66399 7.1226 0.00755
C 20.84767 6.44935 -0.0054
C 20.7947 4.99617 0.00667
C 20.86861 14.91681 -0.01581
C 20.96111 27.62629 0.00028
C 19.68953 28.31442 -0.00289
C 19.65166 29.68636 -0.00066
C 18.356 17.84897 -0.00368
C 17.22075 16.96125 -0.02696
C 17.19702 15.55463 -0.00114
C 18.44365 14.88905 0.00228
C 18.40517 13.49904 0.00798
C 17.15611 12.85297 0.00422
C 17.18089 11.44387 0.0351
C 18.43759 10.71348 -0.03113
C 18.44058 9.23488 0.02098
C 17.19158 8.53783 0.01848
C 17.15009 7.06442 -0.00619
C 18.37047 6.4076 -0.02162
C 18.37695 4.972 0.00889
C 17.19897 4.20742 -0.00481
C 17.15425 2.77848 0.00979
C 18.42365 2.0577 0.01443
C 18.49691 0.69651 0.03505
C 17.28093 34.01391 -0.02815
C 19.63724 32.58464 -0.04147
C 20.88603 31.86032 -0.05302
C 20.88262 30.44027 0.00213
C 18.49616 21.89637 -0.01957
C 19.60759 4.20308 0.00143
C 13.46163 15.20078 -0.00033
C 12.17806 30.11484 0.01364
C 3.56587 0.79437 -0.00074
C 2.39848 0.01931 -0.00518
C 4.85523 32.64773 0.0086
C 6.10852 32.03148 -0.00643
C 6.0673 30.51978 0.017
C 4.99318 29.88584 -0.03113
C 5.05825 19.82568 -0.02566
C 5.95701 18.14321 -0.00094
C 4.88411 17.20424 0.02322
C 3.57653 2.15973 0.01465
C 4.83324 15.67076 -0.00725
C 6.00977 13.61338 0.01087
C 4.87216 12.78883 -0.01343
C 4.90386 11.30851 0.00988
C 6.10957 10.70255 0.0276
C 6.08403 9.32296 0.01305
C 4.9035 8.5489 -0.00077
C 4.91704 7.12969 0.03368
C 6.14378 6.49486 -0.02929
C 6.22815 5.03696 -0.00966
C 6.12332 15.02493 -0.05697
C 2.37956 2.90352 -0.03996
C 2.3886 4.36267 0.01996
C 3.62984 4.95531 -0.00279
C 3.70543 30.51227 0.02769
C 2.45163 29.72915 -0.03291
C 2.54864 28.23088 -0.04999
C 3.64476 27.50218 0.04505
C 2.43636 25.52406 0.03284
C 2.31266 24.256 -0.04307
C 2.41833 21.4609 0.03189
C 2.50835 20.02358 0.00031
C 3.71622 19.29093 -0.003
C 3.65879 17.91311 0.01402
C 2.4831 17.06173 0.02379
C 2.46251 15.69591 0.00907
C 3.63295 14.92121 0.00643
C 3.61222 13.44732 -0.01509
C 2.39978 12.75753 0.03267
C 2.41825 11.33217 0.02374
C 3.64961 10.66967 0.00402
C 3.69983 9.28355 0.0073
C 2.45984 8.49793 0.0174
C 2.43849 7.06473 0.03828
C 3.63924 6.41379 0.01226
C 4.8371 4.3269 -0.03337
C 12.1819 15.68133 -0.01062
C 4.84821 2.91618 0.01227
C 6.07395 0.73452 -0.00049
C 9.48323 16.96998 0.03693
C 9.73431 15.49363 0.01745
C 10.99212 14.84256 0.00488
C 11.01539 13.40233 -0.01004
C 9.7654 12.82293 -0.02896
C 9.80043 11.44742 -0.00131
C 11.01754 10.76458 -0.01118
C 11.07932 9.28345 -0.014
C 9.83277 8.65151 0.02147
C 11.09764 30.67348 -0.01384
C 9.91804 7.23747 0.00373
C 11.05164 5.00903 0.00438
C 9.81857 4.30216 0.01291
C 9.83862 2.92837 0.00093
C 11.04982 2.15993 0.00057
C 11.01996 0.75778 -0.01634
C 9.84387 0.0819 -0.00334
C 12.37384 32.65626 0.02339
C 13.54168 31.91775 0.01641
C 13.58495 30.54076 -0.00719
C 11.07838 6.51288 -0.00191
C 11.00995 32.10317 -0.00482
C 9.77646 32.79101 0.02888
C 7.34178 0.05445 0.00685
C 4.81299 34.07323 0.00848
C 7.36077 32.75018 -0.01303
C 8.51579 31.94568 -0.01378
C 8.42889 30.56702 0.02635
C 8.66018 17.78719 0.0127
C 7.20526 17.23437 0.01396
C 7.29962 15.76904 0.01849
C 8.47411 14.93596 -0.01142
C 8.52332 13.46957 -0.00562
C 7.31046 12.80347 -0.00494
C 7.29661 11.40822 0.00054
C 8.57129 10.70022 0.03007
C 8.61837 9.29627 -0.00095
C 7.37722 8.52108 0.01572
C 7.41938 7.18392 -0.04848
C 8.62586 6.47763 -0.00892
C 8.56064 5.06617 -0.01362
C 7.36068 4.29315 -0.0008
C 7.3013 2.87122 0.0288
C 8.59336 2.17885 0.00393
C 8.60313 0.76695 0.00895
C 6.09 2.1753 0.00873
C 3.63787 31.97651 0.01707
C 19.66342 2.86856 -0.017
C 20.87217 0.68013 -0.00831
C 30.71432 4.98903 0.07705
C 29.46878 4.29589 0.0103
C 29.41848 2.82303 0.02108
C 30.63762 2.18409 0.00716
C 30.71826 0.65911 0.00307
C 29.46329 34.06934 0.00346
C 31.98501 32.60781 0.01713
C 33.12958 31.88778 -0.01694
C 33.18713 30.44817 0.01428
C 30.71137 6.3873 0.01908
C 31.94354 29.79233 -0.02142
C 33.22806 27.68181 0.00026
C 33.22579 26.25647 0.00682
C 31.96577 25.55919 -0.01779
C 31.89157 24.14092 0.03794
C 33.07769 23.42608 0.01927
C 33.11201 22.02216 0.01574
C 31.93362 21.32491 -0.02383
C 32.00583 19.80422 -0.01429
C 33.22247 19.11783 -0.0136
C 32.00006 28.41121 0.0544
C 29.43503 7.10964 0.01518
C 29.47988 8.50759 -0.00971
C 30.65742 9.26195 -0.03735
C 30.7205 31.9736 0.04266
C 30.67206 30.56889 0.01324
C 29.45881 29.8533 0.0014
C 29.50202 28.34645 0.00924
C 30.72463 27.69078 0.02326
C 30.74445 26.28346 0.00261
C 29.54145 25.55965 0.03265
C 29.61204 24.17903 -0.02049
C 30.72079 23.42499 -0.01854
C 30.77299 21.96399 -0.01415
C 29.52959 21.21024 -0.03039
C 29.55549 19.88085 0.01836
C 30.82253 19.13505 0.03531
C 30.73568 17.73866 -0.00669
C 29.52936 17.03769 0.0101
C 29.4931 15.6582 0.01705
C 30.6405 14.88571 -0.0405
C 30.64251 13.52355 -0.01303
C 29.40874 12.72457 -0.01461
C 29.4987 11.37472 -0.02155
C 30.68251 10.68891 -0.00944
C 33.25523 17.70841 0.00594
C 29.44181 32.66087 0.01177
C 31.99773 17.01436 -0.02474
C 33.22443 14.91821 0.00455
C 34.35742 21.28226 -0.02213
C 0.03051 19.90566 0.01951
C 1.3067 19.27038 -0.01678
C 1.35131 17.89748 0.01223
C 0.05569 17.0206 0.00648
C 0.01337 15.62324 0.02114
C 1.21242 14.89449 -0.02957
C 1.27072 13.44697 0.00343
C 34.37125 12.74527 -0.02656
C 1.15915 22.05683 0.02712
C 34.33323 11.35278 -0.02442
C 1.16803 9.28225 -0.00583
C 34.35245 8.52742 -0.02302
C 34.3877 7.15271 -0.02849
C 1.19293 6.4315 0.02931
C 1.22761 4.98375 0.00628
C 34.41018 4.32243 -0.0345
C 0.002 2.90424 -0.00931
C 1.19925 2.19579 -0.00939
C 1.15184 0.75669 -0.00468
C 1.21524 10.69634 -0.00027
C 1.11873 23.45894 0.00723
C 34.30871 24.21347 0.03076
C 0.01071 25.56228 -0.05239
C 33.21452 13.54382 -0.00644
C 31.89832 12.80444 -0.01839
C 31.90572 11.35639 0.00137
C 33.1167 10.70446 0.00199
C 33.1251 9.23512 0.04381
C 31.90399 8.5814 0.02806
C 31.90036 7.10745 0.01504
C 33.09421 6.4121 -0.00069
C 33.11834 4.99585 0.04926
C 31.88996 4.31058 -0.03838
C 31.88121 2.7703 0.00349
C 33.18817 2.18479 -0.00323
C 33.13404 0.73319 -0.00841
C 31.97149 34.06403 0.0001
C 0.01486 32.61559 -0.02927
C 1.24682 31.95481 -0.01404
C 1.23452 30.5101 0.01027
C 0.01595 29.82311 0.01831
C 0.02763 28.34297 -0.01037
C 1.19754 27.69186 -0.00439
C 1.24335 26.2446 -0.00598
C 31.92094 15.55189 0.00369
C 20.85524 2.10774 0.00364
C 26.97167 34.0647 -0.00416
C 28.19894 2.05766 0.01799
C 22.09063 7.10612 0.01126
C 23.27672 6.37502 0.01852
C 23.26723 4.97083 -0.00381
C 22.09002 4.23192 0.03046
C 22.03708 2.83565 0.0296
C 23.28426 2.10478 0.03374
C 23.27282 0.67969 -0.02845
C 22.10251 0.0035 -0.03213
C 24.4985 32.64369 0.02239
C 22.09103 8.53333 -0.01185
C 25.8296 31.95783 0.01153
C 24.59914 29.80194 -0.0055
C 24.60324 28.35359 0.01515
C 25.78974 27.60954 -0.00225
C 25.86255 26.19979 0.00071
C 24.63509 25.53661 -0.01107
C 24.65892 24.1217 -0.01586
C 25.88269 23.36179 -0.01971
C 25.84461 21.97454 -0.02118
C 24.62239 21.29727 0.00733
C 25.88887 30.54055 0.02734
C 23.25298 9.24011 -0.01662
C 23.27017 10.61586 -0.00478
C 22.08124 11.29457 0.01511
C 19.65888 33.98979 -0.02957
C 22.08909 32.67293 -0.04422
C 23.29756 31.87342 0.00654
C 23.36615 30.37992 -0.00703
C 22.09253 29.70072 -0.04076
C 22.15029 28.31837 -0.00652
C 23.42811 27.67838 0.0058
C 23.40928 26.20371 -0.00865
C 22.18969 25.46116 0.00675
C 22.19346 24.07598 -0.00311
C 23.41238 23.46413 0.00742
C 23.39565 21.95052 -0.01594
C 22.16645 21.25656 0.0106
C 22.18267 19.84856 -0.01154
C 23.43087 19.22047 -0.01721
C 23.38808 17.74628 -0.02422
C 22.10243 17.05839 0.01277
C 22.06402 15.65651 0.00096
C 23.26576 14.85926 -0.01527
C 23.35165 13.50092 0.01087
C 22.11424 12.78343 0.00199
C 24.62185 19.95285 -0.00178
C 28.26558 0.70994 0.01699
C 25.84269 19.16229 0.00768
C 24.67967 16.99618 0.03005
C 28.35192 23.37806 -0.00037
C 28.38274 22.00668 -0.0032
C 27.1251 21.16972 0.00622
C 27.18412 19.81886 -0.02815
C 28.32284 19.165 -0.00942
C 28.29902 17.73746 0.00487
C 27.11782 16.98631 0.00826
C 27.03112 15.56724 -0.00294
C 28.27716 14.92135 0.00152
C 27.09374 24.00588 -0.01654
C 28.19402 13.48581 0.01257
C 27.06233 11.40824 0.04185
C 28.2024 10.6412 0.00194
C 28.23482 9.26014 -0.00621
C 27.02263 8.50599 0.02611
C 26.99584 7.07147 0.02198
C 28.19354 6.33865 0.01094
C 28.22788 4.92441 0.00235
C 27.00814 4.2285 0.01495
C 26.97761 2.84311 0.01259
C 26.99896 12.81529 0.02316
C 27.11503 25.46539 -0.00218
C 28.28168 26.25312 -0.00802
C 28.22141 27.67262 0.00195
C 24.63984 15.67447 -0.04078
C 25.80392 14.9542 0.02117
C 25.71229 13.50288 0.02737
C 24.52534 12.78763 -0.00498
C 24.56431 11.3664 0.00135
C 25.79317 10.63148 0.03102
C 25.79524 9.13608 0.02555
C 24.5392 8.47881 0.01423
C 24.54228 7.09242 -0.00285
C 25.76404 6.36587 -0.009
C 25.73356 4.90253 -0.01199
C 24.56794 4.26541 -0.00229
C 24.57447 2.8081 -0.00938
C 25.79505 2.09841 -0.0264
C 25.75269 0.65396 -0.01154
C 24.55349 34.06972 0.00684
C 26.99776 32.66302 -0.01052
C 28.19946 31.95409 -0.01679
C 28.28334 30.50073 0.00367
C 27.02866 29.75605 0.04306
C 27.0332 28.33359 0.00996
C 25.82806 17.73096 -0.0276
C 2.50809 32.74285 0.00208
