332
Graphene
C 34.35162 34.01994 0.01295
C 18.46603 31.90057 0.03505
C 18.47037 30.54655 -0.02815
C 17.20387 29.93095 -0.04147
C 17.1635 28.49756 -0.05302
C 18.44391 27.77413 0.00213
C 18.4361 26.40979 -0.00066
C 18.51798 18.97615 -0.00289
C 17.17948 32.60379 0.01443
C 18.37817 17.65576 0.00028
C 17.13185 15.61359 0.03698
C 18.45568 14.8699 -0.00109
C 18.47555 13.3824 -0.00491
C 18.77414 9.9612 0.03338
C 18.59967 6.48632 -0.0258
C 18.35671 5.06225 -0.0331
C 17.25419 4.11451 -0.00316
C 17.16469 17.02005 -0.02213
C 14.78461 33.9875 0.00979
C 16.04677 0.5846 -0.00481
C 15.86534 1.98101 0.00889
C 13.429 30.60015 -0.03682
C 12.23287 29.83184 0.01965
C 12.20827 28.36213 0.02058
C 13.42672 27.90593 -0.01957
C 12.675 17.61183 -0.0108
C 13.72724 0.77802 -0.00368
C 12.39519 0.24662 -0.02696
C 14.77542 32.60318 -0.00114
C 15.978 31.89014 0.00228
C 15.94026 30.45409 0.00798
C 14.74069 29.7725 0.00422
C 14.69303 28.29451 0.0351
C 15.98983 27.74957 -0.03113
C 15.85436 17.70509 0.02098
C 14.7024 16.82334 0.01848
C 14.85468 15.39567 -0.00619
C 15.90378 14.75945 -0.02162
C 17.11879 2.78809 0.02188
C 18.37089 2.05084 -0.01979
C 18.44238 0.70649 0.02691
C 17.26158 34.06016 -0.01581
C 21.01027 10.74871 0.00675
C 21.04577 9.30894 -0.00311
C 19.61155 8.97226 0.00742
C 19.66558 7.3291 -0.01594
C 21.07836 6.43632 0.0106
C 20.85168 5.03938 -0.01154
C 19.5563 4.3549 -0.01721
C 19.56311 2.82369 -0.02422
C 20.78464 2.09784 0.01277
C 20.93303 0.72175 0.00096
C 19.6616 34.04815 -0.01527
C 22.16062 32.66267 0.01087
C 23.3694 31.86667 0.00199
C 23.37639 30.40319 0.01511
C 22.13819 29.8556 -0.00478
C 22.06931 28.36461 -0.01662
C 23.3196 27.69095 -0.01185
C 19.76038 11.15244 -0.00865
C 13.5575 32.01331 0.00052
C 19.56501 12.6351 0.0058
C 20.90733 14.81189 -0.04076
C 19.65194 32.56936 0.01452
C 20.92575 31.98524 0.04892
C 20.91286 30.59786 -0.00111
C 19.70043 29.83351 -0.03557
C 19.68555 28.42713 0.03754
C 20.81919 27.71306 0.01739
C 20.72265 26.31488 0.00755
C 19.53866 25.55642 -0.0054
C 19.69736 24.08468 0.00667
C 20.84203 23.45964 0.00143
C 20.87348 21.9867 -0.017
C 19.68426 21.30724 0.00364
C 19.49521 19.97834 -0.00831
C 20.75274 19.26728 -0.02957
C 20.79066 17.81307 -0.04422
C 19.57694 16.97781 0.00654
C 19.68901 15.56328 -0.00703
C 20.9323 13.43665 -0.00652
C 23.26301 26.25636 0.01126
C 12.27289 32.8455 0.00374
C 11.03836 0.78509 -0.01952
C 2.39113 8.51429 -0.01118
C 2.4965 7.04923 -0.014
C 3.66916 6.38711 0.02147
C 3.7514 4.94636 0.00373
C 2.52178 4.23688 -0.00191
C 2.55537 2.7936 0.00438
C 3.78193 2.10191 0.01291
C 3.58947 9.36015 -0.00131
C 3.65396 0.7645 0.00093
C 4.9204 32.65061 -0.01634
C 6.15559 32.02204 -0.00334
C 6.14234 30.62966 0.02339
C 4.96449 29.89604 0.01641
C 4.88185 28.53742 -0.00719
C 6.1158 27.79096 0.01364
C 6.11366 26.37474 -0.01062
C 2.50217 0.0037 0.00057
C 3.6476 10.59425 -0.02896
C 2.36157 11.41201 -0.01004
C 2.33987 12.81188 0.00488
C 3.70706 30.60917 0.00054
C 2.49617 29.98297 0.03007
C 2.48317 28.49321 -0.00095
C 3.72619 27.82939 0.01572
C 3.67075 26.33876 -0.04848
C 2.46324 25.56407 -0.00892
C 2.47811 24.20596 -0.01362
C 3.75535 23.48642 -0.0008
C 3.7565 22.05085 0.0288
C 2.50877 21.36407 0.00393
C 2.44743 19.93208 0.00895
C 3.70623 19.08589 0.00685
C 3.72052 17.74443 0.02888
C 2.39199 17.02225 -0.00482
C 2.35304 15.65024 -0.01384
C 3.50027 14.89488 0.03693
C 3.63589 13.43766 0.01745
C 4.8371 25.69935 -0.00033
C 4.89933 24.22587 0.03589
C 6.19959 23.48387 -0.02759
C 6.09754 22.25031 0.0402
C 7.40422 19.70697 -0.00925
C 8.43508 18.97328 0.01877
C 8.65675 17.61658 0.01363
C 7.33839 16.80059 -0.02162
C 7.08908 15.48492 0.00415
C 7.80316 2.30264 -0.0014
C 8.46762 0.90967 0.02162
C 7.38489 0.02315 0.0076
C 9.8164 32.80329 0.01241
C 11.06225 32.17885 -0.01454
C 11.04574 30.66737 0.01945
C 9.78351 29.88065 0.01416
C 9.78415 28.45954 0.03542
C 10.95662 27.58806 0.02299
C 10.59099 26.23224 0.00244
C 11.45291 17.0202 -0.01717
C 10.12867 17.35537 0.05265
C 7.49611 25.74284 0.00444
C 9.77326 0.28101 -0.02813
C 8.66981 26.31691 -0.01789
C 7.3563 28.45499 -0.02971
C 4.97161 21.34854 0.00572
C 4.85532 19.92843 0.03592
C 6.01509 19.09376 0.00406
C 6.18686 17.69152 0.00943
C 4.90731 17.03185 0.02841
C 4.77009 15.53147 -0.01111
C 6.10872 14.80966 -0.01275
C 4.80992 12.64686 0.00985
C 4.79862 4.09689 -0.02245
C 5.10265 2.78225 -0.00428
C 6.47493 2.09048 0.03101
C 6.14425 0.70559 -0.01536
C 4.91426 0.04243 -0.02689
C 7.36682 32.6525 -0.01046
C 8.64344 32.05364 -0.00891
C 8.63805 30.64452 0.02819
C 7.39216 29.87709 0.00165
C 8.52597 27.80723 0.02894
C 22.04255 25.60107 0.01852
C 22.0989 24.22037 -0.00381
C 23.36369 23.48648 0.03046
C 33.20008 27.72746 0.00026
C 33.14103 26.36057 0.00682
C 31.9589 25.61996 -0.01779
C 32.00687 24.21697 0.03794
C 33.1236 23.50064 0.01927
C 33.186 22.11449 0.01574
C 31.97372 21.36792 -0.02383
C 31.94232 28.40305 0.0544
C 31.98888 19.97339 -0.01429
C 33.12919 17.77828 0.00594
C 31.89629 17.09141 -0.02474
C 31.93081 15.68492 0.00369
C 33.13559 14.99843 0.00455
C 33.09107 13.52261 -0.00644
C 31.93104 12.77733 -0.01839
C 31.96593 11.35632 0.00137
C 33.19665 19.20286 -0.0136
C 31.97883 29.8942 -0.02142
C 33.13479 30.55158 0.01428
C 33.10733 31.99974 -0.01694
C 30.64778 17.82741 0.01705
C 29.46874 17.02024 -0.0405
C 29.45378 15.62774 -0.01303
C 30.67413 14.91263 -0.01461
C 30.57716 13.4853 -0.02155
C 29.35493 12.63284 -0.00944
C 29.519 11.23463 -0.03735
C 30.74279 10.50267 -0.00971
C 30.78774 9.12378 0.01518
C 30.87124 6.39874 0.01908
C 30.67636 4.99023 0.07705
C 29.47322 4.20793 0.0103
C 29.55532 2.75928 0.02108
C 30.75875 2.13213 0.00716
C 30.66829 0.63549 0.00307
C 29.44618 33.99605 0.00346
C 31.93129 32.70695 0.01713
C 33.1426 10.65523 0.00199
C 33.22969 9.2043 0.04381
C 32.048 8.49024 0.02806
C 32.07806 7.11822 0.01504
C 1.16078 17.76846 0.01223
C 34.3505 17.04545 0.00648
C 34.34186 15.66431 0.02114
C 1.05858 14.94601 -0.02957
C 1.11826 13.49826 0.00343
C 34.2974 12.84039 -0.02656
C 34.35879 11.42827 -0.02442
C 1.13204 10.6668 -0.00027
C 1.16918 9.27162 -0.00583
C 34.40531 8.50712 -0.02302
C 0.0115 7.05368 -0.02849
C 1.2956 6.33445 0.02931
C 1.25928 4.95556 0.00628
C 0.01363 4.23389 -0.0345
C 34.42228 2.78049 -0.00931
C 1.25846 2.11978 -0.00939
C 1.14969 0.67192 -0.00468
C 1.19558 19.23502 -0.01678
C 30.73072 19.25426 0.0101
C 0.01952 19.91233 0.01951
C 1.30184 22.09447 0.02712
C 33.18541 6.38072 -0.00069
C 33.19206 4.908 0.04926
C 31.84837 4.24293 -0.03838
C 31.89414 2.86785 0.00349
C 33.16292 2.11508 -0.00323
C 33.12585 0.67922 -0.00841
C 31.90949 34.05708 0.0001
C 34.39104 32.60929 -0.02927
C 1.23213 31.96695 -0.01404
C 1.21982 30.61909 0.01027
C 34.35984 29.89235 0.01831
C 34.39978 28.49302 -0.01037
C 1.21492 27.85411 -0.00439
C 1.2889 26.3717 -0.00598
C 0.03328 25.62754 -0.05239
C 0.04277 24.23975 0.03076
C 1.29155 23.5011 0.00723
C 34.41358 21.38287 -0.02213
C 29.46938 19.90995 -0.00669
C 29.49103 21.32538 0.03531
C 30.76061 22.12805 0.01836
C 25.77281 30.48312 0.02117
C 24.55349 29.78088 0.02737
C 24.53962 28.42534 -0.00498
C 25.82104 27.64445 0.00135
C 25.74898 26.22877 0.03102
C 24.55104 25.5877 0.02555
C 24.56217 24.1555 0.01423
C 25.72628 23.47675 -0.00285
C 25.78238 21.98528 -0.009
C 24.63046 21.26066 -0.01199
C 24.58574 19.81559 -0.00229
C 25.78129 19.15203 -0.00938
C 25.81095 17.78829 -0.0264
C 24.57343 17.0381 -0.01154
C 24.57541 15.60967 0.00684
C 25.79102 14.86243 -0.01052
C 25.74543 13.43608 -0.01679
C 25.84415 31.94818 -0.04078
C 24.55569 12.74373 0.00367
C 24.63604 32.63158 0.03005
C 23.37628 0.68016 0.00768
C 23.42055 21.98761 0.0296
C 22.16551 21.25716 0.03374
C 22.03977 19.87774 -0.02845
C 23.30174 19.17595 -0.03213
C 23.39901 17.75655 0.02239
C 22.05851 17.08565 0.01153
C 22.19661 15.57878 0.02734
C 23.4167 14.79265 -0.0055
C 23.35905 13.40382 0.01515
C 22.13182 12.74672 -0.00225
C 22.25183 11.41402 0.00071
C 23.35818 10.54581 -0.01107
C 22.3304 8.68115 -0.01586
C 22.23123 7.27164 -0.01971
C 21.96938 4.17682 -0.02118
C 22.04938 2.7622 0.00733
C 23.33857 2.0404 -0.00178
C 22.13291 34.01996 -0.0276
C 3.65556 32.04922 -0.00494
C 24.5864 11.27266 0.04306
C 25.85385 2.20515 0.00195
C 26.91976 12.77479 0.01495
C 26.99625 11.30899 0.01259
C 28.05492 10.58671 0.01799
C 27.16516 2.82455 0.01699
C 28.26524 2.06602 -0.00416
C 28.26035 0.62283 0.01177
C 27.03291 34.04215 0.04266
C 29.51061 32.59221 0.01324
C 30.69097 31.93264 0.0014
C 30.6945 30.52906 0.00924
C 29.46552 29.83247 0.02326
C 29.4557 28.44468 0.00261
C 30.74399 27.69013 0.03265
C 30.76942 26.32374 -0.02049
C 29.48336 25.61479 -0.01854
C 29.49133 24.19722 -0.01415
C 30.76216 23.52505 -0.03039
C 28.13578 13.39173 0.00235
C 24.54121 2.80436 0.00996
C 28.16289 14.87951 0.01094
C 26.98855 17.10399 0.02611
C 25.8028 0.76518 -0.00802
C 24.63285 34.01167 -0.00218
C 27.02523 32.59296 -0.01654
C 28.24746 31.9154 -0.00037
C 28.2311 30.42693 -0.0032
C 27.03356 29.71064 0.00622
C 27.00634 28.28449 -0.02815
C 28.25569 27.57727 -0.00942
C 28.28534 26.19948 0.00487
C 27.01015 25.47487 0.00826
C 27.04029 24.10735 -0.00294
C 28.27698 23.49391 0.00152
C 28.23476 22.03907 0.01257
C 27.02161 21.3296 0.02316
C 27.04869 19.90845 0.04185
C 28.26056 19.20063 0.00194
C 28.26363 17.78189 -0.00621
C 26.95105 15.62383 0.02198
C 2.45921 32.72121 -0.00562
