432
Graphene
C 0.01104 0.00026 0.01295
C 12.34018 21.34035 0.01364
C 12.23471 19.93146 -0.01062
C 13.49129 19.22611 -0.00033
C 13.55331 17.7724 0.03589
C 12.35904 17.10708 -0.02759
C 12.32085 15.67197 0.0402
C 13.4637 14.87618 0.00572
C 13.46029 13.39102 0.03592
C 12.23703 12.65682 0.00406
C 12.29448 11.26691 0.00943
C 13.53516 10.72538 0.02841
C 12.31139 2.72955 -0.01111
C 13.56493 2.16229 -0.01275
C 13.56404 0.7102 0.00985
C 12.27496 0.10135 -0.02245
C 14.81465 32.64374 -0.00428
C 15.96857 31.84495 0.03101
C 15.95215 30.46901 -0.01536
C 14.77966 29.71629 -0.02689
C 14.69002 28.30276 -0.01046
C 15.93497 27.69431 -0.00891
C 15.97442 26.25632 0.02819
C 14.75076 25.61486 0.00165
C 13.44746 22.11572 -0.00719
C 14.77908 24.22021 -0.02971
C 13.55465 23.51163 0.01641
C 12.28467 25.59835 -0.00334
C 11.0953 17.78936 0.0288
C 9.83248 17.05299 0.00393
C 9.84824 15.63833 0.00895
C 11.11497 14.96056 0.00685
C 11.06 13.58924 0.02888
C 9.79697 12.84254 -0.00482
C 9.84304 11.45893 -0.01384
C 11.07869 10.53757 0.03693
C 11.09682 9.2306 0.01745
C 9.93947 8.50358 0.00488
C 9.90636 7.08841 -0.01004
C 9.78239 4.21116 -0.02896
C 9.87796 2.8708 -0.00131
C 11.08406 2.11901 -0.01118
C 11.0092 0.68636 -0.014
C 9.81668 34.07642 0.02147
C 12.36936 32.71891 0.00373
C 13.57522 31.9637 -0.00191
C 13.53613 30.56298 0.00438
C 12.28478 29.94001 0.01291
C 12.27097 28.4545 0.00093
C 13.48956 27.65171 0.00057
C 13.52744 26.23865 -0.01634
C 12.31796 24.20247 0.02339
C 11.07168 19.16794 -0.0008
C 15.9578 23.47808 0.02894
C 14.71443 21.36493 0.00444
C 18.44016 19.17397 -0.02696
C 18.50437 17.78426 -0.00114
C 17.24152 17.01436 0.00228
C 17.23594 15.62729 0.00798
C 18.48455 14.86214 0.00422
C 18.44422 13.44208 0.0351
C 17.16215 12.77146 -0.03113
C 17.17533 11.28765 0.02098
C 18.45896 10.56354 0.01848
C 18.52106 9.1594 -0.00619
C 18.43089 6.46127 -0.02162
C 18.30945 5.01372 0.00889
C 17.14261 4.2656 -0.00481
C 17.12762 2.95362 0.00979
C 18.36037 2.16755 0.01443
C 18.41186 0.75946 0.03505
C 17.25331 34.01416 -0.02815
C 19.66843 32.68532 -0.04147
C 20.90575 31.96473 -0.05302
C 20.93648 30.59267 0.00213
C 19.7343 29.84391 -0.00066
C 19.71137 28.38926 -0.00289
C 20.91087 27.63547 0.00028
C 17.17321 19.85183 -0.00368
C 15.97129 22.00244 -0.01789
C 17.2396 21.32172 -0.0108
C 18.39912 23.45879 0.02058
C 14.69621 19.92226 -0.00925
C 15.92483 19.18775 0.01877
C 15.9582 17.729 0.01363
C 14.70565 17.04393 -0.02162
C 14.75628 15.59977 0.00415
C 15.99877 14.89383 -0.0014
C 15.92892 13.44809 0.02162
C 14.70932 12.74085 0.0076
C 14.75138 11.23529 0.01241
C 16.02391 10.60301 -0.01454
C 14.76304 2.79131 0.01945
C 15.97302 2.11747 0.01416
C 16.07287 0.72815 0.03542
C 14.75168 0.05524 0.02299
C 17.21924 32.58319 0.00244
C 18.45685 31.94053 -0.01717
C 18.41836 30.5473 0.05265
C 17.22338 29.85188 -0.01952
C 17.23329 28.36281 -0.02813
C 18.43678 27.70839 0.00374
C 18.45181 26.30901 0.00052
C 17.16865 25.52588 -0.03682
C 17.19193 24.14324 0.01965
C 18.43371 22.05003 -0.01957
C 20.9682 26.21459 -0.02213
C 9.85353 19.89553 -0.01362
C 11.11256 22.02464 -0.04848
C 3.71281 2.16833 -0.02805
C 3.64 0.78086 0.00081
C 2.47516 0.06881 0.00245
C 4.88852 32.64365 0.02728
C 6.12059 31.95147 -0.00039
C 6.11982 30.55543 0.0064
C 4.94633 29.77139 0.00211
C 4.97139 28.37894 -0.00449
C 6.15188 27.65779 -0.01979
C 6.23843 26.20118 0.02784
C 4.95567 25.54806 -0.01977
C 4.85088 24.16059 -0.00561
C 6.10963 23.54562 0.00208
C 6.15698 22.0695 0.01707
C 4.94724 21.27505 0.02769
C 4.93835 19.9168 -0.03291
C 6.19814 19.1318 -0.04999
C 6.10458 17.71328 0.04505
C 4.93302 16.94732 0.03284
C 4.78362 15.53949 -0.04307
C 6.08863 15.01652 0.03189
C 6.07135 13.56956 0.00031
C 4.9001 12.74877 -0.003
C 2.50412 2.92544 -0.01386
C 4.93663 11.28166 0.01402
C 2.52281 4.28441 -0.0059
C 3.67045 6.40666 -0.02375
C 3.67583 30.542 -0.04306
C 2.44529 29.80391 -0.03672
C 2.43167 28.31526 0.01913
C 3.68776 27.69285 0.00267
C 3.72495 26.24774 0.00787
C 2.48373 25.56571 0.02426
C 2.43285 24.16099 0.01218
C 3.65076 23.48532 -0.01471
C 3.68848 22.03512 -0.02827
C 2.49659 21.28655 0.01078
C 2.55156 19.86386 -0.00112
C 3.7436 19.16833 0.03345
C 3.66417 17.61047 0.00748
C 2.40101 16.99779 0.00662
C 2.37842 15.57004 -0.0154
C 3.56209 14.83937 -0.01299
C 3.65514 13.45989 -0.00407
C 2.44222 12.79326 0.01138
C 2.43606 11.3918 0.03278
C 3.72318 10.6128 -0.00177
C 3.6545 9.21165 0.04421
C 2.4095 8.5528 0.00088
C 2.45578 7.12372 0.00828
C 3.69013 5.01342 0.00558
C 9.82973 21.31911 -0.00892
C 6.1873 10.69389 0.02379
C 4.88441 8.54193 0.00643
C 7.31445 12.85199 0.01305
C 7.42173 11.40441 -0.00077
C 8.62737 10.71191 0.03368
C 8.59896 9.32861 -0.02929
C 7.39079 8.61455 -0.00966
C 7.29848 7.22355 -0.03337
C 8.58446 6.49032 0.01227
C 8.61689 5.00414 0.00873
C 7.3394 4.27162 -0.00049
C 7.40659 2.88008 0.00848
C 8.61701 2.14914 -0.01303
C 8.62868 0.69187 -0.01378
C 7.34293 0.07186 0.02635
C 9.82879 32.7037 0.0127
C 11.09907 32.02213 0.01396
C 10.97528 30.56918 0.01849
C 9.75795 29.84176 -0.01142
C 9.85295 28.39275 -0.00562
C 11.08912 27.72034 -0.00494
C 11.01517 26.30002 0.00054
C 9.79975 25.63144 0.03007
C 9.90235 24.20896 -0.00095
C 11.13278 23.40511 0.01572
C 8.58428 13.52517 0.0276
C 6.09772 9.25091 0.00907
C 8.61472 14.95001 0.00988
C 7.35221 17.0596 0.01087
C 4.85659 7.13314 -0.01509
C 6.04668 6.43311 0.03267
C 6.12326 4.92912 0.02374
C 4.88401 4.30006 0.00402
C 4.88408 2.8613 0.0073
C 6.13914 2.17249 0.0174
C 6.1386 0.71544 0.03828
C 4.87134 0.01299 0.01226
C 7.37988 32.67991 -0.00279
C 8.61186 32.00327 0.01996
C 8.6193 30.60176 -0.03996
C 7.33701 29.83352 0.01465
C 7.36112 28.41383 -0.00074
C 8.57395 27.71733 -0.00518
C 8.53673 26.33038 0.0086
C 7.45394 25.55299 -0.00643
C 7.43554 24.08987 0.017
C 8.68585 23.422 -0.03113
C 8.61216 22.02171 -0.02566
C 7.38008 21.33396 -0.00094
C 7.42672 19.90213 0.02322
C 8.58628 19.18658 -0.00725
C 8.60221 17.73518 -0.05697
C 7.33057 15.69352 -0.01343
C 19.72071 25.56251 0.03698
C 19.69638 24.07049 -0.00109
C 20.94613 23.39567 -0.00491
C 30.76936 13.52548 -0.01303
C 29.51944 12.80724 -0.01461
C 29.5014 11.3305 -0.02155
C 30.70007 10.65322 -0.00944
C 30.75994 9.12992 -0.03735
C 29.4701 8.49874 -0.00971
C 29.44408 7.11004 0.01518
C 30.69004 6.37958 0.01908
C 30.6906 4.98812 0.07705
C 29.50768 4.26132 0.0103
C 29.51029 2.72792 0.02108
C 30.78599 2.14715 0.00716
C 30.75062 0.74571 0.00307
C 29.57783 34.06753 0.00346
C 31.97064 32.56676 0.01713
C 33.22644 31.93004 -0.01694
C 33.21377 30.49665 0.01428
C 31.92535 29.80912 -0.02142
C 31.96421 28.37105 0.0544
C 33.22841 27.70117 0.00026
C 33.21038 26.30294 0.00682
C 31.97855 25.65252 -0.01779
C 31.94571 24.1667 0.03794
C 30.74207 14.94242 -0.0405
C 33.13459 23.47537 0.01927
C 29.51996 15.61001 0.01705
C 30.70023 17.72893 -0.00669
C 27.05735 8.55498 0.02611
C 27.0879 7.11321 0.02198
C 28.24188 6.36373 0.01094
C 28.26285 4.97683 0.00235
C 27.08305 4.30666 0.01495
C 27.09246 2.87879 0.01259
C 28.2373 2.03847 0.01799
C 28.25495 0.62618 0.01699
C 27.00803 34.03656 -0.00416
C 29.59713 32.65079 0.01177
C 30.66259 31.88611 0.04266
C 30.6693 30.48013 0.01324
C 29.47918 29.76755 0.0014
C 29.5193 28.38219 0.00924
C 30.72536 27.67395 0.02326
C 30.7437 26.29889 0.00261
C 29.49741 25.60302 0.03265
C 29.52518 24.18539 -0.02049
C 30.74495 23.40024 -0.01854
C 30.71754 21.98035 -0.01415
C 29.44513 21.29061 -0.03039
C 29.53139 19.90598 0.01836
C 30.79802 19.13637 0.03531
C 29.50528 17.01255 0.0101
C 28.25489 9.27279 -0.00621
C 33.2074 22.05391 0.01574
C 31.97987 19.91668 -0.01429
C 34.39193 24.15405 0.03076
C 1.18883 23.45511 0.00723
C 1.25424 22.05291 0.02712
C 0.03357 21.32546 -0.02213
C 0.05175 19.88197 0.01951
C 1.22578 19.11907 -0.01678
C 1.20002 17.73829 0.01223
C 34.37149 17.09714 0.00648
C 34.40384 15.65561 0.02114
C 1.18647 14.85446 -0.02957
C 1.2117 13.41439 0.00343
C 34.36922 12.78243 -0.02656
C 34.405 11.34515 -0.02442
C 1.26066 10.63749 -0.00027
C 1.12851 9.19684 -0.00583
C 34.34752 8.50314 -0.02302
C 0.01204 7.08299 -0.02849
C 1.22562 6.36579 0.02931
C 1.21076 4.95789 0.00628
C 0.03462 4.19498 -0.0345
C 0.0388 2.76777 -0.00931
C 1.29941 2.14324 -0.00939
C 1.21084 0.72597 -0.00468
C 34.42186 25.50717 -0.05239
C 31.92879 21.31092 -0.02383
C 1.18665 26.23217 -0.00598
C 0.01561 28.37258 -0.01037
C 33.24836 19.17885 -0.0136
C 33.17222 17.77942 0.00594
C 31.9009 17.0095 -0.02474
C 31.96013 15.62985 0.00369
C 33.19488 14.86681 0.00455
C 33.14729 13.46942 -0.00644
C 32.00619 12.74755 -0.01839
C 31.94188 11.38283 0.00137
C 33.10829 10.62609 0.00199
C 33.13488 9.17496 0.04381
C 31.9437 8.47571 0.02806
C 31.99372 7.02864 0.01504
C 33.248 6.32187 -0.00069
C 33.27923 4.8903 0.04926
C 32.00455 4.2736 -0.03838
C 31.98853 2.81278 0.00349
C 33.23253 2.05189 -0.00323
C 33.16923 0.65699 -0.00841
C 31.92077 34.04832 0.0001
C 0.09963 32.60655 -0.02927
C 1.35849 31.89318 -0.01404
C 1.21626 30.48409 0.01027
C 0.0069 29.79927 0.01831
C 1.21461 27.69048 -0.00439
C 28.30243 10.65876 0.00194
C 27.07128 11.34731 0.04185
C 27.0139 12.76534 0.02316
C 23.38106 27.71654 0.0058
C 23.45497 26.28997 -0.00865
C 22.22618 25.56292 0.00675
C 22.20063 24.16316 -0.00311
C 23.38323 23.45103 0.00742
C 23.3709 21.94949 -0.01594
C 22.08783 21.32334 0.0106
C 22.1242 19.89925 -0.01154
C 23.32883 19.22573 -0.01721
C 23.33109 17.76691 -0.02422
C 22.08067 17.06218 0.01277
C 22.09515 15.65327 0.00096
C 23.33952 14.90013 -0.01527
C 23.38529 13.53494 0.01087
C 22.10974 12.85148 0.00199
C 22.12673 11.33787 0.01511
C 23.37525 10.72689 -0.00478
C 23.39825 9.2598 -0.01662
C 22.22195 8.45885 -0.01185
C 22.08453 7.06166 0.01126
C 23.38934 6.39168 0.01852
C 23.43682 4.98796 -0.00381
C 22.27125 4.28221 0.03046
C 22.10911 28.40721 -0.00652
C 22.16336 2.83909 0.0296
C 22.14355 29.84572 -0.04076
C 23.29038 31.95147 0.00654
C 20.84176 21.98426 0.03338
C 19.57379 21.28619 -0.0258
C 19.64645 19.8837 -0.0331
C 20.92679 19.11605 -0.00316
C 20.84015 17.72574 0.02188
C 19.62646 17.05146 -0.01979
C 19.60724 15.61224 0.02691
C 20.80606 14.90568 -0.01581
C 20.85881 13.51334 0.01452
C 19.67819 12.76691 0.04892
C 19.66708 11.29967 -0.00111
C 20.90585 10.61765 -0.03557
C 20.93736 9.11343 0.03754
C 19.70318 8.48171 0.01739
C 19.65438 7.06244 0.00755
C 20.87887 6.38926 -0.0054
C 21.04356 5.018 0.00667
C 19.69781 4.28836 0.00143
C 19.62988 2.81014 -0.017
C 20.90852 2.09985 0.00364
C 20.88436 0.7455 -0.00831
C 19.62715 0.05579 -0.02957
C 22.09865 32.63619 -0.04422
C 23.39628 30.61348 -0.00703
C 23.41388 2.15643 0.03374
C 23.3178 0.72144 -0.02845
C 22.09888 34.05781 -0.03213
C 24.58734 2.87408 -0.00938
C 25.8638 2.16407 -0.0264
C 25.76364 0.69188 -0.01154
C 24.55704 0.01069 0.00684
C 27.0701 32.62365 -0.01052
C 28.25832 31.93836 -0.01679
C 28.314 30.50511 0.00367
C 27.03146 29.81112 0.04306
C 27.07378 28.46132 0.00996
C 28.29436 27.72587 0.00195
C 28.24819 26.28484 -0.00802
C 27.03854 25.53197 -0.00218
C 27.06547 24.165 -0.01654
C 28.28419 23.48271 -0.00037
C 28.24443 21.9848 -0.0032
C 27.04786 21.27201 0.00622
C 27.09124 19.89816 -0.02815
C 28.3023 19.20529 -0.00942
C 28.2971 17.7802 0.00487
C 27.06682 17.0851 0.00826
C 27.06468 15.59714 -0.00294
C 28.28426 14.84566 0.00152
C 28.19987 13.41038 0.01257
C 24.67881 4.24326 -0.00229
C 25.8066 4.98679 -0.01199
C 25.7948 6.40445 -0.009
C 24.55317 7.10631 -0.00285
C 24.52888 32.63465 0.02239
C 25.7827 31.89329 0.01153
C 25.7922 30.45516 0.02734
C 24.52828 29.81586 -0.0055
C 24.57776 28.41911 0.01515
C 25.83356 27.7618 -0.00225
C 25.83865 26.18949 0.00071
C 24.62767 25.57501 -0.01107
C 24.58253 24.19346 -0.01586
C 25.81049 23.45243 -0.01971
C 25.8214 22.06204 -0.02118
C 3.70382 31.90285 -0.00012
C 24.65288 21.22692 0.00733
C 25.85897 19.15765 0.00768
C 25.79892 17.73923 -0.0276
C 24.57082 17.02357 0.03005
C 24.61198 15.65799 -0.04078
C 25.82983 14.92327 0.02117
C 25.82185 13.5277 0.02737
C 24.58256 12.79383 -0.00498
C 24.57731 11.41982 0.00135
C 25.78164 10.62014 0.03102
C 25.75394 9.21799 0.02555
C 24.51312 8.4849 0.01423
C 24.57835 19.8833 -0.00178
C 2.52711 32.74258 -0.00198
