355
Graphene
C 34.356 0.1198 0.01295
C 10.99019 2.18492 -0.00368
C 11.01893 0.72574 -0.02696
C 9.81441 0.04021 -0.00114
C 12.10856 32.60631 0.00228
C 13.36027 31.84468 0.00798
C 12.33443 19.92052 0.00422
C 13.66459 19.41612 0.0351
C 13.55016 17.82554 -0.03113
C 9.76765 2.91718 -0.0108
C 12.30505 17.16321 0.02098
C 13.56884 14.88113 -0.00619
C 13.51392 13.45563 -0.02162
C 12.28844 12.70906 0.00889
C 12.32326 11.27558 -0.00481
C 13.53501 10.54268 0.00979
C 13.53664 9.18752 0.01443
C 12.23391 8.51953 0.03505
C 12.29634 7.12903 -0.02815
C 12.37312 15.68783 0.01848
C 13.56413 6.34597 -0.04147
C 9.75267 4.32581 -0.01957
C 10.9634 6.43343 0.01965
C 8.51495 0.7366 0.00415
C 7.28229 0.03416 -0.0014
C 9.68995 32.78308 0.02162
C 10.83534 32.0107 0.0076
C 9.74715 21.31002 0.01241
C 9.87332 19.84757 -0.01454
C 11.13468 19.25274 0.01945
C 11.07864 17.82658 0.01416
C 11.01542 4.95809 0.02058
C 9.88091 17.00233 0.03542
C 11.17375 14.97096 0.00244
C 11.15917 13.46752 -0.01717
C 9.87232 12.83631 0.05265
C 9.81802 11.3513 -0.01952
C 11.03379 10.64638 -0.02813
C 10.97132 9.18571 0.00374
C 9.7212 8.5769 0.00052
C 9.76868 7.16708 -0.03682
C 9.87173 15.66539 0.02299
C 13.43937 4.97763 -0.05302
C 12.18839 4.22598 0.00213
C 12.15316 2.82082 -0.00066
C 15.9766 2.20169 0.00143
C 15.93252 0.78411 -0.017
C 14.70583 34.06681 0.00364
C 17.24092 32.67746 -0.00831
C 18.41076 31.94649 -0.02957
C 18.32083 30.52677 -0.04422
C 17.06604 29.86791 0.00654
C 18.42333 27.47777 -0.00703
C 14.65843 2.82681 0.00667
C 18.46355 26.31557 -0.04076
C 18.22288 21.96699 0.0058
C 17.11801 21.1107 -0.00865
C 17.322 19.7894 0.00675
C 18.55856 19.16824 -0.00311
C 18.55518 17.77976 0.00742
C 17.31792 16.97687 -0.01594
C 17.28945 15.54988 0.0106
C 18.52224 14.84681 -0.01154
C 18.35049 23.34415 -0.00652
C 14.65284 4.22687 -0.0054
C 15.96121 4.90635 0.00755
C 16.00514 6.34919 0.01739
C 13.44825 2.14242 -0.00289
C 13.51735 0.72901 0.00028
C 12.22231 0.05526 -0.02213
C 14.65087 32.67479 0.03698
C 15.90681 32.00869 -0.00109
C 16.109 30.61634 -0.00491
C 14.95578 19.93313 0.03338
C 16.08222 19.04953 -0.0258
C 16.04415 17.62113 -0.0331
C 14.76505 17.04968 -0.00316
C 14.74057 15.61504 0.02188
C 15.99418 14.89008 -0.01979
C 15.99659 13.49506 0.02691
C 14.77453 12.75695 -0.01581
C 14.78128 11.34327 0.01452
C 15.99946 10.60537 0.04892
C 15.99584 9.18824 -0.00111
C 14.73764 8.44364 -0.03557
C 14.7521 7.10306 0.03754
C 8.48399 2.16413 -0.02162
C 18.48442 13.46972 -0.01721
C 7.21018 2.81025 0.01363
C 8.432 5.09512 -0.00925
C 2.37093 7.24925 -0.00494
C 3.55892 6.45786 0.00054
C 3.48197 5.01923 0.03007
C 2.15909 4.42059 -0.00095
C 2.17224 3.04254 0.01572
C 3.50433 2.21268 -0.04848
C 3.58826 0.85695 -0.00892
C 2.30422 0.13403 -0.01362
C 2.36857 8.60144 -0.00562
C 4.85539 32.71344 -0.0008
C 6.176 30.63178 0.00393
C 4.96023 29.86404 0.00895
C 4.93607 28.48922 0.00685
C 6.19642 27.82759 0.02888
C 6.14141 26.39128 -0.00482
C 4.83564 25.57514 -0.01384
C 4.86622 24.25362 0.03693
C 6.11378 23.50254 0.01745
C 6.0761 31.9683 0.0288
C 6.08756 22.11352 0.00488
C 3.67263 9.23504 -0.01142
C 2.37453 11.35107 0.01396
C 3.6603 30.57491 0.01087
C 2.44768 29.86393 -0.01343
C 2.46462 28.49551 0.00988
C 3.62231 27.79485 0.0276
C 3.61336 26.31496 0.01305
C 2.49595 25.55515 -0.00077
C 2.45814 24.12509 0.03368
C 3.67001 23.45841 -0.02929
C 3.67802 10.72553 0.01849
C 3.6055 22.0239 -0.00966
C 2.42173 19.88649 0.01227
C 3.71029 19.2054 0.00873
C 3.6711 17.77852 -0.00049
C 2.3904 17.1049 0.00848
C 2.424 15.68783 -0.01303
C 3.68016 15.00224 -0.01378
C 3.70297 13.4912 0.02635
C 2.45088 12.7704 0.0127
C 2.42359 21.29311 -0.03337
C 4.81605 21.34602 -0.01004
C 4.91517 19.87525 -0.02896
C 6.15392 19.19929 -0.00131
C 7.30741 25.53573 0.00943
C 7.27605 24.26734 0.02841
C 8.68958 22.00758 -0.01111
C 7.41426 21.37048 -0.01275
C 7.36381 19.92754 0.00985
C 8.584 19.18144 -0.02245
C 8.63811 17.73834 -0.00428
C 7.39065 17.10378 0.03101
C 7.39106 28.56908 0.00406
C 7.39406 15.62774 -0.01536
C 8.64698 13.50548 -0.01046
C 7.38941 12.77358 -0.00891
C 7.31611 11.35732 0.02819
C 8.5575 10.66047 0.00165
C 8.50812 9.29782 -0.02971
C 7.27687 8.50862 0.02894
C 7.28134 7.16695 -0.01789
C 8.51888 6.49608 0.00444
C 8.57453 14.87463 -0.02689
C 7.49791 29.92607 0.03592
C 8.68633 30.65261 0.00572
C 8.46182 32.08141 0.0402
C 6.2143 17.77672 -0.01118
C 4.9344 17.10496 -0.014
C 4.90703 15.68409 0.02147
C 6.20371 14.95082 0.00373
C 6.15703 13.52114 -0.00191
C 4.93485 12.82366 0.00438
C 4.854 11.40299 0.01291
C 6.19416 10.68651 0.00093
C 6.10552 9.24745 0.00057
C 4.86397 8.50563 -0.01634
C 4.82812 7.08613 -0.00334
C 6.06639 6.40478 0.02339
C 6.00749 4.97154 0.01641
C 4.78178 4.30231 -0.00719
C 4.75064 2.89094 0.01364
C 5.96643 2.2079 -0.01062
C 6.03593 0.78821 -0.00033
C 4.7686 0.10996 0.03589
C 7.24074 32.76415 -0.02759
C 7.22834 4.29222 0.01877
C 3.63604 31.98009 -0.05697
C 17.2154 12.78884 -0.02422
C 18.55493 10.53312 0.00096
C 29.49672 21.27112 0.01713
C 29.16866 19.88107 -0.01694
C 30.48427 19.20738 0.01428
C 28.05793 6.63604 -0.02142
C 30.68286 0.77849 0.0544
C 29.46583 0.01797 0.00026
C 31.91549 32.7466 0.00682
C 33.15262 31.97453 -0.01779
C 30.76618 22.03041 0.00346
C 33.12506 30.57442 0.03794
C 31.91778 28.40175 0.01574
C 33.21097 27.70078 -0.02383
C 33.15203 26.26714 -0.01429
C 31.90468 25.62472 -0.0136
C 31.8673 24.19881 0.00594
C 33.1493 23.40359 -0.02474
C 33.19377 21.95559 0.00369
C 31.95603 21.32032 0.00455
C 31.89723 29.7991 0.01927
C 31.76919 19.79965 -0.00644
C 30.70921 23.43113 0.00307
C 29.45293 25.5872 0.02108
C 27.01371 24.24368 -0.01415
C 28.2172 23.50598 -0.03039
C 28.2821 22.04373 0.01836
C 27.15717 21.15812 0.03531
C 27.50826 19.82136 -0.00669
C 28.20222 5.1531 0.0101
C 27.06171 4.27035 0.01705
C 27.33066 2.96795 -0.0405
C 29.46035 24.12853 0.00716
C 28.53148 2.2401 -0.01303
C 27.11768 0.10822 -0.02155
C 29.53013 32.71531 -0.00944
C 30.72185 32.05678 -0.03735
C 30.70631 30.58978 -0.00971
C 29.48381 29.93237 0.01518
C 29.51113 28.49154 0.01908
C 30.66223 27.68933 0.07705
C 30.66016 26.25369 0.0103
C 28.33298 0.84289 -0.01461
C 32.95668 19.12992 -0.01839
C 33.01822 17.75636 0.00137
C 31.95722 17.00591 0.00199
C 1.16616 19.27016 -0.01678
C 1.16073 17.81475 0.01223
C 34.38586 17.01903 0.00648
C 34.36364 15.67248 0.02114
C 1.17798 14.96876 -0.02957
C 1.2054 13.50708 0.00343
C 34.39608 12.7816 -0.02656
C 34.30254 11.42441 -0.02442
C 34.25063 19.89209 0.01951
C 1.13621 10.76062 -0.00027
C 34.31722 8.60061 -0.02302
C 34.38083 7.12916 -0.02849
C 1.22558 6.55737 0.02931
C 1.01536 5.17914 0.00628
C 34.12458 4.71547 -0.0345
C 34.11233 3.10047 -0.00931
C 0.98672 2.38215 -0.00939
C 1.12705 0.8879 -0.00468
C 1.16037 9.33028 -0.00583
C 34.37835 21.31739 -0.02213
C 1.23343 22.04325 0.02712
C 1.18862 23.40398 0.00723
C 33.12917 15.01024 0.04381
C 33.27219 13.63724 0.02806
C 32.96392 10.67683 0.01504
C 32.93915 9.12343 -0.00069
C 31.93303 8.13901 0.04926
C 32.29075 6.78403 -0.03838
C 33.43819 6.00455 0.00349
C 32.99226 2.30488 -0.00323
C 33.06018 0.89119 -0.00841
C 31.90418 0.17025 0.0001
C 34.42912 32.71514 -0.02927
C 1.18696 32.0738 -0.01404
C 1.23078 30.63734 0.01027
C 34.39934 29.9672 0.01831
C 34.35014 28.55484 -0.01037
C 1.17971 27.70185 -0.00439
C 1.22061 26.31293 -0.00598
C 34.36903 25.51614 -0.05239
C 34.39017 24.06172 0.03076
C 27.01034 25.63003 -0.01854
C 17.23606 11.29377 0.01277
C 28.22309 26.28903 -0.02049
C 26.953 28.40424 0.00261
C 19.76893 19.80071 -0.01107
C 21.0182 19.08866 -0.01586
C 21.05408 17.6438 -0.01971
C 19.77354 16.94953 -0.02118
C 19.80117 15.53423 0.00733
C 19.58039 12.60404 -0.00178
C 19.7195 11.30612 0.00768
C 20.86984 9.1793 -0.0276
C 19.59219 21.28253 0.00071
C 19.7198 8.46253 0.03005
C 20.8741 6.42384 0.02117
C 20.91251 4.91958 0.02737
C 19.62735 4.25416 -0.00498
C 19.54636 2.8903 0.00135
C 20.8492 2.11838 0.03102
C 20.82381 0.65287 0.02555
C 19.6112 34.06632 0.01423
C 22.2442 32.72128 -0.00285
C 19.71356 7.08582 -0.04078
C 23.41157 31.93184 -0.009
C 20.83704 21.95661 -0.00225
C 19.58264 24.02519 -0.0055
C 18.44872 9.17867 -0.01527
C 17.17676 8.46764 0.01087
C 17.20911 7.0657 0.00199
C 18.4679 6.38969 0.01511
C 18.43783 5.02941 -0.00478
C 17.25772 4.25152 -0.01662
C 17.20545 2.87358 -0.01185
C 18.40147 2.1336 0.01126
C 20.81109 23.36596 0.01515
C 18.40652 0.7304 0.01852
C 19.67086 32.61109 0.03046
C 20.9907 32.01108 0.0296
C 20.79439 30.51823 0.03374
C 19.52189 29.8052 -0.02845
C 19.50779 28.35748 -0.03213
C 20.80192 27.65619 0.02239
C 20.95675 26.19613 0.01153
C 19.64939 25.49627 0.02734
C 17.23678 0.03409 -0.00381
C 23.35451 30.50441 -0.01199
C 22.05652 29.9021 -0.00229
C 22.07569 28.42985 -0.00938
C 25.75339 26.24205 0.04185
C 24.55442 25.51456 0.00194
C 24.59504 24.13893 -0.00621
C 25.86386 23.48226 0.02611
C 26.00454 22.01071 0.02198
C 24.73514 21.37553 0.01094
C 24.58434 19.96738 0.00235
C 25.95013 6.52863 0.01495
C 25.67748 27.7037 0.02316
C 25.86974 5.10816 0.01259
C 24.66262 2.94386 0.01699
C 25.95142 2.30387 -0.00416
C 25.89556 0.87388 0.01177
C 24.65571 0.00923 0.04266
C 26.98001 32.7259 0.01324
C 28.22546 32.02869 0.0014
C 28.19199 30.59021 0.00924
C 26.92064 29.76185 0.02326
C 24.61559 4.37737 0.01799
C 24.47364 28.40311 0.01257
C 24.47483 29.75024 0.00152
C 25.67009 30.50787 -0.00294
C 23.28798 27.65602 -0.0264
C 23.36917 26.22563 -0.01154
C 22.14562 25.52912 0.00684
C 22.10611 24.06003 -0.01052
C 23.43221 23.34934 -0.01679
C 23.424 21.90687 0.00367
C 22.18141 21.30217 0.04306
C 22.19255 19.79897 0.00996
C 23.49038 19.26345 0.00195
C 22.14801 6.96869 -0.00802
C 23.30688 6.44274 -0.00218
C 23.40161 4.99691 -0.01654
C 22.15519 4.20246 -0.00037
C 22.08852 2.70792 -0.0032
C 23.52336 2.03443 0.00622
C 23.41737 0.67451 -0.02815
C 22.13089 0.0828 -0.00942
C 24.67082 32.67409 0.00487
C 25.85839 31.93482 0.00826
C 28.23659 27.75489 0.03265
C 2.38699 32.72697 -0.00725
