380
Graphene
C 34.31235 0.07768 0.01295
C 15.98985 27.73855 -0.01454
C 16.06505 26.2092 0.01945
C 14.67745 25.54706 0.01416
C 14.63833 24.20385 0.03542
C 15.80491 23.4641 0.02299
C 15.9921 22.09582 0.00244
C 15.53687 18.66242 -0.01717
C 16.01504 17.32844 0.05265
C 14.7555 16.68185 -0.01952
C 14.78408 15.36488 -0.02813
C 16.02378 14.74957 0.00374
C 15.95638 13.38722 0.00052
C 14.7675 12.72655 -0.03682
C 14.62406 11.38584 0.01965
C 15.90074 10.69228 0.02058
C 16.02737 9.30322 -0.01957
C 14.87074 8.54926 -0.0108
C 14.89747 7.08588 -0.00368
C 15.99836 6.36765 -0.02696
C 14.7642 28.42053 0.01241
C 14.7276 29.79161 0.0076
C 15.91738 30.58748 0.02162
C 15.95952 31.97538 -0.0014
C 13.48917 31.98773 -0.01275
C 13.43807 30.55622 0.00985
C 12.1922 29.92711 -0.02245
C 12.12797 28.49576 -0.00428
C 13.38774 27.72235 0.03101
C 13.4152 26.32868 -0.01536
C 12.21635 25.60263 -0.02689
C 14.29839 18.20887 -0.01046
C 13.47123 10.62154 -0.00891
C 15.9822 4.97846 -0.00114
C 13.5872 9.21268 0.02819
C 12.28899 7.14346 -0.02971
C 13.59972 6.37795 0.02894
C 13.5808 5.06159 -0.01789
C 12.28933 4.43485 0.00444
C 12.28133 2.99223 -0.00925
C 13.51041 2.20657 0.01877
C 13.45421 0.77572 0.01363
C 12.29669 0.08501 -0.02162
C 14.62206 32.7018 0.00415
C 12.26601 8.54846 0.00165
C 14.76776 4.35821 0.00228
C 14.79502 2.8772 0.00798
C 16.03031 2.07676 0.00422
C 18.54466 9.07088 -0.0331
C 17.27405 8.5154 -0.00316
C 17.19186 7.11687 0.02188
C 18.43085 6.35438 -0.01979
C 18.42652 5.00364 0.02691
C 17.17637 4.25664 -0.01581
C 17.30593 2.76719 0.01452
C 18.48892 2.15519 0.04892
C 18.35283 0.66324 -0.00111
C 18.52491 10.54528 -0.0258
C 17.17953 34.02367 -0.03557
C 20.87702 31.9229 0.01739
C 20.84025 30.54949 0.00755
C 19.69179 29.81428 -0.0054
C 19.69206 28.4216 0.00667
C 20.89959 27.67486 0.00143
C 21.14409 26.21944 -0.017
C 19.8741 25.43548 0.00364
C 19.6018 24.02706 -0.00831
C 18.85884 20.49973 -0.02957
C 19.71374 32.62865 0.03754
C 12.31377 32.69525 -0.01111
C 17.2521 11.22427 0.03338
C 18.45054 13.33704 -0.00109
C 15.99048 0.65753 0.0351
C 14.62966 0.01917 -0.03113
C 17.23086 32.63193 0.02098
C 18.41559 31.92366 0.01848
C 18.39046 30.5391 -0.00619
C 17.19534 29.85728 -0.02162
C 17.27418 28.48022 0.00889
C 18.47892 27.71958 -0.00481
C 18.56563 26.25598 0.00979
C 17.27298 12.64402 -0.00491
C 17.28812 25.5212 0.01443
C 18.53259 23.25704 -0.02815
C 18.37869 21.62743 -0.04147
C 16.75425 21.1161 -0.05302
C 16.57989 19.62035 0.00213
C 18.13712 19.23069 -0.00066
C 18.40097 17.80805 -0.00289
C 17.2821 16.93814 0.00028
C 17.29016 15.49014 -0.02213
C 18.42988 14.80242 0.03698
C 17.18624 24.1011 0.03505
C 20.82602 17.55859 -0.04422
C 9.78266 0.13234 0.02841
C 11.09244 2.10933 0.00406
C 2.40606 2.91502 -0.05697
C 3.68369 2.21398 0.01087
C 3.63903 0.76027 -0.01343
C 2.32204 0.08585 0.00988
C 4.84849 32.8333 0.0276
C 6.13291 32.04352 0.01305
C 6.12919 30.64127 -0.00077
C 4.92638 29.91696 0.03368
C 4.87726 28.48709 -0.02929
C 6.09737 27.66214 -0.00966
C 6.1295 26.33486 -0.03337
C 4.88208 25.60122 0.01227
C 4.89663 24.23341 0.00873
C 6.12142 23.58709 -0.00049
C 6.16422 22.21895 0.00848
C 4.95704 21.42608 -0.01303
C 5.28947 20.05147 -0.01378
C 5.98813 9.42957 0.02635
C 4.90644 8.516 0.0127
C 2.38594 4.32832 -0.00725
C 3.65105 4.956 0.02322
C 3.684 6.3737 -0.00094
C 2.43075 7.12219 -0.02566
C 3.66211 30.66485 0.00907
C 2.46646 29.9724 0.00643
C 2.36461 28.54196 -0.01509
C 3.54376 27.82523 0.03267
C 3.64112 26.40497 0.02374
C 2.3572 25.64769 0.00402
C 2.36044 24.22124 0.0073
C 3.67827 23.57644 0.0174
C 3.63201 22.15537 0.03828
C 4.9721 7.12213 0.01396
C 2.51783 21.33029 0.01226
C 4.04184 19.23641 0.01996
C 3.68376 17.89938 -0.03996
C 2.59083 17.03236 0.01465
C 2.45723 15.62425 -0.00074
C 2.38547 12.73389 -0.00518
C 2.65106 11.40747 0.0086
C 3.72808 10.54466 -0.00643
C 3.62551 9.20991 0.017
C 2.4514 8.55539 -0.03113
C 2.68071 19.94904 -0.00279
C 6.14524 6.46395 0.01849
C 6.13547 5.05285 -0.01142
C 4.90209 4.32589 -0.00562
C 8.65491 2.23262 0.02147
C 8.62404 0.82258 0.00373
C 7.34466 0.08129 -0.00191
C 9.75881 32.75212 0.00438
C 11.03212 32.04475 0.01291
C 11.04922 30.6973 0.00093
C 9.72929 29.93146 0.00057
C 9.76199 28.52227 -0.01634
C 10.97456 27.79068 -0.00334
C 7.38056 2.97699 -0.014
C 10.97172 26.2339 0.02339
C 9.9132 24.04259 -0.00719
C 8.23245 20.63929 0.01364
C 11.22061 9.38173 -0.01062
C 9.86585 8.81029 -0.00033
C 9.8411 7.33734 0.03589
C 11.04097 6.51989 -0.02759
C 11.0569 5.14394 0.0402
C 9.7863 4.40872 0.00572
C 9.85163 2.95467 0.03592
C 9.76022 25.48939 0.01641
C 11.04715 0.71746 0.00943
C 7.38582 4.35192 -0.01118
C 8.65804 6.65217 -0.02896
C 4.85085 2.9122 -0.00494
C 6.17837 2.19666 0.00054
C 6.12432 0.74103 0.03007
C 4.83499 0.09721 -0.00095
C 7.37408 32.69802 0.01572
C 8.53589 31.99806 -0.04848
C 8.4884 30.59212 -0.00892
C 7.26565 29.8951 -0.01362
C 7.32872 28.42194 -0.0008
C 8.57329 5.18214 -0.00131
C 8.53429 27.74642 0.0288
C 7.3905 25.55422 0.00895
C 7.44353 24.13448 0.00685
C 8.78846 23.31979 0.02888
C 8.66903 21.98672 -0.00482
C 7.07444 21.21002 -0.01384
C 6.71756 19.91167 0.03693
C 8.58826 9.42258 0.01745
C 7.3499 8.82161 0.00488
C 7.44701 7.35474 -0.01004
C 8.54318 26.31153 0.00393
C 19.55671 17.08542 0.00654
C 19.61026 15.57231 -0.00703
C 20.93589 14.86415 -0.04076
C 29.48001 2.86891 0.02108
C 30.69158 2.18501 0.00716
C 30.5496 0.69323 0.00307
C 29.40425 34.0263 0.00346
C 31.8004 32.65909 0.01713
C 33.08612 32.07258 -0.01694
C 33.14063 30.63878 0.01428
C 31.88564 29.87813 -0.02142
C 31.83736 28.48947 0.0544
C 33.10036 27.71463 0.00026
C 33.05603 26.33074 0.00682
C 31.87273 25.58203 -0.01779
C 31.92182 24.23748 0.03794
C 33.21672 23.47302 0.01927
C 33.14784 22.05715 0.01574
C 31.92631 21.37928 -0.02383
C 31.9036 19.9062 -0.01429
C 33.225 19.1987 -0.0136
C 33.28794 17.78903 0.00594
C 29.41576 4.22037 0.0103
C 30.66745 4.9189 0.07705
C 30.73327 6.37999 0.01908
C 29.53075 7.11073 0.01518
C 29.34255 28.36068 0.00924
C 30.62606 27.7582 0.02326
C 30.63922 26.28234 0.00261
C 29.48309 25.50992 0.03265
C 29.44305 24.11037 -0.02049
C 30.70629 23.54956 -0.01854
C 30.7552 22.06403 -0.01415
C 29.40408 21.34975 -0.03039
C 29.48864 19.88599 0.01836
C 32.06287 17.07201 -0.02474
C 30.7401 19.21966 0.03531
C 29.51432 17.06351 0.0101
C 29.50104 15.63504 0.01705
C 30.68649 14.96537 -0.0405
C 30.73536 13.47671 -0.01303
C 29.47826 12.85459 -0.01461
C 29.50832 11.44846 -0.02155
C 30.79237 10.68155 -0.00944
C 30.72329 9.23488 -0.03735
C 29.45366 8.53185 -0.00971
C 30.81218 17.74811 -0.00669
C 31.95062 15.66885 0.00369
C 33.16489 14.95473 0.00455
C 33.17983 13.51725 -0.00644
C 34.39581 21.20338 -0.02213
C 0.05451 19.80749 0.01951
C 1.31537 19.13326 -0.01678
C 1.27863 17.77099 0.01223
C 0.02932 17.10203 0.00648
C 34.38258 15.70016 0.02114
C 1.15686 14.89654 -0.02957
C 1.21171 13.53476 0.00343
C 0.00453 12.83911 -0.02656
C 1.1626 21.98553 0.02712
C 0.05817 11.3871 -0.02442
C 1.24204 9.1981 -0.00583
C 0.03495 8.54515 -0.02302
C 34.43012 7.09388 -0.02849
C 1.17655 6.42083 0.02931
C 1.09101 5.01535 0.00628
C 34.36585 4.20861 -0.0345
C 34.37821 2.74707 -0.00931
C 1.20297 2.15722 -0.00939
C 1.15389 0.75416 -0.00468
C 1.33876 10.7143 -0.00027
C 29.42682 29.75223 0.0014
C 1.16868 23.45161 0.00723
C 34.29874 25.59478 -0.05239
C 31.95428 12.81347 -0.01839
C 32.04131 11.45681 0.00137
C 33.29321 10.65177 0.00199
C 33.21654 9.26851 0.04381
C 31.95506 8.48591 0.02806
C 31.88735 7.09698 0.01504
C 33.14007 6.38066 -0.00069
C 33.10769 4.96419 0.04926
C 31.92521 4.21827 -0.03838
C 34.39865 24.14549 0.03076
C 31.96339 2.89071 0.00349
C 33.0897 0.73801 -0.00841
C 31.86187 0.03997 0.0001
C 34.31429 32.75 -0.02927
C 1.14074 31.99771 -0.01404
C 1.19292 30.58796 0.01027
C 34.34477 29.88682 0.01831
C 34.35893 28.4872 -0.01037
C 1.12373 27.82335 -0.00439
C 1.04384 26.40227 -0.00598
C 33.14803 2.0949 -0.00323
C 30.5959 30.49023 0.01324
C 30.61685 31.88046 0.04266
C 29.44213 32.64706 0.01177
C 23.39881 13.40205 0.0296
C 22.12471 12.67548 0.03374
C 22.13371 11.30219 -0.02845
C 23.37513 10.56841 -0.03213
C 23.39904 9.18637 0.02239
C 22.18421 8.44198 0.01153
C 22.15015 7.07095 0.02734
C 23.36904 6.37375 -0.0055
C 23.3569 5.03636 0.01515
C 23.34414 14.84306 0.03046
C 22.20768 4.19852 -0.00225
C 23.26989 2.07738 -0.01107
C 23.24342 0.62915 -0.01586
C 22.06488 34.00149 -0.01971
C 24.68675 32.51319 -0.02118
C 25.85261 31.8841 0.00733
C 25.76248 30.49283 -0.00178
C 24.5341 29.74644 0.00768
C 24.4861 28.32625 -0.0276
C 25.65872 27.61909 0.03005
C 22.14739 2.82597 0.00071
C 25.81146 26.30417 -0.04078
C 22.15178 15.58591 -0.00381
C 23.03462 26.2455 0.01126
C 20.94932 13.39962 -0.00652
C 19.70236 12.72897 0.0058
C 19.68863 11.27418 -0.00865
C 20.91689 10.50337 0.00675
C 20.93145 9.15001 -0.00311
C 19.7825 8.41092 0.00742
C 19.75699 6.9696 -0.01594
C 20.94187 6.31589 0.0106
C 20.91926 4.87538 -0.01154
C 21.96695 16.97478 0.01852
C 19.71267 4.19813 -0.01721
C 20.9155 2.07401 0.01277
C 20.76858 0.68456 0.00096
C 19.56508 34.05939 -0.01527
C 22.11496 32.56227 0.01087
C 23.36651 31.89975 0.00199
C 23.27863 30.499 0.01511
C 22.08633 29.79945 -0.00478
C 22.1051 28.36351 -0.01662
C 23.29403 27.58013 -0.01185
C 19.68112 2.82399 -0.02422
C 3.67242 32.04657 0.02379
C 25.69141 17.5723 0.02117
C 24.54412 15.58458 -0.00498
C 28.27985 22.09414 -0.02815
C 28.25855 19.14727 -0.00942
C 28.21515 17.76812 0.00487
C 26.96041 17.13197 0.00826
C 26.95621 15.64446 -0.00294
C 28.23282 14.91337 0.00152
C 28.23382 13.58114 0.01257
C 26.9267 12.72979 0.02316
C 27.02436 11.3397 0.04185
C 28.24299 23.40232 0.00622
C 28.3692 10.69032 0.00194
C 27.00837 8.4376 0.02611
C 27.0096 7.08999 0.02198
C 28.20679 6.33865 0.01094
C 28.21675 4.90577 0.00235
C 26.97544 4.12858 0.01495
C 26.99783 2.78533 0.01259
C 28.28525 2.12106 0.01799
C 28.22985 0.76159 0.01699
C 26.98558 0.01686 -0.00416
C 28.22816 9.23858 -0.00621
C 24.44582 17.00159 0.02737
C 27.05315 25.56416 -0.0032
C 28.16949 27.60628 -0.01654
C 25.78183 14.88062 0.00135
C 25.77392 13.48576 0.03102
C 24.54696 12.72862 0.02555
C 24.58271 11.338 0.01423
C 25.8229 10.65946 -0.00285
C 25.81125 9.213 -0.009
C 24.6212 8.50055 -0.01199
C 24.53598 7.09621 -0.00229
C 25.81194 6.40325 -0.00938
C 28.28188 26.20194 -0.00037
C 25.72958 4.916 -0.0264
C 24.59019 2.75148 0.00684
C 25.80089 2.03056 -0.01052
C 25.82625 0.66488 -0.01679
C 24.54962 33.97418 0.00367
C 27.05008 32.61262 0.04306
C 28.20262 31.91455 0.00996
C 28.17628 30.50991 0.00195
C 26.97012 29.80202 -0.00802
C 26.94548 28.3544 -0.00218
C 24.58824 4.20616 -0.01154
C 2.39105 32.70707 0.01402
