430
Graphene
C 0.03085 0.01549 0.01295
C 13.61628 23.4617 -0.00033
C 13.49846 22.04479 0.03589
C 12.26697 21.36756 -0.02759
C 12.29885 19.87617 0.0402
C 13.5325 19.18603 0.00572
C 13.55904 17.72995 0.03592
C 12.27771 17.00929 0.00406
C 12.26385 15.58681 0.00943
C 13.49994 14.80869 0.02841
C 13.53488 13.43786 -0.01111
C 12.38104 24.2035 -0.01062
C 12.30125 12.73736 -0.01275
C 13.53105 10.62866 -0.02245
C 13.55236 9.2372 -0.00428
C 12.29765 8.5694 0.03101
C 12.35937 7.10135 -0.01536
C 13.52538 6.33186 -0.02689
C 13.49273 4.86727 -0.01046
C 12.27387 4.14506 -0.00891
C 12.22133 2.78036 0.02819
C 13.49205 2.11761 0.00165
C 13.53848 0.67572 -0.02971
C 12.26318 11.38172 0.00985
C 12.30272 25.63741 0.01364
C 13.48593 26.34997 -0.00719
C 13.53784 27.71525 0.01641
C 11.0576 17.76708 0.00895
C 9.84813 17.04159 0.00685
C 9.78654 15.65662 0.02888
C 11.03243 14.89618 -0.00482
C 11.13366 13.53401 -0.01384
C 9.84756 12.85992 0.03693
C 9.82979 11.46313 0.01745
C 11.04521 10.72023 0.00488
C 11.0836 9.25588 -0.01004
C 9.84825 8.50479 -0.02896
C 9.90442 7.10581 -0.00131
C 11.12403 6.35396 -0.01118
C 11.11294 4.87282 -0.014
C 9.80528 4.29012 0.02147
C 9.80769 2.83824 0.00373
C 11.01738 2.06274 -0.00191
C 11.10228 0.71549 0.00438
C 9.94257 0.03604 0.01291
C 12.28686 32.66914 0.00093
C 13.55656 32.06289 0.00057
C 13.48344 30.61536 -0.01634
C 12.24566 29.85139 -0.00334
C 12.27435 28.34212 0.02339
C 12.34684 34.07227 0.02894
C 14.8093 32.68402 -0.01789
C 16.0063 31.98058 0.00444
C 15.94949 30.51919 -0.00925
C 15.96976 0.70496 -0.00114
C 14.77359 0.01086 0.00228
C 17.24479 32.70113 0.00798
C 18.47132 31.90631 0.00422
C 18.42243 30.5169 0.0351
C 17.22173 29.80149 -0.03113
C 17.196 28.35673 0.02098
C 18.42859 27.6565 0.01848
C 18.42741 26.21622 -0.00619
C 17.21202 25.49787 -0.02162
C 17.21961 24.10621 0.00889
C 18.45529 23.43205 -0.00481
C 18.42474 22.04233 0.00979
C 17.11587 21.30068 0.01443
C 17.13259 19.95328 0.03505
C 18.36435 19.24975 -0.02815
C 18.38727 17.78843 -0.04147
C 17.23389 17.00113 -0.05302
C 17.23641 15.64204 0.00213
C 18.48214 14.93825 -0.00066
C 18.54078 13.53701 -0.00289
C 17.27661 12.79115 0.00028
C 17.20986 11.39702 -0.02213
C 15.97784 2.12662 -0.02696
C 11.05966 19.1708 0.00393
C 14.73951 2.84051 -0.00368
C 15.96332 4.99345 -0.01957
C 14.67605 29.87177 0.01877
C 14.71827 28.464 0.01363
C 15.93541 27.70657 -0.02162
C 15.98362 26.24393 0.00415
C 14.69199 25.56031 -0.0014
C 14.80243 24.14062 0.02162
C 16.0048 23.42535 0.0076
C 15.91495 21.97683 0.01241
C 14.68305 21.2861 -0.01454
C 14.76304 19.84637 0.01945
C 15.95091 19.11416 0.01416
C 16.00545 17.72869 0.03542
C 14.7115 17.0235 0.02299
C 14.7478 15.60926 0.00244
C 15.99623 14.90801 -0.01717
C 16.00329 13.46124 0.05265
C 14.78342 12.78593 -0.01952
C 14.76133 11.37201 -0.02813
C 15.99348 10.69424 0.00374
C 16.0443 9.20092 0.00052
C 14.72189 8.49396 -0.03682
C 14.68562 7.096 0.01965
C 15.90257 6.43028 0.02058
C 14.76182 4.25548 -0.0108
C 9.83639 19.90112 0.0288
C 9.90262 21.28352 -0.0008
C 11.10603 22.09824 -0.01362
C 3.71022 2.14939 0.00245
C 3.67896 0.71875 0.02728
C 2.46019 0.04209 -0.00039
C 4.96087 32.6655 0.0064
C 6.12135 31.92399 0.00211
C 6.11313 30.51319 -0.00449
C 4.877 29.82249 -0.01979
C 4.93271 28.32656 0.02784
C 6.20985 27.70157 -0.01977
C 6.14788 26.31403 -0.00561
C 4.96434 25.52874 0.00208
C 4.9232 24.14688 0.01707
C 6.12247 23.4421 0.02769
C 6.10025 22.09796 -0.03291
C 4.93174 21.33093 -0.04999
C 4.96488 19.88873 0.04505
C 6.18981 19.1629 0.03284
C 6.16476 17.73491 -0.04307
C 4.91081 17.02085 0.03189
C 4.85338 15.59114 0.00031
C 6.08925 14.90391 -0.003
C 6.11717 13.52813 0.01402
C 4.89257 12.83647 0.02379
C 2.47748 2.79572 0.00081
C 4.93419 11.41849 0.00907
C 2.47961 4.21984 -0.02805
C 3.73562 6.40871 -0.0059
C 3.71609 30.57955 0.01913
C 2.52565 29.84497 0.00267
C 2.42818 28.35703 0.00787
C 3.65577 27.6281 0.02426
C 3.69777 26.19117 0.01218
C 2.48958 25.53374 -0.01471
C 2.46707 24.10947 -0.02827
C 3.69434 23.4691 0.01078
C 3.69644 22.06783 -0.00112
C 2.41905 21.32454 0.03345
C 2.54417 19.8885 0.00748
C 3.79205 19.17095 0.00662
C 3.69727 17.70632 -0.0154
C 2.41129 16.96456 -0.01299
C 2.4123 15.54516 -0.00407
C 3.63429 14.86483 0.01138
C 3.57755 13.48404 0.03278
C 2.42704 12.78224 -0.00177
C 2.43116 11.35666 0.04421
C 3.69816 10.69491 0.00088
C 3.71961 9.2207 0.00828
C 2.47572 8.52193 -0.02375
C 2.42097 7.13944 0.00558
C 3.67386 4.99772 -0.01386
C 18.44756 10.63016 0.03698
C 6.15537 10.70153 0.00643
C 4.95197 8.59426 0.03267
C 7.33787 12.80505 0.03368
C 7.33518 11.43403 -0.02929
C 8.6124 10.68471 -0.00966
C 8.63507 9.29142 -0.03337
C 7.3779 8.62289 0.01227
C 7.34194 7.18549 0.00873
C 8.61932 6.5313 -0.00049
C 8.59069 5.08536 0.00848
C 7.32652 4.30878 -0.01303
C 7.31592 2.83279 -0.01378
C 8.56183 2.17702 0.02635
C 8.64612 0.70997 0.0127
C 7.39162 0.0205 0.01396
C 9.81915 32.71837 0.01849
C 11.01311 32.00275 -0.01142
C 11.05663 30.5837 -0.00562
C 9.81361 29.84844 -0.00494
C 9.77925 28.4038 0.00054
C 11.04327 27.6813 0.03007
C 10.97631 26.28867 -0.00095
C 9.76354 25.59294 0.01572
C 9.8342 24.20429 -0.04848
C 11.12222 23.57512 -0.00892
C 8.60118 13.47129 -0.00077
C 6.17666 9.29637 -0.01509
C 8.52965 14.89613 0.01305
C 7.3981 17.01931 0.00988
C 4.9072 7.1516 0.02374
C 6.05513 6.4238 0.00402
C 6.08741 4.98515 0.0073
C 4.90162 4.25156 0.0174
C 4.90663 2.86035 0.03828
C 6.06905 2.18964 0.01226
C 6.19281 0.70175 -0.00279
C 4.90576 34.07133 0.01996
C 7.35914 32.6381 -0.03996
C 8.60594 32.0067 0.01465
C 8.64109 30.5874 -0.00074
C 7.39403 29.8646 -0.00518
C 7.36103 28.44383 0.0086
C 8.58452 27.7252 -0.00643
C 8.53253 26.30322 0.017
C 7.3285 25.60537 -0.03113
C 7.39872 24.15576 -0.02566
C 8.6355 23.35968 -0.00094
C 8.67266 21.9643 0.02322
C 7.35858 21.37621 -0.00725
C 7.37178 19.89403 -0.05697
C 8.61158 19.18753 0.01087
C 8.60972 17.77826 -0.01343
C 7.32957 15.58194 0.0276
C 18.46837 9.2707 -0.00109
C 17.24517 8.50411 -0.00491
C 17.17582 7.06044 0.03338
C 30.75842 13.48779 -0.01303
C 29.5784 12.79521 -0.01461
C 29.47772 11.38932 -0.02155
C 30.7274 10.65939 -0.00944
C 30.65398 9.14911 -0.03735
C 29.48887 8.45928 -0.00971
C 29.4947 7.05374 0.01518
C 30.70124 6.35329 0.01908
C 30.7087 4.94325 0.07705
C 29.49626 4.29259 0.0103
C 29.53253 2.82229 0.02108
C 30.77929 2.09748 0.00716
C 30.75275 0.67979 0.00307
C 29.48749 0.02007 0.00346
C 32.07262 32.59707 0.01713
C 33.23735 31.89768 -0.01694
C 33.21914 30.47198 0.01428
C 31.97203 29.77513 -0.02142
C 31.92711 28.35938 0.0544
C 33.17898 27.65518 0.00026
C 33.18741 26.29771 0.00682
C 31.95824 25.61365 -0.01779
C 32.01311 24.19394 0.03794
C 30.65641 14.88848 -0.0405
C 33.21183 23.54227 0.01927
C 29.50325 15.63421 0.01705
C 30.73553 17.78857 -0.00669
C 28.30615 9.29754 0.02611
C 27.00637 7.06735 0.02198
C 28.2405 6.38366 0.01094
C 28.21581 4.95494 0.00235
C 27.02019 4.28469 0.01495
C 27.03749 2.83602 0.01259
C 28.2805 2.1715 0.01799
C 28.23634 0.65114 0.01699
C 26.97452 34.03437 -0.00416
C 29.58342 32.65979 0.01177
C 30.77226 31.9201 0.04266
C 30.71124 30.46294 0.01324
C 29.4509 29.77304 0.0014
C 29.47691 28.35683 0.00924
C 30.68193 27.65478 0.02326
C 30.73461 26.23344 0.00261
C 29.48587 25.59084 0.03265
C 29.51553 24.2086 -0.02049
C 30.77602 23.44196 -0.01854
C 30.77164 21.9693 -0.01415
C 29.46907 21.25403 -0.03039
C 29.46446 19.90261 0.01836
C 30.7332 19.20943 0.03531
C 29.54708 17.03156 0.0101
C 28.32562 10.53652 -0.00621
C 33.17519 22.10478 0.01574
C 31.98821 19.86089 -0.01429
C 0.01295 24.22412 0.03076
C 1.18941 23.45767 0.00723
C 1.20459 22.02466 0.02712
C 34.40338 21.35536 -0.02213
C 0.04725 19.90056 0.01951
C 1.271 19.12769 -0.01678
C 1.2034 17.68652 0.01223
C 34.3933 17.03149 0.00648
C 34.36491 15.60008 0.02114
C 1.17511 14.93167 -0.02957
C 1.20845 13.4434 0.00343
C 34.4279 12.74836 -0.02656
C 34.40093 11.30458 -0.02442
C 1.19484 10.65325 -0.00027
C 1.18777 9.28276 -0.00583
C 34.30632 8.48771 -0.02302
C 34.38782 7.05725 -0.02849
C 1.25502 6.37878 0.02931
C 1.2331 4.90091 0.00628
C 34.42675 4.22223 -0.0345
C 0.01404 2.77793 -0.00931
C 1.24022 2.11986 -0.00939
C 1.20626 0.77802 -0.00468
C 34.39253 25.58998 -0.05239
C 31.96386 21.29226 -0.02383
C 1.22044 26.23667 -0.00598
C 34.39768 28.33922 -0.01037
C 33.23924 19.16306 -0.0136
C 33.24376 17.74018 0.00594
C 31.97575 17.05483 -0.02474
C 31.87716 15.65428 0.00369
C 33.10143 14.84929 0.00455
C 33.15853 13.40989 -0.00644
C 31.98609 12.70894 -0.01839
C 31.98975 11.35136 0.00137
C 33.18394 10.61913 0.00199
C 33.06723 9.17982 0.04381
C 31.83187 8.48783 0.02806
C 31.97608 7.03628 0.01504
C 33.18655 6.32993 -0.00069
C 33.21668 4.92028 0.04926
C 31.99812 4.21802 -0.03838
C 32.00382 2.75681 0.00349
C 33.2381 2.07324 -0.00323
C 33.19956 0.65511 -0.00841
C 31.97852 33.98146 0.0001
C 0.01397 32.66053 -0.02927
C 1.244 31.86902 -0.01404
C 1.26838 30.47931 0.01027
C 0.02423 29.7766 0.01831
C 1.20725 27.70427 -0.00439
C 3.69994 32.03303 -0.03672
C 27.01452 12.82395 0.00194
C 28.31992 14.91141 0.02316
C 19.57746 11.36597 -0.00865
C 19.63699 8.55527 0.00675
C 19.83858 7.14634 -0.00311
C 21.00596 6.37662 0.00742
C 20.92189 5.04722 -0.01594
C 19.63789 4.31786 0.0106
C 19.68186 2.782 -0.01154
C 20.88771 2.08271 -0.01721
C 20.91941 0.73314 -0.02422
C 19.61101 0.07129 0.01277
C 22.09855 32.70513 0.00096
C 23.30565 31.94101 -0.01527
C 23.2849 30.5796 0.01087
C 22.09526 29.84601 0.00199
C 22.14426 28.42458 0.01511
C 23.36236 27.73834 -0.00478
C 23.40142 26.28668 -0.01662
C 22.19685 25.55468 -0.01185
C 22.18625 24.163 0.01126
C 23.41877 23.37823 0.01852
C 23.36826 21.96862 -0.00381
C 22.13807 21.28419 0.03046
C 22.08149 19.86142 0.0296
C 19.95107 12.73248 0.0058
C 23.36049 19.23634 0.03374
C 21.00997 13.5568 -0.00652
C 19.70436 15.65227 -0.00703
C 18.35661 6.35276 -0.0258
C 18.36889 4.98055 -0.0331
C 17.17041 4.2077 -0.00316
C 17.19759 2.81489 0.02188
C 18.41863 2.10641 -0.01979
C 18.3706 0.67415 0.02691
C 17.15141 0.00996 -0.01581
C 19.6056 32.69396 0.01452
C 20.814 31.96755 0.04892
C 20.83765 30.49885 -0.00111
C 19.68193 29.81631 -0.03557
C 19.64353 28.35198 0.03754
C 20.89076 27.65966 0.01739
C 20.94345 26.20563 0.00755
C 19.6633 25.51526 -0.0054
C 19.67748 24.10223 0.00667
C 20.94378 23.4952 0.00143
C 20.99839 22.08379 -0.017
C 19.67895 21.30631 0.00364
C 19.61125 19.8748 -0.00831
C 20.86295 19.14768 -0.02957
C 20.90618 17.7546 -0.04422
C 19.64092 17.05158 0.00654
C 20.92069 14.90492 -0.04076
C 28.32901 13.49554 0.04185
C 23.39614 17.79549 -0.02845
C 22.14808 15.57541 0.02239
C 25.737 4.97272 -0.00938
C 24.53387 4.33669 -0.0264
C 24.52608 2.86574 -0.01154
C 25.80424 2.09924 0.00684
C 25.77126 0.69434 -0.01052
C 24.51291 34.00689 -0.01679
C 27.05731 32.62113 0.00367
C 28.26198 31.93027 0.04306
C 28.27792 30.54685 0.00996
C 27.02104 29.91065 0.00195
C 27.04949 28.46569 -0.00802
C 28.2416 27.65182 -0.00218
C 28.27374 26.27861 -0.01654
C 27.07666 25.60887 -0.00037
C 27.05503 24.16056 -0.0032
C 28.31432 23.39798 0.00622
C 28.32347 21.99539 -0.02815
C 27.09322 21.29721 -0.00942
C 27.0102 19.9087 0.00487
C 28.24067 19.20418 0.00826
C 28.29329 17.74474 -0.00294
C 27.0344 17.03189 0.00152
C 27.0209 15.50429 0.01257
C 25.92352 6.43182 -0.00229
C 22.19231 17.10138 -0.03213
C 25.94588 13.39769 -0.01199
C 24.49834 15.60229 -0.00285
C 23.28604 14.91981 0.01153
C 23.31508 4.97159 0.02734
C 22.13673 4.20621 -0.0055
C 22.08317 2.75368 0.01515
C 23.33745 2.15365 -0.00225
C 23.39088 0.70092 0.00071
C 22.12768 0.06421 -0.01107
C 24.56714 32.5801 -0.01586
C 25.82658 31.93423 -0.01971
C 25.81215 30.58904 -0.02118
C 24.58326 29.86189 0.00733
C 24.58715 28.4852 -0.00178
C 25.87458 27.69366 0.00768
C 25.82791 26.22791 -0.0276
C 24.59341 25.51894 0.03005
C 24.63354 24.13092 -0.04078
C 25.87304 23.44634 0.02117
C 25.89693 22.03169 0.02737
C 24.5985 21.30355 -0.00498
C 24.58194 19.9165 0.00135
C 25.76073 19.19546 0.03102
C 25.79291 17.76624 0.02555
C 24.55553 17.0133 0.01423
C 25.73459 14.81847 -0.009
C 2.40065 32.70913 -0.04306
