419
Graphene
C 34.30615 0.03882 0.01295
C 13.36967 27.77074 0.00943
C 13.40265 26.33293 0.02841
C 12.21396 25.58442 -0.01111
C 12.19378 24.24556 -0.01275
C 13.49579 23.51275 0.00985
C 13.49433 22.0586 -0.02245
C 12.30618 21.34435 -0.00428
C 12.2901 19.94027 0.03101
C 13.55168 19.27473 -0.01536
C 13.54566 17.79412 -0.02689
C 12.12001 28.48824 0.00406
C 12.31829 17.08618 -0.01046
C 13.54902 14.87336 0.02819
C 13.60104 13.46233 0.00165
C 12.36719 12.72525 -0.02971
C 12.27152 11.31649 0.02894
C 13.5009 10.67653 -0.01789
C 13.59118 9.21111 0.00444
C 12.30516 8.5876 -0.00925
C 12.27947 7.19311 0.01877
C 13.45976 6.37932 0.01363
C 13.50206 4.95461 -0.02162
C 12.44033 15.59108 -0.00891
C 12.28479 4.28181 0.00415
C 12.21452 29.91584 0.03592
C 13.41036 31.99969 0.0402
C 9.75143 21.33244 -0.01004
C 9.81972 19.88711 -0.02896
C 11.0917 19.17208 -0.00131
C 11.04096 17.76926 -0.01118
C 9.80962 17.00895 -0.014
C 9.82942 15.57897 0.02147
C 11.17906 14.87401 0.00373
C 11.09428 13.48954 -0.00191
C 9.83468 12.84429 0.00438
C 9.77965 11.34982 0.01291
C 13.46408 30.56248 0.00572
C 11.04524 10.65353 0.00093
C 9.79553 8.51406 -0.01634
C 9.85085 7.13257 -0.00334
C 11.10334 6.44856 0.02339
C 11.08607 4.99109 0.01641
C 9.81034 4.32325 -0.00719
C 9.76324 2.90778 0.01364
C 10.95593 2.21679 -0.01062
C 10.98164 0.72807 -0.00033
C 9.74013 0.08109 0.03589
C 12.22515 32.73017 -0.02759
C 10.9719 9.26737 0.00057
C 12.2323 2.81033 -0.0014
C 13.47239 2.17284 0.02162
C 13.5128 0.71566 0.0076
C 16.03973 4.95267 0.01848
C 14.76055 4.32533 -0.00619
C 14.69662 2.83797 -0.02162
C 15.95615 2.11117 0.00889
C 15.94051 0.72631 -0.00481
C 14.73841 0.04377 0.00979
C 17.15464 32.79337 0.01443
C 18.35257 31.96582 0.03505
C 18.35587 30.52995 -0.02815
C 17.14669 29.8647 -0.04147
C 15.96063 6.42136 0.02098
C 17.10373 28.41665 -0.05302
C 18.3667 26.26649 -0.00066
C 17.16667 25.52927 -0.00289
C 17.15352 24.1499 0.00028
C 18.29611 23.42882 -0.02213
C 18.40263 22.03846 0.03698
C 17.14619 21.32279 -0.00109
C 17.13588 19.90346 -0.00491
C 18.38712 19.201 0.03338
C 18.4802 17.71273 -0.0258
C 17.22955 16.90752 -0.0331
C 18.36778 27.65361 0.00213
C 14.67022 7.06527 -0.03113
C 14.82405 8.49243 0.0351
C 15.96898 9.28314 0.00422
C 12.21712 0.07278 0.01241
C 14.65951 32.71228 -0.01454
C 15.90551 32.01853 0.01945
C 15.96706 30.63332 0.01416
C 14.72393 29.92736 0.03542
C 14.71584 28.49138 0.02299
C 15.89072 27.63508 0.00244
C 15.90986 26.23805 -0.01717
C 14.6627 25.57484 0.05265
C 14.66516 24.17544 -0.01952
C 15.91466 23.49894 -0.02813
C 15.97912 22.08001 0.00374
C 14.80432 21.35872 0.00052
C 14.88264 19.97913 -0.03682
C 15.9654 19.12402 0.01965
C 16.0148 17.61896 0.02058
C 14.78794 16.93985 -0.01957
C 14.76686 15.58355 -0.0108
C 16.06408 14.91685 -0.00368
C 16.10927 13.39336 -0.02696
C 14.80575 12.73515 -0.00114
C 14.72772 11.36911 0.00228
C 16.00143 10.63806 0.00798
C 11.10128 22.07306 0.00488
C 17.33178 15.53322 -0.00316
C 10.95221 23.47543 0.01745
C 9.74318 25.55948 -0.01384
C 2.37667 2.81886 0.00208
C 3.59742 2.19381 0.01707
C 3.58771 0.77755 0.02769
C 2.39319 0.05128 -0.03291
C 4.89329 32.78446 -0.04999
C 6.0562 32.0374 0.04505
C 6.05245 30.60443 0.03284
C 4.87894 29.86712 -0.04307
C 4.86899 28.48821 0.03189
C 6.11663 27.77272 0.00031
C 2.42376 4.2324 -0.00561
C 6.20839 26.35633 -0.003
C 4.8851 24.18882 0.02379
C 6.10647 23.49135 0.00907
C 6.12935 22.0304 0.00643
C 4.88075 21.30654 -0.01509
C 4.88049 19.88884 0.03267
C 6.13671 19.28355 0.02374
C 6.1231 17.81669 0.00402
C 4.94716 17.0415 0.0073
C 4.88902 15.68771 0.0174
C 6.11972 14.94378 0.03828
C 4.91591 25.65801 0.01402
C 6.16963 13.49214 0.01226
C 3.55635 4.94732 -0.01977
C 2.43676 7.10452 -0.01979
C 3.62966 30.5216 0.00662
C 2.36644 29.81089 -0.0154
C 2.3204 28.40982 -0.01299
C 3.5939 27.79008 -0.00407
C 3.67734 26.38148 0.01138
C 2.39959 25.56376 0.03278
C 2.41904 24.15824 -0.00177
C 3.64291 23.49057 0.04421
C 3.66224 22.01638 0.00088
C 2.42926 21.27843 0.00828
C 3.59804 6.37208 0.02784
C 2.35698 19.85053 -0.02375
C 3.66499 17.74959 -0.0059
C 2.38232 17.04858 -0.01386
C 2.34454 15.6024 -0.02805
C 3.66594 14.95696 0.00081
C 3.7463 13.62066 0.00245
C 2.45982 12.84414 0.02728
C 2.46459 11.4328 -0.00039
C 3.70858 10.69571 0.0064
C 3.60829 9.29264 0.00211
C 2.38243 8.54931 -0.00449
C 3.66598 19.11931 0.00558
C 4.92365 12.88808 -0.00279
C 4.91823 11.45346 0.01996
C 6.096 10.66595 -0.03996
C 8.564 14.85814 -0.01378
C 8.54566 13.48687 0.02635
C 7.37176 12.78272 0.0127
C 7.31215 11.36842 0.01396
C 8.60744 10.64382 0.01849
C 8.60966 9.23863 -0.01142
C 7.25294 8.53231 -0.00562
C 7.31197 7.15003 -0.00494
C 8.60064 6.46223 0.00054
C 8.56801 5.06705 0.03007
C 7.3413 15.62836 -0.01303
C 7.2917 4.33007 -0.00095
C 8.51673 2.22012 -0.04848
C 8.60108 0.79472 -0.00892
C 7.3197 0.11637 -0.01362
C 9.78652 32.81171 -0.0008
C 11.01942 32.03115 0.0288
C 11.01836 30.58639 0.00393
C 9.7747 29.87211 0.00895
C 9.77321 28.5283 0.00685
C 10.98965 27.75368 0.02888
C 11.02766 26.33875 -0.00482
C 7.24104 2.90373 0.01572
C 7.34805 17.0151 0.00848
C 8.62976 17.69534 -0.00049
C 8.68551 19.18032 0.00873
C 6.10028 9.30148 0.01465
C 4.81429 8.55685 -0.00074
C 4.80596 7.17357 -0.00518
C 6.04679 6.46486 0.0086
C 5.98265 5.06011 -0.00643
C 4.80987 4.37342 0.017
C 4.77796 2.85573 -0.03113
C 6.01067 2.1977 -0.02566
C 5.97631 0.73909 -0.00094
C 4.80966 0.11313 0.02322
C 7.32069 32.6401 -0.00725
C 8.58862 32.06479 -0.05697
C 8.57396 30.64291 0.01087
C 7.39286 29.90907 -0.01343
C 7.339 28.5043 0.00988
C 8.54932 27.80592 0.0276
C 8.6063 26.36535 0.01305
C 7.43797 25.63133 -0.00077
C 7.32542 24.21374 0.03368
C 8.5673 23.50581 -0.02929
C 8.56531 22.09772 -0.00966
C 7.30851 21.39186 -0.03337
C 7.33572 19.9711 0.01227
C 9.73275 24.21284 0.03693
C 3.67731 31.98217 0.00748
C 18.63335 14.84955 0.02188
C 17.30242 12.75216 0.02691
C 29.50776 11.32312 -0.02155
C 30.74426 10.60109 -0.00944
C 30.72006 9.23355 -0.03735
C 29.43656 8.46078 -0.00971
C 29.46594 7.02178 0.01518
C 30.71391 6.33342 0.01908
C 30.64671 4.8795 0.07705
C 29.43671 4.1558 0.0103
C 29.49061 2.81499 0.02108
C 30.74406 2.04101 0.00716
C 29.31482 12.71615 -0.01461
C 30.69593 0.6346 0.00307
C 31.91478 32.59084 0.01713
C 33.15758 31.89976 -0.01694
C 33.14104 30.45042 0.01428
C 31.93039 29.68377 -0.02142
C 31.93543 28.35635 0.0544
C 33.14059 27.59509 0.00026
C 33.11344 26.14045 0.00682
C 31.81728 25.43487 -0.01779
C 31.91705 24.09912 0.03794
C 33.16764 23.38005 0.01927
C 29.43759 0.00278 0.00346
C 33.14713 21.91755 0.01574
C 30.48508 13.62659 -0.01303
C 31.03242 18.42932 0.01705
C 28.20627 9.21347 0.00235
C 27.02443 8.46548 0.01495
C 27.02331 7.02008 0.01259
C 28.28114 6.29959 0.01799
C 28.24076 4.85392 0.01699
C 27.03216 4.18406 -0.00416
C 26.96298 2.73383 0.01177
C 28.26731 2.09578 0.04266
C 28.20798 0.69698 0.01324
C 26.99357 0.0351 0.0014
C 30.73114 15.00703 -0.0405
C 29.52326 32.66362 0.00924
C 30.64789 30.42056 0.00261
C 29.4273 29.79061 0.03265
C 29.37746 28.30431 -0.02049
C 30.6194 27.64561 -0.01854
C 30.56571 26.21597 -0.01415
C 29.45832 25.50649 -0.03039
C 29.50919 23.9734 0.01836
C 30.70405 23.28418 0.03531
C 30.69207 21.7781 -0.00669
C 29.37508 21.39669 0.0101
C 30.75816 31.81031 0.02326
C 31.90899 21.04701 -0.02383
C 31.95163 19.62589 -0.01429
C 33.28344 19.15414 -0.0136
C 1.15708 23.40107 0.00723
C 1.2325 21.96722 0.02712
C 34.42413 21.27881 -0.02213
C 34.40091 19.88528 0.01951
C 1.18549 19.10114 -0.01678
C 1.13202 17.7089 0.01223
C 34.35991 16.99331 0.00648
C 34.37971 15.61538 0.02114
C 1.21692 14.90589 -0.02957
C 1.19522 13.49955 0.00343
C 34.3178 24.10438 0.03076
C 34.34777 12.82196 -0.02656
C 1.25732 10.71771 -0.00027
C 1.14744 9.28099 -0.00583
C 34.38675 8.5819 -0.02302
C 34.38379 7.11422 -0.02849
C 1.19069 6.36284 0.02931
C 1.17358 4.97168 0.00628
C 34.38337 4.22734 -0.0345
C 34.34231 2.79398 -0.00931
C 1.18925 2.1461 -0.00939
C 1.14231 0.69356 -0.00468
C 34.43112 11.43013 -0.02442
C 34.36805 25.51823 -0.05239
C 1.11963 26.23807 -0.00598
C 1.13814 27.6076 -0.00439
C 33.22866 17.79645 0.00594
C 31.84152 17.39664 -0.02474
C 31.74078 15.94819 0.00369
C 33.06338 15.06616 0.00455
C 33.10629 13.59663 -0.00644
C 31.90231 12.86535 -0.01839
C 31.95907 11.39661 0.00137
C 33.20181 10.65191 0.00199
C 33.13873 9.26213 0.04381
C 31.95851 8.43455 0.02806
C 31.90734 7.00704 0.01504
C 33.18122 6.36251 -0.00069
C 33.12941 4.94997 0.04926
C 31.87853 4.24783 -0.03838
C 31.89025 2.84998 0.00349
C 33.01999 2.11042 -0.00323
C 32.9817 0.65438 -0.00841
C 31.89973 34.04795 0.0001
C 34.34004 32.66717 -0.02927
C 1.16702 31.94365 -0.01404
C 1.22562 30.50193 0.01027
C 34.36863 29.75492 0.01831
C 34.35745 28.40497 -0.01037
C 28.32016 10.64743 0.01094
C 18.62628 13.40029 -0.01979
C 27.23384 11.51488 0.02198
C 28.20128 23.26424 -0.00621
C 20.91396 17.95557 0.0106
C 19.78546 17.08516 -0.01154
C 19.8345 15.65703 -0.01721
C 21.09007 15.00905 -0.02422
C 21.2528 13.51472 0.01277
C 19.90029 12.79413 0.00096
C 19.77898 11.3804 -0.01527
C 21.03218 10.59404 0.01087
C 20.97565 9.1711 0.00199
C 19.75045 8.49023 0.01511
C 20.78701 19.12854 -0.01594
C 19.61373 7.07255 -0.00478
C 20.88724 5.01891 -0.01185
C 19.66001 4.25355 0.01126
C 19.71971 2.8492 0.01852
C 20.89453 2.116 -0.00381
C 20.88268 0.68831 0.03046
C 19.64346 0.02956 0.0296
C 22.03623 32.69044 0.03374
C 23.30815 31.94863 -0.02845
C 23.29265 30.48932 -0.03213
C 22.13553 29.76895 0.02239
C 20.92014 6.49382 -0.01662
C 22.02201 28.3367 0.01153
C 19.68343 19.9824 0.00742
C 20.83404 22.08617 0.00675
C 17.21586 11.27668 -0.01581
C 18.51576 10.67914 0.01452
C 18.48855 9.19521 0.04892
C 17.26525 8.54201 -0.00111
C 17.17724 7.11538 -0.03557
C 18.41575 6.34986 0.03754
C 18.41554 4.94721 0.01739
C 17.24478 4.21275 0.00755
C 17.19374 2.77509 -0.0054
C 18.46152 2.21268 0.00667
C 19.58424 21.36289 -0.00311
C 18.40819 0.70804 0.00143
C 19.59162 32.74025 0.00364
C 20.84651 31.96029 -0.00831
C 20.86955 30.4893 -0.02957
C 19.62517 29.79598 -0.04422
C 19.57029 28.456 0.00654
C 20.80017 27.72508 -0.00703
C 20.74546 26.34937 -0.04076
C 19.5922 25.62513 -0.00652
C 19.54813 24.20473 0.0058
C 20.80413 23.55357 -0.00865
C 17.16629 0.09589 -0.017
C 23.24708 27.74878 0.02734
C 23.28008 26.32163 -0.0055
C 22.00854 25.64363 0.01515
C 23.81488 12.82321 -0.01052
C 24.55718 11.49211 -0.01679
C 25.97525 10.86883 0.00367
C 25.9413 9.29476 0.04306
C 24.68642 8.55594 0.00996
C 24.57747 7.0986 0.00195
C 25.75505 6.40433 -0.00802
C 25.77806 4.97916 -0.00218
C 24.5227 4.27961 -0.01654
C 24.50992 2.83486 -0.00037
C 25.64027 23.47178 0.00684
C 25.73846 2.1222 -0.0032
C 24.44496 34.05855 -0.02815
C 27.00905 32.72579 -0.00942
C 28.2241 31.95004 0.00487
C 28.24807 30.58409 0.00826
C 27.00047 29.80118 -0.00294
C 27.00096 28.31433 0.00152
C 28.11981 27.63216 0.01257
C 28.13207 26.17757 0.02316
C 26.97861 25.4525 0.04185
C 26.95802 24.01903 0.00194
C 25.68687 0.71281 0.00622
C 24.4036 24.09426 -0.01154
C 24.50057 25.52215 -0.0264
C 25.79697 26.21236 -0.00938
C 22.08694 24.17119 -0.00225
C 23.22346 23.47258 0.00071
C 23.15032 22.01295 -0.01107
C 22.08694 21.47711 -0.01586
C 22.48636 12.76788 -0.01971
C 22.16794 11.33204 -0.02118
C 23.39893 10.622 0.00733
C 23.42854 9.14624 -0.00178
C 22.1621 8.49607 0.00768
C 22.16261 7.15397 -0.0276
C 23.34589 6.42684 0.03005
C 23.36006 4.99394 -0.04078
C 22.11418 4.28954 0.02117
C 22.12506 2.84344 0.02737
C 23.33804 2.17745 -0.00498
C 23.2988 0.74746 0.00135
C 22.08841 34.07041 0.03102
C 24.44895 32.69317 0.02555
C 25.68557 31.98283 0.01423
C 25.79684 30.53678 -0.00285
C 24.58288 29.80796 -0.009
C 24.62787 28.37844 -0.01199
C 25.80254 27.62924 -0.00229
C 28.27945 21.83748 0.02611
C 2.43197 32.70944 0.03345
