439
Graphene
C 0.0412 34.07311 0.01295
C 12.28625 19.89491 -0.00334
C 13.39393 19.24122 0.02339
C 13.42923 17.80403 0.01641
C 12.21926 17.07286 -0.00719
C 12.26088 15.6947 0.01364
C 13.47302 14.93249 -0.01062
C 13.50996 13.46033 -0.00033
C 12.23999 12.86897 0.03589
C 12.2562 11.35401 -0.02759
C 13.50662 10.67693 0.0402
C 13.56469 9.28497 0.00572
C 12.31756 8.51344 0.03592
C 12.27827 7.09945 0.00406
C 13.53954 6.34429 0.00943
C 13.50498 4.93626 0.02841
C 12.24112 4.23693 -0.01111
C 12.26704 2.80807 -0.01275
C 13.44548 2.13568 0.00985
C 13.54737 0.66157 -0.02245
C 12.24713 34.03514 -0.00428
C 14.72192 32.64895 0.03101
C 16.03108 31.84256 -0.01536
C 15.96815 30.51743 -0.02689
C 12.26096 21.37311 -0.01634
C 13.48799 22.10652 0.00057
C 13.4908 23.45466 0.00093
C 12.27063 24.19494 0.01291
C 9.85024 15.68123 0.01572
C 10.98816 14.92577 -0.04848
C 11.04457 13.49476 -0.00892
C 9.84878 12.76657 -0.01362
C 9.80424 11.35556 -0.0008
C 11.11069 10.59964 0.0288
C 11.09606 9.2481 0.00393
C 9.85921 8.54271 0.00895
C 9.85711 7.15941 0.00685
C 11.08281 6.40833 0.02888
C 11.09469 4.94449 -0.00482
C 14.74457 29.79359 -0.01046
C 9.82922 4.31174 -0.01384
C 11.04111 2.12934 0.01745
C 11.01173 0.68614 0.00488
C 9.8311 0.02592 -0.01004
C 12.26375 32.65382 -0.02896
C 13.457 31.95899 -0.00131
C 13.51935 30.53669 -0.01118
C 12.27287 29.83609 -0.014
C 12.29927 28.44975 0.02147
C 13.5197 27.74106 0.00373
C 13.5331 26.34724 -0.00191
C 12.33204 25.59922 0.00438
C 9.79064 2.8707 0.03693
C 9.80427 17.04747 -0.00095
C 14.76182 28.46845 -0.00891
C 15.9923 26.28385 0.00165
C 17.23515 29.78985 -0.01957
C 17.18781 28.32654 -0.0108
C 18.46693 27.71466 -0.00368
C 18.47038 26.2182 -0.02696
C 17.23722 25.51662 -0.00114
C 17.24833 24.16472 0.00228
C 18.40505 23.37901 0.00798
C 18.38969 21.96396 0.00422
C 17.16018 21.2727 0.0351
C 17.11225 19.95711 -0.03113
C 18.25853 19.13345 0.02098
C 18.34266 17.76737 0.01848
C 17.1422 17.03994 -0.00619
C 17.12033 15.61661 -0.02162
C 18.41146 15.07027 0.00889
C 18.58743 13.64674 -0.00481
C 17.32413 12.85771 0.00979
C 17.28939 11.48625 0.01443
C 18.40399 10.69942 0.03505
C 18.44854 9.27113 -0.02815
C 17.22876 8.54425 -0.04147
C 17.20714 7.08482 -0.05302
C 18.35353 6.36064 0.00213
C 18.40858 30.48168 0.02058
C 18.45345 31.98585 0.01965
C 17.17449 32.69679 -0.03682
C 14.70545 34.0764 0.00052
C 14.72808 25.63743 -0.02971
C 14.78574 24.12095 0.02894
C 16.03512 23.42225 -0.01789
C 15.92237 22.01725 0.00444
C 14.65783 21.35914 -0.00925
C 14.59695 19.96075 0.01877
C 15.87328 19.20179 0.01363
C 15.90889 17.7756 -0.02162
C 14.67192 17.05039 0.00415
C 14.61622 15.61722 -0.0014
C 15.92113 14.86667 0.02162
C 15.99466 27.7091 0.02819
C 15.99617 13.51895 0.0076
C 14.79561 11.31911 -0.01454
C 16.01639 10.7143 0.01945
C 16.01846 9.28612 0.01416
C 14.8099 8.58435 0.03542
C 14.77295 7.0181 0.02299
C 15.97715 6.43104 0.00244
C 15.92503 5.00277 -0.01717
C 14.77721 4.19288 0.05265
C 14.68938 2.80391 -0.01952
C 15.90416 2.1497 -0.02813
C 15.89899 0.67745 0.00374
C 14.8062 12.77976 0.01241
C 18.36472 4.96069 -0.00066
C 11.01449 17.83282 0.03007
C 9.73647 19.9546 -0.00494
C 3.71931 0.7667 0.00088
C 2.46258 0.0095 0.00828
C 4.93842 32.63419 -0.02375
C 6.10357 31.95239 0.00558
C 6.15599 30.50012 -0.0059
C 4.9826 29.82813 -0.01386
C 4.92447 28.39871 -0.02805
C 6.17537 27.6711 0.00081
C 6.17601 26.3041 0.00245
C 4.93565 25.53861 0.02728
C 4.88888 24.19242 -0.00039
C 6.18635 23.4278 0.0064
C 6.08435 22.00417 0.00211
C 4.84443 21.29828 -0.00449
C 4.87075 19.81392 -0.01979
C 6.0576 19.16383 0.02784
C 6.11315 17.80128 -0.01977
C 4.83661 16.96184 -0.00561
C 4.84839 15.62553 0.00208
C 6.04773 14.90984 0.01707
C 6.0573 13.44613 0.02769
C 4.83177 12.88588 -0.03291
C 4.79459 11.40309 -0.04999
C 3.74045 2.16965 0.04421
C 2.49649 2.85361 -0.00177
C 2.49289 4.27859 0.03278
C 3.70606 5.0098 0.01138
C 3.71811 30.46704 -0.0005
C 2.4707 29.83558 -0.00018
C 2.47997 28.43279 0.01073
C 3.6868 27.68917 0.01984
C 3.69809 26.28618 0.00535
C 2.44156 25.60202 -0.00198
C 2.40508 24.13917 -0.00012
C 3.68744 23.43366 -0.04306
C 3.68464 22.00988 -0.03672
C 2.47332 21.33595 0.01913
C 2.43242 19.85542 0.00267
C 6.06635 10.82019 0.04505
C 3.58207 19.14064 0.00787
C 2.39549 16.96434 0.01218
C 2.41785 15.5884 -0.01471
C 3.58676 14.88791 -0.02827
C 3.545 13.47417 0.01078
C 2.38379 12.72658 -0.00112
C 2.43306 11.37984 0.03345
C 3.65826 10.66653 0.00748
C 3.70779 9.26964 0.00662
C 2.42848 8.52453 -0.0154
C 2.48428 7.1694 -0.01299
C 3.71031 6.45236 -0.00407
C 3.66077 17.7293 0.02426
C 10.98539 19.2632 0.00054
C 6.2097 9.36797 0.03284
C 4.92634 7.16943 0.03189
C 8.54028 10.69361 -0.05697
C 8.62112 9.31958 0.01087
C 7.38592 8.61552 -0.01343
C 7.42693 7.14236 0.00988
C 8.68612 6.4277 0.0276
C 8.63026 4.99557 0.01305
C 7.43482 4.40683 -0.00077
C 7.36195 2.9414 0.03368
C 8.57263 2.22997 -0.02929
C 8.58202 0.8314 -0.00966
C 7.36284 0.02992 -0.03337
C 9.73763 32.69989 0.01227
C 10.92086 31.91317 0.00873
C 11.05156 30.55893 -0.00049
C 9.83307 29.89945 0.00848
C 9.87354 28.49629 -0.01303
C 11.08371 27.79313 -0.01378
C 11.0755 26.30017 0.02635
C 9.88218 25.63819 0.0127
C 9.82335 24.14636 0.01396
C 11.00658 23.52848 0.01849
C 11.08233 22.08847 -0.01142
C 9.83602 21.33966 -0.00562
C 7.33918 11.46559 -0.00725
C 7.32061 12.84132 0.02322
C 8.56319 13.60728 -0.00094
C 8.58721 15.00313 -0.02566
C 6.19977 6.50846 0.00031
C 6.16212 5.097 -0.003
C 4.97676 4.41736 0.01402
C 4.89986 2.92947 0.02379
C 6.11497 2.19715 0.00907
C 6.14845 0.72917 0.00643
C 4.93692 34.04512 -0.01509
C 7.34488 32.68515 0.03267
C 8.50362 31.98527 0.02374
C 8.52073 30.61352 0.00402
C 7.315 29.83448 0.0073
C 4.88391 8.59764 -0.04307
C 7.37814 28.38826 0.0174
C 8.5787 26.27877 0.01226
C 7.41316 25.56458 -0.00279
C 7.39521 24.19982 0.01996
C 8.65271 23.46993 -0.03996
C 8.55609 22.04233 0.01465
C 7.30427 21.33258 -0.00074
C 7.35304 19.91939 -0.00518
C 8.57097 19.14962 0.0086
C 8.62269 17.73551 -0.00643
C 7.27734 17.03648 0.017
C 7.34003 15.64118 -0.03113
C 8.65608 27.72552 0.03828
C 3.72995 31.96378 0.01116
C 17.14284 4.20946 -0.00289
C 18.36156 2.14455 -0.02213
C 30.73577 14.854 -0.0405
C 30.72412 13.46151 -0.01303
C 29.50787 12.75147 -0.01461
C 29.45925 11.19798 -0.02155
C 30.72093 10.58146 -0.00944
C 30.75994 9.14176 -0.03735
C 29.47979 8.42909 -0.00971
C 29.54127 7.01356 0.01518
C 30.73449 6.32176 0.01908
C 30.77664 4.87803 0.07705
C 29.49882 4.15769 0.0103
C 29.52937 2.84542 0.02108
C 30.7619 2.09704 0.00716
C 30.7337 0.64171 0.00307
C 29.52044 34.02275 0.00346
C 32.02557 32.66269 0.01713
C 33.22406 31.93931 -0.01694
C 33.18273 30.59733 0.01428
C 31.95484 29.82694 -0.02142
C 31.98193 28.47574 0.0544
C 33.14488 27.79258 0.00026
C 33.15576 26.30581 0.00682
C 31.88803 25.55311 -0.01779
C 29.44216 15.60746 0.01705
C 29.44882 17.00629 0.0101
C 30.67138 17.68378 -0.00669
C 30.6842 19.16704 0.03531
C 28.25222 10.54516 0.00194
C 28.24762 9.20864 -0.00621
C 26.97632 8.44362 0.02611
C 27.05365 7.0909 0.02198
C 28.29891 6.27578 0.01094
C 28.37661 4.89674 0.00235
C 27.02892 4.22237 0.01495
C 27.0545 2.87001 0.01259
C 28.30779 2.11852 0.01799
C 28.28224 0.7002 0.01699
C 27.01339 34.04726 -0.00416
C 31.91317 24.19832 0.03794
C 29.50494 32.65912 0.01177
C 30.78885 30.5715 0.01324
C 29.48022 29.87149 0.0014
C 29.48563 28.3798 0.00924
C 30.68856 27.72359 0.02326
C 30.68995 26.3415 0.00261
C 29.50555 25.58354 0.03265
C 29.54622 24.18898 -0.02049
C 30.66491 23.42811 -0.01854
C 30.66042 21.97753 -0.01415
C 29.39985 21.30939 -0.03039
C 29.42539 19.8319 0.01836
C 30.74977 31.99395 0.04266
C 27.02755 11.31347 0.04185
C 33.173 23.46797 0.01927
C 31.98461 21.30957 -0.02383
C 34.39506 24.1151 0.03076
C 1.21236 23.39931 0.00723
C 1.23301 21.9752 0.02712
C 34.39017 21.33616 -0.02213
C 34.34254 19.82374 0.01951
C 1.20089 19.20559 -0.01678
C 1.1146 17.71481 0.01223
C 34.30478 16.94116 0.00648
C 34.35251 15.49888 0.02114
C 1.10673 14.85726 -0.02957
C 1.11503 13.48212 0.00343
C 34.41804 12.71461 -0.02656
C 34.41655 11.2446 -0.02442
C 1.2199 10.64386 -0.00027
C 1.2154 9.16318 -0.00583
C 0.02129 8.41505 -0.02302
C 0.05404 7.04597 -0.02849
C 1.27594 6.41866 0.02931
C 1.30998 4.97082 0.00628
C 0.02719 4.25291 -0.0345
C 0.08044 2.82231 -0.00931
C 1.30846 2.12992 -0.00939
C 1.28502 0.72219 -0.00468
C 34.39973 25.62906 -0.05239
C 1.15886 26.26207 -0.00598
C 1.16076 27.71171 -0.00439
C 34.39878 28.44915 -0.01037
C 31.87959 19.90582 -0.01429
C 33.12099 19.12288 -0.0136
C 33.1352 17.72269 0.00594
C 31.84512 17.03806 -0.02474
C 31.86794 15.54102 0.00369
C 33.11317 14.80424 0.00455
C 33.1843 13.40091 -0.00644
C 31.98564 12.70573 -0.01839
C 31.97436 11.2755 0.00137
C 33.18708 10.5961 0.00199
C 33.22937 9.16396 0.04381
C 33.21988 21.98516 0.01574
C 31.98731 8.41381 0.02806
C 33.20632 6.3351 -0.00069
C 33.23863 4.85866 0.04926
C 32.02338 4.21116 -0.03838
C 31.98914 2.77312 0.00349
C 33.28448 2.08006 -0.00323
C 33.23476 0.64589 -0.00841
C 31.98908 34.0319 0.0001
C 0.06974 32.65873 -0.02927
C 1.2444 31.9264 -0.01404
C 1.22773 30.55217 0.01027
C 0.01297 29.89137 0.01831
C 32.02086 7.01086 0.01504
C 17.1506 2.86166 0.00028
C 27.04148 12.75298 0.02316
C 28.18976 14.88244 0.00152
C 19.67516 0.03493 -0.04076
C 22.14992 32.70326 -0.00652
C 23.33215 31.98475 0.0058
C 23.33488 30.53366 -0.00865
C 22.17028 29.89265 0.00675
C 22.12983 28.47538 -0.00311
C 23.41468 27.71965 0.00742
C 23.36962 26.28608 -0.01594
C 22.14616 25.57062 0.0106
C 22.14364 24.11074 -0.01154
C 23.33102 23.42009 -0.01721
C 23.29345 21.90942 -0.02422
C 22.11593 21.15567 0.01277
C 21.98652 19.67612 0.00096
C 23.41387 18.99636 -0.01527
C 23.3396 13.58169 0.01087
C 22.19804 12.91517 0.00199
C 22.14999 11.38279 0.01511
C 23.38529 10.62907 -0.00478
C 23.34967 9.22128 -0.01662
C 22.03584 8.52206 -0.01185
C 21.99795 7.09952 0.01126
C 23.25597 6.37763 0.01852
C 20.87342 0.77748 -0.00703
C 20.86437 2.1697 0.00654
C 19.55318 2.81835 -0.04422
C 19.57998 4.24469 -0.02957
C 18.40186 0.7304 0.03698
C 17.11748 0.04579 -0.00109
C 19.5989 32.71071 -0.00491
C 20.85111 32.01618 0.03338
C 20.9384 30.60349 -0.0258
C 19.68849 29.9104 -0.0331
C 19.68249 28.43354 -0.00316
C 20.92325 27.73082 0.02188
C 20.93866 26.22232 -0.01979
C 19.67781 25.45163 0.02691
C 19.73496 24.08313 -0.01581
C 23.29339 5.00648 -0.00381
C 20.89451 23.40318 0.01452
C 19.62002 21.29285 -0.00111
C 19.62275 19.85307 -0.03557
C 20.76067 19.03286 0.03754
C 19.90872 12.88471 0.01739
C 19.70531 11.49777 0.00755
C 20.93878 10.71215 -0.0054
C 20.90758 9.30723 0.00667
C 19.62435 8.57639 0.00143
C 19.61253 7.20931 -0.017
C 20.8348 6.39441 0.00364
C 20.80641 4.92439 -0.00831
C 20.90673 21.99439 0.04892
C 28.25519 13.48405 0.01257
C 22.08071 4.28265 0.03046
C 23.27805 2.14726 0.03374
C 25.8109 4.93434 -0.01199
C 24.52418 4.31589 -0.00229
C 24.554 2.85313 -0.00938
C 25.82182 2.17649 -0.0264
C 25.78632 0.70655 -0.01154
C 24.53208 0.04009 0.00684
C 27.05011 32.69683 -0.01052
C 28.24144 31.95354 -0.01679
C 28.23224 30.53866 0.00367
C 27.0579 29.80386 0.04306
C 27.04671 28.39137 0.00996
C 28.28906 27.6437 0.00195
C 28.24614 26.27712 -0.00802
C 27.02049 25.54659 -0.00218
C 27.06777 24.10489 -0.01654
C 28.26356 23.44577 -0.00037
C 28.27785 22.04732 -0.0032
C 27.00801 21.24582 0.00622
C 26.9824 19.87379 -0.02815
C 28.25129 19.12065 -0.00942
C 28.15239 17.74617 0.00487
C 26.97546 17.07647 0.00826
C 26.95168 15.65378 -0.00294
C 25.79021 6.38947 -0.009
C 24.51646 7.12737 -0.00285
C 24.56653 8.55811 0.01423
C 25.76477 9.15295 0.02555
C 23.2938 0.73751 -0.02845
C 22.10452 0.06416 -0.03213
C 24.55832 32.65454 0.02239
C 25.79923 31.97742 0.01153
C 25.80229 30.50118 0.02734
C 24.58015 29.86577 -0.0055
C 24.65257 28.48198 0.01515
C 25.81107 27.68663 -0.00225
C 25.80376 26.24072 0.00071
C 24.57875 25.61479 -0.01107
C 24.54375 24.12758 -0.01586
C 22.05266 2.93578 0.0296
C 25.79284 23.43888 -0.01971
C 24.50254 21.31239 0.00733
C 24.51139 19.76098 -0.00178
C 25.77484 19.17805 0.00768
C 25.68549 17.77687 -0.0276
C 24.35878 17.23102 0.03005
C 24.45767 15.61319 -0.04078
C 25.82885 14.91785 0.02117
C 25.83681 13.48042 0.02737
C 24.54952 12.7539 -0.00498
C 24.60844 11.31892 0.00135
C 25.76428 10.6538 0.03102
C 25.7554 22.04614 -0.02118
C 2.53547 32.66523 -0.0213
