354
Graphene
C 34.27641 0.05267 0.01295
C 9.75859 0.01737 -0.02696
C 12.28963 32.76404 -0.00114
C 13.43642 32.00268 0.00228
C 12.42491 17.03721 0.00798
C 12.30308 15.62288 0.00422
C 13.45658 14.96887 0.0351
C 13.55158 13.6102 -0.03113
C 12.31302 12.82035 0.02098
C 11.02387 0.70822 -0.00368
C 12.31811 11.39351 0.01848
C 13.60589 9.2473 -0.02162
C 12.34792 8.48814 0.00889
C 12.37421 7.03975 -0.00481
C 13.56063 6.32262 0.00979
C 13.51769 4.85404 0.01443
C 12.32057 4.24995 0.03505
C 12.28279 2.7859 -0.02815
C 13.49958 2.02802 -0.04147
C 13.57382 10.68287 -0.00619
C 13.52306 0.6432 -0.05302
C 10.98595 2.16658 -0.0108
C 9.81986 4.27252 0.02058
C 7.27029 34.04392 -0.0014
C 9.70774 32.68439 0.02162
C 11.0498 32.01566 0.0076
C 11.04834 30.59465 0.01241
C 9.76484 30.0664 -0.01454
C 11.35368 17.68946 0.01945
C 9.95168 17.04194 0.01416
C 9.82981 15.63556 0.03542
C 9.77573 2.84034 -0.01957
C 11.00256 14.8932 0.02299
C 9.89489 12.72854 -0.01717
C 9.85752 11.3766 0.05265
C 11.15844 10.65547 -0.01952
C 11.09522 9.19108 -0.02813
C 9.86491 8.52154 0.00374
C 9.89778 7.11927 0.00052
C 11.047 6.3534 -0.03682
C 11.04946 4.89245 0.01965
C 11.08372 13.445 0.00244
C 8.52079 0.75938 0.00415
C 12.26157 0.06106 0.00213
C 15.9776 31.79895 -0.00289
C 18.45463 15.14232 0.00143
C 18.42973 13.65059 -0.017
C 17.20577 12.88298 0.00364
C 17.22277 11.41826 -0.00831
C 18.50188 10.72505 -0.02957
C 18.45133 9.3073 -0.04422
C 17.26178 8.5059 0.00654
C 17.2346 7.09743 -0.00703
C 17.12992 15.85175 0.00667
C 18.42924 6.32615 -0.04076
C 17.1847 4.20386 0.0058
C 17.124 2.78652 -0.00865
C 18.3999 2.20043 0.00675
C 18.3919 0.71469 -0.00311
C 17.17215 34.02608 0.00742
C 19.6596 32.67001 -0.01594
C 20.85169 31.87128 0.0106
C 20.89223 30.45449 -0.01154
C 18.40261 4.88933 -0.00652
C 14.75866 32.555 -0.00066
C 16.76741 17.21196 -0.0054
C 18.43894 31.90441 0.01739
C 14.39043 17.0849 0.00028
C 14.63419 15.77807 -0.02213
C 15.96744 14.98002 0.03698
C 16.01095 13.59479 -0.00109
C 14.7768 12.83966 -0.00491
C 14.81566 11.40301 0.03338
C 15.99762 10.68745 -0.0258
C 16.04126 9.23192 -0.0331
C 18.62465 30.31245 0.00755
C 14.79389 8.45258 -0.00316
C 15.92786 6.30861 -0.01979
C 15.95558 4.85119 0.02691
C 14.75378 4.21421 -0.01581
C 14.74375 2.77611 0.01452
C 15.89239 1.99369 0.04892
C 15.9094 0.54763 -0.00111
C 14.73754 34.00494 -0.03557
C 17.13259 32.56286 0.03754
C 14.74773 7.02433 0.02188
C 8.49136 2.16086 -0.02162
C 7.32966 2.9239 0.01363
C 7.37447 4.35224 0.01877
C 2.45696 7.12269 0.00054
C 3.74801 6.44795 0.03007
C 3.64798 5.02712 -0.00095
C 2.42845 4.29147 0.01572
C 2.36554 2.91363 -0.04848
C 3.5072 2.13969 -0.00892
C 3.62046 0.71462 -0.01362
C 2.36731 34.07745 -0.0008
C 2.45592 8.59743 -0.00494
C 4.82532 32.69039 0.0288
C 5.99791 30.57115 0.00895
C 4.86373 29.82008 0.00685
C 4.89581 28.47979 0.02888
C 6.17536 27.75594 -0.00482
C 6.13608 26.30331 -0.01384
C 4.90545 25.60478 0.03693
C 4.92003 24.19113 0.01745
C 6.16877 23.43816 0.00488
C 6.06426 31.9459 0.00393
C 6.19499 22.01077 -0.01004
C 3.75285 9.20977 -0.00562
C 2.46825 11.38458 0.01849
C 3.57234 30.59275 -0.01343
C 2.34699 29.83418 0.00988
C 2.42794 28.40366 0.0276
C 3.68109 27.76346 0.01305
C 3.74064 26.30141 -0.00077
C 2.46964 25.61301 0.03368
C 2.44081 24.20288 -0.02929
C 3.69052 23.41774 -0.00966
C 3.75075 10.65833 -0.01142
C 3.70119 22.04174 -0.03337
C 2.42556 19.90306 0.00873
C 3.68328 19.15214 -0.00049
C 3.67721 17.74064 0.00848
C 2.4205 17.10665 -0.01303
C 2.41044 15.66269 -0.01378
C 3.66674 15.014 0.02635
C 3.62994 13.57041 0.0127
C 2.43083 12.86007 0.01396
C 2.47055 21.34884 0.01227
C 4.8466 21.32948 -0.02896
C 4.91153 19.92581 -0.00131
C 6.18859 19.26793 -0.01118
C 7.25831 25.53286 0.02841
C 7.4208 24.08846 -0.01111
C 7.37462 21.34954 -0.01275
C 7.42807 19.97822 0.00985
C 8.60826 19.10317 -0.02245
C 8.64633 17.7485 -0.00428
C 7.35965 17.08903 0.03101
C 7.39351 15.7361 -0.01536
C 7.38787 28.44199 0.00943
C 8.57125 14.98436 -0.02689
C 7.43181 12.82224 -0.00891
C 7.38824 11.35779 0.02819
C 8.65558 10.65538 0.00165
C 8.68249 9.23857 -0.02971
C 7.41096 8.59906 0.02894
C 7.37898 7.06482 -0.01789
C 8.60844 6.40247 0.00444
C 8.60678 4.995 -0.00925
C 8.68617 13.52227 -0.01046
C 7.23932 29.85654 0.00406
C 8.51837 30.58598 0.03592
C 8.46785 32.00018 0.00572
C 6.18111 17.7842 -0.014
C 4.89709 17.13834 0.02147
C 4.86895 15.75426 0.00373
C 6.10733 14.87816 -0.00191
C 6.11959 13.4535 0.00438
C 4.88894 12.76571 0.01291
C 4.96573 11.33876 0.00093
C 6.16401 10.66009 0.00057
C 6.17193 9.223 -0.01634
C 4.96593 8.53297 -0.00334
C 4.98369 7.17737 0.02339
C 6.16088 6.43102 0.01641
C 6.13735 5.04435 -0.00719
C 4.92042 4.30696 0.01364
C 4.76426 2.81065 -0.01062
C 6.10711 2.16313 -0.00033
C 6.11516 0.73826 0.03589
C 4.8455 0.02525 -0.02759
C 7.295 32.6332 0.0402
C 19.73332 29.66614 -0.01721
C 20.76197 27.88653 -0.02422
C 19.68562 15.74713 0.01277
C 20.90348 14.95985 0.00096
C 31.974 32.69088 0.01713
C 33.12292 31.95143 -0.01694
C 33.0572 30.54502 0.01428
C 31.86205 29.7884 -0.02142
C 31.94107 28.37367 0.0544
C 33.20608 27.70244 0.00026
C 33.16063 26.31502 0.00682
C 31.92219 25.5742 -0.01779
C 29.42053 0.0497 0.00346
C 31.96316 24.1021 0.03794
C 33.11899 22.10169 0.01574
C 31.919 21.29831 -0.02383
C 31.91513 19.91272 -0.01429
C 33.19034 19.17149 -0.0136
C 33.22264 17.73958 0.00594
C 31.9568 16.96466 -0.02474
C 31.94121 15.58535 0.00369
C 33.17201 14.93906 0.00455
C 33.19514 23.48687 0.01927
C 33.20878 13.52294 -0.00644
C 30.63241 0.76127 0.00307
C 30.892 9.23672 0.02108
C 29.44795 28.35757 -0.01415
C 30.69921 27.66311 -0.03039
C 30.66771 26.21318 0.01836
C 29.4804 25.53343 0.03531
C 29.55028 24.15023 -0.00669
C 30.78713 23.417 0.0101
C 30.77035 21.9799 0.01705
C 29.43986 21.24848 -0.0405
C 30.61288 2.12667 0.00716
C 29.46691 19.86821 -0.01303
C 30.72346 17.73615 -0.02155
C 29.43627 17.01477 -0.00944
C 29.50603 15.53308 -0.03735
C 30.74117 14.84053 -0.00971
C 30.68298 13.43403 0.01518
C 29.40969 12.6985 0.01908
C 29.51289 11.29908 0.07705
C 30.80854 10.65684 0.0103
C 30.70091 19.1402 -0.01461
C 31.98095 12.76076 -0.01839
C 32.00264 11.33271 0.00137
C 33.22128 10.5984 0.00199
C 1.18811 19.18485 -0.01678
C 1.16294 17.77639 0.01223
C 34.37541 17.08844 0.00648
C 34.41764 15.70034 0.02114
C 1.19123 14.95439 -0.02957
C 1.19812 13.45882 0.00343
C 34.4229 12.82648 -0.02656
C 0.00698 11.31481 -0.02442
C 34.42503 19.9375 0.01951
C 1.27644 10.70343 -0.00027
C 34.38063 8.50032 -0.02302
C 0.02733 7.08063 -0.02849
C 1.3091 6.45339 0.02931
C 1.21478 5.07566 0.00628
C 0.03971 4.25313 -0.0345
C 34.34297 2.84803 -0.00931
C 1.11701 2.13869 -0.00939
C 1.06853 0.7184 -0.00468
C 1.18663 9.27519 -0.00583
C 34.41943 21.37566 -0.02213
C 1.24584 22.0171 0.02712
C 1.2368 23.43481 0.00723
C 33.16569 9.13163 0.04381
C 31.91946 8.40179 0.02806
C 32.06515 6.9381 0.01504
C 33.23298 6.29222 -0.00069
C 33.22219 4.90925 0.04926
C 31.92973 4.42569 -0.03838
C 31.71094 2.89126 0.00349
C 33.02294 2.21142 -0.00323
C 33.09649 0.83012 -0.00841
C 31.92289 34.07338 0.0001
C 34.39792 32.69148 -0.02927
C 1.20887 32.0178 -0.01404
C 1.10746 30.61401 0.01027
C 34.2969 29.87469 0.01831
C 34.40658 28.37355 -0.01037
C 1.17973 27.73712 -0.00439
C 1.1594 26.32617 -0.00598
C 34.36895 25.59825 -0.05239
C 34.41223 24.15211 0.03076
C 29.41122 29.81327 -0.01854
C 3.5645 32.02842 0.01087
C 30.64222 30.54538 -0.02049
C 29.4113 32.66129 0.00261
C 23.62294 22.99676 -0.01107
C 23.41253 19.38636 -0.01586
C 23.19658 17.94327 -0.01971
C 22.10114 17.03404 -0.02118
C 22.15504 15.60759 0.00733
C 23.3951 14.87467 -0.00178
C 23.4154 13.40523 0.00768
C 22.14075 12.73699 -0.0276
C 22.11617 25.51771 0.00071
C 22.13457 11.28761 0.03005
C 22.06093 8.27635 0.02117
C 22.09353 4.19969 0.02737
C 22.1662 2.84945 -0.00498
C 23.37824 1.9361 0.00135
C 23.30789 0.59309 0.03102
C 22.06867 33.94901 0.02555
C 24.54222 32.62496 0.01423
C 25.77423 32.02328 -0.00285
C 23.35677 10.67095 -0.04078
C 25.80314 30.5798 -0.009
C 23.2946 26.15524 -0.00225
C 21.99367 28.31188 -0.0055
C 20.90616 13.54324 -0.01527
C 19.6483 12.91453 0.01087
C 19.77556 11.46506 0.00199
C 20.94706 10.65393 0.01511
C 20.94883 9.12211 -0.00478
C 19.60048 8.56799 -0.01662
C 19.66528 7.15388 -0.01185
C 20.9549 6.64594 0.01126
C 23.29648 27.65649 0.01515
C 21.04271 5.00329 0.01852
C 19.7409 2.87766 0.03046
C 20.88389 2.08341 0.0296
C 20.88261 0.63745 0.03374
C 19.64837 0.00711 -0.02845
C 22.00094 32.5598 -0.03213
C 23.30754 31.8734 0.02239
C 23.3995 30.52884 0.01153
C 22.18611 29.83139 0.02734
C 19.65682 4.24847 -0.00381
C 24.60349 29.83368 -0.01199
C 24.51915 28.33676 -0.00229
C 25.69969 27.617 -0.00938
C 28.28133 26.23545 0.04185
C 27.10205 25.58201 0.00194
C 27.10557 24.10218 -0.00621
C 28.33167 23.43456 0.02611
C 28.32382 22.05015 0.02198
C 26.99187 21.37449 0.01094
C 26.94012 19.92408 0.00235
C 28.19784 19.19807 0.01495
C 28.22337 27.66034 0.02316
C 28.18478 17.7388 0.01259
C 27.03634 15.5922 0.01699
C 28.29943 14.89611 -0.00416
C 28.27677 13.47389 0.01177
C 26.97127 12.80675 0.04266
C 27.14479 11.35605 0.01324
C 28.22009 10.68999 0.0014
C 28.27106 0.867 0.00924
C 26.97619 0.26343 0.02326
C 26.9569 17.06959 0.01799
C 26.92505 28.32401 0.01257
C 27.0011 29.86017 0.00152
C 28.15396 30.57776 -0.00294
C 25.83893 26.25181 -0.0264
C 24.5526 25.44379 -0.01154
C 24.64875 23.98657 0.00684
C 25.95602 23.42877 -0.01052
C 25.76961 22.03349 -0.01679
C 24.46839 21.72293 0.00367
C 24.4805 20.14354 0.04306
C 25.68692 19.28017 0.00996
C 25.6839 17.87123 0.00195
C 24.47552 17.20407 -0.00802
C 24.52567 15.68847 -0.00218
C 25.7412 14.90825 -0.01654
C 25.81142 13.54219 -0.00037
C 24.64111 12.67558 -0.0032
C 24.73611 11.33257 0.00622
C 25.61112 0.80772 -0.02815
C 24.52442 34.02108 -0.00942
C 26.98585 32.79755 0.00487
C 28.20172 32.04208 0.00826
C 30.70335 31.93456 0.03265
C 2.37568 32.75986 -0.05697
