368
Graphene
C 0.02164 0.04661 0.01295
C 12.34446 4.24615 -0.01952
C 12.25879 2.89393 -0.02813
C 13.50732 2.17609 0.00374
C 13.58325 0.71588 0.00052
C 12.32923 0.06572 -0.03682
C 14.7804 32.68167 0.01965
C 15.91746 31.91077 0.02058
C 15.92541 30.47807 -0.01957
C 14.71793 29.67936 -0.0108
C 14.76478 28.31805 -0.00368
C 16.06968 27.73587 -0.02696
C 16.03487 26.17011 -0.00114
C 14.79578 25.58171 0.00228
C 16.03905 9.14302 0.00798
C 14.71519 8.69482 0.00422
C 14.77572 7.04849 0.0351
C 15.99435 6.30867 -0.03113
C 15.92185 4.90131 0.02098
C 14.79428 4.19119 0.01848
C 13.48849 4.90967 0.05265
C 14.72253 2.84787 -0.00619
C 13.54192 6.31544 -0.01717
C 12.22847 8.6104 0.02299
C 10.96677 9.30021 0.02819
C 9.85692 8.59636 0.00165
C 9.89371 7.14048 -0.02971
C 11.10548 6.42539 0.02894
C 11.08794 4.96991 -0.01789
C 9.82013 4.28358 0.00444
C 9.82892 2.82535 -0.00925
C 11.07862 2.1719 0.01877
C 11.09211 0.81054 0.01363
C 9.81453 0.05914 -0.02162
C 12.28763 32.74511 0.00415
C 13.54847 31.90023 -0.0014
C 13.55132 30.49904 0.02162
C 12.34268 29.84232 0.0076
C 12.38277 28.367 0.01241
C 13.50904 27.64492 -0.01454
C 13.51851 26.22802 0.01945
C 12.29648 25.54853 0.01416
C 13.43289 9.19487 0.03542
C 12.33244 7.07351 0.00244
C 9.926 24.13028 -0.00891
C 15.96531 2.15307 -0.02162
C 14.78724 0.01505 -0.00481
C 20.85373 27.80619 0.04892
C 20.88164 26.2872 -0.00111
C 19.63492 25.47165 -0.03557
C 19.77988 24.04663 0.03754
C 20.85043 23.52381 0.01739
C 20.91672 10.58317 0.00755
C 20.85083 9.24273 -0.0054
C 19.64041 8.54722 0.00667
C 19.69508 7.07802 0.00143
C 20.98066 6.45166 -0.017
C 20.93905 4.92413 0.00364
C 19.69523 4.27042 -0.00831
C 19.69353 2.83257 -0.02957
C 20.9556 2.0837 -0.04422
C 20.83881 0.68763 0.00654
C 19.63733 34.06824 -0.00703
C 22.17752 32.59807 -0.04076
C 23.40249 31.91623 -0.00652
C 23.33269 30.5728 0.0058
C 19.62964 28.42568 0.01452
C 15.93732 0.74762 0.00889
C 19.6045 29.86937 -0.01581
C 20.90086 31.98276 -0.01979
C 17.19303 32.66658 0.00979
C 18.45821 31.90375 0.01443
C 18.44746 30.54443 0.03505
C 17.20834 29.86582 -0.02815
C 17.23012 28.44499 -0.04147
C 18.48613 27.70976 -0.05302
C 18.42644 26.2652 0.00213
C 17.25345 25.49872 -0.00066
C 18.44592 9.18445 -0.00289
C 17.20876 8.54337 0.00028
C 17.2635 7.10251 -0.02213
C 18.43356 6.36475 0.03698
C 18.39846 4.96789 -0.00109
C 17.1556 4.26276 -0.00491
C 17.20155 2.82328 0.03338
C 18.38425 2.1322 -0.0258
C 18.43302 0.73066 -0.0331
C 17.23445 34.05991 -0.00316
C 19.66316 32.63396 0.02188
C 20.87698 30.47422 0.02691
C 22.0891 29.824 -0.00865
C 9.87006 25.5132 -0.01046
C 11.02496 27.69426 -0.01536
C 3.73143 6.39801 0.01227
C 3.72899 5.00556 0.00873
C 2.45158 4.32362 -0.00049
C 2.49766 2.82204 0.00848
C 3.65394 2.14899 -0.01303
C 3.69288 0.72394 -0.01378
C 2.47333 0.07793 0.02635
C 4.92593 32.59691 0.0127
C 6.12989 31.98169 0.01396
C 6.11652 30.55845 0.01849
C 4.89181 29.81628 -0.01142
C 4.92658 28.41376 -0.00562
C 6.1323 27.73429 -0.00494
C 6.1814 26.22458 0.00054
C 4.94214 25.55651 0.03007
C 4.9739 24.18261 -0.00095
C 4.90791 19.89786 0.01572
C 6.00509 19.22894 -0.04848
C 6.14051 17.86157 -0.00892
C 2.45812 7.08313 -0.03337
C 4.89098 17.05042 -0.01362
C 2.40833 8.56183 -0.00966
C 3.74506 10.60597 0.03368
C 3.75291 30.55513 -0.03996
C 2.45312 29.79755 0.01465
C 2.54967 28.37289 -0.00074
C 3.71378 27.66241 -0.00518
C 3.62616 26.25217 0.0086
C 2.43027 25.67261 -0.00643
C 2.46964 24.17171 0.017
C 3.78947 23.38707 -0.03113
C 3.6464 21.99636 -0.02566
C 2.52771 21.28942 -0.00094
C 2.44569 19.82942 0.02322
C 3.73324 19.1577 -0.00725
C 3.60736 17.70894 -0.05697
C 2.4075 17.10642 0.01087
C 2.3955 15.69432 -0.01343
C 3.64659 14.95168 0.00988
C 3.7204 13.54191 0.0276
C 2.46231 12.72485 0.01305
C 2.52173 11.36462 -0.00077
C 3.71101 9.27466 -0.02929
C 11.08613 26.29994 -0.02689
C 4.9159 15.61263 -0.0008
C 6.16011 13.45726 0.00393
C 7.35809 21.29025 0.01641
C 7.42739 12.78634 -0.00719
C 7.43163 11.35681 0.01364
C 8.62073 10.69108 -0.01062
C 8.614 9.3424 -0.00033
C 7.3385 8.53052 0.03589
C 7.43951 7.09348 -0.02759
C 8.69249 6.39735 0.0402
C 8.61668 5.01562 0.00572
C 7.31266 4.17321 0.03592
C 7.34684 2.82327 0.00406
C 8.5512 2.14002 0.00943
C 8.54139 0.64415 0.02841
C 7.36825 34.06655 -0.01111
C 9.81337 32.69097 -0.01275
C 11.04062 31.99444 0.00985
C 11.10746 30.47137 -0.02245
C 9.82441 29.86793 -0.00428
C 9.80819 28.44463 0.03101
C 8.68089 23.5285 0.02339
C 6.08317 14.90013 0.0288
C 7.45516 24.14714 -0.00334
C 8.66666 26.30247 0.00057
C 4.88589 12.80749 0.00895
C 4.89082 11.40796 0.00685
C 6.1825 10.65621 0.02888
C 6.14463 9.27414 -0.00482
C 4.92837 8.56636 -0.01384
C 4.93986 7.16877 0.03693
C 6.12502 6.48887 0.01745
C 6.10232 5.01656 0.00488
C 4.94288 4.29093 -0.01004
C 4.85141 2.85783 -0.02896
C 6.12522 2.16672 -0.00131
C 6.14754 0.71479 -0.01118
C 4.94321 34.06166 -0.014
C 7.33763 32.69843 0.02147
C 8.56227 32.03789 0.00373
C 8.61352 30.57472 -0.00191
C 7.30577 29.84752 0.00438
C 7.3331 28.44349 0.01291
C 8.58959 27.68209 0.00093
C 7.42388 25.52386 -0.01634
C 22.05816 28.45946 0.00675
C 23.32686 27.72417 -0.00311
C 23.40391 26.32843 0.00742
C 30.73715 0.67236 0.00307
C 29.49853 0.02016 0.00346
C 31.91646 32.64536 0.01713
C 33.19547 31.96686 -0.01694
C 33.14874 30.5761 0.01428
C 31.87599 29.82463 -0.02142
C 31.91876 28.39938 0.0544
C 33.17922 27.65358 0.00026
C 33.19255 26.32057 0.00682
C 31.91857 25.57054 -0.01779
C 32.00198 24.17321 0.03794
C 33.22361 23.40282 0.01927
C 33.19921 22.00005 0.01574
C 31.95463 21.33693 -0.02383
C 32.02209 19.90335 -0.01429
C 33.2232 19.20812 -0.0136
C 33.18654 17.74177 0.00594
C 31.97075 17.01918 -0.02474
C 31.98859 15.61894 0.00369
C 30.70093 2.18132 0.00716
C 33.25505 14.89354 0.00455
C 29.49772 2.7785 0.02108
C 30.78988 4.94392 0.07705
C 29.4859 25.57574 0.03265
C 29.49969 24.17014 -0.02049
C 30.77045 23.44381 -0.01854
C 30.75471 22.01893 -0.01415
C 29.51592 21.26806 -0.03039
C 29.49247 19.89965 0.01836
C 30.80328 19.20502 0.03531
C 30.74405 17.67078 -0.00669
C 29.56103 16.98014 0.0101
C 29.53116 15.61853 0.01705
C 30.74621 14.93848 -0.0405
C 30.73147 13.44714 -0.01303
C 29.47391 12.79052 -0.01461
C 29.56798 11.32368 -0.02155
C 30.71835 10.6161 -0.00944
C 30.68951 9.20228 -0.03735
C 29.47073 8.52008 -0.00971
C 29.4746 7.14046 0.01518
C 30.71373 6.39933 0.01908
C 29.53283 4.21073 0.0103
C 30.75995 26.24266 0.00261
C 33.19476 13.51627 -0.00644
C 32.00778 11.34033 0.00137
C 0.00619 19.7924 0.01951
C 1.22855 19.1515 -0.01678
C 1.23968 17.73269 0.01223
C 34.3829 17.02314 0.00648
C 0.02172 15.59045 0.02114
C 1.23001 14.93283 -0.02957
C 1.22389 13.49497 0.00343
C 0.01849 12.86223 -0.02656
C 34.40511 11.36272 -0.02442
C 1.25767 10.73227 -0.00027
C 1.17526 9.29276 -0.00583
C 34.41159 8.53349 -0.02302
C 34.42043 7.08872 -0.02849
C 1.26304 6.42732 0.02931
C 1.25638 4.95296 0.00628
C 34.39517 4.22295 -0.0345
C 34.42496 2.84211 -0.00931
C 1.24312 2.15745 -0.00939
C 1.27421 0.79927 -0.00468
C 34.39003 21.19534 -0.02213
C 31.94723 12.73434 -0.01839
C 1.20182 22.00787 0.02712
C 0.05822 24.16459 0.03076
C 33.13284 10.60766 0.00199
C 33.12868 9.21784 0.04381
C 31.92556 8.49685 0.02806
C 31.93767 7.08517 0.01504
C 33.18027 6.35343 -0.00069
C 33.21065 5.02046 0.04926
C 31.99991 4.32515 -0.03838
C 31.97189 2.8389 0.00349
C 33.1969 2.10151 -0.00323
C 33.14978 0.67328 -0.00841
C 31.89601 34.06299 0.0001
C 0.01675 32.69327 -0.02927
C 1.2644 31.89903 -0.01404
C 1.23626 30.51184 0.01027
C 34.38863 29.88542 0.01831
C 34.42994 28.43467 -0.01037
C 1.22787 27.78053 -0.00439
C 1.17112 26.31327 -0.00598
C 34.39166 25.5664 -0.05239
C 1.24853 23.48219 0.00723
C 30.7618 27.67903 0.02326
C 29.53753 28.38646 0.00924
C 29.48707 29.78172 0.0014
C 25.77144 31.93839 0.01153
C 25.80672 30.55621 0.02734
C 24.55154 29.89054 -0.0055
C 24.57796 28.35348 0.01515
C 25.79934 27.67364 -0.00225
C 25.76196 26.25683 0.00071
C 24.58632 25.59328 -0.01107
C 24.61169 24.13956 -0.01586
C 25.75737 23.35851 -0.01971
C 25.77325 21.98847 -0.02118
C 24.59951 21.27961 0.00733
C 24.53981 19.83702 -0.00178
C 25.80176 19.18115 0.00768
C 25.84436 17.71803 -0.0276
C 24.57712 17.03299 0.03005
C 24.5893 15.63273 -0.04078
C 25.80387 14.89058 0.02117
C 25.85999 13.42893 0.02737
C 24.61192 12.74894 -0.00498
C 24.5751 32.64859 0.02239
C 24.62159 11.36055 0.00135
C 22.16752 34.03072 -0.03213
C 23.39117 2.14706 0.03374
C 22.05204 25.56553 -0.01594
C 22.06887 24.09062 0.0106
C 23.37431 23.37734 -0.01154
C 23.27644 21.99808 -0.01721
C 22.18116 21.27859 -0.02422
C 23.39558 19.05307 0.01277
C 23.21881 17.82844 0.00096
C 23.28607 14.83335 -0.01527
C 23.34981 13.48059 0.01087
C 22.17887 12.71599 0.00199
C 22.13724 11.30556 0.01511
C 23.4315 10.59041 -0.00478
C 23.39893 9.20309 -0.01662
C 22.13498 8.51322 -0.01185
C 22.16705 7.04247 0.01126
C 23.35218 6.33303 0.01852
C 23.32853 4.97479 -0.00381
C 22.19349 4.19437 0.03046
C 22.22249 2.78656 0.0296
C 23.31818 0.67345 -0.02845
C 25.8316 10.63271 0.03102
C 25.85277 9.21971 0.02555
C 24.59004 8.45931 0.01423
C 27.08703 15.63222 -0.00294
C 28.25521 14.91705 0.00152
C 28.26876 13.50627 0.01257
C 27.12313 12.76207 0.02316
C 27.12428 11.3683 0.04185
C 28.35084 10.69974 0.00194
C 28.28641 9.27382 -0.00621
C 27.09414 8.45096 0.02611
C 27.10035 7.11631 0.02198
C 28.31359 6.41644 0.01094
C 28.25633 5.02713 0.00235
C 27.02006 4.27525 0.01495
C 27.04196 2.86084 0.01259
C 28.23674 2.15775 0.01799
C 28.27829 0.70227 0.01699
C 27.0722 0.01152 -0.00416
C 29.48173 32.70849 0.01177
C 30.70529 31.92621 0.04266
C 30.75197 30.55536 0.01324
C 27.11003 17.0458 0.00826
C 28.34492 17.70581 0.00487
C 28.2125 19.11026 -0.00942
C 27.05984 19.91082 -0.02815
C 24.58297 7.05028 -0.00285
C 25.96529 6.41959 -0.009
C 25.78494 5.01893 -0.01199
C 24.6076 4.25765 -0.00229
C 24.56803 2.84363 -0.00938
C 25.74965 2.14607 -0.0264
C 25.73257 0.73127 -0.01154
C 24.55049 0.01329 0.00684
C 27.0213 32.64929 -0.01052
C 3.7144 31.92449 0.01996
C 28.16824 31.90559 -0.01679
C 27.01651 29.8216 0.04306
C 27.00878 28.42722 0.00996
C 28.23018 27.68145 0.00195
C 28.2363 26.29489 -0.00802
C 27.01943 25.57656 -0.00218
C 27.03511 24.12378 -0.01654
C 28.26155 23.42107 -0.00037
C 28.29726 21.90627 -0.0032
C 27.08811 21.28541 0.00622
C 28.28051 30.48303 0.00367
C 2.47789 32.6617 -0.00279
