436
Graphene
C 0.04239 33.97041 0.01295
C 12.22445 11.5503 0.02339
C 13.51561 10.68931 0.01641
C 13.54686 9.27374 -0.00719
C 12.33274 8.55895 0.01364
C 12.28561 7.09704 -0.01062
C 13.46882 6.29474 -0.00033
C 13.44494 4.92727 0.03589
C 12.2099 4.20174 -0.02759
C 12.34711 2.85264 0.0402
C 13.60849 2.08405 0.00572
C 13.62399 0.64388 0.03592
C 12.40436 34.06814 0.00406
C 14.79444 32.60517 0.00943
C 16.00619 31.97384 0.02841
C 15.9833 30.44421 -0.01111
C 14.72971 29.77671 -0.01275
C 14.80122 28.38614 0.00985
C 16.00281 27.59705 -0.02245
C 15.8838 26.2131 -0.00428
C 14.72628 25.5252 0.03101
C 14.69693 24.08224 -0.01536
C 15.95217 23.49443 -0.02689
C 16.00751 22.01139 -0.01046
C 12.30634 13.05002 -0.00334
C 14.76425 21.30055 -0.00891
C 13.48697 13.50284 -0.01634
C 12.30156 21.32216 0.00093
C 9.89786 11.41579 -0.00892
C 11.11418 10.69904 -0.01362
C 11.15861 9.29946 -0.0008
C 9.87227 8.63956 0.0288
C 9.78731 7.19679 0.00393
C 11.05446 6.50618 0.00895
C 11.01883 4.98396 0.00685
C 9.77647 4.34506 0.02888
C 9.86498 2.81731 -0.00482
C 11.06773 1.99856 -0.01384
C 11.10093 0.65027 0.03693
C 9.89471 0.05406 0.01745
C 12.3706 32.60069 0.00488
C 13.57329 31.90443 -0.01004
C 13.55313 30.47173 -0.02896
C 12.20523 29.84734 -0.00131
C 12.26861 28.40774 -0.01118
C 13.54159 27.69628 -0.014
C 13.47181 26.285 0.02147
C 12.26399 25.57343 0.00373
C 12.29018 24.19755 -0.00191
C 13.49292 23.44736 0.00438
C 13.51677 22.06359 0.01291
C 12.3622 19.90783 0.00057
C 14.61579 19.94331 0.02819
C 15.75988 19.06659 0.00165
C 16.04148 17.69554 -0.02971
C 18.35946 19.19748 -0.0108
C 18.41847 17.69654 -0.00368
C 17.25988 17.0593 -0.02696
C 17.17621 15.60931 -0.00114
C 18.40592 14.83989 0.00228
C 18.41698 13.46486 0.00798
C 17.20908 12.76091 0.00422
C 17.20491 11.3452 0.0351
C 18.42068 10.64364 -0.03113
C 18.46093 9.21463 0.02098
C 17.1843 8.48956 0.01848
C 17.12571 7.1066 -0.00619
C 18.34118 6.40581 -0.02162
C 18.38027 4.97327 0.00889
C 17.1539 4.21633 -0.00481
C 17.29258 2.83866 0.00979
C 18.49733 2.17566 0.01443
C 18.44762 0.73302 0.03505
C 17.23737 0.03206 -0.02815
C 19.64521 32.62291 -0.04147
C 20.84194 31.97479 -0.05302
C 20.82249 30.56985 0.00213
C 19.62892 29.8684 -0.00066
C 17.13899 19.88706 -0.01957
C 17.18871 21.31146 0.02058
C 18.36026 22.0286 0.01965
C 18.42926 23.46506 -0.03682
C 15.92899 14.97926 0.02894
C 15.95183 13.53685 -0.01789
C 14.70014 12.82172 0.00444
C 14.75631 11.37763 -0.00925
C 15.91975 10.64507 0.01877
C 15.89912 9.25943 0.01363
C 14.74703 8.52816 -0.02162
C 14.7054 7.1175 0.00415
C 15.92689 6.33516 -0.0014
C 15.86537 4.91818 0.02162
C 14.6726 4.24308 0.0076
C 9.79861 12.86648 -0.04848
C 14.73426 2.84487 0.01241
C 16.02943 0.67506 0.01945
C 14.83306 34.02002 0.01416
C 17.2387 32.73159 0.03542
C 18.43625 31.97073 0.02299
C 18.40423 30.51085 0.00244
C 17.16404 29.87834 -0.01717
C 17.1508 28.35348 0.05265
C 18.44136 27.71821 -0.01952
C 18.46617 26.33068 -0.02813
C 17.24892 25.56377 0.00374
C 17.19283 24.12805 0.00052
C 16.02393 2.18785 -0.01454
C 19.67782 28.387 -0.00289
C 10.97613 13.56909 0.01572
C 9.84181 21.34727 0.03007
C 3.73142 2.12858 -0.02375
C 3.64965 0.72793 0.00558
C 2.52248 34.04197 -0.0059
C 4.90834 32.69146 -0.01386
C 6.17845 31.97853 -0.02805
C 6.13632 30.59181 0.00081
C 4.90012 29.77018 0.00245
C 5.01062 28.34539 0.02728
C 6.14908 27.61344 -0.00039
C 6.17067 26.17573 0.0064
C 4.95801 25.604 0.00211
C 4.90966 24.12743 -0.00449
C 6.13738 23.44313 -0.01979
C 6.1867 22.04268 0.02784
C 5.01608 21.23682 -0.01977
C 4.86499 19.8342 -0.00561
C 6.17507 19.13523 0.00208
C 6.06197 17.71429 0.01707
C 4.88016 17.08002 0.02769
C 4.77385 15.5602 -0.03291
C 6.04544 14.98029 -0.04999
C 6.11873 13.59298 0.04505
C 4.86149 12.8324 0.03284
C 2.42777 2.85994 0.00828
C 4.96473 11.44524 -0.04307
C 2.44732 4.19869 0.00088
C 3.60973 6.42043 -0.00177
C 3.703 30.44903 0.01984
C 2.51158 29.78418 0.00535
C 2.51079 28.34549 -0.00198
C 3.71118 27.68805 -0.00012
C 3.68782 26.31372 -0.04306
C 2.4219 25.59807 -0.03672
C 2.4371 24.1803 0.01913
C 3.69754 23.46314 0.00267
C 3.75584 22.06726 0.00787
C 2.4922 21.31676 0.02426
C 2.4379 19.86558 0.01218
C 3.66416 19.17924 -0.01471
C 3.55999 17.67432 -0.02827
C 2.32625 16.9733 0.01078
C 2.36013 15.62945 -0.00112
C 3.53883 14.94714 0.03345
C 3.66161 13.5154 0.00748
C 2.44231 12.75475 0.00662
C 2.39538 11.41638 -0.0154
C 3.74135 10.73286 -0.01299
C 3.67101 9.28747 -0.00407
C 2.4032 8.54138 0.01138
C 2.41971 7.16784 0.03278
C 3.66741 5.03463 0.04421
C 6.17123 10.72056 0.03189
C 6.14383 9.33052 0.00031
C 4.90218 8.58448 -0.003
C 7.39814 11.44438 -0.01343
C 8.664 10.73757 0.00988
C 8.65588 9.35589 0.0276
C 7.35994 8.62321 0.01305
C 7.34559 7.1679 -0.00077
C 8.57541 6.48256 0.03368
C 8.54351 5.06271 -0.02929
C 7.3924 4.32621 -0.00966
C 7.3878 2.85688 -0.03337
C 8.60503 2.12027 0.01227
C 8.62016 0.73595 0.00873
C 7.36397 34.07517 -0.00049
C 9.85524 32.65697 0.00848
C 11.05315 31.93209 -0.01303
C 11.01599 30.53382 -0.01378
C 9.78645 29.816 0.02635
C 9.81777 28.47923 0.0127
C 11.04372 27.81726 0.01396
C 11.04901 26.35611 0.01849
C 9.83328 25.62803 -0.01142
C 9.86333 24.17868 -0.00562
C 11.08428 23.51752 -0.00494
C 11.08492 22.05685 0.00054
C 7.38681 12.87642 0.01087
C 8.56822 13.56385 -0.05697
C 8.48571 14.92358 -0.00725
C 7.35602 15.68018 0.02322
C 4.89564 7.18798 0.01402
C 6.10478 6.52334 0.02379
C 6.08533 5.00587 0.00907
C 4.92005 4.31341 0.00643
C 4.91072 2.86821 -0.01509
C 6.14511 2.20794 0.03267
C 6.1077 0.75299 0.02374
C 4.85975 0.02325 0.00402
C 7.33904 32.7085 0.0073
C 8.55987 31.95555 0.0174
C 8.53977 30.58221 0.03828
C 9.86996 19.97087 -0.00095
C 7.38674 29.77677 0.01226
C 8.70923 27.6183 0.01996
C 8.53263 26.27595 -0.03996
C 7.40787 25.53787 0.01465
C 7.3819 24.13588 -0.00074
C 8.7195 23.43699 -0.00518
C 8.64852 22.03759 0.0086
C 7.41408 21.27961 -0.00643
C 7.4335 19.84231 0.017
C 8.74401 19.1652 -0.03113
C 8.5958 17.7483 -0.02566
C 7.32484 17.03552 -0.00094
C 7.38963 28.40259 -0.00279
C 20.88013 27.71579 0.00028
C 20.90912 26.26431 -0.02213
C 19.67553 25.58653 0.03698
C 30.70684 14.89228 -0.0405
C 30.73273 13.38924 -0.01303
C 29.45318 12.71051 -0.01461
C 29.49109 11.30077 -0.02155
C 30.71204 10.54994 -0.00944
C 30.74126 9.21119 -0.03735
C 29.50964 8.4547 -0.00971
C 29.50728 7.06683 0.01518
C 30.7108 6.39747 0.01908
C 30.72418 4.91976 0.07705
C 29.49988 4.17753 0.0103
C 29.53958 2.81405 0.02108
C 30.79295 2.06063 0.00716
C 30.74698 0.5927 0.00307
C 29.47541 34.01409 0.00346
C 31.95528 32.56731 0.01713
C 33.19043 31.96055 -0.01694
C 33.23048 30.53691 0.01428
C 31.99482 29.85337 -0.02142
C 31.94558 28.41826 0.0544
C 33.22343 27.78122 0.00026
C 33.15647 26.32896 0.00682
C 31.98201 25.62296 -0.01779
C 29.53214 15.63331 0.01705
C 31.91774 24.22565 0.03794
C 29.54965 17.0158 0.0101
C 30.61702 19.23138 0.03531
C 28.24003 9.20175 -0.00621
C 26.98201 8.51389 0.02611
C 27.01147 7.09278 0.02198
C 28.2242 6.34261 0.01094
C 28.26501 5.00341 0.00235
C 27.01086 4.22424 0.01495
C 27.10913 2.78379 0.01259
C 28.30534 2.07273 0.01799
C 28.33261 0.68815 0.01699
C 27.05461 34.07921 -0.00416
C 29.45026 32.62412 0.01177
C 30.73622 31.88544 0.04266
C 30.72809 30.55815 0.01324
C 29.51324 29.78695 0.0014
C 29.50523 28.41588 0.00924
C 30.7251 27.74323 0.02326
C 30.70705 26.33813 0.00261
C 29.54861 25.60908 0.03265
C 29.50577 24.12126 -0.02049
C 30.6985 23.4211 -0.01854
C 30.66432 22.034 -0.01415
C 29.4634 21.32826 -0.03039
C 29.44253 19.85561 0.01836
C 30.76682 17.77203 -0.00669
C 33.17361 23.47467 0.01927
C 33.18728 22.07191 0.01574
C 31.99655 21.29802 -0.02383
C 34.42233 24.15583 0.03076
C 1.21723 23.45575 0.00723
C 1.26287 22.01532 0.02712
C 34.41502 21.35375 -0.02213
C 34.3013 19.87865 0.01951
C 1.1728 19.23346 -0.01678
C 1.15263 17.75143 0.01223
C 34.4168 17.06176 0.00648
C 34.39593 15.59164 0.02114
C 1.21625 14.81449 -0.02957
C 1.14382 13.4041 0.00343
C 34.27818 12.71354 -0.02656
C 34.42471 11.33549 -0.02442
C 1.21535 10.59995 -0.00027
C 1.19967 9.16662 -0.00583
C 0.05183 8.44897 -0.02302
C 0.00159 6.9856 -0.02849
C 1.18087 6.39359 0.02931
C 1.26015 4.97036 0.00628
C 0.03861 4.18696 -0.0345
C 0.03453 2.7857 -0.00931
C 1.20242 2.06774 -0.00939
C 1.3073 0.58768 -0.00468
C 34.42838 25.6215 -0.05239
C 1.19566 26.30847 -0.00598
C 1.19322 27.69087 -0.00439
C 0.05444 28.4257 -0.01037
C 31.95604 19.85993 -0.01429
C 33.14187 19.08185 -0.0136
C 33.14925 17.69802 0.00594
C 31.98304 16.98189 -0.02474
C 31.89117 15.56791 0.00369
C 33.12735 14.85689 0.00455
C 33.15275 13.41869 -0.00644
C 31.92755 12.73266 -0.01839
C 31.88966 11.2647 0.00137
C 33.15575 10.54722 0.00199
C 33.18997 9.15046 0.04381
C 28.18957 10.60322 0.00194
C 31.92863 8.44561 0.02806
C 33.1984 6.28 -0.00069
C 33.18604 4.92023 0.04926
C 32.0182 4.15146 -0.03838
C 32.0494 2.70071 0.00349
C 33.20848 2.06731 -0.00323
C 33.17818 0.64677 -0.00841
C 32.01697 34.01068 0.0001
C 0.02973 32.59708 -0.02927
C 1.25367 31.9144 -0.01404
C 1.25985 30.51353 0.01027
C 34.41887 29.81984 0.01831
C 31.9693 7.03247 0.01504
C 27.07278 11.37182 0.04185
C 27.07632 12.81856 0.02316
C 28.30275 13.49677 0.01257
C 22.10042 28.39969 -0.00652
C 23.37811 27.65563 0.0058
C 23.39524 26.29744 -0.00865
C 22.14149 25.54892 0.00675
C 22.0434 24.11853 -0.00311
C 23.3406 23.43055 0.00742
C 23.35257 22.07805 -0.01594
C 22.08407 21.32183 0.0106
C 22.0883 19.9059 -0.01154
C 23.29397 19.24612 -0.01721
C 23.27458 17.79394 -0.02422
C 22.12246 17.04551 0.01277
C 22.09396 15.68459 0.00096
C 23.31907 14.94292 -0.01527
C 23.35375 13.54461 0.01087
C 22.206 12.79342 0.00199
C 22.29415 11.41559 0.01511
C 23.46821 10.66767 -0.00478
C 23.50419 9.30634 -0.01662
C 22.1061 8.57129 -0.01185
C 22.13123 7.12802 0.01126
C 23.27858 6.34776 0.01852
C 23.30032 4.90972 -0.00381
C 22.12087 29.86255 -0.04076
C 23.29282 30.6098 -0.00703
C 23.34275 32.04978 0.00654
C 22.10945 32.74039 -0.04422
C 19.58424 24.21196 -0.00109
C 20.90223 23.46617 -0.00491
C 20.82814 22.00394 0.03338
C 19.63491 21.30854 -0.0258
C 19.61535 19.92687 -0.0331
C 20.85214 19.21095 -0.00316
C 20.86501 17.79831 0.02188
C 19.68877 17.0257 -0.01979
C 19.69352 15.51593 0.02691
C 20.9201 14.89655 -0.01581
C 20.94098 13.38213 0.01452
C 22.06192 4.2487 0.03046
C 19.69604 12.74093 0.04892
C 20.86578 10.58609 -0.03557
C 20.92392 9.22308 0.03754
C 19.74164 8.50969 0.01739
C 19.59264 7.08325 0.00755
C 20.87604 6.39095 -0.0054
C 20.87853 5.00552 0.00667
C 19.60843 4.35776 0.00143
C 19.65044 2.86902 -0.017
C 20.87667 2.13132 0.00364
C 20.84524 0.70293 -0.00831
C 19.66587 0.02332 -0.02957
C 19.67763 11.31615 -0.00111
C 3.70483 31.87493 0.01073
C 22.13926 2.84258 0.0296
C 23.3422 0.74492 -0.02845
C 24.52004 4.18977 -0.00229
C 24.62823 2.77083 -0.00938
C 25.82051 2.10469 -0.0264
C 25.78105 0.74128 -0.01154
C 24.53457 34.03816 0.00684
C 26.94093 32.65287 -0.01052
C 28.27116 31.93795 -0.01679
C 28.23911 30.56374 0.00367
C 27.0676 29.81495 0.04306
C 27.09017 28.36763 0.00996
C 28.31691 27.73143 0.00195
C 28.28755 26.33004 -0.00802
C 27.01979 25.5787 -0.00218
C 27.0342 24.11902 -0.01654
C 28.22163 23.44982 -0.00037
C 28.25565 22.00078 -0.0032
C 27.08081 21.26882 0.00622
C 27.03291 19.8842 -0.02815
C 28.28666 19.14619 -0.00942
C 28.26575 17.6936 0.00487
C 27.03204 17.02906 0.00826
C 27.0241 15.57524 -0.00294
C 28.27597 14.94667 0.00152
C 25.79556 4.92292 -0.01199
C 25.78385 6.39324 -0.009
C 24.60038 7.07534 -0.00285
C 24.65182 8.47368 0.01423
C 22.06599 0.02246 -0.03213
C 24.5443 32.62715 0.02239
C 25.7984 32.03941 0.01153
C 25.76937 30.55198 0.02734
C 24.51939 29.88985 -0.0055
C 24.59766 28.49391 0.01515
C 25.86852 27.71633 -0.00225
C 25.86301 26.3419 0.00071
C 24.67259 25.56031 -0.01107
C 24.59923 24.12417 -0.01586
C 25.82683 23.39942 -0.01971
C 23.31976 2.14134 0.03374
C 25.84915 21.95179 -0.02118
C 24.55771 19.90515 -0.00178
C 25.75418 19.12494 0.00768
C 25.82121 17.7518 -0.0276
C 24.56302 17.05433 0.03005
C 24.54014 15.68796 -0.04078
C 25.78149 14.92619 0.02117
C 25.87264 13.48898 0.02737
C 24.6081 12.81439 -0.00498
C 24.59865 11.37362 0.00135
C 25.85641 10.72806 0.03102
C 25.76594 9.22567 0.02555
C 24.59772 21.37742 0.00733
C 2.47961 32.6285 -0.00018
