338
Graphene
C 34.38966 34.06847 0.01295
C 10.99392 17.73115 0.00889
C 9.81353 16.98154 -0.00481
C 9.82726 15.58241 0.00979
C 11.03629 14.82319 0.01443
C 11.09767 13.4076 0.03505
C 9.8232 12.84658 -0.02815
C 9.85265 11.42661 -0.04147
C 11.07179 10.71058 -0.05302
C 11.03391 9.35841 0.00213
C 9.85095 8.64411 -0.00066
C 9.90466 7.19156 -0.00289
C 11.13212 6.46732 0.00028
C 11.0846 4.99797 -0.02213
C 9.91446 4.30364 0.03698
C 9.87338 2.90154 -0.00109
C 11.12481 2.11509 -0.00491
C 11.04678 0.6862 0.03338
C 11.00656 19.16874 -0.02162
C 9.74414 0.1331 -0.0258
C 9.75451 19.9207 -0.00619
C 11.01843 22.08143 0.02098
C 7.38724 8.57723 -0.01952
C 7.3516 7.10406 -0.02813
C 8.62931 6.48161 0.00374
C 8.65234 5.01005 0.00052
C 7.34153 4.25214 -0.03682
C 7.38304 2.85969 0.01965
C 8.58497 2.25434 0.02058
C 8.61789 0.78366 -0.01957
C 7.40201 0.08778 -0.0108
C 10.08352 32.86404 -0.00368
C 11.54273 32.58734 -0.02696
C 9.7069 29.77931 -0.00114
C 9.75029 28.49259 0.00228
C 11.18421 26.22046 0.00798
C 9.90388 25.52446 0.00422
C 9.80034 24.14746 0.0351
C 11.02712 23.48023 -0.03113
C 9.68994 21.40931 0.01848
C 8.57759 9.31319 0.05265
C 12.33166 25.53437 -0.0331
C 13.49994 23.33681 0.02188
C 14.79674 25.51772 -0.00652
C 14.80919 24.10104 0.0058
C 16.07865 23.36431 -0.00865
C 15.91101 21.98668 0.00675
C 14.75952 21.30821 -0.00311
C 14.56467 19.9288 0.00742
C 15.76569 19.27082 -0.01594
C 15.84455 4.82792 0.0106
C 14.69715 4.158 -0.01154
C 14.62876 2.65392 -0.01721
C 15.92101 2.07013 -0.02422
C 15.99257 0.69133 0.01277
C 14.8333 33.96256 0.00096
C 17.09177 32.63915 -0.01527
C 18.33494 31.87069 0.01087
C 18.41831 30.37904 0.00199
C 18.54582 27.75202 0.01511
C 15.97463 26.19415 -0.04076
C 12.32056 24.05119 -0.00316
C 12.10676 33.85746 -0.00703
C 13.46557 1.8172 -0.04422
C 13.45918 21.98877 -0.01979
C 12.24193 21.33595 0.02691
C 12.11802 19.98139 -0.01581
C 13.34165 19.18281 0.01452
C 13.43126 17.82737 0.04892
C 12.27888 17.05297 -0.00111
C 12.37288 15.51624 -0.03557
C 13.39486 14.42188 0.03754
C 12.31356 12.76419 0.01739
C 12.46524 11.33352 0.00755
C 13.14027 9.95387 -0.0054
C 12.3437 8.77165 0.00667
C 12.45861 7.23238 0.00143
C 13.5398 6.40726 -0.017
C 13.51036 4.92079 0.00364
C 12.2583 4.24448 -0.00831
C 12.342 2.77601 -0.02957
C 13.38008 0.36834 0.00654
C 8.64904 10.66939 -0.01717
C 7.41512 11.34209 0.00244
C 7.33972 12.77036 0.02299
C 2.40994 8.52326 0.03693
C 2.40985 7.08473 0.01745
C 3.68089 6.36081 0.00488
C 3.73943 4.9816 -0.01004
C 2.47493 4.28463 -0.02896
C 2.51238 2.88929 -0.00131
C 3.67751 2.16865 -0.01118
C 3.73178 0.73379 -0.014
C 2.47073 0.09698 0.02147
C 4.95443 32.70171 0.00373
C 6.26576 31.98228 -0.00191
C 6.13677 30.58044 0.00438
C 4.96319 29.83044 0.01291
C 4.90742 28.4357 0.00093
C 6.14137 27.77087 0.00057
C 6.14529 26.3173 -0.01634
C 4.87626 25.50848 -0.00334
C 3.64499 9.23731 -0.01384
C 4.90339 24.10035 0.02339
C 3.66911 10.66023 -0.00482
C 2.32561 12.75966 0.00685
C 3.67307 30.58699 0.0127
C 2.44591 29.89685 0.01396
C 2.44874 28.42317 0.01849
C 3.64387 27.65892 -0.01142
C 3.68918 26.2637 -0.00562
C 2.40846 25.61141 -0.00494
C 2.48872 24.12218 0.00054
C 3.67633 23.42729 0.03007
C 3.57409 21.99781 -0.00095
C 2.38126 21.28245 0.01572
C 2.37916 19.85336 -0.04848
C 3.62221 19.1828 -0.00892
C 3.67148 17.76353 -0.01362
C 2.47053 16.98546 -0.0008
C 2.43538 15.56904 0.0288
C 3.71717 14.82989 0.00393
C 3.6187 13.45112 0.00895
C 2.38618 11.33923 0.02888
C 6.14332 23.45115 0.01641
C 6.08719 22.07235 -0.00719
C 4.86819 21.33192 0.01364
C 8.68207 30.67063 -0.02971
C 7.40735 29.80136 0.02894
C 7.38345 28.36964 -0.01789
C 8.60473 27.72515 0.00444
C 8.55188 26.30045 -0.00925
C 7.31717 25.55935 0.01877
C 7.28597 24.16962 0.01363
C 8.473 23.4308 -0.02162
C 8.46314 21.99652 0.00415
C 7.30106 21.26191 -0.0014
C 7.37221 19.83712 0.02162
C 8.60286 19.20801 0.0076
C 8.58838 17.77386 0.01241
C 7.33727 17.03065 -0.01454
C 7.40188 15.57236 0.01945
C 8.60427 14.82381 0.01416
C 8.6238 13.46343 0.03542
C 8.78953 32.0909 0.00165
C 7.42375 32.79536 0.02819
C 4.92419 0.05373 -0.00891
C 6.15769 0.71929 -0.01046
C 4.83241 19.87904 -0.01062
C 6.10559 19.15647 -0.00033
C 6.07588 17.70895 0.03589
C 4.8658 16.98207 -0.02759
C 4.8966 15.58007 0.0402
C 6.16647 14.94483 0.00572
C 6.18375 13.47552 0.03592
C 4.90663 12.7628 0.00406
C 18.41413 26.34729 -0.00478
C 4.87377 11.37489 0.00943
C 6.12542 9.27247 -0.01111
C 4.8358 8.49833 -0.01275
C 4.8573 7.09869 0.00985
C 6.11776 6.46852 -0.02245
C 6.14044 5.06296 -0.00428
C 4.92068 4.28347 0.03101
C 4.97245 2.85701 -0.01536
C 6.22448 2.15579 -0.02689
C 6.11295 10.72174 0.02841
C 17.21367 25.51654 -0.01662
C 17.27011 24.09755 -0.01185
C 18.46282 23.44263 0.01126
C 31.92297 29.87533 -0.02142
C 31.9266 28.48458 0.0544
C 33.16634 27.67014 0.00026
C 33.20066 26.22711 0.00682
C 31.92311 25.56803 -0.01779
C 31.91836 24.09874 0.03794
C 33.17515 23.40999 0.01927
C 33.1552 21.93253 0.01574
C 31.8658 21.25535 -0.02383
C 31.83938 19.83673 -0.01429
C 33.12968 19.23313 -0.0136
C 33.19792 17.8325 0.00594
C 32.02313 17.0959 -0.02474
C 31.92709 15.77559 0.00369
C 33.19129 14.95127 0.00455
C 33.18399 13.52768 -0.00644
C 31.93975 12.8533 -0.01839
C 33.16635 30.54817 0.01428
C 31.93106 11.47129 0.00137
C 33.15562 31.95232 -0.01694
C 29.50388 0.02615 0.00346
C 30.67591 21.99027 -0.00669
C 29.48989 21.28818 0.0101
C 29.49479 19.8918 0.01705
C 30.63823 19.13044 -0.0405
C 30.63985 17.63726 -0.01303
C 29.56409 16.74143 -0.01461
C 30.61656 15.14842 -0.02155
C 30.78526 13.81738 -0.00944
C 30.87739 10.61677 -0.03735
C 30.77038 9.24709 -0.00971
C 29.31856 7.02814 0.01518
C 30.51679 6.39358 0.01908
C 30.63667 4.90191 0.07705
C 29.42919 4.28682 0.0103
C 29.37133 2.80182 0.02108
C 30.65496 2.15307 0.00716
C 30.7316 0.74843 0.00307
C 31.96447 32.72022 0.01713
C 33.15252 10.71583 0.00199
C 33.20265 9.20822 0.04381
C 31.86239 8.50002 0.02806
C 1.09267 17.72201 0.01223
C 34.30608 17.06246 0.00648
C 34.40836 15.6603 0.02114
C 1.16146 14.92718 -0.02957
C 1.11331 13.55664 0.00343
C 34.3956 12.85366 -0.02656
C 34.373 11.42021 -0.02442
C 1.16342 10.62211 -0.00027
C 1.23479 9.23075 -0.00583
C 0.02297 8.54548 -0.02302
C 34.33577 7.13355 -0.02849
C 1.12822 6.3789 0.02931
C 1.21933 4.95744 0.00628
C 34.38681 4.25925 -0.0345
C 34.41319 2.7925 -0.00931
C 1.25792 2.13569 -0.00939
C 1.21106 0.75388 -0.00468
C 1.06163 19.14542 -0.01678
C 34.31437 19.9238 0.01951
C 0.00243 21.36079 -0.02213
C 1.16677 22.0347 0.02712
C 31.91856 7.05602 0.01504
C 33.15031 6.36283 -0.00069
C 33.20117 4.99924 0.04926
C 31.96637 4.2702 -0.03838
C 31.88863 2.8275 0.00349
C 33.12475 2.06727 -0.00323
C 33.14154 0.67447 -0.00841
C 31.92216 34.06674 0.0001
C 30.74476 23.38829 0.03531
C 0.04823 32.65308 -0.02927
C 1.20604 30.62344 0.01027
C 34.40871 29.85661 0.01831
C 34.40671 28.43088 -0.01037
C 1.20753 27.74655 -0.00439
C 1.15768 26.28341 -0.00598
C 34.43201 25.51915 -0.05239
C 34.40726 24.13799 0.03076
C 1.22929 23.46998 0.00723
C 1.286 31.9741 -0.01404
C 3.69163 32.00606 0.02635
C 29.4642 24.12527 0.01836
C 30.73879 26.28841 -0.01415
C 20.86099 2.19455 -0.0276
C 20.79446 0.65507 0.03005
C 19.61844 0.00709 -0.04078
C 22.10452 32.669 0.02117
C 23.23882 31.93885 0.02737
C 23.30803 30.47849 -0.00498
C 22.11095 29.76179 0.00135
C 22.16887 28.30577 0.03102
C 23.43345 27.65512 0.02555
C 23.40702 26.20849 0.01423
C 22.16245 25.57726 -0.00285
C 22.12295 24.1965 -0.009
C 23.2836 23.4438 -0.01199
C 23.34582 22.01685 -0.00229
C 22.06617 2.78574 -0.00938
C 23.4048 2.27751 -0.0264
C 23.25405 0.88653 -0.01154
C 19.61603 2.84736 0.00768
C 22.10036 0.11664 0.00684
C 19.71979 21.45928 -0.00178
C 20.92504 23.47057 -0.02118
C 18.46955 21.96789 0.01852
C 17.10546 21.30794 -0.00381
C 16.91327 20.01262 0.03046
C 17.15402 4.27839 0.0296
C 17.14568 2.84039 0.03374
C 18.43845 2.12963 -0.02845
C 18.45557 0.73148 -0.03213
C 17.23752 0.02783 0.02239
C 19.63766 32.68495 0.01153
C 20.91409 32.00846 0.02734
C 20.8835 30.59246 -0.0055
C 19.69163 29.86048 0.01515
C 19.71897 28.48296 -0.00225
C 20.93839 27.58901 0.00071
C 20.90521 26.25654 -0.01107
C 19.67499 25.58832 -0.01586
C 19.69072 24.15282 -0.01971
C 20.91667 22.06483 0.00733
C 24.52512 32.68173 -0.01052
C 25.71558 32.00672 -0.01679
C 25.81809 30.54555 0.00367
C 28.19559 23.39063 0.01094
C 28.17803 21.96024 0.00235
C 26.98348 21.25249 0.01495
C 26.99294 19.76763 0.01259
C 28.17054 19.20188 0.01799
C 28.21325 4.99161 0.01699
C 27.17347 4.25548 -0.00416
C 26.98012 2.84338 0.01177
C 28.16003 2.14056 0.04266
C 28.27025 0.69553 0.01324
C 27.06696 0.00535 0.0014
C 29.45918 32.66946 0.00924
C 30.69474 32.00352 0.02326
C 30.76862 30.57079 0.00261
C 29.53445 29.78995 0.03265
C 29.51863 28.41651 -0.02049
C 30.71548 27.72332 -0.01854
C 26.96999 24.16318 0.02198
C 27.05435 25.59802 0.02611
C 28.30942 26.24447 -0.00621
C 28.29437 27.69499 0.00194
C 24.60221 29.76359 0.04306
C 24.61695 28.34179 0.00996
C 25.77645 27.64593 0.00195
C 25.79342 26.21984 -0.00802
C 24.60086 25.48021 -0.00218
C 24.56519 24.1075 -0.01654
C 25.79907 23.45468 -0.00037
C 25.72669 22.00277 -0.0032
C 29.48182 25.52084 -0.03039
C 24.49761 21.43871 0.00622
C 25.68289 2.15262 -0.00942
C 25.79246 0.63706 0.00487
C 24.5204 34.07956 0.00826
C 26.9966 32.66147 -0.00294
C 28.21253 31.97132 0.00152
C 28.19695 30.46037 0.01257
C 26.9662 29.78462 0.02316
C 26.99188 28.29544 0.04185
C 24.57599 2.93608 -0.02815
C 2.504 32.73806 -0.01378
