378
Graphene
C 34.3001 0.03903 0.01295
C 13.45507 27.81315 0.01416
C 13.49845 26.3027 0.03542
C 12.21146 25.57355 0.02299
C 12.2399 24.13942 0.00244
C 13.46993 23.42506 -0.01717
C 13.52133 22.01952 0.05265
C 12.32713 21.41553 -0.01952
C 12.25343 19.97086 -0.02813
C 13.33014 19.17836 0.00374
C 12.90494 6.33655 0.00052
C 13.40045 5.0122 -0.03682
C 12.27024 4.15347 0.01965
C 12.3471 2.79311 0.02058
C 13.59516 2.06785 -0.01957
C 13.54034 0.63403 -0.0108
C 12.2583 34.04865 -0.00368
C 14.73926 32.66344 -0.02696
C 16.02887 31.92481 -0.00114
C 15.8741 30.55628 0.00228
C 12.18797 28.49196 0.01945
C 12.26099 29.85323 -0.01454
C 13.45282 30.62685 0.01241
C 13.48085 31.94741 0.0076
C 11.12634 26.36672 -0.02245
C 9.82482 25.65862 -0.00428
C 9.78452 24.20775 0.03101
C 11.01496 23.49832 -0.01536
C 11.11726 22.10802 -0.02689
C 9.90493 21.41994 -0.01046
C 9.84863 20.01584 -0.00891
C 11.03865 19.2337 0.02819
C 10.89931 17.93096 0.00165
C 14.71213 29.82204 0.00798
C 9.76291 17.17143 -0.02971
C 10.232 6.99381 -0.01789
C 11.49737 6.3235 0.00444
C 11.12677 4.91945 -0.00925
C 9.80488 4.30225 0.01877
C 9.79335 2.84903 0.01363
C 11.07221 2.12266 -0.02162
C 11.07507 0.71387 0.00415
C 9.79767 0.05268 -0.0014
C 12.1949 32.64371 0.02162
C 9.89353 8.36357 0.02894
C 10.94536 27.77229 0.00985
C 14.77582 28.41859 0.00422
C 15.93984 26.25349 -0.03113
C 18.4629 22.11175 0.02188
C 17.10506 21.49457 -0.01979
C 17.13344 19.98483 0.02691
C 18.32845 19.18502 -0.01581
C 18.40502 17.71029 0.01452
C 17.1778 7.03251 0.04892
C 18.37764 6.25292 -0.00111
C 18.49936 4.91251 -0.03557
C 17.17241 4.16125 0.03754
C 17.18403 2.80056 0.01739
C 18.46532 2.03227 0.00755
C 18.44969 0.62294 -0.0054
C 17.25685 34.05176 0.00667
C 19.6857 32.66885 0.00143
C 20.87209 31.96729 -0.017
C 20.80804 30.49154 0.00364
C 19.62178 29.79116 -0.00831
C 19.82784 28.39321 -0.02957
C 19.55974 21.28608 -0.04422
C 18.38236 23.57292 -0.00316
C 17.0711 24.04746 -0.0331
C 17.11896 25.52117 -0.0258
C 18.41857 26.10426 0.03338
C 14.67326 25.64687 0.02098
C 14.65157 24.2084 0.01848
C 15.75991 23.37205 -0.00619
C 15.90748 21.98101 -0.02162
C 14.73313 21.20654 0.00889
C 14.71675 19.73108 -0.00481
C 16.01395 19.20898 0.00979
C 16.06526 6.32411 0.01443
C 15.91629 4.96304 0.03505
C 15.94094 27.70984 0.0351
C 14.69825 4.22221 -0.02815
C 15.94403 2.09778 -0.05302
C 16.03822 0.6942 0.00213
C 14.76634 34.0701 -0.00066
C 17.26917 32.61781 -0.00289
C 18.42163 31.92749 0.00028
C 18.34672 30.52371 -0.02213
C 17.17799 29.74183 0.03698
C 17.24461 28.36956 -0.00109
C 18.61762 27.60094 -0.00491
C 14.71205 2.77711 -0.04147
C 9.79852 28.43259 -0.01275
C 9.78434 29.84883 -0.01111
C 11.03309 30.57407 0.02841
C 3.59651 0.73743 -0.01343
C 2.38449 0.08314 0.00988
C 4.90646 32.67889 0.0276
C 6.1326 31.9439 0.01305
C 6.03488 30.5413 -0.00077
C 4.8483 29.90672 0.03368
C 4.85227 28.4974 -0.02929
C 6.11676 27.73035 -0.00966
C 6.10032 26.36339 -0.03337
C 4.89984 25.61739 0.01227
C 4.87661 24.20334 0.00873
C 6.08173 23.52005 -0.00049
C 6.09443 22.06261 0.00848
C 4.86905 21.34272 -0.01303
C 4.86576 19.92582 -0.01378
C 6.11852 19.20189 0.02635
C 6.10826 17.7919 0.0127
C 4.91929 17.02057 0.01396
C 4.97538 15.53876 0.01849
C 3.62387 2.15495 0.01087
C 2.41607 2.97805 -0.05697
C 2.36474 4.41176 -0.00725
C 3.56016 5.16945 0.02322
C 3.58535 30.65266 -0.01509
C 2.3779 29.89481 0.03267
C 2.44866 28.47592 0.02374
C 3.65694 27.69598 0.00402
C 3.68365 26.30715 0.0073
C 2.40229 25.62111 0.0174
C 2.40573 24.24006 0.03828
C 3.62626 23.66536 0.01226
C 3.75115 22.15333 -0.00279
C 6.14124 14.84857 -0.01142
C 2.44913 21.35573 0.01996
C 3.65054 19.23699 0.01465
C 3.66009 17.77599 -0.00074
C 2.47678 16.97574 -0.00518
C 2.50202 15.47131 0.0086
C 3.8219 14.74687 -0.00643
C 3.80162 13.15554 0.017
C 2.45802 12.4746 -0.03113
C 2.2885 7.40311 -0.02566
C 3.57969 6.59384 -0.00094
C 2.43317 19.99122 -0.03996
C 6.31673 13.45498 -0.00562
C 5.375 12.31609 -0.00494
C 6.05923 11.20371 0.00054
C 8.58964 17.86462 -0.00191
C 7.37273 17.17149 0.00438
C 7.41686 15.7027 0.01291
C 8.57093 15.07925 0.00093
C 8.81258 13.69982 0.00057
C 7.63875 12.88029 -0.01634
C 7.48301 11.40411 -0.00334
C 8.52793 10.56499 0.02339
C 8.82406 9.17121 0.01641
C 8.60031 19.31318 0.00373
C 7.40339 8.66322 -0.00719
C 8.79535 6.45285 -0.01062
C 8.64314 5.07097 -0.00033
C 7.37797 4.33101 0.03589
C 7.37894 2.87682 -0.02759
C 8.5649 2.15663 0.0402
C 8.53929 0.80728 0.00572
C 7.34634 0.0832 0.03592
C 9.78863 32.70982 0.00406
C 11.00018 31.96567 0.00943
C 7.53026 7.24139 0.01364
C 19.53517 19.86328 0.00654
C 7.27132 20.00465 0.02147
C 8.56844 22.08737 -0.01118
C 5.97237 9.56368 0.03007
C 4.99629 8.71158 -0.00095
C 4.9074 7.299 0.01572
C 6.24354 6.5402 -0.04848
C 6.08765 5.04285 -0.00892
C 4.80424 4.42826 -0.01362
C 4.80245 2.95445 -0.0008
C 6.06385 2.30778 0.0288
C 6.07736 0.80599 0.00393
C 7.38103 21.40888 -0.014
C 4.86616 0.04936 0.00895
C 8.51797 32.08756 0.02888
C 8.5411 30.66247 -0.00482
C 7.26157 29.90687 -0.01384
C 7.34767 28.46961 0.03693
C 8.56522 27.78998 0.01745
C 8.61137 26.37466 0.00488
C 7.36191 25.69355 -0.01004
C 7.30234 24.14838 -0.02896
C 8.53364 23.52012 -0.00131
C 7.32744 32.74891 0.00685
C 20.82699 19.19285 -0.00703
C 20.85262 17.74267 -0.04076
C 19.65817 17.09148 -0.00652
C 29.5454 2.87305 0.02108
C 30.73336 2.06007 0.00716
C 30.64018 0.67277 0.00307
C 29.42392 34.0168 0.00346
C 31.89053 32.734 0.01713
C 33.08966 31.9412 -0.01694
C 33.12774 30.55311 0.01428
C 31.90448 29.89458 -0.02142
C 31.90797 28.48486 0.0544
C 33.17497 27.7255 0.00026
C 33.20045 26.33348 0.00682
C 32.03235 25.62384 -0.01779
C 32.05545 24.13489 0.03794
C 33.21889 23.4177 0.01927
C 33.20371 22.00806 0.01574
C 31.89159 21.32497 -0.02383
C 31.86107 19.9178 -0.01429
C 33.09377 19.20519 -0.0136
C 33.18771 17.74646 0.00594
C 29.45223 4.26501 0.0103
C 30.63069 4.94956 0.07705
C 30.78189 6.37009 0.01908
C 29.51155 7.1283 0.01518
C 29.34147 28.37421 0.00924
C 30.6216 27.8107 0.02326
C 30.78529 26.38439 0.00261
C 29.57144 25.57319 0.03265
C 29.55468 24.22615 -0.02049
C 30.82463 23.49451 -0.01854
C 30.69914 22.10693 -0.01415
C 29.37883 21.3521 -0.03039
C 29.40093 19.98883 0.01836
C 31.97648 17.07276 -0.02474
C 30.6749 19.23811 0.03531
C 29.54051 17.01974 0.0101
C 29.51222 15.58205 0.01705
C 30.73423 14.9231 -0.0405
C 30.70152 13.46419 -0.01303
C 29.45902 12.7142 -0.01461
C 29.49175 11.33223 -0.02155
C 30.73635 10.72888 -0.00944
C 30.76681 9.24148 -0.03735
C 29.50123 8.53723 -0.00971
C 30.7041 17.80556 -0.00669
C 31.99596 15.67289 0.00369
C 33.18648 14.90289 0.00455
C 33.16071 13.4706 -0.00644
C 34.39033 21.30347 -0.02213
C 34.36536 19.86436 0.01951
C 1.22411 19.22449 -0.01678
C 1.22578 17.78015 0.01223
C 0.01837 17.08379 0.00648
C 0.01719 15.55356 0.02114
C 1.31583 14.8449 -0.02957
C 1.32033 13.35279 0.00343
C 0.0189 12.83617 -0.02656
C 1.17332 22.04139 0.02712
C 0.15354 11.24565 -0.02442
C 1.43193 9.08618 -0.00583
C 0.02136 8.53933 -0.02302
C 34.31438 7.05462 -0.02849
C 1.18146 6.51887 0.02931
C 1.18567 5.04941 0.00628
C 34.30242 4.28745 -0.0345
C 34.38367 2.85012 -0.00931
C 1.17493 2.14249 -0.00939
C 1.12554 0.76286 -0.00468
C 1.47867 10.6681 -0.00027
C 29.45287 29.79249 0.0014
C 1.16307 23.46974 0.00723
C 34.40009 25.58176 -0.05239
C 31.95013 12.75659 -0.01839
C 32.02888 11.39825 0.00137
C 33.26938 10.64923 0.00199
C 33.23073 9.28134 0.04381
C 31.96069 8.54068 0.02806
C 31.95265 7.16652 0.01504
C 33.07393 6.34818 -0.00069
C 33.15831 4.98629 0.04926
C 31.90969 4.28691 -0.03838
C 34.39807 24.15538 0.03076
C 31.98628 2.79547 0.00349
C 33.12784 0.74959 -0.00841
C 31.87321 0.00153 0.0001
C 34.39415 32.71725 -0.02927
C 1.17981 32.02263 -0.01404
C 1.13682 30.63588 0.01027
C 34.35176 29.87313 0.01831
C 34.38923 28.48449 -0.01037
C 1.14957 27.79801 -0.00439
C 1.16585 26.37685 -0.00598
C 33.18111 2.09836 -0.00323
C 3.61978 32.0845 0.00643
C 30.66036 30.49248 0.01324
C 29.42421 32.66644 0.01177
C 22.02512 12.74156 0.03374
C 22.11592 11.23408 -0.02845
C 23.4096 10.55549 -0.03213
C 23.35305 9.07238 0.02239
C 22.03398 8.4448 0.01153
C 22.12774 7.03632 0.02734
C 23.33352 6.32308 -0.0055
C 23.35258 4.88356 0.01515
C 22.13733 4.18746 -0.00225
C 22.09223 2.79589 0.00071
C 23.37763 2.12245 -0.01107
C 23.36138 0.64248 -0.01586
C 22.08866 34.00018 -0.01971
C 24.48063 32.52251 -0.02118
C 25.76918 31.88829 0.00733
C 25.79781 30.50593 -0.00178
C 24.65899 29.75461 0.00768
C 24.63252 19.85865 -0.0276
C 25.80316 19.06786 0.03005
C 23.33645 13.42294 0.0296
C 23.31428 14.8963 0.03046
C 21.94374 15.66904 -0.00381
C 22.10555 17.11518 0.01852
C 20.94801 14.85849 0.0058
C 20.85962 13.51268 -0.00865
C 20.86424 10.57224 0.00675
C 20.79152 9.18873 -0.00311
C 19.64402 8.35624 0.00742
C 19.63594 6.96891 -0.01594
C 20.92707 6.27911 0.0106
C 20.87672 4.84953 -0.01154
C 19.6808 4.18756 -0.01721
C 25.72158 17.66336 -0.04078
C 19.64282 2.86226 -0.02422
C 20.86399 0.64817 0.00096
C 19.65467 34.02064 -0.01527
C 22.07984 32.57337 0.01087
C 23.28919 31.73923 0.00199
C 23.31853 30.3054 0.01511
C 21.96592 29.74347 -0.00478
C 22.02119 19.9261 -0.01662
C 23.35503 19.23835 -0.01185
C 23.30236 17.83782 0.01126
C 20.83536 2.04664 0.01277
C 24.52348 16.98954 0.02117
C 24.47772 15.62732 0.02737
C 25.69875 14.87545 -0.00498
C 27.01881 19.92288 -0.02815
C 28.31113 19.1027 -0.00942
C 28.25284 17.69117 0.00487
C 27.03221 16.97177 0.00826
C 27.03639 15.56217 -0.00294
C 28.24213 14.89334 0.00152
C 28.22586 13.43828 0.01257
C 26.97717 12.74952 0.02316
C 27.01196 11.28588 0.04185
C 26.92891 21.30867 0.00622
C 28.2365 10.58063 0.00194
C 26.99548 8.5279 0.02611
C 27.12722 7.10493 0.02198
C 28.22046 6.32983 0.01094
C 28.2445 4.96892 0.00235
C 26.9176 4.17171 0.01495
C 27.02094 2.7759 0.01259
C 28.22896 2.16388 0.01799
C 28.21641 0.74778 0.01699
C 27.05059 34.07308 -0.00416
C 28.30704 9.18031 -0.00621
C 30.64018 31.97656 0.04266
C 28.086 22.13544 -0.0032
C 28.36263 26.09448 -0.01654
C 25.72341 13.49951 0.00135
C 24.54928 12.70447 0.03102
C 24.57335 11.34705 0.02555
C 25.73073 10.58882 0.01423
C 25.79273 9.18044 -0.00285
C 24.57017 8.40766 -0.009
C 24.51323 7.06676 -0.01199
C 25.79119 6.36958 -0.00229
C 25.8459 5.0177 -0.00938
C 28.35591 23.62591 -0.00037
C 24.65332 4.21094 -0.0264
C 25.83015 2.02952 0.00684
C 25.74402 0.60908 -0.01052
C 24.50374 33.94695 -0.01679
C 26.96225 32.66353 0.00367
C 28.20092 31.96558 0.04306
C 28.29854 30.51652 0.00996
C 27.0418 29.77596 0.00195
C 26.91711 28.35411 -0.00802
C 28.17898 27.53006 -0.00218
C 24.58818 2.75266 -0.01154
C 2.37421 32.73598 0.00907
