366
Graphene
C 34.38884 0.00859 0.01295
C 9.75432 2.8804 0.00374
C 10.95786 2.14556 0.00052
C 10.96257 0.68277 -0.03682
C 9.79723 34.0625 0.01965
C 12.25884 32.70956 0.02058
C 13.53716 32.03987 -0.01957
C 13.54111 30.6369 -0.0108
C 12.34342 29.92367 -0.00368
C 9.69519 4.18772 -0.02813
C 12.29994 28.5196 -0.02696
C 13.53653 26.3367 0.00228
C 12.30696 25.60521 0.00798
C 12.29989 24.08777 0.00422
C 13.46124 23.40404 0.0351
C 13.47363 22.01343 -0.03113
C 12.26181 21.18894 0.02098
C 12.01302 19.76637 0.01848
C 13.33908 19.28216 -0.00619
C 13.51177 27.72089 -0.00114
C 10.88994 4.93272 -0.01952
C 10.93188 6.22655 0.05265
C 9.8593 7.06365 -0.01717
C 9.81107 32.6543 -0.02971
C 10.99781 31.96471 0.02894
C 11.08678 30.50333 -0.01789
C 9.86815 29.79477 0.00444
C 9.86038 28.41886 -0.00925
C 11.09248 27.79214 0.01877
C 11.07069 26.32752 0.01363
C 9.92539 25.58318 -0.02162
C 9.91194 24.14164 0.00415
C 11.04074 23.442 -0.0014
C 11.05582 21.9806 0.02162
C 9.75461 21.38592 0.0076
C 9.34407 19.85892 0.01241
C 10.68667 19.02376 -0.01454
C 11.26942 17.76967 0.01945
C 10.15964 15.37018 0.01416
C 9.72189 12.72968 0.03542
C 9.70358 11.27953 0.02299
C 9.70693 8.4494 0.00244
C 13.42563 4.93642 -0.02162
C 12.23442 4.18929 0.00889
C 12.287 2.76212 -0.00481
C 13.56846 2.24005 0.00979
C 17.16085 29.76576 -0.00111
C 17.21978 28.41565 -0.03557
C 18.43063 27.64303 0.03754
C 18.46256 26.21065 0.01739
C 17.25682 25.55814 0.00755
C 17.13939 24.16725 -0.0054
C 18.40924 23.30518 0.00667
C 18.43406 21.9557 0.00143
C 17.26805 21.16935 -0.017
C 17.40352 19.81868 0.00364
C 17.18236 2.86974 -0.00831
C 18.43575 2.30294 -0.02957
C 18.42162 0.80155 -0.04422
C 17.2424 0.06804 0.00654
C 19.69389 32.58295 -0.00703
C 20.87236 31.914 -0.04076
C 20.83091 30.49726 -0.00652
C 19.69613 29.80986 0.0058
C 19.68615 28.40123 -0.00865
C 18.40023 30.48064 0.04892
C 7.33465 34.07751 0.00165
C 18.3849 31.9052 0.01452
C 14.73015 0.06874 0.02691
C 13.54567 0.81102 0.01443
C 12.34889 0.03154 0.03505
C 14.69632 32.75261 -0.02815
C 15.90096 31.99266 -0.04147
C 15.9826 30.54217 -0.05302
C 14.74709 29.87924 0.00213
C 14.73617 28.39853 -0.00066
C 15.96033 27.72684 -0.00289
C 15.99433 26.3153 0.00028
C 14.75196 25.67046 -0.02213
C 14.70837 24.09153 0.03698
C 15.96084 23.39223 -0.00109
C 16.00524 21.88414 -0.00491
C 14.70777 21.24087 0.03338
C 14.42912 19.80382 -0.0258
C 14.59463 4.32382 -0.0331
C 14.77269 2.93114 -0.00316
C 16.0216 2.17096 0.02188
C 15.98537 0.74806 -0.01979
C 17.15125 32.75602 -0.01581
C 8.52284 0.76862 0.02819
C 8.5217 2.20755 -0.00891
C 7.28435 2.8465 -0.01046
C 3.64434 6.46301 -0.00049
C 3.65123 5.04614 0.00848
C 2.41809 4.32793 -0.01303
C 2.42121 2.90012 -0.01378
C 3.65728 2.17935 0.02635
C 3.64797 0.72105 0.0127
C 2.4341 0.06928 0.01396
C 4.7761 32.66147 0.01849
C 6.10407 31.95612 -0.01142
C 6.1273 30.57149 -0.00562
C 4.86315 29.83506 -0.00494
C 4.89943 28.3854 0.00054
C 6.16084 27.67098 0.03007
C 6.1328 26.26224 -0.00095
C 4.84545 25.6236 0.01572
C 4.86596 24.18048 -0.04848
C 6.13866 23.48982 -0.00892
C 6.18025 22.04896 -0.01362
C 4.93694 21.32982 -0.0008
C 2.40238 7.17584 0.00873
C 5.05665 19.9326 0.0288
C 2.43599 8.61377 0.01227
C 3.69637 10.71407 -0.00966
C 3.66418 30.53058 -0.00074
C 2.37456 29.88633 -0.00518
C 2.32686 28.49386 0.0086
C 3.65586 27.80978 -0.00643
C 3.63893 26.35084 0.017
C 2.42599 25.62971 -0.03113
C 2.41254 24.19131 -0.02566
C 3.651 23.43804 -0.00094
C 3.71796 22.0424 0.02322
C 2.45444 21.36987 -0.00725
C 2.51356 19.97648 -0.05697
C 3.79328 19.26644 0.01087
C 3.76423 17.85728 -0.01343
C 2.49329 17.08561 0.00988
C 2.51714 15.63433 0.0276
C 3.75535 14.97502 0.01305
C 3.70923 13.53187 -0.00077
C 2.39589 12.92665 0.03368
C 2.41172 11.43259 -0.02929
C 3.62866 9.34365 -0.03337
C 20.8275 27.63989 0.00675
C 6.36831 19.19827 0.00393
C 4.99247 17.07325 0.00685
C 7.42409 25.63787 0.01364
C 7.34238 24.20319 -0.01062
C 8.60888 23.5462 -0.00033
C 8.60265 22.21504 0.03589
C 7.43668 21.33853 -0.02759
C 7.72248 19.98552 0.0402
C 7.47744 17.1465 0.00572
C 7.5077 15.75299 0.03592
C 8.78711 15.07359 0.00406
C 8.7738 13.61991 0.00943
C 7.4426 12.84154 0.02841
C 7.369 11.47826 -0.01111
C 8.4728 10.6316 -0.01275
C 8.49927 9.11969 0.00985
C 7.22836 8.45822 -0.02245
C 7.38003 7.07343 -0.00428
C 8.56067 6.44464 0.03101
C 8.55415 4.98674 -0.01536
C 7.32435 4.2955 -0.02689
C 8.67957 26.31501 -0.00719
C 6.27821 17.78508 0.00895
C 8.60854 27.71695 0.01641
C 7.37075 29.87454 -0.00334
C 5.00771 15.68433 0.02888
C 6.23069 14.98125 -0.00482
C 6.19677 13.59611 -0.01384
C 4.99023 12.82511 0.03693
C 4.97328 11.463 0.01745
C 6.15879 10.70153 0.00488
C 6.13278 9.29699 -0.01004
C 4.82188 8.59605 -0.02896
C 4.91924 7.09385 -0.00131
C 6.17431 6.35986 -0.01118
C 6.13548 4.96381 -0.014
C 4.8367 4.39541 0.02147
C 4.85856 2.94391 0.00373
C 6.06171 2.12137 -0.00191
C 6.02789 0.72558 0.00438
C 4.86625 0.02874 0.01291
C 7.38253 32.64467 0.00093
C 8.60125 31.9928 0.00057
C 8.61184 30.569 -0.01634
C 7.37978 28.40922 0.02339
C 20.84903 26.20689 -0.00311
C 19.62249 25.4261 0.00742
C 19.64776 23.99032 -0.01594
C 30.63889 0.705 0.00307
C 29.36113 0.00501 0.00346
C 31.93622 32.71421 0.01713
C 33.16714 31.97964 -0.01694
C 33.10773 30.59808 0.01428
C 31.89358 29.85845 -0.02142
C 31.8988 28.44363 0.0544
C 33.16763 27.74879 0.00026
C 33.10766 26.30882 0.00682
C 31.81301 25.61263 -0.01779
C 31.8944 24.13572 0.03794
C 33.15211 23.44301 0.01927
C 33.17878 22.02274 0.01574
C 31.91265 21.29207 -0.02383
C 31.94384 19.92005 -0.01429
C 33.17728 19.21818 -0.0136
C 33.21869 17.752 0.00594
C 31.96952 16.98649 -0.02474
C 31.97321 15.62778 0.00369
C 30.68778 2.14972 0.00716
C 33.22648 14.95935 0.00455
C 29.44816 2.82725 0.02108
C 30.76428 4.93983 0.07705
C 29.4259 25.48354 0.03265
C 29.45864 24.11588 -0.02049
C 30.67894 23.40724 -0.01854
C 30.73244 22.00624 -0.01415
C 29.48765 21.24528 -0.03039
C 29.53498 19.8432 0.01836
C 30.79901 19.2054 0.03531
C 30.72431 17.76499 -0.00669
C 29.45593 17.0367 0.0101
C 29.54881 15.64028 0.01705
C 30.77456 14.92041 -0.0405
C 30.78884 13.51207 -0.01303
C 29.57238 12.72643 -0.01461
C 29.4546 11.33687 -0.02155
C 30.72594 10.67347 -0.00944
C 30.80549 9.20996 -0.03735
C 29.54023 8.56968 -0.00971
C 29.50095 7.10895 0.01518
C 30.76206 6.35631 0.01908
C 29.53388 4.29378 0.0103
C 30.63221 26.28929 0.00261
C 33.23405 13.48182 -0.00644
C 31.9402 11.36944 0.00137
C 34.42547 19.92041 0.01951
C 1.20456 19.21235 -0.01678
C 1.27364 17.78772 0.01223
C 0.03506 17.12555 0.00648
C 0.01825 15.67416 0.02114
C 1.22251 14.96315 -0.02957
C 1.11794 13.55313 0.00343
C 34.37751 12.78565 -0.02656
C 34.34231 11.33411 -0.02442
C 1.19806 10.70063 -0.00027
C 1.19388 9.3426 -0.00583
C 0.00306 8.53846 -0.02302
C 34.40316 7.11474 -0.02849
C 1.23469 6.44506 0.02931
C 1.22043 5.04923 0.00628
C 34.38068 4.35022 -0.0345
C 0.03469 2.91396 -0.00931
C 1.19467 2.17024 -0.00939
C 1.19138 0.71909 -0.00468
C 34.39674 21.3656 -0.02213
C 32.00478 12.76664 -0.01839
C 1.21876 22.04101 0.02712
C 34.4054 24.21454 0.03076
C 33.17305 10.65166 0.00199
C 33.19248 9.19845 0.04381
C 31.97779 8.56142 0.02806
C 31.99715 7.16188 0.01504
C 33.13597 6.41446 -0.00069
C 33.1656 5.02446 0.04926
C 31.98504 4.2876 -0.03838
C 31.95252 2.84572 0.00349
C 33.24952 2.21276 -0.00323
C 33.19508 0.76086 -0.00841
C 31.90496 0.04101 0.0001
C 34.41122 32.68425 -0.02927
C 1.20481 31.97362 -0.01404
C 1.15621 30.57831 0.01027
C 34.35677 29.90391 0.01831
C 34.36684 28.46281 -0.01037
C 1.20572 27.74735 -0.00439
C 1.19858 26.256 -0.00598
C 34.35284 25.62504 -0.05239
C 1.17284 23.47473 0.00723
C 3.56062 31.97255 0.01465
C 30.64396 27.75741 0.02326
C 29.36028 29.81131 0.0014
C 22.10171 4.24193 0.02734
C 22.08744 2.78183 -0.0055
C 23.3075 2.06137 0.01515
C 23.2948 0.65981 -0.00225
C 22.06693 33.99462 0.00071
C 24.55825 32.60677 -0.01107
C 25.74603 31.93627 -0.01586
C 25.73151 30.53609 -0.01971
C 24.51547 29.76231 -0.02118
C 24.59839 28.26472 0.00733
C 25.78737 27.60266 -0.00178
C 25.81575 26.14837 0.00768
C 24.51747 25.41885 -0.0276
C 24.54322 23.99458 0.03005
C 25.83395 23.27218 -0.04078
C 25.77748 21.85541 0.02117
C 24.49126 21.1703 0.02737
C 24.59199 19.72915 -0.00498
C 25.91179 19.03321 0.00135
C 23.2827 4.96681 0.01153
C 25.83152 17.5967 0.03102
C 23.31514 19.0181 0.02239
C 22.08278 21.12003 -0.02845
C 20.89276 23.29836 0.0106
C 20.82538 21.89348 -0.01154
C 19.61367 21.17247 -0.01721
C 19.2538 19.78332 -0.02422
C 19.68387 2.69768 0.01277
C 20.89987 2.09152 0.00096
C 20.85319 0.64632 -0.01527
C 19.55053 0.01218 0.01087
C 22.06921 32.65059 0.00199
C 23.31559 31.91169 0.01511
C 23.25216 30.46706 -0.00478
C 22.05839 29.70745 -0.01662
C 22.10378 28.30164 -0.01185
C 23.28946 27.59619 0.01126
C 23.31527 26.17559 0.01852
C 22.05503 25.42602 -0.00381
C 22.10472 23.99472 0.03046
C 23.27559 23.33327 0.0296
C 23.30536 21.87198 0.03374
C 22.29397 19.77434 -0.03213
C 29.44695 28.43419 0.00924
C 24.65279 16.92067 0.02555
C 25.98185 9.69987 -0.00285
C 27.06494 15.44289 -0.00294
C 28.3906 14.88602 0.00152
C 28.32394 13.44935 0.01257
C 27.01852 12.82848 0.02316
C 26.95475 11.37175 0.04185
C 28.27795 10.68648 0.00194
C 28.37364 9.28514 -0.00621
C 26.98384 8.7608 0.02611
C 26.98486 7.16374 0.02198
C 28.25036 6.43308 0.01094
C 28.20671 5.03848 0.00235
C 27.02774 4.27601 0.01495
C 26.9916 2.84851 0.01259
C 28.22605 2.17651 0.01799
C 28.15114 0.74274 0.01699
C 26.95385 0.01735 -0.00416
C 29.46237 32.68759 0.01177
C 30.63037 32.05082 0.04266
C 30.63333 30.48316 0.01324
C 27.08247 16.95821 0.00826
C 25.90259 14.72249 0.01423
C 28.25515 17.72848 0.00487
C 27.10721 19.8469 -0.02815
C 25.79273 6.51231 -0.009
C 25.82492 5.05165 -0.01199
C 24.65983 4.27464 -0.00229
C 24.47392 2.86708 -0.00938
C 25.78903 2.19321 -0.0264
C 25.76052 0.758 -0.01154
C 24.52266 34.05775 0.00684
C 26.98495 32.67425 -0.01052
C 28.1385 31.9761 -0.01679
C 28.19101 30.57801 0.00367
C 26.93778 29.80784 0.04306
C 26.99981 28.37944 0.00996
C 28.20928 27.66437 0.00195
C 28.19256 26.23821 -0.00802
C 26.96304 25.48281 -0.00218
C 26.98654 24.02064 -0.01654
C 28.24163 23.39116 -0.00037
C 28.2256 21.93881 -0.0032
C 27.00191 21.26388 0.00622
C 28.36033 19.11585 -0.00942
C 2.41837 32.74453 -0.03996
