383
Graphene
C 34.2436 34.05566 0.01295
C 11.03374 5.08797 0.0076
C 9.83669 4.38339 0.01241
C 9.81286 2.95803 -0.01454
C 11.07366 2.16853 0.01945
C 11.01489 0.70787 0.01416
C 9.75111 0.09802 0.03542
C 12.22709 32.7263 0.02299
C 13.52039 31.90264 0.00244
C 13.53977 30.51486 -0.01717
C 11.12389 6.47041 0.02162
C 12.21996 29.79723 0.05265
C 13.5672 27.65166 -0.02813
C 13.4597 26.16894 0.00374
C 12.25698 25.47771 0.00052
C 12.34118 24.05538 -0.03682
C 13.71102 23.39562 0.01965
C 13.60543 22.04198 0.02058
C 12.29332 21.31045 -0.01957
C 12.22811 19.88476 -0.0108
C 13.45996 19.13389 -0.00368
C 12.32362 28.41865 -0.01952
C 13.37625 17.7978 -0.02696
C 9.86427 7.17177 -0.0014
C 11.11814 9.27977 -0.02162
C 11.05741 30.53194 0.02841
C 9.78492 29.87563 -0.01111
C 9.75957 28.44101 -0.01275
C 10.96734 27.73833 0.00985
C 11.12004 26.24563 -0.02245
C 9.85788 25.54555 -0.00428
C 9.89221 24.10855 0.03101
C 11.12207 23.42689 -0.01536
C 11.06881 22.01597 -0.02689
C 9.86575 8.61139 0.00415
C 9.81815 21.3217 -0.01046
C 11.0775 19.13484 0.02819
C 11.03686 17.64793 0.00165
C 9.77634 16.98271 -0.02971
C 9.84318 15.60692 0.02894
C 11.14457 14.86857 -0.01789
C 11.07563 13.54109 0.00444
C 9.8489 12.81954 -0.00925
C 9.81677 11.39954 0.01877
C 11.03126 10.66646 0.01363
C 9.85885 19.86585 -0.00891
C 11.00466 31.94029 0.00943
C 12.26328 16.92385 -0.00114
C 13.62692 14.9075 0.00798
C 14.60138 21.13488 -0.0258
C 14.77011 19.76576 -0.0331
C 14.75507 17.20813 -0.00316
C 14.76151 15.88242 0.02188
C 15.90852 14.87413 -0.01979
C 15.79124 13.5581 0.02691
C 14.79873 12.63896 -0.01581
C 14.78073 11.24827 0.01452
C 16.06542 9.08299 0.04892
C 16.45132 24.00927 0.03338
C 14.86329 8.47426 -0.00111
C 15.91659 6.38133 0.03754
C 16.11173 4.90568 0.01739
C 14.79001 4.2564 0.00755
C 14.68466 2.8368 -0.0054
C 15.91767 2.06248 0.00667
C 15.97691 0.64239 0.00143
C 14.76352 0.01585 -0.017
C 17.17424 32.55303 0.00364
C 18.40026 31.85774 -0.00831
C 14.70976 7.07429 -0.03557
C 12.3793 15.58133 0.00228
C 15.00312 24.14058 -0.00491
C 15.89503 26.13564 0.03698
C 13.61599 13.42468 0.00422
C 12.33529 12.82254 0.0351
C 12.29522 11.39547 -0.03113
C 13.57633 10.68069 0.02098
C 13.66044 9.27244 0.01848
C 12.39639 8.61214 -0.00619
C 12.3392 7.1796 -0.02162
C 13.46266 6.4327 0.00889
C 13.52977 5.00091 -0.00481
C 14.69723 25.54203 -0.00109
C 12.28434 4.30057 0.00979
C 13.45597 2.18192 0.03505
C 13.5326 0.74412 -0.02815
C 12.23887 0.0239 -0.04147
C 14.77123 32.62204 -0.05302
C 16.01122 31.88534 0.00213
C 15.91161 30.55121 -0.00066
C 14.74492 29.77629 -0.00289
C 14.77221 28.37778 0.00028
C 16.01197 27.59042 -0.02213
C 12.22774 2.88598 0.01443
C 18.40091 30.45009 -0.02957
C 9.84034 32.74203 0.00406
C 8.52844 0.81706 0.00572
C 3.57788 5.00448 -0.00094
C 2.37113 4.31316 0.02322
C 2.32221 2.90924 -0.00725
C 3.5895 2.27561 -0.05697
C 3.59019 0.81885 0.01087
C 2.38219 0.05164 -0.01343
C 4.84917 32.8015 0.00988
C 6.11178 32.07516 0.0276
C 6.09061 30.62014 0.01305
C 3.6452 6.40153 -0.02566
C 4.82131 29.92123 -0.00077
C 6.12662 27.77375 -0.02929
C 6.10552 26.35477 -0.00966
C 4.93027 25.63005 -0.03337
C 4.86822 24.13144 0.01227
C 6.15886 23.49893 0.00873
C 6.20692 22.06915 -0.00049
C 4.9798 21.38361 0.00848
C 4.96223 19.95476 -0.01303
C 6.15376 19.11124 -0.01378
C 4.86917 28.47356 0.03368
C 6.09272 17.78477 0.02635
C 2.43876 7.15075 -0.03113
C 3.5908 9.27674 -0.00643
C 3.57573 30.58903 -0.003
C 2.39498 29.89063 0.01402
C 2.33715 28.48867 0.02379
C 3.58721 27.71757 0.00907
C 3.57603 26.37834 0.00643
C 2.48782 25.59309 -0.01509
C 2.35353 24.17583 0.03267
C 3.66881 23.45394 0.02374
C 3.70096 22.03229 0.00402
C 2.37502 8.52369 0.017
C 2.51705 21.36986 0.0073
C 3.71727 19.20172 0.03828
C 3.72847 17.81151 0.01226
C 2.52244 17.04909 -0.00279
C 2.49158 15.66578 0.01996
C 3.69917 14.93352 -0.03996
C 3.63416 13.49519 0.01465
C 2.38836 12.83501 -0.00074
C 2.45506 11.42222 -0.00518
C 3.56899 10.65708 0.0086
C 2.52054 19.99047 0.0174
C 7.31205 0.09274 0.03592
C 4.91265 17.01915 0.0127
C 6.16991 14.90431 0.01849
C 8.54622 22.05057 -0.01118
C 7.40894 21.31169 -0.014
C 7.34488 19.88451 0.02147
C 8.59859 19.32314 0.00373
C 8.61507 17.79748 -0.00191
C 7.40515 17.04719 0.00438
C 7.44103 15.64466 0.01291
C 8.56096 14.89131 0.00093
C 8.55712 13.46431 0.00057
C 8.58361 23.49522 -0.00131
C 7.35429 12.81953 -0.01634
C 8.58963 10.70251 0.02339
C 8.62282 9.33813 0.01641
C 7.34709 8.61845 -0.00719
C 7.27945 7.19676 0.01364
C 8.5374 6.47732 -0.01062
C 8.58783 5.07616 -0.00033
C 7.38262 4.36631 0.03589
C 7.34203 2.92722 -0.02759
C 8.55318 2.22332 0.0402
C 7.31013 11.35202 -0.00334
C 4.9449 15.65932 0.01396
C 7.37288 24.25932 -0.02896
C 8.59465 26.31637 0.00488
C 6.13246 13.4732 -0.01142
C 4.86575 12.79493 -0.00562
C 4.87971 11.40304 -0.00494
C 6.03949 10.70847 0.00054
C 6.08373 9.33019 0.03007
C 4.76984 8.61045 -0.00095
C 4.84296 7.12312 0.01572
C 6.0753 6.47681 -0.04848
C 6.05887 5.06463 -0.00892
C 7.38144 25.70799 -0.01004
C 4.83988 4.38181 -0.01362
C 6.0653 2.2698 0.0288
C 6.09185 0.8327 0.00393
C 4.87118 0.14575 0.00895
C 7.34091 32.81976 0.00685
C 8.50744 32.07826 0.02888
C 8.51648 30.64058 -0.00482
C 7.27631 29.92105 -0.01384
C 7.35901 28.53951 0.03693
C 8.55688 27.78729 0.01745
C 4.85352 2.91896 -0.0008
C 3.62274 32.05411 0.00031
C 17.18889 29.73782 -0.04422
C 18.36021 27.40852 -0.00703
C 30.64593 6.40898 0.0103
C 30.65892 5.03399 0.02108
C 29.39908 4.29679 0.00716
C 29.47973 2.92649 0.00307
C 30.69724 2.17661 0.00346
C 30.7179 0.71841 0.01713
C 29.53877 0.01468 -0.01694
C 31.76917 32.74373 0.01428
C 32.90957 31.88907 -0.02142
C 29.44069 7.10638 0.07705
C 33.12339 30.48758 0.0544
C 33.12071 26.42956 0.00682
C 31.89522 25.70556 -0.01779
C 32.02445 24.22704 0.03794
C 33.12827 23.43769 0.01927
C 33.25566 22.04633 0.01574
C 32.09568 21.23637 -0.02383
C 32.01304 19.85682 -0.01429
C 33.26586 19.16542 -0.0136
C 33.20878 17.74987 0.00594
C 33.22128 27.72215 0.00026
C 31.91279 16.95634 -0.02474
C 29.45071 8.5463 0.01908
C 30.68623 10.68225 -0.00971
C 26.97443 4.21184 0.0014
C 27.00872 2.75886 0.00924
C 28.26477 2.22438 0.02326
C 28.40415 0.74343 0.00261
C 27.1563 34.07221 0.03265
C 30.59614 26.17398 -0.02049
C 29.50001 25.41671 -0.01854
C 29.56113 24.01723 -0.01415
C 30.86114 23.41 -0.03039
C 30.69994 9.24443 0.01518
C 30.84503 22.02027 0.01836
C 29.6268 20.01514 -0.00669
C 30.8036 19.15812 0.0101
C 30.74614 17.76101 0.01705
C 29.44627 17.17161 -0.0405
C 29.40833 15.75942 -0.01303
C 30.66613 14.99523 -0.01461
C 30.63639 13.53921 -0.02155
C 29.39693 12.82156 -0.00944
C 29.48199 11.34196 -0.03735
C 29.63341 21.33888 0.03531
C 28.16754 4.96496 0.01324
C 31.93626 15.59531 0.00369
C 33.19305 13.52195 -0.00644
C 0.08326 21.33866 -0.02213
C 0.04504 19.89659 0.01951
C 1.27557 19.19041 -0.01678
C 1.25077 17.7152 0.01223
C 34.41766 17.08088 0.00648
C 0.01836 15.61827 0.02114
C 1.26371 14.9728 -0.02957
C 1.18028 13.55188 0.00343
C 34.40983 12.78502 -0.02656
C 1.2819 22.11857 0.02712
C 34.40997 11.32854 -0.02442
C 1.17263 9.31366 -0.00583
C 34.31803 8.57581 -0.02302
C 34.31581 7.14416 -0.02849
C 1.18871 6.4417 0.02931
C 1.17925 5.06641 0.00628
C 34.37254 4.36932 -0.0345
C 34.29826 2.99158 -0.00931
C 1.06543 2.16371 -0.00939
C 1.06825 0.68719 -0.00468
C 1.22037 10.6834 -0.00027
C 33.18073 14.92477 0.00455
C 1.15111 23.53379 0.00723
C 34.28444 25.59769 -0.05239
C 31.94256 12.82224 -0.01839
C 31.86769 11.45854 0.00137
C 33.09618 10.6612 0.00199
C 33.15597 9.23883 0.04381
C 31.89102 8.5549 0.02806
C 31.87495 7.07776 0.01504
C 33.04587 6.36804 -0.00069
C 33.11955 5.04376 0.04926
C 31.85842 4.29164 -0.03838
C 34.28032 24.17614 0.03076
C 31.85566 2.89699 0.00349
C 33.14726 0.81513 -0.00841
C 31.91404 0.0611 0.0001
C 34.22157 32.63725 -0.02927
C 1.11915 32.01914 -0.01404
C 1.14719 30.67453 0.01027
C 34.36376 29.87674 0.01831
C 34.33028 28.47142 -0.01037
C 1.10648 27.77169 -0.00439
C 1.07337 26.30136 -0.00598
C 33.13622 2.25785 -0.00323
C 17.1845 28.26791 0.00654
C 28.16436 6.43613 0.04266
C 26.9486 8.57403 -0.00416
C 19.6349 8.38015 0.03046
C 19.6194 7.01994 0.0296
C 20.87877 6.31179 0.03374
C 20.85449 4.92811 -0.02845
C 19.65917 4.21494 -0.03213
C 19.59452 2.76228 0.02239
C 20.82788 2.06089 0.01153
C 20.9696 0.69034 0.02734
C 19.6695 34.05155 -0.0055
C 20.88825 8.93558 -0.00381
C 22.03641 32.58522 0.01515
C 23.30644 30.45407 0.00071
C 21.97316 29.85058 -0.01107
C 21.95975 28.47221 -0.01586
C 23.18238 27.75586 -0.01971
C 23.14572 26.25601 -0.02118
C 22.15368 25.29733 0.00733
C 23.24752 13.44609 -0.00178
C 22.17333 12.53944 0.00768
C 22.22646 11.16461 -0.0276
C 23.3256 31.98448 -0.00225
C 23.38506 10.51826 0.03005
C 21.05796 10.41759 0.01852
C 19.38804 12.43956 -0.01185
C 18.29416 25.94647 -0.04076
C 16.95647 25.17184 -0.00652
C 18.15802 12.95755 0.0058
C 17.18581 13.87689 -0.00865
C 17.08596 7.14469 0.00675
C 18.31258 6.38472 -0.00311
C 18.44595 4.95293 0.00742
C 17.25401 4.17227 -0.01594
C 17.16823 2.74502 0.0106
C 20.01026 11.2705 0.01126
C 18.38376 2.06779 -0.01154
C 17.21439 34.0242 -0.02422
C 19.61728 32.60565 0.01277
C 20.85044 31.85404 0.00096
C 20.75913 30.46677 -0.01527
C 19.60479 29.67782 0.01087
C 19.57947 28.17525 0.00199
C 20.89357 27.57451 0.01511
C 20.83016 26.12288 -0.00478
C 19.56026 25.57319 -0.01662
C 18.42997 0.64463 -0.01721
C 27.03008 7.114 0.01177
C 23.33849 9.08312 -0.04078
C 22.10475 6.93728 0.02737
C 24.64388 2.84402 0.00622
C 25.76656 2.07683 -0.02815
C 25.84894 0.58641 -0.00942
C 24.67135 34.02435 0.00487
C 26.97241 32.80018 0.00826
C 26.99131 25.39453 -0.00294
C 27.3073 24.05987 0.00152
C 28.28481 23.04239 0.01257
C 28.1929 21.72741 0.02316
C 24.59718 4.20028 -0.0032
C 27.42491 20.37156 0.04185
C 28.19533 18.0696 -0.00621
C 27.18295 17.17611 0.02611
C 26.92458 15.71356 0.02198
C 28.14947 14.98306 0.01094
C 28.18461 13.50571 0.00235
C 26.97793 12.8163 0.01495
C 26.90827 11.37725 0.01259
C 28.14767 10.7259 0.01799
C 28.27056 9.265 0.01699
C 28.35433 19.46751 0.00194
C 22.17932 8.29218 0.02117
C 25.78406 4.96094 -0.00037
C 24.55847 7.02781 -0.00218
C 23.32081 6.28528 -0.00498
C 23.37891 4.87829 0.00135
C 22.13837 4.20186 0.03102
C 22.08408 2.8315 0.02555
C 23.40579 2.08322 0.01423
C 23.42867 0.6612 -0.00285
C 22.17089 34.07519 -0.009
C 24.60332 32.61112 -0.01199
C 25.85348 32.00808 -0.00229
C 25.83589 6.39202 -0.01654
C 24.49533 29.74158 -0.00938
C 25.9607 26.28203 -0.01154
C 24.57637 26.00193 0.00684
C 25.69143 14.94476 -0.01052
C 25.74663 13.54266 -0.01679
C 24.54885 12.74997 0.00367
C 24.53641 11.31291 0.04306
C 25.73798 10.62536 0.00996
C 25.73077 9.1934 0.00195
C 24.52835 8.48219 -0.00802
C 24.41885 28.39281 -0.0264
C 2.41183 32.77401 0.03189
