386
Graphene
C 34.39195 0.07041 0.01295
C 13.47167 5.07994 -0.0014
C 12.23294 4.35435 0.02162
C 12.29441 2.88443 0.0076
C 13.53987 2.11257 0.01241
C 13.52101 0.69048 -0.01454
C 12.23769 0.03137 0.01945
C 14.74119 32.54168 0.01416
C 15.93999 31.73877 0.03542
C 15.95841 30.23139 0.02299
C 13.49306 6.44452 0.00415
C 14.6157 29.43015 0.00244
C 15.01935 11.704 0.05265
C 16.02836 10.65098 -0.01952
C 16.03756 9.16263 -0.02813
C 14.7948 8.51784 0.00374
C 14.73838 7.08108 0.00052
C 15.90094 6.36185 -0.03682
C 15.89503 4.99425 0.01965
C 14.69799 4.35205 0.02058
C 14.66004 2.8939 -0.01957
C 15.69331 13.01314 -0.01717
C 15.89356 2.02707 -0.0108
C 12.32993 7.2219 -0.02162
C 13.61775 9.35748 0.01877
C 9.57225 11.76987 0.00406
C 10.93648 11.02929 0.00943
C 11.03709 9.5166 0.02841
C 9.82626 8.68057 -0.01111
C 9.80542 7.20962 -0.01275
C 11.1148 6.4728 0.00985
C 11.06506 5.04291 -0.02245
C 9.84218 4.36685 -0.00428
C 9.82343 2.91958 0.03101
C 12.34709 8.75428 0.01363
C 11.08205 2.15935 -0.01536
C 9.87664 0.05726 -0.01046
C 12.29682 32.68407 -0.00891
C 13.58052 31.94854 0.02819
C 13.48909 30.41869 0.00165
C 12.20299 29.79641 -0.02971
C 12.24441 28.17965 0.02894
C 13.62297 27.81312 -0.01789
C 12.30025 11.47315 0.00444
C 13.69881 10.92183 -0.00925
C 11.03074 0.82797 -0.02689
C 10.10085 26.1088 0.03592
C 15.94394 0.63683 -0.00368
C 17.17212 32.49945 -0.00114
C 20.84642 26.07984 -0.00491
C 19.93413 24.99509 0.03338
C 20.71624 23.5963 -0.0258
C 21.01134 22.16168 -0.0331
C 20.9605 19.31054 -0.00316
C 20.8777 17.86598 0.02188
C 19.82759 17.0094 -0.01979
C 19.64097 15.71195 0.02691
C 20.93256 14.96869 -0.01581
C 20.70406 27.5597 -0.00109
C 20.92797 13.52178 0.01452
C 19.67701 11.26087 -0.00111
C 20.87192 10.67414 -0.03557
C 20.88541 9.24697 0.03754
C 19.66901 8.49902 0.01739
C 19.60377 7.06068 0.00755
C 20.79016 6.3777 -0.0054
C 20.76909 4.88967 0.00667
C 19.60736 4.11744 0.00143
C 19.5801 2.74686 -0.017
C 19.64093 12.78242 0.04892
C 14.72348 34.00059 -0.02696
C 19.63828 28.38639 0.03698
C 20.96683 30.53458 0.00028
C 18.45888 31.8472 0.00228
C 18.44131 30.4421 0.00798
C 17.30792 29.68358 0.00422
C 18.48708 14.83061 0.0351
C 18.37733 13.45835 -0.03113
C 17.14314 12.74955 0.02098
C 17.25776 11.32408 0.01848
C 18.46296 10.58002 -0.00619
C 18.33495 9.14334 -0.02162
C 19.71998 29.82979 -0.02213
C 17.11663 8.44814 0.00889
C 18.31756 6.35258 0.00979
C 18.38811 4.8708 0.01443
C 17.14859 4.2418 0.03505
C 17.15655 2.7443 -0.02815
C 18.33143 2.09726 -0.04147
C 18.34724 0.66307 -0.05302
C 17.1741 33.94168 0.00213
C 19.63584 32.60947 -0.00066
C 20.8351 31.88836 -0.00289
C 17.13547 7.05635 -0.00481
C 10.88698 27.47192 0.00572
C 9.77508 28.58591 0.0402
C 9.82836 29.90034 -0.02759
C 3.65017 5.00025 0.017
C 2.40295 4.30422 -0.03113
C 2.34431 2.86704 -0.02566
C 3.64239 2.13562 -0.00094
C 3.67586 0.80485 0.02322
C 2.41852 0.08482 -0.00725
C 4.90109 32.73225 -0.05697
C 6.14946 31.97545 0.01087
C 6.11652 30.62455 -0.01343
C 3.62234 6.39954 -0.00643
C 4.89641 29.89147 0.00988
C 6.13786 27.79326 0.01305
C 6.18316 26.34979 -0.00077
C 4.82967 25.62733 0.03368
C 4.85935 24.20414 -0.02929
C 6.06679 23.5643 -0.00966
C 6.13534 22.18153 -0.03337
C 5.00623 21.37509 0.01227
C 5.03035 19.89861 0.00873
C 6.28165 19.23187 -0.00049
C 4.83904 28.44715 0.0276
C 6.39231 17.73153 0.00848
C 2.38986 7.0924 0.0086
C 3.58847 9.22435 -0.00074
C 3.63091 30.64098 -0.04307
C 2.45107 29.86874 0.03189
C 2.46937 28.42012 0.00031
C 3.64251 27.73476 -0.003
C 3.64875 26.27984 0.01402
C 2.38829 25.54904 0.02379
C 2.46201 24.15002 0.00907
C 3.585 23.37383 0.00643
C 3.73986 22.03225 -0.01509
C 2.41132 8.54802 -0.00518
C 2.4613 21.31042 0.03267
C 3.74047 19.31422 0.00402
C 3.81003 17.78003 0.0073
C 2.56669 17.08064 0.0174
C 2.50576 15.64622 0.03828
C 3.69672 14.98922 0.01226
C 3.68604 13.53292 -0.00279
C 2.42882 12.80998 0.01996
C 2.39165 11.40667 -0.03996
C 3.62173 10.67736 0.01465
C 2.43458 19.87465 0.02374
C 5.08423 17.09541 -0.01303
C 5.01533 15.668 -0.01378
C 6.2107 14.90006 0.02635
C 8.86279 17.84206 -0.02896
C 7.71393 16.98307 -0.00131
C 7.56571 15.55343 -0.01118
C 8.81756 12.89952 -0.014
C 7.42632 12.6909 0.02147
C 7.21616 11.32309 0.00373
C 8.47201 10.66026 -0.00191
C 8.51745 9.34109 0.00438
C 7.29613 8.62845 0.01291
C 7.4937 20.05424 -0.01004
C 7.33184 7.11138 0.00093
C 8.57051 4.98544 -0.01634
C 7.34868 4.32625 -0.00334
C 7.38845 2.93576 0.02339
C 8.59816 2.24523 0.01641
C 8.61114 0.81246 -0.00719
C 7.37141 0.09689 0.01364
C 9.84667 32.70883 -0.01062
C 11.03562 31.98146 -0.00033
C 11.09594 30.52658 0.03589
C 8.58754 6.45545 0.00057
C 7.24961 21.238 0.00488
C 7.29541 24.30085 0.01745
C 7.46577 25.6637 0.03693
C 6.17496 13.45004 0.0127
C 4.88595 12.81909 0.01396
C 4.81095 11.36178 0.01849
C 6.05853 10.64008 -0.01142
C 6.06231 9.21152 -0.00562
C 4.84295 8.48198 -0.00494
C 4.82398 7.13101 0.00054
C 6.06752 6.44252 0.03007
C 6.15348 4.98981 -0.00095
C 4.87957 4.29854 0.01572
C 4.86849 2.92047 -0.04848
C 6.15685 2.1591 -0.00892
C 6.14926 0.77084 -0.01362
C 4.87725 0.12134 -0.0008
C 7.35347 32.72917 0.0288
C 8.65032 32.06542 0.00393
C 8.58827 30.58573 0.00895
C 7.34285 29.95394 0.00685
C 7.32697 28.52839 0.02888
C 8.58606 27.84756 -0.00482
C 8.67439 26.43963 -0.01384
C 20.80484 2.07851 0.00364
C 20.84147 0.68835 -0.00831
C 19.58198 34.04681 -0.02957
C 22.09282 32.64299 -0.04422
C 30.5971 4.96189 0.07705
C 29.43433 4.32611 0.0103
C 29.46421 2.82158 0.02108
C 30.73076 2.1765 0.00716
C 30.73418 0.73445 0.00307
C 29.45261 0.01982 0.00346
C 31.95628 32.69177 0.01713
C 33.1552 32.00253 -0.01694
C 33.18312 30.56984 0.01428
C 30.63606 6.38928 0.01908
C 31.91417 29.82857 -0.02142
C 33.09694 27.70514 0.00026
C 33.15359 26.23399 0.00682
C 31.93644 25.57206 -0.01779
C 31.90585 24.18538 0.03794
C 33.10145 23.39359 0.01927
C 33.16474 21.96558 0.01574
C 31.89122 21.28966 -0.02383
C 32.00854 19.89937 -0.01429
C 33.23255 19.23054 -0.0136
C 31.89384 28.41951 0.0544
C 33.24515 17.72368 0.00594
C 29.44274 7.08193 0.01518
C 30.69313 9.17972 -0.03735
C 30.74098 30.53411 0.01324
C 29.45922 29.81275 0.0014
C 29.4419 28.46743 0.00924
C 30.68763 27.72569 0.02326
C 30.68447 26.3571 0.00261
C 29.48841 25.64524 0.03265
C 29.46626 24.15758 -0.02049
C 30.6162 23.47452 -0.01854
C 30.66715 22.02796 -0.01415
C 29.45919 8.46596 -0.00971
C 29.48994 21.27328 -0.03039
C 30.796 19.22051 0.03531
C 30.82123 17.77546 -0.00669
C 29.51616 17.06532 0.0101
C 29.52008 15.70523 0.01705
C 30.77369 14.89532 -0.0405
C 30.70213 13.45942 -0.01303
C 29.48774 12.75427 -0.01461
C 29.48579 11.33935 -0.02155
C 30.69593 10.62431 -0.00944
C 29.53604 19.91491 0.01836
C 31.99069 17.02671 -0.02474
C 32.02953 15.62785 0.00369
C 33.23883 15.00108 0.00455
C 34.38465 21.28432 -0.02213
C 0.02364 19.90455 0.01951
C 1.23252 19.21093 -0.01678
C 1.31831 17.79178 0.01223
C 0.02486 17.03126 0.00648
C 0.06072 15.67244 0.02114
C 1.24762 14.89104 -0.02957
C 1.29372 13.51401 0.00343
C 34.41782 12.7939 -0.02656
C 1.18115 21.96469 0.02712
C 34.36887 11.42131 -0.02442
C 1.23317 9.20451 -0.00583
C 34.30032 8.4731 -0.02302
C 34.28573 7.13057 -0.02849
C 1.14516 6.44216 0.02931
C 1.15266 5.03899 0.00628
C 34.34804 4.32524 -0.0345
C 34.3865 2.96082 -0.00931
C 1.11422 2.15642 -0.00939
C 1.17106 0.71028 -0.00468
C 1.16478 10.66646 -0.00027
C 1.17411 23.37567 0.00723
C 34.3303 24.09518 0.03076
C 34.39531 25.57104 -0.05239
C 33.27919 13.50332 -0.00644
C 32.038 12.7394 -0.01839
C 31.96081 11.30744 0.00137
C 33.20792 10.62757 0.00199
C 33.11934 9.20919 0.04381
C 31.85111 8.51479 0.02806
C 31.88008 7.08962 0.01504
C 33.12687 6.43166 -0.00069
C 33.125 4.98977 0.04926
C 31.90154 4.29735 -0.03838
C 31.9526 2.82911 0.00349
C 33.1634 2.17352 -0.00323
C 33.16721 0.75102 -0.00841
C 31.93634 0.03328 0.0001
C 34.37217 32.72451 -0.02927
C 1.14583 32.00069 -0.01404
C 1.14275 30.55734 0.01027
C 34.40476 29.86655 0.01831
C 34.35328 28.38248 -0.01037
C 1.14592 27.70467 -0.00439
C 1.15328 26.31922 -0.00598
C 30.69834 31.9544 0.04266
C 3.62433 31.96469 0.03284
C 29.4266 32.67379 0.01177
C 28.24432 0.73406 0.01699
C 23.32897 6.31011 0.01852
C 23.25087 4.92401 -0.00381
C 21.98835 4.22922 0.03046
C 22.02984 2.82289 0.0296
C 23.2199 2.12534 0.03374
C 23.23933 0.70028 -0.02845
C 22.10292 34.01089 -0.03213
C 24.5788 32.60135 0.02239
C 25.7863 31.95715 0.01153
C 22.0162 7.02863 0.01126
C 25.78934 30.47087 0.02734
C 24.59788 28.34831 0.01515
C 25.78968 27.69575 -0.00225
C 25.76644 26.1799 0.00071
C 24.54792 25.43661 -0.01107
C 24.51501 24.04562 -0.01586
C 25.8175 23.3713 -0.01971
C 25.82014 22.03073 -0.02118
C 24.60112 21.30153 0.00733
C 24.63056 19.85813 -0.00178
C 24.59966 29.75683 -0.0055
C 25.89138 19.14584 0.00768
C 22.06296 8.49442 -0.01185
C 23.3606 10.59836 -0.00478
C 23.26356 31.85941 0.00654
C 23.2657 30.48141 -0.00703
C 22.12242 29.69445 -0.04076
C 22.0761 28.30687 -0.00652
C 23.29075 27.65735 0.0058
C 23.31252 26.1898 -0.00865
C 22.12784 25.5434 0.00675
C 22.10418 24.09315 -0.00311
C 23.35788 23.35761 0.00742
C 23.2262 9.23502 -0.01662
C 23.39324 22.01562 -0.01594
C 22.24334 19.92145 -0.01154
C 23.42692 19.19134 -0.01721
C 23.40328 17.77411 -0.02422
C 22.09786 17.16976 0.01277
C 22.14552 15.67982 0.00096
C 23.30665 14.92083 -0.01527
C 23.37626 13.49267 0.01087
C 22.1224 12.75295 0.00199
C 22.09942 11.30311 0.01511
C 22.19908 21.33878 0.0106
C 25.95666 17.72914 -0.0276
C 24.70858 17.01325 0.03005
C 24.68576 15.58292 -0.04078
C 28.24803 22.04715 -0.0032
C 27.04311 21.24972 0.00622
C 27.08152 19.90214 -0.02815
C 28.33777 19.1621 -0.00942
C 28.36526 17.76449 0.00487
C 27.16861 16.97021 0.00826
C 27.17392 15.59004 -0.00294
C 28.33805 14.87028 0.00152
C 28.34828 13.50973 0.01257
C 28.26306 23.44849 -0.00037
C 27.00123 12.77043 0.02316
C 28.2985 10.62168 0.00194
C 28.17289 9.21895 -0.00621
C 26.9781 8.48208 0.02611
C 26.94621 7.07689 0.02198
C 28.18519 6.39163 0.01094
C 28.248 4.98429 0.00235
C 26.96067 4.19766 0.01495
C 26.95471 2.79061 0.01259
C 28.20604 2.18044 0.01799
C 27.00651 11.31765 0.04185
C 27.03925 24.12322 -0.01654
C 26.97835 25.51627 -0.00218
C 28.26339 26.26411 -0.00802
C 25.89078 14.88671 0.02117
C 25.81529 13.42861 0.02737
C 24.61814 12.7977 -0.00498
C 24.6003 11.34957 0.00135
C 25.79265 10.57753 0.03102
C 25.84266 9.2088 0.02555
C 24.45128 8.538 0.01423
C 24.44094 7.06252 -0.00285
C 25.72539 6.33 -0.009
C 25.73535 4.9512 -0.01199
C 24.46427 4.24403 -0.00229
C 24.45533 2.8004 -0.00938
C 25.76857 2.07532 -0.0264
C 25.75428 0.63602 -0.01154
C 24.49123 34.05368 0.00684
C 27.03676 32.60003 -0.01052
C 28.22614 31.95476 -0.01679
C 28.27345 30.52775 0.00367
C 27.00967 29.75729 0.04306
C 27.07012 28.35025 0.00996
C 28.29094 27.67419 0.00195
C 26.98463 34.07842 -0.00416
C 2.38999 32.74198 0.04505
