308
Graphene
C 0.01434 0.0163 0.01295
C 13.5587 2.11664 0.02188
C 13.52846 0.74026 -0.01979
C 12.30379 0.05187 0.02691
C 14.78085 32.65236 -0.01581
C 16.01473 31.97363 0.01452
C 16.00541 30.5244 0.04892
C 14.75627 29.807 -0.00111
C 14.70853 28.36658 -0.03557
C 15.99706 13.43214 0.03754
C 16.0057 10.6232 0.01739
C 15.9936 9.24123 0.00755
C 14.79896 8.48586 -0.0054
C 14.76334 7.10134 0.00667
C 16.02768 6.35985 0.00143
C 15.97364 5.0078 -0.017
C 12.2738 2.84797 -0.00316
C 14.76927 4.26032 0.00364
C 12.25388 4.22745 -0.0331
C 13.53949 6.33994 0.03338
C 9.77989 24.1414 -0.00481
C 9.80086 21.29947 0.00979
C 9.8466 19.88283 0.01443
C 11.0379 4.97194 0.03505
C 9.78507 4.29326 -0.02815
C 9.86867 2.88081 -0.04147
C 11.07622 2.16541 -0.05302
C 11.06882 0.71012 0.00213
C 9.83735 34.07782 -0.00066
C 12.28999 32.67216 -0.00289
C 13.57927 31.94596 0.00028
C 13.56242 30.53746 -0.02213
C 12.30229 29.87569 0.03698
C 12.28154 28.35755 -0.00109
C 13.52268 27.70703 -0.00491
C 13.55013 4.93667 -0.0258
C 14.78494 2.84021 -0.00831
C 16.00653 2.15953 -0.02957
C 16.02745 0.72046 -0.04422
C 19.66751 32.62568 -0.00478
C 20.88527 31.96976 -0.01662
C 20.90542 30.49608 -0.01185
C 19.67191 29.78188 0.01126
C 19.67586 28.36161 0.01852
C 20.96485 27.68613 -0.00381
C 20.90931 13.48497 0.03046
C 19.70443 12.79174 0.0296
C 19.64372 11.38813 0.03374
C 20.90207 10.65227 -0.02845
C 20.89753 9.17973 -0.03213
C 19.68438 8.54987 0.02239
C 19.70521 7.12756 0.01153
C 20.87062 6.3475 0.02734
C 20.87385 4.96461 -0.0055
C 17.19207 0.00238 0.01511
C 18.46338 0.67742 0.00199
C 18.48887 2.13773 0.01087
C 17.20826 2.82628 -0.01527
C 14.76993 0.03136 0.00654
C 17.20598 32.62438 -0.00703
C 18.48738 31.91537 -0.04076
C 18.45496 30.54639 -0.00652
C 17.21414 29.79758 0.0058
C 17.22083 28.36817 -0.00865
C 18.47816 13.47446 0.00675
C 9.82699 25.5906 0.00889
C 17.1842 12.78212 -0.00311
C 18.45052 10.61299 -0.01594
C 18.42254 9.23523 0.0106
C 17.20257 8.5559 -0.01154
C 17.19334 7.11118 -0.01721
C 18.43679 6.36905 -0.02422
C 18.45449 4.95184 0.01277
C 17.19187 4.24417 0.00096
C 17.22342 11.36627 0.00742
C 19.69565 4.28016 0.01515
C 11.05776 26.30119 -0.02162
C 9.84703 28.35398 0.01848
C 2.43007 7.0931 0.00406
C 3.67194 6.37788 0.00943
C 3.7035 5.00291 0.02841
C 2.43324 4.25428 -0.01111
C 2.44732 2.88717 -0.01275
C 3.67141 2.14535 0.00985
C 3.68425 0.71535 -0.02245
C 2.41345 0.01525 -0.00428
C 4.91621 32.67611 0.03101
C 6.15581 31.92392 -0.01536
C 6.13022 30.51838 -0.02689
C 4.93896 29.8118 -0.01046
C 4.93712 28.38374 -0.00891
C 6.1752 27.66897 0.02819
C 6.12959 26.27276 0.00165
C 2.45102 8.53703 0.03592
C 4.95187 25.58713 -0.02971
C 3.65506 9.25483 0.00572
C 2.46628 12.72812 -0.02759
C 3.67951 30.54797 0.00373
C 2.45454 29.85281 -0.00191
C 2.49929 28.42281 0.00438
C 3.67855 27.66812 0.01291
C 3.69901 26.28408 0.00093
C 2.44878 25.56773 0.00057
C 2.44371 24.16044 -0.01634
C 3.70874 23.44691 -0.00334
C 3.69535 22.06219 0.02339
C 2.48045 21.29426 0.01641
C 2.49536 19.91111 -0.00719
C 3.69423 19.19806 0.01364
C 3.7113 17.80554 -0.01062
C 2.42182 17.07828 -0.00033
C 2.45108 15.6355 0.03589
C 2.458 11.36834 0.0402
C 4.90168 24.13194 0.02894
C 6.11705 23.46891 -0.01789
C 6.16337 21.97443 0.00444
C 8.61829 23.43476 0.00052
C 8.62488 22.02145 -0.03682
C 7.43113 21.2914 0.01965
C 7.38907 19.83807 0.02058
C 8.57421 19.17026 -0.01957
C 8.58898 5.02701 -0.0108
C 7.3962 4.26641 -0.00368
C 7.40209 2.79651 -0.02696
C 8.60141 2.13719 -0.00114
C 8.63673 0.72228 0.00228
C 7.35953 34.05194 0.00798
C 9.82879 32.67694 0.00422
C 11.02641 31.90179 0.0351
C 11.04468 30.54688 -0.03113
C 9.81342 29.82986 0.02098
C 7.37346 24.13424 0.00374
C 7.38358 25.5707 -0.02813
C 8.5882 26.20242 -0.01952
C 8.64843 27.67712 0.05265
C 4.92617 21.32723 -0.00925
C 4.91994 19.89988 0.01877
C 6.15402 19.17257 0.01363
C 4.90932 7.03532 -0.02162
C 6.09369 6.39109 0.00415
C 6.18768 4.98234 -0.0014
C 4.93335 4.25202 0.02162
C 11.07815 27.71176 -0.00619
C 4.92702 2.8514 0.0076
C 6.1349 0.68474 -0.01454
C 4.93886 0.00454 0.01945
C 7.39852 32.68502 0.01416
C 8.60918 31.97658 0.03542
C 8.62776 30.46926 0.02299
C 7.38336 29.79857 0.00244
C 7.36592 28.41164 -0.01717
C 6.11422 2.09144 0.01241
C 19.66488 2.84117 -0.00225
C 20.87669 2.1769 0.00071
C 20.8928 0.70835 -0.01107
C 33.24053 23.38235 0.01927
C 33.20599 22.00957 0.01574
C 31.99799 21.32139 -0.02383
C 31.99485 19.89857 -0.01429
C 33.19922 19.16915 -0.0136
C 33.18729 17.76029 0.00594
C 31.9987 17.07107 -0.02474
C 31.99393 15.59327 0.00369
C 33.19815 14.90952 0.00455
C 33.25269 13.46677 -0.00644
C 31.96656 12.81289 -0.01839
C 31.95614 11.3497 0.00137
C 33.20275 10.66517 0.00199
C 33.15458 9.28565 0.04381
C 31.97008 8.52737 0.02806
C 31.99255 24.15879 0.03794
C 31.91352 7.11796 0.01504
C 31.97485 25.56827 -0.01779
C 33.21826 27.69842 0.00026
C 29.51528 12.81896 -0.03735
C 30.71466 10.65596 -0.00971
C 30.74048 9.26552 0.01518
C 30.76464 6.4138 0.01908
C 30.7164 4.97951 0.07705
C 29.46705 4.2692 0.0103
C 29.51833 2.83867 0.02108
C 30.75759 2.10131 0.00716
C 30.72308 0.72223 0.00307
C 29.5022 34.06713 0.00346
C 31.97571 32.68449 0.01713
C 33.21978 31.92068 -0.01694
C 33.20638 30.53652 0.01428
C 31.95699 29.79934 -0.02142
C 32.00403 28.39279 0.0544
C 33.17642 26.29229 0.00682
C 33.15046 6.39461 -0.00069
C 33.17508 4.97379 0.04926
C 31.96168 4.22991 -0.03838
C 34.42561 15.63985 0.02114
C 1.19907 14.90643 -0.02957
C 1.24147 13.52475 0.00343
C 0.0061 12.7286 -0.02656
C 34.4095 11.37102 -0.02442
C 1.21639 10.69793 -0.00027
C 1.2505 9.22311 -0.00583
C 0.00217 8.55197 -0.02302
C 34.41639 7.09295 -0.02849
C 1.2063 6.36917 0.02931
C 1.20865 4.94928 0.00628
C 34.40243 4.25882 -0.0345
C 0.03494 2.82839 -0.00931
C 1.26491 2.12027 -0.00939
C 1.28487 0.69257 -0.00468
C 34.43112 17.02451 0.00648
C 1.2163 17.75574 0.01223
C 1.25704 19.18989 -0.01678
C 34.42022 19.8811 0.01951
C 31.97625 2.85985 0.00349
C 33.18551 2.1328 -0.00323
C 33.22574 0.71152 -0.00841
C 31.98002 34.04183 0.0001
C 0.01299 32.63502 -0.02927
C 1.23809 31.97367 -0.01404
C 1.22877 30.54431 0.01027
C 30.75766 13.43512 -0.00944
C 34.39223 29.82288 0.01831
C 1.26176 27.63275 -0.00439
C 1.22024 26.24506 -0.00598
C 34.41086 25.6021 -0.05239
C 34.40462 24.13521 0.03076
C 1.20474 23.46828 0.00723
C 1.20123 22.03084 0.02712
C 34.43075 21.26572 -0.02213
C 0.02629 28.41689 -0.01037
C 30.76189 14.9311 -0.02155
C 29.53673 15.62194 -0.01461
C 29.51483 17.00188 -0.01303
C 25.85822 31.97721 -0.00938
C 25.83188 30.52632 -0.0264
C 24.60669 29.83716 -0.01154
C 24.59204 19.86818 0.00684
C 25.81089 19.14139 -0.01052
C 25.84987 17.73771 -0.01679
C 24.59793 17.09491 0.00367
C 24.60818 15.64472 0.04306
C 25.83838 14.93872 0.00996
C 25.7934 13.50378 0.00195
C 24.61258 12.80558 -0.00802
C 24.59427 4.28567 -0.00218
C 24.61718 2.87306 -0.01654
C 25.84256 2.10979 -0.00037
C 25.83183 0.69958 -0.0032
C 24.56348 32.6996 -0.00229
C 22.15796 34.06282 -0.01199
C 23.38454 0.74288 -0.009
C 23.35155 2.07043 -0.00285
C 19.66517 34.05661 -0.01586
C 22.12633 32.67315 -0.01971
C 23.38377 31.94303 -0.02118
C 23.31049 30.51809 0.00733
C 22.10584 29.78918 -0.00178
C 22.07988 28.37023 0.00768
C 22.12083 15.64839 -0.0276
C 24.57641 34.04774 0.00622
C 23.35647 14.96006 0.03005
C 22.11937 12.81559 0.02117
C 22.1485 11.37265 0.02737
C 22.17488 8.53266 -0.00498
C 22.10756 7.11491 0.00135
C 23.34272 4.9615 0.03102
C 22.11907 4.24808 0.02555
C 22.15877 2.82077 0.01423
C 23.34213 13.46378 -0.04078
C 3.65855 31.97886 0.02147
C 27.06418 32.65204 -0.02815
C 28.26856 30.54872 0.00487
C 29.50246 32.65584 0.0014
C 30.72692 31.92845 0.00924
C 30.76784 30.52573 0.02326
C 29.49904 29.81137 0.00261
C 29.52113 28.38004 0.03265
C 30.7311 27.61975 -0.02049
C 30.74047 26.27501 -0.01854
C 29.49448 25.59241 -0.01415
C 29.53983 24.20013 -0.03039
C 30.75455 23.37871 0.01836
C 30.73708 21.98037 0.03531
C 29.4992 21.27204 -0.00669
C 29.50037 19.89006 0.0101
C 30.7711 19.16226 0.01705
C 30.74258 17.7277 -0.0405
C 27.03293 34.07872 0.01324
C 28.3193 0.69091 0.04266
C 28.24695 2.09896 0.01177
C 27.03764 2.84415 -0.00416
C 27.05455 29.79086 0.00826
C 27.05195 28.41861 -0.00294
C 28.2952 27.68131 0.00152
C 28.28989 26.27364 0.01257
C 28.28452 23.37745 0.02316
C 28.27985 21.98453 0.04185
C 27.04188 21.28751 0.00194
C 28.29361 31.94093 -0.00942
C 27.07858 19.88072 -0.00621
C 28.27649 17.76906 0.02198
C 27.03688 17.02619 0.01094
C 27.02742 15.61098 0.00235
C 28.2696 14.86378 0.01495
C 28.27714 13.50755 0.01259
C 28.29998 4.94149 0.01799
C 27.07196 4.24923 0.01699
C 28.24576 19.19155 0.02611
C 2.40579 32.63367 -0.014
