366
Graphene
C 0.02461 34.04439 0.01295
C 18.26687 27.61616 0.00374
C 18.2451 26.1694 0.00052
C 17.09334 25.47286 -0.03682
C 16.95743 24.1106 0.01965
C 18.27397 23.40077 0.02058
C 18.34249 22.00197 -0.01957
C 17.15792 21.32843 -0.0108
C 17.17511 19.92229 -0.00368
C 17.096 28.40473 -0.02813
C 18.427 19.18998 -0.02696
C 17.13948 17.03391 0.00228
C 17.25535 15.62249 0.00798
C 18.46217 14.93341 0.00422
C 18.42399 13.46238 0.0351
C 17.1998 12.73977 -0.03113
C 17.2737 11.41573 0.02098
C 18.46408 10.63521 0.01848
C 18.47353 9.20526 -0.00619
C 18.43006 17.7985 -0.00114
C 17.11747 29.7511 -0.01952
C 18.32173 30.45857 0.05265
C 18.35598 31.96241 -0.01717
C 15.84385 21.95086 -0.02971
C 16.00101 19.01562 0.02894
C 15.90751 17.82735 -0.01789
C 15.93936 15.03406 0.00444
C 15.89513 13.59588 -0.00925
C 14.74925 12.82589 0.01877
C 14.69802 11.41417 0.01363
C 15.98352 10.72874 -0.02162
C 15.99015 9.25269 0.00415
C 14.7833 8.54789 -0.0014
C 14.79319 7.13507 0.02162
C 16.07262 6.41836 0.0076
C 16.03242 5.05412 0.01241
C 14.79091 4.33751 -0.01454
C 14.7243 2.92775 0.01945
C 15.90898 2.16107 0.01416
C 15.96549 0.75513 0.03542
C 14.76658 0.00965 0.02299
C 17.10497 32.61778 0.00244
C 17.2554 8.53828 -0.02162
C 17.30829 7.08212 0.00889
C 18.48764 6.39796 -0.00481
C 18.41574 4.88603 0.00979
C 20.8979 13.51071 -0.00111
C 19.6646 12.77076 -0.03557
C 19.68263 11.38686 0.03754
C 20.88632 10.63489 0.01739
C 20.92496 9.19866 0.00755
C 19.69105 8.49068 -0.0054
C 19.68383 7.10595 0.00667
C 20.90555 6.40971 0.00143
C 20.9301 4.97355 -0.017
C 19.67012 4.2513 0.00364
C 19.61728 2.76617 -0.00831
C 20.88961 2.04816 -0.02957
C 20.91244 0.62071 -0.04422
C 19.63481 34.0543 0.00654
C 22.05439 32.65607 -0.00703
C 23.34053 31.99676 -0.04076
C 23.39444 30.5217 -0.00652
C 22.09069 29.83105 0.0058
C 22.01176 28.35315 -0.00865
C 20.89391 14.86661 0.04892
C 15.63468 23.31688 0.00165
C 19.72009 15.57838 0.01452
C 20.90677 17.75323 0.02691
C 17.28082 4.13912 0.01443
C 17.2142 2.74398 0.03505
C 18.38771 1.99076 -0.02815
C 18.39266 0.60459 -0.04147
C 17.15341 34.03873 -0.05302
C 19.59255 32.58515 0.00213
C 20.83942 31.91191 -0.00066
C 20.82829 30.50162 -0.00289
C 19.59569 29.74815 0.00028
C 19.5254 28.31738 -0.02213
C 20.75083 27.62402 0.03698
C 20.72806 26.12042 -0.00109
C 19.53302 25.5185 -0.00491
C 19.50185 24.12319 0.03338
C 20.72087 23.40513 -0.0258
C 20.81786 21.95526 -0.0331
C 19.59707 21.35114 -0.00316
C 19.66599 19.91929 0.02188
C 20.83489 19.19949 -0.01979
C 19.6979 16.991 -0.01581
C 14.56734 24.19669 0.02819
C 14.59272 25.59513 -0.00891
C 15.85171 26.23386 -0.01046
C 4.9303 4.43469 -0.00049
C 4.86895 3.00212 0.00848
C 6.08469 2.26142 -0.01303
C 6.0581 0.86045 -0.01378
C 4.84698 0.13567 0.02635
C 7.11905 32.80333 0.0127
C 8.23775 31.97267 0.01396
C 8.31525 30.5525 0.01849
C 8.58833 27.28252 -0.01142
C 8.03459 26.25264 -0.00562
C 7.65567 10.7491 -0.00494
C 8.36283 9.57451 0.00054
C 7.26248 8.59694 0.03007
C 7.41765 7.15306 -0.00095
C 8.60323 6.49644 0.01572
C 8.56634 5.08745 -0.04848
C 7.36961 4.36224 -0.00892
C 7.3283 2.93457 -0.01362
C 8.64041 2.23604 -0.0008
C 6.1609 5.1232 0.00873
C 8.54159 0.84407 0.0288
C 6.12436 6.50146 0.01227
C 4.93551 8.55905 -0.00966
C 2.39325 24.30624 -0.00074
C 2.54853 12.86194 -0.00518
C 2.61954 11.44143 0.0086
C 3.81571 10.70868 -0.00643
C 3.67707 9.29105 0.017
C 2.46426 8.53775 -0.03113
C 2.47503 7.12855 -0.02566
C 3.5853 6.44105 -0.00094
C 3.64714 5.07625 0.02322
C 2.37244 4.36896 -0.00725
C 2.41749 2.93124 -0.05697
C 3.65447 2.29776 0.01087
C 3.66764 0.85079 -0.01343
C 2.52215 0.04143 0.00988
C 4.76842 32.81242 0.0276
C 3.64495 25.21854 0.01305
C 5.11345 11.18283 -0.00077
C 6.38604 10.75712 0.03368
C 6.11687 9.2955 -0.02929
C 4.87335 7.15372 -0.03337
C 23.2301 27.66537 0.00675
C 7.27784 0.15048 0.00393
C 10.94596 32.01079 0.00685
C 12.0632 25.68429 0.01364
C 12.24146 11.45191 -0.01062
C 13.48596 10.75952 -0.00033
C 13.49371 9.35139 0.03589
C 12.30797 8.65613 -0.02759
C 12.2914 7.23467 0.0402
C 13.55097 6.45319 0.00572
C 13.54017 5.07748 0.03592
C 12.27726 4.39579 0.00406
C 12.27956 2.89935 0.00943
C 13.54875 2.25828 0.02841
C 13.52665 0.71597 -0.01111
C 12.31586 0.02792 -0.01275
C 14.67306 32.70528 0.00985
C 15.85728 31.91616 -0.02245
C 15.89012 30.47077 -0.00428
C 14.65827 29.80269 0.03101
C 14.62347 28.39215 -0.01536
C 15.89473 27.65966 -0.02689
C 13.32703 26.19335 -0.00719
C 9.69077 32.69647 0.00895
C 13.38269 27.7401 0.01641
C 12.17334 29.94049 -0.00334
C 10.86549 30.54956 0.02888
C 9.57268 29.7999 -0.00482
C 9.6763 28.35636 -0.01384
C 10.90309 27.8313 0.03693
C 11.04293 26.35012 0.01745
C 11.28809 10.81304 0.00488
C 10.94099 9.39944 -0.01004
C 9.72602 8.75178 -0.02896
C 9.77892 7.31401 -0.00131
C 11.02715 6.59103 -0.01118
C 11.10653 5.1832 -0.014
C 9.84565 4.38555 0.02147
C 9.84002 2.97807 0.00373
C 11.05213 2.26425 -0.00191
C 11.13178 0.70987 0.00438
C 9.72981 0.06848 0.01291
C 12.21184 32.66499 0.00093
C 13.45556 31.97399 0.00057
C 13.46695 30.56352 -0.01634
C 12.16194 28.518 0.02339
C 23.22638 26.2128 -0.00311
C 21.98435 25.47645 0.00742
C 22.0154 24.02579 -0.01594
C 29.52806 2.80585 0.00307
C 30.73047 2.11763 0.00346
C 30.74182 0.71798 0.01713
C 29.56234 0.01148 -0.01694
C 31.90903 32.7545 0.01428
C 33.16217 31.94387 -0.02142
C 33.17646 30.49573 0.0544
C 31.88415 29.78049 0.00026
C 31.81131 28.3796 0.00682
C 33.07439 27.65728 -0.01779
C 33.11615 26.2566 0.03794
C 32.0111 25.47882 0.01927
C 32.08836 24.08947 0.01574
C 33.42707 23.53567 -0.02383
C 33.37079 22.03727 -0.01429
C 32.04118 21.34102 -0.0136
C 32.00466 19.93065 0.00594
C 33.20715 19.2399 -0.02474
C 33.26888 17.83749 0.00369
C 29.51183 4.23283 0.00716
C 32.03085 17.03063 0.00455
C 30.7404 4.99635 0.02108
C 29.53924 7.12361 0.07705
C 30.62344 27.6839 0.03265
C 30.75556 26.19973 -0.02049
C 29.56428 25.52916 -0.01854
C 29.55479 24.07597 -0.01415
C 30.87143 23.38722 -0.03039
C 30.79743 21.95307 0.01836
C 29.49334 21.24707 0.03531
C 29.48104 19.84608 -0.00669
C 30.70069 19.21478 0.0101
C 30.64737 17.69017 0.01705
C 29.41087 16.99324 -0.0405
C 29.5248 15.56629 -0.01303
C 30.75587 14.94568 -0.01461
C 30.83078 13.52948 -0.02155
C 29.54244 12.75911 -0.00944
C 29.50933 11.3584 -0.03735
C 30.86362 10.75569 -0.00971
C 30.80201 9.24984 0.01518
C 29.53796 8.59754 0.01908
C 30.66868 6.42173 0.0103
C 29.34945 28.37864 0.00261
C 32.03432 15.66104 -0.00644
C 33.24532 13.54344 0.00137
C 1.42236 22.10551 0.01951
C 0.22112 21.2785 -0.01678
C 0.04889 19.81097 0.01223
C 34.4155 17.21995 0.00648
C 0.09662 15.78552 0.02114
C 1.175 14.88427 -0.02957
C 1.29931 13.54644 0.00343
C 0.09344 12.81056 -0.02656
C 0.11158 11.39283 -0.02442
C 1.28811 10.66788 -0.00027
C 1.25703 9.21395 -0.00583
C 0.0719 8.4951 -0.02302
C 0.02018 7.12773 -0.02849
C 1.19081 6.44505 0.02931
C 1.09785 5.06385 0.00628
C 34.38972 4.24297 -0.0345
C 34.37422 2.85444 -0.00931
C 1.18522 2.12891 -0.00939
C 1.29467 0.68593 -0.00468
C 1.51429 23.41491 -0.02213
C 33.26585 14.99293 -0.01839
C 0.25791 24.21885 0.02712
C 0.97036 26.70677 0.03076
C 32.00451 12.84325 0.00199
C 32.05447 11.50716 0.04381
C 33.3127 10.68955 0.02806
C 33.30493 9.2388 0.01504
C 32.02333 8.61549 -0.00069
C 31.94841 7.13447 0.04926
C 33.20582 6.38253 -0.03838
C 33.17202 4.95536 0.00349
C 31.94778 4.25663 -0.00323
C 31.93941 2.86327 -0.00841
C 33.1856 2.1014 0.0001
C 33.21699 0.65656 -0.02927
C 31.94583 0.04563 -0.01404
C 0.05279 32.63918 0.01027
C 1.41956 31.81344 0.01831
C 1.23938 30.45073 -0.01037
C 34.3181 29.82116 -0.00439
C 34.222 28.49053 -0.00598
C 1.16619 28.16165 -0.05239
C 34.34006 25.67671 0.00723
C 2.39052 25.70935 0.01465
C 29.43971 29.80969 0.02326
C 30.68512 32.08698 0.0014
C 24.54708 32.66779 0.02734
C 25.73301 31.88475 -0.0055
C 25.75249 30.43601 0.01515
C 24.51618 29.70338 -0.00225
C 24.48296 28.35187 0.00071
C 25.72252 27.58612 -0.01107
C 25.74221 26.17792 -0.01586
C 24.49128 25.55009 -0.01971
C 24.45404 24.10848 -0.02118
C 25.76476 23.43144 0.00733
C 25.83578 21.96567 -0.00178
C 24.55994 21.20186 0.00768
C 24.49963 19.84145 -0.0276
C 25.7216 19.14522 0.03005
C 25.77627 17.75124 -0.04078
C 24.5501 17.09111 0.02117
C 24.66199 15.61832 0.02737
C 25.85396 14.84838 -0.00498
C 25.774 13.47191 0.00135
C 22.16522 34.03436 0.01153
C 24.59867 12.73596 0.03102
C 23.32945 0.70025 0.02239
C 22.11238 2.87854 -0.02845
C 23.23528 23.34103 0.0106
C 23.35017 21.9094 -0.01154
C 22.08783 21.23582 -0.01721
C 22.02543 19.86465 -0.02422
C 23.29431 19.12501 0.01277
C 23.22665 17.69802 0.00096
C 22.04436 16.94554 -0.01527
C 22.1934 15.47587 0.01087
C 23.44052 14.88414 0.00199
C 23.36274 13.42459 0.01511
C 22.1258 12.76833 -0.00478
C 22.08935 11.36195 -0.01662
C 23.34438 10.72168 -0.01185
C 23.37997 9.26214 0.01126
C 22.16196 8.51807 0.01852
C 22.09716 7.08591 -0.00381
C 23.35296 6.3963 0.03046
C 23.43657 4.95004 0.0296
C 22.15595 4.2458 0.03374
C 23.30981 2.05751 -0.03213
C 30.63506 30.57399 0.00924
C 24.61766 11.34108 0.02555
C 25.78252 9.15964 -0.00285
C 28.18411 17.76487 -0.00294
C 27.01151 17.05073 0.00152
C 27.1197 15.58256 0.01257
C 28.34994 14.84219 0.02316
C 28.20743 13.47114 0.04185
C 26.96333 12.73425 0.00194
C 26.99219 11.2964 -0.00621
C 28.27707 10.58845 0.02611
C 28.28636 9.21995 0.02198
C 27.08897 8.51606 0.01094
C 27.0569 7.01973 0.00235
C 28.28927 6.37724 0.01495
C 28.31371 4.96555 0.01259
C 27.04036 4.19847 0.01799
C 27.03712 2.79277 0.01699
C 28.26453 2.11925 -0.00416
C 28.21335 0.70148 0.01177
C 27.03179 33.99552 0.04266
C 29.43639 32.7258 0.01324
C 28.21396 19.114 0.00826
C 25.80041 10.596 0.01423
C 26.9062 19.79141 0.00487
C 28.31914 21.98929 -0.02815
C 24.55283 8.56232 -0.009
C 24.59637 7.07619 -0.01199
C 25.77516 6.34709 -0.00229
C 25.84043 4.9018 -0.00938
C 24.64438 4.19309 -0.0264
C 24.62451 2.84459 -0.01154
C 25.81457 2.12768 0.00684
C 25.81743 0.66365 -0.01052
C 24.61479 0.02755 -0.01679
C 26.92294 32.59565 0.00367
C 28.23208 32.0224 0.04306
C 28.19072 30.5274 0.00996
C 27.00281 29.75704 0.00195
C 26.91211 28.31974 -0.00802
C 28.18679 27.67274 -0.00218
C 28.21003 26.20278 -0.01654
C 26.93675 25.43847 -0.00037
C 26.96062 24.09051 -0.0032
C 28.23502 23.38885 0.00622
C 26.98728 21.2858 -0.00942
C 2.58133 32.64913 -0.03996
