445
Graphene
C 0.03111 0.03179 0.01295
C 13.58446 14.90899 0.01291
C 13.47596 13.55458 0.00093
C 12.28192 12.84353 0.00057
C 12.32974 11.34423 -0.01634
C 13.56379 10.69427 -0.00334
C 13.57046 9.25557 0.02339
C 12.26399 8.49536 0.01641
C 12.24941 7.09322 -0.00719
C 13.48994 6.29068 0.01364
C 13.52893 4.92303 -0.01062
C 12.34554 4.29092 -0.00033
C 12.34596 2.81583 0.03589
C 13.57055 2.10147 -0.02759
C 13.55338 0.69087 0.0402
C 12.28681 0.10017 0.00572
C 14.76374 32.62969 0.03592
C 15.96203 31.86451 0.00406
C 15.93302 30.48625 0.00943
C 14.79617 29.7132 0.02841
C 14.72311 28.38398 -0.01111
C 15.94847 27.7247 -0.01275
C 15.97123 26.24658 0.00985
C 14.72235 25.60932 -0.02245
C 12.21255 15.71521 0.00438
C 12.32118 17.11061 -0.00191
C 13.57881 17.79093 0.00373
C 13.55969 19.20981 0.02147
C 11.08563 10.66823 -0.00494
C 11.04347 9.22785 0.00054
C 9.83512 8.5291 0.03007
C 9.8482 7.13671 -0.00095
C 11.08695 6.47545 0.01572
C 11.04731 5.00767 -0.04848
C 9.78401 4.32125 -0.00892
C 9.86596 2.78901 -0.01362
C 11.08855 2.12591 -0.0008
C 11.10002 0.77514 0.0288
C 9.92527 0.01013 0.00393
C 14.70986 24.09896 -0.00428
C 12.26361 32.7129 0.00895
C 13.53752 30.47492 0.02888
C 12.22516 29.78349 -0.00482
C 12.32933 28.38354 -0.01384
C 13.58047 27.67063 0.03693
C 13.52636 26.3125 0.01745
C 12.27043 25.6447 0.00488
C 12.20613 24.27872 -0.01004
C 13.46414 23.45673 -0.02896
C 13.50714 21.95187 -0.00131
C 12.31519 21.28426 -0.01118
C 12.32354 19.91596 -0.014
C 13.51933 31.90796 0.00685
C 15.93747 23.44762 0.03101
C 15.97651 22.03679 -0.01536
C 14.77284 21.28496 -0.02689
C 17.27806 24.20331 0.00052
C 18.44304 23.37966 -0.03682
C 18.46328 21.99407 0.01965
C 17.22457 21.29507 0.02058
C 17.24297 19.82924 -0.01957
C 18.38696 19.14063 -0.0108
C 18.42743 17.71818 -0.00368
C 17.25006 16.9803 -0.02696
C 17.21967 15.55701 -0.00114
C 18.4535 14.95376 0.00228
C 18.3754 13.49445 0.00798
C 17.16945 25.56993 0.00374
C 17.14182 12.83161 0.00422
C 18.44508 10.69262 -0.03113
C 18.43428 9.23477 0.02098
C 17.2672 8.48695 0.01848
C 17.2255 7.08495 -0.00619
C 18.45579 6.41169 -0.02162
C 18.4623 5.01172 0.00889
C 17.26722 4.28814 -0.00481
C 17.22954 2.85881 0.00979
C 18.43705 2.06605 0.01443
C 18.4072 0.67383 0.03505
C 17.16967 34.07009 -0.02815
C 17.24766 11.41386 0.0351
C 9.82347 11.358 -0.00562
C 18.40751 26.28246 -0.02813
C 17.15592 28.45476 0.05265
C 14.75721 19.85544 -0.01046
C 15.93134 19.1633 -0.00891
C 16.00898 17.76063 0.02819
C 14.81784 17.02801 0.00165
C 14.74298 15.60754 -0.02971
C 15.96219 14.85459 0.02894
C 15.89723 13.4646 -0.01789
C 14.74194 12.75559 0.00444
C 14.75258 11.35262 -0.00925
C 16.03079 10.62539 0.01877
C 16.06411 9.2259 0.01363
C 18.40583 27.75042 -0.01952
C 14.79599 8.49791 -0.02162
C 15.9525 6.41177 -0.0014
C 15.96524 4.99449 0.02162
C 14.77464 4.30467 0.0076
C 14.77083 2.77514 0.01241
C 15.96414 2.15227 -0.01454
C 15.93951 0.72888 0.01945
C 14.72561 34.0719 0.01416
C 17.21197 32.64866 0.03542
C 18.44929 32.02127 0.02299
C 18.46291 30.50302 0.00244
C 17.22137 29.85282 -0.01717
C 14.76452 7.09222 0.00415
C 9.84313 12.77995 -0.01142
C 11.01217 13.57366 0.01849
C 11.07815 14.98638 0.01396
C 3.69205 0.67767 -0.01299
C 2.44203 0.00573 -0.00407
C 4.91185 32.67423 0.01138
C 6.19899 31.89298 0.03278
C 6.22238 30.53703 -0.00177
C 4.90642 29.80542 0.04421
C 5.00854 28.38426 0.00088
C 6.15747 27.68972 0.00828
C 6.10502 26.25284 -0.02375
C 4.86142 25.66549 0.00558
C 4.93925 24.16379 -0.0059
C 3.72386 2.07151 -0.0154
C 6.12142 23.47025 -0.01386
C 4.9598 21.26135 0.00081
C 4.91448 19.83759 0.00245
C 6.1794 19.12312 0.02728
C 6.0684 17.6961 -0.00039
C 4.87256 17.10915 0.0064
C 4.8697 15.66693 0.00211
C 6.12432 14.92874 -0.00449
C 6.18235 13.52659 -0.01979
C 4.92249 12.70154 0.02784
C 4.97422 11.35895 -0.01977
C 6.20268 10.71089 -0.00561
C 6.1603 22.05664 -0.02805
C 6.13332 9.26457 0.00208
C 2.40424 2.74166 0.00662
C 3.66481 4.93137 0.03345
C 3.74142 30.53758 -0.02419
C 2.47084 29.78695 -0.03951
C 2.47786 28.41243 -0.00141
C 3.705 27.76042 -0.00374
C 3.66068 26.31431 -0.0213
C 2.52233 25.52619 0.01116
C 2.52824 24.14227 -0.0005
C 3.73008 23.45465 -0.00018
C 3.65728 21.87877 0.01073
C 2.40491 21.26408 0.01984
C 2.39922 19.87548 0.00535
C 2.4096 4.15324 0.00748
C 3.6808 19.1746 -0.00198
C 2.44467 17.07281 -0.04306
C 2.4358 15.65179 -0.03672
C 3.71864 14.85549 0.01913
C 3.67822 13.51422 0.00267
C 2.442 12.81647 0.00787
C 2.48773 11.40631 0.02426
C 3.66063 10.63244 0.01218
C 3.69962 9.25334 -0.01471
C 2.50702 8.54718 -0.02827
C 2.43993 7.1001 0.01078
C 3.66609 6.43779 -0.00112
C 3.7035 17.74368 -0.00012
C 19.68948 32.71878 -0.04147
C 4.91928 8.57557 0.01707
C 6.19039 6.44411 -0.03291
C 7.32667 8.62723 -0.03113
C 7.38197 7.16726 -0.02566
C 8.61815 6.40348 -0.00094
C 8.54753 4.99141 0.02322
C 7.36618 4.27878 -0.00725
C 7.39857 2.81322 -0.05697
C 8.61429 2.10543 0.01087
C 8.58517 0.75857 -0.01343
C 7.34184 0.06997 0.00988
C 9.84318 32.68969 0.0276
C 10.99062 31.95863 0.01305
C 8.56015 9.26159 0.017
C 11.03423 30.50191 -0.00077
C 9.81309 28.37177 -0.02929
C 11.03664 27.70196 -0.00966
C 11.02965 26.31788 -0.03337
C 11.10301 23.46925 0.01227
C 11.09379 21.9801 0.00873
C 9.84722 21.31224 -0.00049
C 9.81085 19.89491 0.00848
C 11.0677 19.19822 -0.01303
C 11.0391 17.80168 -0.01378
C 9.73523 17.05724 0.02635
C 9.78761 15.64044 0.0127
C 9.78278 29.76048 0.03368
C 4.94836 7.15859 0.02769
C 8.57308 10.65214 -0.00643
C 7.41241 12.81599 -0.00518
C 6.16361 4.93321 -0.04999
C 4.91895 4.24698 0.04505
C 4.9111 2.85317 0.03284
C 6.18458 2.13594 -0.04307
C 6.15324 0.77164 0.03189
C 4.89602 34.05788 0.00031
C 7.36457 32.68608 -0.003
C 8.57722 32.00123 0.01402
C 8.54846 30.60592 0.02379
C 7.42843 29.8148 0.00907
C 7.41524 28.35044 0.00643
C 7.41615 11.35594 0.0086
C 8.57605 27.72126 -0.01509
C 7.44898 24.20342 0.02374
C 8.68132 23.41034 0.00402
C 8.60481 22.03411 0.0073
C 7.35457 21.28835 0.0174
C 7.37654 19.91497 0.03828
C 8.62233 19.21502 0.01226
C 8.60917 17.68293 -0.00279
C 7.36637 16.99633 0.01996
C 7.40225 15.63296 -0.03996
C 8.59583 14.94321 0.01465
C 8.64172 13.4584 -0.00074
C 7.2728 25.6335 0.03267
C 3.75855 31.91322 0.02438
C 20.87074 31.90997 -0.05302
C 19.66894 29.83273 -0.00066
C 29.47929 15.60891 0.01705
C 30.70308 14.94352 -0.0405
C 30.71824 13.51378 -0.01303
C 29.53784 12.72413 -0.01461
C 29.54435 11.34079 -0.02155
C 30.75089 10.68806 -0.00944
C 30.80348 9.19601 -0.03735
C 29.53061 8.44942 -0.00971
C 29.53042 7.08096 0.01518
C 30.78376 6.35552 0.01908
C 30.71113 4.9576 0.07705
C 29.52706 4.25569 0.0103
C 29.50763 2.83774 0.02108
C 30.72572 2.16067 0.00716
C 30.77527 0.77743 0.00307
C 29.49683 0.00931 0.00346
C 32.01376 32.72407 0.01713
C 33.16044 31.99154 -0.01694
C 33.17769 30.55337 0.01428
C 31.97298 29.82401 -0.02142
C 32.03974 28.44612 0.0544
C 33.26895 27.68031 0.00026
C 33.16364 26.24126 0.00682
C 29.52373 17.059 0.0101
C 30.75718 17.76407 -0.00669
C 30.78332 19.21879 0.03531
C 29.46901 19.7845 0.01836
C 27.01466 11.3206 0.04185
C 28.29251 10.64398 0.00194
C 28.35446 9.22095 -0.00621
C 26.99732 8.47791 0.02611
C 27.01035 7.11653 0.02198
C 28.2657 6.34287 0.01094
C 28.24228 4.95188 0.00235
C 27.04917 4.22001 0.01495
C 27.05408 2.87968 0.01259
C 28.28821 2.18416 0.01799
C 28.28155 0.70467 0.01699
C 31.95321 25.53218 -0.01779
C 27.00736 34.02996 -0.00416
C 30.67395 31.97946 0.04266
C 30.75034 30.53857 0.01324
C 29.55111 29.75995 0.0014
C 29.52109 28.37889 0.00924
C 30.72218 27.73451 0.02326
C 30.74791 26.29609 0.00261
C 29.48717 25.60888 0.03265
C 29.4592 24.15451 -0.02049
C 30.70208 23.44164 -0.01854
C 30.76165 22.05009 -0.01415
C 29.52832 21.28823 -0.03039
C 29.53867 32.64948 0.01177
C 31.94736 24.10079 0.03794
C 33.17625 23.41333 0.01927
C 33.17025 22.01359 0.01574
C 34.41315 25.63832 -0.05239
C 0.00678 24.10249 0.03076
C 1.23635 23.40677 0.00723
C 1.16534 22.00832 0.02712
C 34.41691 21.32475 -0.02213
C 0.03843 19.88388 0.01951
C 1.15185 19.09728 -0.01678
C 1.19396 17.73035 0.01223
C 0.00744 17.01945 0.00648
C 34.41169 15.557 0.02114
C 1.18457 14.92768 -0.02957
C 1.27634 26.22581 -0.00598
C 1.22734 13.49324 0.00343
C 0.0241 11.35609 -0.02442
C 1.20846 10.62809 -0.00027
C 1.23082 9.17837 -0.00583
C 34.40663 8.48741 -0.02302
C 34.39262 7.07833 -0.02849
C 1.23835 6.37616 0.02931
C 1.27909 4.91417 0.00628
C 34.41692 4.29283 -0.0345
C 34.34115 2.83418 -0.00931
C 1.1323 2.07184 -0.00939
C 1.23247 0.64701 -0.00468
C 34.41147 12.79234 -0.02656
C 27.11869 12.75679 0.02316
C 1.29417 27.68029 -0.00439
C 34.35368 29.82715 0.01831
C 31.90203 21.24902 -0.02383
C 31.99634 19.8708 -0.01429
C 33.21888 19.14644 -0.0136
C 33.26139 17.69688 0.00594
C 32.0311 16.97033 -0.02474
C 32.02394 15.60284 0.00369
C 33.19963 14.86725 0.00455
C 33.20111 13.39973 -0.00644
C 31.93148 12.73945 -0.01839
C 31.95853 11.38658 0.00137
C 33.24259 10.59263 0.00199
C 0.09446 28.34655 -0.01037
C 33.18016 9.17355 0.04381
C 31.98119 7.08722 0.01504
C 33.19853 6.39539 -0.00069
C 33.21685 4.95797 0.04926
C 32.00856 4.28509 -0.03838
C 31.9374 2.8269 0.00349
C 33.18277 2.14212 -0.00323
C 33.26821 0.71292 -0.00841
C 32.04287 0.02685 0.0001
C 0.03294 32.71096 -0.02927
C 1.26145 31.99505 -0.01404
C 1.25566 30.45322 0.01027
C 31.94054 8.52944 0.02806
C 28.3074 13.50361 0.01257
C 28.24211 14.98499 0.00152
C 27.01246 15.65337 -0.00294
C 22.12606 32.69081 -0.04422
C 23.32981 31.99473 0.00654
C 23.3603 30.55795 -0.00703
C 22.16102 29.85667 -0.04076
C 22.13106 28.45399 -0.00652
C 23.35679 27.66947 0.0058
C 23.40808 26.31764 -0.00865
C 22.20223 25.55449 0.00675
C 22.21613 24.12272 -0.00311
C 23.31705 23.37326 0.00742
C 23.41694 22.0441 -0.01594
C 19.65696 0.00084 -0.02957
C 22.28097 21.33833 0.0106
C 23.30351 19.18084 -0.01721
C 23.36547 17.73082 -0.02422
C 22.11891 17.02346 0.01277
C 22.04522 15.64385 0.00096
C 23.26192 14.90581 -0.01527
C 23.32657 13.4866 0.01087
C 22.094 12.76208 0.00199
C 22.14151 11.3087 0.01511
C 23.27396 10.59607 -0.00478
C 23.3528 9.21877 -0.01662
C 22.09452 8.53368 -0.01185
C 22.09442 19.87189 -0.01154
C 22.07254 7.12726 0.01126
C 20.90295 0.73436 -0.00831
C 19.68068 2.81554 -0.017
C 19.6633 28.39322 -0.00289
C 20.9374 27.61592 0.00028
C 20.95285 26.24134 -0.02213
C 19.65881 25.52561 0.03698
C 19.70024 24.14276 -0.00109
C 20.99732 23.50094 -0.00491
C 20.94753 22.01583 0.03338
C 19.62979 21.22595 -0.0258
C 19.62892 19.85045 -0.0331
C 20.88507 19.20968 -0.00316
C 20.89212 17.8106 0.02188
C 20.91978 2.0992 0.00364
C 19.72215 17.10821 -0.01979
C 20.87765 14.91164 -0.01581
C 20.87947 13.49632 0.01452
C 19.63527 12.74331 0.04892
C 19.66491 11.36843 -0.00111
C 20.9119 10.65055 -0.03557
C 20.84346 9.19818 0.03754
C 19.63375 8.48968 0.01739
C 19.68534 7.07258 0.00755
C 20.87475 6.37305 -0.0054
C 20.93215 4.94551 0.00667
C 19.69137 4.23765 0.00143
C 19.67153 15.69079 0.02691
C 20.95419 30.57267 0.00213
C 23.3225 6.39464 0.01852
C 22.15724 4.23266 0.03046
C 24.58625 7.11652 -0.00285
C 25.82781 6.4274 -0.009
C 25.82076 4.9424 -0.01199
C 24.59905 4.22568 -0.00229
C 24.644 2.85549 -0.00938
C 25.83746 2.19387 -0.0264
C 25.83539 0.7419 -0.01154
C 24.6296 0.06412 0.00684
C 27.08226 32.61893 -0.01052
C 28.28743 31.86128 -0.01679
C 28.25088 30.45752 0.00367
C 24.63322 8.49397 0.01423
C 26.99281 29.78395 0.04306
C 28.21368 27.71751 0.00195
C 28.25782 26.27648 -0.00802
C 26.99028 25.58302 -0.00218
C 27.06665 24.14684 -0.01654
C 28.21111 23.34994 -0.00037
C 28.25831 21.96674 -0.0032
C 27.0503 21.33533 0.00622
C 27.06275 19.94344 -0.02815
C 28.24851 19.06095 -0.00942
C 28.30465 17.72123 0.00487
C 27.03149 17.12175 0.00826
C 27.01312 28.40229 0.00996
C 23.33386 5.01268 -0.00381
C 25.84489 9.20086 0.02555
C 24.61414 11.32027 0.00135
C 22.16166 2.8176 0.0296
C 23.39077 2.12121 0.03374
C 23.37093 0.6918 -0.02845
C 22.16752 0.03699 -0.03213
C 24.59419 32.66872 0.02239
C 25.8116 31.97053 0.01153
C 25.7869 30.51906 0.02734
C 24.52545 29.85344 -0.0055
C 24.54452 28.36944 0.01515
C 25.7329 27.7029 -0.00225
C 25.75892 26.28941 0.00071
C 25.79733 10.62913 0.03102
C 24.61979 25.62655 -0.01107
C 25.82376 23.4047 -0.01971
C 25.82595 22.03965 -0.02118
C 24.61088 21.23178 0.00733
C 24.57924 19.82169 -0.00178
C 25.83192 19.20847 0.00768
C 25.80069 17.80712 -0.0276
C 24.6425 17.04732 0.03005
C 24.6576 15.63249 -0.04078
C 25.86687 14.93059 0.02117
C 25.8633 13.46723 0.02737
C 24.69999 12.73319 -0.00498
C 24.63529 24.06941 -0.01586
C 2.56537 32.72051 0.00297
