265
Graphene
C 0.0421 0.07243 0.01295
C 16.00218 0.70354 0.01126
C 15.95797 2.16634 -0.01185
C 14.75325 2.87317 -0.01662
C 14.82378 4.26309 -0.00478
C 16.06155 5.04382 0.01511
C 16.01056 6.45652 0.00199
C 14.63135 6.94227 0.01087
C 14.65169 32.64891 -0.01527
C 12.28149 33.93085 0.00096
C 13.47912 0.67573 0.01277
C 13.59049 2.1139 -0.02422
C 12.34526 2.78312 -0.01721
C 12.37437 4.19004 -0.01154
C 13.57095 4.9631 0.0106
C 13.53577 6.49738 -0.01594
C 12.27794 32.51903 0.00742
C 9.81621 34.00965 -0.00311
C 10.9877 0.59661 0.00675
C 11.12769 2.03054 -0.00865
C 9.83946 2.83076 0.0058
C 9.78601 4.26741 -0.00652
C 11.09688 4.96115 -0.04076
C 10.85114 6.49587 -0.00703
C 9.82246 7.11642 0.00654
C 9.87054 29.95267 -0.04422
C 11.15857 31.9866 -0.02957
C 9.86782 32.61594 -0.00831
C 7.36701 34.07448 0.00364
C 8.60454 0.72267 -0.017
C 14.78565 34.01622 0.01852
C 8.62445 2.14156 0.00143
C 17.27378 32.74613 -0.00381
C 18.3997 15.02721 0.0296
C 19.61916 0.0851 -0.009
C 20.93531 0.64752 -0.00285
C 20.93102 2.08036 0.01423
C 19.74134 2.85374 0.02555
C 19.74752 4.22665 0.03102
C 20.91866 4.92396 0.00135
C 20.88193 6.37513 -0.00498
C 19.67398 7.07142 0.02737
C 19.60565 8.47853 0.02117
C 20.88945 9.24197 -0.04078
C 20.97556 10.61785 0.03005
C 19.60341 11.40198 -0.0276
C 19.72421 12.83346 0.00768
C 20.85276 13.63104 -0.00178
C 20.78346 14.98936 0.00733
C 19.62737 15.40925 -0.02118
C 20.81112 31.92634 -0.01971
C 19.77746 32.73445 -0.01586
C 17.25504 34.04351 -0.01107
C 18.42517 0.75766 0.00071
C 18.42479 2.1689 -0.00225
C 17.19296 2.85909 0.01515
C 17.26757 4.31172 -0.0055
C 18.5425 4.95721 0.02734
C 18.48131 6.35148 0.01153
C 17.25611 7.05534 0.02239
C 17.27821 8.4199 -0.03213
C 18.28113 9.28582 -0.02845
C 18.47219 10.63187 0.03374
C 17.31643 16.83098 0.03046
C 7.43203 2.8221 0.00667
C 7.34938 4.27457 -0.0054
C 8.60039 4.95406 0.00755
C 4.85634 28.43107 -0.03113
C 4.81276 29.88172 0.0351
C 6.06595 30.5732 0.00422
C 6.11343 31.98273 0.00798
C 4.90832 32.5929 0.00228
C 2.48579 0.01173 -0.00114
C 3.72828 0.73051 -0.02696
C 3.70704 2.14901 -0.00368
C 2.50785 2.89032 -0.0108
C 2.46632 4.27613 -0.01957
C 3.73438 4.92187 0.02058
C 3.6509 6.33916 0.01965
C 2.4313 7.07467 -0.03682
C 2.49086 8.55862 0.00052
C 3.65593 9.25957 0.00374
C 3.64257 10.66919 -0.02813
C 2.40742 11.40491 -0.01952
C 2.39838 12.79251 0.05265
C 3.62883 13.47626 -0.01717
C 3.71063 14.95111 0.00244
C 2.46469 15.59345 0.02299
C 2.43657 17.02126 0.03542
C 3.60929 17.64443 0.01416
C 2.50612 25.61918 0.01945
C 3.56346 26.17032 -0.01454
C 3.66782 27.58896 0.01241
C 2.43547 28.39678 0.0076
C 2.5005 29.84436 0.02162
C 3.63437 30.61617 -0.0014
C 6.20881 27.62535 0.02098
C 6.20791 26.19566 0.01848
C 6.15467 17.68298 -0.00619
C 4.90634 17.21344 -0.02162
C 8.59094 6.36357 0.01739
C 7.3328 7.10528 0.03754
C 7.31979 8.50103 -0.03557
C 7.28404 11.402 -0.00111
C 7.24807 15.66899 0.04892
C 7.41991 17.14346 0.01452
C 8.63619 17.88143 -0.01581
C 8.67365 19.07245 0.02691
C 7.2954 25.64075 -0.01979
C 7.31458 28.49273 0.02188
C 7.29299 29.86503 -0.00316
C 8.64525 30.55426 -0.0331
C 8.58293 31.95909 -0.0258
C 7.38409 32.67108 0.03338
C 22.06586 32.65082 -0.01199
C 4.95878 34.03251 -0.00491
C 6.20323 2.1254 0.03698
C 4.9436 2.8309 -0.02213
C 4.98361 4.19537 0.00028
C 6.18521 4.97322 -0.00289
C 6.05621 6.41017 -0.00066
C 4.8657 7.2005 0.00213
C 4.9249 8.5525 -0.05302
C 6.20591 9.21803 -0.04147
C 6.17834 10.71008 -0.02815
C 4.90831 11.35069 0.03505
C 4.88035 12.7331 0.01443
C 6.18345 13.39681 0.00979
C 6.08253 14.83336 -0.00481
C 4.85423 15.72217 0.00889
C 6.12888 0.77916 -0.00109
C 3.65086 31.99735 0.00415
C 23.432 32.03886 -0.00229
C 22.16288 29.71901 -0.0264
C 32.03199 4.31513 -0.00323
C 33.23841 5.01551 0.00349
C 33.20254 6.45532 -0.03838
C 31.94814 7.08483 0.04926
C 31.89699 8.46554 -0.00069
C 33.17971 9.17389 0.01504
C 33.21697 10.64976 0.02806
C 32.00952 11.31716 0.04381
C 31.97272 12.83087 0.00199
C 33.17804 13.55224 0.00137
C 33.22939 14.88289 -0.01839
C 31.95516 15.66362 -0.00644
C 32.12343 16.98856 0.00455
C 33.17417 17.77779 0.00369
C 33.2249 19.04829 -0.02474
C 33.3066 22.03994 0.00594
C 33.20662 23.45044 -0.0136
C 31.91894 25.49171 -0.01429
C 33.12164 26.23046 -0.02383
C 33.16477 27.72167 0.01574
C 31.96141 28.39501 0.01927
C 31.98654 29.76877 0.03794
C 33.1953 30.55877 -0.01779
C 33.22015 31.99901 0.00682
C 32.02734 32.72561 0.00026
C 29.50698 34.05909 0.0544
C 30.74834 0.74163 -0.02142
C 30.75498 2.16207 0.01428
C 29.49405 2.81378 -0.01694
C 31.97418 2.9207 -0.00841
C 29.54907 4.23847 0.01713
C 33.19714 2.17136 0.0001
C 31.98464 0.03727 -0.01404
C 1.27079 0.81901 -0.00468
C 1.20602 2.23482 -0.00939
C 34.39612 2.90101 -0.00931
C 34.41052 4.31758 -0.0345
C 1.18166 4.9937 0.00628
C 1.23986 6.42908 0.02931
C 0.02501 7.10131 -0.02849
C 0.00907 8.51137 -0.02302
C 1.1822 9.30697 -0.00583
C 1.17423 10.68872 -0.00027
C 34.42362 11.38023 -0.02442
C 34.34926 12.83131 -0.02656
C 1.15419 13.47984 0.00343
C 1.24625 14.89635 -0.02957
C 0.01904 15.60146 0.02114
C 34.41493 17.06894 0.00648
C 1.186 17.81524 0.01223
C 1.29262 19.21916 -0.01678
C 0.05634 19.84434 0.01951
C 34.2009 21.28417 -0.02213
C 34.18104 24.17624 0.02712
C 0.02718 25.55114 0.00723
C 1.20128 26.30015 0.03076
C 1.14641 27.69812 -0.05239
C 34.33111 28.39113 -0.00598
C 34.39781 29.8291 -0.00439
C 1.22565 30.52529 -0.01037
C 1.15211 31.97551 0.01831
C 34.40656 32.73896 0.01027
C 33.22967 0.73187 -0.02927
C 30.75215 4.96857 0.00346
C 30.74369 6.38764 0.00307
C 29.56158 7.10476 0.00716
C 24.60887 2.88132 0.00235
C 24.55049 4.29023 0.01094
C 25.801 4.97628 0.02198
C 25.79205 6.38123 0.02611
C 24.55044 7.14557 -0.00621
C 24.59409 8.54543 0.00194
C 25.82502 9.16442 0.04185
C 25.88109 10.59801 0.02316
C 24.59236 11.34648 0.01257
C 24.62085 12.89846 0.00152
C 25.87673 13.45317 -0.00294
C 24.51995 29.84032 0.00826
C 25.81901 30.41832 0.00487
C 25.82516 31.95513 -0.00942
C 24.63577 32.68688 -0.02815
C 22.17183 34.00278 0.00622
C 23.40395 0.63439 -0.0032
C 23.40052 2.15798 -0.00037
C 22.14617 2.85034 -0.01654
C 22.12017 4.22668 -0.00218
C 23.33166 4.95758 -0.00802
C 23.38761 6.36505 0.00195
C 22.14285 7.07616 0.00996
C 22.06956 8.50968 0.04306
C 23.35552 9.21756 0.00367
C 23.32652 10.69014 -0.01679
C 22.15083 11.38518 -0.01052
C 22.17872 12.75873 0.00684
C 23.3434 13.42834 -0.01154
C 25.8641 2.18249 0.01495
C 25.8706 0.69151 0.01259
C 24.6389 34.05317 0.01799
C 27.06651 32.6335 0.01699
C 29.49176 8.46281 0.02108
C 30.71754 9.22528 0.0103
C 30.7392 10.61816 0.07705
C 29.50154 11.35038 0.01908
C 29.4735 12.85078 0.01518
C 30.75369 13.6093 -0.00971
C 30.73826 14.92778 -0.03735
C 30.69242 27.84224 -0.00944
C 29.60801 28.39551 -0.02155
C 29.5091 29.8235 -0.01461
C 30.77237 30.52003 -0.01303
C 30.80749 31.99251 -0.0405
C 29.57968 32.64799 0.01705
C 27.06289 34.03205 0.0101
C 23.31921 30.5659 -0.00938
C 28.26551 0.68934 -0.00669
C 27.07067 2.8666 0.01836
C 26.98315 4.21237 -0.03039
C 28.25056 4.92097 -0.01415
C 28.31128 6.34637 -0.01854
C 27.10344 7.09873 -0.02049
C 27.0042 8.43854 0.03265
C 28.21903 9.18598 0.00261
C 28.24747 10.61791 0.02326
C 27.04409 11.3055 0.00924
C 27.03707 12.7728 0.0014
C 28.27998 13.55217 0.01324
C 27.05338 29.90916 0.04266
C 28.29691 30.52471 0.01177
C 28.29671 31.95002 -0.00416
C 28.25781 2.09008 0.03531
C 2.35581 32.69168 -0.02162
