326
Graphene
C 34.31691 0.0188 0.01295
C 13.53284 13.44025 0.00213
C 12.36237 12.96791 -0.00066
C 12.31416 11.46101 -0.00289
C 13.48301 10.74664 0.00028
C 13.51857 9.3014 -0.02213
C 12.27413 8.61077 0.03698
C 12.31537 7.158 -0.00109
C 13.51348 27.7235 -0.05302
C 13.566 6.45438 -0.00491
C 12.33744 4.31631 -0.0258
C 12.22375 2.87518 -0.0331
C 13.52599 2.1221 -0.00316
C 13.61495 0.64597 0.02188
C 12.29711 33.99402 -0.01979
C 14.79412 32.49454 0.02691
C 16.02163 31.84632 -0.01581
C 13.56065 5.03901 0.03338
C 16.05584 30.34916 0.01452
C 12.33282 28.25784 -0.04147
C 13.59934 30.48544 0.03505
C 10.93174 13.70943 -0.00368
C 9.82326 12.91861 -0.02696
C 9.89871 11.46153 -0.00114
C 11.11155 10.76614 0.00228
C 10.99755 9.32734 0.00798
C 9.80826 8.57916 0.00422
C 9.82605 7.15282 0.0351
C 12.31935 29.73961 -0.02815
C 11.05685 6.41849 -0.03113
C 9.78902 4.28479 0.01848
C 9.78101 2.83092 -0.00619
C 11.00514 2.11105 -0.02162
C 11.03868 0.67605 0.00889
C 9.82994 33.97154 -0.00481
C 12.35016 32.60692 0.00979
C 13.50554 31.85874 0.01443
C 11.04989 4.96559 0.02098
C 14.75519 29.63138 0.04892
C 14.7212 28.31846 -0.00111
C 16.05687 13.61824 -0.03557
C 18.35948 10.74745 0.0106
C 18.48185 9.2586 -0.01154
C 17.23404 8.61381 -0.01721
C 17.21569 7.16508 -0.02422
C 18.38483 6.36719 0.01277
C 18.39686 5.01199 0.00096
C 17.19602 4.1887 -0.01527
C 17.02107 11.26305 -0.01594
C 17.24363 2.8174 0.01087
C 18.4662 0.77959 0.01511
C 17.24906 0.01328 -0.00478
C 19.66748 32.79682 -0.01662
C 20.83522 32.00563 -0.01185
C 20.82355 30.53929 0.01126
C 19.64686 29.85046 0.01852
C 19.36652 28.44548 -0.00381
C 18.49224 2.11993 0.00199
C 16.99922 12.66749 0.00742
C 18.39657 13.08287 -0.00311
C 17.7082 28.39865 0.00675
C 14.81206 12.85268 0.03754
C 14.72788 11.3817 0.01739
C 15.85305 10.62068 0.00755
C 15.95363 9.24578 -0.0054
C 14.79371 8.59613 0.00667
C 14.7874 7.15686 0.00143
C 16.01354 6.37886 -0.017
C 15.91484 4.93677 0.00364
C 14.67251 4.31091 -0.00831
C 14.72061 2.90332 -0.02957
C 15.95322 2.07545 -0.04422
C 16.02172 0.65224 0.00654
C 14.87642 34.03882 -0.00703
C 17.26055 32.68334 -0.04076
C 18.47737 32.00235 -0.00652
C 18.52051 30.55571 0.0058
C 17.31253 29.67752 -0.00865
C 9.31616 24.22759 -0.0108
C 9.89643 25.46755 -0.01957
C 11.20539 26.23358 0.02058
C 11.12268 27.60452 0.01965
C 3.68968 6.33877 0.01291
C 3.63896 4.91053 0.00093
C 2.3446 4.33604 0.00057
C 2.42034 2.89273 -0.01634
C 3.58044 2.10186 -0.00334
C 3.62865 0.67186 0.02339
C 2.41617 34.0312 0.01641
C 2.37688 7.15907 0.00438
C 4.92173 32.63607 -0.00719
C 6.1713 30.56917 -0.01062
C 4.94538 29.88874 -0.00033
C 4.90912 28.45267 0.03589
C 6.13697 27.73811 -0.02759
C 6.20062 26.27598 0.0402
C 4.95474 25.59478 0.00572
C 5.04903 24.21687 0.03592
C 6.1884 31.98593 0.01364
C 2.46094 8.53606 -0.00191
C 3.69048 9.28223 0.00373
C 3.67042 10.62828 0.02147
C 3.66134 30.51499 -0.01362
C 2.45351 29.86997 -0.0008
C 2.37167 28.50709 0.0288
C 3.60944 27.73916 0.00393
C 3.63845 26.37565 0.00895
C 2.41212 25.59061 0.00685
C 2.49758 24.23995 0.02888
C 3.81103 23.47621 -0.00482
C 3.5436 22.17678 -0.01384
C 2.52111 21.3026 0.03693
C 2.40461 19.80223 0.01745
C 2.42975 17.20276 0.00488
C 2.54954 15.73572 -0.01004
C 3.85067 14.86223 -0.02896
C 3.61771 13.44716 -0.00131
C 2.38955 12.83815 -0.01118
C 2.33832 11.3788 -0.014
C 5.89166 13.6196 0.00406
C 20.66091 27.87263 0.03046
C 4.8857 12.68405 0.00943
C 6.17198 10.69589 -0.01111
C 8.64655 10.78687 0.02162
C 8.61301 9.33044 0.0076
C 7.32913 8.57771 0.01241
C 7.37599 7.14266 -0.01454
C 8.54227 6.41626 0.01945
C 8.64133 5.00257 0.01416
C 7.38557 4.24241 0.03542
C 7.40429 11.4588 -0.0014
C 7.36916 2.84146 0.02299
C 8.58419 0.59831 -0.01717
C 7.34376 0.09671 0.05265
C 9.84737 32.62344 -0.01952
C 11.10792 31.89363 -0.02813
C 11.08509 30.50993 0.00374
C 9.89302 29.79918 0.00052
C 9.8484 28.37802 -0.03682
C 8.61607 2.05948 0.00244
C 7.25756 12.98926 0.00415
C 8.59213 13.63608 -0.02162
C 7.37742 25.5896 0.01363
C 6.16581 9.18847 -0.01275
C 4.95628 8.52766 0.00985
C 4.87741 7.08498 -0.02245
C 6.10066 6.37866 -0.00428
C 6.13526 4.94167 0.03101
C 4.90623 4.28026 -0.01536
C 4.86647 2.82281 -0.02689
C 6.1367 2.098 -0.01046
C 6.1327 0.73415 -0.00891
C 4.89104 34.01611 0.02819
C 7.38904 32.7013 0.00165
C 8.60373 31.92924 -0.02971
C 8.62755 30.57316 0.02894
C 7.42959 29.76407 -0.01789
C 7.41325 28.4092 0.00444
C 8.57182 27.65806 -0.00925
C 8.62012 26.20159 0.01877
C 4.88465 11.28553 0.02841
C 21.02966 13.90005 0.0296
C 19.7888 13.13978 0.03374
C 19.2786 11.81074 -0.02845
C 33.21729 26.39042 0.00682
C 31.98002 25.62494 -0.01779
C 31.97869 24.12476 0.03794
C 33.208 23.4363 0.01927
C 33.21874 21.99052 0.01574
C 31.9841 21.3188 -0.02383
C 31.92519 19.96812 -0.01429
C 33.19551 27.75295 0.00026
C 33.12964 19.26049 -0.0136
C 31.84769 16.99204 -0.02474
C 31.90406 15.6299 0.00369
C 33.10969 14.84172 0.00455
C 33.11512 13.42692 -0.00644
C 31.89798 12.65204 -0.01839
C 31.92015 11.27599 0.00137
C 33.22497 10.72261 0.00199
C 33.10278 17.82011 0.00594
C 31.85096 28.42507 0.0544
C 31.92991 29.7798 -0.02142
C 33.11969 30.56638 0.01428
C 30.66066 19.16863 -0.0405
C 30.58751 17.75765 -0.01303
C 29.3574 17.00471 -0.01461
C 29.35176 15.592 -0.02155
C 30.64818 14.98225 -0.00944
C 30.67767 13.35668 -0.03735
C 29.42163 12.84576 -0.00971
C 30.95914 10.18672 0.01518
C 30.76017 6.48391 0.01908
C 30.52648 5.08425 0.07705
C 29.35197 4.0854 0.0103
C 29.47786 2.70543 0.02108
C 30.75902 2.13254 0.00716
C 30.76954 0.69706 0.00307
C 29.55033 33.99125 0.00346
C 31.93539 32.67618 0.01713
C 33.09597 31.93044 -0.01694
C 33.1109 9.30921 0.04381
C 29.45576 19.88855 0.01705
C 31.76831 8.86996 0.02806
C 33.01344 6.55827 -0.00069
C 34.34241 17.07338 0.00648
C 34.37755 15.63066 0.02114
C 1.22968 15.03465 -0.02957
C 1.18667 13.55369 0.00343
C 34.41916 12.84388 -0.02656
C 34.42984 11.37678 -0.02442
C 1.18819 10.57306 -0.00027
C 1.17097 17.82049 0.01223
C 1.17869 9.23438 -0.00583
C 34.30322 7.13982 -0.02849
C 1.14724 6.46614 0.02931
C 1.13536 5.03708 0.00628
C 34.33519 4.29511 -0.0345
C 34.37805 2.82314 -0.00931
C 1.16266 2.16951 -0.00939
C 1.16797 0.7014 -0.00468
C 34.31074 8.61268 -0.02302
C 1.14128 19.22714 -0.01678
C 34.38855 19.93028 0.01951
C 34.43253 21.36462 -0.02213
C 33.04408 5.07007 0.04926
C 31.79473 4.35559 -0.03838
C 31.9079 2.90239 0.00349
C 33.11443 2.18749 -0.00323
C 33.15346 0.76215 -0.00841
C 31.94459 0.00495 0.0001
C 34.33825 32.70213 -0.02927
C 1.14227 31.92851 -0.01404
C 1.19962 30.56481 0.01027
C 0.01151 29.88802 0.01831
C 34.39708 28.43503 -0.01037
C 1.20246 27.74498 -0.00439
C 1.19725 26.34868 -0.00598
C 34.41604 25.6091 -0.05239
C 0.02521 24.2583 0.03076
C 1.2399 23.52592 0.00723
C 1.21781 22.06961 0.02712
C 31.77348 7.30302 0.01504
C 3.65433 31.96855 -0.00892
C 29.45853 21.28947 0.0101
C 30.71458 23.43788 0.03531
C 23.44761 2.17962 0.00135
C 23.44917 0.73121 0.03102
C 22.19124 0.04489 0.02555
C 24.57388 32.5712 0.01423
C 25.81401 31.88575 -0.00285
C 25.74489 30.45668 -0.009
C 24.55785 29.76167 -0.01199
C 22.1174 2.91884 -0.00498
C 24.53359 28.3476 -0.00229
C 25.6812 26.09003 -0.0264
C 24.38124 25.40679 -0.01154
C 24.5916 23.96285 0.00684
C 25.78612 23.44396 -0.01052
C 25.78184 21.9267 -0.01679
C 24.68676 21.27099 0.00367
C 24.65023 19.90759 0.04306
C 25.58882 27.52938 -0.00938
C 21.94766 4.26118 0.02737
C 22.33875 13.23846 0.02117
C 23.59745 13.12853 -0.04078
C 19.65947 8.37907 -0.03213
C 19.52724 7.11645 0.02239
C 20.79247 4.98158 0.01153
C 19.66946 4.30276 0.02734
C 19.69891 2.81516 -0.0055
C 20.93847 2.13806 0.01515
C 20.92597 0.70748 -0.00225
C 19.65624 0.02042 0.00071
C 22.1075 32.67442 -0.01107
C 23.3361 31.91791 -0.01586
C 23.37403 30.46192 -0.01971
C 22.09733 29.80641 -0.02118
C 21.96848 28.37841 0.00733
C 23.22852 27.63668 -0.00178
C 23.12773 26.24852 0.00768
C 21.63471 15.07908 -0.0276
C 23.04566 14.71503 0.03005
C 25.7564 19.12571 0.00996
C 30.69347 22.00362 -0.00669
C 25.79042 17.72689 0.00195
C 24.20342 15.54458 -0.00218
C 26.94349 15.6843 0.01799
C 28.11323 14.8803 0.01699
C 28.20856 13.52029 -0.00416
C 27.24701 2.82695 0.01177
C 28.33102 1.94031 0.04266
C 28.25718 0.52626 0.01324
C 27.05922 34.04039 0.0014
C 27.02494 17.09359 0.01259
C 29.52352 32.60164 0.00924
C 30.70681 30.48082 0.00261
C 29.45059 29.75155 0.03265
C 29.3704 28.42935 -0.02049
C 30.65146 27.7243 -0.01854
C 30.71587 26.31963 -0.01415
C 29.47723 25.58485 -0.03039
C 29.49954 24.23622 0.01836
C 30.75813 31.85739 0.02326
C 28.21163 17.76322 0.01495
C 28.19223 19.10954 0.00235
C 26.99662 19.79483 0.01094
C 25.6589 15.21154 -0.01654
C 24.64936 2.85331 -0.00037
C 25.87171 2.19588 -0.0032
C 25.80978 0.66918 0.00622
C 24.62275 0.01921 -0.02815
C 26.94343 32.6487 -0.00942
C 28.26348 31.89358 0.00487
C 28.20898 30.46481 0.00826
C 26.9678 29.72986 -0.00294
C 26.86961 28.26599 0.00152
C 28.15457 27.7068 0.01257
C 28.17174 26.262 0.02316
C 26.96496 25.55012 0.04185
C 27.05263 24.12016 0.00194
C 28.29474 23.41184 -0.00621
C 28.29691 22.00533 0.02611
C 27.02659 21.21922 0.02198
C 24.73903 16.76337 -0.00802
C 2.40107 32.59749 -0.04848
