337
Graphene
C 34.36147 0.02349 0.01295
C 12.28843 32.71771 -0.00481
C 13.52686 31.91431 0.00979
C 13.46621 30.57034 0.01443
C 12.2144 29.77419 0.03505
C 12.27283 28.33726 -0.02815
C 13.55445 27.62325 -0.04147
C 13.50552 26.29778 -0.05302
C 12.28475 25.53922 0.00213
C 12.21764 24.16474 -0.00066
C 13.4603 23.38853 -0.00289
C 13.46974 21.88072 0.00028
C 12.24257 21.2236 -0.02213
C 13.72937 4.76978 0.03698
C 12.42582 4.5454 -0.00109
C 12.31321 3.1804 -0.00491
C 13.49403 2.26342 0.03338
C 13.48723 0.7854 -0.0258
C 9.89958 0.15237 0.00889
C 12.21594 0.04079 -0.0331
C 11.13469 0.86226 -0.02162
C 9.81395 2.97325 0.01848
C 7.3416 0.15288 -0.02813
C 9.87865 32.76724 0.00374
C 11.06736 31.99846 0.00052
C 11.0622 30.55323 -0.03682
C 9.69511 29.89458 0.01965
C 9.70614 28.46302 0.02058
C 10.94562 27.65768 -0.01957
C 11.00158 26.17029 -0.0108
C 9.80518 25.4812 -0.00368
C 9.7257 24.01265 -0.02696
C 10.99543 23.37909 -0.00114
C 11.03197 22.01139 0.00228
C 9.73676 21.27391 0.00798
C 9.71215 19.83572 0.00422
C 10.36079 6.51104 0.0351
C 11.06509 5.13119 -0.03113
C 9.77316 4.3811 0.02098
C 11.13403 2.34651 -0.00619
C 8.6484 0.79805 -0.01952
C 14.6693 32.65438 -0.00316
C 15.90045 30.57084 -0.01979
C 17.18176 25.6225 0.0058
C 17.13995 24.19865 -0.00865
C 18.42699 23.50019 0.00675
C 18.40434 22.13085 -0.00311
C 17.25941 21.27345 0.00742
C 16.34966 4.18423 -0.01594
C 17.10534 3.00177 0.0106
C 18.33282 2.31303 -0.01154
C 18.36839 0.74623 -0.01721
C 17.20014 34.05431 -0.02422
C 19.68672 32.73861 0.01277
C 20.81494 31.94304 0.00096
C 20.80131 30.5816 -0.01527
C 19.6405 29.74473 0.01087
C 19.64356 28.38624 0.00199
C 20.88562 27.72553 0.01511
C 20.89118 26.2997 -0.00478
C 18.49822 26.28389 -0.00652
C 15.92284 31.97526 0.02188
C 18.40696 27.67061 -0.04076
C 17.14156 29.89004 0.00654
C 14.61747 29.89457 0.02691
C 14.69663 28.44223 -0.01581
C 15.91676 27.65197 0.01452
C 15.9671 26.20083 0.04892
C 14.73706 25.54181 -0.00111
C 14.67022 24.08493 -0.03557
C 15.9648 23.49845 0.03754
C 16.05119 21.86293 0.01739
C 14.73013 21.41008 0.00755
C 15.06639 4.16564 -0.0054
C 14.74482 2.78444 0.00667
C 15.93939 1.9682 0.00143
C 15.93012 0.599 -0.017
C 14.65885 34.07665 0.00364
C 17.2375 32.62115 -0.00831
C 18.51363 31.96969 -0.02957
C 18.3973 30.50987 -0.04422
C 17.12424 28.33465 -0.00703
C 8.67212 2.15348 0.05265
C 7.4424 2.82096 -0.01717
C 7.35091 4.27981 0.00244
C 2.5203 8.54366 0.01745
C 2.53469 7.15272 0.00488
C 3.7761 6.48287 -0.01004
C 3.77279 5.08194 -0.02896
C 2.47422 4.42987 -0.00131
C 2.4305 2.88154 -0.01118
C 3.68629 2.24127 -0.014
C 3.59863 0.82552 0.02147
C 2.34531 0.08293 0.00373
C 4.84304 32.75023 -0.00191
C 6.15807 31.97218 0.00438
C 6.09755 30.59176 0.01291
C 4.89206 29.89049 0.00093
C 4.87892 28.4437 0.00057
C 6.06982 27.73818 -0.01634
C 6.13471 26.35017 -0.00334
C 4.89596 25.60564 0.02339
C 3.74771 9.29014 0.03693
C 4.86446 24.10223 0.01641
C 3.70492 10.6716 -0.01384
C 2.37732 12.7355 0.02888
C 3.6206 30.58574 0.01396
C 2.46879 29.85346 0.01849
C 2.46261 28.45562 -0.01142
C 3.65571 27.75217 -0.00562
C 3.68165 26.25218 -0.00494
C 2.44522 25.60779 0.00054
C 2.48601 24.19874 0.03007
C 3.69236 23.4085 -0.00095
C 3.68463 22.00468 0.01572
C 2.40698 21.33088 -0.04848
C 2.40526 19.86952 -0.00892
C 3.58443 19.25676 -0.01362
C 3.59113 17.8216 -0.0008
C 2.34921 17.09727 0.0288
C 2.41543 15.69843 0.00393
C 3.63944 14.89783 0.00895
C 3.66581 13.52394 0.00685
C 2.41113 11.39496 -0.00482
C 6.14966 23.41835 -0.00719
C 6.09916 21.97373 0.01364
C 4.91584 21.3438 -0.01062
C 8.56163 30.6474 0.02894
C 7.37605 29.97875 -0.01789
C 7.34109 28.40471 0.00444
C 8.52504 27.60303 -0.00925
C 8.64252 26.16937 0.01877
C 7.40059 25.52462 0.01363
C 7.42796 24.12241 -0.02162
C 8.55253 23.39351 0.00415
C 8.52885 21.97745 -0.0014
C 7.32634 21.2185 0.02162
C 7.24956 19.7634 0.0076
C 8.56021 19.15318 0.01241
C 7.09722 16.59993 -0.01454
C 7.34092 8.5016 0.01945
C 7.63874 7.15885 0.01416
C 8.86697 6.43657 0.03542
C 8.59326 5.01085 0.02299
C 8.60931 32.07894 -0.02971
C 7.42124 32.78212 0.00165
C 4.80246 0.06437 0.02819
C 6.10612 0.77933 -0.00891
C 4.87383 19.94834 -0.00033
C 6.02259 19.06562 0.03589
C 6.10501 17.55039 -0.02759
C 4.84603 17.07372 0.0402
C 4.87264 15.6148 0.00572
C 6.20505 15.14665 0.03592
C 6.10096 13.68329 0.00406
C 4.96676 12.90291 0.00943
C 19.66647 25.5752 -0.01662
C 4.96277 11.45492 0.02841
C 6.32389 9.35386 -0.01275
C 4.97612 8.56894 0.00985
C 5.10795 7.16677 -0.02245
C 6.28274 6.40853 -0.00428
C 6.1887 5.04417 0.03101
C 4.98237 4.33146 -0.01536
C 4.91378 2.96442 -0.02689
C 6.15393 2.15298 -0.01046
C 6.26084 10.70509 -0.01111
C 3.6125 32.05815 0.0127
C 19.67619 24.15594 -0.01185
C 21.00276 22.08595 0.01852
C 31.8997 28.37726 0.0544
C 33.18196 27.69426 0.00026
C 33.18427 26.22713 0.00682
C 31.92013 25.50813 -0.01779
C 31.81647 24.07345 0.03794
C 33.18741 23.47056 0.01927
C 33.16334 22.0429 0.01574
C 31.89185 21.31633 -0.02383
C 31.98101 19.93921 -0.01429
C 33.18713 19.18021 -0.0136
C 33.06118 17.76911 0.00594
C 31.83437 17.09338 -0.02474
C 31.868 15.60076 0.00369
C 33.11069 14.83843 0.00455
C 33.05664 13.41007 -0.00644
C 31.82021 12.81979 -0.01839
C 31.81927 11.31758 0.00137
C 31.93713 29.81167 -0.02142
C 33.16179 10.65952 0.00199
C 33.19837 30.5869 0.01428
C 31.95443 32.64084 0.01713
C 29.47947 17.11321 0.0101
C 29.33132 15.73798 0.01705
C 30.51971 14.96136 -0.0405
C 30.62751 13.52927 -0.01303
C 29.39338 12.78404 -0.01461
C 29.41894 11.3802 -0.02155
C 30.65403 10.60002 -0.00944
C 30.63682 9.26563 -0.03735
C 29.3965 8.49559 -0.00971
C 29.38098 7.10838 0.01518
C 30.63556 6.41598 0.01908
C 30.70998 5.00755 0.07705
C 29.43871 4.25666 0.0103
C 29.46028 2.85173 0.02108
C 30.64616 2.05394 0.00716
C 30.62318 0.69967 0.00307
C 29.36655 34.01538 0.00346
C 33.16917 32.03093 -0.01694
C 30.69952 17.79065 -0.00669
C 33.17409 9.27619 0.04381
C 31.82528 7.12731 0.01504
C 1.13407 17.70003 0.01223
C 34.34615 16.98576 0.00648
C 34.33141 15.5579 0.02114
C 1.1623 14.92029 -0.02957
C 1.11526 13.52154 0.00343
C 34.29368 12.71767 -0.02656
C 34.42329 11.35585 -0.02442
C 1.20589 10.63803 -0.00027
C 1.29524 9.20262 -0.00583
C 0.01071 8.55223 -0.02302
C 34.39751 7.16761 -0.02849
C 1.22953 6.41748 0.02931
C 1.18611 5.01591 0.00628
C 34.42487 4.23739 -0.0345
C 34.38075 2.85591 -0.00931
C 1.13865 2.19853 -0.00939
C 1.10157 0.78226 -0.00468
C 1.24027 19.07953 -0.01678
C 31.92971 8.50805 0.02806
C 0.01454 19.83467 0.01951
C 1.21273 22.04994 0.02712
C 33.14645 6.47115 -0.00069
C 33.19071 5.01922 0.04926
C 31.96221 4.25407 -0.03838
C 31.93979 2.86337 0.00349
C 33.14015 2.10522 -0.00323
C 33.12371 0.68171 -0.00841
C 31.90132 34.07762 0.0001
C 34.38271 32.71219 -0.02927
C 1.24469 32.02148 -0.01404
C 1.28975 30.55902 0.01027
C 34.42472 29.8982 0.01831
C 34.42289 28.44403 -0.01037
C 1.20693 27.69024 -0.00439
C 1.19465 26.29506 -0.00598
C 34.40229 25.58379 -0.05239
C 0.03131 24.15003 0.03076
C 1.29383 23.43196 0.00723
C 34.41806 21.31084 -0.02213
C 30.69863 19.29929 0.03531
C 29.59774 20.1669 0.01836
C 30.65384 21.85184 -0.03039
C 23.55514 17.64315 0.03005
C 22.25284 2.79827 -0.04078
C 23.44249 2.0803 0.02117
C 23.3513 0.6285 0.02737
C 22.06182 34.06293 -0.00498
C 24.58144 32.55312 0.00135
C 25.83745 31.79564 0.03102
C 25.80022 30.35003 0.02555
C 24.49826 29.76638 0.01423
C 24.56776 28.32096 -0.00285
C 25.74264 27.57108 -0.009
C 24.61051 21.247 -0.01199
C 24.50403 19.93541 -0.00229
C 25.7854 19.1602 -0.00938
C 25.77908 17.73773 -0.0264
C 24.80392 16.69361 -0.01154
C 25.46155 15.5339 0.00684
C 23.35153 18.95472 -0.0276
C 25.70653 8.9813 -0.01052
C 22.19407 19.8098 0.00768
C 23.51843 22.10163 0.00733
C 19.6622 21.43428 -0.00381
C 19.74972 20.08776 0.03046
C 20.74767 19.52312 0.0296
C 19.61639 2.76854 0.03374
C 20.93559 2.30127 -0.02845
C 20.8145 0.7029 -0.03213
C 19.61598 0.10492 0.02239
C 22.08144 32.64257 0.01153
C 23.21258 31.9265 0.02734
C 23.19858 30.50858 -0.0055
C 22.06 29.79053 0.01515
C 22.16085 28.26059 -0.00225
C 23.35899 27.65775 0.00071
C 23.34038 26.34392 -0.01107
C 22.17222 25.61434 -0.01586
C 22.13083 24.23637 -0.01971
C 23.42957 23.4598 -0.02118
C 22.2635 21.37356 -0.00178
C 24.77511 7.52181 -0.01679
C 25.619 6.44162 0.00367
C 25.57421 4.97895 0.04306
C 27.00986 8.48225 0.00235
C 26.95186 6.99544 0.01495
C 28.16016 6.39391 0.01259
C 28.13658 4.91468 0.01799
C 26.90214 4.21564 0.01699
C 26.99031 2.79839 -0.00416
C 28.19552 2.09266 0.01177
C 28.14432 0.62562 0.04266
C 26.96312 33.95886 0.01324
C 29.4416 32.55733 0.0014
C 30.76641 31.91114 0.00924
C 30.76762 30.54626 0.02326
C 29.47983 29.8491 0.00261
C 29.46344 28.4553 0.03265
C 30.67133 27.69398 -0.02049
C 30.74726 26.33494 -0.01854
C 30.74748 23.24604 -0.01415
C 28.20413 9.25103 0.01094
C 28.19004 10.62857 0.02198
C 26.95369 11.30494 0.02611
C 26.97921 12.64117 -0.00621
C 24.46308 4.19421 0.00996
C 24.57629 2.81636 0.00195
C 25.76599 2.05654 -0.00802
C 25.75603 0.64947 -0.00218
C 24.5312 33.96597 -0.01654
C 26.97715 32.56368 -0.00037
C 28.25943 31.89805 -0.0032
C 28.25531 30.45633 0.00622
C 20.92601 23.48155 0.01126
C 27.06983 29.6934 -0.02815
C 28.32396 27.5756 0.00487
C 26.87833 20.03298 0.00826
C 28.21329 19.63529 -0.00294
C 28.21567 17.97013 0.00152
C 27.07223 17.17214 0.01257
C 26.81766 15.72441 0.02316
C 28.08208 14.93074 0.04185
C 28.11762 13.51925 0.00194
C 27.01387 28.123 -0.00942
C 2.40766 32.7341 0.02635
