439
Graphene
C 0.03871 0.01794 0.01295
C 12.20035 19.9863 -0.00334
C 13.48385 19.21282 0.02339
C 13.50554 17.78227 0.01641
C 12.25218 17.14899 -0.00719
C 12.25453 15.69858 0.01364
C 13.41964 14.79482 -0.01062
C 12.2045 12.87075 -0.00033
C 12.28179 11.44891 0.03589
C 13.5918 10.82475 -0.02759
C 13.57672 9.29046 0.0402
C 12.28133 8.49866 0.00572
C 12.35198 7.14568 0.03592
C 13.58517 6.42707 0.00406
C 13.54507 4.93397 0.00943
C 12.35133 4.20667 0.02841
C 12.27963 2.81878 -0.01111
C 13.48188 2.1288 -0.01275
C 13.50144 0.66508 0.00985
C 12.24856 34.00313 -0.02245
C 14.80156 32.69242 -0.00428
C 15.97315 31.91784 0.03101
C 16.00667 30.51348 -0.01536
C 14.74636 29.78784 -0.02689
C 12.26479 21.37642 -0.01634
C 13.47357 22.0511 0.00057
C 13.51831 23.50952 0.00093
C 12.23113 24.19759 0.01291
C 9.82063 15.64776 0.01572
C 11.07047 14.98572 -0.04848
C 11.04212 13.60663 -0.00892
C 9.78007 12.85612 -0.01362
C 9.78139 11.46497 -0.0008
C 11.07067 10.67462 0.0288
C 11.07123 9.24448 0.00393
C 9.83305 8.59021 0.00895
C 9.86724 7.16474 0.00685
C 11.13123 6.39588 0.02888
C 11.0769 4.99218 -0.00482
C 14.69632 28.43549 -0.01046
C 9.84663 4.3057 -0.01384
C 11.05355 2.13107 0.01745
C 11.07836 0.70604 0.00488
C 9.77298 0.0126 -0.01004
C 12.19932 32.6052 -0.02896
C 13.56077 32.00534 -0.00131
C 13.53475 30.50556 -0.01118
C 12.23449 29.86553 -0.014
C 12.29394 28.47914 0.02147
C 13.44824 27.72538 0.00373
C 13.52607 26.29736 -0.00191
C 12.30998 25.58147 0.00438
C 9.85403 2.90746 0.03693
C 9.87215 17.05861 -0.00095
C 15.94053 27.69004 -0.00891
C 14.81928 25.59753 0.00165
C 17.23313 25.53423 -0.01957
C 17.21976 24.16783 -0.0108
C 18.45639 23.40126 -0.00368
C 18.41664 21.95876 -0.02696
C 17.18316 21.2459 -0.00114
C 17.19992 19.78257 0.00228
C 18.41077 19.06317 0.00798
C 18.39625 17.69475 0.00422
C 17.14693 16.96285 0.0351
C 17.11728 15.51184 -0.03113
C 18.38626 14.88511 0.02098
C 18.37734 13.46575 0.01848
C 17.18477 12.71004 -0.00619
C 17.23789 11.32548 -0.02162
C 18.46403 10.66176 0.00889
C 18.40673 9.31688 -0.00481
C 17.17612 8.57407 0.00979
C 17.23865 7.13408 0.01443
C 18.43366 6.38323 0.03505
C 18.40383 4.92745 -0.02815
C 17.21276 4.24297 -0.04147
C 17.17441 2.82035 -0.05302
C 18.42919 1.97924 0.00213
C 18.49084 26.25214 0.02058
C 18.3996 27.72855 0.01965
C 17.16442 28.38971 -0.03682
C 17.33569 29.81018 0.00052
C 14.82236 24.15838 -0.02971
C 16.03019 23.42064 0.02894
C 16.01289 22.02701 -0.01789
C 14.7205 21.33983 0.00444
C 14.71122 19.90567 -0.00925
C 15.96162 19.1081 0.01877
C 15.92735 17.71343 0.01363
C 14.69468 16.96339 -0.02162
C 14.5906 15.54506 0.00415
C 15.89624 14.79843 -0.0014
C 15.83339 13.31364 0.02162
C 16.02332 26.27405 0.02819
C 14.80011 11.43693 0.0076
C 15.98935 9.3294 -0.01454
C 14.82262 8.50447 0.01945
C 14.85116 7.06226 0.01416
C 16.01968 6.32584 0.03542
C 16.02664 4.96563 0.02299
C 14.7771 4.21865 0.00244
C 14.70439 2.77847 -0.01717
C 15.9486 2.08175 0.05265
C 15.98169 0.67846 -0.01952
C 14.77148 34.06644 -0.02813
C 17.14573 32.59834 0.00374
C 15.94641 10.69731 0.01241
C 18.44951 0.48492 -0.00066
C 11.03952 17.8497 0.03007
C 9.77823 19.91631 -0.00494
C 3.73011 0.72338 0.00088
C 2.52015 0.05044 0.00828
C 4.91051 32.65404 -0.02375
C 6.19946 31.94484 0.00558
C 6.11209 30.5747 -0.0059
C 4.95322 29.79571 -0.01386
C 5.01139 28.39943 -0.02805
C 6.2093 27.67971 0.00081
C 6.21852 26.25033 0.00245
C 4.96989 25.60394 0.02728
C 4.92836 24.15053 -0.00039
C 6.13179 23.43534 0.0064
C 6.17461 22.04799 0.00211
C 4.95361 21.30223 -0.00449
C 4.88292 19.77701 -0.01979
C 6.09837 19.09923 0.02784
C 6.12977 17.68384 -0.01977
C 4.8928 17.06668 -0.00561
C 4.83392 15.65608 0.00208
C 6.03948 14.91464 0.01707
C 6.03378 13.54738 0.02769
C 4.82448 12.74999 -0.03291
C 4.83827 11.45615 -0.04999
C 3.72604 2.17698 0.04421
C 2.48171 2.82852 -0.00177
C 2.5013 4.29519 0.03278
C 3.70786 5.03193 0.01138
C 3.72636 30.48468 -0.0005
C 2.45638 29.79897 -0.00018
C 2.43016 28.39517 0.01073
C 3.71541 27.74538 0.01984
C 3.61742 26.31781 0.00535
C 2.35184 25.51558 -0.00198
C 2.43458 24.19352 -0.00012
C 3.65565 23.47107 -0.04306
C 3.66693 22.03558 -0.03672
C 2.49938 21.27873 0.01913
C 2.43397 19.90143 0.00267
C 6.07622 10.76495 0.04505
C 3.61537 19.15714 0.00787
C 2.37988 16.99042 0.01218
C 2.37795 15.5412 -0.01471
C 3.60231 14.86855 -0.02827
C 3.62847 13.49334 0.01078
C 2.42511 12.79311 -0.00112
C 2.43847 11.36082 0.03345
C 3.6257 10.68743 0.00748
C 3.64023 9.2686 0.00662
C 2.43468 8.532 -0.0154
C 2.4564 7.09355 -0.01299
C 3.7046 6.47423 -0.00407
C 3.54192 17.6981 0.02426
C 11.00168 19.27078 0.00054
C 6.1577 9.31747 0.03284
C 4.88828 7.1888 0.03189
C 8.54339 10.7504 -0.05697
C 8.63728 9.34826 0.01087
C 7.45464 8.59807 -0.01343
C 7.43939 7.206 0.00988
C 8.61464 6.44314 0.0276
C 8.6248 5.00419 0.01305
C 7.35009 4.32092 -0.00077
C 7.34181 2.91392 0.03368
C 8.61221 2.20395 -0.02929
C 8.62964 0.78351 -0.00966
C 7.35824 0.03862 -0.03337
C 9.72205 32.67947 0.01227
C 11.02034 31.97277 0.00873
C 11.03945 30.54479 -0.00049
C 9.75918 29.89827 0.00848
C 9.86729 28.47311 -0.01303
C 11.09217 27.81672 -0.01378
C 11.11008 26.31273 0.02635
C 9.86274 25.60695 0.0127
C 9.84481 24.18756 0.01396
C 11.07948 23.51268 0.01849
C 11.08686 22.09898 -0.01142
C 9.75663 21.39592 -0.00562
C 7.33392 11.40146 -0.00725
C 7.28484 12.8266 0.02322
C 8.57895 13.50052 -0.00094
C 8.58694 14.91409 -0.02566
C 6.17258 6.51999 0.00031
C 6.15994 5.09103 -0.003
C 4.8931 4.33766 0.01402
C 4.9518 2.91959 0.02379
C 6.18052 2.19782 0.00907
C 6.15793 0.76082 0.00643
C 4.91631 34.07253 -0.01509
C 7.33299 32.70999 0.03267
C 8.51084 32.0208 0.02374
C 8.5872 30.57695 0.00402
C 7.39133 29.77975 0.0073
C 4.90805 8.62958 -0.04307
C 7.40859 28.34609 0.0174
C 8.68365 26.25778 0.01226
C 7.39298 25.56822 -0.00279
C 7.44367 24.11212 0.01996
C 8.62001 23.44546 -0.03996
C 8.53549 22.0541 0.01465
C 7.32181 21.3288 -0.00074
C 7.32587 19.89424 -0.00518
C 8.58374 19.20236 0.0086
C 8.57969 17.74342 -0.00643
C 7.40064 17.02903 0.017
C 7.34555 15.60069 -0.03113
C 8.63955 27.67088 0.03828
C 3.70786 31.88102 0.01116
C 17.18636 33.97874 -0.00289
C 20.57449 30.77395 -0.02213
C 30.72567 14.80418 -0.0405
C 30.78296 13.36226 -0.01303
C 29.50036 12.74089 -0.01461
C 29.48262 11.29614 -0.02155
C 30.73391 10.59029 -0.00944
C 30.72044 9.26987 -0.03735
C 29.44738 8.48705 -0.00971
C 29.51539 7.03654 0.01518
C 30.80753 6.30214 0.01908
C 30.83603 4.88035 0.07705
C 29.60164 4.19457 0.0103
C 29.48985 2.78098 0.02108
C 30.70784 2.03834 0.00716
C 30.75256 0.66374 0.00307
C 29.49327 34.04689 0.00346
C 31.96259 32.64682 0.01713
C 33.26223 31.99804 -0.01694
C 33.24566 30.56952 0.01428
C 31.99656 29.90273 -0.02142
C 31.89142 28.4561 0.0544
C 33.12408 27.75338 0.00026
C 33.15742 26.30712 0.00682
C 31.94734 25.60914 -0.01779
C 29.47758 15.51317 0.01705
C 29.46155 17.0296 0.0101
C 30.69897 17.78986 -0.00669
C 30.67088 19.1966 0.03531
C 28.22204 10.59712 0.00194
C 28.19055 9.141 -0.00621
C 27.05533 8.47363 0.02611
C 27.05917 7.01921 0.02198
C 28.29927 6.2836 0.01094
C 28.33276 4.87069 0.00235
C 27.0787 4.25646 0.01495
C 27.07435 2.81394 0.01259
C 28.24892 2.07533 0.01799
C 28.23946 0.69231 0.01699
C 27.03105 34.0696 -0.00416
C 31.93977 24.18128 0.03794
C 29.45103 32.66079 0.01177
C 30.75815 30.57718 0.01324
C 29.55283 29.81908 0.0014
C 29.45633 28.39285 0.00924
C 30.72689 27.71742 0.02326
C 30.73127 26.33269 0.00261
C 29.4925 25.63937 0.03265
C 29.48602 24.16169 -0.02049
C 30.73524 23.46064 -0.01854
C 30.71074 22.02831 -0.01415
C 29.49893 21.31667 -0.03039
C 29.44814 19.90641 0.01836
C 30.7709 31.92864 0.04266
C 27.06345 11.35342 0.04185
C 33.1432 23.44845 0.01927
C 31.98541 21.3082 -0.02383
C 34.3725 24.14627 0.03076
C 1.23144 23.46188 0.00723
C 1.28036 22.00148 0.02712
C 0.05474 21.26186 -0.02213
C 34.38475 19.86714 0.01951
C 1.20456 19.16128 -0.01678
C 1.13835 17.66309 0.01223
C 34.33394 16.93642 0.00648
C 34.35491 15.55685 0.02114
C 1.20673 14.8252 -0.02957
C 1.21328 13.43409 0.00343
C 34.39571 12.6715 -0.02656
C 0.01389 11.29928 -0.02442
C 1.26673 10.60551 -0.00027
C 1.23422 9.16804 -0.00583
C 0.01 8.46095 -0.02302
C 0.06451 7.05475 -0.02849
C 1.26479 6.38073 0.02931
C 1.22418 4.99571 0.00628
C 0.05049 4.19063 -0.0345
C 0.07105 2.78211 -0.00931
C 1.29682 2.14691 -0.00939
C 1.30076 0.7427 -0.00468
C 34.35776 25.55758 -0.05239
C 1.17115 26.26795 -0.00598
C 1.21601 27.68991 -0.00439
C 34.38748 28.49114 -0.01037
C 31.96275 19.85185 -0.01429
C 33.11533 19.15543 -0.0136
C 33.06857 17.70937 0.00594
C 31.94232 17.0073 -0.02474
C 31.94528 15.55123 0.00369
C 33.15288 14.86452 0.00455
C 33.19548 13.44671 -0.00644
C 31.97608 12.73492 -0.01839
C 31.95287 11.26314 0.00137
C 33.20662 10.57336 0.00199
C 33.22679 9.17006 0.04381
C 33.18093 22.04046 0.01574
C 31.99771 8.49274 0.02806
C 33.29076 6.33083 -0.00069
C 33.25551 4.93489 0.04926
C 32.03124 4.17961 -0.03838
C 32.00224 2.80532 0.00349
C 33.23922 2.04687 -0.00323
C 33.20457 0.63599 -0.00841
C 31.98158 34.06748 0.0001
C 0.02618 32.70236 -0.02927
C 1.25864 31.98266 -0.01404
C 1.28458 30.4911 0.01027
C 34.38946 29.83248 0.01831
C 31.97279 7.07682 0.01504
C 20.73575 32.18615 0.00028
C 26.97686 12.76515 0.02316
C 28.25416 14.90854 0.00152
C 19.81192 33.93976 -0.04076
C 22.12215 32.74476 -0.00652
C 23.36357 31.99292 0.0058
C 23.31867 30.58624 -0.00865
C 21.95632 29.97331 0.00675
C 22.06626 28.51077 -0.00311
C 23.31001 27.77459 0.00742
C 23.30974 26.31447 -0.01594
C 22.13814 25.53871 0.0106
C 22.13021 24.18479 -0.01154
C 23.33768 23.44277 -0.01721
C 23.33815 22.06406 -0.02422
C 22.18191 21.30422 0.01277
C 22.102 19.89077 0.00096
C 23.38487 19.24592 -0.01527
C 23.40085 17.7556 0.01087
C 22.12508 17.11671 0.00199
C 22.33264 15.64046 0.01511
C 22.05749 11.52614 -0.00478
C 23.34478 10.86079 -0.01662
C 23.28317 9.32559 -0.01185
C 22.09373 8.55978 0.01126
C 22.02238 7.13301 0.01852
C 20.9161 0.70411 -0.00703
C 20.8823 2.15853 0.00654
C 19.67523 2.78622 -0.04422
C 19.62533 4.20683 -0.02957
C 19.37269 29.96016 0.03698
C 19.5966 28.48337 -0.00109
C 20.86273 27.76602 -0.00491
C 20.87982 26.33476 0.03338
C 19.75176 25.57108 -0.0258
C 19.71415 24.04761 -0.0331
C 20.91855 23.41453 -0.00316
C 20.89698 21.91057 0.02188
C 19.68942 21.20676 -0.01979
C 19.59744 19.80149 0.02691
C 20.83429 19.08159 -0.01581
C 23.28964 6.46386 -0.00381
C 20.914 17.7189 0.01452
C 19.71595 15.56356 -0.00111
C 21.06752 14.81729 -0.03557
C 20.9199 13.46051 0.03754
C 19.57672 12.81186 0.01739
C 19.61077 11.39431 0.00755
C 20.87539 10.69837 -0.0054
C 20.8227 9.31655 0.00667
C 19.64693 8.56993 0.00143
C 19.69209 7.11477 -0.017
C 20.86865 6.36954 0.00364
C 20.8471 4.90238 -0.00831
C 19.72008 16.93498 0.04892
C 28.28038 13.50268 0.01257
C 23.33871 5.02644 0.03046
C 22.06 2.88476 0.03374
C 25.82549 4.99543 -0.01199
C 24.54111 4.29655 -0.00229
C 24.60614 2.86187 -0.00938
C 25.79315 2.10961 -0.0264
C 25.81782 0.73417 -0.01154
C 24.52491 0.0116 0.00684
C 27.05722 32.61017 -0.01052
C 28.32979 31.91008 -0.01679
C 28.27754 30.5389 0.00367
C 27.05753 29.81562 0.04306
C 27.03451 28.33961 0.00996
C 28.26297 27.62806 0.00195
C 28.26123 26.23296 -0.00802
C 27.07639 25.51566 -0.00218
C 27.02253 24.13492 -0.01654
C 28.27355 23.42882 -0.00037
C 28.2207 22.00099 -0.0032
C 26.96996 21.30679 0.00622
C 26.96162 19.88027 -0.02815
C 28.17656 19.23988 -0.00942
C 28.25202 17.73458 0.00487
C 27.03478 16.95872 0.00826
C 27.02182 15.58759 -0.00294
C 25.75697 6.44187 -0.009
C 24.50348 7.12122 -0.00285
C 24.47749 8.55735 0.01423
C 25.79425 9.2419 0.02555
C 23.31141 2.23123 -0.02845
C 23.38112 0.78771 -0.03213
C 22.19349 0.1366 0.02239
C 24.64664 32.67728 0.01153
C 25.80869 31.9672 0.02734
C 25.79431 30.5634 -0.0055
C 24.57301 29.84764 0.01515
C 24.581 28.39583 -0.00225
C 25.81429 27.69055 0.00071
C 25.86004 26.22923 -0.01107
C 24.58973 25.6567 -0.01586
C 22.1147 4.28596 0.0296
C 24.58754 24.20954 -0.01971
C 25.81708 22.02173 0.00733
C 24.62581 21.32771 -0.00178
C 24.57233 19.93524 0.00768
C 25.79562 19.16554 -0.0276
C 25.85141 17.70025 0.03005
C 24.58436 17.04062 -0.04078
C 24.3895 15.66887 0.02117
C 25.44668 14.67675 0.02737
C 25.61176 13.31 -0.00498
C 24.68123 11.38784 0.00135
C 25.90729 10.58231 0.03102
C 25.78683 23.39879 -0.02118
C 2.47318 32.6242 -0.0213
