438
Graphene
C 0.00399 34.07193 0.01295
C 12.22051 21.33524 -0.00334
C 12.28416 19.8942 0.02339
C 13.40489 19.14743 0.01641
C 13.45859 17.80616 -0.00719
C 12.21147 16.98748 0.01364
C 12.22338 15.57327 -0.01062
C 13.57129 14.96476 -0.00033
C 13.53251 13.5413 0.03589
C 12.28771 12.92042 -0.02759
C 12.27168 11.46432 0.0402
C 13.43714 10.66101 0.00572
C 13.47008 9.25918 0.03592
C 12.28334 8.48048 0.00406
C 12.25233 7.06423 0.00943
C 13.5661 6.3334 0.02841
C 13.49516 5.00492 -0.01111
C 12.23135 4.40572 -0.01275
C 12.22861 2.91055 0.00985
C 13.40697 2.23628 -0.02245
C 13.52589 0.71897 -0.00428
C 12.23359 0.02304 0.03101
C 14.68309 32.67428 -0.01536
C 16.00201 31.97329 -0.02689
C 13.50913 22.04289 -0.01634
C 15.99511 30.58049 -0.01046
C 13.49128 23.49901 0.00057
C 12.27156 25.6939 0.01291
C 9.766 15.67558 -0.04848
C 10.9817 14.90918 -0.00892
C 10.9836 13.45774 -0.01362
C 9.77777 12.73833 -0.0008
C 9.75849 11.31545 0.0288
C 11.06019 10.74522 0.00393
C 11.08517 9.20884 0.00895
C 9.83116 8.62073 0.00685
C 9.81666 7.16172 0.02888
C 11.02671 6.43928 -0.00482
C 10.97044 5.05377 -0.01384
C 9.86561 4.29103 0.03693
C 9.8403 2.7518 0.01745
C 11.00585 2.18935 0.00488
C 11.03809 0.78803 -0.01004
C 9.79111 0.03311 -0.02896
C 12.15431 32.69118 -0.00131
C 13.50373 31.89266 -0.01118
C 13.50755 30.51617 -0.014
C 12.28378 29.82134 0.02147
C 12.29854 28.43392 0.00373
C 13.50081 27.76979 -0.00191
C 13.53957 26.3674 0.00438
C 12.33185 24.26324 0.00093
C 14.77418 29.90119 -0.00891
C 14.72076 28.43261 0.02819
C 15.93823 27.708 0.00165
C 18.4015 30.57329 -0.01957
C 17.1661 29.75855 -0.0108
C 17.21808 28.39975 -0.00368
C 18.43378 27.63937 -0.02696
C 18.45863 26.27304 -0.00114
C 17.1594 25.62439 0.00228
C 17.12949 24.14693 0.00798
C 18.37078 23.39057 0.00422
C 18.35411 22.00841 0.0351
C 17.09402 21.32364 -0.03113
C 17.14877 19.85062 0.02098
C 18.39527 19.18858 0.01848
C 18.40772 17.74416 -0.00619
C 17.14182 17.02034 -0.02162
C 17.12949 15.62051 0.00889
C 18.36724 14.90192 -0.00481
C 18.44954 13.4751 0.00979
C 17.24254 12.74271 0.01443
C 17.21452 11.34554 0.03505
C 18.52004 10.71856 -0.02815
C 18.51078 9.25119 -0.04147
C 17.2697 8.54008 -0.05302
C 17.18881 7.09307 0.00213
C 18.4317 31.96107 0.02058
C 17.1895 32.63937 0.01965
C 14.73142 34.01389 -0.03682
C 16.05019 0.71359 0.00052
C 15.9472 26.28074 -0.02971
C 14.7358 25.55272 0.02894
C 14.698 24.21883 -0.01789
C 15.89863 23.48336 0.00444
C 15.92874 22.06364 -0.00925
C 14.66161 21.30558 0.01877
C 14.69296 19.8252 0.01363
C 15.94874 19.16621 -0.02162
C 15.93502 17.77063 0.00415
C 14.70856 17.13949 -0.0014
C 14.76951 15.71268 0.02162
C 9.6769 17.13996 0.01572
C 15.91147 14.90334 0.0076
C 14.74346 12.70567 -0.01454
C 14.69473 11.37046 0.01945
C 16.01387 10.63797 0.01416
C 16.01121 9.21848 0.03542
C 14.70476 8.50955 0.02299
C 14.71761 7.15747 0.00244
C 15.93597 6.40616 -0.01717
C 15.90105 4.96908 0.05265
C 14.71855 4.27872 -0.01952
C 14.68559 2.8728 -0.02813
C 15.96923 2.10977 0.00374
C 15.97185 13.5005 0.01241
C 11.01414 17.7582 -0.00095
C 11.06249 19.17514 0.03007
C 9.8734 19.9075 0.00054
C 3.71073 0.65574 0.00828
C 2.49109 34.06727 -0.02375
C 4.89759 32.7459 0.00558
C 6.07783 31.93061 -0.0059
C 6.15818 30.47679 -0.01386
C 4.88731 29.89021 -0.02805
C 4.829 28.45269 0.00081
C 6.04165 27.77019 0.00245
C 6.04499 26.37783 0.02728
C 4.89299 25.60783 -0.00039
C 4.95896 24.1807 0.0064
C 6.17939 23.40711 0.00211
C 6.15338 22.01914 -0.00449
C 4.86471 21.28286 -0.01979
C 4.85235 19.89392 0.02784
C 6.05547 19.25969 -0.01977
C 6.13784 17.88933 -0.00561
C 4.85575 17.02255 0.00208
C 4.86115 15.62895 0.01707
C 6.03543 14.902 0.02769
C 6.09241 13.52317 -0.03291
C 4.83809 12.82139 -0.04999
C 4.82666 11.35362 0.04505
C 3.70136 2.1547 0.00088
C 2.45224 2.81295 0.04421
C 2.51102 4.2186 -0.00177
C 3.7577 5.00148 0.03278
C 3.72196 30.55087 -0.00018
C 2.45991 29.86586 0.01073
C 2.40908 28.43656 0.01984
C 3.63106 27.72178 0.00535
C 3.65526 26.332 -0.00198
C 2.40681 25.58092 -0.00012
C 2.47469 24.07172 -0.04306
C 3.75752 23.42923 -0.03672
C 3.65432 22.04363 0.01913
C 2.39091 21.39459 0.00267
C 2.40317 19.91634 0.00787
C 6.14592 10.78867 0.03284
C 3.64927 19.21544 0.02426
C 2.40579 17.02217 -0.01471
C 2.39543 15.66496 -0.02827
C 3.56603 14.99432 0.01078
C 3.60645 13.54217 -0.00112
C 2.34034 12.75482 0.03345
C 2.2949 11.3803 0.00748
C 3.62106 10.61709 0.00662
C 3.70788 9.23421 -0.0154
C 2.42679 8.46116 -0.01299
C 2.55826 7.07674 -0.00407
C 3.79032 6.40259 0.01138
C 3.612 17.72489 0.01218
C 18.45943 6.4198 -0.00066
C 6.19993 9.30422 -0.04307
C 4.965 7.19299 0.00031
C 8.57078 10.63216 0.01087
C 8.59331 9.25919 -0.01343
C 7.30787 8.55755 0.00988
C 7.37946 7.09767 0.0276
C 8.60842 6.44883 0.01305
C 8.595 4.96897 -0.00077
C 7.39969 4.37146 0.03368
C 7.31335 2.91439 -0.02929
C 8.56925 2.18392 -0.00966
C 8.61009 0.76912 -0.03337
C 7.35074 0.05204 0.01227
C 9.74035 32.668 0.00873
C 10.97311 32.00361 -0.00049
C 10.99311 30.6199 0.00848
C 9.8073 29.8186 -0.01303
C 9.83987 28.49122 -0.01378
C 11.04504 27.73796 0.02635
C 11.04135 26.30197 0.0127
C 9.808 25.62475 0.01396
C 9.76647 24.19079 0.01849
C 11.0528 23.55636 -0.01142
C 11.0403 22.01462 -0.00562
C 9.86294 21.32919 -0.00494
C 7.32867 11.45498 -0.05697
C 7.35512 12.92304 -0.00725
C 8.66191 13.54559 0.02322
C 8.62475 14.99735 -0.00094
C 6.17821 6.49666 -0.003
C 6.13008 5.01294 0.01402
C 4.9662 4.33996 0.02379
C 4.87523 2.86965 0.00907
C 6.08771 2.22077 0.00643
C 6.09389 0.79048 -0.01509
C 4.86053 0.03003 0.03267
C 7.22414 32.71298 0.02374
C 8.46307 31.98744 0.00402
C 8.55869 30.60467 0.0073
C 7.35032 29.84746 0.0174
C 4.98364 8.62186 0.03189
C 7.3581 28.41689 0.03828
C 8.53236 26.38412 -0.00279
C 7.38098 25.6583 0.01996
C 7.31993 24.25278 -0.03996
C 8.61866 23.48992 0.01465
C 8.60672 22.05757 -0.00074
C 7.37023 21.24873 -0.00518
C 7.41375 19.8852 0.0086
C 8.64877 19.22219 -0.00643
C 8.51622 17.83559 0.017
C 7.25566 17.09411 -0.03113
C 7.30624 15.71875 -0.02566
C 8.56911 27.80154 0.01226
C 18.43594 4.98338 -0.00289
C 17.15551 4.23335 0.00028
C 17.16977 2.88242 -0.02213
C 30.70814 14.89272 -0.0405
C 30.62829 13.45391 -0.01303
C 29.4847 12.74332 -0.01461
C 29.37528 11.27993 -0.02155
C 30.58555 10.61087 -0.00944
C 30.62367 9.11674 -0.03735
C 29.29061 8.5341 -0.00971
C 29.46669 7.12468 0.01518
C 30.68469 6.36411 0.01908
C 30.72039 4.95031 0.07705
C 29.42361 4.25685 0.0103
C 29.53721 2.86534 0.02108
C 30.80624 2.08403 0.00716
C 30.69868 0.70144 0.00307
C 29.55086 34.06966 0.00346
C 31.94671 32.69492 0.01713
C 33.17384 31.92232 -0.01694
C 33.2344 30.51734 0.01428
C 31.95555 29.78932 -0.02142
C 31.96128 28.42781 0.0544
C 33.17775 27.71067 0.00026
C 33.1648 26.33412 0.00682
C 31.83623 25.59325 -0.01779
C 29.48109 15.64478 0.01705
C 29.4001 17.02818 0.0101
C 30.6684 17.73395 -0.00669
C 30.70998 19.20007 0.03531
C 28.09574 10.76427 0.00194
C 27.98718 9.38276 -0.00621
C 26.82507 8.43608 0.02611
C 26.98757 7.15126 0.02198
C 28.27471 6.39391 0.01094
C 28.27071 4.99443 0.00235
C 27.00978 4.25936 0.01495
C 27.08753 2.88675 0.01259
C 28.2956 2.08274 0.01799
C 28.27783 0.70653 0.01699
C 27.06319 0.03558 -0.00416
C 31.89086 24.12504 0.03794
C 29.5378 32.57706 0.01177
C 30.6536 30.49875 0.01324
C 29.4112 29.82438 0.0014
C 29.44529 28.48577 0.00924
C 30.72587 27.77405 0.02326
C 30.67308 26.31701 0.00261
C 29.47218 25.58707 0.03265
C 29.4636 24.23809 -0.02049
C 30.69881 23.45468 -0.01854
C 30.73945 22.03163 -0.01415
C 29.46632 21.39171 -0.03039
C 29.48413 19.91989 0.01836
C 30.80046 31.93004 0.04266
C 27.06438 12.76416 0.04185
C 33.17442 23.43574 0.01927
C 31.93062 21.33545 -0.02383
C 34.39067 24.1612 0.03076
C 1.21447 23.45385 0.00723
C 1.19328 22.00875 0.02712
C 34.39839 21.25071 -0.02213
C 0.02467 19.77436 0.01951
C 1.22986 19.15505 -0.01678
C 1.04998 17.72562 0.01223
C 34.29053 17.06231 0.00648
C 34.33359 15.58554 0.02114
C 1.10476 14.85863 -0.02957
C 1.08522 13.47069 0.00343
C 34.30206 12.67105 -0.02656
C 34.30316 11.28494 -0.02442
C 1.11302 10.6152 -0.00027
C 1.21617 9.15829 -0.00583
C 34.3878 8.4799 -0.02302
C 34.34808 7.07647 -0.02849
C 1.18717 6.36666 0.02931
C 1.30802 4.99168 0.00628
C 34.43093 4.22756 -0.0345
C 34.42227 2.78065 -0.00931
C 1.24898 2.04948 -0.00939
C 1.27292 0.63683 -0.00468
C 34.37957 25.63318 -0.05239
C 1.18701 26.26364 -0.00598
C 1.23979 27.69882 -0.00439
C 0.05375 28.43872 -0.01037
C 31.93321 19.90113 -0.01429
C 33.23804 19.11549 -0.0136
C 33.04117 17.75074 0.00594
C 31.8962 17.02248 -0.02474
C 31.99704 15.58377 0.00369
C 33.17333 14.87009 0.00455
C 33.08689 13.37245 -0.00644
C 31.9048 12.7127 -0.01839
C 31.82841 11.372 0.00137
C 33.08727 10.58654 0.00199
C 33.10724 9.11494 0.04381
C 33.19704 22.06267 0.01574
C 31.85599 8.37393 0.02806
C 33.19987 6.31878 -0.00069
C 33.21168 4.87607 0.04926
C 31.91412 4.22038 -0.03838
C 31.97671 2.82084 0.00349
C 33.2583 2.14592 -0.00323
C 33.24491 0.76349 -0.00841
C 32.02025 0.03296 0.0001
C 34.40614 32.65546 -0.02927
C 1.18812 31.93832 -0.01404
C 1.17223 30.50956 0.01027
C 34.38687 29.75021 0.01831
C 31.9142 6.96174 0.01504
C 3.62065 32.00711 -0.0005
C 28.19354 13.42511 0.02316
C 26.96482 15.47146 0.00152
C 20.90343 6.44069 -0.04076
C 20.86303 4.96034 -0.00652
C 19.64226 4.30108 0.0058
C 19.53144 2.89171 -0.00865
C 20.75658 2.17571 0.00675
C 20.83554 0.66276 -0.00311
C 19.63965 0.02199 0.00742
C 22.16632 32.72483 -0.01594
C 23.31085 31.97072 0.0106
C 23.3014 30.47165 -0.01154
C 22.09066 29.83921 -0.01721
C 22.08003 28.35789 -0.02422
C 23.31694 27.70417 0.01277
C 23.27865 26.30887 0.00096
C 22.12915 25.56693 -0.01527
C 22.16556 24.09862 0.01087
C 23.40139 23.47894 0.00199
C 23.21104 22.02212 0.01511
C 22.03463 21.28225 -0.00478
C 22.0701 19.84274 -0.01662
C 23.33641 19.07292 -0.01185
C 23.35807 17.64338 0.01126
C 22.1413 17.02801 0.01852
C 19.75018 7.11746 -0.00703
C 19.84128 8.53959 0.00654
C 21.28258 9.40428 -0.04422
C 21.12493 10.78564 -0.02957
C 18.39714 2.12703 0.03698
C 18.41061 0.70201 -0.00109
C 17.24204 34.07583 -0.00491
C 19.67593 32.66002 0.03338
C 20.94076 32.01413 -0.0258
C 20.86638 30.57555 -0.0331
C 19.64729 29.85113 -0.00316
C 19.61373 28.505 0.02188
C 20.81987 27.70922 -0.01979
C 20.80826 26.27229 0.02691
C 19.63688 25.55814 -0.01581
C 22.04714 15.58713 -0.00381
C 19.66225 24.12545 0.01452
C 20.76497 22.07182 -0.00111
C 19.5312 21.29768 -0.03557
C 19.58175 19.87731 0.03754
C 20.81103 19.10017 0.01739
C 20.91701 17.76438 0.00755
C 19.61934 17.05117 -0.0054
C 19.5644 15.63302 0.00667
C 20.84317 14.96239 0.00143
C 20.89254 13.49557 -0.017
C 19.68594 12.67321 0.00364
C 19.78017 11.3828 -0.00831
C 20.94249 23.48413 0.04892
C 28.28819 14.94345 0.01257
C 23.11411 14.66171 0.03046
C 22.54088 8.50533 0.03374
C 25.69566 6.34025 -0.01199
C 25.76513 4.97353 -0.00229
C 24.56785 4.15118 -0.00938
C 24.61331 2.76796 -0.0264
C 25.93471 2.05234 -0.01154
C 25.80054 0.7104 0.00684
C 24.53234 0.0406 -0.01052
C 26.97834 32.71089 -0.01679
C 28.23021 31.99077 0.00367
C 28.24669 30.60568 0.04306
C 26.95785 29.84438 0.00996
C 27.06025 28.4145 0.00195
C 28.23059 27.76387 -0.00802
C 28.2788 26.28868 -0.00218
C 27.05305 25.61926 -0.01654
C 26.96875 24.16556 -0.00037
C 28.32276 23.45677 -0.0032
C 28.13734 22.01211 0.00622
C 26.96813 21.34464 -0.02815
C 27.06245 19.86116 -0.00942
C 28.28133 19.13086 0.00487
C 28.19477 17.64072 0.00826
C 26.93476 16.91498 -0.00294
C 24.52475 7.14688 -0.009
C 23.98617 8.40749 -0.00285
C 25.84255 14.69772 0.01423
C 24.55755 15.32516 0.02555
C 22.24891 7.12949 -0.02845
C 23.3508 6.245 -0.03213
C 23.24592 4.86824 0.02239
C 22.03731 4.24286 0.01153
C 22.04251 2.83187 0.02734
C 23.34168 2.16548 -0.0055
C 23.27568 0.72144 0.01515
C 22.09617 34.05749 -0.00225
C 24.54765 32.73711 0.00071
C 25.74015 32.00796 -0.01107
C 25.80879 30.54112 -0.01586
C 22.18609 13.10909 0.0296
C 24.56208 29.79114 -0.01971
C 25.79418 27.77736 0.00733
C 25.81314 26.27067 -0.00178
C 24.55622 25.5818 0.00768
C 24.57181 24.10745 -0.0276
C 25.73456 23.41846 0.03005
C 25.73541 22.02798 -0.04078
C 24.50635 21.27153 0.02117
C 24.55283 19.90445 0.02737
C 25.74911 19.14191 -0.00498
C 25.76359 17.7023 0.00135
C 24.57332 16.83063 0.03102
C 24.54823 28.38039 -0.02118
C 2.45833 32.67089 0.01116
