317
Graphene
C 34.31016 0.08089 0.01295
C 12.31152 12.82842 -0.00491
C 12.39383 11.37977 0.03338
C 13.54737 10.61899 -0.0258
C 13.45716 9.18169 -0.0331
C 12.22091 8.49453 -0.00316
C 12.20137 7.12042 0.02188
C 13.47918 6.46332 -0.01979
C 13.54674 5.02449 0.02691
C 12.35414 4.37224 -0.01581
C 12.28229 2.89704 0.01452
C 13.5082 2.13317 0.04892
C 13.47322 0.79247 -0.00111
C 12.24117 34.02214 -0.03557
C 14.77798 32.71134 0.03754
C 16.03067 31.91473 0.01739
C 13.58358 13.53278 -0.00109
C 13.5661 14.99488 0.03698
C 12.13324 15.61713 -0.02213
C 12.41935 17.0099 0.00028
C 11.09794 2.08652 -0.03113
C 11.02442 0.6542 0.02098
C 9.77663 34.00156 0.01848
C 12.3791 32.60518 -0.00619
C 13.61239 31.93955 -0.02162
C 13.581 30.50946 0.00889
C 12.31947 29.86642 -0.00481
C 15.9781 30.54938 0.00755
C 12.29913 28.46052 0.00979
C 13.45283 26.29294 0.03505
C 12.1411 25.65488 -0.02815
C 12.16298 24.20161 -0.04147
C 13.3583 23.3323 -0.05302
C 13.42624 21.92016 0.00213
C 13.38912 19.26356 -0.00066
C 13.52437 17.86989 -0.00289
C 13.49973 27.71187 0.01443
C 14.73185 29.7511 -0.0054
C 14.70534 28.34321 0.00667
C 16.02293 27.68619 0.00143
C 16.09549 4.98263 0.00096
C 14.80361 4.32398 -0.01527
C 14.77353 2.92019 0.01087
C 15.95648 2.26779 0.00199
C 15.87925 0.82542 0.01511
C 14.7217 0.05388 -0.00478
C 17.22245 32.71768 -0.01662
C 15.98725 6.3455 0.01277
C 18.48751 31.97776 -0.01185
C 17.17812 29.89181 0.01852
C 17.2273 28.44205 -0.00381
C 18.36847 27.63901 0.03046
C 18.4001 26.27213 0.0296
C 17.13374 25.57696 0.03374
C 17.16142 24.14856 -0.02845
C 18.37222 23.40457 -0.03213
C 18.42811 30.48469 0.01126
C 9.88107 2.79936 0.0351
C 14.63683 7.113 -0.02422
C 15.86942 9.18434 -0.01154
C 15.90724 26.29249 -0.017
C 14.70079 25.63718 0.00364
C 14.6745 24.17661 -0.00831
C 15.86277 23.47216 -0.02957
C 15.8416 22.02046 -0.04422
C 14.65347 21.34319 0.00654
C 14.62315 19.93358 -0.00703
C 14.71435 8.48957 -0.01721
C 15.90973 19.23689 -0.04076
C 14.83944 17.17893 0.0058
C 14.80561 15.78205 -0.00865
C 15.91609 14.91922 0.00675
C 16.0052 13.72856 -0.00311
C 14.86914 12.86134 0.00742
C 14.84266 11.36812 -0.01594
C 15.97851 10.49288 0.0106
C 16.13427 17.85181 -0.00652
C 9.85517 4.28798 0.00422
C 11.13389 5.04679 0.00798
C 11.02261 6.46766 0.00228
C 2.35606 0.07188 0.01364
C 4.92049 32.67308 -0.01062
C 6.17162 31.93647 -0.00033
C 6.20822 30.50736 0.03589
C 4.95919 29.82221 -0.02759
C 4.95865 28.33841 0.0402
C 6.16313 27.60425 0.00572
C 3.62303 0.7271 -0.00719
C 6.02429 13.35408 0.03592
C 4.82065 11.38196 0.00943
C 6.0828 10.71473 0.02841
C 6.09752 9.20497 -0.01111
C 4.91651 8.50539 -0.01275
C 4.92703 7.03768 0.00985
C 6.13428 6.35332 -0.02245
C 6.1145 4.95303 -0.00428
C 4.701 12.82198 0.00406
C 4.87375 4.25511 0.03101
C 3.6099 2.12033 0.01641
C 2.34756 4.26178 -0.00334
C 3.69567 30.63862 0.03693
C 2.45868 29.89243 0.01745
C 2.50146 28.47646 0.00488
C 3.65192 27.64385 -0.01004
C 3.50402 26.22389 -0.02896
C 2.34219 25.55974 -0.00131
C 3.32255 14.844 -0.01118
C 2.39692 2.83694 0.02339
C 3.43265 13.41492 -0.014
C 2.33403 11.28942 0.00373
C 3.61118 10.61627 -0.00191
C 3.63844 9.13746 0.00438
C 2.32363 8.48286 0.01291
C 2.39432 7.08086 0.00093
C 3.57188 6.37747 0.00057
C 3.59652 5.03111 -0.01634
C 2.18255 12.66934 0.02147
C 18.45342 22.00586 0.02239
C 4.78541 2.83686 -0.01536
C 6.07611 0.75695 -0.01046
C 7.33442 34.07269 0.02299
C 9.87094 32.55586 0.00244
C 11.08387 31.91115 -0.01717
C 11.07115 30.54271 0.05265
C 9.82761 29.89617 -0.01952
C 9.83606 28.56014 -0.02813
C 11.07209 27.87061 0.00374
C 8.52743 0.69101 0.03542
C 11.07501 26.49496 0.00052
C 11.06889 13.46522 0.01965
C 9.81394 12.78299 0.02058
C 9.85667 11.27816 -0.01957
C 11.13211 10.55163 -0.0108
C 11.05827 9.22147 -0.00368
C 9.79999 8.5033 -0.02696
C 9.77476 7.08339 -0.00114
C 11.08167 14.82955 -0.03682
C 6.09173 2.12085 -0.02689
C 8.59542 2.13877 0.01416
C 7.29066 4.23859 -0.01454
C 4.83484 34.06046 -0.00891
C 7.39803 32.66869 0.02819
C 8.60041 31.87351 0.00165
C 8.5642 30.47034 -0.02971
C 7.39423 29.79228 0.02894
C 7.3865 28.1972 -0.01789
C 8.70798 27.67063 0.00444
C 7.37106 2.78519 0.01945
C 8.58784 13.45612 -0.00925
C 7.32893 11.34776 0.01363
C 8.65034 10.51982 -0.02162
C 8.57185 9.16012 0.00415
C 7.32174 8.5327 -0.0014
C 7.34038 7.13329 0.02162
C 8.59558 6.36269 0.0076
C 8.58126 4.97009 0.01241
C 7.27882 12.94799 0.01877
C 3.6386 31.97908 -0.01384
C 17.18672 21.29662 0.01153
C 18.13831 18.88935 -0.0055
C 33.17087 30.56962 0.03794
C 31.8969 29.87305 0.01927
C 31.88399 28.46549 0.01574
C 33.17701 27.80031 -0.02383
C 33.18205 26.36016 -0.01429
C 31.93195 25.6024 -0.0136
C 31.93463 24.20578 0.00594
C 33.19557 23.52377 -0.02474
C 33.23528 22.05966 0.00369
C 31.9756 21.39053 0.00455
C 31.97784 19.92675 -0.00644
C 33.25469 19.2013 -0.01839
C 33.34607 17.69281 0.00137
C 32.51458 16.52558 0.00199
C 33.18211 15.4531 0.04381
C 33.18645 31.94928 -0.01779
C 31.95414 32.67704 0.00682
C 29.44467 0.02473 0.00026
C 30.69429 0.74124 0.0544
C 29.47897 29.82842 -0.02155
C 29.46619 28.40437 -0.00944
C 30.68169 27.81556 -0.03735
C 30.69328 26.29336 -0.00971
C 29.45772 25.61157 0.01518
C 29.42288 24.17748 0.01908
C 30.72456 23.48444 0.07705
C 33.22808 13.9714 0.02806
C 30.74542 22.06256 0.0103
C 29.66424 19.97991 0.00716
C 30.64747 19.34978 0.00307
C 30.63198 6.35424 0.00346
C 30.29853 5.01186 0.01713
C 29.29697 4.10393 -0.01694
C 29.36046 2.57616 0.01428
C 30.65976 2.12697 -0.02142
C 29.49795 21.24888 0.02108
C 33.19149 10.45583 0.01504
C 33.08712 9.25875 -0.00069
C 31.77482 6.94515 0.04926
C 0.31534 17.27384 0.00648
C 0.37286 15.77953 0.02114
C 1.45241 14.89892 -0.02957
C 1.13413 13.53534 0.00343
C 34.19551 13.01956 -0.02656
C 34.22835 11.46031 -0.02442
C 1.05796 10.58735 -0.00027
C 1.34792 18.29867 0.01223
C 1.08374 9.17648 -0.00583
C 34.32936 6.98995 -0.02849
C 1.14988 6.27511 0.02931
C 1.09065 4.9193 0.00628
C 34.25056 4.27623 -0.0345
C 34.30996 2.89251 -0.00931
C 1.14994 2.21665 -0.00939
C 1.14323 0.74339 -0.00468
C 34.27404 8.47549 -0.02302
C 30.6546 30.61251 -0.01461
C 34.41151 19.97318 -0.01678
C 1.21224 23.51222 -0.02213
C 33.06072 6.43526 -0.03838
C 32.96945 4.94166 0.00349
C 31.6483 4.29079 -0.00323
C 31.79624 2.92561 -0.00841
C 33.06189 2.24094 0.0001
C 33.0591 0.83565 -0.02927
C 31.89629 0.07875 -0.01404
C 34.42995 21.42717 0.01951
C 34.39178 32.72281 0.01027
C 1.20833 30.61599 -0.01037
C 34.39528 29.86282 -0.00439
C 34.41314 28.47977 -0.00598
C 1.26058 27.78079 -0.05239
C 1.24563 26.26999 0.03076
C 0.03169 25.64282 0.00723
C 0.05124 24.20288 0.02712
C 1.18393 32.00868 0.01831
C 30.69669 32.00622 -0.01303
C 29.44643 32.67913 -0.0405
C 26.98425 34.02924 0.01705
C 19.51631 21.01993 -0.00285
C 19.22672 19.59747 -0.009
C 19.7955 4.41138 -0.01199
C 19.61733 2.91847 -0.00229
C 20.89557 2.18335 -0.00938
C 20.77649 0.70287 -0.0264
C 19.617 0.05996 -0.01154
C 20.78297 21.79019 0.01423
C 22.05899 32.72184 0.00684
C 23.35759 30.56934 -0.01679
C 22.11919 29.73416 0.00367
C 22.1286 28.371 0.04306
C 23.34616 27.59515 0.00996
C 23.38843 26.12859 0.00195
C 22.08549 25.46289 -0.00802
C 22.1156 23.99756 -0.00218
C 23.30378 31.96554 -0.01052
C 23.28273 23.20915 -0.01654
C 20.8333 23.18975 0.02555
C 19.61388 25.52761 0.00135
C 17.59652 17.75451 0.01515
C 17.09842 7.07033 -0.00225
C 18.23756 6.44429 0.00071
C 18.69466 5.22803 -0.01107
C 17.36552 4.37795 -0.01586
C 17.24177 2.92939 -0.01971
C 18.42643 2.20242 -0.02118
C 19.63994 24.08965 0.03102
C 18.34635 0.79157 0.00733
C 19.7045 32.68641 0.00768
C 20.90578 31.96211 -0.0276
C 20.92244 30.47539 0.03005
C 19.71069 29.77445 -0.04078
C 19.71856 28.32094 0.02117
C 20.92176 27.54554 0.02737
C 20.8617 26.12978 -0.00498
C 17.10879 0.06821 -0.00178
C 17.02263 19.93679 0.02734
C 23.27095 21.69021 -0.00037
C 21.20875 4.36068 0.00622
C 26.97478 32.61463 0.01177
C 28.20697 31.96052 0.04266
C 28.13962 30.54844 0.01324
C 26.98187 29.80252 0.0014
C 27.00716 28.37068 0.00924
C 28.20539 27.6883 0.02326
C 28.17801 26.30483 0.00261
C 24.45975 0.15108 -0.00416
C 26.93131 25.46017 0.03265
C 28.26778 23.48661 -0.01854
C 28.26785 21.93878 -0.01415
C 27.11965 21.15022 -0.03039
C 27.636 4.325 0.01836
C 27.07513 3.04176 0.03531
C 28.19803 2.03571 -0.00669
C 28.17632 0.69015 0.0101
C 26.95601 24.08991 -0.02049
C 21.98063 20.99114 -0.0032
C 25.72032 0.84639 0.01699
C 24.51537 3.01793 0.01259
C 21.94036 3.14591 -0.02815
C 23.2537 2.48533 -0.00942
C 23.30247 0.94828 0.00487
C 22.08939 0.09485 0.00826
C 24.53347 32.7644 -0.00294
C 25.67076 31.93908 0.00152
C 25.67877 30.51273 0.01257
C 25.87071 2.37956 0.01799
C 24.51005 29.78272 0.02316
C 25.75499 27.65597 0.00194
C 25.73252 26.16969 -0.00621
C 24.56206 25.40164 0.02611
C 24.48466 23.9229 0.02198
C 25.78616 23.26684 0.01094
C 25.87211 21.76429 0.00235
C 24.53438 21.16691 0.01495
C 24.54234 28.31241 0.04185
C 2.43804 32.70593 -0.00482
