389
Graphene
C 34.41091 0.01494 0.01295
C 9.70829 2.97253 -0.02162
C 11.01429 2.21549 0.00415
C 11.02191 0.83501 -0.0014
C 9.80125 0.1477 0.02162
C 12.14515 32.62272 0.0076
C 13.42243 31.96332 0.01241
C 13.50351 30.58399 -0.01454
C 12.25592 29.80339 0.01945
C 12.3516 28.42206 0.01416
C 9.75108 4.34208 0.01363
C 13.44164 27.6237 0.03542
C 12.31726 25.52188 0.00244
C 12.23889 24.02786 -0.01717
C 13.45204 23.35833 0.05265
C 13.45884 21.95577 -0.01952
C 12.21749 21.30735 -0.02813
C 12.25084 19.9316 0.00374
C 13.54894 19.16446 0.00052
C 13.47023 17.77193 -0.03682
C 12.295 17.03789 0.01965
C 13.4996 26.25453 0.02299
C 12.33316 15.67833 0.02058
C 11.03462 4.97557 0.01877
C 9.87807 7.15802 0.00444
C 9.78661 28.46766 0.00572
C 11.04273 27.75448 0.03592
C 11.14001 26.31677 0.00406
C 9.86169 25.57981 0.00943
C 9.76559 24.0856 0.02841
C 10.98695 23.42159 -0.01111
C 11.06271 22.01513 -0.01275
C 9.83225 21.30567 0.00985
C 9.84116 19.86762 -0.02245
C 11.0772 6.43808 -0.00925
C 11.05798 19.14403 -0.00428
C 9.81853 17.1457 -0.01536
C 9.75616 15.5769 -0.02689
C 11.00477 14.89873 -0.01046
C 11.0864 13.51079 -0.00891
C 9.87132 12.74133 0.02819
C 9.83452 11.40602 0.00165
C 11.1017 10.66714 -0.02971
C 11.00762 9.28258 0.02894
C 9.81498 8.54227 -0.01789
C 11.07526 17.71321 0.03101
C 13.62533 14.94858 -0.01957
C 13.67546 13.46712 -0.0108
C 12.39496 12.80513 -0.00368
C 16.01359 19.07424 -0.00109
C 16.05436 17.63911 -0.00491
C 14.79001 16.96014 0.03338
C 14.84095 15.61209 -0.0258
C 16.12411 14.84152 -0.0331
C 16.16362 13.41663 -0.00316
C 14.86893 12.84324 0.02188
C 14.81915 11.35081 -0.01979
C 16.0568 10.68352 0.02691
C 14.77134 19.79587 0.03698
C 16.01446 9.3169 -0.01581
C 14.7834 7.16934 0.04892
C 16.03506 6.38239 -0.00111
C 15.95623 5.03414 -0.03557
C 14.68772 4.37517 0.03754
C 14.64321 2.93327 0.01739
C 15.91781 2.11584 0.00755
C 15.95263 0.69754 -0.0054
C 14.69672 34.0643 0.00667
C 17.1439 32.56504 0.00143
C 14.84996 8.53781 0.01452
C 14.71627 21.2888 -0.02213
C 15.96835 21.94602 0.00028
C 15.94713 23.32294 -0.00289
C 12.33438 11.39086 -0.02696
C 13.62172 10.70479 -0.00114
C 13.51042 9.24321 0.00228
C 12.25781 8.62187 0.00798
C 12.32419 7.21856 0.00422
C 13.58605 6.48266 0.0351
C 13.50995 5.02092 -0.03113
C 12.25118 4.23507 0.02098
C 12.25566 2.83969 0.01848
C 13.4689 2.14717 -0.00619
C 13.48994 0.71116 -0.02162
C 12.20797 0.04452 0.00889
C 14.7552 32.65933 -0.00481
C 15.89501 31.88673 0.00979
C 15.89931 30.48416 0.01443
C 14.75763 29.75822 0.03505
C 14.66876 28.39509 -0.02815
C 15.92241 27.67566 -0.04147
C 15.94467 26.20347 -0.05302
C 14.73948 25.49071 0.00213
C 14.70849 24.05397 -0.00066
C 9.80665 29.8383 0.0402
C 11.0369 30.50233 -0.02759
C 10.93349 31.97619 0.03589
C 9.80208 32.72147 -0.00033
C 2.34166 4.4214 0.0086
C 2.37649 2.93798 -0.00643
C 3.62561 2.26817 0.017
C 3.65737 0.80313 -0.03113
C 2.50821 0.0705 -0.02566
C 4.91503 32.74021 -0.00094
C 6.12276 32.01173 0.02322
C 6.15111 30.5647 -0.00725
C 4.86955 29.98987 -0.05697
C 3.59361 5.04987 -0.00518
C 4.88611 28.52022 0.01087
C 6.13737 26.37398 0.00988
C 4.95358 25.58917 0.0276
C 4.87051 24.16632 0.01305
C 6.26002 23.55632 -0.00077
C 6.28015 22.13879 0.03368
C 4.99911 21.35172 -0.02929
C 4.90266 19.83005 -0.00966
C 6.1198 19.10429 -0.03337
C 6.12739 17.75057 0.01227
C 6.07152 27.82944 -0.01343
C 3.61005 6.43662 -0.00074
C 2.38106 7.10015 0.01465
C 2.44597 8.49276 -0.03996
C 3.65565 30.64871 -0.04999
C 2.48196 29.86477 0.04505
C 2.42715 28.43988 0.03284
C 3.62193 27.80713 -0.04307
C 3.73194 26.40821 0.03189
C 2.44573 25.57268 0.00031
C 2.4702 24.17575 -0.003
C 3.61632 23.40473 0.01402
C 3.70647 22.00241 0.02379
C 2.45093 21.29326 0.00907
C 2.39734 19.85321 0.00643
C 3.68982 19.17964 -0.01509
C 3.61361 17.74086 0.03267
C 2.41276 17.09907 0.02374
C 2.41355 15.66133 0.00402
C 3.67402 14.82002 0.0073
C 3.57363 13.39978 0.0174
C 2.28814 12.84045 0.03828
C 2.24979 11.40497 0.01226
C 3.52705 10.72822 -0.00279
C 3.6458 9.26417 0.01996
C 4.8349 16.99917 0.00873
C 18.36772 31.88481 -0.017
C 4.871 15.63189 -0.00049
C 6.0348 13.49469 -0.01303
C 7.29666 19.88378 0.00488
C 8.56425 19.28916 -0.01004
C 8.61872 17.80939 -0.02896
C 7.37831 17.06598 -0.00131
C 7.30496 15.67144 -0.01118
C 8.48802 14.83787 -0.014
C 8.58563 13.36771 0.02147
C 7.32021 12.74902 0.00373
C 7.28406 11.38508 -0.00191
C 7.41004 21.29832 0.01745
C 8.62788 10.66389 0.00438
C 7.28518 8.57222 0.00093
C 7.34416 7.18392 0.00057
C 8.59063 6.53756 -0.01634
C 8.54167 5.0951 -0.00334
C 7.323 4.40104 0.02339
C 7.33011 2.93555 0.01641
C 8.51997 2.28313 -0.00719
C 8.59942 0.81148 0.01364
C 7.32226 0.09122 -0.01062
C 8.61579 9.2365 0.01291
C 8.59667 21.96423 0.03693
C 8.55505 23.36113 -0.01384
C 7.45185 24.21695 -0.00482
C 4.81742 12.77335 -0.01378
C 4.68646 11.37426 0.02635
C 6.04423 10.68137 0.0127
C 6.02387 9.28641 0.01396
C 4.81403 8.56971 0.01849
C 4.86063 7.18681 -0.01142
C 6.11617 6.4838 -0.00562
C 6.10581 5.10123 -0.00494
C 4.80937 4.37529 0.00054
C 4.84701 2.98939 0.03007
C 6.05043 2.29858 -0.00095
C 6.12646 0.76459 0.01572
C 4.91342 0.08172 -0.04848
C 7.28215 32.7313 -0.00892
C 8.5728 32.07122 -0.01362
C 8.67399 30.53252 -0.0008
C 7.4409 29.92087 0.0288
C 7.35606 28.48008 0.00393
C 8.57087 27.72299 0.00895
C 8.64205 26.31849 0.00685
C 7.37619 25.61802 0.02888
C 6.12368 14.98364 0.00848
C 3.62796 32.02958 -0.03291
C 18.3736 30.46474 0.00364
C 17.15995 28.36703 -0.02957
C 29.44186 25.52675 0.07705
C 29.47491 24.11766 0.0103
C 30.70176 23.45879 0.02108
C 30.73176 22.10426 0.00716
C 29.56529 21.49033 0.00307
C 29.37659 7.01648 0.00346
C 30.62295 6.39712 0.01713
C 30.71465 5.00543 -0.01694
C 29.53684 4.27957 0.01428
C 30.634 26.27326 0.01908
C 29.46583 2.91272 -0.02142
C 30.67323 0.75854 0.00026
C 29.5304 0.02974 0.00682
C 31.97615 32.68876 -0.01779
C 33.12927 31.97578 0.03794
C 33.17408 30.5251 0.01927
C 32.0001 29.76579 0.01574
C 31.99112 28.36301 -0.02383
C 33.17759 27.69173 -0.01429
C 33.14379 26.40146 -0.0136
C 30.69697 2.18492 0.0544
C 31.92293 25.58595 0.00594
C 30.68981 27.70097 0.01518
C 29.47606 29.78486 -0.03735
C 28.29364 31.91685 0.01324
C 28.19425 30.49768 0.0014
C 26.9935 29.85131 0.00924
C 27.01194 28.36247 0.02326
C 28.2472 27.69693 0.00261
C 28.20981 26.21236 0.03265
C 26.95591 25.57494 -0.02049
C 27.02635 24.08368 -0.01854
C 28.27418 23.34981 -0.01415
C 29.45418 28.34921 -0.00971
C 28.41336 22.04254 -0.03039
C 28.24714 4.98488 0.03531
C 27.01875 4.15037 -0.00669
C 27.01116 2.78158 0.0101
C 28.28659 2.14208 0.01705
C 28.23507 0.73498 -0.0405
C 27.04991 34.06117 -0.01303
C 29.59796 32.64561 -0.01461
C 30.80808 31.88256 -0.02155
C 30.80095 30.46615 -0.00944
C 28.12623 6.3029 0.01836
C 31.989 24.16096 -0.02474
C 33.28686 23.56049 0.00369
C 33.26496 22.10037 0.00455
C 0.1041 21.32367 -0.02213
C 0.01759 19.93412 0.01951
C 1.18795 19.17904 -0.01678
C 1.21664 17.77866 0.01223
C 34.35741 17.08903 0.00648
C 34.31523 15.63158 0.02114
C 1.07477 14.98712 -0.02957
C 1.02974 13.50058 0.00343
C 34.38937 12.67347 -0.02656
C 1.23046 22.11906 0.02712
C 34.34872 11.36029 -0.02442
C 1.20586 9.23473 -0.00583
C 34.35049 8.59806 -0.02302
C 34.3581 7.15404 -0.02849
C 1.10508 6.45821 0.02931
C 1.1186 5.02875 0.00628
C 34.34136 4.38373 -0.0345
C 34.3256 2.94592 -0.00931
C 1.13531 2.15463 -0.00939
C 1.28038 0.75284 -0.00468
C 1.09408 10.63868 -0.00027
C 1.24874 23.46636 0.00723
C 0.08293 24.27265 0.03076
C 34.39187 25.63118 -0.05239
C 31.98348 21.35078 -0.00644
C 31.92304 20.01315 -0.01839
C 33.09467 19.26807 0.00137
C 33.28415 17.93749 0.00199
C 33.14437 9.23829 0.04381
C 31.95213 8.5873 0.02806
C 31.80743 7.16748 0.01504
C 33.07756 6.47697 -0.00069
C 33.11529 5.08987 0.04926
C 31.93002 4.30962 -0.03838
C 31.92916 2.8948 0.00349
C 33.13115 2.11653 -0.00323
C 33.14375 0.718 -0.00841
C 31.9083 34.07547 0.0001
C 34.4045 32.72075 -0.02927
C 1.21388 31.97456 -0.01404
C 1.1813 30.52218 0.01027
C 34.4265 29.83931 0.01831
C 34.40842 28.40551 -0.01037
C 1.17558 27.76354 -0.00439
C 1.26568 26.37283 -0.00598
C 27.03133 32.68172 0.04266
C 24.58697 0.00737 0.01177
C 25.80005 0.68395 -0.00416
C 25.77286 2.07373 0.01699
C 18.38109 0.69033 0.01852
C 17.12899 34.04835 -0.00381
C 19.62531 32.70642 0.03046
C 20.88998 31.93146 0.0296
C 20.80574 30.5341 0.03374
C 19.55797 29.81427 -0.02845
C 19.63645 28.33577 -0.03213
C 20.85836 27.61062 0.02239
C 20.86097 26.2319 0.01153
C 18.31673 2.17429 0.01126
C 19.66918 25.50608 0.02734
C 20.84255 23.36778 0.01515
C 20.77308 21.91851 -0.00225
C 19.61859 21.19348 0.00071
C 19.64907 19.82662 -0.01107
C 20.77595 18.98807 -0.01586
C 19.68045 17.13376 -0.01971
C 19.87154 15.71179 -0.02118
C 19.74335 12.6117 0.00733
C 19.68175 11.18221 -0.00178
C 19.61543 24.10256 -0.0055
C 17.09203 2.88728 -0.01185
C 17.20186 4.33883 -0.01662
C 18.44402 4.94695 -0.00478
C 18.40238 27.66125 -0.04422
C 18.40389 26.2142 0.00654
C 17.26654 25.51717 -0.00703
C 17.1754 24.0341 -0.04076
C 18.35275 23.32937 -0.00652
C 18.3765 21.97939 0.0058
C 17.19497 21.2532 -0.00865
C 17.17207 19.87235 0.00675
C 18.35644 19.09252 -0.00311
C 18.44248 17.71823 0.00742
C 17.24731 16.98244 -0.01594
C 17.34975 15.57435 0.0106
C 18.71191 14.87271 -0.01154
C 18.65523 13.45827 -0.01721
C 17.38852 12.74821 -0.02422
C 17.26075 11.35816 0.01277
C 18.50692 10.55851 0.00096
C 18.40007 9.16476 -0.01527
C 17.12437 8.4715 0.01087
C 17.2538 7.07374 0.00199
C 18.46484 6.40929 0.01511
C 20.77068 9.29645 0.00768
C 17.13083 29.7575 -0.00831
C 19.59325 8.50079 -0.0276
C 20.83852 6.36031 -0.04078
C 23.25985 2.15737 -0.0032
C 23.29355 0.73843 0.00622
C 22.09264 0.00515 -0.02815
C 24.55089 32.63644 -0.00942
C 25.83572 31.99451 0.00487
C 25.69574 30.52138 0.00826
C 24.5321 29.73618 -0.00294
C 24.57552 28.3268 0.00152
C 25.8235 27.6372 0.01257
C 22.10078 2.90873 -0.00037
C 25.81684 26.21548 0.02316
C 24.5023 24.06983 0.00194
C 25.76759 23.37325 -0.00621
C 25.69696 22.02384 0.02611
C 24.5267 21.19003 0.02198
C 24.61939 6.95582 0.01094
C 25.81615 6.22734 0.00235
C 25.82068 4.91191 0.01495
C 24.52384 4.20379 0.01259
C 24.5587 2.83743 0.01799
C 24.55852 25.48293 0.04185
C 22.12943 4.26627 -0.01654
C 23.3248 4.98638 -0.00218
C 23.32721 6.46355 -0.00802
C 20.93019 4.91398 0.02117
C 19.68235 4.24762 0.02737
C 19.59311 2.80542 -0.00498
C 20.86669 2.12742 0.00135
C 20.83174 0.72291 0.03102
C 19.63105 0.06393 0.02555
C 22.13382 32.6025 0.01423
C 23.40374 31.93446 -0.00285
C 23.23744 30.54072 -0.009
C 22.00401 29.87233 -0.01199
C 22.07604 28.39764 -0.00229
C 23.32802 27.60718 -0.00938
C 23.38218 26.18007 -0.0264
C 22.10864 25.42079 -0.01154
C 22.14076 24.02887 0.00684
C 23.30474 23.30977 -0.01052
C 23.30138 21.85556 -0.01679
C 22.06814 21.11235 0.00367
C 21.90093 19.78081 0.04306
C 22.04406 8.64135 0.00996
C 22.0115 7.19697 0.00195
C 19.64715 7.06883 0.03005
C 2.43488 32.72793 0.02769
