429
Graphene
C 0.0316 34.01779 0.01295
C 12.29167 2.91698 0.03589
C 13.51896 2.15909 -0.02759
C 13.51023 0.71383 0.0402
C 12.23783 0.01273 0.00572
C 14.71586 32.61162 0.03592
C 15.9493 31.92077 0.00406
C 15.98533 30.50854 0.00943
C 14.77345 29.85518 0.02841
C 14.75675 28.41385 -0.01111
C 16.00407 27.70091 -0.01275
C 12.27374 4.32622 -0.00033
C 15.98315 26.23612 0.00985
C 14.76627 24.20802 -0.00428
C 15.97976 23.4727 0.03101
C 15.96231 22.00025 -0.01536
C 14.75071 21.22467 -0.02689
C 14.77762 19.84148 -0.01046
C 15.99386 19.10348 -0.00891
C 15.92252 17.69367 0.02819
C 14.6998 16.93995 0.00165
C 14.77609 15.55933 -0.02971
C 16.00574 14.89335 0.02894
C 14.74938 25.54555 -0.02245
C 13.52661 5.02961 -0.01062
C 13.4932 6.43327 0.01364
C 12.25258 7.18824 -0.00719
C 13.52393 31.91429 0.00685
C 13.52822 30.47156 0.02888
C 12.26171 29.89839 -0.00482
C 12.21893 28.47268 -0.01384
C 13.49144 27.76358 0.03693
C 13.56078 26.28843 0.01745
C 12.31828 25.59563 0.00488
C 12.37722 24.1562 -0.01004
C 13.60545 23.43526 -0.02896
C 13.54921 22.00072 -0.00131
C 12.28396 21.30495 -0.01118
C 12.16768 19.9386 -0.014
C 13.44004 19.12132 0.02147
C 13.42358 17.64004 0.00373
C 12.13368 17.0203 -0.00191
C 12.27848 15.61749 0.00438
C 13.46693 14.94155 0.01291
C 13.54544 13.50766 0.00093
C 12.28432 12.83691 0.00057
C 12.24828 11.43543 -0.01634
C 13.47697 10.6729 -0.00334
C 13.4242 9.28852 0.02339
C 12.18342 8.64401 0.01641
C 16.07636 13.49102 -0.01789
C 14.80067 12.81251 0.00444
C 14.74581 11.34276 -0.00925
C 15.98927 10.68099 0.01877
C 18.42259 14.89877 0.00228
C 18.42071 13.42271 0.00798
C 17.21808 12.75574 0.00422
C 17.19005 11.30769 0.0351
C 18.35606 10.59242 -0.03113
C 18.34285 9.19985 0.02098
C 17.13224 8.46938 0.01848
C 17.19896 7.05334 -0.00619
C 18.42496 6.33337 -0.02162
C 18.42882 4.91115 0.00889
C 17.13599 4.26302 -0.00481
C 17.14036 2.81309 0.00979
C 18.38813 2.13822 0.01443
C 18.45417 0.68787 0.03505
C 17.22075 34.05772 -0.02815
C 19.66158 32.69272 -0.04147
C 20.87008 32.03969 -0.05302
C 20.8759 30.59488 0.00213
C 19.66173 29.83321 -0.00066
C 19.64274 28.43295 -0.00289
C 20.87919 27.65648 0.00028
C 20.85581 26.24497 -0.02213
C 19.68478 25.58358 0.03698
C 17.22366 15.60625 -0.00114
C 12.32871 32.66725 0.00895
C 17.13163 16.9762 -0.02696
C 18.32848 19.17217 -0.0108
C 15.95005 9.27727 0.01363
C 14.68808 8.59007 -0.02162
C 14.67049 7.21111 0.00415
C 15.95577 6.39838 -0.0014
C 15.95169 4.98473 0.02162
C 14.7169 4.28642 0.0076
C 14.70289 2.92666 0.01241
C 15.92025 2.16788 -0.01454
C 15.95292 0.77002 0.01945
C 14.72338 34.07856 0.01416
C 17.15167 32.64589 0.03542
C 18.46575 31.99152 0.02299
C 18.43617 30.54587 0.00244
C 17.18221 29.81998 -0.01717
C 17.21792 28.35461 0.05265
C 18.41918 27.72945 -0.01952
C 18.48856 26.31222 -0.02813
C 17.29501 25.55444 0.00374
C 17.23837 24.12379 0.00052
C 18.51756 23.42999 -0.03682
C 18.42744 21.99563 0.01965
C 17.19288 21.21488 0.02058
C 17.10748 19.85185 -0.01957
C 18.35049 17.72203 -0.00368
C 9.85892 0.0479 0.00393
C 11.08806 0.75972 0.0288
C 11.12289 2.20145 -0.0008
C 2.43171 0.00655 0.02728
C 4.89758 32.73046 -0.00039
C 6.10503 32.01384 0.0064
C 6.08461 30.59318 0.00211
C 4.84226 29.88968 -0.00449
C 4.82896 28.41176 -0.01979
C 6.02974 27.70921 0.02784
C 6.16893 26.26125 -0.01977
C 4.98489 25.53469 -0.00561
C 5.00495 24.1335 0.00208
C 6.1583 23.39656 0.01707
C 6.06691 13.45185 0.02769
C 4.84702 12.74664 -0.03291
C 4.86031 11.3306 -0.04999
C 6.11141 10.74184 0.04505
C 6.1086 9.34189 0.03284
C 4.91552 8.59142 -0.04307
C 4.90455 7.13242 0.03189
C 6.12798 6.37658 0.00031
C 6.09926 5.0131 -0.003
C 4.90821 4.25191 0.01402
C 4.91781 2.86056 0.02379
C 6.15451 2.15109 0.00907
C 3.68316 0.71966 0.00245
C 6.15483 0.78633 0.00643
C 3.65582 2.12891 0.00081
C 2.453 4.24527 -0.01386
C 3.63346 30.54821 0.00267
C 2.47369 29.79161 0.00787
C 2.42621 28.3614 0.02426
C 3.67081 27.68084 0.01218
C 3.726 26.18498 -0.01471
C 2.4674 25.53885 -0.02827
C 2.47037 24.10522 0.01078
C 3.76557 23.46854 -0.00112
C 3.58343 22.13095 0.03345
C 2.57895 21.24325 0.00748
C 2.40443 19.89227 0.00662
C 2.5123 17.14111 -0.0154
C 2.59194 15.75846 -0.01299
C 3.50974 14.72579 -0.00407
C 3.50255 13.37771 0.01138
C 2.30009 12.6998 0.03278
C 2.37925 11.3313 -0.00177
C 3.61358 10.67522 0.04421
C 3.6675 9.21083 0.00088
C 2.4311 8.48438 0.00828
C 2.37806 7.14638 -0.02375
C 3.67067 6.44204 0.00558
C 3.69662 5.01121 -0.0059
C 2.40411 2.86858 -0.02805
C 19.69473 24.11366 -0.00109
C 4.90813 0.06932 -0.01509
C 8.52405 32.01661 0.02374
C 9.75543 28.43932 -0.02929
C 11.01758 27.78345 -0.00966
C 11.04789 26.32486 -0.03337
C 9.7938 25.60603 0.01227
C 9.83395 24.22931 0.00873
C 11.10129 23.50695 -0.00049
C 11.11311 22.09692 0.00848
C 9.87824 21.54827 -0.01303
C 11.15959 19.13196 -0.01378
C 11.06574 17.75334 0.02635
C 9.77743 15.67176 0.0127
C 11.00907 14.91079 0.01396
C 11.04275 13.55278 0.01849
C 9.86899 12.8262 -0.01142
C 9.78757 11.41355 -0.00562
C 10.99665 10.72128 -0.00494
C 11.00611 9.34763 0.00054
C 9.80116 8.53378 0.03007
C 9.80439 7.143 -0.00095
C 10.99128 6.47455 0.01572
C 11.05927 5.05018 -0.04848
C 9.91623 4.28987 -0.00892
C 9.86899 2.84939 -0.01362
C 9.69598 29.87019 0.03368
C 7.38284 32.7643 0.03267
C 10.98045 30.52522 -0.00077
C 9.77851 32.67497 0.0276
C 8.51229 30.56548 0.00402
C 7.27392 29.8872 0.0073
C 7.27711 28.50024 0.0174
C 8.4703 27.7684 0.03828
C 8.62667 26.32496 0.01226
C 7.3966 25.54556 -0.00279
C 7.38538 24.06707 0.01996
C 8.58874 23.45606 -0.03996
C 8.68299 22.07412 0.01465
C 8.68007 13.77506 -0.00074
C 7.39609 13.0798 -0.00518
C 7.37357 11.48667 0.0086
C 8.55462 10.73339 -0.00643
C 8.52233 9.29093 0.017
C 7.30151 8.5341 -0.03113
C 7.37347 7.0505 -0.02566
C 8.58388 6.46414 -0.00094
C 8.57341 5.02767 0.02322
C 7.36253 4.26239 -0.00725
C 7.39953 2.89346 -0.05697
C 8.65473 2.20206 0.01087
C 8.64443 0.75946 -0.01343
C 7.36554 0.16451 0.00988
C 11.08346 31.92615 0.01305
C 3.67265 32.02406 0.01913
C 20.92768 23.41529 -0.00491
C 19.6857 21.3371 -0.0258
C 29.46285 12.81939 -0.01461
C 29.46463 11.36731 -0.02155
C 30.69156 10.5728 -0.00944
C 30.68722 9.21386 -0.03735
C 29.43 8.48662 -0.00971
C 29.44564 7.0494 0.01518
C 30.68773 6.31582 0.01908
C 30.80103 4.85881 0.07705
C 29.48618 4.18403 0.0103
C 29.55102 2.83882 0.02108
C 30.71792 13.49903 -0.01303
C 30.73332 2.06315 0.00716
C 29.52821 34.02094 0.00346
C 31.94553 32.54381 0.01713
C 33.20277 31.85358 -0.01694
C 33.27695 30.44254 0.01428
C 32.00235 29.72105 -0.02142
C 31.8902 28.31754 0.0544
C 33.14755 27.66493 0.00026
C 33.19677 26.23689 0.00682
C 31.96491 25.56172 -0.01779
C 31.94663 24.16678 0.03794
C 30.76547 0.62229 0.00307
C 30.69799 14.9076 -0.0405
C 29.4483 15.62436 0.01705
C 29.52693 17.06939 0.0101
C 26.99506 7.10952 0.02198
C 28.18845 6.35989 0.01094
C 28.29346 4.95164 0.00235
C 27.0453 4.24559 0.01495
C 27.07866 2.83784 0.01259
C 28.3202 2.09877 0.01799
C 28.33447 0.69047 0.01699
C 27.16367 0.00825 -0.00416
C 29.44045 32.65104 0.01177
C 30.78718 31.86448 0.04266
C 30.74321 30.46268 0.01324
C 29.46765 29.77751 0.0014
C 29.46496 28.35939 0.00924
C 30.6866 27.62936 0.02326
C 30.71314 26.24953 0.00261
C 29.47536 25.61516 0.03265
C 29.50704 24.13611 -0.02049
C 30.72114 23.4293 -0.01854
C 30.67679 21.99726 -0.01415
C 29.50793 21.32515 -0.03039
C 29.48022 19.92647 0.01836
C 30.70255 19.21311 0.03531
C 30.77969 17.80326 -0.00669
C 33.18963 23.46931 0.01927
C 33.17182 22.07184 0.01574
C 31.96946 21.31974 -0.02383
C 31.97071 19.89447 -0.01429
C 34.43195 24.08054 0.03076
C 1.24679 23.38869 0.00723
C 1.30015 21.98707 0.02712
C 0.02323 21.31706 -0.02213
C 0.00252 19.86985 0.01951
C 1.2564 19.16768 -0.01678
C 1.25463 17.72487 0.01223
C 0.01419 17.05302 0.00648
C 34.39232 15.65417 0.02114
C 1.24892 14.94515 -0.02957
C 1.1027 13.52779 0.00343
C 34.32426 12.79076 -0.02656
C 34.37018 11.38308 -0.02442
C 1.2 10.62478 -0.00027
C 1.1731 9.09311 -0.00583
C 34.33913 8.42583 -0.02302
C 34.39668 7.0152 -0.02849
C 1.19908 6.36507 0.02931
C 1.19116 4.96455 0.00628
C 0.01782 4.21157 -0.0345
C 0.0573 2.83095 -0.00931
C 1.27157 2.13139 -0.00939
C 1.21137 0.70903 -0.00468
C 0.02434 25.55158 -0.05239
C 27.02249 8.51039 0.02611
C 1.27635 26.24764 -0.00598
C 0.00623 28.31114 -0.01037
C 33.20452 19.18214 -0.0136
C 33.15629 17.79746 0.00594
C 31.93312 17.09267 -0.02474
C 31.8977 15.59451 0.00369
C 33.15491 14.88261 0.00455
C 33.14114 13.50228 -0.00644
C 31.91223 12.75301 -0.01839
C 31.92761 11.25961 0.00137
C 33.146 10.557 0.00199
C 33.09008 9.12379 0.04381
C 31.97176 8.41931 0.02806
C 31.89425 7.0222 0.01504
C 33.15688 6.28974 -0.00069
C 33.1561 4.88418 0.04926
C 31.9815 4.13085 -0.03838
C 31.96697 2.80244 0.00349
C 33.23747 2.06803 -0.00323
C 33.22554 0.6523 -0.00841
C 32.01172 34.03401 0.0001
C 34.39767 32.59876 -0.02927
C 1.22119 31.94383 -0.01404
C 1.26023 30.45376 0.01027
C 0.02121 29.71518 0.01831
C 1.26656 27.6169 -0.00439
C 28.23032 9.18968 -0.00621
C 28.24169 10.61358 0.00194
C 27.08105 11.41629 0.04185
C 22.09776 25.59334 0.00675
C 22.13629 24.15955 -0.00311
C 23.40595 23.49223 0.00742
C 23.39202 22.02276 -0.01594
C 22.15072 21.28286 0.0106
C 22.16675 19.86601 -0.01154
C 23.37556 19.12612 -0.01721
C 23.32878 17.78052 -0.02422
C 22.1104 17.05913 0.01277
C 22.06268 15.62345 0.00096
C 23.37181 14.94263 -0.01527
C 23.32176 13.49632 0.01087
C 22.10341 12.7842 0.00199
C 22.09999 11.40235 0.01511
C 23.31659 10.67641 -0.00478
C 23.30172 9.28446 -0.01662
C 22.07981 8.53525 -0.01185
C 22.10334 7.11846 0.01126
C 23.32238 6.39875 0.01852
C 23.43688 4.95392 -0.00381
C 22.22667 4.28995 0.03046
C 22.1831 2.87928 0.0296
C 23.39681 2.12898 0.03374
C 23.28272 26.29697 -0.00865
C 23.41532 0.66992 -0.02845
C 23.31596 27.73279 0.0058
C 22.11426 29.83826 -0.04076
C 19.64859 19.86806 -0.0331
C 20.90636 19.18982 -0.00316
C 20.87887 17.72678 0.02188
C 19.64429 17.01747 -0.01979
C 19.62998 15.63283 0.02691
C 20.87693 14.9498 -0.01581
C 20.87165 13.50744 0.01452
C 19.66727 12.76434 0.04892
C 19.61739 11.35567 -0.00111
C 20.87759 10.66823 -0.03557
C 20.88731 9.25656 0.03754
C 19.6478 8.44232 0.01739
C 19.62515 6.99027 0.00755
C 20.90927 6.33947 -0.0054
C 20.94073 4.94183 0.00667
C 19.69593 4.19542 0.00143
C 19.62674 2.78606 -0.017
C 20.91974 2.12844 0.00364
C 20.90604 0.66088 -0.00831
C 19.67278 0.01218 -0.02957
C 22.15104 32.76117 -0.04422
C 23.30643 31.98692 0.00654
C 23.32314 30.50004 -0.00703
C 22.08555 28.43421 -0.00652
C 20.89942 22.04762 0.03338
C 22.17361 0.00564 -0.03213
C 25.8173 31.96329 0.01153
C 25.85277 2.11172 -0.0264
C 25.94151 0.66562 -0.01154
C 24.6344 34.02796 0.00684
C 26.96644 32.64388 -0.01052
C 28.27411 31.89622 -0.01679
C 28.18078 30.46003 0.00367
C 27.01963 29.74969 0.04306
C 26.92603 28.32667 0.00996
C 28.22034 27.69208 0.00195
C 28.2076 26.25679 -0.00802
C 27.02064 25.52093 -0.00218
C 27.01089 24.07996 -0.01654
C 28.2732 23.44805 -0.00037
C 28.31757 22.04289 -0.0032
C 27.07594 21.29636 0.00622
C 27.02981 19.86648 -0.02815
C 28.26374 19.24077 -0.00942
C 28.26867 17.82145 0.00487
C 27.03181 17.04913 0.00826
C 27.07278 15.63416 -0.00294
C 28.27192 14.90945 0.00152
C 28.30172 13.55918 0.01257
C 27.07631 12.80219 0.02316
C 24.6686 2.82349 -0.00938
C 24.54478 32.65969 0.02239
C 24.66616 4.3023 -0.00229
C 25.8223 6.40412 -0.009
C 25.79818 30.53744 0.02734
C 24.62319 29.83055 -0.0055
C 24.54098 28.42615 0.01515
C 25.72182 27.66489 -0.00225
C 25.79065 26.29653 0.00071
C 24.58643 25.57743 -0.01107
C 24.61437 24.13974 -0.01586
C 25.81664 23.46872 -0.01971
C 25.91115 22.10452 -0.02118
C 24.62823 21.43108 0.00733
C 24.62642 19.85553 -0.00178
C 25.81365 19.17051 0.00768
C 25.79486 17.7881 -0.0276
C 24.59016 17.06894 0.03005
C 24.63801 15.59822 -0.04078
C 25.87205 14.8721 0.02117
C 25.8101 13.45638 0.02737
C 24.54502 12.81344 -0.00498
C 24.54808 11.38945 0.00135
C 25.83947 10.68646 0.03102
C 25.81187 9.25434 0.02555
C 24.574 8.59506 0.01423
C 24.60694 7.10192 -0.00285
C 25.89295 4.97343 -0.01199
C 2.42344 32.63171 -0.03672
