324
Graphene
C 34.42441 34.06725 0.01295
C 9.90631 12.70172 -0.00066
C 9.81499 11.32429 -0.00289
C 11.06955 10.55172 0.00028
C 11.05987 9.15775 -0.02213
C 9.79763 8.55211 0.03698
C 9.81929 7.09079 -0.00109
C 10.9703 6.41351 -0.00491
C 11.14574 13.46706 0.00213
C 11.03285 5.00003 0.03338
C 9.81896 2.90095 -0.0331
C 11.00715 2.24414 -0.00316
C 11.11307 0.7464 0.02188
C 9.93852 0.01255 -0.01979
C 12.3904 32.47828 0.02691
C 13.62119 32.00538 -0.01581
C 13.08253 21.14256 0.01452
C 9.82045 4.32955 -0.0258
C 12.38036 20.14457 0.04892
C 11.08879 14.94355 -0.05302
C 9.82927 17.02634 -0.02815
C 8.5992 9.22198 -0.02696
C 7.32491 8.47481 -0.00114
C 7.33585 7.08644 0.00228
C 8.57547 6.38256 0.00798
C 8.51059 4.99408 0.00422
C 7.26691 4.2859 0.0351
C 7.3593 2.88094 -0.03113
C 9.83219 15.6664 -0.04147
C 8.62219 2.15476 0.02098
C 7.45155 0.10703 -0.00619
C 10.0094 32.70127 -0.02162
C 11.13973 31.90754 0.00889
C 9.58667 21.19259 -0.00481
C 9.89375 19.80042 0.00979
C 11.12796 19.2312 0.01443
C 11.10926 17.79728 0.03505
C 8.71775 0.76304 0.01848
C 12.1687 16.96737 -0.00111
C 12.48976 15.65385 -0.03557
C 13.52454 14.72236 0.03754
C 14.80134 6.87261 -0.01154
C 14.76617 4.43686 -0.01721
C 14.83348 3.08736 -0.02422
C 16.06723 2.37958 0.01277
C 16.02779 0.96318 0.00096
C 14.8722 0.12035 -0.01527
C 17.36874 32.90171 0.01087
C 14.97054 8.22299 0.0106
C 18.55249 32.11614 0.00199
C 16.76537 30.731 -0.00478
C 18.97481 27.61143 -0.01662
C 17.33162 11.14519 -0.01185
C 18.5308 10.48741 0.01126
C 18.24565 9.05531 0.01852
C 17.15513 3.21891 -0.00381
C 18.5281 2.60613 0.03046
C 18.33469 30.6728 0.01511
C 16.39865 8.99049 -0.01594
C 16.20166 10.40961 0.00742
C 14.97384 11.20388 -0.00311
C 13.72571 13.31009 0.01739
C 12.36565 12.61022 0.00755
C 12.29058 11.19934 -0.0054
C 13.60146 10.55665 0.00667
C 13.69528 9.06397 0.00143
C 12.29985 8.48512 -0.017
C 12.25433 7.10339 0.00364
C 13.49582 6.38631 -0.00831
C 13.5206 4.96179 -0.02957
C 12.29028 4.30732 -0.04422
C 12.26412 2.89145 0.00654
C 13.56202 2.3037 -0.00703
C 13.60725 0.78075 -0.04076
C 12.36237 34.03778 -0.00652
C 14.95588 32.52443 0.0058
C 16.26344 31.94192 -0.00865
C 14.92885 12.5386 0.00675
C 8.60461 10.61255 -0.00368
C 18.5467 0.96479 0.0296
C 7.33067 11.35019 -0.0108
C 8.64751 13.4984 0.02058
C 3.55261 9.23289 0.00093
C 2.34718 8.53984 0.00057
C 2.42029 7.12024 -0.01634
C 3.645 6.34233 -0.00334
C 3.61167 4.92908 0.02339
C 2.32954 4.25877 0.01641
C 2.43048 2.82017 -0.00719
C 3.55565 10.67947 0.01291
C 3.66102 2.10848 0.01364
C 2.43992 0.01607 -0.00033
C 4.99209 32.70952 0.03589
C 6.22743 31.98914 -0.02759
C 6.24943 30.57818 0.0402
C 5.00302 29.82059 0.00572
C 4.88143 28.43972 0.03592
C 6.19648 27.71183 0.00406
C 3.66582 0.71155 -0.01062
C 6.14268 26.27397 0.00943
C 2.38056 11.41602 0.00438
C 3.60848 13.55802 0.00373
C 3.84528 30.62394 0.0288
C 2.52868 29.98482 0.00393
C 2.38636 28.49261 0.00895
C 3.57909 27.85909 0.00685
C 3.63892 26.33065 0.02888
C 2.35257 25.70141 -0.00482
C 2.35348 24.19896 -0.01384
C 2.4027 12.90231 -0.00191
C 3.57326 23.48819 0.03693
C 2.3399 21.4394 0.00488
C 2.36093 20.0007 -0.01004
C 3.57374 19.19448 -0.02896
C 3.60106 17.73617 -0.00131
C 2.37212 17.08796 -0.01118
C 2.34077 15.73757 -0.014
C 3.56192 15.0132 0.02147
C 3.64957 21.97637 0.01745
C 4.89613 25.64121 0.02841
C 4.8637 24.12788 -0.01111
C 6.10153 23.50623 -0.01275
C 4.9343 34.03183 0.0076
C 7.40522 32.78054 0.01241
C 8.66897 32.00809 -0.01454
C 8.69078 30.63947 0.01945
C 7.62217 29.85273 0.01416
C 7.37055 28.49885 0.03542
C 7.40512 25.51078 0.02299
C 6.14798 0.72209 0.02162
C 7.16487 24.23507 0.00244
C 7.36723 21.27566 0.05265
C 7.34065 19.86606 -0.01952
C 8.58094 19.11373 -0.02813
C 8.56211 17.69835 0.00374
C 7.16146 16.96203 0.00052
C 7.36714 15.5098 -0.03682
C 8.6423 14.90096 0.01965
C 8.65459 21.9283 -0.01717
C 6.0769 2.10576 -0.0014
C 4.84755 2.88704 0.00415
C 4.85223 4.21949 -0.02162
C 6.18599 21.99387 0.00985
C 4.91398 21.30775 -0.02245
C 4.81831 19.87387 -0.00428
C 6.09198 19.14596 0.03101
C 5.98582 17.70673 -0.01536
C 4.85714 17.02904 -0.02689
C 4.89302 15.65627 -0.01046
C 6.15443 14.89572 -0.00891
C 6.12309 13.51294 0.02819
C 4.87012 12.81244 0.00165
C 4.83106 11.43534 -0.02971
C 6.0348 10.61695 0.02894
C 6.03818 9.23803 -0.01789
C 4.82336 8.48422 0.00444
C 4.81786 7.07702 -0.00925
C 6.05296 6.32968 0.01877
C 6.10417 4.93291 0.01363
C 7.3628 12.74363 -0.01957
C 17.34431 0.19407 0.03374
C 19.7205 32.89879 -0.02845
C 20.88144 32.01101 -0.03213
C 33.06842 26.27489 0.00682
C 31.83841 25.57507 -0.01779
C 31.86186 24.21971 0.03794
C 33.1449 23.5154 0.01927
C 33.11563 22.05373 0.01574
C 31.91181 21.2535 -0.02383
C 31.93662 19.88088 -0.01429
C 33.13563 27.70964 0.00026
C 33.16597 19.16817 -0.0136
C 31.90822 17.12358 -0.02474
C 31.85192 15.6571 0.00369
C 33.11614 14.95773 0.00455
C 33.07164 13.47597 -0.00644
C 31.76566 12.80155 -0.01839
C 31.91614 11.3154 0.00137
C 33.12327 10.60459 0.00199
C 33.15321 17.79551 0.00594
C 33.14325 9.17085 0.04381
C 31.89834 28.36515 0.0544
C 33.18373 30.5122 0.01428
C 30.50829 13.49855 -0.01303
C 29.35654 12.70578 -0.01461
C 29.51773 11.29972 -0.02155
C 30.70135 10.66785 -0.00944
C 30.68205 9.26465 -0.03735
C 29.42046 8.53463 -0.00971
C 29.39942 7.06919 0.01518
C 31.91365 29.80018 -0.02142
C 30.63525 6.3742 0.01908
C 29.37562 4.16153 0.0103
C 29.45662 2.79444 0.02108
C 30.68915 2.01312 0.00716
C 30.61893 0.62914 0.00307
C 29.39722 34.01783 0.00346
C 31.8216 32.65549 0.01713
C 33.1563 31.9288 -0.01694
C 30.68746 4.95692 0.07705
C 31.9265 8.48769 0.02806
C 31.84605 7.0536 0.01504
C 33.11372 6.37792 -0.00069
C 34.41107 17.11748 0.00648
C 34.34564 15.73775 0.02114
C 1.16299 15.00107 -0.02957
C 1.15497 13.5952 0.00343
C 34.36625 12.79643 -0.02656
C 34.38838 11.38191 -0.02442
C 1.17457 10.71147 -0.00027
C 1.19753 17.85901 0.01223
C 1.14488 9.25609 -0.00583
C 34.4092 7.07098 -0.02849
C 1.17587 6.37435 0.02931
C 1.09697 4.97696 0.00628
C 34.34885 4.19468 -0.0345
C 34.37714 2.79048 -0.00931
C 1.21475 2.08599 -0.00939
C 1.22816 0.65101 -0.00468
C 34.39646 8.52389 -0.02302
C 1.22116 19.2249 -0.01678
C 0.01337 19.92508 0.01951
C 34.35107 21.36797 -0.02213
C 33.12921 4.94895 0.04926
C 31.86468 4.17893 -0.03838
C 31.93692 2.80704 0.00349
C 33.13354 2.10842 -0.00323
C 33.15414 0.64106 -0.00841
C 31.87631 0.00208 0.0001
C 34.36804 32.6866 -0.02927
C 1.22884 32.02217 -0.01404
C 1.29064 30.63078 0.01027
C 0.01252 29.85083 0.01831
C 34.39647 28.42529 -0.01037
C 1.1312 27.71878 -0.00439
C 1.09161 26.31634 -0.00598
C 34.30366 25.60078 -0.05239
C 34.39519 24.21001 0.03076
C 1.17396 23.49596 0.00723
C 1.17678 22.112 0.02712
C 30.63927 14.97078 -0.0405
C 29.52723 15.71898 0.01705
C 30.67086 17.87584 0.0101
C 30.69353 19.07451 -0.00669
C 21.81995 7.0165 0.03102
C 23.12418 6.39457 0.02555
C 23.27394 4.97902 0.01423
C 22.02113 4.33355 -0.00285
C 22.18748 2.8755 -0.009
C 23.40108 2.13718 -0.01199
C 23.29635 0.73157 -0.00229
C 21.92113 8.49271 0.00135
C 22.14393 0.10335 -0.00938
C 25.63232 31.79535 -0.01154
C 25.66775 30.41785 0.00684
C 24.44284 29.62008 -0.01052
C 24.28486 28.0519 -0.01679
C 25.66194 27.54471 0.00367
C 24.50496 11.29411 0.04306
C 25.89863 11.06647 0.00996
C 24.45982 32.59058 -0.0264
C 23.2584 9.33975 -0.00498
C 23.46905 10.75272 0.02737
C 22.85242 27.67342 0.02117
C 20.85003 30.61865 0.02239
C 19.61778 29.86602 0.01153
C 20.10353 28.44829 0.02734
C 20.40273 10.54053 -0.0055
C 20.6994 9.13469 0.01515
C 19.39126 8.27448 -0.00225
C 20.5122 6.21665 0.00071
C 20.61181 4.74432 -0.01107
C 19.83354 3.3176 -0.01586
C 20.92649 2.31448 -0.01971
C 20.9447 0.89829 -0.02118
C 19.73263 0.23273 0.00733
C 22.14545 32.70461 -0.00178
C 23.22519 31.83558 0.00768
C 23.21489 30.38009 -0.0276
C 21.92411 29.72961 0.03005
C 21.62113 28.31792 -0.04078
C 25.76662 9.35961 0.00195
C 3.74357 32.06113 -0.0008
C 24.48633 8.65189 -0.00802
C 25.67338 6.5208 -0.01654
C 26.9683 4.26532 0.01699
C 26.9977 2.78406 -0.00416
C 28.15317 2.01625 0.01177
C 28.1764 0.56951 0.04266
C 26.89524 34.01257 0.01324
C 29.364 32.62811 0.0014
C 30.61273 31.89058 0.00924
C 28.20838 4.98 0.01799
C 30.7246 30.48438 0.02326
C 29.40652 28.38372 0.03265
C 30.55508 27.64164 -0.02049
C 30.57282 26.28908 -0.01854
C 29.20788 25.53052 -0.01415
C 29.46089 24.17456 -0.03039
C 30.57784 23.40608 0.01836
C 30.80861 22.04882 0.03531
C 29.42359 29.81101 0.00261
C 28.1801 6.36278 0.01259
C 26.93493 7.15334 0.01495
C 27.02215 8.62007 0.00235
C 25.74493 5.0804 -0.00037
C 24.55372 4.33551 -0.0032
C 24.55543 2.81418 0.00622
C 25.78189 2.13125 -0.02815
C 25.68819 0.67793 -0.00942
C 24.46845 33.99999 0.00487
C 26.7955 32.51486 0.00826
C 28.10813 31.87427 -0.00294
C 28.16781 30.44326 0.00152
C 26.98343 29.76847 0.01257
C 26.81729 28.3055 0.02316
C 28.13861 27.66318 0.04185
C 28.08629 26.20664 0.00194
C 27.74387 12.8894 -0.00621
C 27.19916 11.66549 0.02611
C 28.27217 10.70299 0.02198
C 28.24188 9.34123 0.01094
C 24.47157 7.24817 -0.00218
C 2.42572 32.74193 -0.01362
