412
Graphene
C 0.00721 0.04607 0.01295
C 12.35581 21.286 -0.02245
C 12.23415 19.94697 -0.00428
C 13.50196 19.20598 0.03101
C 13.57293 17.72837 -0.01536
C 12.34273 17.11021 -0.02689
C 12.33298 15.65137 -0.01046
C 13.4619 14.85612 -0.00891
C 13.48705 13.44112 0.02819
C 12.26657 12.66673 0.00165
C 12.29878 11.31268 -0.02971
C 13.5913 10.68903 0.02894
C 13.54517 9.21208 -0.01789
C 12.34918 8.50607 0.00444
C 12.34059 7.09278 -0.00925
C 13.50957 6.45539 0.01877
C 13.5313 4.93108 0.01363
C 12.3052 4.17767 -0.02162
C 12.2721 2.78396 0.00415
C 13.58623 2.05425 -0.0014
C 13.45562 0.68479 0.02162
C 12.2563 0.0323 0.0076
C 13.53169 21.99081 0.00985
C 13.46599 23.49209 -0.01275
C 12.20468 24.22686 -0.01111
C 12.30151 25.61855 0.02841
C 11.12349 14.9546 0.02147
C 11.09945 13.51956 0.00373
C 9.86699 12.81307 -0.00191
C 9.81006 11.3992 0.00438
C 11.09573 10.64174 0.01291
C 11.11285 9.25669 0.00093
C 9.86681 8.63939 0.00057
C 9.81031 7.13239 -0.01634
C 11.04803 6.46904 -0.00334
C 11.118 4.92018 0.02339
C 14.75656 32.63103 0.01241
C 9.89043 4.30125 0.01641
C 11.12493 2.10784 0.01364
C 11.03387 0.64812 -0.01062
C 9.80989 0.04519 -0.00033
C 12.30345 32.62809 0.03589
C 13.45575 31.93103 -0.02759
C 13.54915 30.52642 0.0402
C 12.38939 29.84311 0.00572
C 12.2911 28.43873 0.03592
C 13.52908 27.72848 0.00406
C 13.49013 26.38359 0.00943
C 9.83058 2.88851 -0.00719
C 15.95796 31.88307 -0.01454
C 15.9975 30.46657 0.01945
C 14.76398 29.8696 0.01416
C 15.98358 0.67303 0.00889
C 14.71875 0.00174 -0.00481
C 17.20264 32.66711 0.00979
C 18.43764 31.92518 0.01443
C 18.5004 30.60561 0.03505
C 17.23019 29.79437 -0.02815
C 17.24598 28.40082 -0.04147
C 18.46723 27.67589 -0.05302
C 18.45661 26.22925 0.00213
C 17.17471 25.53731 -0.00066
C 15.96515 2.09723 -0.02162
C 17.22672 24.07363 -0.00289
C 18.48402 21.97579 -0.02213
C 17.20276 21.33543 0.03698
C 17.17685 19.89045 -0.00109
C 18.37271 19.17161 -0.00491
C 18.37993 17.78626 0.03338
C 17.18104 17.06351 -0.0258
C 17.18795 15.6379 -0.0331
C 18.46881 14.86797 -0.00316
C 18.47677 13.49068 0.02188
C 17.23349 12.82664 -0.01979
C 18.45638 23.45586 0.00028
C 9.8965 15.63849 -0.014
C 14.75171 2.83406 -0.00619
C 15.99377 4.92117 0.02098
C 14.74295 28.38641 0.03542
C 15.98326 27.69638 0.02299
C 16.02187 26.30689 0.00244
C 14.72101 25.5808 -0.01717
C 14.70662 24.17374 0.05265
C 15.93886 23.43162 -0.01952
C 15.96317 21.99131 -0.02813
C 14.68905 21.28811 0.00374
C 14.75629 19.89522 0.00052
C 16.00022 19.11874 -0.03682
C 14.73249 4.24769 0.01848
C 15.9747 17.67312 0.01965
C 14.71976 15.5602 -0.01957
C 15.98292 14.87407 -0.0108
C 15.95027 13.46189 -0.00368
C 14.78535 12.76305 -0.02696
C 14.80993 11.37273 -0.00114
C 15.97859 10.70289 0.00228
C 16.00669 9.18781 0.00798
C 14.74402 8.52125 0.00422
C 14.72825 7.12524 0.0351
C 15.99058 6.43298 -0.03113
C 14.76626 16.95852 0.02058
C 17.18143 11.40566 0.02691
C 9.80666 17.08471 -0.01118
C 10.98779 19.20087 -0.02896
C 6.14995 31.94064 -0.04307
C 6.13131 30.60993 0.03189
C 6.13025 26.20077 0.00031
C 4.94374 25.64103 -0.003
C 4.92091 24.20788 0.01402
C 6.13823 23.48319 0.02379
C 6.07907 22.101 0.00907
C 4.93534 21.354 0.00643
C 4.92783 19.86955 -0.01509
C 6.10665 19.17852 0.03267
C 6.12928 17.76893 0.02374
C 4.97223 16.99656 0.00402
C 4.99462 15.63056 0.0073
C 6.14857 14.8853 0.0174
C 6.23844 13.45392 0.03828
C 4.90707 12.78106 0.01226
C 4.85757 11.34907 -0.00279
C 6.08603 10.76344 0.01996
C 6.1791 9.25496 -0.03996
C 4.96249 8.49952 0.01465
C 4.9069 7.11506 -0.00074
C 4.94502 32.62819 0.03284
C 2.44641 34.05516 0.04505
C 3.72221 0.67377 -0.04999
C 3.59228 2.09142 -0.03291
C 2.46608 25.61725 0.04421
C 2.41071 24.23979 0.00088
C 3.654 23.47328 0.00828
C 3.72835 22.06509 -0.02375
C 2.45736 21.24691 0.00558
C 2.52112 19.87368 -0.0059
C 3.71566 19.20854 -0.01386
C 3.70551 17.77475 -0.02805
C 2.42865 17.02493 0.00081
C 2.43719 15.55253 0.00245
C 6.12651 6.36654 -0.00518
C 3.72926 14.90463 0.02728
C 2.45046 12.7347 0.0064
C 2.4532 11.38237 0.00211
C 3.66362 10.69035 -0.00449
C 3.66162 9.23289 -0.01979
C 2.50996 8.50411 0.02784
C 2.51991 7.08361 -0.01977
C 3.70977 6.42694 -0.00561
C 3.64676 4.86276 0.00208
C 2.43883 4.24413 0.01707
C 2.42142 2.84961 0.02769
C 3.63607 13.42506 -0.00039
C 6.15855 4.95878 0.0086
C 4.91052 4.29161 -0.00643
C 4.89409 2.85745 0.017
C 7.42565 8.47039 -0.01142
C 7.36668 7.12154 -0.00562
C 8.5925 6.42083 -0.00494
C 8.64338 4.98935 0.00054
C 7.3841 4.24116 0.03007
C 7.39095 2.83892 -0.00095
C 8.66349 2.17315 0.01572
C 8.59307 0.7349 -0.04848
C 7.3167 0.04618 -0.00892
C 9.87711 32.66152 -0.01362
C 8.6332 9.29975 0.01849
C 11.06243 31.98439 -0.0008
C 9.87924 29.89809 0.00393
C 9.78742 28.52436 0.00895
C 11.01922 27.75425 0.00685
C 11.06079 26.31325 0.02888
C 9.73064 25.57591 -0.00482
C 9.84773 24.18739 -0.01384
C 11.06582 23.39898 0.03693
C 11.09142 21.99134 0.01745
C 9.80055 21.35035 0.00488
C 9.77896 19.95942 -0.01004
C 11.11352 30.57267 0.0288
C 10.99891 17.76756 -0.00131
C 8.56144 10.72578 0.01396
C 7.3927 12.76486 0.02635
C 6.16348 2.12809 -0.03113
C 6.08376 0.76453 -0.02566
C 4.90266 34.07891 -0.00094
C 7.44201 32.715 0.02322
C 8.62029 31.91187 -0.00725
C 8.60564 30.53472 -0.05697
C 7.25294 29.79482 0.01087
C 7.39469 28.39213 -0.01343
C 8.54934 27.76094 0.00988
C 8.50249 26.27268 0.0276
C 7.32144 11.37462 0.0127
C 7.32162 25.51126 0.01305
C 8.60533 23.49122 0.03368
C 8.53551 22.04813 -0.02929
C 7.36481 21.35168 -0.00966
C 7.36257 19.85669 -0.03337
C 8.58187 19.18865 0.01227
C 8.61227 17.7765 0.00873
C 7.43911 17.06742 -0.00049
C 7.40798 15.67435 0.00848
C 8.59106 14.91772 -0.01303
C 8.60475 13.49712 -0.01378
C 7.36016 24.14342 -0.00077
C 18.37933 10.7203 -0.01581
C 18.50317 9.23608 0.01452
C 17.23378 8.4759 0.04892
C 29.62067 11.33211 -0.03735
C 30.72512 10.68021 -0.00971
C 30.74482 9.24352 0.01518
C 29.54185 8.41471 0.01908
C 29.48494 7.16112 0.07705
C 30.71619 4.93204 0.0103
C 29.48338 4.33003 0.02108
C 29.57413 2.87531 0.00716
C 30.76608 2.04701 0.00307
C 30.75156 0.65717 0.00346
C 29.52028 0.0278 0.01713
C 31.9589 32.69045 -0.01694
C 33.19017 31.89532 0.01428
C 33.16569 30.53431 -0.02142
C 32.02099 29.75872 0.0544
C 31.9021 28.32964 0.00026
C 33.15815 27.71019 0.00682
C 33.15445 26.26946 -0.01779
C 31.94322 25.57195 0.03794
C 31.975 24.15586 0.01927
C 33.21822 23.38009 0.01574
C 29.52141 12.75529 -0.00944
C 30.75238 13.5308 -0.02155
C 30.80506 14.88386 -0.01461
C 29.52207 15.52571 -0.01303
C 28.23787 4.96909 0.01259
C 27.16984 4.24407 0.01799
C 27.01753 2.8339 0.01699
C 28.29941 2.11833 -0.00416
C 28.27822 0.71762 0.01177
C 27.0329 0.00789 0.04266
C 29.53084 32.72876 0.01324
C 30.73315 31.96877 0.0014
C 30.80401 30.5718 0.00924
C 29.47358 29.84113 0.02326
C 33.19732 21.99806 -0.02383
C 29.49411 28.37287 0.00261
C 30.78468 26.3128 -0.02049
C 29.55015 25.54379 -0.01854
C 29.48724 24.09645 -0.01415
C 30.73726 23.47022 -0.03039
C 30.74603 22.04692 0.01836
C 29.54308 21.35397 0.03531
C 29.45151 19.79459 -0.00669
C 30.7014 19.12601 0.0101
C 30.76147 17.73537 0.01705
C 29.5803 17.01774 -0.0405
C 30.6567 27.64013 0.03265
C 31.92737 21.30709 -0.01429
C 31.92293 19.84461 -0.0136
C 33.17072 19.17214 0.00594
C 1.19713 23.41052 0.00723
C 1.23473 22.06265 0.02712
C 0.01775 21.35219 -0.02213
C 0.00031 19.88881 0.01951
C 1.2239 19.14967 -0.01678
C 1.17611 17.71371 0.01223
C 34.36172 17.05301 0.00648
C 0.01329 15.62411 0.02114
C 1.26309 14.85056 -0.02957
C 1.22635 13.45491 0.00343
C 34.38181 24.19174 0.03076
C 34.42556 12.80561 -0.02656
C 1.217 10.71402 -0.00027
C 1.18885 9.26505 -0.00583
C 34.42161 8.52939 -0.02302
C 34.40101 7.12418 -0.02849
C 1.24022 6.38413 0.02931
C 1.2261 4.96059 0.00628
C 34.39274 4.22748 -0.0345
C 34.41589 2.80775 -0.00931
C 1.22324 2.1702 -0.00939
C 1.22757 0.79853 -0.00468
C 34.42069 11.31288 -0.02442
C 28.2886 13.45196 0.01495
C 34.35259 25.5446 -0.05239
C 1.20081 27.7134 -0.00439
C 33.22219 17.74504 -0.02474
C 31.91335 16.96684 0.00369
C 31.96255 15.59708 0.00455
C 33.22326 14.89633 -0.00644
C 33.19107 13.41849 -0.01839
C 31.93096 12.78895 0.00137
C 31.99521 11.31826 0.00199
C 33.21148 10.63371 0.04381
C 33.20326 9.23549 0.02806
C 31.97546 8.52741 0.01504
C 1.27037 26.24805 -0.00598
C 33.19481 6.39359 -0.00069
C 31.8864 4.26608 -0.03838
C 31.98446 2.815 0.00349
C 33.25018 2.09849 -0.00323
C 33.18783 0.74297 -0.00841
C 31.90456 34.05974 0.0001
C 34.36464 32.63613 -0.02927
C 1.24204 31.86722 -0.01404
C 1.16464 30.55345 0.01027
C 0.06189 29.8087 0.01831
C 0.04288 28.37498 -0.01037
C 33.07434 5.0155 0.04926
C 28.22326 14.80419 0.00235
C 27.06397 15.59531 0.01094
C 27.07646 17.01295 0.02198
C 20.93332 13.46461 -0.02422
C 19.77466 12.67733 0.01277
C 19.67785 11.31333 0.00096
C 19.62718 8.52201 -0.01527
C 19.74249 7.03648 0.01087
C 20.84721 6.31372 0.00199
C 20.89044 4.99562 0.01511
C 19.73034 4.1918 -0.00478
C 19.76895 2.79303 -0.01662
C 20.89443 2.06436 -0.01185
C 20.88226 14.86802 -0.01721
C 20.90663 0.70376 0.01126
C 22.16526 32.65637 -0.00381
C 23.42987 31.95852 0.03046
C 23.33822 30.50944 0.0296
C 22.16923 29.82852 0.03374
C 22.18439 28.38292 -0.02845
C 23.43859 27.72978 -0.03213
C 23.40689 26.30327 0.02239
C 22.14563 25.59538 0.01153
C 22.16129 24.05737 0.02734
C 23.34122 23.43936 -0.0055
C 19.70934 0.00741 0.01852
C 23.31344 22.07653 0.01515
C 19.62445 15.60701 -0.01154
C 20.89932 17.77731 -0.01594
C 17.1792 7.10446 -0.00111
C 18.43993 6.36785 -0.03557
C 18.49875 4.97071 0.03754
C 17.21119 4.32172 0.01739
C 17.22123 2.80008 0.00755
C 18.47432 2.19133 -0.0054
C 18.5114 0.71753 0.00667
C 17.26845 34.05576 0.00143
C 19.60995 32.63229 -0.017
C 20.94943 31.98462 0.00364
C 19.63408 17.02003 0.0106
C 21.06595 30.61011 -0.00831
C 19.6434 28.45942 -0.04422
C 20.91082 27.67417 0.00654
C 20.92442 26.25453 -0.00703
C 19.58541 25.5626 -0.04076
C 19.60825 24.16515 -0.00652
C 20.83831 23.41755 0.0058
C 20.86245 22.00993 -0.00865
C 19.69496 21.22835 0.00675
C 19.57697 19.81413 -0.00311
C 20.88347 19.1707 0.00742
C 19.66154 29.8751 -0.02957
C 3.66876 31.89906 -0.00177
C 22.08716 21.35447 -0.00225
C 23.36578 19.19982 -0.01107
C 24.59088 15.5472 0.00367
C 25.83234 14.9694 0.04306
C 24.53514 4.18064 0.00996
C 24.64705 2.84009 0.00195
C 25.82122 2.10004 -0.00802
C 25.84776 0.71777 -0.00218
C 24.66948 0.09823 -0.01654
C 27.08772 32.67668 -0.00037
C 28.24376 31.87869 -0.0032
C 28.2696 30.48784 0.00622
C 24.59461 17.07977 -0.01679
C 26.99799 29.82692 -0.02815
C 28.26815 27.67065 0.00487
C 28.35108 26.29941 0.00826
C 27.08991 25.57498 -0.00294
C 27.03563 24.16656 0.00152
C 28.24291 23.37278 0.01257
C 28.28666 22.04133 0.02316
C 27.04806 21.29511 0.04185
C 27.01148 19.85974 0.00194
C 28.23369 19.12422 -0.00621
C 28.30241 17.71569 0.02611
C 27.01403 28.37411 -0.00942
C 22.13893 19.88477 0.00071
C 25.86558 17.72589 -0.01052
C 24.5694 19.94668 -0.01154
C 23.42013 17.78789 -0.01586
C 22.11668 17.02995 -0.01971
C 22.13737 15.57757 -0.02118
C 23.34088 14.9675 0.00733
C 23.43685 4.96617 -0.00178
C 22.14616 4.23991 0.00768
C 22.12328 2.78389 -0.0276
C 23.44016 2.14359 0.03005
C 23.33989 0.78332 -0.04078
C 22.16475 34.07434 0.02117
C 25.82642 19.20412 0.00684
C 24.61944 32.67355 0.02737
C 25.8194 30.46618 0.00135
C 24.54189 29.76856 0.03102
C 24.66328 28.38938 0.02555
C 25.81058 27.65317 0.01423
C 25.76705 26.28899 -0.00285
C 24.5836 25.54985 -0.009
C 24.52789 24.16007 -0.01199
C 25.84677 23.40911 -0.00229
C 25.75779 21.92882 -0.00938
C 24.54908 21.32406 -0.0264
C 25.82167 31.97919 -0.00498
C 2.4862 32.69067 0.03278
