440
Graphene
C 0.0364 0.04355 0.01295
C 12.30591 19.88835 -0.01634
C 13.48341 19.24485 -0.00334
C 13.54425 17.80648 0.02339
C 12.35278 17.05013 0.01641
C 12.3336 15.68082 -0.00719
C 13.53565 14.91938 0.01364
C 13.44815 13.43198 -0.01062
C 12.24602 12.73787 -0.00033
C 12.25926 11.2405 0.03589
C 13.516 10.6341 -0.02759
C 13.57587 9.24796 0.0402
C 12.34997 8.51985 0.00572
C 12.36119 7.08448 0.03592
C 13.57687 6.37854 0.00406
C 13.48925 5.04274 0.00943
C 12.32465 4.18852 0.02841
C 12.28702 2.75582 -0.01111
C 13.48088 2.04071 -0.01275
C 13.54194 0.65018 0.00985
C 12.23559 34.04716 -0.02245
C 14.73193 32.69517 -0.00428
C 15.95109 31.91039 0.03101
C 15.96071 30.55479 -0.01536
C 12.22583 21.38381 0.00057
C 13.53976 22.05517 0.00093
C 13.58459 23.45764 0.01291
C 12.29785 24.20548 0.00438
C 9.82994 15.62383 -0.00095
C 11.09236 14.93464 0.01572
C 11.08937 13.50677 -0.04848
C 9.82524 12.83629 -0.00892
C 9.84427 11.46617 -0.01362
C 11.00193 10.66367 -0.0008
C 11.04668 9.29972 0.0288
C 9.87064 8.46996 0.00393
C 9.86488 7.08122 0.00895
C 11.12016 6.40714 0.00685
C 11.13985 4.98046 0.02888
C 14.72095 29.78605 -0.02689
C 9.81539 4.2948 -0.00482
C 11.05664 2.04813 0.03693
C 10.99245 0.68509 0.01745
C 9.82149 34.04543 0.00488
C 12.35431 32.68046 -0.01004
C 13.53629 31.98879 -0.02896
C 13.54111 30.56275 -0.00131
C 12.26277 29.97571 -0.01118
C 12.28946 28.45971 -0.014
C 13.50896 27.64797 0.02147
C 13.52418 26.25039 0.00373
C 12.29491 25.62445 -0.00191
C 9.86598 2.83194 -0.01384
C 9.83001 17.06284 0.03007
C 14.73652 28.37026 -0.01046
C 16.02735 26.23488 0.02819
C 17.25349 29.91006 0.02058
C 17.27505 28.38342 -0.01957
C 18.45976 27.65219 -0.0108
C 18.46244 26.24531 -0.00368
C 17.27168 25.50897 -0.02696
C 17.15002 24.10031 -0.00114
C 18.43605 23.4054 0.00228
C 18.45987 21.9665 0.00798
C 17.23942 21.26826 0.00422
C 17.16252 19.91204 0.0351
C 18.39319 19.17546 -0.03113
C 18.40215 17.75336 0.02098
C 17.13882 17.10335 0.01848
C 17.18698 15.67109 -0.00619
C 18.43068 14.93272 -0.02162
C 18.46735 13.47075 0.00889
C 17.23101 12.7869 -0.00481
C 17.22721 11.4005 0.00979
C 18.44359 10.69189 0.01443
C 18.46888 9.28149 0.03505
C 17.21718 8.54203 -0.02815
C 17.21908 7.06652 -0.04147
C 18.43661 6.33979 -0.05302
C 18.4627 30.5487 0.01965
C 18.44685 31.96724 -0.03682
C 17.19641 32.64679 0.00052
C 14.73865 0.00524 0.00374
C 14.73813 25.57555 0.00165
C 14.73468 24.15819 -0.02971
C 15.90089 23.44964 0.02894
C 15.98089 22.02557 -0.01789
C 14.80808 21.28655 0.00444
C 14.75263 19.86774 -0.00925
C 15.95635 19.0996 0.01877
C 15.91684 17.71209 0.01363
C 14.73906 17.02568 -0.02162
C 14.74702 15.5948 0.00415
C 15.9928 14.92482 -0.0014
C 16.03579 27.68898 -0.00891
C 15.94996 13.55347 0.02162
C 14.77165 11.31702 0.01241
C 15.95993 10.66987 -0.01454
C 15.97999 9.23403 0.01945
C 14.77797 8.54765 0.01416
C 14.7936 7.05712 0.03542
C 15.95859 6.40861 0.02299
C 15.93577 5.00521 0.00244
C 14.69795 4.27103 -0.01717
C 14.71941 2.86517 0.05265
C 15.98785 2.16493 -0.01952
C 15.99527 0.66346 -0.02813
C 14.74917 12.8276 0.0076
C 18.46094 4.99302 0.00213
C 11.06929 17.75733 0.00054
C 9.78176 19.97562 -0.00562
C 3.72534 0.71331 0.04421
C 2.49981 34.04129 0.00088
C 4.88535 32.68008 0.00828
C 6.12292 31.98053 -0.02375
C 6.2036 30.49991 0.00558
C 4.99637 29.81382 -0.0059
C 4.91014 28.38437 -0.01386
C 6.26536 27.65291 -0.02805
C 6.17701 26.23439 0.00081
C 4.86548 25.59329 0.00245
C 4.8811 24.23312 0.02728
C 6.13755 23.44579 -0.00039
C 6.18709 22.00114 0.0064
C 4.93297 21.28682 0.00211
C 4.96123 19.85828 -0.00449
C 6.13074 19.10128 -0.01979
C 6.18816 17.66257 0.02784
C 4.80344 17.02401 -0.01977
C 4.86784 15.68841 -0.00561
C 6.09705 14.99334 0.00208
C 6.10817 13.55949 0.01707
C 4.93458 12.80893 0.02769
C 4.9118 11.28857 -0.03291
C 3.75236 2.15533 -0.00177
C 2.49978 2.90142 0.03278
C 2.47691 4.29503 0.01138
C 3.67339 5.00746 -0.00407
C 3.66423 30.4705 0.01116
C 2.43928 29.78575 -0.0005
C 2.49457 28.37443 -0.00018
C 3.70832 27.6694 0.01073
C 3.67963 26.29615 0.01984
C 2.44327 25.63311 0.00535
C 2.42302 24.16456 -0.00198
C 3.74265 23.41394 -0.00012
C 3.74866 22.024 -0.04306
C 2.4824 21.35712 -0.03672
C 2.41455 19.77401 0.01913
C 6.14627 10.59394 -0.04999
C 3.65474 19.19477 0.00267
C 2.37466 16.9868 0.02426
C 2.42251 15.57497 0.01218
C 3.66405 14.95379 -0.01471
C 3.68759 13.5206 -0.02827
C 2.48691 12.72812 0.01078
C 2.44045 11.37747 -0.00112
C 3.67699 10.66363 0.03345
C 3.68463 9.26852 0.00748
C 2.45402 8.49549 0.00662
C 2.45757 7.06127 -0.0154
C 3.72269 6.4351 -0.01299
C 3.61405 17.73354 0.00787
C 11.01775 19.23573 -0.00494
C 6.1463 9.23148 0.04505
C 4.92183 7.17458 -0.04307
C 8.59069 10.73817 -0.00725
C 8.667 9.28347 -0.05697
C 7.37688 8.60551 0.01087
C 7.348 7.18587 -0.01343
C 8.60868 6.43547 0.00988
C 8.55134 4.99982 0.0276
C 7.34225 4.29628 0.01305
C 7.39964 2.85038 -0.00077
C 8.61239 2.10632 0.03368
C 8.56185 0.7669 -0.02929
C 7.34628 0.08724 -0.00966
C 9.82999 32.66993 -0.03337
C 10.99835 31.97613 0.01227
C 10.99208 30.57002 0.00873
C 9.84315 29.8044 -0.00049
C 9.85075 28.39611 0.00848
C 11.00946 27.77094 -0.01303
C 11.0611 26.33372 -0.01378
C 9.89545 25.62856 0.02635
C 9.8701 24.10831 0.0127
C 11.08748 23.47176 0.01396
C 11.01044 22.02243 0.01849
C 9.81739 21.31851 -0.01142
C 7.34691 11.40782 0.02322
C 7.27364 12.77581 -0.00094
C 8.5279 13.46215 -0.02566
C 8.57698 14.83559 -0.03113
C 6.1524 6.47256 0.03189
C 6.09009 5.0035 0.00031
C 4.91479 4.28268 -0.003
C 4.93768 2.83445 0.01402
C 6.13891 2.16578 0.02379
C 6.13462 0.75926 0.00907
C 4.96118 0.02826 0.00643
C 7.38659 32.74502 -0.01509
C 8.57165 31.96738 0.03267
C 8.61413 30.51436 0.02374
C 7.38762 29.81023 0.00402
C 4.89012 8.57922 0.03284
C 7.45447 28.39693 0.0073
C 8.6696 26.23077 0.03828
C 7.42166 25.5453 0.01226
C 7.37216 24.12667 -0.00279
C 8.58077 23.46848 0.01996
C 8.63377 22.03587 -0.03996
C 7.36574 21.28022 0.01465
C 7.35493 19.85283 -0.00074
C 8.56791 19.21782 -0.00518
C 8.64576 17.80477 0.0086
C 7.41419 16.97435 -0.00643
C 7.41679 15.54513 0.017
C 8.64149 27.67537 0.0174
C 17.20766 4.29411 -0.00066
C 17.21093 2.79803 -0.00289
C 18.39505 2.16136 0.00028
C 30.77377 14.81097 -0.0405
C 30.70972 13.41143 -0.01303
C 29.4679 12.80169 -0.01461
C 29.45474 11.35497 -0.02155
C 30.69391 10.70102 -0.00944
C 30.71097 9.20454 -0.03735
C 29.54784 8.45709 -0.00971
C 29.53571 7.05808 0.01518
C 30.7749 6.40817 0.01908
C 30.82876 4.94797 0.07705
C 29.53211 4.20854 0.0103
C 29.53061 2.7831 0.02108
C 30.78026 2.10125 0.00716
C 30.69341 0.66871 0.00307
C 29.54491 34.04473 0.00346
C 31.97281 32.67679 0.01713
C 33.16041 31.99605 -0.01694
C 33.21742 30.59874 0.01428
C 31.99002 29.84654 -0.02142
C 31.98198 28.49231 0.0544
C 33.17548 27.71809 0.00026
C 33.18965 26.30635 0.00682
C 31.96502 25.58656 -0.01779
C 29.59907 15.65976 0.01705
C 29.54669 17.0247 0.0101
C 30.68627 17.7302 -0.00669
C 30.72707 19.20079 0.03531
C 28.31505 14.97071 0.00194
C 28.29478 13.56133 -0.00621
C 27.00706 12.69366 0.02611
C 27.01925 11.31623 0.02198
C 28.26717 10.63193 0.01094
C 28.34329 9.20249 0.00235
C 27.00767 8.49743 0.01495
C 26.99651 7.08631 0.01259
C 28.26335 6.34603 0.01799
C 28.24698 4.93473 0.01699
C 27.03996 4.21105 -0.00416
C 31.98016 24.19697 0.03794
C 27.07501 2.8452 0.01177
C 28.30188 0.61616 0.01324
C 27.00714 34.06081 0.0014
C 29.49606 28.33063 0.00924
C 30.66198 27.73323 0.02326
C 30.7404 26.27386 0.00261
C 29.54818 25.48964 0.03265
C 29.49325 24.12525 -0.02049
C 30.72519 23.48601 -0.01854
C 30.79177 22.07281 -0.01415
C 29.50102 21.36809 -0.03039
C 29.49099 19.91794 0.01836
C 28.23563 2.13929 0.04266
C 27.06683 15.67821 0.04185
C 33.20214 23.42494 0.01927
C 31.96907 21.30223 -0.02383
C 34.40341 24.13306 0.03076
C 1.19535 23.43799 0.00723
C 1.22621 22.04342 0.02712
C 0.01144 21.35038 -0.02213
C 0.02537 19.83549 0.01951
C 1.19028 19.09455 -0.01678
C 1.14982 17.72599 0.01223
C 34.39406 17.0593 0.00648
C 0.0359 15.60825 0.02114
C 1.1644 14.84016 -0.02957
C 1.20144 13.43775 0.00343
C 0.01695 12.77039 -0.02656
C 34.41878 11.29502 -0.02442
C 1.19915 10.64694 -0.00027
C 1.25419 9.20494 -0.00583
C 0.01665 8.52403 -0.02302
C 0.02292 7.11476 -0.02849
C 1.20255 6.34195 0.02931
C 1.24712 4.88139 0.00628
C 2e-05 4.20679 -0.0345
C 34.39829 2.78281 -0.00931
C 1.2753 2.12823 -0.00939
C 1.2903 0.69751 -0.00468
C 34.37874 25.58955 -0.05239
C 1.14547 26.26747 -0.00598
C 1.16374 27.67706 -0.00439
C 34.41555 28.32241 -0.01037
C 31.93339 19.9005 -0.01429
C 33.2363 19.14966 -0.0136
C 33.21627 17.72953 0.00594
C 31.87708 17.01089 -0.02474
C 31.9461 15.56072 0.00369
C 33.22867 14.88018 0.00455
C 33.20866 13.44663 -0.00644
C 32.02093 12.68578 -0.01839
C 32.01668 11.30791 0.00137
C 33.23071 10.61121 0.00199
C 33.1881 9.21223 0.04381
C 33.22249 21.96451 0.01574
C 31.91287 8.53559 0.02806
C 33.20622 6.41514 -0.00069
C 33.27915 4.91983 0.04926
C 32.07699 4.21621 -0.03838
C 31.95926 2.76225 0.00349
C 33.18955 2.10022 -0.00323
C 33.23222 0.70895 -0.00841
C 31.95698 34.01867 0.0001
C 0.04402 32.71036 -0.02927
C 1.21939 31.93263 -0.01404
C 1.23569 30.5556 0.01027
C 0.0623 29.80968 0.01831
C 32.03822 7.11592 0.01504
C 27.08291 17.09549 0.02316
C 28.29006 17.74665 0.01257
C 28.31801 19.12771 0.00152
C 20.91136 5.01478 -0.00703
C 19.68208 4.30488 -0.04076
C 19.64543 2.90322 -0.00652
C 20.86557 2.14197 0.0058
C 20.90129 0.74116 -0.00865
C 19.62258 0.03511 0.00675
C 22.13374 32.6412 -0.00311
C 23.39212 31.98063 0.00742
C 23.31492 30.62754 -0.01594
C 22.12435 29.81897 0.0106
C 22.16605 28.42904 -0.01154
C 23.37995 27.67329 -0.01721
C 23.39241 26.22358 -0.02422
C 22.05118 25.51079 0.01277
C 22.14642 24.13218 0.00096
C 23.35044 23.40194 -0.01527
C 23.50484 22.08476 0.01087
C 22.12684 21.33213 0.00199
C 22.12622 19.8725 0.01511
C 23.36811 19.1616 -0.00478
C 23.25041 17.73792 -0.01662
C 22.05389 17.03272 -0.01185
C 22.07301 15.61135 0.01126
C 20.89436 6.38299 0.00654
C 19.68217 7.06248 -0.04422
C 19.5926 8.46738 -0.02957
C 20.86299 9.24746 -0.00831
C 18.39141 0.74178 -0.02213
C 17.17044 34.03077 0.03698
C 19.66982 32.7309 -0.00109
C 20.89013 31.94725 -0.00491
C 20.90719 30.48844 0.03338
C 19.64895 29.79781 -0.0258
C 19.6945 28.31869 -0.0331
C 20.96313 27.66896 -0.00316
C 20.903 26.26724 0.02188
C 19.68223 25.6086 -0.01979
C 19.76475 24.1924 0.02691
C 23.38158 14.90209 0.01852
C 20.85077 23.36285 -0.01581
C 19.6602 21.27315 0.04892
C 19.62849 19.8792 -0.00111
C 20.86186 19.20169 -0.03557
C 20.87046 17.74579 0.03754
C 19.71237 17.07994 0.01739
C 19.71995 15.65 0.00755
C 20.87928 14.89892 -0.0054
C 20.88921 13.43114 0.00667
C 19.65784 12.81702 0.00143
C 19.68354 11.39534 -0.017
C 20.87812 10.61848 0.00364
C 20.86193 21.96361 0.01452
C 23.34321 13.4692 -0.00381
C 22.10232 12.76067 0.03046
C 22.12826 11.36087 0.0296
C 25.87712 14.89804 -0.009
C 25.82484 13.54892 -0.01199
C 24.66425 12.81061 -0.00229
C 24.54074 11.37871 -0.00938
C 25.8279 10.63172 -0.0264
C 25.80067 9.24716 -0.01154
C 24.61292 8.56778 0.00684
C 24.63703 7.07236 -0.01052
C 25.80846 6.34502 -0.01679
C 25.92478 4.94768 0.00367
C 24.55631 4.32572 0.04306
C 24.60698 15.58698 -0.00285
C 24.61109 2.92142 0.00996
C 25.85157 0.66925 -0.00802
C 24.57746 34.03931 -0.00218
C 26.94084 28.34593 -0.01654
C 28.31535 27.72481 -0.00037
C 28.26079 26.19175 -0.0032
C 26.99924 25.59863 0.00622
C 27.00237 24.14371 -0.02815
C 28.21568 23.40516 -0.00942
C 28.28504 21.99161 0.00487
C 27.01554 21.20202 0.00826
C 27.0337 19.80672 -0.00294
C 25.80403 2.18242 0.00195
C 3.71026 31.99909 -0.0213
C 24.52139 16.92945 0.01423
C 25.81975 19.15663 0.03102
C 23.37206 10.72263 0.03374
C 23.35263 9.2631 -0.02845
C 22.12699 8.5951 -0.03213
C 22.15662 7.05593 0.02239
C 23.3577 6.3461 0.01153
C 23.37198 4.96175 0.02734
C 22.10657 4.24452 -0.0055
C 22.1341 2.80004 0.01515
C 23.40314 2.17866 -0.00225
C 23.38434 0.69471 0.00071
C 22.13614 0.04218 -0.01107
C 25.78173 17.71824 0.02555
C 24.5894 32.70852 -0.01586
C 25.78989 30.52103 -0.02118
C 24.525 29.78723 0.00733
C 24.49026 28.4244 -0.00178
C 25.80921 27.75285 0.00768
C 25.83708 26.33726 -0.0276
C 24.58059 25.55704 0.03005
C 24.59923 24.18516 -0.04078
C 25.80502 23.38279 0.02117
C 25.85317 21.95286 0.02737
C 24.62746 21.30761 -0.00498
C 24.58698 19.92105 0.00135
C 25.90989 31.91454 -0.01971
C 2.53376 32.65669 -0.00374
