363
Graphene
C 34.41158 0.04375 0.01295
C 11.01931 5.00265 -0.03682
C 9.76446 4.25342 0.01965
C 9.81697 2.81738 0.02058
C 11.03197 2.18936 -0.01957
C 11.01499 0.80979 -0.0108
C 9.82616 0.061 -0.00368
C 12.29405 32.63531 -0.02696
C 13.55217 31.95976 -0.00114
C 11.00576 6.36607 0.00052
C 13.57305 30.54965 0.00228
C 12.34246 28.38383 0.00422
C 13.67588 27.58389 0.0351
C 13.47855 26.16009 -0.03113
C 12.311 25.64323 0.02098
C 12.16324 11.41451 0.01848
C 13.17435 10.50368 -0.00619
C 13.42109 9.21155 -0.02162
C 12.25659 8.46369 0.00889
C 12.36569 29.78104 0.00798
C 9.76194 7.06123 0.00374
C 9.80799 8.50924 -0.02813
C 11.05328 9.1904 -0.01952
C 8.57815 2.18974 -0.01789
C 8.60638 0.7914 0.00444
C 7.37818 0.08951 -0.00925
C 9.78793 32.72597 0.01877
C 11.06617 32.00815 0.01363
C 11.09014 30.50743 -0.02162
C 9.78582 29.83825 0.00415
C 9.86373 28.39517 -0.0014
C 11.12764 27.67364 0.02162
C 11.09616 26.25425 0.0076
C 9.87935 25.59109 0.01241
C 9.91293 24.16031 -0.01454
C 10.93996 23.2759 0.01945
C 9.91444 21.29511 0.01416
C 9.83477 15.63955 0.03542
C 11.25185 13.13696 0.02299
C 9.90565 12.68954 0.00244
C 9.80706 11.33681 -0.01717
C 11.04959 10.62671 0.05265
C 12.26908 7.0541 -0.00481
C 13.51513 6.34621 0.00979
C 13.52551 4.97102 0.01443
C 12.21177 4.25884 0.03505
C 17.09826 29.88864 0.03754
C 17.13601 28.44131 0.01739
C 18.36098 27.94256 0.00755
C 18.49117 9.06836 -0.0054
C 17.12185 8.68669 0.00667
C 17.12882 7.15505 0.00143
C 18.36182 6.4039 -0.017
C 18.38756 5.05588 0.00364
C 17.24817 4.22743 -0.00831
C 17.14532 2.79955 -0.02957
C 18.3987 2.14476 -0.04422
C 18.43427 0.74816 0.00654
C 17.18817 0.0534 -0.00703
C 19.60923 32.66877 -0.04076
C 20.85784 31.89212 -0.00652
C 20.85924 30.42008 0.0058
C 19.61902 29.66574 -0.00865
C 19.6498 28.12547 0.00675
C 20.90307 27.5114 -0.00311
C 18.35137 30.44272 -0.03557
C 7.33159 2.89952 0.02894
C 18.4007 31.90905 -0.00111
C 14.74548 0.02013 0.01452
C 12.28841 2.8546 -0.02815
C 13.5519 2.13599 -0.04147
C 13.55323 0.70935 -0.05302
C 12.25011 0.03818 0.00213
C 14.75754 32.68438 -0.00066
C 15.93886 32.0228 -0.00289
C 15.9317 30.58385 0.00028
C 14.7565 29.76019 -0.02213
C 14.85124 28.37191 0.03698
C 16.0064 27.63012 -0.00109
C 15.82415 9.30666 -0.00491
C 14.65747 8.54991 0.03338
C 14.69218 7.10611 -0.0258
C 15.91145 6.39054 -0.0331
C 15.9784 4.99196 -0.00316
C 14.7581 4.27811 0.02188
C 14.76634 2.81558 -0.01979
C 15.94395 2.16909 0.02691
C 15.99287 0.71806 -0.01581
C 17.18696 32.69518 0.04892
C 21.25382 10.64036 0.00742
C 7.3205 4.33129 -0.02971
C 8.48426 6.41532 0.02819
C 3.65985 6.54191 -0.01378
C 3.63277 5.01175 0.02635
C 2.41408 4.28892 0.0127
C 2.40659 2.86224 0.01396
C 3.66077 2.14615 0.01849
C 3.64329 0.75917 -0.01142
C 2.36837 0.01988 -0.00562
C 4.78701 32.72747 -0.00494
C 2.48149 7.19216 -0.01303
C 6.04189 32.07186 0.00054
C 4.88117 29.86255 -0.00095
C 4.93828 28.46548 0.01572
C 6.1325 27.7374 -0.04848
C 6.22363 26.33575 -0.00892
C 4.89335 25.55561 -0.01362
C 4.90985 24.16445 -0.0008
C 6.19027 23.3999 0.0288
C 6.20765 21.98577 0.00393
C 6.06315 30.65005 0.03007
C 2.45071 8.58563 0.00848
C 3.67116 9.28069 -0.00049
C 3.63984 10.74771 0.00873
C 3.60868 30.61104 -0.00643
C 2.42182 29.82321 0.017
C 2.47531 28.37284 -0.03113
C 3.74124 27.7287 -0.02566
C 3.69098 26.32416 -0.00094
C 2.4038 25.63241 0.02322
C 2.47326 24.15003 -0.00725
C 3.67713 23.47438 -0.05697
C 3.66728 22.06034 0.01087
C 2.49613 21.30446 -0.01343
C 2.50395 19.90347 0.00988
C 3.70868 19.17918 0.0276
C 3.72659 17.7638 0.01305
C 2.47814 17.09393 -0.00077
C 2.41342 15.62555 0.03368
C 3.73107 14.98385 -0.02929
C 3.6921 13.57253 -0.00966
C 2.43579 12.84406 -0.03337
C 2.42215 11.46849 0.01227
C 4.91227 21.3041 0.00895
C 4.92065 19.93505 0.00685
C 6.21791 19.20434 0.02888
C 6.33846 17.82388 -0.00482
C 8.67371 26.34653 -0.00033
C 7.42391 25.6007 0.03589
C 7.40283 24.15809 -0.02759
C 8.66401 23.50475 0.0402
C 8.70239 22.04929 0.00572
C 7.45082 21.33623 0.03592
C 7.44849 19.94033 0.00406
C 8.66213 19.16858 0.00943
C 8.72806 17.8184 0.02841
C 7.51338 17.0614 -0.01111
C 7.42849 15.73774 -0.01275
C 8.63286 14.89928 0.00985
C 8.7265 13.51326 -0.02245
C 7.43615 12.86685 -0.00428
C 7.33856 11.37145 0.03101
C 8.57711 10.61571 -0.01536
C 8.55112 9.20248 -0.02689
C 7.30774 8.60732 -0.01046
C 7.25612 7.15205 -0.00891
C 8.587 27.79746 -0.01062
C 8.5647 5.00167 0.00165
C 7.34949 28.50364 0.01364
C 8.59181 30.60505 0.01641
C 5.04326 17.13824 -0.01384
C 4.92144 15.74967 0.03693
C 6.13884 14.98621 0.01745
C 6.14175 13.58026 0.00488
C 4.89073 12.86944 -0.01004
C 4.84136 11.48005 -0.02896
C 6.11719 10.72066 -0.00131
C 6.11923 9.23882 -0.01118
C 4.81901 8.55162 -0.014
C 4.8685 7.14427 0.02147
C 6.05103 6.43099 0.00373
C 6.06877 5.022 -0.00191
C 4.89816 4.29503 0.00438
C 4.83563 2.87892 0.01291
C 6.12395 2.17747 0.00093
C 6.10222 0.77761 0.00057
C 4.83409 0.08193 -0.01634
C 7.34526 32.77385 -0.00334
C 8.54509 32.03518 0.02339
C 7.32696 29.93562 -0.00719
C 3.6188 31.99887 0.0086
C 21.01846 9.15622 -0.01594
C 19.68649 7.04816 -0.01154
C 29.51292 0.0058 0.00346
C 31.91152 32.75527 0.01713
C 33.16591 31.97347 -0.01694
C 33.18074 30.5685 0.01428
C 31.9066 29.86945 -0.02142
C 31.88429 28.42099 0.0544
C 33.08628 27.71081 0.00026
C 33.13398 26.26768 0.00682
C 30.74416 0.74152 0.00307
C 31.92174 25.60673 -0.01779
C 33.1608 23.46468 0.01927
C 33.22464 21.96578 0.01574
C 31.99481 21.29198 -0.02383
C 32.01237 19.82705 -0.01429
C 33.28713 19.17623 -0.0136
C 33.25436 17.7768 0.00594
C 31.98221 17.07702 -0.02474
C 31.90044 15.62391 0.00369
C 31.86476 24.20042 0.03794
C 30.71318 2.15647 0.00716
C 29.49152 2.82405 0.02108
C 29.47702 4.2455 0.0103
C 29.37734 24.10823 -0.02049
C 30.59221 23.44677 -0.01854
C 30.65085 21.99443 -0.01415
C 29.41995 21.3006 -0.03039
C 29.48462 19.87273 0.01836
C 30.70951 19.22464 0.03531
C 30.74493 17.80528 -0.00669
C 29.55509 17.05582 0.0101
C 29.50492 15.63158 0.01705
C 30.74329 14.90651 -0.0405
C 30.74382 13.49034 -0.01303
C 29.54369 12.78232 -0.01461
C 29.51712 11.30532 -0.02155
C 30.76156 10.59821 -0.00944
C 30.74683 9.21527 -0.03735
C 29.52262 8.55892 -0.00971
C 29.54062 7.09113 0.01518
C 30.7525 6.38527 0.01908
C 30.74922 4.95312 0.07705
C 33.14392 14.92283 0.00455
C 33.16836 13.50929 -0.00644
C 31.91714 12.80721 -0.01839
C 31.97825 11.27962 0.00137
C 0.06559 19.92847 0.01951
C 1.31163 19.22559 -0.01678
C 1.24957 17.78611 0.01223
C 0.03927 17.01187 0.00648
C 34.39286 15.67057 0.02114
C 1.19146 14.89373 -0.02957
C 1.16302 13.47008 0.00343
C 34.37564 12.72736 -0.02656
C 34.42951 11.38813 -0.02442
C 1.20611 10.6989 -0.00027
C 1.24457 9.25965 -0.00583
C 34.40581 8.50515 -0.02302
C 34.41471 7.09392 -0.02849
C 1.18156 6.4609 0.02931
C 1.19949 5.04665 0.00628
C 34.41212 4.31949 -0.0345
C 0.00293 2.93518 -0.00931
C 1.24712 2.1867 -0.00939
C 1.18167 0.74258 -0.00468
C 0.014 21.31756 -0.02213
C 29.42877 25.57833 0.03265
C 1.22866 22.04471 0.02712
C 34.33576 24.16539 0.03076
C 33.19489 10.62479 0.00199
C 33.15459 9.20389 0.04381
C 31.95946 8.46347 0.02806
C 31.98 7.06604 0.01504
C 33.20617 6.36466 -0.00069
C 33.19436 4.96605 0.04926
C 31.96633 4.26394 -0.03838
C 31.9563 2.84962 0.00349
C 33.18401 2.18845 -0.00323
C 33.18404 0.74008 -0.00841
C 31.9638 0.08682 0.0001
C 34.40636 32.68213 -0.02927
C 1.18661 31.93069 -0.01404
C 1.15123 30.50696 0.01027
C 34.34601 29.79022 0.01831
C 34.32477 28.38205 -0.01037
C 1.15411 27.65115 -0.00439
C 1.16019 26.30779 -0.00598
C 34.40087 25.63474 -0.05239
C 1.22932 23.52797 0.00723
C 19.71951 8.45764 0.0106
C 30.65374 26.31589 0.00261
C 29.39948 28.429 0.00924
C 23.25752 0.68757 0.01515
C 22.08924 34.02919 -0.00225
C 24.52654 32.67558 0.00071
C 25.83105 31.99152 -0.01107
C 25.73997 30.52422 -0.01586
C 24.46339 29.83019 -0.01971
C 24.5303 28.37208 -0.02118
C 25.78248 27.70819 0.00733
C 23.37293 2.07146 -0.0055
C 25.74561 26.26126 -0.00178
C 24.66901 24.21633 -0.0276
C 25.56771 23.25229 0.03005
C 25.65754 21.82858 -0.04078
C 25.98278 14.78414 0.02117
C 25.65123 13.43165 0.02737
C 24.56543 12.64463 -0.00498
C 24.48497 11.25635 0.00135
C 25.7952 10.61284 0.03102
C 24.49069 25.60808 0.00768
C 22.11521 2.78138 0.02734
C 22.12017 4.19799 0.01153
C 23.36866 4.8979 0.02239
C 20.96971 6.37837 -0.01721
C 20.85595 4.9997 -0.02422
C 19.63937 4.29417 0.01277
C 19.58968 2.81399 0.00096
C 20.85479 2.10398 -0.01527
C 20.92301 0.63243 0.01087
C 19.67736 34.06733 0.00199
C 22.03169 32.62747 0.01511
C 23.33611 31.91056 -0.00478
C 23.26837 30.50302 -0.01662
C 22.08785 29.77103 -0.01185
C 22.0861 28.33767 0.01126
C 23.30195 27.67806 0.01852
C 23.31734 26.3179 -0.00381
C 23.22786 10.45941 0.03046
C 23.47063 9.06089 0.0296
C 22.16553 8.36197 0.03374
C 22.24415 6.97212 -0.02845
C 23.4342 6.21282 -0.03213
C 25.86746 9.1646 0.02555
C 24.69752 8.41649 0.01423
C 24.65614 6.93874 -0.00285
C 25.86528 6.31442 -0.009
C 28.29973 14.89406 0.00152
C 28.27596 13.5018 0.01257
C 26.99453 12.76584 0.02316
C 26.99476 11.33032 0.04185
C 28.2718 10.60807 0.00194
C 28.32901 9.19069 -0.00621
C 27.151 8.54751 0.02611
C 27.0255 7.1075 0.02198
C 28.28772 6.39088 0.01094
C 28.34119 4.96275 0.00235
C 27.07616 4.28427 0.01495
C 27.04271 2.85099 0.01259
C 28.22002 2.18091 0.01799
C 28.31444 0.73445 0.01699
C 27.05538 0.04471 -0.00416
C 29.426 32.6787 0.01177
C 30.72826 32.00036 0.04266
C 30.67037 30.62986 0.01324
C 29.3845 29.88801 0.0014
C 27.03049 15.6885 -0.00294
C 30.6345 27.72224 0.02326
C 27.12367 17.10366 0.00826
C 28.31409 19.19019 -0.00942
C 25.87625 4.90021 -0.01199
C 24.62837 4.18535 -0.00229
C 24.59914 2.77737 -0.00938
C 25.83369 2.15425 -0.0264
C 25.80577 0.68385 -0.01154
C 24.54133 0.01499 0.00684
C 27.05324 32.68528 -0.01052
C 28.25075 31.98462 -0.01679
C 28.13297 30.61941 0.00367
C 26.94835 29.83822 0.04306
C 27.00967 28.3926 0.00996
C 28.21349 27.639 0.00195
C 28.17804 26.24037 -0.00802
C 26.97769 25.48918 -0.00218
C 26.9219 24.04831 -0.01654
C 28.17216 23.34905 -0.00037
C 28.18198 21.97416 -0.0032
C 26.98334 21.1923 0.00622
C 27.04247 19.78256 -0.02815
C 28.37271 17.79679 0.00487
C 2.38277 32.69671 -0.00518
