356
Graphene
C 34.40518 0.01571 0.01295
C 11.09478 14.94751 -0.0108
C 11.02547 13.51727 -0.00368
C 9.79334 12.73483 -0.02696
C 9.7957 11.36098 -0.00114
C 10.94331 10.65401 0.00228
C 11.00623 9.1958 0.00798
C 9.82463 8.50957 0.00422
C 9.83118 7.09742 0.0351
C 9.80724 15.64568 -0.01957
C 11.00123 6.41351 -0.03113
C 9.78686 4.2499 0.01848
C 9.8169 2.8502 -0.00619
C 11.03166 2.14706 -0.02162
C 11.12518 0.68654 0.00889
C 9.83626 0.07764 -0.00481
C 12.26324 32.66225 0.00979
C 13.47003 31.94492 0.01443
C 13.46686 30.4923 0.03505
C 11.00133 4.96184 0.02098
C 12.25952 29.7878 -0.02815
C 9.86422 17.04662 0.02058
C 11.13594 19.14561 -0.03682
C 7.3255 4.3425 -0.02162
C 7.34167 2.97471 0.00415
C 8.58279 2.24007 -0.0014
C 8.62226 0.80708 0.02162
C 7.40372 0.0694 0.0076
C 9.86075 32.72503 0.01241
C 11.05183 31.97864 -0.01454
C 11.02943 30.56726 0.01945
C 11.10878 17.73207 0.01965
C 9.79673 29.93373 0.01416
C 11.04463 27.6711 0.02299
C 11.05315 26.26042 0.00244
C 9.81816 25.52338 -0.01717
C 9.85501 24.10497 0.05265
C 11.05704 23.44987 -0.01952
C 11.13375 22.03313 -0.02813
C 9.90927 21.27592 0.00374
C 9.88316 19.88221 0.00052
C 9.76491 28.39606 0.03542
C 12.30217 28.34913 -0.04147
C 13.55913 27.61862 -0.05302
C 13.57682 26.2242 0.00213
C 13.54327 0.68763 0.00667
C 12.32873 34.05732 0.00143
C 14.65516 32.61771 -0.017
C 15.90435 31.94272 0.00364
C 15.88674 30.50266 -0.00831
C 14.72856 29.73131 -0.02957
C 14.80416 28.30896 -0.04422
C 16.09702 27.63907 0.00654
C 13.56454 2.12519 -0.0054
C 15.8599 26.29996 -0.00703
C 14.70523 23.99459 -0.00652
C 14.7949 21.488 0.0058
C 14.96297 20.15202 -0.00865
C 15.89068 19.14658 0.00675
C 16.10888 17.79654 -0.00311
C 14.85103 17.07324 0.00742
C 14.76594 15.64825 -0.01594
C 15.92283 14.8523 0.0106
C 14.87453 25.34571 -0.04076
C 12.29525 2.79101 0.00755
C 12.25337 4.30483 0.01739
C 13.54332 4.96327 0.03754
C 12.34124 25.59001 -0.00066
C 12.27618 24.21565 -0.00289
C 13.46519 23.42134 0.00028
C 13.52004 22.03062 -0.02213
C 12.33567 21.31087 0.03698
C 12.38867 19.84426 -0.00109
C 13.68108 19.21834 -0.00491
C 13.58519 17.81691 0.03338
C 12.35447 17.05842 -0.0258
C 12.30534 15.64197 -0.0331
C 13.53793 14.93212 -0.00316
C 13.5117 13.48805 0.02188
C 12.30998 12.72937 -0.01979
C 12.22094 11.32873 0.02691
C 13.48068 10.63892 -0.01581
C 13.48214 9.22803 0.01452
C 12.23004 8.51477 0.04892
C 12.2709 7.14301 -0.00111
C 13.43562 6.37751 -0.03557
C 8.56902 4.97739 0.01363
C 15.91508 13.45458 -0.01154
C 8.61302 6.37766 0.01877
C 7.31151 8.5702 0.00444
C 2.39105 7.15754 -0.00562
C 3.63567 6.51287 -0.00494
C 3.64842 5.12552 0.00054
C 2.45134 4.31494 0.03007
C 2.45118 2.85774 -0.00095
C 3.62996 2.16124 0.01572
C 3.73006 0.70222 -0.04848
C 2.50672 0.03333 -0.00892
C 2.46177 8.55296 -0.01142
C 4.94505 32.6312 -0.01362
C 6.14553 30.51833 0.0288
C 4.87668 29.8409 0.00393
C 4.92762 28.39745 0.00895
C 6.18413 27.73026 0.00685
C 6.23499 26.30771 0.02888
C 4.97453 25.66086 -0.00482
C 4.97287 24.17588 -0.01384
C 6.23365 23.49713 0.03693
C 6.2197 31.99819 -0.0008
C 6.14694 22.04118 0.01745
C 3.58872 9.3237 0.01849
C 2.40758 11.37224 0.0127
C 3.65113 30.59026 -0.05697
C 2.43357 29.83814 0.01087
C 2.38857 28.3923 -0.01343
C 3.64251 27.68492 0.00988
C 3.68643 26.32019 0.0276
C 2.41836 25.62844 0.01305
C 2.44665 24.20807 -0.00077
C 3.67528 23.52592 0.03368
C 3.62271 10.6651 0.01396
C 3.74608 21.99315 -0.02929
C 2.39301 19.88896 -0.03337
C 3.65985 19.20344 0.01227
C 3.60946 17.79827 0.00873
C 2.38889 17.04934 -0.00049
C 2.44696 15.64044 0.00848
C 3.75977 14.95312 -0.01303
C 3.68765 13.52883 -0.01378
C 2.44274 12.8561 0.02635
C 2.45889 21.30904 -0.00966
C 4.92749 21.31247 0.00488
C 4.88879 19.9229 -0.01004
C 6.15926 19.15813 -0.02896
C 8.58371 27.70771 0.00406
C 8.612 26.29997 0.00943
C 7.40085 25.61951 0.02841
C 7.4248 24.15859 -0.01111
C 8.6184 23.41619 -0.01275
C 8.6228 21.96227 0.00985
C 7.35784 21.28418 -0.02245
C 7.39484 19.86188 -0.00428
C 7.37255 28.43305 0.03592
C 8.6461 19.14998 0.03101
C 7.41319 17.04358 -0.02689
C 7.43227 15.63612 -0.01046
C 8.63415 14.89376 -0.00891
C 8.58882 13.48175 0.02819
C 7.32564 12.73877 0.00165
C 7.39095 11.32869 -0.02971
C 8.62648 10.63151 0.02894
C 8.64088 9.22523 -0.01789
C 8.6381 17.69679 -0.01536
C 7.3537 29.82863 0.00572
C 8.58657 30.60697 0.0402
C 8.62334 32.03411 -0.02759
C 6.19198 17.75484 -0.00131
C 4.88937 16.97966 -0.01118
C 4.91241 15.58469 -0.014
C 6.13117 14.88075 0.02147
C 6.12578 13.484 0.00373
C 4.93498 12.79189 -0.00191
C 4.90491 11.34256 0.00438
C 6.06504 10.68147 0.01291
C 6.01395 9.23532 0.00093
C 4.76043 8.56787 0.00057
C 4.78036 7.2336 -0.01634
C 6.03697 6.46602 -0.00334
C 6.0515 5.05499 0.02339
C 4.84712 4.34843 0.01641
C 4.93625 2.8777 -0.00719
C 6.16348 2.23165 0.01364
C 6.1766 0.80995 -0.01062
C 4.94652 34.04475 -0.00033
C 7.39333 32.76091 0.03589
C 7.27395 7.1431 -0.00925
C 14.67111 12.75214 -0.01721
C 14.72173 11.31384 -0.02422
C 15.94039 10.67826 0.01277
C 30.6984 5.00494 0.01713
C 29.49554 4.30684 -0.01694
C 29.46166 2.87057 0.01428
C 30.73297 2.12133 -0.02142
C 30.75533 0.63727 0.0544
C 29.54717 34.06161 0.00026
C 31.97722 32.67189 0.00682
C 33.20842 31.99133 -0.01779
C 30.65331 6.38511 0.00346
C 33.15469 30.59866 0.03794
C 31.84798 28.48272 0.01574
C 32.94041 27.59732 -0.02383
C 33.241 26.28444 -0.01429
C 33.20122 19.14769 -0.0136
C 33.06215 17.77329 0.00594
C 31.8305 17.02749 -0.02474
C 31.84847 15.62348 0.00369
C 33.14035 14.95925 0.00455
C 31.9287 29.86794 0.01927
C 33.24181 13.52597 -0.00644
C 29.45439 7.15106 0.00307
C 30.77221 9.21852 0.02108
C 27.0623 8.50136 -0.01415
C 27.03558 7.0656 -0.03039
C 28.24309 6.37766 0.01836
C 28.21677 4.99739 0.03531
C 27.05778 4.25553 -0.00669
C 27.0145 2.8627 0.0101
C 28.26762 2.11944 0.01705
C 28.33382 0.71768 -0.0405
C 29.51986 8.54953 0.00716
C 27.09069 0.06982 -0.01303
C 30.74467 31.98075 -0.02155
C 30.71699 30.52145 -0.00944
C 29.3765 29.96491 -0.03735
C 30.758 14.80201 -0.00971
C 30.8263 13.40562 0.01518
C 29.61445 12.72528 0.01908
C 29.58587 11.27356 0.07705
C 30.79392 10.58049 0.0103
C 29.53375 32.6521 -0.01461
C 32.03069 12.7836 -0.01839
C 32.09158 11.30036 0.00137
C 33.24099 10.61721 0.00199
C 1.2397 19.2019 -0.01678
C 1.13268 17.76233 0.01223
C 34.38169 17.03118 0.00648
C 34.3887 15.68218 0.02114
C 1.23058 14.96886 -0.02957
C 1.17657 13.55122 0.00343
C 34.3661 12.7504 -0.02656
C 0.00762 11.35515 -0.02442
C 34.3107 20.01439 0.01951
C 1.16184 10.66295 -0.00027
C 34.40997 8.49626 -0.02302
C 34.42027 7.08357 -0.02849
C 1.24733 6.42643 0.02931
C 1.1665 5.03114 0.00628
C 34.35533 4.26755 -0.0345
C 34.4146 2.91418 -0.00931
C 1.18433 2.16423 -0.00939
C 1.26657 0.71767 -0.00468
C 1.19203 9.22343 -0.00583
C 0.07406 21.37863 -0.02213
C 1.2382 22.02988 0.02712
C 1.2347 23.44383 0.00723
C 33.18068 9.23161 0.04381
C 31.9487 8.49958 0.02806
C 31.9262 7.14829 0.01504
C 33.15992 6.36899 -0.00069
C 33.12417 4.99737 0.04926
C 31.9274 4.25962 -0.03838
C 31.99888 2.91685 0.00349
C 33.16846 2.14381 -0.00323
C 33.1927 0.71928 -0.00841
C 31.988 0.04125 0.0001
C 0.02965 32.67298 -0.02927
C 1.26309 31.9842 -0.01404
C 1.19666 30.52112 0.01027
C 34.32194 29.74365 0.01831
C 34.2072 28.34799 -0.01037
C 1.09389 27.58098 -0.00439
C 1.16572 26.24102 -0.00598
C 34.29323 25.45419 -0.05239
C 0.03952 24.09053 0.03076
C 28.28605 9.25898 -0.01854
C 28.23626 10.6154 -0.02049
C 27.03114 11.40199 0.03265
C 27.06782 12.85587 0.00261
C 17.15424 8.5109 -0.01107
C 17.15265 7.08053 -0.01586
C 18.3705 6.42336 -0.01971
C 18.37851 4.99712 -0.02118
C 17.1662 4.3202 0.00733
C 17.18896 2.87743 -0.00178
C 18.37008 2.12419 0.00768
C 18.37849 0.73924 -0.0276
C 18.4397 9.2005 0.00071
C 17.14208 0.00307 0.03005
C 20.88189 32.074 0.02117
C 20.56867 30.67599 0.02737
C 19.62762 29.83405 -0.00498
C 20.88776 13.33322 0.00135
C 19.66103 12.70349 0.03102
C 19.57125 11.22979 0.02555
C 20.90925 10.66351 0.01423
C 20.91427 9.1926 -0.00285
C 19.60406 32.64545 -0.04078
C 18.39652 10.59088 -0.00225
C 17.21486 11.29334 0.01515
C 17.136 12.68618 -0.0055
C 15.89521 9.22919 0.00096
C 14.65482 8.52278 -0.01527
C 14.69653 7.07383 0.01087
C 15.8758 6.40005 0.00199
C 15.95136 4.99799 0.01511
C 14.75421 4.26374 -0.00478
C 14.75737 2.8458 -0.01662
C 15.98154 2.17945 -0.01185
C 15.98364 0.73931 0.01126
C 14.72799 34.03453 0.01852
C 17.16446 32.56952 -0.00381
C 18.4287 31.89591 0.03046
C 18.37874 30.49713 0.0296
C 17.14867 29.78938 0.03374
C 17.26464 28.39181 -0.02845
C 17.26107 16.92069 -0.03213
C 17.14841 15.64007 0.02239
C 18.2432 14.69091 0.01153
C 18.34866 13.36109 0.02734
C 19.71963 8.53469 -0.009
C 3.69549 31.96318 -0.00725
C 19.6472 7.07749 -0.01199
C 20.86767 4.99702 -0.00938
C 25.86367 13.40991 0.04185
C 24.65436 12.72199 0.00194
C 24.63477 11.28721 -0.00621
C 25.86617 10.62479 0.02611
C 25.86511 9.12745 0.02198
C 24.65059 8.44704 0.01094
C 24.61006 7.0285 0.00235
C 25.78009 6.28715 0.01495
C 25.91831 32.05609 0.02316
C 25.77274 4.89728 0.01259
C 24.5653 2.83798 0.01699
C 25.83129 2.13654 -0.00416
C 25.81938 0.73433 0.01177
C 24.62827 34.07404 0.04266
C 27.11367 32.79657 0.01324
C 28.30016 32.11356 0.0014
C 28.41716 30.65539 0.00924
C 28.3979 13.31701 0.02326
C 24.51422 4.23229 0.01799
C 24.68314 32.51547 0.01257
C 22.09789 0.1015 0.00152
C 23.36196 0.76103 -0.00294
C 19.58773 4.29082 -0.0264
C 19.59434 2.9284 -0.01154
C 20.83874 2.22507 0.00684
C 20.81464 0.72971 -0.01052
C 19.62794 34.07414 -0.01679
C 22.10713 32.79571 0.00367
C 23.3925 32.19301 0.04306
C 23.3656 13.35187 0.00996
C 22.15109 12.86931 0.00195
C 22.12419 11.34594 -0.00802
C 23.43472 10.63061 -0.00218
C 23.31558 9.13231 -0.01654
C 22.15669 8.46206 -0.00037
C 22.15931 7.07979 -0.0032
C 23.3907 6.36999 0.00622
C 23.33075 4.95661 -0.02815
C 22.07411 4.27008 -0.00942
C 22.12665 2.85492 0.00487
C 23.33083 2.13852 0.00826
C 20.84117 6.42422 -0.00229
C 2.44272 32.7143 0.02322
