366
Graphene
C 34.37825 0.03908 0.01295
C 10.98182 10.72521 0.00374
C 11.16414 9.32522 0.00052
C 9.86564 8.51656 -0.03682
C 9.87317 7.16035 0.01965
C 11.08825 6.41889 0.02058
C 11.07406 5.01413 -0.01957
C 9.86781 4.32268 -0.0108
C 9.77034 2.88771 -0.00368
C 9.78844 11.33434 -0.02813
C 10.98279 2.15688 -0.02696
C 9.7991 34.05865 0.00228
C 12.22348 32.73441 0.00798
C 13.51647 31.96239 0.00422
C 13.49458 30.57942 0.0351
C 12.26744 29.84254 -0.03113
C 12.18497 28.41243 0.02098
C 13.51009 27.77101 0.01848
C 13.5156 26.33036 -0.00619
C 10.97093 0.76569 -0.00114
C 9.72184 12.76081 -0.01952
C 10.8839 13.40045 0.05265
C 10.95312 14.78214 -0.01717
C 8.58309 0.77962 -0.02971
C 7.39198 0.04488 0.02894
C 9.80927 32.64816 -0.01789
C 11.03574 31.98841 0.00444
C 11.04733 30.57969 -0.00925
C 9.83306 29.85875 0.01877
C 9.76982 28.45878 0.01363
C 10.93988 27.69295 -0.02162
C 11.04253 26.29225 0.00415
C 9.8595 25.56038 -0.0014
C 9.81622 24.1564 0.02162
C 11.10897 23.40683 0.0076
C 11.16492 21.93253 0.01241
C 9.85061 21.35265 -0.01454
C 9.91891 19.89612 0.01945
C 11.26905 19.14088 0.01416
C 11.26112 17.71375 0.03542
C 9.85241 17.05043 0.02299
C 9.83989 15.64471 0.00244
C 12.27336 25.69724 -0.02162
C 12.23143 24.29147 0.00889
C 13.42159 23.45222 -0.00481
C 13.51529 21.99887 0.00979
C 15.87144 23.58787 -0.00111
C 15.94516 22.12829 -0.03557
C 14.75444 21.46143 0.03754
C 14.95069 19.98617 0.01739
C 15.9797 4.82181 0.00755
C 14.81463 4.24073 -0.0054
C 14.8171 2.80155 0.00667
C 16.03521 2.10789 0.00143
C 16.07997 0.73563 -0.017
C 14.80761 0.01725 0.00364
C 17.13596 32.6017 -0.00831
C 18.40777 31.91001 -0.02957
C 18.40945 30.43246 -0.04422
C 17.22829 29.71632 0.00654
C 17.16179 28.39046 -0.00703
C 18.43458 27.68 -0.04076
C 18.47179 26.22864 -0.00652
C 17.25571 25.52861 0.0058
C 17.1597 24.13968 -0.00865
C 14.65827 24.12888 0.04892
C 8.55815 2.21559 0.00165
C 14.7029 25.54032 0.01452
C 15.9656 27.60729 0.02691
C 12.34734 21.13716 0.01443
C 12.53621 19.84878 0.03505
C 13.92644 19.15884 -0.02815
C 13.62264 17.88251 -0.04147
C 12.43017 17.07518 -0.05302
C 12.21706 8.52859 0.00213
C 12.31694 7.12491 -0.00066
C 13.68092 6.38693 -0.00289
C 13.51837 5.03502 0.00028
C 12.25423 4.30421 -0.02213
C 12.24363 2.86926 0.03698
C 13.49916 2.13981 -0.00109
C 13.5052 0.71967 -0.00491
C 12.22851 0.03095 0.03338
C 14.77953 32.65258 -0.0258
C 15.95317 31.9524 -0.0331
C 16.00997 30.41725 -0.00316
C 14.70703 29.76546 0.02188
C 14.69134 28.43523 -0.01979
C 15.97262 26.23715 -0.01581
C 7.34485 2.89182 0.02819
C 7.3849 4.29714 -0.00891
C 8.60578 5.08198 -0.01046
C 3.62318 6.46941 -0.00049
C 3.55376 5.10243 0.00848
C 2.3514 4.33253 -0.01303
C 2.37939 2.87967 -0.01378
C 3.57358 2.21981 0.02635
C 3.61394 0.71945 0.0127
C 2.38258 0.06273 0.01396
C 4.82616 32.69462 0.01849
C 6.07977 32.01788 -0.01142
C 6.11343 30.58758 -0.00562
C 4.90724 29.85717 -0.00494
C 4.93718 28.47696 0.00054
C 6.12611 27.734 0.03007
C 6.08668 26.29746 -0.00095
C 4.83338 25.64938 0.01572
C 4.8993 24.14887 -0.04848
C 6.11523 23.47095 -0.00892
C 6.19476 22.04643 -0.01362
C 4.99734 21.28908 -0.0008
C 2.39227 7.1958 0.00873
C 4.94818 19.96312 0.0288
C 2.37965 8.69555 0.01227
C 3.61447 10.73015 -0.00966
C 3.63986 30.56306 -0.00074
C 2.35688 29.86077 -0.00518
C 2.36879 28.53424 0.0086
C 3.61952 27.8389 -0.00643
C 3.65123 26.38576 0.017
C 2.461 25.66863 -0.03113
C 2.4375 24.10274 -0.02566
C 3.70038 23.41796 -0.00094
C 3.67526 22.05741 0.02322
C 2.44126 21.38291 -0.00725
C 2.40023 19.95518 -0.05697
C 3.73386 19.28555 0.01087
C 3.6118 17.84832 -0.01343
C 2.49732 17.20169 0.00988
C 2.49039 15.6921 0.0276
C 3.75729 14.98965 0.01305
C 3.70081 13.54511 -0.00077
C 2.32391 12.86298 0.03368
C 2.30954 11.49061 -0.02929
C 3.54983 9.35525 -0.03337
C 18.30406 23.39647 0.00675
C 6.22581 19.20119 0.00393
C 4.93931 17.09159 0.00685
C 7.37747 25.65655 0.01364
C 7.35251 24.16954 -0.01062
C 8.52385 23.40816 -0.00033
C 8.60134 22.04578 0.03589
C 7.424 21.27701 -0.02759
C 7.49679 19.82098 0.0402
C 8.74181 19.15713 0.00572
C 8.60541 17.73924 0.03592
C 7.38902 17.05899 0.00406
C 7.35219 15.65492 0.00943
C 8.58889 15.0283 0.02841
C 8.4771 13.57346 -0.01111
C 7.28927 12.76301 -0.01275
C 7.29874 11.39108 0.00985
C 8.49479 10.58189 -0.02245
C 8.62483 9.1751 -0.00428
C 7.35032 8.50553 0.03101
C 7.37018 7.15458 -0.01536
C 8.68667 6.47287 -0.02689
C 8.6154 26.31264 -0.00719
C 6.15168 17.78008 0.00895
C 8.56355 27.76296 0.01641
C 7.33434 29.90554 -0.00334
C 4.97256 15.64776 0.02888
C 6.18726 14.95103 -0.00482
C 6.13578 13.48217 -0.01384
C 4.86288 12.80831 0.03693
C 4.86855 11.37301 0.01745
C 6.07279 10.68017 0.00488
C 6.05162 9.25103 -0.01004
C 4.82749 8.56064 -0.02896
C 4.8507 7.13966 -0.00131
C 6.12154 6.39351 -0.01118
C 6.16371 5.00747 -0.014
C 4.80364 4.37878 0.02147
C 4.85824 2.96222 0.00373
C 6.09176 2.17901 -0.00191
C 6.07375 0.75685 0.00438
C 4.86891 0.05802 0.01291
C 7.34342 32.67148 0.00093
C 8.61704 31.9863 0.00057
C 8.62599 30.53808 -0.01634
C 7.34924 28.46212 0.02339
C 18.3422 21.87523 -0.00311
C 17.0085 21.14937 0.00742
C 16.39759 19.92614 -0.01594
C 30.65538 5.04375 0.00307
C 29.44587 4.3717 0.00346
C 29.43707 2.89308 0.01713
C 30.6943 2.17386 -0.01694
C 30.61637 0.74205 0.01428
C 29.41038 0.02551 -0.02142
C 31.92546 32.67456 0.0544
C 33.12575 31.9785 0.00026
C 33.14814 30.61039 0.00682
C 31.88899 29.87701 -0.01779
C 31.98874 28.4801 0.03794
C 33.19687 27.76074 0.01927
C 33.23121 26.37509 0.01574
C 31.98471 25.59206 -0.02383
C 32.00805 24.10933 -0.01429
C 33.21061 23.47682 -0.0136
C 33.19523 22.01775 0.00594
C 31.9931 21.27961 -0.02474
C 31.88833 19.8792 0.00369
C 30.66452 6.48345 0.00716
C 33.17558 19.13249 0.00455
C 29.39702 7.11592 0.02108
C 30.56472 9.51804 0.07705
C 30.6939 31.97573 0.03265
C 30.71832 30.61569 -0.02049
C 29.48499 29.84683 -0.01854
C 29.50046 28.36654 -0.01415
C 30.74723 27.66612 -0.03039
C 30.71424 26.27761 0.01836
C 29.52086 25.58005 0.03531
C 29.48362 24.164 -0.00669
C 30.78571 23.46828 0.0101
C 30.76624 21.98027 0.01705
C 29.50402 21.22024 -0.0405
C 29.5283 19.80201 -0.01303
C 30.76061 19.07906 -0.01461
C 30.80882 17.6448 -0.02155
C 29.56012 17.04246 -0.00944
C 29.56322 15.5146 -0.03735
C 30.53045 14.45446 -0.00971
C 29.5647 12.91995 0.01518
C 29.60653 11.37504 0.01908
C 29.52278 8.64489 0.0103
C 29.49807 32.68056 0.00261
C 33.1944 17.57124 -0.00644
C 31.96252 15.10396 0.00137
C 34.39728 19.84393 0.01951
C 1.24958 19.14987 -0.01678
C 1.22392 17.71879 0.01223
C 0.0455 16.98481 0.00648
C 34.4168 15.52213 0.02114
C 1.23371 15.04182 -0.02957
C 1.11724 13.64294 0.00343
C 34.09444 13.0701 -0.02656
C 34.1368 11.56558 -0.02442
C 1.04197 10.83713 -0.00027
C 1.14572 9.46462 -0.00583
C 34.35816 8.7239 -0.02302
C 34.37213 7.16479 -0.02849
C 1.27581 6.49528 0.02931
C 1.19298 5.05666 0.00628
C 34.31967 4.3662 -0.0345
C 34.40359 2.92032 -0.00931
C 1.13453 2.14091 -0.00939
C 1.14525 0.76099 -0.00468
C 34.40913 21.29131 -0.02213
C 31.99929 16.6974 -0.01839
C 1.21689 22.06333 0.02712
C 0.00692 24.17573 0.03076
C 33.40889 14.41599 0.00199
C 33.20827 9.51046 0.04381
C 31.87581 8.95323 0.02806
C 31.85371 7.32456 0.01504
C 33.06491 6.54948 -0.00069
C 33.09704 5.10988 0.04926
C 31.90028 4.30677 -0.03838
C 31.93569 2.84165 0.00349
C 33.20535 2.15008 -0.00323
C 33.17913 0.73997 -0.00841
C 31.91519 0.02026 0.0001
C 34.398 32.70185 -0.02927
C 1.19218 31.99562 -0.01404
C 1.1511 30.6292 0.01027
C 34.35779 29.86104 0.01831
C 0.00491 28.4343 -0.01037
C 1.18194 27.74318 -0.00439
C 1.21323 26.27057 -0.00598
C 0.04791 25.56871 -0.05239
C 1.21443 23.48005 0.00723
C 3.60632 31.9581 0.01465
C 27.01022 34.03812 0.02326
C 28.25352 2.14466 0.0014
C 23.3399 31.88593 0.02734
C 23.36538 30.43369 -0.0055
C 22.11689 29.72531 0.01515
C 22.084 28.2186 -0.00225
C 23.38095 27.57001 0.00071
C 23.3568 26.16143 -0.01107
C 22.08206 25.50363 -0.01586
C 22.10562 24.06218 -0.01971
C 23.35087 23.37395 -0.02118
C 23.35986 22.01761 0.00733
C 22.18318 21.12787 -0.00178
C 22.83333 19.79199 0.00768
C 23.21324 4.68092 -0.0276
C 21.97761 4.10212 0.03005
C 22.06772 2.67295 -0.04078
C 23.28061 2.04219 0.02117
C 23.2738 0.64393 0.02737
C 22.05606 34.0432 -0.00498
C 24.53047 32.58328 0.00135
C 22.03057 32.61018 0.01153
C 25.78335 31.86778 0.03102
C 19.60594 33.95665 0.02239
C 20.88205 1.9701 -0.02845
C 17.19337 4.1549 0.0106
C 17.23475 2.82336 -0.01154
C 18.40981 2.05705 -0.01721
C 18.40242 0.64958 -0.02422
C 17.23994 0.02177 0.01277
C 19.60475 32.62605 0.00096
C 20.83298 31.8247 -0.01527
C 20.92055 30.41168 0.01087
C 19.69793 29.80394 0.00199
C 19.63475 28.36815 0.01511
C 20.83392 27.59626 -0.00478
C 20.84534 26.14277 -0.01662
C 19.67339 25.42719 -0.01185
C 19.57322 24.05922 0.01126
C 20.91442 23.32776 0.01852
C 20.89015 21.71753 -0.00381
C 19.60255 21.23541 0.03046
C 19.65766 4.25428 0.0296
C 19.69839 2.94912 0.03374
C 20.78399 0.60284 -0.03213
C 28.19109 0.79115 0.00924
C 25.7749 30.52759 0.02555
C 24.62248 28.30466 -0.00285
C 27.10431 24.13207 -0.00294
C 28.29248 23.35853 0.00152
C 28.34474 21.90901 0.01257
C 27.10749 21.24017 0.02316
C 26.94462 19.89477 0.04185
C 28.11091 19.09196 0.00194
C 28.3553 17.58814 -0.00621
C 28.21504 15.16306 0.02611
C 28.18795 13.6158 0.02198
C 27.07242 12.77527 0.01094
C 27.13341 11.41723 0.00235
C 28.29649 10.72002 0.01495
C 28.09858 9.24742 0.01259
C 26.8732 8.54271 0.01799
C 26.76492 7.15541 0.01699
C 28.09396 6.46923 -0.00416
C 28.1434 4.99791 0.01177
C 26.93524 4.26249 0.04266
C 27.014 2.83198 0.01324
C 27.02699 25.51329 0.00826
C 24.56444 29.732 0.01423
C 28.23496 26.23017 0.00487
C 27.04445 28.36983 -0.02815
C 25.75067 27.5693 -0.009
C 25.85602 26.22037 -0.01199
C 24.57215 25.45915 -0.00229
C 24.61095 24.1119 -0.00938
C 25.81504 23.40538 -0.0264
C 25.7811 21.97396 -0.01154
C 24.58823 21.21256 0.00684
C 23.99821 19.96756 -0.01052
C 25.67205 6.38712 -0.01679
C 25.74649 4.96036 0.00367
C 24.47535 4.15181 0.04306
C 24.57196 2.78391 0.00996
C 25.78815 2.08084 0.00195
C 25.84226 0.64814 -0.00802
C 24.58007 34.03241 -0.00218
C 26.97907 32.58249 -0.01654
C 28.2371 31.93107 -0.00037
C 28.20372 30.5116 -0.0032
C 26.98032 29.80924 0.00622
C 28.28121 27.68011 -0.00942
C 2.39237 32.74303 -0.03996
