388
Graphene
C 34.42695 0.04951 0.01295
C 9.89041 4.29722 -0.02162
C 9.83164 2.89113 0.00415
C 11.01556 2.18085 -0.0014
C 11.06791 0.73662 0.02162
C 9.86622 0.07442 0.0076
C 12.29264 32.67285 0.01241
C 13.46221 31.92819 -0.01454
C 13.45975 30.44682 0.01945
C 12.2787 29.7156 0.01416
C 11.06625 4.97053 0.01363
C 12.35413 28.37707 0.03542
C 13.56666 26.24697 0.00244
C 12.35733 25.53768 -0.01717
C 12.32985 24.17044 0.05265
C 13.56637 23.46876 -0.01952
C 13.54066 21.96173 -0.02813
C 12.27451 21.22384 0.00374
C 12.27617 19.80986 0.00052
C 13.51737 19.03598 -0.03682
C 13.48211 17.66046 0.01965
C 13.49686 27.69188 0.02299
C 12.27265 17.01349 0.02058
C 10.9999 6.44182 0.01877
C 9.78605 8.6358 0.00444
C 9.87629 29.90403 0.00572
C 9.88267 28.43403 0.03592
C 11.10525 27.71011 0.00406
C 11.09829 26.30273 0.00943
C 9.79887 25.57842 0.02841
C 9.86549 24.1823 -0.01111
C 11.1216 23.45923 -0.01275
C 11.08944 22.09753 0.00985
C 9.85915 21.28221 -0.02245
C 9.80838 7.22944 -0.00925
C 9.82521 19.79569 -0.00428
C 11.10807 17.74416 -0.01536
C 9.88917 17.0686 -0.02689
C 9.91643 15.59505 -0.01046
C 11.05696 14.86091 -0.00891
C 11.06411 13.47392 0.02819
C 9.84798 12.74467 0.00165
C 9.78563 11.33937 -0.02971
C 11.09259 10.66856 0.02894
C 11.13168 9.23063 -0.01789
C 11.03282 19.13252 0.03101
C 12.29589 15.60638 -0.01957
C 13.48121 14.98692 -0.0108
C 13.5319 13.56307 -0.00368
C 14.76258 19.83338 -0.00109
C 16.00337 19.15268 -0.00491
C 16.0313 17.73296 0.03338
C 14.73 17.01551 -0.0258
C 14.72231 15.66664 -0.0331
C 15.98693 14.92862 -0.00316
C 16.05134 13.53177 0.02188
C 14.78214 12.86635 -0.01979
C 14.79791 11.35284 0.02691
C 14.78377 21.25526 0.03698
C 15.97633 10.64878 -0.01581
C 14.77686 8.49541 0.04892
C 14.68244 7.0527 -0.00111
C 15.96292 6.35312 -0.03557
C 15.98139 4.88738 0.03754
C 14.78336 4.24568 0.01739
C 14.72035 2.85601 0.00755
C 15.89918 2.11511 -0.0054
C 15.92182 0.7106 0.00667
C 14.6535 0.04705 0.00143
C 15.94984 9.26045 0.01452
C 15.97183 22.00948 -0.02213
C 16.0174 23.38686 0.00028
C 14.80455 24.09243 -0.00289
C 12.32839 12.84251 -0.02696
C 12.31625 11.40309 -0.00114
C 13.5766 10.65793 0.00228
C 13.54583 9.23421 0.00798
C 12.3499 8.44306 0.00422
C 12.23994 7.06865 0.0351
C 13.50589 6.38177 -0.03113
C 13.58724 4.96756 0.02098
C 12.29503 4.30271 0.01848
C 12.22673 2.86317 -0.00619
C 13.462 2.14336 -0.02162
C 13.45313 0.73026 0.00889
C 12.27651 34.06709 -0.00481
C 14.7529 32.67085 0.00979
C 15.98243 31.92735 0.01443
C 15.93455 30.52567 0.03505
C 14.70854 29.77483 -0.02815
C 14.72262 28.34199 -0.04147
C 15.99341 27.63924 -0.05302
C 15.9717 26.24927 0.00213
C 14.79527 25.50612 -0.00066
C 11.11596 30.51381 0.0402
C 17.1871 32.71376 -0.017
C 11.09522 31.94743 -0.02759
C 7.34605 0.08679 -0.00033
C 3.64072 5.01901 0.0086
C 2.47896 4.29431 -0.00643
C 2.48749 2.79913 0.017
C 3.66575 2.13974 -0.03113
C 3.62557 0.73052 -0.02566
C 2.44468 0.00085 -0.00094
C 4.9548 32.69511 0.02322
C 6.15545 32.03891 -0.00725
C 6.16512 30.51314 -0.05697
C 3.65579 6.44206 -0.00518
C 4.95045 29.8058 0.01087
C 6.1948 27.73701 0.00988
C 6.08037 26.3567 0.0276
C 4.91192 25.585 0.01305
C 4.9001 24.16037 -0.00077
C 6.08584 23.42727 0.03368
C 6.10646 22.05732 -0.02929
C 4.94292 21.27606 -0.00966
C 4.96643 19.87045 -0.03337
C 6.15068 19.1856 0.01227
C 4.97555 28.4098 -0.01343
C 6.15364 17.73968 0.00873
C 2.376 7.0779 -0.00074
C 3.65418 9.31104 -0.03996
C 3.69884 30.53453 0.04505
C 2.50657 29.80954 0.03284
C 2.45106 28.39074 -0.04307
C 3.75723 27.68092 0.03189
C 3.6788 26.23237 0.00031
C 2.46933 25.4955 -0.003
C 2.34338 24.12023 0.01402
C 3.6146 23.53463 0.02379
C 3.67227 22.09604 0.00907
C 2.38582 8.53114 0.01465
C 2.47738 21.38776 0.00643
C 3.69456 19.16553 0.03267
C 3.75641 17.7389 0.02374
C 2.48563 17.09873 0.00402
C 2.47899 15.69569 0.0073
C 3.65635 14.88595 0.0174
C 3.63273 13.4459 0.03828
C 2.37377 12.75176 0.01226
C 2.50603 11.30274 -0.00279
C 3.68535 10.70037 0.01996
C 2.51968 19.9138 -0.01509
C 4.96889 17.09275 -0.00049
C 4.89119 15.6413 0.00848
C 6.11562 14.89499 -0.01303
C 7.43839 21.30588 0.00488
C 7.40697 19.90888 -0.01004
C 8.54607 19.06098 -0.02896
C 8.5703 17.66401 -0.00131
C 7.33392 17.04179 -0.01118
C 7.38554 15.58447 -0.014
C 8.64987 14.93445 0.02147
C 8.61278 13.52539 0.00373
C 7.35632 12.82706 -0.00191
C 8.6555 21.99671 0.01745
C 7.32049 11.44158 0.00438
C 8.55023 9.31602 0.00093
C 7.40848 8.54774 0.00057
C 7.37811 7.07814 -0.01634
C 8.60693 6.42403 -0.00334
C 8.67929 5.00842 0.02339
C 7.37926 4.29916 0.01641
C 7.32865 2.89815 -0.00719
C 8.62212 2.17417 0.01364
C 8.61658 0.74725 -0.01062
C 8.58291 10.70159 0.01291
C 8.61228 23.47117 0.03693
C 7.33406 24.25998 -0.01384
C 7.2571 25.64026 -0.00482
C 6.13825 13.49061 -0.01378
C 4.84158 12.81281 0.02635
C 4.94277 11.37881 0.0127
C 6.18046 10.67891 0.01396
C 6.17933 9.20602 0.01849
C 4.86359 8.60031 -0.01142
C 4.90903 7.2034 -0.00562
C 6.13523 6.43361 -0.00494
C 6.06938 4.96971 0.00054
C 4.85975 4.28232 0.03007
C 4.89821 2.83573 -0.00095
C 6.17781 2.14258 0.01572
C 6.09148 0.76649 -0.04848
C 4.82458 0.03641 -0.00892
C 7.43528 32.74951 -0.01362
C 8.61156 31.91877 -0.0008
C 8.58272 30.54977 0.0288
C 7.34762 29.80229 0.00393
C 7.37654 28.43352 0.00895
C 8.58667 27.73502 0.00685
C 8.49568 26.33088 0.02888
C 9.81608 32.66787 0.03589
C 18.40193 31.92138 0.00364
C 18.41307 30.55536 -0.00831
C 17.15317 29.84034 -0.02957
C 30.71611 6.44506 0.07705
C 30.76678 4.98146 0.0103
C 29.51399 4.20678 0.02108
C 29.49309 2.83444 0.00716
C 30.76486 2.14603 0.00307
C 30.75413 0.73094 0.00346
C 29.50588 34.05962 0.01713
C 31.9785 32.65322 -0.01694
C 33.18827 31.92524 0.01428
C 29.42816 7.15544 0.01908
C 33.25713 30.51423 -0.02142
C 31.99538 28.30847 0.00026
C 33.23241 27.62871 0.00682
C 33.23652 26.27625 -0.01779
C 31.99341 25.547 0.03794
C 31.97049 24.12504 0.01927
C 33.19677 23.43328 0.01574
C 33.14499 22.00953 -0.02383
C 31.96593 21.26492 -0.01429
C 32.10542 20.12189 -0.0136
C 31.99167 29.72598 0.0544
C 33.20357 19.12524 0.00594
C 29.50165 8.59553 0.01518
C 30.72907 10.70102 -0.03735
C 27.12175 7.06861 0.01324
C 28.27178 6.36387 0.0014
C 28.30064 4.92453 0.00924
C 26.98973 4.23481 0.02326
C 27.00822 2.81729 0.00261
C 28.23354 2.12141 0.03265
C 28.21971 0.75152 -0.02049
C 26.96974 34.07674 -0.01854
C 29.53315 32.57868 -0.01415
C 30.76155 9.26864 -0.00971
C 30.7325 31.95162 -0.03039
C 29.57305 29.75433 0.03531
C 29.49549 28.31303 -0.00669
C 30.78021 27.64709 0.0101
C 30.77601 26.24066 0.01705
C 29.43942 25.51646 -0.0405
C 29.64908 24.0953 -0.01303
C 30.69457 23.53925 -0.01461
C 30.71184 13.51948 -0.02155
C 29.43776 11.42733 -0.00944
C 30.76627 30.53223 0.01836
C 33.30055 17.78407 -0.02474
C 31.95506 15.63481 0.00369
C 33.17224 14.93933 0.00455
C 0.00056 21.30231 -0.02213
C 0.08316 19.91014 0.01951
C 1.25264 19.15262 -0.01678
C 1.25276 17.72638 0.01223
C 34.40577 17.08911 0.00648
C 0.03748 15.64184 0.02114
C 1.24913 14.98119 -0.02957
C 1.17149 13.40827 0.00343
C 34.38736 12.76972 -0.02656
C 1.21233 22.02714 0.02712
C 0.0331 11.32581 -0.02442
C 1.11744 9.19114 -0.00583
C 34.32408 8.51786 -0.02302
C 34.39127 7.06611 -0.02849
C 1.17264 6.35852 0.02931
C 1.22789 4.92508 0.00628
C 34.40964 4.32203 -0.0345
C 0.00282 2.88783 -0.00931
C 1.21959 2.12553 -0.00939
C 1.20042 0.7177 -0.00468
C 1.19147 10.57655 -0.00027
C 1.10634 23.41916 0.00723
C 34.3946 24.16727 0.03076
C 0.04281 25.5284 -0.05239
C 33.17693 13.48109 -0.00644
C 31.89975 12.86183 -0.01839
C 31.9662 11.44326 0.00137
C 33.18613 10.73603 0.00199
C 33.14566 9.27496 0.04381
C 31.92467 8.5642 0.02806
C 31.98407 7.12242 0.01504
C 33.18606 6.3853 -0.00069
C 33.19328 4.98503 0.04926
C 31.94702 4.24747 -0.03838
C 31.95729 2.81159 0.00349
C 33.19836 2.19562 -0.00323
C 33.19344 0.79623 -0.00841
C 31.9824 34.04931 0.0001
C 34.40994 32.66064 -0.02927
C 1.19458 31.93654 -0.01404
C 1.25266 30.54603 0.01027
C 0.07195 29.8068 0.01831
C 34.38848 28.32202 -0.01037
C 1.17026 27.70192 -0.00439
C 1.2591 26.26005 -0.00598
C 27.0161 8.45243 0.04266
C 28.24131 9.25292 0.01177
C 28.43815 10.65349 -0.00416
C 27.08786 25.56341 0.01699
C 17.19791 0.04427 0.01852
C 19.66242 32.63287 -0.00381
C 20.89672 31.85882 0.03046
C 20.87105 30.45514 0.0296
C 19.64295 29.81179 0.03374
C 19.69767 28.38498 -0.02845
C 21.01559 27.75981 -0.03213
C 20.88989 26.24633 0.02239
C 19.63748 25.48911 0.01153
C 18.38005 0.69655 0.01126
C 19.70938 24.11441 0.02734
C 19.64018 11.37956 0.01515
C 20.93701 10.68394 -0.00225
C 20.92416 9.21303 0.00071
C 19.57381 8.50584 -0.01107
C 19.6169 7.05607 -0.01586
C 20.9265 6.37845 -0.01971
C 20.90466 4.96987 -0.02118
C 19.69493 4.17784 0.00733
C 19.67119 2.80801 -0.00178
C 19.70844 12.73964 -0.0055
C 18.4416 2.08407 -0.01185
C 17.21556 2.74958 -0.01662
C 17.19221 4.17973 -0.00478
C 17.21155 28.41364 -0.04422
C 18.50002 27.6028 0.00654
C 18.48904 26.24031 -0.00703
C 17.17352 25.51449 -0.04076
C 17.21033 24.11037 -0.00652
C 18.51573 23.35836 0.0058
C 18.44357 22.00593 -0.00865
C 17.32445 21.23758 0.00675
C 17.10852 19.85549 -0.00311
C 17.18211 17.06543 0.00742
C 17.33723 15.67557 -0.01594
C 18.52919 14.93668 0.0106
C 18.57745 13.55307 -0.01154
C 17.25485 12.79821 -0.01721
C 17.2622 11.30676 -0.02422
C 18.42564 10.64647 0.01277
C 18.43527 9.27332 0.00096
C 17.16722 8.56451 -0.01527
C 17.1381 7.13295 0.01087
C 18.3853 6.39006 0.00199
C 18.40971 4.9647 0.01511
C 20.93532 2.13468 0.00768
C 3.70192 31.9621 -0.04999
C 20.88955 0.71571 -0.0276
C 22.14228 32.61425 -0.04078
C 25.85284 26.25345 -0.0032
C 24.67691 25.62069 0.00622
C 25.94865 10.5416 -0.02815
C 25.78129 9.21347 -0.00942
C 24.57619 8.48375 0.00487
C 24.6142 7.08143 0.00826
C 25.91183 6.37921 -0.00294
C 25.8275 5.02608 0.00152
C 24.56122 4.23967 0.01257
C 25.82553 27.73674 -0.00037
C 24.51371 2.85714 0.02316
C 25.71677 0.72606 0.00194
C 24.50951 34.05719 -0.00621
C 27.02437 32.64771 0.02611
C 28.29944 31.87316 0.02198
C 28.2243 30.47191 0.01094
C 27.01693 29.78024 0.00235
C 27.01798 28.41361 0.01495
C 28.20606 27.65386 0.01259
C 28.22409 26.27399 0.01799
C 25.72918 2.14563 0.04185
C 24.60057 28.37269 -0.01654
C 24.58176 29.79303 -0.00218
C 25.83047 30.45709 -0.00802
C 23.37671 31.93225 0.02117
C 23.36769 30.54027 0.02737
C 22.13958 29.84353 -0.00498
C 22.26092 28.46758 0.00135
C 23.38451 27.70317 0.03102
C 23.33016 26.0962 0.02555
C 22.03584 25.53885 0.01423
C 22.20972 11.3493 -0.00285
C 23.20228 10.68708 -0.009
C 23.39093 9.27953 -0.01199
C 22.20162 8.56884 -0.00229
C 22.13432 7.14392 -0.00938
C 23.3662 6.37482 -0.0264
C 23.31271 4.91798 -0.01154
C 22.13396 4.26318 0.00684
C 22.1278 2.87576 -0.01052
C 23.24796 2.10571 -0.01679
C 23.31567 0.65396 0.00367
C 22.06975 34.02745 0.04306
C 24.5767 32.65636 0.00996
C 25.82001 31.9285 0.00195
C 19.70171 34.03497 0.03005
C 2.42263 32.71737 -0.03291
