287
Graphene
C 34.30423 0.08975 0.01295
C 7.34081 2.87007 0.00364
C 8.65196 2.09379 -0.00831
C 8.62726 0.72014 -0.02957
C 7.32933 0.06824 -0.04422
C 9.85697 32.64022 0.00654
C 11.11063 31.85378 -0.00703
C 7.30369 4.24637 -0.017
C 11.17467 30.36594 -0.04076
C 9.83375 28.54287 0.0058
C 11.26036 28.03713 -0.00865
C 11.08467 26.51064 0.00675
C 10.09153 25.60248 -0.00311
C 10.08918 24.10452 0.00742
C 11.1756 23.18505 -0.01594
C 9.75565 29.84161 -0.00652
C 11.14872 21.71293 0.0106
C 8.54747 4.97516 0.00143
C 7.36205 7.1829 -0.0054
C 8.55506 22.10876 -0.0258
C 7.38353 21.27361 -0.0331
C 7.27456 19.82673 -0.00316
C 8.45176 19.16175 0.02188
C 8.57639 17.69586 -0.01979
C 7.32042 17.0551 0.02691
C 8.51744 6.43174 0.00667
C 7.30882 15.65055 -0.01581
C 8.61701 13.53592 0.04892
C 7.39138 12.84206 -0.00111
C 7.34823 11.43427 -0.03557
C 8.58492 10.7555 0.03754
C 8.52157 9.30948 0.01739
C 7.28885 8.55569 0.00755
C 8.63799 14.93365 0.01452
C 8.74272 23.46945 0.03338
C 9.81659 21.27585 -0.01154
C 10.95157 19.17429 -0.02422
C 12.36449 32.57888 0.01153
C 13.62761 32.13027 0.02734
C 11.95322 29.14588 -0.0055
C 12.06866 20.04687 0.01515
C 13.3955 19.36358 -0.00225
C 13.77266 17.90671 0.00071
C 9.80279 34.05857 0.02239
C 12.44364 17.17461 -0.01107
C 13.60042 15.02753 -0.01971
C 13.52746 13.58833 -0.02118
C 12.26991 12.88726 0.00733
C 12.31439 11.4388 -0.00178
C 13.47625 10.69481 0.00768
C 13.48457 9.23595 -0.0276
C 12.40176 15.75088 -0.01586
C 9.70245 19.83453 -0.01721
C 11.02774 0.72295 -0.03213
C 9.84864 2.79615 0.03374
C 11.16062 17.81346 0.01277
C 9.80705 16.93903 0.00096
C 9.9218 15.61429 -0.01527
C 11.1904 14.99126 0.01087
C 11.0623 13.63284 0.00199
C 9.84433 12.90616 0.01511
C 11.05369 2.16058 -0.02845
C 9.86534 11.43199 -0.00478
C 11.01172 9.3515 -0.01185
C 9.78492 8.66314 0.01126
C 9.80569 7.15108 0.01852
C 11.08391 6.49327 -0.00381
C 11.03859 4.96485 0.03046
C 9.83938 4.21475 0.0296
C 11.06296 10.71769 -0.01662
C 12.23626 8.60606 0.03005
C 7.47425 24.20155 -0.00491
C 8.77152 26.31264 0.03698
C 2.4053 11.36051 0.01877
C 3.64372 10.6762 0.01363
C 3.61207 9.28503 -0.02162
C 2.37942 8.58594 0.00415
C 2.46058 7.2207 -0.0014
C 3.6432 6.44082 0.02162
C 2.40713 12.77454 -0.00925
C 3.61014 4.98095 0.0076
C 2.34927 2.83059 -0.01454
C 3.60579 2.1416 0.01945
C 3.58978 0.6898 0.01416
C 2.30954 0.06649 0.03542
C 4.9249 32.66405 0.02299
C 6.12236 31.84663 0.00244
C 2.3362 4.33425 0.01241
C 6.18788 30.48323 -0.01717
C 3.61061 13.55812 0.00444
C 2.37495 15.60437 0.02894
C 3.64543 30.61043 0.02841
C 2.45842 29.87994 -0.01111
C 2.34569 28.50385 -0.01275
C 3.60592 27.69253 0.00985
C 3.64904 26.29156 -0.02245
C 2.35492 25.60416 -0.00428
C 3.63712 14.95986 -0.01789
C 2.47354 24.21075 0.03101
C 3.66422 22.0271 -0.02689
C 2.35345 21.37409 -0.01046
C 2.37823 19.82698 -0.00891
C 3.66448 19.11646 0.02819
C 3.60572 17.73083 0.00165
C 2.31966 17.03887 -0.02971
C 3.74973 23.47908 -0.01536
C 7.48834 25.56766 -0.00109
C 4.92778 29.86103 0.05265
C 6.11529 27.67952 -0.02813
C 4.83766 7.10104 -0.02162
C 6.07553 6.35835 0.00889
C 6.07506 4.94399 -0.00481
C 4.79715 4.27894 0.00979
C 4.83812 2.908 0.01443
C 6.05559 2.17548 0.03505
C 4.80616 8.56698 -0.00619
C 6.08716 0.79632 -0.02815
C 7.39819 32.69165 -0.05302
C 8.58523 32.02105 0.00213
C 8.53265 30.61989 -0.00066
C 7.43831 29.87756 -0.00289
C 7.41107 28.34367 0.00028
C 8.64944 27.74384 -0.02213
C 4.84692 0.0691 -0.04147
C 4.91326 28.46317 -0.01952
C 6.02943 9.27047 0.01848
C 4.85467 11.42814 -0.03113
C 6.18195 26.30365 0.00374
C 5.00574 25.58633 0.00052
C 5.06073 24.11031 -0.03682
C 6.28603 23.43184 0.01965
C 6.21501 22.00048 0.02058
C 4.88619 21.31019 -0.01957
C 6.1234 10.78463 0.02098
C 4.896 19.86032 -0.0108
C 6.07025 17.76292 -0.02696
C 4.85437 17.07625 -0.00114
C 4.86477 15.66132 0.00228
C 6.12139 14.96126 0.00798
C 6.11223 13.51917 0.00422
C 4.8593 12.80573 0.0351
C 6.10054 19.13732 -0.00368
C 3.65105 31.95952 0.00943
C 12.22234 7.19167 -0.04078
C 13.47031 5.06893 0.02737
C 33.2787 23.45933 -0.0136
C 33.15682 22.06572 0.00594
C 31.95738 21.24607 -0.02474
C 33.22747 19.2243 0.00369
C 33.08529 17.93546 0.00455
C 33.20383 14.7329 -0.00644
C 31.93015 24.0233 -0.01429
C 33.14971 13.39619 -0.01839
C 33.12552 10.70056 0.00199
C 33.13932 9.23295 0.04381
C 31.89042 8.62042 0.02806
C 31.88062 7.15891 0.01504
C 33.13875 6.48077 -0.00069
C 33.00397 5.08373 0.04926
C 31.82912 11.44512 0.00137
C 31.84524 4.34873 -0.03838
C 31.79355 25.33718 -0.02383
C 32.92318 27.72568 0.01927
C 29.66553 8.61178 0.0103
C 29.44463 7.24222 0.02108
C 30.67482 6.39311 0.00716
C 30.59298 5.01571 0.00307
C 29.36356 4.25037 0.00346
C 29.39143 2.80782 0.01713
C 32.96806 26.21036 0.01574
C 30.6374 2.16053 -0.01694
C 29.46425 34.05422 -0.02142
C 31.96139 32.68513 0.0544
C 33.20189 32.03486 0.00026
C 33.10667 30.63854 0.00682
C 31.96357 29.89414 -0.01779
C 31.92759 28.57736 0.03794
C 30.64806 0.70939 0.01428
C 30.84077 9.49237 0.07705
C 31.93464 2.88293 0.00349
C 33.15666 0.84776 -0.00841
C 1.12823 14.89026 -0.02957
C 1.1692 13.43783 0.00343
C 34.35909 12.73325 -0.02656
C 34.3597 11.42561 -0.02442
C 1.16182 10.71402 -0.00027
C 1.17856 9.2532 -0.00583
C 34.31135 15.55628 0.02114
C 34.36761 8.51216 -0.02302
C 1.17135 6.43832 0.02931
C 1.15204 5.02069 0.00628
C 34.29533 4.30398 -0.0345
C 34.33523 2.8904 -0.00931
C 1.11807 2.13008 -0.00939
C 1.07948 0.74507 -0.00468
C 34.35149 7.13377 -0.02849
C 33.13465 2.21653 -0.00323
C 34.22256 17.0174 0.00648
C 1.12706 19.15191 -0.01678
C 31.93234 0.13213 0.0001
C 34.37012 32.74367 -0.02927
C 1.20126 32.06299 -0.01404
C 1.16701 30.61353 0.01027
C 34.32468 29.85501 0.01831
C 34.2851 28.45691 -0.01037
C 1.04713 17.76626 0.01223
C 1.04893 27.73339 -0.00439
C 34.30042 25.70042 -0.05239
C 34.42128 24.23282 0.03076
C 1.24469 23.56112 0.00723
C 1.1002 22.10231 0.02712
C 34.41902 21.37514 -0.02213
C 34.35516 20.00529 0.01951
C 1.16817 26.33738 -0.00598
C 13.41315 6.45954 0.02117
C 30.93464 22.97 0.01908
C 29.59552 32.64698 -0.00971
C 14.71749 4.30637 0.00195
C 14.69316 2.89695 -0.00802
C 15.92935 2.20923 -0.00218
C 15.98142 0.79537 -0.01654
C 14.74285 0.22777 -0.00037
C 17.23512 11.34673 -0.0032
C 15.89825 5.0397 0.00996
C 18.28074 10.71662 0.00622
C 17.2392 8.50055 -0.00942
C 17.19102 7.07529 0.00487
C 18.4139 6.36153 0.00826
C 18.42054 4.95489 -0.00294
C 17.16167 4.31924 0.00152
C 17.08147 2.94828 0.01257
C 18.56744 9.38604 -0.02815
C 18.28437 2.11025 0.02316
C 15.91391 6.44337 0.04306
C 14.76754 8.48738 -0.01679
C 12.24172 4.33411 -0.00498
C 12.17531 2.93326 0.00135
C 13.46382 2.24099 0.03102
C 13.51981 0.78067 0.02555
C 12.32895 0.00316 0.01423
C 14.71179 32.96879 -0.00285
C 14.68609 7.10045 0.00367
C 14.928 17.19573 -0.009
C 16.04191 14.79767 -0.00229
C 16.02857 13.49341 -0.00938
C 14.71217 12.75999 -0.0264
C 14.76675 11.3264 -0.01154
C 15.94186 10.622 0.00684
C 15.90779 9.21458 -0.01052
C 15.02248 15.75369 -0.01199
C 30.7651 32.00862 0.01518
C 18.24241 0.56202 0.04185
C 19.7578 8.46205 -0.00621
C 25.71998 5.0448 -0.01854
C 24.5621 4.34363 -0.01415
C 24.63893 2.9037 -0.03039
C 25.765 2.16116 0.01836
C 25.77286 0.65064 0.03531
C 24.48393 34.00699 -0.00669
C 25.79534 6.51643 -0.02049
C 27.03924 7.29433 0.0101
C 28.17045 5.04698 -0.0405
C 26.9628 4.29497 -0.01303
C 26.9654 2.86458 -0.01461
C 28.2 2.08852 -0.02155
C 28.18625 0.68461 -0.00944
C 26.96803 34.02252 -0.03735
C 28.20273 6.54267 0.01705
C 17.0607 34.07224 0.00194
C 24.54932 7.12895 0.03265
C 23.30067 0.70422 0.02326
C 19.64429 7.0677 0.02611
C 20.8314 6.29412 0.02198
C 20.83034 4.79736 0.01094
C 19.59735 4.13945 0.00235
C 19.55332 2.77581 0.01495
C 20.77396 2.09155 0.01259
C 22.05339 34.02173 0.00261
C 20.7636 0.57738 0.01799
C 21.92045 7.10969 -0.00416
C 23.23074 6.51393 0.01177
C 23.25605 4.98881 0.04266
C 22.06279 4.19229 0.01324
C 22.09393 2.75294 0.0014
C 23.32113 2.18713 0.00924
C 19.49105 34.01862 0.01699
C 2.42279 32.70731 0.00406
