364
Graphene
C 34.40218 0.00944 0.01295
C 9.69266 2.87561 0.00052
C 10.97599 2.12582 -0.03682
C 11.02002 0.7498 0.01965
C 9.80198 0.0231 0.02058
C 12.18455 32.65313 -0.01957
C 13.46549 31.99309 -0.0108
C 13.57775 30.61495 -0.00368
C 12.28156 29.94385 -0.02696
C 9.81515 4.34161 0.00374
C 12.28196 28.55402 -0.00114
C 12.1383 12.89125 0.00798
C 12.32533 11.44548 0.00422
C 13.58782 10.70463 0.0351
C 13.5114 9.23303 -0.03113
C 12.32852 8.52754 0.02098
C 12.21558 7.11181 0.01848
C 13.46946 6.40275 -0.00619
C 13.55096 4.96205 -0.02162
C 13.59008 27.96927 0.00228
C 11.04025 5.01945 -0.02813
C 10.9743 6.41283 -0.01952
C 9.77291 7.23469 0.05265
C 8.54179 2.17517 0.02894
C 8.60697 0.76953 -0.01789
C 7.253 0.03404 0.00444
C 9.76071 32.62114 -0.00925
C 11.00112 31.91021 0.01877
C 11.02902 30.57361 0.01363
C 9.88057 29.91867 -0.02162
C 9.86953 28.53269 0.00415
C 11.0464 27.80405 -0.0014
C 11.19991 26.33903 0.02162
C 9.9607 25.70834 0.0076
C 9.72507 24.3109 0.01241
C 10.23395 14.99733 -0.01454
C 10.83215 13.58915 0.01945
C 9.78447 12.64273 0.01416
C 9.87417 11.30923 0.03542
C 11.13843 10.63638 0.02299
C 11.1017 9.21978 0.00244
C 9.90043 8.55131 -0.01717
C 12.30734 4.32165 0.00889
C 12.19667 2.88563 -0.00481
C 13.39755 2.09766 0.00979
C 13.43869 0.67309 0.01443
C 18.60586 10.56689 -0.03557
C 18.52406 9.16457 0.03754
C 17.26506 8.4205 0.01739
C 17.17949 7.04844 0.00755
C 18.43738 6.41941 -0.0054
C 18.394 4.97007 0.00667
C 17.15593 4.29215 0.00143
C 17.18347 2.77707 -0.017
C 18.40099 2.04288 0.00364
C 18.41217 0.68223 -0.00831
C 17.14806 34.03346 -0.02957
C 19.63891 32.65855 -0.04422
C 20.79484 31.89223 0.00654
C 20.69732 30.53976 -0.00703
C 19.44829 29.78153 -0.04076
C 19.32777 28.36635 -0.00652
C 20.55726 27.7749 0.0058
C 19.8712 11.17985 -0.00865
C 21.11362 10.91384 0.00675
C 17.0097 28.38547 -0.00111
C 7.32841 2.84902 -0.02971
C 17.09326 29.75521 0.04892
C 18.43636 31.97677 -0.01581
C 12.25548 34.06546 0.03505
C 14.72273 32.755 -0.02815
C 15.88935 31.98978 -0.04147
C 15.92617 30.5591 -0.05302
C 14.76065 29.85702 0.00213
C 14.86562 28.44221 -0.00066
C 14.84252 11.27105 -0.00289
C 15.97049 10.48146 0.00028
C 16.03291 9.15147 -0.02213
C 14.76914 8.52856 0.03698
C 14.67339 7.11837 -0.00109
C 15.84989 6.35839 -0.00491
C 15.90404 4.96502 0.03338
C 14.71224 4.23099 -0.0258
C 14.69676 2.8461 -0.0331
C 15.94216 2.13119 -0.00316
C 15.99685 0.71442 0.02188
C 14.68875 0.07053 -0.01979
C 17.08809 32.69173 0.02691
C 18.37599 30.55522 0.01452
C 21.09762 9.27886 -0.00311
C 7.31543 4.3198 0.00165
C 8.53185 6.5292 -0.00891
C 3.58656 6.42587 -0.01303
C 3.55045 5.06625 -0.01378
C 2.372 4.36106 0.02635
C 2.36335 2.91773 0.0127
C 3.55211 2.25115 0.01396
C 3.63636 0.75107 0.01849
C 2.37788 0.10527 -0.01142
C 4.84855 32.69326 -0.00562
C 2.41397 7.26957 0.00848
C 6.08636 31.9935 -0.00494
C 4.89619 29.88287 0.03007
C 4.86854 28.5133 -0.00095
C 6.15543 27.70777 0.01572
C 6.14134 26.26513 -0.04848
C 4.884 25.65612 -0.00892
C 4.95113 24.17479 -0.01362
C 6.21423 23.50746 -0.0008
C 6.22064 22.12711 0.0288
C 6.15503 30.56567 0.00054
C 2.43942 8.63976 -0.00049
C 3.70952 9.35265 0.00873
C 3.72724 10.75734 0.01227
C 3.63281 30.505 0.0086
C 2.37549 29.89133 -0.00643
C 2.2943 28.4838 0.017
C 3.58136 27.82628 -0.03113
C 3.62749 26.36329 -0.02566
C 2.50247 25.58486 -0.00094
C 2.50035 24.21149 0.02322
C 3.72466 23.4724 -0.00725
C 3.72367 22.00116 -0.05697
C 2.44588 21.36711 0.01087
C 2.49682 19.94603 -0.01343
C 3.74197 19.2908 0.00988
C 3.81546 17.84484 0.0276
C 2.5445 17.12531 0.01305
C 2.50767 15.75208 -0.00077
C 3.69963 14.96182 0.03368
C 3.70442 13.54325 -0.02929
C 2.42176 12.85659 -0.00966
C 2.42202 11.36945 -0.03337
C 5.00503 21.39425 0.00393
C 4.96874 19.92252 0.00895
C 6.18934 19.19822 0.00685
C 6.17927 17.80227 0.02888
C 8.5801 26.41843 -0.01062
C 7.40397 25.703 -0.00033
C 7.42999 24.27849 0.03589
C 8.63568 23.41616 -0.02759
C 8.71827 22.01597 0.0402
C 7.48751 21.36463 0.00572
C 7.47813 19.83791 0.03592
C 8.64148 19.16546 0.00406
C 8.6923 17.82221 0.00943
C 7.5531 17.02467 0.02841
C 7.51342 15.55954 -0.01111
C 8.88621 14.93572 -0.01275
C 8.57748 13.43852 0.00985
C 7.36667 12.79882 -0.02245
C 7.38689 11.39431 -0.00428
C 8.62887 10.62697 0.03101
C 8.63157 9.18057 -0.01536
C 7.30827 8.56424 -0.02689
C 7.26749 7.18403 -0.01046
C 8.63158 27.83274 0.01364
C 8.55805 5.04297 0.02819
C 7.34051 28.52086 -0.00719
C 8.6105 30.65246 0.02339
C 4.99707 17.09296 -0.00482
C 5.03927 15.64117 -0.01384
C 6.24168 14.94278 0.03693
C 6.22267 13.49732 0.01745
C 4.99545 12.83245 0.00488
C 4.96968 11.36395 -0.01004
C 6.12258 10.67614 -0.02896
C 6.06245 9.3137 -0.00131
C 4.9462 8.53879 -0.01118
C 4.84109 7.14525 -0.014
C 6.07611 6.38969 0.02147
C 6.09274 4.99962 0.00373
C 4.75037 4.33974 -0.00191
C 4.77686 2.98018 0.00438
C 6.0147 2.17933 0.01291
C 6.05834 0.74192 0.00093
C 4.84658 0.01344 0.00057
C 7.22706 32.72796 -0.01634
C 8.50341 32.03323 -0.00334
C 7.39798 29.90913 0.01641
C 19.84135 8.54058 0.00742
C 19.70288 7.14705 -0.01594
C 20.92041 6.29283 0.0106
C 29.47911 0.08146 0.00346
C 31.86218 32.63182 0.01713
C 33.10055 32.05608 -0.01694
C 33.06923 30.61668 0.01428
C 31.88604 29.85244 -0.02142
C 31.77758 28.45989 0.0544
C 33.07221 27.71289 0.00026
C 33.10867 26.31635 0.00682
C 30.72605 0.74373 0.00307
C 31.83788 25.59961 -0.01779
C 33.1169 23.42697 0.01927
C 33.11806 22.07441 0.01574
C 31.85563 21.36001 -0.02383
C 31.99513 19.99711 -0.01429
C 33.21562 19.20643 -0.0136
C 33.19373 17.75394 0.00594
C 31.97394 17.05134 -0.02474
C 31.97235 15.65014 0.00369
C 31.8583 24.13847 0.03794
C 30.77528 2.13167 0.00716
C 29.53181 2.86325 0.02108
C 29.56068 4.23155 0.0103
C 29.25342 24.10959 -0.02049
C 30.58942 23.482 -0.01854
C 30.6387 22.07664 -0.01415
C 29.43808 21.27633 -0.03039
C 29.46155 19.84942 0.01836
C 30.79579 19.20459 0.03531
C 30.80074 17.77658 -0.00669
C 29.58227 17.10134 0.0101
C 29.5372 15.72382 0.01705
C 30.6693 14.96035 -0.0405
C 30.67093 13.55235 -0.01303
C 29.40833 12.78644 -0.01461
C 29.52208 11.39 -0.02155
C 30.76153 10.69174 -0.00944
C 30.73872 9.22809 -0.03735
C 29.50425 8.43437 -0.00971
C 29.49053 7.06546 0.01518
C 30.74994 6.40456 0.01908
C 30.74865 4.98271 0.07705
C 33.181 14.95088 0.00455
C 33.17306 13.51185 -0.00644
C 31.96312 12.78787 -0.01839
C 31.988 11.46933 0.00137
C 0.00257 19.86828 0.01951
C 1.32023 19.1756 -0.01678
C 1.28665 17.8271 0.01223
C 0.02159 17.16232 0.00648
C 34.39837 15.63242 0.02114
C 1.21607 15.04907 -0.02957
C 1.24732 13.63295 0.00343
C 34.41454 12.87169 -0.02656
C 34.37807 11.34923 -0.02442
C 1.17924 10.64137 -0.00027
C 1.13431 9.22744 -0.00583
C 34.388 8.53492 -0.02302
C 34.42035 7.09298 -0.02849
C 1.29395 6.42242 0.02931
C 1.19191 5.02385 0.00628
C 34.4177 4.28177 -0.0345
C 34.29571 2.84823 -0.00931
C 1.06743 2.1927 -0.00939
C 1.14956 0.83392 -0.00468
C 34.4291 21.32248 -0.02213
C 29.41214 25.49793 0.03265
C 1.20165 22.03461 0.02712
C 0.01645 24.1448 0.03076
C 33.21432 10.64533 0.00199
C 33.2002 9.26016 0.04381
C 31.94755 8.51943 0.02806
C 31.97126 7.13493 0.01504
C 33.21429 6.43305 -0.00069
C 33.20381 5.05916 0.04926
C 31.9783 4.32026 -0.03838
C 31.9697 2.95394 0.00349
C 33.15612 2.12193 -0.00323
C 33.20017 0.73232 -0.00841
C 31.94328 0.01028 0.0001
C 34.33383 32.69766 -0.02927
C 1.11399 31.99732 -0.01404
C 1.17189 30.55995 0.01027
C 34.28557 29.86172 0.01831
C 34.27846 28.47168 -0.01037
C 1.11192 27.7731 -0.00439
C 1.2083 26.28098 -0.00598
C 34.33614 25.51483 -0.05239
C 1.23365 23.41833 0.00723
C 30.61745 26.21887 0.00261
C 30.60128 27.71029 0.02326
C 29.37805 28.447 0.00924
C 23.32008 2.11674 -0.0055
C 23.24918 0.6292 0.01515
C 22.01215 34.00092 -0.00225
C 24.49515 32.52813 0.00071
C 25.70942 31.86196 -0.01107
C 25.70539 30.45369 -0.01586
C 24.46582 29.76542 -0.01971
C 24.39672 28.34309 -0.02118
C 25.66502 27.65118 0.00733
C 25.71021 26.22981 -0.00178
C 24.5289 25.53468 0.00768
C 25.79135 23.33914 -0.0276
C 25.83131 21.9295 0.03005
C 26.24096 18.44803 -0.04078
C 25.88213 14.85912 0.02117
C 25.65078 13.45918 0.02737
C 24.42024 12.64565 -0.00498
C 24.74216 11.23368 0.00135
C 25.93333 10.50719 0.03102
C 22.13147 2.85775 0.02734
C 25.88657 9.11241 0.02555
C 22.05055 4.2453 0.01153
C 23.34599 6.34548 -0.03213
C 20.79582 4.92354 -0.01154
C 19.57914 4.23262 -0.01721
C 19.60103 2.75296 -0.02422
C 20.8995 2.10356 0.01277
C 20.84926 0.66817 0.00096
C 19.66532 34.0778 -0.01527
C 22.02323 32.53811 0.01087
C 23.21391 31.85992 0.00199
C 23.21763 30.41199 0.01511
C 21.94574 29.69715 -0.00478
C 21.84405 28.20517 -0.01662
C 23.16861 27.53301 -0.01185
C 23.34517 26.13733 0.01126
C 23.04074 12.57124 0.01852
C 22.47493 11.44676 -0.00381
C 23.57261 10.50601 0.03046
C 23.40648 9.11975 0.0296
C 22.17058 8.42274 0.03374
C 22.1557 7.00925 -0.02845
C 23.31449 4.93246 0.02239
C 3.54667 32.02713 -0.00518
C 24.57112 8.43827 0.01423
C 25.80054 6.35736 -0.009
C 28.23407 15.04147 0.00152
C 28.21433 13.50815 0.01257
C 27.04951 12.72956 0.02316
C 27.13024 11.2776 0.04185
C 28.38083 10.63638 0.00194
C 28.27945 9.20564 -0.00621
C 27.09797 8.44025 0.02611
C 27.07478 6.99779 0.02198
C 28.29616 6.33173 0.01094
C 28.25888 4.91466 0.00235
C 27.00665 4.22542 0.01495
C 26.96963 2.77721 0.01259
C 28.17313 2.12578 0.01799
C 28.1977 0.69477 0.01699
C 27.00831 34.04082 -0.00416
C 29.43954 32.72656 0.01177
C 30.67508 31.89632 0.04266
C 30.62391 30.49237 0.01324
C 29.39275 29.8507 0.0014
C 26.89866 15.7572 -0.00294
C 24.53337 7.0496 -0.00285
C 26.9964 17.23342 0.00826
C 28.30684 19.0262 -0.00942
C 25.76148 4.90814 -0.01199
C 24.55142 4.21047 -0.00229
C 24.52432 2.78326 -0.00938
C 25.74274 2.14417 -0.0264
C 25.67402 0.69108 -0.01154
C 24.54356 34.01306 0.00684
C 26.89559 32.65777 -0.01052
C 28.1554 32.03913 -0.01679
C 28.22936 30.59389 0.00367
C 26.96155 29.82372 0.04306
C 26.88264 28.3783 0.00996
C 28.16741 27.71098 0.00195
C 28.15731 26.24371 -0.00802
C 26.98931 25.5728 -0.00218
C 26.89264 24.07477 -0.01654
C 28.08595 23.24347 -0.00037
C 28.03042 21.75272 -0.0032
C 26.81738 21.01177 0.00622
C 26.95365 19.70752 -0.02815
C 28.35088 17.67384 0.00487
C 2.34585 32.73831 -0.00074
