440
Graphene
C 0.05212 0.04447 0.01295
C 12.25366 11.40852 -0.01634
C 13.51198 10.69996 -0.00334
C 13.53185 9.28508 0.02339
C 12.32411 8.58516 0.01641
C 12.33458 7.17683 -0.00719
C 13.52199 6.36076 0.01364
C 13.4322 4.89415 -0.01062
C 12.21147 4.19998 -0.00033
C 12.29772 2.76662 0.03589
C 13.53424 2.1278 -0.02759
C 13.56428 0.70721 0.0402
C 12.38387 0.0126 0.00572
C 14.79794 32.64414 0.03592
C 16.00841 31.96815 0.00406
C 15.94133 30.5595 0.00943
C 14.77236 29.74385 0.02841
C 14.80199 28.36716 -0.01111
C 15.9744 27.55081 -0.01275
C 15.95325 26.21168 0.00985
C 14.71264 25.56408 -0.02245
C 14.69783 24.13747 -0.00428
C 15.92618 23.42769 0.03101
C 15.96874 22.01563 -0.01536
C 12.2215 12.90911 0.00057
C 13.50626 13.56058 0.00093
C 13.56752 14.89729 0.01291
C 13.50423 19.22028 0.00438
C 11.07184 10.68681 -0.00095
C 11.0928 9.2282 0.01572
C 9.86597 8.56852 -0.04848
C 9.8365 7.16072 -0.00892
C 11.15396 6.51739 -0.01362
C 11.03301 5.03422 -0.0008
C 9.75924 4.33698 0.0288
C 9.85168 2.8267 0.00393
C 11.04933 2.07515 0.00895
C 11.1528 0.66809 0.00685
C 9.91578 0.03317 0.02888
C 14.72058 21.27922 -0.02689
C 12.27752 32.64252 -0.00482
C 13.49142 30.44248 0.03693
C 12.23577 29.83471 0.01745
C 12.31592 28.39908 0.00488
C 13.57035 27.69841 -0.01004
C 13.54046 26.29633 -0.02896
C 12.28412 25.65812 -0.00131
C 12.24167 24.27696 -0.01118
C 13.47376 23.46408 -0.014
C 13.49547 21.96809 0.02147
C 12.23751 21.2677 0.00373
C 12.38771 19.84149 -0.00191
C 13.554 31.93158 -0.01384
C 9.84946 11.40793 0.03007
C 14.77466 19.80324 -0.01046
C 15.98159 17.71331 0.02819
C 17.21605 21.39552 0.02058
C 17.29719 19.89425 -0.01957
C 18.46974 19.10101 -0.0108
C 18.45107 17.70989 -0.00368
C 17.26237 16.99636 -0.02696
C 17.15804 15.56185 -0.00114
C 18.44783 14.87218 0.00228
C 18.456 13.46726 0.00798
C 17.24645 12.75487 0.00422
C 17.13744 11.36815 0.0351
C 18.39159 10.67707 -0.03113
C 18.40123 9.24771 0.02098
C 17.14813 8.58068 0.01848
C 17.18167 7.15192 -0.00619
C 18.44532 6.41232 -0.02162
C 18.44265 4.98195 0.00889
C 17.23331 4.27842 -0.00481
C 17.22662 2.88885 0.00979
C 18.44189 2.16621 0.01443
C 18.43668 0.76836 0.03505
C 17.22061 34.07799 -0.02815
C 19.64034 32.60321 -0.04147
C 20.92007 31.91042 -0.05302
C 18.47371 22.04789 0.01965
C 18.40468 23.43443 -0.03682
C 17.20912 24.10873 0.00052
C 17.21324 25.50775 0.00374
C 14.74187 17.16567 0.00165
C 14.61415 15.72172 -0.02971
C 15.89375 14.94506 0.02894
C 15.99062 13.4918 -0.01789
C 14.80875 12.77791 0.00444
C 14.77576 11.34913 -0.00925
C 15.93177 10.60093 0.01877
C 15.89222 9.19617 0.01363
C 14.69777 8.52048 -0.02162
C 14.78426 7.07582 0.00415
C 15.96907 6.43106 -0.0014
C 16.0309 19.16951 -0.00891
C 15.95824 5.0101 0.02162
C 14.7542 2.83518 0.01241
C 15.9817 2.16309 -0.01454
C 16.01227 0.71565 0.01945
C 14.79255 34.07599 0.01416
C 17.25393 32.64884 0.03542
C 18.41375 31.94072 0.02299
C 18.38642 30.55391 0.00244
C 17.13775 29.84732 -0.01717
C 17.14335 28.42598 0.05265
C 18.44086 27.70439 -0.01952
C 18.42947 26.24068 -0.02813
C 14.72497 4.30525 0.0076
C 20.91064 30.54613 0.00213
C 9.78148 12.80452 0.00054
C 9.75524 20.0391 -0.00562
C 3.7389 0.69766 0.04421
C 2.53798 34.05092 0.00088
C 4.91024 32.69496 0.00828
C 6.1574 31.95222 -0.02375
C 6.1899 30.54792 0.00558
C 4.9792 29.77515 -0.0059
C 4.9398 28.39272 -0.01386
C 6.2652 27.65456 -0.02805
C 6.18616 26.23057 0.00081
C 4.8873 25.64221 0.00245
C 4.88288 24.19288 0.02728
C 6.14762 23.45081 -0.00039
C 6.17852 22.02853 0.0064
C 4.97035 21.27235 0.00211
C 4.91644 19.86854 -0.00449
C 6.15183 19.0937 -0.01979
C 6.17659 17.63552 0.02784
C 4.83102 17.07269 -0.01977
C 4.84499 15.66989 -0.00561
C 6.09549 14.99177 0.00208
C 6.07903 13.58703 0.01707
C 4.89056 12.7625 0.02769
C 4.88943 11.33805 -0.03291
C 3.74493 2.17096 -0.00177
C 2.48434 2.90016 0.03278
C 2.47611 4.29418 0.01138
C 3.67513 5.03946 -0.00407
C 3.6903 30.47305 0.01116
C 2.44024 29.77216 -0.0005
C 2.47376 28.35638 -0.00018
C 3.71561 27.70523 0.01073
C 3.65994 26.2994 0.01984
C 2.40258 25.61965 0.00535
C 2.43136 24.1764 -0.00198
C 3.71158 23.41349 -0.00012
C 3.73048 22.03804 -0.04306
C 2.48345 21.3503 -0.03672
C 2.41954 19.81294 0.01913
C 6.14256 10.60707 -0.04999
C 3.66758 19.17759 0.00267
C 2.36938 16.99688 0.02426
C 2.37224 15.54481 0.01218
C 3.65795 14.95987 -0.01471
C 3.71159 13.50792 -0.02827
C 2.46966 12.76523 0.01078
C 2.43604 11.3564 -0.00112
C 3.6523 10.67245 0.03345
C 3.64076 9.2922 0.00748
C 2.46622 8.50513 0.00662
C 2.46278 7.04992 -0.0154
C 3.72199 6.44487 -0.01299
C 3.56376 17.705 0.00787
C 10.97587 13.58233 -0.00494
C 6.10162 9.25497 0.04505
C 4.92774 7.20445 -0.04307
C 8.56409 10.75537 -0.00725
C 8.62776 9.29486 -0.05697
C 7.40786 8.58536 0.01087
C 7.36463 7.21686 -0.01343
C 8.59702 6.45403 0.00988
C 8.5643 5.02711 0.0276
C 7.3057 4.27639 0.01305
C 7.40661 2.85889 -0.00077
C 8.63894 2.12544 0.03368
C 8.61415 0.75418 -0.02929
C 7.36814 0.099 -0.00966
C 9.82734 32.68246 -0.03337
C 11.01867 31.97745 0.01227
C 10.96075 30.52483 0.00873
C 9.81631 29.82547 -0.00049
C 9.83319 28.4241 0.00848
C 11.04392 27.7336 -0.01303
C 11.08481 26.34399 -0.01378
C 9.88646 25.59199 0.02635
C 9.84328 24.14299 0.0127
C 11.06828 23.45939 0.01396
C 11.06211 22.03299 0.01849
C 9.81415 21.33731 -0.01142
C 7.33655 11.40742 0.02322
C 7.26621 12.79456 -0.00094
C 8.52457 13.43523 -0.02566
C 8.5345 14.79254 -0.03113
C 6.14936 6.49959 0.03189
C 6.10579 5.04212 0.00031
C 4.89121 4.25698 -0.003
C 4.96735 2.86771 0.01402
C 6.16303 2.1734 0.02379
C 6.1348 0.7592 0.00907
C 4.9479 0.03576 0.00643
C 7.37344 32.74775 -0.01509
C 8.56294 32.00102 0.03267
C 8.5987 30.50611 0.02374
C 7.39454 29.80211 0.00402
C 4.92029 8.59232 0.03284
C 7.45984 28.38709 0.0073
C 8.69137 26.26142 0.03828
C 7.40147 25.55548 0.01226
C 7.39721 24.09447 -0.00279
C 8.58188 23.44882 0.01996
C 8.60152 22.04739 -0.03996
C 7.38436 21.27674 0.01465
C 7.33897 19.85908 -0.00074
C 8.63924 19.17378 -0.00518
C 8.63051 17.77122 0.0086
C 7.48484 16.9995 -0.00643
C 7.4429 15.53328 0.017
C 8.66481 27.64767 0.0174
C 19.66418 29.85048 -0.00066
C 19.64418 28.40559 -0.00289
C 20.84702 27.72006 0.00028
C 30.73007 14.78403 -0.0405
C 30.73246 13.38102 -0.01303
C 29.48199 12.75821 -0.01461
C 29.46599 11.39554 -0.02155
C 30.69733 10.69877 -0.00944
C 30.6945 9.18749 -0.03735
C 29.52366 8.50742 -0.00971
C 29.52323 7.07237 0.01518
C 30.80442 6.36616 0.01908
C 30.84826 4.93429 0.07705
C 29.61281 4.21701 0.0103
C 29.5166 2.7221 0.02108
C 30.75137 2.08549 0.00716
C 30.72732 0.67657 0.00307
C 29.48363 0.01539 0.00346
C 31.96781 32.6544 0.01713
C 33.20944 32.0166 -0.01694
C 33.24305 30.58852 0.01428
C 31.99622 29.90024 -0.02142
C 31.93221 28.47327 0.0544
C 33.16582 27.70026 0.00026
C 33.17233 26.32389 0.00682
C 31.97477 25.62761 -0.01779
C 29.59467 15.59448 0.01705
C 29.51645 17.01222 0.0101
C 30.68031 17.78011 -0.00669
C 30.70148 19.20136 0.03531
C 28.26667 10.68096 0.00194
C 28.29087 9.22106 -0.00621
C 26.98841 8.45169 0.02611
C 27.05969 7.03396 0.02198
C 28.29106 6.36222 0.01094
C 28.31168 4.92548 0.00235
C 27.03308 4.26481 0.01495
C 26.99903 2.81084 0.01259
C 28.24025 2.09875 0.01799
C 28.24519 0.65546 0.01699
C 27.03491 33.98785 -0.00416
C 31.977 24.17075 0.03794
C 29.5358 32.65451 0.01177
C 30.7432 30.50491 0.01324
C 29.55193 29.76894 0.0014
C 29.46859 28.38865 0.00924
C 30.68006 27.73063 0.02326
C 30.75236 26.28138 0.00261
C 29.53788 25.5382 0.03265
C 29.51351 24.16171 -0.02049
C 30.7691 23.47948 -0.01854
C 30.79817 22.07706 -0.01415
C 29.49125 21.34211 -0.03039
C 29.46788 19.9542 0.01836
C 30.68124 31.95813 0.04266
C 27.0628 11.41353 0.04185
C 33.17117 23.4268 0.01927
C 31.94204 21.29695 -0.02383
C 34.40299 24.15026 0.03076
C 1.19494 23.45088 0.00723
C 1.25859 22.04159 0.02712
C 0.04226 21.30333 -0.02213
C 0.02769 19.85788 0.01951
C 1.16241 19.06598 -0.01678
C 1.15507 17.7127 0.01223
C 34.3733 17.04583 0.00648
C 0.00913 15.60368 0.02114
C 1.19169 14.8398 -0.02957
C 1.2172 13.39954 0.00343
C 34.43074 12.75332 -0.02656
C 0.00532 11.3007 -0.02442
C 1.22369 10.60015 -0.00027
C 1.23864 9.22762 -0.00583
C 0.01997 8.52454 -0.02302
C 0.01428 7.10169 -0.02849
C 1.22599 6.3324 0.02931
C 1.2325 4.90197 0.00628
C 0.03018 4.19367 -0.0345
C 34.41432 2.76815 -0.00931
C 1.27379 2.12252 -0.00939
C 1.28192 0.71534 -0.00468
C 34.35401 25.54842 -0.05239
C 1.14921 26.2742 -0.00598
C 1.19166 27.68866 -0.00439
C 34.39389 28.34562 -0.01037
C 31.94394 19.889 -0.01429
C 33.21144 19.14643 -0.0136
C 33.18085 17.71801 0.00594
C 31.89595 16.9752 -0.02474
C 31.96584 15.57851 0.00369
C 33.21759 14.88494 0.00455
C 33.20048 13.44654 -0.00644
C 32.01976 12.66671 -0.01839
C 32.00538 11.3154 0.00137
C 33.22836 10.58637 0.00199
C 33.20487 9.18665 0.04381
C 33.20124 22.00771 0.01574
C 31.92219 8.56254 0.02806
C 33.25049 6.38796 -0.00069
C 33.28238 4.94314 0.04926
C 32.0715 4.2024 -0.03838
C 31.98532 2.74253 0.00349
C 33.18932 2.0872 -0.00323
C 33.22127 0.70998 -0.00841
C 31.95805 34.04581 0.0001
C 0.0345 32.71865 -0.02927
C 1.25157 31.94127 -0.01404
C 1.23367 30.544 0.01027
C 0.05621 29.82214 0.01831
C 32.0247 7.10703 0.01504
C 27.11821 12.82608 0.02316
C 28.28763 13.49641 0.01257
C 28.33651 14.94937 0.00152
C 23.39273 30.58884 -0.00703
C 22.12076 29.88392 -0.04076
C 22.07497 28.44539 -0.00652
C 23.31535 27.72248 0.0058
C 23.33732 26.31595 -0.00865
C 22.06292 25.58236 0.00675
C 22.12516 24.14315 -0.00311
C 23.36406 23.49911 0.00742
C 23.29045 22.10872 -0.01594
C 22.1183 21.35356 0.0106
C 22.17575 19.85819 -0.01154
C 23.35197 19.12181 -0.01721
C 23.36157 17.70881 -0.02422
C 22.08119 16.99929 0.01277
C 22.12723 15.581 0.00096
C 23.38721 14.92634 -0.01527
C 23.44941 13.56711 0.01087
C 22.15553 12.8143 0.00199
C 22.12565 11.37926 0.01511
C 23.35338 10.64625 -0.00478
C 23.26859 9.19371 -0.01662
C 22.05385 8.50046 -0.01185
C 22.06315 7.10123 0.01126
C 23.37742 31.94081 0.00654
C 22.1267 32.65482 -0.04422
C 19.6261 34.02383 -0.02957
C 20.82564 0.70348 -0.00831
C 20.82769 26.30745 -0.02213
C 19.65332 25.53888 0.03698
C 19.68687 24.18486 -0.00109
C 20.89491 23.43493 -0.00491
C 20.89793 21.96938 0.03338
C 19.65284 21.24474 -0.0258
C 19.70677 19.82643 -0.0331
C 20.99669 19.12877 -0.00316
C 20.90719 17.76211 0.02188
C 19.67896 17.10574 -0.01979
C 19.71763 15.61987 0.02691
C 23.36696 6.37919 0.01852
C 20.87126 14.85532 -0.01581
C 19.65135 12.75665 0.04892
C 19.58832 11.32777 -0.00111
C 20.87654 10.6876 -0.03557
C 20.83965 9.26561 0.03754
C 19.6546 8.55687 0.01739
C 19.70743 7.14178 0.00755
C 20.86843 6.35403 -0.0054
C 20.89657 4.9356 0.00667
C 19.65597 4.27898 0.00143
C 19.67033 2.88949 -0.017
C 20.8779 2.08852 0.00364
C 20.86452 13.43083 0.01452
C 23.34052 4.96893 -0.00381
C 22.10451 4.24275 0.03046
C 22.09483 2.83793 0.0296
C 25.83348 6.38629 -0.009
C 25.80971 5.01853 -0.01199
C 24.63992 4.26389 -0.00229
C 24.56269 2.86603 -0.00938
C 25.80994 2.11702 -0.0264
C 25.82572 0.69 -0.01154
C 24.61692 0.0633 0.00684
C 27.0813 32.58604 -0.01052
C 28.29399 31.91901 -0.01679
C 28.36868 30.49831 0.00367
C 27.04752 29.86875 0.04306
C 24.59132 7.03506 -0.00285
C 27.06984 28.50028 0.00996
C 28.28778 26.21157 -0.00802
C 27.04064 25.48068 -0.00218
C 27.08027 24.07582 -0.01654
C 28.28903 23.3961 -0.00037
C 28.2192 21.98581 -0.0032
C 26.99588 21.29412 0.00622
C 26.98887 19.92013 -0.02815
C 28.22697 19.15627 -0.00942
C 28.26212 17.70783 0.00487
C 27.0077 17.00426 0.00826
C 27.02007 15.51781 -0.00294
C 28.228 27.68779 0.00195
C 3.70917 31.96397 -0.0213
C 24.48678 8.44512 0.01423
C 25.83011 10.66562 0.03102
C 23.356 2.19975 0.03374
C 23.35077 0.78894 -0.02845
C 22.11937 0.05266 -0.03213
C 24.61744 32.6236 0.02239
C 25.78878 31.90722 0.01153
C 25.825 30.53639 0.02734
C 24.56827 29.79945 -0.0055
C 24.58612 28.36765 0.01515
C 25.87261 27.72617 -0.00225
C 25.88149 26.2573 0.00071
C 24.58926 25.65176 -0.01107
C 25.7772 9.18466 0.02555
C 24.59782 24.22297 -0.01586
C 25.74525 21.98686 -0.02118
C 24.50071 21.28203 0.00733
C 24.52072 19.92017 -0.00178
C 25.80624 19.23063 0.00768
C 25.80844 17.7651 -0.0276
C 24.60715 17.05044 0.03005
C 24.6035 15.65253 -0.04078
C 25.79729 14.84832 0.02117
C 25.86657 13.45095 0.02737
C 24.65676 12.75409 -0.00498
C 24.60226 11.35899 0.00135
C 25.78728 23.38523 -0.01971
C 2.50566 32.65959 -0.00374
