389
Graphene
C 34.38196 34.06 0.01295
C 15.94269 9.27668 -0.02162
C 14.803 8.54606 0.00415
C 14.70927 7.14315 -0.0014
C 15.93622 6.44937 0.02162
C 15.9895 5.00382 0.0076
C 14.79544 4.26675 0.01241
C 14.78369 2.90017 -0.01454
C 15.9737 2.0463 0.01945
C 16.00521 0.67569 0.01416
C 15.93175 10.66861 0.01363
C 14.71165 34.04532 0.03542
C 18.44895 31.92979 0.00244
C 18.5363 30.48711 -0.01717
C 17.25834 29.8768 0.05265
C 17.24868 28.37087 -0.01952
C 18.44884 27.60071 -0.02813
C 18.40006 26.16914 0.00374
C 17.22402 25.43852 0.00052
C 17.1988 24.05553 -0.03682
C 18.48392 23.31637 0.01965
C 17.19278 32.60674 0.02299
C 18.48203 22.0055 0.02058
C 14.74072 11.45366 0.01877
C 15.98899 13.57336 0.00444
C 13.49245 2.15795 0.00572
C 13.55022 0.71391 0.03592
C 12.30454 34.03739 0.00406
C 14.75176 32.68621 0.00943
C 16.01046 31.94745 0.02841
C 16.08012 30.59279 -0.01111
C 14.78021 29.91002 -0.01275
C 14.77584 28.4949 0.00985
C 15.96415 27.70529 -0.02245
C 14.72895 12.86685 -0.00925
C 15.96631 26.23879 -0.00428
C 14.86711 24.16722 -0.01536
C 15.97281 23.373 -0.02689
C 16.06517 22.00296 -0.01046
C 14.71007 19.78901 -0.00891
C 15.944 19.21819 0.02819
C 15.89849 17.70751 0.00165
C 14.73006 17.01313 -0.02971
C 14.79369 15.66611 0.02894
C 16.07221 14.97291 -0.01789
C 14.60535 25.46989 0.03101
C 17.2698 21.34485 -0.01957
C 17.20007 19.91759 -0.0108
C 18.38601 19.25776 -0.00368
C 19.66662 25.49355 -0.00109
C 19.68512 24.05846 -0.00491
C 20.99593 23.40672 0.03338
C 20.92075 22.03424 -0.0258
C 19.71228 21.31056 -0.0331
C 19.68617 19.88397 -0.00316
C 20.88941 19.24689 0.02188
C 20.87406 17.77907 -0.01979
C 19.70169 17.05544 0.02691
C 20.88451 26.20403 0.03698
C 19.66897 15.60787 -0.01581
C 20.85509 13.49517 0.04892
C 19.65009 12.70999 -0.00111
C 19.72216 11.3304 -0.03557
C 20.88657 10.57593 0.03754
C 20.91811 9.14599 0.01739
C 19.65493 8.5284 0.00755
C 19.5684 7.14464 -0.0054
C 20.80954 6.39331 0.00667
C 20.76205 4.97633 0.00143
C 20.90152 14.86186 0.01452
C 20.9286 27.63404 -0.02213
C 19.63191 28.33561 0.00028
C 19.75822 29.73981 -0.00289
C 18.4693 17.83381 -0.02696
C 17.25906 17.08863 -0.00114
C 17.30974 15.6662 0.00228
C 18.48959 14.89068 0.00798
C 18.38792 13.43464 0.00422
C 17.10675 12.78973 0.0351
C 17.19432 11.35428 -0.03113
C 18.42876 10.65263 0.02098
C 18.42365 9.27197 0.01848
C 17.21078 8.50997 -0.00619
C 17.19409 7.09607 -0.02162
C 18.34974 6.40726 0.00889
C 18.39489 4.99951 -0.00481
C 17.19606 4.23717 0.00979
C 17.13678 2.77854 0.01443
C 18.42596 2.04133 0.03505
C 18.46034 0.62672 -0.02815
C 17.19873 34.00772 -0.04147
C 19.71548 32.57664 -0.05302
C 20.97257 31.89801 0.00213
C 20.9578 30.49766 -0.00066
C 12.22386 2.86938 0.0402
C 12.24457 4.33655 -0.02759
C 13.53546 5.00285 0.03589
C 13.51815 6.42818 -0.00033
C 4.81798 28.5192 0.0086
C 6.07066 13.53882 -0.00643
C 4.92686 12.83656 0.017
C 4.89465 11.39218 -0.03113
C 6.15115 10.69968 -0.02566
C 6.10973 9.28914 -0.00094
C 4.93139 8.55062 0.02322
C 4.94699 7.1198 -0.00725
C 6.18835 6.44661 -0.05697
C 4.97254 29.8029 -0.00518
C 6.17873 4.99083 0.01087
C 4.8986 2.90428 0.00988
C 6.17202 2.1871 0.0276
C 6.08256 0.8232 0.01305
C 4.9502 0.09702 -0.00077
C 7.26376 32.66472 0.03368
C 8.51783 31.97886 -0.02929
C 8.58837 30.50395 -0.00966
C 7.39995 29.88983 -0.03337
C 8.62329 13.4729 0.01227
C 4.91474 4.32143 -0.01343
C 6.20725 30.51713 -0.00074
C 6.08165 31.97358 0.01465
C 4.91832 32.70409 -0.03996
C 3.71926 30.57161 -0.04999
C 2.4617 29.79259 0.04505
C 2.52537 28.31054 0.03284
C 3.75818 27.74673 -0.04307
C 2.28758 16.92504 0.03189
C 2.46116 15.64486 0.00031
C 3.56964 14.81381 -0.003
C 3.69054 13.42501 0.01402
C 2.39009 12.78555 0.02379
C 2.38664 11.38594 0.00907
C 3.63873 10.6458 0.00643
C 3.69997 9.26991 -0.01509
C 2.39514 8.57328 0.03267
C 2.42799 7.10335 0.02374
C 3.67467 6.40277 0.00402
C 3.68717 4.94926 0.0073
C 2.45358 4.23225 0.0174
C 2.47346 2.7888 0.03828
C 3.67866 2.15067 0.01226
C 3.72851 0.72875 -0.00279
C 2.44561 0.02607 0.01996
C 7.31389 12.96748 0.00873
C 19.535 4.2984 -0.017
C 7.36669 11.39306 -0.00049
C 8.48859 9.1926 -0.01303
C 9.85088 2.83615 0.00488
C 11.09158 2.11146 -0.01004
C 11.01859 0.5944 -0.02896
C 9.7306 34.01443 -0.00131
C 12.28921 32.69508 -0.01118
C 13.52901 31.98349 -0.014
C 13.51497 30.55861 0.02147
C 12.25468 29.80796 0.00373
C 12.20129 28.48249 -0.00191
C 9.8484 4.33672 0.01745
C 13.4544 27.76135 0.00438
C 12.28574 15.55744 0.00093
C 13.53816 15.00064 0.00057
C 13.48129 13.57241 -0.01634
C 12.23365 12.83629 -0.00334
C 12.24781 11.43905 0.02339
C 13.4965 10.739 0.01641
C 13.46389 9.36121 -0.00719
C 12.2554 8.61933 0.01364
C 12.27664 7.17894 -0.01062
C 13.68729 26.43553 0.01291
C 11.01413 5.0983 0.03693
C 11.07698 6.53881 -0.01384
C 9.80684 7.13402 -0.00482
C 7.32603 8.53233 -0.01378
C 7.37486 7.11698 0.02635
C 8.62058 6.41014 0.0127
C 8.58556 5.02931 0.01396
C 7.39251 4.29854 0.01849
C 7.31562 2.92426 -0.01142
C 8.56341 2.2218 -0.00562
C 8.51654 0.79013 -0.00494
C 7.25938 0.04036 0.00054
C 9.7577 32.68008 0.03007
C 10.9895 31.967 -0.00095
C 11.07362 30.53404 0.01572
C 9.9003 29.82153 -0.04848
C 10.10181 28.48407 -0.00892
C 11.27199 14.85765 -0.01362
C 11.02336 13.50592 -0.0008
C 9.7906 12.81026 0.0288
C 9.77253 11.35366 0.00393
C 11.01802 10.69828 0.00895
C 11.02224 9.30014 0.00685
C 9.79829 8.53371 0.02888
C 8.64362 10.64244 0.00848
C 3.70268 32.03443 -0.03291
C 19.57577 2.85081 0.00364
C 20.84987 0.78397 -0.02957
C 30.75912 6.40122 0.07705
C 30.71955 4.99478 0.0103
C 29.46323 4.26191 0.02108
C 29.5487 2.89438 0.00716
C 30.77771 2.17725 0.00307
C 30.70597 0.77091 0.00346
C 29.49821 0.02059 0.01713
C 31.8461 32.65193 -0.01694
C 33.18146 31.96706 0.01428
C 29.51811 7.09818 0.01908
C 33.17165 30.57263 -0.02142
C 31.95556 28.31842 0.00026
C 33.26763 27.66599 0.00682
C 33.23507 26.28171 -0.01779
C 31.95675 25.58434 0.03794
C 32.0068 24.17734 0.01927
C 33.19988 23.4927 0.01574
C 33.29065 22.01299 -0.02383
C 32.05456 21.24079 -0.01429
C 32.01336 19.88597 -0.0136
C 31.99062 29.74703 0.0544
C 33.25166 19.18948 0.00594
C 29.5286 8.53141 0.01518
C 30.68794 10.69026 -0.03735
C 30.6887 31.8779 0.01324
C 30.73966 30.46723 0.0014
C 29.50827 29.82553 0.00924
C 29.46309 28.3762 0.02326
C 30.74935 27.70388 0.00261
C 30.72289 26.27054 0.03265
C 29.51868 25.5152 -0.02049
C 29.56191 24.05916 -0.01854
C 30.81396 23.36673 -0.01415
C 30.76962 9.21983 -0.00971
C 30.83238 21.98099 -0.03039
C 29.56219 19.87301 0.03531
C 30.74821 19.09965 -0.00669
C 30.77991 17.70777 0.0101
C 29.61236 16.99392 0.01705
C 29.47781 15.58264 -0.0405
C 30.74414 14.92951 -0.01303
C 30.73415 13.55595 -0.01461
C 29.44321 12.81596 -0.02155
C 29.44458 11.42732 -0.00944
C 29.6168 21.27472 0.01836
C 33.21336 17.7756 -0.02474
C 31.98303 17.04104 0.00369
C 31.95652 15.66889 0.00455
C 0.12986 21.49096 -0.02213
C 0.12939 20.02196 0.01951
C 1.0955 19.1194 -0.01678
C 1.33896 17.80029 0.01223
C 34.40043 17.13638 0.00648
C 0.01147 15.67591 0.02114
C 1.13919 14.87187 -0.02957
C 1.11372 13.42775 0.00343
C 34.30044 12.7582 -0.02656
C 1.2852 23.38814 0.02712
C 34.31985 11.3582 -0.02442
C 1.16951 9.25159 -0.00583
C 34.38721 8.50807 -0.02302
C 34.40408 7.03945 -0.02849
C 1.24763 6.46616 0.02931
C 1.22656 4.95791 0.00628
C 34.40096 4.29544 -0.0345
C 34.4169 2.82915 -0.00931
C 1.1822 2.08365 -0.00939
C 1.19786 0.72776 -0.00468
C 1.12874 10.64474 -0.00027
C 0.08928 24.03731 0.00723
C 0.07863 25.54014 0.03076
C 1.21793 26.21146 -0.05239
C 33.20535 14.97424 -0.00644
C 33.18155 13.55992 -0.01839
C 31.95264 12.86588 0.00137
C 31.90797 11.44199 0.00199
C 33.09132 10.67091 0.04381
C 33.15693 9.23207 0.02806
C 31.99168 8.51944 0.01504
C 31.97056 7.10066 -0.00069
C 33.16913 6.36819 0.04926
C 33.1681 4.96436 -0.03838
C 31.93568 4.283 0.00349
C 32.00905 2.86777 -0.00323
C 33.19075 2.14926 -0.00841
C 33.12844 0.66134 0.0001
C 31.90482 34.06482 -0.02927
C 0.01462 32.65843 -0.01404
C 1.25614 31.93982 0.01027
C 1.26295 30.51602 0.01831
C 34.41578 29.76088 -0.01037
C 0.00279 28.38236 -0.00439
C 1.24405 27.62156 -0.00598
C 29.42224 32.65965 0.04266
C 27.06213 34.04617 0.01177
C 28.26747 0.72451 -0.00416
C 28.31824 2.15513 0.01699
C 22.13753 6.97301 0.01852
C 23.3649 6.32505 -0.00381
C 23.31172 4.90284 0.03046
C 22.0322 4.26651 0.0296
C 22.14604 2.87888 0.03374
C 23.35401 2.1399 -0.02845
C 23.30617 0.68776 -0.03213
C 22.10153 34.03901 0.02239
C 24.49036 32.64177 0.01153
C 22.11229 8.39846 0.01126
C 25.74872 31.9571 0.02734
C 24.60887 29.81541 0.01515
C 24.59381 28.40942 -0.00225
C 25.83419 27.6086 0.00071
C 25.7627 26.28212 -0.01107
C 24.52232 25.49395 -0.01586
C 24.68498 24.07531 -0.01971
C 25.84966 23.34872 -0.02118
C 25.86341 21.94087 0.00733
C 24.6264 21.31024 -0.00178
C 25.84758 30.53754 -0.0055
C 23.29337 9.14782 -0.01185
C 23.296 10.55548 -0.01662
C 22.09903 11.2893 -0.00478
C 19.6989 34.04499 -0.04422
C 22.06461 32.62303 0.00654
C 23.33368 31.89011 -0.00703
C 23.37608 30.462 -0.04076
C 22.14386 29.74946 -0.00652
C 22.17069 28.37749 0.0058
C 23.37962 27.68534 -0.00865
C 23.3632 26.27244 0.00675
C 22.14507 25.54109 -0.00311
C 22.20248 24.15911 0.00742
C 23.40097 23.46158 -0.01594
C 23.41566 22.03274 0.0106
C 22.19065 21.27609 -0.01154
C 22.16257 19.90792 -0.01721
C 23.43826 19.17344 -0.02422
C 23.38295 17.79372 0.01277
C 22.18286 17.1152 0.00096
C 22.1142 15.67611 -0.01527
C 23.30241 14.97686 0.01087
C 23.37576 13.52632 0.00199
C 22.15102 12.78122 0.01511
C 24.631 19.87027 0.00768
C 20.83624 2.21984 -0.00831
C 25.83977 19.20761 -0.0276
C 24.62407 17.0817 -0.04078
C 28.25123 23.36571 -0.0032
C 28.34838 21.97639 0.00622
C 27.14316 21.25295 -0.02815
C 27.03972 19.83039 -0.00942
C 28.33922 19.19216 0.00487
C 28.3219 17.74851 0.00826
C 27.11875 17.08567 -0.00294
C 27.0801 15.7283 0.00152
C 28.25587 14.91397 0.01257
C 27.05013 24.13437 -0.00037
C 28.28706 13.50545 0.02316
C 26.97972 11.33413 0.00194
C 28.22574 10.62139 -0.00621
C 28.19483 9.19964 0.02611
C 27.01803 8.52871 0.02198
C 27.05037 7.1354 0.01094
C 28.31181 6.40213 0.00235
C 28.25576 5.01202 0.01495
C 27.02917 4.24941 0.01259
C 27.06743 2.87239 0.01799
C 27.03019 12.77575 0.04185
C 26.97218 25.52132 -0.01654
C 28.23869 26.17524 -0.00218
C 28.24565 27.58234 -0.00802
C 24.61372 15.66742 0.02117
C 25.8403 14.98602 0.02737
C 25.81503 13.47919 -0.00498
C 24.60844 12.78156 0.00135
C 24.51345 11.34365 0.03102
C 25.74563 10.65548 0.02555
C 25.7495 9.1854 0.01423
C 24.58591 8.46424 -0.00285
C 24.60001 7.06247 -0.009
C 25.81438 6.42134 -0.01199
C 25.80739 4.99809 -0.00229
C 24.56198 4.21028 -0.00938
C 24.62463 2.84709 -0.0264
C 25.81823 2.09287 -0.01154
C 25.82137 0.67637 0.00684
C 24.54372 0.0132 -0.01052
C 26.96761 32.62011 -0.01679
C 28.22555 31.89616 0.00367
C 28.26502 30.47829 0.04306
C 27.03407 29.77582 0.00996
C 27.01938 28.33961 0.00195
C 25.84402 17.7567 0.03005
C 2.46347 32.67967 0.02769
