392
Graphene
C 34.37863 34.07875 0.01295
C 12.30137 8.59064 0.01877
C 12.2859 7.12882 0.01363
C 13.57237 6.42644 -0.02162
C 13.55236 5.01339 0.00415
C 12.32419 4.37279 -0.0014
C 12.23994 2.90758 0.02162
C 13.43333 2.15373 0.0076
C 13.45412 0.75542 0.01241
C 12.20259 34.06744 -0.01454
C 13.56056 9.31365 -0.00925
C 15.02969 32.72775 0.01945
C 14.75359 24.17144 0.03542
C 16.03484 23.48134 0.02299
C 16.05856 22.01222 0.00244
C 14.82684 21.24246 -0.01717
C 14.76523 19.79771 0.05265
C 15.92407 19.09672 -0.01952
C 15.91501 17.69995 -0.02813
C 14.74858 16.97002 0.00374
C 14.74135 15.56327 0.00052
C 14.58243 25.56136 0.01416
C 13.54171 10.73757 0.00444
C 12.29682 11.39157 -0.01789
C 12.20511 12.79478 0.02894
C 10.969 0.7479 0.03589
C 9.79196 0.00694 -0.02759
C 12.35688 32.64031 0.0402
C 13.81586 31.87151 0.00572
C 13.49944 30.53902 0.03592
C 12.25492 29.87147 0.00406
C 12.2306 28.44352 0.00943
C 13.47246 27.82023 0.02841
C 13.63586 26.39542 -0.01111
C 12.2136 25.57823 -0.01275
C 12.27452 24.13466 0.00985
C 13.52844 23.42122 -0.02245
C 13.58207 21.99429 -0.00428
C 12.36655 21.28574 0.03101
C 12.36685 19.84716 -0.01536
C 13.53072 19.07878 -0.02689
C 13.51636 17.71308 -0.01046
C 12.30941 17.00363 -0.00891
C 12.27433 15.62695 0.02819
C 13.4997 14.91581 0.00165
C 13.50406 13.48857 -0.02971
C 16.06476 14.789 -0.03682
C 10.99615 2.1379 -0.00033
C 16.0199 13.40483 0.01965
C 14.74786 11.41603 -0.01957
C 18.41558 10.64902 -0.02213
C 18.47375 9.25946 0.03698
C 17.2549 8.50942 -0.00109
C 17.25235 7.14 -0.00491
C 18.46576 6.45733 0.03338
C 18.48567 5.03526 -0.0258
C 17.2953 4.21979 -0.0331
C 17.19603 2.86275 -0.00316
C 18.41311 2.13978 0.02188
C 17.19473 11.3717 0.00028
C 18.39105 0.66742 -0.01979
C 19.53689 32.66754 -0.01581
C 20.60735 31.79138 0.01452
C 20.89273 30.42184 0.04892
C 21.09 27.68255 -0.00111
C 20.74537 26.33666 -0.03557
C 19.5538 25.59495 0.03754
C 19.64158 24.08667 0.01739
C 20.86874 23.40599 0.00755
C 20.9073 22.00896 -0.0054
C 17.09734 0.05224 0.02691
C 17.22268 12.80041 -0.00289
C 18.45947 13.45864 -0.00066
C 18.48333 14.84421 0.00213
C 15.93034 10.65112 -0.0108
C 16.03625 9.23807 -0.00368
C 14.81944 8.52616 -0.02696
C 14.7893 7.15562 -0.00114
C 16.02896 6.42836 0.00228
C 16.03318 4.88506 0.00798
C 14.74312 4.27352 0.00422
C 14.70585 2.79648 0.0351
C 15.96429 2.18123 -0.03113
C 15.92529 0.80741 0.02098
C 14.72754 0.03045 0.01848
C 16.80106 32.68865 -0.00619
C 17.22775 24.1165 -0.02162
C 18.42246 23.33955 0.00889
C 18.4035 21.93635 -0.00481
C 17.21188 21.20929 0.00979
C 17.17748 19.8105 0.01443
C 18.43628 19.09104 0.03505
C 18.38108 17.68199 -0.02815
C 17.23553 16.94713 -0.04147
C 17.23318 15.52141 -0.05302
C 14.78878 12.74246 0.02058
C 19.68155 21.28696 0.00667
C 9.80452 2.8891 -0.01062
C 11.08025 5.0349 -0.00719
C 6.14431 22.13427 0.01465
C 4.91379 21.37735 -0.00074
C 4.90653 19.98269 -0.00518
C 6.15886 19.27246 0.0086
C 6.14835 17.79344 -0.00643
C 4.95083 17.07904 0.017
C 4.86562 15.5496 -0.03113
C 6.05537 14.90887 -0.02566
C 6.05007 9.3614 -0.00094
C 6.2795 23.53881 -0.03996
C 4.81395 8.62833 0.02322
C 6.07909 6.48327 -0.05697
C 6.16141 5.0829 0.01087
C 4.90043 4.3112 -0.01343
C 4.91252 2.8825 0.00988
C 6.11154 2.20944 0.0276
C 6.13206 0.7001 0.01305
C 4.86356 0.02214 -0.00077
C 7.21786 32.58138 0.03368
C 8.43258 31.83069 -0.02929
C 4.89158 7.21955 -0.00725
C 6.01125 31.97243 0.01996
C 4.80339 32.72071 -0.00279
C 2.40976 0.03344 0.01226
C 3.71854 30.66353 0.01707
C 2.71025 29.74546 0.02769
C 2.43495 28.36017 -0.03291
C 2.37964 25.63211 -0.04999
C 2.47109 24.14691 0.04505
C 3.72468 23.37488 0.03284
C 3.63955 21.99536 -0.04307
C 2.42153 21.27052 0.03189
C 2.3941 19.88829 0.00031
C 3.65472 19.29114 -0.003
C 3.69706 17.78433 0.01402
C 2.49581 17.06541 0.02379
C 2.60147 15.64469 0.00907
C 2.56619 8.49345 0.00643
C 2.43606 7.09164 -0.01509
C 3.70087 6.41975 0.03267
C 3.61769 5.00663 0.02374
C 2.36383 4.29711 0.00402
C 2.35604 2.85023 0.0073
C 3.64634 2.20563 0.0174
C 3.60441 0.74086 0.03828
C 8.65569 30.48392 -0.00966
C 9.82284 4.30188 0.01364
C 8.36542 23.40253 -0.03337
C 7.3582 21.34301 0.00873
C 10.93731 26.41929 -0.01384
C 9.79452 25.66226 0.03693
C 9.76162 24.12902 0.01745
C 11.0425 23.40037 0.00488
C 11.09317 21.98822 -0.01004
C 9.9028 21.26527 -0.02896
C 9.83768 19.88682 -0.00131
C 11.14648 19.19443 -0.01118
C 11.04305 17.80934 -0.014
C 11.0966 27.75586 -0.00482
C 9.76419 17.07621 0.02147
C 11.00791 14.97937 -0.00191
C 10.98718 13.5368 0.00438
C 9.6302 12.8965 0.01291
C 9.76497 11.44276 0.00093
C 11.04151 10.72208 0.00057
C 10.99826 9.33676 -0.01634
C 9.82082 8.60303 -0.00334
C 9.79412 7.20675 0.02339
C 11.05414 6.44292 0.01641
C 9.75132 15.66721 0.00373
C 9.81922 29.8703 0.02888
C 11.06569 30.50737 0.00685
C 11.08117 31.91515 0.00895
C 7.33893 19.94161 -0.00049
C 8.5311 19.25159 0.00848
C 8.53714 17.83578 -0.01303
C 7.32319 17.08394 -0.01378
C 7.27403 15.61438 0.02635
C 8.49935 14.97385 0.0127
C 8.43639 13.56362 0.01396
C 7.23457 12.8475 0.01849
C 7.20396 11.47898 -0.01142
C 8.45793 10.81861 -0.00562
C 8.58613 9.35858 -0.00494
C 7.33878 8.70101 0.00054
C 7.30645 7.21148 0.03007
C 8.5653 6.51804 -0.00095
C 8.60238 5.12021 0.01572
C 7.37384 4.37051 -0.04848
C 7.36401 2.9224 -0.00892
C 8.48783 2.15207 -0.01362
C 8.5496 0.71863 -0.0008
C 7.37342 34.0067 0.0288
C 9.76419 32.71628 0.00393
C 8.61958 21.94277 0.01227
C 19.66341 19.86884 0.00143
C 20.83729 19.13967 -0.017
C 20.77474 17.75397 0.00364
C 30.76066 4.96042 0.07705
C 29.49608 4.23996 0.0103
C 29.56164 2.85136 0.02108
C 30.71278 2.13896 0.00716
C 30.71538 0.70896 0.00307
C 29.51013 34.06001 0.00346
C 31.90872 32.62208 0.01713
C 33.19677 31.93806 -0.01694
C 33.18722 30.54828 0.01428
C 30.72287 6.408 0.01908
C 31.97345 29.81563 -0.02142
C 33.2023 27.71043 0.00026
C 33.20645 26.22983 0.00682
C 31.96597 25.55525 -0.01779
C 31.91948 24.15227 0.03794
C 33.20888 23.44139 0.01927
C 33.10036 21.97943 0.01574
C 31.87359 21.17644 -0.02383
C 31.92611 19.76652 -0.01429
C 33.1973 19.11206 -0.0136
C 32.00751 28.42965 0.0544
C 29.42697 7.09889 0.01518
C 29.43094 8.51806 -0.00971
C 30.68852 9.29248 -0.03735
C 29.5528 32.66445 0.04266
C 30.69298 31.93302 0.01324
C 30.72888 30.53676 0.0014
C 29.51688 29.77283 0.00924
C 29.58326 28.37975 0.02326
C 30.76454 27.7223 0.00261
C 30.75537 26.29497 0.03265
C 29.5174 25.4713 -0.02049
C 29.49721 24.08539 -0.01854
C 30.66114 23.34526 -0.01415
C 30.64866 21.92171 -0.03039
C 29.23934 21.26606 0.01836
C 29.63187 19.93262 0.03531
C 30.64991 19.00278 -0.00669
C 30.73797 17.6254 0.0101
C 29.49401 15.63458 0.01705
C 30.73411 15.01963 -0.0405
C 30.70711 13.59699 -0.01303
C 29.40072 12.88614 -0.01461
C 29.39951 11.40756 -0.02155
C 30.69522 10.67336 -0.00944
C 33.24143 17.70874 0.00594
C 27.04572 34.04661 0.01177
C 32.04521 17.03969 -0.02474
C 33.23169 14.90358 0.00455
C 34.39399 21.34836 -0.02213
C 34.41004 19.89935 0.01951
C 1.22952 19.18989 -0.01678
C 1.29502 17.75968 0.01223
C 0.13676 16.98605 0.00648
C 0.17244 15.58571 0.02114
C 1.48331 14.76709 -0.02957
C 1.22487 13.41242 0.00343
C 0.02018 12.75619 -0.02656
C 1.20855 22.08616 0.02712
C 34.40441 11.41186 -0.02442
C 1.40276 9.23932 -0.00583
C 0.04479 8.57468 -0.02302
C 0.00646 7.13697 -0.02849
C 1.21649 6.381 0.02931
C 1.14521 5.01406 0.00628
C 34.40069 4.30878 -0.0345
C 34.39979 2.89634 -0.00931
C 1.15534 2.14742 -0.00939
C 1.19611 0.70876 -0.00468
C 1.16119 10.68454 -0.00027
C 1.22355 23.4749 0.00723
C 34.43199 24.17523 0.03076
C 0.00753 25.59948 -0.05239
C 33.21659 13.50121 -0.00644
C 31.91063 12.84402 -0.01839
C 31.9265 11.38645 0.00137
C 33.15032 10.66529 0.00199
C 33.12093 9.25236 0.04381
C 31.92142 8.49173 0.02806
C 31.91077 7.14757 0.01504
C 33.16656 6.39504 -0.00069
C 33.16707 4.96887 0.04926
C 31.97484 4.23866 -0.03838
C 31.92065 2.85186 0.00349
C 33.16225 2.15847 -0.00323
C 33.13788 0.68188 -0.00841
C 31.9319 34.079 0.0001
C 34.38655 32.67237 -0.02927
C 1.21465 31.99022 -0.01404
C 1.35626 30.46605 0.01027
C 0.00493 29.81602 0.01831
C 0.02486 28.41267 -0.01037
C 1.26538 27.67352 -0.00439
C 1.1828 26.31462 -0.00598
C 31.96156 15.61747 0.00369
C 28.33713 0.65807 -0.00416
C 28.32155 2.10915 0.01699
C 27.09699 2.80674 0.01799
C 22.09329 24.14291 -0.01185
C 23.37555 23.38888 0.01126
C 23.41912 21.98171 0.01852
C 22.11519 21.34536 -0.00381
C 22.04992 19.90965 0.03046
C 21.89436 17.01442 0.0296
C 22.25181 15.69268 0.03374
C 23.31031 14.78167 -0.02845
C 23.26693 13.44259 -0.03213
C 21.99238 25.56441 -0.01662
C 22.11175 12.74199 0.02239
C 23.30216 10.62337 0.02734
C 23.3302 9.18914 -0.0055
C 22.14956 8.47351 0.01515
C 22.18851 6.98727 -0.00225
C 23.41832 6.35376 0.00071
C 23.4218 4.87275 -0.01107
C 22.20017 4.20719 -0.01586
C 22.19273 2.80621 -0.01971
C 23.44239 2.09377 -0.02118
C 22.08774 11.24744 0.01153
C 23.35227 26.21815 -0.00478
C 23.45057 27.65271 0.01511
C 22.26321 28.40291 0.00199
C 19.62326 17.00411 -0.00831
C 19.72182 15.58178 -0.02957
C 20.95911 14.88526 -0.04422
C 20.89387 13.48295 0.00654
C 19.66459 12.75035 -0.00703
C 19.60335 11.37438 -0.04076
C 20.85959 10.64264 -0.00652
C 20.89121 9.17086 0.0058
C 19.69676 8.45399 -0.00865
C 19.76394 7.08176 0.00675
C 20.94365 6.35551 -0.00311
C 20.98056 4.95274 0.00742
C 19.71258 4.30933 -0.01594
C 19.68346 2.84747 0.0106
C 20.9033 2.16866 -0.01154
C 20.87245 0.71835 -0.01721
C 19.58248 34.07927 -0.02422
C 22.03734 32.62744 0.01277
C 23.29826 31.99012 0.00096
C 23.39084 30.6026 -0.01527
C 22.20795 29.81993 0.01087
C 23.3928 0.68681 0.00733
C 22.1138 34.01813 -0.00178
C 24.60297 32.63501 0.00768
C 25.80478 31.88068 -0.0276
C 28.25269 31.94979 -0.01654
C 28.30727 30.52938 -0.00037
C 27.0501 29.79564 -0.0032
C 27.04535 28.37399 0.00622
C 28.30531 27.67934 -0.02815
C 28.28138 26.27246 -0.00942
C 27.02921 25.58412 0.00487
C 27.04114 24.17473 0.00826
C 28.27593 23.42705 -0.00294
C 28.07989 21.98917 0.00152
C 28.36879 14.92855 0.01257
C 28.16622 13.59485 0.02316
C 26.97235 12.85998 0.04185
C 26.91317 11.36578 0.00194
C 28.13374 10.68964 -0.00621
C 28.24534 9.27776 0.02611
C 27.00226 8.55145 0.02198
C 27.06842 7.13562 0.01094
C 28.25583 6.35775 0.00235
C 28.30634 4.98471 0.01495
C 27.12033 4.28204 0.01259
C 27.04607 32.6356 -0.00218
C 3.60989 32.02937 0.00208
C 24.68758 34.05588 -0.00802
C 25.85384 2.06099 0.00996
C 25.86081 30.52224 0.03005
C 24.6177 29.82026 -0.04078
C 24.66313 28.43435 0.02117
C 25.85867 27.64687 0.02737
C 25.84128 26.28636 -0.00498
C 24.61592 25.51735 0.00135
C 24.54497 24.09989 0.03102
C 25.77881 23.4334 0.02555
C 25.8333 22.06924 0.01423
C 24.64566 21.23783 -0.00285
C 25.68851 13.51987 -0.009
C 24.54304 12.70918 -0.01199
C 24.50757 11.37415 -0.00229
C 25.71642 10.6109 -0.00938
C 25.70787 9.14456 -0.0264
C 24.55006 8.4606 -0.01154
C 24.59762 7.05648 0.00684
C 25.83301 6.33596 -0.01052
C 25.87954 4.94165 -0.01679
C 24.65974 4.18113 0.00367
C 24.67097 2.77706 0.04306
C 25.8765 0.6368 0.00195
C 2.40103 32.74157 -0.00561
