428
Graphene
C 0.03134 0.02099 0.01295
C 12.34486 2.8315 0.03589
C 13.48468 2.19552 -0.02759
C 13.50987 0.7616 0.0402
C 12.32723 34.05248 0.00572
C 14.79423 32.73065 0.03592
C 15.99734 31.97458 0.00406
C 15.92628 30.49386 0.00943
C 14.70681 29.78609 0.02841
C 14.72915 28.28844 -0.01111
C 15.98619 27.67154 -0.01275
C 12.35125 4.30629 -0.00033
C 16.02065 26.2455 0.00985
C 14.78741 24.13679 -0.00428
C 16.02735 23.41484 0.03101
C 15.94811 22.08122 -0.01536
C 14.76589 21.26897 -0.02689
C 14.76333 19.797 -0.01046
C 15.94044 19.11238 -0.00891
C 16.05455 17.65908 0.02819
C 14.7107 17.03353 0.00165
C 14.72585 15.66756 -0.02971
C 15.98094 14.86761 0.02894
C 14.72435 25.62007 -0.02245
C 13.44899 5.04995 -0.01062
C 13.54325 6.45104 0.01364
C 12.31874 7.12424 -0.00719
C 13.55077 31.97762 0.00685
C 13.53456 30.54814 0.02888
C 12.27699 29.8319 -0.00482
C 12.31236 28.39195 -0.01384
C 13.53841 27.69919 0.03693
C 13.52482 26.35445 0.01745
C 12.24787 25.59387 0.00488
C 12.26491 24.22335 -0.01004
C 13.53794 23.3937 -0.02896
C 13.55075 22.00425 -0.00131
C 12.33906 21.32993 -0.01118
C 12.39159 19.87313 -0.014
C 13.50931 19.11928 0.02147
C 13.51405 17.789 0.00373
C 12.30286 17.01426 -0.00191
C 12.22328 15.60784 0.00438
C 13.55351 14.89959 0.01291
C 13.61644 13.50893 0.00093
C 12.32241 12.8188 0.00057
C 12.3119 11.39328 -0.01634
C 13.49068 10.75798 -0.00334
C 13.51071 9.28087 0.02339
C 12.29511 8.47348 0.01641
C 15.98114 13.46316 -0.01789
C 14.77972 12.82406 0.00444
C 14.75989 11.35004 -0.00925
C 15.95082 10.65437 0.01877
C 18.43952 14.93904 0.00228
C 18.45686 13.47485 0.00798
C 17.2646 12.85415 0.00422
C 17.21928 11.31973 0.0351
C 18.46487 10.63804 -0.03113
C 18.45706 9.2078 0.02098
C 17.25432 8.47332 0.01848
C 17.15842 7.09346 -0.00619
C 18.41733 6.3686 -0.02162
C 18.46642 4.91504 0.00889
C 17.22376 4.23511 -0.00481
C 17.18705 2.87597 0.00979
C 18.39224 2.12666 0.01443
C 18.39849 0.72932 0.03505
C 17.13916 0.03274 -0.02815
C 19.66938 32.72621 -0.04147
C 20.88232 31.97316 -0.05302
C 20.93107 30.50077 0.00213
C 19.69878 29.80368 -0.00066
C 19.69417 28.40579 -0.00289
C 20.9443 27.73895 0.00028
C 20.96601 26.29418 -0.02213
C 19.68235 25.57613 0.03698
C 17.21677 15.55767 -0.00114
C 12.26624 32.63044 0.00895
C 17.2266 17.00945 -0.02696
C 18.48191 19.19796 -0.0108
C 15.96415 9.21804 0.01363
C 14.71712 8.54125 -0.02162
C 14.71388 7.12898 0.00415
C 15.96488 6.3865 -0.0014
C 15.92519 4.97718 0.02162
C 14.74601 4.28641 0.0076
C 14.79541 2.81561 0.01241
C 15.95826 2.1009 -0.01454
C 15.95778 0.64766 0.01945
C 14.70036 0.00922 0.01416
C 17.2302 32.63179 0.03542
C 18.42121 31.93156 0.02299
C 18.48787 30.51366 0.00244
C 17.27328 29.83758 -0.01717
C 17.19476 28.46041 0.05265
C 18.46764 27.63918 -0.01952
C 18.41585 26.26197 -0.02813
C 17.19197 25.55772 0.00374
C 17.23124 24.17897 0.00052
C 18.4569 23.37065 -0.03682
C 18.43126 22.02036 0.01965
C 17.16854 21.326 0.02058
C 17.17964 19.8761 -0.01957
C 18.44019 17.76131 -0.00368
C 19.68087 24.18926 -0.00109
C 9.85669 34.04057 0.00393
C 11.06697 2.17431 -0.0008
C 6.17322 30.54253 -0.00039
C 4.91552 29.83817 0.0064
C 4.85362 28.45187 0.00211
C 6.16846 27.70601 -0.00449
C 6.1363 26.22913 -0.01979
C 4.87152 25.55005 0.02784
C 4.86565 24.16049 -0.01977
C 6.17672 23.39155 -0.00561
C 6.22421 21.98899 0.00208
C 4.89875 21.30582 0.01707
C 6.22584 31.93027 0.02728
C 4.89942 12.80926 0.02769
C 6.10649 10.6318 -0.04999
C 6.11851 9.3151 0.04505
C 4.91768 8.50634 0.03284
C 4.94658 7.06834 -0.04307
C 6.12668 6.391 0.03189
C 6.20586 4.9433 0.00031
C 4.87879 4.23868 -0.003
C 4.94616 2.83619 0.01402
C 6.05794 2.10632 0.02379
C 6.12129 0.79843 0.00907
C 4.90454 11.40735 -0.03291
C 4.90793 32.67706 0.00245
C 2.49633 0.02262 0.00081
C 3.6992 0.62852 -0.02805
C 3.72505 30.55836 0.00787
C 2.48959 29.88779 0.02426
C 2.46754 28.44161 0.01218
C 3.67022 27.685 -0.01471
C 3.63126 26.21381 -0.02827
C 2.43979 25.51912 0.01078
C 2.5125 24.13308 -0.00112
C 3.70261 23.37874 0.03345
C 3.70958 22.00236 0.00748
C 2.4621 21.35265 0.00662
C 2.39017 19.92673 -0.0154
C 3.82644 13.42286 -0.01299
C 2.54288 12.78746 -0.00407
C 2.51821 11.39311 0.01138
C 3.67133 10.52819 0.03278
C 3.67116 9.17262 -0.00177
C 2.38828 8.52133 0.04421
C 2.37823 7.03101 0.00088
C 3.67607 6.3999 0.00828
C 3.66606 5.00885 -0.02375
C 2.44038 4.2894 0.00558
C 2.50553 2.78547 -0.0059
C 3.67792 2.14011 -0.01386
C 4.91279 0.02281 0.00643
C 7.41288 32.68989 -0.01509
C 8.58297 31.94668 0.03267
C 8.63646 30.53505 0.02374
C 9.87579 28.44983 -0.02929
C 11.06203 27.69208 -0.00966
C 11.01776 26.32568 -0.03337
C 9.86987 25.56823 0.01227
C 9.8599 24.19709 0.00873
C 11.06488 23.46999 -0.00049
C 11.12832 22.05846 0.00848
C 9.80498 21.39839 -0.01303
C 9.83161 19.98105 -0.01378
C 11.0556 19.17595 0.02635
C 11.01908 17.75002 0.0127
C 11.09314 14.94848 0.01396
C 11.09684 13.50692 0.01849
C 9.86643 12.77876 -0.01142
C 9.81224 11.40238 -0.00562
C 11.04033 10.69254 -0.00494
C 11.08185 9.2315 0.00054
C 9.76915 8.51764 0.03007
C 9.77412 7.13806 -0.00095
C 11.05983 6.36148 0.01572
C 11.08186 4.95411 -0.04848
C 9.779 4.31021 -0.00892
C 9.7961 2.87634 -0.01362
C 9.90137 29.89001 0.03368
C 11.09569 0.6674 0.0288
C 11.0692 30.57716 -0.00077
C 9.77094 32.66119 0.0276
C 7.40404 29.83449 0.00402
C 7.35641 28.44998 0.0073
C 8.52052 27.68583 0.0174
C 8.54572 26.27141 0.03828
C 7.34072 25.5131 0.01226
C 7.36962 24.16745 -0.00279
C 8.54923 23.46129 0.01996
C 8.60965 22.06885 -0.03996
C 7.41547 21.27572 0.01465
C 8.55501 13.43882 -0.00074
C 7.44212 12.83723 -0.00518
C 7.4183 11.38075 0.0086
C 8.63465 10.70942 -0.00643
C 8.58396 9.21939 0.017
C 7.36677 8.53384 -0.03113
C 7.34249 7.10611 -0.02566
C 8.53398 6.44328 -0.00094
C 8.64121 4.97198 0.02322
C 7.40352 4.19957 -0.00725
C 7.42011 2.799 -0.05697
C 8.59178 2.15486 0.01087
C 8.60659 0.74464 -0.01343
C 7.39116 0.02594 0.00988
C 11.03149 31.96688 0.01305
C 20.89645 23.4116 -0.00491
C 20.8973 22.03094 0.03338
C 19.71484 21.34419 -0.0258
C 29.51641 12.70457 -0.01461
C 29.55562 11.31438 -0.02155
C 30.76269 10.66208 -0.00944
C 30.73563 9.25664 -0.03735
C 29.51747 8.47781 -0.00971
C 29.47126 7.10908 0.01518
C 30.77562 6.33608 0.01908
C 30.70034 4.91924 0.07705
C 29.47132 4.27818 0.0103
C 29.47821 2.80625 0.02108
C 30.69321 13.53583 -0.01303
C 30.73112 2.13889 0.00716
C 29.52306 34.02753 0.00346
C 31.99632 32.63777 0.01713
C 33.20457 31.97786 -0.01694
C 33.27156 30.50391 0.01428
C 31.97891 29.73692 -0.02142
C 31.99985 28.38531 0.0544
C 33.25846 27.66522 0.00026
C 33.16109 26.26369 0.00682
C 31.96887 25.5414 -0.01779
C 31.96985 24.14911 0.03794
C 30.72562 0.70827 0.00307
C 30.78222 14.98973 -0.0405
C 29.50546 15.6293 0.01705
C 29.5412 17.07922 0.0101
C 27.02933 7.13446 0.02198
C 28.28664 6.39383 0.01094
C 28.27514 4.96706 0.00235
C 27.09848 4.30652 0.01495
C 27.09741 2.84192 0.01259
C 28.25594 2.08172 0.01799
C 28.28193 0.71939 0.01699
C 27.05653 0.01116 -0.00416
C 29.55322 32.69626 0.01177
C 30.69963 31.85643 0.04266
C 30.70367 30.47683 0.01324
C 29.49045 29.80328 0.0014
C 29.58365 28.39089 0.00924
C 30.69338 27.63559 0.02326
C 30.66919 26.25428 0.00261
C 29.48529 25.49127 0.03265
C 29.48863 24.11337 -0.02049
C 30.73916 23.39157 -0.01854
C 30.76762 22.07789 -0.01415
C 29.53592 21.35828 -0.03039
C 29.52888 19.88278 0.01836
C 30.7483 19.13968 0.03531
C 30.706 17.71258 -0.00669
C 33.1429 23.45054 0.01927
C 33.21094 22.03219 0.01574
C 32.0262 21.2577 -0.02383
C 31.98007 19.8683 -0.01429
C 34.38382 24.20189 0.03076
C 1.2284 23.48505 0.00723
C 1.20339 22.08894 0.02712
C 34.40899 21.31962 -0.02213
C 34.38827 19.8847 0.01951
C 1.25445 19.19776 -0.01678
C 1.21755 17.74102 0.01223
C 0.02601 17.03732 0.00648
C 34.41956 15.57454 0.02114
C 1.18666 14.89527 -0.02957
C 1.22944 13.51713 0.00343
C 34.40637 12.85234 -0.02656
C 34.42403 11.30618 -0.02442
C 1.22599 10.63562 -0.00027
C 1.1607 9.23393 -0.00583
C 34.42274 8.54339 -0.02302
C 0.01858 7.0998 -0.02849
C 1.13923 6.30808 0.02931
C 1.18708 4.93319 0.00628
C 0.01121 4.23677 -0.0345
C 34.42598 2.77012 -0.00931
C 1.21369 2.14543 -0.00939
C 1.27581 0.68037 -0.00468
C 34.43018 25.57127 -0.05239
C 27.08038 8.53717 0.02611
C 1.21577 26.24264 -0.00598
C 0.04567 28.32276 -0.01037
C 33.18404 19.14697 -0.0136
C 33.16138 17.74481 0.00594
C 31.98131 17.0289 -0.02474
C 32.04515 15.59544 0.00369
C 33.20338 14.91517 0.00455
C 33.11572 13.47385 -0.00644
C 31.88418 12.75006 -0.01839
C 31.96308 11.28936 0.00137
C 33.15374 10.65262 0.00199
C 33.2367 9.21363 0.04381
C 31.99478 8.52963 0.02806
C 31.87172 7.1202 0.01504
C 33.1216 6.33828 -0.00069
C 33.21986 4.95337 0.04926
C 31.9746 4.24134 -0.03838
C 32.02129 2.78837 0.00349
C 33.24798 2.06443 -0.00323
C 33.24424 0.68091 -0.00841
C 31.9563 34.07783 0.0001
C 0.01872 32.6 -0.02927
C 1.18902 31.91831 -0.01404
C 1.20745 30.55868 0.01027
C 0.05776 29.75722 0.01831
C 1.33028 27.64958 -0.00439
C 28.26548 9.19441 -0.00621
C 28.295 10.63612 0.00194
C 27.07962 11.36501 0.04185
C 22.15071 25.54058 0.00675
C 22.17883 24.14338 -0.00311
C 23.33392 23.40495 0.00742
C 23.37145 22.01231 -0.01594
C 22.18548 21.29117 0.0106
C 22.19095 19.90109 -0.01154
C 23.3863 19.20898 -0.01721
C 23.35076 17.79274 -0.02422
C 22.15324 16.95319 0.01277
C 22.10804 15.60912 0.00096
C 23.3699 14.91746 -0.01527
C 23.34941 13.55135 0.01087
C 22.10912 12.77034 0.00199
C 22.12303 11.37374 0.01511
C 23.3276 10.68587 -0.00478
C 23.35558 9.226 -0.01662
C 22.17083 8.53734 -0.01185
C 22.12537 7.15448 0.01126
C 23.36514 6.34464 0.01852
C 23.3738 5.0116 -0.00381
C 22.1838 4.26233 0.03046
C 22.18968 2.81777 0.0296
C 23.30631 2.06662 0.03374
C 23.40669 26.29526 -0.00865
C 23.33115 0.65946 -0.02845
C 23.51697 27.73024 0.0058
C 22.10137 29.84898 -0.04076
C 19.68181 19.88099 -0.0331
C 20.91304 19.15629 -0.00316
C 20.81718 17.76306 0.02188
C 19.60093 17.06523 -0.01979
C 19.62854 15.62589 0.02691
C 20.8526 14.8981 -0.01581
C 20.92575 13.44676 0.01452
C 19.58941 12.72748 0.04892
C 19.66489 11.35003 -0.00111
C 20.86489 10.65881 -0.03557
C 20.86947 9.19431 0.03754
C 19.64453 8.53756 0.01739
C 19.66465 7.10054 0.00755
C 20.90638 6.37691 -0.0054
C 20.89794 4.96737 0.00667
C 19.69239 4.17065 0.00143
C 19.70643 2.82112 -0.017
C 20.91655 2.11711 0.00364
C 20.92931 0.73082 -0.00831
C 19.75863 0.10527 -0.02957
C 22.13613 32.66737 -0.04422
C 23.32222 31.89112 0.00654
C 23.33934 30.50728 -0.00703
C 22.16911 28.4453 -0.00652
C 3.64126 31.99241 0.00267
C 22.13675 34.05552 -0.03213
C 25.87565 31.97049 0.01153
C 25.86868 2.16075 -0.0264
C 25.81428 0.73042 -0.01154
C 24.57527 34.03316 0.00684
C 27.07265 32.68995 -0.01052
C 28.29619 31.95299 -0.01679
C 28.25064 30.51222 0.00367
C 27.00451 29.79377 0.04306
C 27.04733 28.37578 0.00996
C 28.26019 27.68137 0.00195
C 28.30371 26.26753 -0.00802
C 27.0748 25.56441 -0.00218
C 27.04587 24.21408 -0.01654
C 28.31351 23.45527 -0.00037
C 28.24883 22.00723 -0.0032
C 27.0622 21.27068 0.00622
C 27.05572 19.8959 -0.02815
C 28.29373 19.21533 -0.00942
C 28.29025 17.71804 0.00487
C 27.02787 17.00426 0.00826
C 27.11846 15.62615 -0.00294
C 28.25896 14.96089 0.00152
C 28.29449 13.49862 0.01257
C 27.07359 12.81298 0.02316
C 24.58479 2.82496 -0.00938
C 24.61193 32.5955 0.02239
C 24.54611 4.22508 -0.00229
C 25.87798 6.37829 -0.009
C 25.79447 30.50052 0.02734
C 24.52 29.83656 -0.0055
C 24.60146 28.4116 0.01515
C 25.77019 27.70993 -0.00225
C 25.83133 26.2655 0.00071
C 24.5306 25.47823 -0.01107
C 24.55443 24.1164 -0.01586
C 25.82241 23.47761 -0.01971
C 25.83116 22.06696 -0.02118
C 24.57907 21.19467 0.00733
C 24.61242 19.86738 -0.00178
C 25.82589 19.22922 0.00768
C 25.79723 17.76664 -0.0276
C 24.57592 17.10725 0.03005
C 24.59908 15.59841 -0.04078
C 25.83754 14.88876 0.02117
C 25.84944 13.49136 0.02737
C 24.60499 12.79613 -0.00498
C 24.60963 11.34334 0.00135
C 25.86141 10.66384 0.03102
C 25.8245 9.22054 0.02555
C 24.59204 8.54426 0.01423
C 24.56677 7.07123 -0.00285
C 25.78165 5.00782 -0.01199
C 2.42533 32.63584 0.01913
