314
Graphene
C 34.35457 34.07941 0.01295
C 19.56171 21.11452 -0.0258
C 19.69421 19.63435 -0.0331
C 21.03917 19.07659 -0.00316
C 20.87934 17.7359 0.02188
C 19.46088 17.25405 -0.01979
C 19.43158 15.73956 0.02691
C 20.84579 15.16413 -0.01581
C 20.77643 13.63161 0.01452
C 19.5311 13.1175 0.04892
C 19.37 11.57651 -0.00111
C 20.64661 10.70704 -0.03557
C 20.6684 9.11902 0.03754
C 19.42401 8.20078 0.01739
C 19.57808 6.77851 0.00755
C 20.97218 6.24507 -0.0054
C 20.7826 21.95523 0.03338
C 20.8184 23.44139 -0.00491
C 19.65297 24.16289 -0.00109
C 19.55875 25.62779 0.03698
C 18.94038 18.34292 0.01848
C 18.47885 14.76789 -0.00619
C 18.52729 10.41417 -0.02162
C 18.43856 9.22172 0.00889
C 18.84277 5.69806 -0.00481
C 16.93264 2.46041 0.00979
C 18.26662 2.18116 0.01443
C 21.01257 4.96454 0.00667
C 18.49034 0.74959 0.03505
C 19.70994 32.66965 -0.04147
C 20.88007 31.92085 -0.05302
C 20.84586 30.49344 0.00213
C 19.60651 29.71475 -0.00066
C 19.6949 28.378 -0.00289
C 20.93272 27.62097 0.00028
C 20.80675 26.30476 -0.02213
C 17.19262 0.09382 -0.02815
C 18.43445 21.92113 0.02098
C 19.70809 4.41329 0.00143
C 20.89655 2.29728 0.00364
C 23.29283 13.44203 0.01087
C 21.98925 12.89024 0.00199
C 22.01087 11.44159 0.01511
C 23.17602 10.65972 -0.00478
C 23.23952 9.18506 -0.01662
C 22.02782 8.46383 -0.01185
C 22.05322 7.06623 0.01126
C 23.38494 6.37054 0.01852
C 23.43436 4.99627 -0.00381
C 22.20612 4.28552 0.03046
C 22.13179 2.88393 0.0296
C 23.30838 2.1111 0.03374
C 23.29601 0.79779 -0.02845
C 22.06403 0.06395 -0.03213
C 24.58195 32.67069 0.02239
C 23.39038 14.92121 -0.01527
C 22.10435 15.59434 0.00096
C 22.08714 17.08434 0.01277
C 23.33208 17.76186 -0.02422
C 20.91917 0.89692 -0.00831
C 19.71997 0.17515 -0.02957
C 22.11358 32.65792 -0.04422
C 23.34216 31.96469 0.00654
C 23.29857 30.55671 -0.00703
C 22.07794 29.85971 -0.04076
C 22.11335 28.38547 -0.00652
C 19.63212 2.97593 -0.017
C 23.291 27.67421 0.0058
C 22.13412 25.5499 0.00675
C 22.06451 24.08895 -0.00311
C 23.36833 23.40612 0.00742
C 23.28398 22.01385 -0.01594
C 22.04386 21.3121 0.0106
C 22.1992 19.87264 -0.01154
C 23.41041 19.15138 -0.01721
C 23.30639 26.2856 -0.00865
C 18.43496 23.30645 -0.03113
C 17.20977 24.00096 0.0351
C 17.07967 25.48516 0.00422
C 5.07193 8.49543 0.03589
C 4.88209 7.02493 -0.02759
C 6.06031 6.25822 0.0402
C 5.994 4.87059 0.00572
C 4.79162 4.11448 0.03592
C 4.8757 2.72852 0.00406
C 6.11975 2.04231 0.00943
C 6.05043 0.58461 0.02841
C 4.6659 34.07312 -0.01111
C 7.44226 7.84698 -0.01275
C 7.4919 6.56841 0.00985
C 8.19624 5.474 -0.02245
C 7.26567 4.27481 -0.00428
C 7.3494 2.86134 0.03101
C 8.60521 2.21349 -0.01536
C 6.52492 8.79055 -0.00033
C 3.92656 24.91537 -0.01062
C 2.30411 0.02246 0.01364
C 3.53529 0.72652 -0.00719
C 2.35587 24.06148 -0.01004
C 3.83018 23.39737 -0.02896
C 3.88201 22.13252 -0.00131
C 2.59255 21.21603 -0.01118
C 2.5115 19.7878 -0.014
C 2.32563 12.90969 0.02147
C 2.53908 11.54084 0.00373
C 8.55966 0.6717 -0.02689
C 3.75208 10.86514 -0.00191
C 2.45624 8.61064 0.01291
C 2.43188 7.18646 0.00093
C 3.61328 6.3834 0.00057
C 3.62335 4.91065 -0.01634
C 2.33101 4.29776 -0.00334
C 2.38629 2.96593 0.02339
C 3.62027 2.16071 0.01641
C 3.77126 9.28992 0.00438
C 7.37535 0.00903 -0.01046
C 10.0543 32.86914 -0.00891
C 11.03855 31.96178 0.02819
C 14.69931 29.78533 -0.01717
C 14.66669 28.32374 0.05265
C 15.91493 27.66713 -0.01952
C 15.88399 26.13824 -0.02813
C 14.59321 25.44616 0.00374
C 14.89557 24.05601 0.00052
C 15.93174 23.46303 -0.03682
C 15.85634 30.56865 0.00244
C 16.13064 1.06495 0.01965
C 17.12948 32.70086 -0.01957
C 18.5071 31.96242 -0.0108
C 18.35672 30.37704 -0.00368
C 17.08549 29.79551 -0.02696
C 17.08366 28.40902 -0.00114
C 18.29654 27.63857 0.00228
C 18.32052 26.23673 0.00798
C 14.79931 0.29422 0.02058
C 25.76385 31.90908 0.01153
C 15.94016 31.93284 0.02299
C 12.32073 0.13862 0.01416
C 11.0097 30.59436 0.00165
C 11.04909 27.75504 -0.02971
C 10.73639 26.32668 0.02894
C 10.2698 24.98431 -0.01789
C 9.92187 2.62758 0.00444
C 11.01777 0.97103 -0.00925
C 9.86114 0.17337 0.01877
C 14.72778 32.7886 0.03542
C 12.18002 32.81 0.01363
C 13.51081 30.58048 0.00415
C 12.22242 29.92413 -0.0014
C 12.23941 28.46374 0.02162
C 13.48831 27.63763 0.0076
C 13.37055 26.17172 0.01241
C 11.94173 25.58899 -0.01454
C 13.56551 0.74963 0.01945
C 13.55204 32.06967 -0.02162
C 25.69528 30.53859 0.02734
C 24.52702 29.79341 -0.0055
C 24.48384 28.35724 0.01515
C 31.89104 24.10341 0.03794
C 33.23265 23.43068 0.01927
C 33.20187 21.99737 0.01574
C 31.9019 21.3011 -0.02383
C 31.91278 19.89453 -0.01429
C 33.18733 19.18523 -0.0136
C 33.14149 17.78592 0.00594
C 31.86256 17.08005 -0.02474
C 31.9263 15.62644 0.00369
C 33.12762 14.97283 0.00455
C 33.12994 13.52572 -0.00644
C 31.88964 12.78089 -0.01839
C 31.88951 11.43766 0.00137
C 33.22883 10.78764 0.00199
C 33.17895 9.4068 0.04381
C 31.94187 25.56076 -0.01779
C 33.20127 26.26242 0.00682
C 33.12765 27.6024 0.00026
C 31.88777 28.30311 0.0544
C 29.52298 11.46276 -0.02155
C 30.74609 10.71531 -0.00944
C 30.78194 9.2749 -0.03735
C 29.52155 8.57078 -0.00971
C 29.52305 7.15757 0.01518
C 30.72999 6.36258 0.01908
C 30.71084 4.99302 0.07705
C 31.97039 8.57751 0.02806
C 29.44504 4.36691 0.0103
C 30.72047 2.15838 0.00716
C 30.72643 0.73852 0.00307
C 29.43601 0.01808 0.00346
C 31.87959 32.65025 0.01713
C 33.17836 31.99417 -0.01694
C 33.07868 30.57537 0.01428
C 31.85235 29.83436 -0.02142
C 29.45322 2.92013 0.02108
C 31.93151 7.16707 0.01504
C 33.13112 6.43467 -0.00069
C 33.14628 5.06823 0.04926
C 34.40756 17.10271 0.00648
C 34.35108 15.76342 0.02114
C 1.07625 15.15913 -0.02957
C 1.31633 13.79724 0.00343
C 34.38569 12.91886 -0.02656
C 34.417 11.45953 -0.02442
C 1.2441 10.75971 -0.00027
C 1.17309 17.69127 0.01223
C 1.22019 9.38492 -0.00583
C 34.37564 7.25081 -0.02849
C 1.16601 6.51217 0.02931
C 1.17304 5.0452 0.00628
C 34.42434 4.30615 -0.0345
C 34.32359 2.91621 -0.00931
C 1.15752 2.20959 -0.00939
C 1.11591 0.79713 -0.00468
C 34.42565 8.67009 -0.02302
C 29.41092 12.78226 -0.01461
C 1.35684 19.07312 -0.01678
C 0.02252 21.29746 -0.02213
C 31.91363 4.31595 -0.03838
C 31.96781 2.89624 0.00349
C 33.17011 2.15133 -0.00323
C 33.16363 0.69578 -0.00841
C 31.88903 0.02662 0.0001
C 0.0103 32.66546 -0.02927
C 1.34217 31.76853 -0.01404
C 0.02466 19.86435 0.01951
C 1.09605 30.43028 0.01027
C 34.37403 28.32072 -0.01037
C 1.21462 27.76841 -0.00439
C 1.45979 26.3929 -0.00598
C 0.12848 25.52627 -0.05239
C 0.0239 24.12151 0.03076
C 1.24051 23.39715 0.00723
C 1.29404 21.93072 0.02712
C 34.2608 29.78527 0.01831
C 2.69111 25.50861 0.00488
C 30.63169 13.489 -0.01303
C 29.50844 15.70124 0.01705
C 25.81049 6.4774 -0.009
C 25.77305 4.964 -0.01199
C 24.55788 4.20034 -0.00229
C 24.58834 2.73957 -0.00938
C 25.81704 2.11921 -0.0264
C 25.81782 0.78236 -0.01154
C 24.54239 0.11204 0.00684
C 26.9667 32.64692 -0.01052
C 28.23284 31.97363 -0.01679
C 28.16758 30.58684 0.00367
C 27.00099 29.86426 0.04306
C 26.93367 28.43987 0.00996
C 28.22957 27.61781 0.00195
C 28.24818 26.245 -0.00802
C 26.99973 25.52632 -0.00218
C 24.6119 7.18402 -0.00285
C 24.51528 8.57794 0.01423
C 25.78522 9.25574 0.02555
C 25.82917 10.65982 0.03102
C 25.73535 27.72697 -0.00225
C 25.77034 26.25916 0.00071
C 24.54219 25.60318 -0.01107
C 24.59158 24.127 -0.01586
C 25.79314 23.45833 -0.01971
C 25.74805 22.04817 -0.02118
C 24.54559 21.29092 0.00733
C 27.0604 24.18672 -0.01654
C 24.6773 19.81887 -0.00178
C 25.78063 17.73296 -0.0276
C 24.53992 17.0325 0.03005
C 24.55436 15.60969 -0.04078
C 25.78294 14.91448 0.02117
C 25.75755 13.53402 0.02737
C 24.55434 12.75828 -0.00498
C 24.47513 11.34384 0.00135
C 25.84483 19.16627 0.00768
C 28.24765 23.42244 -0.00037
C 28.20169 21.99879 -0.0032
C 26.96316 21.3184 0.00622
C 29.44725 32.69792 0.01177
C 30.71282 31.95321 0.04266
C 30.62266 30.51842 0.01324
C 29.45426 29.77076 0.0014
C 29.44581 28.44185 0.00924
C 30.6864 27.64274 0.02326
C 30.76289 26.21953 0.00261
C 26.99592 0.01931 -0.00416
C 29.48742 25.48792 0.03265
C 30.75694 23.44656 -0.01854
C 30.72796 22.01415 -0.01415
C 29.49367 21.32543 -0.03039
C 29.54992 19.95293 0.01836
C 30.7489 19.22287 0.03531
C 30.61438 17.83984 -0.00669
C 29.37936 17.14684 0.0101
C 29.44427 24.09006 -0.02049
C 30.68912 14.92619 -0.0405
C 28.17273 0.80672 0.01699
C 27.01545 2.88222 0.01259
C 27.07008 19.88154 -0.02815
C 28.28935 19.21584 -0.00942
C 28.15973 17.80322 0.00487
C 26.9971 17.00516 0.00826
C 27.0573 15.62148 -0.00294
C 28.31174 14.96201 0.00152
C 28.25762 13.54603 0.01257
C 28.24739 2.15937 0.01799
C 26.94216 12.84767 0.02316
C 28.28738 10.73652 0.00194
C 28.3117 9.24755 -0.00621
C 27.041 8.57002 0.02611
C 27.03897 7.10154 0.02198
C 28.31091 6.47759 0.01094
C 28.26127 5.07813 0.00235
C 26.97874 4.3018 0.01495
C 27.01533 11.40654 0.04185
C 2.43227 32.67153 0.01745
