445
Graphene
C 0.01595 0.01838 0.01295
C 13.54083 17.74768 0.01291
C 12.28784 17.08117 0.00093
C 12.30107 15.63539 0.00057
C 13.54378 14.9147 -0.01634
C 13.58263 13.52973 -0.00334
C 12.32479 12.81158 0.02339
C 12.27914 11.35928 0.01641
C 13.53209 10.65248 -0.00719
C 13.50438 9.18377 0.01364
C 12.30842 8.54845 -0.01062
C 12.32158 7.1246 -0.00033
C 13.53338 6.36676 0.03589
C 13.54376 4.94828 -0.02759
C 12.32894 4.25665 0.0402
C 12.26688 2.88664 0.00572
C 13.50583 2.13845 0.03592
C 13.51703 0.67739 0.00406
C 12.25047 34.04764 0.00943
C 14.77962 32.63467 0.02841
C 15.94605 31.93284 -0.01111
C 15.97498 30.59071 -0.01275
C 14.76906 29.79789 0.00985
C 14.73323 28.44056 -0.02245
C 13.51319 19.20159 0.00438
C 12.31755 19.92924 -0.00191
C 12.32122 21.32226 0.00373
C 13.53459 22.02485 0.02147
C 11.0825 13.46118 -0.00494
C 9.84538 12.78163 0.00054
C 9.84471 11.33567 0.03007
C 11.09039 10.64945 -0.00095
C 11.04752 9.29041 0.01572
C 9.79233 8.51772 -0.04848
C 9.83471 7.1283 -0.00892
C 11.05674 6.3579 -0.01362
C 11.06785 4.99146 -0.0008
C 9.86877 4.27696 0.0288
C 9.89794 2.85593 0.00393
C 15.95262 27.6708 -0.00428
C 11.0685 2.1616 0.00895
C 9.85379 34.03855 0.02888
C 12.25379 32.65098 -0.00482
C 13.52067 31.9176 -0.01384
C 13.58601 30.52816 0.03693
C 12.28843 29.81596 0.01745
C 12.28809 28.4203 0.00488
C 13.46569 27.75678 -0.01004
C 13.5051 26.3198 -0.02896
C 12.29389 25.54682 -0.00131
C 12.31457 24.09708 -0.01118
C 13.51768 23.46075 -0.014
C 11.06622 0.7104 0.00685
C 15.96306 26.28119 0.03101
C 14.73013 25.5612 -0.01536
C 14.75991 24.12156 -0.02689
C 18.45962 27.72275 0.00052
C 18.47356 26.26409 -0.03682
C 17.23664 25.56676 0.01965
C 17.23044 24.11194 0.02058
C 18.45766 23.40334 -0.01957
C 18.41393 22.01788 -0.0108
C 17.21751 21.28821 -0.00368
C 17.23435 19.82464 -0.02696
C 18.46488 19.14456 -0.00114
C 18.43591 17.78952 0.00228
C 17.18659 17.03091 0.00798
C 17.19795 28.39343 0.00374
C 17.14188 15.67303 0.00422
C 18.42587 13.48696 -0.03113
C 17.20144 12.77693 0.02098
C 17.23979 11.31879 0.01848
C 18.46514 10.65732 -0.00619
C 18.4471 9.26355 -0.02162
C 17.21183 8.55546 0.00889
C 17.22073 7.12417 -0.00481
C 18.42804 6.38912 0.00979
C 18.46486 4.96246 0.01443
C 17.18755 4.22334 0.03505
C 17.20394 2.83033 -0.02815
C 18.47927 14.90363 0.0351
C 11.04118 14.89179 -0.00562
C 17.18239 29.81689 -0.02813
C 18.43406 31.94388 0.05265
C 16.00758 23.44543 -0.01046
C 15.99202 22.00587 -0.00891
C 14.7752 21.30785 0.02819
C 14.78927 19.88443 0.00165
C 15.97557 19.17659 -0.02971
C 15.97631 17.70829 0.02894
C 14.72351 17.04799 -0.01789
C 14.75583 15.60411 0.00444
C 15.94849 14.89967 -0.00925
C 16.00419 13.4784 0.01877
C 14.80795 12.78735 0.01363
C 18.41145 30.53937 -0.01952
C 14.77632 11.3159 -0.02162
C 15.9812 9.24463 -0.0014
C 14.7564 8.53381 0.02162
C 14.76443 7.1071 0.0076
C 15.99118 6.34886 0.01241
C 15.98326 4.95419 -0.01454
C 14.72773 4.2857 0.01945
C 14.72256 2.86997 0.01416
C 15.97119 2.13481 0.03542
C 16.02408 0.74224 0.02299
C 14.78238 34.04139 0.00244
C 17.23082 32.68001 -0.01717
C 15.9734 10.66514 0.00415
C 9.87062 15.63728 -0.01142
C 9.81256 17.104 0.01849
C 11.08199 17.75936 0.01396
C 3.67659 0.67736 -0.01299
C 2.47017 34.07024 -0.00407
C 4.92664 32.66924 0.01138
C 6.21534 31.90155 0.03278
C 6.17509 30.52166 -0.00177
C 4.90075 29.82758 0.04421
C 4.96142 28.38534 0.00088
C 6.15952 27.69753 0.00828
C 6.09956 26.29307 -0.02375
C 4.92123 25.60646 0.00558
C 4.91135 24.1572 -0.0059
C 3.68988 2.11086 -0.0154
C 6.16604 23.4253 -0.01386
C 4.95706 21.29122 0.00081
C 4.90556 19.85063 0.00245
C 6.18686 19.1612 0.02728
C 6.0678 17.72711 -0.00039
C 4.883 17.07589 0.0064
C 4.90255 15.62866 0.00211
C 6.15388 14.89858 -0.00449
C 6.18726 13.48689 -0.01979
C 4.9006 12.73301 0.02784
C 4.91672 11.36589 -0.01977
C 6.16187 10.66452 -0.00561
C 6.13551 22.02003 -0.02805
C 6.15456 9.23564 0.00208
C 2.43856 2.77875 0.00662
C 3.70057 4.93447 0.03345
C 3.69846 30.53386 -0.02419
C 2.47104 29.79972 -0.03951
C 2.46158 28.42255 -0.00141
C 3.69038 27.71676 -0.00374
C 3.66723 26.25349 -0.0213
C 2.50699 25.57377 0.01116
C 2.51188 24.14752 -0.0005
C 3.69041 23.45694 -0.00018
C 3.66259 21.93148 0.01073
C 2.45204 21.27611 0.01984
C 2.44816 19.88435 0.00535
C 2.44082 4.18673 0.00748
C 3.70524 19.16996 -0.00198
C 2.45871 17.03776 -0.04306
C 2.43456 15.61477 -0.03672
C 3.70569 14.884 0.01913
C 3.68102 13.50583 0.00267
C 2.45355 12.83421 0.00787
C 2.45865 11.37273 0.02426
C 3.69649 10.65779 0.01218
C 3.69241 9.2189 -0.01471
C 2.4672 8.54243 -0.02827
C 2.46281 7.0998 0.01078
C 3.67643 6.40502 -0.00112
C 3.71911 17.78085 -0.00012
C 18.46962 2.18069 -0.04147
C 4.92573 8.55041 0.01707
C 6.20741 6.39592 -0.03291
C 8.59463 9.27329 -0.03113
C 7.37292 8.54584 -0.02566
C 7.3832 7.11419 -0.00094
C 8.55113 6.36563 0.02322
C 8.63243 4.96358 -0.00725
C 7.3848 4.26336 -0.05697
C 7.38661 2.84679 0.01087
C 8.59749 2.14852 -0.01343
C 8.57816 0.74543 0.00988
C 7.36158 0.03278 0.0276
C 9.79595 32.66919 0.01305
C 8.57446 10.6989 0.017
C 11.05513 31.95082 -0.00077
C 9.87655 29.79343 -0.02929
C 9.81175 28.44021 -0.00966
C 11.03021 27.6999 -0.03337
C 11.10105 26.31159 0.01227
C 9.88462 25.55674 0.00873
C 9.84388 24.14477 -0.00049
C 11.03094 23.4191 0.00848
C 11.10165 22.0154 -0.01303
C 9.82948 21.35756 -0.01378
C 9.79992 19.87534 0.02635
C 11.04641 19.18967 0.0127
C 11.05531 30.51199 0.03368
C 4.94546 7.1697 0.02769
C 7.33962 11.35514 -0.00643
C 8.63586 13.51988 -0.00518
C 6.16631 4.94476 -0.04999
C 4.9332 4.24429 0.04505
C 4.90254 2.8326 0.03284
C 6.15691 2.112 -0.04307
C 6.14037 0.71872 0.03189
C 4.90889 34.06536 0.00031
C 7.36648 32.68977 -0.003
C 8.57624 31.9641 0.01402
C 8.56986 30.58321 0.02379
C 7.41269 29.84546 0.00907
C 7.38456 28.38257 0.00643
C 7.44829 12.76726 0.0086
C 8.58243 27.71045 -0.01509
C 7.39021 25.59481 0.02374
C 7.42842 24.14418 0.00402
C 8.60961 23.42832 0.0073
C 8.59758 22.00493 0.0174
C 7.34785 21.3073 0.03828
C 7.41863 19.89523 0.01226
C 8.56914 19.15673 -0.00279
C 8.63903 17.73812 0.01996
C 7.38586 17.05239 -0.03996
C 7.38549 15.64441 0.01465
C 8.61256 14.88316 -0.00074
C 8.59114 26.2653 0.03267
C 3.7303 31.94863 0.02438
C 18.41788 0.70861 -0.05302
C 19.64685 32.66361 -0.00066
C 30.72845 19.14585 0.01705
C 30.75507 17.77925 -0.0405
C 29.5104 17.04783 -0.01303
C 29.5111 15.5971 -0.01461
C 30.7836 14.9039 -0.02155
C 30.75469 13.48909 -0.00944
C 29.55306 12.80769 -0.03735
C 29.50144 11.30864 -0.00971
C 30.76246 10.65071 0.01518
C 30.77513 6.38616 0.01908
C 30.72887 4.97936 0.07705
C 29.50065 4.23175 0.0103
C 29.51827 2.86385 0.02108
C 30.73562 2.11879 0.00716
C 30.76441 0.73681 0.00307
C 29.50992 34.05697 0.00346
C 31.97354 32.68495 0.01713
C 33.18448 31.96536 -0.01694
C 33.21112 30.531 0.01428
C 31.98242 29.79836 -0.02142
C 32.02543 28.42047 0.0544
C 33.23159 27.70151 0.00026
C 33.17116 26.2448 0.00682
C 29.49745 19.89522 0.0101
C 29.53037 21.2878 -0.00669
C 30.75773 22.03325 0.03531
C 30.72582 23.36286 0.01836
C 28.27039 14.88234 0.04185
C 28.28403 13.48793 0.00194
C 27.09396 12.79248 -0.00621
C 27.02998 11.35185 0.02611
C 28.24584 10.6483 0.02198
C 28.29398 9.19587 0.01094
C 27.05071 8.52467 0.00235
C 27.04426 7.06001 0.01495
C 28.29121 6.43724 0.01259
C 28.29314 4.99123 0.01799
C 27.04506 4.24995 0.01699
C 31.96982 25.53884 -0.01779
C 27.02679 2.80954 -0.00416
C 28.27366 0.70007 0.04266
C 27.05685 0.01327 0.01324
C 29.53998 32.61918 0.0014
C 30.74893 31.92457 0.00924
C 30.74349 30.52905 0.02326
C 29.49494 29.82747 0.00261
C 29.50253 28.41396 0.03265
C 30.72931 27.64991 -0.02049
C 30.7317 26.27611 -0.01854
C 29.50864 25.60485 -0.01415
C 29.5596 24.15892 -0.03039
C 28.26409 2.12861 0.01177
C 31.96711 24.13084 0.03794
C 33.21037 23.41132 0.01927
C 33.20436 22.00295 0.01574
C 34.42112 25.63265 -0.05239
C 34.42622 24.11732 0.03076
C 1.2289 23.43177 0.00723
C 1.17496 22.01886 0.02712
C 34.42353 21.31171 -0.02213
C 0.02127 19.88834 0.01951
C 1.20489 19.14874 -0.01678
C 1.20423 17.73556 0.01223
C 0.01373 17.01317 0.00648
C 34.41396 15.58028 0.02114
C 1.20529 14.91863 -0.02957
C 1.26222 26.24781 -0.00598
C 1.23919 13.49915 0.00343
C 34.43208 11.38056 -0.02442
C 1.20502 10.67164 -0.00027
C 1.24338 9.18909 -0.00583
C 34.41407 8.50908 -0.02302
C 34.40582 7.09418 -0.02849
C 1.21979 6.36569 0.02931
C 1.2491 4.93154 0.00628
C 34.42916 4.25098 -0.0345
C 34.39513 2.82892 -0.00931
C 1.21377 2.1269 -0.00939
C 1.25761 0.66857 -0.00468
C 34.41433 12.75834 -0.02656
C 27.06572 15.59289 0.02316
C 1.25129 27.65624 -0.00439
C 34.36549 29.82145 0.01831
C 31.96551 21.27318 -0.02383
C 31.98624 19.87973 -0.01429
C 33.20856 19.16592 -0.0136
C 33.20647 17.73198 0.00594
C 32.00434 17.02431 -0.02474
C 32.01809 15.58622 0.00369
C 33.20978 14.88968 0.00455
C 33.24089 13.43406 -0.00644
C 31.93492 12.76729 -0.01839
C 31.94871 11.35017 0.00137
C 33.21526 10.61102 0.00199
C 0.05488 28.40033 -0.01037
C 33.15763 9.21308 0.04381
C 31.94149 7.11883 0.01504
C 33.20847 6.39901 -0.00069
C 33.20343 4.9587 0.04926
C 32.00441 4.27142 -0.03838
C 31.95982 2.86313 0.00349
C 33.19858 2.12832 -0.00323
C 33.22717 0.68158 -0.00841
C 32.01185 0.01184 0.0001
C 0.01263 32.67851 -0.02927
C 1.23512 31.98924 -0.01404
C 1.25472 30.47672 0.01027
C 31.98044 8.51609 0.02806
C 27.08161 17.05902 0.01257
C 28.27021 17.77617 0.00152
C 28.25196 19.18574 -0.00294
C 20.90444 2.16004 -0.04422
C 20.88145 0.75457 0.00654
C 19.65236 34.04381 -0.00703
C 22.1754 32.66587 -0.04076
C 23.38786 32.00248 -0.00652
C 23.36652 30.50189 0.0058
C 22.15 29.84432 -0.00865
C 22.17662 28.40419 0.00675
C 23.38885 27.67568 -0.00311
C 23.33061 26.24345 0.00742
C 22.17848 25.53385 -0.01594
C 19.6689 2.83928 -0.02957
C 22.232 24.14596 0.0106
C 23.33059 22.03133 -0.01721
C 22.10846 21.29301 -0.02422
C 22.14444 19.8581 0.01277
C 23.2833 19.15074 0.00096
C 23.31011 17.76385 -0.01527
C 22.12141 17.00947 0.01087
C 22.12758 15.60137 0.00199
C 23.37421 14.87904 0.01511
C 23.31355 13.46163 -0.00478
C 22.11689 12.78076 -0.01662
C 22.10194 11.36216 -0.01185
C 23.33955 23.42704 -0.01154
C 23.37277 10.64241 0.01126
C 19.69315 4.27403 -0.00831
C 20.9098 6.37398 -0.017
C 20.89941 31.95973 -0.00289
C 20.95476 30.48166 0.00028
C 19.71123 29.81482 -0.02213
C 19.66659 28.39609 0.03698
C 20.90213 27.6428 -0.00109
C 20.95318 26.28604 -0.00491
C 19.66192 25.55937 0.03338
C 19.6617 24.10526 -0.0258
C 20.89314 23.40146 -0.0331
C 20.87112 22.05501 -0.00316
C 19.64436 21.31679 0.02188
C 20.91883 4.99147 0.00364
C 19.73202 19.89677 -0.01979
C 20.93244 17.76287 -0.01581
C 19.66888 17.05108 0.01452
C 19.66806 15.56819 0.04892
C 20.92542 14.94127 -0.00111
C 20.89799 13.47614 -0.03557
C 19.67542 12.77289 0.03754
C 19.66986 11.33337 0.01739
C 20.89085 10.62548 0.00755
C 20.90498 9.2138 -0.0054
C 19.67535 8.52615 0.00667
C 19.70048 7.07119 0.00143
C 20.90938 19.23358 0.02691
C 17.23898 0.01014 0.00213
C 23.32806 9.20378 0.01852
C 22.14683 7.06679 0.03046
C 25.83993 10.64606 -0.00285
C 25.83153 9.2632 -0.009
C 24.62221 8.47842 -0.01199
C 24.56082 7.095 -0.00229
C 25.8986 6.40906 -0.00938
C 25.79272 5.01288 -0.0264
C 24.63157 4.28364 -0.01154
C 24.58987 2.86764 0.00684
C 25.8139 2.08161 -0.01052
C 25.86444 0.65662 -0.01679
C 24.55321 34.07214 0.00367
C 24.63135 11.35925 0.01423
C 27.06808 32.66268 0.04306
C 28.2542 30.54628 0.00195
C 27.05466 29.82915 -0.00802
C 27.03759 28.4326 -0.00218
C 28.29185 27.68989 -0.01654
C 28.24934 26.21086 -0.00037
C 27.05664 25.56843 -0.0032
C 27.04055 24.15457 0.00622
C 28.29999 23.44134 -0.02815
C 28.27561 21.94353 -0.00942
C 27.06154 21.28485 0.00487
C 27.03437 19.9103 0.00826
C 28.26357 31.9518 0.00996
C 22.13867 8.53024 -0.00381
C 24.58391 12.73833 0.02555
C 25.83672 14.90913 0.00135
C 23.38304 6.38023 0.0296
C 23.35559 4.95126 0.03374
C 22.14087 4.23011 -0.02845
C 22.15351 2.8414 -0.03213
C 23.36698 2.17555 0.02239
C 23.39588 0.73174 0.01153
C 22.08098 34.04797 0.02734
C 24.56413 32.68265 -0.0055
C 25.80781 31.94137 0.01515
C 25.77281 30.53013 -0.00225
C 24.54108 29.85282 0.00071
C 25.82132 13.47915 0.03102
C 24.61419 28.42967 -0.01107
C 25.81084 26.2743 -0.01971
C 24.5889 25.57465 -0.02118
C 24.5628 24.13226 0.00733
C 25.83539 23.3622 -0.00178
C 25.79085 22.02 0.00768
C 24.57911 21.3516 -0.0276
C 24.61635 19.89445 0.03005
C 25.83625 19.15395 -0.04078
C 25.83771 17.77645 0.02117
C 24.60293 17.03193 0.02737
C 24.68609 15.6322 -0.00498
C 25.87001 27.64109 -0.01586
C 2.50422 32.72729 0.00297
