402
Graphene
C 34.38981 0.01539 0.01295
C 13.4143 19.18716 0.02819
C 13.57278 17.72338 0.00165
C 12.25604 17.01985 -0.02971
C 12.17069 15.62169 0.02894
C 13.40574 14.85098 -0.01789
C 13.50017 13.49297 0.00444
C 12.23956 12.74482 -0.00925
C 12.0619 11.39005 0.01877
C 13.70148 0.54649 0.01363
C 12.32707 0.07155 -0.02162
C 14.90153 32.39286 0.00415
C 16.17918 31.91654 -0.0014
C 14.88817 25.5807 0.02162
C 14.68478 24.26363 0.0076
C 15.89924 23.50029 0.01241
C 15.95426 22.06189 -0.01454
C 14.71172 21.36425 0.01945
C 14.72893 19.88587 0.01416
C 15.88577 19.24574 0.03542
C 15.97611 17.80961 0.02299
C 14.72983 17.02409 0.00244
C 12.24469 19.90854 -0.00891
C 14.69816 15.59238 -0.01717
C 12.33463 21.31703 -0.01046
C 13.4971 23.53414 -0.01536
C 9.85207 21.39311 -0.00334
C 9.78832 19.96544 0.02339
C 10.99516 19.17989 0.01641
C 11.01534 17.77292 -0.00719
C 9.81414 17.02202 0.01364
C 9.786 15.56603 -0.01062
C 10.98565 14.85773 -0.00033
C 11.0465 13.55272 0.03589
C 9.89931 12.82338 -0.02759
C 9.94028 11.48137 0.0402
C 11.08284 0.76105 0.00572
C 9.85828 0.07315 0.03592
C 12.2506 32.57146 0.00406
C 13.51929 31.79548 0.00943
C 13.42486 30.35743 0.02841
C 12.20272 29.8938 -0.01111
C 12.16369 28.53662 -0.01275
C 13.34063 27.99062 0.00985
C 13.60682 26.50077 -0.02245
C 12.36061 25.66258 -0.00428
C 12.27212 24.21842 0.03101
C 13.53053 22.11455 -0.02689
C 11.10705 22.13211 -0.01634
C 15.95003 14.92058 0.05265
C 14.71459 12.81145 -0.02813
C 17.26983 6.9785 -0.04147
C 18.51146 6.44351 -0.05302
C 18.57679 5.01756 0.00213
C 17.30052 4.49629 -0.00066
C 17.06425 3.00606 -0.00289
C 18.28662 2.19875 0.00028
C 18.44997 0.82091 -0.02213
C 17.32098 34.07493 0.03698
C 19.75229 32.75543 -0.00109
C 20.89395 31.98398 -0.00491
C 20.80179 30.48994 0.03338
C 19.63866 29.71845 -0.0258
C 19.8193 28.28351 -0.0331
C 20.90491 27.46192 -0.00316
C 21.67497 26.187 0.02188
C 19.57995 21.28763 -0.01979
C 19.72553 19.93308 0.02691
C 21.02022 19.3316 -0.01581
C 20.9601 17.90591 0.01452
C 19.74711 17.16281 0.04892
C 19.65267 15.74744 -0.00111
C 17.0599 8.44592 -0.02815
C 15.96148 13.38663 -0.01952
C 18.37473 9.20938 0.03505
C 17.09325 11.36172 0.00979
C 14.58924 11.38905 0.00374
C 15.79678 10.63434 0.00052
C 15.99012 9.2762 -0.03682
C 15.92532 2.08184 0.01965
C 16.01584 0.63785 0.02058
C 14.89337 33.86751 -0.01957
C 17.35847 32.6575 -0.0108
C 18.5362 31.89464 -0.00368
C 18.40369 30.55083 -0.02696
C 17.0946 24.0566 -0.00114
C 18.31842 23.50554 0.00228
C 18.40563 22.06922 0.00798
C 17.18921 21.24609 0.00422
C 17.19382 19.91362 0.0351
C 18.51687 19.24004 -0.03113
C 18.49845 17.85451 0.02098
C 17.24895 17.07978 0.01848
C 17.23909 15.63612 -0.00619
C 18.48115 14.93192 -0.02162
C 18.42186 13.44837 0.00889
C 17.156 12.78353 -0.00481
C 18.29013 10.59709 0.01443
C 11.04812 23.5826 0.00057
C 9.80603 24.247 0.00093
C 9.84439 25.72417 0.01291
C 2.45993 4.35135 0.03267
C 2.45728 2.90261 0.02374
C 3.69813 2.24615 0.00402
C 3.64583 0.79769 0.0073
C 2.41531 0.04099 0.0174
C 4.85787 32.89255 0.03828
C 6.06139 32.03123 0.01226
C 6.03883 30.60968 -0.00279
C 4.82847 29.84328 0.01996
C 4.8056 28.38775 -0.03996
C 6.10596 27.82677 0.01465
C 6.1768 26.41941 -0.00074
C 4.93019 25.56213 -0.00518
C 4.89175 24.09079 0.0086
C 6.1267 23.47635 -0.00643
C 6.09599 22.04923 0.017
C 4.88738 21.38808 -0.03113
C 4.89618 19.89576 -0.02566
C 6.11366 19.13782 -0.00094
C 6.17298 17.79112 0.02322
C 4.92381 17.05762 -0.00725
C 3.67695 5.09437 -0.01509
C 4.78894 15.60351 -0.05697
C 3.67968 6.50073 0.00643
C 2.28328 8.60109 0.02379
C 3.64049 30.61414 0.02728
C 2.38109 29.86002 -0.00039
C 2.45143 28.4679 0.0064
C 3.56051 27.61887 0.00211
C 3.67581 26.21933 -0.00449
C 2.43 25.51672 -0.01979
C 2.45265 24.05084 0.02784
C 3.69405 23.44036 -0.01977
C 3.6223 22.00449 -0.00561
C 2.43674 21.27676 0.00208
C 2.45589 19.86139 0.01707
C 3.72283 19.10897 0.02769
C 3.69824 17.74417 -0.03291
C 2.4432 17.04521 -0.04999
C 2.2992 15.63346 0.04505
C 3.57826 14.89966 0.03284
C 3.671 13.4787 -0.04307
C 2.42676 12.80148 0.03189
C 2.45021 11.40175 0.00031
C 3.62625 10.71611 -0.003
C 3.50072 9.31681 0.01402
C 2.32483 7.10741 0.00907
C 6.11121 14.97925 0.01087
C 6.11391 13.52042 -0.01343
C 4.91062 12.8041 0.00988
C 8.64076 17.76066 -0.01362
C 7.35173 17.06474 -0.0008
C 7.34956 15.65193 0.0288
C 8.59101 14.87051 0.00393
C 8.60678 13.47908 0.00895
C 7.39086 12.70353 0.00685
C 7.48214 11.3169 0.02888
C 8.80532 10.7361 -0.00482
C 6.97504 7.82447 -0.01384
C 7.27794 4.45564 0.03693
C 7.45191 2.98056 0.01745
C 8.66374 2.19622 0.00488
C 8.61007 0.77054 -0.01004
C 7.23731 0.10751 -0.02896
C 9.79989 32.67354 -0.00131
C 11.03779 31.9415 -0.01118
C 11.01341 30.53505 -0.014
C 9.75145 29.75528 0.02147
C 9.76085 28.37563 0.00373
C 10.95641 27.74782 -0.00191
C 11.0966 26.38663 0.00438
C 8.4816 19.20476 -0.00892
C 7.2573 19.90358 -0.04848
C 7.34106 21.34638 0.01572
C 8.63129 22.08401 -0.00095
C 4.94809 11.34923 0.0276
C 6.203 10.54486 0.01305
C 6.1217 9.05558 -0.00077
C 4.78683 8.63036 0.03368
C 4.76037 7.3678 -0.02929
C 6.23344 6.85169 -0.00966
C 6.28478 5.3118 -0.03337
C 4.99323 4.50241 0.01227
C 4.95475 3.02236 0.00873
C 6.16836 2.34706 -0.00049
C 20.89619 14.9979 -0.03557
C 6.1253 0.90125 0.00848
C 7.27028 32.75138 -0.01378
C 8.54304 31.9929 0.02635
C 8.4942 30.6143 0.0127
C 7.28396 29.95857 0.01396
C 7.31275 28.60598 0.01849
C 8.4514 27.7388 -0.01142
C 8.54619 26.37735 -0.00562
C 7.32615 25.62137 -0.00494
C 7.36103 24.20008 0.00054
C 8.59808 23.56043 0.03007
C 4.88588 0.18253 -0.01303
C 20.90897 13.54406 0.03754
C 19.62533 12.76402 0.01739
C 19.66224 11.29285 0.00755
C 29.43793 8.47992 -0.00971
C 29.50741 7.09649 0.01518
C 30.7214 6.32004 0.01908
C 30.67605 5.00118 0.07705
C 29.53288 4.27778 0.0103
C 29.51598 2.8621 0.02108
C 30.77565 2.09814 0.00716
C 30.7437 0.68239 0.00307
C 29.5577 34.02075 0.00346
C 32.08288 32.62549 0.01713
C 33.25106 31.89795 -0.01694
C 33.17819 30.5092 0.01428
C 31.92647 29.78612 -0.02142
C 31.94454 28.42109 0.0544
C 33.15281 27.60758 0.00026
C 33.15285 26.16251 0.00682
C 31.89639 25.45122 -0.01779
C 31.85284 24.07078 0.03794
C 33.19619 23.40177 0.01927
C 33.11957 22.0177 0.01574
C 31.81985 21.31733 -0.02383
C 30.67787 9.20414 -0.03735
C 31.90871 19.92215 -0.01429
C 30.6903 10.62566 -0.00944
C 29.41846 12.75008 -0.01461
C 28.36348 0.704 0.01699
C 27.18444 33.97763 -0.00416
C 29.55022 32.58197 0.01177
C 30.74598 31.94921 0.04266
C 30.75883 30.54659 0.01324
C 29.57575 29.74763 0.0014
C 29.49039 28.39784 0.00924
C 30.74813 27.62223 0.02326
C 30.64676 26.18471 0.00261
C 29.42688 25.47022 0.03265
C 29.47423 24.10538 -0.02049
C 30.67129 23.31111 -0.01854
C 30.6505 21.98591 -0.01415
C 29.36991 21.25721 -0.03039
C 29.45007 19.87074 0.01836
C 30.67551 19.17975 0.03531
C 30.62896 17.79891 -0.00669
C 29.42328 17.04721 0.0101
C 29.43439 15.66449 0.01705
C 30.6804 15.00548 -0.0405
C 30.65389 13.48325 -0.01303
C 29.48149 11.3526 -0.02155
C 33.12222 19.25181 -0.0136
C 33.10533 17.86383 0.00594
C 31.84264 17.0499 -0.02474
C 1.19009 21.88098 0.02712
C 34.38082 21.25542 -0.02213
C 34.36566 19.95019 0.01951
C 1.1353 19.21853 -0.01678
C 1.18758 17.81276 0.01223
C 34.34054 17.03003 0.00648
C 34.32139 15.64744 0.02114
C 1.1058 14.90226 -0.02957
C 1.15522 13.5125 0.00343
C 34.36501 12.76171 -0.02656
C 34.35715 11.29313 -0.02442
C 1.19283 10.68771 -0.00027
C 1.14022 9.33179 -0.00583
C 34.32479 8.64712 -0.02302
C 34.35359 7.22616 -0.02849
C 1.14348 6.4187 0.02931
C 1.20296 4.98759 0.00628
C 34.39441 4.32806 -0.0345
C 34.42299 2.87289 -0.00931
C 1.20672 2.15898 -0.00939
C 1.19633 0.77716 -0.00468
C 1.23483 23.2778 0.00723
C 0.0092 24.13622 0.03076
C 0.00769 25.5202 -0.05239
C 1.20819 26.27366 -0.00598
C 31.89227 15.6776 0.00369
C 33.10147 14.96062 0.00455
C 33.10961 13.46655 -0.00644
C 31.91093 12.77652 -0.01839
C 31.89496 11.35621 0.00137
C 33.17988 10.66728 0.00199
C 33.11432 9.31686 0.04381
C 31.87288 8.5605 0.02806
C 31.93206 7.15294 0.01504
C 33.15363 6.42409 -0.00069
C 28.32159 2.08306 0.01799
C 33.174 5.0706 0.04926
C 31.97873 2.85069 0.00349
C 33.18513 2.18176 -0.00323
C 33.18918 0.77047 -0.00841
C 31.97413 34.05201 0.0001
C 34.39607 32.69272 -0.02927
C 1.12036 32.03839 -0.01404
C 1.1773 30.56609 0.01027
C 34.38619 29.81938 0.01831
C 34.42256 28.31551 -0.01037
C 1.16145 27.6675 -0.00439
C 31.95447 4.28482 -0.03838
C 3.67404 32.03915 0.00245
C 27.11758 2.73975 0.01259
C 28.23603 4.99699 0.00235
C 23.35026 13.51415 0.01087
C 22.12708 12.77775 0.00199
C 22.1112 11.39927 0.01511
C 23.34695 10.6228 -0.00478
C 23.38631 9.23294 -0.01662
C 22.08234 8.50548 -0.01185
C 22.13665 7.11531 0.01126
C 23.33778 6.42553 0.01852
C 23.39671 4.99929 -0.00381
C 22.13811 4.2698 0.03046
C 22.15707 2.76041 0.0296
C 23.45009 2.11369 0.03374
C 23.39156 0.69431 -0.02845
C 22.14771 33.98911 -0.03213
C 24.61188 32.60244 0.02239
C 25.84494 31.95524 0.01153
C 25.91705 30.5884 0.02734
C 24.6575 29.84199 -0.0055
C 24.60664 28.37922 0.01515
C 25.7968 27.62618 -0.00225
C 25.54769 26.16158 0.00071
C 23.37316 14.91271 -0.01527
C 24.12233 25.42688 -0.01107
C 22.11779 15.67648 0.00096
C 23.36924 17.79869 -0.02422
C 20.91892 10.61712 -0.0054
C 20.90351 9.19381 0.00667
C 19.63565 8.58962 0.00143
C 19.72632 7.0842 -0.017
C 20.91441 6.372 0.00364
C 20.93806 4.92759 -0.00831
C 19.7489 4.20582 -0.02957
C 19.64005 2.77046 -0.04422
C 20.89855 2.02844 0.00654
C 20.99552 0.71968 -0.00703
C 19.70286 0.05625 -0.04076
C 22.14335 32.51522 -0.00652
C 23.38661 31.88858 0.0058
C 23.3881 30.41709 -0.00865
C 22.07181 29.81557 0.00675
C 22.17185 28.48061 -0.00311
C 23.40338 27.72034 0.00742
C 22.91584 26.35132 -0.01594
C 22.84881 21.27631 0.0106
C 22.28204 19.97799 -0.01154
C 23.43569 19.11804 -0.01721
C 22.22349 17.09395 0.01277
C 24.38029 24.12254 -0.01586
C 25.66749 23.43864 -0.01971
C 25.55687 21.9679 -0.02118
C 28.36302 27.60936 0.00195
C 28.2055 26.18024 -0.00802
C 26.8286 25.5751 -0.00218
C 26.94938 24.20328 -0.01654
C 28.14149 23.44351 -0.00037
C 28.15232 21.94136 -0.0032
C 26.87995 21.3084 0.00622
C 27.00343 19.85083 -0.02815
C 28.20416 19.14531 -0.00942
C 28.23723 17.75718 0.00487
C 26.99579 17.02336 0.00826
C 27.01946 15.63378 -0.00294
C 28.22561 14.82409 0.00152
C 28.17634 13.40516 0.01257
C 26.97936 12.7836 0.02316
C 26.97746 11.32823 0.04185
C 28.24618 10.59827 0.00194
C 28.20808 9.19877 -0.00621
C 27.0271 8.45964 0.02611
C 27.03442 7.08938 0.02198
C 28.26215 6.44146 0.01094
C 27.05341 28.32473 0.00996
C 27.03246 29.72943 0.04306
C 28.29483 30.457 0.00367
C 28.33841 31.85949 -0.01679
C 24.38009 21.15627 0.00733
C 24.60725 19.78474 -0.00178
C 25.77758 19.19063 0.00768
C 25.81883 17.78453 -0.0276
C 24.62551 17.07463 0.03005
C 24.5732 15.67019 -0.04078
C 25.81705 14.88625 0.02117
C 25.80649 13.49406 0.02737
C 24.57435 12.88145 -0.00498
C 24.49112 11.34979 0.00135
C 26.96357 4.09994 0.01495
C 25.8051 10.59941 0.03102
C 24.56827 8.48187 0.01423
C 24.57965 7.04525 -0.00285
C 25.81885 6.32477 -0.009
C 25.77531 4.9156 -0.01199
C 24.57648 4.21072 -0.00229
C 24.59293 2.78484 -0.00938
C 25.87875 2.05954 -0.0264
C 25.90709 0.67507 -0.01154
C 24.61131 34.06757 0.00684
C 27.14771 32.61515 -0.01052
C 25.82001 9.16572 0.02555
C 2.41555 32.74872 0.00081
