436
Graphene
C 0.13269 33.91929 0.01295
C 13.44368 9.29915 0.02339
C 12.27526 8.54362 0.01641
C 12.24384 7.13759 -0.00719
C 13.51089 6.38755 0.01364
C 13.45793 4.93991 -0.01062
C 12.23208 4.29935 -0.00033
C 12.29 2.86631 0.03589
C 13.54401 2.16558 -0.02759
C 13.5403 0.70339 0.0402
C 12.29813 0.02347 0.00572
C 14.76619 32.75627 0.03592
C 15.95767 31.94819 0.00406
C 15.95706 30.48793 0.00943
C 14.74315 29.76788 0.02841
C 14.71354 28.36014 -0.01111
C 15.97198 27.70725 -0.01275
C 15.99121 26.32834 0.00985
C 14.7421 25.62739 -0.02245
C 14.67668 24.22489 -0.00428
C 15.99619 23.46736 0.03101
C 15.90509 21.96396 -0.01536
C 14.63985 21.28822 -0.02689
C 14.69481 19.83188 -0.01046
C 13.53095 10.69647 -0.00334
C 15.89496 19.18267 -0.00891
C 12.2533 11.3901 -0.01634
C 13.49705 13.6248 0.00093
C 9.75437 4.33831 -0.00892
C 9.92417 2.94492 -0.01362
C 11.03913 2.06367 -0.0008
C 11.03415 0.70888 0.0288
C 9.75992 34.05232 0.00393
C 12.21299 32.70749 0.00895
C 13.48817 31.94264 0.00685
C 13.49304 30.47864 0.02888
C 12.19283 29.86578 -0.00482
C 12.25777 28.46647 -0.01384
C 13.41303 27.73963 0.03693
C 13.44206 26.33324 0.01745
C 12.26455 25.5702 0.00488
C 12.26534 24.23869 -0.01004
C 13.4903 23.47067 -0.02896
C 13.44095 22.05457 -0.00131
C 12.1917 21.33138 -0.01118
C 12.29117 19.87382 -0.014
C 13.47626 19.19204 0.02147
C 13.53049 17.77121 0.00373
C 12.25428 17.11426 -0.00191
C 12.20744 15.74825 0.00438
C 13.45734 15.00868 0.01291
C 12.25648 12.90674 0.00057
C 15.91969 17.7712 0.02819
C 14.72893 17.00189 0.00165
C 14.72199 15.57456 -0.02971
C 18.44808 19.12237 -0.0108
C 18.35902 17.72304 -0.00368
C 17.1525 17.06508 -0.02696
C 17.15117 15.58115 -0.00114
C 18.43249 14.89673 0.00228
C 18.43276 13.48385 0.00798
C 17.20442 12.7717 0.00422
C 17.20243 11.41527 0.0351
C 18.46707 10.64489 -0.03113
C 18.31042 9.23983 0.02098
C 17.16448 8.51108 0.01848
C 17.18741 7.10464 -0.00619
C 18.47347 6.38903 -0.02162
C 18.45785 4.97367 0.00889
C 17.18318 4.28674 -0.00481
C 17.11178 2.81672 0.00979
C 18.31811 2.16912 0.01443
C 18.41412 0.76053 0.03505
C 17.20497 0.02166 -0.02815
C 19.64426 32.65999 -0.04147
C 20.84683 31.95207 -0.05302
C 20.93164 30.55505 0.00213
C 19.70092 29.88079 -0.00066
C 17.26432 19.85643 -0.01957
C 17.19832 21.32937 0.02058
C 18.39729 22.02558 0.01965
C 18.40039 23.44539 -0.03682
C 15.94629 14.88817 0.02894
C 15.95579 13.4834 -0.01789
C 14.74244 12.87377 0.00444
C 14.75539 11.47048 -0.00925
C 15.95808 10.64477 0.01877
C 15.91928 9.23815 0.01363
C 14.7078 8.52708 -0.02162
C 14.71456 7.11947 0.00415
C 15.94417 6.40904 -0.0014
C 15.90347 5.02514 0.02162
C 14.77306 4.30912 0.0076
C 11.02564 5.00302 -0.04848
C 14.79668 2.85084 0.01241
C 16.0104 0.61863 0.01945
C 14.77602 0.07135 0.01416
C 17.23371 32.63513 0.03542
C 18.41537 31.94469 0.02299
C 18.39672 30.46308 0.00244
C 17.14879 29.8208 -0.01717
C 17.17363 28.36912 0.05265
C 18.4152 27.67638 -0.01952
C 18.41098 26.25796 -0.02813
C 17.22011 25.54372 0.00374
C 17.19842 24.10923 0.00052
C 15.93475 2.07859 -0.01454
C 19.64785 28.34975 -0.00289
C 11.06808 6.37735 0.01572
C 9.84559 8.61032 0.03007
C 4.81511 25.7173 -0.02375
C 4.79079 24.24118 0.00558
C 6.09909 23.49432 -0.0059
C 6.11895 22.11011 -0.01386
C 4.90175 21.38822 -0.02805
C 4.84558 19.9542 0.00081
C 6.05524 19.1978 0.00245
C 6.10049 17.76926 0.02728
C 4.90098 16.9731 -0.00039
C 4.95021 15.61734 0.0064
C 6.11245 14.90271 0.00211
C 6.04567 13.51638 -0.00449
C 4.83191 12.77826 -0.01979
C 4.88096 11.33605 0.02784
C 6.09694 10.643 -0.01977
C 6.07072 9.31351 -0.00561
C 4.89689 8.54001 0.00208
C 4.84903 7.12288 0.01707
C 6.1386 6.49664 0.02769
C 6.12825 5.06492 -0.03291
C 4.87149 4.3384 -0.04999
C 4.90724 2.94027 0.04505
C 6.12101 2.25642 0.03284
C 6.02367 26.30231 0.00828
C 6.12002 0.9439 -0.04307
C 5.50147 32.84904 0.00088
C 3.77734 0.71904 -0.00177
C 2.39089 25.59298 0.01984
C 2.36928 24.17129 0.00535
C 3.58526 23.50084 -0.00198
C 3.60882 22.03046 -0.00012
C 2.38872 21.27871 -0.04306
C 2.42476 19.87397 -0.03672
C 3.60587 19.18249 0.01913
C 3.65459 17.74629 0.00267
C 2.3924 16.99075 0.00787
C 2.36929 15.58032 0.02426
C 3.64261 14.88226 0.01218
C 3.59388 13.41611 -0.01471
C 2.42702 12.71179 -0.02827
C 2.4256 11.32233 0.01078
C 3.67381 10.62918 -0.00112
C 3.60811 9.19043 0.03345
C 2.3767 8.52141 0.00748
C 2.42214 7.02904 0.00662
C 3.71958 6.40813 -0.0154
C 3.61756 4.97383 -0.01299
C 2.39737 4.22354 -0.00407
C 2.45497 2.81239 0.01138
C 3.69832 2.16765 0.03278
C 2.59658 34.0145 0.04421
C 5.03165 0.0695 0.03189
C 6.92867 32.94202 0.00031
C 8.23445 31.97315 -0.003
C 9.63728 32.65324 -0.01343
C 10.9238 31.99048 0.00988
C 11.02961 30.62504 0.0276
C 9.80247 29.87656 0.01305
C 9.7468 28.37961 -0.00077
C 11.02265 27.69944 0.03368
C 11.03562 26.31395 -0.02929
C 9.81542 25.71342 -0.00966
C 9.73849 24.28487 -0.03337
C 10.98414 23.56261 0.01227
C 10.97062 22.07356 0.00873
C 9.82111 21.29979 -0.00049
C 9.75277 19.9233 0.00848
C 10.93592 19.20354 -0.01303
C 11.0535 17.80061 -0.01378
C 9.85027 17.07436 0.02635
C 9.79472 15.7216 0.0127
C 10.99154 14.9709 0.01396
C 11.01626 13.52799 0.01849
C 9.77841 12.84055 -0.01142
C 9.79813 11.37702 -0.00562
C 11.05877 10.70898 -0.00494
C 11.039 9.26772 0.00054
C 7.27753 0.1623 0.01087
C 8.57176 0.81453 -0.05697
C 8.65836 2.28633 -0.00725
C 7.46736 2.96986 0.02322
C 8.60079 30.60216 0.01402
C 8.523 27.82147 0.02379
C 8.52719 26.41463 0.00907
C 7.31083 25.72698 0.00643
C 7.32888 24.18327 -0.01509
C 8.54928 23.51036 0.03267
C 8.60921 22.02733 0.02374
C 7.36088 21.37515 0.00402
C 7.30772 19.9939 0.0073
C 8.52828 19.22447 0.0174
C 8.60339 17.86923 0.03828
C 9.88105 7.21967 -0.00095
C 7.34494 17.09787 0.01226
C 8.58189 14.95372 0.01996
C 8.50571 13.53723 -0.03996
C 7.363 12.74316 0.01465
C 7.2311 11.30966 -0.00074
C 8.52181 10.64656 -0.00518
C 8.58384 9.25851 0.0086
C 7.40075 8.56269 -0.00643
C 7.40143 7.10597 0.017
C 8.61841 6.52406 -0.03113
C 8.62543 5.04532 -0.02566
C 7.42116 4.32297 -0.00094
C 7.27916 15.65696 -0.00279
C 20.88627 27.74245 0.00028
C 20.82921 26.33096 -0.02213
C 19.65268 25.54891 0.03698
C 30.68841 14.84561 -0.0405
C 30.67259 13.39667 -0.01303
C 29.44379 12.74436 -0.01461
C 29.50529 11.35168 -0.02155
C 30.68045 10.56016 -0.00944
C 30.6706 9.05122 -0.03735
C 29.43307 8.39817 -0.00971
C 29.47592 6.99939 0.01518
C 30.70464 6.18524 0.01908
C 30.71575 4.84004 0.07705
C 29.56023 4.1629 0.0103
C 29.5058 2.73573 0.02108
C 30.72973 2.09128 0.00716
C 30.75444 0.66832 0.00307
C 29.50812 0.00454 0.00346
C 32.11885 32.64027 0.01713
C 33.40963 31.85351 -0.01694
C 33.24103 30.47325 0.01428
C 31.98988 29.83901 -0.02142
C 32.02357 28.40941 0.0544
C 33.24439 27.67862 0.00026
C 33.1591 26.25223 0.00682
C 31.98774 25.58642 -0.01779
C 29.47175 15.57072 0.01705
C 31.92466 24.15778 0.03794
C 29.42018 17.00846 0.0101
C 30.76856 19.10081 0.03531
C 28.29121 9.18695 -0.00621
C 27.07221 8.41771 0.02611
C 27.00651 7.0108 0.02198
C 28.201 6.30494 0.01094
C 28.2807 4.86108 0.00235
C 27.02028 4.18781 0.01495
C 27.00732 2.8067 0.01259
C 28.22438 2.09543 0.01799
C 28.25553 0.696 0.01699
C 27.03494 34.0412 -0.00416
C 29.56229 32.65008 0.01177
C 30.78358 31.92856 0.04266
C 30.75376 30.55417 0.01324
C 29.48538 29.86142 0.0014
C 29.49942 28.4545 0.00924
C 30.80278 27.79877 0.02326
C 30.72582 26.2865 0.00261
C 29.48878 25.61154 0.03265
C 29.50282 24.26835 -0.02049
C 30.71274 23.47004 -0.01854
C 30.70496 22.06018 -0.01415
C 29.46771 21.28196 -0.03039
C 29.50318 19.83976 0.01836
C 30.64123 17.6985 -0.00669
C 33.14773 23.43211 0.01927
C 33.07013 21.99815 0.01574
C 31.83559 21.30511 -0.02383
C 34.35478 24.16608 0.03076
C 1.13093 23.44933 0.00723
C 1.19008 22.00079 0.02712
C 34.39573 21.29933 -0.02213
C 0.05986 19.85828 0.01951
C 1.23248 19.13025 -0.01678
C 1.17528 17.72147 0.01223
C 34.40655 17.02363 0.00648
C 34.34385 15.54389 0.02114
C 1.0653 14.83457 -0.02957
C 1.20632 13.43234 0.00343
C 34.41043 12.70537 -0.02656
C 34.40124 11.21724 -0.02442
C 1.20561 10.53768 -0.00027
C 1.13038 9.17863 -0.00583
C 34.31802 8.45687 -0.02302
C 34.34381 6.99781 -0.02849
C 1.15297 6.31054 0.02931
C 1.18172 4.87369 0.00628
C 34.41064 4.16281 -0.0345
C 0.01847 2.73269 -0.00931
C 1.23997 2.04585 -0.00939
C 1.26862 0.63072 -0.00468
C 34.36574 25.53527 -0.05239
C 1.13909 26.27999 -0.00598
C 1.24581 27.73804 -0.00439
C 0.02803 28.3433 -0.01037
C 31.9528 19.9082 -0.01429
C 33.23709 19.25601 -0.0136
C 33.18543 17.74367 0.00594
C 31.88225 16.97993 -0.02474
C 31.94184 15.61281 0.00369
C 33.14808 14.90242 0.00455
C 33.16358 13.43329 -0.00644
C 31.92058 12.72127 -0.01839
C 31.92201 11.30742 0.00137
C 33.12955 10.52804 0.00199
C 33.12046 9.15583 0.04381
C 28.23583 10.60583 0.00194
C 31.90997 8.38582 0.02806
C 33.16171 6.25656 -0.00069
C 33.19183 4.86323 0.04926
C 31.95146 4.16286 -0.03838
C 31.90675 2.70516 0.00349
C 33.20847 1.99635 -0.00323
C 33.33153 0.56047 -0.00841
C 32.04085 34.0455 0.0001
C 0.26706 32.54567 -0.02927
C 1.56623 31.77215 -0.01404
C 1.37001 30.41753 0.01027
C 0.08825 29.81524 0.01831
C 31.95812 6.92307 0.01504
C 27.04962 11.3261 0.04185
C 26.97086 12.80704 0.02316
C 28.24273 13.39123 0.01257
C 22.09723 28.43763 -0.00652
C 23.33927 27.74809 0.0058
C 23.29162 26.37394 -0.00865
C 22.11095 25.62139 0.00675
C 22.14295 24.23003 -0.00311
C 23.37957 23.45678 0.00742
C 23.28421 22.04771 -0.01594
C 22.0566 21.4048 0.0106
C 22.0755 19.89813 -0.01154
C 23.32955 19.20831 -0.01721
C 23.35657 17.79946 -0.02422
C 22.101 17.07927 0.01277
C 22.1245 15.65266 0.00096
C 23.41043 14.88867 -0.01527
C 23.33301 13.50925 0.01087
C 22.09156 12.79348 0.00199
C 22.16687 11.36139 0.01511
C 23.31582 10.64604 -0.00478
C 23.35381 9.22848 -0.01662
C 22.02896 8.38259 -0.01185
C 22.09883 7.06248 0.01126
C 23.32168 6.41317 0.01852
C 23.36612 5.04089 -0.00381
C 22.11673 29.82227 -0.04076
C 23.37722 30.49178 -0.00703
C 23.25773 31.89653 0.00654
C 22.05346 32.65881 -0.04422
C 19.59937 24.19762 -0.00109
C 20.93041 23.5047 -0.00491
C 20.8731 22.0844 0.03338
C 19.71075 21.31619 -0.0258
C 19.61946 19.91559 -0.0331
C 20.85908 19.13938 -0.00316
C 20.79962 17.7374 0.02188
C 19.54347 17.08011 -0.01979
C 19.59339 15.6197 0.02691
C 20.8203 14.94667 -0.01581
C 20.88438 13.48421 0.01452
C 22.09095 4.31275 0.03046
C 19.65998 12.77304 0.04892
C 20.87925 10.63205 -0.03557
C 20.89647 9.22996 0.03754
C 19.56034 8.57044 0.01739
C 19.67111 7.16056 0.00755
C 20.83904 6.44288 -0.0054
C 20.86184 4.97714 0.00667
C 19.61692 4.27326 0.00143
C 19.59357 2.8308 -0.017
C 20.81752 2.1453 0.00364
C 20.84562 0.7679 -0.00831
C 19.66463 0.0748 -0.02957
C 19.67593 11.31721 -0.00111
C 3.52591 26.29702 0.01073
C 22.09394 2.844 0.0296
C 23.34143 0.75229 -0.02845
C 24.57696 4.2962 -0.00229
C 24.5095 2.85491 -0.00938
C 25.78766 2.07889 -0.0264
C 25.78171 0.70401 -0.01154
C 24.58837 0.09636 0.00684
C 27.0497 32.6767 -0.01052
C 28.25467 31.91967 -0.01679
C 28.19193 30.53122 0.00367
C 26.99288 29.88448 0.04306
C 26.963 28.49957 0.00996
C 28.23042 27.71328 0.00195
C 28.27703 26.2594 -0.00802
C 27.00832 25.54865 -0.00218
C 27.09089 24.17031 -0.01654
C 28.25097 23.49638 -0.00037
C 28.19999 21.97326 -0.0032
C 26.96556 21.32677 0.00622
C 26.96822 19.91084 -0.02815
C 28.22662 19.18444 -0.00942
C 28.23812 17.7858 0.00487
C 27.02633 17.09439 0.00826
C 27.07708 15.63164 -0.00294
C 28.22751 14.87923 0.00152
C 25.8235 4.92932 -0.01199
C 25.73589 6.28289 -0.009
C 24.57246 7.1334 -0.00285
C 24.5579 8.52799 0.01423
C 22.05164 0.03401 -0.03213
C 24.47473 32.64368 0.02239
C 25.75175 32.00116 0.01153
C 25.80177 30.53675 0.02734
C 24.61127 29.79856 -0.0055
C 24.54786 28.42686 0.01515
C 25.76901 27.68946 -0.00225
C 25.80717 26.24786 0.00071
C 24.51347 25.58504 -0.01107
C 24.53987 24.19862 -0.01586
C 25.79302 23.52926 -0.01971
C 23.29319 2.13372 0.03374
C 25.72764 22.05186 -0.02118
C 24.55795 19.88746 -0.00178
C 25.79007 19.18904 0.00768
C 25.7581 17.79599 -0.0276
C 24.58316 17.02126 0.03005
C 24.66991 15.69445 -0.04078
C 25.86428 14.96432 0.02117
C 25.78696 13.57353 0.02737
C 24.5953 12.84808 -0.00498
C 24.59793 11.3489 0.00135
C 25.85753 10.64978 0.03102
C 25.88761 9.21126 0.02555
C 24.51607 21.25293 0.00733
C 2.76193 32.69595 -0.00018
