340
Graphene
C 34.36305 0.06186 0.01295
C 14.48436 11.04952 -0.00619
C 15.87648 10.68449 -0.02162
C 16.02528 9.22319 0.00889
C 14.6305 8.60789 -0.00481
C 14.70755 7.23545 0.00979
C 15.91931 6.48703 0.01443
C 15.91639 4.9982 0.03505
C 14.73837 4.29467 -0.02815
C 14.61952 2.82235 -0.04147
C 15.93601 2.11872 -0.05302
C 16.02202 0.68224 0.00213
C 14.73576 0.03027 -0.00066
C 17.25962 32.5188 -0.00289
C 18.49686 31.93129 0.00028
C 18.37242 17.69208 -0.02213
C 17.2259 16.93865 0.03698
C 17.14788 15.51625 -0.00109
C 14.53174 12.64904 0.01848
C 18.37768 14.89904 -0.00491
C 15.84032 13.41854 0.02098
C 14.76274 15.57057 0.0351
C 13.09766 29.44063 -0.01717
C 11.91286 28.75788 0.05265
C 12.12989 21.31465 -0.01952
C 12.52965 20.00426 -0.02813
C 13.67299 19.15938 0.00374
C 13.57652 17.76013 0.00052
C 12.38869 17.10307 -0.03682
C 12.31291 15.62946 0.01965
C 13.51612 14.88915 0.02058
C 13.73385 9.91965 -0.01957
C 13.57777 2.03268 -0.0108
C 13.50486 0.70383 -0.00368
C 12.05145 0.10943 -0.02696
C 14.85138 32.74337 -0.00114
C 15.93308 31.99119 0.00228
C 15.9907 17.61544 0.00798
C 14.83857 16.98694 0.00422
C 15.99362 14.83269 -0.03113
C 18.29508 13.5301 0.03338
C 17.1144 12.72823 -0.0258
C 17.09288 11.35358 -0.0331
C 19.64855 8.58087 -0.04076
C 19.64466 7.16765 -0.00652
C 20.81198 6.45887 0.0058
C 20.8325 5.01225 -0.00865
C 19.59859 4.32722 0.00675
C 19.57607 2.91514 -0.00311
C 20.82061 2.20888 0.00742
C 20.87721 0.77857 -0.01594
C 19.72539 0.01877 0.0106
C 22.16903 32.70399 -0.01154
C 23.3547 31.93293 -0.01721
C 23.2449 30.58427 -0.02422
C 23.27632 19.10351 0.01277
C 23.40145 17.78632 0.00096
C 22.12347 16.92899 -0.01527
C 22.08344 15.57623 0.01087
C 23.35295 14.91179 0.00199
C 20.9045 9.23942 -0.00703
C 20.8553 10.64852 0.00654
C 19.63205 11.3598 -0.04422
C 19.58689 12.75016 -0.02957
C 18.42802 10.61714 -0.00316
C 18.39925 9.29674 0.02188
C 17.16218 8.51352 -0.01979
C 17.1636 7.05881 0.02691
C 18.35548 6.38208 -0.01581
C 18.39972 4.99033 0.01452
C 17.18648 4.296 0.04892
C 17.17083 2.87085 -0.00111
C 13.30398 30.66673 0.00244
C 18.39836 2.16855 -0.03557
C 17.25459 33.9759 0.01739
C 19.80702 32.58279 0.00755
C 21.04864 31.90209 -0.0054
C 20.94466 17.59193 0.00667
C 19.63855 17.21751 0.00143
C 19.55233 15.70595 -0.017
C 20.81728 14.92782 0.00364
C 20.83992 13.42808 -0.00831
C 18.4493 0.66036 0.03754
C 23.30936 13.54216 0.01511
C 13.6283 32.15188 0.02299
C 9.26774 0.66238 0.01416
C 2.49654 8.32645 -0.00482
C 2.39923 6.91451 -0.01384
C 2.2949 4.3088 0.03693
C 2.54396 2.88944 0.01745
C 3.71074 2.09002 0.00488
C 3.68796 0.76347 -0.01004
C 2.4366 34.00768 -0.02896
C 4.95432 32.72153 -0.00131
C 6.13303 32.03387 -0.01118
C 6.20032 30.59929 -0.014
C 4.96299 29.93636 0.02147
C 4.93459 28.51395 0.00373
C 6.14707 27.75335 -0.00191
C 6.12077 26.32473 0.00438
C 4.88634 25.56059 0.01291
C 4.92923 24.19284 0.00093
C 6.13116 23.45591 0.00057
C 3.51197 9.27251 0.02888
C 6.16444 22.01029 -0.01634
C 3.73362 10.60444 0.00685
C 2.42355 12.68962 0.00393
C 3.67755 30.63502 -0.01378
C 2.40991 29.93092 0.02635
C 2.49467 28.3828 0.0127
C 3.70744 27.79914 0.01396
C 3.60385 26.32794 0.01849
C 2.40114 25.53571 -0.01142
C 2.50942 24.13895 -0.00562
C 3.71881 23.46851 -0.00494
C 3.6592 21.96323 0.00054
C 2.41587 21.27925 0.03007
C 2.44782 19.85304 -0.00095
C 3.7665 19.13349 0.01572
C 3.72874 17.72776 -0.04848
C 2.41257 16.93258 -0.00892
C 2.48269 15.56427 -0.01362
C 3.79818 14.81308 -0.0008
C 3.71293 13.37387 0.0288
C 2.46624 11.34178 0.00895
C 4.93625 21.36097 -0.00334
C 4.88987 19.90219 0.02339
C 6.1562 19.13464 0.01641
C 7.36848 16.94019 0.02819
C 7.58918 15.66118 0.00165
C 7.6304 0.17999 -0.02971
C 9.86065 28.24823 0.02894
C 11.13812 27.612 -0.01789
C 11.02895 26.01924 0.00444
C 9.7701 25.60396 -0.00925
C 9.72799 24.18699 0.01877
C 11.00596 23.66115 0.01363
C 11.11295 22.13866 -0.02162
C 9.87814 21.35333 0.00415
C 9.89352 19.96932 -0.0014
C 11.24278 19.29988 0.02162
C 11.15774 17.83962 0.0076
C 9.87785 17.01085 0.01241
C 9.81072 15.66388 -0.01454
C 10.46703 0.34059 0.01945
C 8.7001 17.82462 -0.00891
C 8.68167 19.19854 -0.01046
C 7.38254 19.93618 -0.02689
C 7.38613 21.2303 -0.01536
C 6.15431 17.69667 -0.00719
C 4.91031 17.05404 0.01364
C 4.94563 15.55037 -0.01062
C 6.25144 14.91221 -0.00033
C 6.06721 13.58204 0.03589
C 5.00407 12.69663 -0.02759
C 4.9288 11.24074 0.0402
C 6.19781 0.85811 0.00572
C 12.45345 32.75061 0.03542
C 4.96828 0.10299 0.03592
C 7.45427 29.89878 0.00943
C 7.39269 28.4754 0.02841
C 8.61992 27.78 -0.01111
C 8.57435 26.33866 -0.01275
C 7.34932 25.59164 0.00985
C 7.32106 24.12341 -0.02245
C 8.5143 23.47797 -0.00428
C 8.64744 22.04396 0.03101
C 7.2864 32.86791 0.00406
C 22.10428 12.78691 -0.00478
C 22.10938 11.37918 -0.01662
C 23.37325 10.66794 -0.01185
C 31.94452 29.8172 -0.02142
C 31.996 28.42006 0.0544
C 33.26744 27.6962 0.00026
C 33.23338 26.23224 0.00682
C 31.96532 25.50054 -0.01779
C 31.97846 24.07871 0.03794
C 33.2493 23.34783 0.01927
C 33.21507 21.98105 0.01574
C 32.01203 21.28934 -0.02383
C 31.98313 19.81451 -0.01429
C 33.23055 19.12524 -0.0136
C 33.1887 17.75773 0.00594
C 31.95951 16.98394 -0.02474
C 31.91925 15.62648 0.00369
C 33.14961 14.94494 0.00455
C 33.2498 13.56687 -0.00644
C 31.93659 12.82059 -0.01839
C 33.15535 30.58684 0.01428
C 31.89757 11.40948 0.00137
C 33.14777 31.97859 -0.01694
C 29.39184 0.0041 0.00346
C 30.74682 17.71902 -0.00669
C 29.54229 17.12521 0.0101
C 29.48298 15.65909 0.01705
C 30.68434 14.89443 -0.0405
C 30.69314 13.45866 -0.01303
C 29.44227 12.82317 -0.01461
C 29.44144 11.4388 -0.02155
C 30.69808 10.65487 -0.00944
C 30.7062 9.21552 -0.03735
C 29.36736 8.56331 -0.00971
C 29.45135 7.07783 0.01518
C 30.69756 6.34269 0.01908
C 30.64635 4.94666 0.07705
C 29.49134 4.29621 0.0103
C 29.38414 2.84157 0.02108
C 30.65823 2.17526 0.00716
C 30.67917 0.75909 0.00307
C 32.00428 32.67681 0.01713
C 33.17384 10.67809 0.00199
C 33.22648 9.24343 0.04381
C 31.94912 8.57489 0.02806
C 1.27245 17.75131 0.01223
C 0.02688 17.1181 0.00648
C 34.37428 15.59084 0.02114
C 1.15455 14.91108 -0.02957
C 1.16974 13.49166 0.00343
C 34.41556 12.7901 -0.02656
C 0.00121 11.26163 -0.02442
C 1.22648 10.61271 -0.00027
C 1.29938 9.13854 -0.00583
C 34.41827 8.48348 -0.02302
C 34.35021 7.10836 -0.02849
C 1.15131 6.37537 0.02931
C 1.10093 4.99928 0.00628
C 34.28791 4.37065 -0.0345
C 34.3925 2.86921 -0.00931
C 1.26846 2.19231 -0.00939
C 1.19967 0.78324 -0.00468
C 1.23325 19.16818 -0.01678
C 34.41914 19.90816 0.01951
C 34.38754 21.35421 -0.02213
C 1.22646 22.01296 0.02712
C 31.91315 7.107 0.01504
C 33.12726 6.41934 -0.00069
C 33.07211 5.00921 0.04926
C 31.88012 4.2245 -0.03838
C 31.89424 2.8212 0.00349
C 33.12992 2.13671 -0.00323
C 33.12239 0.74736 -0.00841
C 31.87821 34.07964 0.0001
C 30.72529 19.1858 0.03531
C 34.36987 32.70106 -0.02927
C 1.1411 30.61095 0.01027
C 34.3684 29.91169 0.01831
C 34.42016 28.43628 -0.01037
C 1.22565 27.7485 -0.00439
C 1.18622 26.25965 -0.00598
C 34.41568 25.56616 -0.05239
C 34.43268 24.04016 0.03076
C 1.22001 23.40318 0.00723
C 1.16301 31.9964 -0.01404
C 29.48908 19.93486 0.01836
C 29.49717 21.31228 -0.03039
C 30.79431 22.01872 -0.01415
C 25.85533 17.80831 -0.0276
C 24.66378 17.13991 0.03005
C 24.62844 15.63386 -0.04078
C 25.80288 14.88161 0.02117
C 25.76531 13.45162 0.02737
C 24.51813 12.80486 -0.00498
C 24.5626 11.39827 0.00135
C 25.75351 10.67322 0.03102
C 25.76863 9.31854 0.02555
C 24.57849 8.62905 0.01423
C 24.55171 7.16946 -0.00285
C 25.71229 6.37122 -0.009
C 25.71723 4.95129 -0.01199
C 24.54807 4.17489 -0.00229
C 24.44969 2.74231 -0.00938
C 25.78892 2.16112 -0.0264
C 25.75469 0.71854 -0.01154
C 25.72428 19.26662 0.00768
C 24.54928 19.91354 -0.00178
C 24.64499 21.28818 0.00733
C 25.82673 22.08677 -0.02118
C 23.33746 9.29058 0.01126
C 22.1284 8.55175 0.01852
C 22.01482 7.18527 -0.00381
C 23.33407 6.42515 0.03046
C 23.32169 4.99891 0.0296
C 22.06141 4.35249 0.03374
C 22.09508 2.93378 -0.02845
C 23.30922 2.08559 -0.03213
C 24.53684 34.06386 0.00684
C 23.30538 0.67986 0.02239
C 24.6261 32.67556 0.02734
C 25.76405 31.83212 -0.0055
C 25.76445 30.46233 0.01515
C 24.48362 29.72367 -0.00225
C 24.74684 28.35985 0.00071
C 25.82521 27.56331 -0.01107
C 25.88209 26.07735 -0.01586
C 25.91948 23.53254 -0.01971
C 22.086 0.09381 0.01153
C 3.71049 32.04596 -0.01303
C 27.01757 32.59972 -0.01052
C 28.22241 30.48081 0.00367
C 28.24495 6.38131 0.01094
C 28.19403 4.95715 0.00235
C 27.01731 4.26024 0.01495
C 27.00798 2.82324 0.01259
C 28.16192 2.16694 0.01799
C 28.23789 0.6884 0.01699
C 27.01224 34.01468 -0.00416
C 29.45782 32.65026 0.01177
C 30.71581 31.92385 0.04266
C 30.781 30.52915 0.01324
C 29.42779 29.87969 0.0014
C 29.47473 28.3934 0.00924
C 30.75838 27.68251 0.02326
C 30.7989 26.26146 0.00261
C 29.53403 25.58822 0.03265
C 29.50618 24.12962 -0.02049
C 30.69503 23.38001 -0.01854
C 27.00176 7.10989 0.02198
C 27.0305 8.49068 0.02611
C 28.22119 9.30691 -0.00621
C 28.23612 10.75654 0.00194
C 26.95755 29.68706 0.04306
C 27.04667 28.26138 0.00996
C 28.25394 27.62019 0.00195
C 28.34802 26.26754 -0.00802
C 27.11784 25.51518 -0.00218
C 27.13773 24.14719 -0.01654
C 28.36001 23.38315 -0.00037
C 28.27815 21.98582 -0.0032
C 28.22372 31.96849 -0.01679
C 27.01083 21.30276 0.00622
C 28.22242 19.15854 -0.00942
C 28.2532 17.80388 0.00487
C 27.0708 17.05346 0.00826
C 27.02 15.61785 -0.00294
C 28.27544 14.92025 0.00152
C 28.20101 13.52482 0.01257
C 26.99418 12.81173 0.02316
C 27.0063 11.39515 0.04185
C 26.95044 19.90687 -0.02815
C 2.46172 32.67629 0.00848
