393
Graphene
C 34.39748 0.02467 0.01295
C 15.89365 10.68687 0.01877
C 15.83133 9.34079 0.01363
C 14.5925 8.65683 -0.02162
C 14.63212 7.15342 0.00415
C 15.94619 6.44366 -0.0014
C 15.99485 4.98656 0.02162
C 14.69925 4.27439 0.0076
C 14.69464 2.89245 0.01241
C 15.96226 2.1204 -0.01454
C 14.55403 11.439 -0.00925
C 16.05842 0.7791 0.01945
C 17.23948 32.62446 0.03542
C 18.48648 31.87762 0.02299
C 18.50246 30.48012 0.00244
C 17.24742 29.82101 -0.01717
C 17.27794 28.37034 0.05265
C 18.48057 27.72632 -0.01952
C 18.49172 26.33295 -0.02813
C 17.30147 25.5185 0.00374
C 17.1753 24.09337 0.00052
C 14.7473 34.07173 0.01416
C 14.96551 12.69828 0.00444
C 15.83838 13.77868 -0.01789
C 15.89781 15.17706 0.02894
C 13.50197 4.99879 0.03589
C 12.28565 4.28089 -0.02759
C 12.28024 2.87724 0.0402
C 13.51574 2.20227 0.00572
C 13.50381 0.73772 0.03592
C 12.26317 0.01684 0.00406
C 14.78888 32.60074 0.00943
C 16.01771 31.92821 0.02841
C 16.05121 30.47587 -0.01111
C 14.79845 29.92332 -0.01275
C 14.81074 28.42034 0.00985
C 16.01359 27.71885 -0.02245
C 15.99025 26.33233 -0.00428
C 14.79351 25.61784 0.03101
C 14.74965 24.13747 -0.01536
C 15.90538 23.40018 -0.02689
C 15.85264 21.88637 -0.01046
C 14.57151 21.22833 -0.00891
C 14.82306 19.83699 0.02819
C 15.98906 19.0679 0.00165
C 16.11249 17.69111 -0.02971
C 18.46475 23.38656 -0.03682
C 13.3881 6.50229 -0.00033
C 18.41094 22.00347 0.01965
C 17.25654 19.78596 -0.01957
C 20.99279 26.21855 -0.02213
C 19.75204 25.58708 0.03698
C 19.69327 24.07989 -0.00109
C 20.92005 23.48588 -0.00491
C 20.93098 22.08085 0.03338
C 19.69419 21.29398 -0.0258
C 19.75552 19.95523 -0.0331
C 20.95587 19.22399 -0.00316
C 20.85432 17.79801 0.02188
C 20.94114 27.66742 0.00028
C 19.6638 16.97381 -0.01979
C 20.84784 14.81939 -0.01581
C 20.8811 13.42101 0.01452
C 19.65964 12.75308 0.04892
C 19.71968 11.34462 -0.00111
C 20.87561 10.65735 -0.03557
C 20.86705 9.17403 0.03754
C 19.62085 8.52409 0.01739
C 19.57337 7.11376 0.00755
C 20.83613 6.39126 -0.0054
C 19.66158 15.58803 0.02691
C 19.733 28.37517 -0.00289
C 19.68075 29.77992 -0.00066
C 20.94386 30.44098 0.00213
C 18.48096 19.18147 -0.0108
C 18.49638 17.76056 -0.00368
C 17.29299 17.05213 -0.02696
C 17.22257 15.63322 -0.00114
C 18.38277 14.90667 0.00228
C 18.28348 13.5049 0.00798
C 17.04393 12.91188 0.00422
C 17.08095 11.41881 0.0351
C 18.39326 10.74206 -0.03113
C 18.3561 9.27778 0.02098
C 17.14157 8.50903 0.01848
C 17.12479 7.07008 -0.00619
C 18.389 6.39228 -0.02162
C 18.37671 4.96453 0.00889
C 17.12648 4.25014 -0.00481
C 17.22048 2.80817 0.00979
C 18.40635 2.0963 0.01443
C 18.50261 0.65891 0.03505
C 17.21716 34.07617 -0.02815
C 19.68762 32.56193 -0.04147
C 20.92335 31.85805 -0.05302
C 17.11071 21.29677 0.02058
C 12.24135 7.17879 -0.01062
C 12.15422 8.60212 0.01364
C 13.33275 9.30276 -0.00719
C 6.09433 32.04913 -0.03996
C 6.07873 30.55699 0.01465
C 4.89902 29.89539 -0.00074
C 4.91625 28.48287 -0.00518
C 6.11061 27.66831 0.0086
C 6.12393 26.27637 -0.00643
C 4.88083 25.76425 0.017
C 4.84621 24.25698 -0.03113
C 5.94981 23.43825 -0.02566
C 4.89256 32.70028 0.01996
C 6.20756 9.19166 -0.00094
C 4.81455 7.21328 -0.00725
C 6.08297 6.46113 -0.05697
C 6.09511 5.02724 0.01087
C 4.86406 4.32039 -0.01343
C 4.86593 2.93433 0.00988
C 6.15299 2.12957 0.0276
C 6.16275 0.79286 0.01305
C 4.94602 0.01344 -0.00077
C 7.39883 32.67784 0.03368
C 4.85926 8.53772 0.02322
C 2.37627 0.05717 -0.00279
C 3.7152 0.80326 0.01226
C 3.69038 2.14293 0.03828
C 3.72691 30.52733 0.00208
C 2.4505 29.88239 0.01707
C 2.45848 28.44088 0.02769
C 3.65679 27.75754 -0.03291
C 3.70179 26.35491 -0.04999
C 2.38602 25.58405 0.04505
C 2.41846 24.28033 0.03284
C 3.60632 23.53099 -0.04307
C 3.673 22.12663 0.03189
C 2.60137 21.27767 0.00031
C 2.44279 19.82709 -0.003
C 2.33192 12.78418 0.01402
C 2.55519 11.51182 0.02379
C 3.57271 10.60801 0.00907
C 3.59173 9.26012 0.00643
C 2.37446 8.52854 -0.01509
C 2.38233 7.18645 0.03267
C 3.66577 6.477 0.02374
C 3.60734 4.98672 0.00402
C 2.33642 4.30827 0.0073
C 2.33419 2.86829 0.0174
C 8.611 32.02209 -0.02929
C 8.6491 30.52222 -0.00966
C 7.33014 29.8434 -0.03337
C 7.34886 28.45857 0.01227
C 9.80846 8.44184 -0.00482
C 9.72146 6.9848 -0.01384
C 11.02954 6.48907 0.03693
C 10.99778 4.97739 0.01745
C 9.8182 4.26764 0.00488
C 9.81674 2.87059 -0.01004
C 11.04193 2.18274 -0.02896
C 11.08116 0.71019 -0.00131
C 9.81111 0.11106 -0.01118
C 12.29105 32.71777 -0.014
C 13.52532 31.92977 0.02147
C 13.55801 30.5533 0.00373
C 12.36717 29.85863 -0.00191
C 12.3734 28.47986 0.00438
C 13.57226 27.74108 0.01291
C 13.49209 26.37401 0.00093
C 12.33107 25.6337 0.00057
C 12.32971 24.27465 -0.01634
C 13.56303 23.54093 -0.00334
C 13.4357 22.10317 0.02339
C 13.35092 10.72376 0.01641
C 10.7858 9.14521 0.02888
C 20.84186 4.95826 0.00667
C 11.07328 23.49208 0.00685
C 9.81914 25.54653 0.00393
C 8.62978 27.75445 0.00873
C 8.6249 26.28108 -0.00049
C 7.31168 25.57958 0.00848
C 7.23847 24.14124 -0.01303
C 8.56307 23.6132 -0.01378
C 7.17326 8.51826 0.02635
C 7.28086 7.0975 0.0127
C 8.48398 6.28723 0.01396
C 8.57042 4.94943 0.01849
C 7.26631 4.29874 -0.01142
C 7.33324 2.85021 -0.00562
C 8.63162 2.19421 -0.00494
C 8.58465 0.7036 0.00054
C 7.32088 0.07713 0.03007
C 9.86104 32.7341 -0.00095
C 11.11269 31.97137 0.01572
C 11.09132 30.60298 -0.04848
C 9.80512 29.85643 -0.00892
C 9.83238 28.46836 -0.01362
C 11.04945 27.67322 -0.0008
C 11.02639 26.34271 0.0288
C 9.80017 24.05151 0.00895
C 3.69205 31.98152 -0.00561
C 19.53901 4.21831 0.00143
C 20.84676 2.10263 0.00364
C 30.63901 4.97737 0.07705
C 29.4527 4.19512 0.0103
C 29.4729 2.80624 0.02108
C 30.72855 2.15271 0.00716
C 30.72152 0.71122 0.00307
C 29.44894 34.06914 0.00346
C 31.93917 32.69654 0.01713
C 33.27581 31.97031 -0.01694
C 33.13568 30.51517 0.01428
C 30.71791 6.38683 0.01908
C 31.92076 29.82712 -0.02142
C 33.18201 27.7458 0.00026
C 33.20963 26.29094 0.00682
C 31.92116 25.60201 -0.01779
C 31.97884 24.14844 0.03794
C 33.17566 23.38382 0.01927
C 33.34587 21.97178 0.01574
C 32.02855 21.26379 -0.02383
C 32.07626 19.89159 -0.01429
C 33.29053 19.1408 -0.0136
C 31.98494 28.41805 0.0544
C 29.45603 7.06954 0.01518
C 29.42682 8.54024 -0.00971
C 30.68041 9.23418 -0.03735
C 30.66079 31.98318 0.04266
C 30.72478 30.60213 0.01324
C 29.46157 29.87422 0.0014
C 29.49186 28.45973 0.00924
C 30.74274 27.77891 0.02326
C 30.7704 26.34153 0.00261
C 29.61612 25.55888 0.03265
C 29.60228 24.14619 -0.02049
C 30.82018 23.4124 -0.01854
C 30.74971 21.96627 -0.01415
C 29.54552 21.25891 -0.03039
C 29.5586 19.80669 0.01836
C 30.74536 19.14034 0.03531
C 30.6626 17.73609 -0.00669
C 29.44125 17.03027 0.0101
C 29.41926 15.64757 0.01705
C 30.64905 14.94367 -0.0405
C 30.564 13.47207 -0.01303
C 29.38936 12.82808 -0.01461
C 29.43435 11.38201 -0.02155
C 30.67589 10.64075 -0.00944
C 33.17085 17.67084 0.00594
C 29.41006 32.65693 0.01177
C 31.89615 17.03388 -0.02474
C 33.09808 14.88702 0.00455
C 0.13212 21.25466 -0.02213
C 0.12181 19.80269 0.01951
C 1.39827 19.08275 -0.01678
C 1.14158 17.6153 0.01223
C 34.42719 16.98069 0.00648
C 34.35121 15.59536 0.02114
C 1.16979 14.98597 -0.02957
C 1.21996 13.57336 0.00343
C 0.01975 12.79895 -0.02656
C 1.29855 21.99086 0.02712
C 0.0207 11.39042 -0.02442
C 1.22974 9.27885 -0.00583
C 34.4211 8.57779 -0.02302
C 34.39282 7.1158 -0.02849
C 1.20421 6.45709 0.02931
C 1.15796 5.04107 0.00628
C 34.40051 4.29513 -0.0345
C 34.38292 2.917 -0.00931
C 1.1552 2.1882 -0.00939
C 1.18468 0.73482 -0.00468
C 1.32423 10.7698 -0.00027
C 1.22899 23.45675 0.00723
C 0.00436 24.11686 0.03076
C 34.41094 25.6082 -0.05239
C 33.22454 13.49116 -0.00644
C 31.86968 12.78166 -0.01839
C 31.89241 11.36097 0.00137
C 33.17107 10.68822 0.00199
C 33.17916 9.25808 0.04381
C 31.85496 8.58069 0.02806
C 31.92427 7.12819 0.01504
C 33.13706 6.34226 -0.00069
C 33.18548 4.97823 0.04926
C 31.94181 4.28746 -0.03838
C 31.98529 2.86766 0.00349
C 33.15024 2.15886 -0.00323
C 33.12803 0.69331 -0.00841
C 31.93394 34.02703 0.0001
C 34.42589 32.63589 -0.02927
C 1.24192 31.9465 -0.01404
C 1.24459 30.5371 0.01027
C 34.36698 29.86302 0.01831
C 34.30379 28.50335 -0.01037
C 1.17296 27.75784 -0.00439
C 1.21906 26.30266 -0.00598
C 31.87865 15.63306 0.00369
C 27.03445 34.064 -0.00416
C 28.29083 0.69896 0.01699
C 28.19376 2.16368 0.01799
C 22.0975 8.50167 -0.01185
C 22.04417 7.09225 0.01126
C 23.27947 6.32933 0.01852
C 23.32227 4.95907 -0.00381
C 22.04412 4.26361 0.03046
C 22.0065 2.85508 0.0296
C 23.31585 2.10811 0.03374
C 23.27437 0.73038 -0.02845
C 22.1355 34.05008 -0.03213
C 23.3477 9.20022 -0.01662
C 24.57582 32.62977 0.02239
C 25.83557 30.528 0.02734
C 24.66731 29.77962 -0.0055
C 24.60888 28.36061 0.01515
C 25.88027 27.6706 -0.00225
C 25.93525 26.21451 0.00071
C 24.70342 25.53407 -0.01107
C 24.66246 24.14677 -0.01586
C 25.96 23.40397 -0.01971
C 25.86625 22.03613 -0.02118
C 25.84623 31.96163 0.01153
C 23.24675 10.58568 -0.00478
C 22.08412 11.30788 0.01511
C 22.08519 12.69747 0.00199
C 20.87219 0.66067 -0.00831
C 19.69299 33.99111 -0.02957
C 22.11519 32.61722 -0.04422
C 23.40839 31.91631 0.00654
C 23.42081 30.4404 -0.00703
C 22.18191 29.72787 -0.04076
C 22.20106 28.31553 -0.00652
C 23.41892 27.63842 0.0058
C 23.45441 26.2235 -0.00865
C 22.22275 25.62021 0.00675
C 22.22071 24.15932 -0.00311
C 23.37791 23.45067 0.00742
C 23.42875 22.01384 -0.01594
C 22.14474 21.33364 0.0106
C 22.18225 19.91237 -0.01154
C 23.36301 19.18807 -0.01721
C 23.27891 17.79418 -0.02422
C 22.02218 17.00213 0.01277
C 22.07678 15.57137 0.00096
C 23.22867 14.90521 -0.01527
C 23.32007 13.41585 0.01087
C 24.66874 21.36256 0.00733
C 24.55904 19.90249 -0.00178
C 25.7879 19.19655 0.00768
C 25.81427 17.7976 -0.0276
C 27.20542 24.11409 -0.01654
C 28.36957 23.32978 -0.00037
C 28.44444 21.98904 -0.0032
C 27.04607 21.25457 0.00622
C 27.00027 19.82941 -0.02815
C 28.26861 19.11785 -0.00942
C 28.20277 17.74662 0.00487
C 27.02788 17.03653 0.00826
C 26.93322 15.58111 -0.00294
C 28.2113 14.97176 0.00152
C 28.2464 13.57108 0.01257
C 26.97596 12.79649 0.02316
C 27.06074 11.39611 0.04185
C 28.27575 10.6676 0.00194
C 28.26924 9.19242 -0.00621
C 27.07249 8.48097 0.02611
C 27.00549 7.03439 0.02198
C 28.25614 6.33975 0.01094
C 28.2324 4.95473 0.00235
C 27.03699 4.18911 0.01495
C 26.99423 2.84607 0.01259
C 27.08747 25.47501 -0.00218
C 19.63157 2.82011 -0.017
C 28.39507 26.23794 -0.00802
C 27.11457 28.42868 0.00996
C 24.56916 17.07299 0.03005
C 24.4658 15.59952 -0.04078
C 25.70107 14.87583 0.02117
C 25.73878 13.44881 0.02737
C 24.53019 12.7197 -0.00498
C 24.52535 11.34434 0.00135
C 25.79968 10.65721 0.03102
C 25.86277 9.18645 0.02555
C 24.5665 8.42043 0.01423
C 24.50285 7.0548 -0.00285
C 25.79279 6.28088 -0.009
C 25.7881 4.8688 -0.01199
C 24.59267 4.23679 -0.00229
C 24.54744 2.82583 -0.00938
C 25.75113 2.09777 -0.0264
C 25.79295 0.63995 -0.01154
C 24.56801 34.02186 0.00684
C 27.02293 32.70599 -0.01052
C 28.18551 31.95373 -0.01679
C 28.22216 30.55773 0.00367
C 27.05764 29.83726 0.04306
C 28.29592 27.6401 0.00195
C 2.43749 32.76402 -0.01977
