427
Graphene
C 0.01333 33.99677 0.01295
C 12.18596 24.18989 -0.02759
C 13.47611 23.37913 0.0402
C 13.46525 22.00673 0.00572
C 12.25657 21.28155 0.03592
C 12.29768 19.84513 0.00406
C 13.55893 19.22704 0.00943
C 13.6299 17.86086 0.02841
C 12.37775 17.02376 -0.01111
C 12.28105 15.69139 -0.01275
C 13.498 14.9886 0.00985
C 12.21569 25.55954 0.03589
C 13.54604 13.62457 -0.02245
C 12.32708 11.37068 0.03101
C 13.58329 10.72267 -0.01536
C 13.57838 9.17212 -0.02689
C 12.21138 8.57561 -0.01046
C 12.17048 7.19329 -0.00891
C 13.50595 6.44614 0.02819
C 13.4125 5.05786 0.00165
C 12.22173 4.37624 -0.02971
C 12.26496 2.88172 0.02894
C 13.51166 2.15091 -0.01789
C 12.34364 12.80884 -0.00428
C 13.43586 26.34642 -0.00033
C 13.37882 27.73418 -0.01062
C 12.19748 28.44965 0.01364
C 11.00448 19.25242 0.02888
C 11.01552 17.79169 -0.00482
C 9.85251 16.95904 -0.01384
C 9.87842 15.59985 0.03693
C 11.04771 14.92192 0.01745
C 11.09114 13.58018 0.00488
C 9.90388 12.86866 -0.01004
C 9.82799 11.36511 -0.02896
C 11.01973 10.7152 -0.00131
C 10.96884 9.24141 -0.01118
C 9.74955 8.52027 -0.014
C 9.77968 7.14085 0.02147
C 11.01826 6.46579 0.00373
C 10.98944 5.04488 -0.00191
C 9.79944 4.38164 0.00438
C 9.86704 2.9096 0.01291
C 11.00778 2.16942 0.00093
C 10.8913 0.69378 0.00057
C 9.72937 0.07402 -0.01634
C 12.2112 32.75347 -0.00334
C 13.45702 31.93262 0.02339
C 13.42027 30.55324 0.01641
C 12.21338 29.90121 -0.00719
C 13.39997 0.69821 0.00444
C 12.13736 0.03977 -0.00925
C 14.67055 32.65115 0.01877
C 15.95353 31.91598 0.01363
C 15.96757 2.17015 0.00798
C 15.87445 0.73795 0.00422
C 14.58178 34.01126 0.0351
C 17.15241 32.68914 -0.03113
C 18.37227 31.94829 0.02098
C 18.40773 30.5485 0.01848
C 17.15692 29.87363 -0.00619
C 17.17905 28.40984 -0.02162
C 18.37336 27.71378 0.00889
C 18.40055 26.33059 -0.00481
C 17.17301 25.59778 0.00979
C 17.1816 24.1116 0.01443
C 18.41378 23.4348 0.03505
C 18.51974 22.03323 -0.02815
C 17.27478 21.31833 -0.04147
C 17.13993 19.91521 -0.05302
C 18.47046 19.17169 0.00213
C 18.43939 17.7271 -0.00066
C 17.21046 17.03048 -0.00289
C 17.28066 15.6127 0.00028
C 18.54271 14.93688 -0.02213
C 18.53178 13.44448 0.03698
C 17.25736 12.73984 -0.00109
C 14.73789 2.90433 0.00228
C 9.84041 20.03426 0.00685
C 14.72778 4.30033 -0.00114
C 15.93254 6.30478 -0.00368
C 15.89233 30.47726 -0.02162
C 14.65383 29.764 0.00415
C 14.69095 28.34432 -0.0014
C 15.89882 27.67894 0.02162
C 15.95079 26.22888 0.0076
C 14.5865 25.58279 0.01241
C 14.6593 24.12123 -0.01454
C 16.00165 23.38111 0.01945
C 16.00461 22.01973 0.01416
C 14.78291 21.33996 0.03542
C 14.79886 19.95771 0.02299
C 15.99544 19.13286 0.00244
C 16.01824 17.74997 -0.01717
C 14.75526 17.0578 0.05265
C 14.86329 15.58681 -0.01952
C 16.07972 14.90174 -0.02813
C 16.09221 13.46847 0.00374
C 14.83137 12.81747 0.00052
C 14.79682 11.35829 -0.03682
C 15.94692 10.6837 0.01965
C 16.00103 9.25205 0.02058
C 14.82208 8.55339 -0.01957
C 14.78714 7.09132 -0.0108
C 15.96203 4.92267 -0.02696
C 17.23565 11.31384 -0.00491
C 9.78639 21.40333 0.00895
C 10.98251 23.4434 0.0288
C 3.71024 2.18321 0.0064
C 3.68289 0.74558 0.00211
C 2.52077 34.00072 -0.00449
C 4.91567 32.66962 -0.01979
C 6.16377 32.06132 0.02784
C 6.16136 30.62397 -0.01977
C 4.9751 29.88149 -0.00561
C 4.93048 28.49593 0.00208
C 6.14165 27.73112 0.01707
C 6.16673 26.36283 0.02769
C 2.37478 2.8602 -0.00039
C 4.94886 25.55063 -0.03291
C 6.15596 23.46966 0.04505
C 6.16255 21.93231 0.03284
C 4.90921 21.3271 -0.04307
C 4.90775 19.96772 0.03189
C 6.09371 19.2114 0.00031
C 5.99574 17.78436 -0.003
C 4.86512 17.10679 0.01402
C 4.74496 15.68325 0.02379
C 6.0593 15.00281 0.00907
C 6.0711 13.47753 0.00643
C 4.93199 24.1216 -0.04999
C 2.37606 4.29555 0.02728
C 3.6176 4.96526 0.00245
C 3.67728 6.4962 0.00081
C 3.64875 30.48658 0.02426
C 2.43225 29.79878 0.01218
C 2.40237 28.39597 -0.01471
C 3.70311 27.70471 -0.02827
C 3.75843 26.30317 0.01078
C 2.42638 25.59115 -0.00112
C 2.37632 24.18638 0.03345
C 3.65316 23.50177 0.00748
C 3.69114 22.03719 0.00662
C 2.46334 21.24175 -0.0154
C 2.49605 19.83692 -0.01299
C 3.68699 19.20978 -0.00407
C 3.54403 17.75748 0.01138
C 2.28265 16.99682 0.03278
C 2.26598 15.61226 -0.00177
C 3.57628 14.95164 0.04421
C 3.5831 13.49632 0.00088
C 2.32918 12.79235 0.00828
C 2.30175 11.33122 -0.02375
C 3.61126 10.62552 0.00558
C 3.62141 9.19558 -0.0059
C 2.29558 8.51087 -0.01386
C 2.40615 7.04473 -0.02805
C 4.84207 12.78491 -0.01509
C 4.82599 11.36993 0.03267
C 6.12652 10.65811 0.02374
C 6.0903 9.28778 0.00402
C 8.5749 13.52337 -0.00966
C 7.34994 12.83267 -0.03337
C 7.38874 11.36195 0.01227
C 8.52213 10.70165 0.00873
C 8.5562 9.23059 -0.00049
C 7.316 8.65169 0.00848
C 7.271 7.21103 -0.01303
C 8.59328 6.44194 -0.01378
C 8.56174 5.02877 0.02635
C 7.28269 4.313 0.0127
C 7.33496 2.90099 0.01396
C 8.5552 2.18236 0.01849
C 8.51004 0.83554 -0.01142
C 7.32518 0.10204 -0.00562
C 9.75052 32.70567 -0.00494
C 11.03655 32.05918 0.00054
C 11.01634 30.62012 0.03007
C 9.79649 29.98515 -0.00095
C 9.72401 28.48475 0.01572
C 10.97542 27.85851 -0.04848
C 11.02059 26.33677 -0.00892
C 9.83991 25.58985 -0.01362
C 9.82369 24.18654 -0.0008
C 8.56214 14.88368 -0.02929
C 11.02174 22.0387 0.00393
C 7.31818 15.65658 0.03368
C 8.69894 17.79518 0.01305
C 4.89237 8.60385 0.0073
C 4.88025 7.17966 0.0174
C 6.10638 6.49206 0.03828
C 6.10459 5.00068 0.01226
C 4.8402 4.37052 -0.00279
C 4.88735 2.90421 0.01996
C 6.04347 2.25831 -0.03996
C 6.08942 0.80124 0.01465
C 4.86439 0.08416 -0.00074
C 7.38036 32.71028 -0.00518
C 8.5253 31.97049 0.0086
C 8.47953 30.6113 -0.00643
C 7.31516 29.82014 0.017
C 7.40693 28.45312 -0.03113
C 8.54846 27.6783 -0.02566
C 8.60175 26.31399 -0.00094
C 7.41164 25.62119 0.02322
C 7.30038 24.25421 -0.00725
C 8.58941 23.47039 -0.05697
C 8.57826 22.054 0.01087
C 7.38036 21.31072 -0.01343
C 7.36842 19.88302 0.00988
C 8.62778 19.23798 0.0276
C 7.34491 17.1377 -0.00077
C 3.74558 31.922 0.00787
C 18.5109 10.55924 0.03338
C 17.11221 8.47221 -0.0331
C 30.69058 23.47136 -0.01461
C 30.69658 22.04536 -0.02155
C 29.50572 21.32558 -0.00944
C 29.54227 19.86781 -0.03735
C 30.76109 19.2399 -0.00971
C 30.78865 17.81131 0.01518
C 29.58382 17.09616 0.01908
C 29.43698 7.04612 0.07705
C 30.67356 6.52724 0.0103
C 30.66633 5.06168 0.02108
C 29.4682 24.18352 -0.01303
C 29.47085 4.27102 0.00716
C 30.73059 2.08692 0.00346
C 30.6865 0.58509 0.01713
C 29.50502 33.97533 -0.01694
C 31.92733 32.63014 0.01428
C 33.21449 32.01394 -0.02142
C 33.15164 30.50099 0.0544
C 31.91072 29.78316 0.00026
C 31.959 28.3626 0.00682
C 33.15428 27.71691 -0.01779
C 33.20569 26.2817 0.03794
C 29.51765 2.85026 0.00307
C 29.40718 25.61563 -0.0405
C 30.68622 26.32712 0.01705
C 30.66549 27.64512 0.0101
C 28.30039 22.00373 0.02198
C 27.04177 21.23211 0.01094
C 27.14275 19.87715 0.00235
C 28.30882 19.11877 0.01495
C 28.35874 17.65338 0.01259
C 27.14427 17.00121 0.01799
C 27.07575 15.56959 0.01699
C 27.0233 12.85976 -0.00416
C 26.86611 11.53482 0.01177
C 26.89164 8.39724 0.04266
C 26.97461 6.98404 0.01324
C 28.20108 6.37763 0.0014
C 28.18034 4.95885 0.00924
C 27.07163 4.12899 0.02326
C 27.06505 2.65773 0.00261
C 28.3337 2.12791 0.03265
C 28.36409 0.68953 -0.02049
C 27.06319 0.10971 -0.01854
C 29.43105 32.55361 -0.01415
C 30.69001 31.90036 -0.03039
C 30.6796 30.49486 0.01836
C 29.31565 29.81887 0.03531
C 29.47485 28.41527 -0.00669
C 31.99577 25.62173 0.01927
C 31.9061 24.13168 0.01574
C 33.14765 23.45667 -0.02383
C 33.18495 22.01342 -0.01429
C 0.00525 24.06581 0.03076
C 1.20283 23.40014 0.00723
C 1.19048 21.94048 0.02712
C 0.00529 21.24402 -0.02213
C 34.43268 19.85688 0.01951
C 1.18643 19.10632 -0.01678
C 1.06331 17.72839 0.01223
C 34.30589 16.98648 0.00648
C 34.23908 15.54907 0.02114
C 1.04109 14.83671 -0.02957
C 1.04534 13.46784 0.00343
C 34.2556 12.75269 -0.02656
C 34.19653 11.25626 -0.02442
C 1.05361 10.6081 -0.00027
C 1.11231 9.20235 -0.00583
C 34.27497 8.49215 -0.02302
C 34.335 7.08552 -0.02849
C 1.27409 6.37186 0.02931
C 1.13941 4.97485 0.00628
C 34.36874 4.20847 -0.0345
C 34.33143 2.8449 -0.00931
C 1.15737 2.06759 -0.00939
C 1.19049 0.68081 -0.00468
C 34.40776 25.51217 -0.05239
C 28.16131 23.49025 0.02611
C 1.19381 26.26079 -0.00598
C 34.35982 28.48345 -0.01037
C 31.98627 21.3864 -0.0136
C 32.01036 20.00371 0.00594
C 33.16636 19.22563 -0.02474
C 33.11563 17.80419 0.00369
C 31.92315 17.06499 0.00455
C 31.84463 15.65828 -0.00644
C 32.97854 14.77755 -0.01839
C 32.93002 13.25255 0.00137
C 32.00197 12.12554 0.00199
C 32.86424 10.53145 0.04381
C 32.9546 9.12439 0.02806
C 31.9869 7.16864 0.01504
C 33.12589 6.43369 -0.00069
C 33.10623 4.96972 0.04926
C 31.86843 4.30738 -0.03838
C 31.88952 2.85479 0.00349
C 33.09558 2.13217 -0.00323
C 33.16032 0.69149 -0.00841
C 31.98973 34.00263 0.0001
C 0.0587 32.62281 -0.02927
C 1.29816 31.87837 -0.01404
C 1.25852 30.46534 0.01027
C 34.38813 29.90317 0.01831
C 1.06965 27.69181 -0.00439
C 18.44726 9.21287 -0.0258
C 26.96214 24.29475 -0.00621
C 28.22899 26.42099 0.04185
C 19.84253 12.6324 -0.00311
C 19.7653 11.10492 0.00742
C 20.88125 9.39133 -0.01594
C 19.67016 8.56853 0.0106
C 19.57411 7.18309 -0.01154
C 20.78349 6.44525 -0.01721
C 20.81969 5.02987 -0.02422
C 19.65663 4.26276 0.01277
C 19.62462 2.87955 0.00096
C 20.91574 2.11511 -0.01527
C 21.03018 13.43796 0.00675
C 20.87559 0.67536 0.01087
C 22.22429 32.50801 0.01511
C 23.43366 31.72629 -0.00478
C 23.60871 30.2978 -0.01662
C 22.24209 29.76554 -0.01185
C 22.20581 28.34966 0.01126
C 23.44578 27.57973 0.01852
C 23.26169 26.27652 -0.00381
C 22.00798 25.49743 0.03046
C 22.09234 24.10041 0.0296
C 23.34053 23.47885 0.03374
C 19.6958 0.02711 0.00199
C 20.96049 14.91866 -0.00865
C 19.79899 15.66892 0.0058
C 19.60152 16.97567 -0.00652
C 17.14649 7.10661 -0.00316
C 18.33443 6.48523 0.02188
C 18.32067 5.00861 -0.01979
C 17.22951 4.22326 0.02691
C 17.20642 2.84688 -0.01581
C 18.41901 2.13457 0.01452
C 18.42774 0.69378 0.04892
C 17.15899 0.05199 -0.00111
C 19.67279 32.62367 -0.03557
C 20.83633 31.86482 0.03754
C 20.91048 30.45463 0.01739
C 19.68322 29.84041 0.00755
C 19.6579 28.33593 -0.0054
C 20.95614 27.69042 0.00667
C 20.83703 26.29843 0.00143
C 19.61026 25.56647 -0.017
C 19.58126 24.15535 0.00364
C 20.83892 23.39131 -0.00831
C 20.91899 22.05219 -0.02957
C 19.73061 21.27446 -0.04422
C 19.67322 19.81587 0.00654
C 20.97651 19.13355 -0.00703
C 20.9353 17.8009 -0.04076
C 23.43285 22.076 -0.02845
C 22.14544 21.31513 -0.03213
C 22.18575 19.91401 0.02239
C 23.39078 19.23046 0.01153
C 25.82289 19.16899 -0.0264
C 25.83848 17.77363 -0.01154
C 24.65465 17.06289 0.00684
C 24.60289 15.70445 -0.01052
C 25.83459 14.9832 -0.01679
C 25.92291 13.67027 0.00367
C 24.6188 12.87384 0.04306
C 24.69802 11.54032 0.00996
C 25.7839 10.63179 0.00195
C 25.71606 9.09589 -0.00802
C 24.4609 8.42769 -0.00218
C 24.43452 7.11745 -0.01654
C 25.68572 6.25931 -0.00037
C 25.65455 4.83664 -0.0032
C 24.50128 4.09034 0.00622
C 24.48033 2.70827 -0.02815
C 25.74292 2.07399 -0.00942
C 25.77804 0.66075 0.00487
C 24.57298 34.06529 0.00826
C 27.02429 32.7968 -0.00294
C 28.13354 32.01182 0.00152
C 27.88382 30.57023 0.01257
C 28.35738 27.72236 0.02316
C 24.69221 19.97447 -0.00938
C 26.91426 25.92481 0.00194
C 24.68281 21.43724 -0.00229
C 25.82912 23.5625 -0.009
C 23.33529 17.76925 0.02734
C 22.12039 17.04309 -0.0055
C 22.17355 15.58181 0.01515
C 23.37373 14.98307 -0.00225
C 23.40582 13.5714 0.00071
C 22.23186 12.81128 -0.01107
C 22.0799 8.72433 -0.01586
C 21.99997 7.25514 -0.01971
C 23.17387 6.43214 -0.02118
C 23.17454 4.9111 0.00733
C 21.98701 4.2967 -0.00178
C 22.02995 2.79499 0.00768
C 23.2305 2.02762 -0.0276
C 23.30995 0.66824 0.03005
C 22.11582 33.97802 -0.04078
C 24.64457 32.54267 0.02117
C 25.89167 31.96993 0.02737
C 26.34374 30.57675 -0.00498
C 25.05757 29.58898 0.00135
C 24.81227 27.98389 0.03102
C 25.50075 26.62974 0.02555
C 24.48453 25.62266 0.01423
C 24.56193 24.19551 -0.00285
C 25.93088 22.08746 -0.01199
C 2.50486 32.52557 0.00267
