328
Graphene
C 34.34211 34.06311 0.01295
C 18.44627 0.72987 -0.05302
C 17.25906 34.06611 0.00213
C 19.60047 32.63753 -0.00066
C 20.8539 31.99863 -0.00289
C 20.88249 30.51385 0.00028
C 19.64038 29.76875 -0.02213
C 19.65554 28.38736 0.03698
C 18.22715 2.09804 -0.04147
C 20.86143 27.62829 -0.00109
C 19.48681 25.43165 0.03338
C 19.57831 24.06018 -0.0258
C 20.73825 23.16621 -0.0331
C 20.90162 21.84006 -0.00316
C 21.03631 18.98772 0.02188
C 20.94805 17.80018 -0.01979
C 19.44293 15.64572 0.02691
C 20.7545 26.18672 -0.00491
C 18.3423 12.9898 -0.02815
C 18.35896 26.29438 0.03505
C 18.43652 27.71076 0.01443
C 12.35156 28.5837 -0.01957
C 13.59521 27.88524 -0.0108
C 13.62249 0.86587 -0.00368
C 12.39462 0.33517 -0.02696
C 14.80939 32.77908 -0.00114
C 16.00143 32.07802 0.00228
C 15.95638 30.55082 0.00798
C 14.65024 29.9838 0.00422
C 14.88027 28.36535 0.0351
C 16.05791 27.74808 -0.03113
C 16.09066 0.77794 0.02098
C 14.84065 0.25286 0.01848
C 17.21632 32.7289 -0.00619
C 18.36925 31.97681 -0.02162
C 18.3559 30.60985 0.00889
C 17.16633 29.89204 -0.00481
C 17.24571 28.44142 0.00979
C 20.79201 14.93872 -0.01581
C 12.25683 30.00864 0.02058
C 20.93041 13.52802 0.01452
C 19.46768 11.56388 -0.00111
C 23.36925 21.8885 -0.01594
C 22.22029 21.1077 0.0106
C 22.17717 19.75624 -0.01154
C 23.34978 19.03166 -0.01721
C 23.34424 17.63781 -0.02422
C 22.1766 16.92842 0.01277
C 22.0345 15.55319 0.00096
C 23.35393 23.32056 0.00742
C 23.29379 14.9204 -0.01527
C 22.12925 12.79687 0.00199
C 21.92916 11.40828 0.01511
C 23.15831 10.72455 -0.00478
C 23.25945 9.25977 -0.01662
C 21.9723 8.57654 -0.01185
C 21.95456 7.15619 0.01126
C 23.17045 6.40904 0.01852
C 23.39477 13.46139 0.01087
C 22.00932 24.04046 -0.00311
C 22.03254 25.47795 0.00675
C 23.31179 26.19194 -0.00865
C 20.68483 10.69169 -0.03557
C 20.8026 9.31992 0.03754
C 19.63068 8.52481 0.01739
C 19.71199 7.24902 0.00755
C 20.7914 6.40712 -0.0054
C 20.77405 5.04389 0.00667
C 19.54841 4.31384 0.00143
C 19.35999 2.88989 -0.017
C 20.78313 2.17522 0.00364
C 20.80248 0.72577 -0.00831
C 19.56762 34.0639 -0.02957
C 22.1199 32.65423 -0.04422
C 23.30244 31.94462 0.00654
C 23.31477 30.47467 -0.00703
C 22.08121 29.71099 -0.04076
C 22.1489 28.3064 -0.00652
C 23.32745 27.54008 0.0058
C 19.77533 12.84828 0.04892
C 23.25212 5.01739 -0.00381
C 13.49063 30.72694 0.01965
C 12.2612 32.81625 0.00052
C 2.3402 8.54499 -0.00191
C 2.33483 7.13981 0.00438
C 3.56126 6.41547 0.01291
C 3.61373 4.94663 0.00093
C 2.30061 4.25624 0.00057
C 2.30088 2.85792 -0.01634
C 3.62856 2.14867 -0.00334
C 3.66512 9.19993 0.00373
C 3.60925 0.7315 0.02339
C 4.95032 32.76377 -0.00719
C 6.06925 31.97037 0.01364
C 6.12861 30.57295 -0.01062
C 4.92388 29.83443 -0.00033
C 4.87483 28.46098 0.03589
C 6.04829 27.67228 -0.02759
C 6.11654 26.23161 0.0402
C 2.39321 34.0661 0.01641
C 3.57434 10.65262 0.02147
C 2.38186 11.43442 -0.014
C 2.51122 12.85491 -0.01118
C 3.72177 30.52334 -0.04848
C 2.50444 29.86495 -0.00892
C 2.46503 28.446 -0.01362
C 3.65932 27.78458 -0.0008
C 3.63772 26.31517 0.0288
C 2.30748 25.60592 0.00393
C 2.39938 24.1911 0.00895
C 3.68227 23.39951 0.00685
C 3.54512 21.98258 0.02888
C 2.3048 21.44601 -0.00482
C 2.4617 20.00442 -0.01384
C 3.92787 19.59283 0.03693
C 3.92913 18.00588 0.01745
C 2.51304 17.15209 0.00488
C 2.67367 15.72214 -0.01004
C 3.84134 15.00664 -0.02896
C 3.66744 13.56123 -0.00131
C 4.86837 25.56233 0.00572
C 13.54937 32.11122 -0.03682
C 4.81957 24.2289 0.03592
C 4.94745 17.038 0.00943
C 8.64313 27.77739 0.00415
C 8.39264 26.33338 -0.0014
C 7.44183 25.73885 0.02162
C 7.13937 12.1477 0.0076
C 7.33254 3.05099 0.01241
C 8.35822 2.10566 -0.01454
C 8.54939 0.75383 0.01945
C 7.34353 28.37778 -0.02162
C 7.28027 0.04662 0.01416
C 11.08539 32.09021 0.02299
C 11.02925 30.67399 0.00244
C 9.84891 29.93992 -0.01717
C 9.90806 28.51532 0.05265
C 11.10708 27.75459 -0.01952
C 11.11567 0.98353 -0.02813
C 9.88242 0.18039 0.00374
C 9.85216 32.81047 0.03542
C 7.42244 29.93082 0.01363
C 8.66714 30.64016 0.01877
C 8.67634 32.01855 -0.00925
C 5.25774 15.62119 0.02841
C 6.42732 14.72897 -0.01111
C 6.20115 13.28247 -0.01275
C 4.82073 12.77096 0.00985
C 4.85919 11.31901 -0.02245
C 6.18213 10.75812 -0.00428
C 6.10179 9.5006 0.03101
C 4.96017 8.47389 -0.01536
C 4.89853 7.08092 -0.02689
C 6.00421 6.15336 -0.01046
C 6.03677 4.86907 -0.00891
C 4.81625 4.10101 0.02819
C 4.82295 2.79852 0.00165
C 6.12076 2.20114 -0.02971
C 6.09416 0.7652 0.02894
C 4.89469 0.10074 -0.01789
C 7.34755 32.63408 0.00444
C 4.3714 20.7042 0.00406
C 22.01775 4.23701 0.03046
C 22.05776 2.81726 0.0296
C 23.21637 2.11384 0.03374
C 33.14441 26.31885 0.00682
C 31.884 25.56426 -0.01779
C 31.89741 24.14231 0.03794
C 33.11539 23.41627 0.01927
C 33.14586 21.99957 0.01574
C 31.94112 21.33399 -0.02383
C 31.98954 19.8747 -0.01429
C 33.11708 27.74143 0.00026
C 33.23988 19.21311 -0.0136
C 32.00082 17.1184 -0.02474
C 32.01446 15.60689 0.00369
C 33.25805 14.89775 0.00455
C 33.28838 13.47286 -0.00644
C 31.94991 12.79144 -0.01839
C 31.87146 11.33301 0.00137
C 33.07297 10.60954 0.00199
C 33.21263 17.86483 0.00594
C 31.90702 28.44306 0.0544
C 31.94944 29.88069 -0.02142
C 33.19216 30.60066 0.01428
C 30.77209 14.88038 -0.0405
C 30.70295 13.42192 -0.01303
C 29.43903 12.68049 -0.01461
C 29.44512 11.29665 -0.02155
C 30.63673 10.58278 -0.00944
C 30.67797 9.19679 -0.03735
C 29.47295 8.47689 -0.00971
C 29.37271 7.06284 0.01518
C 30.63922 6.40632 0.01908
C 30.71436 4.95329 0.07705
C 29.48333 4.23362 0.0103
C 29.49703 2.79884 0.02108
C 30.72681 2.13992 0.00716
C 30.69679 0.76083 0.00307
C 29.45329 0.00598 0.00346
C 31.93413 32.7213 0.01713
C 33.20656 31.97774 -0.01694
C 33.13529 9.20731 0.04381
C 29.52481 15.58752 0.01705
C 31.93975 8.46361 0.02806
C 33.12232 6.36932 -0.00069
C 0.04232 17.10509 0.00648
C 0.09027 15.67979 0.02114
C 1.39726 14.9705 -0.02957
C 1.27813 13.54101 0.00343
C 34.43004 12.73174 -0.02656
C 34.42229 11.35219 -0.02442
C 1.1828 10.63059 -0.00027
C 1.29555 17.73048 0.01223
C 1.18038 9.19875 -0.00583
C 34.32196 7.12753 -0.02849
C 1.05165 6.42897 0.02931
C 1.0648 5.01655 0.00628
C 34.35919 4.23987 -0.0345
C 0.0131 2.82065 -0.00931
C 1.17732 2.14128 -0.00939
C 1.17773 0.62168 -0.00468
C 34.37694 8.51097 -0.02302
C 1.36629 19.24399 -0.01678
C 0.00512 19.91688 0.01951
C 34.34383 21.31202 -0.02213
C 33.08753 4.91774 0.04926
C 31.89503 4.24707 -0.03838
C 31.94946 2.85061 0.00349
C 33.16784 2.18386 -0.00323
C 33.16585 0.69222 -0.00841
C 31.88545 0.05976 0.0001
C 0.02789 32.71082 -0.02927
C 1.2483 31.99699 -0.01404
C 1.2328 30.61068 0.01027
C 34.40288 29.83461 0.01831
C 34.4201 28.44926 -0.01037
C 1.26384 27.65287 -0.00439
C 1.11891 26.2987 -0.00598
C 34.31754 25.6066 -0.05239
C 34.37272 24.19243 0.03076
C 1.1509 23.49352 0.00723
C 1.08795 22.11376 0.02712
C 31.83851 7.03722 0.01504
C 29.49173 16.96814 0.0101
C 30.68293 17.80674 -0.00669
C 30.71333 19.21666 0.03531
C 24.575 12.79223 -0.00498
C 24.43046 11.33591 0.00135
C 25.70495 10.64359 0.03102
C 25.62639 9.20065 0.02555
C 24.47895 8.47241 0.01423
C 24.49439 7.05547 -0.00285
C 25.74418 6.38099 -0.009
C 25.7672 13.49719 0.02737
C 25.73575 4.99417 -0.01199
C 24.51059 2.82495 -0.00938
C 25.74278 2.19706 -0.0264
C 25.78207 0.73398 -0.01154
C 24.52012 34.05418 0.00684
C 26.9237 32.62772 -0.01052
C 28.27719 31.97364 -0.01679
C 28.20167 30.53355 0.00367
C 24.49943 4.26449 -0.00229
C 25.72407 14.92036 0.02117
C 24.50569 15.60901 -0.04078
C 24.5919 16.98446 0.03005
C 23.26186 0.64211 -0.02845
C 22.05112 34.02903 -0.03213
C 24.53423 32.6295 0.02239
C 25.77677 31.83901 0.01153
C 25.70649 30.39602 0.02734
C 24.50863 29.78489 -0.0055
C 24.55548 28.32077 0.01515
C 25.8419 27.64703 -0.00225
C 25.75593 26.26806 0.00071
C 24.53616 25.53528 -0.01107
C 24.60651 24.10998 -0.01586
C 25.87388 23.35968 -0.01971
C 25.91943 21.91117 -0.02118
C 24.63588 21.30576 0.00733
C 24.59129 19.7881 -0.00178
C 25.90053 19.16154 0.00768
C 25.819 17.7729 -0.0276
C 27.01146 29.81131 0.04306
C 27.07229 28.39136 0.00996
C 28.30311 27.73501 0.00195
C 28.18332 26.30816 -0.00802
C 27.02351 2.85092 0.01259
C 28.26665 2.12669 0.01799
C 28.22668 0.66022 0.01699
C 26.94038 0.0403 -0.00416
C 29.47629 32.7294 0.01177
C 30.69993 31.96829 0.04266
C 30.755 30.58981 0.01324
C 29.47134 29.89766 0.0014
C 29.50376 28.42836 0.00924
C 30.65246 27.67907 0.02326
C 30.62926 26.30085 0.00261
C 29.38177 25.60409 0.03265
C 29.48845 24.16522 -0.02049
C 30.67422 23.50679 -0.01854
C 30.70381 22.07811 -0.01415
C 29.54489 21.3717 -0.03039
C 29.59135 19.94392 0.01836
C 26.98391 4.32003 0.01495
C 3.65605 31.97018 0.01572
C 28.26369 4.96794 0.00235
C 26.89688 7.06729 0.02198
C 26.99942 25.61863 -0.00218
C 27.04485 24.21592 -0.01654
C 28.29374 23.44636 -0.00037
C 28.36128 22.02075 -0.0032
C 27.15785 21.20404 0.00622
C 27.19979 19.86339 -0.02815
C 28.36895 19.18796 -0.00942
C 28.29212 17.72163 0.00487
C 27.03479 16.98749 0.00826
C 27.00462 15.6137 -0.00294
C 28.28896 14.86031 0.00152
C 28.2597 13.45718 0.01257
C 26.9619 12.78564 0.02316
C 26.96129 11.30159 0.04185
C 28.25449 10.62618 0.00194
C 28.2417 9.14496 -0.00621
C 27.03482 8.52448 0.02611
C 28.22181 6.40021 0.01094
C 2.46737 32.61909 -0.00095
