407
Graphene
C 34.37764 0.06312 0.01295
C 12.31239 28.50075 -0.02689
C 13.49042 27.78249 -0.01046
C 13.49203 26.29963 -0.00891
C 12.31124 25.57658 0.02819
C 12.27326 24.06805 0.00165
C 13.6099 23.48244 -0.02971
C 13.56383 22.08155 0.02894
C 12.35862 21.3011 -0.01789
C 12.28108 19.86096 0.00444
C 13.50795 19.13675 -0.00925
C 13.56624 17.67097 0.01877
C 12.29317 17.05961 0.01363
C 12.2947 15.63512 -0.02162
C 13.41156 14.77971 0.00415
C 12.17693 7.08767 -0.0014
C 13.49947 6.59813 0.02162
C 13.54708 5.13174 0.0076
C 12.35817 4.33041 0.01241
C 12.23381 2.91534 -0.01454
C 13.48969 2.1193 0.01945
C 13.45029 0.72406 0.01416
C 12.22335 29.90332 -0.01536
C 13.43056 30.57509 0.03101
C 13.47054 31.9827 -0.00428
C 12.26873 32.65563 -0.02245
C 9.81985 24.17322 0.01291
C 10.95508 23.41672 0.00093
C 11.08966 22.0332 0.00057
C 9.90283 21.23939 -0.01634
C 9.79282 19.8641 -0.00334
C 11.02228 19.18174 0.02339
C 11.05917 17.80574 0.01641
C 9.80983 17.07646 -0.00719
C 9.73017 15.63894 0.01364
C 11.04203 15.00318 -0.01062
C 12.28218 34.05711 0.03542
C 11.18829 13.693 -0.00033
C 9.87009 11.35182 -0.02759
C 9.8694 8.58347 0.0402
C 9.81544 7.21641 0.00572
C 11.02311 6.46223 0.03592
C 11.09705 5.01786 0.00406
C 9.82171 4.37676 0.00943
C 9.73863 2.95664 0.02841
C 10.97337 2.23656 -0.01111
C 11.00124 0.70674 -0.01275
C 9.76273 0.06424 0.00985
C 10.03715 12.7856 0.03589
C 9.81458 25.62361 0.00438
C 14.6712 32.68932 0.02299
C 15.96043 30.58873 -0.01717
C 17.19733 29.93932 0.03505
C 17.23064 28.43983 -0.02815
C 18.49109 27.67648 -0.04147
C 18.46996 26.21716 -0.05302
C 17.21729 25.60264 0.00213
C 17.24438 24.13226 -0.00066
C 18.45556 23.34356 -0.00289
C 18.37109 21.97268 0.00028
C 17.18095 21.24286 -0.02213
C 17.19138 19.84757 0.03698
C 18.48261 19.1947 -0.00109
C 18.50951 17.7233 -0.00491
C 17.33779 17.03683 0.03338
C 17.22383 15.68042 -0.0258
C 18.46053 14.95518 -0.0331
C 18.17733 13.53958 -0.00316
C 18.35481 10.76325 0.02188
C 18.19828 9.34916 -0.01979
C 17.12672 8.39847 0.02691
C 17.13306 7.00867 -0.01581
C 18.46305 6.37896 0.01452
C 18.43848 30.54999 0.01443
C 18.43935 32.04558 0.00979
C 17.19096 32.61556 -0.00481
C 14.73899 0.04276 0.00889
C 14.73941 29.86967 0.05265
C 14.77463 28.45343 -0.01952
C 15.9813 27.72863 -0.02813
C 15.98974 26.349 0.00374
C 14.78985 25.54143 0.00052
C 14.79228 24.1396 -0.03682
C 16.02299 23.41988 0.01965
C 15.98877 22.05126 0.02058
C 14.78855 21.25469 -0.01957
C 14.78982 19.80704 -0.0108
C 15.95278 31.97527 0.00244
C 16.01642 19.07136 -0.00368
C 14.7712 16.81562 -0.00114
C 14.69123 15.34921 0.00228
C 16.21819 14.8065 0.00798
C 14.8113 7.00562 0.00422
C 15.90438 6.23616 0.0351
C 15.9674 4.86815 -0.03113
C 14.6983 4.30122 0.02098
C 14.68169 2.8656 0.01848
C 15.97708 2.11307 -0.00619
C 15.97497 0.71441 -0.02162
C 16.06009 17.64756 -0.02696
C 18.37548 4.96603 0.04892
C 11.06192 26.33688 -0.00191
C 9.77361 28.47429 0.02147
C 2.42955 2.83208 0.02379
C 3.66197 2.14924 0.00907
C 3.63287 0.75066 0.00643
C 2.37671 0.06137 -0.01509
C 4.84374 32.76212 0.03267
C 6.11459 31.97231 0.02374
C 6.05068 30.60728 0.00402
C 4.82247 29.84851 0.0073
C 4.79704 28.40893 0.0174
C 6.08716 27.75729 0.03828
C 6.08197 26.35883 0.01226
C 4.91584 25.63295 -0.00279
C 4.8543 24.18535 0.01996
C 6.1105 23.49841 -0.03996
C 6.10021 22.08779 0.01465
C 4.94453 21.33965 -0.00074
C 4.90615 19.90127 -0.00518
C 6.07903 19.19399 0.0086
C 6.10511 17.82792 -0.00643
C 4.84482 17.09304 0.017
C 4.85046 15.6542 -0.03113
C 2.42323 4.24827 0.01402
C 3.5876 5.02678 -0.003
C 3.68953 6.4928 0.00031
C 2.48978 7.14446 0.03189
C 3.62222 30.57239 -0.0059
C 2.42475 29.81082 -0.01386
C 2.40613 28.3618 -0.02805
C 3.5917 27.60909 0.00081
C 3.6118 26.26937 0.00245
C 2.39745 25.54861 0.02728
C 2.42449 24.22943 -0.00039
C 3.62062 23.51044 0.0064
C 3.58591 22.04581 0.00211
C 2.35475 21.24471 -0.00449
C 6.13501 15.00084 -0.02566
C 2.36675 19.88417 -0.01979
C 3.62052 17.81795 -0.01977
C 2.35288 17.05977 -0.00561
C 2.41088 15.63487 0.00208
C 3.64503 14.93324 0.01707
C 3.67777 13.42411 0.02769
C 2.39217 12.81567 -0.03291
C 2.3984 11.41645 -0.04999
C 3.65091 10.762 0.04505
C 3.70842 9.30601 0.03284
C 2.50102 8.58237 -0.04307
C 3.64421 19.24843 0.02784
C 11.02478 27.78994 0.00373
C 6.17216 13.60306 -0.00094
C 4.95251 11.40731 -0.00725
C 7.42002 17.15656 -0.00095
C 7.44836 15.62206 0.01572
C 8.6343 14.89042 -0.04848
C 8.72841 13.45365 -0.00892
C 7.50393 12.86887 -0.01362
C 7.40703 11.4086 -0.0008
C 8.60778 10.63243 0.0288
C 8.65927 9.20272 0.00393
C 7.32467 8.60618 0.00895
C 7.37212 7.1739 0.00685
C 8.56325 6.48355 0.02888
C 8.55528 5.01068 -0.00482
C 7.35269 4.33656 -0.01384
C 7.35904 2.89282 0.03693
C 8.56083 2.15692 0.01745
C 8.53186 0.69726 0.00488
C 7.3455 0.06788 -0.01004
C 9.78019 32.70548 -0.02896
C 11.01701 31.97455 -0.00131
C 10.87164 30.58083 -0.01118
C 9.67935 29.84148 -0.014
C 8.63174 17.80306 0.03007
C 8.60991 19.20976 0.00054
C 7.35228 19.95216 -0.00494
C 7.33966 21.3663 -0.00562
C 6.20447 10.67357 -0.05697
C 6.13294 9.28516 0.01087
C 4.92127 8.59019 -0.01343
C 4.90689 7.17731 0.00988
C 6.1638 6.47407 0.0276
C 6.09043 4.99769 0.01305
C 4.81007 4.33511 -0.00077
C 4.85799 2.90838 0.03368
C 6.10681 2.29599 -0.02929
C 6.09478 0.86705 -0.00966
C 4.98125 12.78307 0.02322
C 4.88936 0.10604 -0.03337
C 8.44873 32.02965 0.00873
C 8.48544 30.6194 -0.00049
C 7.31094 29.91106 0.00848
C 7.258 28.49701 -0.01303
C 8.53492 27.74943 -0.01378
C 8.61381 26.29444 0.02635
C 7.34477 25.56911 0.0127
C 7.35437 24.18907 0.01396
C 8.5922 23.50213 0.01849
C 8.62489 22.0624 -0.01142
C 7.2769 32.78022 0.01227
C 3.53299 32.04226 0.00558
C 17.2152 4.19055 -0.00111
C 18.43176 2.13202 0.03754
C 29.51735 8.56441 -0.00971
C 29.52168 7.08574 0.01518
C 30.72448 6.30811 0.01908
C 30.7119 4.92014 0.07705
C 29.51923 4.21439 0.0103
C 29.47716 2.75072 0.02108
C 30.74575 2.06571 0.00716
C 30.74416 0.65456 0.00307
C 29.50797 0.01311 0.00346
C 31.94585 32.67633 0.01713
C 33.10648 31.90846 -0.01694
C 33.07612 30.49664 0.01428
C 31.92103 29.78572 -0.02142
C 31.94769 28.36191 0.0544
C 33.17663 27.60526 0.00026
C 33.22555 26.23366 0.00682
C 31.95308 25.58373 -0.01779
C 31.93747 24.15729 0.03794
C 33.11201 23.39727 0.01927
C 33.08743 22.01002 0.01574
C 31.87111 21.26736 -0.02383
C 30.70326 9.25238 -0.03735
C 30.70328 10.63558 -0.00944
C 29.46804 11.25184 -0.02155
C 29.44075 12.69644 -0.01461
C 28.22595 2.14877 0.01799
C 28.32277 0.72522 0.01699
C 27.11914 34.03537 -0.00416
C 29.50575 32.66454 0.01177
C 30.65297 31.97436 0.04266
C 30.70984 30.50804 0.01324
C 29.47846 29.79659 0.0014
C 29.48838 28.43962 0.00924
C 30.66098 27.71681 0.02326
C 30.73374 26.23535 0.00261
C 31.96579 19.9153 -0.01429
C 29.47834 25.49262 0.03265
C 30.705 23.39182 -0.01854
C 30.72201 21.97978 -0.01415
C 29.43542 21.26241 -0.03039
C 29.37833 19.81627 0.01836
C 30.69002 19.15918 0.03531
C 30.67505 17.73303 -0.00669
C 29.50581 16.99319 0.0101
C 29.443 15.6765 0.01705
C 30.69738 14.92033 -0.0405
C 30.67993 13.47233 -0.01303
C 29.48067 24.10353 -0.02049
C 27.00376 2.83795 0.01259
C 33.18749 19.1617 -0.0136
C 31.91373 17.05695 -0.02474
C 1.22554 22.00661 0.02712
C 34.39782 21.32902 -0.02213
C 34.41007 19.89691 0.01951
C 1.15536 19.18182 -0.01678
C 1.10949 17.76109 0.01223
C 34.30288 17.03492 0.00648
C 34.3476 15.56727 0.02114
C 1.12905 14.9782 -0.02957
C 1.14256 13.55362 0.00343
C 34.39432 12.8604 -0.02656
C 34.40737 11.36699 -0.02442
C 1.1598 10.59717 -0.00027
C 1.18705 9.25576 -0.00583
C 0.03407 8.49282 -0.02302
C 34.38084 7.01598 -0.02849
C 1.24776 6.37663 0.02931
C 1.19334 4.93993 0.00628
C 0.00662 4.27784 -0.0345
C 34.4045 2.8723 -0.00931
C 1.1448 2.14942 -0.00939
C 1.16226 0.77344 -0.00468
C 1.25162 23.4048 0.00723
C 34.4241 24.09155 0.03076
C 34.39745 25.50808 -0.05239
C 1.16321 26.20547 -0.00598
C 31.98917 15.62292 0.00369
C 33.17735 14.86461 0.00455
C 33.10951 13.49753 -0.00644
C 31.93834 12.7676 -0.01839
C 31.91917 11.36582 0.00137
C 33.18998 10.64279 0.00199
C 33.26223 9.18664 0.04381
C 31.87777 8.57891 0.02806
C 31.89857 7.06794 0.01504
C 33.11851 6.34457 -0.00069
C 33.12348 17.74587 0.00594
C 33.26025 4.95585 0.04926
C 31.93759 2.80015 0.00349
C 33.20725 2.08799 -0.00323
C 33.18148 0.72263 -0.00841
C 31.99702 34.05082 0.0001
C 34.36389 32.65524 -0.02927
C 1.13091 31.9105 -0.01404
C 1.23146 30.51003 0.01027
C 34.3497 29.86016 0.01831
C 34.31806 28.3894 -0.01037
C 1.14721 27.72469 -0.00439
C 31.9631 4.29428 -0.03838
C 17.22304 2.85982 -0.03557
C 27.05479 4.22294 0.01495
C 28.27388 6.27327 0.01094
C 19.64086 4.20514 -0.01527
C 19.68927 2.83946 0.01087
C 20.92895 2.11739 0.00199
C 20.93803 0.73025 0.01511
C 19.7214 34.0647 -0.00478
C 22.12677 32.67788 -0.01662
C 23.44664 31.93885 -0.01185
C 23.40113 30.47698 0.01126
C 22.18812 29.81471 0.01852
C 22.07865 28.43756 -0.00381
C 23.38009 27.73038 0.03046
C 23.37757 26.28295 0.0296
C 22.1557 25.4898 0.03374
C 22.22327 24.08922 -0.02845
C 23.46698 23.44494 -0.03213
C 23.43865 22.00613 0.02239
C 22.19179 21.44181 0.01153
C 21.78129 12.6501 0.02734
C 22.09129 11.35593 -0.0055
C 23.36005 10.65406 0.01515
C 23.31344 9.23331 -0.00225
C 20.90735 5.00755 0.00096
C 20.79306 6.41368 0.01277
C 19.63828 7.16906 -0.02422
C 19.47735 8.632 -0.01721
C 18.40295 0.70768 0.01739
C 17.19012 34.02448 0.00755
C 19.64102 32.70276 -0.0054
C 20.88928 31.90764 0.00667
C 20.89528 30.51801 0.00143
C 19.6873 29.83951 -0.017
C 19.75398 28.36982 0.00364
C 20.91337 27.71849 -0.00831
C 20.90527 26.20996 -0.02957
C 19.71018 25.49407 -0.04422
C 21.96374 8.52011 0.00071
C 19.74278 24.03561 0.00654
C 20.90762 21.96909 -0.04076
C 19.61252 21.27049 -0.00652
C 19.68882 19.86039 0.0058
C 19.68309 17.01892 -0.00865
C 19.61307 15.73349 0.00675
C 20.74027 13.47385 -0.00311
C 19.42916 12.78885 0.00742
C 19.55091 11.32644 -0.01594
C 20.8373 10.6704 0.0106
C 20.7068 9.27584 -0.01154
C 20.95944 23.39232 -0.00703
C 28.25643 4.86282 0.00235
C 22.03617 7.11352 -0.01107
C 23.38764 4.88025 -0.01971
C 25.86657 0.6442 0.00996
C 24.62688 34.04175 0.00195
C 27.0523 32.58698 -0.00802
C 28.28837 31.89609 -0.00218
C 28.26739 30.55011 -0.01654
C 27.00403 29.91939 -0.00037
C 27.03512 28.44937 -0.0032
C 28.29914 27.70711 0.00622
C 28.28331 26.29881 -0.02815
C 27.12248 25.54832 -0.00942
C 27.10739 24.186 0.00487
C 28.26077 23.45044 0.00826
C 28.21756 22.02076 -0.00294
C 27.00019 21.37705 0.00152
C 28.18555 13.38396 0.01257
C 27.17583 12.73113 0.02316
C 27.00216 11.27224 0.04185
C 28.2449 10.56474 0.00194
C 28.21957 9.17301 -0.00621
C 26.98283 8.439 0.02611
C 27.06584 7.02359 0.02198
C 25.75412 2.06111 0.04306
C 24.59229 2.80254 0.00367
C 24.56529 4.23874 -0.01679
C 25.81069 4.98136 -0.01052
C 22.10457 4.26284 -0.02118
C 22.15254 2.76043 0.00733
C 23.38937 2.10987 -0.00178
C 23.37939 0.66521 0.00768
C 22.10448 0.00065 -0.0276
C 24.65357 32.66775 0.03005
C 25.82799 31.91123 -0.04078
C 25.77324 30.47514 0.02117
C 24.61314 29.75595 0.02737
C 24.56653 28.38567 -0.00498
C 23.34653 6.34176 -0.01586
C 25.85266 27.65244 0.00135
C 24.61402 25.66188 0.02555
C 24.5954 24.20502 0.01423
C 25.7861 23.46758 -0.00285
C 25.86478 22.04925 -0.009
C 24.52397 11.34589 -0.01199
C 25.72728 10.59696 -0.00229
C 25.7233 9.18783 -0.00938
C 24.58182 8.5065 -0.0264
C 24.61589 7.06526 -0.01154
C 25.86336 6.31494 0.00684
C 25.86891 26.21923 0.03102
C 2.34826 32.68157 -0.02375
