341
Graphene
C 34.40372 0.05299 0.01295
C 11.0037 19.14685 -0.00619
C 11.00718 17.63683 -0.02162
C 9.73753 16.97364 0.00889
C 9.83862 15.53698 -0.00481
C 11.04394 14.82241 0.00979
C 11.06461 13.40782 0.01443
C 9.85038 12.75297 0.03505
C 9.86589 11.31848 -0.02815
C 11.05119 10.62687 -0.04147
C 11.02739 9.26407 -0.05302
C 9.79247 8.49948 0.00213
C 9.82035 7.09785 -0.00066
C 11.09068 6.3172 -0.00289
C 11.10097 4.92794 0.00028
C 9.86311 4.31917 -0.02213
C 9.86022 2.89542 0.03698
C 11.0829 2.21642 -0.00109
C 9.86024 19.87471 0.01848
C 11.05264 0.80941 -0.00491
C 9.88894 21.27918 0.02098
C 11.03695 23.47349 0.0351
C 7.37454 7.06597 -0.01717
C 8.58099 6.33102 0.05265
C 8.65153 4.99013 -0.01952
C 7.36695 4.27383 -0.02813
C 7.37807 2.90864 0.00374
C 8.62515 2.21326 0.00052
C 8.65161 0.8388 -0.03682
C 7.45832 0.14188 0.01965
C 9.87743 32.75867 0.02058
C 11.12436 31.97298 -0.01957
C 11.04458 30.50971 -0.0108
C 9.76012 29.89717 -0.00368
C 9.80666 28.42601 -0.02696
C 11.05144 27.76759 -0.00114
C 11.01985 26.31018 0.00228
C 9.81595 25.59038 0.00798
C 9.71319 24.11418 0.00422
C 11.11243 22.03867 -0.03113
C 9.88373 0.05541 0.03338
C 12.2536 32.76594 -0.0258
C 13.51136 32.03728 -0.0331
C 12.32193 7.07532 -0.04076
C 13.55447 6.26386 -0.00652
C 13.49557 4.90895 0.0058
C 12.31575 4.25942 -0.00865
C 12.31574 2.83766 0.00675
C 13.52183 2.05415 -0.00311
C 13.53929 0.68979 0.00742
C 12.23178 0.09247 -0.01594
C 14.7589 32.65149 0.0106
C 16.02333 31.9483 -0.01154
C 15.99538 30.49896 -0.01721
C 14.76032 29.78166 -0.02422
C 14.76943 28.41506 0.01277
C 15.98619 27.69724 0.00096
C 16.0594 26.26772 -0.01527
C 14.74017 25.54643 0.01087
C 14.82496 24.13185 0.00199
C 12.29496 8.56736 -0.00703
C 13.52463 9.07192 0.00654
C 13.56418 10.49086 -0.04422
C 12.31525 11.22264 -0.02957
C 13.52259 30.56303 -0.00316
C 12.29844 29.8383 0.02188
C 12.30066 28.42509 -0.01979
C 13.53219 27.64597 0.02691
C 13.50841 26.26919 -0.01581
C 12.25004 25.64117 0.01452
C 12.273 24.26271 0.04892
C 13.5187 23.47485 -0.00111
C 7.32055 8.50278 0.00244
C 13.5495 22.00457 -0.03557
C 12.23344 19.89552 0.01739
C 13.43753 19.29439 0.00755
C 13.40026 17.80341 -0.0054
C 12.21701 16.97117 0.00667
C 12.28235 15.56623 0.00143
C 13.49666 14.85905 -0.017
C 13.5693 13.43105 0.00364
C 12.34375 12.69161 -0.00831
C 12.27919 21.28935 0.03754
C 8.55045 9.30371 0.02299
C 8.56374 10.72742 0.03542
C 7.3925 11.37059 0.01416
C 2.39723 7.16107 -0.00482
C 3.64549 6.42891 -0.01384
C 3.73552 4.98357 0.03693
C 2.48308 4.31336 0.01745
C 2.46778 2.90949 0.00488
C 3.69338 2.24942 -0.01004
C 3.74239 0.76161 -0.02896
C 2.46215 0.05775 -0.00131
C 4.90407 32.70407 -0.01118
C 6.2232 31.99402 -0.014
C 6.15751 30.62599 0.02147
C 4.96083 29.87445 0.00373
C 4.92749 28.4501 -0.00191
C 6.13609 27.74677 0.00438
C 6.12217 26.30361 0.01291
C 4.86328 25.58049 0.00093
C 4.9014 24.15778 0.00057
C 2.35694 8.596 0.02888
C 3.61219 9.24183 0.00685
C 3.63566 10.64222 0.00895
C 2.36164 11.3735 0.00393
C 3.64152 30.57578 -0.01303
C 2.40713 29.80623 -0.01378
C 2.37397 28.35576 0.02635
C 3.70259 27.65415 0.0127
C 3.62127 26.28969 0.01396
C 2.3933 25.5582 0.01849
C 2.49539 24.16856 -0.01142
C 3.73495 23.44261 -0.00562
C 6.15875 23.48802 -0.01634
C 3.68708 22.03771 -0.00494
C 2.48437 19.83028 0.03007
C 3.66492 19.12091 -0.00095
C 3.64594 17.6808 0.01572
C 2.48911 16.96593 -0.04848
C 2.33453 15.45589 -0.00892
C 3.67223 14.83656 -0.01362
C 3.62746 13.41112 -0.0008
C 2.36895 12.76577 0.0288
C 2.40047 21.27921 0.00054
C 16.05483 23.50681 0.01511
C 6.06664 22.04819 -0.00334
C 4.94426 19.92762 0.01641
C 7.36525 29.84096 0.02819
C 7.38709 28.43208 0.00165
C 8.59293 27.69574 -0.02971
C 8.59175 26.27503 0.02894
C 7.31833 25.6197 -0.01789
C 7.32588 24.2057 0.00444
C 8.52029 23.42277 -0.00925
C 8.55673 21.98695 0.01877
C 7.31038 21.27705 0.01363
C 7.35526 19.92639 -0.02162
C 8.62844 19.18528 0.00415
C 8.58315 17.75361 -0.0014
C 7.39862 17.03959 0.02162
C 7.37828 15.56901 0.0076
C 8.60301 14.80713 0.01241
C 8.61168 13.46019 -0.01454
C 7.34821 12.75884 0.01945
C 8.47467 30.61718 -0.00891
C 8.58773 31.97178 -0.01046
C 7.43633 32.83779 -0.02689
C 4.956 0.06997 -0.01536
C 6.09911 19.15601 -0.00719
C 6.17306 17.748 0.01364
C 4.84258 17.0536 -0.01062
C 4.85734 15.63496 -0.00033
C 6.10637 14.87116 0.03589
C 6.08287 13.47307 -0.02759
C 4.87603 12.68144 0.0402
C 4.82981 11.37269 0.00572
C 4.88443 21.301 0.02339
C 6.07598 10.73155 0.03592
C 4.83151 8.56636 0.00943
C 4.88039 7.12417 0.02841
C 6.10846 6.4555 -0.01111
C 6.19 5.02392 -0.01275
C 4.95885 4.34079 0.00985
C 4.94965 2.91319 -0.02245
C 6.16454 2.2048 -0.00428
C 6.17129 0.78661 0.03101
C 6.09247 9.2325 0.00406
C 3.68112 32.02727 0.00848
C 15.92823 22.06277 -0.00478
C 14.73953 19.88786 -0.01185
C 30.61075 6.44891 -0.02142
C 30.62278 5.02899 0.0544
C 29.44443 4.24664 0.00026
C 29.45678 2.83728 0.00682
C 30.72741 2.17368 -0.01779
C 30.75504 0.74756 0.03794
C 29.54255 0.02462 0.01927
C 31.87664 32.67336 0.01574
C 33.06596 31.98461 -0.02383
C 33.12273 30.57729 -0.01429
C 31.96526 29.86008 -0.0136
C 32.01672 28.44634 0.00594
C 33.25477 27.72481 -0.02474
C 33.17269 26.394 0.00369
C 33.07119 14.76919 0.00455
C 33.18971 13.42424 -0.00644
C 31.869 12.76846 -0.01839
C 29.33611 7.19178 0.01428
C 31.84866 11.35061 0.00137
C 29.17815 8.62065 -0.01694
C 30.57393 10.74304 0.00346
C 26.93095 7.05808 -0.00669
C 28.23274 6.40649 0.0101
C 28.24548 4.94281 0.01705
C 26.96251 4.25345 -0.0405
C 27.10032 2.80748 -0.01303
C 28.30793 2.08904 -0.01461
C 28.22268 0.73683 -0.02155
C 27.01555 34.0778 -0.00944
C 29.50808 32.5601 -0.03735
C 30.72169 31.9685 -0.00971
C 30.7269 30.55515 0.01518
C 29.4714 29.76356 0.01908
C 29.55218 28.43947 0.07705
C 30.74371 27.81447 0.0103
C 30.74974 13.42961 0.02108
C 29.44465 12.81836 0.00716
C 29.23159 11.39555 0.00307
C 30.49118 9.32707 0.01713
C 33.06012 10.59106 0.00199
C 33.10593 9.18276 0.04381
C 31.707 8.65544 0.02806
C 1.22428 17.62509 0.01223
C 0.04727 17.061 0.00648
C 34.23348 15.63693 0.02114
C 1.08944 14.89159 -0.02957
C 1.18732 13.4733 0.00343
C 34.42619 12.76397 -0.02656
C 34.35512 11.28145 -0.02442
C 1.14345 10.64629 -0.00027
C 1.14822 9.315 -0.00583
C 34.38393 8.47313 -0.02302
C 34.38031 7.12837 -0.02849
C 1.19357 6.40431 0.02931
C 1.22589 4.97312 0.00628
C 34.38378 4.32282 -0.0345
C 0.01713 2.90001 -0.00931
C 1.2153 2.1915 -0.00939
C 1.2204 0.82023 -0.00468
C 1.14381 19.17438 -0.01678
C 34.40314 19.8651 0.01951
C 0.18209 21.21679 -0.02213
C 1.2111 22.10715 0.02712
C 31.84711 7.21142 0.01504
C 33.11466 6.44337 -0.00069
C 33.1267 5.05023 0.04926
C 31.8687 4.31555 -0.03838
C 31.9812 2.86995 0.00349
C 33.23249 2.15168 -0.00323
C 33.1921 0.76535 -0.00841
C 31.95245 0.01148 0.0001
C 26.73854 8.40775 0.03531
C 34.36387 32.66594 -0.02927
C 1.15654 30.62578 0.01027
C 34.38258 29.93837 0.01831
C 0.02068 28.48386 -0.01037
C 1.13477 27.707 -0.00439
C 1.10037 26.24123 -0.00598
C 34.31578 25.41649 -0.05239
C 0.00452 24.05754 0.03076
C 1.23306 23.53489 0.00723
C 1.20512 32.04209 -0.01404
C 27.83789 9.26558 0.01836
C 27.92119 10.72972 -0.03039
C 26.48535 28.254 -0.01415
C 17.21515 24.18478 -0.0276
C 18.55033 23.36581 0.03005
C 18.42372 21.92585 -0.04078
C 17.19667 21.36785 0.02117
C 17.20375 19.81574 0.02737
C 18.24413 18.89163 -0.00498
C 17.09139 16.92238 0.00135
C 18.49695 5.03159 0.03102
C 17.24644 4.44874 0.02555
C 17.25264 2.87819 0.01423
C 18.44506 2.13422 -0.00285
C 18.41817 0.7128 -0.009
C 17.2233 0.08145 -0.01199
C 19.68308 32.64227 -0.00229
C 20.91783 31.91909 -0.00938
C 20.90698 30.5815 -0.0264
C 19.64697 29.89409 -0.01154
C 17.31337 25.59199 0.00768
C 18.50692 26.34078 -0.00178
C 18.40918 27.69472 0.00733
C 17.20527 28.41697 -0.02118
C 15.87159 19.11877 0.01126
C 15.96991 17.62841 0.01852
C 14.61751 17.02126 -0.00381
C 14.71073 15.60992 0.03046
C 15.97282 15.08377 0.0296
C 15.99364 13.72619 0.03374
C 14.80803 12.7556 -0.02845
C 14.73551 11.39009 -0.03213
C 19.58061 28.47879 0.00684
C 15.84468 4.89981 0.02239
C 14.82074 2.81425 0.02734
C 16.10949 2.14599 -0.0055
C 16.03887 0.7634 0.01515
C 14.86209 34.0525 -0.00225
C 17.20505 32.68078 0.00071
C 18.43631 31.99373 -0.01107
C 18.36676 30.60871 -0.01586
C 17.21301 29.79418 -0.01971
C 14.72165 4.20372 0.01153
C 14.73789 21.3152 -0.01662
C 20.85226 27.78736 -0.01052
C 19.80634 25.67015 0.00367
C 24.56503 32.61172 0.01094
C 25.79033 31.87773 0.00235
C 25.80304 30.49775 0.01495
C 24.51176 29.84178 0.01259
C 24.66702 28.34324 0.01799
C 24.701 7.23229 0.01699
C 25.85662 6.3403 -0.00416
C 25.77344 4.95154 0.01177
C 24.49516 4.29823 0.04266
C 24.62003 2.89473 0.01324
C 25.83178 2.14977 0.0014
C 25.73667 0.72263 0.00924
C 24.53133 34.01532 0.02326
C 27.10117 32.62908 0.00261
C 28.27346 31.8651 0.03265
C 28.19194 30.46361 -0.02049
C 26.93059 29.57262 -0.01854
C 22.10738 34.07731 0.02198
C 23.30022 0.72182 0.02611
C 23.39849 2.18025 -0.00621
C 22.1282 2.84174 0.00194
C 19.66399 24.23158 0.04306
C 20.97748 6.29056 0.00996
C 20.92666 4.9494 0.00195
C 19.64147 4.26669 -0.00802
C 19.65506 2.76711 -0.00218
C 20.89917 2.15851 -0.01654
C 20.85397 0.76737 -0.00037
C 19.59247 0.01924 -0.0032
C 21.09159 26.35319 -0.01679
C 22.17925 32.67246 0.00622
C 23.27538 30.56559 -0.00942
C 22.02903 29.84739 0.00487
C 22.11871 28.43625 0.00826
C 23.46175 27.82026 -0.00294
C 22.11808 7.06875 0.00152
C 23.40071 6.5536 0.01257
C 23.37142 5.03183 0.02316
C 22.16013 4.24988 0.04185
C 23.38423 31.91979 -0.02815
C 2.46875 32.76551 -0.00049
