259
Graphene
C 34.34385 0.05161 0.01295
C 15.95559 30.49843 0.03046
C 16.0171 31.89953 -0.00381
C 14.75627 32.65052 0.01852
C 12.31182 0.12701 0.01126
C 13.51679 0.77314 -0.01185
C 13.59863 2.27359 -0.01662
C 12.39435 3.01934 -0.00478
C 12.0614 4.39369 0.01511
C 13.6116 23.46907 0.00199
C 12.39904 24.01872 0.01087
C 12.32929 25.48872 -0.01527
C 13.62088 26.21234 0.00096
C 13.52376 27.64866 0.01277
C 14.73642 29.7981 0.0296
C 12.31438 28.37643 -0.02422
C 13.51721 30.59687 -0.01154
C 13.47916 32.02909 0.0106
C 12.28811 32.78425 -0.01594
C 9.82542 0.04349 0.00742
C 10.99319 0.82954 -0.00311
C 11.04643 2.24803 0.00675
C 9.69665 3.00298 -0.00865
C 9.5972 4.50149 0.0058
C 10.99308 4.86426 -0.00652
C 11.148 23.5229 -0.04076
C 9.83236 24.04469 -0.00703
C 9.79845 25.56763 0.00654
C 11.03683 26.2427 -0.04422
C 12.28648 29.83803 -0.01721
C 14.70342 28.40114 0.03374
C 15.97843 27.7593 -0.02845
C 16.0748 26.2831 -0.03213
C 19.6887 29.85886 -0.00938
C 20.8553 30.64565 -0.00229
C 20.90491 31.99529 -0.01199
C 19.6352 32.78872 -0.009
C 17.25064 34.04008 -0.00285
C 18.39616 0.74416 0.01423
C 18.58405 2.17807 0.02555
C 18.37162 19.1361 0.03102
C 17.2555 19.48286 0.00135
C 16.20745 20.52314 -0.00498
C 19.11383 22.25603 0.02737
C 18.55048 23.71422 0.02117
C 17.26533 24.07909 -0.04078
C 17.27708 25.54562 0.03005
C 18.53256 26.24899 -0.0276
C 18.52395 27.71424 0.00768
C 17.28084 28.39252 -0.00178
C 17.17762 29.8194 0.00733
C 18.40076 30.48449 -0.02118
C 18.47577 31.89806 -0.01971
C 17.29967 32.65542 -0.01586
C 14.77072 0.04368 -0.01107
C 16.0858 0.70117 0.00071
C 15.97125 1.99887 -0.00225
C 14.99114 2.8021 0.01515
C 16.30405 21.77107 -0.0055
C 16.08682 23.22012 0.02734
C 14.87131 24.08416 0.01153
C 14.91346 25.5829 0.02239
C 11.1264 27.69415 -0.02957
C 19.70203 28.48144 -0.0264
C 9.84903 28.42872 -0.00831
C 11.03427 30.55513 -0.017
C 6.0463 27.71618 0.00889
C 4.77542 28.40545 -0.02162
C 4.79755 29.81633 -0.00619
C 6.12167 30.49275 0.01848
C 6.03102 31.94934 0.02098
C 4.80121 32.68871 -0.03113
C 2.36233 34.06854 0.0351
C 3.59979 0.75918 0.00422
C 3.65389 2.11937 0.00798
C 2.39254 2.84913 0.00228
C 2.40534 4.2998 -0.00114
C 3.64326 5.03194 -0.02696
C 3.87815 6.52574 -0.00368
C 6.11669 26.28321 -0.00481
C 2.6008 7.14742 -0.0108
C 3.77291 9.39596 0.02058
C 2.64361 11.35653 0.01965
C 2.26135 19.87443 -0.03682
C 2.42732 21.21157 0.00052
C 3.68492 21.95852 0.00374
C 3.6543 23.44497 -0.02813
C 2.38465 24.07593 -0.01952
C 2.31757 25.55929 0.05265
C 3.57643 26.21553 -0.01717
C 3.48647 27.64934 0.00244
C 2.32958 28.39881 0.02299
C 2.33695 29.77426 0.03542
C 3.56451 30.48116 0.01416
C 2.53018 8.6058 -0.01957
C 4.83247 25.58088 0.00979
C 4.84145 24.23054 0.01443
C 6.08606 23.4684 0.03505
C 11.10503 31.96412 0.00143
C 9.80666 32.75903 0.00667
C 7.26661 0.00111 -0.0054
C 8.5374 0.65414 0.00755
C 8.57132 2.15599 0.01739
C 7.31282 2.85764 0.03754
C 7.24628 4.28438 -0.03557
C 8.36873 5.1917 -0.00111
C 7.55104 6.55108 0.04892
C 8.6405 23.37597 0.01452
C 7.39706 24.08308 -0.01581
C 7.38944 25.55768 0.02691
C 8.6273 26.24174 -0.01979
C 8.61847 27.68455 0.02188
C 7.30391 28.37266 -0.00316
C 7.35515 29.73519 -0.0331
C 8.60364 30.5642 -0.0258
C 8.59149 32.00819 0.03338
C 7.29888 32.67553 -0.00491
C 4.81259 34.07899 -0.00109
C 6.0342 0.78331 0.03698
C 6.0507 2.22572 -0.02213
C 4.89164 2.91074 0.00028
C 4.84134 4.31492 -0.00289
C 6.01732 4.94741 -0.00066
C 6.31543 6.44163 0.00213
C 5.14643 7.25135 -0.05302
C 4.9749 21.41407 -0.04147
C 5.97716 22.0785 -0.02815
C 9.78932 29.85928 0.00364
C 3.54412 31.93038 0.01945
C 21.06684 27.68977 -0.01154
C 19.87879 25.51186 -0.01052
C 33.12155 2.13522 -0.00323
C 31.93659 2.91203 0.00349
C 31.91967 4.34002 -0.03838
C 33.2056 5.05604 0.04926
C 33.23331 6.46817 -0.00069
C 32.02914 7.20272 0.01504
C 32.07978 8.59482 0.02806
C 33.31438 9.31701 0.04381
C 33.22308 10.74782 0.00199
C 31.93432 11.33278 0.00137
C 31.86042 12.80396 -0.01839
C 33.20386 13.53535 -0.00644
C 32.99935 14.90873 0.00455
C 33.12669 0.7749 -0.00841
C 31.57921 15.71314 0.00369
C 33.08761 17.66361 0.00594
C 32.91364 26.21086 -0.0136
C 32.71345 27.5628 -0.01429
C 31.72421 28.44373 -0.02383
C 31.81369 29.84901 0.01574
C 33.0792 30.56038 0.01927
C 33.15297 31.98435 0.03794
C 31.93781 32.70844 -0.01779
C 29.50491 0.11005 0.00682
C 30.72512 0.8264 0.00026
C 30.69469 2.22064 0.0544
C 29.45639 2.93376 -0.02142
C 29.44752 4.34643 0.01428
C 32.0174 17.04781 -0.02474
C 31.91314 0.1011 0.0001
C 34.32602 32.66866 -0.02927
C 1.12532 31.9381 -0.01404
C 1.1643 0.74472 -0.00468
C 1.19592 2.14013 -0.00939
C 34.405 2.82608 -0.00931
C 34.41868 4.24715 -0.0345
C 1.21635 4.98295 0.00628
C 1.3381 6.40231 0.02931
C 0.1084 7.15539 -0.02849
C 0.13714 8.59742 -0.02302
C 1.35714 9.31276 -0.00583
C 1.29829 10.78317 -0.00027
C 0.00731 11.50101 -0.02442
C 0.01749 12.86872 -0.02656
C 1.27385 13.62256 0.00343
C 0.93623 14.81544 -0.02957
C 34.27969 15.71945 0.02114
C 34.41124 17.09307 0.00648
C 1.14779 17.74382 0.01223
C 1.09545 19.09571 -0.01678
C 34.25779 19.97964 0.01951
C 34.36338 21.34503 -0.02213
C 1.1891 22.04403 0.02712
C 1.11921 23.48639 0.00723
C 34.32854 24.0865 0.03076
C 34.14889 25.40254 -0.05239
C 1.07253 26.20048 -0.00598
C 1.04655 27.59315 -0.00439
C 34.21246 28.32073 -0.01037
C 34.28619 29.81147 0.01831
C 1.16597 30.46552 0.01027
C 30.7105 5.08084 -0.01694
C 20.94051 26.34408 0.00684
C 30.77658 6.46785 0.01713
C 29.56234 8.57282 0.00307
C 24.4996 4.27293 0.01259
C 25.58711 5.0948 0.01495
C 25.78557 6.45467 0.00235
C 25.83857 9.4056 0.01094
C 25.90369 10.55965 0.02198
C 26.06014 13.94424 0.02611
C 25.22176 14.87102 -0.00621
C 24.43717 29.84211 0.00194
C 25.70582 30.35149 0.04185
C 25.72879 31.86382 0.02316
C 24.56569 32.67294 0.01257
C 22.13854 0.12544 0.00152
C 23.34079 0.76193 -0.00294
C 24.68372 2.84822 0.01799
C 23.40182 2.12099 0.00826
C 22.24158 28.58887 -0.00942
C 22.12589 29.94973 -0.02815
C 23.34591 30.64079 0.00622
C 23.37812 32.05369 -0.0032
C 22.14756 32.77559 -0.00037
C 19.63614 0.13004 -0.01654
C 20.86833 0.76644 -0.00218
C 21.01106 2.32957 -0.00802
C 19.62175 2.72901 0.00195
C 19.87916 18.34352 0.00996
C 19.84002 19.58771 0.04306
C 19.7536 21.14915 0.00367
C 19.80272 24.12682 -0.01679
C 22.22527 2.86186 0.00487
C 25.88154 2.10291 0.01699
C 25.83988 0.69123 -0.00416
C 24.55306 0.08816 0.01177
C 30.83953 9.22848 0.00716
C 30.74712 10.64873 0.02108
C 29.53172 11.33946 0.0103
C 29.5041 12.7141 0.07705
C 30.67615 13.50246 0.01908
C 30.38858 14.97609 0.01518
C 29.51814 29.87784 -0.00971
C 30.72284 30.66479 -0.03735
C 30.6594 32.01511 -0.00944
C 29.43329 32.7224 -0.02155
C 27.00234 34.01336 -0.01461
C 28.27487 0.70885 -0.01303
C 28.30694 2.17824 -0.0405
C 27.04513 2.88061 0.01705
C 26.95889 4.3043 0.0101
C 28.16955 4.97072 -0.00669
C 28.23468 6.44626 0.03531
C 26.96101 7.1265 0.01836
C 27.04489 8.57731 -0.03039
C 28.27075 9.27923 -0.01415
C 28.27729 10.6508 -0.01854
C 26.95089 11.4843 -0.02049
C 27.13984 13.04245 0.03265
C 28.39168 13.67686 0.00261
C 29.14511 15.04083 0.02326
C 26.99149 29.79783 0.00924
C 28.28113 30.40618 0.0014
C 28.20499 31.87779 0.01324
C 26.97307 32.56262 0.04266
C 29.56736 7.13073 0.00346
C 2.35883 32.64984 -0.01454
