386
Graphene
C 0.01207 0.02481 0.01295
C 9.88057 34.07951 -0.0014
C 12.26009 32.72645 0.02162
C 13.51009 32.00492 0.0076
C 13.56698 30.5331 0.01241
C 12.33843 29.89654 -0.01454
C 12.31444 28.44989 0.01945
C 13.46804 27.63576 0.01416
C 13.47344 26.2416 0.03542
C 12.24199 25.46578 0.02299
C 11.08608 0.7026 0.00415
C 12.36262 24.13395 0.00244
C 13.53954 21.99935 0.05265
C 12.34531 21.25907 -0.01952
C 12.39513 19.8795 -0.02813
C 12.14783 8.674 0.00374
C 12.33138 7.09174 0.00052
C 13.51005 6.30623 -0.03682
C 13.48944 4.89462 0.01965
C 12.34356 4.16746 0.02058
C 12.24386 2.76379 -0.01957
C 13.55063 23.43621 -0.01717
C 13.50171 2.11577 -0.0108
C 10.9848 2.19033 -0.02162
C 9.80111 4.34156 0.01877
C 9.88214 29.85959 0.00406
C 9.8707 28.44514 0.00943
C 11.10337 27.70917 0.02841
C 11.10116 26.28904 -0.01111
C 9.81084 25.57484 -0.01275
C 9.85123 24.16934 0.00985
C 11.11333 23.4907 -0.02245
C 11.07683 22.09173 -0.00428
C 9.79393 21.32218 0.03101
C 9.77797 2.9455 0.01363
C 9.87442 19.84416 -0.01536
C 11.09023 17.76781 -0.01046
C 9.94603 17.03005 -0.00891
C 9.94003 15.59611 0.02819
C 9.81627 11.28648 0.00165
C 11.10587 9.23312 -0.02971
C 9.84939 8.52795 0.02894
C 9.782 7.07012 -0.01789
C 11.07977 6.37969 0.00444
C 11.17862 4.95174 -0.00925
C 11.14503 19.16 -0.02689
C 11.1323 30.56061 0.03592
C 13.46385 0.77319 -0.00368
C 14.7261 32.69216 -0.00114
C 17.18319 28.29828 -0.00491
C 18.44463 27.67343 0.03338
C 18.4756 26.30663 -0.0258
C 17.21728 25.54902 -0.0331
C 17.18071 24.13948 -0.00316
C 18.44302 23.47079 0.02188
C 18.49009 22.05189 -0.01979
C 17.26309 21.34738 0.02691
C 17.22127 19.88434 -0.01581
C 17.22733 29.80417 -0.00109
C 17.23012 7.05069 0.01452
C 18.4636 4.89788 -0.00111
C 17.20443 4.24429 -0.03557
C 17.17694 2.77602 0.03754
C 18.47764 2.08297 0.01739
C 18.47911 0.67077 0.00755
C 17.20008 0.02803 -0.0054
C 19.63071 32.66547 0.00667
C 20.82474 31.96157 0.00143
C 20.80283 30.57819 -0.017
C 18.42163 6.42918 0.04892
C 12.26098 0.08143 -0.02696
C 18.42549 30.49004 0.03698
C 17.21305 32.67702 0.00028
C 16.0192 31.98704 0.00228
C 16.01194 30.58863 0.00798
C 14.83808 29.8175 0.00422
C 14.74111 28.41147 0.0351
C 15.96443 27.6048 -0.03113
C 15.95044 26.20619 0.02098
C 14.71739 25.57462 0.01848
C 14.77099 24.17252 -0.00619
C 15.93887 23.42327 -0.02162
C 18.41054 31.94582 -0.02213
C 15.95072 22.05602 0.00889
C 14.71868 19.87335 0.00979
C 14.66138 7.07491 0.01443
C 15.9832 6.49491 0.03505
C 16.00744 4.94788 -0.02815
C 14.71904 4.22549 -0.04147
C 14.73609 2.76754 -0.05302
C 15.94485 2.08905 0.00213
C 15.97402 0.66726 -0.00066
C 14.68464 34.07562 -0.00289
C 14.79213 21.21244 -0.00481
C 11.11348 32.00418 0.00572
C 9.84311 32.7226 0.0402
C 7.41467 34.05228 -0.02759
C 3.63115 4.96263 0.017
C 2.41369 4.29944 -0.03113
C 2.48414 2.8965 -0.02566
C 3.6766 2.07594 -0.00094
C 3.63446 0.73686 0.02322
C 2.41039 0.00602 -0.00725
C 4.85814 32.67891 -0.05697
C 6.11748 31.99026 0.01087
C 6.1338 30.62327 -0.01343
C 3.71234 6.36644 -0.00643
C 4.90882 29.88587 0.00988
C 6.12484 27.72426 0.01305
C 6.12483 26.32326 -0.00077
C 4.87195 25.62535 0.03368
C 4.90694 24.19633 -0.02929
C 6.14381 23.40775 -0.00966
C 6.11025 22.00126 -0.03337
C 4.85405 21.35038 0.01227
C 4.99503 19.8307 0.00873
C 6.28391 19.19689 -0.00049
C 4.89527 28.42653 0.0276
C 6.24709 17.7679 0.00848
C 2.443 7.06288 0.0086
C 3.65014 9.21129 -0.00074
C 3.63591 30.58299 -0.04307
C 2.43747 29.82169 0.03189
C 2.44617 28.36275 0.00031
C 3.67065 27.70466 -0.003
C 3.69641 26.29426 0.01402
C 2.43721 25.52273 0.02379
C 2.45442 24.11784 0.00907
C 3.61813 23.42011 0.00643
C 3.6324 22.06311 -0.01509
C 2.41985 8.53783 -0.00518
C 2.41371 21.33314 0.03267
C 3.7627 19.19049 0.00402
C 3.72395 17.69652 0.0073
C 2.50691 17.05163 0.0174
C 2.50151 15.6796 0.03828
C 3.67588 15.00081 0.01226
C 3.6857 13.47858 -0.00279
C 2.39165 12.73478 0.01996
C 2.4465 11.32405 -0.03996
C 3.70372 10.63688 0.01465
C 2.52597 19.85529 0.02374
C 4.94492 17.09815 -0.01303
C 4.93222 15.6878 -0.01378
C 6.08168 14.96579 0.02635
C 7.41092 21.28886 -0.02896
C 7.48748 19.88882 -0.00131
C 8.63411 19.17052 -0.01118
C 8.59137 17.61497 -0.014
C 7.37105 16.98104 0.02147
C 7.29961 15.60418 0.00373
C 8.60304 14.81907 -0.00191
C 8.58711 13.43653 0.00438
C 7.3984 12.81805 0.01291
C 8.59809 22.07271 -0.01004
C 7.3834 11.33411 0.00093
C 8.60943 9.25236 -0.01634
C 7.37672 8.56826 -0.00334
C 7.40016 7.13397 0.02339
C 8.57008 6.39065 0.01641
C 8.58411 5.02037 -0.00719
C 7.42748 4.3215 0.01364
C 7.34462 2.85485 -0.01062
C 8.57976 2.18818 -0.00033
C 8.66459 0.70303 0.03589
C 8.66675 10.73068 0.00057
C 8.61439 23.49019 0.00488
C 7.40256 24.23835 0.01745
C 7.30381 25.65783 0.03693
C 6.10358 13.53584 0.0127
C 4.89737 12.83502 0.01396
C 4.87872 11.37787 0.01849
C 6.15657 10.68653 -0.01142
C 6.16055 9.234 -0.00562
C 4.92231 8.52566 -0.00494
C 4.88593 7.10688 0.00054
C 6.13307 6.46192 0.03007
C 6.13672 5.00461 -0.00095
C 4.84187 4.25955 0.01572
C 4.86427 2.86901 -0.04848
C 6.12917 2.12863 -0.00892
C 6.17854 0.68908 -0.01362
C 4.84672 0.04279 -0.0008
C 7.35641 32.67071 0.0288
C 8.65061 32.01695 0.00393
C 8.6307 30.51709 0.00895
C 7.36867 29.84319 0.00685
C 7.32633 28.43559 0.02888
C 8.60748 27.70432 -0.00482
C 8.5804 26.35022 -0.01384
C 19.59144 29.78882 0.00364
C 19.60213 28.39554 -0.00831
C 20.9121 27.63932 -0.02957
C 19.67026 25.54418 -0.04422
C 30.69552 4.97632 0.07705
C 29.53766 4.29104 0.0103
C 29.49638 2.79019 0.02108
C 30.72293 2.14067 0.00716
C 30.73035 0.75291 0.00307
C 29.5481 34.07865 0.00346
C 32.01016 32.74353 0.01713
C 33.17024 31.94202 -0.01694
C 33.15753 30.54271 0.01428
C 30.72536 6.36312 0.01908
C 31.9047 29.90276 -0.02142
C 33.28149 27.69564 0.00026
C 33.22545 26.25102 0.00682
C 32.01899 25.53284 -0.01779
C 31.96248 24.14391 0.03794
C 33.16377 23.46072 0.01927
C 33.21409 22.02618 0.01574
C 31.95064 21.30196 -0.02383
C 31.95921 19.87844 -0.01429
C 33.18531 19.17264 -0.0136
C 32.0409 28.45285 0.0544
C 33.22002 17.67559 0.00594
C 29.52331 7.05959 0.01518
C 30.73095 9.208 -0.03735
C 30.71883 30.56643 0.01324
C 29.49589 29.77691 0.0014
C 29.50885 28.39953 0.00924
C 30.80721 27.62744 0.02326
C 30.71482 26.19427 0.00261
C 29.3981 25.56435 0.03265
C 29.4301 24.14104 -0.02049
C 30.6989 23.4666 -0.01854
C 30.76819 22.04871 -0.01415
C 29.51417 8.46721 -0.00971
C 29.55063 21.31555 -0.03039
C 30.76077 19.19347 0.03531
C 30.77535 17.74617 -0.00669
C 29.54106 16.94637 0.0101
C 29.54967 15.58142 0.01705
C 30.80047 14.88133 -0.0405
C 30.73473 13.48523 -0.01303
C 29.57351 12.74818 -0.01461
C 29.49977 11.36068 -0.02155
C 30.7073 10.69482 -0.00944
C 29.55033 19.96668 0.01836
C 31.98295 17.02274 -0.02474
C 32.02735 15.67595 0.00369
C 33.19193 14.912 0.00455
C 34.42355 21.28805 -0.02213
C 0.00748 19.87087 0.01951
C 1.28069 19.1968 -0.01678
C 1.27454 17.76395 0.01223
C 34.40235 17.01336 0.00648
C 34.42332 15.61512 0.02114
C 1.23881 14.95727 -0.02957
C 1.24967 13.53086 0.00343
C 34.41274 12.72038 -0.02656
C 1.18877 21.98684 0.02712
C 34.41355 11.30171 -0.02442
C 1.24579 9.25153 -0.00583
C 34.3559 8.51252 -0.02302
C 34.36223 7.11437 -0.02849
C 1.21169 6.35589 0.02931
C 1.18284 4.93796 0.00628
C 34.40153 4.23301 -0.0345
C 34.42369 2.84803 -0.00931
C 1.24602 2.19191 -0.00939
C 1.22768 0.73561 -0.00468
C 1.23012 10.61028 -0.00027
C 1.15436 23.4101 0.00723
C 34.36917 24.18402 0.03076
C 34.4136 25.56722 -0.05239
C 33.21914 13.41924 -0.00644
C 31.98611 12.76589 -0.01839
C 31.92341 11.42165 0.00137
C 33.17404 10.71071 0.00199
C 33.17893 9.29389 0.04381
C 31.92215 8.57328 0.02806
C 31.94264 7.10662 0.01504
C 33.16664 6.43085 -0.00069
C 33.22208 4.9767 0.04926
C 31.97938 4.28457 -0.03838
C 31.94589 2.79126 0.00349
C 33.18118 2.13163 -0.00323
C 33.20077 0.74758 -0.00841
C 31.94694 0.08661 0.0001
C 0.01259 32.61109 -0.02927
C 1.23425 31.89699 -0.01404
C 1.16121 30.51762 0.01027
C 34.41725 29.85333 0.01831
C 0.05136 28.39008 -0.01037
C 1.17369 27.64571 -0.00439
C 1.17568 26.23397 -0.00598
C 30.73309 31.99497 0.04266
C 3.67309 31.94666 0.03284
C 29.5063 32.66622 0.01177
C 28.31697 0.66576 0.01699
C 22.19714 15.5789 0.01852
C 23.38968 14.91332 -0.00381
C 23.31377 13.46646 0.03046
C 22.19952 12.55661 0.0296
C 22.12218 11.3921 0.03374
C 23.30727 10.63552 -0.02845
C 23.39725 9.24066 -0.03213
C 22.17895 8.51474 0.02239
C 22.10045 7.1671 0.01153
C 21.97157 16.97479 0.01126
C 23.30845 6.35243 0.02734
C 22.14903 4.1789 0.01515
C 22.12408 2.83362 -0.00225
C 23.4271 2.10941 0.00071
C 23.37524 0.7253 -0.01107
C 22.03197 34.06306 -0.01586
C 24.52149 32.59839 -0.01971
C 25.81362 31.9251 -0.02118
C 25.84426 30.50402 0.00733
C 24.64711 29.71403 -0.00178
C 23.39671 4.90691 -0.0055
C 24.65186 28.36116 0.00768
C 23.35287 17.73342 -0.01185
C 22.17236 19.72257 -0.00478
C 19.59561 24.27371 0.00654
C 19.60123 21.15404 -0.00703
C 19.83596 19.95084 -0.04076
C 20.96747 19.08342 -0.00652
C 20.91525 17.71414 0.0058
C 20.84924 9.14621 -0.00865
C 19.81033 8.55145 0.00675
C 19.68131 7.0921 -0.00311
C 20.95437 6.41434 0.00742
C 23.35561 19.20281 -0.01662
C 20.93102 5.01257 -0.01594
C 19.73571 2.80537 -0.01154
C 20.95685 2.15344 -0.01721
C 20.93198 0.76449 -0.02422
C 19.67528 0.03815 0.01277
C 22.13027 32.5878 0.00096
C 23.34521 31.90285 -0.01527
C 23.37946 30.54027 0.01087
C 22.10486 29.88562 0.00199
C 21.97561 28.37708 0.01511
C 19.70747 4.28158 0.0106
C 24.57316 19.91339 -0.0276
C 25.78933 19.18023 0.03005
C 25.82384 17.78941 -0.04078
C 28.18602 22.11339 -0.0032
C 27.08956 21.22804 0.00622
C 27.08619 19.93867 -0.02815
C 28.36666 19.16501 -0.00942
C 28.33024 17.70911 0.00487
C 26.98523 17.01994 0.00826
C 27.10397 15.63088 -0.00294
C 28.29824 14.90969 0.00152
C 28.42021 13.51744 0.01257
C 28.24538 23.48489 -0.00037
C 27.0879 12.77173 0.02316
C 28.29726 10.63237 0.00194
C 28.18442 9.22088 -0.00621
C 26.94279 8.51212 0.02611
C 26.99419 7.10428 0.02198
C 28.23034 6.37031 0.01094
C 28.26837 4.92407 0.00235
C 26.97906 4.21921 0.01495
C 27.01639 2.81227 0.01259
C 28.24972 2.13607 0.01799
C 27.02712 11.32677 0.04185
C 28.25455 26.30152 -0.01654
C 28.19782 27.66391 -0.00218
C 27.02075 28.41765 -0.00802
C 24.56288 17.03594 0.02117
C 24.63518 15.53317 0.02737
C 25.86235 14.88991 -0.00498
C 25.84106 13.46559 0.00135
C 24.58957 12.78935 0.03102
C 24.68826 11.4426 0.02555
C 25.81963 10.61789 0.01423
C 25.73912 9.18339 -0.00285
C 24.56218 8.47231 -0.009
C 24.50208 7.12343 -0.01199
C 25.78863 6.40609 -0.00229
C 25.79887 4.984 -0.00938
C 24.68088 4.30657 -0.0264
C 24.618 2.87601 -0.01154
C 25.8248 2.10682 0.00684
C 25.81408 0.67578 -0.01052
C 24.5425 34.07276 -0.01679
C 27.05036 32.64312 0.00367
C 28.20833 31.91327 0.04306
C 28.26369 30.49388 0.00996
C 27.02958 29.76675 0.00195
C 27.0296 34.05404 -0.00416
C 2.45158 32.64587 0.04505
