298
Graphene
C 34.38509 0.11622 0.01295
C 15.9577 2.16239 0.03754
C 16.06702 0.6721 0.01739
C 14.80599 34.02586 0.00755
C 17.28285 32.59609 -0.0054
C 18.5091 31.90208 0.00667
C 18.38758 30.49702 0.00143
C 14.82301 2.87882 -0.03557
C 17.22229 29.82638 -0.017
C 18.47896 27.62579 -0.00831
C 18.40862 26.1578 -0.02957
C 17.20578 25.60939 -0.04422
C 18.56297 22.91183 0.00654
C 17.48224 4.21565 -0.00703
C 17.20223 2.71854 -0.04076
C 17.21052 28.29139 0.00364
C 14.94881 4.36711 -0.00111
C 16.26824 4.82767 0.04892
C 15.96664 26.1853 0.01452
C 12.24463 29.96212 -0.00066
C 12.27809 28.53759 -0.00289
C 13.40351 27.86488 0.00028
C 13.67117 5.1681 -0.02213
C 12.3362 4.44371 0.03698
C 12.36001 2.94208 -0.00109
C 13.52783 2.12477 -0.00491
C 13.53192 0.69652 0.03338
C 12.3345 0.08254 -0.0258
C 14.7886 32.5919 -0.0331
C 16.02081 31.87095 -0.00316
C 16.01654 30.48391 0.02188
C 14.7898 29.85285 -0.01979
C 14.65422 28.38106 0.02691
C 15.91388 27.6152 -0.01581
C 18.51933 2.08527 -0.00652
C 13.5932 30.57114 0.00213
C 18.52542 0.71299 0.0058
C 19.75418 32.65348 0.00675
C 22.07349 29.7903 0.03046
C 22.12687 28.37527 0.0296
C 23.33002 27.66551 0.03374
C 23.28905 26.27553 -0.02845
C 22.08447 25.60306 -0.03213
C 22.16263 24.20515 0.02239
C 23.29183 30.47787 -0.00381
C 23.33209 23.35586 0.01153
C 21.90977 21.23456 -0.0055
C 22.02262 19.80421 0.01515
C 23.27075 19.06922 -0.00225
C 23.19476 17.59622 0.00071
C 23.39884 14.64378 -0.01107
C 22.188 2.92829 -0.01586
C 23.22897 21.99798 0.02734
C 23.29662 31.91808 0.01852
C 22.12994 32.68453 0.01126
C 19.74247 0.02145 -0.01185
C 20.92322 31.94445 -0.00311
C 20.90109 30.58276 0.00742
C 19.64532 29.74477 -0.01594
C 19.71837 28.27679 0.0106
C 20.92218 27.61531 -0.01154
C 20.85301 26.19808 -0.01721
C 19.5519 25.42213 -0.02422
C 19.61021 24.05611 0.01277
C 20.90467 23.44657 0.00096
C 20.80353 22.01018 -0.01527
C 19.5357 21.74085 0.01087
C 18.91954 4.25567 0.00199
C 19.57967 3.14328 0.01511
C 20.89351 2.46213 -0.00478
C 20.92027 0.75149 -0.01662
C 17.23587 0.04221 -0.00865
C 13.57754 31.93891 -0.05302
C 12.3456 32.70777 -0.04147
C 9.85248 34.03902 -0.02815
C 2.39257 7.22173 -0.02689
C 3.73619 6.45235 -0.01046
C 3.67171 5.05218 -0.00891
C 2.47468 4.33231 0.02819
C 2.48209 2.89843 0.00165
C 3.69081 2.19787 -0.02971
C 2.26951 8.6895 -0.01536
C 3.6731 0.71752 0.02894
C 4.95792 32.59326 0.00444
C 6.17979 31.84915 -0.00925
C 6.18524 30.44143 0.01877
C 4.89924 29.77164 0.01363
C 4.71491 28.42674 -0.02162
C 5.98156 27.50481 0.00415
C 2.39525 0.07093 -0.01789
C 3.5288 9.36062 0.03101
C 3.52422 10.70877 -0.00428
C 2.22869 11.5312 -0.02245
C 3.69625 30.58145 -0.00719
C 2.42657 29.89393 0.01364
C 2.4234 28.43377 -0.01062
C 3.59212 27.70227 -0.00033
C 3.89586 26.25899 0.03589
C 2.65341 25.50725 -0.02759
C 2.52652 24.00237 0.0402
C 3.25565 22.85814 0.00572
C 2.52818 21.55671 0.03592
C 2.30732 20.07215 0.00406
C 2.38504 17.22033 0.00943
C 2.61962 15.86662 0.02841
C 3.67337 14.88438 -0.01111
C 3.60683 13.57083 -0.01275
C 2.24445 12.89827 0.00985
C 5.38438 26.24558 -0.0014
C 4.68568 12.65296 0.02162
C 4.72741 11.42275 0.0076
C 6.12208 9.24437 0.01241
C 7.37229 4.35434 -0.00114
C 7.36714 2.89093 0.00228
C 8.6622 2.15235 0.00798
C 8.59987 0.77665 0.00422
C 7.40246 34.03738 0.0351
C 9.80132 32.68091 -0.03113
C 11.00924 32.03728 0.02098
C 11.00462 30.56622 0.01848
C 9.84076 29.81637 -0.00619
C 9.71754 28.3376 -0.02162
C 10.99508 4.97023 0.00889
C 9.78286 4.27882 -0.00481
C 9.89371 2.79267 0.00979
C 11.07514 2.15484 0.01443
C 11.06966 0.75419 0.03505
C 8.58096 5.04576 -0.02696
C 23.44106 2.08777 -0.01971
C 8.73444 6.36426 -0.00368
C 7.25929 8.5666 -0.01957
C 4.85602 8.70171 -0.01454
C 4.95321 7.17613 0.01945
C 6.1935 6.4547 0.01416
C 6.13132 4.99612 0.03542
C 4.9308 4.33642 0.02299
C 4.95222 2.92925 0.00244
C 6.14877 2.18471 -0.01717
C 6.23324 0.76992 0.05265
C 4.94893 0.02224 -0.01952
C 7.35999 32.59143 -0.02813
C 8.60578 31.90264 0.00374
C 8.5086 30.42553 0.00052
C 7.32632 29.64863 -0.03682
C 7.26486 28.08578 0.01965
C 8.53022 27.6878 0.02058
C 7.56568 7.23797 -0.0108
C 23.36901 0.58246 -0.02118
C 22.08398 0.06256 0.00733
C 24.60323 32.62698 -0.00178
C 31.97301 24.14724 -0.02383
C 33.17949 23.56334 -0.01429
C 33.12442 22.1447 -0.0136
C 31.89893 21.39131 0.00594
C 31.84241 19.8823 -0.02474
C 33.01366 19.16921 0.00369
C 31.94844 25.63711 0.01574
C 33.0988 17.65532 0.00455
C 32.05305 15.30189 -0.01839
C 33.45374 14.55895 0.00137
C 33.06877 10.81954 0.00199
C 33.10455 9.4027 0.04381
C 32.01039 8.60314 0.02806
C 31.95182 7.07823 0.01504
C 31.88991 16.85609 -0.00644
C 33.2328 26.33049 0.01927
C 33.17568 27.76481 0.03794
C 31.93831 28.44933 -0.01779
C 28.82808 12.1763 0.01518
C 30.76717 9.19806 0.01908
C 29.51642 8.64365 0.07705
C 29.50148 7.24888 0.0103
C 30.65985 6.41452 0.02108
C 30.58353 5.04251 0.00716
C 29.36106 4.31971 0.00307
C 29.40984 2.92036 0.00346
C 30.65343 2.23174 0.01713
C 30.73033 0.81333 -0.01694
C 29.54044 0.07544 0.01428
C 32.01199 32.70433 -0.02142
C 33.1938 32.03164 0.0544
C 33.16435 30.58818 0.00026
C 31.94628 29.85541 0.00682
C 33.20507 6.43056 -0.00069
C 33.14002 4.9846 0.04926
C 31.89331 4.37944 -0.03838
C 31.95152 2.89434 0.00349
C 0.04744 15.63644 0.02114
C 1.2956 15.13863 -0.02957
C 1.15125 13.71147 0.00343
C 34.225 13.3021 -0.02656
C 34.02107 11.7935 -0.02442
C 0.90707 10.8869 -0.00027
C 1.01355 9.44062 -0.00583
C 34.32284 8.70667 -0.02302
C 34.37853 7.20775 -0.02849
C 1.19249 6.49085 0.02931
C 1.21607 5.03586 0.00628
C 34.40587 4.30223 -0.0345
C 34.36709 2.91572 -0.00931
C 1.18453 2.18018 -0.00939
C 1.18858 0.80643 -0.00468
C 34.379 16.95954 0.00648
C 30.80957 14.79223 -0.00971
C 1.1494 17.85822 0.01223
C 34.27194 19.89843 0.01951
C 33.15978 2.24955 -0.00323
C 33.1669 0.83375 -0.00841
C 31.98303 0.09558 0.0001
C 0.02107 32.74865 -0.02927
C 1.23618 32.02737 -0.01404
C 1.18724 30.61986 0.01027
C 34.39564 29.84945 0.01831
C 34.42868 28.42361 -0.01037
C 1.15701 27.65246 -0.00439
C 1.33085 26.29043 -0.00598
C 0.01993 25.65292 -0.05239
C 34.35807 24.19831 0.03076
C 1.16887 23.48577 0.00723
C 1.11162 22.11539 0.02712
C 34.34071 21.34569 -0.02213
C 1.16522 19.36322 -0.01678
C 3.72162 31.97954 0.01641
C 29.48741 15.41045 -0.03735
C 30.67053 17.6068 -0.02155
C 25.56248 5.03579 -0.01052
C 24.40021 4.22081 -0.01679
C 24.59674 2.83493 0.00367
C 25.87539 2.1348 0.04306
C 25.77834 0.70501 0.00996
C 24.57141 33.99332 0.00195
C 25.77793 6.45681 0.00684
C 27.07301 32.7138 -0.00802
C 28.24048 30.63684 -0.01654
C 27.00976 29.85025 -0.00037
C 27.04703 28.4357 -0.0032
C 28.28291 27.75245 0.00622
C 28.29038 26.27342 -0.02815
C 27.02686 25.53146 -0.00942
C 28.34185 32.04028 -0.00218
C 25.7132 13.44611 -0.01154
C 25.76043 14.77982 -0.0264
C 24.53542 15.45874 -0.00938
C 25.79787 31.9378 0.00768
C 25.76405 30.50747 -0.0276
C 24.53381 29.77425 0.03005
C 24.55825 28.3871 -0.04078
C 25.78345 27.7197 0.02117
C 25.84545 26.25393 0.02737
C 24.6213 25.5171 -0.00498
C 24.53654 24.13954 0.00135
C 25.7793 23.40756 0.03102
C 25.68742 21.98456 0.02555
C 24.4255 21.25867 0.01423
C 24.46151 19.89831 -0.00285
C 25.69729 19.14188 -0.009
C 25.71878 17.69393 -0.01199
C 24.4027 16.8723 -0.00229
C 27.02987 24.13067 0.00487
C 28.29647 23.40424 0.00826
C 28.19112 21.98776 -0.00294
C 26.91793 21.29349 0.00152
C 27.01914 0.04198 0.02326
C 29.59654 32.70998 0.00261
C 30.80431 32.01389 0.03265
C 30.75728 30.59439 -0.02049
C 29.4897 29.95754 -0.01854
C 29.52086 28.49829 -0.01415
C 30.75411 27.78148 -0.03039
C 30.66576 26.3206 0.01836
C 29.42781 25.53061 0.03531
C 29.5419 24.12989 -0.00669
C 30.72163 23.45249 0.0101
C 30.68756 22.03285 0.01705
C 29.42087 21.32366 -0.0405
C 29.38253 19.86044 -0.01303
C 30.6282 19.10417 -0.01461
C 28.20013 0.74504 0.00924
C 29.38484 16.94618 -0.00944
C 28.25678 2.09957 0.0014
C 26.9154 4.3117 0.04266
C 26.91819 19.8577 0.01257
C 28.20633 19.16294 0.02316
C 28.18408 17.70441 0.04185
C 26.92401 16.95771 0.00194
C 27.03637 15.50118 -0.00621
C 28.24052 14.64559 0.02611
C 28.26093 13.27958 0.02198
C 26.56427 12.47713 0.01094
C 26.90894 11.00661 0.00235
C 28.27745 10.91637 0.01495
C 28.31672 9.38564 0.01259
C 26.9865 8.78868 0.01799
C 26.84986 7.2344 0.01699
C 28.20754 6.48026 -0.00416
C 28.16452 4.99676 0.01177
C 27.02473 2.87916 0.01324
C 2.45975 32.67133 0.02339
