259
Graphene
C 0.01565 34.05639 0.01295
C 15.92572 30.58989 0.03046
C 15.98614 32.01537 -0.00381
C 14.87471 32.75027 0.01852
C 12.31317 0.08448 0.01126
C 13.63639 0.78015 -0.01185
C 13.62214 2.1797 -0.01662
C 12.28458 2.86539 -0.00478
C 11.96003 4.26683 0.01511
C 13.70668 23.26939 0.00199
C 12.44856 23.99213 0.01087
C 12.33373 25.52548 -0.01527
C 13.52229 26.19689 0.00096
C 13.58224 27.61583 0.01277
C 14.67315 29.91146 0.0296
C 12.33007 28.36626 -0.02422
C 13.48765 30.64783 -0.01154
C 13.59676 32.0719 0.0106
C 12.32897 32.73293 -0.01594
C 9.85664 0.0089 0.00742
C 11.07106 0.79298 -0.00311
C 11.03671 2.26506 0.00675
C 9.80124 2.85752 -0.00865
C 9.60145 4.36643 0.0058
C 10.86155 4.94875 -0.00652
C 11.13069 23.65991 -0.04076
C 9.90389 24.15558 -0.00703
C 9.88181 25.57385 0.00654
C 11.11153 26.24054 -0.04422
C 12.32749 29.78326 -0.01721
C 14.79756 28.42229 0.03374
C 16.03237 27.63501 -0.02845
C 16.03911 26.24932 -0.03213
C 19.64339 29.8856 -0.00938
C 20.90536 30.60951 -0.00229
C 20.89602 32.04367 -0.01199
C 19.71212 32.67103 -0.009
C 17.23103 33.97654 -0.00285
C 18.43921 0.61555 0.01423
C 18.52148 2.0558 0.02555
C 18.47437 19.41407 0.03102
C 17.14969 19.5332 0.00135
C 16.58319 20.82053 -0.00498
C 18.92709 21.98687 0.02737
C 18.54846 23.36255 0.02117
C 17.23106 24.08181 -0.04078
C 17.31758 25.47997 0.03005
C 18.45636 26.30686 -0.0276
C 18.44647 27.73008 0.00768
C 17.15594 28.42465 -0.00178
C 17.17017 29.87749 0.00733
C 18.44964 30.61228 -0.02118
C 18.51454 31.96928 -0.01971
C 17.21512 32.57108 -0.01586
C 14.78511 0.04594 -0.01107
C 16.06247 0.61481 0.00071
C 16.05385 2.16999 -0.00225
C 14.97618 2.66802 0.01515
C 16.21395 22.05526 -0.0055
C 16.06851 23.40039 0.02734
C 14.8468 24.12381 0.01153
C 14.72811 25.52115 0.02239
C 11.03758 27.62791 -0.02957
C 19.71196 28.42222 -0.0264
C 9.81026 28.34043 -0.00831
C 11.1191 30.48217 -0.017
C 6.06529 27.68028 0.00889
C 4.80287 28.35925 -0.02162
C 4.78687 29.79702 -0.00619
C 6.04626 30.48348 0.01848
C 6.06917 31.87863 0.02098
C 4.89213 32.61068 -0.03113
C 2.44386 0.02174 0.0351
C 3.65502 0.69767 0.00422
C 3.66511 2.19246 0.00798
C 2.47143 2.90413 0.00228
C 2.49533 4.32907 -0.00114
C 3.70179 5.0357 -0.02696
C 3.69166 6.47218 -0.00368
C 6.08673 26.26774 -0.00481
C 2.48176 7.19141 -0.0108
C 3.72231 9.31693 0.02058
C 2.48554 11.39132 0.01965
C 2.22765 19.95334 -0.03682
C 2.39754 21.28349 0.00052
C 3.58196 21.98259 0.00374
C 3.67836 23.39417 -0.02813
C 2.4784 24.10528 -0.01952
C 2.44296 25.50059 0.05265
C 3.6366 26.25274 -0.01717
C 3.56776 27.70015 0.00244
C 2.22229 28.29498 0.02299
C 2.31895 29.78395 0.03542
C 3.61831 30.55534 0.01416
C 2.60861 8.6392 -0.01957
C 4.87805 25.58509 0.00979
C 4.92855 24.05474 0.01443
C 6.19082 23.45403 0.03505
C 11.10681 31.95351 0.00143
C 9.86943 32.6281 0.00667
C 7.32169 0.00934 -0.0054
C 8.57519 0.76604 0.00755
C 8.55462 2.15794 0.01739
C 7.33522 2.86161 0.03754
C 7.2417 4.25611 -0.03557
C 8.35627 5.15105 -0.00111
C 8.17867 6.53153 0.04892
C 8.58203 23.54007 0.01452
C 7.4074 24.23629 -0.01581
C 7.34943 25.62331 0.02691
C 8.57343 26.30155 -0.01979
C 8.57345 27.67259 0.02188
C 7.3329 28.37753 -0.00316
C 7.31523 29.84874 -0.0331
C 8.53747 30.53664 -0.0258
C 8.5424 31.95954 0.03338
C 7.28836 32.67786 -0.00491
C 4.86478 0.00824 -0.00109
C 6.13052 0.69628 0.03698
C 6.151 2.11508 -0.02213
C 4.84824 2.80785 0.00028
C 4.86823 4.3486 -0.00289
C 6.07008 5.0475 -0.00066
C 6.28237 6.47045 0.00213
C 5.04373 7.14761 -0.05302
C 4.84124 21.37549 -0.04147
C 6.02062 22.1029 -0.02815
C 9.8659 29.78345 0.00364
C 3.60044 31.94783 0.01945
C 21.01532 27.84784 -0.01154
C 19.77213 25.61184 -0.01052
C 33.20099 2.22818 -0.00323
C 31.98939 2.93542 0.00349
C 31.9566 4.30691 -0.03838
C 33.20795 4.99388 0.04926
C 33.26374 6.44662 -0.00069
C 32.03747 7.17349 0.01504
C 32.01957 8.59423 0.02806
C 33.239 9.28121 0.04381
C 33.24535 10.70291 0.00199
C 32.00007 11.42494 0.00137
C 32.03259 12.7749 -0.01839
C 33.15344 13.54769 -0.00644
C 33.07641 14.98486 0.00455
C 33.22299 0.74349 -0.00841
C 31.78031 15.58223 0.00369
C 33.04222 17.80655 0.00594
C 33.12975 26.23166 -0.0136
C 32.91965 27.59744 -0.01429
C 31.6431 28.44955 -0.02383
C 31.88308 29.87476 0.01574
C 33.11388 30.49527 0.01927
C 33.05068 31.95728 0.03794
C 31.86461 32.7655 -0.01779
C 29.46868 0.03044 0.00682
C 30.72895 0.74165 0.00026
C 30.71408 2.2081 0.0544
C 29.49953 2.87843 -0.02142
C 29.50647 4.30084 0.01428
C 32.07456 17.06669 -0.02474
C 31.95971 0.06136 0.0001
C 34.36284 32.65962 -0.02927
C 1.14162 31.93371 -0.01404
C 1.1977 0.73912 -0.00468
C 1.22608 2.18234 -0.00939
C 34.41388 2.93906 -0.00931
C 34.41543 4.34433 -0.0345
C 1.26388 5.00084 0.00628
C 1.2477 6.45261 0.02931
C 0.02268 7.12027 -0.02849
C 0.05262 8.55108 -0.02302
C 1.22011 9.28044 -0.00583
C 1.32598 10.7594 -0.00027
C 0.03359 11.38608 -0.02442
C 34.42181 12.80763 -0.02656
C 1.19012 13.61537 0.00343
C 1.10679 14.82344 -0.02957
C 34.34432 15.65422 0.02114
C 34.43158 17.12852 0.00648
C 1.33009 17.75561 0.01223
C 1.07557 19.16816 -0.01678
C 34.38957 20.09846 0.01951
C 34.35863 21.29817 -0.02213
C 1.17657 21.995 0.02712
C 1.27232 23.38114 0.00723
C 0.03871 23.98428 0.03076
C 34.25819 25.49694 -0.05239
C 1.10146 26.12581 -0.00598
C 0.98585 27.59513 -0.00439
C 34.17884 28.36003 -0.01037
C 34.28944 29.75844 0.01831
C 1.07001 30.53095 0.01027
C 30.70978 4.99669 -0.01694
C 20.86009 26.46474 0.00684
C 30.77773 6.45807 0.01713
C 29.53639 8.50729 0.00307
C 24.46723 4.16756 0.01259
C 25.64189 5.0476 0.01495
C 25.78519 6.48149 0.00235
C 25.92229 9.31402 0.01094
C 25.87868 10.60254 0.02198
C 25.82354 13.73092 0.02611
C 25.47843 14.93734 -0.00621
C 24.42559 29.75059 0.00194
C 25.71466 30.44049 0.04185
C 25.79415 31.90906 0.02316
C 24.59558 32.69232 0.01257
C 22.14729 0.01615 0.00152
C 23.39167 0.71615 -0.00294
C 24.58758 2.83776 0.01799
C 23.38741 2.13218 0.00826
C 22.25204 28.51683 -0.00942
C 22.0828 29.8842 -0.02815
C 23.32805 30.62253 0.00622
C 23.33019 32.06041 -0.0032
C 22.10443 32.66704 -0.00037
C 19.7074 34.07684 -0.01654
C 20.93495 0.75703 -0.00218
C 21.00879 2.14755 -0.00802
C 19.58657 2.63251 0.00195
C 20.22127 18.18887 0.00996
C 19.9731 19.83238 0.04306
C 19.53723 20.97873 0.00367
C 19.57534 24.19015 -0.01679
C 22.23315 2.89422 0.00487
C 25.85701 2.19166 0.01699
C 25.86616 0.73328 -0.00416
C 24.67351 0.00203 0.01177
C 30.7531 9.23192 0.00716
C 30.71695 10.66539 0.02108
C 29.52481 11.36566 0.0103
C 29.57997 12.69401 0.07705
C 30.78748 13.46427 0.01908
C 30.4867 14.81143 0.01518
C 29.48851 29.80058 -0.00971
C 30.64412 30.55603 -0.03735
C 30.68919 32.02578 -0.00944
C 29.4631 32.69146 -0.02155
C 27.08605 34.06672 -0.01461
C 28.24038 0.74059 -0.01303
C 28.24376 2.18957 -0.0405
C 27.00855 2.97397 0.01705
C 26.94174 4.37224 0.0101
C 28.23444 5.03933 -0.00669
C 28.31179 6.42414 0.03531
C 27.06902 7.12218 0.01836
C 27.09365 8.50204 -0.03039
C 28.33293 9.27459 -0.01415
C 28.23012 10.68267 -0.01854
C 27.09438 11.46001 -0.02049
C 27.07619 12.86331 0.03265
C 28.43128 13.49558 0.00261
C 28.60679 14.91531 0.02326
C 27.03233 29.79518 0.00924
C 28.18732 30.47895 0.0014
C 28.28213 31.96108 0.01324
C 27.01251 32.55119 0.04266
C 29.48878 7.09761 0.00346
C 2.37591 32.65215 -0.01454
