396
Graphene
C 0.01373 0.02889 0.01295
C 16.04236 19.16 -0.01789
C 15.93327 13.55015 0.00444
C 14.7178 11.37447 -0.00925
C 16.00234 10.63449 0.01877
C 16.04239 9.26269 0.01363
C 14.7846 8.53344 -0.02162
C 14.69705 7.07255 0.00415
C 15.95022 6.37936 -0.0014
C 15.96012 4.87969 0.02162
C 14.75894 21.27904 0.02894
C 14.79687 4.27793 0.0076
C 16.02094 2.08104 -0.01454
C 16.0118 0.69709 0.01945
C 14.79651 34.0729 0.01416
C 17.18747 32.73052 0.03542
C 18.48429 31.92014 0.02299
C 18.44851 30.45728 0.00244
C 17.16502 29.7861 -0.01717
C 17.2693 28.32707 0.05265
C 18.40076 27.64855 -0.01952
C 14.73244 2.86842 0.01241
C 15.98048 21.97327 -0.02971
C 15.96315 23.48582 0.00165
C 14.69367 24.19639 0.02819
C 12.31535 24.16804 0.01364
C 13.5733 23.49184 -0.01062
C 13.58029 10.68793 -0.00033
C 13.53049 9.24248 0.03589
C 12.26841 8.53608 -0.02759
C 12.30608 7.09789 0.0402
C 13.53388 6.41322 0.00572
C 13.52262 5.05689 0.03592
C 12.27579 4.27641 0.00406
C 12.27421 2.89887 0.00943
C 13.5335 2.08646 0.02841
C 13.54409 0.70067 -0.01111
C 12.32189 0.05623 -0.01275
C 14.83791 32.66322 0.00985
C 15.96816 31.91007 -0.02245
C 15.96594 30.56357 -0.00428
C 14.76686 29.78302 0.03101
C 14.69009 28.37615 -0.01536
C 16.00102 27.6807 -0.02689
C 16.07943 26.29553 -0.01046
C 14.7901 25.59269 -0.00891
C 18.45989 26.26913 -0.02813
C 17.19343 25.63235 0.00374
C 17.18581 24.16368 0.00052
C 18.44003 23.37744 -0.03682
C 19.6785 29.77828 -0.00066
C 19.6868 28.43296 -0.00289
C 20.94068 27.67119 0.00028
C 20.88532 26.28016 -0.02213
C 19.66133 25.58572 0.03698
C 19.69381 24.09162 -0.00109
C 20.95361 23.46737 -0.00491
C 20.9062 21.96916 0.03338
C 19.70122 21.29837 -0.0258
C 19.67051 19.86171 -0.0331
C 20.92009 19.1433 -0.00316
C 20.86323 17.75671 0.02188
C 19.67382 17.01962 -0.01979
C 19.70075 15.59579 0.02691
C 20.9229 14.87693 -0.01581
C 20.8918 13.52181 0.01452
C 19.63377 12.77123 0.04892
C 19.64667 11.36926 -0.00111
C 20.83559 10.68131 -0.03557
C 20.89597 9.26109 0.03754
C 19.66986 8.52217 0.01739
C 20.93442 30.49018 0.00213
C 12.33524 25.57635 -0.00719
C 20.92482 31.97886 -0.05302
C 17.21061 0.0303 -0.02815
C 18.49295 22.02247 0.01965
C 17.2271 21.29655 0.02058
C 17.20293 19.8301 -0.01957
C 18.42632 19.1414 -0.0108
C 18.44089 17.74529 -0.00368
C 17.2724 17.00747 -0.02696
C 17.18726 15.64681 -0.00114
C 18.41147 14.93199 0.00228
C 18.40441 13.50633 0.00798
C 17.16304 12.79462 0.00422
C 17.17016 11.3437 0.0351
C 18.43466 10.65353 -0.03113
C 18.48332 9.1977 0.02098
C 17.20389 8.49391 0.01848
C 17.20482 7.04826 -0.00619
C 18.40507 6.37896 -0.02162
C 18.44758 4.95397 0.00889
C 17.16479 4.24015 -0.00481
C 17.23248 2.81622 0.00979
C 18.50355 2.15692 0.01443
C 18.41427 0.75757 0.03505
C 19.71536 32.64074 -0.04147
C 19.64242 7.1006 0.00755
C 13.53003 26.2934 0.01641
C 12.3103 28.45795 -0.00334
C 3.71243 2.08508 0.01226
C 3.63971 0.74249 -0.00279
C 2.43159 0.02233 0.01996
C 4.89232 32.66548 -0.03996
C 6.15065 31.96481 0.01465
C 6.13978 30.58502 -0.00074
C 4.94555 29.78355 -0.00518
C 4.95702 28.43524 0.0086
C 6.17106 27.71492 -0.00643
C 2.46775 2.8512 0.03828
C 6.07863 26.34438 0.017
C 4.95368 24.15923 -0.02566
C 6.12617 23.41195 -0.00094
C 4.86814 21.27199 0.02322
C 4.92711 11.34038 -0.00725
C 6.13914 10.6283 -0.05697
C 6.20315 9.26587 0.01087
C 4.89554 8.51529 -0.01343
C 4.98729 7.08921 0.00988
C 6.15064 6.39065 0.0276
C 4.86783 25.5412 -0.03113
C 2.42949 4.34899 0.0174
C 3.69757 4.98087 0.0073
C 3.7469 6.37032 0.00402
C 3.66124 30.54186 0.02784
C 2.48889 29.80004 -0.01977
C 2.43305 28.34614 -0.00561
C 3.74925 27.68024 0.00208
C 3.62424 26.24004 0.01707
C 2.44923 25.65455 0.02769
C 2.4539 24.17478 -0.03291
C 3.6829 23.44104 -0.04999
C 3.74146 22.03087 0.04505
C 2.4464 21.21571 0.03284
C 2.49693 19.8628 -0.04307
C 3.69157 19.18817 0.03189
C 2.45587 17.04389 0.00031
C 2.43262 15.66983 -0.003
C 3.61932 13.44476 0.01402
C 2.45196 12.78578 0.02379
C 2.49694 11.38231 0.00907
C 3.69716 10.63382 0.00643
C 3.68489 9.25578 -0.01509
C 2.46864 8.56842 0.03267
C 2.43544 7.10496 0.02374
C 6.19466 4.97773 0.01305
C 4.97393 4.27154 -0.00077
C 4.95051 2.88666 0.03368
C 6.12097 2.02467 -0.02929
C 9.82977 29.81729 0.00895
C 9.80293 28.42939 0.00685
C 11.01961 27.62954 0.02888
C 11.06913 26.25461 -0.00482
C 9.81226 25.57526 -0.01384
C 9.83012 24.14072 0.03693
C 11.0961 23.358 0.01745
C 11.03991 9.2654 0.00488
C 9.80177 8.57554 -0.01004
C 9.85793 7.13796 -0.02896
C 11.05907 6.39906 -0.00131
C 11.07723 4.96667 -0.01118
C 9.85583 4.29225 -0.014
C 9.8162 2.84969 0.02147
C 11.02985 2.18335 0.00373
C 11.1168 0.73126 -0.00191
C 9.87438 0.05743 0.00438
C 12.28695 32.7089 0.01291
C 13.5736 32.00515 0.00093
C 13.49677 30.60817 0.00057
C 12.27963 29.8777 -0.01634
C 11.08786 30.56661 0.00393
C 13.46359 27.70348 0.02339
C 11.08244 31.99718 0.0288
C 7.37959 34.06925 -0.01362
C 6.1569 0.68339 -0.00966
C 4.87121 0.03788 -0.03337
C 7.35529 32.70594 0.01227
C 8.64444 31.9844 0.00873
C 8.55836 30.52755 -0.00049
C 7.33229 29.85562 0.00848
C 7.3913 28.38027 -0.01303
C 8.63533 27.69967 -0.01378
C 8.57172 26.31789 0.02635
C 7.34578 25.60383 0.0127
C 7.42726 24.17411 0.01396
C 8.63395 23.41559 0.01849
C 8.59875 9.25497 -0.01142
C 7.33432 8.50244 -0.00562
C 7.38668 7.07756 -0.00494
C 8.59928 6.41914 0.00054
C 8.52945 4.9579 0.03007
C 7.32915 4.25135 -0.00095
C 7.32845 2.7861 0.01572
C 8.59022 2.17133 -0.04848
C 8.56752 0.70344 -0.00892
C 9.85388 32.72752 -0.0008
C 20.91142 6.35266 -0.0054
C 20.89975 4.96413 0.00667
C 19.6732 4.28093 0.00143
C 30.78315 6.40406 0.01908
C 30.76529 5.02421 0.07705
C 29.49006 4.24403 0.0103
C 29.50588 2.84664 0.02108
C 30.7309 2.12748 0.00716
C 30.6954 0.75065 0.00307
C 29.55073 34.06523 0.00346
C 31.97308 32.61169 0.01713
C 33.25201 31.91734 -0.01694
C 29.51115 7.12383 0.01518
C 33.20096 30.54481 0.01428
C 32.00862 28.39663 0.0544
C 33.20255 27.6927 0.00026
C 33.18837 26.25901 0.00682
C 31.94808 25.58379 -0.01779
C 32.02886 24.1884 0.03794
C 33.22052 23.35219 0.01927
C 33.25063 21.96511 0.01574
C 32.00703 21.3192 -0.02383
C 31.96866 19.92447 -0.01429
C 31.98571 29.76971 -0.02142
C 29.46031 8.53777 -0.00971
C 30.78348 9.19607 -0.03735
C 30.71044 10.59613 -0.00944
C 29.47708 32.68164 0.01177
C 30.72136 31.91395 0.04266
C 30.70485 30.54771 0.01324
C 29.49911 29.81429 0.0014
C 29.53366 28.33275 0.00924
C 30.79205 27.66325 0.02326
C 30.72714 26.28851 0.00261
C 29.56135 25.51841 0.03265
C 29.51234 24.03278 -0.02049
C 30.76832 23.44585 -0.01854
C 30.79193 22.00663 -0.01415
C 29.50547 21.30036 -0.03039
C 29.52834 19.84944 0.01836
C 30.74275 19.17049 0.03531
C 30.73647 17.74653 -0.00669
C 29.52603 17.09429 0.0101
C 29.50405 15.61763 0.01705
C 30.80321 14.96646 -0.0405
C 30.71011 13.5243 -0.01303
C 29.51065 12.79198 -0.01461
C 29.51958 11.34967 -0.02155
C 33.23696 19.21173 -0.0136
C 33.22644 17.75256 0.00594
C 31.9534 17.00473 -0.02474
C 31.99707 15.63589 0.00369
C 1.22524 22.03423 0.02712
C 0.02806 21.35024 -0.02213
C 34.40273 19.81638 0.01951
C 1.18919 19.15044 -0.01678
C 1.22174 17.74329 0.01223
C 0.05554 17.018 0.00648
C 34.37167 15.5804 0.02114
C 1.18065 14.91861 -0.02957
C 1.20493 13.46053 0.00343
C 34.41035 12.75907 -0.02656
C 34.40049 11.30942 -0.02442
C 1.22695 10.73464 -0.00027
C 1.23715 9.27386 -0.00583
C 34.42832 8.5252 -0.02302
C 34.42779 7.088 -0.02849
C 1.17509 6.35062 0.02931
C 1.16214 4.9698 0.00628
C 34.42834 4.24892 -0.0345
C 0.03866 2.78067 -0.00931
C 1.25566 2.12712 -0.00939
C 1.21159 0.74598 -0.00468
C 1.23583 23.47371 0.00723
C 27.04203 0.04317 -0.00416
C 34.40387 24.16032 0.03076
C 1.20687 26.26441 -0.00598
C 33.2119 14.92052 0.00455
C 33.23174 13.47906 -0.00644
C 31.97712 12.78365 -0.01839
C 31.9389 11.31603 0.00137
C 33.16681 10.63651 0.00199
C 33.17377 9.2472 0.04381
C 31.9617 8.58365 0.02806
C 31.97464 7.06921 0.01504
C 33.1947 6.36708 -0.00069
C 33.15437 4.96039 0.04926
C 31.97069 4.29207 -0.03838
C 32.01414 2.85781 0.00349
C 33.13813 2.06476 -0.00323
C 33.17153 0.68677 -0.00841
C 31.98334 34.07691 0.0001
C 34.42318 32.61812 -0.02927
C 1.21243 31.97667 -0.01404
C 1.25536 30.49371 0.01027
C 0.00955 29.81508 0.01831
C 0.03547 28.42602 -0.01037
C 1.20708 27.65966 -0.00439
C 0.009 25.52698 -0.05239
C 28.26943 0.68089 0.01699
C 28.25501 2.11184 0.01799
C 27.06989 2.85265 0.01259
C 23.40604 10.63079 -0.00478
C 23.33996 9.26175 -0.01662
C 22.05805 8.51114 -0.01185
C 22.09186 7.06174 0.01126
C 23.36161 6.31045 0.01852
C 23.32597 4.9643 -0.00381
C 22.17322 4.23722 0.03046
C 22.16708 2.83734 0.0296
C 23.28114 2.12378 0.03374
C 23.305 0.64863 -0.02845
C 22.14508 34.06543 -0.03213
C 24.61071 32.67474 0.02239
C 25.87087 31.89838 0.01153
C 25.84342 30.47272 0.02734
C 24.61084 29.80116 -0.0055
C 24.58055 28.40982 0.01515
C 25.82972 27.64209 -0.00225
C 25.76926 26.26078 0.00071
C 24.56729 25.57584 -0.01107
C 24.64316 24.08443 -0.01586
C 25.90257 23.40153 -0.01971
C 22.09813 11.31156 0.01511
C 25.79998 21.99401 -0.02118
C 22.14519 12.76675 0.00199
C 23.35205 14.88086 -0.01527
C 19.72535 2.85795 -0.017
C 20.89155 2.14505 0.00364
C 20.9228 0.7431 -0.00831
C 19.7192 0.00825 -0.02957
C 22.18624 32.68298 -0.04422
C 23.39749 32.0069 0.00654
C 23.36437 30.5556 -0.00703
C 22.17853 29.74915 -0.04076
C 22.1553 28.4044 -0.00652
C 23.39799 27.7058 0.0058
C 23.33925 26.32078 -0.00865
C 22.11717 25.56218 0.00675
C 22.13928 24.16415 -0.00311
C 23.34458 23.44836 0.00742
C 23.36844 21.97453 -0.01594
C 22.1751 21.31037 0.0106
C 22.11019 19.94878 -0.01154
C 23.34238 19.13349 -0.01721
C 23.36692 17.79419 -0.02422
C 22.16617 17.02896 0.01277
C 22.16865 15.5792 0.00096
C 23.31265 13.43768 0.01087
C 3.7283 31.95364 -0.01979
C 24.56428 21.25804 0.00733
C 25.92922 19.20704 0.00768
C 27.02556 25.6132 -0.00218
C 27.06122 24.14357 -0.01654
C 28.28809 23.39779 -0.00037
C 28.21377 22.01812 -0.0032
C 26.97726 21.30637 0.00622
C 27.0228 19.86694 -0.02815
C 28.25676 19.1536 -0.00942
C 28.29571 17.70679 0.00487
C 26.95535 17.00425 0.00826
C 27.03557 15.63268 -0.00294
C 28.24712 14.92071 0.00152
C 28.24862 13.4663 0.01257
C 27.01186 12.79136 0.02316
C 27.0528 11.35239 0.04185
C 28.29124 10.63913 0.00194
C 28.26678 9.24839 -0.00621
C 27.07036 8.44668 0.02611
C 27.08108 7.09068 0.02198
C 28.29404 6.36279 0.01094
C 28.29198 4.96611 0.00235
C 27.12851 4.32591 0.01495
C 28.29855 26.28145 -0.00802
C 24.5503 19.80193 -0.00178
C 28.27447 27.66583 0.00195
C 27.05701 29.85814 0.04306
C 25.77635 17.78904 -0.0276
C 24.58613 17.03505 0.03005
C 24.61811 15.64475 -0.04078
C 25.83952 14.93451 0.02117
C 25.8217 13.51815 0.02737
C 24.59596 12.75429 -0.00498
C 24.6004 11.40939 0.00135
C 25.83122 10.64233 0.03102
C 25.78261 9.19327 0.02555
C 24.55315 8.49514 0.01423
C 24.59427 7.05957 -0.00285
C 25.80531 6.37281 -0.009
C 25.84532 4.95496 -0.01199
C 24.60616 4.25358 -0.00229
C 24.59367 2.90597 -0.00938
C 25.86424 2.17616 -0.0264
C 25.80099 0.7259 -0.01154
C 24.60364 34.06849 0.00684
C 27.06373 32.65306 -0.01052
C 28.3039 31.98955 -0.01679
C 28.30103 30.51559 0.00367
C 27.03259 28.36279 0.00996
C 2.54771 32.65673 -0.00449
