356
Graphene
C 34.3531 0.07682 0.01295
C 17.22213 24.24197 -0.0108
C 18.42456 23.48727 -0.00368
C 18.48006 22.01394 -0.02696
C 17.1979 21.3989 -0.00114
C 17.16536 19.97215 0.00228
C 18.34244 19.10279 0.00798
C 18.31964 17.70263 0.00422
C 16.94788 16.90771 0.0351
C 17.18042 25.62368 -0.01957
C 17.22462 15.62875 -0.03113
C 18.41542 13.38662 0.01848
C 18.51899 10.74043 -0.00619
C 18.41813 9.35712 -0.02162
C 17.30538 8.46559 0.00889
C 17.12289 7.1405 -0.00481
C 18.2869 6.37172 0.00979
C 18.42606 5.01477 0.01443
C 17.17744 4.20781 0.03505
C 18.39319 14.86859 0.02098
C 17.14385 2.79774 -0.02815
C 18.44817 26.26666 0.02058
C 17.19251 28.35489 -0.03682
C 14.78509 24.10694 -0.02162
C 15.97641 23.51693 0.00415
C 16.0551 22.14246 -0.0014
C 14.84947 21.31327 0.02162
C 14.89013 20.08302 0.0076
C 16.00333 19.21322 0.01241
C 15.98917 17.78261 -0.01454
C 15.90401 6.3278 0.01945
C 18.40379 27.69515 0.01965
C 15.98267 4.98959 0.01416
C 14.73758 2.83447 0.02299
C 15.9353 2.07553 0.00244
C 16.00748 0.64499 -0.01717
C 14.81484 34.07893 0.05265
C 17.16281 32.5542 -0.01952
C 18.45884 31.94289 -0.02813
C 18.42934 30.50323 0.00374
C 17.19296 29.76926 0.00052
C 14.7318 4.29158 0.03542
C 18.39358 2.15466 -0.04147
C 18.42603 0.69006 -0.05302
C 17.21197 34.00837 0.00213
C 19.62876 8.54258 0.00667
C 19.56927 7.0331 0.00143
C 20.79798 6.33464 -0.017
C 20.77596 4.96065 0.00364
C 19.57841 4.20301 -0.00831
C 19.62298 2.79968 -0.02957
C 20.85099 2.09315 -0.04422
C 20.94646 0.69938 0.00654
C 20.93386 9.23613 -0.0054
C 19.69713 34.07415 -0.00703
C 23.37292 31.95678 -0.00652
C 23.32896 30.55208 0.0058
C 22.06605 29.837 -0.00865
C 22.19303 28.48371 0.00675
C 23.35201 27.71078 -0.00311
C 23.35938 26.2778 0.00742
C 22.12349 25.56599 -0.01594
C 22.10308 24.13886 0.0106
C 22.1045 32.6522 -0.04076
C 20.93441 10.60577 0.00755
C 19.78183 11.31767 0.01739
C 19.74334 12.75393 0.03754
C 19.69546 32.65663 -0.00066
C 20.86745 31.89822 -0.00289
C 20.89956 30.49448 0.00028
C 19.64635 29.79614 -0.02213
C 19.62631 28.3861 0.03698
C 20.93387 27.72113 -0.00109
C 20.8921 26.31128 -0.00491
C 19.64534 25.59512 0.03338
C 19.68028 24.16925 -0.0258
C 20.8616 23.42623 -0.0331
C 20.88449 22.04223 -0.00316
C 19.6792 21.30123 0.02188
C 19.63408 19.84557 -0.01979
C 20.86967 19.17062 0.02691
C 20.82087 17.70489 -0.01581
C 19.61152 17.00117 0.01452
C 19.62959 15.5841 0.04892
C 20.89754 14.92231 -0.00111
C 20.90997 13.47214 -0.03557
C 14.6414 25.5319 0.01363
C 23.35656 23.48337 -0.01154
C 15.89816 26.22609 0.01877
C 14.69631 28.32484 0.00444
C 6.15975 31.87532 -0.00562
C 6.17479 30.32628 -0.00494
C 4.92 29.71081 0.00054
C 6.61414 17.61371 0.03007
C 5.22091 17.28092 -0.00095
C 4.57995 16.05785 0.01572
C 4.94076 12.63744 -0.04848
C 4.78896 11.47103 -0.00892
C 4.93432 32.63579 -0.01142
C 4.92152 8.53792 -0.01362
C 6.07601 6.42279 0.0288
C 6.15195 5.0323 0.00393
C 4.86387 4.29889 0.00895
C 4.85963 2.87908 0.00685
C 6.15963 2.16791 0.02888
C 6.13046 0.7676 -0.00482
C 4.88325 0.01648 -0.01384
C 7.33223 32.71196 0.03693
C 4.86919 7.16708 -0.0008
C 8.5599 32.11849 0.01745
C 2.4536 0.09851 0.01849
C 3.63617 2.15561 0.0127
C 3.67097 30.48903 -0.05697
C 2.43407 29.82284 0.01087
C 2.15318 28.46662 -0.01343
C 3.81137 17.3139 0.00988
C 2.48942 16.91298 0.0276
C 2.454 15.55373 0.01305
C 3.68823 14.99805 -0.00077
C 3.80668 13.58475 0.03368
C 3.67156 0.74792 0.01396
C 2.5679 12.7883 -0.02929
C 3.6023 10.54958 -0.03337
C 3.68763 9.16017 0.01227
C 2.51794 8.5214 0.00873
C 2.46417 7.11394 -0.00049
C 3.65426 6.46156 0.00848
C 3.68495 5.06187 -0.01303
C 2.41386 4.31168 -0.01378
C 2.39731 2.84234 0.02635
C 2.51387 11.37929 -0.00966
C 8.62775 30.77046 0.00488
C 7.48001 29.92259 -0.01004
C 7.60554 16.76076 -0.02896
C 13.51375 30.48715 0.00406
C 12.24328 29.81214 0.00943
C 12.16494 28.44066 0.02841
C 13.37088 27.6771 -0.01111
C 13.34138 26.2796 -0.01275
C 12.04042 25.5207 0.00985
C 12.45927 24.13078 -0.02245
C 13.5449 23.38295 -0.00428
C 13.58569 31.95807 0.03592
C 13.55964 5.01339 0.03101
C 12.3293 2.93034 -0.02689
C 13.53826 2.18877 -0.01046
C 13.59208 0.68524 -0.00891
C 12.35352 0.0412 0.02819
C 14.83771 32.64469 0.00165
C 16.03027 31.87035 -0.02971
C 15.99242 30.43544 0.02894
C 14.73554 29.78994 -0.01789
C 12.35271 4.4926 -0.01536
C 12.37916 32.67794 0.00572
C 9.85139 0.12416 0.0402
C 11.10273 0.77741 -0.02759
C 7.36105 7.05757 -0.00131
C 8.47757 6.43526 -0.01118
C 8.62333 5.00908 -0.014
C 7.3914 4.34928 0.02147
C 7.39987 2.93675 0.00373
C 8.59477 2.17038 -0.00191
C 8.63265 0.72772 0.00438
C 7.31549 0.04318 0.01291
C 9.84014 32.78095 0.00093
C 11.09986 32.10313 0.00057
C 11.1109 30.70948 -0.01634
C 9.92716 30.0188 -0.00334
C 9.73804 28.64177 0.02339
C 10.85054 27.78502 0.01641
C 11.05148 26.42604 -0.00719
C 11.04094 4.92123 0.01364
C 9.8808 4.281 -0.01062
C 9.83109 2.82542 -0.00033
C 11.13219 2.23351 0.03589
C 15.91512 27.6342 -0.00925
C 23.3093 22.02623 -0.01721
C 22.11967 21.28207 -0.02422
C 22.07061 19.8597 0.01277
C 30.71096 2.19984 0.01713
C 30.718 0.7471 -0.01694
C 29.49725 0.00552 0.01428
C 31.99102 32.6594 -0.02142
C 33.26145 31.99836 0.0544
C 33.22896 30.57811 0.00026
C 31.97665 29.83728 0.00682
C 32.00425 28.40681 -0.01779
C 29.51326 2.88883 0.00346
C 33.21256 27.67696 0.03794
C 32.04744 25.56291 0.01574
C 31.9681 24.17805 -0.02383
C 33.16164 23.46046 -0.01429
C 33.14452 22.06934 -0.0136
C 31.88628 21.33101 0.00594
C 31.91063 19.90416 -0.02474
C 33.19721 19.2284 0.00369
C 33.14784 17.77285 0.00455
C 33.23506 26.25278 0.01927
C 31.94431 16.99806 -0.00644
C 29.52277 4.30672 0.00307
C 30.80742 6.38107 0.02108
C 29.4402 25.5985 -0.01415
C 29.40037 24.15584 -0.03039
C 30.6845 23.41257 0.01836
C 30.62381 21.99542 0.03531
C 29.43402 21.32467 -0.00669
C 29.40548 19.94746 0.0101
C 30.67258 19.17208 0.01705
C 30.68216 17.72885 -0.0405
C 30.69245 4.97117 0.00716
C 29.42578 17.01086 -0.01303
C 30.74643 14.92643 -0.02155
C 30.71307 13.41706 -0.00944
C 29.47296 12.7234 -0.03735
C 29.50374 11.26963 -0.00971
C 30.81244 10.59578 0.01518
C 30.80036 9.20599 0.01908
C 29.52195 8.49907 0.07705
C 29.51608 7.03006 0.0103
C 29.46996 15.62073 -0.01461
C 31.94645 15.59193 -0.01839
C 33.1917 14.8777 0.00137
C 33.1753 13.49501 0.00199
C 1.08396 19.07142 -0.01678
C 1.30231 17.62815 0.01223
C 34.39657 17.02707 0.00648
C 34.37332 15.65824 0.02114
C 1.20297 14.9547 -0.02957
C 1.26944 13.55839 0.00343
C 0.01633 12.78227 -0.02656
C 0.02466 11.36035 -0.02442
C 0.10881 19.98434 0.01951
C 1.26554 10.70235 -0.00027
C 0.04141 8.51241 -0.02302
C 34.4081 7.12465 -0.02849
C 1.18752 6.4279 0.02931
C 1.21944 5.04268 0.00628
C 34.38423 4.2687 -0.0345
C 34.31809 2.90159 -0.00931
C 1.09519 2.17208 -0.00939
C 1.19276 0.73156 -0.00468
C 1.27435 9.21373 -0.00583
C 34.26607 21.33878 -0.02213
C 34.18359 24.26353 0.02712
C 34.36684 25.58052 0.00723
C 31.97356 12.77385 0.04381
C 32.05377 11.30935 0.02806
C 33.25187 10.63827 0.01504
C 33.25569 9.20651 -0.00069
C 32.04206 8.51385 0.04926
C 31.98815 7.08302 -0.03838
C 33.22857 6.42899 0.00349
C 33.11754 4.96476 -0.00323
C 31.90408 4.23647 -0.00841
C 31.93734 2.864 0.0001
C 33.13397 2.16909 -0.02927
C 33.15026 0.78054 -0.01404
C 31.9573 0.04906 0.01027
C 34.43159 32.72196 0.01831
C 1.22145 32.02633 -0.01037
C 1.22354 30.49752 -0.00439
C 34.42259 29.81546 -0.00598
C 34.37997 28.42987 -0.05239
C 1.11396 27.64636 0.03076
C 30.78093 26.3003 -0.01854
C 30.78069 27.67051 -0.02049
C 29.56271 28.43708 0.03265
C 29.54666 29.90059 0.00261
C 24.6013 28.39371 -0.01107
C 25.8226 27.65839 -0.01586
C 25.83242 26.30898 -0.01971
C 24.58658 25.61828 -0.02118
C 24.5808 24.20934 0.00733
C 25.82565 23.4701 -0.00178
C 25.73718 22.06597 0.00768
C 24.57015 21.33468 -0.0276
C 24.5939 29.84949 0.00071
C 24.58322 19.91439 0.03005
C 25.76853 17.73233 0.02117
C 24.57791 16.96282 0.02737
C 24.57281 15.56705 -0.00498
C 25.81824 14.93311 0.00135
C 25.82765 13.43352 0.03102
C 24.53588 12.70204 0.02555
C 24.5714 11.30407 0.01423
C 25.85467 10.52521 -0.00285
C 25.76814 19.15859 -0.04078
C 25.90234 30.57429 -0.00225
C 25.8779 31.9638 0.01515
C 24.59828 32.68125 -0.0055
C 23.33722 19.1608 0.00096
C 23.29878 17.73725 -0.01527
C 22.09173 17.00849 0.01087
C 22.07569 15.60377 0.00199
C 23.26596 14.87611 0.01511
C 23.31927 13.46433 -0.00478
C 22.11146 12.74768 -0.01662
C 22.11074 11.35773 -0.01185
C 23.34079 10.58773 0.01126
C 23.33914 9.21048 0.01852
C 22.14596 8.53985 -0.00381
C 22.04278 7.11659 0.03046
C 23.30885 6.41685 0.0296
C 23.2934 4.99191 0.03374
C 22.05585 4.27003 -0.02845
C 22.06138 2.78895 -0.03213
C 23.31366 2.17308 0.02239
C 23.4013 0.66108 0.01153
C 22.10122 34.06301 0.02734
C 25.81327 9.15405 -0.009
C 3.64756 31.90441 -0.00725
C 24.5637 8.41942 -0.01199
C 25.8379 6.3208 -0.00938
C 28.2453 14.88061 0.04185
C 28.23692 13.43205 0.00194
C 27.01265 12.6868 -0.00621
C 27.10221 11.28155 0.02611
C 28.26265 10.60159 0.02198
C 28.32777 9.23837 0.01094
C 27.0897 8.48735 0.00235
C 27.0419 7.05314 0.01495
C 27.00378 15.60517 0.02316
C 28.29748 6.38961 0.01259
C 27.08244 4.28266 0.01699
C 27.02862 2.87403 -0.00416
C 28.28043 2.21235 0.01177
C 28.25108 0.72253 0.04266
C 27.00729 34.06843 0.01324
C 29.52043 32.61532 0.0014
C 30.76166 31.90931 0.00924
C 30.8222 30.52408 0.02326
C 28.27946 5.01616 0.01799
C 27.03692 17.05981 0.01257
C 28.23898 17.74134 0.00152
C 28.25974 19.1886 -0.00294
C 25.77585 4.8919 -0.0264
C 24.57698 4.23648 -0.01154
C 24.50757 2.81874 0.00684
C 25.77608 2.15581 -0.01052
C 25.84144 0.7574 -0.01679
C 24.6078 0.02353 0.00367
C 27.11761 32.6721 0.04306
C 28.2865 31.92001 0.00996
C 28.36574 30.53392 0.00195
C 27.13304 29.81889 -0.00802
C 27.09998 28.44438 -0.00218
C 28.26987 27.70616 -0.01654
C 28.26808 26.26459 -0.00037
C 27.02641 25.62213 -0.0032
C 27.00264 24.21539 0.00622
C 28.13645 23.41942 -0.02815
C 28.19863 22.02933 -0.00942
C 26.97029 21.35864 0.00487
C 27.03721 19.91783 0.00826
C 24.51338 7.09003 -0.00229
C 2.40226 32.68837 0.02322
