388
Graphene
C 34.37378 0.00489 0.01295
C 13.49082 32.01368 -0.02162
C 13.55789 30.59889 0.00415
C 12.36311 29.90825 -0.0014
C 12.33987 28.42848 0.02162
C 13.54776 27.71792 0.0076
C 13.4885 26.30657 0.01241
C 12.2798 25.57657 -0.01454
C 12.27954 24.20802 0.01945
C 13.47547 23.41618 0.01416
C 12.29083 32.77394 0.01363
C 13.63393 21.98513 0.03542
C 12.29101 19.8194 0.00244
C 12.32912 16.83967 -0.01717
C 12.49365 15.43813 0.05265
C 12.83983 13.83533 -0.01952
C 13.30123 8.80798 -0.02813
C 12.4428 7.1238 0.00374
C 13.4858 6.2239 0.00052
C 13.55747 4.84846 -0.03682
C 12.21357 4.31079 0.01965
C 12.52908 21.16366 0.02299
C 12.28352 2.81746 0.02058
C 9.75807 0.05605 0.01877
C 10.99949 2.15235 0.00444
C 9.88731 28.41371 0.00572
C 11.07812 27.72186 0.03592
C 11.04517 26.29956 0.00406
C 9.78955 25.62692 0.00943
C 9.73912 24.24952 0.02841
C 11.0348 23.39881 -0.01111
C 11.10951 21.94272 -0.01275
C 9.86453 21.23601 0.00985
C 9.91903 19.80474 -0.02245
C 11.03978 0.72082 -0.00925
C 11.1246 19.12861 -0.00428
C 9.94204 16.95372 -0.01536
C 9.99562 15.56587 -0.02689
C 11.13755 14.85088 -0.01046
C 11.28831 13.38994 -0.00891
C 9.80228 7.20855 0.02819
C 11.08709 6.5914 0.00165
C 11.02164 5.10517 -0.02971
C 9.78531 4.35695 0.02894
C 9.83827 2.89616 -0.01789
C 11.15061 17.75875 0.03101
C 13.46819 2.05109 -0.01957
C 13.44743 0.69497 -0.0108
C 12.27527 0.02523 -0.00368
C 17.16882 29.7884 -0.00109
C 17.27075 28.40207 -0.00491
C 18.39481 27.59256 0.03338
C 18.48048 26.14642 -0.0258
C 17.2286 25.43752 -0.0331
C 17.10573 23.93587 -0.00316
C 18.41018 23.49578 0.02188
C 18.80557 10.67337 -0.01979
C 18.42679 9.34596 0.02691
C 18.38859 30.53721 0.03698
C 17.19952 8.61056 -0.01581
C 18.39116 6.36361 0.04892
C 18.36845 4.99685 -0.00111
C 17.19297 4.19361 -0.03557
C 17.27433 2.80071 0.03754
C 18.46454 2.09237 0.01739
C 18.4444 0.7534 0.00755
C 17.24007 34.07889 -0.0054
C 19.62702 32.67683 0.00667
C 20.86156 31.98776 0.00143
C 17.17439 7.13341 0.01452
C 18.37431 31.94805 -0.02213
C 17.20631 32.63998 0.00028
C 14.73936 0.01322 -0.00289
C 14.70349 32.6718 -0.02696
C 15.90084 31.93107 -0.00114
C 15.99668 30.53858 0.00228
C 14.7969 29.81394 0.00798
C 14.7427 28.41677 0.00422
C 16.03568 27.71669 0.0351
C 15.98292 26.20062 -0.03113
C 14.68926 25.59833 0.02098
C 14.70078 24.18578 0.01848
C 15.88224 23.48395 -0.00619
C 14.71626 11.63199 -0.02162
C 15.64253 10.62801 0.00889
C 15.89944 9.24629 -0.00481
C 14.66826 8.35747 0.00979
C 14.81526 6.95991 0.01443
C 15.99153 6.30515 0.03505
C 15.98418 4.88488 -0.02815
C 14.72724 4.17998 -0.04147
C 14.77338 2.7264 -0.05302
C 16.0141 2.05278 0.00213
C 16.00325 0.67086 -0.00066
C 9.84903 29.85257 0.0402
C 20.8348 30.59342 -0.017
C 11.05898 30.58974 -0.02759
C 9.86619 32.7217 -0.00033
C 3.65399 5.01554 0.0086
C 2.3921 4.32382 -0.00643
C 2.38888 2.85533 0.017
C 3.6494 2.1807 -0.03113
C 3.64771 0.75843 -0.02566
C 2.3495 0.02716 -0.00094
C 4.86437 32.74873 0.02322
C 6.13395 32.02503 -0.00725
C 6.18309 30.6546 -0.05697
C 3.64891 6.47808 -0.00518
C 4.93823 29.95981 0.01087
C 6.09112 27.74549 0.00988
C 6.09881 26.32032 0.0276
C 4.87526 25.61686 0.01305
C 4.82987 24.16207 -0.00077
C 6.11324 23.50393 0.03368
C 6.18752 22.0444 -0.02929
C 4.94435 21.37075 -0.00966
C 4.9795 20.0039 -0.03337
C 6.17811 19.17645 0.01227
C 4.89707 28.4503 -0.01343
C 6.15593 17.73458 0.00873
C 2.39648 7.16945 -0.00074
C 3.57427 9.24964 -0.03996
C 3.70782 30.6016 0.04505
C 2.48998 29.8365 0.03284
C 2.48325 28.436 -0.04307
C 3.66511 27.70896 0.03189
C 3.62137 26.31322 0.00031
C 2.4538 25.61767 -0.003
C 2.43323 24.1314 0.01402
C 3.67416 23.41893 0.02379
C 3.66274 22.01004 0.00907
C 2.36041 8.53831 0.01465
C 2.48546 21.28813 0.00643
C 3.7461 19.20236 0.03267
C 3.67279 17.81428 0.02374
C 2.48589 17.04231 0.00402
C 2.41428 15.58802 0.0073
C 3.65214 14.9542 0.0174
C 3.61551 13.49744 0.03828
C 2.40013 12.78308 0.01226
C 2.38141 11.37206 -0.00279
C 3.64156 10.59837 0.01996
C 2.49239 19.95738 -0.01509
C 4.85359 17.03374 -0.00049
C 4.8918 15.56742 0.00848
C 6.19311 14.84807 -0.01303
C 7.4061 21.35027 0.00488
C 7.46184 19.88908 -0.01004
C 8.70001 19.12694 -0.02896
C 8.71422 17.7334 -0.00131
C 7.39256 17.0133 -0.01118
C 7.36634 15.5546 -0.014
C 8.72662 14.92054 0.02147
C 8.70168 13.54255 0.00373
C 7.56365 12.70412 -0.00191
C 8.59413 22.09463 0.01745
C 7.42445 11.26282 0.00438
C 7.38572 8.61296 0.00093
C 7.35347 7.18667 0.00057
C 8.56331 6.47345 -0.01634
C 8.51826 5.04786 -0.00334
C 7.29468 4.36374 0.02339
C 7.3179 2.92986 0.01641
C 8.53523 2.2217 -0.00719
C 8.55115 0.76405 0.01364
C 7.36255 0.07188 -0.01062
C 8.53244 9.3995 0.01291
C 8.56982 23.57075 0.03693
C 7.28434 24.20323 -0.01384
C 7.42824 25.61723 -0.00482
C 6.16305 13.46235 -0.01378
C 4.89575 12.76632 0.02635
C 4.87749 11.38592 0.0127
C 6.08463 10.68499 0.01396
C 6.08808 9.32406 0.01849
C 4.86011 8.57387 -0.01142
C 4.82685 7.1631 -0.00562
C 6.09965 6.49765 -0.00494
C 6.10398 5.11773 0.00054
C 4.898 4.40431 0.03007
C 4.87508 2.9259 -0.00095
C 6.09141 2.23152 0.01572
C 6.12323 0.80695 -0.04848
C 4.95411 0.07276 -0.00892
C 7.37949 32.7171 -0.01362
C 8.62584 32.04545 -0.0008
C 8.63133 30.61373 0.0288
C 7.37254 29.9217 0.00393
C 7.42241 28.46225 0.00895
C 8.6666 27.78633 0.00685
C 8.592 26.34426 0.02888
C 11.10053 32.04291 0.03589
C 19.60718 29.81287 0.00364
C 19.6506 28.35611 -0.00831
C 20.87621 27.6524 -0.02957
C 30.6679 4.99057 0.07705
C 29.4428 4.22885 0.0103
C 29.43891 2.84797 0.02108
C 30.67995 2.15818 0.00716
C 30.73981 0.7199 0.00307
C 29.52787 34.00998 0.00346
C 31.92297 32.64985 0.01713
C 33.18751 31.8876 -0.01694
C 33.17531 30.41653 0.01428
C 30.6764 6.41064 0.01908
C 31.96493 29.72657 -0.02142
C 33.22005 27.65367 0.00026
C 33.17591 26.19267 0.00682
C 31.97399 25.43638 -0.01779
C 31.87044 24.09798 0.03794
C 33.09943 23.41804 0.01927
C 33.18127 22.02622 0.01574
C 32.00537 21.2999 -0.02383
C 32.04221 19.88851 -0.01429
C 33.28043 19.18137 -0.0136
C 31.97676 28.30952 0.0544
C 33.23559 17.73436 0.00594
C 29.53638 7.15318 0.01518
C 30.66354 9.36804 -0.03735
C 30.74765 30.47092 0.01324
C 29.48076 29.81 0.0014
C 29.50297 28.30467 0.00924
C 30.72007 27.60018 0.02326
C 30.79268 26.2409 0.00261
C 29.5424 25.52744 0.03265
C 29.54235 24.1404 -0.02049
C 30.68289 23.42857 -0.01854
C 30.68457 22.02202 -0.01415
C 29.44261 8.58179 -0.00971
C 29.55673 21.28175 -0.03039
C 30.86071 19.18814 0.03531
C 30.76452 17.74745 -0.00669
C 29.53828 17.03946 0.0101
C 29.42946 15.60926 0.01705
C 30.68307 14.96053 -0.0405
C 30.63539 13.53235 -0.01303
C 29.36303 12.81507 -0.01461
C 29.43254 11.40944 -0.02155
C 30.6749 10.71552 -0.00944
C 29.60599 19.82755 0.01836
C 31.99958 17.10415 -0.02474
C 31.94593 15.60964 0.00369
C 33.21447 14.99314 0.00455
C 34.42118 21.30976 -0.02213
C 0.04332 19.93538 0.01951
C 1.3262 19.2824 -0.01678
C 1.29598 17.81956 0.01223
C 0.09422 17.10872 0.00648
C 34.4252 15.66636 0.02114
C 1.19758 14.92307 -0.02957
C 1.19113 13.52822 0.00343
C 34.37761 12.82973 -0.02656
C 1.2486 21.98925 0.02712
C 34.42243 11.40474 -0.02442
C 1.13119 9.17475 -0.00583
C 34.32544 8.535 -0.02302
C 34.31866 7.09403 -0.02849
C 1.18611 6.49384 0.02931
C 1.16922 5.01136 0.00628
C 34.3804 4.31038 -0.0345
C 34.37556 2.88342 -0.00931
C 1.17155 2.20614 -0.00939
C 1.1577 0.76147 -0.00468
C 1.15043 10.63164 -0.00027
C 1.23866 23.43809 0.00723
C 34.37927 24.08743 0.03076
C 34.39763 25.50343 -0.05239
C 33.20266 13.59036 -0.00644
C 31.88251 12.89434 -0.01839
C 31.91628 11.38145 0.00137
C 33.12659 10.69123 0.00199
C 33.13239 9.26219 0.04381
C 31.90544 8.5928 0.02806
C 31.86632 7.17699 0.01504
C 33.08585 6.42328 -0.00069
C 33.10691 4.99462 0.04926
C 31.86315 4.31144 -0.03838
C 31.92386 2.94673 0.00349
C 33.12828 2.15818 -0.00323
C 33.15335 0.73617 -0.00841
C 31.95752 0.03541 0.0001
C 34.37676 32.66054 -0.02927
C 1.17018 31.95488 -0.01404
C 1.20936 30.51442 0.01027
C 0.00273 29.75806 0.01831
C 0.03188 28.36003 -0.01037
C 1.32771 27.6732 -0.00439
C 1.1933 26.29114 -0.00598
C 30.74709 31.88851 0.04266
C 29.45978 32.60166 0.01177
C 27.10125 0.04765 -0.00416
C 28.31884 0.74795 0.01699
C 23.41469 22.11509 0.01852
C 21.98492 11.14703 -0.00381
C 23.3095 10.59071 0.03046
C 23.35711 9.21323 0.0296
C 22.13906 8.52818 0.03374
C 22.15007 7.14488 -0.02845
C 23.3337 6.33414 -0.03213
C 23.35039 5.02349 0.02239
C 22.14902 4.28291 0.01153
C 23.40921 23.45751 0.01126
C 22.13556 2.82355 0.02734
C 23.35944 0.74348 0.01515
C 22.15717 0.01343 -0.00225
C 24.53721 32.63611 0.00071
C 25.82739 31.92508 -0.01107
C 25.74808 30.42936 -0.01586
C 24.52016 29.77048 -0.01971
C 24.54328 28.31745 -0.02118
C 25.79794 27.66824 0.00733
C 25.7989 26.22058 -0.00178
C 23.36522 2.12426 -0.0055
C 22.09971 24.1426 -0.01185
C 22.1149 25.54916 -0.01662
C 23.3777 26.25076 -0.00478
C 20.84129 26.2058 -0.04422
C 19.66599 25.44493 0.00654
C 19.67113 23.91839 -0.00703
C 20.9843 23.18056 -0.04076
C 20.82968 10.5969 -0.00652
C 20.88468 9.14088 0.0058
C 19.58654 8.47436 -0.00865
C 19.65618 7.10178 0.00675
C 20.88674 6.38161 -0.00311
C 20.90375 4.95924 0.00742
C 19.64768 4.23413 -0.01594
C 19.68046 2.80791 0.0106
C 20.94848 2.1539 -0.01154
C 20.88873 0.7302 -0.01721
C 19.66462 34.05397 -0.02422
C 22.08218 32.67798 0.01277
C 23.2523 31.91425 0.00096
C 23.26711 30.5306 -0.01527
C 22.04624 29.85895 0.01087
C 22.08565 28.47606 0.00199
C 23.29569 27.68279 0.01511
C 24.5945 25.48838 0.00768
C 3.68816 32.01455 -0.04999
C 24.60048 24.16187 -0.0276
C 25.80136 22.00164 -0.04078
C 28.2914 26.243 -0.0032
C 26.9791 25.50882 0.00622
C 27.025 24.08087 -0.02815
C 28.27439 23.44054 -0.00942
C 28.35363 22.02079 0.00487
C 27.0342 21.28691 0.00826
C 27.06546 19.8483 -0.00294
C 28.35981 19.1507 0.00152
C 28.42995 17.74703 0.01257
C 28.23144 27.59689 -0.00037
C 27.14096 17.06673 0.02316
C 28.16081 14.88395 0.00194
C 28.15006 13.48812 -0.00621
C 26.90064 12.8333 0.02611
C 26.98809 11.39675 0.02198
C 28.20634 10.68086 0.01094
C 28.22171 9.27276 0.00235
C 27.00174 8.45526 0.01495
C 27.05985 7.03116 0.01259
C 28.32881 6.38343 0.01799
C 26.97559 15.59976 0.04185
C 27.01306 28.33356 -0.01654
C 26.98945 29.77662 -0.00218
C 28.22218 30.46213 -0.00802
C 24.4823 21.29006 0.02117
C 24.53385 19.89472 0.02737
C 25.83832 19.25987 -0.00498
C 26.0479 17.84218 0.00135
C 25.7789 14.92837 0.03102
C 25.57483 13.50922 0.02555
C 24.44966 12.71593 0.01423
C 24.52098 11.312 -0.00285
C 25.73877 10.62141 -0.009
C 25.82481 9.13565 -0.01199
C 24.57123 8.49508 -0.00229
C 24.58778 7.00553 -0.00938
C 25.82806 6.32105 -0.0264
C 25.76509 4.86907 -0.01154
C 24.52294 4.25482 0.00684
C 24.54565 2.79166 -0.01052
C 25.74717 2.08914 -0.01679
C 25.82143 0.74712 0.00367
C 24.64325 34.06852 0.04306
C 27.06743 32.67097 0.00996
C 28.25839 31.90171 0.00195
C 25.77797 23.39799 0.03005
C 2.42833 32.66306 -0.03291
