371
Graphene
C 34.35078 34.05379 0.01295
C 14.73447 32.67892 -0.01717
C 15.9419 31.98445 0.05265
C 16.05382 30.52751 -0.01952
C 14.79409 29.83608 -0.02813
C 14.76511 28.45178 0.00374
C 15.94311 27.70153 0.00052
C 15.92718 26.29453 -0.03682
C 14.75129 25.64865 0.01965
C 14.74754 24.07487 0.02058
C 15.9737 23.34036 -0.01957
C 16.03517 21.95715 -0.0108
C 14.77306 21.25261 -0.00368
C 14.74496 19.82756 -0.02696
C 15.98323 19.08068 -0.00114
C 16.07017 17.60381 0.00228
C 14.79874 17.09963 0.00798
C 16.02492 0.58887 0.00422
C 14.68474 0.07931 0.0351
C 17.27094 32.5766 -0.03113
C 12.09647 0.00131 0.00244
C 18.44363 31.954 0.02098
C 13.41824 0.50023 0.02299
C 13.4675 17.65538 0.01416
C 10.99357 19.18653 -0.01046
C 10.95709 17.69224 -0.00891
C 9.67054 17.18004 0.02819
C 10.87628 0.795 0.00165
C 9.73458 34.04984 -0.02971
C 12.22824 32.70034 0.02894
C 13.44418 31.96392 -0.01789
C 13.50335 30.55288 0.00444
C 12.27872 29.84045 -0.00925
C 12.32847 28.36825 0.01877
C 13.55439 27.74507 0.01363
C 13.54087 26.24299 -0.02162
C 12.31146 25.54655 0.00415
C 12.30907 24.13269 -0.0014
C 13.61819 23.40511 0.02162
C 13.52173 21.95435 0.0076
C 12.3245 21.29179 0.01241
C 12.31281 19.77561 -0.01454
C 13.46855 19.12954 0.01945
C 12.22432 17.12804 0.03542
C 18.47815 30.51658 0.01848
C 17.24843 29.76511 -0.00619
C 17.19357 28.39062 -0.02162
C 20.83971 22.03984 0.01452
C 19.64173 21.34055 0.04892
C 19.6884 19.8959 -0.00111
C 20.9342 19.12172 -0.03557
C 20.88762 17.7544 0.03754
C 19.62383 16.97154 0.01739
C 19.55434 15.63663 0.00755
C 20.74225 14.85359 -0.0054
C 21.03822 13.49328 0.00667
C 21.16158 5.44618 0.00143
C 19.5696 2.63944 -0.017
C 20.90677 2.10542 0.00364
C 20.82814 0.64762 -0.00831
C 19.56749 0.03823 -0.02957
C 22.10888 32.62036 -0.04422
C 23.27773 31.88924 0.00654
C 23.32067 30.42608 -0.00703
C 22.12265 29.71208 -0.04076
C 22.12052 28.38947 -0.00652
C 20.84406 23.39044 -0.01581
C 19.62683 24.13725 0.02691
C 19.56993 25.62566 -0.01979
C 20.89194 26.28076 0.02188
C 18.43518 27.76272 0.00889
C 18.38172 26.28018 -0.00481
C 17.17635 25.56396 0.00979
C 17.19668 24.14107 0.01443
C 18.4363 23.44476 0.03505
C 18.45343 22.00148 -0.02815
C 17.23851 21.27967 -0.04147
C 17.21199 19.81863 -0.05302
C 18.43281 19.19319 0.00213
C 9.80865 19.91661 -0.02689
C 18.48079 17.78844 -0.00066
C 18.52047 2.10116 0.00028
C 18.31527 0.7155 -0.02213
C 17.15645 34.05076 0.03698
C 19.67892 32.66657 -0.00109
C 20.88553 31.91574 -0.00491
C 20.85431 30.51581 0.03338
C 19.65857 29.82114 -0.0258
C 19.69263 28.4213 -0.0331
C 20.89442 27.61649 -0.00316
C 17.2832 16.96261 -0.00289
C 23.31917 27.63122 0.0058
C 9.81325 21.36211 -0.01536
C 11.0475 23.45541 -0.00428
C 3.71463 6.37659 -0.02929
C 3.6922 5.00155 -0.00966
C 2.44326 4.28236 -0.03337
C 2.41712 2.90811 0.01227
C 3.69415 2.14604 0.00873
C 3.66931 0.74734 -0.00049
C 2.38405 0.03089 0.00848
C 4.82152 32.71322 -0.01303
C 6.03589 31.99654 -0.01378
C 6.10605 30.54358 0.02635
C 4.89911 29.83962 0.0127
C 4.88064 28.47474 0.01396
C 6.12485 27.74551 0.01849
C 6.11168 26.37528 -0.01142
C 4.89494 25.56962 -0.00562
C 4.91251 24.13565 -0.00494
C 6.10976 23.49191 0.00054
C 6.11895 22.07509 0.03007
C 4.89536 21.31868 -0.00095
C 2.48566 7.27263 0.03368
C 4.90662 19.97191 0.01572
C 2.50447 8.64348 -0.00077
C 3.66969 10.78851 0.0276
C 3.5902 30.57166 0.01226
C 2.40515 29.92178 -0.00279
C 2.43664 28.49629 0.01996
C 3.63256 27.71323 -0.03996
C 3.60801 26.35617 0.01465
C 2.39761 25.61915 -0.00074
C 2.49105 24.20932 -0.00518
C 3.66537 23.5061 0.0086
C 3.71959 22.05267 -0.00643
C 2.4118 21.32055 0.017
C 2.48717 19.90273 -0.03113
C 3.65888 19.18405 -0.02566
C 3.67042 17.8193 -0.00094
C 2.39063 17.07311 0.02322
C 2.49813 15.60512 -0.00725
C 3.80453 15.01019 -0.05697
C 3.74296 13.50919 0.01087
C 2.54162 12.85976 -0.01343
C 2.46381 11.47326 0.00988
C 3.65112 9.41318 0.01305
C 6.10005 19.21011 -0.04848
C 6.1333 17.73963 -0.00892
C 4.97617 17.00715 -0.01362
C 7.35482 21.39855 -0.00334
C 7.30231 19.9598 0.02339
C 8.50825 19.30334 0.01641
C 8.49528 17.90434 -0.00719
C 7.30692 17.12659 0.01364
C 7.58913 15.76639 -0.01062
C 7.47068 2.80521 -0.00033
C 8.47788 2.18781 0.03589
C 8.5886 0.67447 -0.02759
C 7.34816 0.08361 0.0402
C 9.74684 32.64578 0.00572
C 10.9986 31.9485 0.03592
C 11.04285 30.5612 0.00406
C 9.80256 29.85562 0.00943
C 9.77302 28.45715 0.02841
C 11.11003 27.70374 -0.01111
C 11.10216 26.3591 -0.01275
C 9.9055 25.58632 0.00985
C 9.82776 24.17031 -0.02245
C 8.56796 22.08264 -0.01634
C 8.59075 23.47985 0.00057
C 7.39922 24.19662 0.00093
C 7.35703 25.60845 0.01291
C 5.01613 15.66158 -0.0008
C 6.32928 15.0358 0.0288
C 6.10999 13.7129 0.00393
C 5.08823 12.77855 0.00895
C 5.00695 11.33135 0.00685
C 4.86784 8.51186 0.02888
C 4.81133 7.26647 -0.00482
C 6.19866 4.9873 -0.01384
C 4.93467 4.28419 0.03693
C 11.13581 22.09282 0.03101
C 4.88546 2.8637 0.01745
C 6.14036 0.79608 -0.01004
C 4.89178 0.07514 -0.02896
C 7.28049 32.77417 -0.00131
C 8.56355 31.94231 -0.01118
C 8.54095 30.54988 -0.014
C 7.33116 29.93303 0.02147
C 7.30066 28.49437 0.00373
C 8.55702 27.74689 -0.00191
C 8.6199 26.33288 0.00438
C 6.0765 2.24188 0.00488
C 3.62927 32.03652 0.03828
C 23.30879 26.20589 -0.00865
C 22.11354 24.13738 -0.00311
C 30.69019 2.19276 0.00716
C 30.66642 0.72504 0.00307
C 29.34306 0.05038 0.00346
C 31.89831 32.71043 0.01713
C 33.11331 31.96218 -0.01694
C 33.09236 30.51184 0.01428
C 31.90502 29.85349 -0.02142
C 31.8757 28.39419 0.0544
C 33.15223 27.79602 0.00026
C 33.19597 26.30873 0.00682
C 31.95263 25.61869 -0.01779
C 31.95794 24.20928 0.03794
C 33.25119 23.44866 0.01927
C 33.26674 22.07559 0.01574
C 32.00481 21.32058 -0.02383
C 32.02161 19.9139 -0.01429
C 33.17995 19.14958 -0.0136
C 33.16525 17.75489 0.00594
C 32.03897 16.9942 -0.02474
C 29.49288 2.89625 0.02108
C 31.96174 15.60338 0.00369
C 29.42221 4.35863 0.0103
C 30.67336 6.40951 0.01908
C 30.7425 26.37433 0.00261
C 29.48644 25.653 0.03265
C 29.5508 24.15795 -0.02049
C 30.72369 23.43443 -0.01854
C 30.81723 22.05388 -0.01415
C 29.56331 21.31412 -0.03039
C 29.6296 19.92578 0.01836
C 30.81876 19.16847 0.03531
C 30.83504 17.74926 -0.00669
C 29.60482 16.98817 0.0101
C 29.54604 15.61853 0.01705
C 30.82052 14.86631 -0.0405
C 30.768 13.4857 -0.01303
C 29.54286 12.8037 -0.01461
C 29.43505 11.30394 -0.02155
C 30.69432 10.66483 -0.00944
C 30.72441 9.2443 -0.03735
C 29.47771 8.53786 -0.00971
C 29.48962 7.15521 0.01518
C 30.73199 4.97532 0.07705
C 33.19752 14.97724 0.00455
C 33.227 13.48577 -0.00644
C 32.00244 12.79152 -0.01839
C 34.39462 19.94005 0.01951
C 1.12245 19.24808 -0.01678
C 1.18876 17.77532 0.01223
C 34.42949 17.01005 0.00648
C 34.41303 15.63335 0.02114
C 1.273 14.97626 -0.02957
C 1.2262 13.50955 0.00343
C 0.03921 12.78406 -0.02656
C 0.08217 11.37039 -0.02442
C 1.30559 10.66655 -0.00027
C 1.20391 9.24765 -0.00583
C 0.01964 8.56383 -0.02302
C 0.03434 7.10256 -0.02849
C 1.27308 6.44344 0.02931
C 1.17405 5.02245 0.00628
C 34.3549 4.21895 -0.0345
C 34.35321 2.84893 -0.00931
C 1.15442 2.12838 -0.00939
C 1.1097 0.73821 -0.00468
C 34.41407 21.3438 -0.02213
C 1.2693 22.05355 0.02712
C 1.23107 23.41646 0.00723
C 0.00113 24.16094 0.03076
C 31.98625 11.29957 0.00137
C 33.24692 10.71894 0.00199
C 33.20526 9.2441 0.04381
C 31.99923 8.55294 0.02806
C 31.93941 7.10715 0.01504
C 33.1841 6.41253 -0.00069
C 33.18911 5.00272 0.04926
C 31.96477 4.27924 -0.03838
C 31.90861 2.91644 0.00349
C 30.67667 27.74797 0.02326
C 33.12201 2.11707 -0.00323
C 31.92344 0.05271 0.0001
C 34.37151 32.61279 -0.02927
C 1.19432 31.94276 -0.01404
C 1.11769 30.58802 0.01027
C 34.31596 29.86423 0.01831
C 34.3287 28.45564 -0.01037
C 1.204 27.75532 -0.00439
C 1.20669 26.30934 -0.00598
C 0.00077 25.6095 -0.05239
C 33.09717 0.72537 -0.00841
C 22.09996 25.53161 0.00675
C 29.40148 28.36596 0.00924
C 30.62152 30.58098 0.01324
C 24.50283 32.60539 0.02239
C 25.74241 31.93349 0.01153
C 25.77126 30.47654 0.02734
C 24.541 29.75616 -0.0055
C 24.58778 28.31194 0.01515
C 25.75525 27.58477 -0.00225
C 25.76634 26.19709 0.00071
C 24.53061 25.54052 -0.01107
C 24.56383 24.05118 -0.01586
C 25.80887 23.39147 -0.01971
C 25.86782 21.91458 -0.02118
C 24.55419 21.26008 0.00733
C 24.67371 19.84601 -0.00178
C 25.80778 19.14725 0.00768
C 25.89614 17.77377 -0.0276
C 24.6707 17.01065 0.03005
C 24.62588 15.53751 -0.04078
C 25.87218 14.84137 0.02117
C 25.79329 13.47154 0.02737
C 22.07974 34.0173 -0.03213
C 24.52297 12.71305 -0.00498
C 23.27181 0.61056 -0.02845
C 22.06147 2.83662 0.0296
C 23.30133 23.40589 0.00742
C 23.34185 21.95862 -0.01594
C 22.11669 21.24359 0.0106
C 22.12272 19.87071 -0.01154
C 23.41442 19.12451 -0.01721
C 23.38626 17.69817 -0.02422
C 22.09681 16.97673 0.01277
C 22.0468 15.52135 0.00096
C 23.33232 14.83075 -0.01527
C 23.35077 13.3524 0.01087
C 22.043 12.6512 0.00199
C 22.0823 11.16854 0.01511
C 23.28172 10.58089 -0.00478
C 23.3741 9.21311 -0.01662
C 22.17928 8.22087 -0.01185
C 22.0449 6.83953 0.01126
C 23.41691 6.26339 0.01852
C 23.41745 4.82559 -0.00381
C 22.10563 4.33597 0.03046
C 23.29207 2.0883 0.03374
C 24.61251 11.30489 0.00135
C 25.78248 10.61228 0.03102
C 25.79696 9.22367 0.02555
C 27.09214 17.00697 0.00826
C 27.12005 15.56858 -0.00294
C 28.38353 14.89706 0.00152
C 28.30425 13.49355 0.01257
C 27.00797 12.78299 0.02316
C 26.99478 11.41915 0.04185
C 28.23426 10.62057 0.00194
C 28.16575 9.22773 -0.00621
C 26.96253 8.48635 0.02611
C 27.02066 7.13271 0.02198
C 28.2225 6.43528 0.01094
C 28.18848 4.9893 0.00235
C 27.02006 4.23953 0.01495
C 26.93005 2.85885 0.01259
C 28.21056 2.14231 0.01799
C 28.1849 0.78222 0.01699
C 26.99229 0.03027 -0.00416
C 29.38632 32.64762 0.01177
C 30.60612 31.97478 0.04266
C 28.36061 17.76618 0.00487
C 28.31338 19.16705 -0.00942
C 27.11797 19.80185 -0.02815
C 27.04551 21.19458 0.00622
C 24.61264 8.48863 0.01423
C 24.63209 7.09444 -0.00285
C 25.78331 6.39054 -0.009
C 25.78672 4.96584 -0.01199
C 24.63726 4.16689 -0.00229
C 24.53449 2.77 -0.00938
C 25.79474 2.04463 -0.0264
C 25.72802 0.66401 -0.01154
C 24.57062 34.02987 0.00684
C 29.35194 29.78158 0.0014
C 26.90701 32.65658 -0.01052
C 28.18539 30.52659 0.00367
C 27.0326 29.75753 0.04306
C 27.03177 28.3335 0.00996
C 28.18689 27.68843 0.00195
C 28.24697 26.24854 -0.00802
C 27.07078 25.49173 -0.00218
C 27.05741 24.03702 -0.01654
C 28.33175 23.38757 -0.00037
C 28.38167 22.06313 -0.0032
C 28.11875 31.93451 -0.01679
C 2.29692 32.71208 0.0174
