348
Graphene
C 34.41175 34.03413 0.01295
C 14.71845 25.53627 0.00422
C 14.58128 8.61847 0.0351
C 14.77769 7.30488 -0.03113
C 15.95008 6.48964 0.02098
C 15.92922 4.9953 0.01848
C 14.73783 4.27438 -0.00619
C 14.72513 2.85711 -0.02162
C 15.93369 2.04862 0.00889
C 15.9986 0.68472 -0.00481
C 14.7596 33.99713 0.00979
C 17.33345 32.61569 0.01443
C 18.58034 31.94965 0.03505
C 18.53395 30.51155 -0.02815
C 17.23168 29.80614 -0.04147
C 17.22309 28.2726 -0.05302
C 18.40372 27.60939 0.00213
C 18.43368 26.26285 -0.00066
C 16.05882 26.14837 0.00798
C 15.91238 27.64903 0.00228
C 14.74485 28.39838 -0.00114
C 14.77958 29.77068 -0.02696
C 12.29394 29.9252 -0.01454
C 12.26565 28.46431 0.01945
C 13.51108 27.70714 0.01416
C 13.58573 26.29873 0.03542
C 12.3718 25.62871 0.02299
C 12.27068 24.31159 0.00244
C 12.35205 8.52454 -0.01717
C 12.35854 7.17936 0.05265
C 17.23678 25.36786 -0.00289
C 13.52725 6.51452 -0.01952
C 12.27413 4.36732 0.00374
C 12.28075 2.96123 0.00052
C 13.44724 2.0938 -0.03682
C 13.4896 0.7368 0.01965
C 12.3115 34.04013 0.02058
C 14.82669 32.55443 -0.01957
C 16.07976 31.90791 -0.0108
C 16.05193 30.53989 -0.00368
C 13.56818 5.0661 -0.02813
C 17.51054 24.02979 0.00028
C 18.40026 9.10085 -0.02213
C 17.21869 8.45355 0.03698
C 19.61761 7.11342 -0.00831
C 20.96337 6.36055 -0.02957
C 20.90683 4.96411 -0.04422
C 19.64954 4.32078 0.00654
C 19.66027 2.93235 -0.00703
C 20.83439 2.13516 -0.04076
C 20.94669 0.67586 -0.00652
C 19.69302 34.02848 0.0058
C 19.6562 8.55158 0.00364
C 22.1266 32.64876 -0.00865
C 23.34295 30.54158 -0.00311
C 22.14092 29.88313 0.00742
C 22.15762 28.39719 -0.01594
C 23.39231 27.72097 0.0106
C 23.40503 26.23443 -0.01154
C 22.16168 25.5103 -0.01721
C 21.9805 24.14756 -0.02422
C 23.29066 23.33632 0.01277
C 23.30901 31.97463 0.00675
C 13.51384 30.58719 0.01241
C 20.91657 9.23909 -0.017
C 20.92965 22.1485 0.00667
C 17.15623 7.14558 -0.00109
C 18.41878 6.51452 -0.00491
C 18.41532 5.06664 0.03338
C 17.18297 4.25997 -0.0258
C 17.15811 2.79847 -0.0331
C 18.4358 2.2048 -0.00316
C 18.46975 0.74388 0.02188
C 17.25544 34.0438 -0.01979
C 20.92681 10.55954 0.00143
C 19.72155 32.66391 0.02691
C 20.91474 30.47089 0.01452
C 19.71744 29.73381 0.04892
C 19.69644 28.30834 -0.00111
C 20.97584 27.7056 -0.03557
C 20.92384 26.24425 0.03754
C 19.71068 25.59181 0.01739
C 19.44294 24.18829 0.00755
C 20.58946 23.42202 -0.0054
C 20.91119 31.91739 -0.01581
C 23.3779 21.93564 0.00096
C 13.5401 31.92369 0.0076
C 9.77065 34.04547 -0.0014
C 6.14159 30.50962 -0.01362
C 4.8814 29.79074 -0.0008
C 4.89185 28.31861 0.0288
C 6.10558 27.65246 0.00393
C 6.17817 26.26693 0.00895
C 4.87397 25.59889 0.00685
C 4.95872 24.16152 0.02888
C 6.21032 23.40125 -0.00482
C 6.08643 21.93726 -0.01384
C 4.97123 21.27175 0.03693
C 6.13024 9.20449 0.01745
C 4.87695 8.65336 0.00488
C 4.88281 7.14906 -0.01004
C 6.16378 6.42937 -0.02896
C 6.08179 4.98777 -0.00131
C 4.88887 4.27234 -0.01118
C 4.91878 2.83927 -0.014
C 6.11355 31.90816 -0.00892
C 4.91274 32.70193 -0.04848
C 2.48754 0.02963 0.01572
C 3.6766 0.75652 -0.00095
C 3.60672 30.52138 -0.02929
C 2.37922 29.84641 -0.00966
C 2.41955 28.4457 -0.03337
C 3.61373 27.66731 0.01227
C 3.61962 26.22959 0.00873
C 2.42261 25.51662 -0.00049
C 2.50683 24.16569 0.00848
C 3.7519 23.41526 -0.01303
C 6.15454 2.14412 0.02147
C 3.66061 21.89815 -0.01378
C 3.56699 9.20523 0.0127
C 2.43891 8.58752 0.01396
C 2.47004 7.04179 0.01849
C 3.6494 6.40026 -0.01142
C 3.6221 5.0113 -0.00562
C 2.49351 4.2127 -0.00494
C 2.42275 2.82905 0.00054
C 3.72014 2.1939 0.03007
C 2.40614 21.30719 0.02635
C 6.112 0.72785 0.00373
C 4.84166 34.0055 -0.00191
C 7.31835 32.6407 0.00438
C 11.04034 31.92771 -0.02245
C 11.04162 30.53097 -0.00428
C 9.86062 29.9062 0.03101
C 9.82316 28.42544 -0.01536
C 11.04912 27.67654 -0.02689
C 11.09857 26.24002 -0.01046
C 9.86182 25.53606 -0.00891
C 9.92282 24.07167 0.02819
C 9.78104 32.63074 0.00985
C 11.13455 23.55835 0.00165
C 9.91336 8.6754 0.02894
C 9.87647 7.16499 -0.01789
C 11.09509 6.4661 0.00444
C 11.07405 5.10317 -0.00925
C 9.78139 4.33997 0.01877
C 9.83991 2.86293 0.01363
C 11.09359 2.08654 -0.02162
C 11.1158 0.71917 0.00415
C 11.12788 9.06294 -0.02971
C 12.30187 32.61944 0.02162
C 7.31969 0.08101 -0.01275
C 8.64763 2.17876 0.02841
C 8.53493 31.93765 0.01291
C 8.60551 30.52599 0.00093
C 7.33867 29.86832 0.00057
C 7.35639 28.34651 -0.01634
C 8.62681 27.69391 -0.00334
C 8.59992 26.26692 0.02339
C 7.40111 25.58455 0.01641
C 7.38463 24.14589 -0.00719
C 8.57431 0.68891 -0.01111
C 8.66802 23.37334 0.01364
C 7.27536 21.40315 -0.00033
C 8.66539 9.16261 0.03589
C 7.40327 8.81338 -0.02759
C 7.36824 7.22356 0.0402
C 8.58452 6.52386 0.00572
C 8.62311 5.02298 0.03592
C 7.33869 4.33653 0.00406
C 7.36621 2.90182 0.00943
C 8.4931 22.10599 -0.01062
C 22.07318 21.42385 -0.01527
C 23.46467 19.09549 0.01087
C 23.4563 17.77473 0.00199
C 29.53273 34.02651 0.01428
C 31.92733 32.60385 -0.02142
C 33.15776 31.98659 0.0544
C 33.09778 30.56076 0.00026
C 31.89836 29.79507 0.00682
C 31.98657 28.46784 -0.01779
C 33.14335 27.72299 0.03794
C 33.16644 26.29112 0.01927
C 31.95051 25.61175 0.01574
C 31.98096 24.1373 -0.02383
C 33.25663 23.49092 -0.01429
C 33.22161 21.96864 -0.0136
C 31.98781 21.31993 0.00594
C 31.93601 19.91457 -0.02474
C 33.17175 19.17617 0.00369
C 33.12794 17.81485 0.00455
C 31.88885 17.06909 -0.00644
C 30.71554 0.7792 -0.01694
C 30.72903 2.15645 0.01713
C 29.51346 2.90917 0.00346
C 29.45706 4.28231 0.00307
C 30.76099 23.51086 0.01836
C 30.74305 22.05096 0.03531
C 29.49715 21.31499 -0.00669
C 29.48464 19.90658 0.0101
C 30.70782 19.17748 0.01705
C 30.65854 17.82153 -0.0405
C 29.50136 17.02788 -0.01303
C 29.52134 15.6086 -0.01461
C 32.02405 15.58738 -0.01839
C 30.71246 14.9563 -0.02155
C 29.57747 12.74715 -0.03735
C 29.51585 11.32394 -0.00971
C 30.80673 10.65567 0.01518
C 30.77587 9.2465 0.01908
C 29.53262 8.52284 0.07705
C 29.58626 7.11513 0.0103
C 30.79897 6.46066 0.02108
C 30.72019 5.01252 0.00716
C 30.7549 13.49624 -0.00944
C 33.19234 14.90258 0.00137
C 33.23037 13.5043 0.00199
C 31.99845 12.84844 0.04381
C 1.26656 21.9811 -0.01678
C 0.01238 21.3151 0.01223
C 0.10872 19.80682 0.00648
C 1.27693 19.15526 0.02114
C 34.14978 16.99601 -0.02957
C 34.24176 15.66307 0.00343
C 34.40464 12.7272 -0.02656
C 0.12467 11.34995 -0.02442
C 1.30114 23.45745 0.01951
C 1.16412 10.61654 -0.00027
C 34.39367 8.5328 -0.02302
C 0.07486 7.06559 -0.02849
C 1.24221 6.36376 0.02931
C 1.24793 4.97279 0.00628
C 34.40752 4.18246 -0.0345
C 34.37753 2.77054 -0.00931
C 1.26968 2.09058 -0.00939
C 1.21818 0.70402 -0.00468
C 1.18284 9.21329 -0.00583
C 29.50588 24.17873 -0.03039
C 0.04345 24.17348 -0.02213
C 1.19675 26.31895 0.00723
C 31.95051 11.40279 0.02806
C 33.22393 10.66218 0.01504
C 33.21311 9.26149 -0.00069
C 31.99624 8.56404 0.04926
C 32.00914 7.08718 -0.03838
C 33.25512 6.3809 0.00349
C 33.23798 5.00124 -0.00323
C 31.95137 4.31878 -0.00841
C 34.37126 25.64907 0.02712
C 31.96641 2.83394 0.0001
C 33.15031 0.64702 -0.01404
C 31.88916 34.05597 0.01027
C 0.09212 32.67484 0.01831
C 1.28789 32.00506 -0.01037
C 1.12843 30.61738 -0.00439
C 34.29799 29.81123 -0.00598
C 34.38778 28.417 -0.05239
C 1.24683 27.73421 0.03076
C 33.19393 2.06384 -0.02927
C 29.50644 25.54459 -0.01415
C 30.71577 26.31827 -0.01854
C 30.75094 27.7651 -0.02049
C 24.60468 25.53036 -0.02118
C 24.49962 24.1321 0.00733
C 25.78547 23.47036 -0.00178
C 25.84959 22.01368 0.00768
C 24.55236 21.30282 -0.0276
C 24.50843 19.87746 0.03005
C 25.83971 19.20122 -0.04078
C 25.82692 17.76516 0.02117
C 25.79589 26.27294 -0.01971
C 24.56771 16.98854 0.02737
C 25.87142 14.95432 0.00135
C 25.75099 13.49976 0.03102
C 24.53575 12.78058 0.02555
C 24.533 11.32185 0.01423
C 25.78522 10.55255 -0.00285
C 25.84563 9.14112 -0.009
C 24.58275 8.53274 -0.01199
C 24.59286 7.03279 -0.00229
C 24.56356 15.61544 -0.00498
C 25.82457 6.39322 -0.00938
C 25.84222 27.76312 -0.01586
C 24.52138 29.8309 0.00071
C 23.43955 14.7746 0.01511
C 23.17542 13.55552 -0.00478
C 22.08394 12.69308 -0.01662
C 22.06011 11.34812 -0.01185
C 23.32414 10.69767 0.01126
C 23.34775 9.23652 0.01852
C 22.14801 8.50215 -0.00381
C 22.17626 7.06194 0.03046
C 24.54231 28.43887 -0.01107
C 23.41154 6.30789 0.0296
C 22.10556 4.21301 -0.02845
C 22.08825 2.73931 -0.03213
C 23.38383 2.06905 0.02239
C 23.44454 0.67114 0.01153
C 22.18524 34.07062 0.02734
C 24.52548 32.63543 -0.0055
C 25.76467 31.9454 0.01515
C 25.76736 30.5616 -0.00225
C 23.35978 4.92975 0.03374
C 3.80389 31.93744 0.03368
C 25.79828 4.95874 -0.0264
C 24.56656 2.8224 0.00684
C 27.02826 12.68463 -0.00621
C 27.02036 11.31629 0.02611
C 28.26871 10.62098 0.02198
C 28.29251 9.21561 0.01094
C 27.06735 8.45004 0.00235
C 27.08454 7.04297 0.01495
C 28.32497 6.34446 0.01259
C 28.26111 4.93475 0.01799
C 28.24294 13.40764 0.00194
C 27.08062 4.26052 0.01699
C 28.27327 2.10908 0.01177
C 28.29604 0.74307 0.04266
C 27.04502 34.06477 0.01324
C 29.52733 32.68102 0.0014
C 30.70225 31.95172 0.00924
C 30.65381 30.53712 0.02326
C 29.45275 29.86181 0.00261
C 29.49249 28.43142 0.03265
C 27.06937 2.84611 -0.00416
C 24.62271 4.20722 -0.01154
C 28.2612 14.85718 0.04185
C 27.04351 17.07791 0.01257
C 25.79519 2.11984 -0.01052
C 25.89703 0.68985 -0.01679
C 24.65627 0.05841 0.00367
C 26.99222 32.61203 0.04306
C 28.21287 31.94568 0.00996
C 28.23308 30.51207 0.00195
C 26.98085 29.87485 -0.00802
C 27.01938 28.41343 -0.00218
C 27.10565 15.62378 0.02316
C 28.29249 27.73678 -0.01654
C 26.98258 25.61115 -0.0032
C 26.99267 24.17259 0.00622
C 28.23551 23.55886 -0.02815
C 28.27882 22.04603 -0.00942
C 27.08004 21.33741 0.00487
C 27.03141 19.9369 0.00826
C 28.35301 19.20255 -0.00294
C 28.29013 17.72581 0.00152
C 28.29482 26.33957 -0.00037
C 2.50759 32.67421 -0.00077
