327
Graphene
C 0.0342 0.02982 0.01295
C 9.87863 16.99384 0.00213
C 9.80844 15.71425 -0.00066
C 11.05094 14.8494 -0.00289
C 11.12449 13.55937 0.00028
C 9.92804 12.8306 -0.02213
C 9.886 11.37446 0.03698
C 10.96703 10.5575 -0.00109
C 9.7668 24.16092 -0.05302
C 11.02902 9.08683 -0.00491
C 9.84144 7.05949 -0.0258
C 11.11589 6.41234 -0.0331
C 11.0976 4.93646 -0.00316
C 9.8655 4.24705 0.02188
C 9.87816 2.82605 -0.01979
C 11.06999 2.22013 0.02691
C 11.08912 0.6968 -0.01581
C 9.80039 8.41679 0.03338
C 9.78878 25.52011 -0.04147
C 11.14404 26.19811 -0.02815
C 11.01301 27.6291 0.03505
C 7.35674 11.3859 -0.0108
C 8.61713 10.60546 -0.00368
C 8.5703 9.2647 -0.02696
C 7.30163 8.57842 -0.00114
C 7.40339 7.15459 0.00228
C 8.63118 6.41899 0.00798
C 8.62101 4.98971 0.00422
C 7.38899 4.26331 0.0351
C 7.37559 2.84299 -0.03113
C 8.63178 2.10753 0.02098
C 8.6582 0.73624 0.01848
C 7.40372 0.08828 -0.00619
C 9.81845 32.68296 -0.02162
C 11.04243 32.02102 0.00889
C 11.0777 30.47734 -0.00481
C 9.85409 29.80786 0.00979
C 9.86126 28.43535 0.01443
C 9.92968 34.07745 0.01452
C 7.34334 12.72114 -0.01957
C 12.29344 32.68998 0.04892
C 13.54558 30.48958 -0.03557
C 14.69244 4.25095 0.0106
C 14.78473 2.82245 -0.01154
C 16.06589 2.14544 -0.01721
C 15.9879 0.73565 -0.02422
C 14.77924 0.01818 0.01277
C 17.17852 32.75015 0.00096
C 18.4182 31.98363 -0.01527
C 15.96571 4.82756 -0.01594
C 18.44555 30.49904 0.01087
C 17.22384 28.43571 0.01511
C 18.43574 27.66172 -0.00478
C 18.39412 26.26587 -0.01662
C 17.15257 25.59823 -0.01185
C 18.4898 23.35274 0.01126
C 18.55219 22.0946 0.01852
C 18.55105 4.83904 -0.00381
C 17.23358 29.81347 0.00199
C 16.03717 26.24202 0.00742
C 16.01126 27.63318 -0.00311
C 14.71263 28.39794 0.00675
C 12.27281 29.77828 0.03754
C 12.303 28.34143 0.01739
C 13.54879 27.61718 0.00755
C 13.52077 26.31594 -0.0054
C 12.22172 8.49682 0.00667
C 12.29053 7.12924 0.00143
C 13.44544 6.42978 -0.017
C 13.51976 5.03976 0.00364
C 12.28466 4.29277 -0.00831
C 12.33856 2.82988 -0.02957
C 13.54777 2.13342 -0.04422
C 13.53744 0.7398 0.00654
C 12.30469 0.03565 -0.00703
C 14.82146 32.67633 -0.04076
C 15.98926 31.94151 -0.00652
C 16.00295 30.47799 0.0058
C 14.73256 29.77312 -0.00865
C 13.5367 31.93393 -0.00111
C 17.26341 4.3198 0.03046
C 8.58035 13.49507 0.02058
C 7.3307 15.62938 -0.03682
C 2.42018 8.54126 0.00438
C 2.44283 7.08328 0.01291
C 3.62621 6.39797 0.00093
C 3.69054 5.00111 0.00057
C 2.51233 4.24665 -0.01634
C 2.44766 2.83694 -0.00334
C 3.69321 2.08482 0.02339
C 3.65268 9.22093 -0.00191
C 3.70952 0.70859 0.01641
C 4.85547 32.64573 0.01364
C 6.17895 31.95585 -0.01062
C 6.20699 30.55962 -0.00033
C 4.88544 29.87668 0.03589
C 4.93626 28.36173 -0.02759
C 6.10977 27.68128 0.0402
C 6.10916 26.27596 0.00572
C 2.49527 0.05132 -0.00719
C 3.70524 10.60623 0.00373
C 2.42978 11.38724 0.02147
C 2.42215 12.81516 -0.014
C 3.63833 30.5296 -0.00892
C 2.43978 29.83866 -0.01362
C 2.44784 28.459 -0.0008
C 3.71049 27.66413 0.0288
C 3.68747 26.31307 0.00393
C 2.48778 25.59982 0.00895
C 2.45718 24.17194 0.00685
C 3.62204 23.50192 0.02888
C 3.686 22.0354 -0.00482
C 2.43739 21.27608 -0.01384
C 2.42607 19.86487 0.03693
C 3.65743 19.20062 0.01745
C 3.71427 17.69209 0.00488
C 2.49497 17.07389 -0.01004
C 2.43717 15.62294 -0.02896
C 3.75706 14.88202 -0.00131
C 3.70382 13.48005 -0.01118
C 4.84543 25.54542 0.03592
C 8.56712 14.99433 0.01965
C 4.90555 24.15641 0.00406
C 6.18657 21.9973 0.02841
C 7.3827 32.70505 -0.0014
C 8.65978 31.93301 0.02162
C 8.57808 30.48332 0.0076
C 7.41376 29.78289 0.01241
C 7.27991 28.34966 -0.01454
C 8.58566 27.78963 0.01945
C 8.55221 26.3606 0.01416
C 4.89471 0.00507 0.00415
C 7.41217 25.61164 0.03542
C 8.66029 23.31832 0.00244
C 8.64573 21.99571 -0.01717
C 7.43127 21.34739 0.05265
C 7.39315 19.91587 -0.01952
C 8.55276 19.14567 -0.02813
C 8.59427 17.69255 0.00374
C 7.33627 17.02007 0.00052
C 7.43772 24.14937 0.02299
C 6.15071 0.67451 -0.02162
C 6.14431 2.14816 0.01363
C 4.93295 2.90315 0.01877
C 4.87498 21.31764 -0.01111
C 4.97067 19.87245 -0.01275
C 6.20805 19.17165 0.00985
C 6.15923 17.79533 -0.02245
C 4.87089 16.94041 -0.00428
C 4.90672 15.59855 0.03101
C 6.1011 14.91455 -0.01536
C 6.09532 13.43787 -0.02689
C 4.91945 12.75946 -0.01046
C 4.92122 11.38176 -0.00891
C 6.14103 10.67762 0.02819
C 6.16346 9.18445 0.00165
C 4.89755 8.5641 -0.02971
C 4.90105 7.14221 0.02894
C 6.17987 6.4263 -0.01789
C 6.13921 4.96082 0.00444
C 4.92468 4.27116 -0.00925
C 6.1972 23.47685 0.00943
C 3.66457 31.9463 -0.04848
C 17.19593 2.87138 0.0296
C 18.48488 0.68349 -0.02845
C 33.20712 26.3411 0.00682
C 31.96806 25.59663 -0.01779
C 32.02478 24.19684 0.03794
C 33.17501 23.52408 0.01927
C 33.18478 22.0657 0.01574
C 31.99199 21.31481 -0.02383
C 31.91729 19.883 -0.01429
C 33.21507 27.75186 0.00026
C 33.20529 19.15727 -0.0136
C 31.97997 17.03815 -0.02474
C 31.92484 15.63438 0.00369
C 33.19285 14.94049 0.00455
C 33.21581 13.48772 -0.00644
C 31.88998 12.73454 -0.01839
C 31.91254 11.45628 0.00137
C 33.16616 10.62111 0.00199
C 33.22377 17.72262 0.00594
C 31.91658 28.45424 0.0544
C 31.94133 29.85391 -0.02142
C 33.25385 30.58815 0.01428
C 30.77948 23.38665 -0.0405
C 30.74605 22.03048 -0.01303
C 29.46754 21.28986 -0.01461
C 29.52272 19.87588 -0.02155
C 30.71335 19.21574 -0.00944
C 30.64249 17.73598 -0.03735
C 29.40963 17.07696 -0.00971
C 30.73822 14.82789 0.01518
C 30.77088 6.45016 0.01908
C 30.64994 4.99938 0.07705
C 29.51792 4.28528 0.0103
C 29.52439 2.81452 0.02108
C 30.74996 2.12754 0.00716
C 30.74096 0.72157 0.00307
C 29.55367 34.05887 0.00346
C 31.98033 32.69706 0.01713
C 33.18675 31.94506 -0.01694
C 33.16295 9.22541 0.04381
C 29.50125 24.12459 0.01705
C 31.91436 8.59269 0.02806
C 33.24787 6.38257 -0.00069
C 0.01017 16.982 0.00648
C 0.04721 15.57121 0.02114
C 1.22649 14.93651 -0.02957
C 1.21835 13.52602 0.00343
C 0.01916 12.77836 -0.02656
C 34.39271 11.34757 -0.02442
C 1.21086 10.64568 -0.00027
C 1.1902 17.7847 0.01223
C 1.27315 9.27994 -0.00583
C 0.00376 7.0131 -0.02849
C 1.25795 6.33689 0.02931
C 1.24652 4.9638 0.00628
C 34.42166 4.28203 -0.0345
C 0.00495 2.78065 -0.00931
C 1.20208 2.14199 -0.00939
C 1.30303 0.67436 -0.00468
C 34.38676 8.46726 -0.02302
C 1.18224 19.20288 -0.01678
C 34.39675 19.8658 0.01951
C 34.38321 21.3388 -0.02213
C 33.18877 4.97888 0.04926
C 31.98769 4.20932 -0.03838
C 32.00904 2.82522 0.00349
C 33.20917 2.1507 -0.00323
C 33.26802 0.68822 -0.00841
C 31.97563 34.00532 0.0001
C 0.01337 32.67067 -0.02927
C 1.26683 31.9286 -0.01404
C 1.18505 30.52451 0.01027
C 0.01388 29.81002 0.01831
C 34.43199 28.41244 -0.01037
C 1.21807 27.72105 -0.00439
C 1.26053 26.34051 -0.00598
C 34.41625 25.59506 -0.05239
C 0.03205 24.2218 0.03076
C 1.18569 23.47892 0.00723
C 1.21501 22.02487 0.02712
C 31.94109 7.12325 0.01504
C 18.47352 2.16427 0.03374
C 29.53287 25.53318 0.0101
C 30.70251 27.6239 0.03531
C 22.12163 29.86601 0.00135
C 22.13975 28.42874 0.03102
C 23.39788 27.74783 0.02555
C 23.32826 26.17619 0.01423
C 22.09007 25.52905 -0.00285
C 22.13184 24.12679 -0.009
C 23.4364 23.43373 -0.01199
C 23.30662 30.5216 -0.00498
C 23.31135 22.01069 -0.00229
C 22.193 19.80682 -0.0264
C 23.24103 19.24405 -0.01154
C 22.09625 2.75196 0.00684
C 23.36282 2.21946 -0.01052
C 23.38063 0.73798 -0.01679
C 22.13668 0.02793 0.00367
C 24.60578 32.64124 0.04306
C 22.05966 21.26037 -0.00938
C 23.31258 31.9873 0.02737
C 22.13706 32.69867 0.02117
C 19.71522 34.05983 -0.04078
C 17.21435 0.00123 -0.03213
C 19.63207 32.69282 0.02239
C 20.90378 31.98865 0.01153
C 20.8794 30.59929 0.02734
C 19.63957 29.82681 -0.0055
C 19.63733 28.39633 0.01515
C 20.89636 27.75096 -0.00225
C 20.90448 26.28162 0.00071
C 19.68822 25.57092 -0.01107
C 19.64162 24.1049 -0.01586
C 20.88022 23.41802 -0.01971
C 20.87109 22.01134 -0.02118
C 19.59182 21.45875 0.00733
C 19.59023 4.20236 -0.00178
C 19.67319 2.80559 0.00768
C 20.84631 2.13309 -0.0276
C 20.89727 0.74322 0.03005
C 25.87448 31.95719 0.00996
C 30.67346 26.19431 -0.00669
C 25.79825 30.53352 0.00195
C 24.61738 28.42057 -0.00218
C 27.0392 24.08095 0.01799
C 28.25693 23.43623 0.01699
C 28.29123 21.96858 -0.00416
C 27.06473 21.28576 0.01177
C 27.07584 19.88782 0.04266
C 28.26814 19.13053 0.01324
C 28.35774 17.65762 0.0014
C 27.04169 25.52554 0.01259
C 27.06047 2.79379 0.00924
C 28.29628 0.68996 0.00261
C 27.09077 34.04021 0.03265
C 29.49538 32.68918 -0.02049
C 30.65761 31.94967 -0.01854
C 30.68193 30.52171 -0.01415
C 29.52273 29.75111 -0.03039
C 29.46788 28.39556 0.01836
C 28.33199 2.10516 0.02326
C 28.30566 26.26158 0.01495
C 28.18559 27.69208 0.00235
C 26.98109 28.34094 0.01094
C 25.82945 27.67315 -0.01654
C 25.8348 26.25083 -0.00037
C 24.63432 25.5007 -0.0032
C 24.66064 24.08334 0.00622
C 25.86313 23.39835 -0.02815
C 25.79802 21.99176 -0.00942
C 24.59405 21.23522 0.00487
C 24.56297 19.80169 0.00826
C 25.81224 19.24517 -0.00294
C 24.65348 2.72763 0.00152
C 25.91495 2.10258 0.01257
C 25.80752 0.63729 0.02316
C 24.59222 34.06322 0.04185
C 27.07475 32.65372 0.00194
C 28.28281 31.92264 -0.00621
C 28.33575 30.54039 0.02611
C 27.0241 29.8061 0.02198
C 24.59645 29.8556 -0.00802
C 2.49854 32.66606 0.01572
