392
Graphene
C 0.01633 0.03386 0.01295
C 11.12383 2.10242 0.01877
C 11.03382 0.76394 0.01363
C 9.84083 0.03444 -0.02162
C 12.31762 32.63748 0.00415
C 13.57232 31.99997 -0.0014
C 13.54784 30.56252 0.02162
C 12.24474 29.7827 0.0076
C 12.25685 28.37248 0.01241
C 13.49624 27.57759 -0.01454
C 9.84374 2.81944 -0.00925
C 13.56796 26.28202 0.01945
C 12.33133 24.10735 0.03542
C 13.59493 23.40823 0.02299
C 13.58092 21.98253 0.00244
C 12.28142 21.37861 -0.01717
C 12.31936 19.85472 0.05265
C 13.52031 19.07806 -0.01952
C 13.46805 17.69706 -0.02813
C 12.34277 16.94908 0.00374
C 12.2496 15.58511 0.00052
C 12.27081 25.61368 0.01416
C 9.83916 4.21305 0.00444
C 11.01978 5.03258 -0.01789
C 10.97963 6.45056 0.02894
C 9.84515 28.44955 0.03589
C 11.08106 27.70816 -0.02759
C 11.0818 26.29633 0.0402
C 9.84684 25.5813 0.00572
C 9.80951 24.17392 0.03592
C 11.07147 23.43109 0.00406
C 11.0876 22.03744 0.00943
C 9.83881 21.38757 0.02841
C 9.80331 19.90227 -0.01111
C 11.05272 19.25579 -0.01275
C 11.09953 17.69663 0.00985
C 9.8515 17.04016 -0.02245
C 9.85992 15.66069 -0.00428
C 11.12601 14.88632 0.03101
C 11.03788 13.42247 -0.01536
C 9.81699 12.81644 -0.02689
C 9.87005 11.33285 -0.01046
C 11.0243 10.62335 -0.00891
C 11.11013 9.2083 0.02819
C 9.9217 8.54555 0.00165
C 9.8327 7.14987 -0.02971
C 13.54985 14.91961 -0.03682
C 9.78823 29.92546 -0.00033
C 13.51714 13.51906 0.01965
C 12.27713 11.29808 -0.01957
C 16.00925 17.71085 -0.02213
C 14.7647 17.08916 0.03698
C 14.7675 15.5816 -0.00109
C 15.95438 14.90341 -0.00491
C 15.96915 13.50182 0.03338
C 14.77322 12.76166 -0.0258
C 14.80404 11.42314 -0.0331
C 15.97995 10.62018 -0.00316
C 16.00291 9.2388 0.02188
C 16.01168 19.15232 0.00028
C 14.81215 8.48501 -0.01979
C 15.92708 6.39677 -0.01581
C 15.96138 4.95482 0.01452
C 14.77919 4.20272 0.04892
C 14.78044 2.80009 -0.00111
C 15.97611 2.15578 -0.03557
C 15.94927 0.70506 0.03754
C 14.72461 0.01009 0.01739
C 17.1456 32.70873 0.00755
C 18.42841 31.98022 -0.0054
C 14.73873 7.12262 0.02691
C 14.79518 19.82894 -0.00289
C 14.77298 21.27271 -0.00066
C 16.00089 22.03087 0.00213
C 13.53268 10.68659 -0.0108
C 13.58723 9.24693 -0.00368
C 12.31836 8.5104 -0.02696
C 12.2977 7.04792 -0.00114
C 13.50372 6.3685 0.00228
C 13.51824 4.96021 0.00798
C 12.31555 4.30659 0.00422
C 12.2722 2.83806 0.0351
C 13.49076 2.1265 -0.03113
C 13.48056 0.71458 0.02098
C 12.28694 34.05621 0.01848
C 14.71049 32.67572 -0.00619
C 15.97324 31.97987 -0.02162
C 16.01638 30.52083 0.00889
C 14.72318 29.80875 -0.00481
C 14.73248 28.33051 0.00979
C 15.95273 27.67483 0.01443
C 15.97765 26.24088 0.03505
C 14.71286 25.53873 -0.02815
C 14.79907 24.13673 -0.04147
C 16.05435 23.4627 -0.05302
C 12.26303 12.81708 0.02058
C 18.46364 30.48705 0.00667
C 11.0464 30.5598 -0.01062
C 9.83026 32.6774 -0.00719
C 2.47509 4.30257 0.01465
C 2.47422 2.78813 -0.00074
C 3.67722 2.14505 -0.00518
C 3.67548 0.73729 0.0086
C 2.43607 34.07422 -0.00643
C 4.91611 32.68004 0.017
C 6.14863 31.99688 -0.03113
C 6.17401 30.48363 -0.02566
C 4.93335 29.84314 -0.00094
C 3.71443 4.99252 -0.03996
C 4.9227 28.39546 0.02322
C 6.08977 26.33501 -0.05697
C 4.9395 25.58834 0.01087
C 4.89709 24.11464 -0.01343
C 6.10639 23.43538 0.00988
C 6.0943 22.05647 0.0276
C 4.94954 21.26329 0.01305
C 4.97155 19.91741 -0.00077
C 6.12011 19.15036 0.03368
C 6.216 17.72537 -0.02929
C 6.15453 27.68136 -0.00725
C 3.6246 6.38759 0.01996
C 2.39985 7.19407 -0.00279
C 2.46 8.54349 0.01226
C 3.73168 30.52425 0.01707
C 2.45711 29.85878 0.02769
C 2.52629 28.38268 -0.03291
C 3.67896 27.6317 -0.04999
C 3.73514 26.23367 0.04505
C 2.37599 25.49903 0.03284
C 2.42343 24.19271 -0.04307
C 3.63469 23.46264 0.03189
C 3.66818 22.02148 0.00031
C 2.47458 21.35661 -0.003
C 2.45575 19.82166 0.01402
C 3.7289 19.20722 0.02379
C 3.72321 17.81806 0.00907
C 2.45799 17.08869 0.00643
C 2.43582 15.62186 -0.01509
C 3.64873 14.85628 0.03267
C 3.70053 13.46978 0.02374
C 2.5245 12.78333 0.00402
C 2.47292 11.33359 0.0073
C 3.69028 10.67674 0.0174
C 3.69583 9.2872 0.03828
C 4.88885 17.04996 -0.00966
C 11.11953 31.95728 0.01364
C 4.95487 15.61673 -0.03337
C 6.20443 13.54592 0.00873
C 7.3317 19.76598 -0.01384
C 8.58807 19.13269 0.03693
C 8.55599 17.75166 0.01745
C 7.3249 16.97542 0.00488
C 7.35877 15.62399 -0.01004
C 8.57964 14.96633 -0.02896
C 8.59121 13.5387 -0.00131
C 7.42721 12.729 -0.01118
C 7.36436 11.38349 -0.014
C 7.35111 21.3216 -0.00482
C 8.63754 10.69118 0.02147
C 7.36745 8.53127 -0.00191
C 7.39488 7.11039 0.00438
C 8.6459 6.43375 0.01291
C 8.61045 4.9759 0.00093
C 7.34909 4.3104 0.00057
C 7.419 2.84264 -0.01634
C 8.62953 2.19093 -0.00334
C 8.61437 0.75621 0.02339
C 7.42599 0.05796 0.01641
C 8.57336 9.32318 0.00373
C 8.57901 22.05005 0.02888
C 8.60947 23.46016 0.00685
C 7.31184 24.14657 0.00895
C 4.95456 12.81941 -0.00049
C 4.93875 11.35058 0.00848
C 6.17183 10.64675 -0.01303
C 6.12726 9.28488 -0.01378
C 4.89535 8.58055 0.02635
C 4.93337 7.12169 0.0127
C 6.09586 6.39668 0.01396
C 6.10937 5.02029 0.01849
C 4.9332 4.23535 -0.01142
C 4.94097 2.81977 -0.00562
C 6.1084 2.16419 -0.00494
C 6.1365 0.72827 0.00054
C 4.96919 0.05885 0.03007
C 7.39696 32.62101 -0.00095
C 8.59558 31.96989 0.01572
C 8.53798 30.53125 -0.04848
C 7.37907 29.81003 -0.00892
C 7.33875 28.43763 -0.01362
C 8.50998 27.71257 -0.0008
C 8.55938 26.2836 0.0288
C 7.34567 25.52048 0.00393
C 6.15622 14.96866 0.01227
C 17.16913 29.81355 0.00143
C 17.22314 28.44266 -0.017
C 18.47944 27.66409 0.00364
C 30.73186 4.97585 0.07705
C 29.49474 4.28153 0.0103
C 29.55872 2.84384 0.02108
C 30.77137 2.17128 0.00716
C 30.72396 0.68649 0.00307
C 29.49813 34.06038 0.00346
C 31.94734 32.66833 0.01713
C 33.14409 32.00735 -0.01694
C 33.25534 30.53194 0.01428
C 30.75415 6.35856 0.01908
C 32.04053 29.78858 -0.02142
C 33.20594 27.72504 0.00026
C 33.17517 26.30892 0.00682
C 31.99693 25.50979 -0.01779
C 31.97233 24.19464 0.03794
C 33.19599 23.41194 0.01927
C 33.18589 22.03414 0.01574
C 32.05153 21.28648 -0.02383
C 31.99303 19.85519 -0.01429
C 33.23035 19.13936 -0.0136
C 31.99862 28.40185 0.0544
C 29.51727 7.12576 0.01518
C 29.51158 8.47682 -0.00971
C 30.6885 9.25045 -0.03735
C 28.34269 6.33052 0.04266
C 28.23661 4.91864 0.01324
C 27.00889 4.26695 0.0014
C 27.02122 2.79889 0.00924
C 28.25576 2.14848 0.02326
C 28.25866 0.70222 0.00261
C 27.05333 34.00939 0.03265
C 29.54177 32.62373 -0.02049
C 30.74583 31.98224 -0.01854
C 30.82075 30.52071 -0.01415
C 29.5259 29.75302 -0.03039
C 29.58819 28.37 0.01836
C 30.75294 27.68118 0.03531
C 30.67887 17.69079 -0.00669
C 29.56601 17.03574 0.0101
C 29.51352 15.63288 0.01705
C 30.75811 14.93641 -0.0405
C 30.7616 13.56654 -0.01303
C 29.50025 12.79245 -0.01461
C 29.56028 11.41429 -0.02155
C 30.70556 10.67335 -0.00944
C 33.2124 17.75178 0.00594
C 27.04423 7.07931 0.01177
C 32.01621 17.09626 -0.02474
C 33.24505 14.88581 0.00455
C 34.39422 21.2545 -0.02213
C 34.4279 19.9144 0.01951
C 1.23053 19.19177 -0.01678
C 1.25325 17.80548 0.01223
C 34.38299 16.9489 0.00648
C 34.39437 15.57893 0.02114
C 1.21064 14.90434 -0.02957
C 1.30671 13.48505 0.00343
C 34.37955 12.73094 -0.02656
C 1.16108 22.03997 0.02712
C 34.40655 11.31578 -0.02442
C 1.19964 9.22829 -0.00583
C 34.41408 8.47777 -0.02302
C 34.41885 7.15226 -0.02849
C 1.21366 6.42793 0.02931
C 1.22798 4.95461 0.00628
C 34.43096 4.22407 -0.0345
C 34.38836 2.79382 -0.00931
C 1.18765 2.14993 -0.00939
C 1.24347 0.73831 -0.00468
C 1.25865 10.6163 -0.00027
C 1.21607 23.43512 0.00723
C 34.38515 24.20269 0.03076
C 34.42898 25.60442 -0.05239
C 33.20343 13.52714 -0.00644
C 31.93946 12.79818 -0.01839
C 31.933 11.34773 0.00137
C 33.18368 10.68301 0.00199
C 33.20644 9.23508 0.04381
C 31.98461 8.53008 0.02806
C 31.94375 7.07954 0.01504
C 33.17648 6.39034 -0.00069
C 33.19168 4.988 0.04926
C 31.95793 4.34157 -0.03838
C 31.98584 2.80489 0.00349
C 33.19434 2.08698 -0.00323
C 33.15015 0.68539 -0.00841
C 31.96211 0.01488 0.0001
C 0.03123 32.67005 -0.02927
C 1.16301 31.89376 -0.01404
C 1.19736 30.52501 0.01027
C 0.01816 29.82075 0.01831
C 34.42566 28.35831 -0.01037
C 1.21656 27.69723 -0.00439
C 1.25881 26.23386 -0.00598
C 32.01231 15.6038 0.00369
C 27.08373 8.52341 -0.00416
C 28.26282 9.20099 0.01699
C 28.31751 10.58865 0.01799
C 20.89047 31.91967 -0.01185
C 20.88419 30.49286 0.01126
C 19.68222 29.79092 0.01852
C 19.73446 28.36753 -0.00381
C 19.66826 17.05134 0.03046
C 19.61168 15.63232 0.0296
C 20.82343 14.87114 0.03374
C 20.90638 13.4145 -0.02845
C 19.63135 12.79605 -0.03213
C 19.70473 32.64266 -0.01662
C 19.7139 11.37443 0.02239
C 20.78255 9.22689 0.02734
C 19.58127 8.46038 -0.0055
C 19.67614 7.08499 0.01515
C 20.8968 6.37742 -0.00225
C 20.91562 4.94432 0.00071
C 19.70824 4.20563 -0.01107
C 19.72007 2.81819 -0.01586
C 20.90483 2.13606 -0.01971
C 20.9125 0.64399 -0.02118
C 20.87747 10.62439 0.01153
C 17.19101 0.03145 -0.00478
C 18.48193 0.64854 0.01511
C 18.53085 2.07806 0.00199
C 18.41987 26.25016 -0.00831
C 17.23565 25.54709 -0.02957
C 17.2163 24.16113 -0.04422
C 17.19816 21.2992 0.00654
C 17.29092 19.89891 -0.00703
C 18.41071 19.15247 -0.04076
C 18.50363 17.79268 -0.00652
C 17.26978 17.017 0.0058
C 17.27211 15.62909 -0.00865
C 18.47407 14.9511 0.00675
C 18.44222 13.5297 -0.00311
C 17.25527 12.69669 0.00742
C 17.2161 11.33766 -0.01594
C 18.49095 10.6682 0.0106
C 18.40968 9.29016 -0.01154
C 17.17785 8.52997 -0.01721
C 17.20274 7.12304 -0.02422
C 18.40683 6.40589 0.01277
C 18.43377 4.93993 0.00096
C 17.23307 4.27497 -0.01527
C 17.21134 2.88509 0.01087
C 19.6627 34.03012 0.00733
C 22.15059 32.69783 -0.00178
C 23.38867 31.95611 0.00768
C 23.41711 30.49016 -0.0276
C 24.53439 11.33643 -0.01654
C 25.85126 10.67077 -0.00037
C 25.83076 9.21207 -0.0032
C 24.72833 8.55249 0.00622
C 24.571 7.12568 -0.02815
C 25.82094 6.36177 -0.00942
C 25.8234 4.93793 0.00487
C 24.50386 4.26156 0.00826
C 24.50873 2.85884 -0.00294
C 25.76888 2.12144 0.00152
C 25.79676 0.69605 0.01257
C 24.61971 34.0246 0.02316
C 26.98409 32.60914 0.04185
C 28.27819 31.9476 0.00194
C 28.24682 30.54415 -0.00621
C 27.03572 29.81407 0.02611
C 27.02808 15.63709 0.02198
C 28.28101 14.91458 0.01094
C 28.27507 13.46991 0.00235
C 27.03555 12.78369 0.01495
C 27.07423 11.27624 0.01259
C 24.62358 12.79588 -0.00218
C 3.68951 31.93843 0.00208
C 25.83116 13.48251 -0.00802
C 24.67621 15.69772 0.00996
C 22.14035 29.85782 0.03005
C 22.04549 15.51473 -0.04078
C 23.34108 14.93317 0.02117
C 23.37635 13.53841 0.02737
C 22.11658 12.81972 -0.00498
C 22.14754 11.35033 0.00135
C 23.40582 10.6726 0.03102
C 23.39225 9.23033 0.02555
C 22.10454 8.52807 0.01423
C 22.11171 7.0393 -0.00285
C 23.36249 6.41895 -0.009
C 23.35779 4.97379 -0.01199
C 22.09216 4.25888 -0.00229
C 22.10582 2.83643 -0.00938
C 23.35827 2.11519 -0.0264
C 23.35057 0.70129 -0.01154
C 22.14424 34.07768 0.00684
C 24.61317 32.60967 -0.01052
C 25.82341 31.99872 -0.01679
C 25.8695 30.54823 0.00367
C 24.5726 29.8561 0.04306
C 25.83706 14.90621 0.00195
C 2.45911 32.66723 -0.00561
