401
Graphene
C 0.02403 34.07953 0.01295
C 14.16174 13.52464 0.00165
C 12.60025 12.91756 -0.02971
C 12.29269 11.52974 0.02894
C 12.41055 8.54637 -0.01789
C 12.32098 7.16565 0.00444
C 13.50138 6.3785 -0.00925
C 13.55522 4.96032 0.01877
C 12.34008 4.33687 0.01363
C 12.36227 2.80152 -0.02162
C 13.54295 2.0303 0.00415
C 13.55213 0.63878 -0.0014
C 12.29816 33.94715 0.02162
C 14.74427 32.64009 0.0076
C 15.98366 31.89794 0.01241
C 15.99004 30.52525 -0.01454
C 14.70234 29.77461 0.01945
C 14.7089 28.29405 0.01416
C 15.94354 27.50826 0.03542
C 16.1015 25.93061 0.02299
C 14.61826 25.61902 0.00244
C 15.69624 13.69321 -0.01717
C 13.24272 14.75316 0.02819
C 14.64515 7.09165 0.05265
C 12.31457 15.68783 -0.00891
C 13.23882 27.77065 -0.02689
C 9.74963 15.68129 0.02339
C 11.03808 15.03 0.01641
C 11.19922 13.59759 -0.00719
C 9.93755 12.89052 0.01364
C 9.86389 11.46501 -0.01062
C 11.09792 10.77531 -0.00033
C 11.13192 9.35001 0.03589
C 9.88677 8.56086 -0.02759
C 9.86107 7.21261 0.0402
C 11.07473 6.40337 0.00572
C 11.11369 5.04049 0.03592
C 9.85747 4.33503 0.00406
C 9.89532 2.86009 0.00943
C 11.10787 2.12271 0.02841
C 11.03216 0.74367 -0.01111
C 9.78606 34.0245 -0.01275
C 12.28493 32.54835 0.00985
C 13.54287 31.89193 -0.02245
C 13.48533 30.53624 -0.00428
C 12.13838 29.92157 0.03101
C 11.95262 28.54415 -0.01536
C 13.5775 26.27194 -0.01046
C 9.77107 17.07791 -0.00334
C 15.95656 6.45092 -0.01952
C 14.79729 4.23236 0.00374
C 18.48377 0.77799 -0.05302
C 17.24719 0.01575 0.00213
C 19.67929 32.64096 -0.00066
C 20.9216 31.92838 -0.00289
C 20.86097 30.48543 0.00028
C 19.67342 29.85605 -0.02213
C 19.61542 28.38203 0.03698
C 20.87705 27.76303 -0.00109
C 20.94397 26.32582 -0.00491
C 19.71076 25.59407 0.03338
C 19.58957 24.2743 -0.0258
C 20.66636 23.37613 -0.0331
C 20.82697 21.90954 -0.00316
C 20.95552 19.04402 0.02188
C 20.96329 17.79364 -0.01979
C 19.42879 15.4253 0.02691
C 20.84126 14.93749 -0.01581
C 20.71962 13.56388 0.01452
C 19.49511 12.83269 0.04892
C 19.64518 11.42622 -0.00111
C 20.93267 10.68301 -0.03557
C 18.48175 2.13154 -0.04147
C 15.97861 5.06773 -0.02813
C 17.27794 2.91025 -0.02815
C 18.45472 4.99387 0.01443
C 14.77485 2.83526 0.00052
C 16.0508 2.17147 -0.03682
C 16.0346 0.75946 0.01965
C 14.79285 0.0386 0.02058
C 17.22706 32.67727 -0.01957
C 18.40322 31.94079 -0.0108
C 18.40926 30.52138 -0.00368
C 17.22518 29.71629 -0.02696
C 17.22399 28.25781 -0.00114
C 18.41753 27.65379 0.00228
C 18.39053 26.26484 0.00798
C 17.30742 25.3555 0.00422
C 18.38163 14.86492 0.0351
C 18.0831 13.27127 -0.03113
C 16.76445 12.65059 0.02098
C 17.05147 11.17452 0.01848
C 18.36091 10.69211 -0.00619
C 18.42809 9.20502 -0.02162
C 17.19871 8.57108 0.00889
C 17.17789 7.18826 -0.00481
C 18.43911 6.36519 0.00979
C 17.16547 4.31194 0.03505
C 9.73467 20.00209 -0.01634
C 9.85266 21.20754 0.00057
C 9.89263 28.41661 0.00093
C 2.39608 4.32522 0.02374
C 2.42714 2.90884 0.00402
C 3.58692 2.12094 0.0073
C 3.65825 0.7318 0.0174
C 2.43318 0.04997 0.03828
C 4.83432 32.68735 0.01226
C 6.0902 32.00219 -0.00279
C 6.15849 30.55736 0.01996
C 4.87855 29.82167 -0.03996
C 4.85034 28.42418 0.01465
C 6.1114 27.74916 -0.00074
C 6.12587 26.33526 -0.00518
C 4.9019 25.58449 0.0086
C 4.95004 24.22584 -0.00643
C 6.23276 23.48911 0.017
C 6.27153 22.07165 -0.03113
C 4.92664 21.32122 -0.02566
C 4.8914 19.8888 -0.00094
C 6.08094 19.16834 0.02322
C 6.091 17.73191 -0.00725
C 4.91503 17.11607 -0.05697
C 3.67438 5.01499 0.03267
C 4.85247 15.61156 0.01087
C 3.65411 6.46475 -0.01509
C 2.41637 8.51683 0.00907
C 3.59378 30.58249 -0.00039
C 2.40475 29.87463 0.0064
C 2.41559 28.3754 0.00211
C 3.66072 27.69766 -0.00449
C 3.64006 26.26158 -0.01979
C 2.41819 25.53196 0.02784
C 2.50473 24.14132 -0.01977
C 3.73346 23.39585 -0.00561
C 3.72242 22.00393 0.00208
C 2.45328 21.2221 0.01707
C 2.42034 19.79789 0.02769
C 3.6532 19.15174 -0.03291
C 3.66805 17.73775 -0.04999
C 2.40139 17.10695 0.04505
C 2.35765 15.68068 0.03284
C 3.57389 14.86499 -0.04307
C 3.63936 13.45424 0.03189
C 2.42374 12.80513 0.00031
C 2.37943 11.39923 -0.003
C 3.63565 10.65716 0.01402
C 3.61734 9.27277 0.02379
C 2.42462 7.16951 0.00643
C 6.11467 14.96227 -0.01343
C 6.11293 13.55956 0.00988
C 4.88592 12.75992 0.0276
C 7.34298 16.99407 -0.0008
C 7.41384 15.67084 0.0288
C 8.55994 14.92014 0.00393
C 8.61511 13.51488 0.00895
C 7.40476 12.79808 0.00685
C 7.34569 11.43793 0.02888
C 8.62634 10.73392 -0.00482
C 8.71919 9.30586 -0.01384
C 7.43692 8.5953 0.03693
C 7.39734 7.19356 0.01745
C 8.64205 6.4987 0.00488
C 8.62447 5.05164 -0.01004
C 7.39058 4.36603 -0.02896
C 7.35044 2.92063 -0.00131
C 8.53565 2.21252 -0.01118
C 8.55938 0.75669 -0.014
C 7.41284 0.10961 0.02147
C 9.78084 32.68818 0.00373
C 11.07237 31.94766 -0.00191
C 11.01906 30.63077 0.00438
C 9.76507 29.80812 0.01291
C 8.55819 17.70722 -0.01362
C 8.57215 19.0795 -0.00892
C 7.3539 19.88037 -0.04848
C 7.4621 21.377 0.01572
C 4.84491 11.34008 0.01305
C 6.16114 10.66021 -0.00077
C 6.1528 9.28096 0.03368
C 4.85591 8.68777 -0.02929
C 4.91153 7.16323 -0.00966
C 6.18109 6.42487 -0.03337
C 6.16236 5.0579 0.01227
C 4.90726 4.31402 0.00873
C 4.82401 2.94577 -0.00049
C 6.05937 2.23705 0.00848
C 20.94513 9.26302 0.03754
C 6.094 0.8529 -0.01303
C 7.32882 32.69876 0.02635
C 8.55687 31.90263 0.0127
C 8.58457 30.47739 0.01396
C 7.40983 29.85161 0.01849
C 7.33886 28.37418 -0.01142
C 8.53257 27.58208 -0.00562
C 7.33471 25.82064 -0.00494
C 7.39483 24.38323 0.00054
C 8.63911 23.55411 0.03007
C 8.68586 22.20722 -0.00095
C 4.94045 0.1136 -0.01378
C 3.64311 32.01167 0.02728
C 19.70775 8.4996 0.01739
C 20.94816 6.38009 -0.0054
C 29.46969 7.07177 0.01518
C 30.65784 6.32626 0.01908
C 30.63866 4.96073 0.07705
C 29.47542 4.30967 0.0103
C 29.47925 2.84168 0.02108
C 30.72876 2.17974 0.00716
C 30.77368 0.76545 0.00307
C 29.53332 0.00727 0.00346
C 32.05426 32.67254 0.01713
C 33.23986 31.89303 -0.01694
C 33.23112 30.46339 0.01428
C 32.01311 29.77503 -0.02142
C 31.92692 28.37869 0.0544
C 33.14617 27.65061 0.00026
C 33.15574 26.23224 0.00682
C 31.92826 25.51368 -0.01779
C 31.94887 24.06107 0.03794
C 33.21715 23.32586 0.01927
C 33.124 21.98052 0.01574
C 31.94436 21.29085 -0.02383
C 31.91012 19.89272 -0.01429
C 29.46429 8.55261 -0.00971
C 33.16481 19.1977 -0.0136
C 30.73522 9.2155 -0.03735
C 29.46708 11.34746 -0.02155
C 27.02105 34.06062 -0.00416
C 29.5598 32.63017 0.01177
C 30.77664 31.9997 0.04266
C 30.89294 30.51639 0.01324
C 29.53847 29.78975 0.0014
C 29.51749 28.4338 0.00924
C 30.70341 27.65547 0.02326
C 30.69631 26.23827 0.00261
C 29.56768 25.52237 0.03265
C 29.49739 24.15011 -0.02049
C 30.63935 23.36774 -0.01854
C 30.66151 22.01691 -0.01415
C 29.41835 21.25241 -0.03039
C 29.46055 19.88637 0.01836
C 30.63398 19.17574 0.03531
C 30.64589 17.73711 -0.00669
C 29.42595 16.99633 0.0101
C 29.41591 15.65068 0.01705
C 30.6602 14.90416 -0.0405
C 30.70219 13.48967 -0.01303
C 29.47935 12.82617 -0.01461
C 30.7321 10.64251 -0.00944
C 28.3386 0.70694 0.01699
C 33.09725 17.72753 0.00594
C 31.86667 15.6156 0.00369
C 1.2127 21.87068 0.02712
C 34.43109 21.25779 -0.02213
C 34.40339 19.85578 0.01951
C 1.14002 19.1645 -0.01678
C 1.14745 17.75853 0.01223
C 34.30886 17.05572 0.00648
C 34.40714 15.58218 0.02114
C 1.15166 14.87996 -0.02957
C 1.18973 13.42264 0.00343
C 34.38402 12.77199 -0.02656
C 34.42221 11.38551 -0.02442
C 1.18092 10.67807 -0.00027
C 1.11979 9.29298 -0.00583
C 34.40009 8.60403 -0.02302
C 34.40543 7.13274 -0.02849
C 1.16347 6.4461 0.02931
C 1.11729 5.04806 0.00628
C 34.37578 4.32492 -0.0345
C 34.42822 2.90093 -0.00931
C 1.25328 2.1648 -0.00939
C 1.19832 0.71123 -0.00468
C 1.26635 23.37545 0.00723
C 31.87964 17.03766 -0.02474
C 0.05113 24.08299 0.03076
C 1.18446 26.19269 -0.00598
C 33.15378 14.92119 0.00455
C 33.15088 13.53065 -0.00644
C 31.94491 12.83215 -0.01839
C 31.96196 11.30085 0.00137
C 33.17368 10.67958 0.00199
C 33.1724 9.26421 0.04381
C 31.98549 8.55732 0.02806
C 31.91466 7.09839 0.01504
C 33.05472 6.43749 -0.00069
C 33.14144 5.04266 0.04926
C 31.96351 4.31635 -0.03838
C 31.91724 2.82531 0.00349
C 33.13814 2.20265 -0.00323
C 33.26163 0.71281 -0.00841
C 32.03446 0.00258 0.0001
C 0.06739 32.67951 -0.02927
C 1.23358 31.96673 -0.01404
C 1.18978 30.55845 0.01027
C 0.01602 29.78877 0.01831
C 34.39537 28.35691 -0.01037
C 1.25559 27.67453 -0.00439
C 34.40911 25.5085 -0.05239
C 28.33651 2.11929 0.01799
C 27.09627 2.81792 0.01259
C 27.05061 4.23936 0.01495
C 22.02635 12.79491 0.00199
C 22.03593 11.44057 0.01511
C 23.32273 10.63412 -0.00478
C 23.40248 9.23986 -0.01662
C 22.11759 8.57374 -0.01185
C 22.14461 7.09285 0.01126
C 23.39339 6.35964 0.01852
C 23.34766 4.93945 -0.00381
C 22.1319 4.29148 0.03046
C 22.1511 2.87093 0.0296
C 23.40065 2.08186 0.03374
C 23.3987 0.61812 -0.02845
C 22.19693 34.03308 -0.03213
C 24.6555 32.52725 0.02239
C 25.92398 32.00258 0.01153
C 25.88393 30.54252 0.02734
C 24.63532 29.83421 -0.0055
C 24.60756 28.4284 0.01515
C 25.83593 27.70581 -0.00225
C 25.85618 26.25199 0.00071
C 24.5795 25.52206 -0.01107
C 23.33738 13.52089 0.01087
C 24.45285 24.12965 -0.01586
C 23.34137 14.88509 -0.01527
C 22.09473 16.92578 0.01277
C 20.8984 4.97374 0.00667
C 19.6396 4.26884 0.00143
C 19.65461 2.84054 -0.017
C 20.919 2.12633 0.00364
C 20.90072 0.76292 -0.00831
C 19.69756 0.03916 -0.02957
C 22.17944 32.68202 -0.04422
C 23.41444 31.88643 0.00654
C 23.35247 30.54529 -0.00703
C 22.07232 29.86751 -0.04076
C 22.10906 28.43234 -0.00652
C 23.39041 27.72476 0.0058
C 23.33445 26.25051 -0.00865
C 22.05072 25.48165 0.00675
C 21.91665 24.12229 -0.00311
C 23.23543 23.44017 0.00742
C 23.3404 22.03563 -0.01594
C 22.01347 21.33436 0.0106
C 22.1626 19.91433 -0.01154
C 23.35039 19.14081 -0.01721
C 23.36034 17.73235 -0.02422
C 22.11934 15.60844 0.00096
C 25.73614 23.41007 -0.01971
C 25.76258 22.03745 -0.02118
C 24.50889 21.28432 0.00733
C 28.28579 26.22654 -0.00802
C 27.02531 25.52257 -0.00218
C 26.95394 24.11606 -0.01654
C 28.27562 23.45601 -0.00037
C 28.22383 22.03902 -0.0032
C 27.03384 21.34634 0.00622
C 26.99223 19.89563 -0.02815
C 28.17975 19.12335 -0.00942
C 28.23085 17.76593 0.00487
C 27.08303 17.02659 0.00826
C 27.0369 15.59254 -0.00294
C 28.19366 14.92434 0.00152
C 28.23733 13.48388 0.01257
C 27.04342 12.84055 0.02316
C 27.0289 11.36881 0.04185
C 28.27362 10.60511 0.00194
C 28.26408 9.22906 -0.00621
C 26.96405 8.52346 0.02611
C 27.0082 7.08075 0.02198
C 28.25693 6.38049 0.01094
C 28.25202 5.04829 0.00235
C 28.2923 27.66589 0.00195
C 27.1315 28.34821 0.00996
C 27.06484 29.84306 0.04306
C 28.32902 30.53886 0.00367
C 24.56685 19.88481 -0.00178
C 25.81154 19.10265 0.00768
C 25.795 17.70394 -0.0276
C 24.52433 17.02427 0.03005
C 24.5801 15.5468 -0.04078
C 25.82071 14.8543 0.02117
C 25.74751 13.46953 0.02737
C 24.47861 12.7381 -0.00498
C 24.55324 11.30165 0.00135
C 25.82497 10.60277 0.03102
C 19.67931 7.06711 0.00755
C 25.79882 9.22864 0.02555
C 24.51506 7.1262 -0.00285
C 25.82701 6.37267 -0.009
C 25.81841 4.97162 -0.01199
C 24.63043 4.26172 -0.00229
C 24.59411 2.76296 -0.00938
C 25.90531 2.11606 -0.0264
C 25.84287 0.70948 -0.01154
C 24.60488 34.03086 0.00684
C 27.14945 32.69225 -0.01052
C 28.31109 31.96499 -0.01679
C 24.55344 8.5021 0.01423
C 2.43843 32.69364 0.00245
