414
Graphene
C 34.3445 34.07612 0.01295
C 12.2003 15.66406 0.00985
C 13.55731 14.92234 -0.02245
C 13.56411 13.54211 -0.00428
C 12.33842 12.90741 0.03101
C 12.33635 11.44205 -0.01536
C 13.49859 10.74371 -0.02689
C 13.44604 0.5708 -0.01046
C 12.20248 0.06556 -0.00891
C 14.75268 32.62658 0.02819
C 15.99208 31.88879 0.00165
C 16.07154 30.39711 -0.02971
C 14.86267 29.78112 0.02894
C 14.80421 28.34987 -0.01789
C 15.99552 27.64823 0.00444
C 15.94532 26.16947 -0.00925
C 14.71432 25.51466 0.01877
C 14.80221 24.1237 0.01363
C 16.03837 23.30156 -0.02162
C 15.95544 21.92281 0.00415
C 14.7571 21.2804 -0.0014
C 14.67752 19.83353 0.02162
C 12.22667 17.0772 -0.01275
C 13.44374 17.82572 -0.01111
C 13.44602 19.23536 0.02841
C 12.16713 20.0179 0.00943
C 9.84025 11.37865 -0.014
C 11.17562 10.68031 0.02147
C 11.05878 9.345 0.00373
C 10.01667 8.42746 -0.00191
C 9.78789 7.099 0.00438
C 9.84984 4.46639 0.01291
C 9.9953 3.04191 0.00093
C 11.02108 2.15669 0.00057
C 10.98772 0.73711 -0.01634
C 9.7898 0.02594 -0.00334
C 15.89642 19.13826 0.0076
C 12.28809 32.68521 0.02339
C 13.54431 30.46371 -0.00719
C 12.3588 29.86489 0.01364
C 12.29563 28.34338 -0.01062
C 13.5426 27.66727 -0.00033
C 13.56399 26.23833 0.03589
C 12.23529 25.58478 -0.02759
C 12.28904 24.14328 0.0402
C 13.57228 23.40812 0.00572
C 13.52949 22.04226 0.03592
C 12.30239 21.38102 0.00406
C 13.49369 31.86203 0.01641
C 15.99026 17.72891 0.01241
C 14.66389 17.1462 -0.01454
C 14.70725 15.62162 0.01945
C 17.2205 12.78603 -0.02162
C 17.1796 11.32055 0.00889
C 18.42039 10.64014 -0.00481
C 18.54861 9.33212 0.00979
C 18.67835 2.10688 0.01443
C 18.48876 0.81854 0.03505
C 17.16654 0.06702 -0.02815
C 19.64106 32.61276 -0.04147
C 20.79963 31.89191 -0.05302
C 20.89289 30.44879 0.00213
C 18.49243 13.51062 -0.00619
C 19.66784 29.78174 -0.00066
C 20.84033 27.67972 0.00028
C 20.82545 26.23591 -0.02213
C 19.6359 25.60516 0.03698
C 19.63537 24.21826 -0.00109
C 20.85134 23.47342 -0.00491
C 20.80797 22.06358 0.03338
C 19.62783 21.30791 -0.0258
C 19.66661 19.90491 -0.0331
C 20.96895 19.1491 -0.00316
C 20.92587 17.7035 0.02188
C 19.66397 28.31306 -0.00289
C 9.84934 12.73479 -0.01118
C 18.44038 14.89732 0.01848
C 17.21927 17.01384 -0.03113
C 15.96682 14.90707 0.01416
C 15.99669 13.47048 0.03542
C 14.71001 12.80216 0.02299
C 14.74632 11.30968 0.00244
C 15.96919 10.71549 -0.01717
C 15.96246 0.64695 0.05265
C 14.69282 0.06392 -0.01952
C 17.21277 32.68015 -0.02813
C 18.41293 31.93577 0.00374
C 18.45299 30.501 0.00052
C 17.2142 15.57819 0.02098
C 17.31375 29.73185 -0.03682
C 18.5023 27.61299 0.02058
C 18.34861 26.21931 -0.01957
C 17.14401 25.50881 -0.0108
C 17.1237 24.08843 -0.00368
C 18.36962 23.47332 -0.02696
C 18.44095 21.9979 -0.00114
C 17.22963 21.25186 0.00228
C 17.19938 19.80491 0.00798
C 18.45652 19.17443 0.00422
C 18.41693 17.73196 0.0351
C 17.2563 28.35447 0.01965
C 10.96021 13.63008 -0.00131
C 11.0605 14.98265 -0.02896
C 11.09773 17.74446 -0.01004
C 2.38251 2.83662 0.04505
C 3.6638 2.15442 0.03284
C 3.6785 0.81291 -0.04307
C 2.47853 34.06496 0.03189
C 4.86255 32.7173 0.00031
C 6.05209 32.0594 -0.003
C 6.05496 30.59149 0.01402
C 4.81158 29.81452 0.02379
C 4.88364 28.39739 0.00907
C 6.11967 27.63875 0.00643
C 2.36019 4.22963 -0.04999
C 6.12389 26.25424 -0.01509
C 4.88535 24.03643 0.02374
C 6.20904 23.38584 0.00402
C 6.14573 21.96916 0.0073
C 4.92229 21.28497 0.0174
C 4.89885 19.89953 0.03828
C 6.16875 19.36531 0.01226
C 4.98401 16.92921 -0.00279
C 4.99785 15.6823 0.01996
C 6.28374 13.53167 -0.03996
C 5.00777 12.78619 0.01465
C 4.97757 25.52133 0.03267
C 4.89962 11.38225 -0.00074
C 3.65417 4.99066 -0.03291
C 2.4056 7.01934 0.01707
C 3.65267 30.54852 0.03278
C 2.4328 29.81163 -0.00177
C 2.40133 28.34021 0.04421
C 3.67189 27.70944 0.00088
C 3.72849 26.2358 0.00828
C 2.4728 25.57781 -0.02375
C 2.48797 24.18955 0.00558
C 3.68739 23.3886 -0.0059
C 3.66838 22.0104 -0.01386
C 2.41448 21.26281 -0.02805
C 3.582 6.33961 0.02769
C 2.34246 19.85019 0.00081
C 3.755 17.72633 0.02728
C 2.48485 17.05797 -0.00039
C 2.5445 15.67955 0.0064
C 3.77346 14.94104 0.00211
C 3.76432 13.49809 -0.00449
C 2.48815 12.77137 -0.01979
C 2.44687 11.37479 0.02784
C 3.68196 10.62414 -0.01977
C 3.63745 9.18308 -0.00561
C 2.38486 8.57906 0.00208
C 3.61575 19.16951 0.00245
C 19.6813 17.06564 -0.01979
C 6.18232 10.67866 -0.00518
C 4.83913 8.59955 -0.00643
C 7.33075 7.17799 0.01849
C 8.56851 6.4648 -0.01142
C 8.61889 5.06513 -0.00562
C 7.41968 4.32206 -0.00494
C 7.37693 2.853 0.00054
C 8.67351 2.19294 0.03007
C 8.6391 0.75506 -0.00095
C 7.36972 0.0703 0.01572
C 9.81202 32.67535 -0.04848
C 11.12605 31.98043 -0.00892
C 7.30847 8.56916 0.01396
C 11.09142 30.5878 -0.01362
C 9.76088 28.49866 0.0288
C 10.99412 27.75657 0.00393
C 11.00621 26.33515 0.00895
C 9.86068 25.63669 0.00685
C 9.90542 24.18788 0.02888
C 11.11698 23.495 -0.00482
C 11.02447 22.12454 -0.01384
C 9.79937 21.3808 0.03693
C 9.74702 19.98511 0.01745
C 10.86064 19.15254 0.00488
C 9.81538 29.99389 -0.0008
C 6.10961 9.28739 0.0086
C 8.61551 9.20494 0.0127
C 7.39473 11.39247 -0.01378
C 4.90159 7.07948 0.017
C 6.13351 6.46595 -0.03113
C 6.12766 4.98704 -0.02566
C 4.91757 4.33197 -0.00094
C 4.91231 2.87265 0.02322
C 6.1492 2.15942 -0.00725
C 6.09081 0.75902 -0.05697
C 4.92146 0.01514 0.01087
C 7.3409 32.77883 -0.01343
C 8.55752 32.0613 0.00988
C 8.63619 10.64839 0.02635
C 8.4614 30.62156 0.0276
C 7.28366 28.48119 -0.00077
C 8.49408 27.76305 0.03368
C 8.54412 26.38102 -0.02929
C 7.39455 25.55561 -0.00966
C 7.42455 24.12021 -0.03337
C 8.63813 23.51058 0.01227
C 8.55502 22.0667 0.00873
C 7.4689 21.28396 -0.00049
C 7.34805 19.87542 0.00848
C 7.33283 12.81428 -0.01303
C 7.27373 29.89339 0.01305
C 19.659 15.58353 0.02691
C 20.92384 14.81882 -0.01581
C 21.0363 13.39416 0.01452
C 30.71022 10.70086 -0.00944
C 30.76412 9.21998 -0.03735
C 29.5353 8.50694 -0.00971
C 29.50526 7.09958 0.01518
C 30.71781 6.38836 0.01908
C 30.77984 4.95359 0.07705
C 29.51923 4.18938 0.0103
C 29.5535 2.82533 0.02108
C 30.74165 2.07793 0.00716
C 30.74068 0.61296 0.00307
C 29.47357 11.4094 -0.02155
C 29.51993 0.01031 0.00346
C 33.27994 31.87196 -0.01694
C 33.08463 30.50902 0.01428
C 31.88951 29.85744 -0.02142
C 31.88488 28.36422 0.0544
C 33.06004 27.66863 0.00026
C 33.14611 26.22876 0.00682
C 31.9628 25.48971 -0.01779
C 31.99256 24.13235 0.03794
C 33.23063 23.44981 0.01927
C 33.20254 21.97385 0.01574
C 31.97393 32.61472 0.01713
C 31.95126 21.28489 -0.02383
C 29.52653 12.85228 -0.01461
C 30.72428 14.95522 -0.0405
C 27.03141 4.2155 0.01495
C 27.02488 2.81154 0.01259
C 28.30318 2.10997 0.01799
C 28.33957 0.72335 0.01699
C 27.11 34.04276 -0.00416
C 29.53097 32.62177 0.01177
C 30.75102 31.94381 0.04266
C 30.73941 30.57965 0.01324
C 29.56474 29.81473 0.0014
C 29.60785 28.43284 0.00924
C 30.78684 13.46299 -0.01303
C 30.70027 27.61565 0.02326
C 29.46728 25.62035 0.03265
C 29.49824 24.14988 -0.02049
C 30.75228 23.40664 -0.01854
C 30.71377 21.91254 -0.01415
C 29.47982 21.31437 -0.03039
C 29.5076 19.84557 0.01836
C 30.70933 19.11036 0.03531
C 30.65587 17.69658 -0.00669
C 29.50024 17.0355 0.0101
C 29.5067 15.57432 0.01705
C 30.71921 26.22086 0.00261
C 28.29169 4.89589 0.00235
C 31.91625 19.84448 -0.01429
C 33.24057 17.70657 0.00594
C 1.24649 23.48857 0.00723
C 1.23711 22.04765 0.02712
C 0.00244 21.33515 -0.02213
C 34.37672 19.92641 0.01951
C 1.15046 19.15022 -0.01678
C 1.19894 17.76001 0.01223
C 34.41083 17.08911 0.00648
C 34.38836 15.61561 0.02114
C 1.27054 14.91533 -0.02957
C 1.24153 13.50983 0.00343
C 0.02275 24.15723 0.03076
C 34.43131 12.82148 -0.02656
C 1.14667 10.64886 -0.00027
C 1.13721 9.21625 -0.00583
C 34.40497 8.50048 -0.02302
C 34.42455 7.10714 -0.02849
C 1.21799 6.41197 0.02931
C 1.16903 5.00799 0.00628
C 34.41044 4.27322 -0.0345
C 34.36547 2.78588 -0.00931
C 1.15152 2.12657 -0.00939
C 1.20895 0.68596 -0.00468
C 34.41039 11.40286 -0.02442
C 33.15439 19.14581 -0.0136
C 34.35431 25.61027 -0.05239
C 1.18679 27.72489 -0.00439
C 32.03432 17.0473 -0.02474
C 31.9766 15.64299 0.00369
C 33.18021 14.92711 0.00455
C 33.19751 13.46263 -0.00644
C 31.98485 12.76362 -0.01839
C 31.96032 11.34704 0.00137
C 33.15239 10.58856 0.00199
C 33.21768 9.18808 0.04381
C 31.94735 8.50279 0.02806
C 31.9788 7.04763 0.01504
C 1.23514 26.29939 -0.00598
C 33.22506 6.38475 -0.00069
C 31.95182 4.30678 -0.03838
C 31.93064 2.83932 0.00349
C 33.17805 2.14477 -0.00323
C 33.16461 0.74074 -0.00841
C 31.9662 34.04967 0.0001
C 0.03111 32.65623 -0.02927
C 1.21429 31.95261 -0.01404
C 1.15804 30.50898 0.01027
C 0.00183 29.73176 0.01831
C 34.33865 28.3621 -0.01037
C 33.19209 5.00251 0.04926
C 3.68701 32.02023 0.01138
C 28.23772 6.36495 0.01094
C 27.0374 8.47599 0.02611
C 23.37778 19.17512 -0.01721
C 23.37417 17.71863 -0.02422
C 22.12392 17.0239 0.01277
C 22.13833 15.5541 0.00096
C 23.38893 14.83415 -0.01527
C 23.43402 13.46469 0.01087
C 22.24314 12.68981 0.00199
C 22.16237 11.3118 0.01511
C 23.34657 10.59608 -0.00478
C 23.40675 9.20927 -0.01662
C 22.17067 19.90194 -0.01154
C 22.13201 8.51532 -0.01185
C 23.30639 6.45541 0.01852
C 23.37155 5.01805 -0.00381
C 22.16236 4.27556 0.03046
C 22.2282 2.85397 0.0296
C 23.44277 2.18276 0.03374
C 23.42514 0.75851 -0.02845
C 22.12886 0.0843 -0.03213
C 24.51936 32.65582 0.02239
C 25.7684 32.03251 0.01153
C 25.81598 30.56899 0.02734
C 22.06919 7.13518 0.01126
C 24.51493 29.88153 -0.0055
C 22.05918 21.34096 0.0106
C 23.30088 23.46849 0.00742
C 19.72353 12.81077 0.04892
C 19.64106 11.37022 -0.00111
C 20.84431 10.6991 -0.03557
C 20.9094 9.18842 0.03754
C 19.6042 8.46632 0.01739
C 19.74881 7.141 0.00755
C 20.92479 6.33072 -0.0054
C 20.94832 4.90484 0.00667
C 19.76865 4.35174 0.00143
C 19.76436 2.88886 -0.017
C 23.30437 22.01744 -0.01594
C 21.08597 2.11914 0.00364
C 19.69243 34.06866 -0.02957
C 22.09151 32.63016 -0.04422
C 23.29819 31.95613 0.00654
C 23.28515 30.57704 -0.00703
C 22.07736 29.78428 -0.04076
C 22.04463 28.3801 -0.00652
C 23.37657 27.64715 0.0058
C 23.2992 26.196 -0.00865
C 22.05139 25.514 0.00675
C 22.06727 24.15452 -0.00311
C 20.95473 0.67018 -0.00831
C 27.03666 6.98912 0.02198
C 24.52304 28.43329 0.01515
C 25.80675 26.28559 0.00071
C 28.28626 31.90764 -0.01679
C 28.23987 30.4123 0.00367
C 27.00505 29.84297 0.04306
C 27.07338 28.43265 0.00996
C 28.28598 27.68414 0.00195
C 28.21316 26.29044 -0.00802
C 27.02196 25.5926 -0.00218
C 27.03247 24.15502 -0.01654
C 28.28082 23.44601 -0.00037
C 28.30501 22.02297 -0.0032
C 27.10717 32.70581 -0.01052
C 27.03547 21.29543 0.00622
C 28.2437 19.1269 -0.00942
C 28.22893 17.71208 0.00487
C 27.00273 17.05756 0.00826
C 26.9682 15.52723 -0.00294
C 28.18546 14.8757 0.00152
C 28.27158 13.47909 0.01257
C 27.07041 12.70452 0.02316
C 26.98804 11.30166 0.04185
C 28.26339 10.64256 0.00194
C 28.30089 9.19604 -0.00621
C 27.10074 19.93734 -0.02815
C 25.82863 27.69151 -0.00225
C 24.56391 34.05774 0.00684
C 25.84977 2.11534 -0.0264
C 24.55902 25.59276 -0.01107
C 24.55693 24.13203 -0.01586
C 25.78814 23.36328 -0.01971
C 25.83328 22.01267 -0.02118
C 24.60186 21.3549 0.00733
C 24.58578 19.88272 -0.00178
C 25.93258 19.16613 0.00768
C 25.8067 17.76963 -0.0276
C 24.57996 17.02415 0.03005
C 24.56519 15.63922 -0.04078
C 25.85696 0.75029 -0.01154
C 25.79382 14.82981 0.02117
C 24.57998 12.6517 -0.00498
C 24.53658 11.27617 0.00135
C 25.80183 10.57189 0.03102
C 25.83477 9.18745 0.02555
C 24.63644 8.47136 0.01423
C 24.52356 7.0809 -0.00285
C 25.81358 6.40435 -0.009
C 25.81706 4.95571 -0.01199
C 24.55551 4.27491 -0.00229
C 24.63555 2.86685 -0.00938
C 25.83211 13.42777 0.02737
C 2.46538 32.66503 -0.00407
