385
Graphene
C 34.38565 0.01889 0.01295
C 14.72063 32.72394 0.02162
C 15.92625 32.03375 0.0076
C 15.94793 30.52126 0.01241
C 14.7584 29.77316 -0.01454
C 14.78279 28.42992 0.01945
C 15.98336 27.69662 0.01416
C 15.99501 26.24907 0.03542
C 14.79565 25.61552 0.02299
C 14.76396 24.11424 0.00244
C 12.30169 0.17913 -0.0014
C 16.0094 23.42131 -0.01717
C 14.79931 21.24588 -0.01952
C 14.80521 19.87187 -0.02813
C 15.98521 19.07253 0.00374
C 15.98209 17.76374 0.00052
C 14.85596 16.95568 -0.03682
C 15.14986 15.53387 0.01965
C 15.99108 0.7236 0.02058
C 14.78497 0.15826 -0.01957
C 17.18756 32.61803 -0.0108
C 16.00866 22.00259 0.05265
C 18.45739 31.8714 -0.00368
C 13.47792 0.71181 0.00415
C 12.28817 17.09812 0.01363
C 11.09415 17.82177 0.00943
C 9.84038 17.05262 0.02841
C 9.84408 15.63115 -0.01111
C 11.03805 0.74307 -0.01275
C 9.79564 0.07579 0.00985
C 12.24526 32.77883 -0.02245
C 13.43827 32.00998 -0.00428
C 13.52688 30.58197 0.03101
C 12.27441 29.86791 -0.01536
C 12.08794 15.70983 -0.02162
C 12.33283 28.46498 -0.02689
C 13.54572 26.21738 -0.00891
C 12.28424 25.51953 0.02819
C 12.32868 24.09846 0.00165
C 13.53944 23.38203 -0.02971
C 13.51647 21.97674 0.02894
C 12.31133 21.26743 -0.01789
C 12.37324 19.8167 0.00444
C 13.67242 19.09695 -0.00925
C 13.68285 17.69299 0.01877
C 13.52418 27.75731 -0.01046
C 11.1185 19.22418 0.00406
C 18.36574 30.52896 -0.02696
C 17.20967 28.34766 0.00228
C 19.68317 25.53654 0.03338
C 19.72179 24.16318 -0.0258
C 20.88148 23.40376 -0.0331
C 20.83644 21.9452 -0.00316
C 19.6097 21.28569 0.02188
C 19.70252 19.86914 -0.01979
C 20.91245 19.12624 0.02691
C 20.91166 17.75491 -0.01581
C 19.68526 16.95234 0.01452
C 20.9122 26.24741 -0.00491
C 19.54125 15.58881 0.04892
C 20.90633 13.50564 -0.03557
C 19.57354 12.90584 0.03754
C 20.97118 10.50771 0.01739
C 21.0294 9.31165 0.00755
C 21.03827 6.40023 -0.0054
C 20.81311 5.06172 0.00667
C 19.564 4.26475 0.00143
C 19.40733 2.86013 -0.017
C 20.73322 2.11708 0.00364
C 20.82051 14.97843 -0.00111
C 17.15577 29.75413 -0.00114
C 20.87937 27.60648 -0.00109
C 19.65598 29.77862 -0.02213
C 18.47578 27.65784 0.00798
C 18.4317 26.28001 0.00422
C 17.25474 25.54035 0.0351
C 17.15454 24.14064 -0.03113
C 18.44471 23.47305 0.02098
C 18.441 22.03096 0.01848
C 17.25213 21.26408 -0.00619
C 17.2313 19.84026 -0.02162
C 18.45009 19.13142 0.00889
C 19.62876 28.37524 0.03698
C 18.48474 17.75276 -0.00481
C 16.82369 15.65252 0.01443
C 18.12123 14.96813 0.03505
C 18.60672 13.52272 -0.02815
C 18.33572 1.98157 -0.04147
C 18.43873 0.59922 -0.05302
C 17.18552 33.99125 0.00213
C 19.62935 32.6333 -0.00066
C 20.86771 31.90251 -0.00289
C 20.86531 30.46514 0.00028
C 17.28577 16.99922 0.00979
C 9.8781 20.01543 0.03592
C 9.83806 21.44415 0.00572
C 11.10034 22.08468 0.0402
C 3.60731 5.01313 -0.03113
C 2.38941 4.29765 -0.02566
C 2.33995 2.89117 -0.00094
C 3.61427 2.1817 0.02322
C 3.60982 0.79762 -0.00725
C 2.37373 0.10706 -0.05697
C 4.84779 32.7315 0.01087
C 6.13679 31.9914 -0.01343
C 6.10046 30.58683 0.00988
C 3.61334 6.42776 0.017
C 4.89759 29.88316 0.0276
C 6.14538 27.83716 -0.00077
C 6.07648 26.37848 0.03368
C 4.83817 25.62986 -0.02929
C 4.88637 24.21507 -0.00966
C 6.07881 23.48613 -0.03337
C 6.12273 22.07068 0.01227
C 4.95035 21.34843 0.00873
C 4.98321 19.88217 -0.00049
C 6.25837 19.25109 0.00848
C 4.92085 28.48098 0.01305
C 6.30274 17.77943 -0.01303
C 2.4071 7.09805 -0.00643
C 3.66704 9.12232 -0.00518
C 3.64028 30.55675 0.03189
C 2.41571 29.86511 0.00031
C 2.44705 28.43637 -0.003
C 3.66951 27.76618 0.01402
C 3.69013 26.27141 0.02379
C 2.4062 25.60539 0.00907
C 2.45851 24.17135 0.00643
C 3.55935 23.41174 -0.01509
C 3.69252 22.02647 0.03267
C 2.4339 8.48178 0.0086
C 2.42303 21.2832 0.02374
C 3.72605 19.32061 0.0073
C 3.76587 17.80957 0.0174
C 2.5366 17.09646 0.03828
C 2.4722 15.65254 0.01226
C 3.64474 14.93295 -0.00279
C 3.62525 13.52134 0.01996
C 2.43015 12.77109 -0.03996
C 2.41766 11.34136 0.01465
C 3.66213 10.58232 -0.00074
C 2.44382 19.83732 0.00402
C 5.0092 17.11144 -0.01378
C 4.97568 15.64313 0.02635
C 6.23088 14.95706 0.0127
C 8.70953 19.19838 -0.00131
C 8.6765 17.72492 -0.01118
C 7.45479 17.09405 -0.014
C 7.46106 15.65394 0.02147
C 8.67049 14.92004 0.00373
C 7.1974 12.73909 -0.00191
C 7.28834 2.67304 0.00438
C 8.42895 2.17961 0.01291
C 8.57091 0.80174 0.00093
C 7.43812 19.98938 -0.02896
C 7.32855 0.08051 0.00057
C 11.0675 32.02349 -0.00334
C 11.06771 30.58295 0.02339
C 9.8824 29.87501 0.01641
C 9.88793 28.42532 -0.00719
C 11.11716 27.76417 0.01364
C 11.09396 26.34918 -0.01062
C 9.85737 25.60508 -0.00033
C 9.8485 24.20772 0.03589
C 11.0578 23.48495 -0.02759
C 9.86175 32.74397 -0.01634
C 7.37155 21.4014 -0.01004
C 8.63024 22.12412 0.00488
C 8.62373 23.55497 0.01745
C 6.05013 13.49757 0.01396
C 4.818 12.80239 0.01849
C 4.83919 11.34198 -0.01142
C 6.21426 10.90331 -0.00562
C 4.88734 8.36211 -0.00494
C 4.94738 6.95318 0.00054
C 5.90648 5.38992 0.03007
C 4.86689 4.37456 -0.00095
C 4.83448 2.95321 0.01572
C 5.935 2.08655 -0.04848
C 6.01768 0.73384 -0.00892
C 4.8284 0.03708 -0.01362
C 7.33812 32.7825 -0.0008
C 8.58552 32.04749 0.0288
C 8.58875 30.57528 0.00393
C 7.38187 29.93221 0.00895
C 7.35912 28.47874 0.00685
C 8.62404 27.80179 0.02888
C 8.60654 26.36344 -0.00482
C 7.34701 25.68867 -0.01384
C 7.3473 24.26736 0.03693
C 20.8572 0.65812 -0.00831
C 3.61819 31.94062 -0.04307
C 19.68791 34.00646 -0.02957
C 23.29725 31.93864 0.00654
C 29.40496 4.21731 0.0103
C 29.45656 2.87857 0.02108
C 30.64909 2.1233 0.00716
C 30.69872 0.72235 0.00307
C 29.47692 0.00023 0.00346
C 31.9292 32.68899 0.01713
C 33.15656 31.99478 -0.01694
C 33.1797 30.5393 0.01428
C 31.94695 29.82924 -0.02142
C 30.62846 4.97624 0.07705
C 31.93288 28.40582 0.0544
C 33.16929 26.24148 0.00682
C 31.88111 25.57939 -0.01779
C 31.95888 24.19812 0.03794
C 33.11602 23.42046 0.01927
C 33.22587 21.98903 0.01574
C 32.02379 21.29605 -0.02383
C 31.99001 19.87843 -0.01429
C 33.24684 19.19037 -0.0136
C 33.26563 17.81422 0.00594
C 33.14747 27.69303 0.00026
C 32.01292 17.00651 -0.02474
C 30.62968 6.40491 0.01908
C 29.42427 8.52178 -0.00971
C 29.43486 29.81291 0.0014
C 29.49771 28.32647 0.00924
C 30.70913 27.70528 0.02326
C 30.73379 26.32558 0.00261
C 29.50497 25.58281 0.03265
C 29.56501 24.18969 -0.02049
C 30.7209 23.42449 -0.01854
C 30.71308 22.05952 -0.01415
C 29.44564 21.38062 -0.03039
C 29.42506 7.08704 0.01518
C 29.57975 19.90937 0.01836
C 30.76606 17.75744 -0.00669
C 29.57224 17.04215 0.0101
C 29.55703 15.61789 0.01705
C 30.70771 14.86912 -0.0405
C 30.68199 13.44924 -0.01303
C 29.44457 12.73696 -0.01461
C 29.46089 11.32774 -0.02155
C 30.66524 10.6284 -0.00944
C 30.66708 9.20479 -0.03735
C 30.77122 19.17844 0.03531
C 30.68022 30.52963 0.01324
C 31.94514 15.5911 0.00369
C 33.22289 13.53389 -0.00644
C 34.43021 21.28648 -0.02213
C 0.01883 19.89943 0.01951
C 1.24951 19.22276 -0.01678
C 1.28243 17.76308 0.01223
C 0.05772 17.01994 0.00648
C 0.04422 15.68809 0.02114
C 1.21144 14.86829 -0.02957
C 1.25257 13.52528 0.00343
C 0.00238 12.73673 -0.02656
C 1.17359 21.97984 0.02712
C 0.0044 11.41807 -0.02442
C 1.24217 9.15508 -0.00583
C 34.31877 8.46671 -0.02302
C 34.39142 7.12648 -0.02849
C 1.17956 6.41069 0.02931
C 1.13378 5.05192 0.00628
C 34.32649 4.29858 -0.0345
C 34.38548 2.95856 -0.00931
C 1.14774 2.20736 -0.00939
C 1.15152 0.76089 -0.00468
C 1.17863 10.62923 -0.00027
C 33.1787 14.91191 0.00455
C 1.16533 23.4072 0.00723
C 0.01408 25.63303 -0.05239
C 31.94831 12.77175 -0.01839
C 31.94172 11.31343 0.00137
C 33.17624 10.64548 0.00199
C 33.15162 9.18267 0.04381
C 31.90456 8.49243 0.02806
C 31.84604 7.07877 0.01504
C 33.13443 6.38511 -0.00069
C 33.04838 4.99548 0.04926
C 31.84404 4.2443 -0.03838
C 34.41042 24.1173 0.03076
C 31.8808 2.8194 0.00349
C 33.1594 0.72908 -0.00841
C 31.92027 0.07063 0.0001
C 34.34369 32.72479 -0.02927
C 1.19436 32.00213 -0.01404
C 1.21078 30.6035 0.01027
C 34.38489 29.82297 0.01831
C 34.32189 28.40331 -0.01037
C 1.20869 27.7361 -0.00439
C 1.19173 26.31942 -0.00598
C 33.13251 2.18356 -0.00323
C 30.70233 31.97804 0.04266
C 29.45176 32.63674 0.01177
C 26.99898 34.06792 -0.00416
C 23.30857 4.9379 -0.00381
C 22.01758 4.28594 0.03046
C 21.97062 2.85584 0.0296
C 23.19584 2.10494 0.03374
C 23.23542 0.65923 -0.02845
C 22.06689 34.03986 -0.03213
C 24.50985 32.60486 0.02239
C 25.81723 31.92004 0.01153
C 25.81891 30.4637 0.02734
C 23.33428 6.37947 0.01852
C 24.52549 29.7842 -0.0055
C 25.73724 27.63598 -0.00225
C 25.8292 26.16845 0.00071
C 24.52843 25.51218 -0.01107
C 24.54619 24.03832 -0.01586
C 25.80388 23.34378 -0.01971
C 25.79254 21.99591 -0.02118
C 24.62383 21.31637 0.00733
C 24.66067 19.91799 -0.00178
C 25.88832 19.18992 0.00768
C 24.59947 28.33544 0.01515
C 25.95331 17.79099 -0.0276
C 22.22771 7.05777 0.01126
C 23.3842 9.18996 -0.01662
C 23.32895 30.40632 -0.00703
C 22.10471 29.74174 -0.04076
C 22.06718 28.37498 -0.00652
C 23.32678 27.62104 0.0058
C 23.37217 26.18859 -0.00865
C 22.09752 25.48583 0.00675
C 22.08446 24.08248 -0.00311
C 23.30093 23.37247 0.00742
C 23.39536 21.93073 -0.01594
C 22.22105 8.46059 -0.01185
C 22.10008 21.25712 0.0106
C 23.40847 19.20241 -0.01721
C 23.41883 17.70833 -0.02422
C 22.13502 16.99441 0.01277
C 22.10854 15.57934 0.00096
C 23.37465 14.94744 -0.01527
C 23.339 13.45156 0.01087
C 22.0622 12.81403 0.00199
C 22.12698 11.38629 0.01511
C 23.30471 10.61823 -0.00478
C 22.10306 19.87532 -0.01154
C 24.71193 17.05479 0.03005
C 24.62896 15.58983 -0.04078
C 25.85867 14.85648 0.02117
C 27.01462 21.20697 0.00622
C 27.11194 19.86548 -0.02815
C 28.35142 19.14998 -0.00942
C 28.33016 17.7585 0.00487
C 27.13587 17.00884 0.00826
C 27.13676 15.56041 -0.00294
C 28.33629 14.88626 0.00152
C 28.33682 13.50328 0.01257
C 27.00475 12.72606 0.02316
C 28.24994 22.05339 -0.0032
C 27.0402 11.34197 0.04185
C 28.23391 9.18653 -0.00621
C 27.0473 8.4889 0.02611
C 27.01398 7.07931 0.02198
C 28.25854 6.32783 0.01094
C 28.25581 4.91563 0.00235
C 26.97251 4.2789 0.01495
C 27.00504 2.82232 0.01259
C 28.16143 2.11459 0.01799
C 28.27902 0.7067 0.01699
C 28.25317 10.60545 0.00194
C 28.29014 23.38634 -0.00037
C 26.99047 24.04417 -0.01654
C 27.05633 25.46878 -0.00218
C 25.79078 13.46286 0.02737
C 24.53226 12.84404 -0.00498
C 24.52012 11.33023 0.00135
C 25.79048 10.70057 0.03102
C 25.81034 9.25563 0.02555
C 24.61785 8.51364 0.01423
C 24.60932 7.14906 -0.00285
C 25.7973 6.41978 -0.009
C 25.73201 4.93256 -0.01199
C 24.51674 4.23147 -0.00229
C 24.51248 2.81122 -0.00938
C 25.73784 2.07018 -0.0264
C 25.75062 0.58675 -0.01154
C 24.47733 34.03458 0.00684
C 27.04571 32.61223 -0.01052
C 28.26355 31.96048 -0.01679
C 28.21934 30.4807 0.00367
C 26.9984 29.78662 0.04306
C 27.04033 28.31945 0.00996
C 28.22962 27.64404 0.00195
C 28.26867 26.23602 -0.00802
C 22.07112 32.6461 -0.04422
C 2.40027 32.72529 0.03284
