440
Graphene
C 0.0228 0.03357 0.01295
C 13.58798 17.73656 -0.01634
C 12.25686 17.1218 -0.00334
C 12.29949 15.67057 0.02339
C 13.55621 14.90257 0.01641
C 13.59426 13.54746 -0.00719
C 12.33414 12.8248 0.01364
C 12.25848 11.357 -0.01062
C 13.48024 10.63888 -0.00033
C 13.48599 9.11901 0.03589
C 12.27673 8.49487 -0.02759
C 12.35524 7.12576 0.0402
C 13.55358 6.35612 0.00572
C 13.55662 4.96076 0.03592
C 12.33925 4.24591 0.00406
C 12.26159 2.91514 0.00943
C 13.52481 2.10755 0.02841
C 13.51479 0.64075 -0.01111
C 12.23007 34.05277 -0.01275
C 14.80316 32.60033 0.00985
C 15.93537 31.92862 -0.02245
C 15.95297 30.57221 -0.00428
C 14.75587 29.78002 0.03101
C 14.72114 28.43331 -0.01536
C 13.46489 19.22751 0.00057
C 12.3273 19.92952 0.00093
C 12.32791 21.33256 0.01291
C 13.55481 22.04471 0.00438
C 11.08172 13.49189 -0.00095
C 9.81161 12.79368 0.01572
C 9.82195 11.34675 -0.04848
C 11.09409 10.68057 -0.00892
C 11.06632 9.31432 -0.01362
C 9.80165 8.55718 -0.0008
C 9.82898 7.17922 0.0288
C 11.0997 6.34949 0.00393
C 11.09179 4.96969 0.00895
C 9.86689 4.3004 0.00685
C 9.91469 2.83444 0.02888
C 15.95651 27.65077 -0.02689
C 11.06118 2.15292 -0.00482
C 9.85421 34.03435 0.03693
C 12.22741 32.64557 0.01745
C 13.53555 31.94218 0.00488
C 13.58908 30.54778 -0.01004
C 12.28595 29.86803 -0.02896
C 12.32167 28.43522 -0.00131
C 13.48792 27.77133 -0.01118
C 13.50758 26.29102 -0.014
C 12.27531 25.50126 0.02147
C 12.31177 24.11365 0.00373
C 13.55037 23.4959 -0.00191
C 11.05892 0.67681 -0.01384
C 11.04446 14.91613 0.03007
C 15.99295 26.30349 -0.01046
C 14.78644 24.12946 0.02819
C 18.49446 27.73378 0.02058
C 18.4506 26.22711 -0.01957
C 17.23991 25.56724 -0.0108
C 17.23711 24.13294 -0.00368
C 18.47864 23.37296 -0.02696
C 18.40301 22.00539 -0.00114
C 17.18712 21.28597 0.00228
C 17.22164 19.8362 0.00798
C 18.45204 19.14581 0.00422
C 18.43585 17.7644 0.0351
C 17.15815 17.02641 -0.03113
C 17.18731 15.60406 0.02098
C 18.35839 14.94464 0.01848
C 17.19365 12.83869 -0.00619
C 17.20014 11.41057 -0.02162
C 18.47949 10.63118 0.00889
C 18.44844 9.2276 -0.00481
C 17.22171 8.54501 0.00979
C 17.2272 7.14617 0.01443
C 18.48541 6.4016 0.03505
C 18.45014 4.97865 -0.02815
C 17.22967 4.22801 -0.04147
C 17.18668 2.825 -0.05302
C 17.21456 28.39938 0.01965
C 17.25079 29.85158 -0.03682
C 18.42408 30.52869 0.00052
C 18.42178 31.95242 0.00374
C 15.96108 23.4525 0.00165
C 15.98022 22.0098 -0.02971
C 14.70979 21.30382 0.02894
C 14.74973 19.90721 -0.01789
C 16.01706 19.15146 0.00444
C 15.95513 17.72958 -0.00925
C 14.74735 16.9793 0.01877
C 14.73974 15.59282 0.01363
C 15.98315 14.87393 -0.02162
C 15.94899 13.46865 0.00415
C 14.78217 12.76502 -0.0014
C 14.83269 25.5773 -0.00891
C 14.72726 11.40998 0.02162
C 15.99934 9.18378 0.01241
C 14.72751 8.51822 -0.01454
C 14.73326 7.1093 0.01945
C 15.99095 6.4592 0.01416
C 16.00663 4.92345 0.03542
C 14.75316 4.27664 0.02299
C 14.72587 2.85939 0.00244
C 15.95636 2.12601 -0.01717
C 15.98722 0.70645 0.05265
C 14.74925 0.03341 -0.01952
C 17.23104 32.59764 -0.02813
C 15.98853 10.67654 0.0076
C 18.45318 2.1479 0.00213
C 9.84798 15.61477 0.00054
C 10.99793 17.81546 -0.00562
C 3.70244 0.73681 0.04421
C 2.46605 34.0463 0.00088
C 4.88611 32.66891 0.00828
C 6.1101 32.00548 -0.02375
C 6.19562 30.47964 0.00558
C 4.97678 29.84282 -0.0059
C 4.91274 28.37542 -0.01386
C 6.23093 27.65872 -0.02805
C 6.16389 26.25404 0.00081
C 4.86372 25.54869 0.00245
C 4.89291 24.23929 0.02728
C 6.13297 23.42995 -0.00039
C 6.16719 21.9942 0.0064
C 4.91573 21.28276 0.00211
C 4.99604 19.86989 -0.00449
C 4.88804 16.97367 -0.01979
C 4.95111 15.60905 0.02784
C 6.05374 14.85609 -0.01977
C 6.12804 13.55574 -0.00561
C 4.87408 12.83059 0.00208
C 4.90944 11.38494 0.01707
C 6.18469 10.70192 0.02769
C 6.16981 9.1451 -0.03291
C 3.73257 2.12979 -0.00177
C 2.51619 2.88098 0.03278
C 2.48048 4.28628 0.01138
C 3.69008 4.97318 -0.00407
C 3.66212 30.48917 0.01116
C 2.45364 29.80135 -0.0005
C 2.48849 28.39464 -0.00018
C 3.69882 27.65177 0.01073
C 3.69175 26.2875 0.01984
C 2.47233 25.61819 0.00535
C 2.42994 24.1534 -0.00198
C 3.74769 23.44001 -0.00012
C 3.74642 22.00108 -0.04306
C 2.47476 21.33676 -0.03672
C 2.41993 19.78813 0.01913
C 4.93028 8.48673 -0.04999
C 3.67312 19.19498 0.00267
C 2.39122 16.98092 0.02426
C 2.46508 15.61052 0.01218
C 3.66473 14.93173 -0.01471
C 3.66175 13.51897 -0.02827
C 2.49098 12.72286 0.01078
C 2.44684 11.37878 -0.00112
C 3.69175 10.65371 0.03345
C 3.73276 9.22681 0.00748
C 2.45202 8.48861 0.00662
C 2.45168 7.08133 -0.0154
C 3.72171 6.41449 -0.01299
C 3.70014 17.75479 0.00787
C 9.79546 17.05723 -0.00494
C 4.95715 7.07965 0.04505
C 6.14433 5.01116 -0.04307
C 7.38523 8.5289 -0.00725
C 7.40078 7.14574 -0.05697
C 8.56839 6.48764 0.01087
C 8.58747 5.01813 -0.01343
C 7.38223 4.28844 0.00988
C 7.30185 2.86628 0.0276
C 8.61118 2.18258 0.01305
C 8.62525 0.71916 -0.00077
C 7.39408 0.00598 0.03368
C 9.82112 32.6908 -0.02929
C 11.03274 31.99158 -0.00966
C 11.06483 30.54986 -0.03337
C 9.7744 29.8341 0.01227
C 9.82161 28.45119 0.00873
C 11.08073 27.66753 -0.00049
C 11.09102 26.24971 0.00848
C 9.80444 25.61778 -0.01303
C 9.82414 24.17957 -0.01378
C 11.12208 23.49114 0.02635
C 11.08572 21.97577 0.0127
C 9.81943 21.32643 0.01396
C 9.79822 19.89366 0.01849
C 11.09203 19.18445 -0.01142
C 8.56986 9.26663 0.02322
C 8.51309 10.64494 -0.00094
C 7.33715 11.3781 -0.02566
C 7.359 12.72873 -0.03113
C 4.92258 4.29353 0.03189
C 4.86428 2.8391 0.00031
C 6.13758 2.18412 -0.003
C 6.13903 0.69565 0.01402
C 4.90375 0.01379 0.02379
C 7.37286 32.71025 0.00907
C 8.64292 31.96076 0.00643
C 8.61442 30.58688 -0.01509
C 7.37545 29.79988 0.03267
C 7.38945 28.40092 0.02374
C 8.62386 27.69913 0.00402
C 6.09691 6.43077 0.03284
C 8.65983 26.28004 0.0073
C 7.3834 24.0902 0.03828
C 8.66854 23.41307 0.01226
C 8.58455 22.04721 -0.00279
C 7.36205 21.3185 0.01996
C 7.39559 19.90737 -0.03996
C 8.57555 19.16772 0.01465
C 8.58078 17.73141 -0.00074
C 7.36156 17.05424 -0.00518
C 7.43526 15.68329 0.0086
C 8.61836 14.84202 -0.00643
C 8.6246 13.45616 0.017
C 7.39979 25.56976 0.0174
C 18.43177 0.74171 -0.00066
C 17.22246 34.02205 -0.00289
C 19.64455 32.67748 0.00028
C 30.80813 14.85581 -0.0405
C 30.70725 13.44081 -0.01303
C 29.4756 12.80718 -0.01461
C 29.49081 11.34432 -0.02155
C 30.70852 10.67733 -0.00944
C 30.72461 9.24207 -0.03735
C 29.51912 8.47325 -0.00971
C 29.55112 7.08577 0.01518
C 30.75774 6.43154 0.01908
C 30.81599 4.96157 0.07705
C 29.51167 4.18833 0.0103
C 29.53059 2.83061 0.02108
C 30.7855 2.09668 0.00716
C 30.71473 0.68342 0.00307
C 29.51988 34.05058 0.00346
C 31.95898 32.66507 0.01713
C 33.18987 31.96696 -0.01694
C 33.2309 30.59544 0.01428
C 31.96913 29.82383 -0.02142
C 32.02044 28.45298 0.0544
C 33.17292 27.72337 0.00026
C 33.19295 26.28634 0.00682
C 31.96302 25.55474 -0.01779
C 29.57126 15.64944 0.01705
C 29.53647 17.0257 0.0101
C 30.71195 17.70133 -0.00669
C 30.73197 19.18986 0.03531
C 28.29674 10.67253 0.00194
C 28.31544 9.29026 -0.00621
C 27.01264 8.44727 0.02611
C 27.02545 7.07045 0.02198
C 28.28907 6.37756 0.01094
C 28.34791 4.96407 0.00235
C 26.99203 4.224 0.01495
C 27.00212 2.85053 0.01259
C 28.27059 2.08632 0.01799
C 28.25025 0.69203 0.01699
C 27.04443 34.00363 -0.00416
C 31.98137 24.20428 0.03794
C 29.51292 32.69 0.01177
C 30.74522 30.51703 0.01324
C 29.51963 29.79346 0.0014
C 29.47556 28.36004 0.00924
C 30.69821 27.69349 0.02326
C 30.73174 26.27766 0.00261
C 29.54441 25.49049 0.03265
C 29.51836 24.10036 -0.02049
C 30.72225 23.48265 -0.01854
C 30.76692 22.06266 -0.01415
C 29.52657 21.36817 -0.03039
C 29.49202 19.89298 0.01836
C 30.71496 31.93504 0.04266
C 27.06476 11.39174 0.04185
C 33.22595 23.42084 0.01927
C 32.00081 21.30871 -0.02383
C 34.40378 24.12572 0.03076
C 1.2052 23.4375 0.00723
C 1.20243 22.0407 0.02712
C 34.4215 21.36402 -0.02213
C 0.01191 19.83525 0.01951
C 1.22578 19.13765 -0.01678
C 1.16267 17.73093 0.01223
C 34.42019 17.04667 0.00648
C 0.03448 15.61025 0.02114
C 1.16295 14.85047 -0.02957
C 1.20184 13.47737 0.00343
C 0.02113 12.76512 -0.02656
C 34.407 11.31213 -0.02442
C 1.19092 10.68383 -0.00027
C 1.26005 9.193 -0.00583
C 0.00722 8.52036 -0.02302
C 0.0248 7.11759 -0.02849
C 1.1932 6.3506 0.02931
C 1.24559 4.88969 0.00628
C 34.4219 4.21145 -0.0345
C 34.40629 2.80537 -0.00931
C 1.26936 2.13837 -0.00939
C 1.29198 0.68736 -0.00468
C 34.408 25.61258 -0.05239
C 1.16289 26.26556 -0.00598
C 1.165 27.65965 -0.00439
C 0.00136 28.34442 -0.01037
C 31.93695 19.90101 -0.01429
C 33.24179 19.15813 -0.0136
C 33.21693 17.74577 0.00594
C 31.88594 17.04627 -0.02474
C 31.94333 15.54938 0.00369
C 33.23084 14.87874 0.00455
C 33.22116 13.45388 -0.00644
C 32.0024 12.72523 -0.01839
C 32.00769 11.30115 0.00137
C 33.22132 10.62774 0.00199
C 33.17465 9.23486 0.04381
C 33.23312 21.94487 0.01574
C 31.93213 8.50391 0.02806
C 33.18393 6.42338 -0.00069
C 33.25849 4.91993 0.04926
C 32.05894 4.23059 -0.03838
C 31.95451 2.80404 0.00349
C 33.19 2.10628 -0.00323
C 33.21791 0.70257 -0.00841
C 31.97024 34.05199 0.0001
C 0.03836 32.68102 -0.02927
C 1.20469 31.94493 -0.01404
C 1.23666 30.54783 0.01027
C 0.0432 29.80937 0.01831
C 32.02156 7.12507 0.01504
C 27.08556 12.80711 0.02316
C 28.28577 13.52264 0.01257
C 28.32214 14.84645 0.00152
C 23.34698 31.9572 -0.00703
C 23.40147 30.54654 -0.04076
C 22.12597 29.8899 -0.00652
C 22.10246 28.40274 0.0058
C 23.3635 27.71212 -0.00865
C 23.33846 26.30056 0.00675
C 22.13091 25.55062 -0.00311
C 22.17577 24.15218 0.00742
C 23.36628 23.47084 -0.01594
C 23.35951 21.96588 0.0106
C 22.16516 21.35342 -0.01154
C 22.16193 19.89189 -0.01721
C 23.39063 19.1297 -0.02422
C 23.29072 17.70038 0.01277
C 22.14421 17.0232 0.00096
C 22.11533 15.59724 -0.01527
C 23.47493 14.91976 0.01087
C 23.35826 13.49915 0.00199
C 22.15738 11.33538 0.01511
C 23.36797 10.64814 -0.00478
C 23.26238 9.23169 -0.01662
C 22.06235 8.51842 -0.01185
C 22.1012 7.07413 0.01126
C 22.10374 32.66856 0.00654
C 19.69589 34.05317 -0.04422
C 20.82179 0.68468 -0.02957
C 20.90902 2.14134 -0.00831
C 20.87438 31.96961 -0.02213
C 20.86626 30.50426 0.03698
C 19.63093 29.81845 -0.00109
C 19.66842 28.38873 -0.00491
C 20.89456 27.66658 0.03338
C 20.89033 26.27228 -0.0258
C 19.68071 25.47838 -0.0331
C 19.68887 24.12554 -0.00316
C 20.90065 23.4175 0.02188
C 20.92536 22.02161 -0.01979
C 19.76166 21.38905 0.02691
C 23.3691 6.37791 0.01852
C 19.63692 19.83663 -0.01581
C 20.88951 17.70165 0.04892
C 19.67168 17.09589 -0.00111
C 19.61562 11.35272 -0.03557
C 20.90975 10.66242 0.03754
C 20.95167 9.2537 0.01739
C 19.69698 8.53675 0.00755
C 19.66559 7.10774 -0.0054
C 20.88595 6.33585 0.00667
C 20.90597 4.99507 0.00143
C 19.68607 4.27173 -0.017
C 19.65152 2.83875 0.00364
C 20.86798 19.14749 0.01452
C 23.35787 4.93598 -0.00381
C 22.11308 4.24041 0.03046
C 22.15205 2.83502 0.0296
C 25.84897 6.36034 -0.009
C 25.81828 5.01461 -0.01199
C 24.63667 4.30336 -0.00229
C 24.55927 2.85605 -0.00938
C 25.83345 2.11461 -0.0264
C 25.8484 0.73466 -0.01154
C 24.60535 0.06968 0.00684
C 27.07849 32.59698 -0.01052
C 28.28619 31.90136 -0.01679
C 28.36967 30.53246 0.00367
C 27.02482 29.88121 0.04306
C 24.6119 7.08905 -0.00285
C 27.05772 28.45211 0.00996
C 28.29378 26.25361 -0.00802
C 27.06339 25.51569 -0.00218
C 27.01263 24.11114 -0.01654
C 28.32959 23.40439 -0.00037
C 28.27981 21.99165 -0.0032
C 26.99477 21.31315 0.00622
C 27.03811 19.86395 -0.02815
C 28.23949 19.16603 -0.00942
C 28.29367 17.72478 0.00487
C 26.98505 16.97242 0.00826
C 27.01159 15.60643 -0.00294
C 28.27062 27.72111 0.00195
C 3.70797 31.9937 -0.0213
C 24.55486 8.42595 0.01423
C 25.85031 10.64211 0.03102
C 23.36478 2.18055 0.03374
C 23.34443 0.71366 -0.02845
C 22.11988 0.05115 -0.03213
C 24.61176 32.65861 0.02239
C 25.83989 31.91035 0.01153
C 25.81627 30.50475 0.02734
C 24.58638 29.80484 -0.0055
C 24.59207 28.37638 0.01515
C 25.84862 27.72811 -0.00225
C 25.81282 26.27959 0.00071
C 24.6012 25.59644 -0.01107
C 25.78482 9.19062 0.02555
C 24.5635 24.18126 -0.01586
C 25.78041 21.9761 -0.02118
C 24.52088 21.27114 0.00733
C 24.52097 19.86802 -0.00178
C 25.79588 19.1831 0.00768
C 25.84576 17.83295 -0.0276
C 24.56462 17.03708 0.03005
C 24.61436 15.65661 -0.04078
C 25.7958 14.88654 0.02117
C 25.86602 13.44732 0.02737
C 24.58785 12.82479 -0.00498
C 24.59556 11.41202 0.00135
C 25.86204 23.43446 -0.01971
C 2.52749 32.65298 -0.00374
