350
Graphene
C 34.40616 34.07852 0.01295
C 11.09006 6.31732 0.00798
C 11.06379 4.96666 0.00422
C 9.81823 4.32364 0.0351
C 9.88842 2.90394 -0.03113
C 10.99294 2.0856 0.02098
C 11.08091 0.6613 0.01848
C 9.7975 34.05581 -0.00619
C 12.26301 32.6372 -0.02162
C 13.51873 31.9041 0.00889
C 13.49645 30.55 -0.00481
C 12.28786 29.89902 0.00979
C 12.26775 28.40694 0.01443
C 13.48859 27.71482 0.03505
C 13.5833 26.25006 -0.02815
C 12.31801 25.64023 -0.04147
C 12.27058 24.19202 -0.05302
C 13.45873 23.46958 0.00213
C 9.84624 7.16784 0.00228
C 9.92688 8.53618 -0.00114
C 11.11192 9.15142 -0.02696
C 11.15492 10.6117 -0.00368
C 9.78291 29.83622 0.01241
C 9.86843 28.47466 -0.01454
C 11.03887 27.6823 0.01945
C 11.10025 26.26356 0.01416
C 9.82164 25.62454 0.03542
C 9.90437 24.23443 0.02299
C 11.0906 23.48892 0.00244
C 11.03984 22.05823 -0.01717
C 13.50485 22.08242 -0.00066
C 9.81916 21.3413 0.05265
C 10.95234 19.16521 -0.02813
C 10.82955 17.6412 0.00374
C 9.4238 16.96666 0.00052
C 9.78399 15.53597 -0.03682
C 11.09706 14.95767 0.01965
C 11.1677 13.498 0.02058
C 9.93503 12.76296 -0.01957
C 9.92029 11.29544 -0.0108
C 9.7015 19.89857 -0.01952
C 12.28971 21.32334 -0.00289
C 12.17667 19.891 0.00028
C 13.46969 19.14814 -0.02213
C 14.83951 28.41858 0.00364
C 16.02337 27.66725 -0.00831
C 15.98497 26.19612 -0.02957
C 14.71338 25.58366 -0.04422
C 14.72804 24.14323 0.00654
C 16.00952 23.3681 -0.00703
C 15.92232 21.94731 -0.04076
C 14.67904 21.27694 -0.00652
C 14.79957 29.84565 -0.017
C 14.68384 19.78313 0.0058
C 15.99577 17.77257 0.00675
C 14.74216 17.06146 -0.00311
C 14.70928 15.70718 0.00742
C 15.92201 14.8782 -0.01594
C 15.99839 13.68312 0.0106
C 14.78921 12.86555 -0.01154
C 14.76435 11.38177 -0.01721
C 15.98087 10.5112 -0.02422
C 15.90579 19.13092 -0.00865
C 11.01803 30.50166 0.0076
C 16.01283 30.57208 0.00143
C 14.74965 32.6888 -0.0054
C 13.47016 17.77889 0.03698
C 12.222 17.05879 -0.00109
C 12.30927 15.67097 -0.00491
C 13.5155 14.91541 0.03338
C 13.59757 13.5559 -0.0258
C 12.43381 12.75981 -0.0331
C 12.35168 11.35711 -0.00316
C 13.55733 10.63606 0.02188
C 15.93985 31.98118 0.00667
C 13.53758 9.21326 -0.01979
C 12.24425 7.08793 -0.01581
C 13.47322 6.41801 0.01452
C 13.58653 4.98606 0.04892
C 12.37393 4.21524 -0.00111
C 12.24774 2.7976 -0.03557
C 13.47389 2.11253 0.03754
C 13.45964 0.67132 0.01739
C 12.22993 34.01648 0.00755
C 12.31423 8.468 0.02691
C 11.03325 31.95803 0.02162
C 9.81245 32.64875 -0.0014
C 7.41514 0.00356 0.00415
C 2.51044 7.11584 -0.04848
C 3.7449 6.37543 -0.00892
C 3.72386 4.98283 -0.01362
C 2.51435 4.27338 -0.0008
C 2.46049 2.85664 0.0288
C 3.73181 2.13645 0.00393
C 3.71664 0.7725 0.00895
C 2.44351 0.06299 0.00685
C 2.53527 8.5066 0.01572
C 4.84845 32.77867 0.02888
C 6.09794 30.59216 -0.01384
C 4.89691 29.87685 0.03693
C 4.84596 28.40092 0.01745
C 6.01787 27.71838 0.00488
C 6.1413 26.32284 -0.01004
C 4.92066 25.57219 -0.02896
C 4.89032 24.14077 -0.00131
C 6.11854 23.45729 -0.01118
C 6.07288 31.97273 -0.00482
C 6.11317 22.03457 -0.014
C 3.71771 9.32492 -0.00095
C 2.34363 11.40679 0.00054
C 3.5888 30.60628 -0.00077
C 2.35495 29.90675 0.03368
C 2.37195 28.41338 -0.02929
C 3.58546 27.71861 -0.00966
C 3.61777 26.28777 -0.03337
C 2.41187 25.5362 0.01227
C 2.41124 24.15677 0.00873
C 3.5797 23.42613 -0.00049
C 3.66906 10.75265 0.03007
C 3.66308 21.98 0.00848
C 2.39972 19.79172 -0.01378
C 3.70812 19.08627 0.02635
C 3.73468 17.60284 0.0127
C 2.49031 16.91954 0.01396
C 2.49637 15.55021 0.01849
C 3.75941 14.81991 -0.01142
C 3.83548 13.30076 -0.00562
C 2.47705 12.81194 -0.00494
C 2.3646 21.26939 -0.01303
C 15.93598 9.34209 0.01277
C 4.86745 21.38033 0.02147
C 6.08654 19.23528 -0.00191
C 7.37006 24.21073 0.00985
C 8.60402 23.51407 -0.02245
C 8.59022 22.14411 -0.00428
C 7.3251 21.35799 0.03101
C 7.26949 19.94468 -0.01536
C 8.45632 19.19891 -0.02689
C 8.2725 17.81209 -0.01046
C 7.42712 11.42389 -0.00891
C 7.39302 25.58653 -0.01275
C 8.65796 10.66917 0.02819
C 7.33235 8.58026 -0.02971
C 7.33722 7.12238 0.02894
C 8.63468 6.4552 -0.01789
C 8.62618 4.99191 0.00444
C 7.39733 4.26769 -0.00925
C 7.40842 2.91991 0.01877
C 8.64542 2.19863 0.01363
C 8.62331 0.81586 -0.02162
C 8.55616 9.28426 0.00165
C 4.86219 19.87813 0.00373
C 8.5586 26.33476 -0.01111
C 7.29946 28.45275 0.00943
C 6.29726 17.7655 0.00438
C 5.00546 16.99379 0.01291
C 4.74472 11.65162 0.00093
C 6.07526 10.90915 0.00057
C 6.1221 9.40926 -0.01634
C 4.93247 8.59191 -0.00334
C 4.95553 7.15222 0.02339
C 6.14306 6.3731 0.01641
C 8.60035 27.74451 0.02841
C 6.13968 4.99229 -0.00719
C 4.97942 2.87333 -0.01062
C 6.18248 2.20092 -0.00033
C 6.1143 0.75908 0.03589
C 4.90761 0.13038 -0.02759
C 7.29321 32.6985 0.0402
C 8.53482 31.97301 0.00572
C 8.52603 30.56465 0.03592
C 7.26345 29.85399 0.00406
C 4.99345 4.30278 0.01364
C 14.66406 8.46438 0.00096
C 14.68437 7.05311 -0.01527
C 15.86389 6.36049 0.01087
C 30.712 2.18102 -0.01694
C 30.75058 0.73359 0.01428
C 29.51919 0.02743 -0.02142
C 31.94621 32.75787 0.0544
C 33.22082 31.96095 0.00026
C 33.22822 30.54545 0.00682
C 31.95235 29.87122 -0.01779
C 31.89542 28.39122 0.03794
C 29.53213 2.88377 0.01713
C 33.17774 27.67324 0.01927
C 31.92088 25.56689 -0.02383
C 31.8717 24.10396 -0.01429
C 33.10315 23.35446 -0.0136
C 32.94363 21.97291 0.00594
C 31.65304 21.31406 -0.02474
C 31.79192 19.84515 0.00369
C 33.0655 19.16235 0.00455
C 33.1393 17.78838 -0.00644
C 33.11891 26.27227 0.01574
C 31.8376 17.35326 -0.01839
C 29.63369 4.34462 0.00346
C 30.81611 18.70986 0.00716
C 28.39149 23.53152 -0.03039
C 28.66002 22.01198 0.01836
C 27.43583 21.44471 0.03531
C 27.13306 2.92071 -0.00669
C 28.26991 2.1182 0.0101
C 28.39004 0.70178 0.01705
C 27.1355 0.03062 -0.0405
C 29.50873 32.75471 -0.01303
C 30.6924 4.96685 0.00307
C 30.75371 31.99699 -0.01461
C 29.46489 29.85181 -0.00944
C 29.49299 28.45174 -0.03735
C 30.71702 27.70774 -0.00971
C 30.68865 26.2962 0.01518
C 29.47602 25.59946 0.01908
C 29.53437 24.30743 0.07705
C 30.68791 23.4712 0.0103
C 30.40076 22.00527 0.02108
C 30.74013 30.5126 -0.02155
C 27.10179 24.09938 -0.01415
C 33.16475 14.96399 0.00137
C 33.39515 10.28118 0.04381
C 1.10402 19.17575 -0.01678
C 1.28103 17.63776 0.01223
C 34.40026 17.02064 0.00648
C 0.04321 15.63435 0.02114
C 1.25041 14.8301 -0.02957
C 1.17487 13.49279 0.00343
C 34.32706 12.7911 -0.02656
C 34.36401 11.31621 -0.02442
C 34.32467 19.85963 0.01951
C 1.20535 10.62549 -0.00027
C 0.12603 8.40363 -0.02302
C 0.08686 6.99299 -0.02849
C 1.3125 6.40177 0.02931
C 1.30944 4.95421 0.00628
C 34.40651 4.32734 -0.0345
C 34.42237 2.88695 -0.00931
C 1.23808 2.16531 -0.00939
C 1.21216 0.71221 -0.00468
C 1.28302 9.21294 -0.00583
C 33.20467 13.71567 0.00199
C 34.27137 21.2949 -0.02213
C 1.10511 23.4172 0.00723
C 33.25505 9.1222 0.02806
C 32.03483 7.15383 0.01504
C 33.271 6.43823 -0.00069
C 33.28168 5.00313 0.04926
C 32.01551 4.25499 -0.03838
C 31.95596 2.88896 0.00349
C 33.18109 2.15386 -0.00323
C 33.16486 0.75661 -0.00841
C 1.07099 21.8972 0.02712
C 31.90496 0.01534 0.0001
C 1.19709 32.01188 -0.01404
C 1.19854 30.61194 0.01027
C 34.34921 29.8102 0.01831
C 34.34535 28.42821 -0.01037
C 1.17619 27.68012 -0.00439
C 1.12124 26.29886 -0.00598
C 34.36236 25.5098 -0.05239
C 34.35477 24.1535 0.03076
C 0.00161 32.72017 -0.02927
C 3.66457 31.98919 0.01305
C 26.99546 25.50448 -0.01854
C 28.23414 27.69712 0.03265
C 18.13558 6.31699 -0.01971
C 18.64227 5.01577 -0.02118
C 17.30556 4.35029 0.00733
C 17.26325 2.92134 -0.00178
C 18.4419 2.18834 0.00768
C 18.41387 0.72676 -0.0276
C 17.11062 0.00654 0.03005
C 19.69922 32.7368 -0.04078
C 17.20721 7.04559 -0.01586
C 20.92114 32.02038 0.02117
C 19.68446 29.88417 -0.00498
C 19.69233 28.43329 0.00135
C 20.92619 27.7177 0.03102
C 20.91609 26.2591 0.02555
C 19.64255 25.52286 0.01423
C 19.64251 24.1413 -0.00285
C 20.86214 23.35255 -0.009
C 20.91728 21.91853 -0.01199
C 20.881 30.57107 0.02737
C 19.56069 21.31472 -0.00229
C 17.38438 17.31416 -0.01107
C 17.08576 19.85448 -0.00225
C 15.95514 4.93458 0.00199
C 14.77901 4.24988 0.01511
C 14.74737 2.84499 -0.00478
C 15.97949 2.17344 -0.01662
C 15.92429 0.67689 -0.01185
C 14.72127 34.02234 0.01126
C 17.18865 32.62229 0.01852
C 18.4344 31.99543 -0.00381
C 18.21715 18.84662 0.00071
C 18.44867 30.60389 0.03046
C 17.22238 28.43412 0.03374
C 18.4478 27.64116 -0.02845
C 18.4448 26.19781 -0.03213
C 17.2092 25.55805 0.02239
C 17.23425 24.09907 0.01153
C 18.40099 23.36476 0.02734
C 18.34603 21.97874 -0.0055
C 17.14499 21.33355 0.01515
C 17.24304 29.90242 0.0296
C 28.25135 26.27853 -0.02049
C 19.15977 19.75231 -0.00938
C 19.66385 2.88058 -0.01154
C 24.56933 29.85447 0.00194
C 24.55498 28.4545 -0.00621
C 25.79832 27.71753 0.02611
C 25.81917 26.24732 0.02198
C 24.63738 25.44606 0.01094
C 24.56486 23.99778 0.00235
C 25.87385 23.28524 0.01495
C 25.89091 21.77549 0.01259
C 25.80646 30.53346 0.04185
C 24.66993 21.18769 0.01799
C 25.95634 2.18954 -0.00416
C 25.93112 0.69408 0.01177
C 24.57506 0.11132 0.04266
C 27.05932 32.61932 0.01324
C 28.27714 31.94411 0.0014
C 28.29749 30.5469 0.00924
C 27.03112 29.82565 0.02326
C 27.04914 28.44599 0.00261
C 24.68199 2.7998 0.01699
C 19.822 4.26371 -0.0264
C 25.79855 31.95614 0.02316
C 22.08275 0.02094 0.00152
C 20.93742 2.14499 0.00684
C 20.88843 0.76672 -0.01052
C 19.74315 0.06029 -0.01679
C 22.1638 32.67212 0.00367
C 23.38721 31.93538 0.04306
C 23.34845 30.55828 0.00996
C 22.10323 29.8682 0.00195
C 22.18483 28.43475 -0.00802
C 24.62077 32.72025 0.01257
C 23.36736 27.71962 -0.00218
C 22.18395 25.45224 -0.00037
C 22.15589 24.10033 -0.0032
C 23.33589 23.24671 0.00622
C 23.37412 21.8011 -0.02815
C 22.03641 21.20592 -0.00942
C 22.09649 2.86778 0.00487
C 23.31206 2.35745 0.00826
C 23.38883 0.86591 -0.00294
C 23.37935 26.22929 -0.01654
C 2.44673 32.68643 0.0276
