312
Graphene
C 0.0126 34.03599 0.01295
C 14.76707 32.53645 -0.0331
C 16.05108 31.865 -0.00316
C 16.01392 30.41829 0.02188
C 14.73549 29.81719 -0.01979
C 14.63288 28.24775 0.02691
C 15.95966 27.76139 -0.01581
C 16.08416 1.94974 0.01452
C 15.93434 0.6175 0.04892
C 14.7569 34.00462 -0.00111
C 17.25553 32.64026 -0.03557
C 18.52008 31.93003 0.03754
C 18.50127 30.47872 0.01739
C 17.24458 29.78814 0.00755
C 17.26253 28.36411 -0.0054
C 18.49868 27.8414 0.00667
C 12.32122 34.06449 -0.0258
C 13.52658 0.59882 0.03338
C 13.43139 27.6212 -0.00491
C 12.30981 28.46197 -0.00109
C 11.0709 31.86921 -0.00619
C 11.1504 30.52703 -0.02162
C 9.85212 29.82208 0.00889
C 9.82802 28.41202 -0.00481
C 11.10151 27.76488 0.00979
C 11.14482 26.42231 0.01443
C 10.04398 25.60185 0.03505
C 17.16653 2.616 0.00143
C 9.73529 24.23405 -0.02815
C 10.9215 2.14093 -0.05302
C 11.14069 0.71055 0.00213
C 9.87803 0.01666 -0.00066
C 12.23853 32.65797 -0.00289
C 13.49501 31.87027 0.00028
C 13.54549 30.49378 -0.02213
C 12.31016 29.8198 0.03698
C 9.86539 2.6218 -0.04147
C 9.88109 32.64591 0.01848
C 18.44324 2.08638 -0.017
C 17.18891 0.01331 -0.00831
C 22.13548 29.77452 0.00199
C 22.09955 28.36898 0.01511
C 23.34882 27.76541 -0.00478
C 23.35215 26.32941 -0.01662
C 22.0763 25.62071 -0.01185
C 22.05662 11.37576 0.01126
C 23.38737 10.75048 0.01852
C 23.3174 9.26235 -0.00381
C 22.03535 8.64574 0.03046
C 21.95954 7.25283 0.0296
C 23.21474 6.46211 0.03374
C 23.31104 4.9885 -0.02845
C 22.06326 4.31054 -0.03213
C 22.12975 2.94831 0.02239
C 23.38025 2.15716 0.01153
C 23.32567 30.51784 0.01087
C 23.36006 32.02317 -0.01527
C 22.14384 32.70045 0.00096
C 19.6822 34.0541 0.01277
C 19.70101 32.65256 -0.02957
C 20.95294 31.98122 -0.04422
C 20.92679 30.51432 0.00654
C 19.72776 29.69031 -0.00703
C 19.87503 28.19156 -0.04076
C 21.1198 27.39817 -0.00652
C 20.96952 10.86977 0.0058
C 18.39782 0.72216 0.00364
C 20.76108 9.43846 -0.00865
C 19.58489 7.25807 -0.00311
C 20.76028 6.41828 0.00742
C 20.85856 5.0049 -0.01594
C 19.69246 4.21957 0.0106
C 19.6444 2.83737 -0.01154
C 20.92739 2.10807 -0.01721
C 20.90833 0.66791 -0.02422
C 19.75225 8.4478 0.00675
C 23.34657 0.72804 0.02734
C 7.41081 34.05346 0.02098
C 8.52595 2.13407 0.0351
C 3.70244 9.33913 0.0402
C 2.45134 8.567 0.00572
C 2.40921 7.19483 0.03592
C 3.67788 6.41878 0.00406
C 3.6473 4.96579 0.00943
C 2.41459 4.33141 0.02841
C 2.42608 2.77271 -0.01111
C 3.67054 2.08781 -0.01275
C 3.66788 0.62092 0.00985
C 2.44226 34.04523 -0.02245
C 4.95733 32.65606 -0.00428
C 6.17092 31.90529 0.03101
C 6.13827 30.49822 -0.01536
C 4.92874 29.78578 -0.02689
C 4.84764 28.38751 -0.01046
C 3.75614 10.70878 -0.02759
C 2.48878 11.36415 0.03589
C 2.47137 12.76982 -0.00033
C 3.65459 13.62124 -0.01062
C 3.69474 30.4626 -0.00131
C 2.3779 29.80357 -0.01118
C 2.3809 28.39424 -0.014
C 3.5781 27.64677 0.02147
C 3.67639 26.21899 0.00373
C 2.42819 25.58389 -0.00191
C 2.45464 24.18018 0.00438
C 6.09688 27.67286 -0.00891
C 3.65633 23.49441 0.01291
C 2.5201 21.2597 0.00057
C 2.50789 19.88409 -0.01634
C 3.78315 19.16554 -0.00334
C 3.44418 17.83229 0.02339
C 2.3265 17.06599 0.01641
C 2.4584 15.64807 -0.00719
C 3.64797 14.99542 0.01364
C 3.73441 22.03192 0.00093
C 8.6544 0.72874 -0.03113
C 6.11502 26.22113 0.02819
C 4.94321 24.17351 -0.02971
C 8.61117 30.58818 -0.01952
C 7.37006 29.86596 -0.02813
C 7.33492 28.37426 0.00374
C 8.57799 27.64006 0.00052
C 8.67394 26.2497 -0.03682
C 7.40005 25.5572 0.01965
C 7.40668 24.06056 0.02058
C 8.71358 23.59282 -0.01957
C 7.28297 12.68669 -0.0108
C 7.5382 11.15151 -0.00368
C 8.42014 9.97533 -0.02696
C 7.41977 8.73444 -0.00114
C 7.09178 7.37103 0.00228
C 7.34133 4.27088 0.00798
C 7.3247 2.88709 0.00422
C 8.61887 31.97002 0.05265
C 7.39524 32.61892 -0.01717
C 4.93311 34.0359 0.00244
C 6.22805 0.6811 0.02299
C 6.16788 23.41638 0.02894
C 6.09765 22.07376 -0.01789
C 4.92738 21.30147 0.00444
C 4.9925 19.87665 -0.00925
C 6.26673 13.35038 0.01877
C 4.90659 12.88205 0.01363
C 4.92313 11.47114 -0.02162
C 4.91416 25.53868 0.00165
C 6.1003 10.7822 0.00415
C 4.90731 8.58456 0.02162
C 4.8641 7.1201 0.0076
C 6.1045 6.4538 0.01241
C 6.10928 4.94812 -0.01454
C 4.84481 4.22571 0.01945
C 4.86627 2.81531 0.01416
C 6.15192 2.15453 0.03542
C 6.11323 9.34329 -0.0014
C 22.21279 0.04383 -0.0055
C 24.60881 32.70105 0.01515
C 25.83034 31.94686 -0.00225
C 33.20665 23.43888 0.01927
C 33.21771 22.05081 0.01574
C 32.02039 21.28541 -0.02383
C 31.98538 19.87949 -0.01429
C 33.21579 19.20393 -0.0136
C 33.19664 17.80128 0.00594
C 31.94655 17.11839 -0.02474
C 31.95564 15.67358 0.00369
C 33.19619 15.03596 0.00455
C 33.25184 13.59898 -0.00644
C 31.95739 12.89189 -0.01839
C 31.99062 11.4365 0.00137
C 33.19049 10.72692 0.00199
C 33.10938 9.33467 0.04381
C 31.91368 8.56766 0.02806
C 31.96071 24.17242 0.03794
C 31.93588 25.55122 -0.01779
C 33.14552 26.25954 0.00682
C 33.10322 27.70613 0.00026
C 30.71785 10.71299 -0.00944
C 30.6849 9.36436 -0.03735
C 29.47897 8.49278 -0.00971
C 29.4154 7.07149 0.01518
C 30.61383 6.42022 0.01908
C 30.7024 4.94365 0.07705
C 29.46657 4.19858 0.0103
C 31.86092 7.14777 0.01504
C 29.51527 2.82861 0.02108
C 30.71802 0.70802 0.00307
C 29.48778 34.06482 0.00346
C 31.92043 32.63489 0.01713
C 33.21104 31.93597 -0.01694
C 33.17233 30.51029 0.01428
C 31.92814 29.83667 -0.02142
C 31.89278 28.39576 0.0544
C 30.68812 2.10582 0.00716
C 29.47892 11.41789 -0.02155
C 33.12023 6.38083 -0.00069
C 31.92675 4.17185 -0.03838
C 34.42695 15.70701 0.02114
C 1.24054 14.94167 -0.02957
C 1.2473 13.5406 0.00343
C 0.01649 12.80996 -0.02656
C 34.41746 11.45219 -0.02442
C 1.24801 10.71841 -0.00027
C 1.19052 9.25066 -0.00583
C 34.34786 8.56253 -0.02302
C 34.34809 7.11827 -0.02849
C 1.14682 6.44485 0.02931
C 1.14667 5.04925 0.00628
C 34.38079 4.2987 -0.0345
C 34.3886 2.8668 -0.00931
C 1.22806 2.0946 -0.00939
C 1.26114 0.64299 -0.00468
C 0.01834 17.1234 0.00648
C 1.18775 17.80988 0.01223
C 1.28299 19.22537 -0.01678
C 0.01679 19.94896 0.01951
C 31.94716 2.82386 0.00349
C 33.18367 2.08909 -0.00323
C 33.19997 0.65617 -0.00841
C 31.96397 0.01103 0.0001
C 34.43241 32.61923 -0.02927
C 1.23019 31.95812 -0.01404
C 1.1464 30.49119 0.01027
C 33.11042 4.95554 0.04926
C 34.32217 29.8163 0.01831
C 1.15375 27.69494 -0.00439
C 1.1909 26.27039 -0.00598
C 34.3768 25.57944 -0.05239
C 34.40885 24.14344 0.03076
C 1.23718 23.47716 0.00723
C 1.24501 22.07485 0.02712
C 0.0031 21.37567 -0.02213
C 34.3449 28.4327 -0.01037
C 29.50341 12.83224 -0.01461
C 30.74328 13.56081 -0.01303
C 30.76695 14.98018 -0.0405
C 25.77186 4.9487 -0.01199
C 24.52102 4.24186 -0.00229
C 24.58255 2.81528 -0.00938
C 25.76536 2.14792 -0.0264
C 25.78873 0.74327 -0.01154
C 24.56763 0.06314 0.00684
C 27.00505 32.65258 -0.01052
C 28.26647 31.95278 -0.01679
C 28.14339 30.53898 0.00367
C 27.00728 29.76455 0.04306
C 26.97844 28.3524 0.00996
C 28.20901 27.68039 0.00195
C 28.27192 26.27898 -0.00802
C 27.04887 25.53731 -0.00218
C 26.96357 24.07914 -0.01654
C 25.69508 6.40511 -0.009
C 24.50967 7.15853 -0.00285
C 24.51827 8.57413 0.01423
C 25.71724 9.21467 0.02555
C 25.7703 30.50553 0.00071
C 24.52415 29.8396 -0.01107
C 24.60304 28.42556 -0.01586
C 25.79206 27.76442 -0.01971
C 25.88062 26.33953 -0.02118
C 24.63144 25.69882 0.00733
C 24.67418 24.26435 -0.00178
C 28.29842 23.40961 -0.00037
C 25.70585 23.43701 0.00768
C 25.80143 19.03814 0.03005
C 25.78911 17.80669 -0.04078
C 25.93583 14.83996 0.02117
C 25.6415 13.58194 0.02737
C 24.59993 12.75134 -0.00498
C 24.68271 11.36306 0.00135
C 25.84822 10.61834 0.03102
C 25.88193 22.11124 -0.0276
C 28.25194 22.02373 -0.0032
C 27.00494 21.31272 0.00622
C 26.92749 19.90604 -0.02815
C 30.69529 31.95764 0.04266
C 30.6672 30.56403 0.01324
C 29.40108 29.85954 0.0014
C 29.42371 28.42292 0.00924
C 30.66483 27.66561 0.02326
C 30.69856 26.29948 0.00261
C 29.52495 25.58116 0.03265
C 29.41361 32.65132 0.01177
C 29.5227 24.16781 -0.02049
C 30.67647 21.95787 -0.01415
C 29.46036 21.27342 -0.03039
C 29.44216 19.85629 0.01836
C 30.71085 19.19177 0.03531
C 30.69462 17.75349 -0.00669
C 29.40958 17.03783 0.0101
C 29.48716 15.60022 0.01705
C 30.72789 23.40799 -0.01854
C 3.71848 31.92132 -0.02896
C 27.0354 0.07986 -0.00416
C 28.30512 2.1143 0.01799
C 28.12096 19.16544 -0.00942
C 28.11696 17.74647 0.00487
C 26.92641 16.95864 0.00826
C 27.00209 15.60727 -0.00294
C 28.24974 14.88141 0.00152
C 28.29982 13.51982 0.01257
C 27.07489 12.78421 0.02316
C 28.27744 0.71808 0.01699
C 27.013 11.40723 0.04185
C 28.24636 9.22654 -0.00621
C 26.95439 8.52153 0.02611
C 26.93507 7.09254 0.02198
C 28.18806 6.39133 0.01094
C 28.30314 4.96322 0.00235
C 27.00368 4.2671 0.01495
C 27.02502 2.81704 0.01259
C 28.21866 10.66867 0.00194
C 2.4654 32.60756 -0.01004
