347
Graphene
C 34.40266 34.07056 0.01295
C 9.75194 2.80371 0.0351
C 11.09506 2.13826 -0.03113
C 11.03736 0.76689 0.02098
C 9.88092 34.06488 0.01848
C 12.31694 32.63326 -0.00619
C 13.56309 32.06583 -0.02162
C 13.3357 21.89812 0.00889
C 12.23169 21.1869 -0.00481
C 12.28563 19.78258 0.00979
C 13.51414 19.14337 0.01443
C 13.63063 17.72182 0.03505
C 12.4071 17.02042 -0.02815
C 12.37362 15.52736 -0.04147
C 13.67063 14.90494 -0.05302
C 12.21607 13.00153 0.00213
C 12.26095 4.06637 -0.00066
C 12.4336 2.76126 -0.00289
C 9.87865 4.16317 0.00422
C 11.22461 4.94471 0.00798
C 10.86089 6.25407 0.00228
C 9.81865 7.04662 -0.00114
C 10.98223 30.39446 0.01945
C 9.82426 29.98833 0.01416
C 9.9176 24.21371 0.03542
C 10.89252 23.6081 0.02299
C 11.04689 22.14399 0.00244
C 9.82613 21.359 -0.01717
C 9.83026 19.93703 0.05265
C 11.04296 19.12858 -0.01952
C 13.53162 1.97871 0.00028
C 11.12462 17.73247 -0.02813
C 9.89556 15.71791 0.00052
C 11.05542 15.02006 -0.03682
C 11.03301 13.5567 0.01965
C 9.80595 12.76559 0.02058
C 9.93487 11.30686 -0.01957
C 11.11437 10.53043 -0.0108
C 11.16609 9.34886 -0.00368
C 9.89201 8.56516 -0.02696
C 9.88508 17.12085 0.00374
C 13.51015 0.66723 -0.02213
C 12.27659 0.04049 0.03698
C 14.81511 32.52029 -0.00109
C 18.51599 17.57861 -0.02957
C 17.28683 17.17704 -0.04422
C 18.48082 0.64697 0.00654
C 17.27253 0.29713 -0.00703
C 19.65449 32.60161 -0.04076
C 20.87533 31.89185 -0.00652
C 20.86632 30.48691 0.0058
C 19.65515 29.81151 -0.00865
C 18.4424 19.129 -0.00831
C 19.62504 28.44958 0.00675
C 20.8939 26.25562 0.00742
C 19.62792 25.6462 -0.01594
C 19.70716 24.15934 0.0106
C 20.94553 23.41109 -0.01154
C 20.93373 21.94452 -0.01721
C 19.67639 21.30593 -0.02422
C 19.6267 19.88952 0.01277
C 20.88769 19.14133 0.00096
C 20.88915 27.69173 -0.00311
C 11.14918 31.86386 -0.01454
C 17.21157 19.82842 0.00364
C 18.42613 22.07131 0.00143
C 16.09979 31.93061 -0.00491
C 15.98984 22.04637 0.03338
C 14.63883 21.52669 -0.0258
C 14.71036 19.97355 -0.0331
C 16.00313 19.21205 -0.00316
C 16.0547 17.75039 0.02188
C 14.83763 17.03124 -0.01979
C 14.68198 15.63528 0.02691
C 17.14548 21.37208 -0.017
C 15.89419 0.69425 -0.01581
C 17.1697 32.5914 0.04892
C 18.41866 31.93111 -0.00111
C 18.3867 30.49453 -0.03557
C 17.16112 29.79671 0.03754
C 18.49704 27.57492 0.01739
C 18.45661 26.36265 0.00755
C 17.13273 24.15172 -0.0054
C 18.38027 23.53888 0.00667
C 14.82775 0.00472 0.01452
C 20.89885 17.6973 -0.01527
C 9.93308 32.59548 0.01241
C 8.59853 0.57853 0.02162
C 3.67048 2.07449 -0.0008
C 3.59628 0.68182 0.0288
C 2.41275 33.99634 0.00393
C 4.88882 32.66984 0.00895
C 6.13998 31.93016 0.00685
C 6.1626 30.57342 0.02888
C 4.93104 29.84649 -0.00482
C 4.95302 28.43194 -0.01384
C 6.13813 27.7433 0.03693
C 6.14233 26.30763 0.01745
C 4.88059 25.61155 0.00488
C 5.01402 24.18475 -0.01004
C 6.17145 23.44201 -0.02896
C 6.12214 21.97023 -0.00131
C 4.94485 21.285 -0.01118
C 4.87966 19.88693 -0.014
C 6.09369 19.15731 0.02147
C 2.48508 2.77934 -0.01362
C 2.49737 4.28656 -0.00892
C 3.76367 5.03499 -0.04848
C 3.73085 6.53675 0.01572
C 3.70925 30.57696 -0.00966
C 2.52775 29.86572 -0.03337
C 2.42386 28.43823 0.01227
C 3.61156 27.70728 0.00873
C 3.58939 26.29503 -0.00049
C 2.41494 25.55414 0.00848
C 2.50835 24.16527 -0.01303
C 3.78038 23.40567 -0.01378
C 6.09693 17.74174 0.00373
C 3.71866 22.05749 0.02635
C 2.37378 19.91584 0.01396
C 3.61097 19.21089 0.01849
C 3.57188 17.76543 -0.01142
C 2.48582 16.9977 -0.00562
C 2.44484 15.6201 -0.00494
C 3.7037 14.82949 0.00054
C 3.89897 13.53216 0.03007
C 2.43073 7.00988 -0.00095
C 2.50585 21.31289 0.0127
C 4.81363 17.12726 -0.00191
C 4.81114 15.68295 0.00438
C 6.1642 14.98477 0.01291
C 7.37388 19.85754 -0.00428
C 8.60701 19.18478 0.03101
C 8.64217 17.83336 -0.01536
C 7.35898 17.08342 -0.02689
C 7.38047 15.62854 -0.01046
C 8.5974 14.95011 -0.00891
C 8.58435 13.46566 0.02819
C 7.17709 12.68265 0.00165
C 7.31552 21.28715 -0.02245
C 7.45212 11.27936 -0.02971
C 8.66704 9.17503 -0.01789
C 7.30256 8.64052 0.00444
C 7.37896 7.17746 -0.00925
C 8.53484 6.42325 0.01877
C 8.61938 4.99791 0.01363
C 7.42583 4.32547 -0.02162
C 7.4503 2.81535 0.00415
C 8.5933 2.03994 -0.0014
C 8.64083 10.58776 0.02894
C 7.32923 0.0303 0.0076
C 8.59634 22.00959 0.00985
C 7.38911 24.16101 -0.01111
C 6.03479 13.63979 0.00093
C 6.14655 9.292 0.00057
C 4.95412 7.03549 -0.01634
C 6.18583 6.43226 -0.00334
C 6.2142 4.99293 0.02339
C 4.93671 4.29996 0.01641
C 4.86839 2.8522 -0.00719
C 6.14756 2.1692 0.01364
C 8.59464 23.42757 -0.01275
C 6.06476 0.71176 -0.01062
C 7.33331 32.68185 0.03589
C 8.60038 32.04175 -0.02759
C 8.58236 30.57322 0.0402
C 7.40979 29.90745 0.00572
C 7.40366 28.47331 0.03592
C 8.58404 27.69609 0.00406
C 8.51506 26.52934 0.00943
C 7.41241 25.57361 0.02841
C 4.90618 34.06312 -0.00033
C 3.6491 31.98182 -0.02929
C 19.73345 17.00516 0.01087
C 19.73833 0.11632 0.01511
C 31.95189 32.61988 0.01428
C 33.16273 31.9845 -0.02142
C 33.11008 30.55901 0.0544
C 31.93199 29.7876 0.00026
C 31.92844 28.37266 0.00682
C 33.12004 27.69335 -0.01779
C 33.13945 26.25947 0.03794
C 31.93374 25.58442 0.01927
C 31.96618 24.19292 0.01574
C 33.19806 23.45775 -0.02383
C 33.21049 22.04851 -0.01429
C 31.97057 21.30054 -0.0136
C 32.00647 19.90667 0.00594
C 33.15059 19.16841 -0.02474
C 33.10405 17.76621 0.00369
C 31.90225 17.08985 0.00455
C 31.83646 15.66958 -0.00644
C 29.48944 33.9777 -0.01694
C 30.68163 0.67778 0.01713
C 30.71839 2.17949 0.00346
C 29.50954 2.88203 0.00307
C 30.71365 22.04823 0.01836
C 29.48418 21.34355 0.03531
C 29.51728 19.91483 -0.00669
C 30.73492 19.21648 0.0101
C 30.69281 17.79472 0.01705
C 29.50792 17.03161 -0.0405
C 29.5088 15.62314 -0.01303
C 30.70576 14.88683 -0.01461
C 33.12291 14.87558 -0.01839
C 30.80651 13.50065 -0.02155
C 29.54414 11.29838 -0.03735
C 30.78901 10.66042 -0.00971
C 30.72656 9.23054 0.01518
C 29.44426 8.52887 0.01908
C 29.50027 7.10547 0.07705
C 30.76853 6.38262 0.0103
C 30.73416 4.95965 0.02108
C 29.54669 4.27067 0.00716
C 29.56083 12.8089 -0.00944
C 33.23555 13.48762 0.00137
C 32.03357 12.75123 0.00199
C 32.04181 11.33912 0.04381
C 0.0303 21.27029 -0.01678
C 34.40801 19.88658 0.01223
C 1.21116 19.12709 0.00648
C 1.19965 17.68627 0.02114
C 34.37977 17.04704 -0.02957
C 34.30894 15.58251 0.00343
C 1.16991 14.94781 -0.02656
C 1.14043 13.55297 -0.02442
C 1.28955 22.06619 0.01951
C 0.14401 12.65307 -0.00027
C 0.00392 8.58333 -0.02302
C 0.09433 7.1537 -0.02849
C 1.23261 6.31089 0.02931
C 1.27978 4.89623 0.00628
C 0.01373 4.23507 -0.0345
C 0.00103 2.8353 -0.00931
C 1.2473 2.08862 -0.00939
C 1.19667 0.70202 -0.00468
C 0.01016 11.3125 -0.00583
C 30.70818 23.42689 -0.03039
C 1.28713 23.47336 -0.02213
C 34.40129 25.57727 0.00723
C 33.22038 10.69811 0.02806
C 33.25232 9.25576 0.01504
C 31.95618 8.51497 -0.00069
C 31.98746 7.0973 0.04926
C 33.2253 6.43468 -0.03838
C 33.21324 4.94806 0.00349
C 31.98987 4.28831 -0.00323
C 31.97338 2.84506 -0.00841
C 0.07303 24.19901 0.02712
C 33.19416 2.10866 0.0001
C 31.89949 0.00588 -0.01404
C 34.40181 32.6927 0.01027
C 1.18872 31.94283 0.01831
C 1.13529 30.53383 -0.01037
C 34.38608 29.85605 -0.00439
C 34.35227 28.35625 -0.00598
C 1.19316 27.69875 -0.05239
C 1.18698 26.28173 0.03076
C 33.1735 0.6988 -0.02927
C 20.95314 0.78971 0.00199
C 29.53773 24.16705 -0.01415
C 30.67126 26.32002 -0.02049
C 25.82624 31.95125 0.00733
C 25.73671 30.57488 -0.00178
C 24.51114 29.78538 0.00768
C 24.5764 28.32762 -0.0276
C 25.82858 27.69875 0.03005
C 25.84989 26.29025 -0.04078
C 24.56948 25.59269 0.02117
C 24.51422 24.19027 0.02737
C 25.77704 23.47049 -0.00498
C 25.77607 22.04621 0.00135
C 24.55792 21.34429 0.03102
C 24.57772 19.89085 0.02555
C 25.83463 19.17977 0.01423
C 25.77759 17.74935 -0.00285
C 24.5595 16.98272 -0.009
C 24.44617 15.55378 -0.01199
C 25.8358 14.86217 -0.00229
C 24.62728 32.71286 -0.02118
C 22.11914 34.06924 -0.01971
C 23.34228 0.7122 -0.01586
C 23.4261 2.14558 -0.01107
C 22.11802 32.58263 -0.00478
C 23.36926 31.95047 -0.01662
C 23.27593 30.53095 -0.01185
C 22.04217 29.74406 0.01126
C 22.11939 28.36334 0.01852
C 23.34836 27.71587 -0.00381
C 23.31544 26.27043 0.03046
C 22.09639 25.55309 0.0296
C 25.88418 13.57366 -0.00938
C 22.14142 24.12213 0.03374
C 23.31644 21.9865 -0.03213
C 22.10089 21.18922 0.02239
C 22.04583 19.80506 0.01153
C 23.36933 19.17389 0.02734
C 23.35686 17.71579 -0.0055
C 22.06754 17.05537 0.01515
C 22.15868 15.72246 -0.00225
C 23.2163 14.99004 0.00071
C 23.36849 23.42024 -0.02845
C 25.86303 4.72461 -0.0264
C 24.45041 2.7678 -0.01154
C 25.84504 2.15601 0.00684
C 27.07243 11.43038 -0.00621
C 28.2161 10.58789 0.02611
C 28.16355 9.22769 0.02198
C 27.06861 8.30467 0.01094
C 27.16019 7.07243 0.00235
C 28.31145 6.32687 0.01495
C 28.29205 4.93193 0.01259
C 27.0464 4.19475 0.01799
C 26.97016 12.74832 0.00194
C 27.12449 2.766 0.01699
C 28.33365 0.66165 0.01177
C 27.05045 0.00246 0.04266
C 29.60383 32.52868 0.01324
C 30.78971 31.85486 0.0014
C 30.70625 30.48903 0.00924
C 29.46078 29.79244 0.02326
C 29.50415 28.36989 0.00261
C 30.71199 27.69825 0.03265
C 28.33987 2.08397 -0.00416
C 29.45463 25.61715 -0.01854
C 28.33211 13.52843 0.04185
C 27.02759 15.59584 0.01257
C 25.84398 0.79676 -0.01052
C 24.60119 0.09872 -0.01679
C 27.08916 32.60273 0.00367
C 28.30835 31.91247 0.04306
C 28.28276 30.47946 0.00996
C 26.9761 29.87741 0.00195
C 27.02124 28.43632 -0.00802
C 28.22933 27.74357 -0.00218
C 28.31275 14.93017 0.02316
C 28.24534 26.33498 -0.01654
C 27.07652 24.18539 -0.0032
C 28.32093 23.49367 0.00622
C 28.27105 22.07724 -0.02815
C 27.02092 21.40092 -0.00942
C 27.10313 19.87848 0.00487
C 28.33069 19.16025 0.00826
C 28.27831 17.71156 -0.00294
C 27.06161 17.028 0.00152
C 27.04084 25.59078 -0.00037
C 2.42303 32.61555 0.03368
