362
Graphene
C 0.01334 0.01281 0.01295
C 17.25194 28.39167 0.01965
C 18.43302 27.68762 0.02058
C 18.43271 26.28845 -0.01957
C 17.22335 25.553 -0.0108
C 17.25561 24.16253 -0.00368
C 18.45985 23.40919 -0.02696
C 18.42254 21.98842 -0.00114
C 17.19957 21.30697 0.00228
C 17.23211 29.78887 -0.03682
C 17.21717 19.86543 0.00798
C 18.47612 13.47459 0.0351
C 17.22485 12.73887 -0.03113
C 17.22859 11.34192 0.02098
C 18.47446 10.61754 0.01848
C 18.44376 9.27486 -0.00619
C 17.21441 8.52942 -0.02162
C 17.20787 7.08428 0.00889
C 18.39624 6.38841 -0.00481
C 18.4299 19.1755 0.00422
C 18.40256 30.50902 0.00052
C 18.44288 31.95281 0.00374
C 17.2044 32.62936 -0.02813
C 14.73395 32.67494 0.00444
C 15.94138 31.97564 -0.00925
C 15.99822 30.54696 0.01877
C 14.78825 29.82419 0.01363
C 14.77066 28.38713 -0.02162
C 15.96151 27.69998 0.00415
C 15.99903 26.28755 -0.0014
C 14.77357 11.36342 0.02162
C 16.00013 10.63644 0.0076
C 15.98684 9.26235 0.01241
C 14.7569 8.49732 -0.01454
C 14.73983 7.14122 0.01945
C 15.98272 6.39555 0.01416
C 15.98373 4.96618 0.03542
C 14.81615 4.2693 0.02299
C 14.80573 2.82483 0.00244
C 15.9849 2.10589 -0.01717
C 16.00027 0.70748 0.05265
C 14.74889 34.03731 -0.01952
C 18.39787 4.95585 0.00979
C 12.29531 0.01744 -0.01789
C 17.26674 4.28377 0.01443
C 18.4404 2.13473 -0.02815
C 20.9304 10.63977 0.01739
C 20.87134 9.26003 0.00755
C 19.68614 8.52225 -0.0054
C 19.65899 7.07986 0.00667
C 20.92186 6.35898 0.00143
C 20.91481 4.98421 -0.017
C 19.68777 4.28877 0.00364
C 19.68127 2.85465 -0.00831
C 19.69381 11.37752 0.03754
C 20.91736 2.1335 -0.02957
C 19.70039 0.06072 0.00654
C 22.11919 32.60877 -0.00703
C 23.39304 31.943 -0.04076
C 23.40675 30.5425 -0.00652
C 22.16008 29.79268 0.0058
C 22.10579 28.39327 -0.00865
C 23.37634 27.68738 0.00675
C 23.36317 26.25312 -0.00311
C 20.91254 0.71116 -0.04422
C 19.65514 12.77604 -0.03557
C 20.91456 13.49745 -0.00111
C 20.89326 14.89334 0.04892
C 18.4377 0.75374 -0.04147
C 17.20613 0.04223 -0.05302
C 19.65758 32.65518 0.00213
C 20.90825 31.92448 -0.00066
C 20.91358 30.53113 -0.00289
C 19.72666 29.8302 0.00028
C 19.69856 28.41048 -0.02213
C 20.92033 27.7081 0.03698
C 20.90086 26.22413 -0.00109
C 19.67257 25.51251 -0.00491
C 19.64016 24.11983 0.03338
C 20.91685 23.42814 -0.0258
C 20.91662 22.00412 -0.0331
C 19.63187 21.32572 -0.00316
C 19.65744 19.88512 0.02188
C 20.91465 19.17098 -0.01979
C 20.91089 17.77765 0.02691
C 19.65985 17.03978 -0.01581
C 19.679 15.63763 0.01452
C 17.22151 2.81238 0.03505
C 13.51204 0.6969 0.02894
C 13.52817 2.1228 -0.02971
C 12.28473 2.84746 0.00165
C 4.9512 29.80695 0.02635
C 6.13401 14.91633 0.0127
C 6.16085 13.47242 0.01396
C 4.95292 12.81162 0.01849
C 4.93681 11.39745 -0.01142
C 6.14677 10.61137 -0.00562
C 6.13893 9.19666 -0.00494
C 4.92536 8.5187 0.00054
C 6.1491 30.58777 -0.01378
C 4.92441 7.05163 0.03007
C 6.11042 4.98999 0.01572
C 4.87148 4.26102 -0.04848
C 4.91686 2.82797 -0.00892
C 6.11997 2.13671 -0.01362
C 6.13367 0.76755 -0.0008
C 4.94144 34.05683 0.0288
C 7.39534 32.70239 0.00393
C 8.62522 31.96753 0.00895
C 6.15783 6.3751 -0.00095
C 6.15385 31.98419 -0.01303
C 4.91905 32.66554 0.00848
C 2.46803 34.05859 -0.00049
C 3.67043 30.55189 0.017
C 2.45974 29.82478 -0.03113
C 2.48431 28.37971 -0.02566
C 2.47225 17.05445 -0.00094
C 2.43227 15.59304 0.02322
C 3.74534 14.8652 -0.00725
C 3.68681 13.50147 -0.05697
C 2.43139 12.79168 0.01087
C 2.45071 11.39265 -0.01343
C 3.67874 10.66132 0.00988
C 3.67623 9.24767 0.0276
C 2.4461 8.54666 0.01305
C 2.47371 7.11489 -0.00077
C 3.67893 6.39157 0.03368
C 3.73635 4.94123 -0.02929
C 2.42746 4.24995 -0.00966
C 2.43396 2.87054 -0.03337
C 3.67238 2.15154 0.01227
C 3.72054 0.74606 0.00873
C 8.62154 30.57274 0.00685
C 8.61532 13.42662 0.02888
C 7.3974 12.78971 -0.00482
C 7.3715 11.34968 -0.01384
C 11.05248 4.98401 0.03589
C 9.82872 4.24581 -0.02759
C 9.8251 2.8277 0.0402
C 11.04926 2.11602 0.00572
C 11.05649 0.74065 0.03592
C 9.83109 34.07648 0.00406
C 12.2863 32.65864 0.00943
C 13.51733 31.99832 0.02841
C 13.50112 30.52002 -0.01111
C 12.31827 29.86885 -0.01275
C 12.33024 12.78129 0.00985
C 12.30737 11.39591 -0.02245
C 13.49299 10.6223 -0.00428
C 13.51996 9.22414 0.03101
C 12.26189 8.50863 -0.01536
C 12.26538 7.06761 -0.02689
C 13.55441 6.41496 -0.01046
C 13.56533 4.97508 -0.00891
C 12.30896 4.26441 0.02819
C 11.07123 6.36767 -0.00033
C 22.13755 25.56721 0.00742
C 9.85342 7.15851 -0.01062
C 11.11312 9.25235 -0.00719
C 8.6134 10.6427 0.03693
C 8.60078 9.2083 0.01745
C 7.37452 8.54681 0.00488
C 7.33534 7.11014 -0.01004
C 8.58119 6.44579 -0.02896
C 8.63394 4.99365 -0.00131
C 7.40389 4.25511 -0.01118
C 7.35683 2.85445 -0.014
C 8.61471 2.1543 0.02147
C 8.59427 0.75725 0.00373
C 7.37193 0.04753 -0.00191
C 9.8833 32.66404 0.00438
C 11.01476 31.95993 0.01291
C 11.10483 30.54862 0.00093
C 11.0814 14.89555 0.00057
C 11.08244 13.50527 -0.01634
C 9.84716 12.81072 -0.00334
C 9.83421 11.40044 0.02339
C 11.08642 10.67614 0.01641
C 9.80376 8.53883 0.01364
C 22.14331 24.11216 -0.01594
C 23.37889 23.39603 0.0106
C 23.36634 22.01902 -0.01154
C 30.72484 2.12922 0.00346
C 30.70322 0.71037 0.01713
C 29.5415 0.0254 -0.01694
C 31.99005 32.63383 0.01428
C 33.21231 31.94208 -0.02142
C 33.2076 30.52058 0.0544
C 31.98392 29.83478 0.00026
C 31.94767 28.4153 0.00682
C 29.48397 2.82236 0.00307
C 33.17747 27.68007 -0.01779
C 31.98301 25.51878 0.01927
C 31.99287 24.14557 0.01574
C 33.2158 23.43771 -0.02383
C 33.21403 22.03445 -0.01429
C 31.97819 21.29162 -0.0136
C 31.94611 19.88826 0.00594
C 33.20239 19.19528 -0.02474
C 33.24472 17.7194 0.00369
C 33.21827 26.30777 0.03794
C 29.50751 4.23331 0.00716
C 30.74785 4.99009 0.02108
C 30.71144 6.37399 0.0103
C 30.71891 26.2363 -0.02049
C 29.53966 25.5729 -0.01854
C 29.51053 24.14394 -0.01415
C 30.80593 23.43506 -0.03039
C 30.74655 21.99901 0.01836
C 29.50319 21.29811 0.03531
C 29.53497 19.85978 -0.00669
C 30.72216 19.1636 0.0101
C 30.74588 17.73091 0.01705
C 29.54255 17.0649 -0.0405
C 29.53768 15.64137 -0.01303
C 30.73314 14.88914 -0.01461
C 30.77725 13.47578 -0.02155
C 29.53488 12.76113 -0.00944
C 29.51151 11.41675 -0.03735
C 30.73166 10.62546 -0.00971
C 30.73276 9.2328 0.01518
C 29.54614 8.5202 0.01908
C 29.50401 7.0905 0.07705
C 31.97532 17.0283 0.00455
C 31.98618 15.59483 -0.00644
C 33.16704 14.93043 -0.01839
C 33.18722 13.46481 0.00137
C 0.00278 19.86325 0.01951
C 1.26222 19.18104 -0.01678
C 1.2252 17.75576 0.01223
C 0.03233 16.99932 0.00648
C 34.41702 15.5785 0.02114
C 1.22998 14.90734 -0.02957
C 1.25081 13.49228 0.00343
C 34.42016 12.74158 -0.02656
C 34.4191 11.36499 -0.02442
C 1.21705 10.68959 -0.00027
C 1.22779 9.22572 -0.00583
C 34.43241 8.55257 -0.02302
C 34.42145 7.10242 -0.02849
C 1.23025 6.38821 0.02931
C 1.20112 4.96218 0.00628
C 0.00508 4.22759 -0.0345
C 0.00818 2.82581 -0.00931
C 1.27825 2.16303 -0.00939
C 1.27359 0.704 -0.00468
C 34.40689 21.27724 -0.02213
C 30.73568 27.67912 0.03265
C 34.40903 24.16339 0.02712
C 1.22904 26.30849 0.03076
C 31.93634 12.73469 0.00199
C 31.93068 11.35851 0.04381
C 33.20998 10.63427 0.02806
C 33.21044 9.25122 0.01504
C 31.94267 8.50995 -0.00069
C 31.94859 7.10722 0.04926
C 33.20127 6.37289 -0.03838
C 33.19688 5.00228 0.00349
C 31.96294 4.22152 -0.00323
C 31.96835 2.84093 -0.00841
C 33.21193 2.15336 0.0001
C 33.19882 0.70322 -0.02927
C 31.97567 0.01144 -0.01404
C 34.41862 32.638 0.01027
C 1.19 31.94971 0.01831
C 1.23735 30.56539 -0.01037
C 0.01983 29.76412 -0.00439
C 0.01571 28.39719 -0.00598
C 1.21635 27.7359 -0.05239
C 0.0054 25.58967 0.00723
C 3.68001 31.97131 -0.00643
C 29.47812 28.39863 0.00261
C 30.73142 30.51029 0.00924
C 25.82107 30.55842 0.01515
C 24.59076 29.82704 -0.00225
C 24.58091 28.4373 0.00071
C 25.8124 27.65909 -0.01107
C 25.82461 26.25612 -0.01586
C 24.58589 25.58402 -0.01971
C 24.57076 24.16521 -0.02118
C 25.80313 23.41803 0.00733
C 25.81384 31.92796 -0.0055
C 25.79795 21.9682 -0.00178
C 24.59419 19.91962 -0.0276
C 25.83659 19.18434 0.03005
C 25.76237 17.70313 -0.04078
C 24.56106 17.0501 0.02117
C 24.6212 15.63451 0.02737
C 25.8567 14.92186 -0.00498
C 25.81334 13.52225 0.00135
C 24.61367 12.74911 0.03102
C 24.56902 21.2973 0.00768
C 24.56951 32.64142 0.02734
C 22.15513 34.06907 0.01153
C 23.38131 0.74001 0.02239
C 22.11549 21.29216 -0.01721
C 22.09086 19.87362 -0.02422
C 23.37237 19.15379 0.01277
C 23.35122 17.70937 0.00096
C 22.11671 17.0658 -0.01527
C 22.11508 15.58959 0.01087
C 23.34636 14.88331 0.00199
C 23.35101 13.45028 0.01511
C 22.1216 12.78526 -0.00478
C 22.1379 11.35363 -0.01662
C 23.36494 10.63668 -0.01185
C 23.35698 9.20947 0.01126
C 22.09161 8.46918 0.01852
C 22.15147 7.07578 -0.00381
C 23.36904 6.36599 0.03046
C 23.39568 4.95035 0.0296
C 22.14218 4.22017 0.03374
C 22.15473 2.82136 -0.02845
C 23.35799 2.11964 -0.03213
C 24.58451 11.30282 0.02555
C 25.80967 10.64569 0.01423
C 25.8281 9.22462 -0.00285
C 24.61701 8.49623 -0.009
C 27.08795 17.00901 0.00152
C 27.05855 15.61429 0.01257
C 28.26409 14.883 0.02316
C 28.30183 13.47775 0.04185
C 27.05992 12.76918 0.00194
C 27.07394 11.37936 -0.00621
C 28.28455 10.66201 0.02611
C 28.28395 9.23667 0.02198
C 27.09721 8.50458 0.01094
C 27.08972 7.10693 0.00235
C 28.28278 6.39779 0.01495
C 28.2918 5.00011 0.01259
C 27.07687 4.21439 0.01799
C 27.03879 2.83143 0.01699
C 28.29885 2.12566 -0.00416
C 28.23925 0.73463 0.01177
C 27.06884 34.05612 0.04266
C 29.51079 32.67359 0.01324
C 30.73287 31.95203 0.0014
C 28.26942 17.76126 -0.00294
C 29.55415 29.80268 0.02326
C 28.26071 19.19327 0.00826
C 27.05629 21.27013 -0.00942
C 24.62655 7.09661 -0.01199
C 25.81392 6.41573 -0.00229
C 25.88012 4.98082 -0.00938
C 24.55035 4.25411 -0.0264
C 24.64095 2.86985 -0.01154
C 25.80195 2.11864 0.00684
C 25.87671 0.68946 -0.01052
C 24.62079 34.07894 -0.01679
C 27.04291 32.66952 0.00367
C 28.31454 31.95958 0.04306
C 28.23361 30.53553 0.00996
C 27.02639 29.82792 0.00195
C 27.04206 28.41058 -0.00802
C 28.27786 27.71705 -0.00218
C 28.29265 26.26197 -0.01654
C 27.01648 25.52413 -0.00037
C 27.07802 24.1564 -0.0032
C 28.25549 23.43387 0.00622
C 28.27245 21.97057 -0.02815
C 27.02764 19.87708 0.00487
C 2.49305 32.66995 0.0086
