274
Graphene
C 34.35322 0.06923 0.01295
C 16.12206 30.41053 0.01087
C 16.00019 31.84496 -0.01527
C 14.74026 32.66905 0.00096
C 12.2748 0.00473 0.01277
C 13.53047 0.65662 -0.02422
C 13.51858 2.1576 -0.01721
C 12.33714 2.94049 -0.01154
C 12.40518 4.37815 0.0106
C 13.70889 4.95842 -0.01594
C 13.61307 6.42487 0.00742
C 12.47501 7.1183 -0.00311
C 12.29127 25.6123 0.00675
C 13.55565 26.15787 -0.00865
C 13.47096 27.71486 0.0058
C 14.74858 29.72214 0.00199
C 12.14531 28.38595 -0.00652
C 13.45712 30.42413 -0.00703
C 13.41293 31.83736 0.00654
C 12.28183 32.6217 -0.04422
C 9.78663 0.09745 -0.02957
C 11.07052 0.77269 -0.00831
C 11.12926 2.24319 0.00364
C 9.79697 2.93735 -0.017
C 9.82987 4.41029 0.00143
C 11.19281 5.04707 0.00667
C 11.15585 6.57661 -0.0054
C 9.9029 7.06403 0.00755
C 9.6761 25.59461 0.01739
C 10.96043 26.11877 0.03754
C 10.96883 27.63176 -0.03557
C 12.21217 29.79275 -0.04076
C 9.68905 28.3816 -0.00111
C 14.71436 28.27167 0.01511
C 15.95225 26.1933 -0.01662
C 19.02467 21.15757 0.00135
C 19.72815 32.73672 -0.00498
C 17.23019 34.04861 0.02737
C 18.44861 0.62571 0.02117
C 18.41699 2.10076 -0.04078
C 17.23828 2.76116 0.03005
C 17.34069 4.19794 -0.0276
C 18.60423 4.92656 0.00768
C 18.55132 6.29599 -0.00178
C 17.34248 6.96937 0.00733
C 17.90591 22.34021 -0.02118
C 18.61792 23.59139 -0.01971
C 18.10068 24.71117 -0.01586
C 17.97722 26.1134 -0.01107
C 15.92124 27.5158 -0.00478
C 18.36996 27.53681 0.00071
C 17.299 29.63952 0.01515
C 18.43432 30.47433 -0.0055
C 18.65784 31.81075 0.02734
C 17.28095 32.59228 0.01153
C 14.71887 34.01246 0.02239
C 15.97594 0.63295 -0.03213
C 16.00686 2.05171 -0.02845
C 14.79317 2.80107 0.03374
C 14.90036 4.21194 0.0296
C 16.12823 4.95227 0.03046
C 16.07598 6.42068 -0.00381
C 14.88412 7.21637 0.01852
C 14.41303 8.4916 0.01126
C 14.83888 25.71584 -0.01185
C 17.14299 28.25643 -0.00225
C 9.78028 29.81615 0.04892
C 10.96305 30.56854 0.01452
C 11.01108 31.9958 -0.01581
C 4.82571 29.91272 -0.0108
C 6.07677 30.63016 -0.01957
C 6.07936 32.01263 0.02058
C 4.88152 32.75825 0.01965
C 2.33713 0.01588 -0.03682
C 3.64077 0.78075 0.00052
C 3.63648 2.21641 0.00374
C 2.36458 2.93637 -0.02813
C 2.38458 4.30196 -0.01952
C 3.64789 5.00372 0.05265
C 3.63083 6.44243 -0.01717
C 2.45167 7.19654 0.00244
C 2.4095 8.64428 0.02299
C 3.66671 9.39377 0.03542
C 4.80395 28.4409 -0.00368
C 3.65435 10.71959 0.01416
C 2.34234 12.91877 -0.01454
C 2.29585 15.73135 0.01241
C 2.16672 17.06813 0.0076
C 2.38549 20.09811 0.02162
C 2.30701 21.49902 -0.0014
C 3.47737 22.20165 0.00415
C 3.59051 23.51 -0.02162
C 2.327 24.25847 0.01363
C 2.39787 25.61475 0.01877
C 3.59648 26.2241 -0.00925
C 3.56586 27.74067 0.00444
C 2.36389 28.43715 -0.01789
C 2.35404 29.88423 0.02894
C 3.56941 30.57141 -0.02971
C 2.52794 11.54889 0.01945
C 6.09063 27.70809 -0.02696
C 6.09187 26.34397 -0.00114
C 4.81967 25.55552 0.00228
C 9.84015 32.68367 0.02691
C 7.24952 0.03079 -0.01979
C 8.50829 0.74768 0.02188
C 8.59091 2.11294 -0.00316
C 7.33341 2.88208 -0.0331
C 7.43307 4.32827 -0.0258
C 8.63111 5.11769 0.03338
C 8.65328 6.57946 -0.00491
C 7.37123 7.23139 -0.00109
C 7.28079 8.63717 0.03698
C 7.15657 24.18966 -0.02213
C 7.24792 25.58469 0.00028
C 8.49956 26.28575 -0.00289
C 8.50222 27.72402 -0.00066
C 7.29799 28.42344 0.00213
C 7.33805 29.86508 -0.05302
C 8.56087 30.56974 -0.04147
C 4.86958 24.09185 0.00798
C 6.02026 23.35821 0.00422
C 6.10653 9.28164 0.0351
C 4.83192 8.63436 -0.03113
C 4.85592 7.25646 0.02098
C 6.17662 6.48019 0.01848
C 19.93004 20.23069 0.03102
C 6.18981 5.0653 -0.00619
C 4.87403 2.94841 0.00889
C 6.07926 2.19209 -0.00481
C 6.0628 0.80318 0.00979
C 4.83969 0.10339 0.01443
C 7.38747 32.70315 0.03505
C 8.61186 32.00477 -0.02815
C 4.9414 4.3845 -0.02162
C 21.01868 19.38237 0.02555
C 20.93092 18.06442 0.01423
C 21.73692 6.30369 -0.00285
C 31.8764 4.35317 -0.03838
C 33.16183 5.09374 0.04926
C 33.14305 6.50537 -0.00069
C 31.88444 7.15672 0.01504
C 31.86398 8.60483 0.02806
C 33.11864 9.34806 0.04381
C 33.09954 10.74915 0.00199
C 31.93771 11.4267 0.00137
C 31.92374 12.86968 -0.01839
C 33.17451 13.55341 -0.00644
C 33.14858 14.92644 0.00455
C 31.8937 15.65002 0.00369
C 31.867 17.16394 -0.02474
C 33.17218 17.78221 0.00594
C 31.91919 2.94082 0.00349
C 33.18735 19.26175 -0.0136
C 31.91513 21.3327 -0.02383
C 32.90949 22.25964 0.01574
C 33.03476 23.59765 0.01927
C 33.63813 27.03246 0.03794
C 33.02995 30.55187 -0.01779
C 32.95161 32.00522 0.00682
C 31.82846 32.84417 0.00026
C 29.57979 0.04735 0.0544
C 30.68321 0.78753 -0.02142
C 30.6704 2.29562 0.01428
C 29.45156 2.97354 -0.01694
C 29.4292 4.4305 0.01713
C 30.59863 5.06606 0.00346
C 30.61635 6.45857 0.00307
C 31.88144 20.02283 -0.01429
C 33.18393 2.23827 -0.00323
C 33.15201 0.80845 -0.00841
C 31.90251 0.07059 0.0001
C 1.15945 0.81642 -0.00468
C 1.11258 2.20518 -0.00939
C 34.37681 2.90182 -0.00931
C 34.3965 4.36838 -0.0345
C 1.16526 5.08313 0.00628
C 1.158 6.45886 0.02931
C 34.30809 7.18099 -0.02849
C 34.34263 8.64134 -0.02302
C 1.19943 9.33581 -0.00583
C 1.25625 10.76235 -0.00027
C 34.36047 11.45778 -0.02442
C 34.36238 12.85797 -0.02656
C 1.22317 13.52976 0.00343
C 1.1317 14.99595 -0.02957
C 34.40007 15.70315 0.02114
C 34.35869 17.1283 0.00648
C 1.11904 17.92463 0.01223
C 34.27368 32.73418 -0.02927
C 1.0096 31.92775 -0.01404
C 1.01129 30.51135 0.01027
C 34.13974 29.7409 0.01831
C 34.23676 28.27509 -0.01037
C 1.15675 27.82561 -0.00439
C 29.37225 7.1174 0.00716
C 1.21354 26.39744 -0.00598
C 34.21923 24.37498 0.03076
C 1.15025 23.63562 0.00723
C 1.04132 22.21831 0.02712
C 34.2794 21.4795 -0.02213
C 34.34898 20.04077 0.01951
C 1.2067 19.35356 -0.01678
C 34.39835 25.6881 -0.05239
C 3.54538 32.02652 0.00165
C 29.43567 8.51194 0.02108
C 30.64185 10.68705 0.07705
C 24.17785 7.16976 -0.00621
C 24.38014 8.54421 0.00194
C 25.57708 9.21479 0.04185
C 25.72038 10.66897 0.02316
C 24.63877 11.45205 0.01257
C 24.57493 12.80652 0.00152
C 25.71525 13.49397 -0.00294
C 25.86687 14.90838 0.00826
C 24.55613 15.45994 0.00487
C 24.64465 16.91031 -0.00942
C 25.73756 17.6909 -0.02815
C 21.9885 33.94596 0.00622
C 23.30079 0.39344 -0.0032
C 23.36612 1.99065 -0.00037
C 25.54921 6.42703 0.02611
C 22.18715 2.66495 -0.01654
C 23.34366 4.9401 -0.00802
C 23.00359 6.30473 0.00195
C 23.24947 14.78992 0.00996
C 22.17418 15.66694 0.04306
C 21.92535 17.05856 0.00367
C 23.35805 17.68888 -0.01679
C 23.47793 19.11921 -0.01052
C 22.26445 19.74494 0.00684
C 19.62958 0.02466 -0.01154
C 20.90664 0.69216 -0.0264
C 20.84554 2.07317 -0.00938
C 19.67507 2.80254 -0.00229
C 19.80683 4.25523 -0.01199
C 21.09244 4.95611 -0.009
C 22.18268 4.15794 -0.00218
C 25.70684 4.99701 0.02198
C 24.50584 4.21425 0.01094
C 24.60251 2.79519 0.00235
C 29.44613 11.42815 0.01908
C 29.46335 12.8558 0.01518
C 30.67833 13.57303 -0.00971
C 30.66263 14.99625 -0.03735
C 29.46195 15.78377 -0.00944
C 29.35094 17.12591 -0.02155
C 30.60995 17.88586 -0.01461
C 30.68475 19.25665 -0.01303
C 29.49175 19.76454 -0.0405
C 27.09551 0.14654 0.01705
C 28.33756 0.64342 0.0101
C 28.24972 2.23456 -0.00669
C 27.0421 2.82103 0.03531
C 26.96083 4.27816 0.01836
C 28.1291 4.9882 -0.03039
C 28.08827 6.3547 -0.01415
C 26.8056 7.07572 -0.01854
C 25.79396 2.04485 0.01495
C 25.78945 0.50849 0.01259
C 24.60115 33.99165 0.01799
C 28.16703 19.28535 0.01699
C 28.18142 17.92033 -0.00416
C 26.9614 17.19588 0.01177
C 30.70207 9.29637 0.0103
C 26.9866 15.71342 0.04266
C 28.25481 13.48017 0.0014
C 27.01881 12.76031 0.00924
C 26.96085 11.36736 0.02326
C 28.22909 10.65842 0.00261
C 28.16102 9.21421 0.03265
C 26.85235 8.52757 -0.02049
C 28.22662 14.94302 0.01324
C 2.28672 32.6788 0.02819
