375
Graphene
C 34.43043 0.04054 0.01295
C 11.1323 2.10564 0.02299
C 11.03603 0.77011 0.00244
C 9.83584 0.03963 -0.01717
C 12.39194 19.79356 0.05265
C 13.51439 19.23565 -0.01952
C 13.55249 17.77271 -0.02813
C 12.22694 17.0102 0.00374
C 12.25724 15.59224 0.00052
C 13.49238 14.80093 -0.03682
C 13.54089 13.45699 0.01965
C 12.36641 12.79815 0.02058
C 12.33766 11.32001 -0.01957
C 13.56311 10.61898 -0.0108
C 13.5704 9.20801 -0.00368
C 12.27835 8.59087 -0.02696
C 12.30544 7.06503 -0.00114
C 13.52091 6.30188 0.00228
C 13.46793 4.92024 0.00798
C 12.34006 4.17999 0.00422
C 9.7884 2.82854 0.03542
C 9.7922 4.30391 0.01416
C 11.06457 4.92509 0.01945
C 11.04338 6.42562 -0.01454
C 9.72687 32.75897 0.03101
C 9.83322 29.76071 -0.01536
C 9.85421 28.51741 -0.02689
C 9.87346 25.52897 -0.01046
C 9.88844 24.22069 -0.00891
C 11.05195 22.02244 0.02819
C 9.88251 21.32601 0.00165
C 9.88038 19.91827 -0.02971
C 11.09171 19.29429 0.02894
C 12.29741 2.83807 0.0351
C 11.05618 17.83532 -0.01789
C 9.8627 15.55953 -0.00925
C 11.07439 14.88207 0.01877
C 11.12156 13.50346 0.01363
C 9.92299 12.76241 -0.02162
C 9.81372 11.30014 0.00415
C 11.05295 10.67783 -0.0014
C 11.08114 9.19254 0.02162
C 9.77388 8.48648 0.0076
C 9.85305 7.07343 0.01241
C 9.92473 17.05533 0.00444
C 7.36247 0.04144 -0.00428
C 13.55088 2.1455 -0.03113
C 12.23858 0.12081 0.01848
C 17.1954 11.3848 0.02691
C 18.41173 10.57846 -0.01581
C 18.45765 9.17686 0.01452
C 17.23044 8.56728 0.04892
C 17.20737 7.07337 -0.00111
C 18.41 6.3984 -0.03557
C 18.43772 4.9844 0.03754
C 17.24349 4.2501 0.01739
C 17.28092 2.89465 0.00755
C 18.46428 2.09656 -0.0054
C 18.47167 0.673 0.00667
C 17.24519 0.00107 0.00143
C 20.98859 17.65063 -0.017
C 19.62153 17.10912 0.00364
C 19.6603 15.60564 -0.00831
C 20.93282 14.86764 -0.02957
C 20.92273 13.46006 -0.04422
C 19.63978 12.83089 0.00654
C 19.62157 11.35184 -0.00703
C 17.17844 12.80345 -0.01979
C 18.37411 13.56465 0.02188
C 18.41648 14.9676 -0.00316
C 17.17181 15.63237 -0.0331
C 16.01184 17.7035 -0.00619
C 14.78433 17.06174 -0.02162
C 14.75552 15.65126 0.00889
C 15.97566 14.95234 -0.00481
C 16.02654 13.52106 0.00979
C 14.76975 12.78301 0.01443
C 14.76404 11.31612 0.03505
C 15.9614 10.62998 -0.02815
C 15.98247 9.22349 -0.04147
C 13.57314 0.69688 0.02098
C 14.74382 8.51461 -0.05302
C 15.95235 6.40397 -0.00066
C 15.95427 4.98562 -0.00289
C 14.75025 4.24108 0.00028
C 14.70774 2.8324 -0.02213
C 15.98854 2.15616 0.03698
C 16.03017 0.61453 -0.00109
C 14.72587 34.05894 -0.00491
C 18.41541 17.64498 0.03338
C 17.17222 17.04044 -0.0258
C 14.75801 7.07781 0.00213
C 20.85227 10.62336 -0.04076
C 8.61908 0.69398 -0.02245
C 7.43239 2.85704 -0.01275
C 3.64563 5.04247 0.01305
C 2.47655 4.23267 -0.00077
C 2.45906 2.85515 0.03368
C 3.67364 2.15653 -0.02929
C 3.66911 0.76513 -0.00966
C 2.47039 34.0027 -0.03337
C 4.89657 32.70537 0.01227
C 6.11276 31.98808 0.00873
C 6.10754 30.55183 -0.00049
C 4.94505 29.82658 0.00848
C 4.91414 28.45565 -0.01303
C 6.18659 27.65392 -0.01378
C 6.17875 26.31067 0.02635
C 4.95069 25.58762 0.0127
C 4.9196 24.1668 0.01396
C 6.09654 23.51528 0.01849
C 6.15852 22.06065 -0.01142
C 4.91646 21.2612 -0.00562
C 4.92282 19.86117 -0.00494
C 3.65455 6.44055 0.0276
C 2.47326 7.05693 0.00988
C 2.50967 8.53807 -0.01343
C 3.6647 9.23715 0.01087
C 3.77547 30.51873 0.00402
C 2.48494 29.81731 0.0073
C 2.37622 28.37562 0.0174
C 3.66205 27.79212 0.03828
C 3.68951 26.29203 0.01226
C 2.49887 25.54127 -0.00279
C 2.43754 24.17089 0.01996
C 3.74365 23.41325 -0.03996
C 3.64372 21.95451 0.01465
C 6.23274 19.1404 0.00054
C 2.34704 21.24009 -0.00074
C 3.66931 19.23994 0.0086
C 3.65195 17.80717 -0.00643
C 2.43851 17.06678 0.017
C 2.49735 15.66493 -0.03113
C 3.68178 14.83154 -0.02566
C 3.71942 13.49509 -0.00094
C 2.48803 12.82734 0.02322
C 2.44992 11.39939 -0.00725
C 3.67785 10.66434 -0.05697
C 2.42095 19.82876 -0.00518
C 8.59446 2.11601 0.00985
C 6.20605 17.73393 0.03007
C 4.9132 15.57658 0.01572
C 8.64265 23.47694 0.00093
C 8.61334 22.0916 0.00057
C 7.35735 21.32366 -0.01634
C 7.45244 19.88035 -0.00334
C 8.7016 19.18846 0.02339
C 8.65503 17.79576 0.01641
C 7.35696 16.94246 -0.00719
C 7.35236 15.59855 0.01364
C 8.55333 14.92787 -0.01062
C 8.55873 13.43314 -0.00033
C 7.37024 12.76869 0.03589
C 7.35638 11.38558 -0.02759
C 8.56962 10.66436 0.0402
C 8.62651 9.16979 0.00572
C 7.34971 8.56346 0.03592
C 7.35878 7.13866 0.00406
C 8.62352 6.42582 0.00943
C 8.57457 4.97459 0.02841
C 7.37707 4.28256 -0.01111
C 7.42461 24.19516 0.01291
C 7.39355 25.57602 0.00438
C 8.59935 26.32707 -0.00191
C 8.67625 27.70023 0.00373
C 6.1444 14.95822 -0.04848
C 6.13923 13.53263 -0.00892
C 4.95301 12.85459 -0.01362
C 4.8617 11.46263 -0.0008
C 6.10801 10.71603 0.0288
C 6.1447 9.27786 0.00393
C 4.85541 8.54036 0.00895
C 4.92178 7.15328 0.00685
C 6.15708 6.38906 0.02888
C 4.92841 17.01946 -0.00095
C 6.10724 4.99164 -0.00482
C 4.89178 2.86672 0.03693
C 6.16858 2.15332 0.01745
C 6.05767 0.71521 0.00488
C 4.85181 0.05139 -0.01004
C 7.3786 32.66638 -0.02896
C 8.6424 31.94954 -0.00131
C 8.57252 30.59294 -0.01118
C 7.34331 29.84794 -0.014
C 7.44061 28.47911 0.02147
C 4.91918 4.23042 -0.01384
C 3.70427 31.96084 0.02374
C 20.85977 9.20725 -0.00652
C 19.67262 7.0883 -0.00865
C 30.71631 2.17348 0.00716
C 30.6423 0.70837 0.00307
C 29.44754 34.07406 0.00346
C 31.9358 32.60284 0.01713
C 33.19635 32.00016 -0.01694
C 33.1558 30.5358 0.01428
C 31.98856 29.85306 -0.02142
C 31.98371 28.36343 0.0544
C 33.20768 27.6995 0.00026
C 33.1922 26.30977 0.00682
C 32.00604 25.57057 -0.01779
C 32.01234 24.19151 0.03794
C 33.18562 23.40985 0.01927
C 33.18653 22.01492 0.01574
C 31.95663 21.30968 -0.02383
C 31.9076 19.943 -0.01429
C 33.24069 19.17337 -0.0136
C 33.22022 17.71045 0.00594
C 32.033 16.98662 -0.02474
C 29.50311 2.86839 0.02108
C 29.51821 4.29926 0.0103
C 30.7684 4.9741 0.07705
C 30.72418 6.37085 0.01908
C 30.75504 27.66008 0.02326
C 30.7234 26.28241 0.00261
C 29.54928 25.57773 0.03265
C 29.52871 24.03945 -0.02049
C 30.79732 23.40234 -0.01854
C 30.78162 22.03758 -0.01415
C 29.50925 21.34682 -0.03039
C 29.51236 19.83237 0.01836
C 30.69448 19.16431 0.03531
C 32.04005 15.55906 0.00369
C 30.71028 17.68937 -0.00669
C 29.48307 15.64277 0.01705
C 30.72142 14.88988 -0.0405
C 30.69577 13.5285 -0.01303
C 29.49235 12.789 -0.01461
C 29.53331 11.30098 -0.02155
C 30.78542 10.65289 -0.00944
C 30.75262 9.25074 -0.03735
C 29.58389 8.50543 -0.00971
C 29.52212 7.03467 0.01518
C 29.5228 17.02845 0.0101
C 29.58842 28.37489 0.00924
C 33.19366 14.88143 0.00455
C 31.97625 12.76968 -0.01839
C 34.43001 19.90172 0.01951
C 1.21067 19.18706 -0.01678
C 1.23588 17.82902 0.01223
C 34.41667 17.04627 0.00648
C 0.03668 15.66587 0.02114
C 1.19925 14.94926 -0.02957
C 1.23122 13.49538 0.00343
C 34.43046 12.78283 -0.02656
C 0.04328 11.39757 -0.02442
C 1.26389 10.64677 -0.00027
C 1.20472 9.19048 -0.00583
C 34.41598 8.55651 -0.02302
C 34.42357 7.12222 -0.02849
C 1.24455 6.43527 0.02931
C 1.17172 4.87058 0.00628
C 34.38001 4.21764 -0.0345
C 34.43244 2.81238 -0.00931
C 1.30829 2.12853 -0.00939
C 1.18612 0.67017 -0.00468
C 34.36958 21.31352 -0.02213
C 1.18988 21.97435 0.02712
C 1.19747 23.43596 0.00723
C 34.41245 24.09436 0.03076
C 31.97356 11.42468 0.00137
C 33.201 10.70655 0.00199
C 33.19499 9.23806 0.04381
C 31.9669 8.51562 0.02806
C 31.91514 7.08007 0.01504
C 33.12831 6.41384 -0.00069
C 33.2065 4.99516 0.04926
C 32.01832 4.22908 -0.03838
C 31.98153 2.82283 0.00349
C 33.16778 13.50976 -0.00644
C 33.20939 2.15996 -0.00323
C 31.94442 0.05966 0.0001
C 34.40621 32.69343 -0.02927
C 1.19272 31.94786 -0.01404
C 1.23655 30.57545 0.01027
C 0.01928 29.83198 0.01831
C 0.02272 28.40301 -0.01037
C 1.19445 27.65697 -0.00439
C 1.19315 26.25593 -0.00598
C 34.40049 25.57994 -0.05239
C 33.18235 0.79128 -0.00841
C 19.68917 8.45927 0.0058
C 29.52974 29.77811 0.0014
C 30.66845 31.93348 0.04266
C 22.14715 2.84928 -0.03213
C 23.41255 2.14047 0.02239
C 23.28713 0.64927 0.01153
C 22.0812 34.04472 0.02734
C 24.59296 32.65122 -0.0055
C 25.80619 31.91583 0.01515
C 25.75955 30.53638 -0.00225
C 24.61926 29.81436 0.00071
C 25.85707 27.60434 -0.01107
C 25.88391 26.36567 -0.01586
C 25.80841 23.41916 -0.01971
C 25.78034 21.96329 -0.02118
C 24.56849 21.25651 0.00733
C 24.49726 19.86912 -0.00178
C 25.83288 19.16048 0.00768
C 25.85905 17.73185 -0.0276
C 24.58869 17.08687 0.03005
C 24.48792 15.62043 -0.04078
C 25.72907 14.90658 0.02117
C 22.11408 4.1867 -0.02845
C 23.30177 4.97944 0.03374
C 23.40998 6.36392 0.0296
C 22.17308 7.08231 0.03046
C 20.81077 6.38998 0.00675
C 20.84174 4.9056 -0.00311
C 19.68409 4.22648 0.00742
C 19.69807 2.78989 -0.01594
C 20.95958 2.06731 0.0106
C 20.92705 0.64767 -0.01154
C 19.72269 0.00017 -0.01721
C 22.16048 32.62614 -0.02422
C 23.3461 31.88163 0.01277
C 25.80064 13.4829 0.02737
C 23.31165 19.17165 0.00096
C 22.19602 16.96093 0.01087
C 22.2079 15.55779 0.00199
C 23.33115 14.83671 0.01511
C 23.36302 13.46606 -0.00478
C 22.14959 12.77196 -0.01662
C 22.14305 11.32844 -0.01185
C 23.41609 10.65458 0.01126
C 23.33654 9.21075 0.01852
C 22.13002 8.52276 -0.00381
C 23.40061 17.74836 -0.01527
C 30.79955 30.52983 0.01324
C 24.6246 12.82825 -0.00498
C 25.8202 10.68334 0.03102
C 28.30841 17.65973 0.00487
C 27.03928 17.04529 0.00826
C 27.05031 15.64359 -0.00294
C 28.25079 14.98291 0.00152
C 28.24003 13.49272 0.01257
C 27.05739 12.80159 0.02316
C 27.02378 11.38654 0.04185
C 28.29146 10.64429 0.00194
C 28.33102 9.25156 -0.00621
C 27.03193 8.58822 0.02611
C 27.04943 7.06165 0.02198
C 28.30985 6.44022 0.01094
C 28.32342 4.97794 0.00235
C 27.115 4.22726 0.01495
C 26.98481 2.79738 0.01259
C 28.30826 2.15695 0.01799
C 28.29131 0.69493 0.01699
C 27.18319 0.02323 -0.00416
C 29.47197 32.67627 0.01177
C 28.29071 19.12882 -0.00942
C 27.05808 19.85263 -0.02815
C 26.97145 21.28776 0.00622
C 28.20228 22.02083 -0.0032
C 25.76909 9.22906 0.02555
C 24.54623 8.49518 0.01423
C 24.62358 7.06093 -0.00285
C 25.75245 6.32052 -0.009
C 25.81313 4.95863 -0.01199
C 24.5474 4.2874 -0.00229
C 24.55232 2.84538 -0.00938
C 25.78362 2.15934 -0.0264
C 25.83421 0.72663 -0.01154
C 24.61457 11.36224 0.00135
C 24.58152 0.01402 0.00684
C 28.29136 31.86109 -0.01679
C 28.32247 30.49553 0.00367
C 27.04503 29.80151 0.04306
C 27.04192 28.40786 0.00996
C 28.3711 27.77002 0.00195
C 28.29971 26.29647 -0.00802
C 27.00623 25.49872 -0.00218
C 27.02188 24.10877 -0.01654
C 28.26938 23.45242 -0.00037
C 27.01223 32.66223 -0.01052
C 2.46029 32.62661 0.03267
