366
Graphene
C 34.40365 34.06206 0.01295
C 14.85736 4.27282 0.00374
C 14.78537 2.94363 0.00052
C 16.00374 2.15949 -0.03682
C 15.95657 0.72334 0.01965
C 14.72126 0.07562 0.02058
C 17.16127 32.69599 -0.01957
C 18.40795 31.96523 -0.0108
C 18.43654 30.52102 -0.00368
C 15.97131 5.03875 -0.02813
C 17.21742 29.84153 -0.02696
C 18.39387 27.7057 0.00228
C 18.39851 26.21076 0.00798
C 17.21224 25.49119 0.00422
C 17.25987 24.06137 0.0351
C 18.57423 23.56131 -0.03113
C 19.10149 22.10164 0.02098
C 18.59416 18.29744 0.01848
C 18.53044 14.71708 -0.00619
C 17.17979 28.38005 -0.00114
C 15.95265 6.52755 -0.01952
C 14.71859 7.20031 0.05265
C 14.71652 8.58894 -0.01717
C 13.49694 6.41094 -0.02971
C 13.47884 5.00163 0.02894
C 12.28984 4.25332 -0.01789
C 12.30408 2.87782 0.00444
C 13.52039 2.17016 -0.00925
C 13.47917 0.7008 0.01877
C 12.25288 0.01335 0.01363
C 14.75544 32.68988 -0.02162
C 15.92847 31.9319 0.00415
C 15.94985 30.53779 -0.0014
C 14.69299 29.77596 0.02162
C 14.72486 28.40499 0.0076
C 15.96497 27.64403 0.01241
C 15.94927 26.287 -0.01454
C 14.78453 25.57781 0.01945
C 15.10096 24.14612 0.01416
C 15.99951 23.31132 0.03542
C 16.14525 10.72451 0.02299
C 15.94587 9.26441 0.00244
C 18.29422 13.53692 -0.02162
C 17.25049 11.22853 0.00889
C 18.55933 10.58355 -0.00481
C 18.46942 9.14135 0.00979
C 19.19939 15.93252 -0.00111
C 20.65325 14.97192 -0.03557
C 20.83121 13.55103 0.03754
C 19.62696 12.72428 0.01739
C 19.7335 11.30086 0.00755
C 20.92299 10.66155 -0.0054
C 20.96227 9.16646 0.00667
C 19.69901 8.46235 0.00143
C 19.67734 7.08072 -0.017
C 20.94644 6.31402 0.00364
C 20.99595 4.96264 -0.00831
C 19.70794 4.19114 -0.02957
C 19.72083 2.80077 -0.04422
C 20.95347 2.10675 0.00654
C 20.90662 0.64042 -0.00703
C 19.66303 34.04221 -0.04076
C 22.05853 32.68094 -0.00652
C 23.31154 31.88321 0.0058
C 23.28794 30.45575 -0.00865
C 19.32893 17.31024 0.04892
C 12.19184 7.1119 0.00165
C 20.82005 17.74906 0.01452
C 19.38996 19.52753 0.02691
C 17.15849 8.56479 0.01443
C 17.20819 7.16385 0.03505
C 18.4531 6.39655 -0.02815
C 18.45513 4.98016 -0.04147
C 17.20554 4.31167 -0.05302
C 17.28151 2.85255 0.00213
C 18.53588 2.08096 -0.00066
C 18.53624 0.70191 -0.00289
C 17.20718 0.03286 0.00028
C 19.70008 32.64891 -0.02213
C 20.89382 31.92596 0.03698
C 20.85623 30.5398 -0.00109
C 19.60787 29.74082 -0.00491
C 19.56756 28.36025 0.03338
C 20.84284 27.76486 -0.0258
C 20.91658 26.35461 -0.0331
C 19.66051 25.62137 -0.00316
C 19.7642 24.26557 0.02188
C 19.02326 20.81765 -0.01979
C 20.9154 19.12939 -0.01581
C 12.24212 8.58115 0.02819
C 13.29793 9.10909 -0.00891
C 12.39311 25.50062 -0.01046
C 3.66791 2.19182 -0.00049
C 3.65678 0.75421 0.00848
C 2.46143 0.02933 -0.01303
C 4.86476 32.74617 -0.01378
C 6.16999 32.00634 0.02635
C 6.16812 30.60857 0.0127
C 4.90715 29.89696 0.01396
C 4.84497 28.48501 0.01849
C 6.11635 27.76279 -0.01142
C 6.13812 26.40413 -0.00562
C 4.85739 25.69859 -0.00494
C 4.88928 24.24504 0.00054
C 5.2116 11.04447 0.03007
C 5.88026 9.69372 -0.00095
C 4.84621 8.59213 0.01572
C 4.91884 7.25841 -0.04848
C 6.19634 6.56768 -0.00892
C 6.1945 5.10118 -0.01362
C 4.90624 4.3954 -0.0008
C 2.43682 2.88383 0.00873
C 4.93391 2.89851 0.0288
C 2.41159 4.28282 0.01227
C 3.64207 6.48078 -0.00966
C 3.71938 30.53213 -0.00074
C 2.4433 29.94416 -0.00518
C 2.33759 28.48932 0.0086
C 3.61611 27.79221 -0.00643
C 3.59563 26.33186 0.017
C 2.3971 25.55067 -0.03113
C 2.49842 24.22529 -0.02566
C 3.6931 23.47338 -0.00094
C 3.57303 22.14013 0.02322
C 2.60618 21.20309 -0.00725
C 2.55765 19.86532 -0.05697
C 2.39405 16.74305 0.01087
C 2.52215 15.54906 -0.01343
C 2.35471 12.77378 0.00988
C 2.55361 11.40137 0.0276
C 3.80378 10.60965 0.01305
C 3.55521 9.24989 -0.00077
C 2.40562 8.6431 0.03368
C 2.41601 7.14219 -0.02929
C 3.71136 5.01237 -0.03337
C 22.05625 29.84353 0.00675
C 6.18032 2.21119 0.00393
C 4.86079 0.03674 0.00685
C 11.08006 27.58072 0.01364
C 11.07035 26.13144 -0.01062
C 9.82789 25.64938 -0.00033
C 9.67584 8.664 0.03589
C 9.77043 7.1232 -0.02759
C 10.99487 6.36975 0.0402
C 10.99353 4.97016 0.00572
C 9.79182 4.3017 0.03592
C 9.81024 2.922 0.00406
C 11.03877 2.25298 0.00943
C 11.09263 0.69887 0.02841
C 9.88838 0.11057 -0.01111
C 12.28214 32.65254 -0.01275
C 13.5256 31.96683 0.00985
C 13.50484 30.56415 -0.02245
C 12.24816 29.8454 -0.00428
C 12.29637 28.40417 0.03101
C 13.55511 27.64098 -0.01536
C 13.51323 26.33155 -0.02689
C 9.85935 28.37537 -0.00719
C 6.12638 0.78629 0.00895
C 9.82495 29.80025 0.01641
C 11.06475 31.99003 -0.00334
C 7.36421 32.78727 0.02888
C 8.53529 32.02383 -0.00482
C 8.58216 30.58753 -0.01384
C 7.41144 29.85216 0.03693
C 7.4024 28.49241 0.01745
C 8.58891 27.70277 0.00488
C 8.52976 26.27061 -0.01004
C 7.24382 25.61888 -0.02896
C 8.65197 9.17008 -0.00131
C 7.16459 8.92518 -0.01118
C 7.28905 7.34305 -0.014
C 8.50858 6.54557 0.02147
C 8.54921 5.10289 0.00373
C 7.3943 4.30408 -0.00191
C 7.38157 2.93794 0.00438
C 8.59385 2.19625 0.01291
C 8.65059 0.77123 0.00093
C 7.3407 0.09494 0.00057
C 9.76694 32.76405 -0.01634
C 11.03409 30.51111 0.02339
C 22.12036 28.41923 -0.00311
C 23.27743 27.70872 0.00742
C 23.21887 26.24121 -0.01594
C 30.7296 0.7475 0.00307
C 29.43216 34.07758 0.00346
C 31.95723 32.70579 0.01713
C 33.212 31.9944 -0.01694
C 33.1451 30.57868 0.01428
C 31.9098 29.84954 -0.02142
C 31.8915 28.40981 0.0544
C 33.1714 27.77497 0.00026
C 33.10943 26.2829 0.00682
C 31.86216 25.61228 -0.01779
C 31.88891 24.1062 0.03794
C 33.19404 23.44838 0.01927
C 33.22842 21.99524 0.01574
C 31.95492 21.30811 -0.02383
C 32.01479 19.9159 -0.01429
C 33.25861 19.17678 -0.0136
C 33.25326 17.80686 0.00594
C 32.03298 17.05461 -0.02474
C 32.03727 15.64008 0.00369
C 30.67484 2.13991 0.00716
C 33.23668 15.03454 0.00455
C 29.49589 2.82448 0.02108
C 30.7805 4.9176 0.07705
C 29.43513 25.50222 0.03265
C 29.41399 24.11996 -0.02049
C 30.64393 23.40237 -0.01854
C 30.66339 21.99579 -0.01415
C 29.40257 21.29488 -0.03039
C 29.52184 19.86681 0.01836
C 30.77434 19.19044 0.03531
C 30.83577 17.80521 -0.00669
C 29.48609 17.05479 0.0101
C 29.5565 15.63836 0.01705
C 30.78626 14.91324 -0.0405
C 30.76278 13.49958 -0.01303
C 29.52455 12.72666 -0.01461
C 29.42153 11.35289 -0.02155
C 30.75556 10.63782 -0.00944
C 30.77772 9.19406 -0.03735
C 29.51754 8.55092 -0.00971
C 29.49129 7.07121 0.01518
C 30.73921 6.38698 0.01908
C 29.53682 4.28196 0.0103
C 30.62854 26.28536 0.00261
C 33.18649 13.55044 -0.00644
C 31.92501 11.37621 0.00137
C 0.04547 19.91422 0.01951
C 1.28474 19.21939 -0.01678
C 1.26723 17.81126 0.01223
C 0.05431 17.07715 0.00648
C 0.00542 15.6876 0.02114
C 1.16587 14.88021 -0.02957
C 1.13797 13.44238 0.00343
C 34.29095 12.78333 -0.02656
C 34.35916 11.38959 -0.02442
C 1.17474 10.66814 -0.00027
C 1.16295 9.28312 -0.00583
C 34.38113 8.51937 -0.02302
C 34.40383 7.13393 -0.02849
C 1.21677 6.43143 0.02931
C 1.21186 5.04947 0.00628
C 34.40609 4.3294 -0.0345
C 0.00371 2.87329 -0.00931
C 1.20068 2.14206 -0.00939
C 1.16838 0.69415 -0.00468
C 0.04435 21.35576 -0.02213
C 31.94836 12.7173 -0.01839
C 1.2542 21.98715 0.02712
C 34.39783 24.19462 0.03076
C 33.17331 10.641 0.00199
C 33.18778 9.18679 0.04381
C 32.00422 8.5431 0.02806
C 31.98061 7.10185 0.01504
C 33.14396 6.43051 -0.00069
C 33.17687 4.98919 0.04926
C 31.98956 4.305 -0.03838
C 31.96929 2.84207 0.00349
C 33.24151 2.19494 -0.00323
C 33.2312 0.74603 -0.00841
C 31.93122 0.03767 0.0001
C 0.01501 32.67653 -0.02927
C 1.25379 31.98069 -0.01404
C 1.18258 30.5444 0.01027
C 34.36953 29.8842 0.01831
C 34.3684 28.50042 -0.01037
C 1.19974 27.74868 -0.00439
C 1.19005 26.29853 -0.00598
C 34.334 25.63249 -0.05239
C 1.23324 23.43819 0.00723
C 3.67912 32.02051 0.01465
C 30.66012 27.76451 0.02326
C 29.4009 29.82149 0.0014
C 25.78987 30.49797 0.02734
C 24.52122 29.7501 -0.0055
C 24.56976 28.34086 0.01515
C 25.7538 27.64537 -0.00225
C 25.69873 26.10846 0.00071
C 24.44864 25.48011 -0.01107
C 24.46031 24.11426 -0.01586
C 25.65305 23.36079 -0.01971
C 25.71674 21.92117 -0.02118
C 24.43765 21.17957 0.00733
C 24.53467 19.84527 -0.00178
C 25.74818 19.12993 0.00768
C 25.78847 17.65407 -0.0276
C 24.5533 17.02221 0.03005
C 24.5535 15.53269 -0.04078
C 25.76885 14.80521 0.02117
C 25.77581 13.44152 0.02737
C 24.55522 12.73557 -0.00498
C 24.63037 11.30445 0.00135
C 25.82474 31.93847 0.01153
C 25.79754 10.64582 0.03102
C 24.57521 32.59717 0.02239
C 23.37046 0.61587 -0.02845
C 22.04271 25.58614 0.0106
C 22.05042 19.80294 -0.01154
C 23.28382 19.14796 -0.01721
C 23.34194 17.69121 -0.02422
C 22.00003 17.02148 0.01277
C 21.95324 15.54506 0.00096
C 23.25272 14.86789 -0.01527
C 23.28305 13.48416 0.01087
C 22.06564 12.7801 0.00199
C 22.13611 11.37287 0.01511
C 23.36056 10.65588 -0.00478
C 23.39784 9.20627 -0.01662
C 22.19067 8.4377 -0.01185
C 22.17538 7.07104 0.01126
C 23.38608 6.3912 0.01852
C 23.38522 4.94473 -0.00381
C 22.18229 4.22324 0.03046
C 22.16467 2.8422 0.0296
C 23.46888 2.0077 0.03374
C 22.15475 34.0638 -0.03213
C 29.38812 28.40192 0.00924
C 25.8302 9.24783 0.02555
C 24.64341 7.12082 -0.00285
C 27.03157 15.485 -0.00294
C 28.34978 14.88726 0.00152
C 28.25614 13.45341 0.01257
C 27.01068 12.81436 0.02316
C 27.07448 11.36712 0.04185
C 28.30211 10.65746 0.00194
C 28.30739 9.25296 -0.00621
C 27.0348 8.57862 0.02611
C 27.08688 7.1004 0.02198
C 28.25938 6.39821 0.01094
C 28.28999 5.0017 0.00235
C 27.09033 4.23564 0.01495
C 27.07177 2.79419 0.01259
C 28.28564 2.14767 0.01799
C 28.22632 0.75491 0.01699
C 27.07025 34.05627 -0.00416
C 29.4448 32.7133 0.01177
C 30.62192 32.03905 0.04266
C 30.66347 30.46333 0.01324
C 27.06896 16.99816 0.00826
C 24.63886 8.51512 0.01423
C 28.27475 17.77596 0.00487
C 26.91998 19.82014 -0.02815
C 25.88127 6.36188 -0.009
C 25.82385 4.88172 -0.01199
C 24.70323 4.25877 -0.00229
C 24.5729 2.82465 -0.00938
C 25.9012 2.11059 -0.0264
C 25.87689 0.67771 -0.01154
C 24.54597 34.05003 0.00684
C 27.06445 32.65259 -0.01052
C 28.21675 31.92556 -0.01679
C 28.22787 30.54081 0.00367
C 27.01049 29.7533 0.04306
C 26.93091 28.30946 0.00996
C 28.17512 27.64691 0.00195
C 28.15319 26.24877 -0.00802
C 26.89435 25.44996 -0.00218
C 26.88759 24.07152 -0.01654
C 28.18531 23.38048 -0.00037
C 28.16306 21.97124 -0.0032
C 26.93767 21.23653 0.00622
C 28.28329 19.14248 -0.00942
C 2.48695 32.69639 -0.03996
