349
Graphene
C 0.01439 0.06038 0.01295
C 9.88743 15.58566 0.00422
C 11.03558 14.9799 0.0351
C 11.06542 13.5345 -0.03113
C 9.88215 12.74794 0.02098
C 9.88494 11.39507 0.01848
C 11.10157 10.64496 -0.00619
C 10.9484 9.17354 -0.02162
C 9.83918 8.51232 0.00889
C 9.83046 2.674 -0.00481
C 10.99884 2.13585 0.00979
C 11.12779 0.75955 0.01443
C 9.90697 34.05657 0.03505
C 12.34573 32.64609 -0.02815
C 13.57076 31.96215 -0.04147
C 13.5248 30.58854 -0.05302
C 12.29549 29.77637 0.00213
C 12.31664 28.31071 -0.00066
C 9.77562 17.01352 0.00798
C 11.10849 17.65672 0.00228
C 11.01763 19.13564 -0.00114
C 9.79729 19.90788 -0.02696
C 8.63853 4.9305 -0.01454
C 7.34621 4.33672 0.01945
C 7.25021 2.92277 0.01416
C 8.59798 2.19235 0.03542
C 8.65585 0.72923 0.02299
C 7.40482 0.05147 0.00244
C 9.86369 32.64487 -0.01717
C 11.06304 31.95476 0.05265
C 13.53421 27.57728 -0.00289
C 11.09918 30.53796 -0.01952
C 9.82213 28.49624 0.00374
C 11.034 27.71836 0.00052
C 11.04293 26.32895 -0.03682
C 9.87979 25.48941 0.01965
C 9.86214 24.12833 0.02058
C 11.12214 23.44275 -0.01957
C 11.12026 22.02482 -0.0108
C 9.82899 21.231 -0.00368
C 9.82607 29.87612 -0.02813
C 13.57087 26.30335 0.00028
C 12.25861 25.55773 -0.02213
C 12.33661 24.12995 0.03698
C 14.85911 17.08683 -0.00831
C 14.78358 15.67492 -0.02957
C 15.98667 14.95586 -0.04422
C 15.93907 13.57492 0.00654
C 14.74328 12.80951 -0.00703
C 14.7483 11.27328 -0.04076
C 15.98287 10.61184 -0.00652
C 15.98352 9.26326 0.0058
C 16.0767 17.70209 0.00364
C 14.66931 8.55797 -0.00865
C 15.96632 5.03357 -0.00311
C 14.78196 2.77683 0.00742
C 16.06445 2.20192 -0.01594
C 15.99307 0.65864 0.0106
C 14.77646 0.00684 -0.01154
C 17.13271 32.60094 -0.01721
C 17.16683 17.01607 -0.02422
C 17.16232 15.64324 0.01277
C 15.95112 6.31658 0.00675
C 8.62676 6.26696 0.01241
C 14.77239 19.80135 -0.017
C 16.02063 32.06078 0.00667
C 13.43318 23.28233 -0.00109
C 13.44899 22.08177 -0.00491
C 12.25541 21.32597 0.03338
C 12.23565 19.91742 -0.0258
C 13.53281 19.21236 -0.0331
C 13.57762 17.69303 -0.00316
C 12.33888 17.02904 0.02188
C 12.31363 15.64134 -0.01979
C 14.7311 29.89093 0.00143
C 13.59014 14.93732 0.02691
C 12.29676 12.77956 0.01452
C 12.32793 11.32928 0.04892
C 13.4989 10.57412 -0.00111
C 13.53309 9.18023 -0.03557
C 13.65282 2.17777 0.03754
C 13.48127 0.73257 0.01739
C 12.28463 34.07667 0.00755
C 14.7251 32.68727 -0.0054
C 13.52125 13.48693 -0.01581
C 7.34172 7.11205 0.0076
C 7.36181 8.55158 0.02162
C 8.64842 9.20038 -0.0014
C 2.4094 7.0564 -0.00892
C 3.67958 6.33973 -0.01362
C 3.64968 4.94062 -0.0008
C 2.46576 4.23288 0.0288
C 2.42981 2.81171 0.00393
C 3.7086 2.13277 0.00895
C 3.73248 0.73585 0.00685
C 2.43749 0.08453 0.02888
C 2.47718 8.46379 -0.04848
C 4.88314 32.6533 -0.00482
C 6.13101 30.51212 0.03693
C 4.90911 29.88277 0.01745
C 4.89113 28.34612 0.00488
C 6.12723 27.73958 -0.01004
C 6.09909 26.31125 -0.02896
C 4.8725 25.56908 -0.00131
C 4.88942 24.16886 -0.01118
C 6.15304 23.49477 -0.014
C 6.15868 31.91199 -0.01384
C 6.16395 22.05921 0.02147
C 3.70615 9.23193 0.01572
C 2.49583 11.35745 0.03007
C 3.62744 30.61086 0.03368
C 2.47359 29.85451 -0.02929
C 2.42676 28.36705 -0.00966
C 3.64386 27.68637 -0.03337
C 3.65187 26.31466 0.01227
C 2.50212 25.49743 0.00873
C 2.5368 24.17671 -0.00049
C 3.68819 23.40643 0.00848
C 3.78288 10.637 -0.00095
C 3.66556 22.00121 -0.01303
C 2.37156 19.87769 0.02635
C 3.64888 19.26916 0.0127
C 3.71423 17.77556 0.01396
C 2.50093 17.02738 0.01849
C 2.44447 15.63799 -0.01142
C 3.74172 14.88299 -0.00562
C 3.67706 13.44766 -0.00494
C 2.49128 12.73484 0.00054
C 2.34946 21.25149 -0.01378
C 18.41769 14.99983 0.00096
C 4.89218 21.349 0.00373
C 6.10323 19.19756 0.00438
C 7.40893 28.44765 -0.02245
C 8.61408 27.62203 -0.00428
C 8.66288 26.25527 0.03101
C 7.40143 25.63399 -0.01536
C 7.37949 24.2001 -0.02689
C 8.5857 23.41209 -0.01046
C 8.56766 21.94555 -0.00891
C 7.35787 21.28325 0.02819
C 7.43278 29.84297 0.00985
C 7.37721 19.8458 0.00165
C 8.59861 17.80135 0.02894
C 7.37237 17.12398 -0.01789
C 7.34274 15.65556 0.00444
C 8.66155 14.89845 -0.00925
C 8.69238 13.48336 0.01877
C 7.42374 12.82402 0.01363
C 7.36862 11.26725 -0.02162
C 8.6228 10.61242 0.00415
C 8.5647 19.18821 -0.02971
C 4.87071 19.84366 -0.00191
C 8.61071 30.53214 -0.01275
C 7.35179 32.67734 0.02841
C 6.13554 17.79478 0.01291
C 4.93849 16.98792 0.00093
C 4.89721 15.63708 0.00057
C 6.13558 14.94572 -0.01634
C 6.20004 13.53101 -0.00334
C 4.92743 12.76836 0.02339
C 4.95997 11.3749 0.01641
C 6.15504 10.69249 -0.00719
C 8.59634 31.98585 -0.01111
C 6.13642 9.30325 0.01364
C 4.95063 7.11476 -0.00033
C 6.147 6.44173 0.03589
C 6.13455 5.04198 -0.02759
C 4.93393 4.33753 0.0402
C 4.855 2.96843 0.00572
C 6.0968 2.2007 0.03592
C 6.15912 0.73922 0.00406
C 4.86337 0.00404 0.00943
C 4.91281 8.56747 -0.01062
C 3.67931 31.97519 -0.00077
C 18.45477 13.46686 -0.01527
C 17.18646 11.39251 0.00199
C 33.18384 30.59544 0.01428
C 31.99329 29.83468 -0.02142
C 31.86672 28.40155 0.0544
C 33.1264 27.72328 0.00026
C 33.18839 26.26354 0.00682
C 31.97523 25.55108 -0.01779
C 31.90155 24.19561 0.03794
C 33.15678 23.45945 0.01927
C 33.26254 22.0816 0.01574
C 31.99148 21.26029 -0.02383
C 31.96543 19.90428 -0.01429
C 33.14311 19.16058 -0.0136
C 33.22909 17.73938 0.00594
C 31.95806 17.06374 -0.02474
C 31.89329 15.6286 0.00369
C 33.12247 14.88177 0.00455
C 33.15859 13.42198 -0.00644
C 33.19472 32.02709 -0.01694
C 31.92148 32.63248 0.01713
C 29.51942 0.02585 0.00346
C 30.74806 0.6787 0.00307
C 29.5086 19.83503 0.01836
C 30.70504 19.21094 0.03531
C 30.78378 17.75178 -0.00669
C 29.53542 17.10129 0.0101
C 29.48769 15.60493 0.01705
C 30.71171 14.90703 -0.0405
C 30.71927 13.49583 -0.01303
C 29.44918 12.83377 -0.01461
C 32.00623 12.74377 -0.01839
C 29.53737 11.30901 -0.02155
C 30.78884 9.15999 -0.03735
C 29.53047 8.53587 -0.00971
C 29.50721 7.12472 0.01518
C 30.75683 6.40013 0.01908
C 30.72767 4.96131 0.07705
C 29.50089 4.26613 0.0103
C 29.51495 2.85309 0.02108
C 30.79142 2.17587 0.00716
C 30.76404 10.57694 -0.00944
C 32.00096 11.3155 0.00137
C 33.21914 10.67213 0.00199
C 33.18772 9.26834 0.04381
C 1.21515 19.09852 -0.01678
C 1.18497 17.7488 0.01223
C 0.02977 16.97793 0.00648
C 34.37375 15.54202 0.02114
C 1.19098 14.93177 -0.02957
C 1.20361 13.45731 0.00343
C 34.39542 12.81147 -0.02656
C 34.42026 11.36524 -0.02442
C 0.01015 19.8172 0.01951
C 1.25894 10.64237 -0.00027
C 34.42107 8.56776 -0.02302
C 0.06105 7.08447 -0.02849
C 1.22231 6.29955 0.02931
C 1.24881 4.93012 0.00628
C 0.04842 4.22483 -0.0345
C 34.40295 2.80253 -0.00931
C 1.24118 2.10771 -0.00939
C 1.23207 0.7403 -0.00468
C 1.20368 9.25 -0.00583
C 30.84854 22.22392 -0.03039
C 0.00101 21.29961 -0.02213
C 1.28211 23.52017 0.00723
C 31.93738 8.55945 0.02806
C 31.98689 7.11206 0.01504
C 33.20572 6.40006 -0.00069
C 33.27302 5.00951 0.04926
C 32.0184 4.27555 -0.03838
C 31.95572 2.79769 0.00349
C 33.188 2.14863 -0.00323
C 33.19806 0.71957 -0.00841
C 1.25699 22.10584 0.02712
C 31.91583 33.97834 0.0001
C 1.18005 31.93471 -0.01404
C 1.23351 30.52544 0.01027
C 0.06719 29.82627 0.01831
C 34.35628 28.3625 -0.01037
C 1.15776 27.70008 -0.00439
C 1.22227 26.2092 -0.00598
C 34.39143 25.54485 -0.05239
C 34.42092 24.10104 0.03076
C 34.42985 32.74751 -0.02927
C 30.75581 23.41263 -0.01415
C 30.77591 26.34922 -0.01854
C 30.7714 27.56651 -0.02049
C 19.62596 4.22488 -0.02118
C 19.61635 2.8303 0.00733
C 20.88365 2.16555 -0.00178
C 20.96446 0.58437 0.00768
C 19.65053 0.02825 -0.0276
C 22.08278 15.68189 0.03005
C 23.32563 15.00696 -0.04078
C 23.35327 13.55653 0.02117
C 20.86482 4.97869 -0.01971
C 22.11997 12.78313 0.02737
C 23.38909 10.6976 0.00135
C 23.37053 9.25485 0.03102
C 22.16263 8.51904 0.02555
C 22.11456 7.05588 0.01423
C 23.34286 6.40234 -0.00285
C 23.36215 4.99111 -0.009
C 22.09294 4.35319 -0.01199
C 22.12776 2.78056 -0.00229
C 22.11648 11.33193 -0.00498
C 23.29698 2.13338 -0.00938
C 20.88555 6.41901 -0.01586
C 19.70521 8.5031 0.00071
C 18.34252 10.58185 0.01511
C 18.3917 9.20743 -0.00478
C 17.23038 8.50699 -0.01662
C 17.1907 7.03838 -0.01185
C 18.39978 6.38428 0.01126
C 18.46024 4.92661 0.01852
C 17.20241 4.24994 -0.00381
C 17.28848 2.8425 0.03046
C 19.64835 7.09992 -0.01107
C 18.45228 2.06282 0.0296
C 17.21074 34.02212 -0.02845
C 19.58864 15.5718 -0.03213
C 20.90414 14.9756 0.02239
C 20.93468 13.4595 0.01153
C 19.67285 12.82312 0.02734
C 19.54916 11.34439 -0.0055
C 20.82205 10.63166 0.01515
C 20.90751 9.16728 -0.00225
C 18.41468 0.69245 0.03374
C 17.24538 12.7862 0.01087
C 23.4233 0.66579 -0.0264
C 24.49611 15.61692 0.00684
C 28.20886 13.43711 -0.00621
C 27.07644 12.71991 0.02611
C 27.0804 11.32727 0.02198
C 28.3384 10.58979 0.01094
C 28.32529 9.17185 0.00235
C 27.09509 8.51952 0.01495
C 27.05582 7.10436 0.01259
C 28.31377 6.33494 0.01799
C 28.25772 14.871 0.00194
C 28.2646 4.98005 0.01699
C 27.14198 2.76898 0.01177
C 28.37422 2.07527 0.04266
C 28.27573 0.63912 0.01324
C 27.03595 34.03134 0.0014
C 29.54562 32.66316 0.00924
C 30.71131 31.90175 0.02326
C 30.79019 30.48934 0.00261
C 29.39064 29.85292 0.03265
C 27.08101 4.25146 -0.00416
C 22.20463 0.02464 -0.01154
C 27.08849 15.63569 0.04185
C 28.27022 17.78424 0.01257
C 25.81138 14.95309 -0.01052
C 25.84735 13.40579 -0.01679
C 24.58318 12.8139 0.00367
C 24.60236 11.41442 0.04306
C 25.81499 10.72161 0.00996
C 25.80245 9.24948 0.00195
C 24.59672 8.56068 -0.00802
C 24.55852 7.1325 -0.00218
C 27.13387 17.05483 0.02316
C 25.86906 6.43717 -0.01654
C 24.59813 4.34224 -0.0032
C 24.59587 2.81749 0.00622
C 25.84753 2.18376 -0.02815
C 25.85854 0.69626 -0.00942
C 24.69403 34.06325 0.00487
C 26.95604 32.62307 0.00826
C 28.24228 31.96499 -0.00294
C 28.36503 30.44135 0.00152
C 25.98457 5.04483 -0.00037
C 2.40888 32.70569 0.01305
