383
Graphene
C 34.34666 0.01157 0.01295
C 11.05838 5.03667 0.0076
C 9.81589 4.30123 0.01241
C 9.86072 2.87063 -0.01454
C 11.03685 2.19215 0.01945
C 11.06618 0.78129 0.01416
C 9.83667 0.051 0.03542
C 12.3043 32.63115 0.02299
C 13.47518 31.92382 0.00244
C 13.51292 30.5072 -0.01717
C 11.02131 6.50259 0.02162
C 12.32223 29.80756 0.05265
C 13.48164 27.65887 -0.02813
C 13.56335 26.26301 0.00374
C 12.31161 25.53117 0.00052
C 12.39318 24.08977 -0.03682
C 13.60419 23.39112 0.01965
C 13.54184 21.95582 0.02058
C 12.32799 21.27203 -0.01957
C 12.26998 19.86804 -0.0108
C 13.51594 19.11411 -0.00368
C 12.269 28.36354 -0.01952
C 13.53736 17.67098 -0.02696
C 9.80557 7.18612 -0.0014
C 11.11863 9.30436 -0.02162
C 11.024 30.5604 0.02841
C 9.82918 29.86324 -0.01111
C 9.84543 28.49059 -0.01275
C 11.11194 27.69567 0.00985
C 11.08765 26.31888 -0.02245
C 9.82989 25.66997 -0.00428
C 9.83468 24.2378 0.03101
C 11.05983 23.38906 -0.01536
C 11.09343 21.98291 -0.02689
C 9.82066 8.59539 0.00415
C 9.85108 21.35743 -0.01046
C 11.02775 19.11009 0.02819
C 11.03294 17.69954 0.00165
C 9.81896 16.9801 -0.02971
C 9.8172 15.54444 0.02894
C 11.028 14.91009 -0.01789
C 11.08751 13.49544 0.00444
C 9.85674 12.82321 -0.00925
C 9.86201 11.43544 0.01877
C 11.1399 10.77992 0.01363
C 9.85117 19.87059 -0.00891
C 11.04892 31.97251 0.00943
C 12.27005 17.00516 -0.00114
C 13.56175 14.98631 0.00798
C 14.55291 21.04928 -0.0258
C 14.76574 19.77911 -0.0331
C 14.72129 17.16955 -0.00316
C 14.8413 15.78608 0.02188
C 15.80473 14.89586 -0.01979
C 15.85031 13.56512 0.02691
C 14.73954 12.73378 -0.01581
C 14.87026 11.31512 0.01452
C 16.0612 9.08818 0.04892
C 16.2294 23.56083 0.03338
C 14.79747 8.5262 -0.00111
C 16.01571 6.32989 0.03754
C 15.93965 4.92401 0.01739
C 14.74217 4.22946 0.00755
C 14.76298 2.84002 -0.0054
C 15.93682 2.13314 0.00667
C 15.94025 0.67854 0.00143
C 14.70117 33.98675 -0.017
C 17.17685 32.67833 0.00364
C 18.41199 31.94587 -0.00831
C 14.78912 7.04037 -0.03557
C 12.28857 15.57471 0.00228
C 14.85075 24.05807 -0.00491
C 15.99587 26.1881 0.03698
C 13.54077 13.60027 0.00422
C 12.36136 12.82568 0.0351
C 12.38642 11.42736 -0.03113
C 13.61139 10.64498 0.02098
C 13.52253 9.2534 0.01848
C 12.33137 8.56983 -0.00619
C 12.29822 7.12491 -0.02162
C 13.56137 6.36063 0.00889
C 13.55345 4.95814 -0.00481
C 14.76226 25.45377 -0.00109
C 12.29216 4.30644 0.00979
C 13.52484 2.08537 0.03505
C 13.51198 0.67219 -0.02815
C 12.31409 34.07856 -0.04147
C 14.64461 32.62454 -0.05302
C 15.87319 31.90477 0.00213
C 16.00347 30.4523 -0.00066
C 14.76301 29.76993 -0.00289
C 14.79107 28.30437 0.00028
C 15.99291 27.56811 -0.02213
C 12.33749 2.89667 0.01443
C 18.36423 30.5247 -0.02957
C 9.81116 32.7149 0.00406
C 8.61368 0.81556 0.00572
C 3.66711 5.04472 -0.00094
C 2.3619 4.31577 0.02322
C 2.37004 2.88215 -0.00725
C 3.6149 2.2188 -0.05697
C 3.63529 0.80239 0.01087
C 2.34653 0.12937 -0.01343
C 4.85023 32.71531 0.00988
C 6.06621 32.03959 0.0276
C 6.10833 30.62875 0.01305
C 3.59219 6.47825 -0.02566
C 4.87126 29.90457 -0.00077
C 6.08369 27.81321 -0.02929
C 6.13411 26.36383 -0.00966
C 4.85284 25.54794 -0.03337
C 4.88012 24.1563 0.01227
C 6.13545 23.47157 0.00873
C 6.18969 22.03848 -0.00049
C 4.92489 21.29659 0.00848
C 5.0073 19.94078 -0.01303
C 6.20503 19.26029 -0.01378
C 4.82991 28.51081 0.03368
C 6.20606 17.74247 0.02635
C 2.32226 7.07196 -0.03113
C 3.63324 9.21506 -0.00643
C 3.65147 30.60402 -0.003
C 2.38858 29.86992 0.01402
C 2.41096 28.4404 0.02379
C 3.6297 27.75447 0.00907
C 3.65193 26.25034 0.00643
C 2.31404 25.59974 -0.01509
C 2.4221 24.14043 0.03267
C 3.63351 23.44982 0.02374
C 3.69649 21.95998 0.00402
C 2.40356 8.49691 0.017
C 2.4125 21.25851 0.0073
C 3.7387 19.25435 0.03828
C 3.80453 17.81387 0.01226
C 2.51056 17.11678 -0.00279
C 2.48412 15.63224 0.01996
C 3.65961 14.9348 -0.03996
C 3.67536 13.55438 0.01465
C 2.47891 12.81217 -0.00074
C 2.40604 11.36881 -0.00518
C 3.65291 10.67139 0.0086
C 2.47124 19.84774 0.0174
C 7.37118 0.0941 0.03592
C 4.97528 17.10714 0.0127
C 6.0997 14.91763 0.01849
C 8.65433 22.06675 -0.01118
C 7.38137 21.33883 -0.014
C 7.47897 19.87076 0.02147
C 8.67763 19.06431 0.00373
C 8.60638 17.65788 -0.00191
C 7.41275 16.9904 0.00438
C 7.29573 15.57513 0.01291
C 8.61464 14.88496 0.00093
C 8.59772 13.47626 0.00057
C 8.63861 23.50095 -0.00131
C 7.29032 12.81682 -0.01634
C 8.60358 10.71976 0.02339
C 8.5645 9.26835 0.01641
C 7.29933 8.61599 -0.00719
C 7.35024 7.20499 0.01364
C 8.59395 6.50663 -0.01062
C 8.55736 5.02718 -0.00033
C 7.31568 4.35174 0.03589
C 7.37427 2.90855 -0.02759
C 8.59497 2.24967 0.0402
C 7.36022 11.4174 -0.00334
C 4.89591 15.61554 0.01396
C 7.33661 24.15978 -0.02896
C 8.61737 26.37995 0.00488
C 6.0644 13.51699 -0.01142
C 4.82449 12.78229 -0.00562
C 4.85229 11.37797 -0.00494
C 6.12049 10.70528 0.00054
C 6.04957 9.29164 0.03007
C 4.90825 8.55365 -0.00095
C 4.86331 7.16547 0.01572
C 6.11944 6.43982 -0.04848
C 6.12441 5.03384 -0.00892
C 7.36887 25.60516 -0.01004
C 4.89297 4.27528 -0.01362
C 6.16793 2.17348 0.0288
C 6.12517 0.77742 0.00393
C 4.86523 0.05756 0.00895
C 7.34487 32.70882 0.00685
C 8.60103 32.00144 0.02888
C 8.6365 30.67327 -0.00482
C 7.38555 29.95829 -0.01384
C 7.35024 28.55009 0.03693
C 8.55922 27.78067 0.01745
C 4.89576 2.90332 -0.0008
C 3.59154 32.05555 0.00031
C 17.19948 29.774 -0.04422
C 18.41142 27.65961 -0.00703
C 30.68791 6.40269 0.0103
C 30.73097 5.01579 0.02108
C 29.48471 4.31039 0.00716
C 29.46641 2.929 0.00307
C 30.66423 2.14721 0.00346
C 30.69282 0.75927 0.01713
C 29.58085 34.04683 -0.01694
C 31.91896 32.72027 0.01428
C 33.03209 31.8488 -0.02142
C 29.43827 7.1272 0.07705
C 33.20824 30.48058 0.0544
C 33.12132 26.34611 0.00682
C 31.92565 25.58393 -0.01779
C 31.8581 24.19938 0.03794
C 33.13834 23.49636 0.01927
C 33.18183 21.99178 0.01574
C 31.98938 21.32733 -0.02383
C 32.01583 19.86001 -0.01429
C 33.23598 19.15018 -0.0136
C 33.24088 17.74325 0.00594
C 33.05162 27.84778 0.00026
C 32.01992 17.05813 -0.02474
C 29.46487 8.5376 0.01908
C 30.70474 10.67054 -0.00971
C 27.02254 4.29114 0.0014
C 27.06709 2.89404 0.00924
C 28.32574 2.16927 0.02326
C 28.35058 0.72028 0.00261
C 27.12531 0.06226 0.03265
C 30.57754 25.925 -0.02049
C 29.47633 25.49545 -0.01854
C 29.44252 24.1085 -0.01415
C 30.72543 23.46682 -0.03039
C 30.68407 9.26473 0.01518
C 30.82053 22.06391 0.01836
C 29.63117 19.85955 -0.00669
C 30.77185 19.13842 0.0101
C 30.741 17.71642 0.01705
C 29.50215 17.13625 -0.0405
C 29.43869 15.6029 -0.01303
C 30.6796 14.8818 -0.01461
C 30.74733 13.45525 -0.02155
C 29.47964 12.70904 -0.00944
C 29.42849 11.34187 -0.03735
C 29.6778 21.29752 0.03531
C 28.22424 4.99514 0.01324
C 31.96614 15.60911 0.00369
C 33.18669 13.51622 -0.00644
C 34.40452 21.27481 -0.02213
C 0.02145 19.85086 0.01951
C 1.29741 19.18467 -0.01678
C 1.3258 17.75351 0.01223
C 0.10521 17.05621 0.00648
C 0.04438 15.69753 0.02114
C 1.24203 14.91126 -0.02957
C 1.2547 13.52141 0.00343
C 34.42728 12.81007 -0.02656
C 1.17369 21.99232 0.02712
C 0.02928 11.4527 -0.02442
C 1.18454 9.14941 -0.00583
C 34.37552 8.48691 -0.02302
C 34.38192 7.09596 -0.02849
C 1.10433 6.36308 0.02931
C 1.09906 4.97674 0.00628
C 34.30337 4.27937 -0.0345
C 34.34667 2.90199 -0.00931
C 1.13114 2.18629 -0.00939
C 1.11891 0.77867 -0.00468
C 1.20262 10.646 -0.00027
C 33.24712 14.96625 0.00455
C 1.17032 23.42156 0.00723
C 34.38953 25.63083 -0.05239
C 31.95215 12.78665 -0.01839
C 31.99535 11.34388 0.00137
C 33.26275 10.70754 0.00199
C 33.15423 9.28429 0.04381
C 31.95011 8.53872 0.02806
C 31.91482 7.16591 0.01504
C 33.17257 6.42523 -0.00069
C 33.08495 4.96933 0.04926
C 31.89991 4.24332 -0.03838
C 34.37716 24.17214 0.03076
C 31.90192 2.86383 0.00349
C 33.14779 0.75691 -0.00841
C 31.95837 0.04947 0.0001
C 34.30519 32.64679 -0.02927
C 1.10494 31.98585 -0.01404
C 1.19692 30.56032 0.01027
C 34.40742 29.82842 0.01831
C 34.41612 28.439 -0.01037
C 1.16672 27.66993 -0.00439
C 1.1793 26.31399 -0.00598
C 33.14124 2.17302 -0.00323
C 17.22164 28.36019 0.00654
C 28.23954 6.36058 0.04266
C 26.98971 8.46104 -0.00416
C 19.65201 8.44776 0.03046
C 19.70068 7.08366 0.0296
C 20.90558 6.3592 0.03374
C 20.91727 4.91685 -0.02845
C 19.70024 4.19189 -0.03213
C 19.69127 2.82978 0.02239
C 20.98894 2.12053 0.01153
C 20.87457 0.6583 0.02734
C 19.63792 0.00239 -0.0055
C 20.86679 9.14801 -0.00381
C 22.18867 32.66339 0.01515
C 23.33495 30.59403 0.00071
C 22.15059 29.8001 -0.01107
C 22.11693 28.34674 -0.01586
C 23.35401 27.64118 -0.01971
C 23.36555 26.28049 -0.02118
C 22.20507 25.48537 0.00733
C 23.18443 13.34308 -0.00178
C 22.14955 12.60027 0.00768
C 22.1028 11.24282 -0.0276
C 23.39387 31.91275 -0.00225
C 23.36034 10.67096 0.03005
C 20.94528 10.45693 0.01852
C 19.578 12.46869 -0.01185
C 18.30478 26.0259 -0.04076
C 17.08274 25.22994 -0.00652
C 18.30956 12.96429 0.0058
C 17.25836 13.44918 -0.00865
C 17.23912 6.92959 0.00675
C 18.46839 6.33344 -0.00311
C 18.46367 4.91193 0.00742
C 17.20466 4.22778 -0.01594
C 17.19025 2.83028 0.0106
C 20.05615 11.39506 0.01126
C 18.40016 2.10364 -0.01154
C 17.12106 34.04296 -0.02422
C 19.63269 32.68099 0.01277
C 20.8443 31.99018 0.00096
C 20.85702 30.57081 -0.01527
C 19.61867 29.82445 0.01087
C 19.64394 28.37704 0.00199
C 20.81032 27.62486 0.01511
C 20.94775 25.99488 -0.00478
C 19.60788 25.64453 -0.01662
C 18.38158 0.66897 -0.01721
C 26.91472 7.08183 0.01177
C 23.34525 9.23418 -0.04078
C 22.18193 7.08779 0.02737
C 24.57178 2.76882 0.00622
C 25.88458 2.14196 -0.02815
C 25.90977 0.75176 -0.00942
C 24.63379 34.07104 0.00487
C 27.01153 32.73422 0.00826
C 26.95033 25.45251 -0.00294
C 27.30909 24.28836 0.00152
C 28.32609 23.39565 0.01257
C 28.39157 21.88317 0.02316
C 24.56781 4.23791 -0.0032
C 27.31349 20.90421 0.04185
C 28.27034 17.9235 -0.00621
C 27.19706 17.07561 0.02611
C 26.87159 15.75507 0.02198
C 28.24768 14.90197 0.01094
C 28.23248 13.47076 0.00235
C 26.96887 12.72276 0.01495
C 27.05992 11.32654 0.01259
C 28.25378 10.5409 0.01799
C 28.187 9.18556 0.01699
C 28.23161 19.44485 0.00194
C 22.14739 8.52091 0.02117
C 25.76026 4.93256 -0.00037
C 24.51759 7.02245 -0.00218
C 23.3574 6.29902 -0.00498
C 23.30149 4.90967 0.00135
C 22.11554 4.19376 0.03102
C 22.16267 2.79215 0.02555
C 23.36473 2.09558 0.01423
C 23.39068 0.65829 -0.00285
C 22.15417 34.02457 -0.009
C 24.61888 32.55632 -0.01199
C 25.85757 31.98112 -0.00229
C 25.7399 6.3463 -0.01654
C 24.36171 29.67961 -0.00938
C 25.8072 26.21692 -0.01154
C 24.62415 25.98718 0.00684
C 25.75209 14.86485 -0.01052
C 25.70545 13.48585 -0.01679
C 24.38882 12.85299 0.00367
C 24.57471 11.43779 0.04306
C 25.77095 10.66526 0.00996
C 25.74236 9.21221 0.00195
C 24.54166 8.42646 -0.00802
C 24.45887 28.42681 -0.0264
C 2.30244 32.74209 0.03189
