345
Graphene
C 0.02855 34.07702 0.01295
C 12.304 7.2709 0.02098
C 13.43313 6.4703 0.01848
C 13.54899 5.08216 -0.00619
C 12.29967 4.28303 -0.02162
C 12.2457 2.80574 0.00889
C 13.46388 2.12032 -0.00481
C 13.49715 0.68494 0.00979
C 12.31638 0.02188 0.01443
C 14.75069 32.64697 0.03505
C 15.99483 31.83965 -0.02815
C 16.02474 30.37541 -0.04147
C 14.73861 29.75889 -0.05302
C 14.76105 28.23297 0.00213
C 16.0498 27.56522 -0.00066
C 14.93036 8.5632 -0.00289
C 14.72876 7.18917 0.00028
C 15.90313 6.35779 -0.02213
C 12.33925 8.76442 -0.03113
C 13.475 27.61018 0.0351
C 12.29551 28.33333 0.00422
C 12.30263 29.74729 0.00798
C 9.83443 29.8583 0.03542
C 9.77954 28.33547 0.02299
C 11.09349 27.64426 0.00244
C 10.8535 26.17464 -0.01717
C 9.72822 25.71376 0.05265
C 11.17802 9.14869 -0.01952
C 9.88754 8.61919 -0.02813
C 9.84529 7.1414 0.00374
C 15.97233 4.97561 0.03698
C 11.05993 6.50482 0.00052
C 9.8484 4.29832 0.01965
C 9.80285 2.84051 0.02058
C 11.02259 2.12673 -0.01957
C 11.08311 0.76433 -0.0108
C 9.84342 0.03825 -0.00368
C 12.30186 32.57723 -0.02696
C 13.52523 31.93168 -0.00114
C 13.47498 30.49235 0.00228
C 11.11744 5.04704 -0.03682
C 11.05777 30.68487 0.01416
C 14.72584 4.21858 -0.00109
C 15.95207 2.09702 0.03338
C 19.72517 29.92899 0.00654
C 19.60263 28.54305 -0.00703
C 20.93878 27.85954 -0.04076
C 20.63686 26.52362 -0.00652
C 21.15676 10.78092 0.0058
C 20.80722 9.41153 -0.00865
C 19.64216 8.60147 0.00675
C 19.64675 7.03087 -0.00311
C 20.85525 6.36185 0.00742
C 20.93156 4.95066 -0.01594
C 19.67356 4.22384 0.0106
C 19.54285 2.80216 -0.01154
C 20.80243 2.13973 -0.01721
C 20.8418 0.6822 -0.02422
C 19.6486 34.07343 0.01277
C 22.21511 32.70226 0.00096
C 23.42852 31.87903 -0.01527
C 20.96543 30.58009 -0.04422
C 21.00604 31.98753 -0.02957
C 19.64119 32.64928 -0.00831
C 17.15535 33.9646 0.00364
C 15.96833 0.61493 -0.0258
C 14.76911 34.03433 -0.0331
C 17.16756 32.54804 -0.00316
C 18.39707 31.88617 0.02188
C 18.51111 30.51339 -0.01979
C 17.28431 29.7063 0.02691
C 17.35134 28.25264 -0.01581
C 18.5623 27.62348 0.01452
C 14.75668 2.84249 -0.00491
C 18.93376 26.30446 0.04892
C 17.07055 8.61095 -0.03557
C 17.14657 7.13273 0.03754
C 18.39347 6.38361 0.01739
C 18.40943 4.98989 0.00755
C 17.21995 4.2494 -0.0054
C 17.19111 2.86659 0.00667
C 18.37675 2.10415 0.00143
C 18.41052 0.65783 -0.017
C 18.18093 9.08988 -0.00111
C 11.03241 32.0957 0.01945
C 9.851 32.68267 -0.01454
C 7.36783 0.00273 0.01241
C 2.45654 7.13733 0.00393
C 3.73844 6.38499 0.00895
C 3.72909 4.97483 0.00685
C 2.45555 4.32258 0.02888
C 2.44351 2.91876 -0.00482
C 3.63415 2.21075 -0.01384
C 3.6332 0.7394 0.03693
C 2.35242 0.04514 0.01745
C 4.91695 32.6696 0.00488
C 6.11254 31.96229 -0.01004
C 6.03749 30.57492 -0.02896
C 4.83182 29.79657 -0.00131
C 4.90419 28.31624 -0.01118
C 6.15455 27.74185 -0.014
C 6.03777 26.29201 0.02147
C 4.84725 25.57871 0.00373
C 4.9407 24.16796 -0.00191
C 2.44331 8.55114 0.0288
C 3.69839 9.35089 -0.0008
C 3.69738 10.71542 -0.01362
C 2.51899 11.42144 -0.00892
C 3.59387 30.5809 0.01227
C 2.46336 29.79229 0.00873
C 2.40856 28.31258 -0.00049
C 3.58127 27.63457 0.00848
C 3.57429 26.31403 -0.01303
C 2.4267 25.52047 -0.01378
C 2.45545 24.08503 0.02635
C 3.6423 23.4705 0.0127
C 6.16818 23.36389 0.00438
C 3.61694 22.09938 0.01396
C 2.4165 19.93826 -0.01142
C 3.56646 19.18311 -0.00562
C 3.6152 17.73964 -0.00494
C 2.37186 17.08963 0.00054
C 2.41064 15.60179 0.03007
C 3.66598 14.93975 -0.00095
C 3.67349 13.49943 0.01572
C 2.4351 12.78399 -0.04848
C 2.37974 21.34803 0.01849
C 6.02937 22.00519 0.01291
C 4.88938 21.23771 0.00093
C 4.85217 19.88725 0.00057
C 7.35336 29.8625 -0.01536
C 7.33226 28.50144 -0.02689
C 8.53374 27.68257 -0.01046
C 8.44568 26.35636 -0.00891
C 7.29341 25.57854 0.02819
C 7.32403 24.16636 0.00165
C 7.36091 12.78191 -0.02971
C 7.48467 11.45199 0.02894
C 8.61563 30.51131 0.03101
C 8.78609 10.83691 -0.01789
C 7.42914 8.58526 -0.00925
C 7.3914 7.13169 0.01877
C 8.64855 6.41137 0.01363
C 8.64032 4.97899 -0.02162
C 7.38952 4.29997 0.00415
C 7.37481 2.86601 -0.0014
C 8.57894 2.15564 0.02162
C 8.57741 0.68412 0.0076
C 8.66345 9.35909 0.00444
C 23.42526 30.37137 0.01087
C 8.64581 31.92967 -0.00428
C 4.86884 34.06699 0.00985
C 6.08575 19.08732 -0.01634
C 6.02089 17.9331 -0.00334
C 4.87301 17.07884 0.02339
C 4.82967 15.65781 0.01641
C 6.12133 14.99389 -0.00719
C 6.23011 13.63957 0.01364
C 4.90592 12.80649 -0.01062
C 4.90325 11.41777 -0.00033
C 7.3782 32.68902 -0.02245
C 6.13794 10.72454 0.03589
C 4.96531 8.59561 0.0402
C 4.92518 7.16217 0.00572
C 6.12916 6.47176 0.03592
C 6.20317 5.05183 0.00406
C 4.93303 4.27433 0.00943
C 4.9376 2.88151 0.02841
C 6.07849 2.15747 -0.01111
C 6.12773 0.80283 -0.01275
C 6.17164 9.30004 -0.02759
C 3.66423 31.9887 -0.03337
C 22.22319 29.73039 0.00199
C 23.26247 27.48065 -0.00478
C 31.9137 29.77602 -0.02142
C 31.90048 28.30317 0.0544
C 33.10582 27.64636 0.00026
C 33.07552 26.18129 0.00682
C 31.80631 25.52384 -0.01779
C 31.88306 24.13129 0.03794
C 33.11757 23.43838 0.01927
C 33.161 22.01371 0.01574
C 31.91529 21.40651 -0.02383
C 31.90467 19.93825 -0.01429
C 33.14324 19.18263 -0.0136
C 33.09734 17.75565 0.00594
C 31.91843 17.12259 -0.02474
C 31.86433 15.61887 0.00369
C 33.11223 14.92875 0.00455
C 33.15815 13.51737 -0.00644
C 31.85104 12.83076 -0.01839
C 33.15737 30.47619 0.01428
C 33.17881 31.91316 -0.01694
C 31.91335 32.65184 0.01713
C 29.39652 34.05175 0.00346
C 30.65285 19.31764 0.03531
C 30.66954 17.86843 -0.00669
C 29.41481 17.14502 0.0101
C 29.39564 15.67153 0.01705
C 30.67014 14.98595 -0.0405
C 30.65393 13.58404 -0.01303
C 29.43055 12.83957 -0.01461
C 29.51164 11.39783 -0.02155
C 31.95698 11.40473 0.00137
C 30.74958 10.65138 -0.00944
C 29.39383 8.52366 -0.00971
C 29.41502 7.14244 0.01518
C 30.6326 6.42991 0.01908
C 30.77065 5.01594 0.07705
C 29.53634 4.20783 0.0103
C 29.5576 2.7791 0.02108
C 30.70648 2.08992 0.00716
C 30.65434 0.68762 0.00307
C 30.64772 9.27972 -0.03735
C 29.52159 20.11631 0.01836
C 33.17772 10.66887 0.00199
C 31.90457 8.54038 0.02806
C 1.2109 17.7958 0.01223
C 34.38283 17.10497 0.00648
C 34.40909 15.64532 0.02114
C 1.21274 14.97413 -0.02957
C 1.24657 13.56477 0.00343
C 34.38904 12.80842 -0.02656
C 0.02378 11.45223 -0.02442
C 1.26182 10.68301 -0.00027
C 1.20973 9.26183 -0.00583
C 0.00489 8.52258 -0.02302
C 34.33443 7.1512 -0.02849
C 1.12786 6.47572 0.02931
C 1.2034 5.04027 0.00628
C 34.43177 4.24498 -0.0345
C 34.39852 2.84508 -0.00931
C 1.2497 2.24459 -0.00939
C 1.22859 0.75128 -0.00468
C 1.21625 19.22658 -0.01678
C 34.39905 19.86621 0.01951
C 34.42662 21.31092 -0.02213
C 1.21888 22.10673 0.02712
C 31.82749 7.16131 0.01504
C 33.11266 6.41451 -0.00069
C 33.22677 4.98403 0.04926
C 31.98534 4.27696 -0.03838
C 31.93286 2.85651 0.00349
C 33.12943 2.14665 -0.00323
C 33.18152 0.66169 -0.00841
C 31.85624 34.06194 0.0001
C 33.15665 9.2438 0.04381
C 34.38289 32.67257 -0.02927
C 1.20471 30.47412 0.01027
C 34.34758 29.74633 0.01831
C 34.27033 28.40474 -0.01037
C 1.14801 27.65658 -0.00439
C 1.13931 26.20867 -0.00598
C 34.31787 25.55304 -0.05239
C 34.336 24.1837 0.03076
C 1.23112 23.48098 0.00723
C 1.19986 31.94507 -0.01404
C 29.40729 21.55695 -0.03039
C 30.65984 22.09063 -0.01415
C 30.58272 23.4899 -0.01854
C 24.6118 28.09325 -0.00178
C 25.81132 27.46342 0.00768
C 25.5463 21.7543 -0.0276
C 24.17846 21.46853 0.03005
C 24.81296 20.27356 -0.04078
C 25.90856 19.3735 0.02117
C 25.77385 17.9225 0.02737
C 24.70085 17.07735 -0.00498
C 24.63583 15.94278 0.00135
C 25.66206 14.99221 0.03102
C 25.62972 13.5418 0.02555
C 24.44079 12.7203 0.01423
C 24.59373 11.34871 -0.00285
C 25.74817 10.63322 -0.009
C 25.71768 9.18389 -0.01199
C 24.47842 8.54383 -0.00229
C 24.4966 7.05921 -0.00938
C 24.60915 29.68187 0.00733
C 25.90408 30.2895 -0.02118
C 25.87129 31.80131 -0.01971
C 24.66028 32.58042 -0.01586
C 22.88339 26.19511 -0.01662
C 21.56008 25.5621 -0.01185
C 22.5133 24.68142 0.01126
C 22.45954 23.47145 0.01852
C 23.0392 22.42516 -0.00381
C 22.99866 13.00886 0.03046
C 22.27445 11.62845 0.0296
C 23.32602 10.69265 0.03374
C 25.74256 6.42761 -0.0264
C 23.30241 9.25487 -0.02845
C 22.05052 7.16556 0.02239
C 23.29534 6.33721 0.01153
C 23.40449 4.94339 0.02734
C 22.1794 4.31973 -0.0055
C 22.07461 2.81669 0.01515
C 23.37656 2.11724 -0.00225
C 23.35761 0.68702 0.00071
C 22.15678 0.06116 -0.01107
C 22.13256 8.52698 -0.03213
C 25.8996 5.00549 -0.01154
C 24.65086 4.27216 0.00684
C 24.60956 2.83638 -0.01052
C 26.9289 8.59889 0.02611
C 26.97832 7.10902 0.02198
C 28.2673 6.40325 0.01094
C 28.31546 4.98163 0.00235
C 27.07351 4.2684 0.01495
C 27.10603 2.8102 0.01259
C 28.32201 2.0733 0.01799
C 28.21939 0.64524 0.01699
C 28.16084 9.2099 -0.00621
C 26.97723 33.98798 -0.00416
C 30.72859 31.92085 0.04266
C 30.64754 30.5159 0.01324
C 29.45754 29.69077 0.0014
C 29.49054 28.25996 0.00924
C 30.67441 27.578 0.02326
C 30.4481 26.23535 0.00261
C 29.10522 25.60146 0.03265
C 29.15806 23.99237 -0.02049
C 29.51072 32.66228 0.01177
C 22.19029 28.45176 0.01511
C 28.23728 10.64138 0.00194
C 26.95332 12.84871 0.02316
C 25.85937 2.12211 -0.01679
C 25.7809 0.67708 0.00367
C 24.62541 34.05704 0.04306
C 27.04129 32.52809 0.00996
C 28.30418 31.92268 0.00195
C 28.33146 30.45471 -0.00802
C 27.13615 29.60555 -0.00218
C 27.14899 27.97196 -0.01654
C 26.97623 11.37548 0.04185
C 28.34291 27.31566 -0.00037
C 27.06154 21.60638 0.00622
C 27.17777 20.04073 -0.02815
C 28.31917 19.30368 -0.00942
C 28.26121 17.84458 0.00487
C 27.03322 17.14228 0.00826
C 26.98997 15.69607 -0.00294
C 28.17823 14.89845 0.00152
C 28.20228 13.5612 0.01257
C 28.29359 22.51777 -0.0032
C 2.42483 32.73816 -0.00966
