443
Graphene
C 34.42178 0.03233 0.01295
C 13.5073 19.20898 0.00093
C 13.49361 17.80566 0.00057
C 12.27638 17.05463 -0.01634
C 12.3247 15.63648 -0.00334
C 13.55114 14.91913 0.02339
C 13.5532 13.49912 0.01641
C 12.24812 12.77087 -0.00719
C 12.29047 11.3323 0.01364
C 13.4663 10.54851 -0.01062
C 13.55082 9.18691 -0.00033
C 12.32099 8.50222 0.03589
C 12.37283 7.0937 -0.02759
C 13.57863 6.31841 0.0402
C 13.5414 4.95896 0.00572
C 12.32779 4.30147 0.03592
C 12.29933 2.81578 0.00406
C 13.51723 2.07819 0.00943
C 13.511 0.62754 0.02841
C 12.31989 33.95984 -0.01111
C 14.74519 32.66048 -0.01275
C 15.91098 31.97548 0.00985
C 15.93701 30.48737 -0.02245
C 14.69326 29.84631 -0.00428
C 12.27557 19.96629 0.01291
C 12.31508 21.39905 0.00438
C 13.61372 22.04254 -0.00191
C 13.54826 23.4798 0.00373
C 11.08835 14.93052 0.00054
C 11.06446 13.52027 0.03007
C 9.84668 12.80964 -0.00095
C 9.88337 11.40246 0.01572
C 11.07441 10.72167 -0.04848
C 11.02826 9.29276 -0.00892
C 9.80137 8.60187 -0.01362
C 9.84243 7.06281 -0.0008
C 11.0849 6.4383 0.0288
C 11.09371 5.02401 0.00393
C 9.91918 4.30019 0.00895
C 14.70239 28.38242 0.03101
C 9.85048 2.87026 0.00685
C 11.0657 0.59382 -0.00482
C 9.75906 0.065 -0.01384
C 12.32204 32.56724 0.03693
C 13.56795 31.96868 0.01745
C 13.54537 30.5711 0.00488
C 12.32078 29.91991 -0.01004
C 12.25875 28.49512 -0.02896
C 13.43911 27.67224 -0.00131
C 13.51393 26.2451 -0.01118
C 12.31798 25.56622 -0.014
C 12.29031 24.15366 0.02147
C 11.0582 2.08843 0.02888
C 15.89525 27.75873 -0.01536
C 16.03856 26.35889 -0.02689
C 14.75942 25.52527 -0.01046
C 18.56163 26.39044 -0.03682
C 17.30262 25.61326 0.01965
C 17.24523 24.16108 0.02058
C 18.50109 23.37603 -0.01957
C 18.43782 21.92925 -0.0108
C 17.17442 21.26681 -0.00368
C 17.18116 19.84372 -0.02696
C 18.45153 19.10025 -0.00114
C 18.45496 17.66509 0.00228
C 17.17611 17.08823 0.00798
C 17.18625 15.63385 0.00422
C 17.12491 29.81979 0.00052
C 18.3938 14.9889 0.0351
C 17.26133 12.80319 0.02098
C 17.21528 11.38243 0.01848
C 18.46116 10.63584 -0.00619
C 18.46669 9.20751 -0.02162
C 17.21741 8.56412 0.00889
C 17.24621 7.15749 -0.00481
C 18.46426 6.42317 0.00979
C 18.40009 4.95451 0.01443
C 17.19898 4.25936 0.03505
C 17.20625 2.82592 -0.02815
C 18.40198 2.11623 -0.04147
C 18.48015 13.55396 -0.03113
C 9.80659 15.65023 -0.00494
C 18.32808 30.49355 0.00374
C 17.15618 32.6795 -0.01952
C 14.74174 24.15462 -0.00891
C 15.95954 23.44446 0.02819
C 15.9854 22.01845 0.00165
C 14.8019 21.28205 -0.02971
C 14.77659 19.8798 0.02894
C 15.95662 19.08363 -0.01789
C 15.92804 17.71496 0.00444
C 14.71743 17.0062 -0.00925
C 14.79026 15.6197 0.01877
C 15.95809 14.88404 0.01363
C 16.02814 13.51028 -0.02162
C 18.36476 31.98421 -0.02813
C 14.82065 12.77375 0.00415
C 15.95945 10.6579 0.02162
C 15.95663 9.28343 0.0076
C 14.7682 8.51702 0.01241
C 14.75352 7.11136 -0.01454
C 16.00831 6.40584 0.01945
C 15.95695 4.95236 0.01416
C 14.74674 4.23905 0.03542
C 14.6996 2.81563 0.02299
C 15.96369 2.13755 0.00244
C 16.02821 0.66246 -0.01717
C 14.73855 0.05054 0.05265
C 14.72329 11.33418 -0.0014
C 18.45891 0.69724 -0.05302
C 9.82824 17.04486 -0.00562
C 11.00503 19.18763 0.01849
C 3.64156 0.7149 0.01138
C 2.41375 34.07966 0.03278
C 4.89331 32.68104 -0.00177
C 6.17504 31.92768 0.04421
C 6.21144 30.52039 0.00088
C 4.93956 29.82302 0.00828
C 5.03442 28.39348 -0.02375
C 6.20441 27.68363 0.00558
C 6.12999 26.26327 -0.0059
C 4.82657 25.65419 -0.01386
C 4.98412 24.19639 -0.02805
C 6.16683 23.45865 0.00081
C 6.12684 22.04788 0.00245
C 4.92726 21.25498 0.02728
C 4.91458 19.78889 -0.00039
C 6.19706 19.15311 0.0064
C 6.09946 17.74407 0.00211
C 4.7966 17.11075 -0.00449
C 4.83137 15.72573 -0.01979
C 6.11727 14.97376 0.02784
C 6.17428 13.55314 -0.01977
C 4.94781 12.74966 -0.00561
C 4.92283 11.32486 0.00208
C 3.66784 2.1598 -0.00407
C 2.44305 2.85346 -0.01299
C 2.43223 4.23098 -0.0154
C 3.63789 4.91938 0.00662
C 3.68333 30.49603 -0.00141
C 2.4775 29.80469 -0.00374
C 2.50351 28.40354 -0.0213
C 3.74361 27.73642 0.01116
C 3.64279 26.36558 -0.0005
C 2.45053 25.56571 -0.00018
C 2.52255 24.12861 0.01073
C 3.77614 23.44005 0.01984
C 3.72116 21.99556 0.00535
C 2.42167 21.23899 -0.00198
C 2.43434 19.7695 -0.00012
C 6.14766 10.65261 0.01707
C 3.60787 19.14253 -0.04306
C 2.39071 17.01599 0.01913
C 2.41092 15.62524 0.00267
C 3.66187 14.89192 0.00787
C 3.74936 13.45475 0.02426
C 2.4638 12.77934 0.01218
C 2.47822 11.41997 -0.01471
C 3.72559 10.66909 -0.02827
C 3.70139 9.2467 0.01078
C 2.47297 8.5249 -0.00112
C 2.47142 7.10391 0.03345
C 3.69621 6.37625 0.00748
C 3.61217 17.76729 -0.03672
C 6.15721 9.22881 0.02769
C 4.92329 8.5962 -0.03291
C 4.92978 7.13479 -0.04999
C 8.58196 10.76226 -0.02566
C 8.54972 9.35879 -0.00094
C 7.40048 8.59386 0.02322
C 7.3446 7.18071 -0.00725
C 8.58952 6.38932 -0.05697
C 8.64028 4.97556 0.01087
C 7.40283 4.27015 -0.01343
C 7.38649 2.86009 0.00988
C 8.62225 2.19856 0.0276
C 8.5538 0.80441 0.01305
C 7.36723 0.05492 -0.00077
C 7.3076 11.43539 -0.03113
C 9.76623 32.67561 0.03368
C 11.02261 30.52355 -0.00966
C 9.81377 29.8698 -0.03337
C 9.7915 28.44936 0.01227
C 10.99336 27.77253 0.00873
C 11.11326 26.36294 -0.00049
C 9.90604 25.57249 0.00848
C 9.78181 24.13005 -0.01303
C 11.04046 23.40777 -0.01378
C 11.07151 22.05373 0.02635
C 9.80885 21.30783 0.0127
C 9.75383 19.90116 0.01396
C 10.98476 31.98512 -0.02929
C 10.99862 17.73217 -0.01142
C 7.37098 12.81384 0.017
C 8.52794 14.87712 0.0086
C 6.15119 6.41038 0.04505
C 6.16039 4.95677 0.03284
C 4.90212 4.24759 -0.04307
C 4.95994 2.8742 0.03189
C 6.16734 2.16999 0.00031
C 6.16193 0.73729 -0.003
C 4.94004 34.06992 0.01402
C 7.35675 32.69673 0.02379
C 8.53967 31.9866 0.00907
C 8.56525 30.60656 0.00643
C 7.4515 29.79061 -0.01509
C 8.62881 13.47151 -0.00643
C 7.45334 28.36761 0.03267
C 8.59773 26.25011 0.00402
C 7.35735 25.59759 0.0073
C 7.40968 24.16418 0.0174
C 8.60906 23.43705 0.03828
C 8.5566 22.04814 0.01226
C 7.4049 21.30866 -0.00279
C 7.39481 19.90865 0.01996
C 8.59092 19.11199 -0.03996
C 8.5647 17.7206 0.01465
C 7.36628 17.048 -0.00074
C 7.33524 15.6559 -0.00518
C 8.63863 27.63764 0.02374
C 3.69937 31.91532 -0.03951
C 17.27765 34.06427 0.00213
C 20.83795 31.92445 -0.00289
C 29.5093 15.61292 0.01705
C 30.70588 14.89308 -0.0405
C 30.68925 13.48703 -0.01303
C 29.46664 12.76554 -0.01461
C 29.50673 11.31812 -0.02155
C 30.73044 10.64639 -0.00944
C 30.80658 9.15386 -0.03735
C 29.62821 8.4899 -0.00971
C 29.45489 7.01246 0.01518
C 30.72559 6.30672 0.01908
C 30.75653 4.93266 0.07705
C 29.5279 4.27542 0.0103
C 29.53073 2.81865 0.02108
C 30.77509 2.16672 0.00716
C 30.77135 0.74976 0.00307
C 29.51744 0.08867 0.00346
C 31.98816 32.65669 0.01713
C 33.24438 32.02098 -0.01694
C 33.18282 30.58017 0.01428
C 31.9335 29.84191 -0.02142
C 31.99762 28.40906 0.0544
C 33.27928 27.71882 0.00026
C 33.21157 26.32425 0.00682
C 29.49098 17.00828 0.0101
C 30.71205 17.74007 -0.00669
C 30.71891 19.15424 0.03531
C 29.53597 19.98453 0.01836
C 26.92922 12.71006 0.04185
C 26.98613 11.26861 0.00194
C 28.28627 10.61089 -0.00621
C 28.31849 9.15699 0.02611
C 27.12706 8.44388 0.02198
C 28.20905 6.42946 0.01094
C 28.18047 4.97025 0.00235
C 26.95454 4.28566 0.01495
C 27.07435 2.83149 0.01259
C 28.30255 2.19434 0.01799
C 28.30087 0.79573 0.01699
C 31.97252 25.59654 -0.01779
C 27.04556 0.04358 -0.00416
C 30.65633 31.94652 0.04266
C 30.68846 30.50989 0.01324
C 29.47922 29.78998 0.0014
C 29.56854 28.36887 0.00924
C 30.76866 27.69252 0.02326
C 30.73246 26.278 0.00261
C 29.45875 25.63809 0.03265
C 29.50004 24.25114 -0.02049
C 30.72243 23.47841 -0.01854
C 30.69465 22.06948 -0.01415
C 29.44465 21.33667 -0.03039
C 29.53437 32.68448 0.01177
C 31.97591 24.13029 0.03794
C 33.17816 23.43026 0.01927
C 33.10147 21.9957 0.01574
C 34.40233 25.59183 -0.05239
C 34.42469 24.18881 0.03076
C 1.24274 23.3846 0.00723
C 1.20841 21.92935 0.02712
C 34.36436 21.29059 -0.02213
C 0.00883 19.87813 0.01951
C 1.19878 19.12223 -0.01678
C 1.15739 17.71069 0.01223
C 34.36344 17.01985 0.00648
C 0.04288 15.58007 0.02114
C 1.22442 14.85348 -0.02957
C 1.18975 26.26606 -0.00598
C 1.22291 13.41707 0.00343
C 0.00441 11.28796 -0.02442
C 1.26132 10.61255 -0.00027
C 1.23256 9.22238 -0.00583
C 0.05657 8.44166 -0.02302
C 34.40337 7.03204 -0.02849
C 1.21895 6.38246 0.02931
C 1.22904 4.97264 0.00628
C 0.02593 4.27482 -0.0345
C 34.38071 2.83425 -0.00931
C 1.13738 2.10356 -0.00939
C 1.17942 0.71512 -0.00468
C 0.01089 12.74097 -0.02656
C 28.20427 13.49541 0.02316
C 1.30202 27.68283 -0.00439
C 0.05482 29.83727 0.01831
C 31.82465 21.27754 -0.02383
C 31.92288 19.84026 -0.01429
C 33.1916 19.15315 -0.0136
C 33.20956 17.72382 0.00594
C 31.99808 16.94744 -0.02474
C 32.02601 15.55202 0.00369
C 33.2669 14.85436 0.00455
C 33.18918 13.41823 -0.00644
C 31.98034 12.71057 -0.01839
C 31.95923 11.34146 0.00137
C 33.20401 10.6337 0.00199
C 0.1069 28.35562 -0.01037
C 33.29872 9.15662 0.04381
C 31.97629 7.02573 0.01504
C 33.17899 6.34349 -0.00069
C 33.24718 4.95164 0.04926
C 32.01664 4.25726 -0.03838
C 31.99179 2.81714 0.00349
C 33.19107 2.13788 -0.00323
C 33.2178 0.74122 -0.00841
C 31.99089 34.05268 0.0001
C 0.09235 32.72801 -0.02927
C 1.30945 31.98452 -0.01404
C 1.2524 30.59366 0.01027
C 32.03043 8.46534 0.02806
C 19.62212 32.67038 -0.00066
C 28.24632 14.92655 0.01257
C 27.03705 17.0894 -0.00294
C 20.86636 0.70079 0.00654
C 19.66969 0.04737 -0.00703
C 22.06027 32.66524 -0.04076
C 23.33085 31.96612 -0.00652
C 23.37202 30.57243 0.0058
C 22.14762 29.8685 -0.00865
C 22.08596 28.36771 0.00675
C 23.35872 27.71424 -0.00311
C 23.41487 26.30584 0.00742
C 22.20009 25.54508 -0.01594
C 22.17789 24.14041 0.0106
C 23.37262 23.41121 -0.01154
C 23.46204 22.04209 -0.01721
C 22.21105 21.34018 -0.02422
C 22.10552 19.94333 0.01277
C 23.34559 19.16669 0.00096
C 23.38214 17.69235 -0.01527
C 22.05737 17.07061 0.01087
C 22.07932 15.65394 0.00199
C 23.33848 14.94417 0.01511
C 23.30444 13.47376 -0.00478
C 22.1117 12.71531 -0.01662
C 22.08859 11.30086 -0.01185
C 20.87408 2.14316 -0.04422
C 19.62781 2.85983 -0.02957
C 19.61428 4.27801 -0.00831
C 20.86779 4.94421 0.00364
C 20.85215 30.5122 0.00028
C 19.6169 29.72966 -0.02213
C 19.72677 28.29585 0.03698
C 20.89879 27.61248 -0.00109
C 21.00323 26.15798 -0.00491
C 19.68403 25.56711 0.03338
C 19.65644 24.12907 -0.0258
C 20.89699 23.46807 -0.0331
C 20.9527 22.00635 -0.00316
C 19.66395 21.22754 0.02188
C 19.60672 19.83309 -0.01979
C 23.3024 10.64843 0.01126
C 20.87731 19.17268 0.02691
C 19.70573 17.01779 0.01452
C 19.70499 15.65394 0.04892
C 20.87354 14.8727 -0.00111
C 20.91839 13.48678 -0.03557
C 19.64202 12.76492 0.03754
C 19.66203 11.36042 0.01739
C 20.85482 10.61259 0.00755
C 20.83573 9.19624 -0.0054
C 19.64251 8.45936 0.00667
C 19.66533 7.1008 0.00143
C 20.91877 6.41061 -0.017
C 20.86949 17.79028 -0.01581
C 23.43328 9.20505 0.01852
C 22.09911 8.57776 -0.00381
C 22.24082 7.13737 0.03046
C 25.78183 10.59108 -0.00285
C 25.82674 9.04555 -0.009
C 24.53159 8.49914 -0.01199
C 25.84272 5.03902 -0.00229
C 24.64072 4.21695 -0.00938
C 24.66051 2.80145 -0.0264
C 25.83997 2.10659 -0.01154
C 25.83511 0.74121 0.00684
C 24.62319 0.07698 -0.01052
C 27.01985 32.69491 -0.01679
C 28.29481 31.91967 0.00367
C 24.56531 11.27739 0.01423
C 28.23049 30.48717 0.04306
C 27.08121 28.40147 0.00195
C 28.30516 27.66692 -0.00802
C 28.20687 26.25032 -0.00218
C 27.02456 25.55106 -0.01654
C 27.03526 24.15695 -0.00037
C 28.23702 23.37395 -0.0032
C 28.23194 21.95323 0.00622
C 26.97066 21.29663 -0.02815
C 27.02417 19.89662 -0.00942
C 28.32431 19.23299 0.00487
C 28.28206 17.71428 0.00826
C 27.03671 29.81417 0.00996
C 27.05554 15.72981 0.00152
C 24.5529 12.77444 0.02555
C 25.84609 14.9429 0.00135
C 23.36645 6.3751 0.0296
C 23.43463 4.9692 0.03374
C 22.1182 4.2782 -0.02845
C 22.12506 2.85073 -0.03213
C 23.3727 2.06151 0.02239
C 23.35137 0.71805 0.01153
C 22.14964 0.0443 0.02734
C 24.61191 32.70884 -0.0055
C 25.80749 31.973 0.01515
C 25.77607 30.54871 -0.00225
C 24.58963 29.78065 0.00071
C 25.72759 13.48331 0.03102
C 24.58339 28.43052 -0.01107
C 25.84177 26.27387 -0.01971
C 24.63554 25.62822 -0.02118
C 24.61057 24.16776 0.00733
C 25.78511 23.46835 -0.00178
C 25.81033 21.98375 0.00768
C 24.57661 21.23832 -0.0276
C 24.54342 19.85239 0.03005
C 25.81567 19.25271 -0.04078
C 25.85876 17.84543 0.02117
C 24.66175 17.07223 0.02737
C 24.59597 15.6415 -0.00498
C 25.81125 27.70146 -0.01586
C 2.52798 32.68107 -0.02419
