355
Graphene
C 34.31157 0.05507 0.01295
C 10.9614 2.11716 -0.00368
C 10.98866 0.70762 -0.02696
C 9.75903 0.02353 -0.00114
C 12.21448 32.69106 0.00228
C 13.49033 32.03585 0.00798
C 13.46171 30.57779 0.00422
C 12.25496 29.80428 0.0351
C 12.36023 28.37961 -0.03113
C 9.75883 2.79704 -0.0108
C 13.59554 27.6815 0.02098
C 12.40202 25.45908 -0.00619
C 12.07605 23.87927 -0.02162
C 12.91373 10.58134 0.00889
C 13.27806 9.35573 -0.00481
C 12.24218 8.39352 0.00979
C 12.21831 6.95821 0.01443
C 13.49607 6.36205 0.03505
C 13.52652 4.92765 -0.02815
C 13.77107 26.22981 0.01848
C 12.25959 4.25074 -0.04147
C 9.77342 4.26744 -0.01957
C 11.03638 6.30657 0.01965
C 7.34818 0.04399 0.00415
C 9.76833 32.65433 -0.0014
C 11.00563 31.90099 0.02162
C 11.05113 30.50792 0.0076
C 9.8593 29.81431 0.01241
C 9.92501 28.39524 -0.01454
C 11.19981 27.67182 0.01945
C 11.19548 26.26906 0.01416
C 11.04532 4.9433 0.02058
C 9.83092 25.63246 0.03542
C 10.93564 23.19743 0.00244
C 10.14896 21.92572 -0.01717
C 9.82662 12.66961 0.05265
C 10.02256 11.25512 -0.01952
C 11.38742 10.54281 -0.02813
C 11.00048 9.13475 0.00374
C 9.85634 8.51931 0.00052
C 9.79383 7.02467 -0.03682
C 9.74582 24.1992 0.02299
C 12.22266 2.8406 -0.05302
C 13.41552 2.11714 0.00213
C 13.44458 0.67608 -0.00066
C 17.16715 28.55197 0.00143
C 18.2673 27.62481 -0.017
C 17.70523 26.30684 0.00364
C 18.39522 9.21294 -0.00831
C 17.1514 8.51075 -0.02957
C 17.11851 7.06934 -0.04422
C 18.35472 6.43157 0.00654
C 18.37382 5.05317 -0.00703
C 17.20039 29.93503 0.00667
C 17.16941 4.25464 -0.04076
C 18.4392 2.1121 0.0058
C 18.45471 0.69859 -0.00865
C 17.16115 0.02075 0.00675
C 19.63178 32.6963 -0.00311
C 20.87723 31.96881 0.00742
C 20.8873 30.56675 -0.01594
C 19.65843 29.81936 0.0106
C 19.58579 28.34553 -0.01154
C 17.19409 2.82665 -0.00652
C 18.42563 30.64246 -0.0054
C 18.43957 31.98958 0.00755
C 17.15804 32.6751 0.01739
C 12.16958 0.02064 -0.00289
C 14.6917 32.68738 0.00028
C 15.89059 31.99048 -0.02213
C 15.93638 30.59294 0.03698
C 14.6686 29.93921 -0.00109
C 14.76249 28.44675 -0.00491
C 16.06359 27.79846 0.03338
C 16.40272 26.28883 -0.0258
C 15.19321 25.79726 -0.0331
C 15.84655 9.05637 -0.00316
C 14.51831 8.61038 0.02188
C 14.63758 7.0836 -0.01979
C 15.90554 6.36164 0.02691
C 15.9144 4.9666 -0.01581
C 14.70541 4.20485 0.01452
C 14.66193 2.8069 0.04892
C 15.98518 2.12233 -0.00111
C 15.90576 0.70374 -0.03557
C 14.68301 34.02336 0.03754
C 8.5383 0.75724 -0.02162
C 20.86615 27.6887 -0.01721
C 8.42574 2.17978 0.01363
C 7.20521 4.33566 -0.00925
C 2.32777 4.39625 -0.00494
C 2.34746 2.956 0.00054
C 3.57175 2.22394 0.03007
C 3.54601 0.7771 -0.00095
C 2.4329 0.0007 0.01572
C 4.78365 32.54457 -0.04848
C 6.01873 31.94852 -0.00892
C 6.03696 30.48827 -0.01362
C 3.57619 5.06341 -0.00562
C 5.06076 29.46402 -0.0008
C 5.74237 26.5609 0.00393
C 4.42552 25.64349 0.00895
C 4.78771 24.24033 0.00685
C 6.07141 23.60486 0.02888
C 6.17389 22.09045 -0.00482
C 4.88301 21.33571 -0.01384
C 4.85816 19.92108 0.03693
C 6.13932 19.21576 0.01745
C 5.85108 28.17165 0.0288
C 6.11252 17.79071 0.00488
C 3.67567 6.38821 -0.01142
C 2.45117 8.56894 0.01396
C 3.68195 30.05222 0.01087
C 2.20588 29.45303 -0.01343
C 2.87894 25.6386 0.00988
C 2.43681 24.14605 0.0276
C 3.55338 23.40336 0.01305
C 3.58857 22.03536 -0.00077
C 2.26049 21.18817 0.03368
C 2.36323 19.87644 -0.02929
C 2.45647 7.13667 0.01849
C 3.65841 19.1286 -0.00966
C 2.45482 17.07225 0.01227
C 2.36216 15.60956 0.00873
C 3.68478 14.93628 -0.00049
C 3.70385 13.50946 0.00848
C 2.43584 12.84208 -0.01303
C 2.45611 11.41058 -0.01378
C 3.69183 10.72079 0.02635
C 3.69893 9.21664 0.0127
C 3.6752 17.78924 -0.03337
C 4.90127 17.05245 -0.01004
C 4.912 15.56668 -0.02896
C 6.14472 14.88502 -0.00131
C 8.50363 23.62983 0.00943
C 8.78523 22.11362 0.02841
C 7.49049 21.41054 -0.01111
C 7.38509 19.939 -0.01275
C 8.4892 19.16516 0.00985
C 8.47864 17.84209 -0.02245
C 7.35366 17.07483 -0.00428
C 7.38564 15.6617 0.03101
C 7.27736 24.41297 0.00406
C 8.66066 15.04871 -0.01536
C 7.53269 12.80673 -0.01046
C 7.50576 11.39655 -0.00891
C 8.73747 10.66117 0.02819
C 8.62041 9.20613 0.00165
C 7.36997 8.52974 -0.02971
C 7.3433 7.15595 0.02894
C 8.56441 6.45497 -0.01789
C 8.46007 5.05486 0.00444
C 8.78521 13.53923 -0.02689
C 7.186 25.85487 0.03592
C 8.5394 26.43054 0.00572
C 8.61716 27.77838 0.0402
C 6.23867 13.52052 -0.01118
C 5.06161 12.81339 -0.014
C 4.935 11.38401 0.02147
C 6.25056 10.68539 0.00373
C 6.14161 9.19155 -0.00191
C 4.91006 8.55856 0.00438
C 4.92968 7.15585 0.01291
C 6.13023 6.43662 0.00093
C 6.06352 5.08726 0.00057
C 4.86534 4.31418 -0.01634
C 4.81086 2.85708 -0.00334
C 6.04461 2.16537 0.02339
C 5.99897 0.68554 0.01641
C 4.70588 34.04275 -0.00719
C 7.31807 32.64894 0.01364
C 8.53713 31.9837 -0.01062
C 8.57858 30.59357 -0.00033
C 7.36054 29.97961 0.03589
C 7.30743 28.52984 -0.02759
C 7.25208 2.897 0.01877
C 3.61266 31.64514 -0.05697
C 20.97614 26.24583 -0.02422
C 19.76499 8.62242 0.00096
C 30.76624 2.17915 0.01713
C 30.74356 0.77972 -0.01694
C 29.48679 0.10542 0.01428
C 32.00013 32.68788 -0.02142
C 33.18266 31.9859 0.0544
C 33.07259 30.50978 0.00026
C 31.90667 29.85087 0.00682
C 31.97987 28.41115 -0.01779
C 29.52708 2.82898 0.00346
C 33.2537 27.73379 0.03794
C 32.01774 25.50402 0.01574
C 31.94146 24.15568 -0.02383
C 33.14475 23.41334 -0.01429
C 32.79379 22.04099 -0.0136
C 33.16295 17.95311 0.00594
C 31.7465 17.16896 -0.02474
C 31.94159 15.71368 0.00369
C 33.14057 14.96752 0.00455
C 33.30157 26.30828 0.01927
C 33.19621 13.56172 -0.00644
C 29.46257 4.19885 0.00307
C 30.78617 6.3571 0.02108
C 29.45799 28.38268 -0.01415
C 30.699 27.62324 -0.03039
C 30.75759 26.23455 0.01836
C 29.45746 25.59101 0.03531
C 29.40737 24.20755 -0.00669
C 30.73867 23.54127 0.0101
C 30.83595 22.18563 0.01705
C 29.69317 21.44537 -0.0405
C 30.7486 4.94453 0.00716
C 29.96514 17.04594 -0.01303
C 30.78921 14.84117 -0.02155
C 30.78088 13.46307 -0.00944
C 29.54914 12.72404 -0.03735
C 29.50039 11.29833 -0.00971
C 30.8277 10.63621 0.01518
C 30.77797 9.16253 0.01908
C 29.58543 8.48365 0.07705
C 29.58307 7.09549 0.0103
C 29.62743 15.61267 -0.01461
C 32.10049 12.80437 -0.01839
C 31.98115 11.44391 0.00137
C 33.25027 10.66384 0.00199
C 1.0005 19.16273 -0.01678
C 1.20506 17.76137 0.01223
C 34.3076 17.13736 0.00648
C 34.329 15.66727 0.02114
C 1.1464 15.02733 -0.02957
C 1.16565 13.57389 0.00343
C 34.43168 12.87015 -0.02656
C 0.0068 11.38223 -0.02442
C 34.1045 19.57529 0.01951
C 1.30001 10.68215 -0.00027
C 34.3639 8.53466 -0.02302
C 34.41375 7.11175 -0.02849
C 1.17976 6.44706 0.02931
C 1.11781 5.05241 0.00628
C 34.42394 4.27977 -0.0345
C 34.4019 2.80523 -0.00931
C 1.19882 2.17196 -0.00939
C 1.10406 0.76025 -0.00468
C 1.23886 9.27767 -0.00583
C 33.9314 21.12937 -0.02213
C 0.88675 21.85982 0.02712
C 1.07398 23.36661 0.00723
C 33.16967 9.23491 0.04381
C 32.02611 8.5393 0.02806
C 31.99916 7.10084 0.01504
C 33.18511 6.40546 -0.00069
C 33.22312 4.94817 0.04926
C 32.00867 4.31113 -0.03838
C 31.94528 2.85805 0.00349
C 33.19957 2.17966 -0.00323
C 33.08405 0.78714 -0.00841
C 31.93144 0.00487 0.0001
C 34.43172 32.66301 -0.02927
C 1.24484 31.9445 -0.01404
C 1.14742 30.47156 0.01027
C 34.30085 29.92967 0.01831
C 0.06727 28.42917 -0.01037
C 1.44602 28.1218 -0.00439
C 1.69872 26.56213 -0.00598
C 0.18885 25.64764 -0.05239
C 34.39684 24.26535 0.03076
C 29.42935 29.84483 -0.01854
C 21.02963 9.22639 0.01277
C 30.64554 30.61615 -0.02049
C 29.49122 32.71228 0.00261
C 22.15038 4.25763 -0.01107
C 22.10163 2.83931 -0.01586
C 23.36996 2.10376 -0.01971
C 23.39684 0.68158 -0.02118
C 22.12618 34.07926 0.00733
C 24.52917 32.71903 -0.00178
C 25.77975 32.03676 0.00768
C 25.78161 30.58143 -0.0276
C 23.37204 4.95958 0.00071
C 24.59625 29.83941 0.03005
C 25.75351 27.68858 0.02117
C 25.80975 26.19369 0.02737
C 24.49309 25.52966 -0.00498
C 24.44295 24.17128 0.00135
C 25.64452 23.47531 0.03102
C 25.84661 21.97784 0.02555
C 25.85903 14.85192 0.01423
C 25.76735 13.41531 -0.00285
C 24.52265 28.4569 -0.04078
C 24.62512 12.57961 -0.009
C 23.33287 6.39101 -0.00225
C 22.14027 8.42759 -0.0055
C 19.58852 7.13723 -0.01527
C 20.80383 6.42975 0.01087
C 20.83507 4.99201 0.00199
C 19.63059 4.22964 0.01511
C 19.59653 2.8078 -0.00478
C 20.88464 2.11964 -0.01662
C 20.89324 0.72945 -0.01185
C 19.65611 0.08057 0.01126
C 22.02722 7.05699 0.01515
C 22.1291 32.678 0.01852
C 23.36817 30.5362 0.03046
C 22.16287 29.83134 0.0296
C 22.07455 28.48305 0.03374
C 23.27376 27.76206 -0.02845
C 23.29926 26.35025 -0.03213
C 22.10472 25.52486 0.02239
C 23.17802 10.42805 0.01153
C 23.39808 9.13008 0.02734
C 23.29805 31.97064 -0.00381
C 24.46767 11.25802 -0.01199
C 25.65772 10.60725 -0.00229
C 25.76015 9.22147 -0.00938
C 28.64951 17.65757 0.04185
C 27.41909 16.91278 0.00194
C 27.12492 15.54568 -0.00621
C 28.34813 14.82161 0.02611
C 28.29093 13.43043 0.02198
C 27.11451 12.64497 0.01094
C 26.89921 11.26426 0.00235
C 28.19986 10.6165 0.01495
C 27.97272 18.86205 0.02316
C 28.31464 9.16577 0.01259
C 27.04573 7.1211 0.01699
C 28.26238 6.38993 -0.00416
C 28.32698 4.98472 0.01177
C 27.03556 4.28414 0.04266
C 27.08823 2.88146 0.01324
C 28.249 2.15087 0.0014
C 28.1988 0.77673 0.00924
C 27.00565 0.04267 0.02326
C 27.06592 8.55973 0.01799
C 27.46891 20.02949 0.01257
C 27.09172 21.37945 0.00152
C 28.38002 22.10622 -0.00294
C 24.62492 8.46763 -0.0264
C 24.5774 7.03434 -0.01154
C 25.8597 6.33428 0.00684
C 25.82897 4.99576 -0.01052
C 24.54086 4.29468 -0.01679
C 24.60446 2.85736 0.00367
C 25.81971 2.19064 0.04306
C 25.81634 0.71247 0.00996
C 24.57992 0.00156 0.00195
C 26.96495 32.62504 -0.00802
C 28.26333 31.93249 -0.00218
C 28.16419 30.54556 -0.01654
C 27.01497 29.87472 -0.00037
C 26.9368 28.39624 -0.0032
C 28.25296 27.69282 0.00622
C 28.1646 26.31239 -0.02815
C 27.00112 25.5162 -0.00942
C 26.90189 24.10717 0.00487
C 28.2031 23.505 0.00826
C 30.79556 32.04785 0.03265
C 2.47653 32.63239 -0.00725
