339
Graphene
C 0.0074 0.03265 0.01295
C 12.31855 7.19147 -0.02162
C 13.60239 6.37759 0.00889
C 13.55937 4.97015 -0.00481
C 12.30797 4.35875 0.00979
C 12.29143 2.86512 0.01443
C 13.49812 2.06895 0.03505
C 13.4849 0.68384 -0.02815
C 12.28324 34.04746 -0.04147
C 14.67355 32.53687 -0.05302
C 15.93394 31.93376 0.00213
C 15.99775 30.47402 -0.00066
C 14.61056 29.70291 -0.00289
C 15.04521 28.39729 0.00028
C 16.13252 27.70531 -0.02213
C 15.75453 26.38831 0.03698
C 14.92022 25.36692 -0.00109
C 14.85151 6.84502 -0.00491
C 12.07216 8.4328 -0.00619
C 16.06402 6.45175 0.03338
C 13.46272 30.42138 0.01848
C 12.29942 32.61801 -0.03113
C 7.31295 2.90903 0.05265
C 8.61975 2.1663 -0.01952
C 8.6774 0.75566 -0.02813
C 7.40075 34.04408 0.00374
C 9.92955 32.67241 0.00052
C 11.11668 31.95604 -0.03682
C 9.79666 24.07689 0.01965
C 11.00613 9.21324 0.02058
C 9.80573 8.64957 -0.01957
C 9.81376 7.18515 -0.0108
C 11.08865 6.44793 -0.00368
C 11.08621 5.0813 -0.02696
C 9.84858 4.27007 -0.00114
C 9.86477 2.89661 0.00228
C 11.12265 2.17842 0.00798
C 11.07096 0.73786 0.00422
C 9.8253 0.09495 0.0351
C 13.42833 31.84034 0.02098
C 16.00105 4.84854 -0.0258
C 14.73171 4.26965 -0.0331
C 14.79191 2.81874 -0.00316
C 19.7213 28.31926 -0.00652
C 20.9513 27.64761 0.0058
C 20.96199 26.19277 -0.00865
C 19.66249 25.71712 0.00675
C 19.7459 7.27022 -0.00311
C 20.8247 6.43008 0.00742
C 20.85239 5.0524 -0.01594
C 19.63143 4.27995 0.0106
C 19.67142 2.78008 -0.01154
C 20.89999 2.13948 -0.01721
C 20.91161 0.69967 -0.02422
C 19.66498 34.06695 0.01277
C 22.12861 32.64714 0.00096
C 23.34067 31.88756 -0.01527
C 23.38377 30.56694 0.01087
C 22.14014 29.86315 0.00199
C 22.18463 28.4612 0.01511
C 19.62187 29.81695 -0.04076
C 20.92567 30.47978 -0.00703
C 20.89178 31.91737 0.00654
C 19.60079 32.67307 -0.04422
C 15.9159 2.12267 0.02188
C 15.86802 0.63732 -0.01979
C 14.65698 33.93276 0.02691
C 17.12958 32.72733 -0.01581
C 18.39061 31.97995 0.01452
C 18.4419 30.55033 0.04892
C 17.27242 29.80569 -0.00111
C 17.34647 28.44484 -0.03557
C 7.31209 4.28226 -0.01717
C 18.49251 27.63894 0.03754
C 17.28 7.07223 0.00755
C 18.46745 6.56142 -0.0054
C 18.44041 4.96888 0.00667
C 17.22465 4.24278 0.00143
C 17.21299 2.81424 -0.017
C 18.44505 2.12376 0.00364
C 18.37985 0.69133 -0.00831
C 17.15929 0.05853 -0.02957
C 18.53453 26.3371 0.01739
C 23.43039 27.70628 -0.00478
C 8.54943 5.04218 0.00244
C 7.36402 7.16556 0.03542
C 2.46353 8.47963 -0.01384
C 2.41828 7.0748 0.03693
C 3.70637 6.3302 0.01745
C 3.67205 4.93218 0.00488
C 2.424 4.22747 -0.01004
C 2.44649 2.81009 -0.02896
C 3.7365 2.17419 -0.00131
C 3.71541 0.78524 -0.01118
C 2.48492 0.07563 -0.014
C 4.96476 32.67789 0.02147
C 6.18125 32.04198 0.00373
C 6.08412 30.5974 -0.00191
C 4.86648 29.9171 0.00438
C 4.89208 28.44945 0.01291
C 6.09064 27.76076 0.00093
C 6.12143 26.27875 0.00057
C 4.89464 25.57752 -0.01634
C 3.6898 9.31464 -0.00482
C 4.89561 24.14629 -0.00334
C 3.67329 10.7081 0.02888
C 2.46526 12.78938 0.00895
C 3.6707 30.66866 0.02635
C 2.49664 29.93634 0.0127
C 2.42493 28.54593 0.01396
C 3.69102 27.74437 0.01849
C 3.61222 26.34256 -0.01142
C 2.46044 25.60229 -0.00562
C 2.39996 24.13088 -0.00494
C 3.69179 23.40243 0.00054
C 3.76669 22.05897 0.03007
C 2.54825 21.25586 -0.00095
C 2.59034 19.8618 0.01572
C 3.70405 19.13952 -0.04848
C 3.63597 17.73775 -0.00892
C 2.44559 17.11529 -0.01362
C 2.45661 15.60195 -0.0008
C 3.63549 14.95037 0.0288
C 3.67328 13.53224 0.00393
C 2.42431 11.32183 0.00685
C 6.16253 23.44176 0.02339
C 6.25822 22.03767 0.01641
C 4.95806 21.26198 -0.00719
C 8.55624 30.60195 0.00165
C 7.29823 29.78364 -0.02971
C 7.19539 28.49351 0.02894
C 7.33536 25.60803 -0.01789
C 7.42577 24.25888 0.00444
C 8.74277 23.40765 -0.00925
C 8.76278 21.96285 0.01877
C 7.54721 21.25387 0.01363
C 7.26147 19.92899 -0.02162
C 7.21524 16.86495 0.00415
C 7.2659 15.61197 -0.0014
C 8.58107 13.52079 0.02162
C 7.42579 12.77604 0.0076
C 7.43291 11.40157 0.01241
C 8.65985 10.70311 -0.01454
C 8.59191 9.29786 0.01945
C 7.36922 8.56583 0.01416
C 8.69903 31.90924 0.02819
C 7.42409 32.63774 -0.00891
C 4.89766 0.01431 -0.01046
C 6.1943 0.75244 -0.02689
C 4.95953 19.84416 0.01364
C 6.18303 19.10195 -0.01062
C 6.17308 17.74836 -0.00033
C 4.86644 17.02146 0.03589
C 4.89694 15.58213 -0.02759
C 6.12433 14.81798 0.0402
C 6.17797 13.52517 0.00572
C 4.99608 12.78807 0.03592
C 8.55461 6.44723 0.02299
C 4.92445 11.39765 0.00406
C 6.11735 9.30505 0.02841
C 4.85737 8.57535 -0.01111
C 4.8458 7.09071 -0.01275
C 6.12326 6.4273 0.00985
C 6.16741 4.98404 -0.02245
C 4.89972 4.25867 -0.00428
C 4.91933 2.80118 0.03101
C 6.13605 2.08541 -0.01536
C 6.15516 10.67417 0.00943
C 3.7114 32.02076 -0.01378
C 23.43007 26.25488 -0.01662
C 22.32785 24.20344 0.01126
C 31.94053 29.82493 -0.02142
C 31.95059 28.36498 0.0544
C 33.18374 27.68315 0.00026
C 33.23666 26.27874 0.00682
C 32.06074 25.53655 -0.01779
C 31.94277 24.12548 0.03794
C 33.0966 23.42801 0.01927
C 33.16832 22.0088 0.01574
C 31.93278 21.23796 -0.02383
C 31.92875 19.87929 -0.01429
C 33.17357 19.19742 -0.0136
C 33.20905 17.73151 0.00594
C 31.97259 17.07278 -0.02474
C 31.98352 15.63313 0.00369
C 33.21758 14.93189 0.00455
C 33.14812 13.45843 -0.00644
C 31.9579 12.81646 -0.01839
C 33.14888 30.52486 0.01428
C 31.99913 11.38041 0.00137
C 33.14421 31.96634 -0.01694
C 29.49052 0.02894 0.00346
C 30.72101 17.78419 -0.00669
C 29.46692 16.99371 0.0101
C 29.53075 15.64739 0.01705
C 30.73246 14.9465 -0.0405
C 30.6936 13.57573 -0.01303
C 29.46256 12.83567 -0.01461
C 29.53841 11.38371 -0.02155
C 30.73689 10.72011 -0.00944
C 30.72969 9.22548 -0.03735
C 29.56619 8.51848 -0.00971
C 29.48864 7.11103 0.01518
C 30.68272 6.4228 0.01908
C 30.69881 4.98545 0.07705
C 29.4533 4.20875 0.0103
C 29.52798 2.78805 0.02108
C 30.7726 2.17067 0.00716
C 30.70327 0.72839 0.00307
C 31.84249 32.67793 0.01713
C 33.17433 10.64494 0.00199
C 33.17657 9.22465 0.04381
C 31.94824 8.51039 0.02806
C 1.19073 17.76482 0.01223
C 34.36192 17.03171 0.00648
C 0.05389 15.61797 0.02114
C 1.27145 14.89223 -0.02957
C 1.26114 13.44858 0.00343
C 0.00123 12.77573 -0.02656
C 34.4132 11.38169 -0.02442
C 1.23477 10.5537 -0.00027
C 1.15937 9.20299 -0.00583
C 34.41154 8.52341 -0.02302
C 34.3836 7.07101 -0.02849
C 1.18354 6.43579 0.02931
C 1.15841 4.96066 0.00628
C 34.36834 4.22568 -0.0345
C 0.01556 2.86445 -0.00931
C 1.21524 2.11491 -0.00939
C 1.28964 0.69078 -0.00468
C 1.24207 19.18973 -0.01678
C 0.03167 19.89031 0.01951
C 0.00724 21.2392 -0.02213
C 1.26227 21.92813 0.02712
C 31.95052 7.0778 0.01504
C 33.14455 6.38463 -0.00069
C 33.1431 4.96629 0.04926
C 31.9101 4.3551 -0.03838
C 31.98226 2.89513 0.00349
C 33.23303 2.20135 -0.00323
C 33.17282 0.75024 -0.00841
C 31.95884 0.03308 0.0001
C 30.70774 19.13589 0.03531
C 34.35993 32.70353 -0.02927
C 1.26343 30.57352 0.01027
C 0.02913 29.85223 0.01831
C 0.01961 28.42479 -0.01037
C 1.23987 27.73581 -0.00439
C 1.25973 26.30989 -0.00598
C 0.02707 25.49406 -0.05239
C 34.42303 24.15191 0.03076
C 1.20198 23.35729 0.00723
C 1.20609 32.04143 -0.01404
C 22.12815 25.53399 -0.01185
C 29.51462 19.87088 0.01836
C 30.73061 21.97918 -0.01415
C 25.76202 21.94932 -0.0276
C 24.53269 21.3579 0.03005
C 25.86777 19.211 -0.04078
C 25.89682 17.84122 0.02117
C 25.88619 14.88938 0.02737
C 25.88669 13.58437 -0.00498
C 24.52797 11.34316 0.00135
C 25.751 10.68935 0.03102
C 25.78327 9.20329 0.02555
C 24.51958 8.48817 0.01423
C 24.56062 7.13003 -0.00285
C 25.82353 6.43329 -0.009
C 25.76233 4.98359 -0.01199
C 24.49226 4.27418 -0.00229
C 24.47877 2.82772 -0.00938
C 25.71011 2.11141 -0.0264
C 25.78218 0.69507 -0.01154
C 25.8033 23.40022 0.00768
C 24.54734 34.05592 0.00684
C 24.56343 24.07092 -0.00178
C 25.84492 26.20952 -0.02118
C 23.37214 23.4133 0.01852
C 23.34673 9.24486 -0.00381
C 22.1536 8.55455 0.03046
C 22.07905 7.14673 0.0296
C 23.33873 6.42381 0.03374
C 23.33696 4.99425 -0.02845
C 22.06034 4.21618 -0.03213
C 22.06065 2.78718 0.02239
C 23.35515 2.11958 0.01153
C 23.36839 0.67716 0.02734
C 22.09374 34.05367 -0.0055
C 24.62036 32.67814 0.01515
C 25.83426 31.88109 -0.00225
C 25.82639 30.49833 0.00071
C 24.61244 29.81595 -0.01107
C 24.58266 28.38314 -0.01586
C 25.82061 27.61518 -0.01971
C 24.57356 25.54266 0.00733
C 26.99285 32.65356 -0.01052
C 28.22338 31.9068 -0.01679
C 28.22782 30.44304 0.00367
C 28.22598 6.4093 0.01094
C 28.23249 4.89769 0.00235
C 26.99365 4.26748 0.01495
C 27.01135 2.83787 0.01259
C 28.2285 2.14166 0.01799
C 28.23025 0.67232 0.01699
C 26.94817 34.06541 -0.00416
C 29.36484 32.68674 0.01177
C 30.67984 31.91857 0.04266
C 30.66854 30.54013 0.01324
C 29.45074 29.71931 0.0014
C 29.55287 28.32774 0.00924
C 30.75725 27.67108 0.02326
C 30.76998 26.27022 0.00261
C 29.5471 25.56545 0.03265
C 29.51854 24.14327 -0.02049
C 30.70955 23.47702 -0.01854
C 27.07995 7.11816 0.02198
C 27.00358 8.48641 0.02611
C 28.26659 9.20929 -0.00621
C 28.25724 10.63359 0.00194
C 27.06365 29.74183 0.04306
C 27.0477 28.31131 0.00996
C 28.31082 27.63265 0.00195
C 28.32945 26.24718 -0.00802
C 27.03976 25.53166 -0.00218
C 27.07423 24.14676 -0.01654
C 28.29116 23.43972 -0.00037
C 28.2853 22.01084 -0.0032
C 29.46293 21.23097 -0.03039
C 27.083 21.27135 0.00622
C 28.19559 19.12076 -0.00942
C 28.2152 17.8012 0.00487
C 26.99074 17.06488 0.00826
C 26.94983 15.69294 -0.00294
C 28.23527 14.93855 0.00152
C 28.23683 13.55111 0.01257
C 26.98535 12.77281 0.02316
C 27.06858 11.35231 0.04185
C 26.99669 19.95016 -0.02815
C 2.40729 32.74966 -0.01303
