432
Graphene
C 0.00573 33.99689 0.01295
C 12.26442 19.97638 0.01364
C 13.70244 19.17591 -0.01062
C 13.45029 17.91121 -0.00033
C 12.38105 17.13545 0.03589
C 12.46686 15.64767 -0.02759
C 13.59174 14.80306 0.0402
C 13.45993 13.43598 0.00572
C 12.21581 12.69819 0.03592
C 12.24998 11.30942 0.00406
C 13.50982 10.56797 0.00943
C 13.55606 9.14076 0.02841
C 12.37978 8.4645 -0.01111
C 12.33925 7.04407 -0.01275
C 13.55576 6.4066 0.00985
C 13.45646 4.88469 -0.02245
C 12.0721 4.07926 -0.00428
C 12.165 2.62108 0.03101
C 13.50528 2.03024 -0.01536
C 13.46995 0.64412 -0.02689
C 12.31845 33.99522 -0.01046
C 14.80706 32.67741 -0.00891
C 15.97542 32.0376 0.02819
C 15.98111 30.5714 0.00165
C 12.33057 21.3193 -0.00719
C 14.72483 29.81957 -0.02971
C 13.45817 22.06409 0.01641
C 12.30319 24.13588 -0.00334
C 11.08004 17.74067 0.0288
C 9.84431 17.05349 0.00393
C 9.85678 15.6682 0.00895
C 11.1614 15.02526 0.00685
C 11.03946 13.52989 0.02888
C 9.82677 12.92154 -0.00482
C 9.8893 11.41967 -0.01384
C 10.99647 10.62584 0.03693
C 11.14969 9.16137 0.01745
C 9.8797 8.53244 0.00488
C 9.83083 7.15598 -0.01004
C 11.13493 6.37969 -0.02896
C 10.93102 4.88741 -0.00131
C 11.09604 0.71111 -0.01118
C 9.88596 0.11003 -0.014
C 12.32801 32.60413 0.02147
C 13.53216 31.95602 0.00373
C 13.53605 30.59142 -0.00191
C 12.23806 29.95102 0.00438
C 12.28117 28.47703 0.01291
C 13.45274 27.72568 0.00093
C 13.43713 26.34795 0.00057
C 12.19628 25.58335 -0.01634
C 13.52583 23.44503 0.02339
C 11.12858 19.19964 -0.0008
C 14.71649 28.43361 0.02894
C 15.97166 26.3053 0.00444
C 17.18705 25.63829 -0.02696
C 17.16421 24.10822 -0.00114
C 18.39183 23.38761 0.00228
C 18.43449 21.89217 0.00798
C 17.17178 21.3279 0.00422
C 18.39422 13.30054 0.0351
C 17.16132 12.90036 -0.03113
C 17.20204 11.32109 0.02098
C 18.40946 10.59262 0.01848
C 18.45846 9.17188 -0.00619
C 17.22042 8.50216 -0.02162
C 17.17115 7.13271 0.00889
C 18.38724 6.44474 -0.00481
C 18.4651 4.98716 0.00979
C 17.18224 4.27175 0.01443
C 17.21859 2.85352 0.03505
C 18.38896 2.15111 -0.02815
C 18.39779 0.70919 -0.04147
C 17.20976 34.06397 -0.05302
C 19.64022 32.67741 0.00213
C 20.81787 31.9488 -0.00066
C 20.88668 30.52377 -0.00289
C 19.6715 29.79751 0.00028
C 18.48396 26.30198 -0.00368
C 15.96608 27.76093 -0.01789
C 18.43788 27.66917 -0.0108
C 17.22253 29.88272 0.02058
C 14.74264 25.61757 -0.00925
C 14.79422 24.19746 0.01877
C 15.98079 23.4939 0.01363
C 16.0208 22.05548 -0.02162
C 14.72836 21.31267 0.00415
C 14.81428 19.97003 -0.0014
C 15.82033 13.34978 0.02162
C 14.62549 12.7185 0.0076
C 14.72046 11.29943 0.01241
C 15.93513 10.62951 -0.01454
C 16.02154 9.23694 0.01945
C 14.80398 8.51387 0.01416
C 14.73702 7.09996 0.03542
C 15.99332 6.35348 0.02299
C 15.87793 5.0131 0.00244
C 14.6567 4.26503 -0.01717
C 14.65554 2.8344 0.05265
C 15.93645 2.15594 -0.01952
C 16.0107 0.8093 -0.02813
C 14.82449 0.0014 0.00374
C 17.22276 32.64947 0.00052
C 18.45371 31.96451 -0.03682
C 18.43422 30.53304 0.01965
C 17.23382 28.40614 -0.01957
C 19.72355 28.37168 -0.02213
C 9.87953 19.8718 -0.01362
C 11.01217 22.05217 -0.04848
C 3.68941 2.23236 -0.02805
C 3.70621 0.77427 0.00081
C 2.42411 0.06616 0.00245
C 4.89584 32.69156 0.02728
C 6.17991 31.99636 -0.00039
C 6.15495 30.53716 0.0064
C 4.88382 29.85458 0.00211
C 4.88648 28.35277 -0.00449
C 6.20258 27.63629 -0.01979
C 6.1979 26.22981 0.02784
C 4.99423 25.58511 -0.01977
C 4.91543 24.2247 -0.00561
C 6.15178 23.43211 0.00208
C 6.133 22.08747 0.01707
C 4.91993 21.34936 0.02769
C 4.97478 19.85135 -0.03291
C 6.13062 19.17753 -0.04999
C 6.11038 17.75243 0.04505
C 4.78668 16.94766 0.03284
C 4.8149 15.58841 -0.04307
C 6.04837 14.95111 0.03189
C 6.06845 13.56474 0.00031
C 4.87818 12.73103 -0.003
C 2.47745 2.8933 -0.01386
C 4.97122 11.37781 0.01402
C 2.46262 4.33148 -0.0059
C 3.61821 6.41745 -0.02375
C 3.67435 30.4369 -0.04306
C 2.47616 29.74049 -0.03672
C 2.49788 28.38378 0.01913
C 3.72089 27.64649 0.00267
C 3.72608 26.24022 0.00787
C 2.46468 25.59939 0.02426
C 2.37312 24.15292 0.01218
C 3.61072 23.42644 -0.01471
C 3.75341 22.03805 -0.02827
C 2.48045 21.30823 0.01078
C 2.48157 19.84773 -0.00112
C 3.73081 19.07383 0.03345
C 3.67252 17.73897 0.00748
C 2.37503 16.97296 0.00662
C 2.33634 15.52306 -0.0154
C 3.57213 14.85984 -0.01299
C 3.59038 13.41039 -0.00407
C 2.36755 12.71656 0.01138
C 2.44526 11.31803 0.03278
C 3.65307 10.68906 -0.00177
C 3.61236 9.20204 0.04421
C 2.35198 8.50562 0.00088
C 2.39294 7.10521 0.00828
C 3.68546 5.05669 0.00558
C 9.83608 21.31921 -0.00892
C 6.19154 10.63656 0.02379
C 4.85871 8.55046 0.00643
C 7.3214 12.86322 0.01305
C 7.35245 11.47738 -0.00077
C 8.65617 10.77151 0.03368
C 8.63678 9.33992 -0.02929
C 7.3208 8.63701 -0.00966
C 7.32928 7.17655 -0.03337
C 8.59939 6.48377 0.01227
C 8.61371 5.11486 0.00873
C 7.51642 4.33338 -0.00049
C 7.4303 2.85565 0.00848
C 8.54703 2.13148 -0.01303
C 8.53604 0.78151 -0.01378
C 7.34728 0.02114 0.02635
C 9.87851 32.70429 0.0127
C 11.04186 31.97932 0.01396
C 11.01471 30.59686 0.01849
C 9.78442 29.82093 -0.01142
C 9.78548 28.47839 -0.00562
C 11.04471 27.81511 -0.00494
C 11.05316 26.32386 0.00054
C 9.80122 25.67058 0.03007
C 9.87658 24.19631 -0.00095
C 11.08699 23.50568 0.01572
C 8.54083 13.56244 0.0276
C 6.13707 9.29298 0.00907
C 8.57483 14.9878 0.00988
C 7.36085 17.06447 0.01087
C 4.89262 7.16068 -0.01509
C 6.10829 6.46247 0.03267
C 6.12556 5.05821 0.02374
C 4.8537 4.2718 0.00402
C 4.96141 2.91317 0.0073
C 6.15119 2.17109 0.0174
C 6.06715 0.81359 0.03828
C 4.83591 0.0456 0.01226
C 7.37004 32.69112 -0.00279
C 8.57479 32.03399 0.01996
C 8.52155 30.56955 -0.03996
C 7.35823 29.89426 0.01465
C 7.34417 28.45335 -0.00074
C 8.56484 27.76075 -0.00518
C 8.60247 26.32287 0.0086
C 7.41596 25.48088 -0.00643
C 7.45614 24.13978 0.017
C 8.68069 23.47407 -0.03113
C 8.63244 22.0182 -0.02566
C 7.38904 21.35656 -0.00094
C 7.38664 19.93484 0.02322
C 8.66448 19.21363 -0.00725
C 8.59318 17.78557 -0.05697
C 7.33785 15.66529 -0.01343
C 20.94458 27.59018 0.03698
C 20.99764 26.27333 -0.00109
C 19.66988 25.56159 -0.00491
C 30.72374 13.48794 -0.01303
C 29.52038 12.7428 -0.01461
C 29.49597 11.40751 -0.02155
C 30.73018 10.58135 -0.00944
C 30.65056 9.16548 -0.03735
C 29.46655 8.52876 -0.00971
C 29.44472 7.06998 0.01518
C 30.68609 6.37919 0.01908
C 30.74191 4.90571 0.07705
C 29.49877 4.17217 0.0103
C 29.47415 2.78658 0.02108
C 30.75018 2.13883 0.00716
C 30.76475 0.70063 0.00307
C 29.50171 0.0076 0.00346
C 31.97069 32.59463 0.01713
C 33.27349 31.87965 -0.01694
C 33.14785 30.49455 0.01428
C 31.93503 29.79015 -0.02142
C 31.9331 28.41363 0.0544
C 33.20077 27.68175 0.00026
C 33.24414 26.29231 0.00682
C 31.95253 25.58997 -0.01779
C 31.89696 24.21139 0.03794
C 30.67519 14.87541 -0.0405
C 33.14394 23.46957 0.01927
C 29.46065 15.58032 0.01705
C 30.69254 17.75077 -0.00669
C 26.95899 8.5191 0.02611
C 26.9777 7.14079 0.02198
C 28.23171 6.42772 0.01094
C 28.30413 4.94924 0.00235
C 27.05826 4.29025 0.01495
C 27.06255 2.80506 0.01259
C 28.28986 2.0661 0.01799
C 28.2705 0.60122 0.01699
C 26.97447 34.00891 -0.00416
C 29.47755 32.65958 0.01177
C 30.77949 31.85434 0.04266
C 30.70383 30.42974 0.01324
C 29.46878 29.77647 0.0014
C 29.50166 28.38034 0.00924
C 30.72873 27.75802 0.02326
C 30.73927 26.28644 0.00261
C 29.49764 25.62677 0.03265
C 29.51415 24.23366 -0.02049
C 30.69726 23.44777 -0.01854
C 30.68348 22.00116 -0.01415
C 29.46694 21.27986 -0.03039
C 29.55533 19.87845 0.01836
C 30.74983 19.21541 0.03531
C 29.46385 17.03217 0.0101
C 28.27609 9.22289 -0.00621
C 33.15387 22.05213 0.01574
C 32.015 19.84426 -0.01429
C 34.37606 24.09796 0.03076
C 1.19848 23.44846 0.00723
C 1.28449 21.99776 0.02712
C 0.02995 21.35527 -0.02213
C 0.06092 19.89501 0.01951
C 1.31235 19.16647 -0.01678
C 1.18185 17.74067 0.01223
C 34.36158 17.07691 0.00648
C 34.37268 15.58172 0.02114
C 1.09502 14.86499 -0.02957
C 1.11891 13.45058 0.00343
C 34.38506 12.73775 -0.02656
C 34.37302 11.28134 -0.02442
C 1.1455 10.60692 -0.00027
C 1.15924 9.25366 -0.00583
C 34.34736 8.46458 -0.02302
C 34.40915 7.04358 -0.02849
C 1.2425 6.42839 0.02931
C 1.29642 4.94304 0.00628
C 0.05798 4.17695 -0.0345
C 0.04693 2.74957 -0.00931
C 1.2674 2.13481 -0.00939
C 1.2325 0.75429 -0.00468
C 34.39106 25.56182 -0.05239
C 31.9481 21.33477 -0.02383
C 1.22846 26.24234 -0.00598
C 34.42734 28.37955 -0.01037
C 33.20963 19.23686 -0.0136
C 33.12853 17.75985 0.00594
C 31.96471 17.04689 -0.02474
C 31.97303 15.64841 0.00369
C 33.14471 14.984 0.00455
C 33.17724 13.48632 -0.00644
C 31.89648 12.79214 -0.01839
C 31.86815 11.34797 0.00137
C 33.21031 10.58943 0.00199
C 33.14077 9.20912 0.04381
C 31.90959 8.36409 0.02806
C 31.98171 6.95331 0.01504
C 33.24012 6.28474 -0.00069
C 33.2403 4.89481 0.04926
C 31.97105 4.22901 -0.03838
C 32.05163 2.81241 0.00349
C 33.23033 2.08169 -0.00323
C 33.20372 0.62111 -0.00841
C 31.94409 33.95034 0.0001
C 0.10784 32.62891 -0.02927
C 1.31928 31.937 -0.01404
C 1.29391 30.50269 0.01027
C 0.00452 29.78138 0.01831
C 1.188 27.61081 -0.00439
C 28.24083 10.68815 0.00194
C 26.96345 11.32633 0.04185
C 26.98987 12.74305 0.02316
C 23.36892 27.71554 0.0058
C 23.4135 26.34363 -0.00865
C 22.21468 25.54275 0.00675
C 22.12526 24.10062 -0.00311
C 23.3787 23.38574 0.00742
C 23.36745 22.06709 -0.01594
C 22.1149 21.35185 0.0106
C 22.02442 19.90697 -0.01154
C 23.35946 19.16068 -0.01721
C 23.3509 17.80264 -0.02422
C 22.0401 17.08329 0.01277
C 22.04482 15.64013 0.00096
C 23.32825 15.01054 -0.01527
C 23.28844 13.54542 0.01087
C 22.10507 12.81544 0.00199
C 22.11608 11.45379 0.01511
C 23.33318 10.6747 -0.00478
C 23.34402 9.28134 -0.01662
C 22.17432 8.49792 -0.01185
C 22.17179 7.09935 0.01126
C 23.32768 6.38309 0.01852
C 23.56691 5.02739 -0.00381
C 22.17749 4.24467 0.03046
C 22.18485 28.40385 -0.00652
C 22.16933 2.86419 0.0296
C 22.13409 29.88929 -0.04076
C 23.35662 31.96637 0.00654
C 19.66863 24.09528 0.03338
C 20.90063 23.43779 -0.0258
C 20.88127 22.01417 -0.0331
C 19.63305 21.20761 -0.00316
C 19.50339 19.82604 0.02188
C 20.66912 19.13903 -0.01979
C 20.89247 17.78998 0.02691
C 20.80474 14.98051 -0.01581
C 20.86689 13.50864 0.01452
C 19.66341 12.69009 0.04892
C 19.68632 11.26547 -0.00111
C 20.93581 10.53283 -0.03557
C 20.96176 9.1719 0.03754
C 19.67612 8.42864 0.01739
C 19.61974 7.05995 0.00755
C 20.87628 6.37443 -0.0054
C 20.95099 4.9103 0.00667
C 19.70368 4.31502 0.00143
C 19.69743 2.91324 -0.017
C 20.91139 2.16022 0.00364
C 20.86888 0.68037 -0.00831
C 19.67549 0.01052 -0.02957
C 22.08106 32.6961 -0.04422
C 23.31407 30.54723 -0.00703
C 23.35708 2.14438 0.03374
C 23.3194 0.72884 -0.02845
C 22.09117 0.05245 -0.03213
C 24.65985 2.79889 -0.00938
C 25.84454 2.12895 -0.0264
C 25.7751 0.71322 -0.01154
C 24.5203 34.06147 0.00684
C 26.97419 32.61974 -0.01052
C 28.3145 31.93984 -0.01679
C 28.23564 30.50708 0.00367
C 27.03216 29.85302 0.04306
C 27.06689 28.38685 0.00996
C 28.23822 27.67142 0.00195
C 28.26646 26.30177 -0.00802
C 27.06268 25.55127 -0.00218
C 27.05075 24.11069 -0.01654
C 28.28789 23.43921 -0.00037
C 28.21154 22.06522 -0.0032
C 27.02672 21.36454 0.00622
C 27.01705 19.89962 -0.02815
C 28.36256 19.17746 -0.00942
C 28.29087 17.79187 0.00487
C 27.07443 17.0268 0.00826
C 27.10626 15.63108 -0.00294
C 28.25706 14.88117 0.00152
C 28.2924 13.44853 0.01257
C 24.65713 4.26457 -0.00229
C 25.89342 5.05635 -0.01199
C 25.83242 6.43883 -0.009
C 24.55172 7.12021 -0.00285
C 24.55454 32.59204 0.02239
C 25.71629 31.88934 0.01153
C 25.82145 30.55154 0.02734
C 24.58693 29.84852 -0.0055
C 24.59663 28.40061 0.01515
C 25.84881 27.66568 -0.00225
C 25.89636 26.3454 0.00071
C 24.6254 25.60216 -0.01107
C 24.59306 24.12993 -0.01586
C 25.81971 23.46626 -0.01971
C 25.85045 21.9967 -0.02118
C 3.69082 31.93706 -0.00012
C 24.63254 21.3247 0.00733
C 25.85412 19.15626 0.00768
C 25.83194 17.72394 -0.0276
C 24.54557 17.08862 0.03005
C 24.57381 15.62665 -0.04078
C 25.84936 14.94614 0.02117
C 25.7663 13.48013 0.02737
C 24.56651 12.84052 -0.00498
C 24.6089 11.37202 0.00135
C 25.78929 10.67623 0.03102
C 25.80074 9.23308 0.02555
C 24.59632 8.52582 0.01423
C 24.65646 19.85549 -0.00178
C 2.52241 32.64342 -0.00198
