304
Graphene
C 34.36289 34.06846 0.01295
C 14.79863 2.8712 -0.01581
C 15.91637 2.11702 0.01452
C 16.06095 0.70539 0.04892
C 14.80737 0.02702 -0.00111
C 17.20859 32.70546 -0.03557
C 18.31697 31.88462 0.03754
C 18.3212 30.43092 0.01739
C 16.93199 29.64851 0.00755
C 16.8935 28.1638 -0.0054
C 18.21209 27.60681 0.00667
C 18.51414 26.25631 0.00143
C 17.0838 12.94024 -0.017
C 17.20547 11.32935 0.00364
C 18.41341 10.61809 -0.00831
C 18.50706 9.22199 -0.02957
C 14.84102 4.22437 0.02691
C 17.30088 8.51174 -0.04422
C 16.01137 4.98894 -0.01979
C 14.82899 7.00186 -0.00316
C 12.29301 4.33394 0.03505
C 12.25594 2.87544 -0.02815
C 13.54345 2.1934 -0.04147
C 13.53069 0.79864 -0.05302
C 12.29027 0.04408 0.00213
C 14.677 32.72464 -0.00066
C 15.90646 32.00512 -0.00289
C 16.12301 30.74122 0.00028
C 15.04839 15.40284 -0.02213
C 15.99183 13.61747 0.03698
C 14.80075 12.73797 -0.00109
C 14.83681 11.35925 -0.00491
C 16.03001 10.68749 0.03338
C 16.01511 9.15415 -0.0258
C 14.84183 8.55026 -0.0331
C 16.00898 6.39357 0.02188
C 13.60431 4.99076 0.01443
C 17.22712 7.1144 0.00654
C 18.4748 4.92144 -0.04076
C 20.88076 4.92684 -0.01185
C 19.68951 4.26277 0.01126
C 19.74996 2.8228 0.01852
C 20.90312 2.10238 -0.00381
C 20.85082 0.67678 0.03046
C 19.66029 34.03428 0.0296
C 22.22409 32.57099 0.03374
C 23.66936 31.86203 -0.02845
C 23.41734 30.52021 -0.03213
C 22.16042 29.8419 0.02239
C 22.05678 28.36562 0.01153
C 23.3104 27.68788 0.02734
C 23.38496 26.28498 -0.0055
C 22.18503 25.4739 0.01515
C 22.1934 11.39293 -0.00225
C 21.01892 6.40904 -0.01662
C 18.43187 6.34053 -0.00703
C 19.70536 6.9816 -0.00478
C 20.93392 9.19235 0.00199
C 17.21574 4.18204 -0.00652
C 17.15862 2.82051 0.0058
C 18.4759 2.12215 -0.00865
C 18.40468 0.71153 0.00675
C 17.22488 34.06029 -0.00311
C 19.62917 32.53428 0.00742
C 20.89125 31.89146 -0.01594
C 20.85021 30.5335 0.0106
C 19.58591 29.69437 -0.01154
C 19.55885 28.30564 -0.01721
C 20.84721 27.6551 -0.02422
C 20.96322 26.18498 0.01277
C 19.68255 25.55329 0.00096
C 19.61532 11.41884 -0.01527
C 20.89279 10.83285 0.01087
C 19.7632 8.46887 0.01511
C 23.50617 10.81475 0.00071
C 13.56604 6.41603 0.00979
C 12.39178 8.48057 0.00889
C 6.11185 13.57044 -0.01275
C 4.88993 12.82784 0.00985
C 4.86567 11.38595 -0.02245
C 6.09375 10.65877 -0.00428
C 6.10866 9.24076 0.03101
C 4.88594 8.57109 -0.01536
C 4.94147 7.13087 -0.02689
C 6.13954 6.35939 -0.01046
C 6.0609 4.99991 -0.00891
C 4.89193 4.30575 0.02819
C 4.88077 2.83949 0.00165
C 6.0246 2.09627 -0.02971
C 5.9518 0.63803 0.02894
C 4.66246 34.0129 -0.01789
C 7.3268 15.47292 0.00444
C 5.97999 15.13672 -0.01111
C 8.65271 14.93094 -0.00925
C 4.67335 15.8403 0.02841
C 3.56259 0.78739 0.00406
C 2.62903 16.98674 0.00093
C 2.43346 15.60136 0.00057
C 3.62515 14.8842 -0.01634
C 3.62235 13.48003 -0.00334
C 2.40381 12.80108 0.02339
C 2.42804 11.37774 0.01641
C 3.62122 10.65965 -0.00719
C 3.67386 9.23858 0.01364
C 2.39475 8.5559 -0.01062
C 2.34926 7.19247 -0.00033
C 3.66853 6.45597 0.03589
C 3.67342 5.0618 -0.02759
C 2.40133 4.35574 0.0402
C 2.40703 2.98 0.00572
C 3.64142 2.19396 0.03592
C 2.31553 0.13751 0.00943
C 12.29429 7.04758 -0.00481
C 8.63081 13.51779 0.01877
C 7.30063 11.36868 -0.02162
C 9.84191 7.06756 0.02058
C 11.0966 6.38943 -0.01957
C 11.0307 5.00087 -0.0108
C 9.79078 4.30329 -0.00368
C 9.77602 2.85642 -0.02696
C 10.99945 2.11025 -0.00114
C 11.00549 0.66989 0.00228
C 9.76937 0.01605 0.00798
C 12.56459 15.65311 0.00422
C 13.65734 14.93206 0.0351
C 13.5486 13.38015 -0.03113
C 12.35492 12.70549 0.02098
C 12.37645 11.27461 0.01848
C 13.61214 10.60704 -0.00619
C 13.61462 9.24519 -0.02162
C 9.79125 8.4738 0.01965
C 7.34244 12.82891 0.01363
C 11.04527 9.19741 -0.03682
C 9.78239 11.37257 0.00374
C 8.61253 10.60839 0.00415
C 8.56879 9.19952 -0.0014
C 7.29916 8.50439 0.02162
C 7.36787 7.12486 0.0076
C 8.55119 6.39499 0.01241
C 8.47098 5.06215 -0.01454
C 7.33613 4.24881 0.01945
C 7.28406 2.7728 0.01416
C 8.50445 2.15038 0.03542
C 8.45604 0.68497 0.02299
C 7.24529 0.03785 0.00244
C 10.00367 15.51968 -0.01717
C 11.23346 14.97022 0.05265
C 11.19661 13.59594 -0.01952
C 9.86951 12.83774 -0.02813
C 11.07079 10.62834 0.00052
C 23.38241 9.32507 -0.01107
C 22.16491 8.58311 -0.01586
C 22.15807 7.16389 -0.01971
C 33.06105 26.35203 0.01574
C 31.83211 25.67977 -0.02383
C 31.92918 24.19387 -0.01429
C 33.1311 23.44863 -0.0136
C 33.13128 21.96116 0.00594
C 31.8342 21.25298 -0.02474
C 31.93381 19.89322 0.00369
C 33.1989 19.25379 0.00455
C 33.18598 17.85554 -0.00644
C 31.93003 17.11206 -0.01839
C 31.96422 15.7326 0.00137
C 33.27787 14.98852 0.00199
C 33.2297 13.52393 0.04381
C 31.93238 12.85972 0.02806
C 31.96872 11.36904 0.01504
C 33.05868 27.81796 0.01927
C 33.10441 10.66462 -0.00069
C 31.89717 28.51196 0.03794
C 33.13111 30.57477 0.00682
C 29.52928 12.814 -0.00971
C 29.49346 11.36919 0.01518
C 30.70604 10.64222 0.01908
C 30.65833 9.26862 0.07705
C 29.47439 8.51565 0.0103
C 29.49617 7.01831 0.02108
C 30.71837 6.43959 0.00716
C 30.73508 5.02527 0.00307
C 29.51101 4.2703 0.00346
C 29.5079 2.83753 0.01713
C 30.61454 2.16787 -0.01694
C 30.65106 0.7875 0.01428
C 29.44874 0.05272 -0.02142
C 31.95325 32.73902 0.0544
C 33.20593 31.97538 0.00026
C 31.85892 29.93177 -0.01779
C 30.72911 13.47563 -0.03735
C 33.14871 9.26643 0.04926
C 31.88759 7.19448 0.00349
C 0.01044 15.66956 0.02114
C 1.23138 15.02474 -0.02957
C 1.1885 13.54201 0.00343
C 34.3735 12.86781 -0.02656
C 34.36744 11.352 -0.02442
C 1.2066 10.68691 -0.00027
C 1.16156 9.30848 -0.00583
C 34.3711 8.59316 -0.02302
C 34.34238 7.17925 -0.02849
C 1.11921 6.51632 0.02931
C 1.10437 5.03434 0.00628
C 34.3135 4.36173 -0.0345
C 34.40342 2.99613 -0.00931
C 1.12644 2.2564 -0.00939
C 1.03775 0.86465 -0.00468
C 34.38985 17.09895 0.00648
C 31.93986 8.61203 -0.03838
C 1.28815 17.75443 0.01223
C 0.06119 19.93261 0.01951
C 33.11202 6.48914 -0.00323
C 33.14109 5.05441 -0.00841
C 31.92253 4.30034 0.0001
C 31.91075 2.9261 -0.02927
C 33.22547 2.25676 -0.01404
C 33.17913 0.75416 0.01027
C 31.96519 0.04502 0.01831
C 0.00533 32.65155 -0.01037
C 1.37974 32.03769 -0.00439
C 1.06607 30.64383 -0.00598
C 0.02135 29.80894 -0.05239
C 34.34251 28.35399 0.03076
C 34.18024 25.59399 0.00723
C 34.29814 24.20715 0.02712
C 34.36048 21.39311 -0.02213
C 1.18887 19.07158 -0.01678
C 30.71458 14.97401 -0.00944
C 29.45373 15.58829 -0.02155
C 29.52057 17.00478 -0.01461
C 24.5645 8.50097 -0.0264
C 24.45397 7.00104 -0.01154
C 25.72665 6.32163 0.00684
C 25.75807 4.99755 -0.01052
C 24.54005 4.23863 -0.01679
C 24.5564 2.82534 0.00367
C 25.76012 2.21806 0.04306
C 25.84246 0.87306 0.00996
C 24.64581 34.07527 0.00195
C 26.6941 32.79155 -0.00802
C 27.92219 32.02265 -0.00218
C 27.9415 30.6425 -0.01654
C 26.64158 29.80581 -0.00037
C 26.88406 28.41768 -0.0032
C 28.19114 27.7585 0.00622
C 25.7484 9.22692 -0.00938
C 28.247 26.38293 -0.02815
C 25.81713 10.62569 -0.00229
C 25.83598 13.46105 -0.009
C 23.29885 6.36296 -0.02118
C 23.36216 4.90981 0.00733
C 22.04699 4.21356 -0.00178
C 22.10578 2.82505 0.00768
C 23.32972 2.15364 -0.0276
C 23.33177 0.69809 0.03005
C 22.08161 33.97678 -0.04078
C 24.90334 32.65666 0.02117
C 24.81589 29.72689 0.02737
C 24.52064 28.36004 -0.00498
C 25.76883 27.56968 0.00135
C 25.80978 26.23783 0.03102
C 24.58031 25.5849 0.02555
C 24.78674 24.14327 0.01423
C 25.86146 23.47759 -0.00285
C 24.69867 11.49907 -0.01199
C 27.04718 25.59597 -0.00942
C 27.11273 24.16619 0.00487
C 28.31468 23.37241 0.00826
C 29.33444 32.70011 0.00924
C 30.60481 32.08197 0.02326
C 30.56205 30.6502 0.00261
C 29.24495 29.92287 0.03265
C 29.36035 28.4798 -0.02049
C 30.66032 27.75979 -0.01854
C 30.63568 26.38158 -0.01415
C 29.40787 25.62407 -0.03039
C 29.4322 24.17776 0.01836
C 30.67989 23.45997 0.03531
C 30.60516 22.04019 -0.00669
C 29.44438 21.25795 0.0101
C 29.44335 19.87831 0.01705
C 30.74769 19.15234 -0.0405
C 30.69089 17.77182 -0.01303
C 26.93088 0.08735 0.0014
C 28.27575 0.78969 0.01324
C 28.1804 2.21907 0.04266
C 27.01919 2.9473 0.01177
C 28.15653 21.93515 -0.00294
C 27.01839 21.33472 0.00152
C 28.1669 19.06848 0.01257
C 28.25751 17.79904 0.02316
C 26.96711 15.41951 0.04185
C 28.17606 14.8628 0.00194
C 28.31033 13.45606 -0.00621
C 4.02957 17.2197 0.01291
C 27.03559 12.74236 0.02611
C 28.26658 10.64563 0.01094
C 28.21898 9.23607 0.00235
C 27.04029 8.55937 0.01495
C 26.94032 7.096 0.01259
C 28.22914 6.42212 0.01799
C 28.23231 4.97035 0.01699
C 26.94713 4.33066 -0.00416
C 27.07161 11.30414 0.02198
C 2.45041 32.84157 0.00438
