246
Graphene
C 0.01021 0.04555 0.01295
C 19.74371 4.16717 -0.0055
C 20.78299 5.0816 0.02734
C 20.96272 6.43229 0.01153
C 20.96606 30.5511 0.02239
C 20.93114 31.98756 -0.03213
C 19.72517 32.70646 -0.02845
C 17.16749 34.03311 0.03374
C 18.38188 0.63117 0.0296
C 18.40419 2.00336 0.03046
C 17.21744 2.75 -0.00381
C 18.51517 17.77196 0.01852
C 14.82209 34.02901 0.01126
C 19.70345 2.82447 0.01515
C 16.03191 0.59635 -0.01185
C 14.69415 2.90722 -0.00478
C 12.27669 34.06066 0.01511
C 13.54044 0.52108 0.00199
C 13.49114 2.08597 0.01087
C 12.36455 2.76029 -0.01527
C 12.10643 4.21378 0.00096
C 13.49101 17.7947 0.01277
C 9.84864 34.00597 -0.02422
C 11.01743 0.76392 -0.01721
C 11.00245 2.18463 -0.01154
C 9.86653 2.90519 0.0106
C 9.87478 4.31503 -0.01594
C 15.99657 2.23895 -0.01662
C 20.93191 2.14138 -0.00225
C 20.89087 0.7316 0.00071
C 19.68169 34.04623 -0.01107
C 25.86601 26.31768 0.00367
C 25.82586 27.78729 -0.01679
C 24.57814 28.42064 -0.01052
C 24.57589 29.87696 0.00684
C 25.85278 30.46237 -0.01154
C 25.85642 31.92358 -0.0264
C 24.64137 32.70712 -0.00938
C 22.19804 34.0615 -0.00229
C 23.32871 0.6538 -0.01199
C 23.37044 2.13788 -0.009
C 22.14824 2.79873 -0.00285
C 22.0481 4.22844 0.01423
C 23.3802 4.93424 0.02555
C 23.47325 6.37877 0.03102
C 22.09949 7.15346 0.00135
C 22.31348 8.60209 -0.00498
C 23.24127 9.30719 0.02737
C 22.12112 21.36563 0.02117
C 23.26239 21.9697 -0.04078
C 23.39412 23.31288 0.03005
C 23.40593 26.32848 -0.0276
C 23.31817 27.65684 0.00768
C 22.08572 28.42296 -0.00178
C 22.06455 29.82127 0.00733
C 23.38279 30.53408 -0.02118
C 23.44397 32.02975 -0.01971
C 22.16633 32.64394 -0.01586
C 11.16517 4.91005 0.00742
C 9.78122 15.59168 -0.00311
C 9.90899 32.61667 0.00675
C 7.32796 34.07195 -0.00865
C 6.1178 26.24243 -0.02213
C 6.21453 27.61243 0.00028
C 4.92829 28.36024 -0.00289
C 4.88466 29.84069 -0.00066
C 6.07676 30.53734 0.00213
C 6.0918 31.96195 -0.05302
C 4.83263 32.73524 -0.04147
C 2.46196 0.02128 -0.02815
C 3.66212 0.74522 0.03505
C 3.71791 2.09297 0.01443
C 2.49051 2.85389 0.00979
C 2.46847 4.28719 -0.00481
C 3.68224 5.0374 0.00889
C 3.72037 6.42266 -0.02162
C 2.45144 7.08432 -0.00619
C 2.45217 8.47593 0.01848
C 3.66208 9.16915 0.02098
C 3.65826 10.61012 -0.03113
C 2.50368 11.39706 0.0351
C 2.44094 12.79749 0.00422
C 3.63128 13.47023 0.00798
C 2.43476 25.64323 0.00228
C 3.63954 26.20678 -0.00114
C 3.63681 27.66789 -0.02696
C 2.45796 28.41674 -0.00368
C 2.50095 29.79193 -0.0108
C 3.65405 30.52197 -0.01957
C 6.11502 13.36818 0.03698
C 24.52991 25.58877 0.04306
C 4.91506 12.75614 -0.00109
C 6.10606 10.62704 0.03338
C 8.6214 0.69024 0.0058
C 8.67327 2.14026 -0.00652
C 7.3627 2.86413 -0.04076
C 7.41759 4.2119 -0.00703
C 8.58858 5.00132 0.00654
C 8.57071 6.37774 -0.04422
C 7.42841 7.17898 -0.02957
C 7.38148 8.48139 -0.00831
C 7.28658 11.39764 0.00364
C 7.36509 12.80641 -0.017
C 8.53559 13.57714 0.00143
C 8.68382 14.87815 0.00667
C 7.37021 28.45201 -0.0054
C 7.43363 29.75396 0.00755
C 8.60396 30.57716 0.01739
C 8.67758 31.94818 0.03754
C 7.37609 32.67277 -0.03557
C 4.84114 0.08932 -0.00111
C 6.15791 0.74774 0.04892
C 6.14671 2.10804 0.01452
C 4.89795 2.84919 -0.01581
C 4.87819 4.31142 0.02691
C 6.19579 4.91823 -0.01979
C 6.20632 6.40608 0.02188
C 4.92015 7.08403 -0.00316
C 5.00239 8.49747 -0.0331
C 6.19516 9.19841 -0.0258
C 4.8263 11.28968 -0.00491
C 24.53266 24.25144 0.00996
C 25.81473 23.40996 0.00195
C 25.91313 21.99638 -0.00802
C 31.93806 2.84173 0.0001
C 32.01524 4.24483 -0.00841
C 33.18666 4.92855 -0.00323
C 33.24787 6.36595 0.00349
C 31.89943 7.06462 -0.03838
C 31.9392 8.60635 0.04926
C 33.14587 9.28845 -0.00069
C 33.18672 10.67869 0.01504
C 31.99186 11.39069 0.02806
C 31.93853 12.72151 0.04381
C 33.24653 13.49397 0.00199
C 33.17698 14.9528 0.00137
C 31.99177 15.62081 -0.01839
C 31.91451 16.98706 -0.00644
C 33.22218 17.66584 0.00455
C 33.20178 19.11865 0.00369
C 32.0506 19.89317 -0.02474
C 32.00547 21.26407 0.00594
C 33.22499 22.05847 -0.0136
C 33.20479 23.50176 -0.01429
C 31.94438 24.1445 -0.02383
C 32.04318 25.55771 0.01574
C 33.26486 26.28818 0.01927
C 33.22443 27.73655 0.03794
C 31.93363 28.27354 -0.01779
C 31.95129 29.78052 0.00682
C 33.14299 30.54309 0.00026
C 33.13469 2.08198 -0.02927
C 33.20239 31.95349 0.0544
C 33.18497 0.72843 -0.01404
C 34.42966 32.70108 0.01831
C 1.25964 0.65767 -0.00468
C 1.21304 2.15269 -0.00939
C 34.41408 2.84756 -0.00931
C 0.01402 4.26442 -0.0345
C 1.20858 4.95267 0.00628
C 1.24129 6.38679 0.02931
C 0.04593 7.1429 -0.02849
C 34.41401 8.54684 -0.02302
C 1.18606 9.27834 -0.00583
C 1.27393 10.65028 -0.00027
C 0.01146 11.41057 -0.02442
C 34.42058 12.8422 -0.02656
C 1.25336 13.59008 0.00343
C 1.15273 14.99195 -0.02957
C 0.00396 15.68465 0.02114
C 34.41532 17.04827 0.00648
C 34.32382 19.97194 0.01223
C 0.01061 21.30031 -0.01678
C 1.22949 23.4298 0.01951
C 0.05567 24.11848 -0.02213
C 34.42477 25.60706 0.02712
C 1.1858 26.33175 0.00723
C 1.24057 27.73636 0.03076
C 34.36588 28.42425 -0.05239
C 34.36961 29.87615 -0.00598
C 1.23209 30.50134 -0.00439
C 1.25819 31.92473 -0.01037
C 31.94183 0.048 0.01027
C 3.66092 31.97424 0.02058
C 32.03024 32.7263 -0.02142
C 30.76429 0.67353 -0.01694
C 28.26565 4.96965 0.04266
C 28.22563 6.35883 0.01177
C 27.04292 7.11038 -0.00416
C 27.00183 8.56883 0.01699
C 28.1702 9.24855 0.01799
C 28.29325 10.69512 0.01259
C 28.21762 21.95336 0.01495
C 28.28321 23.45214 0.00235
C 27.00406 24.15816 0.01094
C 27.0687 25.60552 0.02198
C 28.30302 26.24094 0.02611
C 28.30077 27.70142 -0.00621
C 27.07523 28.4369 0.00194
C 27.10834 29.81901 0.04185
C 28.31123 30.5897 0.02316
C 28.26039 31.93942 0.01257
C 27.03609 32.66563 0.00152
C 24.58204 0.00517 -0.00294
C 25.75188 0.76916 0.00826
C 25.87371 2.11679 0.00487
C 24.61712 2.77737 -0.00942
C 24.6537 4.20457 -0.02815
C 25.81396 5.00537 0.00622
C 25.82186 6.42269 -0.0032
C 24.61972 7.10841 -0.00037
C 24.5963 8.57854 -0.01654
C 25.80831 9.20087 -0.00218
C 27.03252 4.27914 0.01324
C 29.58045 0.02092 0.01428
C 27.06993 2.75435 0.0014
C 28.32496 0.66151 0.02326
C 30.7595 2.13951 0.01713
C 29.50906 2.86116 0.00346
C 29.52201 4.20803 0.00307
C 30.69864 4.96626 0.00716
C 30.75925 6.31666 0.02108
C 29.45027 7.04621 0.0103
C 29.45566 8.54316 0.07705
C 30.68921 9.22221 0.01908
C 30.68988 10.71569 0.01518
C 29.42304 11.32383 -0.00971
C 30.77764 13.43748 -0.03735
C 30.82501 17.75499 -0.00944
C 30.72794 19.17707 -0.02155
C 29.62571 19.865 -0.01461
C 29.46953 21.20407 -0.01303
C 30.76487 22.02274 -0.0405
C 30.78977 23.40513 0.01705
C 29.49801 24.11505 0.0101
C 29.53233 25.52917 -0.00669
C 30.756 26.25832 0.03531
C 30.71416 27.68292 0.01836
C 29.54389 28.49098 -0.03039
C 29.51036 29.85567 -0.01415
C 30.78354 30.57275 -0.01854
C 30.71752 32.00057 -0.02049
C 29.52092 32.6618 0.03265
C 27.03834 34.06475 0.00261
C 28.33883 2.15022 0.00924
C 2.49553 32.65606 0.01965
