330
Graphene
C 34.41053 0.03589 0.01295
C 11.05337 21.90941 -0.04147
C 9.79971 21.23085 -0.05302
C 9.96891 19.82817 0.00213
C 11.22474 19.04498 -0.00066
C 11.10461 17.71544 -0.00289
C 9.84275 17.03374 0.00028
C 9.80354 15.59406 -0.02213
C 10.97688 23.43483 -0.02815
C 11.02953 14.87589 0.03698
C 9.84459 12.74227 -0.00491
C 9.84497 11.34566 0.03338
C 11.02002 10.5643 -0.0258
C 11.07372 9.19385 -0.0331
C 9.82896 8.50528 -0.00316
C 9.79425 7.13694 0.02188
C 11.09289 6.42359 -0.01979
C 11.07513 13.52276 -0.00109
C 9.80968 24.21135 0.03505
C 9.84315 25.55798 0.01443
C 11.00873 26.40809 0.00979
C 8.53613 10.64002 0.02058
C 8.5678 9.16886 -0.01957
C 7.33125 8.52556 -0.0108
C 7.36723 7.12181 -0.00368
C 8.63516 6.39143 -0.02696
C 8.59487 4.94575 -0.00114
C 7.30397 4.33395 0.00228
C 7.37076 2.95687 0.00798
C 8.64678 2.22001 0.00422
C 8.58945 0.74765 0.0351
C 7.38115 0.00739 -0.03113
C 9.79963 32.70104 0.02098
C 11.01188 32.0447 0.01848
C 11.03059 30.54946 -0.00619
C 9.70576 29.86457 -0.02162
C 9.7318 28.4858 0.00889
C 11.01604 27.84209 -0.00481
C 11.10159 4.96112 0.02691
C 7.3426 11.28197 0.01965
C 9.83605 4.34264 -0.01581
C 11.10477 2.24602 0.04892
C 12.33901 8.54038 0.00742
C 12.3167 7.16517 -0.01594
C 13.52096 6.40076 0.0106
C 13.47697 4.98433 -0.01154
C 12.30093 4.30312 -0.01721
C 12.38194 2.89942 -0.02422
C 13.52856 2.14916 0.01277
C 13.62779 9.22862 -0.00311
C 13.55456 0.74931 0.00096
C 14.70417 32.74779 0.01087
C 15.77587 31.7731 0.00199
C 14.90755 30.1909 0.01511
C 16.12031 17.67446 -0.00478
C 14.74051 16.98635 -0.01662
C 14.78573 15.62012 -0.01185
C 15.94146 14.88544 0.01126
C 12.26853 0.14498 -0.01527
C 13.491 10.62575 0.00675
C 12.21808 11.37276 -0.00865
C 12.28981 12.82932 0.0058
C 11.02542 0.80632 -0.00111
C 9.84625 0.06461 -0.03557
C 12.21441 32.78733 0.03754
C 13.42344 32.07113 0.01739
C 13.59038 30.57968 0.00755
C 12.35768 29.81492 -0.0054
C 12.18778 28.51381 0.00667
C 12.18799 25.57044 0.00143
C 12.1319 24.21103 -0.017
C 12.3773 21.3142 0.00364
C 12.49259 19.94413 -0.00831
C 13.61495 19.09245 -0.02957
C 13.46988 17.71385 -0.04422
C 12.25859 17.036 0.00654
C 12.29671 15.66969 -0.00703
C 13.48199 14.90055 -0.04076
C 13.5346 13.47154 -0.00652
C 9.85905 2.95996 0.01452
C 7.34042 12.70729 -0.03682
C 8.61481 13.39913 0.00052
C 8.6255 14.84132 0.00374
C 2.3992 8.52555 0.02147
C 2.42542 7.10634 0.00373
C 3.62787 6.29189 -0.00191
C 3.6563 4.94919 0.00438
C 2.5058 4.21527 0.01291
C 2.50381 2.85083 0.00093
C 3.72772 2.16502 0.00057
C 3.63292 9.22477 -0.014
C 3.71116 0.73299 -0.01634
C 4.95328 32.7415 0.02339
C 6.14097 31.95408 0.01641
C 6.11409 30.56351 -0.00719
C 4.86773 29.89977 0.01364
C 4.84045 28.42445 -0.01062
C 6.17805 27.78806 -0.00033
C 6.09337 26.32658 0.03589
C 2.4737 0.02245 -0.00334
C 3.58433 10.61769 -0.01118
C 2.33331 11.32503 -0.00131
C 2.41438 12.71017 -0.02896
C 3.67303 30.61191 -0.00095
C 2.42179 29.95589 0.01572
C 2.30702 28.56494 -0.04848
C 3.58235 27.77658 -0.00892
C 3.62702 26.31231 -0.01362
C 2.40353 25.59789 -0.0008
C 2.44735 24.15544 0.0288
C 3.6513 23.44213 0.00393
C 3.64473 22.04568 0.00895
C 2.40098 21.31433 0.00685
C 2.54999 19.944 0.02888
C 3.74698 19.13051 -0.00482
C 3.74387 17.72572 -0.01384
C 2.43161 17.06626 0.03693
C 2.40389 15.66285 0.01745
C 3.69637 14.85408 0.00488
C 3.67408 13.41313 -0.01004
C 4.85895 25.61433 -0.02759
C 4.84558 24.17237 0.0402
C 6.14691 23.49582 0.00572
C 6.16774 21.96545 0.03592
C 7.33264 32.63539 0.01363
C 8.55404 32.02707 -0.02162
C 8.51706 30.59184 0.00415
C 7.31151 29.82852 -0.0014
C 7.39468 28.44123 0.02162
C 8.53031 27.65689 0.0076
C 8.55708 26.23752 0.01241
C 7.29732 25.60256 -0.01454
C 7.38822 24.10103 0.01945
C 8.63737 23.44347 0.01416
C 8.63685 22.02312 0.03542
C 7.35449 21.26911 0.02299
C 7.40432 19.85886 0.00244
C 8.70004 19.08953 -0.01717
C 8.65568 17.71218 0.05265
C 7.4451 17.04353 -0.01952
C 7.49403 15.58119 -0.02813
C 4.90455 0.10988 0.01877
C 15.97078 13.5034 0.01852
C 6.17315 0.74746 -0.00925
C 5.00135 2.80895 -0.01789
C 4.92968 21.29363 0.00406
C 4.95856 19.94474 0.00943
C 6.15171 19.18905 0.02841
C 6.15705 17.72431 -0.01111
C 4.94299 16.98345 -0.01275
C 4.88928 15.61664 0.00985
C 6.10603 14.83245 -0.02245
C 6.12856 13.39703 -0.00428
C 4.83799 12.72769 0.03101
C 4.87741 11.33194 -0.01536
C 6.14146 10.59574 -0.02689
C 6.1021 9.20514 -0.01046
C 4.84435 8.5564 -0.00891
C 4.8787 7.12008 0.02819
C 6.1345 6.43883 0.00165
C 6.11639 5.04371 -0.02971
C 4.96003 4.29941 0.02894
C 6.20946 2.12248 0.00444
C 14.79089 12.77918 -0.00381
C 14.76547 11.35684 0.03046
C 15.98377 10.65117 0.0296
C 29.47497 0.03138 0.00026
C 31.95318 32.74746 0.00682
C 33.09356 32.0282 -0.01779
C 33.08693 30.57761 0.03794
C 31.84411 29.92373 0.01927
C 31.8937 28.52601 0.01574
C 33.11314 27.82531 -0.02383
C 30.67648 0.71904 0.0544
C 33.11661 26.36033 -0.01429
C 31.8853 24.16818 0.00594
C 33.12895 23.46501 -0.02474
C 33.20285 22.05764 0.00369
C 31.89118 21.37684 0.00455
C 31.88147 19.97512 -0.00644
C 33.24199 19.23181 -0.01839
C 33.19781 17.78907 0.00137
C 31.87515 25.56305 -0.0136
C 30.76104 2.15558 -0.02142
C 31.03672 13.36456 0.01428
C 30.79538 14.89354 -0.01694
C 29.42824 32.67789 0.01705
C 30.656 31.99314 -0.0405
C 30.5957 30.60684 -0.01303
C 29.34463 29.85519 -0.01461
C 29.43154 28.40167 -0.02155
C 30.72686 27.74898 -0.00944
C 30.69392 26.23753 -0.03735
C 29.50225 25.67308 -0.00971
C 29.39142 24.25416 0.01518
C 30.6541 23.44973 0.01908
C 30.65531 22.02138 0.07705
C 29.37566 21.44972 0.0103
C 29.34705 19.95286 0.02108
C 30.7142 19.23526 0.00716
C 30.7794 17.79045 0.00307
C 29.50673 17.06139 0.00346
C 29.53819 15.59944 0.01713
C 31.9747 17.08785 0.00199
C 31.99145 15.67284 0.04381
C 33.22358 14.95748 0.02806
C 33.33227 13.45477 0.01504
C 1.20758 17.81725 0.01223
C 34.36565 17.05708 0.00648
C 0.01664 15.62227 0.02114
C 1.21798 14.91271 -0.02957
C 1.2896 13.46763 0.00343
C 0.09147 12.87244 -0.02656
C 34.28561 11.43043 -0.02442
C 1.12973 10.64226 -0.00027
C 1.11076 9.12044 -0.00583
C 34.38237 8.256 -0.02302
C 34.35249 6.9926 -0.02849
C 1.24087 6.38126 0.02931
C 1.25538 4.92988 0.00628
C 34.37601 4.38086 -0.0345
C 0.0471 2.87531 -0.00931
C 1.26705 2.15874 -0.00939
C 1.20283 0.76317 -0.00468
C 1.27872 19.22763 -0.01678
C 27.15103 0.08485 0.0101
C 0.04309 19.96322 0.01951
C 1.17347 22.01267 0.02712
C 32.07511 12.6913 -0.00069
C 33.03406 10.89553 0.04926
C 33.33972 5.18288 -0.03838
C 31.92252 2.75776 0.00349
C 33.23976 2.19061 -0.00323
C 33.13041 0.71899 -0.00841
C 31.87492 0.01032 0.0001
C 34.34274 32.69462 -0.02927
C 1.15029 31.97453 -0.01404
C 1.16069 30.60747 0.01027
C 34.38321 29.91662 0.01831
C 34.31346 28.47523 -0.01037
C 1.04919 27.82174 -0.00439
C 1.13729 26.36637 -0.00598
C 34.33892 25.67188 -0.05239
C 34.36216 24.29222 0.03076
C 1.16852 23.50335 0.00723
C 34.42441 21.34745 -0.02213
C 3.79161 32.00398 0.03007
C 28.31849 0.82863 -0.00669
C 27.04789 15.42096 0.01836
C 17.22938 7.13672 0.02737
C 18.40389 6.37854 -0.00498
C 18.42639 4.91323 0.00135
C 17.24445 4.20706 0.03102
C 17.2201 2.82949 0.02555
C 18.3562 2.03779 0.01423
C 18.39819 0.64812 -0.00285
C 17.18294 8.47408 0.02117
C 17.16342 33.9797 -0.009
C 19.78931 15.63829 -0.00229
C 20.84573 14.75481 -0.00938
C 20.85435 13.38503 -0.0264
C 19.58122 12.69364 -0.01154
C 19.75136 11.29129 0.00684
C 20.79924 10.49169 -0.01052
C 19.57298 8.50968 -0.01679
C 19.69035 17.09049 -0.01199
C 18.42147 9.27265 -0.04078
C 18.37952 10.69966 0.03005
C 17.1447 11.44876 -0.0276
C 15.99615 9.24217 0.03374
C 14.81247 8.47272 -0.02845
C 14.74882 7.04332 -0.03213
C 15.99018 6.35253 0.02239
C 15.9821 4.95915 0.01153
C 14.7362 4.35482 0.02734
C 14.73417 2.87337 -0.0055
C 15.96846 2.11378 0.01515
C 15.98838 0.70055 -0.00225
C 14.78146 34.071 0.00071
C 17.13136 32.52313 -0.01107
C 18.6223 32.21537 -0.01586
C 17.21032 17.02558 -0.01971
C 17.21058 15.56833 -0.02118
C 18.55535 14.90249 0.00733
C 18.50501 13.51625 -0.00178
C 17.1581 12.84078 0.00768
C 19.5858 7.25296 0.00367
C 19.64603 4.19277 0.04306
C 19.6609 2.70317 0.00996
C 20.81358 1.76538 0.00195
C 25.85141 0.55661 0.01495
C 24.67101 0.05186 0.01259
C 27.00706 32.77409 0.01799
C 28.17304 32.00791 0.01699
C 28.13733 30.57891 -0.00416
C 26.9369 29.70469 0.01177
C 26.90962 28.30562 0.04266
C 28.18517 27.65566 0.01324
C 28.15033 26.14885 0.0014
C 27.0694 25.17164 0.00924
C 28.08358 23.77129 0.02326
C 28.06405 22.23768 0.00261
C 27.04324 21.32528 0.03265
C 26.94687 19.95766 -0.02049
C 28.2443 19.1297 -0.01854
C 28.3053 17.70183 -0.01415
C 27.0246 16.91226 -0.03039
C 25.78138 14.78542 0.00235
C 28.35281 14.90797 0.03531
C 24.57199 15.42346 0.01094
C 25.87281 17.56401 0.02611
C 20.86018 0.29368 -0.00802
C 19.52803 33.75268 -0.00218
C 22.94353 32.80707 -0.01654
C 23.17885 17.40917 -0.00037
C 22.01872 16.81866 -0.0032
C 22.0675 15.45798 0.00622
C 23.37913 14.81495 -0.02815
C 23.20064 13.43474 -0.00942
C 22.20492 12.84716 0.00487
C 21.97893 2.59162 0.00826
C 23.25148 2.13285 -0.00294
C 23.36591 0.69338 0.00152
C 22.21448 33.8419 0.01257
C 24.32051 32.68175 0.02316
C 25.6998 32.00718 0.04185
C 25.97536 30.73695 0.00194
C 25.80376 19.02261 -0.00621
C 24.61734 16.84645 0.02198
C 2.50603 32.65709 0.00054
