351
Graphene
C 0.01186 0.01793 0.01295
C 17.11888 21.34628 0.00228
C 17.23297 19.86214 0.00798
C 18.46629 19.17801 0.00422
C 18.48328 17.8431 0.0351
C 17.25852 17.06011 -0.03113
C 17.18519 15.62682 0.02098
C 18.38464 14.85653 0.01848
C 18.35663 13.46592 -0.00619
C 18.48317 21.99373 -0.00114
C 18.49988 6.28008 -0.02162
C 17.37508 4.18659 -0.00481
C 17.21411 2.9173 0.00979
C 18.47551 2.15421 0.01443
C 18.45591 0.77242 0.03505
C 17.25233 0.06827 -0.02815
C 19.68168 32.64997 -0.04147
C 20.86163 31.89582 -0.05302
C 20.85073 30.45163 0.00213
C 18.48677 4.98772 0.00889
C 19.66675 29.70043 -0.00066
C 18.41942 23.37327 -0.02696
C 17.17558 25.55557 -0.0108
C 15.91861 22.03924 0.0076
C 14.69561 21.38804 0.01241
C 14.75268 19.98509 -0.01454
C 15.9748 19.22162 0.01945
C 16.04116 17.75415 0.01416
C 14.76523 17.03937 0.03542
C 14.88875 15.71671 0.02299
C 15.99359 15.04252 0.00244
C 17.14085 24.07501 -0.00368
C 16.00598 2.11147 -0.01717
C 14.7417 0.07457 -0.01952
C 17.30598 32.72707 -0.02813
C 18.45626 32.01863 0.00374
C 18.44474 30.51272 0.00052
C 17.20517 29.78814 -0.03682
C 17.18842 28.40783 0.01965
C 18.48784 27.6901 0.02058
C 18.4154 26.20439 -0.01957
C 15.91732 0.85012 0.05265
C 15.97617 23.45787 0.02162
C 19.69262 28.28293 -0.00289
C 20.90979 26.22587 -0.02213
C 20.90491 2.17407 0.00364
C 20.88879 0.78085 -0.00831
C 19.75768 34.04701 -0.02957
C 22.07589 32.60999 -0.04422
C 23.25971 31.93152 0.00654
C 23.30799 30.52188 -0.00703
C 22.04828 29.77122 -0.04076
C 22.12788 28.40701 -0.00652
C 19.71634 2.88765 -0.017
C 23.38247 27.6482 0.0058
C 22.18654 25.55285 0.00675
C 22.15001 24.07871 -0.00311
C 23.37846 23.41816 0.00742
C 23.36219 22.00623 -0.01594
C 22.12895 21.32284 0.0106
C 22.09524 19.89712 -0.01154
C 23.35081 19.14067 -0.01721
C 23.34336 17.75794 -0.02422
C 23.36306 26.302 -0.00865
C 20.93351 27.64418 0.00028
C 19.78251 4.25887 0.00143
C 20.89351 6.4337 -0.0054
C 19.69771 25.6063 0.03698
C 19.62958 24.20766 -0.00109
C 20.89466 23.5255 -0.00491
C 20.94219 22.06167 0.03338
C 19.6917 21.28019 -0.0258
C 19.69006 19.8513 -0.0331
C 20.92 19.16511 -0.00316
C 20.88154 17.76969 0.02188
C 20.91733 4.98073 0.00667
C 19.66754 17.04361 -0.01979
C 20.81274 14.87386 -0.01581
C 20.8818 13.42804 0.01452
C 19.4787 12.73048 0.04892
C 19.78765 11.40116 -0.00111
C 20.90342 10.60654 -0.03557
C 20.83329 9.17204 0.03754
C 19.61549 8.55505 0.01739
C 19.53349 7.16587 0.00755
C 19.63078 15.54597 0.02691
C 22.0797 17.07493 0.01277
C 14.69885 24.16216 -0.0014
C 15.97497 26.30116 -0.02162
C 4.90566 32.64562 0.01572
C 6.11972 31.93271 -0.04848
C 6.07122 30.50854 -0.00892
C 4.91441 29.77254 -0.01362
C 4.96183 28.29191 -0.0008
C 6.19476 27.76132 0.0288
C 4.94687 15.544 0.00393
C 6.05084 15.06263 0.00895
C 2.45457 0.05147 -0.00095
C 4.83697 12.83963 0.00685
C 6.12984 2.19538 -0.00482
C 6.12296 0.81166 -0.01384
C 4.91329 34.04111 0.03693
C 7.28176 32.67881 0.01745
C 8.56385 32.01989 0.00488
C 8.61053 30.57727 -0.01004
C 7.37962 29.78383 -0.02896
C 7.44706 28.3957 -0.00131
C 4.9711 2.81159 0.02888
C 8.67484 27.68161 -0.01118
C 3.67548 0.76278 0.03007
C 2.45069 2.83549 -0.00494
C 3.61439 30.4471 0.01305
C 2.38356 29.78714 -0.00077
C 2.43331 28.34372 0.03368
C 3.70461 27.62495 -0.02929
C 3.74285 26.21897 -0.00966
C 2.50466 25.67598 -0.03337
C 2.3691 16.96721 0.01227
C 2.35902 15.64495 0.00873
C 3.6656 2.22308 0.00054
C 3.7542 15.05952 -0.00049
C 2.41607 12.83667 -0.01303
C 2.57194 11.45375 -0.01378
C 3.69538 10.70776 0.02635
C 3.55682 9.34953 0.0127
C 2.63122 8.33674 0.01396
C 2.5183 6.97247 0.01849
C 3.62879 4.85136 -0.01142
C 2.49046 4.35539 -0.00562
C 3.73253 13.5438 0.00848
C 14.79651 25.52173 0.00415
C 8.76844 26.26066 -0.014
C 8.65622 2.09464 0.00373
C 13.54299 26.27675 -0.01275
C 12.27376 25.56826 0.00985
C 12.29084 24.15916 -0.02245
C 13.52536 23.43571 -0.00428
C 13.36257 22.06159 0.03101
C 12.23167 21.36391 -0.01536
C 12.26318 19.91403 -0.02689
C 13.54163 19.18422 -0.01046
C 13.47448 27.64885 -0.01111
C 13.4351 17.69755 -0.00891
C 13.54358 0.74701 0.00165
C 12.27282 0.23775 -0.02971
C 14.77978 32.68852 0.02894
C 16.04323 31.97902 -0.01789
C 15.97995 30.47823 0.00444
C 14.71756 29.84554 -0.00925
C 14.71619 28.33379 0.01877
C 16.01336 27.67592 0.01363
C 12.2778 17.02461 0.02819
C 7.28054 15.46025 0.02147
C 12.31795 28.4167 0.02841
C 13.50691 30.55114 0.00406
C 8.58139 0.80206 -0.00191
C 7.33341 0.0048 0.00438
C 9.79948 32.67482 0.01291
C 10.96795 31.99428 0.00093
C 11.00365 30.60898 0.00057
C 9.81591 29.86069 -0.01634
C 9.8372 28.40755 -0.00334
C 11.10396 27.68247 0.02339
C 12.27203 29.88711 0.00943
C 11.07194 26.26387 0.01641
C 11.09283 23.6142 0.01364
C 11.00642 19.15916 -0.01062
C 11.08087 17.76198 -0.00033
C 9.81658 17.49365 0.03589
C 11.00228 0.77443 -0.02759
C 9.85233 0.03462 0.0402
C 12.3073 32.77558 0.00572
C 13.54438 31.99682 0.03592
C 9.87444 25.65449 -0.00719
C 3.67601 31.91144 0.0276
C 22.08063 15.63921 0.00096
C 23.34359 13.49242 0.01087
C 33.24326 31.93454 -0.01694
C 33.12938 30.53752 0.01428
C 31.91195 29.78104 -0.02142
C 31.92378 28.43143 0.0544
C 33.13867 27.72562 0.00026
C 33.17833 26.30426 0.00682
C 31.97426 25.61785 -0.01779
C 31.91892 24.18106 0.03794
C 32.00004 32.61172 0.01713
C 33.23527 23.55702 0.01927
C 31.95616 21.35586 -0.02383
C 31.91899 19.91651 -0.01429
C 33.17854 19.19826 -0.0136
C 33.09719 17.78591 0.00594
C 31.85887 16.99233 -0.02474
C 31.92868 15.62907 0.00369
C 33.14268 14.84734 0.00455
C 33.17465 13.44577 -0.00644
C 33.13891 22.09241 0.01574
C 31.96945 12.71344 -0.01839
C 29.60109 34.07245 0.00346
C 30.86301 2.06703 0.00716
C 29.54065 21.35111 -0.03039
C 29.52921 19.91892 0.01836
C 30.73813 19.19826 0.03531
C 30.66564 17.75281 -0.00669
C 29.50988 17.05602 0.0101
C 29.52507 15.58999 0.01705
C 30.65422 14.84688 -0.0405
C 30.74059 13.45868 -0.01303
C 30.76539 0.70429 0.00307
C 29.50098 12.78888 -0.01461
C 30.7346 10.6576 -0.00944
C 30.70708 9.21855 -0.03735
C 29.55816 8.46885 -0.00971
C 29.49752 7.09026 0.01518
C 30.78855 6.43774 0.01908
C 30.71622 5.00915 0.07705
C 29.60184 4.23048 0.0103
C 29.59826 2.769 0.02108
C 29.49678 11.39301 -0.02155
C 30.74667 22.05608 -0.01415
C 32.01504 11.34712 0.00137
C 33.2484 9.24852 0.04381
C 1.19313 19.11729 -0.01678
C 1.22077 17.74862 0.01223
C 34.26793 17.07011 0.00648
C 34.39 15.69018 0.02114
C 1.20153 14.96609 -0.02957
C 1.13943 13.56067 0.00343
C 34.40316 12.79556 -0.02656
C 0.13177 11.31473 -0.02442
C 0.06644 19.85575 0.01951
C 1.36312 10.5889 -0.00027
C 34.43086 8.52584 -0.02302
C 0.04831 7.03387 -0.02849
C 1.21295 6.3405 0.02931
C 1.179 4.95396 0.00628
C 34.37702 4.26938 -0.0345
C 34.40764 2.84591 -0.00931
C 1.2004 2.17652 -0.00939
C 1.19901 0.73035 -0.00468
C 1.28037 9.1634 -0.00583
C 33.28129 10.61796 0.00199
C 0.00462 21.32232 -0.02213
C 1.1409 23.4112 0.00723
C 31.97393 8.58251 0.02806
C 32.03103 7.09527 0.01504
C 33.24339 6.35153 -0.00069
C 33.20757 4.98512 0.04926
C 31.95742 4.29093 -0.03838
C 31.99665 2.86977 0.00349
C 33.17918 2.10663 -0.00323
C 33.21967 0.74076 -0.00841
C 1.05682 22.15425 0.02712
C 31.99382 33.96976 0.0001
C 1.21684 31.89855 -0.01404
C 1.16503 30.49991 0.01027
C 34.32164 29.77722 0.01831
C 34.39909 28.37781 -0.01037
C 1.21628 27.6318 -0.00439
C 1.26317 26.22549 -0.00598
C 34.3882 25.59429 -0.05239
C 0.05892 24.23563 0.03076
C 0.08138 32.68497 -0.02927
C 23.30239 14.9762 -0.01527
C 30.71688 23.54884 -0.01854
C 29.50781 25.63133 0.03265
C 25.83828 23.35875 -0.01971
C 25.93281 21.98741 -0.02118
C 24.64923 21.32397 0.00733
C 24.52015 19.88532 -0.00178
C 25.73049 19.20652 0.00768
C 25.81953 17.75517 -0.0276
C 24.58258 17.05447 0.03005
C 24.58641 15.67944 -0.04078
C 24.58961 24.04439 -0.01586
C 25.80203 14.98065 0.02117
C 24.54494 12.77797 -0.00498
C 24.56295 11.36163 0.00135
C 25.83801 10.65807 0.03102
C 25.87942 9.20842 0.02555
C 24.62495 8.44666 0.01423
C 24.58839 7.08578 -0.00285
C 25.82588 6.3649 -0.009
C 25.81728 4.9454 -0.01199
C 25.8191 13.51317 0.02737
C 24.54747 4.13222 -0.00229
C 24.60976 25.53993 -0.01107
C 25.83463 27.63803 -0.00225
C 22.09733 12.74394 0.00199
C 22.12616 11.37188 0.01511
C 23.34827 10.61517 -0.00478
C 23.35053 9.24876 -0.01662
C 22.1329 8.51091 -0.01185
C 22.08597 7.0906 0.01126
C 23.39343 6.31956 0.01852
C 23.3684 4.91798 -0.00381
C 25.79726 26.1892 0.00071
C 22.17054 4.2325 0.03046
C 23.34215 2.08846 0.03374
C 23.36568 0.72432 -0.02845
C 22.1449 0.02002 -0.03213
C 24.51106 32.57444 0.02239
C 25.7015 31.90993 0.01153
C 25.7677 30.54847 0.02734
C 24.5886 29.7702 -0.0055
C 24.55104 28.3761 0.01515
C 22.12452 2.82502 0.0296
C 29.49551 24.24239 -0.02049
C 24.63895 2.79157 -0.00938
C 25.82642 0.70843 -0.01154
C 28.33059 10.59903 0.00194
C 28.30859 9.17478 -0.00621
C 27.06668 8.47285 0.02611
C 27.0642 7.01172 0.02198
C 28.30927 6.27635 0.01094
C 28.29013 4.87502 0.00235
C 27.05456 4.2478 0.01495
C 27.12133 2.78645 0.01259
C 27.05904 11.36574 0.04185
C 28.31346 2.10088 0.01799
C 27.0864 0.0278 -0.00416
C 29.55078 32.66544 0.01177
C 30.72985 31.91274 0.04266
C 30.6889 30.5439 0.01324
C 29.45707 29.81934 0.0014
C 29.49299 28.4256 0.00924
C 30.69446 27.69105 0.02326
C 30.67627 26.3038 0.00261
C 28.31407 0.6604 0.01699
C 25.83398 2.08235 -0.0264
C 27.06452 12.77104 0.02316
C 28.23405 15.01952 0.00152
C 24.62397 34.04501 0.00684
C 26.93288 32.66835 -0.01052
C 28.25397 31.94718 -0.01679
C 28.28932 30.55862 0.00367
C 27.01621 29.81273 0.04306
C 27.02497 28.39465 0.00996
C 28.2314 27.73064 0.00195
C 28.18282 26.28389 -0.00802
C 28.28931 13.47219 0.01257
C 27.0187 25.54661 -0.00218
C 28.22859 23.40605 -0.00037
C 28.32206 22.00108 -0.0032
C 27.14616 21.26988 0.00622
C 27.09509 19.89651 -0.02815
C 28.29119 19.22627 -0.00942
C 28.38815 17.87642 0.00487
C 27.00687 17.09706 0.00826
C 27.09358 15.67376 -0.00294
C 27.02991 24.12529 -0.01654
C 2.48702 32.66661 0.00988
