388
Graphene
C 34.37369 34.01285 0.01295
C 9.69795 4.39175 -0.02162
C 9.66886 2.96245 0.00415
C 10.95235 2.2063 -0.0014
C 11.02971 0.82852 0.02162
C 9.80583 0.08055 0.0076
C 12.1966 32.69368 0.01241
C 13.49525 31.97147 -0.01454
C 13.51024 30.55783 0.01945
C 12.28272 29.80881 0.01416
C 10.97957 5.09044 0.01363
C 12.29278 28.39751 0.03542
C 13.54827 26.20179 0.00244
C 12.35214 25.49993 -0.01717
C 12.29135 24.0713 0.05265
C 13.51273 23.31387 -0.01952
C 13.46061 21.97765 -0.02813
C 12.20251 21.38138 0.00374
C 12.25367 19.7988 0.00052
C 13.52495 19.1555 -0.03682
C 13.54027 17.73824 0.01965
C 13.49752 27.60861 0.02299
C 12.37612 17.0222 0.02058
C 11.02542 6.43427 0.01877
C 9.82223 8.55766 0.00444
C 9.82198 29.85626 0.00572
C 9.78224 28.45723 0.03592
C 11.10994 27.70912 0.00406
C 11.18883 26.19782 0.00943
C 9.91595 25.54089 0.02841
C 9.86557 24.02108 -0.01111
C 11.05651 23.44873 -0.01275
C 11.02147 21.99589 0.00985
C 9.84939 21.31093 -0.02245
C 9.79627 7.12962 -0.00925
C 9.80764 19.94417 -0.00428
C 11.12177 17.73866 -0.01536
C 9.80144 17.01036 -0.02689
C 9.80242 15.63247 -0.01046
C 11.14507 14.92412 -0.00891
C 11.0858 13.49802 0.02819
C 9.78066 12.8163 0.00165
C 9.83132 11.44216 -0.02971
C 10.98726 10.67646 0.02894
C 10.9789 9.26939 -0.01789
C 11.0281 19.09644 0.03101
C 12.31329 15.64004 -0.01957
C 13.60026 14.86225 -0.0108
C 13.60662 13.47798 -0.00368
C 14.68207 19.90764 -0.00109
C 15.95222 19.28153 -0.00491
C 16.18546 17.89609 0.03338
C 14.78551 17.13365 -0.0258
C 14.76234 15.63762 -0.0331
C 16.01538 14.99547 -0.00316
C 16.03743 13.47773 0.02188
C 14.82221 12.76296 -0.01979
C 14.77385 11.40773 0.02691
C 14.76773 21.35307 0.03698
C 16.03852 10.67265 -0.01581
C 14.76118 8.61051 0.04892
C 14.82068 7.19118 -0.00111
C 16.01318 6.40196 -0.03557
C 15.92376 4.97626 0.03754
C 14.60202 4.35096 0.01739
C 14.72916 2.84043 0.00755
C 15.89474 2.08024 -0.0054
C 15.88549 0.68443 0.00667
C 14.69543 34.05079 0.00143
C 16.01093 9.26118 0.01452
C 16.09626 21.77167 -0.02213
C 16.17854 23.15079 0.00028
C 14.80472 23.95997 -0.00289
C 12.33132 12.7934 -0.02696
C 12.29557 11.38242 -0.00114
C 13.53597 10.69782 0.00228
C 13.54307 9.29649 0.00798
C 12.28819 8.66737 0.00422
C 12.30701 7.23809 0.0351
C 13.49873 6.51901 -0.03113
C 13.40153 5.11934 0.02098
C 12.24029 4.29793 0.01848
C 12.23281 2.90001 -0.00619
C 13.46674 2.18525 -0.02162
C 13.49525 0.74973 0.00889
C 12.23974 0.06599 -0.00481
C 14.72164 32.65275 0.00979
C 15.93156 31.86713 0.01443
C 15.95581 30.49013 0.03505
C 14.71046 29.76787 -0.02815
C 14.71926 28.32966 -0.04147
C 15.96792 27.58533 -0.05302
C 16.04451 26.08934 0.00213
C 14.7731 25.43216 -0.00066
C 11.09754 30.58415 0.0402
C 17.16604 32.504 -0.017
C 10.9408 31.98295 -0.02759
C 7.30855 0.10174 -0.00033
C 3.56166 5.01245 0.0086
C 2.31664 4.35361 -0.00643
C 2.31874 2.97496 0.017
C 3.62414 2.26411 -0.03113
C 3.63253 0.86665 -0.02566
C 2.47842 0.10853 -0.00094
C 4.864 32.82244 0.02322
C 6.17846 31.98654 -0.00725
C 6.13985 30.62073 -0.05697
C 3.57433 6.48267 -0.00518
C 4.89717 29.88748 0.01087
C 6.15801 27.78289 0.00988
C 6.16485 26.34097 0.0276
C 4.97938 25.61504 0.01305
C 4.94356 24.22776 -0.00077
C 6.26816 23.54506 0.03368
C 6.19265 22.02121 -0.02929
C 4.95733 21.29351 -0.00966
C 4.94546 19.84112 -0.03337
C 6.20607 19.1568 0.01227
C 4.97105 28.47665 -0.01343
C 6.12729 17.83946 0.00873
C 2.31215 7.1486 -0.00074
C 3.56627 9.2963 -0.03996
C 3.67245 30.62112 0.04505
C 2.409 29.90248 0.03284
C 2.42153 28.43413 -0.04307
C 3.71478 27.80904 0.03189
C 3.76534 26.36321 0.00031
C 2.47938 25.62735 -0.003
C 2.48225 24.17506 0.01402
C 3.76487 23.51676 0.02379
C 3.818 22.10468 0.00907
C 2.32961 8.58738 0.01465
C 2.54676 21.36684 0.00643
C 3.77236 19.16044 0.03267
C 3.73229 17.77637 0.02374
C 2.51757 17.09599 0.00402
C 2.45993 15.64789 0.0073
C 3.62847 15.01141 0.0174
C 3.60489 13.55663 0.03828
C 2.33933 12.80913 0.01226
C 2.23242 11.47179 -0.00279
C 3.55183 10.75222 0.01996
C 2.4457 19.96292 -0.01509
C 4.92754 17.04781 -0.00049
C 4.8378 15.64273 0.00848
C 6.01002 14.95501 -0.01303
C 7.31826 21.33015 0.00488
C 7.32918 19.92282 -0.01004
C 8.55916 19.29628 -0.02896
C 8.60157 17.79804 -0.00131
C 7.31783 17.08928 -0.01118
C 7.33213 15.69991 -0.014
C 8.55043 14.89273 0.02147
C 8.5424 13.42633 0.00373
C 7.36155 12.67905 -0.00191
C 8.59192 21.99438 0.01745
C 7.33888 11.26739 0.00438
C 8.5712 9.30072 0.00093
C 7.2972 8.63831 0.00057
C 7.30849 7.2961 -0.01634
C 8.536 6.5598 -0.00334
C 8.43717 5.14145 0.02339
C 7.29472 4.40339 0.01641
C 7.31343 2.9629 -0.00719
C 8.49211 2.24595 0.01364
C 8.51239 0.84316 -0.01062
C 8.55951 10.68326 0.01291
C 8.6222 23.36318 0.03693
C 7.44308 24.12867 -0.01384
C 7.3553 25.62202 -0.00482
C 6.05079 13.45594 -0.01378
C 4.88131 12.77219 0.02635
C 4.77359 11.4345 0.0127
C 5.97842 10.64573 0.01396
C 6.03263 9.33071 0.01849
C 4.85714 8.55268 -0.01142
C 4.81418 7.1337 -0.00562
C 6.08307 6.50916 -0.00494
C 6.05984 5.07981 0.00054
C 4.77804 4.3253 0.03007
C 4.84097 2.92935 -0.00095
C 6.04175 2.25016 0.01572
C 6.05984 0.8095 -0.04848
C 4.86447 0.12098 -0.00892
C 7.31809 32.77365 -0.01362
C 8.50226 32.05272 -0.0008
C 8.57026 30.56614 0.0288
C 7.35348 29.88086 0.00393
C 7.32992 28.47406 0.00895
C 8.55759 27.72237 0.00685
C 8.59955 26.26351 0.02888
C 9.77921 32.74934 0.03589
C 18.3764 31.87099 0.00364
C 18.42613 30.41125 -0.00831
C 17.24714 29.76295 -0.02957
C 29.48957 8.51905 0.07705
C 29.35171 7.10071 0.0103
C 30.62733 6.34357 0.02108
C 30.63447 4.90013 0.00716
C 29.41578 4.17175 0.00307
C 29.39991 2.77381 0.00346
C 30.5987 2.09994 0.01713
C 30.6487 0.71191 -0.01694
C 29.44839 34.07106 0.01428
C 30.73566 9.28405 0.01908
C 31.87147 32.60097 -0.02142
C 33.15918 30.53662 0.00026
C 31.94228 29.87544 0.00682
C 32.02904 28.37766 -0.01779
C 33.19983 27.66042 0.03794
C 33.12502 26.18892 0.01927
C 31.8399 25.48819 0.01574
C 31.86294 24.09254 -0.02383
C 33.06588 23.34053 -0.01429
C 33.19955 21.93799 -0.0136
C 33.17431 31.92532 0.0544
C 33.27792 19.12878 0.00594
C 30.60407 10.73075 0.01518
C 29.2888 12.81156 -0.03735
C 28.25984 9.19776 0.01324
C 27.01212 8.49877 0.0014
C 26.93432 7.10556 0.00924
C 28.15573 6.40586 0.02326
C 28.19879 4.91537 0.00261
C 26.96286 4.2449 0.03265
C 26.99874 2.78604 -0.02049
C 28.21367 2.04655 -0.01854
C 28.17882 0.64527 -0.01415
C 29.37908 11.36638 -0.00971
C 26.98266 34.00184 -0.03039
C 30.64728 31.91848 0.03531
C 30.73682 30.54628 -0.00669
C 29.43526 29.80944 0.0101
C 29.46682 28.36765 0.01705
C 30.81227 27.73648 -0.0405
C 30.61686 26.24154 -0.01303
C 29.27402 25.60494 -0.01461
C 30.73918 15.00811 -0.02155
C 30.31919 13.62275 -0.00944
C 29.47692 32.63005 0.01836
C 33.29269 17.95311 -0.02474
C 31.77318 15.676 0.00369
C 33.02232 15.07169 0.00455
C 0.03096 21.36129 -0.02213
C 34.41087 19.96634 0.01951
C 1.26322 19.17839 -0.01678
C 1.25265 17.80387 0.01223
C 0.01476 17.08746 0.00648
C 34.37778 15.69308 0.02114
C 1.18532 14.96225 -0.02957
C 1.12271 13.58523 0.00343
C 34.16113 12.8947 -0.02656
C 1.27585 22.10209 0.02712
C 34.15932 11.52345 -0.02442
C 1.16102 9.43503 -0.00583
C 34.37351 8.68766 -0.02302
C 34.33922 7.24266 -0.02849
C 1.08652 6.45235 0.02931
C 1.07577 5.02342 0.00628
C 34.29086 4.26477 -0.0345
C 34.28317 2.83677 -0.00931
C 1.11356 2.17223 -0.00939
C 1.26627 0.73871 -0.00468
C 1.05887 10.84641 -0.00027
C 1.28589 23.50707 0.00723
C 34.37678 24.04866 0.03076
C 34.35596 25.55097 -0.05239
C 32.90171 13.60146 -0.00644
C 31.69742 12.87854 -0.01839
C 31.75031 11.47599 0.00137
C 32.94207 10.78006 0.00199
C 33.08317 9.37028 0.04381
C 31.95364 8.54536 0.02806
C 31.83073 7.03325 0.01504
C 33.12563 6.47277 -0.00069
C 33.04767 5.00818 0.04926
C 31.85648 4.22399 -0.03838
C 31.90102 2.81978 0.00349
C 33.08458 2.07654 -0.00323
C 33.11797 0.63343 -0.00841
C 31.8579 0.00888 0.0001
C 34.36791 32.64765 -0.02927
C 1.21136 31.99667 -0.01404
C 1.18562 30.55823 0.01027
C 34.35579 29.85449 0.01831
C 34.35635 28.49355 -0.01037
C 1.18555 27.66637 -0.00439
C 1.14874 26.22004 -0.00598
C 28.24715 10.61789 0.04266
C 27.15753 11.42306 0.01177
C 27.6397 12.9407 -0.00416
C 28.24287 26.24766 0.01699
C 19.57452 29.6775 0.01852
C 19.69574 28.24846 -0.00381
C 20.86977 27.55608 0.03046
C 21.00087 26.08415 0.0296
C 19.802 25.3729 0.03374
C 19.81267 15.58064 -0.02845
C 20.83133 14.97146 -0.03213
C 20.99705 13.498 0.02239
C 19.80805 12.78997 0.01153
C 20.88044 30.44209 0.01126
C 19.68647 11.39903 0.02734
C 20.86702 9.24949 0.01515
C 19.62238 8.50011 -0.00225
C 19.59379 7.11396 0.00071
C 20.87614 6.35503 -0.01107
C 20.84575 4.92459 -0.01586
C 19.5614 4.2809 -0.01971
C 19.54853 2.79616 -0.02118
C 20.7925 2.14947 0.00733
C 20.72729 0.68174 -0.00178
C 20.94629 10.6642 -0.0055
C 20.77294 31.83739 -0.01185
C 19.52076 32.54085 -0.01662
C 17.15397 33.99999 -0.00478
C 17.24832 28.28513 -0.04422
C 18.42437 27.53732 0.00654
C 18.41731 26.05792 -0.00703
C 17.2725 25.41019 -0.04076
C 17.27534 23.99094 -0.00652
C 17.29851 17.12907 0.0058
C 17.24657 15.73128 -0.00865
C 18.37113 14.94216 0.00675
C 18.47954 13.45655 -0.00311
C 17.28584 12.78104 0.00742
C 17.21285 11.33556 -0.01594
C 18.46481 10.72559 0.0106
C 18.45512 9.27934 -0.01154
C 17.21943 8.50541 -0.01721
C 17.23453 7.17967 -0.02422
C 18.42257 6.41193 0.01277
C 18.3262 4.91104 0.00096
C 17.11137 4.25879 -0.01527
C 17.0787 2.8314 0.01087
C 18.30157 2.11354 0.00199
C 18.35713 0.63303 0.01511
C 19.55231 33.91792 0.00768
C 3.64542 32.0618 -0.04999
C 21.94381 32.58905 -0.0276
C 23.29086 30.46307 -0.04078
C 25.52639 26.1801 -0.0032
C 24.52367 12.7375 0.00622
C 24.70841 11.35499 -0.02815
C 25.96514 10.7769 -0.00942
C 25.87938 9.21502 0.00487
C 24.59769 8.54316 0.00826
C 24.55664 7.02987 -0.00294
C 25.74127 6.33607 0.00152
C 25.82198 4.97783 0.01257
C 25.76035 27.61311 -0.00037
C 24.57731 4.14596 0.02316
C 25.77783 2.04397 0.00194
C 25.75604 0.62793 -0.00621
C 24.52367 34.01172 0.02611
C 26.99151 32.63863 0.02198
C 28.29165 31.96944 0.01094
C 28.25717 30.49051 0.00235
C 27.00447 29.78248 0.01495
C 27.05663 28.38362 0.01259
C 28.22561 27.6324 0.01799
C 24.49938 2.70487 0.04185
C 24.58315 28.31418 -0.01654
C 24.59297 29.79951 -0.00218
C 25.79498 30.54161 -0.00802
C 22.05618 29.70567 0.02117
C 22.16 28.2176 0.02737
C 23.4327 27.61447 -0.00498
C 23.6867 26.19061 0.00135
C 22.30111 25.56253 0.03102
C 23.59646 13.49557 0.02555
C 22.32599 12.82495 0.01423
C 22.24019 11.28086 -0.00285
C 23.4625 10.63266 -0.009
C 23.43391 9.23969 -0.01199
C 22.02226 8.53109 -0.00229
C 22.03376 7.06218 -0.00938
C 23.28853 6.35695 -0.0264
C 23.41082 4.87448 -0.01154
C 22.01383 4.15209 0.00684
C 22.01362 2.70849 -0.01052
C 23.26853 2.07319 -0.01679
C 23.20315 0.67557 0.00367
C 21.97984 34.05427 0.04306
C 24.49961 32.61406 0.00996
C 25.75847 31.95534 0.00195
C 23.2254 31.9483 0.03005
C 2.42778 32.7254 -0.03291
