424
Graphene
C 0.01799 33.99552 0.01295
C 13.51651 6.48949 0.00572
C 13.48734 5.00876 0.03592
C 12.29211 4.28077 0.00406
C 12.25566 2.91712 0.00943
C 13.49097 2.16771 0.02841
C 13.47714 0.70778 -0.01111
C 12.34077 0.01085 -0.01275
C 14.8017 32.59161 0.00985
C 16.00646 31.92394 -0.02245
C 15.95026 30.40929 -0.00428
C 12.32625 7.24665 0.0402
C 14.70062 29.7611 0.03101
C 15.95909 27.65013 -0.02689
C 16.03104 26.28085 -0.01046
C 14.85867 25.52826 -0.00891
C 14.80272 24.20278 0.02819
C 15.97871 23.42763 0.00165
C 15.96223 21.97048 -0.02971
C 14.62459 21.29726 0.02894
C 14.76237 19.86616 -0.01789
C 16.00494 19.14483 0.00444
C 15.92452 17.85417 -0.00925
C 14.76859 28.28957 -0.01536
C 12.3453 8.81907 -0.02759
C 13.55447 9.3302 0.03589
C 13.51935 19.13248 -0.00033
C 10.94813 9.3318 -0.01384
C 9.79427 8.58431 0.03693
C 9.92647 7.18521 0.01745
C 11.15709 6.5281 0.00488
C 11.08534 5.05327 -0.01004
C 9.84763 4.33469 -0.02896
C 9.77091 2.96134 -0.00131
C 11.03775 2.17041 -0.01118
C 11.01102 0.78069 -0.014
C 9.7676 0.04482 0.02147
C 12.36016 32.57547 0.00373
C 13.5096 31.86934 -0.00191
C 13.55276 30.49577 0.00438
C 12.26744 29.75718 0.01291
C 12.22738 28.40957 0.00093
C 13.55051 27.69241 0.00057
C 13.52896 26.30298 -0.01634
C 12.2299 25.60544 -0.00334
C 12.30037 24.15348 0.02339
C 13.53698 23.51615 0.01641
C 13.53777 21.98488 -0.00719
C 12.31855 21.26625 0.01364
C 12.29374 19.67922 -0.01062
C 16.01841 10.47613 0.01877
C 10.95484 19.37456 -0.00482
C 15.98413 9.14904 0.01363
C 14.81296 7.14081 0.00415
C 16.98126 11.38731 0.0351
C 18.29091 10.69255 -0.03113
C 18.39094 9.21365 0.02098
C 17.26706 8.50856 0.01848
C 17.27319 7.07102 -0.00619
C 18.43913 6.30884 -0.02162
C 18.33231 4.926 0.00889
C 17.15847 4.22856 -0.00481
C 17.16036 2.82544 0.00979
C 18.36174 2.15495 0.01443
C 17.33452 12.73567 0.00422
C 18.4121 0.64226 0.03505
C 19.59873 32.64853 -0.04147
C 20.87036 32.0172 -0.05302
C 20.88074 30.54535 0.00213
C 19.62889 29.78185 -0.00066
C 19.67493 28.37966 -0.00289
C 20.83578 27.67604 0.00028
C 20.9796 26.25546 -0.02213
C 19.7846 25.55861 0.03698
C 19.708 24.13861 -0.00109
C 20.91469 23.47151 -0.00491
C 17.17628 34.03547 -0.02815
C 18.48095 13.49327 0.00798
C 18.50955 14.89538 0.00228
C 17.30952 15.58006 -0.00114
C 15.98345 6.38734 -0.0014
C 15.91836 5.01327 0.02162
C 14.69878 4.34697 0.0076
C 14.75462 2.93089 0.01241
C 15.92033 2.17405 -0.01454
C 15.96722 0.6993 0.01945
C 14.71291 34.03622 0.01416
C 17.11089 32.61792 0.03542
C 18.37171 31.87298 0.02299
C 18.36644 30.49147 0.00244
C 17.20227 29.72225 -0.01717
C 17.20449 28.34027 0.05265
C 18.49745 27.6883 -0.01952
C 18.52873 26.28512 -0.02813
C 17.27324 25.53891 0.00374
C 17.24838 24.04923 0.00052
C 18.45732 23.47241 -0.03682
C 18.43417 22.00859 0.01965
C 17.21322 21.27262 0.02058
C 17.19899 19.85533 -0.01957
C 18.38625 19.18208 -0.0108
C 18.3566 17.66671 -0.00368
C 17.05013 16.92224 -0.02696
C 14.7476 8.52958 -0.02162
C 20.90891 22.04271 0.03338
C 9.79823 19.97856 0.02888
C 11.08777 22.05875 0.00895
C 3.55705 2.1861 -0.01979
C 3.63107 0.79867 0.02784
C 2.45656 0.01401 -0.01977
C 4.90049 32.70163 -0.00561
C 6.07594 32.00178 0.00208
C 6.10499 30.58292 0.01707
C 4.94208 29.8129 0.02769
C 4.9579 28.3249 -0.03291
C 6.16955 27.78105 -0.04999
C 6.17773 26.30513 0.04505
C 2.33024 2.91073 -0.00449
C 4.90767 25.64496 0.03284
C 6.1126 23.44427 0.03189
C 6.19763 22.01424 0.00031
C 4.89209 21.2591 -0.003
C 4.94527 19.9006 0.01402
C 6.17266 19.18888 0.02379
C 6.25024 17.7074 0.00907
C 4.96696 16.95082 0.00643
C 4.92718 15.53425 -0.01509
C 6.09163 14.86945 0.03267
C 6.14036 13.48975 0.02374
C 4.97423 24.15253 -0.04307
C 2.40945 4.28183 0.00211
C 3.60755 5.00929 0.0064
C 3.64001 6.40415 -0.00039
C 3.71152 30.59604 -0.02827
C 2.49253 29.80048 0.01078
C 2.49773 28.3646 -0.00112
C 3.70056 27.65071 0.03345
C 3.71255 26.27637 0.00748
C 2.50761 25.50924 0.00662
C 2.46711 24.07722 -0.0154
C 3.7193 23.46797 -0.01299
C 3.66051 22.09469 -0.00407
C 2.43634 21.35324 0.01138
C 2.42826 19.91536 0.03278
C 3.73995 19.23081 -0.00177
C 3.76223 17.78694 0.04421
C 2.49102 17.10542 0.00088
C 2.4851 15.59859 0.00828
C 3.67404 14.89675 -0.02375
C 3.5638 13.39063 0.00558
C 2.35383 12.69984 -0.0059
C 2.43685 11.35756 -0.01386
C 3.64729 10.69987 -0.02805
C 3.60447 9.25627 0.00081
C 2.36539 8.52145 0.00245
C 2.37825 7.17139 0.02728
C 4.80828 12.72624 0.00402
C 9.83465 21.39385 0.00685
C 4.88971 11.35624 0.0073
C 6.09758 9.33514 0.03828
C 7.53924 11.45652 0.00873
C 8.69169 10.65729 -0.00049
C 8.58791 9.29618 0.00848
C 7.36611 8.55844 -0.01303
C 7.30434 7.20128 -0.01378
C 8.64568 6.50238 0.02635
C 8.61549 5.11941 0.0127
C 7.28511 4.407 0.01396
C 7.28675 2.93611 0.01849
C 8.50721 2.23997 -0.01142
C 7.31941 12.82541 0.01227
C 8.58303 0.8464 -0.00562
C 9.84789 32.64766 0.00054
C 11.10081 31.98464 0.03007
C 11.08014 30.58721 -0.00095
C 9.84292 29.89874 0.01572
C 9.86661 28.45872 -0.04848
C 10.99671 27.71619 -0.00892
C 11.08789 26.30081 -0.01362
C 9.85171 25.54241 -0.0008
C 9.81433 24.15846 0.0288
C 11.06133 23.45834 0.00393
C 7.33036 0.07678 -0.00494
C 7.24529 15.70847 -0.03337
C 7.54984 16.9879 -0.00966
C 8.77984 17.84125 -0.02929
C 4.86176 8.55881 0.01226
C 4.96026 7.17913 -0.00279
C 6.13502 6.45294 0.01996
C 6.05325 5.0326 -0.03996
C 4.88303 4.31255 0.01465
C 4.83776 2.91865 -0.00074
C 6.06012 2.28358 -0.00518
C 6.02849 0.78059 0.0086
C 4.87527 0.07763 -0.00643
C 7.3407 32.73 0.017
C 8.58915 32.02037 -0.03113
C 8.56743 30.58819 -0.02566
C 7.34607 29.86519 -0.00094
C 7.36179 28.46384 0.02322
C 8.63637 27.73521 -0.00725
C 8.61115 26.32808 -0.05697
C 7.39132 25.56563 0.01087
C 7.35251 24.15332 -0.01343
C 8.59238 23.4211 0.00988
C 8.55869 22.0653 0.0276
C 7.39101 21.30342 0.01305
C 7.38653 19.85058 -0.00077
C 8.71101 19.14792 0.03368
C 6.22888 10.71975 0.0174
C 19.6506 21.29243 -0.0258
C 19.67529 19.86317 -0.0331
C 20.90951 19.18578 -0.00316
C 29.5735 11.38642 -0.02155
C 30.72637 10.65214 -0.00944
C 30.72822 9.27501 -0.03735
C 29.52352 8.45706 -0.00971
C 29.49423 7.02196 0.01518
C 30.69931 6.27085 0.01908
C 30.74975 4.93584 0.07705
C 29.54547 4.21374 0.0103
C 29.45943 2.86731 0.02108
C 30.66306 2.04615 0.00716
C 29.50505 12.8312 -0.01461
C 30.748 0.6592 0.00307
C 32.00714 32.60687 0.01713
C 33.23857 31.91382 -0.01694
C 33.25914 30.53115 0.01428
C 31.9903 29.7997 -0.02142
C 31.96778 28.31475 0.0544
C 33.1841 27.6132 0.00026
C 33.2298 26.23246 0.00682
C 31.97629 25.49032 -0.01779
C 31.85147 24.10237 0.03794
C 33.15884 23.41419 0.01927
C 29.51452 34.05203 0.00346
C 30.71664 13.50443 -0.01303
C 30.72926 14.92659 -0.0405
C 29.53147 15.68717 0.01705
C 28.25508 6.44546 0.01094
C 28.27088 5.00235 0.00235
C 27.10087 4.32169 0.01495
C 27.13515 2.91928 0.01259
C 28.29355 2.1299 0.01799
C 28.2775 0.66973 0.01699
C 27.0751 0.00463 -0.00416
C 29.49576 32.67942 0.01177
C 30.79117 31.92845 0.04266
C 30.79422 30.54225 0.01324
C 29.56259 29.78204 0.0014
C 29.48914 28.46467 0.00924
C 30.74867 27.677 0.02326
C 30.77272 26.23545 0.00261
C 29.4712 25.54862 0.03265
C 29.46194 24.1517 -0.02049
C 30.68066 23.37245 -0.01854
C 30.60405 21.98893 -0.01415
C 29.41964 21.28119 -0.03039
C 29.47249 19.90766 0.01836
C 30.72042 19.18292 0.03531
C 30.77846 17.78561 -0.00669
C 29.54307 17.16835 0.0101
C 33.09248 22.01929 0.01574
C 27.04088 7.12969 0.02198
C 31.91256 21.28785 -0.02383
C 33.18249 19.2199 -0.0136
C 1.19862 23.38913 0.00723
C 1.17981 22.00167 0.02712
C 34.4069 21.33079 -0.02213
C 34.38212 19.9483 0.01951
C 1.20572 19.22697 -0.01678
C 1.29129 17.84277 0.01223
C 0.0543 17.11856 0.00648
C 34.43238 15.63163 0.02114
C 1.22548 14.94522 -0.02957
C 1.16287 13.49725 0.00343
C 0.00773 24.05651 0.03076
C 34.39724 12.7803 -0.02656
C 1.161 10.61691 -0.00027
C 1.13535 9.14094 -0.00583
C 34.32871 8.53041 -0.02302
C 34.36648 7.10032 -0.02849
C 1.20151 6.40006 0.02931
C 1.16746 4.95475 0.00628
C 34.38105 4.17015 -0.0345
C 34.31056 2.80583 -0.00931
C 1.10745 2.11877 -0.00939
C 1.22684 0.68902 -0.00468
C 34.40217 11.37732 -0.02442
C 0.03316 25.4351 -0.05239
C 1.224 26.214 -0.00598
C 1.31835 27.61769 -0.00439
C 33.15999 17.78525 0.00594
C 31.9994 17.0522 -0.02474
C 31.94232 15.65243 0.00369
C 33.21963 14.90348 0.00455
C 33.19446 13.48281 -0.00644
C 31.92052 12.80098 -0.01839
C 31.95886 11.38961 0.00137
C 33.18998 10.56075 0.00199
C 33.17377 9.15865 0.04381
C 31.96631 8.41619 0.02806
C 31.90966 7.03041 0.01504
C 33.22231 6.29715 -0.00069
C 33.18405 4.90143 0.04926
C 31.94264 4.1906 -0.03838
C 31.90011 2.76132 0.00349
C 33.08082 2.08022 -0.00323
C 33.16258 0.64876 -0.00841
C 31.96795 34.05109 0.0001
C 0.01573 32.62591 -0.02927
C 1.21617 31.91209 -0.01404
C 1.26968 30.44817 0.01027
C 0.08618 29.71739 0.01831
C 0.08376 28.3472 -0.01037
C 31.97622 19.91676 -0.01429
C 27.09596 8.47151 0.02611
C 28.31387 9.16416 -0.00621
C 28.30692 10.58029 0.00194
C 23.34359 23.40919 0.00742
C 23.34691 21.96513 -0.01594
C 22.11029 21.27057 0.0106
C 22.10979 19.86696 -0.01154
C 23.29117 19.11937 -0.01721
C 23.36438 17.72889 -0.02422
C 22.14567 17.04225 0.01277
C 22.19969 15.63711 0.00096
C 23.43149 14.93641 -0.01527
C 23.37181 13.48019 0.01087
C 22.15219 24.11946 -0.00311
C 22.14749 12.83797 0.00199
C 23.38905 10.66825 -0.00478
C 23.36411 9.24602 -0.01662
C 22.08523 8.56201 -0.01185
C 22.04226 7.17404 0.01126
C 23.26374 6.45954 0.01852
C 23.38123 5.03641 -0.00381
C 22.10907 4.31309 0.03046
C 22.09345 2.87662 0.0296
C 23.42301 2.2125 0.03374
C 23.44604 0.87636 -0.02845
C 22.07593 11.32081 0.01511
C 22.18213 25.54075 0.00675
C 23.37165 26.23744 -0.00865
C 23.32938 27.63262 0.0058
C 20.88133 17.74026 0.02188
C 19.66967 17.07736 -0.01979
C 19.65062 15.59787 0.02691
C 21.06142 14.85813 -0.01581
C 20.95758 13.46228 0.01452
C 19.67213 12.78492 0.04892
C 19.63461 11.41166 -0.00111
C 20.85008 10.67055 -0.03557
C 20.85372 9.29489 0.03754
C 19.65698 8.48171 0.01739
C 19.61154 7.07867 0.00755
C 20.90855 6.37215 -0.0054
C 20.83699 4.91518 0.00667
C 19.63198 4.18561 0.00143
C 19.62059 2.83198 -0.017
C 20.89528 2.14488 0.00364
C 20.88776 0.7173 -0.00831
C 19.63315 0.01233 -0.02957
C 22.14224 32.67725 -0.04422
C 23.33101 31.96025 0.00654
C 23.32828 30.43305 -0.00703
C 22.06719 29.84382 -0.04076
C 22.04087 28.37981 -0.00652
C 22.08732 0.01393 -0.03213
C 24.54995 32.5973 0.02239
C 25.8155 31.92896 0.01153
C 25.80329 30.45389 0.02734
C 25.89069 0.69935 -0.01154
C 24.6627 34.0762 0.00684
C 27.00388 32.6707 -0.01052
C 28.24003 31.90195 -0.01679
C 28.27123 30.48623 0.00367
C 27.07164 29.75402 0.04306
C 26.98015 28.37958 0.00996
C 28.22499 27.61954 0.00195
C 28.26261 26.2186 -0.00802
C 27.11774 25.46298 -0.00218
C 26.98061 24.07845 -0.01654
C 28.18111 23.38243 -0.00037
C 28.20729 21.95885 -0.0032
C 26.96134 21.28688 0.00622
C 26.9891 19.90342 -0.02815
C 28.23977 19.17134 -0.00942
C 28.24708 17.78604 0.00487
C 27.08522 17.0838 0.00826
C 27.09355 15.71373 -0.00294
C 28.32039 15.00651 0.00152
C 28.27424 13.54211 0.01257
C 27.08239 12.77069 0.02316
C 27.14257 11.31088 0.04185
C 25.84113 2.16973 -0.0264
C 3.69681 31.93758 -0.01471
C 24.68623 2.89647 -0.00938
C 25.82406 4.98911 -0.01199
C 24.57811 29.69077 -0.0055
C 24.52727 28.30542 0.01515
C 25.81624 27.58483 -0.00225
C 25.83157 26.16704 0.00071
C 24.63062 25.50357 -0.01107
C 24.55395 24.07703 -0.01586
C 25.70788 23.38896 -0.01971
C 25.80977 21.95826 -0.02118
C 24.54685 21.27247 0.00733
C 24.60819 19.8802 -0.00178
C 25.81666 19.16821 0.00768
C 25.80797 17.72141 -0.0276
C 24.57972 16.98557 0.03005
C 24.69681 15.69486 -0.04078
C 25.88793 14.91908 0.02117
C 25.86533 13.42124 0.02737
C 24.63999 12.80065 -0.00498
C 24.61022 11.35555 0.00135
C 25.82448 10.65849 0.03102
C 25.81839 9.22409 0.02555
C 24.59725 8.52977 0.01423
C 24.55949 7.10407 -0.00285
C 25.77808 6.45694 -0.009
C 24.56175 4.2963 -0.00229
C 2.44117 32.66936 0.01218
