354
Graphene
C 34.36628 0.007 0.01295
C 18.56428 26.25654 -0.02696
C 17.05844 15.61253 -0.00114
C 18.30186 14.94591 0.00228
C 18.41331 13.51625 0.00798
C 17.19059 12.88354 0.00422
C 17.16767 11.40901 0.0351
C 18.37024 10.68053 -0.03113
C 18.40359 9.27024 0.02098
C 18.28011 27.60145 -0.00368
C 17.24564 8.47666 0.01848
C 18.43579 6.42578 -0.02162
C 18.4404 4.98083 0.00889
C 17.20909 4.28698 -0.00481
C 17.2319 2.80187 0.00979
C 18.40042 2.07961 0.01443
C 18.42307 0.64239 0.03505
C 17.22348 34.01921 -0.02815
C 19.6323 32.60871 -0.04147
C 17.25552 7.07941 -0.00619
C 20.86258 31.92407 -0.05302
C 17.18028 28.45451 -0.0108
C 18.3991 30.42515 0.02058
C 16.00306 30.41503 -0.0014
C 14.52631 30.02902 0.02162
C 16.05593 13.6509 0.0076
C 14.92519 12.84891 0.01241
C 14.7641 11.42779 -0.01454
C 15.9456 10.7037 0.01945
C 15.99284 9.30328 0.01416
C 14.76104 8.53243 0.03542
C 17.19376 29.75121 -0.01957
C 14.82038 7.11403 0.02299
C 16.0066 4.95203 -0.01717
C 14.79805 4.22642 0.05265
C 14.80442 2.82195 -0.01952
C 16.00062 2.13316 -0.02813
C 16.00245 0.66348 0.00374
C 14.74691 34.00243 0.00052
C 17.14671 32.61593 -0.03682
C 18.37131 31.89785 0.01965
C 16.03734 6.35148 0.00244
C 15.84321 31.88198 0.00415
C 20.90255 30.42428 0.00213
C 19.5293 28.28599 -0.00289
C 19.64498 4.28606 0.00143
C 19.6311 2.78502 -0.017
C 20.81046 2.1207 0.00364
C 20.83081 0.63273 -0.00831
C 19.60872 34.01696 -0.02957
C 22.08192 32.65985 -0.04422
C 23.25829 31.96404 0.00654
C 23.3393 30.48844 -0.00703
C 20.88905 4.99498 0.00667
C 22.14435 29.80653 -0.04076
C 23.35088 27.66504 0.0058
C 23.35903 26.28455 -0.00865
C 22.20323 25.51806 0.00675
C 22.1345 24.20681 -0.00311
C 23.31546 23.47991 0.00742
C 23.36972 21.99368 -0.01594
C 22.11685 21.28057 0.0106
C 22.03335 19.8789 -0.01154
C 22.13587 28.40233 -0.00652
C 19.61186 29.74581 -0.00066
C 20.94363 6.44136 -0.0054
C 19.62964 8.55924 0.01739
C 20.86844 27.60315 0.00028
C 20.97111 26.16779 -0.02213
C 19.67069 25.50462 0.03698
C 19.72536 24.05102 -0.00109
C 20.98414 23.46872 -0.00491
C 20.93139 22.12092 0.03338
C 19.7279 21.30054 -0.0258
C 19.70016 20.09726 -0.0331
C 19.66886 7.10239 0.00755
C 20.75496 19.13225 -0.00316
C 19.58616 16.96284 -0.01979
C 19.56252 15.59699 0.02691
C 20.84181 14.89282 -0.01581
C 20.88564 13.4698 0.01452
C 19.64413 12.7861 0.04892
C 19.69774 11.39165 -0.00111
C 20.86333 10.63008 -0.03557
C 20.89179 9.25422 0.03754
C 20.75653 17.71018 0.02188
C 14.65168 32.5936 -0.02162
C 12.36113 34.0691 0.01363
C 13.55288 0.69487 0.01877
C 4.85678 32.64624 0.00054
C 6.0656 31.90672 0.03007
C 6.09813 30.46215 -0.00095
C 4.83488 29.76244 0.01572
C 6.25819 13.41425 -0.04848
C 5.04257 12.79629 -0.00892
C 4.94245 11.40865 -0.01362
C 6.19355 10.74206 -0.0008
C 2.39707 34.07999 -0.00494
C 6.15472 9.2351 0.0288
C 4.89416 7.11188 0.00895
C 6.15022 6.43046 0.00685
C 6.131 5.0081 0.02888
C 4.86936 4.30611 -0.00482
C 4.83013 2.84358 -0.01384
C 6.1167 2.16014 0.03693
C 6.0988 0.73488 0.01745
C 4.8601 0.01067 0.00488
C 4.90808 8.55644 0.00393
C 7.2159 32.65804 -0.01004
C 3.63517 0.68606 -0.00562
C 2.36791 2.82332 0.01849
C 3.64775 30.49366 -0.01343
C 2.34186 29.90445 0.00988
C 2.41852 28.49125 0.0276
C 3.76011 27.83774 0.01305
C 2.48393 25.5247 -0.00077
C 2.39986 16.95994 0.03368
C 2.62115 15.63775 -0.02929
C 3.75717 14.99474 -0.00966
C 3.66527 2.10439 -0.01142
C 3.74277 13.55927 -0.03337
C 2.5071 11.4248 0.00873
C 3.73488 10.72071 -0.00049
C 3.69564 9.32258 0.00848
C 2.52434 8.5275 -0.01303
C 2.52439 7.14365 -0.01378
C 3.6582 6.39136 0.02635
C 3.703 5.04273 0.0127
C 2.40506 4.23206 0.01396
C 2.47468 12.81881 0.01227
C 8.47574 32.04391 -0.02896
C 8.34262 30.65348 -0.00131
C 7.59811 12.79006 -0.01118
C 9.80239 2.88529 0.02841
C 11.11855 2.12365 -0.01111
C 11.09379 0.70977 -0.01275
C 9.77728 0.06249 0.00985
C 12.17177 32.70627 -0.02245
C 13.40068 31.97944 -0.00428
C 13.44406 30.47634 0.03101
C 12.50081 12.85958 -0.01536
C 9.83928 4.29222 0.00943
C 12.32504 11.49454 -0.02689
C 13.55645 9.3043 -0.00891
C 12.25684 8.54747 0.02819
C 12.32442 7.14568 0.00165
C 13.5267 6.42114 -0.02971
C 13.58275 4.99858 0.02894
C 12.3486 4.33193 -0.01789
C 12.3896 2.84386 0.00444
C 13.61405 2.13587 -0.00925
C 13.54837 10.7597 -0.01046
C 11.10501 4.99885 0.00406
C 11.11609 6.37626 0.03592
C 9.93353 7.10422 0.00572
C 7.41408 11.41224 -0.014
C 8.59928 10.66282 0.02147
C 8.57479 9.26987 0.00373
C 7.39408 8.52862 -0.00191
C 7.41902 7.11341 0.00438
C 8.64239 6.40701 0.01291
C 8.60843 4.9936 0.00093
C 7.36045 4.26843 0.00057
C 7.31447 2.9101 -0.01634
C 8.59214 2.18159 -0.00334
C 8.55741 0.7907 0.02339
C 7.3147 0.01704 0.01641
C 9.72149 32.77718 -0.00719
C 10.87766 32.14539 0.01364
C 9.65507 12.92829 -0.01062
C 9.80482 11.46117 -0.00033
C 11.05957 10.79794 0.03589
C 11.05563 9.36164 -0.02759
C 9.8653 8.57073 0.0402
C 23.30384 19.18808 -0.01721
C 23.24808 17.77916 -0.02422
C 22.02507 17.07252 0.01277
C 22.026 15.63761 0.00096
C 31.91916 32.68694 0.01713
C 33.17721 31.99017 -0.01694
C 33.16406 30.543 0.01428
C 31.9616 29.8212 -0.02142
C 31.97802 28.37977 0.0544
C 33.19258 27.64475 0.00026
C 33.23255 26.19552 0.00682
C 31.98856 25.52432 -0.01779
C 29.48949 0.02704 0.00346
C 31.97446 24.18148 0.03794
C 33.21932 22.00723 0.01574
C 31.97914 21.30595 -0.02383
C 31.92348 19.89164 -0.01429
C 33.10601 19.2265 -0.0136
C 33.10762 17.82252 0.00594
C 31.93167 17.09409 -0.02474
C 31.89554 15.59565 0.00369
C 33.17984 14.94102 0.00455
C 33.22317 23.41966 0.01927
C 33.16659 13.54004 -0.00644
C 30.72405 0.72468 0.00307
C 29.537 2.80114 0.02108
C 30.69891 22.03814 -0.01415
C 29.45056 21.32552 -0.03039
C 29.41068 19.88674 0.01836
C 30.66554 19.19865 0.03531
C 30.63726 17.73402 -0.00669
C 29.41049 17.03455 0.0101
C 29.42009 15.59217 0.01705
C 30.72676 14.89879 -0.0405
C 30.76408 2.15264 0.00716
C 30.74582 13.44033 -0.01303
C 29.50458 11.28135 -0.02155
C 30.81697 10.62058 -0.00944
C 30.77712 9.25231 -0.03735
C 29.53481 8.42947 -0.00971
C 29.53209 7.03681 0.01518
C 30.78612 6.43607 0.01908
C 30.82353 4.97575 0.07705
C 29.53534 4.25375 0.0103
C 29.48893 12.74129 -0.01461
C 32.00124 12.75827 -0.01839
C 32.03118 11.34444 0.00137
C 33.24289 10.57236 0.00199
C 0.9933 19.11219 -0.01678
C 1.34521 17.74771 0.01223
C 0.00844 17.09338 0.00648
C 34.41332 15.67478 0.02114
C 1.28352 15.0253 -0.02957
C 1.22183 13.56939 0.00343
C 34.37946 12.81608 -0.02656
C 34.41361 11.44063 -0.02442
C 34.29708 19.84951 0.01951
C 1.22971 10.64954 -0.00027
C 0.04042 8.53185 -0.02302
C 0.05791 7.12246 -0.02849
C 1.20308 6.4294 0.02931
C 1.23235 5.00306 0.00628
C 34.40861 4.30616 -0.0345
C 34.36264 2.90477 -0.00931
C 1.11603 2.15479 -0.00939
C 1.14925 0.70427 -0.00468
C 1.32225 9.23734 -0.00583
C 0.00083 21.27019 -0.02213
C 1.17334 22.1307 0.02712
C 1.13006 23.40745 0.00723
C 33.20856 9.21533 0.04381
C 32.04145 8.49005 0.02806
C 32.00254 7.12864 0.01504
C 33.25559 6.41701 -0.00069
C 33.19285 4.96056 0.04926
C 32.0129 4.25985 -0.03838
C 31.9926 2.84051 0.00349
C 33.19696 2.14848 -0.00323
C 33.12485 0.70388 -0.00841
C 31.94929 0.03629 0.0001
C 34.33156 32.65605 -0.02927
C 1.09375 31.9979 -0.01404
C 1.13882 30.55914 0.01027
C 34.36137 29.85521 0.01831
C 34.39576 28.40995 -0.01037
C 1.24594 27.64726 -0.00439
C 1.30972 26.23738 -0.00598
C 0.05077 25.59317 -0.05239
C 34.39267 24.22491 0.03076
C 30.69099 23.44735 -0.01854
C 3.56685 31.94401 0.01087
C 29.51492 24.20158 -0.02049
C 30.81848 26.31652 0.00261
C 24.61662 25.55196 -0.01107
C 24.60565 24.15498 -0.01586
C 25.87638 23.45934 -0.01971
C 25.77362 22.03524 -0.02118
C 24.55063 21.38828 0.00733
C 24.5783 19.92163 -0.00178
C 25.76542 19.15144 0.00768
C 25.76861 17.75939 -0.0276
C 25.86447 26.29708 0.00071
C 24.52378 17.06962 0.03005
C 25.78154 14.85943 0.02117
C 25.79697 13.37737 0.02737
C 24.56494 12.70408 -0.00498
C 24.58161 11.27281 0.00135
C 25.81479 10.59474 0.03102
C 25.78396 9.14924 0.02555
C 24.58732 8.43686 0.01423
C 24.59144 6.98605 -0.00285
C 24.57555 15.61566 -0.04078
C 25.84428 6.30219 -0.009
C 25.93666 27.695 -0.00225
C 24.65072 29.86625 -0.0055
C 23.33973 15.01177 -0.01527
C 23.34929 13.45489 0.01087
C 22.08225 12.73141 0.00199
C 22.11981 11.3051 0.01511
C 23.33797 10.60896 -0.00478
C 23.33068 9.18319 -0.01662
C 22.06622 8.53043 -0.01185
C 22.16087 7.09797 0.01126
C 24.65096 28.40917 0.01515
C 23.33324 6.35332 0.01852
C 22.16625 4.25705 0.03046
C 22.03463 2.81003 0.0296
C 23.25509 2.14008 0.03374
C 23.27619 0.71217 -0.02845
C 22.05057 34.04421 -0.03213
C 24.48529 32.6812 0.02239
C 25.85229 31.98985 0.01153
C 25.84731 30.53688 0.02734
C 23.39513 4.9424 -0.00381
C 25.84054 4.84857 -0.01199
C 24.55632 4.20178 -0.00229
C 24.56422 2.77148 -0.00938
C 27.02218 11.32822 0.04185
C 28.22945 10.57013 0.00194
C 28.30183 9.1676 -0.00621
C 27.08867 8.46122 0.02611
C 27.06597 7.04445 0.02198
C 28.31653 6.33436 0.01094
C 28.35822 4.95921 0.00235
C 27.07967 4.28524 0.01495
C 27.02958 12.75925 0.02316
C 27.07025 2.85548 0.01259
C 28.29678 0.71966 0.01699
C 27.08464 0.04598 -0.00416
C 29.45183 32.73478 0.01177
C 30.72094 32.01746 0.04266
C 30.7022 30.62017 0.01324
C 29.47119 29.86208 0.0014
C 29.52032 28.40267 0.00924
C 30.76137 27.70053 0.02326
C 28.276 2.12009 0.01799
C 28.31824 13.49034 0.01257
C 28.22793 14.86958 0.00152
C 27.0317 15.58972 -0.00294
C 25.77123 2.12472 -0.0264
C 25.83158 0.6769 -0.01154
C 24.48326 0.01317 0.00684
C 27.01727 32.70907 -0.01052
C 28.2646 31.96189 -0.01679
C 28.25226 30.58162 0.00367
C 27.12571 29.85571 0.04306
C 27.1043 28.41232 0.00996
C 28.28893 27.74447 0.00195
C 28.34132 26.32918 -0.00802
C 27.13593 25.59279 -0.00218
C 27.02326 24.17419 -0.01654
C 28.30001 23.48458 -0.00037
C 28.23939 22.07644 -0.0032
C 27.05786 21.34152 0.00622
C 26.99492 19.86967 -0.02815
C 28.21223 19.18281 -0.00942
C 28.21929 17.75937 0.00487
C 26.99488 17.01317 0.00826
C 29.55665 25.66234 0.03265
C 2.32015 32.68021 -0.05697
