253
Graphene
C 34.29445 0.20011 0.01295
C 9.85341 7.119 -0.03213
C 9.84778 8.54305 -0.02845
C 11.08884 9.27809 0.03374
C 11.07929 10.66398 0.0296
C 9.83728 11.40314 0.03046
C 9.82527 12.79571 -0.00381
C 11.03124 13.45514 0.01852
C 10.98575 14.92852 0.01126
C 9.79738 15.63531 -0.01185
C 9.81872 17.02707 -0.01662
C 11.14997 17.79688 -0.00478
C 11.05027 19.16869 0.01511
C 9.74517 19.96258 0.00199
C 9.72166 21.2915 0.01087
C 10.97533 22.04963 -0.01527
C 10.82365 23.39492 0.00096
C 9.46699 24.21322 0.01277
C 9.55244 25.67546 -0.02422
C 10.02584 26.80516 -0.01721
C 10.99908 27.67912 -0.01154
C 11.04876 30.59167 0.0106
C 10.85682 31.98489 -0.01594
C 9.75329 32.78804 0.00742
C 7.43716 33.93922 -0.00311
C 8.61101 0.77912 0.00675
C 8.58845 2.20584 -0.00865
C 7.29029 2.90018 0.0058
C 11.06532 6.43788 0.02239
C 11.10879 4.96382 0.01153
C 9.8152 4.33204 0.02734
C 9.84249 2.96657 -0.0055
C 12.39678 4.2746 0.00684
C 13.61548 4.90234 -0.01154
C 13.59496 6.42399 -0.0264
C 12.28397 7.10846 -0.00938
C 12.36653 8.58468 -0.00229
C 13.60847 9.35331 -0.01199
C 13.61744 10.7865 -0.009
C 12.27811 11.42947 -0.00285
C 12.28772 12.87785 0.01423
C 13.52491 13.47755 0.02555
C 13.39546 14.84723 0.03102
C 12.24788 15.59216 0.00135
C 12.30564 16.94333 -0.00498
C 7.28594 4.32473 -0.00652
C 14.03532 16.67155 0.02737
C 12.12513 21.29743 -0.04078
C 12.07075 24.15374 0.03005
C 13.20516 24.77109 -0.0276
C 13.65525 25.97633 0.00768
C 13.80238 27.31868 -0.00178
C 12.13803 28.31259 0.00733
C 12.22071 29.85383 -0.02118
C 13.65233 30.61601 -0.01971
C 13.49105 31.98867 -0.01586
C 12.15378 32.68722 -0.01107
C 9.80833 0.03593 0.00071
C 11.03096 0.76576 -0.00225
C 11.11009 2.20497 0.01515
C 12.16708 20.1328 0.02117
C 8.51146 5.07541 -0.04076
C 8.59571 6.45739 -0.00703
C 7.36127 7.13616 0.00654
C 6.11814 17.74614 -0.04147
C 6.05326 19.11064 -0.02815
C 4.83721 19.79459 0.03505
C 4.87439 21.23127 0.01443
C 6.10506 21.89017 0.00979
C 6.1513 23.24791 -0.00481
C 2.33491 0.04982 0.00889
C 3.62839 0.54274 -0.02162
C 3.60235 2.08353 -0.00619
C 2.38242 2.84549 0.01848
C 2.43511 4.28777 0.02098
C 3.70019 4.96338 -0.03113
C 3.63151 6.37109 0.0351
C 4.84024 17.09903 -0.05302
C 2.40137 7.1458 0.00422
C 3.6506 9.2743 0.00228
C 3.61989 10.70088 -0.00114
C 2.34047 11.3335 -0.02696
C 2.36209 12.81302 -0.00368
C 3.57153 13.5484 -0.0108
C 3.61335 14.93262 -0.01957
C 2.4232 15.71859 0.02058
C 2.4113 17.14049 0.01965
C 3.63996 17.7994 -0.03682
C 3.5682 19.19337 0.00052
C 2.30366 19.93939 0.00374
C 2.37148 21.39347 -0.02813
C 3.66352 21.96108 -0.01952
C 2.35074 8.53993 0.00798
C 12.36407 2.83042 -0.01052
C 4.8748 15.66621 0.00213
C 6.13342 13.62225 -0.00289
C 7.36853 8.59542 -0.04422
C 8.62046 9.2501 -0.02957
C 8.6003 10.6791 -0.00831
C 7.39035 11.4816 0.00364
C 7.37057 12.79889 -0.017
C 8.59226 13.49937 0.00143
C 8.60956 14.94921 0.00667
C 7.38665 15.61844 -0.0054
C 7.32815 17.03692 0.00755
C 8.58413 17.69815 0.01739
C 8.5158 19.07711 0.03754
C 7.20971 19.82752 -0.03557
C 7.33097 21.16247 -0.00111
C 6.15999 14.95382 -0.00066
C 8.48906 21.98601 0.04892
C 4.94589 0.00234 -0.01581
C 6.23502 0.48625 0.02691
C 6.12156 2.07183 -0.01979
C 4.87564 2.82014 0.02188
C 4.84721 4.31658 -0.00316
C 6.07559 5.04495 -0.0331
C 6.04878 6.43952 -0.0258
C 4.85357 7.16502 0.03338
C 4.92275 8.60611 -0.00491
C 6.15892 9.22395 -0.00109
C 6.1694 10.74499 0.03698
C 4.87778 11.42621 -0.02213
C 4.94039 12.88454 0.00028
C 8.30403 23.43527 0.01452
C 3.67758 23.3855 0.05265
C 13.56635 2.09547 -0.01679
C 12.28356 34.04917 0.04306
C 31.85437 4.36041 -0.00841
C 33.10707 5.11614 -0.00323
C 33.1831 6.58802 0.00349
C 32.25138 7.74268 -0.03838
C 32.94188 9.08866 0.04926
C 33.14164 10.33616 -0.00069
C 33.16634 13.67069 0.01504
C 33.20727 14.88035 0.02806
C 31.81306 18.25918 0.04381
C 33.13511 17.78937 0.00199
C 32.95366 19.14939 0.00137
C 33.42424 26.48345 -0.01839
C 33.36707 27.84718 -0.00644
C 32.16398 28.57526 0.00455
C 32.11271 29.95761 0.00369
C 33.25335 30.84661 -0.02474
C 33.17635 32.23739 0.00594
C 31.99824 32.81739 -0.0136
C 29.47441 34.0446 -0.01429
C 30.61545 0.81032 -0.02383
C 30.62775 2.16016 0.01574
C 29.43615 2.87167 0.01927
C 29.65247 4.2881 0.03794
C 30.59414 5.04094 -0.01779
C 29.68702 29.7791 0.00682
C 30.80715 30.61253 0.00026
C 30.7372 32.04083 0.0544
C 31.90731 2.97125 0.0001
C 33.12788 2.30068 -0.02927
C 33.08624 0.87846 -0.01404
C 31.89978 0.19712 0.01027
C 1.1053 0.72318 -0.00468
C 1.15382 2.14692 -0.00939
C 34.41914 2.94141 -0.00931
C 34.29332 4.30148 -0.0345
C 1.13919 5.02561 0.00628
C 1.18988 6.42844 0.02931
C 34.42554 7.14417 -0.02849
C 34.37677 8.55003 -0.02302
C 1.10639 9.26797 -0.00583
C 1.08132 10.7147 -0.00027
C 34.20033 11.38927 -0.02442
C 34.22467 12.74012 -0.02656
C 1.04552 13.54132 0.00343
C 29.45289 32.65802 -0.02142
C 1.17956 14.98222 -0.02957
C 34.39129 17.08671 0.00648
C 1.1552 17.81585 0.01223
C 1.04512 19.23413 -0.01678
C 34.17609 19.83614 0.01951
C 34.34904 21.30688 -0.02213
C 1.08117 21.99483 0.02712
C 1.34733 23.73854 0.00723
C 0.05684 24.27717 0.03076
C 33.74711 25.26463 -0.05239
C 0.02319 28.7484 -0.00598
C 0.09222 30.06761 -0.00439
C 1.25067 32.28953 -0.01037
C 0.00655 32.9228 0.01831
C 34.32434 15.73083 0.02114
C 27.04516 34.01868 0.01428
C 28.2609 0.65735 -0.01694
C 28.27035 2.03088 0.01713
C 17.28152 4.31951 -0.00416
C 18.61097 5.04427 0.01699
C 18.2718 6.39974 0.01799
C 17.36186 7.09671 0.01259
C 17.47037 29.94234 0.01495
C 18.45553 30.59306 0.00235
C 18.50448 32.05027 0.01094
C 17.16954 32.63188 0.02198
C 14.75843 34.01216 0.02611
C 15.93994 0.69576 -0.00621
C 15.96301 2.04983 0.00194
C 14.80463 2.78322 0.04185
C 14.79036 4.22945 0.02316
C 17.16066 2.85563 0.01177
C 16.06304 5.04119 0.01257
C 14.7413 7.12048 -0.00294
C 14.76506 8.48861 0.00826
C 15.96788 9.25146 0.00487
C 15.92181 10.41522 -0.00942
C 15.00288 11.54297 -0.02815
C 14.94057 13.05064 0.00622
C 15.67336 14.28102 -0.0032
C 14.65688 15.71403 -0.00037
C 14.7816 28.34506 -0.01654
C 14.81994 29.81304 -0.00218
C 16.06686 30.57054 -0.00802
C 15.97273 31.92998 0.00195
C 14.72889 32.65131 0.00996
C 15.98496 6.45909 0.00152
C 13.51983 0.69927 0.00367
C 18.44572 2.1043 0.04266
C 17.17613 34.03403 0.0014
C 27.07408 2.65033 0.00346
C 26.99616 29.82269 0.00307
C 28.35029 30.29461 0.00716
C 28.33023 31.87697 0.02108
C 27.05041 32.52081 0.0103
C 24.48938 0.0386 0.07705
C 25.76482 0.69062 0.01908
C 25.72352 2.27213 0.01518
C 24.50087 2.88511 -0.00971
C 24.40422 30.04793 -0.03735
C 25.75569 30.38915 -0.00944
C 25.7602 31.90554 -0.02155
C 24.5188 32.69399 -0.01461
C 18.46737 0.76532 0.01324
C 22.09952 0.02136 -0.01303
C 23.29581 2.27215 0.01705
C 22.0841 2.89739 0.0101
C 23.22986 30.48048 -0.00669
C 23.34078 31.97308 0.03531
C 22.13877 32.65288 0.01836
C 19.68723 0.01727 -0.03039
C 20.85285 0.7591 -0.01415
C 20.89607 2.17904 -0.01854
C 19.60652 2.84313 -0.02049
C 19.80564 4.27277 0.03265
C 20.93814 30.57195 0.00261
C 20.9462 31.98255 0.02326
C 19.72941 32.68606 0.00924
C 23.33017 0.78622 -0.0405
C 2.64775 24.04306 -0.01717
