380
Graphene
C 34.36444 0.05071 0.01295
C 11.01197 6.3699 -0.01454
C 11.02774 5.0089 0.01945
C 9.76373 4.37452 0.01416
C 9.79934 2.90522 0.03542
C 11.01482 2.19039 0.02299
C 11.0007 0.79495 0.00244
C 9.70584 0.0256 -0.01717
C 12.27075 32.68153 0.05265
C 13.4917 31.952 -0.01952
C 13.51623 30.57434 -0.02813
C 12.31218 29.84956 0.00374
C 12.33445 28.41782 0.00052
C 13.49518 27.62756 -0.03682
C 13.59068 26.21169 0.01965
C 12.30279 25.60856 0.02058
C 12.30322 24.08334 -0.01957
C 13.56117 23.45634 -0.0108
C 13.53731 22.08313 -0.00368
C 12.35084 21.34217 -0.02696
C 9.77091 7.16525 0.01241
C 9.81731 8.69383 0.0076
C 11.08808 9.23696 0.02162
C 11.00942 10.71892 -0.0014
C 11.07766 31.97404 -0.01275
C 11.05724 30.5281 0.00985
C 9.77343 29.88961 -0.02245
C 9.89054 28.49091 -0.00428
C 11.09027 27.74394 0.03101
C 11.14734 26.33503 -0.01536
C 9.91958 25.63748 -0.02689
C 9.87121 24.20639 -0.01046
C 11.02146 23.46781 -0.00891
C 12.24236 19.93941 -0.00114
C 11.01893 22.06637 0.02819
C 9.83138 19.85672 -0.02971
C 11.0439 19.14548 0.02894
C 11.09248 17.69309 -0.01789
C 9.88612 17.02934 0.00444
C 9.8787 15.59355 -0.00925
C 11.10542 14.94431 0.01877
C 11.08805 13.48136 0.01363
C 9.7901 12.79165 -0.02162
C 9.81219 11.37432 0.00415
C 9.84811 21.31554 0.00165
C 13.508 19.18459 0.00228
C 13.49917 17.76059 0.00798
C 12.31018 17.00565 0.00422
C 14.86337 24.07501 -0.0331
C 16.08151 23.21743 -0.00316
C 16.08875 21.83541 0.02188
C 14.79992 21.29307 -0.01979
C 14.75911 19.81989 0.02691
C 15.93444 19.15404 -0.01581
C 15.94881 17.78847 0.01452
C 14.78199 17.04505 0.04892
C 14.79385 15.65677 -0.00111
C 14.78167 25.43348 -0.0258
C 16.04486 15.04026 -0.03557
C 14.80434 12.86038 0.01739
C 14.80312 11.40565 0.00755
C 15.87812 10.67362 -0.0054
C 15.94054 9.23266 0.00667
C 14.77052 8.50607 0.00143
C 14.72569 7.08859 -0.017
C 15.91239 6.33225 0.00364
C 15.88225 4.92942 -0.00831
C 14.70953 4.18735 -0.02957
C 16.05035 13.59496 0.03754
C 9.90397 32.74056 -0.01111
C 15.96723 26.11562 0.03338
C 14.7929 28.3072 -0.00109
C 12.30829 15.54866 0.0351
C 13.54832 14.86203 -0.03113
C 13.47796 13.45754 0.02098
C 12.28275 12.7638 0.01848
C 12.25517 11.36343 -0.00619
C 13.52788 10.68025 -0.02162
C 13.49729 9.25351 0.00889
C 12.26841 8.52016 -0.00481
C 12.22787 7.10714 0.00979
C 15.98472 27.52226 -0.00491
C 13.40335 6.39126 0.01443
C 12.26754 4.26755 -0.02815
C 12.22966 2.83057 -0.04147
C 13.40152 2.05011 -0.05302
C 13.50149 0.66538 0.00213
C 12.28669 0.00319 -0.00066
C 14.75155 32.59917 -0.00289
C 15.92969 31.8914 0.00028
C 15.9395 30.49593 -0.02213
C 14.75979 29.7506 0.03698
C 13.49152 4.95716 0.03505
C 14.68753 2.79136 -0.04422
C 7.32772 0.05906 0.02841
C 8.53533 2.20897 0.00406
C 3.65356 4.99023 -0.05697
C 2.37293 4.26681 0.01087
C 2.38065 2.87304 -0.01343
C 3.65595 2.1711 0.00988
C 3.61164 0.69804 0.0276
C 2.39392 0.02912 0.01305
C 4.87774 32.73542 -0.00077
C 6.10894 32.00984 0.03368
C 6.09165 30.61929 -0.02929
C 4.88475 29.9505 -0.00966
C 4.92025 28.45187 -0.03337
C 6.17461 27.85382 0.01227
C 6.15178 26.36356 0.00873
C 4.91972 25.61537 -0.00049
C 4.96846 24.23825 0.00848
C 6.24534 23.46332 -0.01303
C 6.19 22.03847 -0.01378
C 4.91021 21.39474 0.02635
C 4.9399 19.93531 0.0127
C 3.7028 6.39973 -0.00725
C 2.44163 7.06849 0.02322
C 2.42164 8.48668 -0.00094
C 3.6963 9.27968 -0.02566
C 3.67579 30.54143 0.00907
C 2.39208 29.83883 0.00643
C 2.42588 28.48709 -0.01509
C 3.69004 27.7826 0.03267
C 3.68323 26.31315 0.02374
C 2.39927 25.72314 0.00402
C 2.47397 24.27091 0.0073
C 3.71569 23.53721 0.0174
C 3.74161 22.1025 0.03828
C 6.16632 19.1954 0.01396
C 2.45014 21.39508 0.01226
C 3.60528 19.29705 0.01996
C 3.59179 17.87579 -0.03996
C 2.36211 17.16206 0.01465
C 2.36455 15.67073 -0.00074
C 3.56236 14.98284 -0.00518
C 3.58393 13.53195 0.0086
C 2.33128 12.78422 -0.00643
C 2.39476 11.31436 0.017
C 3.66737 10.68507 -0.03113
C 2.3977 19.89642 -0.00279
C 6.17119 17.82132 0.01849
C 4.84949 17.12614 -0.01142
C 4.84935 15.72865 -0.00562
C 8.61016 23.5299 0.02147
C 8.52622 22.06787 0.00373
C 7.41913 21.3101 -0.00191
C 7.44407 19.93949 0.00438
C 8.61861 19.29964 0.01291
C 8.59079 17.73394 0.00093
C 7.38651 17.12209 0.00057
C 7.37755 15.64242 -0.01634
C 8.63349 14.87572 -0.00334
C 7.4374 24.15698 -0.014
C 8.61688 13.49758 0.02339
C 7.27597 11.39504 -0.00719
C 8.56756 10.7057 0.01364
C 8.55356 9.33811 -0.01062
C 7.36033 8.55863 -0.00033
C 7.39458 7.09617 0.03589
C 8.60573 6.44117 -0.02759
C 8.55315 5.038 0.0402
C 7.39377 4.28533 0.00572
C 7.36303 2.88352 0.03592
C 7.35244 12.80869 0.01641
C 8.53995 0.77674 0.00943
C 7.37722 25.66233 -0.01118
C 8.6395 27.81527 -0.02896
C 6.13351 14.94747 -0.00494
C 6.05452 13.47852 0.00054
C 4.82181 12.81669 0.03007
C 4.90766 11.40464 -0.00095
C 6.06761 10.6527 0.01572
C 6.0766 9.27097 -0.04848
C 4.84967 8.56759 -0.00892
C 4.90935 7.12918 -0.01362
C 6.0976 6.38523 -0.0008
C 8.61869 26.37562 -0.00131
C 6.10569 4.95309 0.0288
C 4.87491 2.85753 0.00895
C 6.13367 2.17818 0.00685
C 6.04547 0.75817 0.02888
C 4.82655 0.04715 -0.00482
C 7.3509 32.78945 -0.01384
C 8.62793 32.04557 0.03693
C 8.56543 30.66851 0.01745
C 7.32418 29.86963 0.00488
C 7.4189 28.54573 -0.01004
C 4.82046 4.25116 0.00393
C 15.91062 2.05055 0.00654
C 15.95989 0.67604 -0.00703
C 14.69161 34.01594 -0.04076
C 29.45681 7.00987 0.02108
C 30.71514 6.34751 0.00716
C 30.69932 4.95321 0.00307
C 29.43605 4.21934 0.00346
C 29.44607 2.8174 0.01713
C 30.65874 2.08529 -0.01694
C 30.61127 0.72065 0.01428
C 29.42085 0.02645 -0.02142
C 31.87017 32.7124 0.0544
C 33.08267 31.98753 0.00026
C 33.15757 30.52691 0.00682
C 31.94333 29.87522 -0.01779
C 32.0012 28.40839 0.03794
C 33.17887 27.75517 0.01927
C 33.26215 26.28832 0.01574
C 31.97024 25.57287 -0.02383
C 32.00362 24.24189 -0.01429
C 33.13757 23.44872 -0.0136
C 33.27063 22.02915 0.00594
C 29.44928 8.51141 0.0103
C 30.62079 9.22668 0.07705
C 30.69411 10.6393 0.01908
C 29.3269 11.24625 0.01518
C 28.47187 26.34616 0.00924
C 28.22648 10.67458 0.02326
C 28.2054 9.14931 0.00261
C 26.98269 8.48345 0.03265
C 27.03037 7.12797 -0.02049
C 28.2645 6.34437 -0.01854
C 28.27186 4.96758 -0.01415
C 26.99526 4.25427 -0.03039
C 26.95553 2.82376 0.01836
C 33.23056 19.14589 -0.02474
C 28.16097 2.0612 0.03531
C 26.96384 34.07202 0.0101
C 29.46219 32.70036 0.01705
C 30.67196 31.95652 -0.0405
C 30.69911 30.61301 -0.01303
C 29.49009 29.88524 -0.01461
C 29.56019 28.42377 -0.02155
C 30.75726 27.70817 -0.00944
C 30.801 26.37929 -0.03735
C 29.48203 25.62831 -0.00971
C 28.18896 0.67737 -0.00669
C 33.28506 17.97641 0.00369
C 33.2886 14.9637 0.00455
C 33.06053 13.58414 -0.00644
C 0.0331 21.39982 -0.02213
C 0.0027 19.97672 0.01951
C 1.16245 19.23561 -0.01678
C 1.15696 17.85312 0.01223
C 0.03719 17.03367 0.00648
C 0.02951 15.6106 0.02114
C 1.25036 14.9624 -0.02957
C 1.16327 13.48398 0.00343
C 34.2834 12.8139 -0.02656
C 1.27357 22.03554 0.02712
C 34.37568 11.39608 -0.02442
C 1.2425 9.2761 -0.00583
C 34.39699 8.47375 -0.02302
C 34.40775 7.0911 -0.02849
C 1.19275 6.36162 0.02931
C 1.22945 4.97829 0.00628
C 34.31423 4.30834 -0.0345
C 34.33863 2.93018 -0.00931
C 1.14688 2.12499 -0.00939
C 1.13387 0.7418 -0.00468
C 1.19474 10.61984 -0.00027
C 28.25825 27.79346 0.0014
C 1.1974 23.47276 0.00723
C 0.00911 25.62176 -0.05239
C 31.91903 12.70119 -0.01839
C 31.97553 11.28728 0.00137
C 33.14853 10.60959 0.00199
C 33.18457 9.18465 0.04381
C 31.91144 8.54516 0.02806
C 31.98817 7.09279 0.01504
C 33.16202 6.41495 -0.00069
C 33.09022 4.95311 0.04926
C 31.88026 4.26369 -0.03838
C 34.38212 24.23482 0.03076
C 31.85783 2.7745 0.00349
C 33.0965 0.76369 -0.00841
C 31.83695 0.02053 0.0001
C 34.29687 32.7158 -0.02927
C 1.13227 31.99392 -0.01404
C 1.2078 30.58426 0.01027
C 34.43312 29.8659 0.01831
C 34.4188 28.43903 -0.01037
C 1.24133 27.74357 -0.00439
C 1.19589 26.34177 -0.00598
C 33.11889 2.17644 -0.00323
C 27.06304 28.4912 0.01324
C 27.0911 29.86556 0.04266
C 28.28206 30.5353 0.01177
C 18.39411 4.96834 0.0296
C 17.18852 4.21364 0.03374
C 17.12872 2.74158 -0.02845
C 18.35035 2.08012 -0.03213
C 18.37511 0.61371 0.02239
C 17.15859 34.02701 0.01153
C 19.58591 32.55417 0.02734
C 20.81805 31.8274 -0.0055
C 20.88352 30.38309 0.01515
C 18.44022 6.35931 0.03046
C 19.66068 29.71874 -0.00225
C 21.01905 27.56857 -0.01107
C 20.94377 26.11933 -0.01586
C 19.62906 25.50087 -0.01971
C 19.57451 24.16104 -0.02118
C 19.7162 12.72604 0.00733
C 19.54793 11.31466 -0.00178
C 20.77964 10.51973 0.00768
C 20.88569 9.10834 -0.0276
C 19.62772 8.47199 0.03005
C 19.69506 28.30306 0.00071
C 19.61733 7.07383 -0.04078
C 17.16356 7.03954 -0.00381
C 18.33143 9.14067 0.01126
C 17.13476 32.57729 -0.00652
C 18.3291 31.83745 0.0058
C 18.47448 30.46253 -0.00865
C 17.23117 29.78703 0.00675
C 17.25585 28.2915 -0.00311
C 18.46801 27.60491 0.00742
C 18.40788 26.22927 -0.01594
C 17.26524 25.39661 0.0106
C 17.36635 23.98755 -0.01154
C 17.12091 8.41536 0.01852
C 18.63952 23.16122 -0.01721
C 17.35602 21.13094 0.01277
C 17.22045 19.707 0.00096
C 17.24902 17.27594 -0.01527
C 17.32692 15.80331 0.01087
C 18.43457 15.01418 0.00199
C 18.53061 13.56482 0.01511
C 17.33615 12.75041 -0.00478
C 17.19907 11.35279 -0.01662
C 18.37878 10.58854 -0.01185
C 18.57973 21.74215 -0.02422
C 3.66013 31.98875 0.02379
C 20.90152 6.36229 0.02117
C 19.61661 4.23384 -0.00498
C 24.49854 32.67457 -0.02815
C 25.7764 31.95639 -0.00942
C 25.79812 30.56578 0.00487
C 24.55904 29.76594 0.00826
C 24.61052 28.39763 -0.00294
C 25.79917 27.69136 0.00152
C 25.67479 26.14574 0.01257
C 26.07329 10.77651 0.02316
C 25.91168 9.35253 0.04185
C 22.09929 0.02113 0.00622
C 24.60966 8.5223 0.00194
C 25.7655 6.39132 0.02611
C 25.70202 4.94438 0.02198
C 24.52541 4.23147 0.01094
C 24.50085 2.82339 0.00235
C 25.74133 2.11523 0.01495
C 25.75769 0.67291 0.01259
C 24.44873 34.05712 0.01799
C 26.99887 32.66934 0.01699
C 28.23141 31.96202 -0.00416
C 24.63161 7.16727 -0.00621
C 20.85106 4.94366 0.02737
C 23.23687 0.67617 -0.0032
C 22.13021 2.88279 -0.01654
C 19.61296 2.76343 0.00135
C 20.87858 2.10791 0.03102
C 20.79948 0.73312 0.02555
C 19.54843 34.03017 0.01423
C 22.03836 32.68103 -0.00285
C 23.27809 31.92481 -0.009
C 23.28513 30.4509 -0.01199
C 22.13953 29.74067 -0.00229
C 22.11669 28.32654 -0.00938
C 23.29124 2.16266 -0.00037
C 23.43514 27.75717 -0.0264
C 22.34622 25.71936 0.00684
C 22.1891 11.18031 -0.01052
C 23.24329 10.64042 -0.01679
C 23.44391 9.2039 0.00367
C 22.08318 8.48828 0.04306
C 22.15222 7.05618 0.00996
C 23.42873 6.40506 0.00195
C 23.31167 4.98948 -0.00802
C 22.02941 4.28936 -0.00218
C 23.45718 26.10795 -0.01154
C 2.43037 32.72575 0.01402
