352
Graphene
C 0.02262 0.02533 0.01295
C 12.14182 23.95299 -0.00114
C 13.48473 23.52373 0.00228
C 13.57807 4.97021 0.00798
C 12.31119 4.46906 0.00422
C 12.30383 2.92374 0.0351
C 13.56245 2.13902 -0.03113
C 13.50856 0.71899 0.02098
C 12.28867 34.03712 0.01848
C 12.27323 25.57028 -0.02696
C 14.83496 32.6185 -0.00619
C 16.05115 30.4252 0.00889
C 14.842 29.78538 -0.00481
C 14.84363 28.38015 0.00979
C 16.02239 27.71541 0.01443
C 15.98318 26.21612 0.03505
C 14.71849 25.59086 -0.02815
C 14.72302 23.95445 -0.04147
C 15.9926 23.38123 -0.05302
C 16.00538 31.93009 -0.02162
C 14.57949 4.08692 0.00213
C 13.49413 26.18163 -0.00368
C 12.33093 28.43929 -0.01957
C 9.71419 29.92476 0.02162
C 9.83866 28.50308 0.0076
C 11.04671 27.74884 0.01241
C 11.07112 26.30473 -0.01454
C 9.86767 25.59657 0.01945
C 9.79423 24.14596 0.01416
C 10.93737 23.33574 0.03542
C 9.9306 21.4223 0.02299
C 13.56923 27.67008 -0.0108
C 11.0584 5.04208 0.00244
C 9.82983 2.82432 0.05265
C 11.11024 2.14997 -0.01952
C 11.02883 0.75861 -0.02813
C 9.76631 0.03426 0.00374
C 12.3743 32.57332 0.00052
C 13.55207 31.85628 -0.03682
C 13.56733 30.47376 0.01965
C 12.23485 29.80603 0.02058
C 9.91992 4.28316 -0.01717
C 11.02932 30.55939 -0.0014
C 14.85761 2.81949 -0.00066
C 15.8875 0.72323 0.00028
C 20.83604 27.76294 -0.017
C 20.83621 26.36067 0.00364
C 19.65528 25.63169 -0.00831
C 19.58626 24.19332 -0.02957
C 20.7998 23.39696 -0.04422
C 20.8867 22.00356 0.00654
C 20.95956 6.40265 -0.00703
C 20.83099 5.03231 -0.04076
C 19.66578 28.51283 0.00143
C 19.63497 4.27968 -0.00652
C 20.94077 2.17388 -0.00865
C 20.85324 0.66244 0.00675
C 19.67469 0.02141 -0.00311
C 22.09067 32.64326 0.00742
C 23.29383 31.90963 -0.01594
C 23.341 30.49884 0.0106
C 22.15891 29.79705 -0.01154
C 22.11523 28.4174 -0.01721
C 19.67541 2.86218 0.0058
C 16.06848 2.16997 -0.00289
C 19.6577 29.89619 0.00667
C 20.90969 31.96783 0.00755
C 14.73959 34.06887 -0.02213
C 17.21773 32.67673 0.03698
C 18.38092 32.03005 -0.00109
C 18.44579 30.61824 -0.00491
C 17.27966 29.81832 0.03338
C 17.24102 28.39778 -0.0258
C 18.44458 27.75909 -0.0331
C 18.39067 26.33857 -0.00316
C 20.86088 30.54446 -0.0054
C 17.17672 25.59008 0.02188
C 18.43727 23.45148 0.02691
C 18.42471 4.78755 -0.01581
C 17.22615 4.23255 0.01452
C 17.1914 2.87514 0.04892
C 18.46211 2.13881 -0.00111
C 18.46431 0.69863 -0.03557
C 17.21174 0.01388 0.03754
C 19.62867 32.68251 0.01739
C 17.13204 24.04225 -0.01979
C 23.31596 27.67291 -0.02422
C 11.08219 31.95944 0.00415
C 7.2705 0.06783 0.01363
C 2.45078 7.09702 -0.00095
C 3.69932 6.38735 0.01572
C 3.62215 5.00123 -0.04848
C 2.42033 4.23944 -0.00892
C 2.48004 2.84802 -0.01362
C 3.71581 2.20489 -0.0008
C 3.68265 0.74897 0.0288
C 2.42604 0.07266 0.00393
C 2.43944 8.47778 0.03007
C 4.86401 32.7202 0.00895
C 6.14243 30.5373 0.02888
C 4.92474 29.89331 -0.00482
C 4.85614 28.40494 -0.01384
C 6.06725 27.69038 0.03693
C 6.16165 26.3137 0.01745
C 4.95012 25.57772 0.00488
C 4.99617 24.09379 -0.01004
C 6.15987 23.43709 -0.02896
C 6.08991 31.98747 0.00685
C 6.14196 21.97124 -0.00131
C 3.67122 9.2556 0.00054
C 2.48845 11.33107 -0.00562
C 3.67857 30.4761 0.0276
C 2.39911 29.80242 0.01305
C 2.38973 28.38006 -0.00077
C 3.63571 27.66973 0.03368
C 3.67034 26.32737 -0.02929
C 2.45446 25.50097 -0.00966
C 2.53623 24.1141 -0.03337
C 3.69057 23.43409 0.01227
C 3.68047 10.73182 -0.00494
C 3.66544 22.04668 0.00873
C 2.45731 19.94995 0.00848
C 3.66138 19.25674 -0.01303
C 3.63417 17.78496 -0.01378
C 2.44678 17.00728 0.02635
C 2.42844 15.61421 0.0127
C 3.74562 14.8869 0.01396
C 3.6642 13.4221 0.01849
C 2.40698 12.83147 -0.01142
C 2.35879 21.3866 -0.00049
C 9.82229 32.66633 -0.02162
C 4.89477 21.31205 -0.01118
C 6.26688 19.14419 0.02147
C 7.33349 28.38176 -0.01111
C 8.58819 27.71917 -0.01275
C 8.64008 26.28008 0.00985
C 7.39912 25.6171 -0.02245
C 7.38894 24.15417 -0.00428
C 8.5879 23.45758 0.03101
C 8.72238 22.01308 -0.01536
C 7.42628 21.30037 -0.02689
C 7.348 29.79315 0.02841
C 7.37661 19.94868 -0.01046
C 7.43453 8.53914 0.02819
C 7.56876 7.21663 0.00165
C 8.65715 6.33601 -0.02971
C 8.69918 4.98306 0.02894
C 7.41321 4.25241 -0.01789
C 7.37128 2.88162 0.00444
C 8.57251 2.09688 -0.00925
C 8.55384 0.68333 0.01877
C 7.20312 16.6936 -0.00891
C 4.98119 19.91162 -0.014
C 8.49521 30.61137 0.00943
C 7.31074 32.72087 0.03592
C 6.22316 17.70213 0.00373
C 4.91767 17.02406 -0.00191
C 4.90475 15.62764 0.00438
C 6.20284 14.94377 0.01291
C 6.07173 13.68403 0.00093
C 5.00221 12.78552 0.00057
C 4.95117 11.35721 -0.01634
C 6.12409 10.67749 -0.00334
C 8.54387 32.01 0.00406
C 6.28525 9.35801 0.02339
C 4.87608 7.11711 -0.00719
C 6.1837 6.48864 0.01364
C 6.1718 5.0443 -0.01062
C 4.96309 4.3544 -0.00033
C 4.95896 2.98748 0.03589
C 6.04443 2.17204 -0.02759
C 6.07871 0.7678 0.0402
C 4.81626 0.03637 0.00572
C 4.93511 8.58564 0.01641
C 23.30355 26.32736 0.01277
C 22.1152 25.60041 0.00096
C 22.08951 24.10523 -0.01527
C 33.23306 31.93461 -0.01694
C 33.13269 30.53991 0.01428
C 31.91549 29.78089 -0.02142
C 31.92824 28.43033 0.0544
C 33.13219 27.72911 0.00026
C 33.18245 26.30301 0.00682
C 31.97008 25.62842 -0.01779
C 31.95763 24.1958 0.03794
C 31.99257 32.61487 0.01713
C 33.22231 23.55308 0.01927
C 31.95827 21.34995 -0.02383
C 31.91452 19.91893 -0.01429
C 33.17266 19.19934 -0.0136
C 33.10308 17.78888 0.00594
C 31.88134 16.99573 -0.02474
C 31.92788 15.63194 0.00369
C 33.14205 14.84936 0.00455
C 33.17785 13.44663 -0.00644
C 33.1185 22.09291 0.01574
C 31.97023 12.71593 -0.01839
C 29.59075 34.05594 0.00346
C 30.86078 2.06036 0.00716
C 29.52393 21.33228 -0.03039
C 29.54174 19.90205 0.01836
C 30.74393 19.20027 0.03531
C 30.70352 17.75963 -0.00669
C 29.5442 17.04451 0.0101
C 29.54595 15.5767 0.01705
C 30.65484 14.84521 -0.0405
C 30.75401 13.45827 -0.01303
C 30.76051 0.69877 0.00307
C 29.53152 12.77075 -0.01461
C 30.73376 10.65289 -0.00944
C 30.7091 9.21902 -0.03735
C 29.55884 8.4663 -0.00971
C 29.49659 7.09043 0.01518
C 30.78664 6.43824 0.01908
C 30.71935 5.00626 0.07705
C 29.60603 4.23137 0.0103
C 29.59612 2.77089 0.02108
C 29.50504 11.37813 -0.02155
C 30.75782 22.05633 -0.01415
C 32.01326 11.34761 0.00137
C 33.24584 9.24186 0.04381
C 1.19878 19.18495 -0.01678
C 1.17675 17.7501 0.01223
C 34.28801 17.07482 0.00648
C 34.39352 15.68424 0.02114
C 1.22986 14.94211 -0.02957
C 1.14115 13.52879 0.00343
C 34.39063 12.80254 -0.02656
C 0.08373 11.31647 -0.02442
C 0.00304 19.86896 0.01951
C 1.24745 10.56398 -0.00027
C 34.39814 8.51779 -0.02302
C 0.04023 7.0207 -0.02849
C 1.21118 6.33111 0.02931
C 1.19348 4.92495 0.00628
C 34.37585 4.26028 -0.0345
C 34.4316 2.84592 -0.00931
C 1.25349 2.16522 -0.00939
C 1.2205 0.71955 -0.00468
C 1.20011 9.16546 -0.00583
C 33.26527 10.61468 0.00199
C 34.37902 21.34111 -0.02213
C 1.19098 23.48676 0.00723
C 31.97321 8.57668 0.02806
C 32.02856 7.09573 0.01504
C 33.2425 6.34948 -0.00069
C 33.21568 4.98107 0.04926
C 31.95789 4.28545 -0.03838
C 31.99896 2.86867 0.00349
C 33.18081 2.10007 -0.00323
C 33.22411 0.74855 -0.00841
C 1.13563 22.1165 0.02712
C 31.99376 33.97366 0.0001
C 1.15205 31.89364 -0.01404
C 1.15606 30.50023 0.01027
C 34.3226 29.77523 0.01831
C 34.3851 28.38927 -0.01037
C 1.19713 27.65979 -0.00439
C 1.24156 26.28769 -0.00598
C 34.38551 25.60766 -0.05239
C 0.00314 24.2338 0.03076
C 0.0524 32.68548 -0.02927
C 30.77854 23.52884 -0.01854
C 29.53659 24.22481 -0.02049
C 29.46163 25.60625 0.03265
C 24.6107 24.11008 -0.01586
C 25.86656 23.44371 -0.01971
C 25.81855 22.00588 -0.02118
C 24.55123 21.33204 0.00733
C 24.52187 19.97688 -0.00178
C 25.78968 19.21215 0.00768
C 25.76454 17.77892 -0.0276
C 24.4407 16.92237 0.03005
C 24.51822 25.5048 -0.01107
C 24.64894 15.63397 -0.04078
C 25.7929 13.49461 0.02737
C 24.64583 12.68705 -0.00498
C 24.59633 11.35661 0.00135
C 25.80079 10.68529 0.03102
C 25.88052 9.22733 0.02555
C 24.5539 8.48819 0.01423
C 24.57007 7.02501 -0.00285
C 25.83833 6.34785 -0.009
C 25.83504 14.90674 0.02117
C 25.71144 4.92605 -0.01199
C 25.81962 26.24098 0.00071
C 24.58634 28.33372 0.01515
C 23.29193 23.44198 0.01087
C 23.27181 22.01351 0.00199
C 22.10301 21.37369 0.01511
C 23.52004 19.13882 -0.00478
C 23.4235 17.788 -0.01662
C 23.49693 9.24562 -0.01185
C 22.19095 7.00336 0.01126
C 23.33872 6.40525 0.01852
C 25.79518 27.62745 -0.00225
C 23.32649 4.95361 -0.00381
C 22.17115 2.81476 0.0296
C 23.30832 2.09487 0.03374
C 23.34871 0.65417 -0.02845
C 22.15629 34.07068 -0.03213
C 24.57632 32.61413 0.02239
C 25.73606 31.98615 0.01153
C 25.83333 30.51865 0.02734
C 24.58084 29.77109 -0.0055
C 22.0506 4.23412 0.03046
C 24.5816 4.18526 -0.00229
C 24.61493 2.82448 -0.00938
C 25.8131 2.11908 -0.0264
C 28.33195 10.59165 0.00194
C 28.31418 9.18342 -0.00621
C 27.04983 8.51394 0.02611
C 27.03927 7.03189 0.02198
C 28.28442 6.28528 0.01094
C 28.30158 4.87222 0.00235
C 27.06351 4.22298 0.01495
C 27.10819 2.75806 0.01259
C 27.06583 11.37708 0.04185
C 28.30626 2.09598 0.01799
C 27.06645 0.0619 -0.00416
C 29.52562 32.64606 0.01177
C 30.72578 31.91356 0.04266
C 30.70022 30.55385 0.01324
C 29.47582 29.8342 0.0014
C 29.54715 28.45836 0.00924
C 30.70969 27.68833 0.02326
C 30.65105 26.29764 0.00261
C 28.3055 0.66288 0.01699
C 27.06895 12.7567 0.02316
C 28.31981 13.47505 0.01257
C 28.25692 14.98827 0.00152
C 25.80855 0.7098 -0.01154
C 24.54996 34.05364 0.00684
C 26.98119 32.65604 -0.01052
C 28.23029 31.97937 -0.01679
C 28.25217 30.51653 0.00367
C 27.03493 29.79658 0.04306
C 26.99701 28.42516 0.00996
C 28.24027 27.7608 0.00195
C 28.20638 26.2998 -0.00802
C 27.01632 25.58851 -0.00218
C 27.10672 24.08303 -0.01654
C 28.28868 23.37953 -0.00037
C 28.24591 21.95497 -0.0032
C 27.09371 21.30627 0.00622
C 27.03984 19.86759 -0.02815
C 28.35294 19.27284 -0.00942
C 28.26468 17.80617 0.00487
C 27.08197 17.11153 0.00826
C 27.08265 15.67432 -0.00294
C 3.65875 31.97247 0.00988
C 2.49496 32.65627 -0.01343
