338
Graphene
C 34.35245 0.00823 0.01295
C 15.88044 0.77563 0.00889
C 14.69842 0.04352 -0.00481
C 17.13596 32.62051 0.00979
C 18.29346 31.87007 0.01443
C 18.27338 30.43931 0.03505
C 17.13545 29.76197 -0.02815
C 17.15133 28.40671 -0.04147
C 18.36978 27.66468 -0.05302
C 18.39103 26.1598 0.00213
C 16.97303 25.63456 -0.00066
C 17.22862 11.26755 -0.00289
C 18.48637 10.67576 0.00028
C 18.49391 9.18831 -0.02213
C 17.26309 8.47873 0.03698
C 17.21854 7.0715 -0.00109
C 18.40177 6.42732 -0.00491
C 18.45744 5.06068 0.03338
C 15.93487 2.2337 -0.02162
C 17.19549 4.2874 -0.0258
C 14.73478 2.86746 -0.00619
C 16.00107 4.9655 0.02098
C 12.34273 2.9222 -0.01952
C 13.52068 2.12607 -0.02813
C 13.50648 0.71044 0.00374
C 12.20445 0.04221 0.00052
C 14.6833 32.69584 -0.03682
C 15.93352 31.93394 0.01965
C 15.93549 30.49915 0.02058
C 14.63867 29.83426 -0.01957
C 14.70877 28.44562 -0.0108
C 15.90936 27.68223 -0.00368
C 15.75997 26.24307 -0.02696
C 14.2557 26.11409 -0.00114
C 16.06176 10.58342 0.00228
C 16.01367 9.14875 0.00798
C 14.72949 8.5396 0.00422
C 14.75881 7.07992 0.0351
C 15.98852 6.41328 -0.03113
C 14.72951 4.29335 0.01848
C 12.28393 4.2739 0.05265
C 17.1268 2.83459 -0.0331
C 18.41228 0.73361 0.02188
C 20.8282 2.10723 -0.00652
C 20.81648 0.6598 0.0058
C 19.56836 34.02188 -0.00865
C 22.06699 32.59372 0.00675
C 23.41525 31.85291 -0.00311
C 23.34855 30.50962 0.00742
C 22.03627 29.76526 -0.01594
C 22.05143 28.35411 0.0106
C 23.3115 27.67613 -0.01154
C 23.27366 26.33816 -0.01721
C 22.05647 25.64808 -0.02422
C 22.0732 24.20622 0.01277
C 23.17281 23.44747 0.00096
C 23.2876 22.06573 -0.01527
C 23.3757 19.07321 0.01087
C 23.39014 17.69398 0.00199
C 22.2763 15.84662 0.01511
C 19.64894 2.81349 -0.04076
C 18.41781 2.18289 -0.00316
C 19.63731 4.20419 -0.00703
C 20.85413 6.39839 -0.04422
C 17.12494 0.02591 -0.01979
C 19.57797 32.5592 0.02691
C 20.83015 31.83447 -0.01581
C 20.84029 30.42608 0.01452
C 19.59342 29.7701 0.04892
C 19.59891 28.365 -0.00111
C 20.77785 27.61432 -0.03557
C 20.82674 26.25058 0.03754
C 19.62435 25.58639 0.01739
C 21.05995 15.0961 0.00755
C 20.81681 13.73909 -0.0054
C 19.53705 13.00811 0.00667
C 19.65839 11.48248 0.00143
C 20.85919 10.70908 -0.017
C 20.8886 9.30798 0.00364
C 19.73957 8.49688 -0.00831
C 19.62235 7.09698 -0.02957
C 20.8414 4.98609 0.00654
C 13.51999 5.12413 -0.01717
C 13.55659 6.44308 0.00244
C 12.34312 7.228 0.02299
C 5.21693 30.51681 0.03693
C 5.09166 15.62789 0.01745
C 6.07492 14.68037 0.00488
C 6.03367 13.28939 -0.01004
C 4.83064 12.65812 -0.02896
C 4.92705 11.23572 -0.00131
C 6.14195 10.54276 -0.01118
C 6.1066 9.19462 -0.014
C 4.87407 8.49934 0.02147
C 4.84455 7.05207 0.00373
C 6.14993 6.38143 -0.00191
C 6.09562 5.00711 0.00438
C 4.90468 4.20405 0.01291
C 4.87788 2.82649 0.00093
C 6.05223 2.09621 0.00057
C 6.10529 0.72499 -0.01634
C 4.85447 0.05706 -0.00334
C 6.05705 31.72898 -0.01384
C 7.41787 32.39018 0.02339
C 4.93357 32.73112 -0.00482
C 3.59704 0.73074 0.00685
C 3.9599 30.68606 0.0127
C 2.81869 29.92398 0.01396
C 2.26566 17.02948 0.01849
C 2.51969 15.68142 -0.01142
C 3.81022 14.99321 -0.00562
C 3.64037 13.51557 -0.00494
C 2.38367 12.85275 0.00054
C 2.46192 11.44641 0.03007
C 3.6991 10.61021 -0.00095
C 3.65499 9.29517 0.01572
C 2.37136 8.5282 -0.04848
C 2.39126 7.07086 -0.00892
C 3.57721 6.37392 -0.01362
C 3.68762 4.93372 -0.0008
C 2.46406 4.26749 0.0288
C 2.45487 2.77012 0.00393
C 3.66078 2.12615 0.00895
C 2.32126 0.08484 0.02888
C 8.77227 31.72087 0.01641
C 9.41957 30.42762 -0.00719
C 7.18577 15.57621 0.01364
C 9.85481 7.22856 -0.02971
C 11.12065 6.52295 0.02894
C 11.08572 5.03059 -0.01789
C 9.8382 4.34819 0.00444
C 9.74991 2.86359 -0.00925
C 11.03789 2.14523 0.01877
C 11.00298 0.76679 0.01363
C 9.75572 0.07177 -0.02162
C 12.17601 32.70383 0.00415
C 13.4281 32.00543 -0.0014
C 13.3501 30.55313 0.02162
C 12.05877 29.9492 0.0076
C 13.62187 27.65248 0.01241
C 12.44839 11.28046 -0.01454
C 13.54771 10.66867 0.01945
C 13.61547 9.22923 0.01416
C 12.35867 8.55885 0.03542
C 9.94819 8.59815 0.00165
C 11.18948 9.30768 0.02819
C 11.14687 10.75452 -0.00891
C 9.88299 11.4421 -0.01046
C 8.45433 13.53564 -0.01062
C 7.3099 12.75573 -0.00033
C 7.3334 11.37524 0.03589
C 8.64194 10.70971 -0.02759
C 8.63688 9.26234 0.0402
C 7.38136 8.53478 0.00572
C 7.43113 7.12752 0.03592
C 8.60269 6.53431 0.00406
C 23.33187 14.99516 -0.00478
C 8.58804 5.03739 0.00943
C 7.28442 2.79599 -0.01111
C 8.508 2.10368 -0.01275
C 8.53391 0.63722 0.00985
C 7.33418 33.88925 -0.02245
C 9.83456 32.7519 -0.00428
C 11.06594 31.96734 0.03101
C 10.74487 30.50851 -0.01536
C 9.49731 12.83826 -0.02689
C 7.36361 4.30915 0.02841
C 23.25602 13.55373 -0.01662
C 22.07236 12.84518 -0.01185
C 22.09549 11.42132 0.01126
C 29.4627 34.07545 -0.02142
C 32.04861 32.63444 0.0544
C 33.26494 31.84979 0.00026
C 33.28088 30.46865 0.00682
C 31.99438 29.90111 -0.01779
C 31.89879 28.49359 0.03794
C 33.15274 27.73472 0.01927
C 33.1241 26.32356 0.01574
C 31.92186 25.634 -0.02383
C 31.96566 24.12302 -0.01429
C 33.30772 23.64538 -0.0136
C 33.29967 22.19983 0.00594
C 31.93118 21.37921 -0.02474
C 31.94174 19.96716 0.00369
C 33.15595 19.11641 0.00455
C 33.17516 17.80432 -0.00644
C 31.90058 17.04291 -0.01839
C 30.7475 0.68834 0.01428
C 31.9165 15.62493 0.00137
C 30.63769 2.06434 -0.01694
C 29.47518 4.23847 0.00346
C 30.71844 22.05381 -0.00669
C 29.5739 21.33327 0.0101
C 29.46911 19.92001 0.01705
C 30.71386 19.23978 -0.0405
C 30.70075 17.77567 -0.01303
C 29.48647 17.10942 -0.01461
C 29.57209 15.69917 -0.02155
C 30.71101 14.90122 -0.00944
C 30.72283 13.56451 -0.03735
C 29.51327 12.75656 -0.00971
C 29.47684 11.35562 0.01518
C 30.68655 10.67519 0.01908
C 30.74166 9.24196 0.07705
C 29.42402 8.60071 0.0103
C 29.43005 7.19349 0.02108
C 30.67935 6.39982 0.00716
C 30.61448 4.94345 0.00307
C 29.41924 2.81704 0.01713
C 33.20595 14.93182 0.00199
C 33.17556 13.536 0.04381
C 31.93632 12.80887 0.02806
C 1.25172 17.78263 0.01223
C 0.03992 17.19261 0.00648
C 0.02294 15.67534 0.02114
C 1.26578 15.00551 -0.02957
C 1.16281 13.56595 0.00343
C 34.42475 12.80498 -0.02656
C 0.02181 11.40507 -0.02442
C 1.21862 10.75385 -0.00027
C 1.20378 9.22222 -0.00583
C 34.33456 8.52566 -0.02302
C 34.33331 7.07251 -0.02849
C 1.11142 6.35697 0.02931
C 1.15303 4.97389 0.00628
C 34.40338 4.25904 -0.0345
C 34.38505 2.8508 -0.00931
C 1.18983 2.16381 -0.00939
C 1.10708 0.77312 -0.00468
C 34.31027 19.99109 -0.01678
C 34.33723 21.22506 0.01951
C 0.00977 24.43099 -0.02213
C 0.2165 25.95772 0.02712
C 31.86689 11.41146 0.01504
C 33.25226 10.7354 -0.00069
C 33.12542 9.27328 0.04926
C 31.93012 8.48292 -0.03838
C 31.9602 7.06919 0.00349
C 33.13065 6.33584 -0.00323
C 33.16306 4.98905 -0.00841
C 31.87316 4.21762 0.0001
C 30.77075 23.41756 0.03531
C 31.80229 2.82589 -0.02927
C 33.18216 0.80005 0.01027
C 31.962 34.07905 0.01831
C 34.43166 32.67067 -0.01037
C 1.26518 31.91562 -0.00439
C 1.44252 30.39342 -0.00598
C 0.18635 29.69425 -0.05239
C 0.10925 28.21179 0.03076
C 0.96671 27.12786 0.00723
C 33.11968 2.20384 -0.01404
C 3.69606 32.20709 0.02635
C 29.52577 24.15207 0.01836
C 30.69053 26.35379 -0.01415
C 25.8108 22.04881 -0.0276
C 24.48589 21.31494 0.03005
C 24.47156 19.89823 -0.04078
C 25.73304 19.21742 0.02117
C 25.78233 17.72787 0.02737
C 24.59086 16.98006 -0.00498
C 24.56227 15.63315 0.00135
C 25.83632 14.96272 0.03102
C 25.80775 13.51415 0.02555
C 24.56498 12.84009 0.01423
C 24.56081 11.39945 -0.00285
C 25.7641 10.77529 -0.009
C 25.78335 9.29783 -0.01199
C 24.55278 8.50653 -0.00229
C 24.53894 7.10221 -0.00938
C 25.69387 6.37613 -0.0264
C 25.84805 4.97776 -0.01154
C 25.73849 23.49436 0.00768
C 24.58874 4.1926 0.00684
C 24.39675 24.16947 -0.00178
C 25.74816 26.20821 -0.02118
C 23.30512 10.73624 0.01852
C 23.34703 9.27049 -0.00381
C 22.08941 8.53879 0.03046
C 22.13314 7.09625 0.0296
C 23.30019 6.41976 0.03374
C 23.32412 4.92971 -0.02845
C 22.0582 4.22588 -0.03213
C 22.02349 2.77526 0.02239
C 23.25031 2.03281 0.01153
C 23.38159 0.59298 0.02734
C 22.10654 34.00789 -0.0055
C 24.59624 32.62352 0.01515
C 25.82136 31.90093 -0.00225
C 25.82718 30.53234 0.00071
C 24.5825 29.80371 -0.01107
C 24.56426 28.37074 -0.01586
C 25.75784 27.63862 -0.01971
C 24.45951 25.65462 0.00733
C 24.46327 2.80856 -0.01052
C 25.78657 2.0906 -0.01679
C 25.75535 0.66729 0.00367
C 28.17925 10.67878 0.01094
C 28.11921 9.28831 0.00235
C 26.9276 8.51867 0.01495
C 27.00662 7.12539 0.01259
C 28.19285 6.4049 0.01799
C 28.14842 4.96119 0.01699
C 26.99672 4.19922 -0.00416
C 26.93348 2.7919 0.01177
C 28.22946 2.14461 0.04266
C 28.27585 0.71762 0.01324
C 27.06304 0.02195 0.0014
C 29.47975 32.66451 0.00924
C 30.78211 31.94531 0.02326
C 30.76836 30.57031 0.00261
C 29.5237 29.82708 0.03265
C 29.53257 28.39613 -0.02049
C 30.76423 27.68841 -0.01854
C 27.00788 11.4094 0.02198
C 27.1081 12.80465 0.02611
C 28.32834 13.50877 -0.00621
C 28.34244 14.97797 0.00194
C 24.5642 34.03616 0.04306
C 26.99722 32.67654 0.00996
C 28.26388 31.93255 0.00195
C 28.26184 30.50137 -0.00802
C 27.01541 29.81989 -0.00218
C 26.97303 28.38619 -0.01654
C 28.32424 27.70307 -0.00037
C 28.33244 26.22291 -0.0032
C 29.52449 25.55987 -0.03039
C 27.01471 25.61857 0.00622
C 28.29294 23.46545 -0.00942
C 28.33022 21.99191 0.00487
C 27.00919 21.31842 0.00826
C 27.01993 19.88247 -0.00294
C 28.25299 19.21864 0.00152
C 28.30199 17.79595 0.01257
C 27.07844 17.03627 0.02316
C 27.12702 15.59924 0.04185
C 27.03434 24.19023 -0.02815
C 2.41242 32.77973 -0.01378
