395
Graphene
C 0.01347 0.01663 0.01295
C 11.09205 0.68842 0.00444
C 9.8041 0.03815 -0.00925
C 12.29981 32.67869 0.01877
C 13.55568 31.93166 0.01363
C 13.55762 30.53369 -0.02162
C 12.28335 29.84108 0.00415
C 12.28438 28.39209 -0.0014
C 13.51617 27.69106 0.02162
C 13.51114 26.18678 0.0076
C 11.05707 2.13753 -0.01789
C 12.32116 25.57356 0.01241
C 13.53724 23.42217 0.01945
C 13.53623 22.03276 0.01416
C 12.31203 21.28591 0.03542
C 12.32417 19.92184 0.02299
C 13.54628 19.14453 0.00244
C 13.53431 17.71148 -0.01717
C 12.28107 17.00492 0.05265
C 12.31538 15.55777 -0.01952
C 13.48857 14.88472 -0.02813
C 12.29346 24.13607 -0.01454
C 9.83762 2.80969 0.02894
C 9.82359 4.30649 -0.02971
C 11.02743 5.01527 0.00165
C 11.09873 27.75394 -0.01062
C 11.07397 26.28609 -0.00033
C 9.83738 25.56899 0.03589
C 9.84555 24.13249 -0.02759
C 11.06535 23.44785 0.0402
C 11.063 21.99849 0.00572
C 9.82653 21.34027 0.03592
C 9.83319 19.9368 0.00406
C 11.04497 19.16494 0.00943
C 11.04655 17.80494 0.02841
C 9.83871 16.99897 -0.01111
C 9.85115 15.65082 -0.01275
C 11.08729 14.92901 0.00985
C 11.1071 13.49751 -0.02245
C 9.80639 12.76612 -0.00428
C 9.83223 11.38438 0.03101
C 11.06374 10.61142 -0.01536
C 11.02534 9.21895 -0.02689
C 9.87321 8.53635 -0.01046
C 9.92442 7.09847 -0.00891
C 11.08812 6.39401 0.02819
C 13.54654 13.48421 0.00374
C 12.25543 12.82038 0.00052
C 12.31481 11.3912 -0.03682
C 13.52722 10.61818 0.01965
C 14.75968 17.02188 -0.00289
C 14.80291 15.65125 0.00028
C 16.01435 14.88531 -0.02213
C 15.95508 13.51007 0.03698
C 14.74977 12.74156 -0.00109
C 14.7573 11.31562 -0.00491
C 14.76413 8.53725 0.03338
C 14.77164 7.0903 -0.0258
C 15.99884 4.94496 -0.0331
C 14.73523 4.28274 -0.00316
C 14.7764 2.81481 0.02188
C 15.98533 2.12915 -0.01979
C 15.98473 0.73038 0.02691
C 14.77376 34.06073 -0.01581
C 17.2294 32.6432 0.01452
C 18.44171 31.95248 0.04892
C 18.44778 30.53572 -0.00111
C 17.18576 29.8045 -0.03557
C 17.2032 28.43008 0.03754
C 18.44973 27.69404 0.01739
C 18.42032 26.27025 0.00755
C 15.99471 17.72149 -0.00066
C 9.83645 28.41707 0.01364
C 15.98414 19.17206 0.00213
C 14.77454 21.34234 -0.04147
C 13.55832 9.21102 0.02058
C 12.28452 8.52606 -0.01957
C 12.30448 7.08337 -0.0108
C 13.52794 6.37663 -0.00368
C 13.52328 4.93901 -0.02696
C 12.32423 4.27013 -0.00114
C 12.27943 2.85941 0.00228
C 13.50548 2.13006 0.00798
C 13.46804 0.74782 0.00422
C 12.30312 34.05149 0.0351
C 14.71527 32.63721 -0.03113
C 15.9833 31.95137 0.02098
C 16.01557 30.49842 0.01848
C 14.75319 29.82233 -0.00619
C 14.74577 28.38742 -0.02162
C 15.95769 27.69215 0.00889
C 15.9709 26.2698 -0.00481
C 14.71388 25.53899 0.00979
C 14.78666 24.14912 0.01443
C 16.00271 23.4218 0.03505
C 15.9642 22.0366 -0.02815
C 14.76784 19.883 -0.05302
C 17.2147 25.55645 -0.0054
C 9.85818 29.83671 -0.00719
C 11.08179 31.99755 0.02339
C 2.41905 4.26018 -0.00279
C 2.46289 2.85965 0.01996
C 3.67012 2.14531 -0.03996
C 3.68099 0.70971 0.01465
C 2.45593 0.00037 -0.00074
C 4.93418 32.69381 -0.00518
C 6.1947 31.92612 0.0086
C 6.14876 30.54226 -0.00643
C 4.91902 29.8565 0.017
C 3.70759 4.95985 0.01226
C 4.90109 28.43166 -0.03113
C 6.14718 26.28912 -0.00094
C 4.89444 25.52321 0.02322
C 4.92093 24.10546 -0.00725
C 6.12213 23.46158 -0.05697
C 6.1702 21.99995 0.01087
C 4.95404 21.30446 -0.01343
C 4.89503 19.88157 0.00988
C 6.16415 19.18405 0.0276
C 6.15082 17.76138 0.01305
C 6.11906 27.67942 -0.02566
C 3.65756 6.43064 0.03828
C 2.45401 7.10516 0.0174
C 2.48884 8.51114 0.0073
C 3.64784 30.54164 -0.01977
C 2.48621 29.79935 -0.00561
C 2.45446 28.38035 0.00208
C 3.72753 27.6936 0.01707
C 3.65851 26.2824 0.02769
C 2.48973 25.5803 -0.03291
C 2.45641 24.15725 -0.04999
C 3.69532 23.42046 0.04505
C 3.6968 22.00812 0.03284
C 2.44126 21.23713 -0.04307
C 2.46329 19.86125 0.03189
C 3.70497 19.19237 0.00031
C 3.68026 17.79367 -0.003
C 2.43022 17.05071 0.01402
C 2.43082 15.60706 0.02379
C 3.68818 14.92832 0.00907
C 3.70813 13.50025 0.00643
C 2.4446 12.76611 -0.01509
C 2.47039 11.35816 0.03267
C 3.71381 10.70174 0.02374
C 3.70676 9.23366 0.00402
C 4.94077 17.05544 -0.00077
C 4.95772 15.63659 0.03368
C 6.18919 14.9158 -0.02929
C 6.12917 13.44192 -0.00966
C 7.36809 19.88921 0.00685
C 8.58866 19.15921 0.02888
C 8.57398 17.71744 -0.00482
C 7.36081 17.01127 -0.01384
C 7.38185 15.62917 0.03693
C 8.58888 14.90575 0.01745
C 8.60498 13.4679 0.00488
C 7.32941 12.80682 -0.01004
C 7.36373 11.40926 -0.02896
C 8.63021 10.68938 -0.00131
C 8.6209 9.19949 -0.01118
C 7.36716 8.52295 -0.014
C 7.39093 7.1248 0.02147
C 8.61216 6.40576 0.00373
C 8.59411 5.02279 -0.00191
C 7.4397 4.24952 0.00438
C 7.36566 2.88123 0.01291
C 8.62514 2.1488 0.00093
C 8.63342 0.73127 0.00057
C 7.35922 0.06313 -0.01634
C 9.84869 32.69353 -0.00334
C 7.39709 21.32049 0.00895
C 11.04144 30.55137 0.01641
C 8.62339 22.05676 0.00393
C 7.374 24.16481 -0.0008
C 4.90971 12.76623 -0.03337
C 4.90687 11.38604 0.01227
C 6.16763 10.70641 0.00873
C 6.16694 9.22912 -0.00049
C 4.88015 8.51205 0.00848
C 4.92156 7.12656 -0.01303
C 6.15216 6.40831 -0.01378
C 6.18186 4.95248 0.02635
C 4.90084 4.30277 0.0127
C 4.90247 2.84157 0.01396
C 6.18497 2.18893 0.01849
C 6.1884 0.69636 -0.01142
C 4.90598 34.07496 -0.00562
C 7.35719 32.62306 -0.00494
C 8.63072 31.94433 0.00054
C 8.59676 30.53118 0.03007
C 7.33658 29.80361 -0.00095
C 7.3226 28.41404 0.01572
C 8.55836 27.65125 -0.04848
C 8.6248 26.28723 -0.00892
C 7.32347 25.56283 -0.01362
C 8.62499 23.45597 0.0288
C 3.67233 31.93373 0.02784
C 17.20454 24.14442 0.00667
C 18.44844 22.01742 -0.017
C 30.77469 6.40839 0.01908
C 30.76329 5.00798 0.07705
C 29.48378 4.23677 0.0103
C 29.51638 2.85906 0.02108
C 30.73665 2.11231 0.00716
C 30.71775 0.72629 0.00307
C 29.54062 34.05708 0.00346
C 31.95538 32.62775 0.01713
C 33.24022 31.93117 -0.01694
C 29.5174 7.10735 0.01518
C 33.207 30.53964 0.01428
C 32.00861 28.39708 0.0544
C 33.20158 27.70059 0.00026
C 33.18488 26.26141 0.00682
C 31.95592 25.56476 -0.01779
C 32.00871 24.1791 0.03794
C 33.22533 23.37449 0.01927
C 33.23542 21.97353 0.01574
C 32.01368 21.31733 -0.02383
C 31.97266 19.90802 -0.01429
C 31.98783 29.77902 -0.02142
C 29.46944 8.52623 -0.00971
C 30.77195 9.24039 -0.03735
C 30.73157 10.59796 -0.00944
C 29.46255 32.67054 0.01177
C 30.74986 31.91426 0.04266
C 30.71638 30.54668 0.01324
C 29.50993 29.81392 0.0014
C 29.52247 28.35012 0.00924
C 30.78738 27.65857 0.02326
C 30.71859 26.28004 0.00261
C 29.54239 25.5265 0.03265
C 29.50998 24.0425 -0.02049
C 30.75926 23.44849 -0.01854
C 30.76347 22.02053 -0.01415
C 29.53009 21.31128 -0.03039
C 29.52864 19.84756 0.01836
C 30.7355 19.16424 0.03531
C 30.74854 17.73457 -0.00669
C 29.51293 17.07524 0.0101
C 29.51153 15.61206 0.01705
C 30.80312 14.95032 -0.0405
C 30.7251 13.50863 -0.01303
C 29.50091 12.79747 -0.01461
C 29.52726 11.35628 -0.02155
C 33.23113 19.20141 -0.0136
C 33.20143 17.75653 0.00594
C 31.96257 17.02736 -0.02474
C 31.99753 15.6112 0.00369
C 1.21097 22.03305 0.02712
C 0.01042 21.33078 -0.02213
C 34.4056 19.84337 0.01951
C 1.22331 19.17115 -0.01678
C 1.2146 17.73792 0.01223
C 0.03937 17.01022 0.00648
C 34.38707 15.59067 0.02114
C 1.19654 14.9132 -0.02957
C 1.22437 13.47866 0.00343
C 34.41972 12.74722 -0.02656
C 34.40683 11.34039 -0.02442
C 1.21787 10.71644 -0.00027
C 1.23951 9.24677 -0.00583
C 34.4244 8.52244 -0.02302
C 34.42933 7.09365 -0.02849
C 1.18658 6.34963 0.02931
C 1.18224 4.96154 0.00628
C 0.003 4.23757 -0.0345
C 0.03103 2.80251 -0.00931
C 1.26316 2.13756 -0.00939
C 1.23526 0.73049 -0.00468
C 1.2312 23.46411 0.00723
C 27.0516 0.02246 -0.00416
C 34.40781 24.15698 0.03076
C 1.2286 26.26563 -0.00598
C 33.21866 14.90787 0.00455
C 33.23868 13.47546 -0.00644
C 31.96531 12.78926 -0.01839
C 31.95071 11.31688 0.00137
C 33.17269 10.63613 0.00199
C 33.17033 9.24745 0.04381
C 31.97546 8.54934 0.02806
C 31.95881 7.0909 0.01504
C 33.198 6.37996 -0.00069
C 33.17231 4.96515 0.04926
C 31.9761 4.27599 -0.03838
C 32.00355 2.87229 0.00349
C 33.15958 2.08282 -0.00323
C 33.18171 0.68367 -0.00841
C 31.98623 0.00486 0.0001
C 34.42143 32.62777 -0.02927
C 1.21378 31.97642 -0.01404
C 1.25103 30.50015 0.01027
C 34.42879 29.81006 0.01831
C 0.02553 28.43341 -0.01037
C 1.21933 27.65029 -0.00439
C 0.00831 25.55671 -0.05239
C 18.44868 23.40307 0.00143
C 28.25736 0.69287 0.01699
C 27.06619 2.85696 0.01259
C 20.9147 17.72951 -0.01662
C 19.65303 17.05771 -0.01185
C 19.66392 2.80867 0.01126
C 20.8552 2.09845 0.01852
C 20.91304 0.65211 -0.00381
C 19.6546 34.07271 0.03046
C 22.17215 32.65257 0.0296
C 23.369 31.92594 0.03374
C 23.31809 30.52469 -0.02845
C 20.87293 19.1392 -0.00478
C 22.14385 29.80067 -0.03213
C 23.39311 27.6769 0.01153
C 23.34669 26.22001 0.02734
C 22.14414 25.52626 -0.0055
C 22.14871 24.14437 0.01515
C 23.34411 23.4402 -0.00225
C 23.3539 22.00789 0.00071
C 22.11223 21.26606 -0.01107
C 22.13216 19.88616 -0.01586
C 23.39286 19.15908 -0.01971
C 22.18677 28.42856 0.02239
C 19.64658 19.84808 0.01511
C 19.68055 21.27562 0.00199
C 20.92563 21.98571 0.01087
C 17.22647 21.32693 0.00364
C 17.25885 19.89763 -0.00831
C 18.43142 19.17869 -0.02957
C 18.4459 17.77601 -0.04422
C 17.24043 17.06067 0.00654
C 17.23121 15.60248 -0.00703
C 17.24318 4.28194 -0.04076
C 17.25867 2.87847 -0.00652
C 18.47589 2.0812 0.0058
C 18.43269 0.70472 -0.00865
C 17.24968 0.01323 0.00675
C 19.65215 32.69481 -0.00311
C 20.89974 31.94399 0.00742
C 20.93246 30.501 -0.01594
C 19.6731 29.81875 0.0106
C 19.66593 28.40667 -0.01154
C 20.91452 27.70603 -0.01721
C 20.86573 26.30565 -0.02422
C 19.67447 25.51978 0.01277
C 19.66049 24.14258 0.00096
C 20.91533 23.43972 -0.01527
C 23.37397 17.72063 -0.02118
C 22.07007 17.03545 0.00733
C 22.14599 2.81241 -0.00178
C 23.3218 2.12026 0.00768
C 27.14409 29.87247 -0.00218
C 27.0328 28.42504 -0.01654
C 28.2862 27.66724 -0.00037
C 28.31542 26.27089 -0.0032
C 26.99411 25.56016 0.00622
C 27.01832 24.12473 -0.02815
C 28.26254 23.41363 -0.00942
C 28.25831 21.99403 0.00487
C 27.05831 21.27289 0.00826
C 26.99327 19.87251 -0.00294
C 28.28041 19.15897 0.00152
C 28.27527 17.76984 0.01257
C 27.01885 16.99905 0.02316
C 27.04589 15.6248 0.04185
C 28.2814 14.90789 0.00194
C 28.28739 13.49205 -0.00621
C 28.29533 10.65579 0.02611
C 28.2899 9.19545 0.02198
C 28.32819 6.3778 0.01094
C 28.28164 4.9607 0.00235
C 27.04043 4.24461 0.01495
C 28.34063 30.58536 -0.00802
C 28.29566 2.12486 0.01799
C 28.26189 31.92013 0.00195
C 24.61039 0.00243 0.04306
C 23.36431 0.75526 -0.0276
C 22.10865 0.02544 0.03005
C 24.5653 32.62881 -0.04078
C 25.83439 31.98245 0.02117
C 25.86208 30.55299 0.02737
C 24.62215 29.85951 -0.00498
C 24.58679 28.39066 0.00135
C 25.8264 27.69993 0.03102
C 25.80813 26.24776 0.02555
C 24.57446 25.55504 0.01423
C 24.58699 24.11004 -0.00285
C 25.82569 23.4134 -0.009
C 25.82748 21.97804 -0.01199
C 24.57223 21.32479 -0.00229
C 24.63395 19.88949 -0.00938
C 25.80482 19.21132 -0.0264
C 25.87927 17.78461 -0.01154
C 24.56045 17.04729 0.00684
C 24.5962 2.77779 -0.01052
C 25.86426 2.1301 -0.01679
C 25.81767 0.75501 0.00367
C 27.04904 32.64615 0.00996
C 2.46363 32.61148 -0.01979
