426
Graphene
C 0.04409 34.02565 0.01295
C 12.26186 24.20377 0.0402
C 13.59939 23.44912 0.00572
C 13.55278 22.01693 0.03592
C 12.3263 21.38425 0.00406
C 12.34775 19.91779 0.00943
C 13.50873 19.09163 0.02841
C 13.48675 17.7071 -0.01111
C 12.24782 16.91543 -0.01275
C 12.32936 15.5784 0.00985
C 13.56367 14.84473 -0.02245
C 12.25051 25.60894 -0.02759
C 13.50535 13.461 -0.00428
C 12.309 11.40622 -0.01536
C 13.53936 10.71965 -0.02689
C 13.50269 9.20118 -0.01046
C 12.30621 8.44916 -0.00891
C 12.28184 7.01397 0.02819
C 13.53632 6.25336 0.00165
C 13.49999 4.84936 -0.02971
C 12.29126 4.26469 0.02894
C 12.28836 2.80377 -0.01789
C 13.48747 2.08917 0.00444
C 12.27178 12.79672 0.03101
C 13.51035 26.38013 0.03589
C 13.47108 27.76168 -0.00033
C 12.21818 28.39019 -0.01062
C 11.11554 19.23833 -0.00482
C 11.05362 17.80208 -0.01384
C 9.80047 17.0949 0.03693
C 9.82052 15.69925 0.01745
C 11.02537 14.94515 0.00488
C 11.05896 13.52312 -0.01004
C 9.85943 12.844 -0.02896
C 9.86381 11.37952 -0.00131
C 11.092 10.68233 -0.01118
C 11.15977 9.19252 -0.014
C 9.93691 8.51126 0.02147
C 9.90103 7.14297 0.00373
C 11.08755 6.34068 -0.00191
C 10.98921 4.88955 0.00438
C 9.76822 4.24857 0.01291
C 9.76979 2.81133 0.00093
C 11.031 2.14495 0.00057
C 11.11231 0.70885 -0.01634
C 9.87877 0.04221 -0.00334
C 12.23349 32.68385 0.02339
C 13.49461 31.99185 0.01641
C 13.45088 30.60985 -0.00719
C 12.26607 29.88555 0.01364
C 13.58539 0.68687 -0.00925
C 9.86469 19.94078 0.02888
C 12.35966 34.07426 0.01877
C 15.94697 31.96977 -0.02162
C 15.99399 2.04255 0.00422
C 16.07721 0.72348 0.0351
C 14.80672 0.03552 -0.03113
C 17.19427 32.61228 0.02098
C 18.37096 31.87102 0.01848
C 18.42498 30.47896 -0.00619
C 17.21903 29.78649 -0.02162
C 17.14491 28.34782 0.00889
C 18.38537 27.64854 -0.00481
C 18.44319 26.2682 0.00979
C 14.71184 2.73677 0.00798
C 17.15859 25.55831 0.01443
C 18.41693 23.43754 -0.02815
C 18.34594 22.00519 -0.04147
C 17.14204 21.31052 -0.05302
C 17.19243 19.91579 0.00213
C 18.49044 19.25549 -0.00066
C 18.47284 17.7975 -0.00289
C 17.19953 17.05101 0.00028
C 17.18963 15.63568 -0.02213
C 18.4192 14.89424 0.03698
C 18.51754 13.54696 -0.00109
C 17.19921 24.19384 0.03505
C 14.74878 4.12656 0.00228
C 15.90338 4.99906 -0.00114
C 15.90784 6.46055 -0.02696
C 16.01606 30.52199 0.00415
C 14.72617 29.89951 -0.0014
C 14.70223 28.48048 0.02162
C 15.88783 27.71432 0.0076
C 15.8797 26.30265 0.01241
C 14.65744 25.65233 -0.01454
C 14.75441 24.18244 0.01945
C 15.9569 23.43668 0.01416
C 15.89332 22.02169 0.03542
C 14.65847 21.28572 0.02299
C 14.76687 19.81789 0.00244
C 15.96581 19.13751 -0.01717
C 15.99383 17.73124 0.05265
C 14.71798 17.0484 -0.01952
C 14.73816 15.61455 -0.02813
C 16.03077 14.90867 0.00374
C 16.03696 13.53376 0.00052
C 14.77409 12.7495 -0.03682
C 14.78877 11.38343 0.01965
C 15.99114 10.66572 0.02058
C 16.06005 9.23409 -0.01957
C 14.73331 8.53706 -0.0108
C 14.66447 7.09254 -0.00368
C 14.73485 32.7552 0.01363
C 9.8766 21.35003 0.00685
C 11.08848 22.00713 0.00895
C 11.06188 23.4973 0.00393
C 3.63354 2.1573 0.00211
C 3.63746 0.78197 -0.00449
C 2.45767 0.01228 -0.01979
C 4.95003 32.71177 0.02784
C 6.1208 31.95864 -0.01977
C 6.15034 30.56713 -0.00561
C 4.94169 29.76903 0.00208
C 4.95135 28.34372 0.01707
C 6.17023 27.73637 0.02769
C 6.1892 26.31516 -0.03291
C 2.44889 2.86971 0.0064
C 4.96347 25.64685 -0.04999
C 6.11418 23.44733 0.03284
C 6.16903 22.0464 -0.04307
C 4.90167 21.2928 0.03189
C 4.8983 19.91308 0.00031
C 6.13813 19.19744 -0.003
C 6.23399 17.73049 0.01402
C 4.97819 16.95236 0.02379
C 4.921 15.49134 0.00907
C 6.11667 14.8408 0.00643
C 6.15586 13.48222 -0.01509
C 4.94292 24.16165 0.04505
C 2.3687 4.24474 -0.00039
C 3.56981 5.00001 0.02728
C 3.71757 6.38175 0.00245
C 3.70725 30.50378 0.01218
C 2.43486 29.82048 -0.01471
C 2.49452 28.41347 -0.02827
C 3.68937 27.67159 0.01078
C 3.73103 26.25311 -0.00112
C 2.5073 25.51906 0.03345
C 2.45344 24.10125 0.00748
C 3.68659 23.46745 0.00662
C 3.66405 22.07905 -0.0154
C 2.43002 21.37912 -0.01299
C 2.39308 19.93148 -0.00407
C 3.67827 19.21451 0.01138
C 3.74946 17.76997 0.03278
C 2.53886 17.09444 -0.00177
C 2.4699 15.5735 0.04421
C 3.64971 14.86661 0.00088
C 3.55807 13.38639 0.00828
C 2.36351 12.65587 -0.02375
C 2.38299 11.32869 0.00558
C 3.6733 10.66486 -0.0059
C 3.60809 9.25719 -0.01386
C 2.42976 8.48621 -0.02805
C 2.47715 7.08809 0.00081
C 4.8129 12.75672 0.03267
C 4.90056 11.35445 0.02374
C 6.0982 10.68581 0.00402
C 6.11265 9.28275 0.0073
C 8.59874 13.54477 -0.03337
C 7.32677 12.8053 0.01227
C 7.35672 11.41178 0.00873
C 8.64865 10.72196 -0.00049
C 8.67699 9.32345 0.00848
C 7.37989 8.5901 -0.01303
C 7.39666 7.17396 -0.01378
C 8.63956 6.53065 0.02635
C 8.56524 5.06989 0.0127
C 7.29199 4.40566 0.01396
C 7.3081 2.94312 0.01849
C 8.51646 2.14703 -0.01142
C 8.614 0.72561 -0.00562
C 7.37443 0.03345 -0.00494
C 9.81006 32.74621 0.00054
C 11.06305 32.00872 0.03007
C 11.04018 30.58095 -0.00095
C 9.81909 29.84247 0.01572
C 9.80765 28.43866 -0.04848
C 11.00162 27.72556 -0.00892
C 11.07793 26.31766 -0.01362
C 9.8397 25.58404 -0.0008
C 9.83704 24.1376 0.0288
C 8.6351 14.92791 -0.00966
C 17.28891 12.81891 -0.00491
C 7.34444 15.65433 -0.02929
C 8.6 17.79347 -0.00077
C 4.89239 8.56792 0.0174
C 4.92764 7.18704 0.03828
C 6.14779 6.4595 0.01226
C 6.05921 5.00284 -0.00279
C 4.76798 4.21813 0.01996
C 4.89223 2.86588 -0.03996
C 6.14207 2.16839 0.01465
C 6.20976 0.77222 -0.00074
C 4.8756 0.07027 -0.00518
C 7.34841 32.66016 0.0086
C 8.63107 31.98009 -0.00643
C 8.64444 30.55036 0.017
C 7.36668 29.89517 -0.03113
C 7.37458 28.41084 -0.02566
C 8.5699 27.68873 -0.00094
C 8.62789 26.27013 0.02322
C 7.40435 25.59023 -0.00725
C 7.37896 24.09441 -0.05697
C 8.56525 23.42536 0.01087
C 8.61954 22.04861 -0.01343
C 7.35323 21.32516 0.00988
C 7.41167 19.86959 0.0276
C 8.63716 19.23262 0.01305
C 7.39154 17.03235 0.03368
C 17.26336 11.40714 0.03338
C 18.45015 10.7035 -0.0258
C 18.58561 9.28446 -0.0331
C 30.77529 14.89262 -0.01461
C 30.71512 13.53325 -0.02155
C 29.50868 12.84718 -0.00944
C 29.33993 11.39133 -0.03735
C 30.65132 10.58874 -0.00971
C 30.68837 9.20582 0.01518
C 29.49856 8.46406 0.01908
C 29.41005 7.07448 0.07705
C 30.73719 6.38343 0.0103
C 30.68924 4.90212 0.02108
C 29.49194 15.55766 -0.01303
C 29.47797 4.2474 0.00716
C 30.71512 2.09535 0.00346
C 30.79789 0.67639 0.01713
C 29.5096 34.0069 -0.01694
C 32.04853 32.64452 0.01428
C 33.22647 31.92439 -0.02142
C 33.1996 30.51125 0.0544
C 31.93107 29.78622 0.00026
C 32.02084 28.47844 0.00682
C 33.08807 27.55804 -0.01779
C 33.32183 26.1851 0.03794
C 29.43172 2.83878 0.00307
C 29.48916 17.02016 -0.0405
C 30.70862 17.75685 0.01705
C 30.77855 19.2379 0.0101
C 27.04065 21.42811 0.02198
C 27.04026 19.98168 0.01094
C 28.27145 19.2517 0.00235
C 28.33319 17.79386 0.01495
C 27.06539 17.00738 0.01259
C 27.0174 15.43742 0.01799
C 28.36441 14.76618 0.01699
C 28.15433 10.6805 -0.00416
C 28.3005 9.31819 0.01177
C 27.04922 8.45643 0.04266
C 27.01444 7.08004 0.01324
C 28.24476 6.3531 0.0014
C 28.26338 4.96781 0.00924
C 27.00836 4.19934 0.02326
C 27.03907 2.79674 0.00261
C 28.24595 2.07887 0.03265
C 28.28124 0.71749 -0.02049
C 27.04016 34.07939 -0.01854
C 29.49174 32.61922 -0.01415
C 30.75418 31.96493 -0.03039
C 30.74252 30.59555 0.01836
C 29.57056 29.90952 0.03531
C 29.51032 19.86654 -0.00669
C 33.181 23.51185 0.01927
C 32.99643 22.12229 0.01574
C 31.92395 21.15736 -0.02383
C 32.01224 19.85223 -0.01429
C 34.36364 24.1127 0.03076
C 1.20231 23.41863 0.00723
C 1.19343 22.07015 0.02712
C 34.38698 21.3709 -0.02213
C 34.40765 19.93099 0.01951
C 1.20424 19.23883 -0.01678
C 1.28429 17.78926 0.01223
C 0.04075 17.06646 0.00648
C 0.04827 15.62219 0.02114
C 1.26573 14.92769 -0.02957
C 1.17103 13.4897 0.00343
C 34.35249 12.84274 -0.02656
C 34.38276 11.31503 -0.02442
C 1.13817 10.56951 -0.00027
C 1.1401 9.16192 -0.00583
C 34.37883 8.48826 -0.02302
C 34.37348 7.06119 -0.02849
C 1.19417 6.36294 0.02931
C 1.11884 4.97836 0.00628
C 34.29437 4.21873 -0.0345
C 34.40949 2.78548 -0.00931
C 1.20925 2.12299 -0.00939
C 1.2468 0.67617 -0.00468
C 0.03428 25.52311 -0.05239
C 26.94849 28.33083 0.02611
C 1.27872 26.21188 -0.00598
C 0.00351 28.29362 -0.01037
C 33.23647 19.11088 -0.0136
C 33.23031 17.66337 0.00594
C 31.95323 17.03502 -0.02474
C 32.00014 15.63821 0.00369
C 33.22443 14.94289 0.00455
C 33.10009 13.47661 -0.00644
C 31.96774 12.72112 -0.01839
C 31.92488 11.35834 0.00137
C 33.1497 10.69581 0.00199
C 33.18066 9.19839 0.04381
C 31.90649 8.49454 0.02806
C 31.89869 7.06389 0.01504
C 33.18527 6.31169 -0.00069
C 33.10549 4.94883 0.04926
C 31.85784 4.17058 -0.03838
C 31.97945 2.73117 0.00349
C 33.2387 2.07311 -0.00323
C 33.26713 0.6987 -0.00841
C 32.04838 34.06229 0.0001
C 0.07969 32.63157 -0.02927
C 1.22463 31.8791 -0.01404
C 1.23726 30.47543 0.01027
C 34.4303 29.71425 0.01831
C 1.2672 27.71689 -0.00439
C 3.70616 31.91023 0.02426
C 27.09234 29.74259 -0.00621
C 28.23395 31.96923 0.04185
C 20.90044 13.47194 -0.00311
C 19.71903 12.79339 0.00742
C 19.63359 11.37631 -0.01594
C 20.88011 10.62318 0.0106
C 20.94251 9.16525 -0.01154
C 19.71894 8.54071 -0.01721
C 19.73214 7.13231 -0.02422
C 20.94426 6.42019 0.01277
C 20.92151 5.02109 0.00096
C 19.69874 4.24017 -0.01527
C 20.81815 14.89759 0.00675
C 19.67846 2.76799 0.01087
C 20.90636 0.68857 0.01511
C 19.61563 34.07513 -0.00478
C 22.09971 32.68471 -0.01662
C 23.36151 31.94096 -0.01185
C 23.36391 30.55909 0.01126
C 22.11178 29.88825 0.01852
C 22.11199 28.42975 -0.00381
C 23.3417 27.76048 0.03046
C 23.44767 26.24704 0.0296
C 22.2074 25.55351 0.03374
C 20.93633 2.15926 0.00199
C 19.67403 15.64378 -0.00865
C 19.64698 16.99536 0.0058
C 20.85592 17.76948 -0.00652
C 17.27391 8.49694 -0.00316
C 17.25128 7.10083 0.02188
C 18.44732 6.38191 -0.01979
C 18.41577 4.88166 0.02691
C 17.16048 4.27216 -0.01581
C 17.15126 2.86959 0.01452
C 18.37008 2.17342 0.04892
C 18.38537 0.69643 -0.00111
C 17.22475 34.00389 -0.03557
C 19.62935 32.67241 0.03754
C 20.82748 31.97419 0.01739
C 20.89755 30.54798 0.00755
C 19.64416 29.81042 -0.0054
C 19.60526 28.34441 0.00667
C 20.85371 27.71934 0.00143
C 20.94207 26.26895 -0.017
C 19.69141 25.44005 0.00364
C 19.63642 24.08559 -0.00831
C 20.87405 23.35215 -0.02957
C 20.87074 22.0037 -0.04422
C 19.62569 21.36222 0.00654
C 19.68686 19.94228 -0.00703
C 20.87561 19.1722 -0.04076
C 22.17247 24.15779 -0.02845
C 23.40976 23.44986 -0.03213
C 23.36956 21.93673 0.02239
C 22.11216 21.27199 0.01153
C 24.5843 24.26469 -0.0264
C 25.92739 22.01287 -0.01154
C 24.68692 21.40622 0.00684
C 24.629 19.97632 -0.01052
C 25.78674 19.26717 -0.01679
C 25.85238 17.69497 0.00367
C 24.57337 16.99341 0.04306
C 24.5486 15.5812 0.00996
C 25.69105 14.83611 0.00195
C 24.58689 12.87453 -0.00802
C 24.73875 11.40518 -0.00218
C 25.91373 10.61608 -0.01654
C 25.89266 9.29454 -0.00037
C 24.58989 8.60207 -0.0032
C 24.59309 7.20469 0.00622
C 25.79135 6.35305 -0.02815
C 25.83689 4.94702 -0.00942
C 24.59616 4.31637 0.00487
C 24.60824 2.85183 0.00826
C 25.76601 2.093 -0.00294
C 25.82536 0.70418 0.00152
C 24.58136 33.99678 0.01257
C 27.0517 32.65459 0.02316
C 24.62209 25.45409 -0.00938
C 28.27778 30.47943 0.00194
C 25.90275 27.69417 -0.00229
C 24.60958 29.79674 -0.009
C 22.19926 19.89366 0.02734
C 23.36001 19.18436 -0.0055
C 23.35644 17.72772 0.01515
C 22.12317 17.03906 -0.00225
C 22.06161 15.61319 0.00071
C 23.27897 14.90573 -0.01107
C 23.33263 13.45713 -0.01586
C 22.10756 12.74361 -0.01971
C 22.09515 11.31323 -0.02118
C 23.37536 10.70681 0.00733
C 23.34024 9.31334 -0.00178
C 22.1813 8.55653 0.00768
C 22.17115 7.07651 -0.0276
C 23.43765 6.43109 0.03005
C 23.39583 5.08743 -0.04078
C 22.1473 4.28741 0.02117
C 22.17915 2.85268 0.02737
C 23.3893 2.10138 -0.00498
C 23.41494 0.65472 0.00135
C 22.12935 0.05102 0.03102
C 24.61971 32.64504 0.02555
C 25.80914 31.90406 0.01423
C 25.83386 30.49055 -0.00285
C 24.59884 28.31452 -0.01199
C 2.50469 32.54597 0.00787
