364
Graphene
C 34.38382 0.01654 0.01295
C 9.76856 11.28143 0.00052
C 11.13232 10.63829 -0.03682
C 11.10336 9.27358 0.01965
C 9.87577 8.61389 0.02058
C 9.91912 7.1114 -0.01957
C 11.09735 6.33628 -0.0108
C 11.02879 4.94398 -0.00368
C 9.78586 4.2209 -0.02696
C 9.7687 12.7196 0.00374
C 9.8345 2.79812 -0.00114
C 11.09476 0.61754 0.00798
C 9.85155 0.04009 0.00422
C 12.3357 32.65806 0.0351
C 13.52551 31.99586 -0.03113
C 13.49478 30.50229 0.02098
C 12.29362 29.83228 0.01848
C 12.32403 28.37813 -0.00619
C 13.4502 27.50784 -0.02162
C 11.06938 2.11412 0.00228
C 11.02025 13.44048 -0.02813
C 11.05092 14.87122 -0.01952
C 9.74975 15.53335 0.05265
C 8.55044 2.20608 0.02894
C 8.59554 0.78194 -0.01789
C 7.31391 0.06074 0.00444
C 9.85284 32.66947 -0.00925
C 11.11676 31.95457 0.01877
C 11.06775 30.53693 0.01363
C 9.82886 29.87608 -0.02162
C 9.86508 28.45048 0.00415
C 11.03714 27.73529 -0.0014
C 11.01755 26.30083 0.02162
C 9.79266 25.6628 0.0076
C 9.90857 24.17255 0.01241
C 11.03472 23.37081 -0.01454
C 11.15447 22.00451 0.01945
C 9.93336 21.23551 0.01416
C 9.83907 19.90427 0.03542
C 11.10203 19.20568 0.02299
C 11.09266 17.69715 0.00244
C 9.88277 16.97639 -0.01717
C 12.13076 25.53587 0.00889
C 12.29654 19.81554 -0.00481
C 13.66933 17.71812 0.00979
C 12.41237 17.10869 0.01443
C 14.7923 12.91117 -0.03557
C 14.76027 11.41866 0.03754
C 15.93655 10.6299 0.01739
C 16.00469 9.20854 0.00755
C 14.75071 8.51151 -0.0054
C 14.74945 7.01219 0.00667
C 15.96197 6.39921 0.00143
C 15.98965 4.9528 -0.017
C 14.73569 4.20741 0.00364
C 14.72821 2.84163 -0.00831
C 15.97303 2.12349 -0.02957
C 15.99182 0.69008 -0.04422
C 14.70907 0.0202 0.00654
C 17.27219 32.53909 -0.00703
C 18.42432 31.86203 -0.04076
C 18.26144 13.45355 -0.00652
C 17.15161 12.74291 0.0058
C 17.18969 11.27648 -0.00865
C 18.39013 10.47017 0.00675
C 16.00818 13.56892 -0.00111
C 7.32392 2.89786 -0.02971
C 15.80762 14.96036 0.04892
C 14.74076 30.05738 -0.01581
C 12.27262 15.65948 0.03505
C 13.46642 14.95575 -0.02815
C 13.50415 13.53873 -0.04147
C 12.28228 12.79835 -0.05302
C 12.2997 11.41285 0.00213
C 13.55398 10.73193 -0.00066
C 13.55116 9.27947 -0.00289
C 12.30926 8.54943 0.00028
C 12.31451 7.11567 -0.02213
C 13.56365 6.37978 0.03698
C 13.52133 4.99009 -0.00109
C 12.23119 4.276 -0.00491
C 12.32006 2.86933 0.03338
C 13.50374 2.1538 -0.0258
C 13.51564 0.7392 -0.0331
C 12.35166 34.02984 -0.00316
C 14.80182 32.68002 0.02188
C 15.97159 31.90308 -0.01979
C 15.8709 30.44091 0.02691
C 14.66723 15.55894 0.01452
C 18.4886 9.05814 -0.00311
C 7.28093 4.30518 0.00165
C 8.65756 6.39498 -0.00891
C 3.68755 6.39045 -0.01303
C 3.71825 4.96674 -0.01378
C 2.45664 4.31794 0.02635
C 2.52264 2.8571 0.0127
C 3.687 2.19476 0.01396
C 3.62866 0.71334 0.01849
C 2.4032 34.03695 -0.01142
C 4.91053 32.77071 -0.00562
C 2.40336 7.11539 0.00848
C 6.12218 32.10265 -0.00494
C 4.83474 29.8624 0.03007
C 4.88755 28.44658 -0.00095
C 6.15879 27.75518 0.01572
C 6.18705 26.29927 -0.04848
C 4.97814 25.60699 -0.00892
C 4.93328 24.13441 -0.01362
C 6.13227 23.39028 -0.0008
C 6.11248 22.0307 0.0288
C 6.0431 30.62357 0.00054
C 2.42185 8.50717 -0.00049
C 3.61261 9.28039 0.00873
C 3.66414 10.7081 0.01227
C 3.62585 30.5227 0.0086
C 2.4222 29.82933 -0.00643
C 2.49794 28.35024 0.017
C 3.72592 27.6272 -0.03113
C 3.69209 26.21636 -0.02566
C 2.46153 25.59363 -0.00094
C 2.41933 24.2455 0.02322
C 3.64482 23.49983 -0.00725
C 3.72625 22.04939 -0.05697
C 2.48834 21.36475 0.01087
C 2.5137 19.90268 -0.01343
C 3.71981 19.1522 0.00988
C 3.75487 17.72285 0.0276
C 2.44393 16.978 0.01305
C 2.44348 15.61034 -0.00077
C 3.66577 14.98032 0.03368
C 3.63122 13.62035 -0.02929
C 2.44091 12.84699 -0.00966
C 2.45867 11.42667 -0.03337
C 4.92467 21.32868 0.00393
C 4.94627 19.83912 0.00895
C 6.22548 19.21573 0.00685
C 6.21459 17.84074 0.02888
C 8.50463 26.2448 -0.01062
C 7.3417 25.55458 -0.00033
C 7.404 24.11907 0.03589
C 8.65311 23.45698 -0.02759
C 8.68467 22.03535 0.0402
C 7.40505 21.39793 0.00572
C 7.44485 19.94328 0.03592
C 8.68238 19.21685 0.00406
C 8.69594 17.78577 0.00943
C 7.4641 17.0831 0.02841
C 7.41112 15.5979 -0.01111
C 8.57972 14.79664 -0.01275
C 8.51528 13.31662 0.00985
C 7.28279 12.73985 -0.02245
C 7.35903 11.37632 -0.00428
C 8.56176 10.62588 0.03101
C 8.6222 9.22743 -0.01536
C 7.39444 8.52235 -0.02689
C 7.39348 7.08513 -0.01046
C 8.59639 27.70682 0.01364
C 8.53411 4.93555 0.02819
C 7.31276 28.49314 -0.00719
C 8.55081 30.55528 0.02339
C 4.97943 17.12067 -0.00482
C 4.93459 15.71553 -0.01384
C 6.14863 15.01828 0.03693
C 6.12412 13.56382 0.01745
C 4.85577 12.88725 0.00488
C 4.89007 11.3979 -0.01004
C 6.10311 10.67409 -0.02896
C 6.11992 9.28194 -0.00131
C 4.92393 8.6231 -0.01118
C 4.92059 7.20961 -0.014
C 6.12548 6.44137 0.02147
C 6.12627 5.03255 0.00373
C 4.91127 4.21178 -0.00191
C 4.90885 2.86013 0.00438
C 6.12784 2.14725 0.01291
C 6.09848 0.7388 0.00093
C 4.86575 0.07774 0.00057
C 7.35323 32.71617 -0.01634
C 8.59686 31.97063 -0.00334
C 7.2705 29.89994 0.01641
C 17.20165 8.44564 0.00742
C 17.16677 7.07738 -0.01594
C 18.48754 6.34699 0.0106
C 29.40967 0.05091 0.00346
C 32.01397 32.69121 0.01713
C 33.19803 31.9606 -0.01694
C 33.15252 30.48314 0.01428
C 31.93337 29.83119 -0.02142
C 31.89154 28.41979 0.0544
C 33.18293 27.66517 0.00026
C 33.12381 26.28383 0.00682
C 30.67124 0.72498 0.00307
C 31.86608 25.55112 -0.01779
C 33.12329 23.43055 0.01927
C 33.21576 22.0651 0.01574
C 32.00149 21.21895 -0.02383
C 31.99127 19.87215 -0.01429
C 33.25602 19.18224 -0.0136
C 33.2856 17.74005 0.00594
C 31.99562 17.09756 -0.02474
C 31.9979 15.67017 0.00369
C 31.93355 24.1028 0.03794
C 30.67897 2.13071 0.00716
C 29.48417 2.91124 0.02108
C 29.46846 4.30192 0.0103
C 29.6604 24.13042 -0.02049
C 30.7722 23.35093 -0.01854
C 30.7741 21.94333 -0.01415
C 29.57831 21.37536 -0.03039
C 29.42823 20.03987 0.01836
C 30.76407 19.16368 0.03531
C 30.73087 17.76198 -0.00669
C 29.52862 17.04251 0.0101
C 29.53524 15.6033 0.01705
C 30.74563 14.91278 -0.0405
C 30.78039 13.50732 -0.01303
C 29.53491 12.77145 -0.01461
C 29.48995 11.33469 -0.02155
C 30.72121 10.61007 -0.00944
C 30.74549 9.17633 -0.03735
C 29.55955 8.49371 -0.00971
C 29.49717 7.14223 0.01518
C 30.70821 6.34983 0.01908
C 30.67037 4.92038 0.07705
C 33.19782 14.92719 0.00455
C 33.14569 13.46676 -0.00644
C 31.98928 12.69793 -0.01839
C 31.94556 11.35999 0.00137
C 0.01047 19.93358 0.01951
C 1.26261 19.14657 -0.01678
C 1.25326 17.74481 0.01223
C 0.0456 17.05706 0.00648
C 34.43187 15.53638 0.02114
C 1.15511 14.83043 -0.02957
C 1.18694 13.43821 0.00343
C 34.34462 12.80225 -0.02656
C 34.38676 11.33476 -0.02442
C 1.24676 10.72106 -0.00027
C 1.25144 9.29081 -0.00583
C 0.05931 8.60594 -0.02302
C 34.36529 7.14686 -0.02849
C 1.20246 6.41597 0.02931
C 1.24017 5.02553 0.00628
C 0.02278 4.31497 -0.0345
C 0.05471 2.86435 -0.00931
C 1.25613 2.12533 -0.00939
C 1.21483 0.73042 -0.00468
C 0.04045 21.37576 -0.02213
C 29.3683 25.46137 0.03265
C 1.26225 22.05646 0.02712
C 34.38273 24.22127 0.03076
C 33.20973 10.61705 0.00199
C 33.23432 9.20693 0.04381
C 31.92391 8.46331 0.02806
C 31.9405 7.04695 0.01504
C 33.16607 6.36781 -0.00069
C 33.14148 4.95982 0.04926
C 31.8865 4.21555 -0.03838
C 31.92959 2.82626 0.00349
C 33.26039 2.2061 -0.00323
C 33.21664 0.82901 -0.00841
C 31.96786 0.08329 0.0001
C 34.41435 32.67577 -0.02927
C 1.2173 31.94267 -0.01404
C 1.21976 30.50367 0.01027
C 34.39462 29.78159 0.01831
C 0.00294 28.38508 -0.01037
C 1.28563 27.73973 -0.00439
C 1.20817 26.27682 -0.00598
C 34.3205 25.56674 -0.05239
C 1.16312 23.45588 0.00723
C 30.69454 26.24281 0.00261
C 30.67723 27.71539 0.02326
C 29.4951 28.45282 0.00924
C 23.43232 32.00102 -0.0055
C 23.48508 14.81876 0.01515
C 23.30361 13.4957 -0.00225
C 22.06541 12.76181 0.00071
C 22.08579 11.36039 -0.01107
C 23.31356 10.64001 -0.01586
C 23.3586 9.2107 -0.01971
C 22.13849 8.4785 -0.02118
C 22.20059 7.04194 0.00733
C 23.44459 6.4521 -0.00178
C 23.36865 4.99721 0.00768
C 22.1091 4.21471 -0.0276
C 22.04484 2.77745 0.03005
C 23.25409 2.09289 -0.04078
C 23.29541 0.68238 0.02117
C 22.03805 34.04675 0.02737
C 24.59025 32.60614 -0.00498
C 25.84445 31.95742 0.00135
C 25.87199 30.63103 0.03102
C 22.19915 32.56645 0.02734
C 24.69622 15.30232 0.02555
C 19.55979 34.07587 0.01153
C 20.78765 2.12166 -0.03213
C 18.49586 4.94171 -0.01154
C 17.23139 4.33652 -0.01721
C 17.22349 2.89164 -0.02422
C 18.34322 2.06629 0.01277
C 18.37651 0.66868 0.00096
C 17.18345 33.99134 -0.01527
C 19.6737 32.54643 0.01087
C 20.88591 31.97236 0.00199
C 20.81555 13.39579 0.01511
C 19.56224 12.9051 -0.00478
C 19.66036 11.29722 -0.01662
C 20.86645 10.62209 -0.01185
C 20.89295 9.20036 0.01126
C 19.72437 8.4282 0.01852
C 19.69993 7.03071 -0.00381
C 20.89896 6.29533 0.03046
C 20.86314 4.86671 0.0296
C 19.63419 4.20481 0.03374
C 19.54217 2.76423 -0.02845
C 20.79042 0.63916 0.02239
C 3.66983 32.01646 -0.00518
C 25.88525 14.87328 0.01423
C 24.5471 12.77192 -0.009
C 28.28524 14.9543 0.00152
C 28.29705 13.47066 0.01257
C 27.09482 12.77274 0.02316
C 27.03402 11.33571 0.04185
C 28.30384 10.67786 0.00194
C 28.3047 9.24764 -0.00621
C 27.08096 8.53516 0.02611
C 27.13729 7.14202 0.02198
C 28.30743 6.43098 0.01094
C 28.23032 5.02596 0.00235
C 27.06464 4.27026 0.01495
C 26.9849 2.77847 0.01259
C 28.23066 2.1826 0.01799
C 28.20474 0.75233 0.01699
C 26.98922 0.05344 -0.00416
C 29.4597 32.67805 0.01177
C 30.73323 32.03387 0.04266
C 30.7249 30.60347 0.01324
C 29.48394 29.84998 0.0014
C 27.09574 15.70814 -0.00294
C 25.82145 13.44846 -0.00285
C 27.04301 17.09365 0.00826
C 28.47665 19.12445 -0.00942
C 24.52361 11.3537 -0.01199
C 25.90138 10.6211 -0.00229
C 25.84075 9.17547 -0.00938
C 24.66791 8.5608 -0.0264
C 24.61405 7.11091 -0.01154
C 25.99977 6.36099 0.00684
C 25.87693 4.97649 -0.01052
C 24.54827 4.28556 -0.01679
C 24.5029 2.83268 0.00367
C 25.68759 2.11415 0.04306
C 25.72598 0.73303 0.00996
C 24.53059 34.03107 0.00195
C 27.01873 32.68582 -0.00802
C 28.27623 31.89307 -0.00218
C 28.24539 30.47454 -0.01654
C 26.92097 29.74675 -0.00037
C 26.97934 28.40732 -0.0032
C 28.17972 27.65851 0.00622
C 28.32168 26.33732 -0.02815
C 28.23848 17.85539 0.00487
C 2.46479 32.62154 -0.00074
