289
Graphene
C 34.37672 0.01146 0.01295
C 13.51385 26.21243 -0.017
C 12.25446 25.59513 0.00364
C 12.31915 24.19281 -0.00831
C 13.48891 23.48833 -0.02957
C 13.42327 22.07849 -0.04422
C 12.24639 21.35522 0.00654
C 13.54682 27.6372 0.00143
C 12.24011 19.89118 -0.00703
C 13.41932 17.80529 -0.00652
C 12.24499 16.94351 0.0058
C 12.27357 15.47456 -0.00865
C 12.26005 12.78228 0.00675
C 13.68436 6.31349 -0.00311
C 13.61048 4.90749 0.00742
C 13.42102 19.11104 -0.04076
C 12.53524 4.15082 -0.01594
C 12.29181 28.38234 0.00667
C 13.61586 30.58418 0.00755
C 9.86032 21.3081 0.03338
C 9.85623 19.86231 -0.0258
C 11.08244 19.12615 -0.0331
C 11.01293 17.72915 -0.00316
C 9.78279 17.01959 0.02188
C 9.82538 15.56465 -0.01979
C 12.39127 29.78786 -0.0054
C 11.03048 14.9356 0.02691
C 9.83161 12.98944 0.01452
C 11.04489 2.04871 0.04892
C 11.10496 0.68167 -0.00111
C 9.86358 34.027 -0.03557
C 12.32173 32.65188 0.03754
C 13.56094 31.93921 0.01739
C 11.05456 13.41362 -0.01581
C 11.07363 22.04777 -0.00491
C 12.31075 2.83463 0.0106
C 13.5784 0.68048 -0.01721
C 14.80707 2.80092 0.02239
C 16.09381 2.14277 0.01153
C 16.05945 0.7499 0.02734
C 14.87699 0.01255 -0.0055
C 17.28526 32.68115 0.01515
C 18.50848 31.9272 -0.00225
C 14.88979 4.13627 -0.03213
C 18.45108 30.53255 0.00071
C 17.21242 28.48667 -0.01586
C 18.42935 27.84572 -0.01971
C 18.2591 26.49866 -0.02118
C 17.38978 25.45616 0.00733
C 17.16261 24.15442 -0.00178
C 17.32519 2.71459 0.00768
C 17.20975 29.84452 -0.01107
C 13.58691 2.10415 -0.01154
C 14.65559 17.12217 -0.02845
C 15.81058 19.32785 0.0296
C 12.26188 34.07203 -0.02422
C 14.7808 32.65741 0.01277
C 15.97599 31.94251 0.00096
C 15.99642 30.54498 -0.01527
C 14.78344 29.82113 0.01087
C 14.72099 28.39207 0.00199
C 15.68894 17.9378 0.03374
C 15.97854 27.71732 0.01511
C 14.79248 25.54109 -0.01662
C 14.76414 24.10284 -0.01185
C 16.10337 23.33613 0.01126
C 15.92801 21.95671 0.01852
C 14.66855 21.30865 -0.00381
C 14.61878 19.88105 0.03046
C 16.10023 26.23601 -0.00478
C 11.08533 23.43212 -0.00109
C 9.82331 24.16014 0.03698
C 9.73948 25.56034 -0.02213
C 3.62153 0.78971 0.00444
C 2.42012 0.01936 -0.00925
C 4.9389 32.74332 0.01877
C 6.21674 32.05782 0.01363
C 6.22449 30.61134 -0.02162
C 5.01905 29.87323 0.00415
C 2.41501 12.73275 -0.01789
C 4.95827 28.42101 -0.0014
C 6.16037 26.26147 0.0076
C 4.91765 25.6151 0.01241
C 4.9067 24.17272 -0.01454
C 6.09611 23.43516 0.01945
C 6.14352 22.01044 0.01416
C 4.87937 21.2994 0.03542
C 6.15281 27.69758 0.02162
C 4.83524 19.92206 0.02299
C 3.5908 13.46462 0.02894
C 2.44687 15.59858 0.00165
C 3.79993 30.53313 0.00406
C 2.52536 29.87095 0.00943
C 2.50137 28.44475 0.02841
C 3.69707 27.66018 -0.01111
C 3.65652 26.32377 -0.01275
C 2.39096 25.62479 0.00985
C 3.67055 14.83532 -0.02971
C 2.42345 24.18471 -0.02245
C 3.6977 22.04894 0.03101
C 2.46588 21.35669 -0.01536
C 2.44799 19.93349 -0.02689
C 3.63843 19.14038 -0.01046
C 3.58426 17.73377 -0.00891
C 2.37833 17.00855 0.02819
C 3.6565 23.47788 -0.00428
C 6.04124 19.24019 0.00244
C 6.0779 17.76797 -0.01717
C 4.76922 17.06834 0.05265
C 8.54055 17.76384 -0.00619
C 7.32305 16.9914 -0.02162
C 7.30883 15.58086 0.00889
C 8.50871 14.95443 -0.00481
C 8.56364 13.55786 0.00979
C 8.74257 0.73854 0.01443
C 8.54011 19.18119 0.01848
C 7.38836 0.24306 0.03505
C 11.1207 31.90002 -0.04147
C 11.10175 30.47922 -0.05302
C 9.85155 29.81127 0.00213
C 9.8174 28.39856 -0.00066
C 11.00579 27.67191 -0.00289
C 10.99385 26.24277 0.00028
C 9.90599 32.66637 -0.02815
C 7.27354 19.91579 0.02098
C 7.36279 21.27683 -0.03113
C 8.65522 21.95092 0.0351
C 4.77731 15.62564 -0.01952
C 6.1058 14.946 -0.02813
C 6.0295 13.44318 0.00374
C 6.15243 0.70987 0.00052
C 4.92267 0.19737 -0.03682
C 7.41472 32.7147 0.01965
C 8.66794 32.00275 0.02058
C 8.62186 30.55309 -0.01957
C 7.4102 29.81126 -0.0108
C 7.36568 28.36409 -0.00368
C 8.60204 27.66238 -0.02696
C 8.53696 26.26045 -0.00114
C 7.34055 25.50132 0.00228
C 7.35826 24.00271 0.00798
C 8.62423 23.38097 0.00422
C 18.61055 2.00632 -0.0276
C 3.73558 31.96082 0.03592
C 18.46056 0.61946 0.03005
C 19.67909 32.70815 0.02117
C 33.22626 21.96464 -0.0136
C 31.98307 21.23879 0.00594
C 31.90872 19.87784 -0.02474
C 33.15329 19.14657 0.00369
C 33.11407 17.73255 0.00455
C 31.86857 17.0271 -0.00644
C 33.1623 23.42352 -0.01429
C 31.87578 15.62163 -0.01839
C 33.20191 13.57816 0.00199
C 31.90141 12.86045 0.04381
C 32.01682 11.31198 0.02806
C 33.21825 10.70507 0.01504
C 33.11728 9.29897 -0.00069
C 31.97274 8.52979 0.04926
C 33.17075 14.96161 0.00137
C 32.01556 7.08217 -0.03838
C 31.94425 24.15548 -0.02383
C 33.15871 26.31348 0.01927
C 29.46208 7.23348 0.0103
C 30.77467 6.50763 0.02108
C 30.70158 5.08793 0.00716
C 29.38419 4.44599 0.00307
C 29.5 2.98395 0.00346
C 30.63894 2.17814 0.01713
C 31.89575 25.58129 0.01574
C 30.65813 0.78263 -0.01694
C 31.89036 32.72343 -0.02142
C 33.18242 32.05659 0.0544
C 33.18922 30.65148 0.00026
C 31.96829 29.93089 0.00682
C 31.93065 28.48698 -0.01779
C 33.16985 27.79402 0.03794
C 29.44096 0.04103 0.01428
C 29.45072 8.62629 0.07705
C 33.2245 6.38292 0.00349
C 31.87856 4.28976 -0.00841
C 1.16922 17.7665 -0.02957
C 34.37765 17.08054 0.00343
C 34.41067 15.63157 -0.02656
C 1.18097 14.90842 -0.02442
C 1.22346 13.46353 -0.00027
C 0.00132 12.78983 -0.00583
C 1.1842 19.20227 0.02114
C 0.00521 11.39548 -0.02302
C 34.24834 8.4951 0.02931
C 34.31869 7.17811 0.00628
C 34.37381 4.2618 -0.0345
C 0.00807 2.90699 -0.00931
C 1.19869 2.1106 -0.00939
C 1.1809 0.684 -0.00468
C 1.18157 10.67801 -0.02849
C 33.11778 4.97535 -0.00323
C 34.37562 19.85336 0.00648
C 1.25771 22.03413 -0.01678
C 31.88844 2.88016 0.0001
C 33.1792 2.19174 -0.02927
C 33.12019 0.77857 -0.01404
C 31.85588 0.06905 0.01027
C 0.00232 32.68279 0.01831
C 1.2618 32.08 -0.01037
C 0.01157 21.29768 0.01223
C 1.235 30.56215 -0.00439
C 0.03567 28.43125 -0.05239
C 1.25745 27.68857 0.03076
C 1.16627 26.3216 0.00723
C 34.35657 25.62848 0.02712
C 34.40999 24.1566 -0.02213
C 1.20514 23.41507 0.01951
C 0.00829 29.84706 -0.00598
C 30.7341 9.21297 0.01908
C 30.79353 10.55196 0.01518
C 29.6325 11.27765 -0.00971
C 25.85578 31.87797 0.00996
C 25.85386 30.49336 0.00195
C 24.65334 29.80185 -0.00802
C 24.65716 28.40324 -0.00218
C 25.8252 27.57413 -0.01654
C 25.81483 26.17073 -0.00037
C 24.66804 32.63801 0.04306
C 24.52541 2.82938 -0.0032
C 25.74381 0.72921 -0.02815
C 24.55788 0.00128 -0.00942
C 27.02418 32.63883 0.00487
C 28.22353 31.90599 0.00826
C 28.20738 30.45731 -0.00294
C 26.9906 29.74089 0.00152
C 25.70267 2.16508 0.00622
C 27.04375 28.31438 0.01257
C 22.05907 0.07914 0.00367
C 23.41591 2.04011 -0.01052
C 20.93492 32.00319 0.02737
C 20.96881 30.58699 -0.00498
C 19.69375 29.92045 0.00135
C 19.71456 28.52919 0.03102
C 20.87367 27.86795 0.02555
C 20.65189 2.14031 0.01423
C 23.33387 0.70248 -0.01679
C 20.80039 0.73204 -0.00285
C 22.15895 32.66338 -0.01199
C 23.32899 31.94426 -0.00229
C 23.41091 30.49063 -0.00938
C 22.11281 29.78918 -0.0264
C 22.15457 28.3579 -0.01154
C 23.37215 27.86748 0.00684
C 19.6561 0.0028 -0.009
C 28.28952 27.65629 0.02316
C 28.33003 26.20054 0.04185
C 27.10141 25.58149 0.00194
C 30.68543 26.3498 -0.01854
C 29.4643 25.45596 -0.01415
C 29.44588 24.04251 -0.03039
C 30.73504 23.4042 0.01836
C 30.81034 22.03416 0.03531
C 29.42812 21.51246 -0.00669
C 30.70425 27.7067 -0.02049
C 29.30114 20.07334 0.0101
C 30.61106 17.77391 -0.0405
C 29.41247 16.97656 -0.01303
C 29.45647 15.57644 -0.01461
C 30.6507 14.84495 -0.02155
C 30.63729 13.45447 -0.00944
C 29.35961 12.6128 -0.03735
C 30.60696 19.17532 0.01705
C 29.49643 28.43348 0.03265
C 29.4896 29.84522 0.00261
C 30.76417 30.59583 0.02326
C 28.19827 23.22315 -0.00621
C 28.17145 19.24499 0.02611
C 28.24348 17.82348 0.02198
C 27.12715 17.00746 0.01094
C 28.21443 14.92131 0.00235
C 28.36825 13.50239 0.01495
C 28.35526 6.49572 0.01259
C 28.06624 5.13101 0.01799
C 27.12148 4.19013 0.01699
C 26.99696 2.85588 -0.00416
C 28.26778 2.20226 0.01177
C 28.24322 0.72743 0.04266
C 26.94835 0.05049 0.01324
C 29.46052 32.69691 0.0014
C 30.69466 32.04115 0.00924
C 17.2341 34.03861 -0.04078
C 2.53913 32.71653 0.00572
