351
Graphene
C 0.05841 34.01099 0.01295
C 12.29112 0.02704 0.00228
C 14.72082 32.47189 0.00798
C 15.97908 31.97216 0.00422
C 14.77059 11.40625 0.0351
C 15.88263 10.55492 -0.03113
C 15.95242 9.10211 0.02098
C 14.69013 8.57864 0.01848
C 14.68522 7.16426 -0.00619
C 13.57823 0.67325 -0.00114
C 15.97448 6.42928 -0.02162
C 14.73979 4.26785 -0.00481
C 14.78995 2.828 0.00979
C 16.03563 2.05028 0.01443
C 15.97614 0.69273 0.03505
C 14.78605 33.98098 -0.02815
C 17.18027 32.73567 -0.04147
C 18.35067 31.86913 -0.05302
C 18.4334 30.50732 0.00213
C 15.99878 5.01133 0.00889
C 18.4133 13.36368 -0.00066
C 13.55559 2.09655 -0.02696
C 12.32852 4.30104 -0.0108
C 9.86457 8.5604 0.0076
C 9.86608 7.16575 0.01241
C 11.07426 6.41257 -0.01454
C 11.10458 4.93578 0.01945
C 9.87292 4.30993 0.01416
C 9.93345 2.89268 0.03542
C 11.09986 2.1222 0.02299
C 10.98862 0.72144 0.00244
C 12.36639 2.85192 -0.00368
C 9.78713 34.04433 -0.01717
C 13.44716 31.89782 -0.01952
C 12.2409 11.44743 -0.02813
C 13.49521 10.77611 0.00374
C 13.53378 9.37525 0.00052
C 12.31073 8.56029 -0.03682
C 12.33176 7.11514 0.01965
C 13.53834 6.47181 0.02058
C 13.49172 5.02329 -0.01957
C 12.26389 32.74756 0.05265
C 11.09901 9.24412 0.02162
C 17.22771 12.73311 -0.00289
C 18.34729 10.62088 -0.02213
C 20.93192 6.32774 0.00364
C 20.86015 4.96385 -0.00831
C 19.66135 4.23979 -0.02957
C 19.65093 2.79669 -0.04422
C 20.90775 2.05374 0.00654
C 20.84827 0.68694 -0.00703
C 19.6568 33.96338 -0.04076
C 22.05991 32.63457 -0.00652
C 19.70361 7.13341 -0.017
C 23.36064 31.92277 0.0058
C 22.13733 29.82511 0.00675
C 22.10748 28.32779 -0.00311
C 23.24812 27.52379 0.00742
C 23.31769 26.11975 -0.01594
C 23.39342 23.34336 0.0106
C 23.51027 21.99207 -0.01154
C 23.33775 19.37429 -0.01721
C 23.21877 17.90227 -0.02422
C 23.4113 30.57568 -0.00865
C 17.08823 11.39039 0.00028
C 19.69509 8.59399 0.00143
C 20.89417 10.69707 -0.0054
C 18.43578 9.23512 0.03698
C 17.28661 8.46847 -0.00109
C 17.28196 7.06476 -0.00491
C 18.52297 6.32684 0.03338
C 18.42002 4.98793 -0.0258
C 17.26172 4.28729 -0.0331
C 17.25116 2.83072 -0.00316
C 18.43684 2.06782 0.02188
C 20.93559 9.3027 0.00667
C 18.46829 0.64595 -0.01979
C 19.57489 32.55475 -0.01581
C 20.85879 31.8856 0.01452
C 20.83064 30.5308 0.04892
C 19.64528 29.83246 -0.00111
C 20.74175 14.9786 -0.03557
C 20.84889 13.52483 0.03754
C 19.6371 12.77798 0.01739
C 19.66391 11.36087 0.00755
C 17.2534 0.03107 0.02691
C 22.16354 17.05448 0.01277
C 10.97934 10.71312 -0.0014
C 9.72579 12.84975 -0.02162
C 2.41768 7.1236 0.01572
C 3.71388 6.42334 -0.04848
C 3.7122 5.00295 -0.00892
C 2.48954 4.31216 -0.01362
C 2.43696 2.85152 -0.0008
C 3.63215 2.16748 0.0288
C 3.67896 0.68789 0.00393
C 2.47286 0.02903 0.00895
C 2.45876 8.56398 -0.00095
C 4.91647 32.70388 0.00685
C 5.92062 30.6984 -0.00482
C 4.79168 29.96997 -0.01384
C 4.90884 28.46342 0.03693
C 6.19901 27.73933 0.01745
C 6.04547 26.34913 0.00488
C 4.97382 25.46631 -0.01004
C 4.91245 24.00949 -0.02896
C 4.9187 21.41442 -0.00131
C 6.0858 32.12931 0.02888
C 4.98855 19.995 -0.01118
C 3.69885 9.25032 0.03007
C 2.43946 11.34169 -0.00494
C 3.59672 30.64494 0.01305
C 2.43846 29.83746 -0.00077
C 2.4759 28.38343 0.03368
C 3.73021 27.67076 -0.02929
C 3.75105 26.23905 -0.00966
C 2.44048 25.66475 -0.03337
C 2.33311 24.28052 0.01227
C 3.62596 23.4759 0.00873
C 3.66745 10.64471 0.00054
C 3.61165 22.03378 -0.00049
C 2.44208 19.86156 -0.01303
C 3.72061 19.17787 -0.01378
C 3.65018 17.81492 0.02635
C 2.41182 17.11797 0.0127
C 2.3388 15.77038 0.01396
C 3.66603 14.96334 0.01849
C 3.57187 13.54414 -0.01142
C 2.48318 12.78444 -0.00562
C 2.40025 21.29004 0.00848
C 9.86077 11.48246 0.00415
C 6.07903 18.98868 -0.014
C 4.89692 16.97903 0.00373
C 8.55984 13.53337 -0.01275
C 7.34691 12.79221 0.00985
C 7.35401 11.33687 -0.02245
C 8.64067 10.66917 -0.00428
C 8.67799 9.24382 0.03101
C 7.40744 8.60711 -0.01536
C 7.37554 7.20839 -0.02689
C 8.54288 6.49947 -0.01046
C 7.46898 15.51613 -0.01111
C 8.60359 5.09241 -0.00891
C 7.40694 2.85658 0.00165
C 8.72417 2.17273 -0.02971
C 8.65165 0.79074 0.02894
C 7.40986 0.11653 -0.01789
C 9.7686 32.63504 0.00444
C 11.07892 31.93094 -0.00925
C 10.78964 30.5287 0.01877
C 9.55794 29.95591 0.01363
C 7.42458 4.4132 0.02819
C 6.0998 17.61011 0.02147
C 7.3815 28.58909 0.02841
C 8.45803 30.64108 0.00406
C 4.91577 15.67745 -0.00191
C 6.19651 14.93581 0.00438
C 6.15614 13.44489 0.01291
C 4.83087 12.8085 0.00093
C 4.88022 11.36166 0.00057
C 6.09746 10.67074 -0.01634
C 6.06184 9.25298 -0.00334
C 4.92827 8.54904 0.02339
C 7.1772 29.99288 0.00943
C 4.87959 7.1478 0.01641
C 6.1865 4.99957 0.01364
C 5.00146 4.22853 -0.01062
C 4.92122 2.85027 -0.00033
C 6.19982 2.2072 0.03589
C 6.18605 0.81298 -0.02759
C 4.88406 0.04243 0.0402
C 7.34472 32.83749 0.00572
C 8.51365 32.0495 0.03592
C 6.14705 6.49489 -0.00719
C 3.64064 32.07265 0.0276
C 21.99114 15.7232 0.00096
C 23.32125 13.61838 0.01087
C 33.13368 31.89896 -0.01694
C 33.18616 30.54844 0.01428
C 31.96576 29.84946 -0.02142
C 31.91376 28.49549 0.0544
C 33.12348 27.70699 0.00026
C 33.12839 26.33134 0.00682
C 31.9166 25.70357 -0.01779
C 31.90205 24.1902 0.03794
C 31.98602 32.69328 0.01713
C 33.14966 23.49913 0.01927
C 31.93936 21.40696 -0.02383
C 31.89484 19.97954 -0.01429
C 33.1509 19.25338 -0.0136
C 33.27995 17.76931 0.00594
C 31.97873 17.04661 -0.02474
C 31.96619 15.69756 0.00369
C 33.13684 14.95485 0.00455
C 33.16489 13.55555 -0.00644
C 33.12846 22.07536 0.01574
C 31.9675 12.75337 -0.01839
C 29.52768 34.02867 0.00346
C 30.74854 2.10318 0.00716
C 29.44092 21.39485 -0.03039
C 29.46329 19.94976 0.01836
C 30.75375 19.27262 0.03531
C 30.70136 17.82959 -0.00669
C 29.43141 17.1179 0.0101
C 29.45105 15.6819 0.01705
C 30.65368 14.92711 -0.0405
C 30.68407 13.47364 -0.01303
C 30.71207 0.73413 0.00307
C 29.43986 12.71025 -0.01461
C 30.74989 10.58165 -0.00944
C 30.76654 9.13366 -0.03735
C 29.56848 8.51059 -0.00971
C 29.50418 7.08878 0.01518
C 30.76006 6.27767 0.01908
C 30.78525 4.86571 0.07705
C 29.57022 4.22572 0.0103
C 29.49067 2.79491 0.02108
C 29.48901 11.31327 -0.02155
C 30.70755 22.05775 -0.01415
C 31.94058 11.39093 0.00137
C 33.25305 9.17025 0.04381
C 1.15805 19.24087 -0.01678
C 1.20791 17.80921 0.01223
C 0.00922 17.05346 0.00648
C 34.39464 15.66307 0.02114
C 1.17342 14.92853 -0.02957
C 1.2376 13.45009 0.00343
C 34.42748 12.82271 -0.02656
C 34.41313 11.33633 -0.02442
C 34.36568 19.97707 0.01951
C 1.19323 10.67009 -0.00027
C 0.0704 8.51121 -0.02302
C 0.02756 7.04411 -0.02849
C 1.19924 6.40121 0.02931
C 1.24136 5.03126 0.00628
C 0.03214 4.26755 -0.0345
C 0.06557 2.8599 -0.00931
C 1.23792 2.11048 -0.00939
C 1.28527 0.69842 -0.00468
C 1.28026 9.2954 -0.00583
C 33.1454 10.63714 0.00199
C 0.0075 21.38428 -0.02213
C 1.11508 23.38179 0.00723
C 31.97826 8.48691 0.02806
C 31.94454 7.02713 0.01504
C 33.18155 6.37759 -0.00069
C 33.2595 4.93993 0.04926
C 32.0542 4.17186 -0.03838
C 32.00101 2.76675 0.00349
C 33.26838 2.09009 -0.00323
C 33.30942 0.71476 -0.00841
C 1.24144 21.95098 0.02712
C 32.03006 34.02821 0.0001
C 1.16845 31.97747 -0.01404
C 1.2413 30.60564 0.01027
C 34.41831 29.84969 0.01831
C 34.39155 28.42447 -0.01037
C 1.16353 27.72061 -0.00439
C 1.1693 26.37084 -0.00598
C 34.33539 25.57115 -0.05239
C 34.34509 24.16517 0.03076
C 34.40872 32.61075 -0.02927
C 23.24128 14.96663 -0.01527
C 30.69843 23.52686 -0.01854
C 29.48867 25.57156 0.03265
C 25.82165 23.42577 -0.01971
C 25.75252 22.02072 -0.02118
C 24.56876 21.21244 0.00733
C 24.63855 19.81387 -0.00178
C 25.88135 19.17688 0.00768
C 25.76768 17.76191 -0.0276
C 24.46505 17.10786 0.03005
C 24.44618 15.68482 -0.04078
C 24.55764 24.06971 -0.01586
C 25.66098 14.97714 0.02117
C 24.53136 12.8584 -0.00498
C 24.61259 11.41752 0.00135
C 25.82229 10.61685 0.03102
C 25.83146 9.22691 0.02555
C 24.56611 8.49468 0.01423
C 24.60897 7.02994 -0.00285
C 25.86348 6.26251 -0.009
C 25.8917 4.88451 -0.01199
C 25.74797 13.56465 0.02737
C 24.61401 4.20342 -0.00229
C 24.56417 25.52246 -0.01107
C 25.74955 27.71316 -0.00225
C 22.15806 12.80454 0.00199
C 22.15203 11.39439 0.01511
C 23.39344 10.6386 -0.00478
C 23.33246 9.24655 -0.01662
C 22.14414 8.53419 -0.01185
C 22.06551 7.1352 0.01126
C 23.36212 6.39459 0.01852
C 23.38762 5.00934 -0.00381
C 25.78972 26.23595 0.00071
C 22.16101 4.27704 0.03046
C 23.36871 2.05917 0.03374
C 23.23887 0.66774 -0.02845
C 22.04441 34.01849 -0.03213
C 24.60891 32.64045 0.02239
C 25.80639 31.89777 0.01153
C 25.74547 30.53353 0.02734
C 24.56521 29.74708 -0.0055
C 24.48685 28.37674 0.01515
C 22.17184 2.81471 0.0296
C 29.44856 24.22902 -0.02049
C 24.57032 2.82424 -0.00938
C 25.76126 0.62567 -0.01154
C 28.25979 10.62261 0.00194
C 28.26361 9.20132 -0.00621
C 27.04114 8.46611 0.02611
C 27.08119 7.05925 0.02198
C 28.30047 6.39724 0.01094
C 28.26849 4.92306 0.00235
C 27.08715 4.17618 0.01495
C 27.10067 2.74588 0.01259
C 27.00582 11.38805 0.04185
C 28.32962 2.10182 0.01799
C 27.07039 34.03125 -0.00416
C 29.49089 32.61625 0.01177
C 30.69669 31.98246 0.04266
C 30.71554 30.59391 0.01324
C 29.39888 29.84877 0.0014
C 29.34839 28.46042 0.00924
C 30.62372 27.78097 0.02326
C 30.61821 26.34493 0.00261
C 28.29645 0.69497 0.01699
C 25.78603 2.05612 -0.0264
C 26.97303 12.84477 0.02316
C 28.17623 14.95435 0.00152
C 24.5183 34.06977 0.00684
C 27.09788 32.64145 -0.01052
C 28.28618 31.88944 -0.01679
C 28.19894 30.54105 0.00367
C 26.95866 29.75608 0.04306
C 26.94367 28.39943 0.00996
C 28.12967 27.69998 0.00195
C 28.21901 26.24549 -0.00802
C 28.21045 13.42866 0.01257
C 27.02632 25.55214 -0.00218
C 28.23819 23.4913 -0.00037
C 28.23698 22.07173 -0.0032
C 27.00971 21.33399 0.00622
C 27.06564 19.92234 -0.02815
C 28.19908 19.16757 -0.00942
C 28.24426 17.77578 0.00487
C 26.89307 17.00777 0.00826
C 26.95772 15.58094 -0.00294
C 27.06393 24.16095 -0.01654
C 2.42441 32.71133 0.00988
