335
Graphene
C 34.43091 0.01201 0.01295
C 10.976 9.21115 0.00979
C 9.78036 8.58247 0.01443
C 9.7904 7.16589 0.03505
C 10.96245 6.48327 -0.02815
C 10.9875 5.02494 -0.04147
C 9.79152 4.28971 -0.05302
C 9.8624 2.85661 0.00213
C 11.04372 2.0665 -0.00066
C 11.07743 0.69735 -0.00289
C 9.83175 34.0392 0.00028
C 12.41773 32.60871 -0.02213
C 13.63507 31.95317 0.03698
C 13.61318 30.49459 -0.00109
C 12.32373 29.90193 -0.00491
C 12.37906 28.3517 0.03338
C 13.55974 27.80628 -0.0258
C 12.06531 12.49655 -0.0331
C 11.08517 10.64152 -0.00481
C 12.29039 11.25591 -0.00316
C 9.82199 11.38594 0.00889
C 11.01187 13.30466 -0.00619
C 7.30376 8.65749 0.00374
C 7.35742 7.18954 0.00052
C 8.66789 6.4784 -0.03682
C 8.63263 5.06673 0.01965
C 7.421 4.38739 0.02058
C 7.41173 2.95592 -0.01957
C 8.6308 2.16401 -0.0108
C 8.58741 0.73011 -0.00368
C 7.37851 0.021 -0.02696
C 9.83274 32.61524 -0.00114
C 11.12948 31.95641 0.00228
C 11.13349 30.55838 0.00798
C 9.8648 29.80374 0.00422
C 9.85157 28.43971 0.0351
C 11.14808 27.71529 -0.03113
C 11.0802 26.33104 0.02098
C 9.88648 25.68014 0.01848
C 9.79831 12.84178 -0.02162
C 8.51574 9.31872 -0.02813
C 13.55052 10.5719 0.02188
C 12.31995 8.53044 0.02691
C 16.0034 0.68712 -0.00865
C 14.72398 0.03523 0.00675
C 17.25674 32.71933 -0.00311
C 18.44642 31.94549 0.00742
C 18.45703 30.43946 -0.01594
C 17.2169 29.77697 0.0106
C 17.19712 28.43959 -0.01154
C 18.43248 27.81455 -0.01721
C 18.32808 2.12999 -0.02422
C 18.44055 0.80681 0.01277
C 17.26653 0.00779 0.00096
C 19.65621 32.69774 -0.01527
C 20.88555 31.9363 0.01087
C 20.84938 30.50302 0.00199
C 19.66409 29.82469 0.01511
C 19.72473 28.14592 -0.00478
C 20.95631 27.49676 -0.01662
C 16.12472 2.16852 0.0058
C 13.61045 9.07333 -0.01979
C 14.91241 2.91469 -0.00652
C 14.7586 6.98013 -0.00703
C 12.28413 7.08094 -0.01581
C 13.54235 6.37668 0.01452
C 13.45714 4.98433 0.04892
C 12.2367 4.27856 -0.00111
C 12.24549 2.7746 -0.03557
C 13.51019 2.18139 0.03754
C 13.57278 0.78036 0.01739
C 12.3563 0.0059 0.00755
C 14.81781 32.68427 -0.0054
C 16.03207 32.01648 0.00667
C 16.03467 30.53634 0.00143
C 14.83502 29.78179 -0.017
C 14.74021 28.47868 0.00364
C 14.70236 11.34611 -0.00831
C 15.80028 10.48684 -0.02957
C 16.02185 9.13247 -0.04422
C 14.9398 8.32053 0.00654
C 14.62265 4.22116 -0.04076
C 20.85255 2.15713 -0.01185
C 8.49918 10.72393 -0.01952
C 7.37923 12.90266 -0.01717
C 2.42078 8.48157 -0.01004
C 2.45088 7.06122 -0.02896
C 3.65033 6.38365 -0.00131
C 3.64725 4.94214 -0.01118
C 2.40985 4.21326 -0.014
C 2.44934 2.75457 0.02147
C 3.68573 2.09876 0.00373
C 3.76203 0.71272 -0.00191
C 2.48663 0.01957 0.00438
C 4.90747 32.70949 0.01291
C 6.1932 32.0036 0.00093
C 6.04614 30.58977 0.00057
C 4.8601 29.85344 -0.01634
C 4.95205 28.39462 -0.00334
C 6.12486 27.61618 0.02339
C 6.15486 26.28089 0.01641
C 4.91706 25.54295 -0.00719
C 3.6522 9.20865 0.00488
C 4.96505 24.11786 0.01364
C 3.61624 10.63301 0.01745
C 2.48651 12.78167 -0.01384
C 3.69439 30.60196 -0.01142
C 2.42562 29.94529 -0.00562
C 2.44788 28.53015 -0.00494
C 3.66172 27.80306 0.00054
C 3.6747 26.29566 0.03007
C 2.40549 25.5807 -0.00095
C 2.45917 24.18631 0.01572
C 3.72734 23.42436 -0.04848
C 3.76237 21.96667 -0.00892
C 2.47554 21.26291 -0.01362
C 2.43445 19.79342 -0.0008
C 3.70283 19.04247 0.0288
C 3.62283 17.65361 0.00393
C 2.36752 17.01426 0.00895
C 2.41507 15.62895 0.00685
C 3.65618 14.89173 0.02888
C 3.70567 13.55023 -0.00482
C 2.43416 11.40816 0.03693
C 7.28601 11.47363 0.05265
C 6.17436 23.36749 -0.01062
C 4.95379 21.28412 0.03589
C 8.58864 31.99848 -0.01789
C 8.66707 30.52217 0.00444
C 7.32511 29.85795 -0.00925
C 7.36707 28.37524 0.01877
C 8.63716 27.69817 0.01363
C 8.68374 26.21553 -0.02162
C 7.46046 25.58384 0.00415
C 7.43114 24.11249 -0.0014
C 8.73923 23.49446 0.02162
C 8.40632 22.06171 0.0076
C 7.58468 21.06279 0.01241
C 7.38978 19.67054 -0.01454
C 8.45022 17.95927 0.01945
C 7.33637 17.07124 0.01416
C 7.36516 15.69621 0.03542
C 8.59139 14.93556 0.02299
C 8.6113 13.54213 0.00244
C 7.4208 32.68863 0.02894
C 6.16775 21.87013 -0.00033
C 4.96927 0.05696 -0.02971
C 6.18426 2.22196 0.02819
C 4.89531 19.88177 -0.02759
C 6.07103 19.10414 0.0402
C 6.14228 17.64112 0.00572
C 4.89271 17.00955 0.03592
C 4.91563 15.58466 0.00406
C 6.16956 14.89198 0.00943
C 6.1381 13.54745 0.02841
C 4.87907 12.8386 -0.01111
C 4.87053 11.39745 -0.01275
C 6.10157 10.66189 0.00985
C 6.04282 9.28769 -0.02245
C 4.88549 8.53823 -0.00428
C 4.8583 7.11989 0.03101
C 6.10455 6.42548 -0.01536
C 6.14131 5.02059 -0.02689
C 4.90344 4.29209 -0.01046
C 4.87877 2.87363 -0.00891
C 6.20005 0.81164 0.00165
C 3.75433 31.9916 0.01849
C 20.79625 0.75937 0.01126
C 22.14452 32.68261 -0.00381
C 31.90976 28.37442 0.0544
C 33.13267 27.72572 0.00026
C 33.18862 26.29122 0.00682
C 31.95476 25.52312 -0.01779
C 31.92964 24.16323 0.03794
C 33.21148 23.48467 0.01927
C 33.24686 21.99645 0.01574
C 32.02217 21.27004 -0.02383
C 31.96926 19.86576 -0.01429
C 33.24408 19.19233 -0.0136
C 33.14346 17.75759 0.00594
C 31.8599 17.07851 -0.02474
C 31.86446 15.64399 0.00369
C 33.18984 14.95127 0.00455
C 33.23644 13.53663 -0.00644
C 31.91393 12.78973 -0.01839
C 31.95316 11.43291 0.00137
C 31.95438 29.80016 -0.02142
C 33.23093 10.66917 0.00199
C 33.19526 30.54594 0.01428
C 31.96763 32.67324 0.01713
C 29.48544 17.07913 0.0101
C 29.48039 15.65151 0.01705
C 30.69139 14.96259 -0.0405
C 30.7123 13.46881 -0.01303
C 29.50917 12.81872 -0.01461
C 29.46013 11.38146 -0.02155
C 30.69725 10.70803 -0.00944
C 30.703 9.29321 -0.03735
C 29.46532 8.51045 -0.00971
C 29.50193 7.08467 0.01518
C 30.79113 6.39698 0.01908
C 30.74317 5.00751 0.07705
C 29.46203 4.2771 0.0103
C 29.50267 2.89101 0.02108
C 30.72545 2.10986 0.00716
C 30.68046 0.73064 0.00307
C 29.49052 0.01063 0.00346
C 33.17969 32.00157 -0.01694
C 30.70086 17.76266 -0.00669
C 33.16679 9.23804 0.04381
C 32.01365 7.11043 0.01504
C 1.18901 17.78285 0.01223
C 34.41226 17.10974 0.00648
C 34.38501 15.67468 0.02114
C 1.14126 14.88444 -0.02957
C 1.23069 13.54758 0.00343
C 34.39801 12.80243 -0.02656
C 0.00301 11.36976 -0.02442
C 1.20407 10.64092 -0.00027
C 1.18751 9.21836 -0.00583
C 34.37828 8.49287 -0.02302
C 34.43202 7.09942 -0.02849
C 1.24031 6.36168 0.02931
C 1.21014 4.91933 0.00628
C 34.39175 4.24481 -0.0345
C 34.41731 2.82968 -0.00931
C 1.20177 2.08536 -0.00939
C 1.19059 0.71012 -0.00468
C 1.22801 19.15779 -0.01678
C 31.95762 8.50079 0.02806
C 34.39066 19.88872 0.01951
C 1.26605 22.02246 0.02712
C 33.21275 6.36518 -0.00069
C 33.10926 4.96866 0.04926
C 31.9229 4.25329 -0.03838
C 31.9175 2.8883 0.00349
C 33.14813 2.17187 -0.00323
C 33.20941 0.73603 -0.00841
C 31.97239 0.01226 0.0001
C 34.42 32.69475 -0.02927
C 1.22395 31.98751 -0.01404
C 1.23666 30.57343 0.01027
C 0.00984 29.83101 0.01831
C 0.01406 28.44021 -0.01037
C 1.24146 27.71289 -0.00439
C 1.16855 26.33752 -0.00598
C 34.43277 25.63637 -0.05239
C 0.01298 24.1252 0.03076
C 1.26734 23.39766 0.00723
C 0.00888 21.26677 -0.02213
C 19.61868 0.06015 0.01852
C 30.71573 19.19314 0.03531
C 29.4813 21.28528 -0.03039
C 25.69356 23.38073 -0.04078
C 25.69719 22.02767 0.02117
C 24.52804 21.21949 0.02737
C 24.68166 19.86977 -0.00498
C 25.78131 19.12292 0.00135
C 25.77664 17.7512 0.03102
C 24.5198 17.07822 0.02555
C 24.94709 15.8362 0.01423
C 25.87116 14.85804 -0.00285
C 26.00027 6.27966 -0.009
C 25.67761 4.96361 -0.01199
C 24.4165 4.20381 -0.00229
C 24.54916 2.77774 -0.00938
C 25.72494 2.12913 -0.0264
C 25.78231 0.74024 -0.01154
C 24.51216 34.07134 0.00684
C 26.94497 32.64944 -0.01052
C 24.69903 24.2524 0.03005
C 28.23905 31.89635 -0.01679
C 24.5871 25.62692 -0.0276
C 25.87364 27.61142 -0.00178
C 23.31305 31.97324 0.03046
C 23.35343 30.56591 0.0296
C 22.10813 29.86959 0.03374
C 22.12881 28.45455 -0.02845
C 23.33032 27.73156 -0.03213
C 23.30667 26.29943 0.02239
C 22.06699 25.59383 0.01153
C 23.11592 4.77916 0.02734
C 22.07675 2.89071 -0.0055
C 23.25211 2.15403 0.01515
C 23.25448 0.77681 -0.00225
C 22.07311 0.14705 0.00071
C 24.55411 32.67659 -0.01107
C 25.74287 31.94825 -0.01586
C 25.80324 30.55502 -0.01971
C 24.57355 29.82349 -0.02118
C 24.57272 28.43374 0.00733
C 25.86746 26.2488 0.00768
C 29.49759 19.85899 0.01836
C 28.19834 30.50351 0.00367
C 27.05313 28.35105 0.00996
C 28.22195 4.98675 0.00235
C 26.99207 4.22969 0.01495
C 27.02722 2.82483 0.01259
C 28.2613 2.10724 0.01799
C 28.27556 0.65779 0.01699
C 27.0513 0.033 -0.00416
C 29.46034 32.65918 0.01177
C 30.75641 31.98553 0.04266
C 30.72175 30.56538 0.01324
C 29.44721 29.83641 0.0014
C 29.43376 28.37752 0.00924
C 30.74573 27.67543 0.02326
C 30.74139 26.27872 0.00261
C 29.53128 25.49567 0.03265
C 29.55686 24.03141 -0.02049
C 30.74694 23.39881 -0.01854
C 30.68976 21.98715 -0.01415
C 28.24789 6.41795 0.01094
C 27.04581 29.76079 0.04306
C 26.95506 7.21378 0.02198
C 28.24626 9.23688 -0.00621
C 28.30435 27.58556 0.00195
C 28.28012 26.19675 -0.00802
C 27.05121 25.50737 -0.00218
C 27.10196 24.08497 -0.01654
C 28.32514 23.33959 -0.00037
C 28.22974 21.96282 -0.0032
C 26.91553 21.31793 0.00622
C 26.93393 19.84919 -0.02815
C 28.23829 19.22492 -0.00942
C 28.22354 17.76692 0.00487
C 26.97459 17.05036 0.00826
C 26.97202 15.59911 -0.00294
C 28.21946 14.8858 0.00152
C 28.27374 13.54036 0.01257
C 27.19884 12.66388 0.02316
C 27.09661 11.38736 0.04185
C 28.21903 10.62328 0.00194
C 27.03045 8.50443 0.02611
C 2.49667 32.65773 0.01396
