441
Graphene
C 0.03931 34.01447 0.01295
C 13.45671 19.26937 -0.01634
C 13.51544 17.73204 -0.00334
C 12.24584 17.07391 0.02339
C 12.25109 15.66703 0.01641
C 13.49091 14.94463 -0.00719
C 13.43385 13.55233 0.01364
C 12.3009 12.81747 -0.01062
C 12.31346 11.37563 -0.00033
C 13.55331 10.73167 0.03589
C 13.55085 9.25061 -0.02759
C 12.28216 8.52815 0.0402
C 12.24355 7.15731 0.00572
C 13.46324 6.34667 0.03592
C 13.48029 4.94631 0.00406
C 12.27559 4.24973 0.00943
C 12.24561 2.87271 0.02841
C 13.50025 2.13811 -0.01111
C 13.48176 0.71138 -0.01275
C 12.16015 0.06071 0.00985
C 14.68342 32.61567 -0.02245
C 15.96868 31.91764 -0.00428
C 15.96784 30.57506 0.03101
C 14.71761 29.88335 -0.01536
C 12.25132 19.88048 0.00057
C 12.2812 21.3685 0.00093
C 13.5024 22.10692 0.01291
C 13.52955 23.51423 0.00438
C 10.98545 15.03739 -0.00095
C 11.03011 13.51813 0.01572
C 9.84062 12.77642 -0.04848
C 9.81088 11.36791 -0.00892
C 11.03835 10.69076 -0.01362
C 11.15517 9.35388 -0.0008
C 9.88502 8.55323 0.0288
C 9.9113 7.17077 0.00393
C 11.07995 6.38444 0.00895
C 11.03716 5.00344 0.00685
C 9.79611 4.31716 0.02888
C 14.77483 28.50079 -0.02689
C 9.78452 2.88638 -0.00482
C 10.95162 0.76307 0.03693
C 9.7924 0.03395 0.01745
C 12.23701 32.73111 0.00488
C 13.35143 31.9221 -0.01004
C 13.45023 30.53052 -0.02896
C 12.24911 29.79927 -0.00131
C 12.26209 28.30345 -0.01118
C 13.5415 27.70511 -0.014
C 13.54413 26.35208 0.02147
C 12.27429 25.68566 0.00373
C 12.31762 24.21071 -0.00191
C 10.9659 2.1731 -0.01384
C 9.80708 15.74706 0.03007
C 16.02377 27.63998 -0.01046
C 14.72843 25.57473 0.02819
C 17.22835 28.29007 0.02058
C 18.44933 27.69315 -0.01957
C 18.48367 26.27423 -0.0108
C 17.28988 25.61052 -0.00368
C 17.15913 24.23727 -0.02696
C 18.48576 23.45871 -0.00114
C 18.45073 22.01852 0.00228
C 17.15372 21.38963 0.00798
C 17.10933 19.95019 0.00422
C 18.37394 19.20101 0.0351
C 18.42322 17.77865 -0.03113
C 17.15103 17.05401 0.02098
C 17.09179 15.56753 0.01848
C 18.33478 14.91902 -0.00619
C 18.42978 13.4322 -0.02162
C 17.12492 12.82347 0.00889
C 17.2029 11.36074 -0.00481
C 18.38518 10.61258 0.00979
C 18.46741 9.17725 0.01443
C 17.18913 8.47509 0.03505
C 17.19704 7.02398 -0.02815
C 18.44293 6.37248 -0.04147
C 18.51561 4.94592 -0.05302
C 17.19632 29.78216 0.01965
C 18.36608 30.49113 -0.03682
C 18.38897 31.93652 0.00052
C 17.22701 32.66528 0.00374
C 14.7357 24.16096 0.00165
C 15.91083 23.48669 -0.02971
C 15.9792 22.07482 0.02894
C 14.71381 21.3758 -0.01789
C 14.67634 19.99026 0.00444
C 15.94719 19.23082 -0.00925
C 15.87695 17.82414 0.01877
C 14.69723 17.10402 0.01363
C 14.68091 15.73295 -0.02162
C 15.87208 14.9982 0.00415
C 15.95108 13.60438 -0.0014
C 15.942 26.22169 -0.00891
C 14.76883 12.85921 0.02162
C 15.97153 10.66406 0.01241
C 16.00889 9.21638 -0.01454
C 14.74015 8.56064 0.01945
C 14.67998 7.06685 0.01416
C 15.87945 6.41536 0.03542
C 15.92833 4.93292 0.02299
C 14.76945 4.1996 0.00244
C 14.7301 2.85769 -0.01717
C 15.91298 2.04346 0.05265
C 15.89065 0.55988 -0.01952
C 14.58771 34.00047 -0.02813
C 14.74312 11.36853 0.0076
C 9.73008 17.1028 0.00054
C 10.96784 17.80132 -0.00494
C 11.00912 19.17162 -0.00562
C 3.71575 0.74259 -0.00177
C 2.48907 0.07299 0.04421
C 4.89409 32.68974 0.00088
C 6.16071 31.94026 0.00828
C 6.02919 30.58039 -0.02375
C 4.78734 29.83451 0.00558
C 4.81885 28.39423 -0.0059
C 6.00386 27.67634 -0.01386
C 6.05835 26.24794 -0.02805
C 4.9417 25.53959 0.00081
C 4.92498 24.0657 0.00245
C 6.07179 23.38534 0.02728
C 6.03755 21.99875 -0.00039
C 4.83594 21.3517 0.0064
C 4.78874 20.00593 0.00211
C 6.08454 19.27297 -0.00449
C 5.9936 17.75849 -0.01979
C 4.87559 17.07467 0.02784
C 4.87253 15.55429 -0.01977
C 6.14348 14.99132 -0.00561
C 6.11405 13.5896 0.00208
C 4.81373 12.76394 0.01707
C 4.92584 11.4394 0.02769
C 3.72892 2.17769 0.03278
C 2.51728 2.84109 0.01138
C 2.52043 4.24366 -0.00407
C 3.77841 5.02807 -0.01299
C 3.64515 30.61146 -0.0213
C 2.43179 29.90637 0.01116
C 2.41851 28.48201 -0.0005
C 3.62157 27.67147 -0.00018
C 3.70633 26.21053 0.01073
C 2.46706 25.49852 0.01984
C 2.43866 24.10297 0.00535
C 3.63925 23.45756 -0.00198
C 3.56458 22.05429 -0.00012
C 2.35287 21.23746 -0.04306
C 2.3339 19.84215 -0.03672
C 6.18919 10.72332 -0.03291
C 3.67066 19.1242 0.01913
C 2.42406 17.07457 0.00787
C 2.39886 15.59234 0.02426
C 3.65734 14.91165 0.01218
C 3.58648 13.49967 -0.01471
C 2.3347 12.78436 -0.02827
C 2.42991 11.3109 0.01078
C 3.70913 10.66974 -0.00112
C 3.73963 9.27893 0.03345
C 2.51145 8.56712 0.00748
C 2.51053 7.08284 0.00662
C 3.794 6.42147 -0.0154
C 3.59334 17.68271 0.00267
C 6.17357 9.32135 -0.04999
C 4.97064 8.59012 0.04505
C 5.0021 7.1366 0.03284
C 8.61466 10.75026 0.02322
C 8.56002 9.37308 -0.00725
C 7.37272 8.62155 -0.05697
C 7.42051 7.18571 0.01087
C 8.63166 6.43892 -0.01343
C 8.75095 5.04337 0.00988
C 7.40965 4.31003 0.0276
C 7.34984 2.91286 0.01305
C 8.53376 2.15642 -0.00077
C 8.56408 0.71879 0.03368
C 7.34431 0.01942 -0.02929
C 7.4016 11.40022 -0.00094
C 9.80605 32.72093 -0.00966
C 11.04753 30.44677 0.01227
C 9.73334 29.8457 0.00873
C 9.80802 28.39839 -0.00049
C 11.04923 27.70528 0.00848
C 11.05782 26.31365 -0.01303
C 9.75731 25.5802 -0.01378
C 9.84545 24.24796 0.02635
C 11.09202 23.53012 0.0127
C 11.07425 22.11571 0.01396
C 9.79588 21.33667 0.01849
C 9.81629 19.93935 -0.01142
C 11.06706 31.98818 -0.03337
C 17.22636 4.22306 0.00213
C 7.4301 12.89535 -0.02566
C 8.53705 15.03436 0.017
C 6.22147 6.51994 -0.04307
C 6.2138 5.07497 0.03189
C 5.01369 4.37474 0.00031
C 4.94298 2.92416 -0.003
C 6.14488 2.21511 0.01402
C 6.11613 0.83529 0.02379
C 4.95324 0.00133 0.00907
C 7.34921 32.71246 0.00643
C 8.55751 31.9721 -0.01509
C 8.53739 30.58115 0.03267
C 7.38627 29.832 0.02374
C 8.64055 13.64026 -0.03113
C 7.3132 28.4868 0.00402
C 8.58752 26.35738 0.0174
C 7.34451 25.62295 0.03828
C 7.30412 24.13103 0.01226
C 8.5758 23.46471 -0.00279
C 8.62342 22.02846 0.01996
C 7.3017 21.41476 -0.03996
C 7.35889 19.96771 0.01465
C 8.55437 19.24542 -0.00074
C 8.52382 17.86394 -0.00518
C 7.26181 17.09938 0.0086
C 7.28235 15.69032 -0.00643
C 8.60695 27.71905 0.0073
C 3.68619 32.01783 -0.00374
C 17.21157 2.81248 -0.00066
C 18.35374 0.72233 0.00028
C 30.6684 14.91175 -0.0405
C 30.7023 13.41365 -0.01303
C 29.44403 12.71497 -0.01461
C 29.52031 11.10156 -0.02155
C 30.72648 10.42871 -0.00944
C 30.59418 8.96865 -0.03735
C 29.26404 8.3234 -0.00971
C 29.34721 6.87897 0.01518
C 30.54237 6.29239 0.01908
C 30.61943 4.90515 0.07705
C 29.35126 4.25611 0.0103
C 29.4248 2.85093 0.02108
C 30.75128 2.13598 0.00716
C 30.68621 0.71261 0.00307
C 29.46752 0.01083 0.00346
C 32.01751 32.69457 0.01713
C 33.2009 31.93196 -0.01694
C 33.22305 30.61069 0.01428
C 31.9576 29.84463 -0.02142
C 31.98737 28.44891 0.0544
C 33.13713 27.62962 0.00026
C 33.11027 26.27812 0.00682
C 31.87486 25.57161 -0.01779
C 29.36855 15.53641 0.01705
C 29.44034 16.99254 0.0101
C 30.61759 17.66724 -0.00669
C 30.68091 19.15926 0.03531
C 28.17912 13.44913 0.00194
C 26.98736 12.7755 -0.00621
C 27.03545 11.29764 0.02611
C 28.20383 10.49964 0.02198
C 27.98428 9.15384 0.01094
C 28.05524 5.10988 0.00235
C 26.74964 4.38058 0.01495
C 26.96545 2.8301 0.01259
C 28.22928 2.11628 0.01799
C 28.26697 0.75948 0.01699
C 27.05694 34.00888 -0.00416
C 31.89393 24.17136 0.03794
C 29.51438 32.68669 0.01177
C 30.68374 30.58119 0.01324
C 29.51147 29.87752 0.0014
C 29.54938 28.48285 0.00924
C 30.72199 27.73697 0.02326
C 30.66681 26.32681 0.00261
C 29.45366 25.65143 0.03265
C 29.52181 24.18363 -0.02049
C 30.71338 23.44907 -0.01854
C 30.71275 21.94972 -0.01415
C 29.50393 21.24784 -0.03039
C 29.42932 19.87894 0.01836
C 30.7693 31.96159 0.04266
C 28.12738 14.90266 0.04185
C 33.13607 23.52975 0.01927
C 31.91275 21.28406 -0.02383
C 34.37787 24.22205 0.03076
C 1.10507 23.41003 0.00723
C 1.12292 21.92001 0.02712
C 34.34148 21.26413 -0.02213
C 34.28616 19.87391 0.01951
C 1.09373 19.13537 -0.01678
C 1.17302 17.75473 0.01223
C 34.37035 17.06764 0.00648
C 34.38175 15.55973 0.02114
C 1.21373 14.83801 -0.02957
C 1.13367 13.42947 0.00343
C 34.35508 12.76338 -0.02656
C 34.40807 11.2462 -0.02442
C 1.16322 10.61436 -0.00027
C 1.20187 9.21935 -0.00583
C 34.37547 8.42696 -0.02302
C 0.02056 7.02805 -0.02849
C 1.23739 6.39384 0.02931
C 1.27516 4.95879 0.00628
C 0.09747 4.26618 -0.0345
C 0.0218 2.862 -0.00931
C 1.2573 2.19514 -0.00939
C 1.22556 0.70422 -0.00468
C 34.407 25.58123 -0.05239
C 1.25774 26.33232 -0.00598
C 1.21332 27.83862 -0.00439
C 34.4279 28.39668 -0.01037
C 31.91039 19.85383 -0.01429
C 33.14426 19.18941 -0.0136
C 33.19256 17.71965 0.00594
C 31.91482 17.02546 -0.02474
C 31.88796 15.55533 0.00369
C 33.06189 14.74787 0.00455
C 33.07841 13.39412 -0.00644
C 31.90479 12.67156 -0.01839
C 31.95282 11.24346 0.00137
C 33.22385 10.4499 0.00199
C 33.1175 9.13805 0.04381
C 33.12202 22.04207 0.01574
C 31.90192 8.34332 0.02806
C 33.18059 6.33951 -0.00069
C 33.17529 4.9293 0.04926
C 31.97043 4.23489 -0.03838
C 31.9447 2.85357 0.00349
C 33.20089 2.0957 -0.00323
C 33.29468 0.71495 -0.00841
C 32.01016 0.01612 0.0001
C 0.07645 32.6227 -0.02927
C 1.29544 31.9635 -0.01404
C 1.19189 30.58173 0.01027
C 34.37293 29.86182 0.01831
C 31.91413 6.95718 0.01504
C 26.91819 15.50388 0.02316
C 26.97708 16.98067 0.01257
C 28.23229 17.71468 0.00152
C 19.75031 4.29288 -0.00703
C 19.70686 2.85839 -0.04076
C 20.89336 2.16644 -0.00652
C 20.84343 0.71468 0.0058
C 19.62935 0.07933 -0.00865
C 22.15785 32.70997 0.00675
C 23.31835 31.92912 -0.00311
C 23.30986 30.49087 0.00742
C 22.09076 29.88571 -0.01594
C 22.10802 28.40995 0.0106
C 23.3377 27.72881 -0.01154
C 23.32629 26.36928 -0.01721
C 22.1639 25.6272 -0.02422
C 22.14275 24.11968 0.01277
C 23.34506 23.39577 0.00096
C 23.25318 21.96951 -0.01527
C 22.08458 21.25836 0.01087
C 22.05744 19.83738 0.00199
C 23.34189 19.19148 0.01511
C 23.30096 17.7416 -0.00478
C 22.04422 17.09028 -0.01662
C 22.05727 15.70838 -0.01185
C 23.22763 14.92227 0.01126
C 20.93326 4.92268 0.00654
C 20.95598 6.32117 -0.04422
C 19.66087 7.10174 -0.02957
C 19.74791 8.48914 -0.00831
C 17.18683 34.06357 -0.02213
C 19.66375 32.72344 0.03698
C 20.87353 32.05366 -0.00109
C 20.93093 30.62272 -0.00491
C 19.66452 29.86036 0.03338
C 19.632 28.50842 -0.0258
C 20.84288 27.71528 -0.0331
C 20.86135 26.25222 -0.00316
C 19.63891 25.57855 0.02188
C 19.62035 24.131 -0.01979
C 20.89712 23.44493 0.02691
C 23.28405 13.55058 0.01852
C 20.83553 22.0607 -0.01581
C 19.57083 19.88208 0.04892
C 20.8011 19.10815 -0.00111
C 20.82825 17.77016 -0.03557
C 19.60923 17.07969 0.03754
C 19.58859 15.63897 0.01739
C 20.89157 14.9607 0.00755
C 20.827 13.58152 -0.0054
C 19.6288 12.67165 0.00667
C 19.61831 11.30325 0.00143
C 20.91179 10.63527 -0.017
C 20.96293 9.22628 0.00364
C 19.63864 21.31561 0.01452
C 22.06206 12.84335 -0.00381
C 22.06529 11.40691 0.03046
C 23.31857 10.61322 0.0296
C 25.73355 13.47395 -0.009
C 24.51072 12.7545 -0.01199
C 24.57806 11.27712 -0.00229
C 25.75908 10.60017 -0.00938
C 25.82236 9.25737 -0.0264
C 25.06286 4.22482 -0.01154
C 24.7119 2.90003 0.00684
C 25.82683 2.06016 -0.01052
C 25.76769 0.60047 -0.01679
C 24.58119 34.06962 0.00367
C 27.03847 32.64443 0.04306
C 25.72304 14.84106 -0.00285
C 28.30348 31.9787 0.00996
C 27.03922 29.87743 -0.00802
C 27.01886 28.46727 -0.00218
C 28.2079 27.79625 -0.01654
C 28.25572 26.3966 -0.00037
C 27.12076 25.56911 -0.0032
C 27.06236 24.15791 0.00622
C 28.34327 23.44223 -0.02815
C 28.22827 22.00943 -0.00942
C 27.02576 21.3426 0.00487
C 26.95544 19.92973 0.00826
C 28.11838 19.17668 -0.00294
C 28.24334 30.53821 0.00195
C 18.43379 2.17907 -0.00289
C 24.44425 15.60614 0.01423
C 25.79105 17.73792 0.03102
C 23.42116 9.25401 0.03374
C 22.22469 8.49037 -0.02845
C 22.22382 7.07019 -0.03213
C 23.40686 6.37 0.02239
C 23.71898 5.0491 0.01153
C 22.25791 4.26474 0.02734
C 22.19334 2.88279 -0.0055
C 23.39614 2.15503 0.01515
C 23.32103 0.74099 -0.00225
C 22.07046 34.07756 0.00071
C 24.58088 32.72508 -0.01107
C 24.51189 17.05147 0.02555
C 25.79661 32.04533 -0.01586
C 24.599 29.82511 -0.02118
C 24.64154 28.40702 0.00733
C 25.80973 27.71558 -0.00178
C 25.82099 26.22845 0.00768
C 24.62615 25.59778 -0.0276
C 24.52707 24.0872 0.03005
C 25.81942 23.43139 -0.04078
C 25.7582 22.04317 0.02117
C 24.56759 21.28092 0.02737
C 24.58563 19.90452 -0.00498
C 25.72479 19.24622 0.00135
C 25.74081 30.56472 -0.01971
C 2.47938 32.63012 -0.00141
