311
Graphene
C 34.41667 0.02284 0.01295
C 13.51672 31.99465 -0.00316
C 13.5092 30.47841 0.02188
C 12.1818 29.72285 -0.01979
C 12.42152 28.47063 0.02691
C 13.51171 27.64813 -0.01581
C 13.66284 26.30749 0.01452
C 13.52238 23.41023 0.04892
C 13.28671 21.9794 -0.00111
C 12.28409 21.07661 -0.03557
C 12.30694 19.67068 0.03754
C 13.56252 19.07953 0.01739
C 13.5747 17.73283 0.00755
C 12.30063 17.06601 -0.0054
C 12.27348 15.71389 0.00667
C 13.71237 14.95304 0.00143
C 12.3106 32.59687 -0.0331
C 9.75031 33.96589 -0.0258
C 11.00254 0.57044 0.03338
C 11.01136 2.0 -0.00491
C 11.05355 19.07045 -0.02162
C 11.09582 17.67639 0.00889
C 9.80784 17.12274 -0.00481
C 9.85041 15.61171 0.00979
C 11.16698 14.96383 0.01443
C 11.13981 13.52819 0.03505
C 9.92143 12.78582 -0.02815
C 13.51728 13.6537 -0.017
C 9.83793 11.37237 -0.04147
C 11.06916 9.19925 0.00213
C 9.79917 8.55422 -0.00066
C 9.83235 7.10711 -0.00289
C 11.12554 6.384 0.00028
C 11.0802 5.00102 -0.02213
C 9.85688 4.18742 0.03698
C 9.8951 2.86743 -0.00109
C 11.04399 10.65322 -0.05302
C 9.93163 19.96606 -0.00619
C 12.55844 12.70103 0.00364
C 12.15872 8.43736 -0.02957
C 14.79513 19.91041 0.01511
C 15.96253 19.18399 -0.00478
C 15.99937 17.75868 -0.01662
C 14.81375 16.96462 -0.01185
C 14.90172 15.58055 0.01126
C 14.71412 4.28795 0.01852
C 14.73372 2.91094 -0.00381
C 16.00448 2.19158 0.03046
C 15.94284 0.78554 0.0296
C 14.71833 0.07343 0.03374
C 17.18654 32.74074 -0.02845
C 18.40247 31.92906 -0.03213
C 18.41972 30.56704 0.02239
C 17.17482 29.88605 0.01153
C 17.24555 28.44237 0.02734
C 14.71811 21.37873 0.00199
C 15.94268 21.96395 0.01087
C 15.94223 23.49109 -0.01527
C 14.6626 24.11997 0.00096
C 12.5608 7.1735 -0.04422
C 13.52761 6.32534 0.00654
C 13.53735 4.90159 -0.00703
C 12.21639 4.18331 -0.04076
C 12.26425 2.75822 -0.00652
C 13.52198 2.11339 0.0058
C 13.46573 0.64904 -0.00865
C 12.22139 11.41023 -0.00831
C 12.27863 33.95721 0.00675
C 16.00303 31.98205 0.00742
C 15.91575 30.5654 -0.01594
C 14.71595 29.8514 0.0106
C 14.78912 28.48221 -0.01154
C 16.04913 27.74263 -0.01721
C 16.04051 26.27858 -0.02422
C 14.78625 25.55101 0.01277
C 14.74575 32.71014 -0.00311
C 18.44627 27.69791 -0.0055
C 10.95134 30.47416 0.01848
C 9.78924 32.48296 -0.03113
C 3.76841 4.99681 0.00572
C 2.51866 4.28177 0.03592
C 2.47179 2.86425 0.00406
C 3.6945 2.13736 0.00943
C 3.6688 0.72753 0.02841
C 2.42449 34.05409 -0.01111
C 4.92075 32.62357 -0.01275
C 6.10732 31.88711 0.00985
C 6.11473 30.50061 -0.02245
C 4.95752 29.81778 -0.00428
C 4.70351 21.07286 0.03101
C 4.99363 19.82404 -0.01536
C 6.16259 19.10447 -0.02689
C 6.20583 17.70305 -0.01046
C 4.90001 17.10282 -0.00891
C 3.68255 6.40596 0.0402
C 2.48542 7.08198 -0.02759
C 2.41398 8.56755 0.03589
C 3.66848 9.18758 -0.00033
C 3.71152 30.46663 -0.01118
C 2.43883 29.81087 -0.014
C 2.45289 28.45175 0.02147
C 3.75037 27.8299 0.00373
C 3.6414 21.94841 -0.00191
C 2.43236 21.56797 0.00438
C 2.40694 19.95381 0.01291
C 4.93915 15.63598 0.02819
C 3.66091 19.25173 0.00093
C 2.4 17.07287 -0.01634
C 2.45439 15.69929 -0.00334
C 3.68382 15.01981 0.02339
C 3.65245 13.5265 0.01641
C 2.43998 12.77425 -0.00719
C 2.39593 11.38692 0.01364
C 3.65126 10.62371 -0.01062
C 3.66232 17.75785 0.00057
C 11.04112 31.89689 0.02098
C 6.14296 14.9279 0.00165
C 4.80261 12.79498 0.02894
C 8.62306 14.88424 -0.02813
C 8.61719 13.44217 0.00374
C 7.34849 12.81468 0.00052
C 7.31894 11.32099 -0.03682
C 8.54663 10.71206 0.01965
C 8.61395 9.30408 0.02058
C 7.44236 8.52096 -0.01957
C 7.4363 7.12913 -0.0108
C 8.67115 6.38384 -0.00368
C 8.57259 4.95013 -0.02696
C 7.40744 4.34635 -0.00114
C 7.36057 2.8456 0.00228
C 8.66586 2.12888 0.00798
C 8.59623 0.72902 0.00422
C 7.31988 34.0766 0.0351
C 7.46878 15.64978 -0.01952
C 7.43297 17.02253 0.05265
C 8.61761 17.84886 -0.01717
C 8.62914 19.44716 0.00244
C 4.79964 11.35191 -0.01789
C 6.09159 10.66857 0.00444
C 6.16505 9.21324 -0.00925
C 4.88487 8.51653 0.01877
C 4.92653 7.15719 0.01363
C 6.1949 6.45761 -0.02162
C 6.12153 5.03812 0.00415
C 6.08129 13.52517 -0.02971
C 4.93461 4.30684 -0.0014
C 6.06563 2.1449 0.0076
C 6.05938 0.72414 0.01241
C 4.91104 0.05435 -0.01454
C 7.30182 32.6826 0.01945
C 8.53306 31.75653 0.01416
C 8.30881 30.42723 0.03542
C 7.34047 19.84617 0.02299
C 4.90007 2.86039 0.02162
C 3.66629 31.87137 -0.00131
C 18.46697 26.30737 0.01515
C 17.14922 24.14918 0.00071
C 33.20825 30.53305 0.01927
C 31.92484 29.86858 0.01574
C 31.88751 28.45157 -0.02383
C 33.12741 27.66474 -0.01429
C 33.27238 26.18796 -0.0136
C 31.99874 25.59368 0.00594
C 32.02121 24.15883 -0.02474
C 33.20575 23.49202 0.00369
C 33.22266 22.07357 0.00455
C 31.99458 21.4364 -0.00644
C 32.02882 20.09294 -0.01839
C 33.18236 19.22543 0.00137
C 33.27961 17.90919 0.00199
C 33.32797 10.63293 0.04381
C 32.89895 9.37578 0.02806
C 33.24999 31.97279 0.03794
C 32.00566 32.72068 -0.01779
C 29.47126 34.06393 0.00682
C 30.71823 0.70894 0.00026
C 30.75852 30.54134 -0.00944
C 29.5001 29.87802 -0.03735
C 29.47441 28.45331 -0.00971
C 30.68108 27.68883 0.01518
C 30.70875 26.34515 0.01908
C 29.4548 25.62298 0.07705
C 29.49215 24.11366 0.0103
C 31.85018 8.47372 0.01504
C 30.65819 23.39592 0.02108
C 29.55176 21.279 0.00307
C 29.45729 7.08074 0.00346
C 30.65388 6.39698 0.01713
C 30.66136 4.94136 -0.01694
C 29.37441 4.25506 0.01428
C 29.44529 2.85833 -0.02142
C 30.66726 2.13731 0.0544
C 30.69127 22.06198 0.00716
C 30.79301 31.97073 -0.02155
C 31.89304 7.13148 -0.00069
C 33.18069 4.91155 -0.03838
C 0.00285 15.58306 0.02114
C 1.27982 14.98837 -0.02957
C 1.31264 13.58112 0.00343
C 0.07295 12.88993 -0.02656
C 34.34755 11.47102 -0.02442
C 1.19978 10.68829 -0.00027
C 1.15241 9.23034 -0.00583
C 34.30691 8.57171 -0.02302
C 34.35085 7.07613 -0.02849
C 1.17137 6.43295 0.02931
C 1.30621 5.05445 0.00628
C 0.01811 4.32559 -0.0345
C 0.00633 2.8705 -0.00931
C 1.22733 2.1476 -0.00939
C 1.20598 0.74494 -0.00468
C 34.23318 16.99095 0.00648
C 1.14974 17.76161 0.01223
C 1.2327 19.16412 -0.01678
C 34.42514 19.95815 0.01951
C 31.95583 4.25065 0.00349
C 31.88809 2.80791 -0.00323
C 33.18825 2.11698 -0.00841
C 33.20898 0.73079 0.0001
C 31.96691 0.08829 -0.02927
C 0.05918 32.72123 -0.01404
C 1.16759 31.97553 0.01027
C 33.11492 6.41777 0.04926
C 1.22021 30.47971 0.01831
C 34.36879 28.38266 -0.00439
C 1.22995 27.65308 -0.00598
C 1.16137 26.3164 -0.05239
C 0.20342 25.37765 0.03076
C 0.1759 23.94618 0.00723
C 1.16247 22.27105 0.02712
C 34.42008 21.42566 -0.02213
C 34.39982 29.87975 -0.01037
C 17.24114 25.5577 -0.00225
C 29.5002 32.68067 -0.01461
C 28.27392 0.66151 -0.0405
C 21.09852 21.9444 -0.00229
C 19.79108 21.20556 -0.00938
C 19.39105 19.95253 -0.0264
C 19.65604 2.90034 -0.01154
C 20.93503 2.38354 0.00684
C 20.85507 0.79961 -0.01052
C 19.6451 0.15505 -0.01679
C 22.0628 32.63046 0.00367
C 23.35646 31.97466 0.04306
C 23.37476 30.51634 0.00996
C 22.1722 29.83051 0.00195
C 22.12203 28.44998 -0.00802
C 23.33228 27.69519 -0.00218
C 23.41581 26.26401 -0.01654
C 22.13883 25.53111 -0.00037
C 20.83973 23.42608 -0.01199
C 19.58891 24.08452 -0.009
C 19.72463 25.49654 -0.00285
C 20.86381 26.29805 0.01423
C 18.36657 23.40487 -0.01107
C 18.43361 21.94876 -0.01586
C 17.19493 21.21563 -0.01971
C 17.20644 19.73816 -0.02118
C 18.34398 19.02657 0.00733
C 17.27874 17.29631 -0.00178
C 17.17196 2.92269 0.00768
C 22.03676 24.18011 -0.0032
C 18.43935 2.42569 -0.0276
C 17.15777 0.10333 -0.04078
C 19.67705 32.75352 0.02117
C 20.8527 31.93299 0.02737
C 20.91159 30.55553 -0.00498
C 19.67875 29.83172 0.00135
C 19.67293 28.38821 0.03102
C 20.82928 27.70925 0.02555
C 18.3378 0.80332 0.03005
C 26.99737 34.049 -0.01303
C 23.27762 23.34581 0.00622
C 22.2247 2.8445 -0.00942
C 28.26893 31.97796 0.01324
C 28.28534 30.52538 0.0014
C 27.07907 29.83167 0.00924
C 26.96346 28.35969 0.02326
C 28.19884 27.74044 0.00261
C 28.25314 26.27105 0.03265
C 27.05158 25.55748 -0.02049
C 27.0254 24.07855 -0.01854
C 28.2888 23.37778 -0.01415
C 28.4502 22.0711 -0.03039
C 28.40366 6.24291 0.01836
C 28.06934 5.00261 0.03531
C 26.80377 4.35203 -0.00669
C 26.95363 2.87622 0.0101
C 28.20832 2.11459 0.01705
C 27.04797 32.62454 0.04266
C 24.61684 34.05072 0.01177
C 25.8093 0.7321 -0.00416
C 25.75848 2.10889 0.01699
C 23.32908 2.02775 0.00487
C 23.38507 0.65691 0.00826
C 22.12842 0.01541 -0.00294
C 24.6258 32.60556 0.00152
C 25.82459 31.91812 0.01257
C 25.84773 30.53436 0.02316
C 24.68086 29.81351 0.04185
C 22.82645 21.99358 -0.02815
C 24.59687 28.41739 0.00194
C 25.80396 26.22478 0.02611
C 24.61722 25.45064 0.02198
C 24.51259 24.0317 0.01094
C 25.75326 23.3822 0.00235
C 25.57463 4.85178 0.01495
C 24.49781 4.03799 0.01259
C 24.50091 2.69639 0.01799
C 25.70383 27.62011 -0.00621
C 2.3915 32.66979 -0.02896
