421
Graphene
C 34.40251 33.97835 0.01295
C 15.86564 32.02617 0.00406
C 15.93459 30.60718 0.00943
C 14.73895 29.86248 0.02841
C 14.73311 28.47858 -0.01111
C 15.89557 27.66104 -0.01275
C 15.98226 26.28147 0.00985
C 14.71486 25.58591 -0.02245
C 14.7482 24.11609 -0.00428
C 16.00217 23.47055 0.03101
C 15.99572 22.03458 -0.01536
C 14.70135 32.82161 0.03592
C 14.68122 21.38725 -0.02689
C 15.97343 19.10877 -0.00891
C 15.97338 17.71034 0.02819
C 14.79414 16.95623 0.00165
C 14.74495 15.55242 -0.02971
C 15.95206 14.84625 0.02894
C 16.02387 13.48306 -0.01789
C 14.77082 12.82484 0.00444
C 14.74836 11.34987 -0.00925
C 15.91884 10.60529 0.01877
C 15.98152 9.19317 0.01363
C 14.73627 19.89409 -0.01046
C 14.74069 8.45655 -0.02162
C 12.29162 0.12059 0.00572
C 13.5406 2.18046 -0.02759
C 12.25457 25.62114 0.00488
C 12.34868 24.22594 -0.01004
C 13.48252 23.44256 -0.02896
C 13.44914 22.05363 -0.00131
C 12.19395 21.3421 -0.01118
C 12.29506 19.85564 -0.014
C 13.54325 19.16302 0.02147
C 13.60023 17.67948 0.00373
C 12.29831 17.00316 -0.00191
C 12.15547 15.64789 0.00438
C 13.50968 0.7725 0.0402
C 13.4986 14.88517 0.01291
C 12.24508 12.78635 0.00057
C 12.23086 11.31588 -0.01634
C 13.42244 10.67031 -0.00334
C 13.53866 9.24315 0.02339
C 12.24901 8.55803 0.01641
C 12.17853 7.18573 -0.00719
C 13.45476 6.44823 0.01364
C 13.47135 5.06243 -0.01062
C 12.32461 4.3581 -0.00033
C 12.26844 2.88859 0.03589
C 13.52769 13.48284 0.00093
C 14.6931 7.10149 0.00415
C 15.94999 6.4121 -0.0014
C 15.94095 5.04425 0.02162
C 18.46701 9.16072 0.02098
C 17.25929 8.47404 0.01848
C 17.21271 7.13611 -0.00619
C 18.40729 6.39392 -0.02162
C 18.44164 5.01574 0.00889
C 17.19941 4.26519 -0.00481
C 17.15358 2.85486 0.00979
C 18.40961 2.1668 0.01443
C 18.43417 0.74528 0.03505
C 17.14259 0.01864 -0.02815
C 18.42402 10.60917 -0.03113
C 19.60363 32.63466 -0.04147
C 20.84874 30.57341 0.00213
C 19.66518 29.81556 -0.00066
C 19.65019 28.31423 -0.00289
C 20.91565 27.68671 0.00028
C 20.87925 26.23494 -0.02213
C 19.61966 25.5274 0.03698
C 19.66911 24.14447 -0.00109
C 20.8973 23.46796 -0.00491
C 20.90184 21.98609 0.03338
C 19.69617 21.24938 -0.0258
C 20.87107 31.92319 -0.05302
C 17.1526 11.37182 0.0351
C 17.19925 12.77177 0.00422
C 18.43166 13.43664 0.00798
C 14.73849 4.35271 0.0076
C 14.70615 2.90672 0.01241
C 15.89282 2.19466 -0.01454
C 15.92851 0.75232 0.01945
C 14.73365 0.11509 0.01416
C 17.10646 32.65145 0.03542
C 18.28803 31.94061 0.02299
C 18.36117 30.46814 0.00244
C 17.13174 29.76407 -0.01717
C 17.14993 28.37938 0.05265
C 18.38892 27.70435 -0.01952
C 18.4474 26.34377 -0.02813
C 17.22982 25.6464 0.00374
C 17.28234 24.14764 0.00052
C 18.48429 23.35847 -0.03682
C 18.49019 21.97668 0.01965
C 17.21887 21.34529 0.02058
C 17.24118 19.83138 -0.01957
C 18.47571 19.10035 -0.0108
C 18.40792 17.72799 -0.00368
C 17.21774 17.07491 -0.02696
C 17.18296 15.61456 -0.00114
C 18.45782 14.88372 0.00228
C 13.43893 26.28818 0.01745
C 13.50871 27.6819 0.03693
C 12.30791 28.40321 -0.01384
C 12.30559 29.83621 -0.00482
C 4.9654 28.42736 -0.00561
C 6.19691 27.86103 0.00208
C 6.1448 26.44049 0.01707
C 4.87094 25.58111 0.02769
C 4.82371 24.19033 -0.03291
C 6.09355 13.56137 -0.04999
C 4.73435 13.0911 0.04505
C 4.87554 11.51143 0.03284
C 6.14789 10.84854 -0.04307
C 6.09742 9.35428 0.03189
C 4.91537 29.83574 -0.01977
C 4.82258 8.55592 0.00031
C 6.09129 6.37711 0.01402
C 6.0671 4.91725 0.02379
C 4.81413 4.20279 0.00907
C 4.80498 2.75623 0.00643
C 6.17112 2.17385 -0.01509
C 6.05768 0.74757 0.03267
C 4.84754 34.05234 0.02374
C 7.31808 32.78681 0.00402
C 8.62511 32.14744 0.0073
C 8.5877 30.65824 0.0174
C 4.81854 7.1119 -0.003
C 6.16053 30.53905 0.02784
C 6.18285 32.03247 -0.01979
C 4.94047 32.70434 -0.00449
C 3.6782 30.6051 0.03345
C 2.47232 29.8773 0.00748
C 2.504 28.44989 0.00662
C 3.78781 27.74019 -0.0154
C 3.68455 26.37975 -0.01299
C 2.45597 25.5853 -0.00407
C 2.43365 24.1112 0.01138
C 3.70002 23.49994 0.03278
C 2.8014 15.20086 -0.00177
C 3.34183 13.79308 0.04421
C 2.39386 12.78974 0.00088
C 2.49234 11.33406 0.00828
C 3.72655 10.58362 -0.02375
C 3.56666 9.22939 0.00558
C 2.37189 8.45901 -0.0059
C 2.38911 7.01041 -0.01386
C 3.67901 6.38074 -0.02805
C 3.63602 4.92984 0.00081
C 2.41391 4.29706 0.00245
C 2.33182 2.85234 0.02728
C 3.56675 2.07894 -0.00039
C 3.62535 0.66027 0.0064
C 2.36502 34.03191 0.00211
C 7.43521 29.85798 0.03828
C 19.66677 19.85975 -0.0331
C 7.43163 28.48541 0.01226
C 8.59898 26.29851 0.01996
C 10.95546 22.05184 -0.01303
C 11.13068 19.15524 -0.01378
C 11.19239 17.75359 0.02635
C 9.58427 15.14919 0.0127
C 10.91457 14.88835 0.01396
C 11.03719 13.4308 0.01849
C 9.74728 12.87027 -0.01142
C 9.79006 11.46352 -0.00562
C 10.97585 10.71097 -0.00494
C 10.94557 9.22776 0.00054
C 11.09341 23.42421 0.00848
C 9.66768 8.59443 0.03007
C 11.02196 6.46771 0.01572
C 11.03012 5.08425 -0.04848
C 9.80315 4.32334 -0.00892
C 9.81067 2.96271 -0.01362
C 10.96821 2.21529 -0.0008
C 11.0293 0.85486 0.0288
C 9.80695 0.08369 0.00393
C 12.24984 32.73326 0.00895
C 13.49994 32.02461 0.00685
C 13.51081 30.62172 0.02888
C 9.72323 7.17543 -0.00095
C 9.77984 24.1866 -0.00049
C 9.79578 25.58863 0.00873
C 11.07523 26.30579 0.01227
C 7.30623 25.63361 -0.03996
C 7.35335 24.25602 0.01465
C 8.55213 23.67734 -0.00074
C 8.75396 13.83257 -0.00518
C 7.38386 13.0937 0.0086
C 7.30235 11.60894 -0.00643
C 8.4903 10.7352 0.017
C 8.43033 9.33759 -0.03113
C 7.21872 8.57436 -0.02566
C 7.30264 7.15598 -0.00094
C 8.52297 6.47019 0.02322
C 8.56774 5.05704 -0.00725
C 7.31117 4.30299 -0.05697
C 7.3925 2.87297 0.01087
C 8.62635 2.23893 -0.01343
C 8.55623 0.77497 0.00988
C 7.3611 0.0617 0.0276
C 9.91196 32.74669 0.01305
C 11.07828 32.02169 -0.00077
C 11.13378 30.64867 0.03368
C 9.82695 30.00116 -0.02929
C 9.83671 28.46164 -0.00966
C 11.06099 27.69715 -0.03337
C 8.69774 27.7089 -0.00279
C 3.7071 32.0091 -0.00112
C 20.93928 19.1012 -0.00316
C 19.62352 16.99798 -0.01979
C 29.5186 11.33799 -0.02155
C 30.73384 10.71712 -0.00944
C 30.73983 9.20212 -0.03735
C 29.48997 8.50049 -0.00971
C 29.48717 7.05036 0.01518
C 30.7071 6.36684 0.01908
C 30.70984 5.00671 0.07705
C 29.48921 4.31306 0.0103
C 29.43308 2.79994 0.02108
C 30.65273 2.08712 0.00716
C 29.46595 12.69558 -0.01461
C 30.70569 0.62289 0.00307
C 31.99064 32.64621 0.01713
C 33.09981 31.8511 -0.01694
C 33.21444 30.42115 0.01428
C 31.98601 29.77367 -0.02142
C 32.00973 28.39892 0.0544
C 33.24413 27.60849 0.00026
C 33.25355 26.19283 0.00682
C 31.94066 25.47848 -0.01779
C 31.87898 24.04859 0.03794
C 33.0891 23.40455 0.01927
C 29.48735 34.07535 0.00346
C 33.07344 22.01226 0.01574
C 30.67197 13.4662 -0.01303
C 29.46707 15.59191 0.01705
C 28.18952 4.96483 0.00235
C 27.03654 4.20846 0.01495
C 26.98903 2.77178 0.01259
C 28.23232 2.1566 0.01799
C 28.28478 0.7458 0.01699
C 27.01542 0.06827 -0.00416
C 29.5054 32.64895 0.01177
C 30.69422 32.00201 0.04266
C 30.76989 30.47943 0.01324
C 29.54403 29.72474 0.0014
C 30.70709 14.90725 -0.0405
C 29.51885 28.31462 0.00924
C 30.78721 26.21985 0.00261
C 29.56327 25.50632 0.03265
C 29.47938 24.14972 -0.02049
C 30.66969 23.38122 -0.01854
C 30.76096 21.97207 -0.01415
C 29.49307 21.22548 -0.03039
C 29.48897 19.87043 0.01836
C 30.70572 19.15213 0.03531
C 30.6297 17.749 -0.00669
C 29.44987 16.95707 0.0101
C 30.78197 27.72263 0.02326
C 31.88706 21.23936 -0.02383
C 31.92818 19.85006 -0.01429
C 33.17897 19.11701 -0.0136
C 1.22214 23.27415 0.00723
C 1.23137 21.86751 0.02712
C 34.39579 21.31539 -0.02213
C 0.01153 19.84394 0.01951
C 1.1674 19.08201 -0.01678
C 1.18233 17.77529 0.01223
C 34.42503 17.01205 0.00648
C 0.08179 15.56241 0.02114
C 1.37002 14.79181 -0.02957
C 1.1507 13.38701 0.00343
C 34.40616 23.99801 0.03076
C 34.39124 12.87007 -0.02656
C 1.17384 10.60293 -0.00027
C 1.08006 9.21757 -0.00583
C 34.32108 8.54917 -0.02302
C 34.37283 7.10512 -0.02849
C 1.17242 6.32739 0.02931
C 1.10889 4.86115 0.00628
C 34.32556 4.19288 -0.0345
C 34.25373 2.83129 -0.00931
C 1.01039 2.06456 -0.00939
C 1.17754 0.65404 -0.00468
C 34.39579 11.3871 -0.02442
C 0.08029 25.41501 -0.05239
C 1.23459 26.26305 -0.00598
C 1.29316 27.69862 -0.00439
C 33.18147 17.70209 0.00594
C 31.91794 17.03346 -0.02474
C 31.99284 15.71663 0.00369
C 33.22484 14.95729 0.00455
C 33.14759 13.55873 -0.00644
C 31.97413 12.81497 -0.01839
C 31.93641 11.43354 0.00137
C 33.18622 10.64072 0.00199
C 33.14943 9.20347 0.04381
C 31.94588 8.52339 0.02806
C 31.92009 7.06467 0.01504
C 33.15276 6.38288 -0.00069
C 33.14278 4.94752 0.04926
C 31.91256 4.28907 -0.03838
C 31.85306 2.7851 0.00349
C 33.08242 2.07242 -0.00323
C 33.2041 0.66015 -0.00841
C 31.9548 34.02878 0.0001
C 34.35606 32.58533 -0.02927
C 1.20556 31.93556 -0.01404
C 1.23322 30.51704 0.01027
C 0.10482 29.74688 0.01831
C 0.04337 28.29515 -0.01037
C 28.23162 6.41477 0.01094
C 27.01134 7.15315 0.02198
C 27.00143 8.56289 0.02611
C 28.20263 9.2879 -0.00621
C 22.11233 21.32831 0.0106
C 22.13927 19.83115 -0.01154
C 23.37856 19.13918 -0.01721
C 23.35794 17.749 -0.02422
C 22.13487 17.01418 0.01277
C 22.09783 15.61228 0.00096
C 23.32898 14.84029 -0.01527
C 23.40359 13.48278 0.01087
C 22.16439 12.78474 0.00199
C 22.08393 11.32862 0.01511
C 23.3284 22.00796 -0.01594
C 23.31103 10.58744 -0.00478
C 22.1241 8.54268 -0.01185
C 22.09288 7.13837 0.01126
C 23.34329 6.36368 0.01852
C 23.26908 5.03781 -0.00381
C 22.14875 4.24271 0.03046
C 22.09145 2.77607 0.0296
C 23.34028 2.12435 0.03374
C 23.27082 0.66702 -0.02845
C 22.05455 34.07901 -0.03213
C 24.57275 32.65181 0.02239
C 23.39303 9.16195 -0.01662
C 23.35979 23.43056 0.00742
C 22.14614 24.13131 -0.00311
C 22.17494 25.55998 0.00675
C 19.62323 15.59222 0.02691
C 20.84995 14.90544 -0.01581
C 20.89138 13.4897 0.01452
C 19.72074 12.77736 0.04892
C 19.61009 11.32843 -0.00111
C 20.89876 10.70974 -0.03557
C 20.83379 9.29152 0.03754
C 19.69362 8.51317 0.01739
C 19.70581 7.14958 0.00755
C 20.88883 6.39486 -0.0054
C 20.93079 4.99331 0.00667
C 19.65776 4.28729 0.00143
C 19.62205 2.89586 -0.017
C 20.85883 2.11842 0.00364
C 20.88848 0.76749 -0.00831
C 19.70664 0.0226 -0.02957
C 22.05024 32.65838 -0.04422
C 23.28057 31.96848 0.00654
C 23.30032 30.54394 -0.00703
C 22.00402 29.85444 -0.04076
C 22.14079 28.39554 -0.00652
C 23.38666 27.73806 0.0058
C 23.34552 26.37505 -0.00865
C 25.76846 31.98064 0.01153
C 20.873 17.68847 0.02188
C 25.83833 30.58529 0.02734
C 24.58971 28.37228 0.01515
C 26.9945 32.70287 -0.01052
C 28.21991 31.95119 -0.01679
C 28.3428 30.46696 0.00367
C 27.03986 29.85838 0.04306
C 26.98566 28.40248 0.00996
C 28.27362 27.60322 0.00195
C 28.37026 26.21728 -0.00802
C 27.10122 25.54679 -0.00218
C 27.13193 24.12301 -0.01654
C 28.29395 23.37429 -0.00037
C 24.55252 0.04815 0.00684
C 28.27184 21.93671 -0.0032
C 27.03728 19.82738 -0.02815
C 28.2744 19.08025 -0.00942
C 28.30712 17.71743 0.00487
C 27.07427 17.00898 0.00826
C 27.00358 15.59065 -0.00294
C 28.24156 14.91191 0.00152
C 28.22282 13.45795 0.01257
C 27.06598 12.7911 0.02316
C 27.02905 11.35672 0.04185
C 28.32074 10.73096 0.00194
C 26.9929 21.25951 0.00622
C 25.67568 0.80409 -0.01154
C 25.74453 2.21942 -0.0264
C 24.4857 2.93357 -0.00938
C 25.81473 27.69432 -0.00225
C 25.81247 26.26909 0.00071
C 24.52621 25.6666 -0.01107
C 24.61521 24.18879 -0.01586
C 25.8588 23.43628 -0.01971
C 25.83269 22.04844 -0.02118
C 24.59199 21.24143 0.00733
C 24.53187 19.87533 -0.00178
C 25.78595 19.06719 0.00768
C 25.78775 17.63568 -0.0276
C 24.55855 16.97529 0.03005
C 24.57596 15.58942 -0.04078
C 25.82899 14.88916 0.02117
C 25.82545 13.48154 0.02737
C 24.61021 12.79226 -0.00498
C 24.54777 11.35394 0.00135
C 25.81288 10.7028 0.03102
C 25.83302 9.28273 0.02555
C 24.61065 8.48611 0.01423
C 24.54082 7.10924 -0.00285
C 25.80304 6.33611 -0.009
C 25.73703 4.95505 -0.01199
C 24.51843 4.33674 -0.00229
C 24.57622 29.82246 -0.0055
C 2.43402 32.6656 0.01078
