356
Graphene
C 0.03817 0.04362 0.01295
C 9.85931 34.036 -0.0108
C 12.25758 32.70885 -0.00368
C 13.51242 32.00075 -0.02696
C 13.55483 30.52818 -0.00114
C 12.35525 29.86599 0.00228
C 12.30016 28.45626 0.00798
C 13.4665 27.64026 0.00422
C 13.45005 26.17045 0.0351
C 11.03189 0.59513 -0.01957
C 12.25362 25.54468 -0.03113
C 12.3914 8.54026 0.01848
C 12.33867 7.03396 -0.00619
C 13.58237 6.366 -0.02162
C 13.55909 4.94696 0.00889
C 12.26597 4.34531 -0.00481
C 12.30427 2.81879 0.00979
C 13.50482 2.02833 0.01443
C 13.4467 0.65835 0.03505
C 13.589 9.10628 0.02098
C 12.21515 34.05461 -0.02815
C 11.04065 2.14587 0.02058
C 9.82831 4.20314 -0.03682
C 8.56014 0.77207 -0.02162
C 7.29989 0.07294 0.00415
C 9.87397 32.67299 -0.0014
C 11.09863 31.97033 0.02162
C 11.0996 30.56838 0.0076
C 9.86115 29.8283 0.01241
C 9.81912 28.43823 -0.01454
C 11.08943 27.72023 0.01945
C 9.8786 2.85947 0.01965
C 11.0831 26.34028 0.01416
C 9.81043 24.17275 0.02299
C 9.91939 11.39523 0.00244
C 11.00088 10.60114 -0.01717
C 11.11246 9.21144 0.05265
C 9.87594 8.53488 -0.01952
C 9.91756 7.06831 -0.02813
C 11.05134 6.33878 0.00374
C 11.0452 5.00015 0.00052
C 9.87462 25.52267 0.03542
C 14.68309 32.64684 -0.04147
C 16.00187 31.93569 -0.05302
C 16.0547 30.55192 0.00213
C 17.24086 7.11113 0.00667
C 18.46374 6.43157 0.00143
C 18.39559 5.07414 -0.017
C 17.1887 4.28478 0.00364
C 17.20179 2.79531 -0.00831
C 18.4348 2.10059 -0.02957
C 18.47297 0.74253 -0.04422
C 17.23272 34.07091 0.00654
C 17.17602 8.58528 -0.0054
C 19.66685 32.67299 -0.00703
C 20.93318 30.49453 -0.00652
C 19.7447 29.90509 0.0058
C 19.69513 28.29942 -0.00865
C 20.93699 27.72637 0.00675
C 20.97889 10.64737 -0.00311
C 20.911 9.17697 0.00742
C 19.60985 8.51251 -0.01594
C 19.67072 7.06553 0.0106
C 20.92011 31.90198 -0.04076
C 18.49754 9.14829 0.00755
C 18.41001 27.76439 0.01739
C 17.19129 28.38413 0.03754
C 14.73428 29.83249 -0.00066
C 14.65761 28.43359 -0.00289
C 15.96774 27.71776 0.00028
C 15.8496 26.27203 -0.02213
C 14.91117 25.60572 0.03698
C 16.00136 9.16161 -0.00109
C 14.78796 8.57742 -0.00491
C 14.78185 7.11753 0.03338
C 16.02542 6.41815 -0.0258
C 15.97937 4.99321 -0.0331
C 14.76154 4.1923 -0.00316
C 14.72618 2.7977 0.02188
C 15.9777 2.15041 -0.01979
C 16.03419 0.73104 0.02691
C 14.71358 0.01432 -0.01581
C 17.17246 32.68437 0.01452
C 18.38298 31.97063 0.04892
C 18.43895 30.50038 -0.00111
C 17.18098 29.82239 -0.03557
C 8.60226 2.16201 0.01363
C 20.96915 6.36643 -0.01154
C 7.33464 2.8446 0.01877
C 8.59406 4.89479 0.00444
C 2.42257 7.06586 -0.00562
C 3.69241 6.37217 -0.00494
C 3.63503 4.93267 0.00054
C 2.47772 4.23919 0.03007
C 2.5009 2.87102 -0.00095
C 3.69563 2.17577 0.01572
C 3.7138 0.67526 -0.04848
C 2.43878 34.05738 -0.00892
C 2.41821 8.52759 -0.01142
C 4.93838 32.71448 -0.01362
C 6.1437 30.49349 0.0288
C 4.89336 29.83859 0.00393
C 4.87067 28.44215 0.00895
C 6.09894 27.70558 0.00685
C 6.12406 26.30545 0.02888
C 4.91283 25.60604 -0.00482
C 4.95299 24.10612 -0.01384
C 6.15586 23.44135 0.03693
C 6.16773 31.96713 -0.0008
C 6.14719 22.0286 0.01745
C 3.61825 9.29105 0.01849
C 2.47111 11.41585 0.0127
C 3.6775 30.48405 -0.05697
C 2.41437 29.81198 0.01087
C 2.4131 28.43552 -0.01343
C 3.7215 27.66531 0.00988
C 3.74497 26.29192 0.0276
C 2.4512 25.55669 0.01305
C 2.54881 24.14068 -0.00077
C 3.71383 23.4243 0.03368
C 3.62401 10.67944 0.01396
C 3.62978 22.12692 -0.02929
C 2.46462 19.90868 -0.03337
C 3.71975 19.1768 0.01227
C 3.68261 17.76147 0.00873
C 2.51394 17.02124 -0.00049
C 2.45115 15.56492 0.00848
C 3.72634 14.8888 -0.01303
C 3.62762 13.4607 -0.01378
C 2.43211 12.86709 0.02635
C 2.40782 21.35985 -0.00966
C 4.89645 21.3319 0.00488
C 4.9502 19.94022 -0.01004
C 6.14455 19.12847 -0.02896
C 8.63782 27.71848 0.00406
C 8.62963 26.32614 0.00943
C 7.38067 25.59686 0.02841
C 7.35969 24.17655 -0.01111
C 8.61025 23.34495 -0.01275
C 8.56966 22.01677 0.00985
C 7.46106 21.26856 -0.02245
C 7.3444 19.83374 -0.00428
C 7.37331 28.43257 0.03592
C 7.3758 17.02694 0.03101
C 8.55905 13.51844 -0.02689
C 7.47292 12.77607 -0.01046
C 7.44879 11.35772 -0.00891
C 8.67731 10.70245 0.02819
C 8.58658 9.10182 0.00165
C 7.36462 8.48975 -0.02971
C 7.35033 7.13594 0.02894
C 8.54527 6.30304 -0.01789
C 7.36478 15.70492 -0.01536
C 7.3695 29.85982 0.00572
C 8.59199 30.53803 0.0402
C 8.65603 31.91427 -0.02759
C 6.14084 17.77514 -0.00131
C 4.91785 17.08759 -0.01118
C 4.969 15.65511 -0.014
C 6.15492 14.90199 0.02147
C 6.16275 13.50136 0.00373
C 4.95654 12.82659 -0.00191
C 4.88317 11.39307 0.00438
C 6.16468 10.69921 0.01291
C 6.18631 9.24156 0.00093
C 4.93152 8.60876 0.00057
C 4.90926 7.14561 -0.01634
C 6.15616 6.47847 -0.00334
C 6.09612 5.09437 0.02339
C 4.90413 4.32171 0.01641
C 4.90153 2.9017 -0.00719
C 6.08898 2.15832 0.01364
C 6.10974 0.77022 -0.01062
C 4.93197 0.01651 -0.00033
C 7.39228 32.65193 0.03589
C 7.32014 4.30249 -0.00925
C 20.86283 5.00219 -0.01721
C 19.67346 4.27494 -0.02422
C 19.61131 2.83938 0.01277
C 31.93613 32.68769 0.01713
C 33.17949 31.91792 -0.01694
C 33.21429 30.50115 0.01428
C 31.93685 29.87055 -0.02142
C 31.94943 28.41709 0.0544
C 33.26468 27.76535 0.00026
C 33.22522 26.24145 0.00682
C 31.97302 25.57338 -0.01779
C 29.46723 34.07293 0.00346
C 31.97823 24.13457 0.03794
C 33.16688 22.0405 0.01574
C 31.87083 21.30545 -0.02383
C 31.89512 19.89386 -0.01429
C 33.14684 19.12627 -0.0136
C 33.19632 17.78798 0.00594
C 31.93882 17.03192 -0.02474
C 32.00479 15.6694 0.00369
C 33.21125 14.87417 0.00455
C 33.1799 23.42545 0.01927
C 33.18156 13.49179 -0.00644
C 30.76154 0.70911 0.00307
C 29.53327 2.89064 0.02108
C 30.72586 22.0179 -0.01415
C 29.48287 21.29707 -0.03039
C 29.45851 19.89492 0.01836
C 30.67668 19.21927 0.03531
C 30.75515 17.75969 -0.00669
C 29.51992 16.98931 0.0101
C 29.57689 15.59005 0.01705
C 30.7616 14.9327 -0.0405
C 30.73082 2.15937 0.00716
C 30.74915 13.50459 -0.01303
C 29.49748 11.33269 -0.02155
C 30.73857 10.65985 -0.00944
C 30.71956 9.23027 -0.03735
C 29.55637 8.55975 -0.00971
C 29.55933 7.02481 0.01518
C 30.7947 6.34709 0.01908
C 30.76193 4.97793 0.07705
C 29.5169 4.32475 0.0103
C 29.52718 12.73253 -0.01461
C 31.9338 12.77615 -0.01839
C 32.00494 11.31149 0.00137
C 33.17712 10.58814 0.00199
C 1.18457 19.1771 -0.01678
C 1.20657 17.71419 0.01223
C 34.36856 17.07623 0.00648
C 34.42011 15.61251 0.02114
C 1.22804 14.85251 -0.02957
C 1.25391 13.46449 0.00343
C 0.01002 12.81992 -0.02656
C 0.0481 11.34198 -0.02442
C 34.40929 19.80323 0.01951
C 1.25335 10.67533 -0.00027
C 0.04051 8.49369 -0.02302
C 34.39745 7.08324 -0.02849
C 1.21998 6.35418 0.02931
C 1.23322 4.95062 0.00628
C 34.41014 4.29824 -0.0345
C 0.01836 2.89287 -0.00931
C 1.22876 2.14811 -0.00939
C 1.28041 0.78029 -0.00468
C 1.19463 9.27415 -0.00583
C 34.42283 21.29234 -0.02213
C 1.21408 22.0266 0.02712
C 1.27819 23.49676 0.00723
C 33.23749 9.18756 0.04381
C 31.92819 8.50871 0.02806
C 31.97278 7.12371 0.01504
C 33.18906 6.42482 -0.00069
C 33.2286 5.03046 0.04926
C 31.92853 4.19817 -0.03838
C 31.93148 2.78207 0.00349
C 33.20008 2.12766 -0.00323
C 33.27143 0.7137 -0.00841
C 31.91569 34.0389 0.0001
C 34.3722 32.68315 -0.02927
C 1.19494 31.89516 -0.01404
C 1.17464 30.52628 0.01027
C 34.42815 29.79469 0.01831
C 0.01436 28.43918 -0.01037
C 1.23671 27.75815 -0.00439
C 1.22324 26.27336 -0.00598
C 34.42761 25.53399 -0.05239
C 34.40074 24.12715 0.03076
C 30.7087 23.44128 -0.01854
C 29.54858 24.17761 -0.02049
C 29.54176 25.49714 0.03265
C 30.74534 26.21278 0.00261
C 25.77359 32.00619 -0.01107
C 25.8289 30.58606 -0.01586
C 24.58644 29.89383 -0.01971
C 24.54849 28.43917 -0.02118
C 25.80268 27.70577 0.00733
C 25.78244 26.31748 -0.00178
C 24.61334 25.59183 0.00768
C 25.86681 23.46204 -0.0276
C 24.55263 32.61794 0.00071
C 25.79626 17.7483 0.03005
C 25.75508 14.97414 0.02117
C 25.81769 13.57855 0.02737
C 24.5706 12.74624 -0.00498
C 24.57867 11.3074 0.00135
C 25.74945 10.63628 0.03102
C 25.82641 9.2539 0.02555
C 24.63404 8.48061 0.01423
C 24.55183 7.03221 -0.00285
C 24.52127 15.58501 -0.04078
C 22.14934 34.06549 -0.00225
C 23.34244 0.66238 0.01515
C 23.33781 2.15056 -0.0055
C 20.90874 2.08641 0.00096
C 20.92739 0.67031 -0.01527
C 19.70166 0.0148 0.01087
C 22.11317 32.63764 0.00199
C 23.37141 31.88576 0.01511
C 23.32997 30.4947 -0.00478
C 22.12633 29.78895 -0.01662
C 22.16476 28.33466 -0.01185
C 23.45732 27.62433 0.01126
C 23.37318 13.51578 0.01852
C 21.97244 11.2955 -0.00381
C 23.27296 10.6348 0.03046
C 23.35575 9.14528 0.0296
C 22.12 8.51018 0.03374
C 22.18043 7.08239 -0.02845
C 23.37348 6.39399 -0.03213
C 23.227 4.95031 0.02239
C 22.02231 4.20126 0.01153
C 22.13417 2.81163 0.02734
C 25.84436 6.33877 -0.009
C 3.72468 31.90546 -0.00725
C 25.83753 4.9206 -0.01199
C 24.5924 2.85242 -0.00938
C 27.03235 11.35186 0.04185
C 28.3083 10.58263 0.00194
C 28.25185 9.18288 -0.00621
C 27.01879 8.52683 0.02611
C 27.1297 7.03882 0.02198
C 28.37564 6.32122 0.01094
C 28.2464 4.91338 0.00235
C 27.06427 4.22181 0.01495
C 27.07694 12.80735 0.02316
C 27.05951 2.80242 0.01259
C 28.3185 0.72342 0.01699
C 27.01754 34.07299 -0.00416
C 29.54115 32.67075 0.01177
C 30.76691 31.94767 0.04266
C 30.80659 30.55065 0.01324
C 29.55777 29.86537 0.0014
C 29.55356 28.43148 0.00924
C 30.78802 27.60677 0.02326
C 28.28285 2.14904 0.01799
C 28.30598 13.50683 0.01257
C 28.24894 14.99559 0.00152
C 27.00776 15.62045 -0.00294
C 25.84994 2.16711 -0.0264
C 25.77344 0.74232 -0.01154
C 24.58486 34.07682 0.00684
C 27.07933 32.68793 -0.01052
C 28.25601 32.01418 -0.01679
C 28.32081 30.50668 0.00367
C 27.07658 29.87914 0.04306
C 27.09626 28.41101 0.00996
C 28.34478 27.66739 0.00195
C 28.23825 26.22025 -0.00802
C 27.06248 25.58282 -0.00218
C 27.03268 24.10272 -0.01654
C 28.4265 23.4619 -0.00037
C 28.24167 22.04259 -0.0032
C 27.06712 21.21577 0.00622
C 27.04232 19.92784 -0.02815
C 28.16749 19.15739 -0.00942
C 28.20229 17.75353 0.00487
C 26.94224 17.06104 0.00826
C 24.55324 4.27177 -0.00229
C 2.50432 32.59464 0.02322
