354
Graphene
C 0.01541 0.03337 0.01295
C 17.26951 21.25008 -0.02696
C 17.1679 19.94735 -0.00114
C 18.41119 19.19618 0.00228
C 18.4933 17.72 0.00798
C 18.48091 14.91707 0.00422
C 18.49282 13.57929 0.0351
C 18.39469 10.59943 -0.03113
C 18.37747 9.21282 0.02098
C 18.43044 21.89937 -0.00368
C 17.21613 8.45446 0.01848
C 18.51403 6.41969 -0.02162
C 18.47656 4.94142 0.00889
C 17.24544 4.25169 -0.00481
C 17.26697 2.83049 0.00979
C 18.42848 2.2107 0.01443
C 18.44894 0.67859 0.03505
C 17.21927 34.00381 -0.02815
C 19.61191 32.6262 -0.04147
C 17.28371 7.03694 -0.00619
C 20.84617 31.9312 -0.05302
C 18.41568 23.456 -0.0108
C 17.23523 25.51012 0.02058
C 15.93442 23.49657 -0.0014
C 15.91044 22.06118 0.02162
C 14.723 21.3776 0.0076
C 14.74075 7.07767 0.01241
C 16.01678 6.40818 -0.01454
C 15.99303 4.98201 0.01945
C 14.73834 4.28923 0.01416
C 14.78433 2.84537 0.03542
C 17.23793 24.15549 -0.01957
C 16.01525 2.19709 0.02299
C 14.7447 0.01284 -0.01717
C 17.21015 32.69489 0.05265
C 18.45875 31.87287 -0.01952
C 18.4602 30.49703 -0.02813
C 17.23621 29.83232 0.00374
C 17.29168 28.38287 0.00052
C 18.44271 27.64174 -0.03682
C 18.44125 26.30026 0.01965
C 16.01616 0.67016 0.00244
C 14.68847 24.13136 0.00415
C 20.91497 30.51311 0.00213
C 19.76934 28.40052 -0.00289
C 19.6779 4.28012 0.00143
C 19.69586 2.86963 -0.017
C 20.87038 2.23497 0.00364
C 20.89224 0.75691 -0.00831
C 19.65891 34.02922 -0.02957
C 22.12569 32.63167 -0.04422
C 23.38204 32.01823 0.00654
C 23.36134 30.50017 -0.00703
C 20.86894 4.99073 0.00667
C 22.12554 29.83677 -0.04076
C 23.39841 27.66692 0.0058
C 23.42452 26.32125 -0.00865
C 22.14792 25.52832 0.00675
C 22.15535 24.13165 -0.00311
C 23.37977 23.40891 0.00742
C 23.39095 21.94944 -0.01594
C 22.08865 21.29089 0.0106
C 22.1019 19.86822 -0.01154
C 22.18269 28.35796 -0.00652
C 19.69786 29.77932 -0.00066
C 20.89869 6.4245 -0.0054
C 19.64738 8.50312 0.01739
C 20.9086 27.7049 0.00028
C 20.85544 26.31368 -0.02213
C 19.66009 25.59791 0.03698
C 19.65615 24.13516 -0.00109
C 20.93346 23.3795 -0.00491
C 20.91994 21.99483 0.03338
C 19.68603 21.31711 -0.0258
C 19.6742 19.92186 -0.0331
C 19.72312 7.12138 0.00755
C 20.88468 19.18928 -0.00316
C 19.68467 17.00248 -0.01979
C 19.64184 15.59995 0.02691
C 20.88671 14.8972 -0.01581
C 20.95629 13.51822 0.01452
C 19.64417 12.77204 0.04892
C 19.63107 11.35469 -0.00111
C 20.85862 10.65849 -0.03557
C 20.89959 9.20878 0.03754
C 20.84824 17.76362 0.02188
C 14.74793 25.5945 -0.02162
C 16.04344 26.23775 0.01363
C 15.95889 27.67519 0.01877
C 4.90514 32.59684 0.00054
C 6.11005 31.91852 0.03007
C 6.17013 30.47621 -0.00095
C 4.85586 29.80093 0.01572
C 4.94445 28.36646 -0.04848
C 6.20564 27.71068 -0.00892
C 4.85545 25.63337 -0.01362
C 4.9736 24.14987 -0.0008
C 2.42802 34.07738 -0.00494
C 6.12474 23.38025 0.0288
C 4.96082 21.39918 0.00895
C 4.95997 7.02414 0.00685
C 6.10063 6.41566 0.02888
C 6.11092 4.9972 -0.00482
C 4.87817 4.25038 -0.01384
C 4.92135 2.83777 0.03693
C 6.148 2.17462 0.01745
C 6.15195 0.66658 0.00488
C 6.12516 22.10335 0.00393
C 4.92067 0.01052 -0.01004
C 3.68245 0.71469 -0.00562
C 2.41558 2.91108 0.01849
C 3.69599 30.5625 -0.01343
C 2.43789 29.80333 0.00988
C 2.41638 28.40439 0.0276
C 3.62401 27.73935 0.01305
C 3.72879 26.23787 -0.00077
C 2.51587 25.5807 0.03368
C 2.45828 24.12992 -0.02929
C 3.77443 23.40249 -0.00966
C 3.70998 2.12554 -0.01142
C 3.63515 21.99139 -0.03337
C 2.44642 20.02048 0.00873
C 2.45264 11.35066 -0.00049
C 3.72422 9.18972 0.00848
C 2.4772 8.55682 -0.01303
C 2.50795 7.08631 -0.01378
C 3.67371 6.35855 0.02635
C 3.73017 4.94518 0.0127
C 2.37176 4.22783 0.01396
C 2.42046 21.38318 0.01227
C 7.32394 32.70938 -0.02896
C 8.58459 31.9931 -0.00131
C 8.65473 30.53558 -0.01118
C 12.28748 28.33789 0.02841
C 13.53231 27.69682 -0.01111
C 13.58401 26.31601 -0.01275
C 12.30439 24.19985 0.00985
C 13.47112 23.43109 -0.02245
C 13.5334 21.92542 -0.00428
C 13.55399 6.3907 0.03101
C 13.54345 4.98163 -0.01536
C 12.29402 29.76606 0.00943
C 12.28956 4.2784 -0.02689
C 13.55342 2.18673 -0.00891
C 13.50516 0.71928 0.02819
C 12.35221 0.00208 0.00165
C 14.81177 32.66787 -0.02971
C 16.01196 31.98896 0.02894
C 15.94493 30.428 -0.01789
C 14.72502 29.80014 0.00444
C 14.71305 28.41861 -0.00925
C 12.2502 2.79841 -0.01046
C 13.52058 30.53404 0.00406
C 13.50706 31.9918 0.03592
C 12.27858 32.7061 0.00572
C 7.38771 29.75252 -0.014
C 8.56628 6.42446 0.02147
C 8.59524 5.04042 0.00373
C 7.40251 4.28946 -0.00191
C 7.36751 2.84248 0.00438
C 8.61907 2.13937 0.01291
C 8.65375 0.75341 0.00093
C 7.3779 0.01989 0.00057
C 9.80519 32.71277 -0.01634
C 11.10912 31.95694 -0.00334
C 11.0846 30.58565 0.02339
C 9.86333 29.88806 0.01641
C 11.15315 6.45338 -0.00719
C 11.03049 5.10264 0.01364
C 9.81842 4.32772 -0.01062
C 9.84278 2.88372 -0.00033
C 10.99372 2.12701 0.03589
C 11.0832 0.74921 -0.02759
C 9.86273 0.00513 0.0402
C 23.36171 19.15171 -0.01721
C 23.31877 17.78328 -0.02422
C 22.08791 17.07868 0.01277
C 22.13245 15.62762 0.00096
C 31.90339 32.6515 0.01713
C 33.13941 31.98321 -0.01694
C 33.19812 30.50194 0.01428
C 31.99885 29.8023 -0.02142
C 31.93966 28.44833 0.0544
C 33.17563 27.72177 0.00026
C 33.24523 26.33813 0.00682
C 31.99045 25.50608 -0.01779
C 29.5085 0.00987 0.00346
C 31.9299 24.12294 0.03794
C 33.21755 22.00242 0.01574
C 31.95807 21.34776 -0.02383
C 31.88407 19.89079 -0.01429
C 33.15076 19.17924 -0.0136
C 33.1665 17.70429 0.00594
C 31.97044 17.08776 -0.02474
C 31.9495 15.61666 0.00369
C 33.21902 14.92533 0.00455
C 33.20947 23.39136 0.01927
C 33.21056 13.47186 -0.00644
C 30.744 0.72682 0.00307
C 29.55442 2.84063 0.02108
C 30.77449 22.07281 -0.01415
C 29.52201 21.29118 -0.03039
C 29.50334 19.88049 0.01836
C 30.71602 19.16194 0.03531
C 30.68723 17.79954 -0.00669
C 29.549 17.02252 0.0101
C 29.5352 15.56468 0.01705
C 30.8167 14.87838 -0.0405
C 30.73522 2.14614 0.00716
C 30.74395 13.51722 -0.01303
C 29.54137 11.36948 -0.02155
C 30.72858 10.63877 -0.00944
C 30.73784 9.21186 -0.03735
C 29.49039 8.55766 -0.00971
C 29.56535 7.14821 0.01518
C 30.75086 6.31945 0.01908
C 30.78273 4.93653 0.07705
C 29.53875 4.26957 0.0103
C 29.51474 12.82056 -0.01461
C 31.97196 12.72666 -0.01839
C 31.91831 11.35841 0.00137
C 33.23669 10.61789 0.00199
C 1.23295 19.12354 -0.01678
C 1.16194 17.7678 0.01223
C 34.40313 17.00899 0.00648
C 34.39734 15.64245 0.02114
C 1.20025 14.85247 -0.02957
C 1.24084 13.48729 0.00343
C 0.04977 12.75896 -0.02656
C 34.4105 11.38549 -0.02442
C 0.04883 19.87316 0.01951
C 1.23431 10.61173 -0.00027
C 0.02051 8.53846 -0.02302
C 0.03232 7.07874 -0.02849
C 1.19948 6.36693 0.02931
C 1.22748 4.93034 0.00628
C 34.42481 4.25401 -0.0345
C 34.41843 2.83335 -0.00931
C 1.26501 2.20695 -0.00939
C 1.23049 0.71854 -0.00468
C 1.26711 9.27925 -0.00583
C 34.39879 21.3188 -0.02213
C 1.20587 22.03375 0.02712
C 1.22155 23.43231 0.00723
C 33.24354 9.26682 0.04381
C 32.00696 8.5198 0.02806
C 31.93964 7.06422 0.01504
C 33.1936 6.42821 -0.00069
C 33.21477 4.99213 0.04926
C 32.01235 4.32542 -0.03838
C 31.93468 2.77249 0.00349
C 33.15706 2.0962 -0.00323
C 33.19951 0.69594 -0.00841
C 32.02856 34.07268 0.0001
C 34.36248 32.63007 -0.02927
C 1.16199 31.9624 -0.01404
C 1.20927 30.49067 0.01027
C 34.39943 29.81237 0.01831
C 34.42054 28.34926 -0.01037
C 1.21865 27.74564 -0.00439
C 1.24955 26.31563 -0.00598
C 0.00362 25.57978 -0.05239
C 34.42996 24.14064 0.03076
C 30.70248 23.41532 -0.01854
C 3.62369 31.97758 0.01087
C 29.50717 24.13873 -0.02049
C 30.77087 26.20588 0.00261
C 24.60327 25.55445 -0.01107
C 24.55571 24.17746 -0.01586
C 25.81662 23.46294 -0.01971
C 25.80984 22.07472 -0.02118
C 24.57971 21.29759 0.00733
C 24.54864 19.86312 -0.00178
C 25.81166 19.21517 0.00768
C 25.81707 17.7679 -0.0276
C 25.83746 26.28632 0.00071
C 24.55398 17.01549 0.03005
C 25.79167 14.91365 0.02117
C 25.82704 13.52242 0.02737
C 24.60444 12.86746 -0.00498
C 24.60967 11.32062 0.00135
C 25.82444 10.60337 0.03102
C 25.76754 9.20467 0.02555
C 24.57926 8.53126 0.01423
C 24.63354 7.09086 -0.00285
C 24.50224 15.55955 -0.04078
C 25.79828 6.37098 -0.009
C 25.8308 27.70808 -0.00225
C 24.5546 29.75725 -0.0055
C 23.30278 14.91368 -0.01527
C 23.4001 13.44495 0.01087
C 22.15944 12.75827 0.00199
C 22.15578 11.36433 0.01511
C 23.34373 10.63208 -0.00478
C 23.37018 9.17051 -0.01662
C 22.12006 8.48281 -0.01185
C 22.1185 7.06844 0.01126
C 24.60167 28.39397 0.01515
C 23.41664 6.33654 0.01852
C 22.10874 4.29107 0.03046
C 22.06665 2.85024 0.0296
C 23.29545 2.0925 0.03374
C 23.35369 0.63898 -0.02845
C 22.08786 0.00762 -0.03213
C 24.64904 32.67545 0.02239
C 25.84747 31.93375 0.01153
C 25.71284 30.53583 0.02734
C 23.29661 4.9014 -0.00381
C 25.84495 4.94685 -0.01199
C 24.59596 4.24361 -0.00229
C 24.61837 2.81356 -0.00938
C 27.09924 11.29599 0.04185
C 28.33938 10.6438 0.00194
C 28.26663 9.24104 -0.00621
C 27.07361 8.45383 0.02611
C 27.02165 7.06594 0.02198
C 28.28039 6.41509 0.01094
C 28.33695 4.91861 0.00235
C 27.14053 4.21745 0.01495
C 27.02656 12.72055 0.02316
C 27.05428 2.83061 0.01259
C 28.29785 0.71118 0.01699
C 27.05205 34.04935 -0.00416
C 29.55163 32.66755 0.01177
C 30.70511 31.92992 0.04266
C 30.75399 30.53717 0.01324
C 29.5624 29.80449 0.0014
C 29.58714 28.40723 0.00924
C 30.79045 27.70581 0.02326
C 28.29442 2.16501 0.01799
C 28.30182 13.41152 0.01257
C 28.26983 14.90859 0.00152
C 27.05976 15.64414 -0.00294
C 25.81176 2.19709 -0.0264
C 25.80816 0.72452 -0.01154
C 24.61029 0.03947 0.00684
C 27.03611 32.66428 -0.01052
C 28.29118 31.93545 -0.01679
C 28.32783 30.55168 0.00367
C 27.027 29.89764 0.04306
C 27.05362 28.37207 0.00996
C 28.31628 27.75385 0.00195
C 28.32732 26.28771 -0.00802
C 27.10545 25.55536 -0.00218
C 26.99095 24.11884 -0.01654
C 28.30323 23.44486 -0.00037
C 28.29332 21.98878 -0.0032
C 27.18495 21.33931 0.00622
C 27.02577 19.9082 -0.02815
C 28.28381 19.14463 -0.00942
C 28.28469 17.71625 0.00487
C 26.95934 17.05441 0.00826
C 29.44355 25.5506 0.03265
C 2.40066 32.65694 -0.05697
