323
Graphene
C 34.38564 34.012 0.01295
C 12.28318 15.66165 -0.00289
C 13.4929 14.93856 0.00028
C 13.56371 13.50666 -0.02213
C 12.3184 12.78283 0.03698
C 12.33317 11.33628 -0.00109
C 13.52108 10.55954 -0.00491
C 13.54438 9.17653 0.03338
C 12.1644 17.10377 -0.00066
C 12.35802 8.52638 -0.0258
C 13.54862 6.33335 -0.00316
C 13.54891 4.91647 0.02188
C 12.29419 4.23548 -0.01979
C 12.31647 2.86838 0.02691
C 13.51149 2.08654 -0.01581
C 13.53618 0.73265 0.01452
C 12.29719 0.03254 0.04892
C 12.36347 7.09777 -0.0331
C 14.79252 32.6634 -0.00111
C 13.49392 17.67756 0.00213
C 12.22246 19.80056 -0.04147
C 11.0312 4.94975 -0.00114
C 9.81038 4.21876 0.00228
C 9.86189 2.84327 0.00798
C 11.06898 2.15753 0.00422
C 11.05788 0.72135 0.0351
C 9.79378 0.05899 -0.03113
C 12.40105 32.76926 0.02098
C 13.44907 19.12055 -0.05302
C 13.59421 32.05587 0.01848
C 12.27572 29.89815 -0.02162
C 12.42638 28.60342 0.00889
C 13.49394 27.73372 -0.00481
C 14.0042 26.55966 0.00979
C 13.98008 23.09069 0.01443
C 13.40539 21.95238 0.03505
C 12.46697 21.08519 -0.02815
C 13.53693 30.67986 -0.00619
C 16.00181 31.97661 -0.03557
C 16.15254 30.60805 0.03754
C 14.81614 29.95781 0.01739
C 16.01855 2.07615 -0.01721
C 15.98338 0.69977 -0.02422
C 14.87966 34.04933 0.01277
C 17.22457 32.61933 0.00096
C 18.25073 31.68701 -0.01527
C 17.60273 30.17689 0.01087
C 18.15353 18.02954 0.00199
C 14.72059 2.79378 -0.01154
C 17.16483 17.01058 0.01511
C 18.5782 14.7882 -0.01662
C 18.62519 13.38507 -0.01185
C 17.25111 12.81224 0.01126
C 17.24515 11.3711 0.01852
C 18.54231 10.63278 -0.00381
C 18.41201 9.18825 0.03046
C 17.21141 8.59902 0.0296
C 17.3257 15.63909 -0.00478
C 14.78654 4.19581 0.0106
C 16.01486 5.00627 -0.01594
C 16.04297 6.44351 0.00742
C 14.4213 28.69649 0.00755
C 14.28545 25.33986 -0.0054
C 14.6483 24.17038 0.00667
C 14.49645 21.06427 0.00143
C 14.68807 19.78995 -0.017
C 15.97287 19.07211 0.00364
C 15.9119 17.66298 -0.00831
C 14.64939 16.97921 -0.02957
C 14.77877 15.56905 -0.04422
C 16.06932 14.97461 0.00654
C 15.97745 13.49847 -0.00703
C 14.78167 12.74709 -0.04076
C 14.76564 11.35283 -0.00652
C 16.00084 10.68207 0.0058
C 15.96115 9.21377 -0.00865
C 14.77722 8.51211 0.00675
C 14.78932 7.10551 -0.00311
C 11.1148 6.31924 -0.02696
C 17.23066 7.16202 0.03374
C 9.85667 7.10607 -0.00368
C 11.08441 9.2517 -0.01957
C 3.707 0.75282 0.00057
C 2.48961 34.0399 -0.01634
C 5.01639 32.70977 -0.00334
C 6.13967 32.06641 0.02339
C 6.18051 19.18918 0.01641
C 6.07761 17.74855 -0.00719
C 4.81596 17.10265 0.01364
C 3.63451 2.14819 0.00093
C 4.87492 15.66936 -0.01062
C 6.16188 13.4349 0.03589
C 4.86764 12.80584 -0.02759
C 4.90975 11.40506 0.0402
C 6.12734 10.64954 0.00572
C 6.11226 9.27972 0.03592
C 4.93275 8.52927 0.00406
C 4.92859 7.16788 0.00943
C 6.10592 14.87087 -0.00033
C 6.12519 6.48766 0.02841
C 2.4005 2.8743 0.01291
C 3.70015 5.01221 -0.00191
C 3.46205 30.55526 0.00393
C 2.48547 29.91717 0.00895
C 2.48813 19.91272 0.00685
C 3.70337 19.27628 0.02888
C 3.68512 17.84485 -0.00482
C 2.46669 17.10737 -0.01384
C 2.4479 15.64729 0.03693
C 2.42001 4.32376 0.00438
C 3.61269 14.9509 0.01745
C 2.3848 12.78217 -0.01004
C 2.43696 11.32 -0.02896
C 3.70093 10.64915 -0.00131
C 3.64313 9.2522 -0.01118
C 2.40796 8.5042 -0.014
C 2.43738 7.15328 0.02147
C 3.68596 6.44744 0.00373
C 3.66924 13.45007 0.00488
C 6.13775 5.04634 -0.01111
C 4.91589 4.27962 -0.01275
C 4.92844 2.90523 0.00985
C 8.5841 2.16394 0.01241
C 8.57221 0.70386 -0.01454
C 7.3841 34.03913 0.01945
C 9.90736 32.75942 0.01416
C 11.13803 32.02011 0.03542
C 11.02665 30.55969 0.02299
C 9.47923 19.64106 0.00244
C 7.32175 2.93672 0.0076
C 10.91646 19.18479 -0.01717
C 9.75201 16.98207 -0.01952
C 9.79156 15.62232 -0.02813
C 10.99208 14.86697 0.00374
C 11.06859 13.51791 0.00052
C 9.8788 12.74741 -0.03682
C 9.91273 11.34484 0.01965
C 11.10433 10.58991 0.02058
C 10.92245 17.71464 0.05265
C 7.3296 4.31186 0.02162
C 8.58217 5.06705 -0.0014
C 8.52428 6.44055 0.00415
C 6.15105 2.06889 -0.02245
C 6.19143 0.70089 -0.00428
C 4.92625 0.04322 0.03101
C 7.45405 32.55915 -0.01536
C 8.72292 32.03459 -0.02689
C 8.41184 19.1196 -0.01046
C 8.47383 17.52965 -0.00891
C 7.23927 16.94232 0.02819
C 7.30446 15.5831 0.00165
C 8.55005 14.86659 -0.02971
C 8.64907 13.49305 0.02894
C 7.40195 12.80003 -0.01789
C 7.33166 11.36982 0.00444
C 8.64642 10.66083 -0.00925
C 8.60589 9.30117 0.01877
C 7.41971 8.53177 0.01363
C 7.35506 7.1266 -0.02162
C 9.84697 8.52603 -0.0108
C 3.74294 32.03592 0.0288
C 18.47428 6.41241 -0.02845
C 17.22422 4.28157 0.02239
C 31.83063 29.88177 0.00682
C 31.94891 28.40879 -0.01779
C 33.23463 27.81757 0.03794
C 33.2707 26.36225 0.01927
C 32.04072 25.6435 0.01574
C 32.04597 24.30549 -0.02383
C 33.1147 23.45642 -0.01429
C 33.1458 30.58765 0.00026
C 33.10184 22.07925 -0.0136
C 31.96441 20.02243 -0.02474
C 33.16271 19.26264 0.00369
C 33.16392 17.78261 0.00455
C 31.90798 17.09441 -0.00644
C 31.96207 15.6834 -0.01839
C 33.26464 14.96915 0.00137
C 33.15372 13.55904 0.00199
C 31.897 21.4293 0.00594
C 31.95053 12.79101 0.04381
C 33.2153 31.94046 0.0544
C 29.46756 34.06275 0.01428
C 29.39261 17.06702 -0.01303
C 29.44475 15.67197 -0.01461
C 30.73956 14.92287 -0.02155
C 30.74048 13.52307 -0.00944
C 29.48208 12.77192 -0.03735
C 29.44101 11.32144 -0.00971
C 30.63742 10.57468 0.01518
C 31.96189 32.67645 -0.02142
C 30.66467 9.15222 0.01908
C 29.48268 7.05883 0.0103
C 30.71948 6.3822 0.02108
C 30.69393 4.90014 0.00716
C 29.50611 4.21856 0.00307
C 29.52532 2.74176 0.00346
C 30.73282 2.09651 0.01713
C 30.72438 0.70221 -0.01694
C 29.47259 8.52932 0.07705
C 31.93746 11.37085 0.02806
C 33.14604 10.65118 0.01504
C 33.13098 9.24382 -0.00069
C 34.3987 17.0773 0.00648
C 34.39617 15.70652 0.02114
C 1.24796 14.94995 -0.02957
C 1.20328 13.49347 0.00343
C 0.03869 12.77231 -0.02656
C 34.41393 11.38956 -0.02442
C 1.22256 10.66118 -0.00027
C 1.24031 17.77711 0.01223
C 1.13229 9.22602 -0.00583
C 34.3868 7.09156 -0.02849
C 1.15398 6.36424 0.02931
C 1.20791 4.98767 0.00628
C 34.36996 4.26879 -0.0345
C 0.007 2.87713 -0.00931
C 1.19692 2.15198 -0.00939
C 1.25252 0.63168 -0.00468
C 34.3671 8.48658 -0.02302
C 1.16725 19.27488 -0.01678
C 34.40099 19.95615 0.01951
C 34.28772 21.36093 -0.02213
C 31.91238 8.49838 0.04926
C 31.91353 7.02795 -0.03838
C 33.15616 6.40329 0.00349
C 33.15374 4.99451 -0.00323
C 31.99088 4.20122 -0.00841
C 31.98604 2.82225 0.0001
C 33.18072 2.11883 -0.02927
C 33.1942 0.63971 -0.01404
C 31.94082 34.01987 0.01027
C 34.36966 32.6142 0.01831
C 1.19361 31.96933 -0.01037
C 1.13505 30.54721 -0.00439
C 34.37265 29.84071 -0.00598
C 0.08336 28.45545 -0.05239
C 34.42209 25.42244 0.03076
C 34.27593 24.23962 0.00723
C 1.16047 21.96605 0.02712
C 30.70705 17.80435 -0.0405
C 18.39308 5.00066 -0.03213
C 30.77881 19.19713 0.01705
C 30.74129 22.21427 -0.00669
C 23.48304 9.30025 0.03102
C 22.12745 8.8382 0.02555
C 22.15382 7.3437 0.01423
C 23.29877 6.41382 -0.00285
C 23.28075 4.90241 -0.009
C 22.06985 4.27115 -0.01199
C 22.07808 2.80393 -0.00229
C 22.06128 32.68993 0.00135
C 23.35676 2.07777 -0.00938
C 22.08964 0.04091 -0.01154
C 24.53838 32.60513 0.00684
C 25.5969 32.10838 -0.01052
C 24.70107 16.97458 -0.01679
C 24.56547 15.79817 0.00367
C 25.7593 14.76094 0.04306
C 25.83327 13.43186 0.00996
C 23.28004 0.70806 -0.0264
C 25.73332 10.59768 0.00195
C 19.61729 34.04545 -0.00498
C 20.85336 2.10844 0.02117
C 17.18443 2.83793 0.01153
C 18.42434 2.12581 0.02734
C 18.4498 0.71057 -0.0055
C 17.24816 0.0075 0.01515
C 19.55575 32.42669 -0.00225
C 21.04351 32.08838 0.00071
C 19.31119 17.17688 -0.01107
C 20.81933 0.69949 0.02737
C 19.50932 15.92595 -0.01586
C 20.78825 9.49424 -0.02118
C 19.68883 8.59867 0.00733
C 19.68964 7.12915 -0.00178
C 20.95431 6.50451 0.00768
C 20.85782 5.04047 -0.0276
C 19.63729 4.2474 0.03005
C 19.64284 2.82979 -0.04078
C 19.88353 11.09169 -0.01971
C 25.81829 9.19122 -0.00802
C 24.54706 8.50242 -0.00218
C 24.52004 7.08292 -0.01654
C 26.98559 7.02373 0.01699
C 28.19996 6.32817 -0.00416
C 28.19706 4.90992 0.01177
C 26.96386 4.22595 0.04266
C 26.94584 2.74225 0.01324
C 28.21738 2.11169 0.0014
C 28.27138 0.59279 0.00924
C 27.03013 8.45922 0.01799
C 26.99918 34.01707 0.02326
C 30.74107 31.92969 0.03265
C 30.60742 30.44158 -0.02049
C 29.35367 29.70959 -0.01854
C 29.489 28.36798 -0.01415
C 30.73995 27.70231 -0.03039
C 30.87515 26.28287 0.01836
C 30.78861 23.45959 0.03531
C 29.42044 32.59792 0.00261
C 28.17255 9.22898 0.01259
C 28.18615 10.59324 0.01495
C 26.95409 11.28305 0.00235
C 25.72039 6.31245 -0.00037
C 25.77552 4.95259 -0.0032
C 24.46558 4.27486 0.00622
C 24.51925 2.7629 -0.02815
C 25.73763 2.04237 -0.00942
C 25.73565 0.62112 0.00487
C 24.51089 33.99843 0.00826
C 27.05876 32.61051 -0.00294
C 28.22763 31.8564 0.00152
C 28.17437 30.49199 0.01257
C 28.51328 19.13197 0.02316
C 28.0097 17.70857 0.04185
C 26.9537 16.90755 0.00194
C 27.00927 15.47865 -0.00621
C 28.27137 14.87783 0.02611
C 28.28925 13.46922 0.02198
C 27.09493 12.69289 0.01094
C 29.44022 19.88156 0.0101
C 2.40599 32.63949 -0.0008
