291
Graphene
C 34.35525 34.07287 0.01295
C 12.40364 32.65599 0.00667
C 13.59494 31.93275 0.00143
C 13.58751 30.4594 -0.017
C 12.28881 29.76478 0.00364
C 12.30955 28.42414 -0.00831
C 13.51856 27.77277 -0.02957
C 9.85461 0.05801 -0.0054
C 13.3933 26.32423 -0.04422
C 13.60839 8.92276 -0.00703
C 12.34179 8.50945 -0.04076
C 12.25223 7.12736 -0.00652
C 13.51238 6.43613 0.0058
C 13.5426 4.96018 -0.00865
C 12.28524 4.24986 0.00675
C 12.20822 25.87461 0.00654
C 12.2792 2.76864 -0.00311
C 11.05934 0.74479 0.00755
C 9.84979 2.8159 0.03754
C 9.88824 32.67319 -0.00109
C 11.02165 31.95744 -0.00491
C 11.01124 30.58217 0.03338
C 9.80157 29.79623 -0.0258
C 9.83201 28.4347 -0.0331
C 10.97391 27.72527 -0.00316
C 11.07864 2.15495 0.01739
C 10.91562 26.28744 0.02188
C 11.11097 9.36584 0.02691
C 9.79743 8.6632 -0.01581
C 9.81381 7.2058 0.01452
C 10.98358 6.3866 0.04892
C 11.04856 5.00243 -0.00111
C 9.87681 4.2664 -0.03557
C 9.63822 25.56683 -0.01979
C 13.53074 2.13575 0.00742
C 13.55656 0.61445 -0.01594
C 12.28724 0.02946 0.0106
C 17.23341 32.66715 -0.03213
C 18.50212 31.9879 0.02239
C 18.45993 30.49085 0.01153
C 17.26561 29.74593 0.02734
C 17.16154 28.27781 -0.0055
C 18.53582 27.76641 0.01515
C 14.80779 0.01889 -0.02845
C 17.14494 11.3414 -0.00225
C 18.45701 9.19712 -0.01107
C 17.20125 8.55005 -0.01586
C 17.24813 7.16649 -0.01971
C 18.42196 6.38281 -0.02118
C 18.43337 4.95848 0.00733
C 17.21583 4.28243 -0.00178
C 18.36038 10.74472 0.00071
C 16.04577 0.68018 0.03374
C 16.04199 2.11716 0.0296
C 14.81894 2.76105 0.03046
C 14.87179 32.64913 -0.01154
C 16.1067 31.96979 -0.01721
C 16.072 30.45458 -0.02422
C 14.85175 29.81023 0.01277
C 14.74976 28.39987 0.00096
C 15.91709 27.54506 -0.01527
C 15.91207 26.10433 0.01087
C 14.59756 25.49171 0.00199
C 14.91696 24.0728 0.01511
C 16.14074 9.5364 -0.00478
C 14.89027 8.66842 -0.01662
C 14.77883 7.17392 -0.01185
C 16.03856 6.41155 0.01126
C 15.9601 4.99903 0.01852
C 14.75404 4.23669 -0.00381
C 7.37123 34.05348 0.03698
C 17.19972 2.91013 0.00768
C 8.667 0.70798 -0.02213
C 7.39416 2.88714 -0.00289
C 2.53841 11.35387 0.02894
C 3.73841 10.58198 -0.01789
C 3.65653 9.19137 0.00444
C 2.42014 8.51391 -0.00925
C 2.37452 7.13375 0.01877
C 3.63241 6.38948 0.01363
C 2.47124 12.83668 -0.02971
C 3.66005 4.91517 -0.02162
C 2.38922 2.79485 -0.0014
C 3.64579 2.12139 0.02162
C 3.67191 0.68572 0.0076
C 2.34841 0.05657 0.01241
C 4.89528 32.70802 -0.01454
C 6.09955 31.978 0.01945
C 2.38461 4.22016 0.00415
C 6.1383 30.57436 0.01416
C 3.82644 13.65679 0.00165
C 2.41515 15.67715 -0.00891
C 3.68245 30.5628 0.00572
C 2.44864 29.89056 0.03592
C 2.44569 28.4684 0.00406
C 3.6136 27.76891 0.00943
C 3.64704 26.22756 0.02841
C 2.37574 25.52384 -0.01111
C 3.57667 15.01127 0.02819
C 2.3988 24.17184 -0.01275
C 3.755 22.11141 -0.02245
C 2.48493 21.37276 -0.00428
C 2.34746 19.97517 0.03101
C 3.60154 19.15389 -0.01536
C 3.59398 18.00312 -0.02689
C 2.47686 17.16056 -0.01046
C 3.5538 23.44082 0.00985
C 4.9701 29.85201 0.03542
C 4.91923 28.40527 0.02299
C 6.11824 27.71189 0.00244
C 8.53355 31.96485 0.02098
C 8.56728 30.51702 0.01848
C 7.32306 29.7872 -0.00619
C 7.32741 28.38015 -0.02162
C 8.55465 27.69982 0.00889
C 8.51976 26.23968 -0.00481
C 7.37672 32.61845 -0.03113
C 7.28006 25.56916 0.00979
C 8.52629 9.15435 0.03505
C 7.33023 8.44867 -0.02815
C 7.37409 7.07331 -0.04147
C 8.65114 6.4952 -0.05302
C 8.66379 4.96027 0.00213
C 7.39069 4.30294 -0.00066
C 7.11202 24.12578 0.01443
C 4.93724 34.07015 0.0351
C 6.10012 0.72295 0.00422
C 6.13388 2.16418 0.00798
C 6.05225 26.23656 -0.01717
C 4.88111 25.61045 0.05265
C 4.72884 24.17187 -0.01952
C 6.01568 23.3914 -0.02813
C 5.1101 21.60236 0.00374
C 4.82809 12.67198 0.00052
C 5.03128 11.32693 -0.03682
C 6.34688 10.61746 0.01965
C 6.1216 9.18698 0.02058
C 4.88351 8.51731 -0.01957
C 4.82152 7.10612 -0.0108
C 6.1084 6.41556 -0.00368
C 6.11823 4.97429 -0.02696
C 4.89784 4.15955 -0.00114
C 4.85841 2.83602 0.00228
C 8.66346 2.20017 0.00028
C 3.67092 31.99322 0.0402
C 18.43767 2.18957 -0.0276
C 17.28651 34.04447 -0.04078
C 33.16879 27.64896 -0.01429
C 33.15445 26.213 -0.0136
C 33.34986 23.1377 0.00594
C 33.23404 18.05329 -0.02474
C 31.66122 15.18757 0.00369
C 33.12111 14.98206 0.00455
C 32.07961 28.41838 -0.02383
C 33.30122 13.58681 -0.00644
C 31.97845 11.3346 0.00137
C 33.20699 10.69915 0.00199
C 33.1677 9.26934 0.04381
C 31.93023 8.60777 0.02806
C 31.85036 7.20729 0.01504
C 33.10055 6.46821 -0.00069
C 32.13517 12.8531 -0.01839
C 33.0995 5.00946 0.04926
C 31.96157 29.80904 0.01574
C 33.15971 31.9865 0.03794
C 29.69633 12.95593 0.07705
C 29.4703 11.49724 0.0103
C 30.7174 10.78025 0.02108
C 30.6643 9.35509 0.00716
C 29.46101 8.5999 0.00307
C 29.47248 7.11929 0.00346
C 33.11429 30.58589 0.01927
C 30.68515 6.46525 0.01713
C 29.42957 4.36277 0.01428
C 29.41791 2.9016 -0.02142
C 30.61323 2.17692 0.0544
C 30.65418 0.73381 0.00026
C 29.41326 0.03788 0.00682
C 31.87236 32.69451 -0.01779
C 30.63035 5.04842 -0.01694
C 31.86604 4.29157 -0.03838
C 31.87716 2.89108 0.00349
C 33.06356 2.22879 -0.00323
C 1.11112 15.02862 -0.02957
C 1.26317 13.61937 0.00343
C 0.05351 12.78285 -0.02656
C 0.10057 11.41917 -0.02442
C 1.28765 10.66477 -0.00027
C 1.23069 9.24679 -0.00583
C 34.31418 15.79867 0.02114
C 34.35538 8.51688 -0.02302
C 1.14338 6.43148 0.02931
C 1.14217 4.95046 0.00628
C 34.36536 4.31411 -0.0345
C 34.33099 2.84011 -0.00931
C 1.17694 2.15012 -0.00939
C 1.13241 0.68298 -0.00468
C 34.37569 7.10087 -0.02849
C 34.41419 17.18384 0.00648
C 1.24878 17.8107 0.01223
C 1.18117 19.24696 -0.01678
C 33.12454 0.73028 -0.00841
C 31.92537 0.03327 0.0001
C 34.35159 32.63939 -0.02927
C 1.1548 31.96719 -0.01404
C 1.20005 30.51372 0.01027
C 34.34202 29.80017 0.01831
C 34.36807 28.3861 -0.01037
C 1.13155 27.68405 -0.00439
C 1.15349 26.2049 -0.00598
C 34.32892 25.5449 -0.05239
C 34.39709 24.08567 0.03076
C 1.21116 23.35918 0.00723
C 1.21921 21.97551 0.02712
C 34.40076 21.36501 -0.02213
C 34.35746 19.85175 0.01951
C 30.8601 13.58472 0.01908
C 18.53374 0.74472 0.03005
C 30.60628 27.95707 0.01518
C 29.41091 29.86523 -0.03735
C 22.1215 32.67125 0.04306
C 23.36764 31.83147 0.00996
C 23.22771 30.34436 0.00195
C 21.97027 29.85304 -0.00802
C 22.00942 11.35708 -0.00218
C 23.28458 10.6764 -0.01654
C 19.77119 34.07162 0.00367
C 23.31156 9.25835 -0.00037
C 22.09131 7.01331 0.00622
C 23.32865 6.41483 -0.02815
C 23.39131 4.97094 -0.00942
C 22.108 4.26213 0.00487
C 22.16028 2.90998 0.00826
C 23.39452 2.08603 -0.00294
C 22.09749 8.53256 -0.0032
C 23.34539 0.65107 0.00152
C 21.0059 0.71673 -0.01679
C 19.67064 2.86219 0.00684
C 19.69567 32.70024 0.02117
C 20.91478 31.94473 0.02737
C 20.91095 30.61443 -0.00498
C 19.66302 29.93449 0.00135
C 19.49067 28.41254 0.03102
C 19.72829 12.8192 0.02555
C 20.99053 2.1422 -0.01052
C 19.6579 11.42923 0.01423
C 20.86123 9.14432 -0.009
C 19.65663 8.43829 -0.01199
C 19.61641 7.0424 -0.00229
C 20.85679 6.38551 -0.00938
C 20.87481 4.91671 -0.0264
C 19.68339 4.28973 -0.01154
C 20.84426 10.61222 -0.00285
C 22.20285 34.06958 0.01257
C 24.56135 32.48266 0.02316
C 25.84062 31.86288 0.04185
C 28.25631 10.7455 -0.02049
C 28.24089 9.38364 -0.01854
C 27.01269 8.54148 -0.01415
C 27.03952 7.1529 -0.03039
C 28.2577 6.43101 0.01836
C 28.22166 5.04804 0.03531
C 27.04905 11.39888 0.03265
C 27.05353 4.24637 -0.00669
C 28.21788 2.11048 0.01705
C 28.20742 0.74309 -0.0405
C 27.0277 34.06211 -0.01303
C 29.42428 32.70229 -0.01461
C 30.65211 31.99153 -0.02155
C 30.66782 30.49487 -0.00944
C 27.08119 2.88548 0.0101
C 27.04027 29.8361 0.00261
C 28.16428 30.6013 0.02326
C 28.22642 32.01674 0.00924
C 25.81672 30.44057 0.00194
C 24.54821 29.83608 -0.00621
C 24.5352 11.1956 0.02611
C 25.8139 10.73169 0.02198
C 25.75008 9.24933 0.01094
C 24.50783 8.62647 0.00235
C 24.52641 7.12121 0.01495
C 25.77537 6.40616 0.01259
C 25.75869 4.9451 0.01799
C 24.56126 4.23708 0.01699
C 24.63926 2.79604 -0.00416
C 25.81165 2.08419 0.01177
C 25.76156 0.70486 0.04266
C 24.59269 33.9904 0.01324
C 27.00611 32.64619 0.0014
C 29.54713 28.42246 -0.00971
C 2.45486 32.67879 -0.02759
