429
Graphene
C 0.01324 0.02045 0.01295
C 13.55222 23.4102 0.03589
C 13.49151 22.04082 -0.02759
C 12.2969 21.33596 0.0402
C 12.30019 19.86129 0.00572
C 13.53322 19.22522 0.03592
C 13.53414 17.77533 0.00406
C 12.253 17.00866 0.00943
C 12.25745 15.62456 0.02841
C 13.49729 14.83555 -0.01111
C 13.52651 13.50805 -0.01275
C 12.32637 24.17016 -0.00033
C 12.32657 12.76272 0.00985
C 13.53265 10.65403 -0.00428
C 13.55512 9.21637 0.03101
C 12.26157 8.5588 -0.01536
C 12.29835 7.07703 -0.02689
C 13.54816 6.36507 -0.01046
C 13.52662 4.94208 -0.00891
C 12.35426 4.2076 0.02819
C 12.26824 2.83798 0.00165
C 13.51344 2.16979 -0.02971
C 13.52702 0.67344 0.02894
C 12.27221 11.4025 -0.02245
C 12.25959 25.6394 -0.01062
C 13.5376 26.31542 0.01364
C 13.57119 27.71222 -0.00719
C 11.07705 17.77819 0.00685
C 9.85445 17.02899 0.02888
C 9.82523 15.63117 -0.00482
C 11.0572 14.87993 -0.01384
C 11.09589 13.49833 0.03693
C 9.8377 12.81737 0.01745
C 9.79942 11.37708 0.00488
C 11.01882 10.70644 -0.01004
C 11.06956 9.22246 -0.02896
C 9.8556 8.53498 -0.00131
C 9.87313 7.09915 -0.01118
C 11.10687 6.38033 -0.014
C 11.04854 4.93307 0.02147
C 9.83729 4.2937 0.00373
C 9.85824 2.83941 -0.00191
C 11.05512 2.11766 0.00438
C 11.06355 0.71593 0.01291
C 9.91087 0.00794 0.00093
C 12.30001 32.67045 0.00057
C 13.54583 31.9813 -0.01634
C 13.52528 30.60344 -0.00334
C 12.29823 29.85487 0.02339
C 12.29779 28.3767 0.01641
C 12.28989 34.07602 -0.01789
C 14.7566 32.69046 0.00444
C 15.97867 31.93548 -0.00925
C 15.96483 30.53883 0.01877
C 15.97536 0.74458 0.00228
C 14.76629 34.05669 0.00798
C 17.2203 32.73297 0.00422
C 18.45438 31.905 0.0351
C 18.44794 30.5088 -0.03113
C 17.21792 29.8025 0.02098
C 17.2406 28.35088 0.01848
C 18.4194 27.69919 -0.00619
C 18.42566 26.27569 -0.02162
C 17.223 25.54338 0.00889
C 17.20857 24.13003 -0.00481
C 18.41684 23.44935 0.00979
C 18.42937 22.02451 0.01443
C 17.18018 21.28874 0.03505
C 17.16613 19.90353 -0.02815
C 18.45289 19.21796 -0.04147
C 18.42902 17.78749 -0.05302
C 17.23278 17.00544 0.00213
C 17.21662 15.60623 -0.00066
C 18.4564 14.92995 -0.00289
C 18.49475 13.5135 0.00028
C 17.26868 12.78392 -0.02213
C 17.20744 11.38085 0.03698
C 15.98983 2.09651 -0.00114
C 11.05482 19.16315 0.00895
C 14.75538 2.81041 -0.02696
C 16.01781 4.99419 -0.0108
C 14.75306 29.81988 0.01363
C 14.74072 28.39216 -0.02162
C 15.93507 27.70679 0.00415
C 15.99358 26.26933 -0.0014
C 14.72865 25.56827 0.02162
C 14.75868 24.13422 0.0076
C 16.01045 23.41244 0.01241
C 15.97693 21.9762 -0.01454
C 14.74158 21.27191 0.01945
C 14.71854 19.89664 0.01416
C 15.9815 19.15439 0.03542
C 15.99707 17.733 0.02299
C 14.78635 17.02031 0.00244
C 14.79995 15.62986 -0.01717
C 15.98054 14.92863 0.05265
C 15.98792 13.4367 -0.01952
C 14.72666 12.7753 -0.02813
C 14.74818 11.35641 0.00374
C 15.9781 10.67313 0.00052
C 16.02725 9.20066 -0.03682
C 14.7526 8.53485 0.01965
C 14.74163 7.09368 0.02058
C 15.94987 6.38811 -0.01957
C 14.76997 4.26386 -0.00368
C 9.8461 19.93501 0.00393
C 9.86696 21.26739 0.0288
C 11.06512 22.06177 -0.0008
C 3.70886 2.14362 0.02728
C 3.66691 0.72223 -0.00039
C 2.39726 0.0309 0.0064
C 4.94115 32.66163 0.00211
C 6.15982 31.91304 -0.00449
C 6.14713 30.49739 -0.01979
C 4.87479 29.84155 0.02784
C 4.91846 28.36242 -0.01977
C 6.18175 27.69427 -0.00561
C 6.14774 26.26898 0.00208
C 4.97979 25.55628 0.01707
C 4.94631 24.16942 0.02769
C 6.14363 23.39805 -0.03291
C 6.14617 22.06462 -0.04999
C 4.93893 21.29014 0.04505
C 4.9308 19.8422 0.03284
C 6.12113 19.16648 -0.04307
C 6.16207 17.72146 0.03189
C 4.89663 17.01295 0.00031
C 4.94508 15.6291 -0.003
C 6.07115 14.89099 0.01402
C 6.13277 13.55646 0.02379
C 4.89835 12.83407 0.00907
C 2.45334 2.84041 0.00245
C 4.94124 11.39791 0.00643
C 2.46425 4.20663 0.00081
C 3.74527 6.38062 -0.01386
C 3.70915 30.56099 0.00267
C 2.45933 29.87793 0.00787
C 2.43209 28.39512 0.02426
C 3.67559 27.66721 0.01218
C 3.67827 26.24257 -0.01471
C 2.47474 25.56286 -0.02827
C 2.47394 24.11757 0.01078
C 3.70053 23.43926 -0.00112
C 3.71655 22.02806 0.03345
C 2.4444 21.27134 0.00748
C 2.50019 19.8475 0.00662
C 3.71001 19.16198 -0.0154
C 3.69677 17.76386 -0.01299
C 2.45811 16.96005 -0.00407
C 2.47971 15.59266 0.01138
C 3.70108 14.90541 0.03278
C 3.64494 13.43075 -0.00177
C 2.45445 12.78994 0.04421
C 2.44343 11.3782 0.00088
C 3.67898 10.68255 0.00828
C 3.70101 9.22601 -0.02375
C 2.46605 8.53258 0.00558
C 2.44145 7.12556 -0.0059
C 3.69817 4.97173 -0.02805
C 17.19414 8.4648 -0.00109
C 6.13586 10.65713 -0.01509
C 4.95908 8.56224 0.02374
C 7.399 12.76751 -0.02929
C 7.35792 11.39551 -0.00966
C 8.61781 10.63991 -0.03337
C 8.62027 9.26748 0.01227
C 7.40961 8.56458 0.00873
C 7.41004 7.12544 -0.00049
C 8.57676 6.43833 0.00848
C 8.61839 5.00289 -0.01303
C 7.39475 4.30313 -0.01378
C 7.34699 2.83596 0.02635
C 8.62229 2.16907 0.0127
C 8.62466 0.69405 0.01396
C 7.40055 0.01045 0.01849
C 9.84872 32.69632 -0.01142
C 11.03863 31.96286 -0.00562
C 11.08142 30.50478 -0.00494
C 9.81382 29.80866 0.00054
C 9.80863 28.40944 0.03007
C 11.07131 27.65712 -0.00095
C 11.05346 26.26926 0.01572
C 9.7753 25.58465 -0.04848
C 9.82311 24.14257 -0.00892
C 11.07965 23.47785 -0.01362
C 8.62364 13.4744 0.03368
C 6.15874 9.22972 0.03267
C 8.56345 14.92519 -0.00077
C 7.36042 17.06233 0.0276
C 4.94256 7.12836 0.00402
C 6.1038 6.39267 0.0073
C 6.11002 4.97733 0.0174
C 4.8833 4.21145 0.03828
C 4.93324 2.86214 0.01226
C 6.07502 2.15865 -0.00279
C 6.16647 0.74801 0.01996
C 4.91894 34.06017 -0.03996
C 7.38489 32.65951 0.01465
C 8.6037 31.97069 -0.00074
C 8.65377 30.53578 -0.00518
C 7.42737 29.85806 0.0086
C 7.36215 28.38796 -0.00643
C 8.59245 27.71636 0.017
C 8.60691 26.26648 -0.03113
C 7.34768 25.6002 -0.02566
C 7.40237 24.14325 -0.00094
C 8.60015 23.37738 0.02322
C 8.66218 21.96046 -0.00725
C 7.36929 21.32899 -0.05697
C 7.37058 19.91553 0.01087
C 8.62318 19.16948 -0.01343
C 8.58676 17.75127 0.00988
C 7.36501 15.62598 0.01305
C 3.67187 31.98133 0.01913
C 17.24955 7.10704 -0.00491
C 18.45999 4.92359 -0.0258
C 29.52743 12.76895 -0.01461
C 29.54046 11.37091 -0.02155
C 30.7485 10.65219 -0.00944
C 30.74634 9.22908 -0.03735
C 29.46975 8.52817 -0.00971
C 29.55539 7.06689 0.01518
C 30.725 6.37617 0.01908
C 30.72826 4.99416 0.07705
C 29.47465 4.23235 0.0103
C 29.49621 2.87355 0.02108
C 30.73728 13.49899 -0.01303
C 30.75313 2.0789 0.00716
C 29.53764 34.05033 0.00346
C 31.95116 32.675 0.01713
C 33.2475 31.93672 -0.01694
C 33.20842 30.47688 0.01428
C 31.99133 29.81149 -0.02142
C 32.02349 28.37916 0.0544
C 33.1877 27.69593 0.00026
C 33.19882 26.25826 0.00682
C 31.96571 25.55715 -0.01779
C 31.97268 24.15943 0.03794
C 30.76563 0.73744 0.00307
C 30.76817 14.92163 -0.0405
C 29.54537 15.64478 0.01705
C 29.47381 17.05337 0.0101
C 27.04539 7.10481 0.02198
C 28.30561 6.37282 0.01094
C 28.32108 4.99923 0.00235
C 27.06893 4.2481 0.01495
C 27.03994 2.82176 0.01259
C 28.28607 2.14133 0.01799
C 28.28266 0.70904 0.01699
C 27.08064 0.02773 -0.00416
C 29.45971 32.60296 0.01177
C 30.73923 31.91472 0.04266
C 30.73251 30.52597 0.01324
C 29.55821 29.80937 0.0014
C 29.47664 28.35993 0.00924
C 30.73106 27.6739 0.02326
C 30.71077 26.23243 0.00261
C 29.48597 25.53305 0.03265
C 29.5039 24.04992 -0.02049
C 30.75134 23.48461 -0.01854
C 30.74856 22.06347 -0.01415
C 29.55179 21.31514 -0.03039
C 29.52257 19.85156 0.01836
C 30.70709 19.13722 0.03531
C 30.71581 17.74022 -0.00669
C 33.22426 23.4317 0.01927
C 33.24078 21.96515 0.01574
C 32.00641 21.3029 -0.02383
C 31.95031 19.91365 -0.01429
C 34.42681 24.16886 0.03076
C 1.22055 23.48824 0.00723
C 1.194 22.03447 0.02712
C 34.40698 21.2938 -0.02213
C 34.4309 19.91136 0.01951
C 1.25473 19.18337 -0.01678
C 1.2362 17.74007 0.01223
C 34.42019 16.99253 0.00648
C 34.40809 15.60289 0.02114
C 1.2172 14.91808 -0.02957
C 1.22024 13.55126 0.00343
C 0.00718 12.71654 -0.02656
C 34.41294 11.34988 -0.02442
C 1.18106 10.67242 -0.00027
C 1.23354 9.23961 -0.00583
C 0.01839 8.5249 -0.02302
C 34.38204 7.06171 -0.02849
C 1.19118 6.36566 0.02931
C 1.23295 4.95216 0.00628
C 34.42735 4.19653 -0.0345
C 34.42256 2.84085 -0.00931
C 1.27538 2.11545 -0.00939
C 1.25926 0.70539 -0.00468
C 0.02026 25.59859 -0.05239
C 27.05682 8.5296 0.02611
C 1.2547 26.23236 -0.00598
C 34.42841 28.40507 -0.01037
C 33.18228 19.1704 -0.0136
C 33.18962 17.75938 0.00594
C 32.0079 17.03175 -0.02474
C 31.99055 15.6217 0.00369
C 33.1663 14.88496 0.00455
C 33.18258 13.45953 -0.00644
C 31.95812 12.74182 -0.01839
C 31.93853 11.34388 0.00137
C 33.21055 10.63184 0.00199
C 33.20006 9.23304 0.04381
C 31.9193 8.51815 0.02806
C 31.91352 7.08054 0.01504
C 33.20446 6.38877 -0.00069
C 33.2056 4.95824 0.04926
C 32.00165 4.23476 -0.03838
C 32.00779 2.83567 0.00349
C 33.22144 2.10909 -0.00323
C 33.19152 0.6923 -0.00841
C 31.99173 34.03826 0.0001
C 34.40239 32.63815 -0.02927
C 1.21301 31.98172 -0.01404
C 1.26354 30.49119 0.01027
C 0.04324 29.7887 0.01831
C 1.21264 27.63468 -0.00439
C 28.2744 9.23194 -0.00621
C 28.30647 10.65647 0.00194
C 27.0579 11.32573 0.04185
C 19.71999 2.85204 0.00675
C 20.87749 2.12671 -0.00311
C 20.91651 0.71842 0.00742
C 19.73036 34.03552 -0.01594
C 22.18103 32.65233 0.0106
C 23.38095 31.99022 -0.01154
C 23.3534 30.55629 -0.01721
C 22.134 29.76678 -0.02422
C 22.12799 28.39064 0.01277
C 23.35423 27.67764 0.00096
C 23.33492 26.31729 -0.01527
C 22.1265 25.53088 0.01087
C 22.14378 24.13808 0.00199
C 23.32993 23.43788 0.01511
C 23.36418 21.99878 -0.00478
C 22.14768 21.31319 -0.01662
C 22.12001 19.91858 -0.01185
C 23.38711 19.11578 0.01126
C 23.37408 17.76348 0.01852
C 22.16838 17.02176 -0.00381
C 22.16921 15.58817 0.03046
C 23.33147 14.88241 0.0296
C 23.38585 13.48308 0.03374
C 19.66103 4.2355 -0.00865
C 23.46755 4.98287 -0.02845
C 20.886 4.97834 0.0058
C 20.91608 13.46929 -0.04076
C 17.21601 4.23671 -0.0331
C 17.13011 2.86807 -0.00316
C 18.39627 2.14212 0.02188
C 18.4471 0.69981 -0.01979
C 17.20258 0.03405 0.02691
C 19.70505 32.63313 -0.01581
C 20.85322 31.91993 0.01452
C 20.90673 30.51565 0.04892
C 19.67176 29.83755 -0.00111
C 19.64422 28.36417 -0.03557
C 20.90034 27.71091 0.03754
C 20.91348 26.25762 0.01739
C 19.65851 25.54205 0.00755
C 19.67945 24.13941 -0.0054
C 20.90818 23.37829 0.00667
C 20.93361 21.99582 0.00143
C 19.67446 21.28434 -0.017
C 19.68809 19.91334 0.00364
C 20.97814 19.22963 -0.00831
C 20.91498 17.77045 -0.02957
C 19.64454 17.02164 -0.04422
C 19.66662 15.62797 0.00654
C 20.88941 14.90194 -0.00703
C 19.70172 12.82419 -0.00652
C 18.42218 6.35799 0.03338
C 22.16894 4.28601 -0.03213
C 23.41107 2.13761 0.01153
C 25.80597 2.14674 -0.0264
C 25.83621 0.68998 -0.01154
C 24.57723 0.0307 0.00684
C 27.0518 32.62944 -0.01052
C 28.28881 31.92271 -0.01679
C 28.25667 30.52669 0.00367
C 27.07205 29.82136 0.04306
C 27.02666 28.39709 0.00996
C 28.29253 27.68885 0.00195
C 28.30654 26.26563 -0.00802
C 27.0541 25.62179 -0.00218
C 27.07903 24.17131 -0.01654
C 28.25189 23.4108 -0.00037
C 28.31629 21.99976 -0.0032
C 27.04925 21.31107 0.00622
C 27.06183 19.89582 -0.02815
C 28.29837 19.14027 -0.00942
C 28.26309 17.70832 0.00487
C 27.09373 17.03838 0.00826
C 27.01869 15.66531 -0.00294
C 28.29415 14.90929 0.00152
C 28.29638 13.52149 0.01257
C 27.03998 12.75067 0.02316
C 24.6283 2.81648 -0.00938
C 22.10803 2.85932 0.02239
C 24.6052 4.27895 -0.00229
C 25.81888 6.36673 -0.009
C 23.29392 0.70456 0.02734
C 22.11994 34.0617 -0.0055
C 24.56147 32.68235 0.01515
C 25.82492 31.94868 -0.00225
C 25.76615 30.50969 0.00071
C 24.56975 29.80147 -0.01107
C 24.5964 28.41219 -0.01586
C 25.83193 27.741 -0.01971
C 25.79358 26.20445 -0.02118
C 24.59248 25.56706 0.00733
C 24.58342 24.14982 -0.00178
C 25.78911 23.43546 0.00768
C 25.81967 22.0687 -0.0276
C 24.59814 21.2929 0.03005
C 24.57777 19.84324 -0.04078
C 25.81639 19.17337 0.02117
C 25.84065 17.76554 0.02737
C 24.63147 17.05028 -0.00498
C 24.62351 15.6555 0.00135
C 25.82345 14.89349 0.03102
C 25.81336 13.48396 0.02555
C 24.56263 12.78591 0.01423
C 25.81342 10.66291 -0.00285
C 25.82849 4.92729 -0.01199
C 2.40282 32.63392 -0.03672
