319
Graphene
C 0.03684 0.02236 0.01295
C 15.94229 0.86521 0.03698
C 14.67755 0.09505 -0.00109
C 17.20261 32.73344 -0.00491
C 18.4742 31.93081 0.03338
C 18.48673 30.50821 -0.0258
C 17.24608 29.79823 -0.0331
C 17.19131 28.42785 -0.00316
C 16.03701 2.25708 -0.02213
C 18.43594 27.65028 0.02188
C 17.24969 25.43342 0.02691
C 17.2469 24.06156 -0.01581
C 18.46614 23.37103 0.01452
C 18.47777 21.94557 0.04892
C 17.2299 21.22709 -0.00111
C 17.18963 19.82369 -0.03557
C 18.4653 19.14127 0.03754
C 18.46248 26.22223 -0.01979
C 18.40842 17.74141 0.01739
C 16.00537 19.1406 0.00028
C 14.81835 21.34466 -0.00066
C 13.5249 21.95402 0.00422
C 12.30054 21.30104 0.0351
C 13.36782 2.36609 -0.03113
C 13.4626 0.92862 0.02098
C 12.22521 0.16309 0.01848
C 14.75675 32.77812 -0.00619
C 15.99262 32.04132 -0.02162
C 15.08294 19.8633 -0.00289
C 16.0345 30.58094 0.00889
C 14.77304 28.46163 0.00979
C 16.05775 27.71623 0.01443
C 16.06401 26.25862 0.03505
C 14.75449 25.52979 -0.02815
C 14.82185 24.16622 -0.04147
C 15.98693 23.3711 -0.05302
C 16.02574 21.99755 0.00213
C 14.79628 29.96202 -0.00481
C 13.62331 23.35694 0.00798
C 18.14265 4.49902 0.00755
C 18.41169 2.14038 0.00667
C 20.94173 9.44866 0.01277
C 20.82893 6.42425 0.00096
C 20.78089 5.05864 -0.01527
C 19.61396 4.23634 0.01087
C 19.62671 2.79811 0.00199
C 20.85831 2.05972 0.01511
C 20.90582 0.72948 -0.00478
C 21.03742 13.65258 -0.02422
C 19.70418 0.02726 -0.01662
C 23.35925 31.98903 0.01126
C 23.3141 30.60016 0.01852
C 22.1364 29.79383 -0.00381
C 22.10367 28.41591 0.03046
C 23.32063 27.76352 0.0296
C 23.32678 26.27117 0.03374
C 22.12851 25.68384 -0.02845
C 22.09095 32.7182 -0.01185
C 17.29705 2.91195 -0.0054
C 20.89954 14.80335 -0.01721
C 20.92982 17.74804 0.0106
C 18.45186 0.73826 0.00143
C 17.1881 0.09462 -0.017
C 19.69272 32.74946 0.00364
C 20.91202 31.94145 -0.00831
C 20.87405 30.50387 -0.02957
C 19.63226 29.73685 -0.04422
C 19.66802 28.35795 0.00654
C 19.49679 17.25408 -0.01154
C 20.88778 27.66915 -0.00703
C 19.68654 25.58104 -0.00652
C 19.72834 24.09331 0.0058
C 20.99267 23.42282 -0.00865
C 20.96458 21.99825 0.00675
C 19.68077 21.24666 -0.00311
C 19.65797 19.81018 0.00742
C 20.90081 19.15946 -0.01594
C 20.87172 26.25753 -0.04076
C 22.16904 24.18048 -0.03213
C 12.36949 24.15546 0.00228
C 13.57906 26.31593 -0.02696
C 2.47517 33.9829 0.01641
C 5.00028 32.72632 -0.00719
C 6.19384 32.02044 0.01364
C 5.95629 30.64497 -0.01062
C 4.9236 24.06686 -0.00033
C 6.15008 23.4187 0.03589
C 6.09115 22.03686 -0.02759
C 3.67157 0.64758 0.02339
C 4.86334 21.36208 0.0402
C 6.25929 19.06375 0.03592
C 5.90926 17.66127 0.00406
C 4.75486 16.96245 0.00943
C 5.11001 4.30766 0.02841
C 4.91569 2.79715 -0.01111
C 6.06913 2.10952 -0.01275
C 6.17947 0.64535 0.00985
C 4.9705 19.82998 0.00572
C 4.936 0.05135 -0.02245
C 3.66018 2.11676 -0.00334
C 2.54406 4.28614 0.00057
C 2.28724 24.152 -0.00482
C 3.62509 23.62619 -0.01384
C 3.61745 22.14544 0.03693
C 2.44654 21.27049 0.01745
C 2.41471 19.88913 0.00488
C 3.68044 19.09139 -0.01004
C 3.49863 17.76012 -0.02896
C 2.45231 2.91609 -0.01634
C 2.25724 17.06009 -0.00131
C 3.56561 15.09649 -0.014
C 2.38324 12.87867 0.02147
C 2.40722 11.55108 0.00373
C 2.40493 8.51996 -0.00191
C 2.53981 7.13875 0.00438
C 3.61141 6.28862 0.01291
C 3.78828 5.01247 0.00093
C 2.34548 15.62697 -0.01118
C 12.39017 25.5577 -0.00114
C 7.40843 32.67759 -0.00428
C 8.46877 30.50221 -0.01536
C 11.09494 26.32217 0.01416
C 9.90141 25.5441 0.03542
C 9.9198 24.0883 0.02299
C 11.13253 23.40065 0.00244
C 11.07193 21.96638 -0.01717
C 9.85214 21.23499 0.05265
C 9.73585 19.82772 -0.01952
C 11.05564 27.64138 0.01945
C 10.93188 2.23613 -0.02813
C 9.78404 34.06832 0.00052
C 12.22542 32.76675 -0.03682
C 13.52456 32.12954 0.01965
C 13.54647 30.61578 0.02058
C 12.29688 29.89006 -0.01957
C 12.32663 28.49613 -0.0108
C 13.5348 27.76011 -0.00368
C 10.94032 0.79197 0.00374
C 8.54856 31.9136 0.03101
C 9.84863 28.43022 -0.01454
C 11.05493 30.56361 0.0076
C 7.09537 29.72188 -0.02689
C 7.19979 28.30569 -0.01046
C 8.59496 27.69276 -0.00891
C 8.6544 26.16941 0.02819
C 7.39595 25.5432 0.00165
C 7.38603 24.12573 -0.02971
C 8.61071 23.39196 0.02894
C 9.77795 29.8294 0.01241
C 8.59642 21.9662 -0.01789
C 7.43246 19.9169 -0.00925
C 7.43707 2.70173 0.01877
C 8.67292 2.12559 0.01363
C 8.60624 0.63097 -0.02162
C 7.33995 34.07165 0.00415
C 9.8212 32.65203 -0.0014
C 11.00988 32.00688 0.02162
C 7.28681 21.29585 0.00444
C 3.85907 31.87754 0.02888
C 23.37385 23.42806 0.02239
C 22.14173 21.23139 0.02734
C 30.72905 0.71372 -0.01779
C 29.52083 0.0097 0.03794
C 32.01541 32.74735 0.01927
C 33.26452 32.04874 0.01574
C 33.20956 30.69857 -0.02383
C 31.98213 29.85851 -0.01429
C 32.02771 28.39436 -0.0136
C 30.75117 2.16431 0.00682
C 33.26976 27.68243 0.00594
C 31.96077 25.63143 0.00369
C 31.83882 24.14288 0.00455
C 33.1105 23.46097 -0.00644
C 33.15692 22.04657 -0.01839
C 31.93973 21.39994 0.00137
C 33.15023 13.40151 0.00199
C 32.10085 12.8575 0.04381
C 33.26519 26.24856 -0.02474
C 31.92254 11.43189 0.02806
C 29.5329 2.86958 0.00026
C 30.66605 5.0174 -0.02142
C 30.74083 30.58061 -0.01461
C 29.53736 29.86237 -0.02155
C 29.49341 28.3898 -0.00944
C 30.73592 27.79728 -0.03735
C 30.70666 26.34418 -0.00971
C 29.53648 25.60408 0.01518
C 29.46096 24.1374 0.01908
C 29.46371 4.29407 0.0544
C 30.64851 23.35425 0.07705
C 29.36039 21.32573 0.02108
C 29.32658 11.42467 0.00716
C 30.65083 10.7938 0.00307
C 30.73744 9.31612 0.00346
C 29.48914 8.4708 0.01713
C 29.44904 7.06494 -0.01694
C 30.71124 6.43155 0.01428
C 30.63351 21.86447 0.0103
C 30.74399 32.03477 -0.01303
C 33.14891 10.75626 0.01504
C 31.94499 8.54995 0.04926
C 34.43288 16.93852 0.00648
C 34.34296 15.7146 0.02114
C 1.13513 14.90074 -0.02957
C 1.15949 13.57158 0.00343
C 0.04385 12.82115 -0.02656
C 34.36483 11.47098 -0.02442
C 1.24125 10.74699 -0.00027
C 1.12567 17.87439 0.01223
C 1.22041 9.22318 -0.00583
C 0.01582 7.12924 -0.02849
C 1.24622 6.43953 0.02931
C 1.28604 5.03318 0.00628
C 0.06837 4.21122 -0.0345
C 0.0008 2.84281 -0.00931
C 1.21118 2.15168 -0.00939
C 1.30656 0.67888 -0.00468
C 34.37395 8.52348 -0.02302
C 33.14583 9.26719 -0.00069
C 1.1767 19.21813 -0.01678
C 34.37295 21.36705 -0.02213
C 31.97965 7.12617 -0.03838
C 33.19019 6.43441 0.00349
C 33.25889 4.9877 -0.00323
C 31.92267 4.26589 -0.00841
C 31.97248 2.86916 0.0001
C 33.18877 2.17454 -0.02927
C 33.21373 0.74592 -0.01404
C 34.38305 19.92247 0.01951
C 31.98144 0.09582 0.01027
C 1.21265 31.81778 -0.01037
C 34.41358 29.84003 -0.00439
C 0.05756 28.57991 -0.00598
C 0.02132 25.51308 -0.05239
C 34.2785 24.12885 0.03076
C 1.11385 23.40355 0.00723
C 1.2133 21.99804 0.02712
C 0.0273 32.65 0.01831
C 23.39728 21.99074 0.01153
C 29.53231 32.71842 -0.0405
C 28.31258 0.70301 0.0101
C 24.57535 32.7044 0.01423
C 25.82876 31.99599 -0.00285
C 25.76117 30.55508 -0.009
C 24.5431 29.85601 -0.01199
C 24.57158 28.45077 -0.00229
C 25.8042 27.67751 -0.00938
C 25.77345 26.26711 -0.0264
C 22.10796 0.0122 0.02555
C 24.55956 25.55804 -0.01154
C 25.7685 23.39857 -0.01052
C 25.70806 22.03568 -0.01679
C 24.54868 21.19615 0.00367
C 24.58865 19.74404 0.04306
C 25.85918 18.96806 0.00996
C 25.61599 17.60915 0.00195
C 24.40711 16.91889 -0.00802
C 24.55325 24.11918 0.00684
C 24.50423 15.47967 -0.00218
C 23.35067 0.68078 0.03102
C 22.1639 2.88124 -0.00498
C 22.09686 19.85501 -0.0055
C 23.28312 19.10118 0.01515
C 23.20039 17.69936 -0.00225
C 22.04358 17.05186 0.00071
C 22.16715 15.627 -0.01107
C 23.31052 14.73365 -0.01586
C 23.24844 13.36104 -0.01971
C 23.3299 2.09126 0.00135
C 21.92421 12.52891 -0.02118
C 23.30521 10.63316 -0.00178
C 23.29086 9.21285 0.00768
C 22.07291 8.57783 -0.0276
C 22.13222 7.15834 0.03005
C 23.29049 6.34079 -0.04078
C 23.37035 4.97045 0.02117
C 22.09754 4.27834 0.02737
C 21.92615 11.08998 0.00733
C 27.05782 34.06123 0.01705
C 25.81494 15.05423 -0.01654
C 24.60941 12.83505 -0.0032
C 27.0075 24.18119 -0.00416
C 28.13939 23.41609 0.01177
C 28.18255 21.93588 0.04266
C 26.90021 21.30911 0.01324
C 27.00763 19.78866 0.0014
C 27.01399 12.68998 0.00924
C 26.96491 11.28743 0.02326
C 27.03841 25.54721 0.01699
C 28.15377 10.58861 0.00261
C 27.02737 8.42248 -0.02049
C 27.02769 7.07921 -0.01854
C 28.2193 6.36749 -0.01415
C 28.17018 4.96023 -0.03039
C 27.00597 4.21402 0.01836
C 27.01511 2.84251 0.03531
C 28.27198 2.10115 -0.00669
C 28.27191 9.15549 0.03265
C 25.96017 13.55821 -0.00037
C 28.27252 26.29542 0.01799
C 27.0073 28.4142 0.01495
C 24.50766 11.38561 0.00622
C 25.75385 10.56263 -0.02815
C 25.75495 9.21757 -0.00942
C 24.5707 8.50067 0.00487
C 24.55523 7.0635 0.00826
C 25.79363 6.37674 -0.00294
C 25.77286 4.91411 0.00152
C 28.31038 27.69478 0.01259
C 24.59919 4.25747 0.01257
C 25.80583 2.0979 0.04185
C 25.8434 0.66555 0.00194
C 24.56692 0.00081 -0.00621
C 27.03601 32.6836 0.02611
C 28.27843 31.96187 0.02198
C 28.28471 30.5393 0.01094
C 27.02266 29.88958 0.00235
C 24.56172 2.80217 0.02316
C 2.49936 32.47492 0.00685
