264
Graphene
C 34.40864 0.03934 0.01295
C 16.21717 32.05714 0.01126
C 14.85058 32.48469 -0.01185
C 12.36316 33.96734 -0.01662
C 13.6057 0.60512 -0.00478
C 13.49579 2.09521 0.01511
C 12.27905 2.79734 0.00199
C 12.27331 4.17683 0.01087
C 13.50201 4.98543 -0.01527
C 13.43365 6.35237 0.00096
C 12.22549 7.09877 0.01277
C 12.29172 8.61209 -0.02422
C 13.77698 8.72296 -0.01721
C 13.6434 31.90039 -0.01154
C 12.39059 32.50521 0.0106
C 9.85701 0.04981 -0.01594
C 11.16453 0.64914 0.00742
C 11.04815 2.07386 -0.00311
C 9.81057 2.81226 0.00675
C 9.82832 4.17882 -0.00865
C 10.98898 4.91785 0.0058
C 11.04189 6.41374 -0.00652
C 9.84114 7.14602 -0.04076
C 9.88789 8.56339 -0.00703
C 11.15843 9.28427 0.00654
C 11.03104 32.10488 -0.04422
C 9.80829 32.74552 -0.02957
C 7.27773 0.07562 -0.00831
C 8.56336 0.73817 0.00364
C 8.57896 2.13616 -0.017
C 14.67802 7.08399 0.01852
C 7.31852 2.82165 0.00143
C 15.99437 6.43108 -0.00381
C 14.76246 4.28903 0.0296
C 25.91951 18.03346 -0.009
C 25.13576 32.46019 -0.00285
C 22.2519 0.18349 0.01423
C 23.54003 0.55726 0.02555
C 23.43973 2.04942 0.03102
C 22.15084 2.75272 0.00135
C 22.14178 4.21063 -0.00498
C 23.31303 4.91994 0.02737
C 23.32106 6.33786 0.02117
C 22.08565 6.92548 -0.04078
C 19.73081 0.08517 0.03005
C 20.99269 0.59906 -0.0276
C 20.90485 2.06646 0.00768
C 19.71643 2.79803 -0.00178
C 19.5981 4.28638 0.00733
C 20.87466 4.84854 -0.02118
C 20.96525 6.34222 -0.01971
C 17.36689 0.10271 -0.01586
C 18.52761 0.79867 -0.01107
C 18.45662 2.20734 0.00071
C 17.24506 2.88262 -0.00225
C 17.11743 4.30849 0.01515
C 18.33554 5.09691 -0.0055
C 18.31114 6.56356 0.02734
C 17.1364 32.72282 0.01153
C 14.86222 34.07881 0.02239
C 16.04772 0.68229 -0.03213
C 16.00211 2.11834 -0.02845
C 14.74215 2.78989 0.03374
C 15.9213 5.05429 0.03046
C 24.9206 16.98004 -0.01199
C 7.32528 4.25715 0.00667
C 8.57736 6.39019 0.00755
C 3.66247 0.78284 0.02098
C 3.61711 2.20658 -0.03113
C 2.37333 2.90503 0.0351
C 2.37418 4.38924 0.00422
C 3.70283 5.01843 0.00798
C 3.68483 6.46374 0.00228
C 2.50933 7.19222 -0.00114
C 2.47277 8.54347 -0.02696
C 3.66408 9.26372 -0.00368
C 3.64486 10.68404 -0.0108
C 2.4572 11.43676 -0.01957
C 2.50561 12.82019 0.02058
C 3.73237 13.64974 0.01965
C 3.55686 14.98011 -0.03682
C 2.40049 15.6432 0.00052
C 2.37111 16.99275 0.00374
C 3.4196 17.95376 -0.02813
C 3.49115 19.08624 -0.01952
C 2.38262 19.95481 0.05265
C 2.42647 21.34205 -0.01717
C 3.64553 21.94146 0.00244
C 3.79122 23.31989 0.02299
C 2.44467 24.07281 0.03542
C 2.42657 25.53089 0.01416
C 3.63681 26.21642 0.01945
C 3.64889 27.62681 -0.01454
C 2.38145 28.40695 0.01241
C 2.39918 29.81121 0.0076
C 3.7046 30.5059 0.02162
C 2.40519 0.12858 0.01848
C 8.56607 4.92278 -0.0054
C 4.92133 32.70241 -0.00619
C 6.17956 30.58694 0.00889
C 7.38231 7.06701 0.01739
C 7.36925 8.57188 0.03754
C 8.6289 9.20004 -0.03557
C 8.30948 10.64398 -0.00111
C 7.36751 11.32516 0.04892
C 7.22037 28.62129 0.01452
C 7.42153 29.91245 -0.01581
C 8.69008 30.68199 0.02691
C 8.58788 32.05587 -0.01979
C 7.29645 32.70477 0.02188
C 4.84313 0.09633 -0.00316
C 6.06049 0.77598 -0.0331
C 6.06069 2.15452 -0.0258
C 4.86654 2.90399 0.03338
C 4.89635 4.29642 -0.00491
C 6.15768 4.90977 -0.00109
C 6.14226 6.43504 0.03698
C 4.89519 7.0962 -0.02213
C 4.93795 8.5246 0.00028
C 6.08807 9.26234 -0.00289
C 6.00556 10.67115 -0.00066
C 4.83497 11.4222 0.00213
C 4.83278 12.79942 -0.05302
C 4.7973 24.14409 -0.04147
C 4.95813 25.46306 -0.02815
C 6.16091 26.16683 0.03505
C 6.23464 27.58466 0.01443
C 4.90167 28.36665 0.00979
C 4.95014 29.8112 -0.00481
C 6.08941 31.99171 -0.02162
C 24.52524 15.77055 -0.00229
C 25.80295 15.01538 -0.00938
C 25.76042 13.66921 -0.0264
C 33.17825 2.20825 -0.00323
C 31.97662 2.88636 0.00349
C 31.98269 4.2478 -0.03838
C 33.17193 5.00651 0.04926
C 33.16414 6.45161 -0.00069
C 31.91734 7.17291 0.01504
C 31.96743 8.55233 0.02806
C 33.16597 9.28876 0.04381
C 33.16696 10.65849 0.00199
C 31.94952 11.3787 0.00137
C 31.97663 12.83666 -0.01839
C 33.16684 13.55199 -0.00644
C 33.20705 14.99732 0.00455
C 31.94834 15.64663 0.00369
C 32.00224 17.11098 -0.02474
C 33.15271 17.73485 0.00594
C 33.14736 19.13999 -0.0136
C 31.91869 19.87383 -0.01429
C 31.99316 21.2521 -0.02383
C 33.17012 22.0019 0.01574
C 33.13174 23.3743 0.01927
C 31.948 24.12514 0.03794
C 31.91748 25.50176 -0.01779
C 33.16198 26.27518 0.00682
C 33.07614 27.74601 0.00026
C 31.82142 28.34793 0.0544
C 31.86597 29.80861 -0.02142
C 33.13379 30.55392 0.01428
C 33.19536 31.9741 -0.01694
C 33.16856 0.80229 -0.00841
C 31.89407 32.67464 0.01713
C 32.00709 34.0788 0.0001
C 1.21429 32.00458 -0.01404
C 1.15621 0.82961 -0.00468
C 1.19214 2.21939 -0.00939
C 34.3962 2.9736 -0.00931
C 34.42531 4.33024 -0.0345
C 1.21793 5.11429 0.00628
C 1.2489 6.49444 0.02931
C 0.03892 7.17207 -0.02849
C 34.40587 8.56856 -0.02302
C 1.28061 9.21245 -0.00583
C 1.24598 10.71253 -0.00027
C 34.40713 11.35485 -0.02442
C 34.41813 12.74325 -0.02656
C 1.22371 13.46744 0.00343
C 1.26298 14.89331 -0.02957
C 0.02253 15.61493 0.02114
C 34.42489 17.05386 0.00648
C 1.19317 17.76136 0.01223
C 1.18342 19.19172 -0.01678
C 34.36913 19.89886 0.01951
C 34.34276 21.27411 -0.02213
C 1.16193 22.01572 0.02712
C 1.202 23.42796 0.00723
C 34.3485 24.08403 0.03076
C 34.42947 25.56489 -0.05239
C 1.22545 26.23241 -0.00598
C 1.18458 27.67421 -0.00439
C 34.33849 28.44197 -0.01037
C 34.34583 29.89586 0.01831
C 1.12716 30.528 0.01027
C 34.39569 32.68313 -0.02927
C 29.58296 34.05481 0.00346
C 30.79558 0.71394 0.00307
C 30.79831 2.11372 0.00716
C 28.27574 6.41733 0.00235
C 26.99077 7.13167 0.01094
C 26.95579 8.55354 0.02198
C 28.23135 9.29825 0.02611
C 28.19071 10.69491 -0.00621
C 26.97514 11.40792 0.00194
C 27.02455 12.84204 0.04185
C 28.24854 13.6031 0.02316
C 28.22419 15.07052 0.01257
C 26.97286 15.71251 0.00152
C 27.02242 17.13371 -0.00294
C 28.26585 17.73116 0.00826
C 28.29208 19.06335 0.00487
C 28.2555 30.61114 -0.00942
C 28.13531 31.99553 -0.02815
C 26.82757 32.69092 0.00622
C 24.79637 33.95506 -0.0032
C 25.89317 0.66851 -0.00037
C 25.88332 2.08916 -0.01654
C 24.62939 2.82891 -0.00218
C 24.61032 4.24201 -0.00802
C 25.86971 4.97562 0.00195
C 25.77955 6.37596 0.00996
C 24.58016 7.04038 0.04306
C 24.49474 8.45994 0.00367
C 25.6934 9.1657 -0.01679
C 25.7388 10.59457 -0.01052
C 24.55782 11.50509 0.00684
C 24.72391 12.62666 -0.01154
C 28.30707 4.96607 0.01495
C 27.13351 4.24856 0.01259
C 27.11519 2.80708 0.01799
C 28.3356 2.17522 0.01699
C 29.61018 2.85818 0.02108
C 29.53242 4.23465 0.0103
C 30.74222 4.94608 0.07705
C 30.76329 6.42258 0.01908
C 29.4933 7.13528 0.01518
C 29.47278 8.57877 -0.00971
C 30.74976 9.33852 -0.03735
C 30.69018 10.65116 -0.00944
C 29.46292 11.39903 -0.02155
C 29.46994 12.84966 -0.01461
C 30.7886 13.52649 -0.01303
C 30.72269 14.9222 -0.0405
C 29.49401 15.66088 0.01705
C 29.50212 17.02666 0.0101
C 3.66797 31.95444 -0.0014
C 30.72609 17.76642 -0.00669
C 29.30968 19.9682 0.01836
C 29.51067 21.41368 -0.03039
C 30.647 21.98722 -0.01415
C 30.70442 23.47263 -0.01854
C 29.59377 24.35333 -0.02049
C 30.60937 26.07258 0.03265
C 30.62958 27.58151 0.00261
C 29.40426 28.2551 0.02326
C 29.28884 29.71578 0.00924
C 30.60186 30.51535 0.0014
C 30.67156 31.91642 0.01324
C 29.46656 32.66461 0.04266
C 27.09407 0.03569 0.01177
C 28.3752 0.78875 -0.00416
C 30.63415 19.22285 0.03531
C 2.34937 32.77059 0.00415
