336
Graphene
C 0.01474 0.0305 0.01295
C 11.10002 19.15503 -0.00481
C 11.01447 17.81152 0.00979
C 9.83501 17.08162 0.01443
C 9.86954 15.59729 0.03505
C 11.11767 14.95304 -0.02815
C 11.10067 13.52611 -0.04147
C 9.79365 12.75754 -0.05302
C 9.78993 11.33465 0.00213
C 11.0294 10.55223 -0.00066
C 11.07415 9.18265 -0.00289
C 9.90625 8.55877 0.00028
C 11.14326 2.09357 -0.02213
C 11.10022 0.69656 0.03698
C 9.88585 34.02394 -0.00109
C 12.26556 32.71984 -0.00491
C 13.5279 31.91432 0.03338
C 13.53813 30.45162 -0.0258
C 9.76978 19.85602 0.00889
C 12.35047 29.74738 -0.0331
C 9.77915 21.28937 -0.02162
C 11.05588 23.45212 0.01848
C 8.62405 9.16426 -0.02813
C 7.35438 8.5483 0.00374
C 7.26444 7.15906 0.00052
C 7.41437 4.32122 -0.03682
C 7.45103 2.88259 0.01965
C 8.64394 2.10959 0.02058
C 8.6281 0.72417 -0.01957
C 7.36459 0.01916 -0.0108
C 9.86256 32.63433 -0.00368
C 11.10136 31.9581 -0.02696
C 11.08447 30.59447 -0.00114
C 9.80807 29.84816 0.00228
C 9.81123 28.46917 0.00798
C 11.05958 27.64115 0.00422
C 11.08564 26.24739 0.0351
C 9.86873 25.5707 -0.03113
C 9.9153 24.12497 0.02098
C 11.04294 21.96021 -0.00619
C 8.58463 10.65996 -0.01952
C 12.28916 28.36346 -0.00316
C 13.478 26.2615 -0.01979
C 13.55706 0.69527 0.0058
C 12.37523 0.00277 -0.00865
C 14.75382 32.69161 0.00675
C 16.01507 31.94967 -0.00311
C 15.93187 30.61514 0.00742
C 14.77406 29.81844 -0.01594
C 14.751 28.32365 0.0106
C 15.97891 27.60282 -0.01154
C 15.96515 26.38083 -0.01721
C 14.75466 25.52511 -0.02422
C 14.72534 24.13439 0.01277
C 15.92167 23.44 0.00096
C 16.01047 22.00935 -0.01527
C 14.80765 21.33526 0.01087
C 14.76799 19.83645 0.00199
C 16.00096 19.15823 0.01511
C 15.9927 17.73784 -0.00478
C 13.57674 2.09111 -0.00652
C 13.47077 27.68484 0.02188
C 12.28127 2.79945 -0.04076
C 13.57538 6.36321 0.00654
C 12.32319 25.54269 0.02691
C 12.28397 24.1815 -0.01581
C 13.47804 23.4188 0.01452
C 13.50321 22.00831 0.04892
C 12.24508 21.34185 -0.00111
C 12.27938 19.90711 -0.03557
C 13.51621 19.18215 0.03754
C 13.55172 17.71222 0.01739
C 12.30006 17.0341 0.00755
C 12.31369 15.64409 -0.0054
C 13.53435 14.94214 0.00667
C 13.58168 13.49886 0.00143
C 12.30964 12.79375 -0.017
C 12.30526 11.32978 0.00364
C 13.51226 10.63517 -0.00831
C 13.49989 9.23026 -0.02957
C 12.36371 8.57027 -0.04422
C 13.50423 4.94013 -0.00703
C 14.72633 17.04158 -0.01662
C 7.34489 11.3819 0.05265
C 8.6091 13.48032 0.00244
C 2.38832 8.52251 0.00488
C 2.42472 7.12117 -0.01004
C 3.70989 6.40189 -0.02896
C 3.65876 4.97557 -0.00131
C 2.45981 4.19699 -0.01118
C 2.42159 2.81511 -0.014
C 3.70374 2.11316 0.02147
C 3.66071 0.70188 0.00373
C 2.49377 34.07643 -0.00191
C 4.97424 32.68647 0.00438
C 6.12476 32.00421 0.01291
C 6.17183 30.50088 0.00093
C 4.90608 29.82842 0.00057
C 4.90388 28.41761 -0.01634
C 6.16563 27.7461 -0.00334
C 6.17508 26.22274 0.02339
C 4.90901 25.594 0.01641
C 3.64502 9.24302 0.01745
C 4.89659 24.15104 -0.00719
C 3.68434 10.644 0.03693
C 2.45827 12.82889 -0.00482
C 3.71882 30.49893 0.01849
C 2.48378 29.85567 -0.01142
C 2.4778 28.40801 -0.00562
C 3.69746 27.68812 -0.00494
C 3.63582 26.32375 0.00054
C 2.48189 25.56943 0.03007
C 2.44679 24.11108 -0.00095
C 3.65255 23.42728 0.01572
C 3.63137 22.03834 -0.04848
C 2.48749 21.2429 -0.00892
C 2.50201 19.90031 -0.01362
C 3.65663 19.16652 -0.0008
C 3.76137 17.73557 0.0288
C 2.477 17.04758 0.00393
C 2.40186 15.61706 0.00895
C 3.65512 15.00841 0.00685
C 3.69204 13.49793 0.02888
C 2.48177 11.33028 -0.01384
C 7.36008 12.80393 -0.01717
C 6.19735 23.43741 0.01364
C 4.8801 21.26875 -0.00033
C 8.64628 31.93223 0.02894
C 8.51825 30.50062 -0.01789
C 7.35125 29.88996 0.00444
C 7.33868 28.45069 -0.00925
C 8.58429 27.70739 0.01877
C 8.65274 26.30503 0.01363
C 7.38402 25.48006 -0.02162
C 7.41153 24.14799 0.00415
C 8.64368 23.48068 -0.0014
C 8.60545 22.05613 0.02162
C 7.3707 21.28565 0.0076
C 7.33243 19.8156 0.01241
C 8.59074 19.13846 -0.01454
C 8.64094 17.75417 0.01945
C 7.37469 17.02852 0.01416
C 7.37464 15.65298 0.03542
C 8.63398 14.9638 0.02299
C 7.34062 32.6777 -0.02971
C 6.2095 22.01845 -0.01062
C 4.98546 0.00962 0.00165
C 6.20366 2.17795 -0.00891
C 4.86718 19.7804 0.03589
C 6.12129 19.13999 -0.02759
C 6.10121 17.76382 0.0402
C 4.86597 16.9863 0.00572
C 4.90086 15.62661 0.03592
C 6.12211 14.94355 0.00406
C 6.12236 13.51588 0.00943
C 4.93849 12.73119 0.02841
C 4.89424 11.38813 -0.01111
C 6.13622 10.70105 -0.01275
C 6.17432 9.26697 0.00985
C 4.9026 8.52158 -0.02245
C 4.91792 7.12361 -0.00428
C 6.17729 6.42177 0.03101
C 6.14357 4.96231 -0.01536
C 4.87677 4.30217 -0.02689
C 4.97948 2.84063 -0.01046
C 6.17491 0.76237 0.02819
C 14.75011 15.64293 -0.01185
C 16.02671 14.94254 0.01126
C 15.94025 13.55865 0.01852
C 31.95457 28.43156 0.0544
C 33.22389 27.7111 0.00026
C 33.13183 26.28083 0.00682
C 31.97353 25.57974 -0.01779
C 31.99365 24.1258 0.03794
C 33.2332 23.40315 0.01927
C 33.18932 22.04201 0.01574
C 31.96587 21.35221 -0.02383
C 31.98502 19.89673 -0.01429
C 33.14756 19.17746 -0.0136
C 33.14401 17.79073 0.00594
C 31.97454 17.01164 -0.02474
C 32.0059 15.58495 0.00369
C 33.17306 14.93485 0.00455
C 33.19347 13.49551 -0.00644
C 32.01549 12.83605 -0.01839
C 31.97733 11.30107 0.00137
C 31.97915 29.8317 -0.02142
C 33.14105 10.63929 0.00199
C 33.21543 30.52379 0.01428
C 31.93995 32.69075 0.01713
C 29.42311 17.03889 0.0101
C 29.45673 15.6058 0.01705
C 30.74874 14.86455 -0.0405
C 30.74442 13.53712 -0.01303
C 29.45847 12.8041 -0.01461
C 29.51295 11.41766 -0.02155
C 30.75569 10.61164 -0.00944
C 30.73457 9.23271 -0.03735
C 29.51645 8.54025 -0.00971
C 29.55875 7.10621 0.01518
C 30.77225 6.44918 0.01908
C 30.72824 4.96572 0.07705
C 29.49893 4.25839 0.0103
C 29.4874 2.84186 0.02108
C 30.68681 2.17931 0.00716
C 30.78513 0.70372 0.00307
C 29.54246 34.02168 0.00346
C 33.25476 31.9205 -0.01694
C 30.72696 17.74455 -0.00669
C 33.17861 9.25843 0.04381
C 31.98676 7.12367 0.01504
C 1.21345 17.73587 0.01223
C 34.41811 17.01221 0.00648
C 34.40743 15.6363 0.02114
C 1.26302 14.94835 -0.02957
C 1.23615 13.42671 0.00343
C 0.03545 12.73241 -0.02656
C 34.42668 11.37197 -0.02442
C 1.20955 10.69904 -0.00027
C 1.21444 9.19269 -0.00583
C 34.37629 8.5372 -0.02302
C 0.03363 7.05762 -0.02849
C 1.17749 6.3265 0.02931
C 1.19173 4.96163 0.00628
C 34.40158 4.21713 -0.0345
C 34.39851 2.8499 -0.00931
C 1.2213 2.13809 -0.00939
C 1.25719 0.66111 -0.00468
C 1.26555 19.16556 -0.01678
C 31.9712 8.55808 0.02806
C 0.06044 19.87286 0.01951
C 1.21958 21.95196 0.02712
C 33.21087 6.40069 -0.00069
C 33.24102 4.9469 0.04926
C 31.94188 4.2602 -0.03838
C 31.98438 2.83345 0.00349
C 33.19508 2.13353 -0.00323
C 33.19404 0.71089 -0.00841
C 31.99654 0.06325 0.0001
C 34.41906 32.66475 -0.02927
C 1.2708 32.01425 -0.01404
C 1.20089 30.56008 0.01027
C 0.00221 29.82268 0.01831
C 0.00462 28.39968 -0.01037
C 1.27691 27.72 -0.00439
C 1.27136 26.25921 -0.00598
C 34.3975 25.54085 -0.05239
C 34.42514 24.18109 0.03076
C 1.22487 23.45086 0.00723
C 0.02457 21.35378 -0.02213
C 30.69729 19.08567 0.03531
C 29.48856 19.84053 0.01836
C 29.51517 21.30316 -0.03039
C 17.27323 11.36633 0.03005
C 18.40412 10.63079 -0.04078
C 18.39983 0.70155 0.02117
C 17.20975 34.0331 0.02737
C 19.66483 19.89488 -0.00498
C 20.9032 19.15679 0.00135
C 20.90619 17.78901 0.03102
C 19.67338 17.07342 0.02555
C 19.67016 15.61655 0.01423
C 20.93704 14.86857 -0.00285
C 20.83646 13.46253 -0.009
C 19.65091 12.77716 -0.01199
C 19.57304 11.36601 -0.00229
C 20.96398 0.6138 -0.00938
C 19.65712 0.07284 -0.0264
C 22.12046 19.92699 -0.01154
C 23.37289 19.23245 0.00684
C 17.19592 12.85901 -0.0276
C 23.36171 17.72324 -0.01052
C 18.39261 13.48685 0.00768
C 17.21685 15.6552 0.00733
C 14.77638 12.76647 -0.00381
C 14.77672 11.34972 0.03046
C 15.97808 10.60488 0.0296
C 15.94955 9.2166 0.03374
C 14.76449 8.51984 -0.02845
C 14.69304 7.16363 -0.03213
C 14.72542 4.25123 0.02239
C 14.80476 2.8348 0.01153
C 15.88703 2.06776 0.02734
C 15.97577 0.74396 -0.0055
C 14.79568 0.00175 0.01515
C 17.13077 32.62363 -0.00225
C 17.16387 21.29725 0.00071
C 17.2335 19.88911 -0.01107
C 18.44828 19.13406 -0.01586
C 18.41234 17.76973 -0.01971
C 17.23167 17.00834 -0.02118
C 18.45904 14.89041 -0.00178
C 22.17815 17.03314 -0.01679
C 22.0872 15.63362 0.00367
C 23.41861 0.60559 0.04306
C 27.04408 8.51237 0.00235
C 27.00698 7.0784 0.01495
C 28.2959 6.3908 0.01259
C 28.32186 4.94513 0.01799
C 27.0329 4.29046 0.01699
C 26.98019 2.83228 -0.00416
C 28.19743 2.10577 0.01177
C 28.29085 0.61936 0.04266
C 27.02534 0.01565 0.01324
C 29.54109 32.62 0.0014
C 30.77564 31.92609 0.00924
C 30.64485 30.50686 0.02326
C 29.43164 29.75368 0.00261
C 30.76695 27.61145 0.03265
C 30.74056 26.25515 -0.02049
C 30.80643 23.39576 -0.01854
C 30.7883 22.00274 -0.01415
C 28.32447 9.22352 0.01094
C 28.27474 10.64479 0.02198
C 28.33214 14.84893 0.02611
C 27.02073 17.03477 -0.00621
C 22.11224 0.10284 0.00996
C 24.64842 19.80199 0.00195
C 25.90431 19.17934 -0.00802
C 25.7998 17.68039 -0.00218
C 24.57217 17.05761 -0.01654
C 25.81309 9.18736 -0.00037
C 24.65692 8.53073 -0.0032
C 25.86413 6.35435 0.00622
C 3.66638 31.94328 0.01396
C 25.82646 5.0092 -0.02815
C 25.83858 2.12419 0.00487
C 25.88177 0.69224 0.00826
C 24.59479 0.09904 -0.00294
C 28.29716 31.98665 0.00152
C 28.34092 21.92163 0.01257
C 27.05804 19.87065 0.02316
C 28.29742 19.1897 0.04185
C 28.24574 17.79744 0.00194
C 24.57934 2.82607 -0.00942
C 2.47598 32.69727 0.0127
