332
Graphene
C 0.03295 0.00063 0.01295
C 14.73949 12.89158 0.03505
C 14.65035 11.46996 -0.02815
C 15.90744 10.67854 -0.04147
C 15.89064 9.19883 -0.05302
C 14.61132 8.53416 0.00213
C 14.71123 7.10095 -0.00066
C 15.9729 6.41319 -0.00289
C 16.0829 13.63476 0.01443
C 15.98947 4.99297 0.00028
C 14.6518 2.8452 0.03698
C 15.92792 2.11997 -0.00109
C 15.89022 0.70368 -0.00491
C 14.662 0.03764 0.03338
C 17.20666 32.62427 -0.0258
C 18.4754 32.03272 -0.0331
C 18.39047 30.51102 -0.00316
C 14.76044 4.27645 -0.02213
C 15.96423 15.03791 0.00979
C 15.29881 16.20662 -0.00481
C 15.57695 17.59494 0.00889
C 12.22121 11.54135 -0.03682
C 13.47005 10.64811 0.01965
C 13.35793 9.231 0.02058
C 12.07137 8.4379 -0.01957
C 12.16557 7.03714 -0.0108
C 13.47301 6.41278 -0.00368
C 13.5068 5.01005 -0.02696
C 12.34093 4.22169 -0.00114
C 12.07464 2.90361 0.00228
C 13.42894 2.18026 0.00798
C 13.36366 0.80868 0.00422
C 12.24434 34.07641 0.0351
C 14.67849 32.61697 -0.03113
C 15.91318 31.96958 0.02098
C 15.87555 30.56926 0.01848
C 14.79164 29.79887 -0.00619
C 15.92965 18.83992 -0.02162
C 17.14342 29.86863 0.02188
C 17.11352 28.40786 -0.01979
C 18.1965 27.52659 0.02691
C 18.29217 26.14693 -0.01581
C 20.76803 27.54839 0.00675
C 20.7465 26.05546 -0.00311
C 19.42163 25.37477 0.00742
C 19.54261 24.02309 -0.01594
C 20.83307 23.43395 0.0106
C 20.77714 21.83637 -0.01154
C 19.33593 21.62442 -0.01721
C 19.65276 11.47608 -0.02422
C 20.85007 10.98314 0.01277
C 20.87086 9.21348 0.00096
C 19.71085 8.5177 -0.01527
C 19.81623 7.11017 0.01087
C 21.08017 6.4003 0.00199
C 21.01816 4.91918 0.01511
C 19.76439 4.27207 -0.00478
C 19.65048 2.78267 -0.01662
C 20.90186 2.11345 -0.01185
C 19.58817 28.33724 -0.00865
C 12.21598 12.88358 0.00052
C 19.5375 29.78411 0.0058
C 20.89823 31.83973 -0.04076
C 18.61173 22.84499 0.01452
C 17.87444 21.46118 0.04892
C 16.99981 19.31521 -0.00111
C 17.15658 12.6912 -0.03557
C 17.17726 11.32092 0.03754
C 18.37117 10.68377 0.01739
C 18.48608 9.2731 0.00755
C 17.20872 8.55131 -0.0054
C 17.30267 7.11726 0.00667
C 18.53599 6.36425 0.00143
C 18.5108 4.98228 -0.017
C 17.23148 4.31158 0.00364
C 17.1839 2.79718 -0.00831
C 18.41368 2.15111 -0.02957
C 18.36594 0.721 -0.04422
C 17.10792 0.05304 0.00654
C 19.7246 32.61126 -0.00703
C 20.86251 30.46484 -0.00652
C 20.89886 0.66546 0.01126
C 13.51408 13.7037 0.00374
C 12.21048 15.74595 -0.01952
C 2.4878 8.56213 -0.01118
C 2.51346 7.17526 -0.014
C 2.43574 3.98531 0.02147
C 2.35771 2.79868 0.00373
C 3.70983 0.7053 -0.00191
C 2.46882 34.05646 0.00438
C 5.01055 32.81109 0.01291
C 3.54549 9.35258 -0.00131
C 6.1988 32.08039 0.00093
C 4.8925 29.86127 -0.01634
C 4.88667 28.4323 -0.00334
C 6.22471 27.79926 0.02339
C 4.80075 25.54779 0.01641
C 4.77795 24.26284 -0.00719
C 4.90584 21.31086 0.01364
C 5.13173 19.9571 -0.01062
C 6.1045 30.62657 0.00057
C 3.5672 10.70788 -0.02896
C 2.34253 11.43455 -0.01004
C 2.40273 12.81683 0.00488
C 3.65489 30.5405 0.00054
C 2.43032 29.86776 0.03007
C 2.48353 28.38462 -0.00095
C 3.6477 27.78401 0.01572
C 3.64394 26.38063 -0.04848
C 2.48846 25.62363 -0.00892
C 2.45107 24.19619 -0.01362
C 3.71326 23.47022 -0.0008
C 3.718 22.04648 0.0288
C 2.48053 21.40619 0.00393
C 2.52478 20.00323 0.00895
C 3.76002 19.27044 0.00685
C 3.69998 17.81617 0.02888
C 2.41254 17.12545 -0.00482
C 2.37246 15.72069 -0.01384
C 3.62635 15.03989 0.03693
C 3.62847 13.56109 0.01745
C 6.23124 19.11416 -0.00033
C 6.37286 17.74258 0.03589
C 4.99077 17.10446 -0.02759
C 4.93531 15.73921 0.0402
C 10.95645 30.40581 -0.00925
C 9.79251 29.82549 0.01877
C 8.76007 17.08664 0.01363
C 9.50356 15.8378 -0.02162
C 10.82013 15.30149 0.00415
C 10.95299 13.66781 -0.0014
C 9.81182 12.74322 0.02162
C 9.6921 11.33644 0.0076
C 10.96529 10.64049 0.01241
C 11.03864 9.33652 -0.01454
C 11.0493 2.0286 0.01945
C 10.85068 0.66943 0.01416
C 9.62701 0.00431 0.03542
C 12.33972 32.70586 0.02299
C 13.52818 31.93842 0.00244
C 13.50973 30.35343 -0.01717
C 12.19895 29.95134 0.05265
C 11.11606 31.9424 0.00444
C 13.45495 15.21268 -0.02813
C 9.84161 32.63471 -0.01789
C 8.55554 10.59759 -0.02971
C 6.13526 14.89589 0.00572
C 6.04854 13.63129 0.03592
C 4.85831 12.83467 0.00406
C 4.9081 11.37785 0.00943
C 5.9834 10.54 0.02841
C 4.83915 0.25418 -0.01111
C 7.43665 32.74007 -0.01275
C 8.65171 31.91825 0.00985
C 8.64863 30.53103 -0.02245
C 7.32487 29.91538 -0.00428
C 7.24278 28.45978 0.03101
C 7.39543 16.94011 -0.01536
C 7.31842 15.51135 -0.02689
C 8.56525 14.89371 -0.01046
C 8.57029 13.40124 -0.00891
C 7.25909 12.75369 0.02819
C 7.34684 11.19345 0.00165
C 7.86442 0.04113 0.02894
C 19.67941 34.02525 0.01852
C 22.08155 32.5829 -0.00381
C 23.35845 31.9192 0.03046
C 33.15117 27.68453 0.00026
C 33.12507 26.33165 0.00682
C 31.91274 25.61773 -0.01779
C 31.93499 24.19209 0.03794
C 33.14413 23.44608 0.01927
C 33.17015 22.06562 0.01574
C 31.8977 21.3408 -0.02383
C 31.88659 28.40467 0.0544
C 31.92662 20.00607 -0.01429
C 33.19055 17.82296 0.00594
C 31.98805 17.1052 -0.02474
C 31.7458 15.63745 0.00369
C 32.97617 14.91117 0.00455
C 33.0225 13.42246 -0.00644
C 31.72568 12.79106 -0.01839
C 31.81764 11.34971 0.00137
C 33.1692 19.25406 -0.0136
C 31.91359 29.87318 -0.02142
C 33.11947 30.42725 0.01428
C 33.17803 31.9169 -0.01694
C 30.78187 17.89459 0.01705
C 29.5844 17.23297 -0.0405
C 29.29867 15.82578 -0.01303
C 30.32722 14.87663 -0.01461
C 30.56759 13.56308 -0.02155
C 30.45636 10.60964 -0.00944
C 30.39372 9.26474 -0.03735
C 29.26989 8.4745 -0.00971
C 29.45568 6.99581 0.01518
C 30.65643 6.26185 0.01908
C 30.67799 4.81826 0.07705
C 29.4858 4.08178 0.0103
C 29.51158 2.68501 0.02108
C 30.6837 2.0903 0.00716
C 30.74158 0.61699 0.00307
C 29.48248 34.01525 0.00346
C 31.9898 32.65435 0.01713
C 33.057 10.65644 0.00199
C 32.98148 9.26671 0.04381
C 31.68194 8.53285 0.02806
C 31.87858 7.13564 0.01504
C 1.18777 17.81794 0.01223
C 34.3842 17.00967 0.00648
C 34.27029 15.60964 0.02114
C 1.08353 15.00625 -0.02957
C 1.14007 13.50414 0.00343
C 34.24781 12.70172 -0.02656
C 34.37342 11.33223 -0.02442
C 1.14887 10.68258 -0.00027
C 1.16299 9.24646 -0.00583
C 34.29973 8.55127 -0.02302
C 34.42975 7.06703 -0.02849
C 1.34708 6.39376 0.02931
C 1.27584 4.97044 0.00628
C 34.37966 4.32188 -0.0345
C 34.40853 2.88296 -0.00931
C 1.21233 2.09604 -0.00939
C 1.20657 0.67296 -0.00468
C 1.1953 19.26433 -0.01678
C 30.70785 19.28225 0.0101
C 34.41324 19.93949 0.01951
C 1.17661 22.04166 0.02712
C 33.10948 6.45457 -0.00069
C 33.14166 5.04663 0.04926
C 31.92046 4.22048 -0.03838
C 31.86464 2.84122 0.00349
C 33.19119 2.11877 -0.00323
C 33.15341 0.65739 -0.00841
C 31.96773 34.029 0.0001
C 34.41124 32.6525 -0.02927
C 1.1749 31.92209 -0.01404
C 1.16703 30.54147 0.01027
C 34.32022 29.7662 0.01831
C 34.37211 28.39879 -0.01037
C 1.19783 27.75117 -0.00439
C 1.19295 26.3218 -0.00598
C 34.39517 25.57732 -0.05239
C 0.00415 24.21701 0.03076
C 1.21197 23.47008 0.00723
C 34.28998 21.32969 -0.02213
C 29.4632 19.88477 -0.00669
C 29.39473 21.31339 0.03531
C 30.67213 22.06693 0.01836
C 22.1605 33.94659 0.02117
C 24.60707 32.66132 0.02737
C 25.79772 31.94066 -0.00498
C 25.85721 30.53963 0.00135
C 24.5278 29.76286 0.03102
C 24.49581 28.31791 0.02555
C 25.78089 27.62791 0.01423
C 25.77643 26.25278 -0.00285
C 24.54344 25.54774 -0.009
C 24.58482 24.22571 -0.01199
C 25.86068 23.5376 -0.00229
C 25.68589 22.09489 -0.00938
C 24.3921 21.26672 -0.0264
C 24.64567 19.9515 -0.01154
C 25.733 19.2133 0.00684
C 24.61403 8.58476 -0.01052
C 24.78133 7.16212 -0.01679
C 23.38869 0.70166 -0.04078
C 25.95727 6.4454 0.00367
C 23.41224 2.15504 0.03005
C 22.21495 4.25803 0.00768
C 23.28037 30.44419 0.0296
C 22.02761 29.70409 0.03374
C 22.05916 28.30751 -0.02845
C 23.29097 27.61221 -0.03213
C 23.31349 26.23415 0.02239
C 22.01799 25.52663 0.01153
C 22.10228 24.06653 0.02734
C 23.32411 23.34814 -0.0055
C 23.12534 21.95663 0.01515
C 21.92835 21.16208 -0.00225
C 22.06502 11.27262 0.00071
C 23.33726 10.72283 -0.01107
C 23.49481 9.41081 -0.01586
C 22.12794 8.58513 -0.01971
C 22.23815 7.15235 -0.02118
C 23.48693 6.50628 0.00733
C 23.42686 5.01428 -0.00178
C 22.13591 2.81059 -0.0276
C 3.75561 32.00382 -0.00494
C 25.91173 4.98056 0.04306
C 24.60934 2.90098 0.00195
C 28.37453 6.16643 0.01495
C 28.29087 4.80338 0.01259
C 27.11529 4.09666 0.01799
C 27.11563 2.67966 0.01699
C 28.30475 2.05213 -0.00416
C 28.28453 0.659 0.01177
C 26.99101 34.03197 0.04266
C 29.50829 32.64391 0.01324
C 30.70295 31.944 0.0014
C 30.67846 30.5306 0.00924
C 29.46174 29.86411 0.02326
C 29.46314 28.47565 0.00261
C 30.71667 27.71608 0.03265
C 30.73819 26.33062 -0.02049
C 29.48505 25.60118 -0.01854
C 29.46966 24.15778 -0.01415
C 30.67383 23.41719 -0.03039
C 27.28965 6.96621 0.00235
C 24.66917 4.29867 0.00996
C 27.83151 8.3222 0.01094
C 28.24256 17.68822 0.02611
C 25.8099 2.11909 -0.00802
C 25.80982 0.67884 -0.00218
C 24.56007 0.00668 -0.01654
C 26.95595 32.6817 -0.00037
C 28.20121 31.9481 -0.0032
C 28.26356 30.54152 0.00622
C 26.92046 29.82391 -0.02815
C 26.99206 28.41773 -0.00942
C 28.23326 27.78608 0.00487
C 28.30708 26.34665 0.00826
C 27.09441 25.60863 -0.00294
C 27.00685 24.23422 0.00152
C 28.24837 23.54569 0.01257
C 28.22922 22.09061 0.02316
C 26.9789 21.35373 0.04185
C 26.9805 19.85993 0.00194
C 28.14158 19.12743 -0.00621
C 27.84777 16.20645 0.02198
C 2.48026 32.66059 -0.00562
