332
Graphene
C 34.39562 34.04498 0.01295
C 14.78789 12.90656 0.03505
C 14.66876 11.39836 -0.02815
C 15.88785 10.61634 -0.04147
C 15.85263 9.28125 -0.05302
C 14.59326 8.53423 0.00213
C 14.73037 7.06633 -0.00066
C 16.11362 6.41755 -0.00289
C 16.13641 13.543 0.01443
C 16.08854 5.01453 0.00028
C 14.76084 2.88867 0.03698
C 15.86239 2.03829 -0.00109
C 15.86453 0.68766 -0.00491
C 14.59737 34.0794 0.03338
C 17.20392 32.65138 -0.0258
C 18.48728 31.88842 -0.0331
C 18.44499 30.5361 -0.00316
C 14.82023 4.29298 -0.02213
C 15.87219 14.9246 0.00979
C 14.9629 16.0289 -0.00481
C 15.58855 17.41328 0.00889
C 12.18825 11.37526 -0.03682
C 13.4369 10.68502 0.01965
C 13.37593 9.20705 0.02058
C 12.07141 8.41091 -0.01957
C 12.24493 7.08199 -0.0108
C 13.47388 6.38853 -0.00368
C 13.56654 4.94723 -0.02696
C 12.36043 4.30726 -0.00114
C 12.14113 2.9627 0.00228
C 13.46898 2.21636 0.00798
C 13.37998 0.75816 0.00422
C 12.20621 34.01845 0.0351
C 14.72552 32.61136 -0.03113
C 15.95685 31.94779 0.02098
C 15.90387 30.59565 0.01848
C 14.78806 29.71074 -0.00619
C 15.83898 18.84756 -0.02162
C 17.10866 29.87099 0.02188
C 17.09939 28.43391 -0.01979
C 18.23561 27.5329 0.02691
C 18.29255 26.18452 -0.01581
C 20.81479 27.59343 0.00675
C 20.80619 26.14283 -0.00311
C 19.49886 25.40972 0.00742
C 19.61996 23.95657 -0.01594
C 20.97484 23.41206 0.0106
C 20.81534 21.83132 -0.01154
C 19.35884 21.73434 -0.01721
C 19.5229 11.43729 -0.02422
C 20.80866 10.96766 0.01277
C 20.85178 9.26693 0.00096
C 19.68989 8.47814 -0.01527
C 19.77586 6.98306 0.01087
C 21.04066 6.38595 0.00199
C 20.90869 4.99392 0.01511
C 19.70951 4.29739 -0.00478
C 19.68769 2.85645 -0.01662
C 20.92697 2.10633 -0.01185
C 19.54879 28.3316 -0.00865
C 12.18652 12.873 0.00052
C 19.64437 29.76214 0.0058
C 20.88069 31.83454 -0.04076
C 18.75093 22.87974 0.01452
C 17.83691 21.55734 0.04892
C 17.09788 19.52498 -0.00111
C 17.16473 12.69783 -0.03557
C 17.12008 11.36208 0.03754
C 18.42861 10.66197 0.01739
C 18.40751 9.17228 0.00755
C 17.14541 8.5248 -0.0054
C 17.30771 7.12877 0.00667
C 18.56274 6.37546 0.00143
C 18.50102 4.96017 -0.017
C 17.2661 4.31052 0.00364
C 17.15689 2.81691 -0.00831
C 18.42114 2.12763 -0.02957
C 18.46317 0.69286 -0.04422
C 17.17402 0.03751 0.00654
C 19.7361 32.64757 -0.00703
C 20.82799 30.44578 -0.00652
C 20.94337 0.65413 0.01126
C 13.54868 13.68428 0.00374
C 12.14906 15.76671 -0.01952
C 2.45491 8.54279 -0.01118
C 2.58935 7.10022 -0.014
C 2.4312 4.08435 0.02147
C 2.37677 2.74549 0.00373
C 3.67229 0.67989 -0.00191
C 2.46465 34.06694 0.00438
C 4.93911 32.77325 0.01291
C 3.69643 9.31558 -0.00131
C 6.1816 32.03644 0.00093
C 4.89006 29.87897 -0.01634
C 4.95405 28.39522 -0.00334
C 6.21128 27.80547 0.02339
C 4.78715 25.50921 0.01641
C 4.75369 24.32962 -0.00719
C 4.90548 21.36898 0.01364
C 5.11128 19.97905 -0.01062
C 6.13117 30.60183 0.00057
C 3.64547 10.69769 -0.02896
C 2.43318 11.41491 -0.01004
C 2.38209 12.86021 0.00488
C 3.69646 30.57556 0.00054
C 2.37293 29.88432 0.03007
C 2.4361 28.48379 -0.00095
C 3.70299 27.74765 0.01572
C 3.73313 26.35165 -0.04848
C 2.43212 25.64003 -0.00892
C 2.45086 24.13751 -0.01362
C 3.66683 23.4392 -0.0008
C 3.68133 22.0765 0.0288
C 2.44572 21.39722 0.00393
C 2.49081 19.93184 0.00895
C 3.70743 19.32184 0.00685
C 3.78478 17.78375 0.02888
C 2.44224 17.16389 -0.00482
C 2.2938 15.70343 -0.01384
C 3.59734 15.02184 0.03693
C 3.62906 13.59666 0.01745
C 6.1908 19.08596 -0.00033
C 6.41963 17.79853 0.03589
C 5.05158 17.1252 -0.02759
C 4.92557 15.6788 0.0402
C 11.0142 30.45367 -0.00925
C 9.77007 29.83146 0.01877
C 8.88151 17.09762 0.01363
C 9.63144 15.85788 -0.02162
C 10.84997 15.19554 0.00415
C 10.9388 13.63041 -0.0014
C 9.72961 12.79067 0.02162
C 9.76835 11.38811 0.0076
C 11.00207 10.74754 0.01241
C 11.05255 9.34113 -0.01454
C 11.07846 2.05033 0.01945
C 10.86791 0.72883 0.01416
C 9.64188 34.07517 0.03542
C 12.33841 32.63847 0.02299
C 13.58458 31.84573 0.00244
C 13.57433 30.43973 -0.01717
C 12.30657 29.93564 0.05265
C 11.02862 31.95562 0.00444
C 13.43956 15.15352 -0.02813
C 9.86809 32.69601 -0.01789
C 8.60199 10.6216 -0.02971
C 6.14643 15.00388 0.00572
C 6.08473 13.48433 0.03592
C 4.8863 12.84977 0.00406
C 4.86641 11.34963 0.00943
C 6.04154 10.47303 0.02841
C 4.86712 0.08539 -0.01111
C 7.42303 32.74878 -0.01275
C 8.64734 31.9279 0.00985
C 8.56251 30.51598 -0.02245
C 7.33573 29.89807 -0.00428
C 7.28508 28.48684 0.03101
C 7.64297 16.96782 -0.01536
C 7.36859 15.53386 -0.02689
C 8.56998 14.88078 -0.01046
C 8.54276 13.47085 -0.00891
C 7.29023 12.78963 0.02819
C 7.31425 11.14114 0.00165
C 7.60992 0.02177 0.02894
C 19.65924 34.0424 0.01852
C 22.11637 32.51451 -0.00381
C 23.31945 31.86611 0.03046
C 33.1566 27.71019 0.00026
C 33.31373 26.27348 0.00682
C 31.99296 25.6061 -0.01779
C 31.94059 24.20444 0.03794
C 33.28026 23.50341 0.01927
C 33.16947 22.08567 0.01574
C 31.86674 21.38872 -0.02383
C 31.95287 28.41046 0.0544
C 31.9658 19.94543 -0.01429
C 33.15921 17.80708 0.00594
C 31.93045 17.11082 -0.02474
C 31.71992 15.6794 0.00369
C 32.96051 14.86697 0.00455
C 33.04233 13.47483 -0.00644
C 31.7519 12.80126 -0.01839
C 31.82084 11.35792 0.00137
C 33.20733 19.2152 -0.0136
C 31.88335 29.77264 -0.02142
C 33.1617 30.52429 0.01428
C 33.21426 31.92737 -0.01694
C 30.75518 17.86136 0.01705
C 29.59019 17.23073 -0.0405
C 29.19995 15.83534 -0.01303
C 30.33922 14.92685 -0.01461
C 30.56101 13.46763 -0.02155
C 30.56499 10.67368 -0.00944
C 30.33231 9.26039 -0.03735
C 29.16758 8.48315 -0.00971
C 29.46069 6.91947 0.01518
C 30.63742 6.35598 0.01908
C 30.77641 4.90258 0.07705
C 29.50454 4.12175 0.0103
C 29.52062 2.71938 0.02108
C 30.71982 1.99956 0.00716
C 30.686 0.64524 0.00307
C 29.46666 33.98008 0.00346
C 31.94301 32.66961 0.01713
C 33.10387 10.60047 0.00199
C 33.02605 9.21586 0.04381
C 31.67997 8.582 0.02806
C 31.8161 7.15632 0.01504
C 1.19153 17.82042 0.01223
C 34.36066 17.05992 0.00648
C 34.27817 15.58538 0.02114
C 1.1297 14.91691 -0.02957
C 1.14919 13.50739 0.00343
C 34.32454 12.78344 -0.02656
C 34.33022 11.34836 -0.02442
C 1.19193 10.68505 -0.00027
C 1.11496 9.20423 -0.00583
C 34.31109 8.45559 -0.02302
C 0.00017 7.03594 -0.02849
C 1.25246 6.36592 0.02931
C 1.33225 4.91989 0.00628
C 34.39014 4.26911 -0.0345
C 34.37471 2.89635 -0.00931
C 1.18583 2.08038 -0.00939
C 1.20027 0.62939 -0.00468
C 1.2199 19.2007 -0.01678
C 30.73291 19.27422 0.0101
C 34.42391 19.95583 0.01951
C 1.12154 22.0757 0.02712
C 33.14257 6.40877 -0.00069
C 33.15105 5.04378 0.04926
C 31.9883 4.24011 -0.03838
C 31.9415 2.79534 0.00349
C 33.18029 2.14863 -0.00323
C 33.16739 0.73027 -0.00841
C 31.95034 0.04647 0.0001
C 34.40528 32.61961 -0.02927
C 1.19362 31.93242 -0.01404
C 1.16623 30.49912 0.01027
C 34.37432 29.81956 0.01831
C 34.36717 28.40629 -0.01037
C 1.16345 27.73132 -0.00439
C 1.16596 26.3668 -0.00598
C 0.01085 25.65679 -0.05239
C 34.40499 24.27891 0.03076
C 1.12339 23.47386 0.00723
C 34.36666 21.32515 -0.02213
C 29.45068 19.93488 -0.00669
C 29.41435 21.3997 0.03531
C 30.58952 22.01554 0.01836
C 22.16053 34.06639 0.02117
C 24.59576 32.66586 0.02737
C 25.78765 31.88457 -0.00498
C 25.74189 30.50386 0.00135
C 24.5651 29.84026 0.03102
C 24.5839 28.37575 0.02555
C 25.81323 27.62382 0.01423
C 25.79235 26.19267 -0.00285
C 24.53939 25.58795 -0.009
C 24.60256 24.17721 -0.01199
C 25.74844 23.47895 -0.00229
C 25.74332 22.09779 -0.00938
C 24.43412 21.33476 -0.0264
C 24.6913 19.89974 -0.01154
C 25.692 19.27931 0.00684
C 24.67329 8.53115 -0.01052
C 24.74633 7.17564 -0.01679
C 23.38088 0.64823 -0.04078
C 26.02387 6.34587 0.00367
C 23.40572 2.09419 0.03005
C 22.1647 4.24593 0.00768
C 23.32712 30.51887 0.0296
C 22.00981 29.78831 0.03374
C 22.0434 28.33302 -0.02845
C 23.28176 27.59406 -0.03213
C 23.27508 26.26106 0.02239
C 22.10711 25.4909 0.01153
C 22.13866 24.16346 0.02734
C 23.37585 23.42642 -0.0055
C 23.18045 21.97279 0.01515
C 21.94337 21.17842 -0.00225
C 22.18272 11.21873 0.00071
C 23.18687 10.74996 -0.01107
C 23.5813 9.31421 -0.01586
C 22.13296 8.58919 -0.01971
C 22.2676 7.15428 -0.02118
C 23.47082 6.45156 0.00733
C 23.41453 4.94284 -0.00178
C 22.18889 2.82753 -0.0276
C 3.74203 31.97671 -0.00494
C 25.9247 4.93765 0.04306
C 24.63302 2.83562 0.00195
C 28.34316 6.20515 0.01495
C 28.31226 4.83382 0.01259
C 27.06752 4.16651 0.01799
C 27.09607 2.7235 0.01699
C 28.33432 2.01832 -0.00416
C 28.23426 0.61473 0.01177
C 27.01554 34.05419 0.04266
C 29.44382 32.60669 0.01324
C 30.77083 31.9471 0.0014
C 30.67854 30.52002 0.00924
C 29.4645 29.84601 0.02326
C 29.47834 28.46421 0.00261
C 30.68682 27.80559 0.03265
C 30.72942 26.3475 -0.02049
C 29.56529 25.60465 -0.01854
C 29.51552 24.16539 -0.01415
C 30.68982 23.44521 -0.03039
C 27.25675 7.00479 0.00235
C 24.59024 4.32775 0.00996
C 27.89104 8.31524 0.01094
C 28.20125 17.74474 0.02611
C 25.85105 2.07716 -0.00802
C 25.80131 0.7206 -0.00218
C 24.62903 34.0534 -0.01654
C 27.007 32.60839 -0.00037
C 28.20919 31.97589 -0.0032
C 28.18772 30.57184 0.00622
C 27.04411 29.78623 -0.02815
C 26.99743 28.41569 -0.00942
C 28.21907 27.72078 0.00487
C 28.2406 26.34444 0.00826
C 27.03433 25.6254 -0.00294
C 27.03184 24.17091 0.00152
C 28.25629 23.51417 0.01257
C 28.17261 22.11245 0.02316
C 26.97824 21.39288 0.04185
C 27.01562 19.89397 0.00194
C 28.1805 19.10699 -0.00621
C 27.69708 16.35852 0.02198
C 2.42849 32.60783 -0.00562
