388
Graphene
C 34.36115 0.00703 0.01295
C 13.4855 32.04707 -0.02162
C 13.58259 30.56082 0.00415
C 12.36035 29.87198 -0.0014
C 12.3443 28.44037 0.02162
C 13.55917 27.69376 0.0076
C 13.48475 26.29041 0.01241
C 12.31605 25.57425 -0.01454
C 12.29704 24.19063 0.01945
C 13.47548 23.44974 0.01416
C 12.27725 32.7853 0.01363
C 13.62258 21.92789 0.03542
C 12.29541 19.84752 0.00244
C 12.28878 16.89208 -0.01717
C 12.51538 15.4829 0.05265
C 12.98532 13.7863 -0.01952
C 13.34222 8.90297 -0.02813
C 12.40862 7.08217 0.00374
C 13.52749 6.19598 0.00052
C 13.48949 4.84786 -0.03682
C 12.21594 4.28601 0.01965
C 12.5042 21.15838 0.02299
C 12.291 2.83562 0.02058
C 9.78074 0.04831 0.01877
C 11.04528 2.14913 0.00444
C 9.89358 28.39057 0.00572
C 11.08681 27.72306 0.03592
C 11.03706 26.30396 0.00406
C 9.75585 25.63708 0.00943
C 9.76108 24.25141 0.02841
C 11.02111 23.40571 -0.01111
C 11.1231 21.95664 -0.01275
C 9.88352 21.21759 0.00985
C 9.8878 19.80597 -0.02245
C 11.04443 0.72059 -0.00925
C 11.11669 19.15453 -0.00428
C 9.92965 16.97868 -0.01536
C 10.00604 15.5557 -0.02689
C 11.14721 14.81714 -0.01046
C 11.21145 13.4064 -0.00891
C 9.80326 7.19701 0.02819
C 11.04591 6.55741 0.00165
C 11.06576 5.05572 -0.02971
C 9.77771 4.33558 0.02894
C 9.78493 2.89856 -0.01789
C 11.17539 17.73451 0.03101
C 13.45731 2.09034 -0.01957
C 13.46225 0.68186 -0.0108
C 12.25964 0.0297 -0.00368
C 17.18005 29.78254 -0.00109
C 17.25411 28.39426 -0.00491
C 18.39381 27.58238 0.03338
C 18.50725 26.18256 -0.0258
C 17.25132 25.49514 -0.0331
C 17.14029 23.93396 -0.00316
C 18.43581 23.50734 0.02188
C 18.74793 10.65358 -0.01979
C 18.43937 9.37922 0.02691
C 18.38364 30.51241 0.03698
C 17.17095 8.60745 -0.01581
C 18.38739 6.37885 0.04892
C 18.4014 4.9665 -0.00111
C 17.1944 4.15286 -0.03557
C 17.25109 2.79252 0.03754
C 18.47107 2.10959 0.01739
C 18.47629 0.70468 0.00755
C 17.25094 34.07633 -0.0054
C 19.61488 32.67666 0.00667
C 20.87865 31.97672 0.00143
C 17.20029 7.09781 0.01452
C 18.37431 31.90572 -0.02213
C 17.20649 32.66593 0.00028
C 14.71947 0.04188 -0.00289
C 14.74473 32.68724 -0.02696
C 15.92842 31.90758 -0.00114
C 15.98362 30.5424 0.00228
C 14.81413 29.80849 0.00798
C 14.74498 28.45724 0.00422
C 16.04283 27.70739 0.0351
C 15.96973 26.21221 -0.03113
C 14.67978 25.57442 0.02098
C 14.67752 24.17813 0.01848
C 15.87566 23.50286 -0.00619
C 14.7128 11.58752 -0.02162
C 15.69711 10.62177 0.00889
C 15.94069 9.27828 -0.00481
C 14.68497 8.376 0.00979
C 14.77176 6.976 0.01443
C 16.00515 6.30204 0.03505
C 15.98067 4.90235 -0.02815
C 14.73761 4.16329 -0.04147
C 14.7874 2.73053 -0.05302
C 16.03305 2.03065 0.00213
C 15.96983 0.68616 -0.00066
C 9.82185 29.85912 0.0402
C 20.82178 30.60054 -0.017
C 11.05014 30.60369 -0.02759
C 9.86628 32.70794 -0.00033
C 3.64644 5.03288 0.0086
C 2.40811 4.26524 -0.00643
C 2.39762 2.8725 0.017
C 3.67328 2.15065 -0.03113
C 3.63507 0.74134 -0.02566
C 2.35606 0.04081 -0.00094
C 4.87679 32.76544 0.02322
C 6.19048 32.02427 -0.00725
C 6.16936 30.66944 -0.05697
C 3.63535 6.48657 -0.00518
C 4.93687 29.91213 0.01087
C 6.11719 27.75128 0.00988
C 6.09326 26.32367 0.0276
C 4.87646 25.59656 0.01305
C 4.82296 24.18568 -0.00077
C 6.12303 23.51857 0.03368
C 6.20009 22.01048 -0.02929
C 4.9023 21.38413 -0.00966
C 4.95117 19.95486 -0.03337
C 6.19965 19.17458 0.01227
C 4.90327 28.44233 -0.01343
C 6.14912 17.7717 0.00873
C 2.40293 7.17308 -0.00074
C 3.56305 9.23051 -0.03996
C 3.72407 30.58335 0.04505
C 2.48446 29.84381 0.03284
C 2.50445 28.41304 -0.04307
C 3.66542 27.70004 0.03189
C 3.66156 26.30139 0.00031
C 2.42251 25.59064 -0.003
C 2.40673 24.1265 0.01402
C 3.65429 23.4213 0.02379
C 3.69249 22.0383 0.00907
C 2.34481 8.53086 0.01465
C 2.47201 21.29699 0.00643
C 3.76007 19.22817 0.03267
C 3.66549 17.80753 0.02374
C 2.49031 17.04776 0.00402
C 2.43574 15.60037 0.0073
C 3.65718 14.95776 0.0174
C 3.5886 13.5203 0.03828
C 2.38154 12.73329 0.01226
C 2.36733 11.33835 -0.00279
C 3.69537 10.6503 0.01996
C 2.49648 19.95449 -0.01509
C 4.87119 17.00382 -0.00049
C 4.89928 15.5831 0.00848
C 6.12705 14.86373 -0.01303
C 7.39922 21.36065 0.00488
C 7.44022 19.85751 -0.01004
C 8.68358 19.14027 -0.02896
C 8.66727 17.69778 -0.00131
C 7.37462 16.97482 -0.01118
C 7.37743 15.59239 -0.014
C 8.72486 14.96287 0.02147
C 8.67451 13.53604 0.00373
C 7.55657 12.71063 -0.00191
C 8.60781 22.14612 0.01745
C 7.3963 11.31577 0.00438
C 7.40249 8.58603 0.00093
C 7.37072 7.16159 0.00057
C 8.59098 6.45233 -0.01634
C 8.54731 5.03025 -0.00334
C 7.28384 4.33005 0.02339
C 7.33902 2.92768 0.01641
C 8.5786 2.21239 -0.00719
C 8.53168 0.8071 0.01364
C 7.3726 0.08764 -0.01062
C 8.55389 9.38525 0.01291
C 8.54257 23.56201 0.03693
C 7.28431 24.18573 -0.01384
C 7.3733 25.63679 -0.00482
C 6.12193 13.44974 -0.01378
C 4.91445 12.76223 0.02635
C 4.90443 11.39028 0.0127
C 6.08955 10.66857 0.01396
C 6.09487 9.33063 0.01849
C 4.85852 8.5933 -0.01142
C 4.8507 7.18028 -0.00562
C 6.09902 6.50707 -0.00494
C 6.1295 5.09523 0.00054
C 4.88604 4.35367 0.03007
C 4.88658 2.91681 -0.00095
C 6.10215 2.24418 0.01572
C 6.12211 0.76786 -0.04848
C 4.93342 0.08127 -0.00892
C 7.38251 32.71206 -0.01362
C 8.60948 32.0518 -0.0008
C 8.62001 30.5527 0.0288
C 7.3981 29.89706 0.00393
C 7.42208 28.44514 0.00895
C 8.67018 27.77289 0.00685
C 8.59226 26.36302 0.02888
C 11.10385 32.02216 0.03589
C 19.62686 29.85786 0.00364
C 19.64775 28.36065 -0.00831
C 20.88523 27.67921 -0.02957
C 30.66239 4.99019 0.07705
C 29.49626 4.22914 0.0103
C 29.44628 2.85437 0.02108
C 30.68172 2.13424 0.00716
C 30.75602 0.73806 0.00307
C 29.55906 34.05045 0.00346
C 31.90381 32.61467 0.01713
C 33.1955 31.89528 -0.01694
C 33.21559 30.43319 0.01428
C 30.70477 6.40374 0.01908
C 31.9682 29.69238 -0.02142
C 33.19497 27.61157 0.00026
C 33.19553 26.17472 0.00682
C 31.99203 25.45703 -0.01779
C 31.87691 24.13201 0.03794
C 33.09042 23.44065 0.01927
C 33.18355 22.04242 0.01574
C 32.00535 21.29778 -0.02383
C 32.05273 19.85121 -0.01429
C 33.28558 19.19453 -0.0136
C 31.96429 28.29875 0.0544
C 33.23826 17.79777 0.00594
C 29.49824 7.167 0.01518
C 30.67422 9.38415 -0.03735
C 30.74223 30.44739 0.01324
C 29.52964 29.76951 0.0014
C 29.49077 28.33569 0.00924
C 30.73161 27.60472 0.02326
C 30.77956 26.22414 0.00261
C 29.51944 25.54699 0.03265
C 29.52236 24.11251 -0.02049
C 30.68792 23.43172 -0.01854
C 30.66788 22.04369 -0.01415
C 29.43734 8.58149 -0.00971
C 29.54959 21.26881 -0.03039
C 30.81283 19.18392 0.03531
C 30.77778 17.7674 -0.00669
C 29.50024 17.02569 0.0101
C 29.40948 15.60246 0.01705
C 30.70023 14.94716 -0.0405
C 30.6475 13.51948 -0.01303
C 29.36936 12.81183 -0.01461
C 29.41749 11.39427 -0.02155
C 30.67303 10.72172 -0.00944
C 29.63461 19.83892 0.01836
C 32.00566 17.08296 -0.02474
C 31.96865 15.59639 0.00369
C 33.19607 14.98421 0.00455
C 34.43239 21.32717 -0.02213
C 0.0528 19.91385 0.01951
C 1.33356 19.24841 -0.01678
C 1.29185 17.82869 0.01223
C 0.10095 17.08578 0.00648
C 34.42445 15.64949 0.02114
C 1.20973 14.89373 -0.02957
C 1.18815 13.56445 0.00343
C 34.37274 12.80572 -0.02656
C 1.23929 22.00494 0.02712
C 34.42144 11.38337 -0.02442
C 1.12429 9.16767 -0.00583
C 34.30945 8.50792 -0.02302
C 34.32512 7.09992 -0.02849
C 1.19104 6.44756 0.02931
C 1.19784 5.02064 0.00628
C 34.39978 4.2876 -0.0345
C 34.38952 2.89343 -0.00931
C 1.17482 2.19087 -0.00939
C 1.16744 0.75926 -0.00468
C 1.21799 10.59727 -0.00027
C 1.21375 23.41488 0.00723
C 34.36591 24.07843 0.03076
C 0.01077 25.52581 -0.05239
C 33.18844 13.59076 -0.00644
C 31.91166 12.89157 -0.01839
C 31.93991 11.41527 0.00137
C 33.15697 10.68273 0.00199
C 33.12144 9.29376 0.04381
C 31.92987 8.6058 0.02806
C 31.88485 7.16229 0.01504
C 33.09392 6.41348 -0.00069
C 33.09815 4.98805 0.04926
C 31.87705 4.31422 -0.03838
C 31.92272 2.94485 0.00349
C 33.15494 2.18558 -0.00323
C 33.17502 0.72418 -0.00841
C 31.9854 0.03758 0.0001
C 34.36802 32.69473 -0.02927
C 1.19082 31.97278 -0.01404
C 1.24075 30.49849 0.01027
C 34.42052 29.7599 0.01831
C 0.01414 28.38504 -0.01037
C 1.30951 27.67066 -0.00439
C 1.2145 26.2787 -0.00598
C 30.72134 31.88894 0.04266
C 29.47447 32.62352 0.01177
C 27.0927 0.03804 -0.00416
C 28.31431 0.74394 0.01699
C 23.44756 22.10641 0.01852
C 22.05306 11.15181 -0.00381
C 23.29298 10.61547 0.03046
C 23.36912 9.20172 0.0296
C 22.12606 8.52249 0.03374
C 22.16528 7.14 -0.02845
C 23.32462 6.36359 -0.03213
C 23.33891 4.99583 0.02239
C 22.16971 4.27002 0.01153
C 23.40369 23.46353 0.01126
C 22.16941 2.84683 0.02734
C 23.3678 0.72339 0.01515
C 22.12737 0.01539 -0.00225
C 24.5139 32.66933 0.00071
C 25.84574 31.89768 -0.01107
C 25.74936 30.46355 -0.01586
C 24.49117 29.75814 -0.01971
C 24.57186 28.29259 -0.02118
C 25.82199 27.65696 0.00733
C 25.83936 26.21851 -0.00178
C 23.40088 2.13744 -0.0055
C 22.07174 24.12134 -0.01185
C 22.08099 25.56095 -0.01662
C 23.37526 26.26953 -0.00478
C 20.8683 26.18967 -0.04422
C 19.6558 25.44984 0.00654
C 19.65415 23.9205 -0.00703
C 20.99516 23.20181 -0.04076
C 20.85491 10.58761 -0.00652
C 20.8806 9.16804 0.0058
C 19.61518 8.50045 -0.00865
C 19.66885 7.08766 0.00675
C 20.92682 6.37688 -0.00311
C 20.88103 4.96712 0.00742
C 19.61886 4.26605 -0.01594
C 19.6867 2.82153 0.0106
C 20.97072 2.1244 -0.01154
C 20.90622 0.69387 -0.01721
C 19.65754 0.01801 -0.02422
C 22.08143 32.69476 0.01277
C 23.24831 31.94177 0.00096
C 23.28465 30.52931 -0.01527
C 22.04602 29.91884 0.01087
C 22.05629 28.48806 0.00199
C 23.30229 27.67328 0.01511
C 24.60301 25.50569 0.00768
C 3.6627 32.0036 -0.04999
C 24.58427 24.10339 -0.0276
C 25.82244 22.01273 -0.04078
C 28.29277 26.25795 -0.0032
C 27.01089 25.49897 0.00622
C 27.01246 24.09827 -0.02815
C 28.29332 23.45257 -0.00942
C 28.33307 21.9959 0.00487
C 27.0701 21.31938 0.00826
C 27.05758 19.86312 -0.00294
C 28.40391 19.12476 0.00152
C 28.3877 17.73027 0.01257
C 28.2486 27.64086 -0.00037
C 27.13157 17.06131 0.02316
C 28.19395 14.89152 0.00194
C 28.17323 13.48588 -0.00621
C 26.91905 12.79368 0.02611
C 26.97056 11.37945 0.02198
C 28.24584 10.66177 0.01094
C 28.24884 9.23752 0.00235
C 27.01348 8.44602 0.01495
C 27.05047 7.0401 0.01259
C 28.31158 6.41152 0.01799
C 26.94356 15.61303 0.04185
C 27.04417 28.32915 -0.01654
C 26.96727 29.75933 -0.00218
C 28.21035 30.47891 -0.00802
C 24.463 21.25631 0.02117
C 24.55871 19.89593 0.02737
C 25.83056 19.2733 -0.00498
C 26.05399 17.8862 0.00135
C 25.79706 14.88088 0.03102
C 25.60235 13.53166 0.02555
C 24.46713 12.72738 0.01423
C 24.52415 11.28232 -0.00285
C 25.75584 10.64809 -0.009
C 25.84402 9.20811 -0.01199
C 24.55891 8.50204 -0.00229
C 24.61834 7.03576 -0.00938
C 25.82113 6.27993 -0.0264
C 25.77378 4.91779 -0.01154
C 24.50357 4.23577 0.00684
C 24.55688 2.83224 -0.01052
C 25.72308 2.06727 -0.01679
C 25.82833 0.73969 0.00367
C 24.62502 34.06598 0.04306
C 27.04395 32.63635 0.00996
C 28.24279 31.88371 0.00195
C 25.76522 23.40882 0.03005
C 2.42514 32.63746 -0.03291
