416
Graphene
C 34.35963 34.03712 0.01295
C 13.53779 22.03935 -0.01111
C 12.34576 21.35218 -0.01275
C 12.38689 19.91006 0.00985
C 13.56051 19.22967 -0.02245
C 13.65424 17.77954 -0.00428
C 12.36072 17.12003 0.03101
C 13.34373 6.23913 -0.01536
C 13.48269 4.84868 -0.02689
C 12.27317 4.14972 -0.01046
C 12.26166 2.69205 -0.00891
C 13.46694 23.50253 0.02841
C 13.52305 2.07751 0.02819
C 12.24421 34.01827 -0.02971
C 14.7889 32.60636 0.02894
C 15.97799 31.90359 -0.01789
C 15.99749 30.48422 0.00444
C 14.81138 29.82318 -0.00925
C 14.72195 28.44903 0.01877
C 15.93877 27.70462 0.01363
C 15.99016 26.28254 -0.02162
C 14.71621 25.63872 0.00415
C 14.74827 24.179 -0.0014
C 13.47147 0.674 0.00165
C 15.98848 23.42629 0.02162
C 12.28638 24.17104 0.00943
C 13.44639 26.35172 0.03592
C 11.09209 22.0911 -0.00131
C 9.80031 21.37335 -0.01118
C 9.82726 19.99317 -0.014
C 11.10175 19.27842 0.02147
C 11.17339 17.86158 0.00373
C 9.91769 17.20805 -0.00191
C 9.90663 15.75859 0.00438
C 11.17151 15.26899 0.01291
C 9.742 12.69876 0.00093
C 9.89835 11.46063 0.00057
C 12.26179 25.62101 0.00406
C 11.03756 4.79209 -0.01634
C 9.79429 2.86185 0.02339
C 10.97678 2.01252 0.01641
C 11.01291 0.59743 -0.00719
C 9.75354 0.02403 0.01364
C 12.34723 32.65348 -0.01062
C 13.58505 31.92123 -0.00033
C 13.57653 30.49539 0.03589
C 12.28621 29.88275 -0.02759
C 12.23893 28.49948 0.0402
C 13.46201 27.72879 0.00572
C 9.82904 4.3217 -0.00334
C 11.11509 23.51999 -0.02896
C 16.01045 21.99663 0.0076
C 14.78887 19.91792 -0.01454
C 18.50244 17.72894 -0.00619
C 17.28037 16.97701 -0.02162
C 18.45313 14.87754 0.00889
C 17.66565 11.10422 -0.00481
C 18.33051 9.4376 0.00979
C 17.20884 8.55882 0.01443
C 17.14782 7.12986 0.03505
C 18.41767 6.44107 -0.02815
C 18.41836 4.9911 -0.04147
C 17.14216 4.32486 -0.05302
C 18.41477 19.11179 0.01848
C 17.1345 2.85481 0.00213
C 18.33445 0.70589 -0.00289
C 17.16971 34.07352 0.00028
C 19.62487 32.69449 -0.02213
C 20.7993 32.03304 0.03698
C 20.85553 30.5547 -0.00109
C 19.68543 29.81751 -0.00491
C 19.65165 28.42637 0.03338
C 20.90679 27.6702 -0.0258
C 20.8851 26.20088 -0.0331
C 19.64967 25.49146 -0.00316
C 18.36876 2.13103 -0.00066
C 14.76673 21.37385 0.01241
C 17.17736 19.89413 0.02098
C 18.45742 22.01158 0.0351
C 15.96286 19.14078 0.01945
C 16.04245 17.70149 0.01416
C 15.92623 9.1565 0.03542
C 14.83808 8.46381 0.02299
C 14.38868 7.15212 0.00244
C 15.88879 6.46407 -0.01717
C 15.94426 5.01472 0.05265
C 14.7221 4.21293 -0.01952
C 14.72646 2.8322 -0.02813
C 15.96374 2.11341 0.00374
C 17.19785 21.31309 -0.03113
C 15.94152 0.7239 0.00052
C 17.17125 32.65514 0.01965
C 18.38115 31.94266 0.02058
C 18.39682 30.51769 -0.01957
C 17.19525 29.76472 -0.0108
C 17.16606 28.36919 -0.00368
C 18.43432 27.69828 -0.02696
C 18.46436 26.26563 -0.00114
C 17.21895 25.55893 0.00228
C 17.21786 24.08062 0.00798
C 18.41558 23.45048 0.00422
C 14.78164 0.01215 -0.03682
C 19.68519 24.0527 0.02188
C 9.86175 24.19098 -0.01004
C 11.06426 26.35654 0.01745
C 2.3382 2.79463 -0.03291
C 3.60555 2.16429 -0.04999
C 3.60767 0.76179 0.04505
C 2.39457 34.07448 0.03284
C 4.91023 32.66359 -0.04307
C 6.14206 31.95314 0.03189
C 6.11402 30.59489 0.00031
C 4.84364 29.94614 -0.003
C 4.91751 28.44934 0.01402
C 6.18569 27.69186 0.02379
C 2.39636 4.27666 0.02769
C 6.14106 26.26544 0.00907
C 4.88992 24.17959 -0.01509
C 6.13298 23.48675 0.03267
C 6.08971 22.11756 0.02374
C 4.87952 21.33658 0.00402
C 4.90317 19.92707 0.0073
C 6.13772 19.27042 0.0174
C 6.14782 17.8537 0.03828
C 4.99523 17.08484 0.01226
C 4.93336 15.66549 -0.00279
C 6.24274 14.87226 0.01996
C 4.94948 25.54371 0.00643
C 6.17296 13.44948 -0.03996
C 3.58342 5.01757 0.01707
C 2.43992 7.11568 -0.00561
C 3.5905 30.51276 -0.00407
C 2.3667 29.79489 0.01138
C 2.41707 28.43029 0.03278
C 3.6603 27.70004 -0.00177
C 3.70828 26.2469 0.04421
C 2.45372 25.51115 0.00088
C 2.45875 24.15998 0.00828
C 3.69022 23.53399 -0.02375
C 3.62367 22.05816 0.00558
C 2.37569 21.30762 -0.0059
C 3.66152 6.42917 0.00208
C 2.41296 19.87576 -0.01386
C 3.73819 17.79686 0.00081
C 2.50992 17.07353 0.00245
C 2.52674 15.63509 0.02728
C 3.70952 14.88152 -0.00039
C 3.65824 13.44481 0.0064
C 2.4557 12.83441 0.00211
C 2.39963 11.38366 -0.00449
C 3.64044 10.60149 -0.01979
C 3.66674 9.20117 0.02784
C 2.43377 8.5469 -0.01977
C 3.61823 19.21224 -0.02805
C 9.84048 25.63732 0.00488
C 4.8887 12.69535 0.01465
C 6.18618 10.68076 -0.00518
C 7.41694 15.59719 0.0127
C 8.65662 14.94055 0.01396
C 8.644 13.60203 0.01849
C 7.4505 12.78228 -0.01142
C 7.40664 11.34691 -0.00562
C 8.70511 10.6008 -0.00494
C 8.55154 9.25484 0.00054
C 7.27761 8.58722 0.03007
C 7.34578 7.14268 -0.00095
C 8.62493 6.52749 0.01572
C 7.40134 17.05778 0.02635
C 8.60996 5.03719 -0.04848
C 7.27435 2.91874 -0.01362
C 8.50341 2.18204 -0.0008
C 8.5176 0.68936 0.0288
C 7.25969 0.06705 0.00393
C 9.80763 32.70993 0.00895
C 11.05793 32.04831 0.00685
C 11.0772 30.62597 0.02888
C 9.83994 29.91711 -0.00482
C 9.76486 28.50353 -0.01384
C 11.00917 27.81932 0.03693
C 7.38861 4.33693 -0.00892
C 4.86493 11.31205 -0.00074
C 8.61585 17.8951 -0.01378
C 7.35479 19.93991 0.00848
C 6.12173 9.27945 0.0086
C 4.89958 8.5278 -0.00643
C 4.83942 7.17977 0.017
C 6.13165 6.46659 -0.03113
C 6.1061 5.06816 -0.02566
C 4.84108 4.32541 -0.00094
C 4.82587 2.90531 0.02322
C 6.12462 2.18512 -0.00725
C 6.04577 0.81974 -0.05697
C 4.81837 0.08349 0.01087
C 8.63387 19.28687 -0.01303
C 7.36296 32.7089 -0.01343
C 8.55026 30.61271 0.0276
C 7.32798 29.90061 0.01305
C 7.36896 28.49923 -0.00077
C 8.57312 27.82068 0.03368
C 8.65294 26.31883 -0.02929
C 7.39994 25.62201 -0.00966
C 7.38985 24.20056 -0.03337
C 8.63776 23.4892 0.01227
C 8.55322 22.10115 0.00873
C 7.30466 21.34192 -0.00049
C 8.54131 32.01421 0.00988
C 20.92535 23.39794 -0.01979
C 20.87898 22.00885 0.02691
C 19.64897 21.23468 -0.01581
C 30.75217 10.58022 -0.00944
C 30.77779 9.21617 -0.03735
C 29.50981 8.48698 -0.00971
C 29.52116 7.04492 0.01518
C 30.74163 6.35034 0.01908
C 30.74131 4.93138 0.07705
C 29.5262 4.22448 0.0103
C 29.52146 2.87276 0.02108
C 30.73151 2.09614 0.00716
C 30.76837 0.65408 0.00307
C 29.49769 11.31459 -0.02155
C 29.47657 0.05561 0.00346
C 33.17241 31.89149 -0.01694
C 33.14162 30.46926 0.01428
C 31.86893 29.7828 -0.02142
C 31.9133 28.38524 0.0544
C 33.08742 27.63609 0.00026
C 33.14897 26.23012 0.00682
C 31.91364 25.51885 -0.01779
C 31.89335 24.12391 0.03794
C 33.17859 23.43012 0.01927
C 33.17594 21.97698 0.01574
C 31.98406 32.61477 0.01713
C 31.9655 21.29929 -0.02383
C 29.47578 12.73686 -0.01461
C 30.70364 14.86432 -0.0405
C 27.06921 4.23515 0.01495
C 27.04943 2.88893 0.01259
C 28.25107 2.14887 0.01799
C 28.26889 0.76976 0.01699
C 27.06791 0.02128 -0.00416
C 29.46704 32.73657 0.01177
C 30.77689 31.97027 0.04266
C 30.66117 30.56459 0.01324
C 29.4451 29.81156 0.0014
C 29.47568 28.37009 0.00924
C 30.73022 13.41446 -0.01303
C 30.71008 27.64722 0.02326
C 29.4832 25.57884 0.03265
C 29.49378 24.1146 -0.02049
C 30.67248 23.40314 -0.01854
C 30.68663 22.01082 -0.01415
C 29.53614 21.30273 -0.03039
C 29.49371 19.83751 0.01836
C 30.68536 19.14187 0.03531
C 30.749 17.73619 -0.00669
C 29.48499 17.03242 0.0101
C 29.43473 15.564 0.01705
C 30.69088 26.27111 0.00261
C 28.34877 4.92417 0.00235
C 31.926 19.87323 -0.01429
C 33.1113 17.74257 0.00594
C 1.23585 23.43319 0.00723
C 1.19832 22.05902 0.02712
C 0.02091 21.32406 -0.02213
C 0.01761 19.90022 0.01951
C 1.23738 19.16436 -0.01678
C 1.23858 17.77802 0.01223
C 0.00493 17.07578 0.00648
C 0.02589 15.64947 0.02114
C 1.23553 14.92058 -0.02957
C 1.22841 13.54184 0.00343
C 0.00921 24.12759 0.03076
C 34.42625 12.77012 -0.02656
C 1.17839 10.6331 -0.00027
C 1.19909 9.13288 -0.00583
C 34.39802 8.46932 -0.02302
C 34.42733 7.07497 -0.02849
C 1.21116 6.3481 0.02931
C 1.19586 4.94917 0.00628
C 34.42752 4.1783 -0.0345
C 34.35256 2.84251 -0.00931
C 1.12579 2.13686 -0.00939
C 1.16515 0.70881 -0.00468
C 34.41995 11.3682 -0.02442
C 33.20879 19.15759 -0.0136
C 34.41864 25.58228 -0.05239
C 1.1629 27.63901 -0.00439
C 31.91354 17.05444 -0.02474
C 31.88314 15.59993 0.00369
C 33.1751 14.98372 0.00455
C 33.22886 13.55419 -0.00644
C 31.95424 12.76724 -0.01839
C 32.00741 11.27557 0.00137
C 33.22572 10.61345 0.00199
C 33.19869 9.21733 0.04381
C 32.02274 8.47002 0.02806
C 31.9483 7.08282 0.01504
C 1.2291 26.26229 -0.00598
C 33.19447 6.38695 -0.00069
C 31.96893 4.22724 -0.03838
C 32.00019 2.84524 0.00349
C 33.17446 2.11863 -0.00323
C 33.1073 0.67171 -0.00841
C 31.9575 34.01839 0.0001
C 34.36652 32.57618 -0.02927
C 1.22718 31.93768 -0.01404
C 1.17711 30.46697 0.01027
C 34.37237 29.7532 0.01831
C 34.33782 28.34939 -0.01037
C 33.19205 4.9528 0.04926
C 28.31374 6.30621 0.01094
C 27.06423 7.03228 0.02198
C 27.06182 8.45733 0.02611
C 23.42748 22.02525 -0.01154
C 22.16993 21.27909 -0.01721
C 22.16941 19.8354 -0.02422
C 23.43692 19.08463 0.01277
C 23.37125 17.65592 0.00096
C 22.10785 16.99623 -0.01527
C 22.05147 15.52441 0.01087
C 23.31637 14.83924 0.00199
C 23.28869 13.42608 0.01511
C 23.27656 10.57942 -0.00478
C 23.32325 23.42641 0.0106
C 23.37513 9.19388 -0.01662
C 22.22796 7.09942 0.01126
C 23.39663 6.36899 0.01852
C 23.41443 4.91849 -0.00381
C 22.12072 4.20916 0.03046
C 22.09466 2.85082 0.0296
C 23.2866 2.14972 0.03374
C 23.30273 0.73609 -0.02845
C 22.02573 0.05649 -0.03213
C 24.51306 32.63039 0.02239
C 25.85302 32.02492 0.01153
C 22.15248 8.51533 -0.01185
C 25.78531 30.59928 0.02734
C 22.1178 24.14362 -0.01594
C 23.33347 26.28304 -0.00311
C 19.64663 19.83062 0.01452
C 20.94546 19.12757 0.04892
C 20.94842 17.71876 -0.00111
C 19.68855 16.96342 -0.03557
C 19.64944 15.61501 0.03754
C 20.84728 14.70988 0.01739
C 20.9697 9.3156 0.00755
C 19.68974 8.75091 -0.0054
C 19.6447 7.17451 0.00667
C 20.95304 6.39382 0.00143
C 22.15001 25.59086 0.00742
C 20.92075 4.989 -0.017
C 19.69079 2.82889 -0.00831
C 20.92166 2.13742 -0.02957
C 20.81955 0.75248 -0.04422
C 19.58981 0.05306 0.00654
C 21.9999 32.72097 -0.00703
C 23.27953 31.94687 -0.04076
C 23.30338 30.54783 -0.00652
C 22.02492 29.86504 0.0058
C 22.08818 28.43646 -0.00865
C 23.38884 27.70566 0.00675
C 19.65268 4.33031 0.00364
C 24.54767 29.8377 -0.0055
C 24.62754 28.4331 0.01515
C 25.848 27.72926 -0.00225
C 28.27548 32.0227 -0.01679
C 28.25993 30.62028 0.00367
C 27.07658 29.88142 0.04306
C 27.03197 28.42467 0.00996
C 28.24933 27.68389 0.00195
C 28.27114 26.32593 -0.00802
C 27.06808 25.54641 -0.00218
C 27.09465 24.08734 -0.01654
C 28.33827 23.4374 -0.00037
C 28.32687 22.06257 -0.0032
C 26.98791 32.70628 -0.01052
C 27.01746 21.31815 0.00622
C 28.28026 19.17051 -0.00942
C 28.25209 17.74143 0.00487
C 27.02943 16.99962 0.00826
C 27.00402 15.54821 -0.00294
C 28.23683 14.81088 0.00152
C 28.29032 13.42687 0.01257
C 27.00426 12.69472 0.02316
C 26.99837 11.27378 0.04185
C 28.23789 10.59325 0.00194
C 28.26674 9.17723 -0.00621
C 27.04677 19.83976 -0.02815
C 24.5075 33.99608 0.00684
C 25.84887 0.67407 -0.01154
C 25.81929 2.07261 -0.0264
C 25.8275 26.33072 0.00071
C 24.59467 25.55415 -0.01107
C 24.58442 24.17004 -0.01586
C 25.80025 23.46835 -0.01971
C 25.81546 22.02578 -0.02118
C 24.63163 21.31542 0.00733
C 24.60292 19.85387 -0.00178
C 25.75382 19.17317 0.00768
C 25.81303 17.76537 -0.0276
C 24.62959 16.99458 0.03005
C 24.58367 15.51213 -0.04078
C 25.78936 14.80428 0.02117
C 25.77465 13.37475 0.02737
C 24.55691 12.69995 -0.00498
C 24.50796 11.27443 0.00135
C 25.79113 10.55099 0.03102
C 25.81716 9.15831 0.02555
C 24.64361 8.54728 0.01423
C 24.67308 7.09986 -0.00285
C 25.86172 6.34749 -0.009
C 25.88986 4.92381 -0.01199
C 24.64136 4.2404 -0.00229
C 24.62665 2.8188 -0.00938
C 3.63997 31.9238 -0.01299
C 2.38643 32.67113 -0.0154
