377
Graphene
C 0.01541 0.0257 0.01295
C 14.78606 8.50306 0.03542
C 14.76328 7.14168 0.02299
C 15.99854 6.40854 0.00244
C 16.01224 4.95329 -0.01717
C 14.8083 4.27857 0.05265
C 14.75684 2.83586 -0.01952
C 15.94009 2.09172 -0.02813
C 15.96256 0.68263 0.00374
C 14.71376 33.99446 0.00052
C 17.24281 32.65376 -0.03682
C 18.49235 31.96744 0.01965
C 18.4741 30.4799 0.02058
C 17.23463 29.80771 -0.01957
C 17.25306 28.38903 -0.0108
C 18.4314 27.74752 -0.00368
C 18.45665 26.2275 -0.02696
C 17.21486 25.50714 -0.00114
C 17.16983 24.12993 0.00228
C 18.48733 23.37839 0.00798
C 15.93896 9.24462 0.01416
C 15.96315 10.68763 0.01945
C 14.76433 11.30788 -0.01454
C 14.73367 12.80587 0.01241
C 13.45438 2.1831 -0.00428
C 13.53867 0.74123 0.03101
C 12.30446 34.07942 -0.01536
C 14.76745 32.66301 -0.02689
C 16.0249 31.97925 -0.01046
C 16.01513 30.54327 -0.00891
C 14.7764 29.80275 0.02819
C 14.78885 28.4357 0.00165
C 15.98905 27.76115 -0.02971
C 18.39823 22.03547 0.00422
C 15.97839 26.31368 0.02894
C 15.98252 21.96407 0.00444
C 14.7663 21.28878 -0.00925
C 14.77278 19.90556 0.01877
C 16.06136 19.15358 0.01363
C 15.9715 17.69068 -0.02162
C 14.72585 17.07 0.00415
C 14.77849 15.59869 -0.0014
C 15.95122 14.90574 0.02162
C 15.99785 13.46171 0.0076
C 16.04503 23.45355 -0.01789
C 12.29102 2.87095 -0.02245
C 17.24338 21.28852 0.0351
C 18.41703 19.22019 0.02098
C 20.91584 26.27877 -0.01979
C 19.68129 25.54191 0.02691
C 19.6825 24.11742 -0.01581
C 20.92076 23.47132 0.01452
C 20.9152 21.96947 0.04892
C 19.66881 21.31885 -0.00111
C 19.65477 19.88239 -0.03557
C 20.93587 19.15576 0.03754
C 20.95475 17.78474 0.01739
C 19.66938 17.00345 0.00755
C 19.70126 15.61535 -0.0054
C 20.90862 14.90638 0.00667
C 20.94166 13.44633 0.00143
C 19.64091 12.7818 -0.017
C 19.66975 11.37656 0.00364
C 20.93712 10.62254 -0.00831
C 20.9265 9.21852 -0.02957
C 19.66122 8.56301 -0.04422
C 19.64154 7.12064 0.00654
C 20.87571 27.69294 0.02188
C 19.60228 28.45308 -0.00316
C 19.66031 29.83262 -0.0331
C 20.90149 30.54258 -0.0258
C 18.47421 17.70797 0.01848
C 17.23535 17.045 -0.00619
C 17.21827 15.65502 -0.02162
C 18.44186 14.94814 0.00889
C 18.45551 13.51644 -0.00481
C 17.20298 12.77955 0.00979
C 17.23411 11.34675 0.01443
C 18.41633 10.61685 0.03505
C 18.43409 9.22234 -0.02815
C 17.23964 19.87743 -0.03113
C 17.20628 8.54177 -0.04147
C 18.41233 6.39025 0.00213
C 18.40884 4.97608 -0.00066
C 17.21473 4.24969 -0.00289
C 17.213 2.83949 0.00028
C 18.46364 2.14245 -0.02213
C 18.47231 0.70307 0.03698
C 17.1957 34.03588 -0.00109
C 19.66537 32.59744 -0.00491
C 20.86269 31.92893 0.03338
C 17.22157 7.10893 -0.05302
C 12.27202 4.25491 0.00985
C 13.55217 4.99031 -0.01275
C 13.5598 6.40038 -0.01111
C 6.11399 13.5356 0.00988
C 4.90951 12.7742 0.0276
C 4.89321 11.38283 0.01305
C 6.12546 10.67431 -0.00077
C 6.15791 9.28056 0.03368
C 4.95305 8.46391 -0.02929
C 4.9102 7.11959 -0.00966
C 6.10739 6.40544 -0.03337
C 6.12756 4.97786 0.01227
C 4.94829 4.28934 0.00873
C 4.92578 2.87318 -0.00049
C 6.15725 2.09241 0.00848
C 6.1832 0.73369 -0.01303
C 4.93865 0.045 -0.01378
C 7.384 32.64991 0.02635
C 7.33788 17.09922 0.0127
C 7.3927 15.64028 0.01396
C 8.61195 14.91051 0.01849
C 8.60631 13.50044 -0.01142
C 6.12249 14.92496 -0.01343
C 4.94708 15.60395 0.01087
C 4.93531 17.07918 -0.05697
C 6.17389 31.92724 -0.00725
C 2.52816 29.78842 0.03267
C 3.7361 17.74873 0.02374
C 2.45342 17.03172 0.00402
C 2.45061 15.68705 0.0073
C 3.6858 14.91878 0.0174
C 3.69689 13.46662 0.03828
C 2.45696 12.78463 0.01226
C 2.45285 11.38197 -0.00279
C 3.67432 10.62839 0.01996
C 7.40268 12.74993 -0.00562
C 3.62893 9.1937 -0.03996
C 2.44035 7.14593 -0.00074
C 3.67388 6.42638 -0.00518
C 3.70925 4.98716 0.0086
C 2.48198 4.28568 -0.00643
C 2.45623 2.80578 0.017
C 3.73355 2.13595 -0.03113
C 3.71673 0.74375 -0.02566
C 2.45177 0.03207 -0.00094
C 4.88837 32.62591 0.02322
C 2.43751 8.48267 0.01465
C 7.37266 11.31451 -0.00494
C 8.64989 10.64522 0.00054
C 8.61362 9.1893 0.03007
C 9.86875 4.27956 0.00438
C 9.82956 2.89516 0.01291
C 11.05493 2.13737 0.00093
C 11.1148 0.6988 0.00057
C 9.88062 0.01567 -0.01634
C 12.33452 32.69806 -0.00334
C 13.50794 31.8855 0.02339
C 13.53189 30.53937 0.01641
C 13.53076 19.1888 -0.00719
C 11.03771 4.9536 -0.00191
C 13.52315 17.77305 0.01364
C 12.27558 15.64284 -0.00033
C 13.50183 14.92879 0.03589
C 13.5442 13.43803 -0.02759
C 12.28462 12.81165 0.0402
C 12.27889 11.38089 0.00572
C 13.52442 10.68591 0.03592
C 13.5065 9.23321 0.00406
C 12.29716 8.51069 0.00943
C 12.31454 7.13868 0.02841
C 12.30632 17.08653 -0.01062
C 20.86074 6.39175 -0.00703
C 11.09968 6.39449 0.00373
C 9.83323 8.55347 -0.014
C 7.37866 8.53025 -0.00095
C 7.37109 7.14206 0.01572
C 8.54695 6.43976 -0.04848
C 8.60312 4.98846 -0.00892
C 7.37002 4.27472 -0.01362
C 7.31854 2.86555 -0.0008
C 8.62152 2.16118 0.0288
C 8.63151 0.72787 0.00393
C 7.40749 34.07093 0.00895
C 9.80766 7.13121 0.02147
C 9.83238 32.70697 0.00685
C 11.05862 17.74661 -0.00482
C 9.79162 17.02124 -0.01384
C 9.81393 15.64914 0.03693
C 11.05682 14.87343 0.01745
C 11.06451 13.48495 0.00488
C 9.77205 12.82603 -0.01004
C 9.80726 11.40568 -0.02896
C 11.10508 10.71613 -0.00131
C 11.09475 9.17657 -0.01118
C 11.05175 31.95928 0.02888
C 3.62342 31.95056 -0.01509
C 20.9278 4.96256 -0.04076
C 19.66742 2.86406 0.0058
C 30.68478 6.37446 0.00716
C 30.7126 4.95813 0.00307
C 29.49316 4.20039 0.00346
C 29.50014 2.86472 0.01713
C 30.70994 2.12698 -0.01694
C 30.75714 0.73539 0.01428
C 29.52282 34.04189 -0.02142
C 31.98926 32.654 0.0544
C 33.20404 31.98327 0.00026
C 33.21492 30.53305 0.00682
C 31.98414 29.84523 -0.01779
C 31.97064 28.40461 0.03794
C 33.21888 27.6854 0.01927
C 33.20912 26.25748 0.01574
C 31.95819 25.60742 -0.02383
C 32.0094 24.14812 -0.01429
C 33.21864 23.40267 -0.0136
C 33.22678 21.99465 0.00594
C 31.97088 21.32387 -0.02474
C 29.51963 7.13164 0.02108
C 29.5065 8.51396 0.0103
C 30.73816 9.23358 0.07705
C 30.74549 10.65485 0.01908
C 30.74999 31.94801 0.02326
C 30.75384 30.55112 0.00261
C 29.51093 29.74197 0.03265
C 29.53572 28.32367 -0.02049
C 30.76435 27.71357 -0.01854
C 30.73694 26.32025 -0.01415
C 29.55313 25.53937 -0.03039
C 29.48799 24.13281 0.01836
C 30.77302 23.38617 0.03531
C 31.97051 19.82506 0.00369
C 30.73169 22.00816 -0.00669
C 29.49632 19.85141 0.01705
C 30.74714 19.20108 -0.0405
C 30.73573 17.76091 -0.01303
C 29.51257 17.01137 -0.01461
C 29.5546 15.61424 -0.02155
C 30.75455 14.91634 -0.00944
C 30.78657 13.50699 -0.03735
C 29.49986 12.72966 -0.00971
C 29.53249 11.36153 0.01518
C 29.52942 21.27719 0.0101
C 29.49251 32.63582 0.00924
C 33.22543 19.13113 0.00455
C 31.95668 17.05448 -0.01839
C 34.42682 19.89771 0.01951
C 1.26164 19.22989 -0.01678
C 1.21727 17.74696 0.01223
C 0.03361 17.04827 0.00648
C 34.39191 15.62733 0.02114
C 1.22717 14.91212 -0.02957
C 1.23006 13.49236 0.00343
C 0.03315 12.78953 -0.02656
C 0.00449 11.36819 -0.02442
C 1.19573 10.6472 -0.00027
C 1.23043 9.24729 -0.00583
C 34.43011 8.53369 -0.02302
C 0.01642 7.14239 -0.02849
C 1.18229 6.31221 0.02931
C 1.19316 4.93345 0.00628
C 34.42684 4.22492 -0.0345
C 0.05569 2.83127 -0.00931
C 1.21272 2.11468 -0.00939
C 1.21612 0.7205 -0.00468
C 34.405 21.26823 -0.02213
C 34.38239 24.18675 0.02712
C 34.42052 25.50404 0.00723
C 34.41295 28.461 0.03076
C 31.96958 15.6301 0.00137
C 33.18583 14.90001 0.00199
C 33.18562 13.48467 0.04381
C 31.9495 12.75197 0.02806
C 31.91515 11.38748 0.01504
C 33.19805 10.67213 -0.00069
C 33.22984 9.20186 0.04926
C 31.98147 8.51898 -0.03838
C 31.9498 7.15341 0.00349
C 33.23183 17.75281 -0.00644
C 33.18953 6.42173 -0.00323
C 31.95723 4.27215 0.0001
C 31.94566 2.83265 -0.02927
C 33.20676 2.17156 -0.01404
C 33.21958 0.7067 0.01027
C 31.977 34.07624 0.01831
C 34.42501 32.65983 -0.01037
C 1.21663 31.91998 -0.00439
C 1.23997 30.53831 -0.00598
C 34.42111 29.89468 -0.05239
C 33.20359 4.90943 -0.00841
C 27.05393 34.05006 0.0014
C 28.24116 0.69949 0.01324
C 28.30008 2.12754 0.04266
C 22.16165 8.50704 -0.02845
C 22.08092 7.04312 -0.03213
C 23.34945 6.43412 0.02239
C 23.3996 4.97447 0.01153
C 22.09712 4.19999 0.02734
C 22.09944 2.8432 -0.0055
C 23.37969 2.11034 0.01515
C 23.36635 0.7109 -0.00225
C 22.14744 0.03881 0.00071
C 24.58134 32.63478 -0.01107
C 25.8422 31.90202 -0.01586
C 25.81042 30.52723 -0.01971
C 24.55795 29.80173 -0.02118
C 24.57083 28.40343 0.00733
C 25.84829 27.63628 -0.00178
C 25.79208 26.2852 0.00768
C 24.54781 24.1671 -0.0276
C 25.76279 23.43096 0.03005
C 25.79482 21.94942 -0.04078
C 23.32666 9.23137 0.03374
C 23.4123 10.63079 0.0296
C 22.17166 11.3385 0.03046
C 22.08647 12.77121 -0.00381
C 20.85333 2.08199 -0.00865
C 20.92636 0.70778 0.00675
C 19.66914 34.06682 -0.00311
C 22.17103 32.6245 0.00742
C 23.41643 31.88006 -0.01594
C 23.3993 30.49914 0.0106
C 22.12067 29.84178 -0.01154
C 22.14141 28.35553 -0.01721
C 23.30826 27.67578 -0.02422
C 24.56336 21.33182 0.02117
C 22.16103 24.08258 0.01277
C 23.40542 21.98746 -0.01527
C 22.12914 21.24603 0.01087
C 22.13984 19.85455 0.00199
C 23.36849 19.16512 0.01511
C 23.3702 17.73208 -0.00478
C 22.15584 17.04842 -0.01662
C 22.10273 15.60427 -0.01185
C 23.3885 14.8873 0.01126
C 23.38349 13.46562 0.01852
C 23.37796 23.4299 0.00096
C 24.62966 19.91906 0.02737
C 25.85544 19.22541 -0.00498
C 25.85204 17.71368 0.00135
C 28.2755 23.42496 -0.00942
C 28.29292 22.0074 0.00487
C 27.02043 21.34113 0.00826
C 27.02914 19.89821 -0.00294
C 28.28585 19.17619 0.00152
C 28.26881 17.77744 0.01257
C 27.03623 17.01236 0.02316
C 27.08739 15.62218 0.04185
C 28.2819 14.9576 0.00194
C 27.05519 24.08493 -0.02815
C 28.30297 13.54427 -0.00621
C 27.07237 11.35702 0.02198
C 28.34088 10.61892 0.01094
C 28.24059 9.20283 0.00235
C 27.06445 8.52928 0.01495
C 27.04557 7.08968 0.01259
C 28.38818 6.41123 0.01799
C 28.25843 4.98214 0.01699
C 27.06069 4.24244 -0.00416
C 27.0413 2.82369 0.01177
C 26.99757 12.80217 0.02611
C 19.65574 4.28374 -0.00652
C 27.00637 25.55182 0.00622
C 28.25986 27.6693 -0.00037
C 24.62174 17.00032 0.03102
C 24.52181 15.57075 0.02555
C 25.82126 14.91158 0.01423
C 25.80465 13.49733 -0.00285
C 25.7999 10.61978 -0.009
C 25.81023 9.23347 -0.01199
C 24.56772 8.54136 -0.00229
C 24.61529 7.11657 -0.00938
C 25.80786 6.40786 -0.0264
C 28.31445 26.21868 -0.0032
C 25.87023 4.98538 -0.01154
C 24.58179 2.79275 -0.01052
C 25.8525 2.11625 -0.01679
C 25.87818 0.77514 0.00367
C 24.61943 0.0219 0.04306
C 27.0141 32.61725 0.00996
C 28.27753 31.93249 0.00195
C 28.28807 30.56393 -0.00802
C 27.02872 29.86201 -0.00218
C 27.05282 28.38936 -0.01654
C 24.62569 4.2839 0.00684
C 2.4807 32.67495 0.00643
