409
Graphene
C 0.00204 0.02052 0.01295
C 13.58255 17.72011 -0.01536
C 12.28165 17.11543 -0.02689
C 12.32011 15.68852 -0.01046
C 13.5887 14.86489 -0.00891
C 13.6518 13.57166 0.02819
C 13.55324 0.7225 0.00165
C 12.30022 34.05936 -0.02971
C 14.69937 32.61431 0.02894
C 15.92629 31.8245 -0.01789
C 16.00569 30.47291 0.00444
C 14.79939 29.82002 -0.00925
C 14.80216 28.35969 0.01877
C 16.01114 27.62621 0.01363
C 16.03393 26.25556 -0.02162
C 14.80939 25.61484 0.00415
C 14.77132 24.15368 -0.0014
C 15.95875 23.31178 0.02162
C 15.92343 21.93787 0.0076
C 14.76135 21.1971 0.01241
C 14.66781 19.83843 -0.01454
C 15.95971 19.19087 0.01945
C 13.4907 19.09418 0.03101
C 12.2706 19.94765 -0.00428
C 12.25873 21.38146 -0.02245
C 13.54762 22.09452 0.00985
C 9.80011 19.87697 0.00438
C 11.11564 19.1994 0.01291
C 11.04543 17.79972 0.00093
C 9.86763 17.05228 0.00057
C 9.86643 15.61229 -0.01634
C 11.14024 14.97735 -0.00334
C 10.98568 13.57396 0.02339
C 9.89234 12.89365 0.01641
C 9.94577 2.84701 -0.00719
C 10.91459 2.14529 0.01364
C 16.01086 17.72042 0.01416
C 11.11473 0.74181 -0.01062
C 12.35802 32.65142 0.03589
C 13.50097 31.90538 -0.02759
C 13.5191 30.4955 0.0402
C 12.3056 29.79517 0.00572
C 12.24906 28.36249 0.03592
C 13.54425 27.68963 0.00406
C 13.57374 26.33256 0.00943
C 12.31629 25.59259 0.02841
C 12.26784 24.22113 -0.01111
C 13.51487 23.51925 -0.01275
C 9.82229 0.07898 -0.00033
C 9.80669 21.21898 -0.00191
C 14.80719 16.98255 0.03542
C 16.01916 14.91246 0.00244
C 18.41759 2.13467 0.01443
C 18.41559 0.74076 0.03505
C 17.17773 0.01938 -0.02815
C 19.67802 32.65969 -0.04147
C 20.92286 31.96736 -0.05302
C 20.92491 30.50313 0.00213
C 19.69473 29.82903 -0.00066
C 19.72454 28.37307 -0.00289
C 20.9803 27.65807 0.00028
C 20.85259 26.26155 -0.02213
C 19.64339 25.49285 0.03698
C 19.67597 24.08896 -0.00109
C 20.88882 23.39066 -0.00491
C 20.8837 21.9973 0.03338
C 19.59881 21.29851 -0.0258
C 19.61257 19.93107 -0.0331
C 20.84714 19.22922 -0.00316
C 20.87566 17.8327 0.02188
C 19.63916 17.07895 -0.01979
C 19.7123 15.57881 0.02691
C 20.92098 14.88622 -0.01581
C 17.10093 2.74568 0.00979
C 18.43969 10.76151 -0.00481
C 17.212 12.84319 0.00889
C 18.43933 13.52108 -0.02162
C 16.07191 13.39949 -0.01717
C 16.11202 2.11739 0.05265
C 15.96003 0.72992 -0.01952
C 14.75239 0.01621 -0.02813
C 17.12913 32.65278 0.00374
C 18.41971 31.98894 0.00052
C 18.37557 30.53531 -0.03682
C 17.20679 29.79312 0.01965
C 17.17715 28.42627 0.02058
C 18.4561 27.70895 -0.01957
C 14.82626 15.60571 0.02299
C 18.43115 26.26913 -0.0108
C 17.1941 24.07501 -0.02696
C 18.41054 23.36775 -0.00114
C 18.41317 21.94722 0.00228
C 17.16304 21.27045 0.00798
C 17.25297 19.83889 0.00422
C 18.4436 19.18746 0.0351
C 18.42543 17.7996 -0.03113
C 17.21982 17.01628 0.02098
C 17.21455 15.63294 0.01848
C 18.4407 14.93961 -0.00619
C 17.22384 25.54165 -0.00368
C 11.00548 21.9923 0.00373
C 11.03156 23.45094 0.02147
C 9.83185 24.20026 -0.014
C 2.40002 2.84721 -0.003
C 3.65356 2.17776 0.01402
C 3.67427 0.75894 0.02379
C 2.4791 34.00048 0.00907
C 4.91016 32.69581 0.00643
C 6.17432 31.98804 -0.01509
C 6.12486 30.58987 0.03267
C 4.82779 29.90101 0.02374
C 4.918 28.46766 0.00402
C 6.15516 27.68321 0.0073
C 6.1001 26.26147 0.0174
C 4.8887 25.57891 0.03828
C 4.95465 24.13083 0.01226
C 6.28192 23.43129 -0.00279
C 6.12121 22.04782 0.01996
C 4.97833 21.28123 -0.03996
C 4.88588 19.87435 0.01465
C 6.07754 19.19442 -0.00074
C 6.13134 17.8207 -0.00518
C 4.94386 17.04163 0.0086
C 4.96225 15.61578 -0.00643
C 2.42355 4.29178 0.00031
C 3.71378 4.96315 0.03189
C 3.6744 6.33797 -0.04307
C 2.47242 7.04695 0.03284
C 3.60079 30.51688 -0.02375
C 2.33064 29.90981 0.00558
C 2.41275 28.449 -0.0059
C 3.65538 27.76133 -0.01386
C 3.7064 26.31882 -0.02805
C 2.46281 25.4932 0.00081
C 2.50709 24.12719 0.00245
C 3.73449 23.45349 0.02728
C 3.69526 22.03835 -0.00039
C 2.43208 21.32039 0.0064
C 6.12097 14.78552 0.017
C 2.44138 19.87834 0.00211
C 3.73091 17.75064 -0.01979
C 2.48326 17.01765 0.02784
C 2.44514 15.64205 -0.01977
C 3.68198 14.99959 -0.00561
C 3.68009 13.53412 0.00208
C 2.52159 12.79468 0.01707
C 2.53668 11.34941 0.02769
C 3.6917 10.67711 -0.03291
C 3.61129 9.1394 -0.04999
C 2.41325 8.46082 0.04505
C 3.65589 19.17378 -0.00449
C 6.08572 13.41816 -0.03113
C 4.8765 12.76832 -0.02566
C 4.93679 11.36113 -0.00094
C 7.35403 17.05148 0.00054
C 7.36561 15.56821 0.03007
C 8.61651 14.95393 -0.00095
C 8.60683 13.49807 0.01572
C 7.40323 12.80346 -0.04848
C 7.38159 11.31179 -0.00892
C 8.58729 10.6553 -0.01362
C 7.45852 8.47279 -0.0008
C 7.37725 7.26594 0.0288
C 7.32133 4.3329 0.00393
C 8.62587 17.74968 -0.00494
C 7.38025 2.97866 0.00895
C 8.61272 0.82224 0.02888
C 7.39946 0.07761 -0.00482
C 9.77617 32.76797 -0.01384
C 11.02264 32.00527 0.03693
C 11.06406 30.56599 0.01745
C 9.77065 29.83796 0.00488
C 9.82975 28.44042 -0.01004
C 11.02878 27.68295 -0.02896
C 11.07306 26.26821 -0.00131
C 9.81819 25.63164 -0.01118
C 8.60651 2.26023 0.00685
C 20.93039 13.47357 0.01452
C 8.5378 19.16977 -0.00562
C 7.32338 21.33679 0.01849
C 6.13563 10.61088 0.02322
C 6.17278 9.22456 -0.00725
C 4.88389 8.52944 -0.05697
C 4.87555 7.12749 0.01087
C 6.20751 6.47667 -0.01343
C 6.16538 4.96019 0.00988
C 4.92637 4.247 0.0276
C 4.85081 2.85954 0.01305
C 6.13885 2.18216 -0.00077
C 6.12485 0.76596 0.03368
C 7.2436 19.8913 -0.01142
C 4.853 0.07087 -0.02929
C 8.56141 31.95387 -0.03337
C 8.57587 30.57387 0.01227
C 7.30874 29.81609 0.00873
C 7.39031 28.44313 -0.00049
C 8.61407 27.68352 0.00848
C 8.58369 26.27746 -0.01303
C 7.36959 25.57911 -0.01378
C 7.41901 24.20143 0.02635
C 8.62312 23.4603 0.0127
C 8.59151 22.02409 0.01396
C 7.3469 32.69137 -0.00966
C 3.64364 31.94808 0.00828
C 19.63254 12.88382 0.04892
C 20.96758 10.6797 -0.03557
C 29.52758 8.44485 -0.00971
C 29.53658 7.05333 0.01518
C 30.76745 6.39392 0.01908
C 30.73827 4.9878 0.07705
C 29.52758 4.29193 0.0103
C 29.48213 2.79996 0.02108
C 30.735 2.13729 0.00716
C 30.74346 0.73344 0.00307
C 29.54976 0.03235 0.00346
C 32.01946 32.56563 0.01713
C 33.25354 31.90985 -0.01694
C 33.18783 30.5315 0.01428
C 31.95744 29.8548 -0.02142
C 31.9475 28.37235 0.0544
C 33.1722 27.64439 0.00026
C 33.23166 26.21762 0.00682
C 31.94196 25.54288 -0.01779
C 31.93451 24.13003 0.03794
C 33.14842 23.44515 0.01927
C 33.16289 22.04158 0.01574
C 31.94077 21.3338 -0.02383
C 30.73073 9.12445 -0.03735
C 30.74552 10.62778 -0.00944
C 29.52967 11.38055 -0.02155
C 29.57983 12.76744 -0.01461
C 28.25234 2.06571 0.01799
C 28.32376 0.68138 0.01699
C 27.10295 34.04269 -0.00416
C 29.53847 32.65398 0.01177
C 30.71397 31.92666 0.04266
C 30.74559 30.51509 0.01324
C 29.49304 29.85563 0.0014
C 29.53736 28.47167 0.00924
C 30.72374 27.7225 0.02326
C 30.77524 26.30364 0.00261
C 31.90445 19.93205 -0.01429
C 29.53332 25.55631 0.03265
C 30.76896 23.42935 -0.01854
C 30.82599 22.04987 -0.01415
C 29.55375 21.27167 -0.03039
C 29.47296 19.82792 0.01836
C 30.73281 19.19872 0.03531
C 30.74972 17.77937 -0.00669
C 29.53689 17.07588 0.0101
C 29.45613 15.54748 0.01705
C 30.66313 14.86063 -0.0405
C 30.74094 13.48198 -0.01303
C 29.57757 24.16831 -0.02049
C 26.99798 2.75908 0.01259
C 33.12942 19.20881 -0.0136
C 31.96758 16.97506 -0.02474
C 1.1727 22.01648 0.02712
C 34.39606 21.29692 -0.02213
C 34.4167 19.9137 0.01951
C 1.19978 19.19921 -0.01678
C 1.22991 17.76072 0.01223
C 34.42152 17.04194 0.00648
C 34.36901 15.5938 0.02114
C 1.14273 14.92532 -0.02957
C 1.25233 13.49257 0.00343
C 0.06273 12.76454 -0.02656
C 34.4255 11.31487 -0.02442
C 1.24076 10.69526 -0.00027
C 1.22904 9.30391 -0.00583
C 34.42393 8.59746 -0.02302
C 34.39822 7.14101 -0.02849
C 1.1793 6.41127 0.02931
C 1.21277 5.01021 0.00628
C 0.00857 4.26535 -0.0345
C 0.00594 2.81296 -0.00931
C 1.19496 2.08491 -0.00939
C 1.22064 0.69135 -0.00468
C 1.1974 23.46231 0.00723
C 34.4063 24.18452 0.03076
C 0.01071 25.53287 -0.05239
C 1.24161 26.20689 -0.00598
C 31.90024 15.60352 0.00369
C 33.16014 14.89088 0.00455
C 33.23581 13.45285 -0.00644
C 31.91891 12.70384 -0.01839
C 31.94584 11.34389 0.00137
C 33.20206 10.64158 0.00199
C 33.18264 9.19819 0.04381
C 31.92688 8.51949 0.02806
C 32.02147 7.06283 0.01504
C 33.21116 6.37497 -0.00069
C 33.24378 17.76428 0.00594
C 33.20913 4.9426 0.04926
C 31.98809 2.74628 0.00349
C 33.20086 2.09074 -0.00323
C 33.17428 0.68924 -0.00841
C 31.95527 34.02479 0.0001
C 0.03714 32.67219 -0.02927
C 1.18386 31.93524 -0.01404
C 1.09362 30.54706 0.01027
C 34.36822 29.7711 0.01831
C 34.39074 28.30516 -0.01037
C 1.19622 27.70453 -0.00439
C 31.99969 4.24104 -0.03838
C 27.07568 4.20501 0.01495
C 28.18502 4.95185 0.00235
C 28.19654 6.34533 0.01094
C 22.16931 15.63156 0.00096
C 23.36469 14.86985 -0.01527
C 23.3822 13.46514 0.01087
C 22.19248 12.72203 0.00199
C 22.19043 11.32082 0.01511
C 23.38881 10.62605 -0.00478
C 23.37975 9.14124 -0.01662
C 22.08809 8.48747 -0.01185
C 22.09024 7.10877 0.01126
C 23.43394 6.3003 0.01852
C 23.40583 4.90666 -0.00381
C 22.12575 4.21023 0.03046
C 22.12248 2.80979 0.0296
C 23.38737 2.1356 0.03374
C 23.36783 0.70277 -0.02845
C 22.17538 0.02333 -0.03213
C 24.57767 32.62328 0.02239
C 25.82709 31.97374 0.01153
C 25.90094 30.56266 0.02734
C 24.65686 29.85065 -0.0055
C 24.6575 28.42658 0.01515
C 22.11223 17.07165 0.01277
C 23.39554 17.68836 -0.02422
C 23.35258 19.16171 -0.01721
C 22.12594 19.88461 -0.01154
C 20.82094 9.27659 0.03754
C 19.66361 8.43666 0.01739
C 19.70137 7.2536 0.00755
C 20.83652 6.42204 -0.0054
C 20.90489 4.9593 0.00667
C 19.74543 4.28998 0.00143
C 19.65219 2.94688 -0.017
C 20.90255 2.11587 0.00364
C 20.94914 0.76842 -0.00831
C 19.72922 0.0214 -0.02957
C 25.84801 27.66879 -0.00225
C 22.12555 32.65155 -0.04422
C 23.42412 30.58081 -0.00703
C 22.13259 29.82419 -0.04076
C 22.27965 28.43991 -0.00652
C 23.43702 27.70831 0.0058
C 23.36318 26.26379 -0.00865
C 22.10923 25.53346 0.00675
C 22.03981 24.14378 -0.00311
C 23.2384 23.44168 0.00742
C 23.26567 22.04706 -0.01594
C 22.07014 21.31502 0.0106
C 23.38384 31.90596 0.00654
C 25.75002 26.21402 0.00071
C 24.53797 25.55349 -0.01107
C 24.51787 24.1438 -0.01586
C 27.00694 29.79318 0.04306
C 27.03949 28.41424 0.00996
C 28.2812 27.72257 0.00195
C 28.27102 26.2516 -0.00802
C 26.99798 25.54744 -0.00218
C 27.08581 24.06334 -0.01654
C 28.33824 23.4057 -0.00037
C 28.29892 21.96224 -0.0032
C 27.08469 21.30764 0.00622
C 27.12221 19.95165 -0.02815
C 28.29328 30.49785 0.00367
C 28.22831 19.09211 -0.00942
C 27.02297 17.02707 0.00826
C 27.01558 15.62814 -0.00294
C 28.20618 14.93141 0.00152
C 28.29371 13.46843 0.01257
C 27.13138 12.8113 0.02316
C 27.09789 11.38536 0.04185
C 28.30031 10.66009 0.00194
C 28.27886 9.17086 -0.00621
C 27.02228 8.54193 0.02611
C 27.04538 7.10881 0.02198
C 28.23823 17.70145 0.00487
C 19.58681 11.32633 -0.00111
C 28.28274 31.91123 -0.01679
C 24.58612 0.00918 0.00684
C 25.82245 23.39718 -0.01971
C 25.84155 22.00384 -0.02118
C 24.59771 21.34276 0.00733
C 24.59487 19.9542 -0.00178
C 25.83035 19.17754 0.00768
C 25.81686 17.72202 -0.0276
C 24.60999 17.05037 0.03005
C 24.60354 15.68189 -0.04078
C 25.83019 14.88719 0.02117
C 25.83175 13.46541 0.02737
C 27.16051 32.66288 -0.01052
C 24.59111 12.78932 -0.00498
C 25.84794 10.68342 0.03102
C 25.82925 9.28712 0.02555
C 24.59559 8.44822 0.01423
C 24.58678 7.00576 -0.00285
C 25.81328 6.31061 -0.009
C 25.86131 4.94889 -0.01199
C 24.66125 4.20944 -0.00229
C 24.50598 2.84402 -0.00938
C 25.79136 2.12488 -0.0264
C 25.76634 0.69492 -0.01154
C 24.6275 11.3599 0.00135
C 2.42276 32.60026 0.00088
