431
Graphene
C 0.01886 0.02537 0.01295
C 13.58913 13.4881 -0.01062
C 12.25498 12.85444 -0.00033
C 12.28815 11.40725 0.03589
C 13.54061 10.62817 -0.02759
C 13.56792 9.27671 0.0402
C 12.31855 8.54665 0.00572
C 12.23184 7.08678 0.03592
C 13.47568 6.37379 0.00406
C 13.49485 4.85264 0.00943
C 12.28243 4.23416 0.02841
C 12.34567 2.86844 -0.01111
C 13.56409 2.1101 -0.01275
C 13.5739 0.69996 0.00985
C 12.34719 34.06315 -0.02245
C 14.72242 32.73457 -0.00428
C 15.98215 31.9123 0.03101
C 15.97296 30.44571 -0.01536
C 14.69269 29.77649 -0.02689
C 14.81965 28.33554 -0.01046
C 15.95812 27.66043 -0.00891
C 15.97911 26.29113 0.02819
C 14.77071 25.53437 0.00165
C 14.73081 24.19939 -0.02971
C 13.45023 14.97235 0.01364
C 15.99919 23.4726 0.02894
C 12.31983 15.66663 -0.00719
C 13.5613 17.78013 0.02339
C 9.86129 8.54308 0.00393
C 9.82475 7.13037 0.00895
C 11.06435 6.38798 0.00685
C 11.09161 4.99138 0.02888
C 9.8407 4.34684 -0.00482
C 9.81258 2.85074 -0.01384
C 11.05423 2.185 0.03693
C 11.0868 0.64241 0.01745
C 9.84927 34.06687 0.00488
C 12.31084 32.69787 -0.01004
C 13.58699 31.96261 -0.02896
C 13.50427 30.4907 -0.00131
C 12.29858 29.85228 -0.01118
C 12.31419 28.3674 -0.014
C 13.46964 27.67657 0.02147
C 13.55628 26.27143 0.00373
C 12.38604 25.58491 -0.00191
C 12.30828 24.17437 0.00438
C 13.54961 23.46211 0.01291
C 13.49543 22.10273 0.00093
C 12.28902 21.33082 0.00057
C 12.28056 19.82116 -0.01634
C 13.53912 19.15004 -0.00334
C 12.32804 17.11004 0.01641
C 11.08112 9.21759 0.0288
C 15.93679 22.04021 -0.01789
C 14.73928 19.91281 -0.00925
C 17.23731 24.10659 -0.00114
C 18.5081 23.50241 0.00228
C 18.44242 21.979 0.00798
C 17.21182 21.31871 0.00422
C 17.22857 19.86141 0.0351
C 18.47899 19.11144 -0.03113
C 18.39999 17.7248 0.02098
C 17.19221 17.01159 0.01848
C 17.2386 15.57777 -0.00619
C 18.46115 14.88438 -0.02162
C 18.42968 13.53309 0.00889
C 17.16593 12.77814 -0.00481
C 17.16092 11.36916 0.00979
C 18.37741 10.71053 0.01443
C 18.41876 9.27141 0.03505
C 17.19213 8.5357 -0.02815
C 17.2671 7.08436 -0.04147
C 18.46418 6.39589 -0.05302
C 18.45638 4.99109 0.00213
C 17.2161 4.29037 -0.00066
C 17.26571 2.85238 -0.00289
C 18.48018 2.14007 0.00028
C 18.47674 0.65982 -0.02213
C 17.19698 25.52128 -0.02696
C 14.73531 21.30529 0.00444
C 18.49319 26.29788 -0.00368
C 17.18593 28.39658 -0.01957
C 15.95403 19.18128 0.01877
C 15.95158 17.75981 0.01363
C 14.75316 17.02095 -0.02162
C 14.68649 15.62547 0.00415
C 15.98444 14.938 -0.0014
C 16.02227 13.48436 0.02162
C 14.73831 12.75537 0.0076
C 14.74434 11.28806 0.01241
C 15.94531 10.61262 -0.01454
C 15.98621 9.20183 0.01945
C 14.70912 8.51011 0.01416
C 14.77639 7.08068 0.03542
C 16.06588 6.40869 0.02299
C 15.96363 5.02609 0.00244
C 14.78513 4.21549 -0.01717
C 14.74537 2.84279 0.05265
C 15.96815 2.12719 -0.01952
C 15.99381 0.74307 -0.02813
C 14.77413 34.03353 0.00374
C 17.18231 32.67263 0.00052
C 18.40981 31.97274 -0.03682
C 18.41214 30.53523 0.01965
C 17.20813 29.8105 0.02058
C 18.42881 27.74422 -0.0108
C 17.23233 34.03728 0.03698
C 11.06867 10.70034 -0.0008
C 9.85606 12.77987 -0.00892
C 6.15473 31.96428 0.00081
C 6.09645 30.59232 0.00245
C 4.93421 29.84924 0.02728
C 4.89692 28.38573 -0.00039
C 6.10139 27.67879 0.0064
C 6.11526 26.28932 0.00211
C 4.96808 25.49328 -0.00449
C 4.96989 24.14443 -0.01979
C 6.11744 23.40723 0.02784
C 6.21147 21.98266 -0.01977
C 4.92597 21.28513 -0.00561
C 4.86419 19.86036 0.00208
C 6.12195 19.28183 0.01707
C 6.14925 17.78901 0.02769
C 4.98977 17.00248 -0.03291
C 6.13784 10.63965 -0.04999
C 6.20153 9.22937 0.04505
C 4.87312 8.4515 0.03284
C 4.95397 7.06152 -0.04307
C 6.0488 6.3387 0.03189
C 6.11983 5.03288 0.00031
C 4.87057 4.31876 -0.003
C 4.89244 2.86907 0.01402
C 4.95213 32.70064 -0.02805
C 6.13964 2.08289 0.02379
C 2.51182 0.01318 -0.01386
C 3.71627 2.17894 0.00558
C 3.68017 30.55728 -0.03672
C 2.43629 29.81277 0.01913
C 2.41507 28.34404 0.00267
C 3.66444 27.68342 0.00787
C 3.73339 26.27277 0.02426
C 2.47764 25.53446 0.01218
C 2.45738 24.16633 -0.01471
C 3.69268 23.4905 -0.02827
C 3.65677 22.0205 0.01078
C 2.51585 21.28146 -0.00112
C 2.53703 19.85732 0.03345
C 3.73098 19.17183 0.00748
C 3.6711 17.59793 0.00662
C 2.42436 16.99302 -0.0154
C 2.39061 15.63677 -0.01299
C 2.44545 11.28508 -0.00407
C 3.69456 10.61726 0.01138
C 3.73922 9.28132 0.03278
C 2.4138 7.0949 -0.00177
C 3.70502 6.35849 0.04421
C 3.65748 5.00696 0.00088
C 2.44303 4.30378 0.00828
C 2.49647 2.89064 -0.02375
C 3.68072 0.71202 -0.0059
C 9.83437 11.36399 -0.01362
C 6.18417 0.75549 0.00907
C 7.36135 32.67288 -0.01509
C 7.33478 2.89819 -0.00077
C 8.63902 2.12593 0.03368
C 8.62865 0.75755 -0.02929
C 7.38262 0.0412 -0.00966
C 9.84611 32.7027 -0.03337
C 11.02085 32.04362 0.01227
C 11.06946 30.5847 0.00873
C 9.86605 29.83814 -0.00049
C 9.76938 28.39738 0.00848
C 11.07647 27.73271 -0.01303
C 11.09853 26.28055 -0.01378
C 9.8665 25.5589 0.02635
C 9.8152 24.18613 0.0127
C 11.04593 23.48616 0.01396
C 11.09058 22.03727 0.01849
C 9.7991 21.3026 -0.01142
C 9.79592 19.91319 -0.00562
C 11.06287 19.12305 -0.00494
C 11.09402 17.72052 0.00054
C 9.79375 17.07784 0.03007
C 9.8085 15.63848 -0.00095
C 11.10995 14.98012 0.01572
C 11.0691 13.45269 -0.04848
C 7.36114 4.29944 0.01305
C 4.86837 0.0054 0.00643
C 8.60578 4.99423 0.0276
C 7.34335 7.13378 -0.01343
C 8.52288 31.95103 0.03267
C 8.57653 30.53697 0.02374
C 7.36917 29.77337 0.00402
C 7.37946 28.44605 0.0073
C 8.5452 27.68636 0.0174
C 8.61688 26.30006 0.03828
C 7.38248 25.53127 0.01226
C 7.34291 24.14285 -0.00279
C 8.5974 23.47176 0.01996
C 8.65513 22.02297 -0.03996
C 7.40963 21.34996 0.01465
C 7.36733 19.87959 -0.00074
C 8.59867 19.17958 -0.00518
C 8.61044 17.75502 0.0086
C 7.32289 17.09508 -0.00643
C 7.43632 15.64603 0.017
C 8.61628 14.86231 -0.03113
C 8.6603 13.44887 -0.02566
C 7.38067 12.81572 -0.00094
C 7.33884 11.39287 0.02322
C 8.62919 10.63782 -0.00725
C 8.59509 9.22797 -0.05697
C 7.37812 8.50765 0.01087
C 8.57327 6.43832 0.00988
C 3.73761 31.98882 -0.04306
C 19.69076 32.5597 -0.00109
C 20.93449 30.47415 0.03338
C 30.76394 13.51517 -0.01303
C 29.50326 12.81858 -0.01461
C 29.52994 11.32162 -0.02155
C 30.70463 10.65208 -0.00944
C 30.7873 9.18748 -0.03735
C 29.46535 8.4822 -0.00971
C 29.47985 7.12114 0.01518
C 30.71464 6.38075 0.01908
C 30.70404 5.00647 0.07705
C 29.4919 4.26248 0.0103
C 29.52711 2.77668 0.02108
C 30.78126 2.11746 0.00716
C 30.74863 0.735 0.00307
C 29.57406 34.05164 0.00346
C 31.95684 32.57906 0.01713
C 33.21716 31.95118 -0.01694
C 33.24006 30.50238 0.01428
C 31.94349 29.80188 -0.02142
C 31.99734 28.37384 0.0544
C 33.21474 27.71163 0.00026
C 33.18384 26.28807 0.00682
C 31.98615 25.62592 -0.01779
C 31.96335 24.1542 0.03794
C 30.79802 14.96312 -0.0405
C 33.16813 23.45207 0.01927
C 29.52408 15.61671 0.01705
C 30.73499 17.72402 -0.00669
C 27.10029 8.56781 0.02611
C 27.09195 7.09783 0.02198
C 28.26641 6.34461 0.01094
C 28.2767 4.99287 0.00235
C 27.05561 4.28011 0.01495
C 27.09044 2.90237 0.01259
C 28.24448 2.04465 0.01799
C 28.24744 0.6648 0.01699
C 27.03905 34.05537 -0.00416
C 29.57187 32.65301 0.01177
C 30.68586 31.89807 0.04266
C 30.68514 30.52419 0.01324
C 29.49608 29.77055 0.0014
C 29.4978 28.38485 0.00924
C 30.74786 27.6266 0.02326
C 30.72694 26.31287 0.00261
C 29.50848 25.58248 0.03265
C 29.51749 24.11552 -0.02049
C 30.75385 23.421 -0.01854
C 30.70934 21.9977 -0.01415
C 29.47709 21.31947 -0.03039
C 29.52709 19.89077 0.01836
C 30.78264 19.11669 0.03531
C 29.50789 17.0206 0.0101
C 28.2528 9.28503 -0.00621
C 33.21899 22.03017 0.01574
C 31.96969 19.93899 -0.01429
C 34.39711 24.1661 0.03076
C 1.191 23.4421 0.00723
C 1.22447 22.05684 0.02712
C 0.01584 21.30496 -0.02213
C 0.02543 19.8883 0.01951
C 1.22086 19.14508 -0.01678
C 1.19562 17.73721 0.01223
C 34.40574 17.04641 0.00648
C 34.39982 15.67974 0.02114
C 1.25191 14.83799 -0.02957
C 1.21364 13.43902 0.00343
C 34.39466 12.76307 -0.02656
C 34.40205 11.36873 -0.02442
C 1.27512 10.66272 -0.00027
C 1.13686 9.15898 -0.00583
C 34.39605 8.51803 -0.02302
C 0.00107 7.09645 -0.02849
C 1.20812 6.33939 0.02931
C 1.19081 4.96797 0.00628
C 0.02839 4.19655 -0.0345
C 0.02379 2.80595 -0.00931
C 1.28873 2.15548 -0.00939
C 1.23367 0.69842 -0.00468
C 0.01054 25.52245 -0.05239
C 31.96893 21.29292 -0.02383
C 1.20581 26.25173 -0.00598
C 0.0142 28.40541 -0.01037
C 33.24903 19.15562 -0.0136
C 33.17488 17.79164 0.00594
C 31.90462 17.03588 -0.02474
C 31.94245 15.59387 0.00369
C 33.21657 14.83224 0.00455
C 33.17393 13.4833 -0.00644
C 32.00327 12.76253 -0.01839
C 31.97858 11.34674 0.00137
C 33.10036 10.64984 0.00199
C 33.12383 9.18205 0.04381
C 31.981 8.5011 0.02806
C 31.96726 7.08418 0.01504
C 33.24078 6.34976 -0.00069
C 33.253 4.91646 0.04926
C 32.01041 4.26334 -0.03838
C 31.96899 2.85353 0.00349
C 33.22258 2.05447 -0.00323
C 33.165 0.66243 -0.00841
C 31.94575 0.01488 0.0001
C 0.05401 32.60585 -0.02927
C 1.31541 31.91923 -0.01404
C 1.206 30.49072 0.01027
C 34.4253 29.80545 0.01831
C 1.24062 27.68074 -0.00439
C 20.90917 31.89439 -0.00491
C 28.34318 10.67161 0.00194
C 27.00155 12.74221 0.02316
C 20.90595 0.72724 -0.00865
C 19.73161 34.05324 0.00675
C 22.18241 32.6576 -0.00311
C 23.40067 31.97797 0.00742
C 23.38484 30.53761 -0.01594
C 22.17997 29.74151 0.0106
C 22.11091 28.4028 -0.01154
C 23.37731 27.71239 -0.01721
C 23.31518 26.33639 -0.02422
C 22.09773 25.54773 0.01277
C 22.11989 24.15104 0.00096
C 23.32102 23.45271 -0.01527
C 23.36502 21.98611 0.01087
C 22.16902 21.31143 0.00199
C 22.11423 19.92333 0.01511
C 23.34049 19.12225 -0.00478
C 22.14573 17.11622 -0.01662
C 22.17889 12.75137 -0.01185
C 22.19213 11.34113 0.01126
C 23.30381 10.58204 0.01852
C 23.38569 9.24394 -0.00381
C 22.12463 8.48539 0.03046
C 22.27985 7.13821 0.0296
C 20.88935 2.15886 0.0058
C 23.3793 6.35815 0.03374
C 19.7168 2.83204 -0.00652
C 20.82706 4.98368 -0.00703
C 19.60553 29.83312 -0.0258
C 19.6192 28.39892 -0.0331
C 20.85476 27.69625 -0.00316
C 20.9303 26.23998 0.02188
C 19.60802 25.53071 -0.01979
C 19.67903 24.15912 0.02691
C 20.85985 23.44384 -0.01581
C 20.87132 21.98378 0.01452
C 19.64244 21.3172 0.04892
C 19.68384 19.87582 -0.00111
C 20.89015 19.15839 -0.03557
C 20.91669 17.74431 0.03754
C 19.68919 16.94756 0.01739
C 19.71364 15.59646 0.00755
C 20.89305 14.898 -0.0054
C 20.94448 13.50591 0.00667
C 19.75058 12.85111 0.00143
C 19.68894 11.38093 -0.017
C 20.87576 10.60644 0.00364
C 20.90549 9.21043 -0.00831
C 19.66659 8.57473 -0.02957
C 19.6378 7.14503 -0.04422
C 20.90731 6.38851 0.00654
C 19.71598 4.28511 -0.04076
C 27.08707 11.37285 0.04185
C 23.33937 4.97336 -0.02845
C 22.11952 2.80187 0.02239
C 24.59937 2.89302 -0.00938
C 25.83716 2.15069 -0.0264
C 25.79891 0.70291 -0.01154
C 24.55222 34.06536 0.00684
C 27.05556 32.61409 -0.01052
C 28.27052 31.93211 -0.01679
C 28.30254 30.5275 0.00367
C 27.07788 29.82245 0.04306
C 27.04378 28.46667 0.00996
C 28.32157 27.72556 0.00195
C 28.24929 26.27912 -0.00802
C 27.06196 25.5464 -0.00218
C 27.05441 24.16698 -0.01654
C 28.28538 23.47196 -0.00037
C 28.30297 21.98701 -0.0032
C 27.04244 21.25679 0.00622
C 27.12936 19.87675 -0.02815
C 28.26318 19.20438 -0.00942
C 28.29797 17.75978 0.00487
C 27.02897 17.06037 0.00826
C 27.07049 15.61021 -0.00294
C 28.2813 14.85108 0.00152
C 28.20852 13.4458 0.01257
C 24.6362 4.2702 -0.00229
C 22.11201 4.23754 -0.03213
C 25.77786 4.98755 -0.01199
C 24.58435 7.08022 -0.00285
C 23.33723 2.14143 0.01153
C 23.35779 0.68766 0.02734
C 22.0632 33.99658 -0.0055
C 24.5613 32.66937 0.01515
C 25.80404 31.99285 -0.00225
C 25.82845 30.59824 0.00071
C 24.58197 29.72536 -0.01107
C 24.62465 28.38359 -0.01586
C 25.82422 27.75442 -0.01971
C 25.79597 26.27897 -0.02118
C 24.56517 25.61596 0.00733
C 24.5877 24.10224 -0.00178
C 25.82926 23.40416 0.00768
C 25.83358 22.00289 -0.0276
C 24.58811 21.30306 0.03005
C 24.57076 19.82669 -0.04078
C 25.85548 19.18232 0.02117
C 25.83835 17.77882 0.02737
C 24.64779 12.83044 -0.00498
C 24.56186 11.38236 0.00135
C 25.78385 10.67548 0.03102
C 25.79217 9.19078 0.02555
C 24.53271 8.49265 0.01423
C 25.77769 6.39053 -0.009
C 2.46797 32.67571 -0.00012
