393
Graphene
C 34.41336 0.04053 0.01295
C 15.92046 31.86586 0.01877
C 16.00873 30.48234 0.01363
C 14.75259 29.76501 -0.02162
C 14.68081 28.35934 0.00415
C 15.94031 27.63879 -0.0014
C 15.97102 26.24622 0.02162
C 14.81262 25.46689 0.0076
C 14.79244 23.95258 0.01241
C 16.08991 23.66287 -0.01454
C 14.7517 32.66761 -0.00925
C 16.06569 10.65648 0.01945
C 14.6534 8.52512 0.03542
C 14.59884 7.14783 0.02299
C 15.78832 6.37169 0.00244
C 15.83255 4.95978 -0.01717
C 14.54517 4.31728 0.05265
C 14.70175 2.92272 -0.01952
C 15.97736 2.20806 -0.02813
C 15.98137 0.69566 0.00374
C 14.69357 34.07869 0.00052
C 15.87627 9.17909 0.01416
C 12.32278 34.06135 0.00444
C 13.53825 0.76057 -0.01789
C 13.50422 2.19505 0.02894
C 9.73563 2.92501 0.03589
C 10.95258 2.1959 -0.02759
C 11.06567 0.76704 0.0402
C 9.7816 0.0855 0.00572
C 12.21991 32.66753 0.03592
C 13.51147 31.9402 0.00406
C 13.50971 30.50037 0.00943
C 12.31999 29.78847 0.02841
C 12.25561 28.25578 -0.01111
C 13.50758 27.54829 -0.01275
C 13.51488 26.1532 0.00985
C 12.25083 25.44869 -0.02245
C 12.15376 24.00223 -0.00428
C 13.37459 23.41116 0.03101
C 13.46054 9.25468 -0.01536
C 12.18538 8.74877 -0.02689
C 12.17222 7.2029 -0.01046
C 13.4131 6.40894 -0.00891
C 13.34883 5.03199 0.02819
C 12.17466 4.29224 0.00165
C 12.19435 2.86738 -0.02971
C 17.18288 32.65442 -0.03682
C 9.72287 4.37558 -0.00033
C 18.41158 31.87821 0.01965
C 17.21618 29.74694 -0.01957
C 20.95681 26.20772 -0.02213
C 19.70806 25.61221 0.03698
C 19.80958 24.09792 -0.00109
C 21.02272 23.43749 -0.00491
C 20.95976 22.00742 0.03338
C 19.55097 21.29182 -0.0258
C 19.60023 19.98493 -0.0331
C 20.68106 19.1111 -0.00316
C 20.75355 17.73968 0.02188
C 20.90436 27.68062 0.00028
C 19.63708 16.9686 -0.01979
C 20.8093 14.91261 -0.01581
C 20.81642 13.47613 0.01452
C 19.58575 12.80904 0.04892
C 19.47146 11.4162 -0.00111
C 20.70508 10.61752 -0.03557
C 20.90926 9.16205 0.03754
C 19.67131 8.4181 0.01739
C 19.60743 6.99048 0.00755
C 20.80244 6.27908 -0.0054
C 19.70351 15.73838 0.02691
C 19.64039 28.39745 -0.00289
C 19.66794 29.7511 -0.00066
C 20.9637 30.41196 0.00213
C 17.15558 28.32478 -0.0108
C 18.49176 27.69526 -0.00368
C 18.48442 26.26338 -0.02696
C 17.26954 25.68276 -0.00114
C 17.40298 24.26602 0.00228
C 18.5932 23.48978 0.00798
C 18.41414 22.1169 0.00422
C 17.10545 11.1451 0.0351
C 18.36434 10.56048 -0.03113
C 18.4071 9.16159 0.02098
C 17.19299 8.51795 0.01848
C 17.14047 7.11465 -0.00619
C 18.40735 6.32306 -0.02162
C 18.34937 4.9628 0.00889
C 17.10955 4.32283 -0.00481
C 17.25168 2.91956 0.00979
C 18.40972 2.14866 0.01443
C 18.44943 0.65383 0.03505
C 17.17644 34.07301 -0.02815
C 19.6609 32.61397 -0.04147
C 20.89902 31.87424 -0.05302
C 18.4406 30.45532 0.02058
C 11.01289 4.96762 -0.01062
C 10.89607 6.41969 0.01364
C 9.75299 7.22848 -0.00719
C 2.42199 4.31598 -0.03996
C 2.38743 2.85127 0.01465
C 3.60408 2.24099 -0.00074
C 3.61872 0.7909 -0.00518
C 2.4221 0.0533 0.0086
C 4.85606 32.79293 -0.00643
C 6.07546 32.11208 0.017
C 6.13783 30.61947 -0.03113
C 4.85683 29.95037 -0.02566
C 3.6989 4.9977 0.01996
C 4.8206 28.51098 -0.00094
C 6.14114 26.39513 -0.00725
C 4.84243 25.72449 -0.05697
C 4.85421 24.32805 0.01087
C 6.06489 23.52906 -0.01343
C 6.35327 22.14923 0.00988
C 5.25611 21.33555 0.0276
C 5.05693 19.81916 0.01305
C 6.16077 18.93677 -0.00077
C 4.92801 17.05575 0.03368
C 6.13128 27.88063 0.02322
C 3.60306 6.46964 -0.00279
C 2.34979 7.13463 0.01226
C 2.28655 8.53927 0.03828
C 3.6535 30.58938 0.00208
C 2.33873 29.93502 0.01707
C 2.37271 28.53574 0.02769
C 3.58155 27.81374 -0.03291
C 3.67767 26.44385 -0.04999
C 2.43524 25.67106 0.04505
C 2.47549 24.10172 0.03284
C 3.72477 23.44367 -0.04307
C 3.91797 21.99967 0.03189
C 2.62157 21.32018 0.00031
C 2.55329 19.87141 -0.003
C 3.81253 19.23322 0.01402
C 3.76837 17.74645 0.02379
C 2.50534 17.06083 0.00907
C 2.52147 15.63816 0.00643
C 3.91279 15.02504 -0.01509
C 3.90179 13.59963 0.03267
C 2.50664 12.85952 0.02374
C 2.33609 11.3716 0.00402
C 3.51472 10.66866 0.0073
C 3.53217 9.25055 0.0174
C 5.00498 15.81311 -0.02929
C 6.41277 12.6905 -0.00966
C 4.97518 12.76247 -0.03337
C 4.72148 11.34736 0.01227
C 7.21884 8.71255 -0.00482
C 7.28768 7.19714 -0.01384
C 8.55789 6.49211 0.03693
C 8.50857 5.06969 0.01745
C 7.24742 4.42017 0.00488
C 7.23754 2.89232 -0.01004
C 8.54355 2.24124 -0.02896
C 8.52753 0.83362 -0.00131
C 7.22918 0.09318 -0.01118
C 9.75429 32.75611 -0.014
C 11.01241 31.98602 0.02147
C 11.09754 30.60756 0.00373
C 9.87936 29.92253 -0.00191
C 9.84632 28.45371 0.00438
C 10.96526 27.6476 0.01291
C 11.05394 26.10915 0.00093
C 9.66269 25.5348 0.00057
C 9.63545 23.85592 -0.01634
C 10.88637 23.49139 -0.00334
C 10.86101 9.28713 0.02339
C 9.5458 8.71113 0.01641
C 8.35223 9.5091 0.02888
C 20.81128 4.91789 0.00667
C 8.26352 10.90969 0.00685
C 7.74104 22.07967 0.00393
C 6.00682 10.73606 0.00873
C 5.9741 9.3707 -0.00049
C 4.79001 8.53329 0.00848
C 4.91059 7.17997 -0.01303
C 6.08738 6.50422 -0.01378
C 6.03831 5.06004 0.02635
C 4.88419 4.34367 0.0127
C 4.80139 2.92774 0.01396
C 6.03303 2.24142 0.01849
C 6.01934 0.8248 -0.01142
C 4.80095 0.07613 -0.00562
C 7.3274 32.73094 -0.00494
C 8.53999 32.05473 0.00054
C 8.59964 30.56311 0.03007
C 7.34882 29.8882 -0.00095
C 7.37208 28.54691 0.01572
C 8.5899 27.78973 -0.04848
C 8.62393 26.39985 -0.00892
C 7.3352 25.6359 -0.01362
C 7.16555 24.30918 -0.0008
C 8.43456 23.4199 0.0288
C 7.11474 11.70857 0.00895
C 3.65137 32.02724 -0.00561
C 19.57308 4.2339 0.00143
C 20.88152 2.13318 0.00364
C 30.68133 5.02282 0.07705
C 29.47405 4.2012 0.0103
C 29.46733 2.86016 0.02108
C 30.62541 2.10547 0.00716
C 30.6554 0.70331 0.00307
C 29.36819 0.03288 0.00346
C 31.86227 32.71176 0.01713
C 33.1457 32.08014 -0.01694
C 33.16125 30.6379 0.01428
C 30.62092 6.41546 0.01908
C 31.97395 29.88014 -0.02142
C 33.17701 27.73031 0.00026
C 33.22889 26.25171 0.00682
C 32.01666 25.54661 -0.01779
C 32.05836 24.14809 0.03794
C 33.28661 23.39094 0.01927
C 33.22891 21.92795 0.01574
C 32.02028 21.29245 -0.02383
C 31.96775 19.85978 -0.01429
C 33.18986 19.18042 -0.0136
C 31.95574 28.45488 0.0544
C 29.39305 7.10668 0.01518
C 29.47399 8.53808 -0.00971
C 30.70688 9.33269 -0.03735
C 30.79061 31.89473 0.04266
C 30.7552 30.55964 0.01324
C 29.56015 29.776 0.0014
C 29.55284 28.38636 0.00924
C 30.76027 27.65136 0.02326
C 30.73602 26.2583 0.00261
C 29.48995 25.55181 0.03265
C 29.58285 24.09864 -0.02049
C 30.80819 23.44595 -0.01854
C 30.78871 22.06962 -0.01415
C 29.51318 21.33062 -0.03039
C 29.50796 19.86729 0.01836
C 30.71522 19.17746 0.03531
C 30.86121 17.77386 -0.00669
C 29.56042 17.0486 0.0101
C 29.38735 15.56219 0.01705
C 30.67083 14.85242 -0.0405
C 30.70798 13.43831 -0.01303
C 29.41565 12.77215 -0.01461
C 29.38935 11.34423 -0.02155
C 30.65701 10.69011 -0.00944
C 33.17237 17.76018 0.00594
C 29.5015 32.74092 0.01177
C 31.97047 17.01798 -0.02474
C 33.15011 14.95425 0.00455
C 0.03441 21.23627 -0.02213
C 0.07648 19.75877 0.01951
C 1.34706 19.12479 -0.01678
C 1.19628 17.69414 0.01223
C 34.41458 17.0707 0.00648
C 34.39698 15.67215 0.02114
C 1.24407 14.95184 -0.02957
C 1.2339 13.57584 0.00343
C 34.37458 12.84189 -0.02656
C 1.27701 21.96677 0.02712
C 34.36744 11.45941 -0.02442
C 1.08948 9.28679 -0.00583
C 34.31525 8.6112 -0.02302
C 34.29879 7.22313 -0.02849
C 1.06684 6.41145 0.02931
C 1.1047 5.04672 0.00628
C 34.30936 4.30746 -0.0345
C 34.38778 2.86992 -0.00931
C 1.14942 2.17228 -0.00939
C 1.20817 0.72956 -0.00468
C 1.1186 10.76032 -0.00027
C 1.27873 23.36623 0.00723
C 0.10262 24.07155 0.03076
C 34.42538 25.52681 -0.05239
C 33.13298 13.57271 -0.00644
C 31.92344 12.84798 -0.01839
C 31.89077 11.39204 0.00137
C 33.10215 10.72008 0.00199
C 33.09199 9.26307 0.04381
C 31.90027 8.50734 0.02806
C 31.85093 7.12021 0.01504
C 33.0928 6.47009 -0.00069
C 33.03781 5.10105 0.04926
C 31.84789 4.25599 -0.03838
C 31.84686 2.87849 0.00349
C 33.11973 2.17801 -0.00323
C 33.14732 0.73984 -0.00841
C 31.92303 0.07773 0.0001
C 34.34945 32.75921 -0.02927
C 1.15262 32.09504 -0.01404
C 1.17351 30.64003 0.01027
C 34.41191 29.86432 0.01831
C 34.42362 28.45225 -0.01037
C 1.14184 27.67369 -0.00439
C 1.1988 26.31665 -0.00598
C 31.90053 15.53216 0.00369
C 26.90399 0.00804 -0.00416
C 28.17588 0.72577 0.01699
C 28.23156 2.13578 0.01799
C 22.0749 8.40486 -0.01185
C 22.02902 6.98545 0.01126
C 23.24664 6.3273 0.01852
C 23.25539 4.89802 -0.00381
C 22.0816 4.17752 0.03046
C 22.11274 2.81356 0.0296
C 23.30869 2.06234 0.03374
C 23.2672 0.67559 -0.02845
C 22.07879 34.03294 -0.03213
C 23.2925 9.1552 -0.01662
C 24.52098 32.66084 0.02239
C 25.82164 30.46507 0.02734
C 24.68521 29.82291 -0.0055
C 24.6207 28.39744 0.01515
C 25.83859 27.63727 -0.00225
C 25.8563 26.30837 0.00071
C 24.64431 25.54683 -0.01107
C 24.70447 24.14827 -0.01586
C 25.86568 23.37495 -0.01971
C 25.83232 21.96557 -0.02118
C 25.85106 31.88181 0.01153
C 23.292 10.5502 -0.00478
C 22.03969 11.30437 0.01511
C 22.0214 12.77264 0.00199
C 20.81148 0.68614 -0.00831
C 19.62754 34.01518 -0.02957
C 22.04221 32.631 -0.04422
C 23.36657 31.96639 0.00654
C 23.39472 30.44447 -0.00703
C 22.25511 29.76258 -0.04076
C 22.1498 28.40038 -0.00652
C 23.37402 27.68322 0.0058
C 23.35693 26.19786 -0.00865
C 22.14438 25.56017 0.00675
C 22.24007 24.18755 -0.00311
C 23.49479 23.53611 0.00742
C 23.40795 22.05736 -0.01594
C 22.17684 21.29212 0.0106
C 22.04996 19.88694 -0.01154
C 23.31746 19.16089 -0.01721
C 23.35077 17.72215 -0.02422
C 22.11687 17.0412 0.01277
C 22.0593 15.56428 0.00096
C 23.35281 14.91337 -0.01527
C 23.32982 13.46106 0.01087
C 24.58064 21.33358 0.00733
C 24.56323 19.80842 -0.00178
C 25.83225 19.17395 0.00768
C 25.75028 17.77611 -0.0276
C 27.12232 24.1447 -0.01654
C 28.27626 23.3588 -0.00037
C 28.265 21.98967 -0.0032
C 27.07293 21.26346 0.00622
C 27.09218 19.85657 -0.02815
C 28.25969 19.18847 -0.00942
C 28.30229 17.72903 0.00487
C 27.02801 17.04319 0.00826
C 26.93113 15.64807 -0.00294
C 28.12828 14.9084 0.00152
C 28.15772 13.47477 0.01257
C 26.91153 12.7216 0.02316
C 26.88844 11.31033 0.04185
C 28.10795 10.61697 0.00194
C 28.20506 9.17436 -0.00621
C 26.98086 8.48961 0.02611
C 26.9591 7.0667 0.02198
C 28.20635 6.36016 0.01094
C 28.23835 4.97761 0.00235
C 26.89159 4.25351 0.01495
C 26.99123 2.84225 0.01259
C 27.08782 25.54244 -0.00218
C 19.65928 2.80202 -0.017
C 28.29714 26.30341 -0.00802
C 27.09342 28.33441 0.00996
C 24.58006 17.00558 0.03005
C 24.55194 15.57574 -0.04078
C 25.7448 14.92085 0.02117
C 25.72466 13.46362 0.02737
C 24.50303 12.7402 -0.00498
C 24.53097 11.29105 0.00135
C 25.71133 10.52796 0.03102
C 25.72416 9.15998 0.02555
C 24.54262 8.52454 0.01423
C 24.52772 7.11625 -0.00285
C 25.74831 6.42258 -0.009
C 25.70864 5.04377 -0.01199
C 24.45705 4.23215 -0.00229
C 24.50617 2.8436 -0.00938
C 25.71041 2.12666 -0.0264
C 25.73787 0.76807 -0.01154
C 24.52698 34.04707 0.00684
C 26.98673 32.59066 -0.01052
C 28.31728 31.9357 -0.01679
C 28.34057 30.52096 0.00367
C 27.16102 29.78943 0.04306
C 28.3207 27.69137 0.00195
C 2.38404 32.72686 -0.01977
