284
Graphene
C 34.33641 0.05336 0.01295
C 11.05628 2.21958 0.0106
C 9.89949 2.92859 -0.01594
C 9.86877 4.42216 0.00742
C 11.12197 5.1301 -0.00311
C 11.14555 6.4656 0.00675
C 9.98344 7.28122 -0.00865
C 9.72927 8.68568 0.0058
C 9.81726 25.57058 -0.00652
C 11.04004 26.16765 -0.04076
C 11.05394 27.71469 -0.00703
C 9.78938 28.34804 0.00654
C 9.85982 29.81012 -0.04422
C 11.08742 30.4493 -0.02957
C 11.05753 31.95793 -0.00831
C 9.86351 32.68361 0.00364
C 7.35559 0.03375 -0.017
C 8.6338 0.79501 0.00143
C 7.35307 15.59591 -0.00316
C 8.51297 14.93512 0.02188
C 8.23055 13.57626 -0.01979
C 7.18709 12.80706 0.02691
C 7.24349 11.49659 -0.01581
C 8.53402 10.89997 0.01452
C 11.117 0.72291 -0.01154
C 8.58933 9.47992 0.04892
C 7.39506 7.30225 -0.03557
C 8.62549 6.55937 0.03754
C 8.63137 5.12031 0.01739
C 7.37292 4.46111 0.00755
C 7.34577 2.95302 -0.0054
C 8.59238 2.19 0.00667
C 7.30174 8.65182 -0.00111
C 9.85586 0.06435 -0.01721
C 12.37233 32.63853 -0.02422
C 13.56002 31.95247 0.01277
C 14.81744 25.60637 0.02734
C 14.72843 4.20227 -0.0055
C 15.03793 2.84712 0.01515
C 16.22689 2.06864 -0.00225
C 15.94664 0.69254 0.00071
C 14.79639 0.0248 -0.01107
C 16.00839 26.24336 0.01153
C 17.25768 32.61513 -0.01586
C 18.49112 30.47074 -0.02118
C 17.30846 29.7733 0.00733
C 17.285 28.33607 -0.00178
C 18.52931 27.63304 0.00768
C 18.49421 26.2426 -0.0276
C 17.18157 25.60453 0.03005
C 18.52104 31.91668 -0.01971
C 7.4383 24.12123 -0.0331
C 15.99427 27.67515 0.02239
C 14.76555 29.84047 -0.02845
C 13.48987 30.47613 0.00096
C 12.33163 29.78711 -0.01527
C 12.30003 28.31278 0.01087
C 13.54248 27.61715 0.00199
C 13.62484 26.23631 0.01511
C 13.64986 4.82563 -0.00478
C 14.76907 28.39147 -0.03213
C 12.37255 4.38761 -0.01662
C 13.56726 2.13128 0.01126
C 13.54077 0.79157 0.01852
C 12.31003 0.06926 -0.00381
C 14.74397 32.6167 0.03046
C 16.00747 31.90501 0.0296
C 16.04896 30.45823 0.03374
C 12.38106 2.85418 -0.01185
C 17.18938 24.09652 -0.04078
C 7.32768 25.56006 -0.0258
C 8.60638 27.64777 -0.00491
C 4.95169 32.69052 0.05265
C 2.37719 0.01207 -0.01717
C 3.63324 0.71564 0.00244
C 3.62485 2.2264 0.02299
C 2.44517 2.96265 0.03542
C 2.43445 4.41852 0.01416
C 3.72627 5.0405 0.01945
C 3.74587 6.42184 -0.01454
C 2.40131 7.08226 0.01241
C 2.4355 8.55151 0.0076
C 3.65591 9.24312 0.02162
C 3.5986 10.66201 -0.0014
C 2.31392 11.33434 0.00415
C 2.3131 12.72833 -0.02162
C 3.44485 13.47017 0.01363
C 3.53294 14.91889 0.01877
C 2.44781 15.66386 -0.00925
C 3.67384 30.61629 0.00985
C 2.50602 29.89924 -0.02245
C 2.44394 28.46899 -0.00428
C 3.69092 27.70931 0.03101
C 3.65887 26.2956 -0.01536
C 2.39998 25.48846 -0.02689
C 6.21924 31.9457 -0.01952
C 2.4442 24.0998 -0.01046
C 3.60729 21.9877 0.02819
C 2.42366 21.26474 0.00165
C 2.48787 19.86089 -0.02971
C 3.66695 19.15555 0.02894
C 3.70854 17.70811 -0.01789
C 2.44699 17.05798 0.00444
C 3.67899 23.36547 -0.00891
C 6.17131 30.57532 -0.02813
C 4.93085 29.81375 0.00374
C 4.89899 28.41234 0.00052
C 4.86738 8.55773 -0.00481
C 4.88863 7.19076 0.00979
C 6.10815 6.51943 0.01443
C 6.13628 5.0656 0.03505
C 4.89198 4.31329 -0.02815
C 4.85067 2.97074 -0.04147
C 6.0724 9.30088 0.00889
C 6.06221 2.21882 -0.05302
C 4.87225 0.09229 -0.00066
C 7.38321 32.62501 -0.00289
C 8.6441 31.91326 0.00028
C 8.62113 30.50653 -0.02213
C 7.41708 29.81881 0.03698
C 7.46848 28.38148 -0.00109
C 6.14848 0.74537 0.00213
C 8.55912 26.14468 0.03338
C 5.99323 10.75087 -0.02162
C 4.66977 12.79333 0.01848
C 6.13966 27.70299 -0.03682
C 6.12417 26.34128 0.01965
C 4.9017 25.60724 0.02058
C 4.99893 24.16478 -0.01957
C 6.27622 23.32206 -0.0108
C 6.17197 21.92332 -0.00368
C 4.76781 11.4242 -0.00619
C 4.86629 21.22908 -0.02696
C 6.1236 19.00387 0.00228
C 6.04666 17.59721 0.00798
C 4.88045 16.96416 0.00422
C 4.79632 15.59799 0.0351
C 6.02841 14.8876 -0.03113
C 5.94405 13.50244 0.02098
C 4.94821 19.77706 -0.00114
C 18.28281 23.27454 0.02117
C 18.3723 21.78989 0.02737
C 18.23051 0.7199 -0.00498
C 33.1681 4.97827 0.04926
C 33.0936 6.36444 -0.00069
C 31.66378 6.67894 0.01504
C 33.05479 9.23381 0.02806
C 33.14175 17.79994 0.04381
C 33.10868 19.2615 0.00199
C 31.91678 19.98623 0.00137
C 31.86533 21.36319 -0.01839
C 33.1772 22.04744 -0.00644
C 33.10778 23.47233 0.00455
C 31.87709 24.14036 0.00369
C 31.91497 25.53435 -0.02474
C 33.0597 26.31347 0.00594
C 33.21476 27.65531 -0.0136
C 31.94722 28.39 -0.01429
C 31.92849 29.81302 -0.02383
C 33.19629 30.63021 0.01574
C 29.39732 24.18469 0.02108
C 30.55699 23.46011 0.00716
C 30.66715 22.06987 0.00307
C 29.46428 21.28893 0.00346
C 29.57093 19.92951 0.01713
C 30.68958 19.37376 -0.01694
C 31.90539 4.47746 -0.03838
C 30.8962 5.52997 0.01428
C 29.46968 3.22445 0.0544
C 30.63464 2.33129 0.00026
C 30.55443 0.86707 0.00682
C 29.42899 0.1562 -0.01779
C 31.90215 32.73758 0.03794
C 33.124 32.03288 0.01927
C 29.40288 4.73399 -0.02142
C 31.87593 3.02368 0.00349
C 33.07147 2.20084 -0.00323
C 33.06134 0.8214 -0.00841
C 1.09752 14.98856 -0.02957
C 1.02682 13.42055 0.00343
C 34.33091 12.67464 -0.02656
C 34.35324 11.34657 -0.02442
C 1.10516 10.60598 -0.00027
C 1.17824 9.23809 -0.00583
C 34.3751 15.72438 0.02114
C 34.26544 8.58269 -0.02302
C 1.1186 6.41782 0.02931
C 1.17258 5.03726 0.00628
C 34.32183 4.26982 -0.0345
C 34.32603 2.82168 -0.00931
C 1.22818 2.19033 -0.00939
C 1.16873 0.76865 -0.00468
C 34.25121 7.15992 -0.02849
C 29.45727 25.53718 0.0103
C 34.19936 17.03103 0.00648
C 1.23826 19.12597 -0.01678
C 31.84261 0.14573 0.0001
C 34.34967 32.71632 -0.02927
C 1.16714 31.96234 -0.01404
C 1.20183 30.57361 0.01027
C 34.41373 29.8378 0.01831
C 0.04158 28.42953 -0.01037
C 1.17287 17.77634 0.01223
C 1.22999 27.72503 -0.00439
C 34.38253 25.55409 -0.05239
C 34.38646 24.14699 0.03076
C 1.24173 23.44971 0.00723
C 1.19961 22.0436 0.02712
C 0.00188 21.31663 -0.02213
C 34.41299 19.87648 0.01951
C 1.17841 26.28559 -0.00598
C 30.71187 26.27229 0.07705
C 30.67798 27.7043 0.01908
C 29.50144 28.45421 0.01518
C 23.32222 31.96026 -0.00802
C 23.35393 30.58061 -0.00218
C 22.07963 29.91634 -0.01654
C 22.10719 28.4421 -0.00037
C 23.36883 27.62878 -0.0032
C 23.30656 26.27334 0.00622
C 22.18891 32.78416 0.00195
C 22.06588 25.58858 -0.02815
C 23.27169 23.48989 0.00487
C 23.20042 22.00572 0.00826
C 22.01492 21.37401 -0.00294
C 21.57808 19.9915 0.00152
C 23.42182 0.81299 0.01257
C 22.1455 0.25246 0.02316
C 22.02018 24.19752 -0.00942
C 24.60975 32.69608 0.04185
C 19.54547 0.11661 0.00996
C 21.00505 18.53944 0.00367
C 17.0803 34.01533 0.00135
C 19.64115 32.74404 0.03102
C 20.91971 32.10699 0.02555
C 20.87265 30.65818 0.01423
C 19.71152 29.87835 -0.00285
C 19.6458 28.46157 -0.009
C 20.86073 0.70561 0.04306
C 20.87699 27.73035 -0.01199
C 19.65212 25.44106 -0.00938
C 19.56214 24.08893 -0.0264
C 20.81183 23.51077 -0.01154
C 20.82324 22.12995 0.00684
C 19.66809 21.22761 -0.01052
C 20.24731 19.89238 -0.01679
C 20.89058 26.31208 -0.00229
C 3.70158 31.98118 -0.01275
C 25.82434 31.96855 0.00194
C 24.58455 29.75729 0.02611
C 27.01175 25.53225 -0.01415
C 26.93574 24.1192 -0.03039
C 28.16311 23.47611 0.01836
C 28.17706 22.03684 0.03531
C 27.06021 21.34345 -0.00669
C 28.10174 4.9268 0.0101
C 28.23371 26.29074 -0.01854
C 26.99586 2.9558 0.01705
C 28.23182 0.92859 -0.01303
C 27.00464 0.08586 -0.01461
C 29.45295 32.78702 -0.02155
C 30.69777 32.09048 -0.00944
C 30.70039 30.58691 -0.03735
C 29.50703 29.89312 -0.00971
C 28.27849 2.37035 -0.0405
C 25.7971 30.5107 -0.00621
C 28.21725 27.80459 -0.02049
C 27.00808 29.86152 0.00261
C 24.61534 28.36828 0.02198
C 25.82127 27.70826 0.01094
C 25.77281 26.19245 0.00235
C 24.55436 25.44665 0.01495
C 24.5276 24.04536 0.01259
C 25.71445 23.40589 0.01799
C 27.03595 28.46573 0.03265
C 25.64911 21.77355 0.01699
C 25.83919 2.24519 0.01177
C 25.80599 0.87942 0.04266
C 24.61641 0.09229 0.01324
C 27.04506 32.70725 0.0014
C 28.2253 32.05884 0.00924
C 28.24225 30.61621 0.02326
C 24.35535 21.15433 -0.00416
C 2.42263 32.64446 -0.01111
