384
Graphene
C 34.28822 34.05448 0.01295
C 11.04508 2.18738 0.02162
C 11.09824 0.81029 0.0076
C 9.84462 0.07466 0.01241
C 12.24456 32.65617 -0.01454
C 13.48839 31.88915 0.01945
C 13.55325 30.47404 0.01416
C 12.39787 29.69002 0.03542
C 12.38691 28.10966 0.02299
C 13.36825 26.61814 0.00244
C 9.79206 2.8957 -0.0014
C 12.33552 25.71209 -0.01717
C 13.57211 23.50048 -0.01952
C 13.47245 22.03126 -0.02813
C 12.24753 21.30152 0.00374
C 12.23019 19.86608 0.00052
C 13.46944 19.17121 -0.03682
C 13.40744 17.71554 0.01965
C 12.25735 16.94088 0.02058
C 12.37878 15.52401 -0.01957
C 13.72921 14.68965 -0.0108
C 12.32323 24.24957 0.05265
C 13.52045 13.33506 -0.00368
C 9.91198 4.31829 0.00415
C 11.00724 6.36331 0.01363
C 11.09714 27.67659 0.00943
C 11.0395 26.26707 0.02841
C 9.78781 25.68968 -0.01111
C 9.74971 24.18412 -0.01275
C 11.01708 23.50203 0.00985
C 11.08109 21.98999 -0.02245
C 9.83099 21.30568 -0.00428
C 9.84343 19.89298 0.03101
C 11.01733 19.15686 -0.01536
C 11.14658 5.01286 -0.02162
C 11.06615 17.68221 -0.02689
C 9.80413 15.71218 -0.00891
C 11.1027 14.85396 0.02819
C 11.002 13.47475 0.00165
C 9.81964 12.74784 -0.02971
C 9.75052 11.31696 0.02894
C 11.03397 10.63008 -0.01789
C 11.03424 9.24882 0.00444
C 9.8389 8.57171 -0.00925
C 9.85042 7.20345 0.01877
C 9.83788 17.04412 -0.01046
C 9.86448 28.49817 0.00406
C 12.27429 12.84317 -0.02696
C 13.42019 10.77873 0.00228
C 14.69768 2.76737 0.03338
C 15.9155 2.06352 -0.0258
C 16.032 0.56565 -0.0331
C 14.8198 33.86131 -0.00316
C 17.30088 32.52774 0.02188
C 18.47419 31.80957 -0.01979
C 18.40132 30.36306 0.02691
C 17.08548 29.91609 -0.01581
C 17.06461 28.29298 0.01452
C 14.82517 4.12761 -0.00491
C 18.37007 27.67074 0.04892
C 17.23342 25.63971 -0.03557
C 17.17719 24.17965 0.03754
C 18.40586 23.40045 0.01739
C 18.39139 21.96677 0.00755
C 17.16766 21.2309 -0.0054
C 17.17563 19.77748 0.00667
C 18.34076 19.08737 0.00143
C 18.33642 17.61043 -0.017
C 17.09403 16.85332 0.00364
C 18.46749 26.17558 -0.00111
C 12.24927 11.43981 -0.00114
C 14.93147 15.67033 -0.00109
C 15.94828 17.7174 -0.02213
C 13.54287 9.33402 0.00798
C 12.38632 8.56021 0.00422
C 12.32982 7.10667 0.0351
C 13.57464 6.43828 -0.03113
C 13.74891 5.02076 0.02098
C 12.45568 4.27163 0.01848
C 12.29919 2.86172 -0.00619
C 13.42362 2.09652 -0.02162
C 13.56001 0.65189 0.00889
C 14.77527 16.99933 0.03698
C 12.33524 34.03811 -0.00481
C 16.15497 31.75262 0.01443
C 16.0699 26.45182 0.03505
C 14.7301 25.92006 -0.02815
C 14.73877 24.32812 -0.04147
C 15.93107 23.51253 -0.05302
C 15.91501 21.98475 0.00213
C 14.67873 21.32947 -0.00066
C 14.74082 19.87577 -0.00289
C 15.95112 19.13957 0.00028
C 14.83866 32.42232 0.00979
C 17.01708 2.82988 -0.00831
C 9.9196 29.90668 0.03592
C 11.03076 31.92505 0.0402
C 3.55127 2.25533 -0.02566
C 3.59935 0.88352 -0.00094
C 2.39761 0.09104 0.02322
C 4.80082 32.81925 -0.00725
C 6.07537 32.06989 -0.05697
C 6.14457 30.63376 0.01087
C 4.90639 29.91879 -0.01343
C 4.7964 28.46246 0.00988
C 6.08253 27.75969 0.0276
C 2.35323 2.95282 -0.03113
C 6.10077 26.34432 0.01305
C 4.87629 24.16361 0.03368
C 6.14805 23.54834 -0.02929
C 6.12763 22.09405 -0.00966
C 4.96639 21.3394 -0.03337
C 4.9627 19.8091 0.01227
C 6.21312 19.25688 0.00873
C 6.14993 17.89865 -0.00049
C 4.82555 17.39596 0.00848
C 4.69433 15.95473 -0.01303
C 4.86237 25.62456 -0.00077
C 6.0234 15.00854 -0.01378
C 2.37933 4.27505 0.017
C 3.57255 6.40996 0.0086
C 3.6253 30.61418 0.00031
C 2.41533 29.87531 -0.003
C 2.37392 28.46196 0.01402
C 3.58513 27.77471 0.02379
C 3.56724 26.406 0.00907
C 2.47162 25.60907 0.00643
C 2.36204 24.19332 -0.01509
C 3.60943 23.48748 0.03267
C 3.67212 22.03016 0.02374
C 3.59657 5.0108 -0.00643
C 2.48225 21.28895 0.00402
C 3.86095 18.99659 0.0174
C 3.23149 14.94843 0.03828
C 3.57436 13.53199 0.01226
C 2.4708 12.70579 -0.00279
C 2.47228 11.35772 0.01996
C 3.68054 10.58228 -0.03996
C 3.5758 9.22424 0.01465
C 2.40819 8.56216 -0.00074
C 2.39814 7.1597 -0.00518
C 2.59499 19.74875 0.0073
C 11.14192 30.55077 0.00572
C 6.07776 13.58951 0.02635
C 4.90541 11.37234 0.01396
C 8.61923 19.22864 -0.00131
C 8.60673 17.84117 -0.01118
C 7.36409 17.04582 -0.014
C 7.27234 15.59543 0.02147
C 8.55613 14.96839 0.00373
C 8.56867 13.49564 -0.00191
C 7.3044 12.87953 0.00438
C 7.32636 11.37557 0.01291
C 8.50902 10.65943 0.00093
C 7.44766 19.99531 -0.02896
C 8.59264 9.2642 0.00057
C 7.27846 7.11949 -0.00334
C 8.6018 6.47098 0.02339
C 8.592 5.06354 0.01641
C 7.29623 4.37328 -0.00719
C 7.27957 2.97076 0.01364
C 8.49862 2.23078 -0.01062
C 8.61897 0.83483 -0.00033
C 7.40178 0.07351 0.03589
C 9.77162 32.67999 -0.02759
C 7.38145 8.51939 -0.01634
C 4.91429 12.84267 0.0127
C 7.39196 21.44987 -0.01004
C 8.59452 23.52746 0.01745
C 6.12552 10.60344 0.01849
C 6.07788 9.23665 -0.01142
C 4.83349 8.5524 -0.00562
C 4.77341 7.16697 -0.00494
C 6.03171 6.48888 0.00054
C 6.1029 5.06972 0.03007
C 4.8588 4.35378 -0.00095
C 4.87118 2.88617 0.01572
C 6.1323 2.22948 -0.04848
C 8.61361 22.07962 0.00488
C 6.13165 0.81389 -0.00892
C 7.31764 32.73124 -0.0008
C 8.49322 31.99266 0.0288
C 8.63363 30.57968 0.00393
C 7.38744 29.95457 0.00895
C 7.27569 28.51237 0.00685
C 8.5392 27.85154 0.02888
C 8.52019 26.39902 -0.00482
C 7.36717 25.70525 -0.01384
C 7.40484 24.2595 0.03693
C 4.87054 0.13678 -0.01362
C 18.28382 2.17779 -0.02957
C 18.43661 0.72464 -0.04422
C 17.30441 33.99267 0.00654
C 29.41008 4.29935 0.0103
C 29.3774 2.81361 0.02108
C 30.58532 2.09059 0.00716
C 30.62456 0.69283 0.00307
C 29.3576 0.01174 0.00346
C 31.90894 32.7332 0.01713
C 33.08008 31.98504 -0.01694
C 33.10183 30.5735 0.01428
C 31.87664 29.84675 -0.02142
C 30.59327 4.98162 0.07705
C 31.98134 28.37273 0.0544
C 33.15239 26.26648 0.00682
C 31.86907 25.64633 -0.01779
C 31.88968 24.14712 0.03794
C 33.08548 23.3847 0.01927
C 33.1791 22.02554 0.01574
C 31.96667 21.28655 -0.02383
C 31.99004 19.8724 -0.01429
C 33.26009 19.16858 -0.0136
C 33.27809 17.76201 0.00594
C 33.18849 27.67989 0.00026
C 32.00911 17.01539 -0.02474
C 30.55841 6.39242 0.01908
C 29.44135 8.61573 -0.00971
C 29.41722 29.78395 0.0014
C 29.48663 28.37964 0.00924
C 30.71883 27.78451 0.02326
C 30.69587 26.3593 0.00261
C 29.46537 25.56009 0.03265
C 29.41114 24.17249 -0.02049
C 30.61251 23.4402 -0.01854
C 30.72348 22.02044 -0.01415
C 29.44542 21.26413 -0.03039
C 29.36469 7.1632 0.01518
C 29.48222 19.87158 0.01836
C 30.73116 17.76797 -0.00669
C 29.5391 16.99327 0.0101
C 29.60746 15.57581 0.01705
C 30.8578 14.92729 -0.0405
C 30.79086 13.53523 -0.01303
C 29.64913 12.79522 -0.01461
C 29.57314 11.3995 -0.02155
C 30.76647 10.63023 -0.00944
C 30.68897 9.15521 -0.03735
C 30.77348 19.14314 0.03531
C 30.60903 30.45931 0.01324
C 32.17709 15.65056 0.00369
C 33.32958 13.53675 -0.00644
C 34.42879 21.30596 -0.02213
C 0.03607 19.89668 0.01951
C 1.28033 19.1384 -0.01678
C 1.26611 17.74413 0.01223
C 0.09453 17.09107 0.00648
C 0.3294 15.59153 0.02114
C 1.64684 14.90035 -0.02957
C 1.31166 13.53521 0.00343
C 0.09434 12.83991 -0.02656
C 1.23785 22.00342 0.02712
C 34.43072 11.3516 -0.02442
C 1.1703 9.25262 -0.00583
C 34.30967 8.52966 -0.02302
C 34.31836 7.088 -0.02849
C 1.16547 6.46409 0.02931
C 1.12134 5.04851 0.00628
C 34.28507 4.31024 -0.0345
C 34.33446 2.91422 -0.00931
C 1.12408 2.17727 -0.00939
C 1.07249 0.75806 -0.00468
C 1.15977 10.6378 -0.00027
C 33.45855 14.93507 0.00455
C 1.17836 23.43537 0.00723
C 34.33665 25.50064 -0.05239
C 32.02849 12.81712 -0.01839
C 31.99876 11.38218 0.00137
C 33.20939 10.64098 0.00199
C 33.15114 9.23358 0.04381
C 31.86829 8.55348 0.02806
C 31.90965 7.06129 0.01504
C 33.06527 6.33902 -0.00069
C 33.03033 4.9602 0.04926
C 31.77434 4.31469 -0.03838
C 34.32315 24.09825 0.03076
C 31.76206 2.86776 0.00349
C 33.13041 0.81623 -0.00841
C 31.92331 0.05502 0.0001
C 34.33907 32.66289 -0.02927
C 1.16619 32.02565 -0.01404
C 1.15522 30.6022 0.01027
C 34.34886 29.89069 0.01831
C 34.33587 28.41947 -0.01037
C 1.14776 27.77329 -0.00439
C 1.1243 26.26532 -0.00598
C 33.09122 2.21476 -0.00323
C 30.64683 31.99329 0.04266
C 29.47092 32.64529 0.01177
C 26.94868 0.0908 -0.00416
C 22.09632 28.33802 -0.00381
C 23.35022 27.62373 0.03046
C 23.35748 26.1454 0.0296
C 22.06788 25.48321 0.03374
C 22.01338 24.08569 -0.02845
C 23.26491 23.47289 -0.03213
C 23.35866 21.94568 0.02239
C 22.10612 21.27695 0.01153
C 22.16031 19.83574 0.02734
C 22.11955 29.75357 0.01852
C 23.37899 19.17704 -0.0055
C 22.17703 16.96563 -0.00225
C 22.16656 2.80077 0.00071
C 23.28461 2.04358 -0.01107
C 23.28111 0.59226 -0.01586
C 22.00377 34.07426 -0.01971
C 24.53786 32.5542 -0.02118
C 25.87458 31.9002 0.00733
C 25.83682 30.50152 -0.00178
C 24.59096 29.75311 0.00768
C 23.32652 17.67115 0.01515
C 24.58472 28.33452 -0.0276
C 23.29844 30.47622 0.01126
C 22.13629 32.65808 -0.01662
C 19.68346 32.58468 -0.00703
C 20.91345 31.88858 -0.04076
C 20.87297 30.46433 -0.00652
C 19.64522 29.75169 0.0058
C 19.63901 28.39428 -0.00865
C 20.78499 27.63943 0.00675
C 20.94484 26.23746 -0.00311
C 19.67572 25.52698 0.00742
C 19.64369 24.11194 -0.01594
C 23.29458 31.85471 -0.01185
C 20.82973 23.33145 0.0106
C 19.63817 21.27703 -0.01721
C 19.64553 19.81611 -0.02422
C 20.87231 19.10728 0.01277
C 20.97475 17.60906 0.00096
C 19.63329 17.24877 -0.01527
C 19.60207 2.70789 0.01087
C 20.83708 2.10358 0.00199
C 20.86013 0.6891 0.01511
C 19.64475 34.06631 -0.00478
C 20.88824 21.89844 -0.01154
C 25.80717 27.58245 0.03005
C 25.7923 26.2075 -0.04078
C 24.62518 25.40893 0.02117
C 28.26003 23.3946 0.00622
C 28.23075 22.04351 -0.02815
C 27.03247 21.2349 -0.00942
C 27.08262 19.76886 0.00487
C 28.34148 19.05792 0.00826
C 28.30494 17.68791 -0.00294
C 27.08503 17.02248 0.00152
C 27.18793 15.58022 0.01257
C 28.42601 14.86728 0.02316
C 27.05079 24.06637 -0.0032
C 28.32367 13.37607 0.04185
C 28.28886 10.72526 -0.00621
C 28.11618 9.38886 0.02611
C 26.91478 7.16353 0.02198
C 28.01008 6.50463 0.01094
C 28.17525 4.99831 0.00235
C 26.93838 4.3395 0.01495
C 26.90725 2.86774 0.01259
C 28.08319 2.16007 0.01799
C 28.15972 0.76215 0.01699
C 27.21666 12.46617 0.00194
C 27.03543 25.51762 -0.00037
C 28.26184 26.23102 -0.01654
C 28.23328 27.62182 -0.00218
C 24.56385 24.05141 0.02737
C 25.80677 23.36233 -0.00498
C 25.79009 21.92835 0.00135
C 24.57203 21.29139 0.03102
C 24.63071 19.88113 0.02555
C 25.80478 19.07247 0.01423
C 25.84487 17.71983 -0.00285
C 24.67684 16.99775 -0.009
C 24.83516 15.5725 -0.01199
C 25.99554 14.99444 -0.00229
C 25.6911 4.92723 -0.00938
C 24.54742 4.33583 -0.0264
C 24.47155 2.8233 -0.01154
C 25.7503 2.07395 0.00684
C 25.71568 0.67637 -0.01052
C 24.4885 34.00138 -0.01679
C 27.04561 32.70897 0.00367
C 28.23047 31.98683 0.04306
C 28.23011 30.50826 0.00996
C 27.03158 29.74159 0.00195
C 26.98534 28.33738 -0.00802
C 3.6532 32.03458 0.03189
C 2.43425 32.76051 -0.04307
