385
Graphene
C 34.36788 0.05455 0.01295
C 15.5826 15.12678 0.02162
C 15.72616 13.60685 0.0076
C 14.54394 12.90808 0.01241
C 14.69539 11.44391 -0.01454
C 15.96214 10.7355 0.01945
C 15.92826 9.2606 0.01416
C 14.72592 8.50628 0.03542
C 14.78007 7.12719 0.02299
C 15.9492 6.3065 0.00244
C 14.18783 15.85018 -0.0014
C 16.02054 4.88984 -0.01717
C 14.75698 2.84685 -0.01952
C 15.90076 2.06003 -0.02813
C 15.92809 0.64857 0.00374
C 14.67801 34.02905 0.00052
C 17.10471 32.54702 -0.03682
C 18.4108 31.78931 0.01965
C 18.34457 30.33108 0.02058
C 16.96736 29.5357 -0.01957
C 17.15209 28.13002 -0.0108
C 14.82528 4.2422 0.05265
C 18.45195 27.73304 -0.00368
C 14.71081 17.05632 0.00415
C 16.01178 19.24472 0.01363
C 12.24324 11.38196 0.00943
C 13.45154 10.66691 0.02841
C 13.49584 9.20349 -0.01111
C 12.27366 8.54219 -0.01275
C 12.33736 7.11817 0.00985
C 13.48189 6.41574 -0.02245
C 13.51821 5.01401 -0.00428
C 12.35353 4.27048 0.03101
C 12.30159 2.83424 -0.01536
C 15.94913 17.82346 -0.02162
C 13.53474 2.15997 -0.02689
C 12.21119 0.06224 -0.00891
C 14.68418 32.6438 0.02819
C 15.77055 31.80171 0.00165
C 15.87332 30.4285 -0.02971
C 16.50654 26.80092 0.02894
C 15.96245 23.52632 -0.01789
C 15.76141 22.15517 0.00444
C 14.72051 21.36043 -0.00925
C 14.80232 20.01144 0.01877
C 13.48627 0.70648 -0.01046
C 12.27231 12.80185 0.00406
C 18.57628 26.31493 -0.02696
C 17.03676 24.30825 0.00228
C 20.85089 31.84353 0.03338
C 20.9343 30.42203 -0.0258
C 19.60625 29.70053 -0.0331
C 19.65229 28.38103 -0.00316
C 20.9375 27.60699 0.02188
C 20.92066 26.22796 -0.01979
C 19.64324 25.52656 0.02691
C 19.65288 24.15058 -0.01581
C 20.88255 23.42732 0.01452
C 19.60066 32.50984 -0.00491
C 20.85846 22.04898 0.04892
C 19.61194 20.05467 -0.03557
C 20.90172 19.28269 0.03754
C 20.8703 17.82575 0.01739
C 19.53082 17.14567 0.00755
C 19.39549 15.72014 -0.0054
C 20.66976 14.92773 0.00667
C 20.79522 13.47294 0.00143
C 19.58827 12.73325 -0.017
C 19.6493 11.32335 0.00364
C 19.61415 21.41607 -0.00111
C 17.24935 25.63105 -0.00114
C 17.13291 33.93546 -0.00109
C 18.36404 2.02275 -0.02213
C 18.32921 23.56571 0.00798
C 18.35155 22.16521 0.00422
C 17.13084 21.42922 0.0351
C 17.22995 19.94749 -0.03113
C 18.45314 19.36079 0.02098
C 18.39924 17.91716 0.01848
C 17.10828 17.19851 -0.00619
C 17.00339 15.74746 -0.02162
C 18.23699 14.9509 0.00889
C 18.35788 0.62564 0.03698
C 18.34154 13.52255 -0.00481
C 17.19276 11.49166 0.01443
C 18.41094 10.65712 0.03505
C 18.41703 9.22013 -0.02815
C 17.2086 8.54311 -0.04147
C 17.19934 7.14473 -0.05302
C 18.43726 6.32024 0.00213
C 18.3844 4.91691 -0.00066
C 17.19822 4.13922 -0.00289
C 17.18598 2.68238 0.00028
C 17.0338 12.92684 0.00979
C 13.33669 13.63038 0.03592
C 12.94905 15.03295 0.00572
C 13.82223 18.14998 0.0402
C 2.32091 2.89329 -0.03113
C 3.61358 2.29479 -0.02566
C 3.57224 0.87982 -0.00094
C 2.37949 0.11024 0.02322
C 4.95878 32.79953 -0.00725
C 6.21311 32.27588 -0.05697
C 4.91704 21.35698 0.01087
C 4.97553 19.96676 -0.01343
C 6.17686 19.25646 0.00988
C 2.3041 4.35538 0.017
C 6.25449 17.76673 0.0276
C 4.93087 15.59911 -0.00077
C 6.2661 15.02852 0.03368
C 6.27984 13.60257 -0.02929
C 4.94463 12.88959 -0.00966
C 4.86771 11.48295 -0.03337
C 6.2126 10.73589 0.01227
C 6.05337 9.32986 0.00873
C 4.79895 8.6077 -0.00049
C 4.72054 7.14311 0.00848
C 4.99294 17.06225 0.01305
C 6.02355 6.41069 -0.01303
C 3.5339 5.00672 -0.00643
C 2.29257 7.22701 -0.00518
C 3.75043 30.58774 0.03189
C 2.56898 29.81685 0.00031
C 2.3366 28.46946 -0.003
C 2.43459 25.78896 0.01402
C 2.53245 24.34785 0.02379
C 3.55158 23.54056 0.00907
C 3.82961 22.16636 0.00643
C 2.52389 21.3962 -0.01509
C 2.41863 19.87983 0.03267
C 3.56089 6.45713 0.0086
C 3.7382 19.24645 0.02374
C 2.45432 17.08981 0.0073
C 2.47905 15.68768 0.0174
C 3.67659 14.9556 0.03828
C 3.68486 13.5592 0.01226
C 2.40713 12.82589 -0.00279
C 2.39868 11.42471 0.01996
C 3.63726 10.76744 -0.03996
C 3.56464 9.34284 0.01465
C 2.30851 8.59316 -0.00074
C 3.75785 17.76592 0.00402
C 6.05293 4.99635 -0.01378
C 4.84117 4.32824 0.02635
C 4.88277 2.977 0.0127
C 10.11625 17.21663 -0.00131
C 10.28832 15.84396 -0.01118
C 11.49845 14.93973 -0.014
C 11.14895 13.59262 0.02147
C 9.93036 12.87511 0.00373
C 9.87806 11.50349 -0.00191
C 11.06277 10.69023 0.00438
C 11.03116 9.27213 0.01291
C 9.8162 8.60317 0.00093
C 9.58373 32.76979 -0.02896
C 9.79161 7.15287 0.00057
C 11.0931 5.00527 -0.00334
C 9.77848 4.40947 0.02339
C 9.81009 2.98796 0.01641
C 11.07446 2.1801 -0.00719
C 10.98186 0.77139 0.01364
C 9.78615 0.11781 -0.01062
C 12.25888 32.83287 -0.00033
C 13.16162 32.08777 0.03589
C 12.55881 18.8494 -0.02759
C 11.10663 6.49585 -0.01634
C 7.31495 0.21679 -0.01004
C 8.59029 0.92615 0.00488
C 8.58762 2.29862 0.01745
C 6.14301 2.30015 0.01396
C 6.04798 0.87864 0.01849
C 4.81266 0.15951 -0.01142
C 7.43879 32.81668 -0.00562
C 7.50028 19.91076 -0.00494
C 8.43681 19.26461 0.00054
C 8.97376 17.91668 0.03007
C 7.59933 17.06438 -0.00095
C 7.53904 15.69755 0.01572
C 8.89513 15.00014 -0.04848
C 8.74546 13.52105 -0.00892
C 7.41701 12.90447 -0.01362
C 7.4144 11.51343 -0.0008
C 8.67372 10.72569 0.0288
C 8.58597 9.32967 0.00393
C 7.22261 8.62406 0.00895
C 7.23289 7.18412 0.00685
C 8.56349 6.49006 0.02888
C 8.57819 5.10199 -0.00482
C 7.34042 4.42414 -0.01384
C 7.43383 3.06452 0.03693
C 20.89745 10.59494 -0.00831
C 3.72327 32.01567 -0.04307
C 20.86991 9.17738 -0.02957
C 19.67894 7.06515 0.00654
C 29.33659 4.25439 0.0103
C 29.46435 2.89615 0.02108
C 30.63361 2.12334 0.00716
C 30.60449 0.72547 0.00307
C 29.40323 0.03436 0.00346
C 31.84549 32.70699 0.01713
C 33.14271 31.99145 -0.01694
C 33.20315 30.6243 0.01428
C 31.97373 29.87874 -0.02142
C 30.48066 5.09144 0.07705
C 31.95194 28.39197 0.0544
C 33.1235 26.29247 0.00682
C 31.92041 25.54872 -0.01779
C 31.95821 24.1403 0.03794
C 33.15282 23.44226 0.01927
C 33.22106 22.02715 0.01574
C 32.00517 21.31475 -0.02383
C 31.93152 19.85542 -0.01429
C 33.16009 19.12961 -0.0136
C 33.10806 17.71836 0.00594
C 33.18543 27.78405 0.00026
C 31.89175 17.01882 -0.02474
C 30.13848 6.53774 0.01908
C 30.65819 13.30991 -0.00971
C 28.14958 0.8016 0.0014
C 27.01968 34.06872 0.00924
C 29.45161 32.67931 0.02326
C 30.64197 32.01684 0.00261
C 30.75247 30.57115 0.03265
C 29.58377 29.90445 -0.02049
C 29.52069 28.48692 -0.01854
C 30.70871 27.72478 -0.01415
C 30.76547 26.30262 -0.03039
C 29.43323 12.51686 0.01518
C 29.51218 25.54588 0.01836
C 30.72134 23.36509 -0.00669
C 30.76594 22.01023 0.0101
C 29.55372 21.33518 0.01705
C 29.50612 19.83051 -0.0405
C 30.66349 19.04437 -0.01303
C 30.62922 17.67451 -0.01461
C 29.42943 16.88958 -0.02155
C 29.45476 15.38719 -0.00944
C 30.77726 14.77144 -0.03735
C 29.50866 24.12278 0.03531
C 28.20052 2.19449 0.01324
C 31.94015 15.59943 0.00369
C 33.13309 13.46901 -0.00644
C 34.36568 21.33099 -0.02213
C 34.32397 19.9381 0.01951
C 1.16466 19.19469 -0.01678
C 1.14061 17.74515 0.01223
C 34.3897 17.03765 0.00648
C 34.36881 15.60433 0.02114
C 1.19319 14.88147 -0.02957
C 1.20635 13.49943 0.00343
C 34.35051 12.7501 -0.02656
C 1.18178 22.08647 0.02712
C 34.37305 11.36847 -0.02442
C 1.04752 9.20321 -0.00583
C 34.29494 8.59585 -0.02302
C 34.25223 7.1832 -0.02849
C 1.04127 6.46006 0.02931
C 1.09782 5.08627 0.00628
C 34.268 4.40707 -0.0345
C 34.2672 2.98871 -0.00931
C 1.06876 2.19567 -0.00939
C 1.17917 0.79786 -0.00468
C 1.0966 10.65767 -0.00027
C 33.12559 14.82611 0.00455
C 1.19118 23.47933 0.00723
C 34.35695 25.5804 -0.05239
C 31.8667 12.74864 -0.01839
C 31.9848 11.39986 0.00137
C 33.13808 10.64629 0.00199
C 33.02348 9.26128 0.04381
C 31.78381 8.54858 0.02806
C 31.59886 7.20374 0.01504
C 32.96175 6.50619 -0.00069
C 32.9915 5.12138 0.04926
C 31.74498 4.36173 -0.03838
C 34.36596 24.09338 0.03076
C 31.83052 2.99479 0.00349
C 33.10697 0.79413 -0.00841
C 31.85581 0.05069 0.0001
C 34.38122 32.63974 -0.02927
C 1.21321 31.98023 -0.01404
C 1.28432 30.57808 0.01027
C 0.07681 29.9194 0.01831
C 34.43231 28.51218 -0.01037
C 1.14157 27.7139 -0.00439
C 1.18475 26.29338 -0.00598
C 33.08356 2.25302 -0.00323
C 26.97343 2.82313 0.04266
C 26.9663 4.27495 0.01177
C 28.19425 5.01043 -0.00416
C 23.29474 14.88363 -0.00381
C 23.2747 13.4503 0.03046
C 22.04506 12.76454 0.0296
C 22.11101 11.28385 0.03374
C 23.44644 10.65003 -0.02845
C 23.31458 9.17081 -0.03213
C 22.11443 8.43865 0.02239
C 22.11618 7.02644 0.01153
C 23.28185 6.31937 0.02734
C 21.99724 15.53723 0.01852
C 23.3265 4.97275 -0.0055
C 22.0847 2.72377 -0.00225
C 23.35951 2.0586 0.00071
C 23.29524 0.6013 -0.01107
C 22.11848 33.91022 -0.01586
C 24.53366 32.6258 -0.01971
C 25.78379 31.89751 -0.02118
C 25.86117 30.45558 0.00733
C 24.6096 29.76462 -0.00178
C 24.57791 28.38302 0.00768
C 22.10721 4.1755 0.01515
C 25.83204 27.71468 -0.0276
C 22.07829 17.01118 0.01126
C 23.38873 19.18195 -0.01662
C 20.88762 6.35555 -0.00703
C 20.84036 4.92467 -0.04076
C 19.63059 4.13847 -0.00652
C 19.57182 2.68984 0.0058
C 20.89148 2.03347 -0.00865
C 20.85961 0.62437 0.00675
C 19.59426 33.92488 -0.00311
C 22.0734 32.55144 0.00742
C 23.32051 31.88942 -0.01594
C 23.27578 17.70079 -0.01185
C 23.3714 30.46835 0.0106
C 22.1704 28.25 -0.01721
C 23.3836 27.67698 -0.02422
C 23.40033 26.26828 0.01277
C 22.10525 25.48459 0.00096
C 22.13249 24.10988 -0.01527
C 23.38473 23.41425 0.01087
C 23.46983 22.04084 0.00199
C 22.12461 21.3655 0.01511
C 22.16098 19.92554 -0.00478
C 22.15381 29.70533 -0.01154
C 25.81197 26.22777 0.03005
C 24.61683 25.44062 -0.04078
C 24.60378 24.13015 0.02117
C 28.26606 30.51285 0.00622
C 27.17881 29.76852 -0.02815
C 27.08289 28.36305 -0.00942
C 28.30877 27.67063 0.00487
C 28.23986 26.29568 0.00826
C 27.04058 25.65571 -0.00294
C 27.09944 24.22453 0.00152
C 28.32657 23.44079 0.01257
C 28.25145 21.96487 0.02316
C 28.20266 31.95864 -0.0032
C 27.02581 21.18582 0.04185
C 28.21743 19.06693 -0.00621
C 28.23917 17.64837 0.02611
C 27.05571 16.89039 0.02198
C 27.00845 15.43696 0.01094
C 28.17735 14.62759 0.00235
C 28.10204 13.00289 0.01495
C 26.75631 12.29924 0.01259
C 27.21683 7.24982 0.01799
C 28.39081 6.47828 0.01699
C 27.06497 19.78143 0.00194
C 26.98127 32.64024 -0.00037
C 24.54935 34.01363 -0.01654
C 25.81148 0.68184 -0.00218
C 25.90141 23.43533 0.02737
C 25.82914 22.00029 -0.00498
C 24.63591 21.29553 0.00135
C 24.601 19.88283 0.03102
C 25.75858 19.07569 0.02555
C 25.8169 17.62841 0.01423
C 24.54837 16.8209 -0.00285
C 24.55477 15.45905 -0.009
C 25.7754 14.7013 -0.01199
C 25.69188 13.33626 -0.00229
C 24.51517 12.72075 -0.00938
C 24.67957 11.30395 -0.0264
C 25.9189 10.80314 -0.01154
C 25.85303 9.27774 0.00684
C 24.59155 8.51219 -0.01052
C 24.59252 7.1088 -0.01679
C 25.87274 6.52217 0.00367
C 25.82901 5.04214 0.04306
C 24.59037 4.23388 0.00996
C 24.44988 2.86104 0.00195
C 25.66107 2.10582 -0.00802
C 19.6354 8.47483 -0.04422
C 2.45904 32.73194 0.03284
