436
Graphene
C 0.05783 34.00965 0.01295
C 13.51273 9.26617 0.02339
C 12.32167 8.56278 0.01641
C 12.2743 7.17577 -0.00719
C 13.50393 6.4137 0.01364
C 13.51459 4.93135 -0.01062
C 12.3491 4.26179 -0.00033
C 12.31284 2.86341 0.03589
C 13.49449 2.05398 -0.02759
C 13.51895 0.62344 0.0402
C 12.25589 34.06692 0.00572
C 14.83595 32.58913 0.03592
C 16.04273 31.89975 0.00406
C 16.08251 30.49942 0.00943
C 14.82281 29.85623 0.02841
C 14.82286 28.35966 -0.01111
C 15.94461 27.60059 -0.01275
C 15.88527 26.21147 0.00985
C 14.72305 25.4213 -0.02245
C 14.66619 24.05404 -0.00428
C 15.99879 23.41047 0.03101
C 16.00867 21.99163 -0.01536
C 14.79286 21.33691 -0.02689
C 14.77997 19.87239 -0.01046
C 13.49203 10.65427 -0.00334
C 15.92591 19.14817 -0.00891
C 12.23568 11.44201 -0.01634
C 13.51012 13.50035 0.00093
C 9.84436 4.30262 -0.00892
C 9.80758 2.86954 -0.01362
C 11.02543 2.14479 -0.0008
C 11.08201 0.75922 0.0288
C 9.84867 0.05848 0.00393
C 12.29467 32.67324 0.00895
C 13.55894 31.95599 0.00685
C 13.56535 30.59205 0.02888
C 12.32758 29.84836 -0.00482
C 12.35686 28.40589 -0.01384
C 13.53951 27.67404 0.03693
C 13.52659 26.25134 0.01745
C 12.25056 25.54217 0.00488
C 12.28413 24.14947 -0.01004
C 13.53763 23.35433 -0.02896
C 13.58036 21.9964 -0.00131
C 12.32065 21.32764 -0.01118
C 12.34779 19.93602 -0.014
C 13.52198 19.27268 0.02147
C 13.46058 17.82549 0.00373
C 12.22347 17.05347 -0.00191
C 12.28651 15.65477 0.00438
C 13.55045 14.92123 0.01291
C 12.25529 12.87544 0.00057
C 15.97347 17.74989 0.02819
C 14.68062 17.11782 0.00165
C 14.69512 15.68543 -0.02971
C 18.41337 19.17279 -0.0108
C 18.46296 17.70308 -0.00368
C 17.26901 17.05885 -0.02696
C 17.21959 15.58408 -0.00114
C 18.46172 14.83088 0.00228
C 18.42404 13.46576 0.00798
C 17.2016 12.74694 0.00422
C 17.18387 11.36201 0.0351
C 18.47827 10.62497 -0.03113
C 18.47364 9.18261 0.02098
C 17.21122 8.5179 0.01848
C 17.10476 7.11101 -0.00619
C 18.34473 6.39972 -0.02162
C 18.38089 4.99225 0.00889
C 17.18938 4.24452 -0.00481
C 17.29 2.84824 0.00979
C 18.485 2.13746 0.01443
C 18.45564 0.7184 0.03505
C 17.18941 0.03661 -0.02815
C 19.66793 32.62459 -0.04147
C 20.87902 31.95382 -0.05302
C 20.83067 30.58192 0.00213
C 19.67481 29.85511 -0.00066
C 17.23143 19.88999 -0.01957
C 17.2114 21.34166 0.02058
C 18.37829 22.03433 0.01965
C 18.37972 23.46004 -0.03682
C 15.9356 14.984 0.02894
C 15.92469 13.50882 -0.01789
C 14.71678 12.77957 0.00444
C 14.71321 11.36728 -0.00925
C 15.91574 10.63456 0.01877
C 15.93969 9.24898 0.01363
C 14.7972 8.49289 -0.02162
C 14.75628 7.08034 0.00415
C 15.93164 6.32138 -0.0014
C 15.90907 4.93369 0.02162
C 14.76266 4.24614 0.0076
C 11.15829 5.01459 -0.04848
C 14.71925 2.78908 0.01241
C 15.99724 0.68422 0.01945
C 14.78014 34.03789 0.01416
C 17.22287 32.69242 0.03542
C 18.4064 32.00221 0.02299
C 18.45443 30.53523 0.00244
C 17.26654 29.82915 -0.01717
C 17.17606 28.35427 0.05265
C 18.45914 27.71581 -0.01952
C 18.43734 26.3098 -0.02813
C 17.16688 25.57485 0.00374
C 17.1759 24.13147 0.00052
C 15.99842 2.20376 -0.01454
C 19.70812 28.34944 -0.00289
C 11.11119 6.41058 0.01572
C 9.8235 8.54938 0.03007
C 4.8543 25.74908 -0.02375
C 4.87701 24.21544 0.00558
C 6.15981 23.45212 -0.0059
C 6.10435 22.03507 -0.01386
C 4.95556 21.26072 -0.02805
C 4.98829 19.89259 0.00081
C 6.22897 19.1728 0.00245
C 6.18979 17.76783 0.02728
C 4.9371 17.04896 -0.00039
C 4.90703 15.64633 0.0064
C 6.11259 14.91502 0.00211
C 6.10853 13.44443 -0.00449
C 4.8938 12.73876 -0.01979
C 4.88879 11.30065 0.02784
C 6.21978 10.60179 -0.01977
C 6.16064 9.22209 -0.00561
C 4.9471 8.47664 0.00208
C 4.85886 7.06463 0.01707
C 6.1403 6.40349 0.02769
C 6.08539 4.96851 -0.03291
C 4.88868 4.2863 -0.04999
C 4.89323 2.90729 0.04505
C 6.09946 2.17828 0.03284
C 6.10001 26.09579 0.00828
C 6.17458 0.81523 -0.04307
C 5.01562 32.78101 0.00088
C 3.70699 0.73039 -0.00177
C 2.4353 25.50634 0.01984
C 2.45033 24.10441 0.00535
C 3.69438 23.4505 -0.00198
C 3.68383 21.96692 -0.00012
C 2.46841 21.36257 -0.04306
C 2.47167 19.93373 -0.03672
C 3.71789 19.18078 0.01913
C 3.74099 17.79209 0.00267
C 2.4623 17.04679 0.00787
C 2.48774 15.62598 0.02426
C 3.67484 14.82025 0.01218
C 3.67066 13.44236 -0.01471
C 2.40409 12.72229 -0.02827
C 2.34143 11.29566 0.01078
C 3.61493 10.62189 -0.00112
C 3.65188 9.17462 0.03345
C 2.42466 8.5227 0.00748
C 2.45407 7.0959 0.00662
C 3.69245 6.41707 -0.0154
C 3.67414 4.97413 -0.01299
C 2.45728 4.24402 -0.00407
C 2.44748 2.84456 0.01138
C 3.67331 2.16615 0.03278
C 2.51469 33.98264 0.04421
C 4.97147 0.04679 0.03189
C 7.26335 32.75166 0.00031
C 8.45594 31.94167 -0.003
C 9.81239 32.79363 -0.01343
C 11.05999 31.98583 0.00988
C 11.12921 30.59347 0.0276
C 9.76318 29.97703 0.01305
C 9.73068 28.50439 -0.00077
C 11.00263 27.77439 0.03368
C 10.95199 26.37192 -0.02929
C 9.80371 25.61593 -0.00966
C 9.84151 24.15552 -0.03337
C 11.05538 23.41904 0.01227
C 11.09915 21.98923 0.00873
C 9.86509 21.36928 -0.00049
C 9.87373 19.97436 0.00848
C 11.01959 19.24048 -0.01303
C 10.99887 17.77303 -0.01378
C 9.75385 17.0415 0.02635
C 9.78237 15.66488 0.0127
C 11.01434 14.96502 0.01396
C 11.05779 13.51366 0.01849
C 9.84374 12.83276 -0.01142
C 9.90769 11.42149 -0.00562
C 11.08546 10.75094 -0.00494
C 11.04138 9.26331 0.00054
C 7.37944 0.00734 0.01087
C 8.587 0.76271 -0.05697
C 8.51259 2.207 -0.00725
C 7.38424 2.97776 0.02322
C 8.56269 30.58728 0.01402
C 8.58551 27.7718 0.02379
C 8.5127 26.28899 0.00907
C 7.36802 25.5748 0.00643
C 7.39054 24.10577 -0.01509
C 8.60022 23.49453 0.03267
C 8.57691 22.0418 0.02374
C 7.3324 21.32394 0.00402
C 7.43424 19.93938 0.0073
C 8.65243 19.19477 0.0174
C 8.54586 17.80338 0.03828
C 9.82516 7.13048 -0.00095
C 7.32452 17.00071 0.01226
C 8.60423 14.88849 0.01996
C 8.56931 13.52554 -0.03996
C 7.3926 12.79524 0.01465
C 7.39616 11.36047 -0.00074
C 8.6984 10.6865 -0.00518
C 8.62472 9.26852 0.0086
C 7.43093 8.52171 -0.00643
C 7.35408 7.06908 0.017
C 8.5614 6.43734 -0.03113
C 8.63425 4.98984 -0.02566
C 7.34651 4.31846 -0.00094
C 7.30568 15.58138 -0.00279
C 20.92526 27.71432 0.00028
C 20.90339 26.28343 -0.02213
C 19.67972 25.5716 0.03698
C 30.72554 14.88769 -0.0405
C 30.71347 13.41391 -0.01303
C 29.49946 12.70034 -0.01461
C 29.49004 11.30319 -0.02155
C 30.70264 10.60959 -0.00944
C 30.72273 9.19043 -0.03735
C 29.49894 8.49501 -0.00971
C 29.52628 7.10764 0.01518
C 30.714 6.36299 0.01908
C 30.72305 4.93805 0.07705
C 29.53662 4.23962 0.0103
C 29.57571 2.80096 0.02108
C 30.80408 2.08725 0.00716
C 30.74853 0.61651 0.00307
C 29.48829 34.01932 0.00346
C 31.94851 32.59125 0.01713
C 33.1864 31.95296 -0.01694
C 33.21422 30.54996 0.01428
C 31.9836 29.87241 -0.02142
C 31.95542 28.42893 0.0544
C 33.24485 27.77183 0.00026
C 33.17154 26.33761 0.00682
C 31.97078 25.62011 -0.01779
C 29.54722 15.64359 0.01705
C 31.92727 24.19735 0.03794
C 29.58288 17.0336 0.0101
C 30.64695 19.21684 0.03531
C 28.24148 9.19934 -0.00621
C 26.9781 8.51702 0.02611
C 27.05936 7.13055 0.02198
C 28.24564 6.39221 0.01094
C 28.23233 4.94995 0.00235
C 26.9875 4.22116 0.01495
C 27.09688 2.78166 0.01259
C 28.3346 2.09594 0.01799
C 28.30567 0.67615 0.01699
C 27.02399 34.0566 -0.00416
C 29.4974 32.60591 0.01177
C 30.69062 31.87325 0.04266
C 30.73671 30.5325 0.01324
C 29.51168 29.81775 0.0014
C 29.52587 28.43742 0.00924
C 30.73766 27.75149 0.02326
C 30.69752 26.27256 0.00261
C 29.4995 25.55803 0.03265
C 29.48889 24.15413 -0.02049
C 30.71643 23.41276 -0.01854
C 30.73662 22.02057 -0.01415
C 29.48451 21.30964 -0.03039
C 29.44647 19.87968 0.01836
C 30.76183 17.79819 -0.00669
C 33.18253 23.4985 0.01927
C 33.17265 22.07264 0.01574
C 31.96657 21.28283 -0.02383
C 34.42989 24.17852 0.03076
C 1.17758 23.38798 0.00723
C 1.22121 21.97032 0.02712
C 34.39793 21.31226 -0.02213
C 34.30678 19.84621 0.01951
C 1.16836 19.21351 -0.01678
C 1.2218 17.75579 0.01223
C 0.00882 17.04087 0.00648
C 0.02137 15.57173 0.02114
C 1.28265 14.90455 -0.02957
C 1.18842 13.46568 0.00343
C 34.33035 12.77415 -0.02656
C 34.38546 11.31951 -0.02442
C 1.13677 10.5803 -0.00027
C 1.19765 9.21605 -0.00583
C 0.05209 8.46923 -0.02302
C 34.41764 7.01024 -0.02849
C 1.22819 6.39004 0.02931
C 1.2533 4.95527 0.00628
C 0.02507 4.21091 -0.0345
C 0.06239 2.77646 -0.00931
C 1.26441 2.09028 -0.00939
C 1.27072 0.66472 -0.00468
C 34.41737 25.61652 -0.05239
C 1.21444 26.27104 -0.00598
C 1.26409 27.70856 -0.00439
C 0.09471 28.38386 -0.01037
C 31.9242 19.87043 -0.01429
C 33.1075 19.09327 -0.0136
C 33.1909 17.66614 0.00594
C 31.96771 16.96764 -0.02474
C 31.9623 15.60314 0.00369
C 33.17485 14.85712 0.00455
C 33.0987 13.42332 -0.00644
C 31.90055 12.72067 -0.01839
C 31.91055 11.30129 0.00137
C 33.1504 10.55255 0.00199
C 33.22736 9.14923 0.04381
C 28.22754 10.58391 0.00194
C 31.93277 8.49255 0.02806
C 33.1711 6.31394 -0.00069
C 33.20513 4.91372 0.04926
C 31.99348 4.19093 -0.03838
C 31.99816 2.70658 0.00349
C 33.23252 2.07038 -0.00323
C 33.21345 0.65662 -0.00841
C 32.0011 34.00124 0.0001
C 0.0379 32.64805 -0.02927
C 1.37707 31.83905 -0.01404
C 1.25454 30.52514 0.01027
C 0.04563 29.84507 0.01831
C 31.96705 7.0421 0.01504
C 27.08162 11.35236 0.04185
C 27.11502 12.82199 0.02316
C 28.33731 13.46609 0.01257
C 22.11956 28.40609 -0.00652
C 23.39256 27.66916 0.0058
C 23.40736 26.24993 -0.00865
C 22.13536 25.53316 0.00675
C 22.06294 24.12802 -0.00311
C 23.33952 23.44651 0.00742
C 23.32534 22.09489 -0.01594
C 22.08678 21.34388 0.0106
C 22.07939 19.89473 -0.01154
C 23.2973 19.21767 -0.01721
C 23.31192 17.79655 -0.02422
C 22.1125 17.06994 0.01277
C 22.11654 15.65929 0.00096
C 23.33062 14.90469 -0.01527
C 23.36819 13.54929 0.01087
C 22.21246 12.77611 0.00199
C 22.2799 11.39706 0.01511
C 23.42987 10.69787 -0.00478
C 23.52054 9.3196 -0.01662
C 22.1513 8.54758 -0.01185
C 22.12415 7.15742 0.01126
C 23.29397 6.3284 0.01852
C 23.31037 4.9118 -0.00381
C 22.05422 29.86063 -0.04076
C 23.27541 30.6273 -0.00703
C 23.33253 32.01363 0.00654
C 22.12071 32.71874 -0.04422
C 19.61027 24.21554 -0.00109
C 20.89355 23.41826 -0.00491
C 20.85865 21.97041 0.03338
C 19.63423 21.28413 -0.0258
C 19.61132 19.93371 -0.0331
C 20.86545 19.19647 -0.00316
C 20.88355 17.81033 0.02188
C 19.69082 17.05311 -0.01979
C 19.69039 15.53346 0.02691
C 20.9004 14.85343 -0.01581
C 20.97122 13.37321 0.01452
C 22.07527 4.25688 0.03046
C 19.69767 12.7727 0.04892
C 20.86381 10.63528 -0.03557
C 20.93264 9.22119 0.03754
C 19.71419 8.47291 0.01739
C 19.62759 7.0616 0.00755
C 20.8703 6.42453 -0.0054
C 20.88566 4.9932 0.00667
C 19.59519 4.35099 0.00143
C 19.70424 2.86952 -0.017
C 20.90322 2.10557 0.00364
C 20.84608 0.72369 -0.00831
C 19.67681 0.01841 -0.02957
C 19.66178 11.32881 -0.00111
C 3.52084 26.28983 0.01073
C 22.15811 2.8274 0.0296
C 23.33281 0.73844 -0.02845
C 24.56708 4.18532 -0.00229
C 24.57195 2.76518 -0.00938
C 25.84669 2.10594 -0.0264
C 25.76897 0.75224 -0.01154
C 24.58445 0.0412 0.00684
C 26.99753 32.6636 -0.01052
C 28.23825 31.92788 -0.01679
C 28.26366 30.5451 0.00367
C 27.06938 29.82239 0.04306
C 27.09605 28.41747 0.00996
C 28.31308 27.71364 0.00195
C 28.31026 26.28459 -0.00802
C 27.02503 25.57178 -0.00218
C 27.04634 24.15797 -0.01654
C 28.20017 23.46963 -0.00037
C 28.25997 21.99499 -0.0032
C 27.10263 21.26617 0.00622
C 27.03082 19.86807 -0.02815
C 28.27855 19.11932 -0.00942
C 28.30434 17.69985 0.00487
C 27.0312 17.04 0.00826
C 26.97701 15.57871 -0.00294
C 28.26611 14.96086 0.00152
C 25.76826 4.96811 -0.01199
C 25.81404 6.37716 -0.009
C 24.57713 7.05376 -0.00285
C 24.60304 8.43856 0.01423
C 22.06271 0.04196 -0.03213
C 24.57862 32.63084 0.02239
C 25.78922 31.98518 0.01153
C 25.82398 30.52908 0.02734
C 24.51488 29.89552 -0.0055
C 24.58254 28.48715 0.01515
C 25.85019 27.74329 -0.00225
C 25.8893 26.29284 0.00071
C 24.67637 25.5317 -0.01107
C 24.58908 24.11498 -0.01586
C 25.83432 23.41821 -0.01971
C 23.33629 2.12278 0.03374
C 25.86602 21.97927 -0.02118
C 24.55063 19.90157 -0.00178
C 25.79819 19.13621 0.00768
C 25.78524 17.74486 -0.0276
C 24.55814 17.03869 0.03005
C 24.54907 15.71491 -0.04078
C 25.74622 14.90968 0.02117
C 25.83749 13.49385 0.02737
C 24.59617 12.81406 -0.00498
C 24.60675 11.38043 0.00135
C 25.83193 10.72083 0.03102
C 25.78081 9.25 0.02555
C 24.60132 21.30676 0.00733
C 2.58098 32.67003 -0.00018
