340
Graphene
C 34.38962 0.08673 0.01295
C 12.31355 28.47195 -0.00619
C 13.75152 27.79641 -0.02162
C 13.62038 26.36599 0.00889
C 12.31433 25.80875 -0.00481
C 12.15664 24.26154 0.00979
C 13.56756 23.7895 0.01443
C 13.72988 22.4267 0.03505
C 12.55508 21.54469 -0.02815
C 13.08177 6.49862 -0.04147
C 13.46318 5.07498 -0.05302
C 12.30509 4.16504 0.00213
C 12.34363 2.75344 -0.00066
C 13.53728 2.08024 -0.00289
C 13.56287 0.62479 0.00028
C 12.30205 33.98335 -0.02213
C 14.86128 32.60745 0.03698
C 16.17084 32.03376 -0.00109
C 12.1759 29.78998 0.01848
C 14.26422 28.99539 -0.00491
C 13.55895 30.22794 0.02098
C 12.29532 32.60541 0.0351
C 9.71409 29.84077 -0.01717
C 9.86397 28.42693 0.05265
C 11.06794 27.77652 -0.01952
C 11.09356 26.37753 -0.02813
C 9.82513 25.59529 0.00374
C 9.75713 24.17117 0.00052
C 11.0229 23.42501 -0.03682
C 11.13679 21.9047 0.01965
C 9.76062 21.54999 0.02058
C 10.01217 7.01121 -0.01957
C 11.3207 6.32525 -0.0108
C 11.10122 4.92012 -0.00368
C 9.80932 4.25889 -0.02696
C 9.91954 2.81044 -0.00114
C 11.18094 2.09292 0.00228
C 11.11972 0.63868 0.00798
C 9.83259 0.05347 0.00422
C 13.60858 31.8519 -0.03113
C 14.41502 24.94391 0.03338
C 15.56628 20.66118 -0.0258
C 14.69914 21.54762 -0.0331
C 20.95364 14.90402 -0.04076
C 20.84909 13.65908 -0.00652
C 20.86959 10.71277 0.0058
C 20.7666 9.34975 -0.00865
C 19.6172 8.4884 0.00675
C 19.53464 7.11806 -0.00311
C 20.8013 6.4093 0.00742
C 20.89119 4.93524 -0.01594
C 19.62746 4.24044 0.0106
C 19.65307 2.868 -0.01154
C 20.85918 2.04762 -0.01721
C 20.80141 0.63297 -0.02422
C 19.62136 33.93146 0.01277
C 22.10854 32.50881 0.00096
C 23.21538 32.06107 -0.01527
C 21.72645 19.46903 0.01087
C 23.11403 19.27805 0.00199
C 21.37349 18.23941 -0.00703
C 20.30592 19.15373 0.00654
C 19.05937 19.59052 -0.04422
C 19.24317 32.60105 -0.02957
C 15.9815 6.39529 -0.00316
C 15.95369 4.92435 0.02188
C 14.72074 4.25811 -0.01979
C 14.72276 2.80648 0.02691
C 15.92342 2.08225 -0.01581
C 16.00603 0.67143 0.01452
C 14.76975 34.05277 0.04892
C 17.47633 32.51095 -0.00111
C 11.00769 30.52621 0.00244
C 17.15996 21.11288 -0.03557
C 16.99603 7.01402 0.01739
C 18.30375 6.34526 0.00755
C 18.31073 4.8372 -0.0054
C 17.10697 4.16113 0.00667
C 17.15298 2.74147 0.00143
C 18.39133 2.11397 -0.017
C 18.40284 0.67175 0.00364
C 17.23768 33.96639 -0.00831
C 18.47641 20.85659 0.03754
C 23.43398 17.75187 0.01511
C 11.08824 31.91217 0.02299
C 7.42051 0.14512 0.01416
C 2.48439 8.60514 -0.00482
C 2.49959 7.16892 -0.01384
C 3.71779 6.4455 0.03693
C 3.74699 5.04154 0.01745
C 2.41317 4.35149 0.00488
C 2.38798 2.89149 -0.01004
C 3.65336 2.14 -0.02896
C 3.61116 0.77301 -0.00131
C 2.38838 0.05624 -0.01118
C 4.86526 32.74886 -0.014
C 6.1262 32.06555 0.02147
C 6.05202 30.60612 0.00373
C 4.83453 29.89474 -0.00191
C 4.93615 28.46508 0.00438
C 6.0977 27.79916 0.01291
C 6.10721 26.35252 0.00093
C 4.88687 25.55515 0.00057
C 3.77115 9.28713 0.02888
C 4.8842 24.18246 -0.01634
C 3.69185 10.74566 0.00685
C 2.3933 12.78775 0.00393
C 3.56252 30.58233 -0.01378
C 2.30986 29.76203 0.02635
C 2.40838 28.3947 0.0127
C 3.65439 27.74511 0.01396
C 3.69645 26.35385 0.01849
C 2.46724 25.62895 -0.01142
C 2.49821 24.10221 -0.00562
C 3.7354 23.40864 -0.00494
C 3.66157 22.02514 0.00054
C 2.48172 21.29985 0.03007
C 2.53559 19.83849 -0.00095
C 3.71135 19.13567 0.01572
C 3.80479 17.65153 -0.04848
C 2.56075 17.01477 -0.00892
C 2.39951 15.61411 -0.01362
C 3.53062 14.86542 -0.0008
C 3.5719 13.51671 0.0288
C 2.46254 11.32568 0.00895
C 6.11367 23.47194 -0.00334
C 6.10334 22.03217 0.02339
C 4.91115 21.28986 0.01641
C 7.34739 28.45952 0.02819
C 8.62013 27.74874 0.00165
C 8.60554 26.34852 -0.02971
C 7.39112 25.63957 0.02894
C 7.31562 24.27317 -0.01789
C 8.52636 23.50425 0.00444
C 8.5316 22.12175 -0.00925
C 7.37065 21.33801 0.01877
C 7.61143 19.97008 0.01363
C 7.42456 8.62742 -0.02162
C 7.50114 7.28756 0.00415
C 8.70759 6.47196 -0.0014
C 8.57197 4.99615 0.02162
C 7.37812 4.25695 0.0076
C 7.31128 2.91267 0.01241
C 8.6082 2.13325 -0.01454
C 8.66246 0.75755 0.01945
C 7.3631 29.86267 -0.00891
C 8.51138 30.61118 -0.01046
C 8.6781 31.96597 -0.02689
C 7.40054 32.75783 -0.01536
C 4.99412 19.80441 -0.00719
C 6.36211 19.11603 0.01364
C 6.29615 17.72627 -0.01062
C 5.12904 16.78666 -0.00033
C 4.8565 15.44944 0.03589
C 4.80411 12.83215 -0.02759
C 5.03708 11.52474 0.0402
C 6.1145 10.63605 0.00572
C 9.88686 32.66449 0.03542
C 6.26255 9.29479 0.03592
C 4.95959 7.11263 0.00943
C 6.2549 6.47439 0.02841
C 6.15485 4.97939 -0.01111
C 4.94436 4.31116 -0.01275
C 4.88193 2.86733 0.00985
C 6.04408 2.23142 -0.02245
C 6.10984 0.82028 -0.00428
C 4.87191 0.09462 0.03101
C 4.9106 8.57386 0.00406
C 22.15829 17.14769 -0.00478
C 22.06889 15.72799 -0.01662
C 23.30984 14.97104 -0.01185
C 31.88459 29.8715 -0.02142
C 31.97976 28.43437 0.0544
C 33.16102 27.70513 0.00026
C 33.18013 26.25229 0.00682
C 31.97294 25.56377 -0.01779
C 32.05477 24.17657 0.03794
C 33.26477 23.44868 0.01927
C 33.25637 21.95537 0.01574
C 31.99349 21.30657 -0.02383
C 31.93227 19.90005 -0.01429
C 33.18127 19.19018 -0.0136
C 33.17965 17.77318 0.00594
C 31.96123 17.1176 -0.02474
C 31.89001 15.60924 0.00369
C 33.13008 14.89603 0.00455
C 33.10416 13.46682 -0.00644
C 31.85728 12.74316 -0.01839
C 33.16868 30.58416 0.01428
C 31.93717 11.29855 0.00137
C 33.16525 32.0303 -0.01694
C 29.39727 33.95596 0.00346
C 30.74208 17.8241 -0.00669
C 29.52417 17.02618 0.0101
C 29.4521 15.5817 0.01705
C 30.69197 14.94235 -0.0405
C 30.69419 13.53447 -0.01303
C 29.49753 12.79201 -0.01461
C 29.46942 11.3523 -0.02155
C 30.70414 10.66294 -0.00944
C 30.63685 9.33304 -0.03735
C 29.40089 8.50203 -0.00971
C 29.4072 7.12045 0.01518
C 30.67901 6.44584 0.01908
C 30.71796 4.9998 0.07705
C 29.4033 4.22934 0.0103
C 29.41327 2.81863 0.02108
C 30.56272 2.04249 0.00716
C 30.58634 0.65398 0.00307
C 31.89976 32.7237 0.01713
C 33.1657 10.6359 0.00199
C 33.09689 9.2177 0.04381
C 31.86898 8.5134 0.02806
C 1.22456 17.75398 0.01223
C 0.02133 16.9935 0.00648
C 34.35799 15.67487 0.02114
C 1.16879 14.87031 -0.02957
C 1.1278 13.47143 0.00343
C 34.30318 12.76095 -0.02656
C 34.39936 11.43715 -0.02442
C 1.19542 10.70772 -0.00027
C 1.24329 9.22047 -0.00583
C 34.37752 8.54926 -0.02302
C 34.42846 7.16789 -0.02849
C 1.21831 6.45817 0.02931
C 1.18796 5.03356 0.00628
C 34.37188 4.25759 -0.0345
C 34.31822 2.89357 -0.00931
C 1.16808 2.25221 -0.00939
C 1.2032 0.8101 -0.00468
C 1.31266 19.15901 -0.01678
C 0.02668 19.80823 0.01951
C 0.08061 21.23366 -0.02213
C 1.2487 21.97808 0.02712
C 31.87632 7.16611 0.01504
C 33.16728 6.38862 -0.00069
C 33.15649 4.99249 0.04926
C 31.95794 4.24905 -0.03838
C 31.80728 2.84888 0.00349
C 33.04514 2.18133 -0.00323
C 33.10214 0.74635 -0.00841
C 31.8107 0.05198 0.0001
C 30.65124 19.24678 0.03531
C 0.01871 32.75031 -0.02927
C 1.1579 30.53633 0.01027
C 34.35197 29.81806 0.01831
C 34.36007 28.42845 -0.01037
C 1.16361 27.66173 -0.00439
C 1.21553 26.25075 -0.00598
C 0.01697 25.5889 -0.05239
C 34.43208 24.19972 0.03076
C 1.24547 23.47845 0.00723
C 1.26317 31.99733 -0.01404
C 29.4373 19.90057 0.01836
C 29.49843 21.30909 -0.03039
C 30.74016 22.00739 -0.01415
C 25.85942 17.76966 -0.0276
C 24.6997 17.03191 0.03005
C 24.54388 15.56413 -0.04078
C 25.81422 14.94732 0.02117
C 25.79397 13.54467 0.02737
C 24.54458 12.8657 -0.00498
C 24.54289 11.43567 0.00135
C 25.80805 10.65884 0.03102
C 25.69377 9.23788 0.02555
C 24.49343 8.54814 0.01423
C 24.47917 7.10068 -0.00285
C 25.72749 6.3912 -0.009
C 25.69427 4.93529 -0.01199
C 24.44189 4.25184 -0.00229
C 24.50054 2.81635 -0.00938
C 25.70976 2.09299 -0.0264
C 25.85791 0.68812 -0.01154
C 25.71698 19.18573 0.00768
C 24.3867 19.95839 -0.00178
C 24.50905 21.43382 0.00733
C 25.65881 22.12827 -0.02118
C 23.31226 13.55098 0.01126
C 22.04009 12.81203 0.01852
C 22.08938 11.46455 -0.00381
C 23.24639 10.75225 0.03046
C 23.26703 9.33941 0.0296
C 22.01893 8.61448 0.03374
C 22.00624 7.14979 -0.02845
C 23.1999 6.42323 -0.03213
C 24.53306 34.07766 0.00684
C 23.22984 5.01633 0.02239
C 21.99247 2.77855 0.02734
C 23.21634 2.09623 -0.0055
C 23.22231 0.70565 0.01515
C 21.97897 33.94785 -0.00225
C 24.52933 32.57238 0.00071
C 25.74997 31.82298 -0.01107
C 25.75579 30.37559 -0.01586
C 25.86138 23.46443 -0.01971
C 22.04529 4.21175 0.01153
C 3.65614 31.99304 -0.01303
C 26.96259 32.57657 -0.01052
C 28.2444 30.49279 0.00367
C 28.16215 6.4197 0.01094
C 28.23054 5.01601 0.00235
C 26.95673 4.31121 0.01495
C 26.96237 2.85376 0.01259
C 28.20667 2.07334 0.01799
C 28.21098 0.62441 0.01699
C 27.0007 34.03242 -0.00416
C 29.46813 32.61906 0.01177
C 30.71058 31.97732 0.04266
C 30.66853 30.58979 0.01324
C 29.50678 29.83514 0.0014
C 29.56839 28.43886 0.00924
C 30.75042 27.72719 0.02326
C 30.73591 26.25018 0.00261
C 29.5283 25.49908 0.03265
C 29.63334 24.0342 -0.02049
C 30.86516 23.4169 -0.01854
C 26.86627 7.12525 0.02198
C 26.8837 8.55586 0.02611
C 28.15105 9.22964 -0.00621
C 28.19252 10.6083 0.00194
C 26.92778 29.69621 0.04306
C 26.99327 28.19008 0.00996
C 28.37736 27.71121 0.00195
C 28.37373 26.28854 -0.00802
C 27.12846 25.71772 -0.00218
C 26.95797 24.259 -0.01654
C 28.25323 23.46421 -0.00037
C 28.29085 22.06001 -0.0032
C 28.30409 31.89117 -0.01679
C 26.99779 21.34808 0.00622
C 28.19062 19.22238 -0.00942
C 28.26112 17.74416 0.00487
C 27.08147 17.02034 0.00826
C 27.04084 15.62497 -0.00294
C 28.28561 14.89495 0.00152
C 28.29478 13.51767 0.01257
C 26.98869 12.81949 0.02316
C 27.03585 11.41932 0.04185
C 26.97308 19.92567 -0.02815
C 2.42491 32.7696 0.00848
