358
Graphene
C 34.41346 34.07786 0.01295
C 11.0254 10.72034 -0.01957
C 11.04562 9.26967 -0.0108
C 9.88313 8.51779 -0.00368
C 9.89385 7.08823 -0.02696
C 11.07854 6.40219 -0.00114
C 11.09013 4.9833 0.00228
C 9.87314 4.22837 0.00798
C 9.84105 2.87036 0.00422
C 9.83682 11.3949 0.02058
C 11.09707 2.13881 0.0351
C 9.86822 0.07222 0.02098
C 12.34854 32.65438 0.01848
C 13.53674 31.94529 -0.00619
C 13.50011 30.50532 -0.02162
C 12.30407 29.77564 0.00889
C 12.2659 28.37094 -0.00481
C 13.44319 27.58095 0.00979
C 13.52888 26.19757 0.01443
C 11.11214 0.7037 -0.03113
C 12.24946 25.44398 0.03505
C 9.73898 12.74553 0.01965
C 9.89138 15.63141 0.00052
C 7.33669 2.94706 0.01363
C 8.59106 2.18174 -0.02162
C 8.59041 0.7855 0.00415
C 7.37881 0.07169 -0.0014
C 9.86932 32.73558 0.02162
C 11.11012 32.02843 0.0076
C 11.1295 30.60786 0.01241
C 9.89672 29.89779 -0.01454
C 10.9839 13.44963 -0.03682
C 9.83857 28.51462 0.01945
C 10.97834 26.22798 0.03542
C 9.78713 25.54251 0.02299
C 9.78162 24.13957 0.00244
C 11.00325 23.38104 -0.01717
C 11.01481 21.8848 0.05265
C 9.82157 21.16312 -0.01952
C 9.88406 19.75271 -0.02813
C 9.70381 16.9779 0.00374
C 11.01713 27.74575 0.01416
C 12.24119 23.99562 -0.02815
C 13.50712 23.3697 -0.04147
C 13.65116 21.93756 -0.05302
C 14.68523 11.48413 -0.0054
C 15.83625 10.72129 0.00667
C 15.96582 9.24169 0.00143
C 14.7248 8.58227 -0.017
C 14.80167 7.18703 0.00364
C 16.05317 6.37488 -0.00831
C 15.94905 4.93363 -0.02957
C 14.69559 4.19649 -0.04422
C 14.61186 24.13383 0.00755
C 14.76785 2.84284 0.00654
C 16.003 0.70028 -0.04076
C 14.8146 34.04231 -0.00652
C 17.21272 32.61743 0.0058
C 18.39762 31.90231 -0.00865
C 18.37418 30.50004 0.00675
C 17.12202 29.8471 -0.00311
C 17.11494 28.48337 0.00742
C 18.3103 13.43824 -0.01594
C 15.98702 2.10303 -0.00703
C 14.76592 25.47419 0.01739
C 15.86666 26.36361 0.03754
C 15.92258 27.69283 -0.03557
C 12.38994 21.47631 0.00213
C 12.04464 12.86205 -0.00066
C 12.29218 11.45331 -0.00289
C 13.54073 10.74503 0.00028
C 13.53652 9.3596 -0.02213
C 12.32208 8.60664 0.03698
C 12.297 7.07185 -0.00109
C 13.54024 6.38415 -0.00491
C 13.48552 4.94546 0.03338
C 12.30526 4.25425 -0.0258
C 12.30754 2.84409 -0.0331
C 13.50735 2.15032 -0.00316
C 13.5274 0.68752 0.02188
C 12.36625 0.00957 -0.01979
C 14.77544 32.58614 0.02691
C 15.99353 31.89137 -0.01581
C 15.9477 30.4865 0.01452
C 14.71063 29.74392 0.04892
C 14.69786 28.35002 -0.00111
C 7.29299 4.36749 0.01877
C 8.61871 4.97609 -0.00925
C 8.67295 6.39573 0.00444
C 7.35139 7.10611 -0.01789
C 3.64326 6.50508 -0.01142
C 3.63925 5.06486 -0.00562
C 2.41473 4.32799 -0.00494
C 2.40088 2.92105 0.00054
C 3.60581 2.1763 0.03007
C 3.69607 0.75535 -0.00095
C 2.44955 0.04875 0.01572
C 4.89386 32.66873 -0.04848
C 2.42898 7.21174 0.01849
C 6.15948 31.9757 -0.00892
C 4.91313 29.86121 -0.0008
C 4.90002 28.41638 0.0288
C 6.16281 27.71178 0.00393
C 6.1626 26.25548 0.00895
C 4.8895 25.58333 0.00685
C 4.93421 24.13657 0.02888
C 6.19613 23.46531 -0.00482
C 6.14368 22.00687 -0.01384
C 6.09256 30.59381 -0.01362
C 2.46449 8.56562 0.01396
C 3.64706 9.34496 0.0127
C 3.65186 10.70663 0.02635
C 3.67308 30.53254 0.02322
C 2.46572 29.78642 -0.00725
C 2.39865 28.42653 -0.05697
C 3.62614 27.68809 0.01087
C 3.63068 26.24423 -0.01343
C 2.39866 25.54498 0.00988
C 2.44764 24.17686 0.0276
C 3.68011 23.42843 0.01305
C 3.70599 22.01585 -0.00077
C 2.43926 21.34544 0.03368
C 2.4179 19.84896 -0.02929
C 3.66277 19.229 -0.00966
C 3.68413 17.72668 -0.03337
C 2.4781 17.00822 0.01227
C 2.48744 15.63956 0.00873
C 3.7433 14.973 -0.00049
C 3.70246 13.50943 0.00848
C 2.4736 12.81169 -0.01303
C 2.38532 11.39298 -0.01378
C 4.97668 21.3338 0.03693
C 17.26412 12.89695 0.0106
C 4.88243 19.88264 0.01745
C 6.18544 17.71215 -0.01004
C 8.54596 26.32271 0.03592
C 7.38204 25.59928 0.00406
C 7.41329 24.16143 0.00943
C 8.5896 23.40023 0.02841
C 8.6399 21.92439 -0.01111
C 7.38903 21.33298 -0.01275
C 7.40695 19.82458 0.00985
C 8.6487 19.1842 -0.02245
C 8.59404 27.72667 0.00572
C 8.56523 17.82202 -0.00428
C 7.47239 15.61956 -0.01536
C 8.6774 14.86905 -0.02689
C 8.59854 13.49129 -0.01046
C 7.37229 12.79345 -0.00891
C 7.37506 11.31675 0.02819
C 8.60205 10.64994 0.00165
C 8.59986 9.18948 -0.02971
C 7.31879 8.53549 0.02894
C 7.43467 17.04819 0.03101
C 7.37347 28.52052 0.0402
C 7.36197 29.90118 -0.02759
C 8.6002 30.63483 0.03589
C 4.9607 17.00844 -0.02896
C 4.98823 15.62339 -0.00131
C 6.23856 14.91663 -0.01118
C 6.14802 13.5713 -0.014
C 4.96526 12.82522 0.02147
C 4.83543 11.38088 0.00373
C 6.07865 10.65955 -0.00191
C 6.08481 9.17461 0.00438
C 4.78485 8.5897 0.01291
C 4.80918 7.18855 0.00093
C 6.05397 6.46986 0.00057
C 6.04453 5.09197 -0.01634
C 4.86517 4.3499 -0.00334
C 4.84488 2.9263 0.02339
C 6.08752 2.19539 0.01641
C 6.16848 0.75989 -0.00719
C 4.93956 0.0235 0.01364
C 7.39977 32.75239 -0.01062
C 8.60996 32.04585 -0.00033
C 6.10285 19.16752 0.00488
C 17.09228 11.36535 -0.01154
C 18.43863 10.67313 -0.01721
C 18.36781 9.22355 -0.02422
C 31.91424 32.70035 0.01713
C 33.22495 31.97279 -0.01694
C 33.19433 30.55202 0.01428
C 31.93124 29.84847 -0.02142
C 31.89505 28.46494 0.0544
C 33.09979 27.75486 0.00026
C 33.1371 26.30381 0.00682
C 31.83023 25.60006 -0.01779
C 29.49726 0.04076 0.00346
C 31.81404 24.22046 0.03794
C 33.08422 22.03384 0.01574
C 31.8675 21.32475 -0.02383
C 31.94364 19.86888 -0.01429
C 33.2179 19.17684 -0.0136
C 33.23031 17.75334 0.00594
C 32.03118 17.01578 -0.02474
C 31.94156 15.55471 0.00369
C 33.21764 14.89268 0.00455
C 33.05776 23.42992 0.01927
C 30.71303 0.72432 0.00307
C 30.70427 2.09982 0.00716
C 29.53669 2.90869 0.02108
C 30.58463 26.34056 -0.01854
C 29.35632 25.50467 -0.01415
C 30.56485 23.63656 -0.03039
C 30.85061 22.21196 0.01836
C 30.79986 19.14485 0.03531
C 30.72106 17.72806 -0.00669
C 29.53444 16.97751 0.0101
C 29.32435 15.65071 0.01705
C 30.66315 14.94614 -0.0405
C 30.80931 13.49192 -0.01303
C 29.58965 12.75224 -0.01461
C 29.51284 11.31542 -0.02155
C 30.74331 10.63575 -0.00944
C 30.78097 9.27351 -0.03735
C 29.51534 8.52602 -0.00971
C 29.54701 7.10505 0.01518
C 30.71869 6.38641 0.01908
C 30.75164 4.99983 0.07705
C 29.50351 4.31715 0.0103
C 33.24567 13.48215 -0.00644
C 30.68715 27.69058 -0.02049
C 31.99495 12.78542 -0.01839
C 33.19873 10.65141 0.00199
C 1.20125 19.18521 -0.01678
C 1.2504 17.7533 0.01223
C 0.067 17.05049 0.00648
C 1e-05 15.64109 0.02114
C 1.22658 14.92049 -0.02957
C 1.19811 13.47094 0.00343
C 34.35718 12.74685 -0.02656
C 0.05328 11.38335 -0.02442
C 34.38253 19.8947 0.01951
C 1.20674 10.61532 -0.00027
C 34.42439 8.48039 -0.02302
C 34.42107 7.11587 -0.02849
C 1.18066 6.38893 0.02931
C 1.18869 5.01824 0.00628
C 34.3918 4.26146 -0.0345
C 0.02404 2.86771 -0.00931
C 1.21681 2.13786 -0.00939
C 1.23466 0.70023 -0.00468
C 1.20776 9.18222 -0.00583
C 34.30061 21.38006 -0.02213
C 1.16617 22.06039 0.02712
C 1.19285 23.48735 0.00723
C 33.21483 9.22105 0.04381
C 32.00178 8.44142 0.02806
C 31.92523 7.07015 0.01504
C 33.18783 6.39606 -0.00069
C 33.17967 5.00476 0.04926
C 31.92289 4.25521 -0.03838
C 31.96305 2.83526 0.00349
C 33.20632 2.15851 -0.00323
C 33.22096 0.72243 -0.00841
C 31.96284 0.07338 0.0001
C 34.39653 32.71942 -0.02927
C 1.21985 32.00001 -0.01404
C 1.17279 30.5527 0.01027
C 34.38436 29.77784 0.01831
C 34.36162 28.43185 -0.01037
C 1.18389 27.65194 -0.00439
C 1.21603 26.26709 -0.00598
C 34.38544 25.54048 -0.05239
C 34.32173 24.10975 0.03076
C 31.95603 11.3175 0.00137
C 3.70675 31.97163 -0.00094
C 29.48407 28.41297 0.03265
C 30.68561 30.53151 0.02326
C 19.62557 2.82746 0.00071
C 20.84979 2.05614 -0.01107
C 20.83975 0.65183 -0.01586
C 19.64429 34.06444 -0.01971
C 22.09239 32.51038 -0.02118
C 23.32531 31.75714 0.00733
C 23.40576 30.31542 -0.00178
C 22.09755 29.87126 0.00768
C 19.64656 4.22874 -0.00225
C 23.41079 13.42732 -0.0276
C 22.08853 11.34026 -0.04078
C 23.34703 10.68246 0.02117
C 23.39279 9.17765 0.02737
C 22.14401 8.45886 -0.00498
C 22.14996 7.05343 0.00135
C 23.35351 6.37073 0.03102
C 23.34092 4.96978 0.02555
C 22.13169 4.28414 0.01423
C 22.18753 12.84367 0.03005
C 20.89551 4.96553 0.01515
C 20.90025 6.32823 -0.0055
C 19.64477 7.05588 0.02734
C 17.18735 8.53118 0.01277
C 17.18637 7.12608 0.00096
C 18.45536 6.44499 -0.01527
C 18.43521 4.98534 0.01087
C 17.21554 4.23479 0.00199
C 17.20731 2.86028 0.01511
C 18.41752 2.11394 -0.00478
C 18.43308 0.70427 -0.01662
C 17.20913 0.00377 -0.01185
C 19.64579 32.60835 0.01126
C 20.84146 31.89714 0.01852
C 20.84186 30.34481 -0.00381
C 19.5622 29.67956 0.03046
C 20.98659 13.28422 0.0296
C 19.66121 12.8334 0.03374
C 19.66403 11.41233 -0.02845
C 20.85604 10.60519 -0.03213
C 20.80969 9.2103 0.02239
C 19.62334 8.45552 0.01153
C 22.0525 2.80893 -0.00285
C 29.41807 29.77903 0.00261
C 23.25455 2.11604 -0.009
C 22.02385 34.02977 -0.00229
C 28.25696 27.72274 0.02316
C 28.26202 14.79273 0.04185
C 28.3456 13.41406 0.00194
C 27.0996 12.7113 -0.00621
C 27.10535 11.29739 0.02611
C 28.28844 10.59927 0.02198
C 28.28691 9.21695 0.01094
C 27.05855 8.52872 0.00235
C 27.24695 28.51004 0.01257
C 27.06511 7.10844 0.01495
C 28.27858 4.95658 0.01799
C 27.02921 4.26171 0.01699
C 27.02829 2.84032 -0.00416
C 28.23301 2.15833 0.01177
C 28.283 0.73429 0.04266
C 26.98037 0.09364 0.01324
C 29.54519 32.72865 0.0014
C 30.7202 31.9721 0.00924
C 28.31005 6.41721 0.01259
C 27.01867 29.88081 0.00152
C 28.25098 30.53434 -0.00294
C 28.32411 31.95176 0.00826
C 24.5532 32.63118 -0.00938
C 25.77934 31.95344 -0.0264
C 25.80723 30.51715 -0.01154
C 24.61221 29.74869 0.00684
C 25.97647 13.49014 -0.01052
C 24.66059 13.06481 -0.01679
C 24.58989 11.48964 0.00367
C 25.83246 10.66764 0.04306
C 25.81266 9.21631 0.00996
C 24.57168 8.44609 0.00195
C 24.61465 7.06732 -0.00802
C 25.83366 6.38674 -0.00218
C 25.79392 4.94501 -0.01654
C 24.53881 4.19402 -0.00037
C 24.56996 2.78759 -0.0032
C 25.80699 2.12365 0.00622
C 25.76809 0.71297 -0.02815
C 24.55733 34.04823 -0.00942
C 27.06165 32.70222 0.00487
C 23.27293 0.62693 -0.01199
C 2.48897 32.70082 -0.02566
