309
Graphene
C 34.39374 0.00905 0.01295
C 11.13435 14.99834 0.02188
C 11.20639 13.52662 -0.01979
C 9.89932 12.81463 0.02691
C 9.86777 11.39124 -0.01581
C 11.08345 10.63403 0.01452
C 11.00875 9.25273 0.04892
C 9.79719 8.55235 -0.00111
C 9.82777 7.05711 -0.03557
C 11.06148 6.45105 0.03754
C 11.02428 5.00596 0.01739
C 9.77297 4.30296 0.00755
C 9.80136 2.89128 -0.0054
C 11.02109 2.10954 0.00667
C 10.94984 0.62136 0.00143
C 9.80559 33.92353 -0.017
C 9.9403 15.65103 -0.00316
C 12.32854 32.59689 0.00364
C 9.90268 17.05865 -0.0331
C 10.79705 30.47749 0.03338
C 7.47238 12.82136 -0.00481
C 7.35366 11.32422 0.00979
C 8.58318 10.70447 0.01443
C 8.54455 9.19478 0.03505
C 7.41679 8.46371 -0.02815
C 7.29434 7.07267 -0.04147
C 8.52546 6.38807 -0.05302
C 8.528 4.99409 0.00213
C 7.35408 4.23982 -0.00066
C 7.41108 2.79811 -0.00289
C 8.60609 2.06636 0.00028
C 8.61776 0.60286 -0.02213
C 7.41195 33.99547 0.03698
C 9.92078 32.60187 -0.00109
C 11.10943 31.84594 -0.00491
C 9.67865 29.64876 -0.0258
C 13.44178 31.84092 -0.00831
C 12.4268 15.54572 -0.02957
C 13.6234 14.87253 -0.04422
C 16.02813 10.62693 -0.00478
C 15.93335 9.14207 -0.01662
C 14.6634 8.60285 -0.01185
C 14.75201 7.17461 0.01126
C 15.93413 6.39143 0.01852
C 15.88824 4.95688 -0.00381
C 14.68987 4.17321 0.03046
C 14.75654 2.73376 0.0296
C 16.05125 2.02091 0.03374
C 15.99652 0.62536 -0.02845
C 14.73236 34.00295 -0.03213
C 17.18422 32.52919 0.02239
C 18.39758 31.87448 0.01153
C 17.85261 14.9096 0.02734
C 18.29337 13.47226 -0.0055
C 14.78139 11.27519 0.01511
C 14.90068 12.79405 0.00199
C 16.01794 13.48619 0.01087
C 16.52152 14.7793 -0.01527
C 13.65867 13.39685 0.00654
C 12.38665 12.75066 -0.00703
C 12.28063 11.37897 -0.04076
C 13.5262 10.66451 -0.00652
C 13.53173 9.31909 0.0058
C 12.27044 8.62091 -0.00865
C 12.21131 7.15921 0.00675
C 8.67998 13.52999 0.00889
C 13.46041 6.40538 -0.00311
C 12.24657 4.29553 -0.01594
C 12.33609 2.81402 0.0106
C 13.50306 2.06191 -0.01154
C 13.5173 0.61039 -0.01721
C 12.2345 34.07863 -0.02422
C 14.68185 32.50881 0.01277
C 15.90433 32.04532 0.00096
C 13.47682 4.93345 0.00742
C 8.67459 14.96237 -0.02162
C 7.43009 15.59729 -0.00619
C 7.35384 17.09726 0.01848
C 3.67804 9.26449 0.00406
C 2.38359 8.55202 0.00943
C 2.34103 7.12842 0.02841
C 3.62129 6.45322 -0.01111
C 3.66361 5.02747 -0.01275
C 2.44304 4.24672 0.00985
C 2.4703 2.87515 -0.02245
C 3.7062 2.16132 -0.00428
C 3.68302 0.72968 0.03101
C 2.38295 0.09204 -0.01536
C 5.0084 32.62646 -0.02689
C 6.18971 31.97812 -0.01046
C 6.16155 30.54767 -0.00891
C 4.94232 29.86517 0.02819
C 5.01038 28.43497 0.00165
C 3.58661 10.70136 0.03592
C 2.33675 11.49473 0.00572
C 2.39454 12.84437 0.0402
C 3.64245 13.52837 -0.02759
C 3.70106 30.48511 0.02147
C 2.4288 29.78962 0.00373
C 2.42648 28.34605 -0.00191
C 3.72111 27.70358 0.00438
C 3.64386 26.27881 0.01291
C 2.36359 25.62158 0.00093
C 2.37933 24.21304 0.00057
C 6.20941 27.56881 -0.02971
C 3.59227 23.4252 -0.01634
C 2.35619 21.36657 0.02339
C 2.40336 19.90564 0.01641
C 3.59148 19.19443 -0.00719
C 3.67206 17.77835 0.01364
C 2.53234 17.04325 -0.01062
C 2.46414 15.62975 -0.00033
C 3.71704 14.93088 0.03589
C 3.59296 22.03915 -0.00334
C 17.19004 12.67503 0.01515
C 6.16796 26.22292 0.02894
C 4.775 24.15341 0.00444
C 6.15577 2.12389 0.00052
C 6.14648 0.70733 -0.03682
C 4.91595 0.0353 0.01965
C 7.44904 32.67397 0.02058
C 8.62317 31.83811 -0.01957
C 8.54351 30.47312 -0.0108
C 7.30768 29.8503 -0.00368
C 7.53985 28.39289 -0.02696
C 8.85396 28.06688 -0.00114
C 7.3186 25.52287 0.00228
C 7.1464 24.13411 0.00798
C 7.37113 21.33707 0.00422
C 7.35099 19.94362 0.0351
C 8.50953 19.25894 -0.03113
C 8.68099 17.88201 0.02098
C 4.88252 2.80188 0.00374
C 4.83925 4.30719 -0.02813
C 6.08694 4.96697 -0.01952
C 6.02223 6.39058 0.05265
C 6.06032 23.37982 -0.00925
C 6.13025 21.96826 0.01877
C 4.82192 21.36108 0.01363
C 4.7925 19.94133 -0.02162
C 6.02773 19.2762 0.00415
C 6.17079 17.88291 -0.0014
C 4.95041 17.08427 0.02162
C 4.85403 25.56069 -0.01789
C 4.98861 15.61771 0.0076
C 6.16374 13.50742 -0.01454
C 4.87666 12.83658 0.01945
C 4.85305 11.35026 0.01416
C 6.09446 10.73455 0.03542
C 6.17794 9.25393 0.02299
C 4.97408 8.55955 0.00244
C 4.89212 7.2508 -0.01717
C 6.19495 14.9074 0.01241
C 3.76179 31.92439 -0.014
C 17.27652 11.27427 -0.00225
C 18.40965 9.27251 -0.01107
C 31.85561 32.6802 0.01927
C 33.13348 32.05724 0.01574
C 33.12419 30.58565 -0.02383
C 31.86024 29.82293 -0.01429
C 31.96103 28.49782 -0.0136
C 33.1509 27.76592 0.00594
C 32.87855 26.44255 -0.02474
C 31.41388 26.33611 0.00369
C 33.26449 15.00109 0.00455
C 33.04178 13.63713 -0.00644
C 31.85374 12.94919 -0.01839
C 31.7913 11.55972 0.00137
C 32.97859 10.8327 0.00199
C 33.0611 9.36646 0.04381
C 31.81022 8.68136 0.02806
C 29.41678 34.03432 0.03794
C 31.85193 7.22387 0.01504
C 30.68023 0.69341 -0.01779
C 29.39753 2.88086 0.00026
C 28.23826 0.7393 -0.03735
C 27.01215 34.00893 -0.00971
C 29.39719 32.58082 0.01518
C 30.67663 31.96831 0.01908
C 30.64736 30.52697 0.07705
C 29.48605 29.70763 0.0103
C 29.53264 28.21943 0.02108
C 30.76721 27.80311 0.00716
C 30.50083 10.68165 0.00307
C 30.50717 9.28741 0.00346
C 29.37473 8.60379 0.01713
C 29.50084 7.11753 -0.01694
C 30.76481 6.41459 0.01428
C 30.67232 5.00761 -0.02142
C 29.46415 4.24505 0.0544
C 30.71897 2.13913 0.00682
C 33.14353 6.51446 -0.00069
C 33.16586 5.14311 0.04926
C 31.9352 4.35247 -0.03838
C 34.34141 15.82551 0.02114
C 1.23845 14.96229 -0.02957
C 1.16006 13.61802 0.00343
C 34.3651 12.88322 -0.02656
C 34.26602 11.46624 -0.02442
C 1.09459 10.7931 -0.00027
C 1.13977 9.31049 -0.00583
C 34.33132 8.62367 -0.02302
C 34.3808 7.13238 -0.02849
C 1.20145 6.35978 0.02931
C 1.22168 4.96227 0.00628
C 34.33626 4.34413 -0.0345
C 34.40461 2.9287 -0.00931
C 1.18901 2.18771 -0.00939
C 1.13104 0.7304 -0.00468
C 34.42163 17.19475 0.00648
C 1.19441 17.80999 0.01223
C 1.23164 19.21743 -0.01678
C 0.07008 19.8926 0.01951
C 31.91475 2.90912 0.00349
C 33.13715 2.11712 -0.00323
C 33.16181 0.76071 -0.00841
C 31.91136 0.05224 0.0001
C 34.39958 32.70315 -0.02927
C 1.20227 31.95041 -0.01404
C 1.20022 30.60114 0.01027
C 28.24092 2.15371 -0.00944
C 34.36138 29.90954 0.01831
C 1.21493 27.72103 -0.00439
C 1.07269 26.26189 -0.00598
C 34.08793 25.58424 -0.05239
C 34.31569 24.19997 0.03076
C 1.04626 23.50303 0.00723
C 1.09031 22.09095 0.02712
C 34.39965 21.17938 -0.02213
C 0.05169 28.5031 -0.01037
C 26.9642 2.84682 -0.02155
C 26.98464 4.31882 -0.01461
C 28.231 4.99397 -0.01303
C 19.6297 7.16984 -0.00938
C 20.87623 6.43289 -0.0264
C 20.85365 5.03266 -0.01154
C 19.61622 4.27436 0.00684
C 19.63741 2.85131 -0.01052
C 20.86151 2.08286 -0.01679
C 20.84981 0.71258 0.00367
C 19.62031 0.05038 0.04306
C 22.13026 32.70137 0.00996
C 23.27957 31.89641 0.00195
C 23.20417 30.46991 -0.00802
C 21.94612 29.78065 -0.00218
C 23.32137 27.6223 -0.01654
C 22.12477 12.87504 -0.00037
C 22.41049 11.51139 -0.0032
C 19.69272 8.56163 -0.00229
C 20.94118 9.20909 -0.01199
C 20.9758 10.77159 -0.009
C 19.76494 11.42037 -0.00285
C 17.14249 8.48334 -0.01586
C 17.16155 7.0732 -0.01971
C 18.46982 6.38561 -0.02118
C 18.42533 4.95241 0.00733
C 17.17086 4.30696 -0.00178
C 17.21251 2.87979 0.00768
C 18.36648 2.22047 -0.0276
C 23.35658 10.61982 0.00622
C 18.37442 0.71222 0.03005
C 19.52239 32.7174 0.02117
C 20.86866 32.0174 0.02737
C 20.88394 30.63563 -0.00498
C 19.07628 15.30413 0.00135
C 20.42823 15.16668 0.03102
C 20.88174 13.57997 0.02555
C 19.56001 12.83108 0.01423
C 17.24056 0.02735 -0.04078
C 18.51814 10.62123 0.00071
C 23.33671 9.1988 -0.02815
C 22.14867 7.11293 0.00487
C 24.54866 2.87962 0.0014
C 25.71448 2.10413 0.00924
C 25.72298 0.70492 0.02326
C 24.44329 34.06712 0.00261
C 27.04294 32.59904 0.03265
C 28.23788 31.81913 -0.02049
C 28.26022 30.30289 -0.01854
C 26.96068 29.68667 -0.01415
C 26.92306 28.10193 -0.03039
C 28.29868 27.6919 0.01836
C 27.85384 10.65484 0.03531
C 28.17825 9.2335 -0.00669
C 26.9994 8.44095 0.0101
C 27.1145 7.10367 0.01705
C 28.28507 6.43232 -0.0405
C 24.47833 4.3036 0.01324
C 25.78551 5.04799 0.04266
C 25.84039 6.38014 0.01177
C 24.57215 7.11603 -0.00416
C 23.32741 6.43163 0.00826
C 23.29766 5.016 -0.00294
C 22.12013 4.27861 0.00152
C 22.05615 2.89797 0.01257
C 23.29705 2.1436 0.02316
C 23.27958 0.73071 0.04185
C 22.07475 0.02858 0.00194
C 22.10001 8.57262 -0.00942
C 24.50583 32.55062 -0.00621
C 25.77579 30.49203 0.02198
C 24.50243 29.86731 0.01094
C 24.38619 28.45961 0.00235
C 25.47723 27.50514 0.01495
C 26.23702 10.65039 0.01259
C 25.82871 9.25524 0.01799
C 24.6348 8.53279 0.01699
C 25.76132 31.89476 0.02611
C 2.47259 32.64014 -0.01118
