358
Graphene
C 0.01128 0.03938 0.01295
C 11.06419 13.49732 -0.01957
C 9.92182 12.79767 -0.0108
C 9.90969 11.37585 -0.00368
C 11.13718 10.62506 -0.02696
C 11.0933 9.15922 -0.00114
C 9.74771 8.53994 0.00228
C 9.75737 7.16236 0.00798
C 11.05701 6.34596 0.00422
C 11.10616 14.9547 0.02058
C 11.03059 4.95015 0.0351
C 9.79029 2.88211 0.02098
C 11.04154 2.20039 0.01848
C 11.00838 0.79804 -0.00619
C 9.78915 0.0646 -0.02162
C 12.28078 32.65176 0.00889
C 13.53584 32.03203 -0.00481
C 13.47657 30.66913 0.00979
C 12.27095 29.8754 0.01443
C 9.69257 4.38827 -0.03113
C 12.21857 28.50602 0.03505
C 9.89749 15.58004 0.01965
C 11.15318 17.80639 0.00052
C 7.31631 2.85269 0.01363
C 8.61872 2.14963 -0.02162
C 8.53205 0.71621 0.00415
C 7.25367 0.03836 -0.0014
C 9.77914 32.73555 0.02162
C 10.98923 31.99092 0.0076
C 11.00884 30.52411 0.01241
C 9.75369 29.81797 -0.01454
C 9.87006 17.01681 -0.03682
C 9.80604 28.28407 0.01945
C 11.17544 26.3616 0.03542
C 9.87424 25.58723 0.02299
C 9.83054 24.18097 0.00244
C 11.08928 23.38658 -0.01717
C 11.01059 22.0044 0.05265
C 9.79981 21.36298 -0.01952
C 9.8684 19.96547 -0.02813
C 11.13637 19.22218 0.00374
C 11.07326 27.70795 0.01416
C 13.41444 27.71767 -0.02815
C 13.53381 26.31452 -0.04147
C 12.39101 25.47286 -0.05302
C 16.02098 31.95012 -0.0054
C 15.9426 30.49377 0.00667
C 14.72877 29.83244 0.00143
C 14.66133 28.39894 -0.017
C 15.83747 27.63479 0.00364
C 14.89867 19.74363 -0.00831
C 16.11846 19.05898 -0.02957
C 16.06273 17.61057 -0.04422
C 14.84985 32.70224 0.00755
C 14.76193 16.93327 0.00654
C 15.99995 14.85736 -0.04076
C 15.91402 13.4066 -0.00652
C 14.7683 12.71336 0.0058
C 14.69739 11.26549 -0.00865
C 16.00594 10.60478 0.00675
C 15.94003 9.18078 -0.00311
C 14.64759 8.48179 0.00742
C 14.71709 7.10052 -0.01594
C 14.82678 15.58659 -0.00703
C 12.2133 0.11414 0.01739
C 13.49821 0.68123 0.03754
C 13.53258 2.12162 -0.03557
C 12.2769 24.08963 0.00213
C 12.28183 21.42506 -0.00066
C 12.41338 20.0637 -0.00289
C 13.60084 19.23049 0.00028
C 13.48176 17.81927 -0.02213
C 12.34253 17.06993 0.03698
C 12.30888 15.66119 -0.00109
C 13.58469 14.90107 -0.00491
C 13.51093 13.43754 0.03338
C 12.28566 12.75549 -0.0258
C 12.2822 11.37917 -0.0331
C 13.50209 10.62686 -0.00316
C 13.4484 9.24928 0.02188
C 12.28602 8.55899 -0.01979
C 12.30481 7.11201 0.02691
C 13.49133 6.37966 -0.01581
C 13.47032 4.96227 0.01452
C 12.2501 4.26505 0.04892
C 12.33248 2.86409 -0.00111
C 7.31015 4.28483 0.01877
C 8.46635 5.11157 -0.00925
C 8.44042 6.52253 0.00444
C 7.30602 7.20805 -0.01789
C 3.59917 6.46507 -0.01142
C 3.57633 5.09198 -0.00562
C 2.41584 4.35029 -0.00494
C 2.44339 2.91417 0.00054
C 3.6261 2.21346 0.03007
C 3.63194 0.75941 -0.00095
C 2.38971 0.08909 0.01572
C 4.92092 32.77427 -0.04848
C 2.32611 7.13011 0.01849
C 6.10487 32.02451 -0.00892
C 4.82957 29.86613 -0.0008
C 4.88092 28.41003 0.0288
C 6.1148 27.74182 0.00393
C 6.12783 26.32403 0.00895
C 4.91234 25.58781 0.00685
C 4.89601 24.14616 0.02888
C 6.12076 23.51801 -0.00482
C 6.20497 22.01805 -0.01384
C 6.10429 30.59343 -0.01362
C 2.34297 8.58155 0.01396
C 3.66533 9.21747 0.0127
C 3.6378 10.69045 0.02635
C 3.6074 30.61895 0.02322
C 2.37972 29.9224 -0.00725
C 2.40077 28.43178 -0.05697
C 3.65509 27.75746 0.01087
C 3.6784 26.31217 -0.01343
C 2.45949 25.64106 0.00988
C 2.37098 24.13675 0.0276
C 3.68113 23.47909 0.01305
C 3.68358 22.03198 -0.00077
C 2.48655 21.22512 0.03368
C 2.51443 19.87371 -0.02929
C 3.74397 19.13902 -0.00966
C 3.73773 17.72526 -0.03337
C 2.41997 17.03153 0.01227
C 2.34905 15.58573 0.00873
C 3.56121 14.86847 -0.00049
C 3.66549 13.55295 0.00848
C 2.41506 12.76803 -0.01303
C 2.46358 11.39128 -0.01378
C 4.90285 21.32679 0.03693
C 15.94086 6.36605 0.0106
C 4.97261 19.90845 0.01745
C 6.14102 17.74828 -0.01004
C 8.61006 26.28659 0.03592
C 7.36596 25.55054 0.00406
C 7.32297 24.16478 0.00943
C 8.58829 23.50678 0.02841
C 8.59902 22.04871 -0.01111
C 7.38451 21.26145 -0.01275
C 7.38256 19.87003 0.00985
C 8.63017 19.15386 -0.02245
C 8.57084 27.70787 0.00572
C 8.70664 17.75641 -0.00428
C 7.40563 15.62416 -0.01536
C 8.66137 14.92278 -0.02689
C 8.62145 13.47205 -0.01046
C 7.41284 12.81391 -0.00891
C 7.33856 11.38922 0.02819
C 8.62358 10.69752 0.00165
C 8.50821 9.27556 -0.02971
C 7.23174 8.53206 0.02894
C 7.45221 17.01528 0.03101
C 7.3385 28.40844 0.0402
C 7.31727 29.92077 -0.02759
C 8.58286 30.58492 0.03589
C 4.91817 17.06807 -0.02896
C 4.81814 15.64763 -0.00131
C 6.15293 14.94185 -0.01118
C 6.14951 13.47636 -0.014
C 4.84052 12.8012 0.02147
C 4.94493 11.42311 0.00373
C 6.14475 10.6815 -0.00191
C 6.05924 9.33892 0.00438
C 4.90714 8.55356 0.01291
C 4.91858 7.13614 0.00093
C 6.11833 6.42527 0.00057
C 6.07984 4.96599 -0.01634
C 4.79999 4.31436 -0.00334
C 4.84605 2.90743 0.02339
C 6.10367 2.23061 0.01641
C 6.05953 0.81455 -0.00719
C 4.85411 0.11906 0.01364
C 7.30678 32.72925 -0.01062
C 8.60253 32.00811 -0.00033
C 6.21988 19.1383 0.00488
C 15.92559 4.97421 -0.01154
C 14.74004 4.25473 -0.01721
C 14.79847 2.83186 -0.02422
C 29.53079 21.40356 0.01713
C 29.58798 20.01724 -0.01694
C 30.82106 19.17481 0.01428
C 30.69164 17.77162 -0.02142
C 29.34116 17.27339 0.0544
C 30.89365 2.22938 0.00026
C 30.80451 0.74941 0.00682
C 29.49098 0.10176 -0.01779
C 30.69391 22.04774 0.00346
C 31.94386 32.62397 0.03794
C 33.18461 30.55297 0.01574
C 31.89445 29.82198 -0.02383
C 31.91627 28.46083 -0.01429
C 33.08825 27.60727 -0.0136
C 33.21481 26.23603 0.00594
C 31.93669 25.51607 -0.02474
C 31.92594 24.14689 0.00369
C 33.20411 23.49775 0.00455
C 33.1191 31.97744 0.01927
C 30.67771 23.43773 0.00307
C 29.48217 24.13214 0.00716
C 29.50063 25.57672 0.02108
C 28.24703 27.63538 -0.01854
C 28.25769 26.17002 -0.01415
C 27.0093 25.51667 -0.03039
C 26.92665 24.14835 0.01836
C 28.27277 23.48585 0.03531
C 28.25188 22.03631 -0.00669
C 27.04557 21.39504 0.0101
C 27.0638 19.9921 0.01705
C 28.29684 19.33966 -0.0405
C 28.1703 17.87829 -0.01303
C 28.31516 0.86494 -0.01461
C 27.10157 0.11859 -0.02155
C 29.44064 32.66945 -0.00944
C 30.72457 32.00211 -0.03735
C 30.65185 30.58966 -0.00971
C 29.47832 29.83739 0.01518
C 29.49147 28.36159 0.01908
C 30.72675 27.72907 0.07705
C 30.76715 26.27253 0.0103
C 33.20549 22.06981 -0.00644
C 26.95414 28.41683 -0.02049
C 31.99325 21.30432 -0.01839
C 33.26402 19.22479 0.00199
C 1.25113 19.13676 -0.01678
C 1.219 17.70254 0.01223
C 34.3812 17.02245 0.00648
C 34.35325 15.59572 0.02114
C 1.11772 14.84548 -0.02957
C 1.16081 13.4983 0.00343
C 34.162 12.67185 -0.02656
C 34.24942 11.25082 -0.02442
C 34.4168 19.94802 0.01951
C 1.14308 10.6941 -0.00027
C 0.03299 8.47844 -0.02302
C 34.36985 7.12491 -0.02849
C 1.09725 6.46216 0.02931
C 1.12212 5.03485 0.00628
C 34.26754 4.31748 -0.0345
C 34.35965 2.8426 -0.00931
C 1.24205 2.19089 -0.00939
C 1.16893 0.79253 -0.00468
C 1.105 9.30574 -0.00583
C 0.08043 21.29502 -0.02213
C 1.24835 21.9828 0.02712
C 1.2095 23.40512 0.00723
C 33.24469 17.75264 0.04381
C 31.9633 17.06387 0.02806
C 31.89243 15.59035 0.01504
C 33.1058 14.87727 -0.00069
C 33.10661 13.456 0.04926
C 33.04838 4.85175 -0.03838
C 31.99821 2.95755 0.00349
C 33.24164 2.20406 -0.00323
C 33.24882 0.77872 -0.00841
C 32.01287 0.05426 0.0001
C 0.01818 32.6478 -0.02927
C 1.19068 31.98706 -0.01404
C 1.21528 30.53074 0.01027
C 34.42698 29.78336 0.01831
C 34.33821 28.34505 -0.01037
C 1.13253 27.73132 -0.00439
C 1.18811 26.34004 -0.00598
C 0.02905 25.56956 -0.05239
C 0.00466 24.1493 0.03076
C 31.98345 19.94359 0.00137
C 3.6234 32.0372 -0.00094
C 27.04583 29.76966 0.03265
C 28.2623 31.9562 0.02326
C 18.48109 5.01031 0.00071
C 17.16577 4.31842 -0.01107
C 17.27779 2.96374 -0.01586
C 18.46146 2.18248 -0.01971
C 18.40345 0.81886 -0.02118
C 17.17491 0.04029 0.00733
C 19.64121 32.57765 -0.00178
C 20.91158 31.87521 0.00768
C 18.36671 6.48491 -0.00225
C 20.83628 30.40271 -0.0276
C 19.46028 28.38493 -0.04078
C 20.72804 27.64171 0.02117
C 20.79512 26.1912 0.02737
C 19.61518 25.41379 -0.00498
C 20.65058 23.56129 0.00135
C 20.72684 22.05325 0.03102
C 19.571 21.20784 0.02555
C 19.42912 19.79262 0.01423
C 19.52874 29.82056 0.03005
C 17.16023 7.04295 0.01515
C 17.1959 8.46405 -0.0055
C 18.36279 9.10317 0.02734
C 16.06046 2.23498 0.01277
C 16.01066 0.81535 0.00096
C 14.73946 0.0784 -0.01527
C 17.20845 32.73079 0.01087
C 18.4026 31.91681 0.00199
C 18.31475 30.49971 0.01511
C 17.09191 29.73331 -0.00478
C 17.12241 28.31435 -0.01662
C 18.32054 27.52445 -0.01185
C 18.5 26.09582 0.01126
C 18.35394 19.01917 0.01852
C 18.42353 17.59076 -0.00381
C 17.25187 16.79476 0.03046
C 17.25309 15.40137 0.0296
C 18.49194 14.68425 0.03374
C 18.53767 13.32992 -0.02845
C 17.2012 12.72956 -0.03213
C 17.31986 11.28653 0.02239
C 18.4038 10.51889 0.01153
C 20.83499 19.17876 -0.00285
C 28.2409 30.51246 0.00261
C 20.99428 17.72048 -0.009
C 19.66521 15.49877 -0.00229
C 24.54392 32.68549 0.02316
C 25.76071 31.99623 0.04185
C 25.73728 30.58641 0.00194
C 24.51125 29.80552 -0.00621
C 24.57164 28.43188 0.02611
C 25.72612 27.70941 0.02198
C 25.7674 26.32837 0.01094
C 24.57059 25.55678 0.00235
C 22.02874 34.00218 0.01257
C 24.54857 24.13139 0.01495
C 25.78505 22.02056 0.01799
C 24.54778 21.34471 0.01699
C 24.45613 19.89432 -0.00416
C 25.82931 19.13763 0.01177
C 26.13681 17.86568 0.04266
C 25.75737 0.56601 0.01324
C 24.52173 0.09099 0.0014
C 26.99952 32.67136 0.00924
C 25.74657 23.36212 0.01259
C 23.23023 0.7343 0.00152
C 22.23921 17.19209 -0.00294
C 23.3739 17.9127 0.00826
C 19.57126 4.27719 -0.00938
C 19.79385 2.84515 -0.0264
C 21.00543 2.03961 -0.01154
C 20.86917 0.7257 0.00684
C 19.59723 34.04085 -0.01052
C 22.08058 32.62276 -0.01679
C 23.27097 31.94369 0.00367
C 23.3696 30.5389 0.04306
C 22.06241 29.77071 0.00996
C 22.08626 28.34611 0.00195
C 23.20785 27.60892 -0.00802
C 23.27866 26.1541 -0.00218
C 22.00009 25.49538 -0.01654
C 21.97539 24.0648 -0.00037
C 23.29222 23.39123 -0.0032
C 23.2746 22.02033 0.00622
C 21.98538 21.36444 -0.02815
C 21.9963 19.92204 -0.00942
C 23.26811 19.25874 0.00487
C 19.76535 16.9665 -0.01199
C 2.38473 32.6869 -0.02566
