386
Graphene
C 34.4304 34.0688 0.01295
C 16.00784 6.46109 -0.0014
C 15.95331 4.98422 0.02162
C 14.69961 4.34035 0.0076
C 14.77901 2.92586 0.01241
C 15.98126 2.15379 -0.01454
C 16.02221 0.69192 0.01945
C 14.79155 0.02313 0.01416
C 17.24863 32.63391 0.03542
C 18.38865 31.92387 0.02299
C 14.73246 7.19424 0.00415
C 18.44836 30.42253 0.00244
C 17.25026 28.42337 0.05265
C 18.50163 27.61396 -0.01952
C 18.50537 26.20083 -0.02813
C 17.26011 25.54672 0.00374
C 17.2414 24.13853 0.00052
C 18.39427 23.35501 -0.03682
C 18.44232 21.92731 0.01965
C 17.17165 21.2165 0.02058
C 17.26886 19.77916 -0.01957
C 17.27021 29.78729 -0.01717
C 18.44761 19.19506 -0.0108
C 14.75105 8.64037 -0.02162
C 16.02555 10.69974 0.01877
C 14.69943 32.62008 0.00406
C 15.95804 31.999 0.00943
C 16.0197 30.56207 0.02841
C 14.79513 29.8716 -0.01111
C 14.82471 28.44088 -0.01275
C 16.02491 27.75625 0.00985
C 15.99794 26.34159 -0.02245
C 14.76997 25.61449 -0.00428
C 14.79399 24.20059 0.03101
C 15.90745 9.29875 0.01363
C 15.99853 23.45554 -0.01536
C 14.65213 21.21594 -0.01046
C 14.95896 19.9053 -0.00891
C 15.87498 18.99678 0.02819
C 15.88732 17.53756 0.00165
C 14.85989 15.72007 -0.02971
C 15.94385 14.98491 0.02894
C 16.00854 13.47555 -0.01789
C 14.64727 12.77485 0.00444
C 14.77361 11.43144 -0.00925
C 16.06137 21.93337 -0.02689
C 12.31408 34.0708 0.03592
C 18.42196 17.71131 -0.00368
C 17.26614 15.63708 -0.00114
C 20.93268 23.37571 -0.00491
C 20.92182 21.94792 0.03338
C 19.6394 21.24018 -0.0258
C 19.66041 19.92784 -0.0331
C 20.97043 19.20039 -0.00316
C 20.92026 17.79772 0.02188
C 19.64587 17.15191 -0.01979
C 19.72742 15.63196 0.02691
C 20.92841 14.90525 -0.01581
C 19.69658 24.04613 -0.00109
C 20.87096 13.469 0.01452
C 19.58092 11.34592 -0.00111
C 20.90924 10.61418 -0.03557
C 20.83983 9.18297 0.03754
C 19.62589 8.44486 0.01739
C 19.64222 7.05229 0.00755
C 20.85623 6.31698 -0.0054
C 20.85321 4.93676 0.00667
C 19.55196 4.3326 0.00143
C 19.5268 2.88967 -0.017
C 19.63469 12.78704 0.04892
C 17.18802 17.07016 -0.02696
C 19.73216 25.46914 0.03698
C 20.90698 27.66727 0.00028
C 18.49103 15.01289 0.00228
C 18.48032 13.58778 0.00798
C 17.23489 12.80276 0.00422
C 17.24223 11.4098 0.0351
C 18.43321 10.61311 -0.03113
C 18.44985 9.15668 0.02098
C 17.15471 8.58014 0.01848
C 17.2177 7.13634 -0.00619
C 18.45868 6.38304 -0.02162
C 20.93098 26.25036 -0.02213
C 18.35766 4.9968 0.00889
C 17.20768 2.8986 0.00979
C 18.38642 2.11842 0.01443
C 18.43849 0.69941 0.03505
C 17.23161 34.06869 -0.02815
C 19.60771 32.52268 -0.04147
C 20.89057 31.87583 -0.05302
C 20.96292 30.42179 0.00213
C 19.69566 29.73848 -0.00066
C 19.74417 28.34404 -0.00289
C 17.15595 4.27954 -0.00481
C 13.52724 0.77931 0.00572
C 13.6235 2.13051 0.0402
C 12.32403 2.86171 -0.02759
C 3.79352 2.14399 0.017
C 3.6986 0.73711 -0.03113
C 2.44043 0.01028 -0.02566
C 4.88498 32.66701 -0.00094
C 6.18154 32.00193 0.02322
C 6.0828 30.5787 -0.00725
C 4.84457 29.87642 -0.05697
C 4.88072 28.45403 0.01087
C 6.13945 27.77684 -0.01343
C 2.50838 2.89175 -0.00643
C 6.09739 26.36827 0.00988
C 4.85446 24.13876 0.01305
C 6.1164 23.49797 -0.00077
C 6.12135 22.03103 0.03368
C 4.84244 21.4024 -0.02929
C 5.00083 19.90674 -0.00966
C 6.09835 19.10753 -0.03337
C 4.87348 16.9124 0.01227
C 4.97761 15.71685 0.00873
C 4.80235 4.3726 -0.00049
C 4.95006 25.57363 0.0276
C 4.95081 2.97309 0.00848
C 2.4591 4.28583 0.0086
C 2.22615 7.15874 -0.00074
C 3.61449 30.49695 -0.04307
C 2.40206 29.81415 0.03189
C 2.40486 28.38266 0.00031
C 3.7034 27.6594 -0.003
C 3.66321 26.26553 0.01402
C 2.45012 25.538 0.02379
C 2.32272 24.09531 0.00907
C 3.68639 23.4771 0.00643
C 3.65012 21.99393 -0.01509
C 3.78292 4.92343 -0.00518
C 2.42992 21.32868 0.03267
C 3.68051 19.1116 0.00402
C 3.75348 17.80786 0.0073
C 2.49642 17.06802 0.0174
C 2.51997 15.66602 0.03828
C 3.79634 14.90176 0.01226
C 3.52986 13.58404 -0.00279
C 2.51492 12.67425 0.01996
C 2.35745 11.30644 -0.03996
C 2.49328 8.33514 0.01465
C 2.5023 19.90162 0.02374
C 6.19169 2.19648 -0.01303
C 6.12408 0.72054 -0.01378
C 4.91307 0.00314 0.02635
C 11.10867 23.50328 -0.02896
C 9.93757 2.81859 -0.00131
C 11.0764 2.083 -0.01118
C 11.06466 0.63877 -0.014
C 9.77389 34.03522 0.02147
C 12.28294 32.65499 0.00373
C 13.47233 31.95026 -0.00191
C 13.47036 30.52547 0.00438
C 12.2733 29.79526 0.01291
C 9.88826 24.13562 -0.01004
C 12.24713 28.4829 0.00093
C 13.53943 26.36962 -0.01634
C 12.28147 25.66374 -0.00334
C 12.28653 24.18685 0.02339
C 13.53917 23.44555 0.01641
C 13.57435 22.08289 -0.00719
C 13.65771 13.6749 0.01364
C 13.5739 6.40887 -0.01062
C 13.34161 5.08079 -0.00033
C 12.39072 4.13261 0.03589
C 13.53963 27.75628 0.00057
C 9.84663 25.61729 0.00488
C 11.03613 26.40662 0.01745
C 11.04745 27.78125 0.03693
C 7.37446 32.74956 0.0127
C 8.53066 31.98874 0.01396
C 8.55272 30.56545 0.01849
C 7.276 29.82697 -0.01142
C 7.39129 28.4715 -0.00562
C 8.59341 27.76915 -0.00494
C 8.56969 26.30086 0.00054
C 7.32999 25.65685 0.03007
C 7.31191 24.24611 -0.00095
C 8.62724 23.44789 0.01572
C 8.30843 22.08869 -0.04848
C 7.294 21.32984 -0.00892
C 7.37782 2.86638 -0.01362
C 8.69338 2.36183 -0.0008
C 8.63152 0.85059 0.0288
C 7.34335 0.09776 0.00393
C 9.77836 32.63439 0.00895
C 11.03355 31.92342 0.00685
C 11.04158 30.56072 0.02888
C 9.73755 29.88254 -0.00482
C 9.81284 28.475 -0.01384
C 20.75836 2.11481 0.00364
C 20.77558 0.69048 -0.00831
C 19.61352 34.02065 -0.02957
C 22.08776 32.62809 -0.04422
C 30.7627 4.9605 0.07705
C 29.49571 4.22039 0.0103
C 29.46325 2.83269 0.02108
C 30.70091 2.1599 0.00716
C 30.72549 0.77145 0.00307
C 29.53003 0.03166 0.00346
C 31.99162 32.75783 0.01713
C 33.18461 31.989 -0.01694
C 33.12912 30.5626 0.01428
C 30.72161 6.34893 0.01908
C 31.93247 29.87444 -0.02142
C 33.25041 27.69464 0.00026
C 33.22421 26.30866 0.00682
C 31.97347 25.56012 -0.01779
C 31.92123 24.11495 0.03794
C 33.13031 23.44483 0.01927
C 33.16909 22.0375 0.01574
C 31.95892 21.31916 -0.02383
C 31.97584 19.89522 -0.01429
C 33.21621 19.11415 -0.0136
C 31.99481 28.42299 0.0544
C 33.22571 17.74732 0.00594
C 29.4431 7.06148 0.01518
C 30.65907 9.20705 -0.03735
C 30.67777 30.57791 0.01324
C 29.48604 29.8233 0.0014
C 29.54045 28.3272 0.00924
C 30.76815 27.66716 0.02326
C 30.79047 26.20948 0.00261
C 29.46998 25.53895 0.03265
C 29.41153 24.21288 -0.02049
C 30.69028 23.45394 -0.01854
C 30.7639 22.05446 -0.01415
C 29.46964 8.49388 -0.00971
C 29.47434 21.40596 -0.03039
C 30.76402 19.17872 0.03531
C 30.71377 17.77293 -0.00669
C 29.58979 17.00596 0.0101
C 29.57298 15.53212 0.01705
C 30.76308 14.88955 -0.0405
C 30.8252 13.48354 -0.01303
C 29.60458 12.7573 -0.01461
C 29.47088 11.33326 -0.02155
C 30.6917 10.69274 -0.00944
C 29.55436 19.93461 0.01836
C 32.0049 17.03729 -0.02474
C 31.97104 15.6112 0.00369
C 33.2356 14.88227 0.00455
C 34.39613 21.2686 -0.02213
C 0.00956 19.85933 0.01951
C 1.24407 19.12929 -0.01678
C 1.25442 17.78189 0.01223
C 0.04141 17.07024 0.00648
C 0.00579 15.58995 0.02114
C 1.28428 14.97079 -0.02957
C 1.21112 13.47949 0.00343
C 0.04283 12.79002 -0.02656
C 1.20899 21.99507 0.02712
C 0.00445 11.28372 -0.02442
C 1.32029 9.16676 -0.00583
C 34.42834 8.56341 -0.02302
C 34.38187 7.10499 -0.02849
C 1.165 6.34876 0.02931
C 1.22368 4.91375 0.00628
C 34.40098 4.30928 -0.0345
C 34.39718 2.80925 -0.00931
C 1.20119 2.1431 -0.00939
C 1.20737 0.76645 -0.00468
C 1.24545 10.54897 -0.00027
C 1.14121 23.42133 0.00723
C 34.3955 24.14373 0.03076
C 34.39218 25.51219 -0.05239
C 33.16879 13.4765 -0.00644
C 31.98436 12.79971 -0.01839
C 31.93199 11.40551 0.00137
C 33.14004 10.71483 0.00199
C 33.16611 9.27151 0.04381
C 31.93726 8.57238 0.02806
C 31.94174 7.11875 0.01504
C 33.12897 6.38569 -0.00069
C 33.1741 4.99355 0.04926
C 31.949 4.26054 -0.03838
C 31.94921 2.83082 0.00349
C 33.19966 2.16345 -0.00323
C 33.22633 0.76922 -0.00841
C 31.97324 0.07039 0.0001
C 0.01308 32.66129 -0.02927
C 1.23125 31.92495 -0.01404
C 1.20793 30.52005 0.01027
C 34.37216 29.82271 0.01831
C 0.01289 28.39853 -0.01037
C 1.25805 27.68559 -0.00439
C 1.19549 26.20905 -0.00598
C 30.72413 32.04666 0.04266
C 3.66118 32.02531 0.03284
C 29.55371 32.68718 0.01177
C 28.27796 0.68454 0.01699
C 23.26901 6.40562 0.01852
C 23.27299 4.95881 -0.00381
C 22.07671 4.21895 0.03046
C 22.03504 2.78955 0.0296
C 23.36373 2.10553 0.03374
C 23.35951 0.70485 -0.02845
C 22.03989 0.05556 -0.03213
C 24.53878 32.64886 0.02239
C 25.76158 31.87847 0.01153
C 22.06885 7.11717 0.01126
C 25.80008 30.51073 0.02734
C 24.55263 28.31776 0.01515
C 25.83294 27.62194 -0.00225
C 25.82869 26.254 0.00071
C 24.61647 25.56652 -0.01107
C 24.57308 24.15417 -0.01586
C 25.7181 23.40804 -0.01971
C 25.82247 21.94918 -0.02118
C 24.63535 21.24884 0.00733
C 24.69255 19.89269 -0.00178
C 24.52507 29.75478 -0.0055
C 25.93646 19.18141 0.00768
C 22.0765 8.48883 -0.01185
C 23.30957 10.62279 -0.00478
C 23.36124 31.96725 0.00654
C 23.38125 30.50992 -0.00703
C 22.14939 29.77052 -0.04076
C 22.13431 28.31623 -0.00652
C 23.40281 27.56244 0.0058
C 23.39398 26.18099 -0.00865
C 22.10013 25.49013 0.00675
C 22.10325 24.08262 -0.00311
C 23.28595 23.41631 0.00742
C 23.3716 9.15624 -0.01662
C 23.37864 22.02694 -0.01594
C 22.18857 19.87669 -0.01154
C 23.42834 19.17495 -0.01721
C 23.37548 17.76177 -0.02422
C 22.14463 17.06273 0.01277
C 22.16085 15.64636 0.00096
C 23.45473 14.9029 -0.01527
C 23.39121 13.49668 0.01087
C 22.1571 12.78992 0.00199
C 22.13688 11.36236 0.01511
C 22.17615 21.28685 0.0106
C 25.80065 17.723 -0.0276
C 24.57043 17.05611 0.03005
C 24.62997 15.63775 -0.04078
C 28.24399 22.03426 -0.0032
C 27.09767 21.3518 0.00622
C 27.15392 19.85793 -0.02815
C 28.37305 19.17553 -0.00942
C 28.30062 17.72195 0.00487
C 27.04517 17.06257 0.00826
C 27.03626 15.57583 -0.00294
C 28.34132 14.941 0.00152
C 28.33152 13.46539 0.01257
C 28.15177 23.49689 -0.00037
C 27.1965 12.76571 0.02316
C 28.23268 10.61366 0.00194
C 28.2557 9.15955 -0.00621
C 26.99217 8.48894 0.02611
C 26.98738 7.08399 0.02198
C 28.20638 6.36451 0.01094
C 28.18449 4.94526 0.00235
C 27.02802 4.27884 0.01495
C 27.05972 2.84221 0.01259
C 28.28697 2.08446 0.01799
C 27.08386 11.37688 0.04185
C 26.9089 24.13384 -0.01654
C 27.02437 25.53082 -0.00218
C 28.23017 26.25267 -0.00802
C 25.86568 14.85554 0.02117
C 25.87937 13.44647 0.02737
C 24.57907 12.68761 -0.00498
C 24.55245 11.30058 0.00135
C 25.80837 10.7176 0.03102
C 25.7604 9.26772 0.02555
C 24.58891 8.49022 0.01423
C 24.56897 7.11602 -0.00285
C 25.7614 6.39277 -0.009
C 25.73576 4.94996 -0.01199
C 24.57577 4.21381 -0.00229
C 24.5703 2.81835 -0.00938
C 25.82042 2.11897 -0.0264
C 25.81088 0.72523 -0.01154
C 24.62147 0.01258 0.00684
C 27.01358 32.66751 -0.01052
C 28.25257 31.92772 -0.01679
C 28.25451 30.4875 0.00367
C 26.97948 29.78987 0.04306
C 27.0114 28.38543 0.00996
C 28.2325 27.66817 0.00195
C 27.06681 34.03067 -0.00416
C 2.42766 32.70114 0.04505
