345
Graphene
C 34.33037 0.06012 0.01295
C 9.73523 2.8521 0.02098
C 10.99848 2.08713 0.01848
C 10.96657 0.72646 -0.00619
C 9.7726 0.07395 -0.02162
C 12.1108 32.44816 0.00889
C 13.39327 32.03452 -0.00481
C 13.54262 17.69804 0.00979
C 12.25698 17.0058 0.01443
C 12.29693 15.6238 0.03505
C 13.55311 14.95755 -0.02815
C 13.58502 13.51129 -0.04147
C 12.40246 12.73001 -0.05302
C 12.38093 11.26305 0.00213
C 13.58515 10.54781 -0.00066
C 13.65957 9.15217 -0.00289
C 12.39125 8.54322 0.00028
C 12.35377 7.12785 -0.02213
C 9.89759 4.26085 -0.03113
C 11.08438 5.01359 0.0351
C 11.13608 6.46147 0.00422
C 9.82435 7.13004 0.00798
C 8.50604 2.23425 0.03542
C 8.52096 0.80565 0.02299
C 7.36467 0.0325 0.00244
C 9.68194 32.74424 -0.01717
C 10.66288 31.74204 0.05265
C 10.19399 30.59079 -0.01952
C 9.82257 19.78083 -0.02813
C 11.04677 19.11369 0.00374
C 13.5809 6.36161 0.03698
C 11.00763 17.81396 0.00052
C 9.86501 15.56647 0.01965
C 11.07863 14.92063 0.02058
C 11.14066 13.46209 -0.01957
C 9.87023 12.87029 -0.0108
C 9.89606 11.4085 -0.00368
C 11.10799 10.63793 -0.02696
C 11.0968 9.17622 -0.00114
C 9.8677 8.54027 0.00228
C 9.82917 16.95767 -0.03682
C 7.29762 2.92694 0.01416
C 13.51355 4.97119 -0.00109
C 12.2045 2.78155 0.03338
C 14.76506 34.01108 0.00654
C 17.23904 32.78882 -0.00703
C 18.42931 31.98379 -0.04076
C 18.19416 30.59644 -0.00652
C 18.2804 19.04278 0.0058
C 18.47116 17.74631 -0.00865
C 17.20325 17.03645 0.00675
C 17.11083 15.56064 -0.00311
C 18.36784 14.98875 0.00742
C 18.45791 13.60025 -0.01594
C 17.39129 12.76252 0.0106
C 17.34654 11.36757 -0.01154
C 17.19035 8.43546 -0.01721
C 17.09843 7.06377 -0.02422
C 17.2492 4.24908 0.01277
C 17.1779 2.86366 0.00096
C 18.45189 2.26652 -0.01527
C 16.00313 0.71266 -0.04422
C 15.87759 2.12828 -0.02957
C 14.65842 2.87293 -0.00831
C 14.7118 4.27377 0.00364
C 13.45119 2.07916 -0.0258
C 13.4865 0.65308 -0.0331
C 12.15361 33.95198 -0.00316
C 14.74899 32.53941 0.02188
C 16.09315 31.96753 -0.01979
C 16.13058 17.81202 0.02691
C 14.82064 17.06736 -0.01581
C 14.8055 15.59517 0.01452
C 12.27951 4.17939 -0.00491
C 15.96454 14.87012 0.04892
C 14.76522 12.72606 -0.03557
C 14.73421 11.30274 0.03754
C 16.01423 10.68694 0.01739
C 16.06207 9.21254 0.00755
C 14.81507 8.49925 -0.0054
C 14.83468 7.00243 0.00667
C 16.02702 6.3413 0.00143
C 16.02437 4.88628 -0.017
C 16.02999 13.42293 -0.00111
C 7.30746 4.32327 0.01945
C 8.60023 5.03646 -0.01454
C 8.60957 6.46827 0.01241
C 2.44556 7.1266 0.00393
C 3.71038 6.45582 0.00895
C 3.6959 5.05351 0.00685
C 2.46733 4.37956 0.02888
C 2.43131 2.97353 -0.00482
C 3.65138 2.15052 -0.01384
C 3.59878 0.74368 0.03693
C 2.34235 0.05111 0.01745
C 4.85055 32.67385 0.00488
C 6.02591 31.9566 -0.01004
C 6.11222 30.50563 -0.02896
C 4.85811 29.824 -0.00131
C 4.79371 28.4247 -0.01118
C 6.13558 27.82815 -0.014
C 6.11637 26.30028 0.02147
C 4.86279 25.60401 0.00373
C 4.87841 24.18843 -0.00191
C 2.492 8.53229 0.0288
C 3.71263 9.18382 -0.0008
C 3.68385 10.70038 -0.01362
C 2.41963 11.35345 -0.00892
C 3.64722 30.48805 0.01227
C 2.34593 29.79385 0.00873
C 2.36851 28.35119 -0.00049
C 3.64624 27.62579 0.00848
C 3.63574 26.19489 -0.01303
C 2.40906 25.56066 -0.01378
C 2.43346 24.16506 0.02635
C 3.69181 23.47219 0.0127
C 6.02723 23.44125 0.00438
C 3.74322 22.01406 0.01396
C 2.36472 19.92422 -0.01142
C 3.67313 19.21124 -0.00562
C 3.68685 17.8058 -0.00494
C 2.43047 16.99455 0.00054
C 2.43189 15.62433 0.03007
C 3.6716 14.87914 -0.00095
C 3.63554 13.4364 0.01572
C 2.38517 12.78017 -0.04848
C 2.4588 21.36988 0.01849
C 6.16001 22.03734 0.01291
C 4.88706 21.27024 0.00093
C 4.84633 19.83263 0.00057
C 7.46338 29.8593 -0.01536
C 7.30588 28.50928 -0.02689
C 7.25001 25.54084 -0.01046
C 7.18478 24.17164 -0.00891
C 7.33837 21.33851 0.02819
C 7.32609 19.93205 0.00165
C 8.61831 19.26808 -0.02971
C 8.66554 17.78511 0.02894
C 8.71295 30.68529 0.03101
C 7.42634 17.11724 -0.01789
C 8.58237 14.95785 -0.00925
C 8.63238 13.52116 0.01877
C 7.44105 12.75917 0.01363
C 7.46904 11.30868 -0.02162
C 8.75871 10.6262 0.00415
C 8.61863 9.21688 -0.0014
C 7.37813 8.54449 0.02162
C 7.41301 7.08991 0.0076
C 7.36463 15.77416 0.00444
C 18.45099 0.85609 0.01087
C 8.48645 32.07188 -0.00428
C 4.86738 0.06254 0.00985
C 6.08603 19.27165 -0.01634
C 6.15348 17.83617 -0.00334
C 4.91832 17.05037 0.02339
C 4.90986 15.65007 0.01641
C 6.16059 14.94518 -0.00719
C 6.25217 13.56324 0.01364
C 4.87149 12.82774 -0.01062
C 4.93136 11.42854 -0.00033
C 7.24231 32.68764 -0.02245
C 6.19733 10.65312 0.03589
C 4.9234 8.59806 0.0402
C 4.93444 7.18007 0.00572
C 6.15208 6.46521 0.03592
C 6.11368 4.98546 0.00406
C 4.88853 4.27452 0.00943
C 4.81133 2.83916 0.02841
C 6.13377 2.1022 -0.01111
C 6.10384 0.66893 -0.01275
C 6.17981 9.25534 -0.02759
C 3.67547 31.96404 -0.03337
C 17.20485 0.11942 0.00199
C 20.82906 31.96061 -0.00478
C 31.82787 29.85739 -0.02142
C 31.90539 28.44425 0.0544
C 33.14678 27.69911 0.00026
C 33.13435 26.27408 0.00682
C 31.90747 25.58488 -0.01779
C 31.91218 24.0663 0.03794
C 33.17179 23.47929 0.01927
C 33.13534 22.06271 0.01574
C 31.93946 21.32123 -0.02383
C 31.86724 19.90125 -0.01429
C 33.09466 19.15833 -0.0136
C 33.18708 17.75472 0.00594
C 31.88227 16.9704 -0.02474
C 31.99146 15.6077 0.00369
C 33.14037 14.8675 0.00455
C 33.20902 13.46456 -0.00644
C 32.02701 12.774 -0.01839
C 33.06799 30.55022 0.01428
C 33.13256 32.04289 -0.01694
C 31.90694 32.68351 0.01713
C 29.55064 0.02933 0.00346
C 29.41674 25.59043 0.03531
C 29.48609 24.17876 -0.00669
C 30.69912 23.41954 0.0101
C 30.7471 22.0429 0.01705
C 29.47645 21.34216 -0.0405
C 29.46341 19.80489 -0.01303
C 30.70392 19.11193 -0.01461
C 30.64497 17.71454 -0.02155
C 31.79074 11.36993 0.00137
C 29.51143 16.9968 -0.00944
C 30.73788 14.80738 -0.00971
C 30.78547 13.43569 0.01518
C 29.66025 12.52051 0.01908
C 30.44547 11.01021 0.07705
C 30.89312 5.26227 0.0103
C 29.45144 2.76941 0.02108
C 30.76128 2.22963 0.00716
C 30.73841 0.76984 0.00307
C 29.51678 15.52923 -0.03735
C 30.60548 26.31622 0.01836
C 33.10149 10.62336 0.00199
C 31.99841 8.2798 0.02806
C 1.15637 17.76173 0.01223
C 0.00148 17.03006 0.00648
C 34.30558 15.67297 0.02114
C 1.1401 14.93858 -0.02957
C 1.15848 13.53004 0.00343
C 0.01902 12.81267 -0.02656
C 34.39764 11.26794 -0.02442
C 1.20845 10.666 -0.00027
C 1.24381 9.24136 -0.00583
C 34.35685 8.51848 -0.02302
C 34.3966 7.10039 -0.02849
C 1.23607 6.3925 0.02931
C 1.21352 4.99306 0.00628
C 34.40637 4.25502 -0.0345
C 34.37802 2.84255 -0.00931
C 1.15153 2.18636 -0.00939
C 1.09749 0.83322 -0.00468
C 1.16871 19.17239 -0.01678
C 34.34837 19.90452 0.01951
C 34.36179 21.29694 -0.02213
C 1.16808 22.01696 0.02712
C 31.8892 6.92148 0.01504
C 33.10836 6.3894 -0.00069
C 33.23347 4.99287 0.04926
C 31.89866 4.36942 -0.03838
C 31.98475 2.85718 0.00349
C 33.19203 2.17395 -0.00323
C 33.10349 0.81491 -0.00841
C 31.9604 0.07056 0.0001
C 33.05029 9.19161 0.04381
C 0.01008 32.62772 -0.02927
C 1.15858 30.55166 0.01027
C 34.31701 29.86686 0.01831
C 34.42351 28.43485 -0.01037
C 1.16834 27.67281 -0.00439
C 1.21928 26.27287 -0.00598
C 34.40819 25.56709 -0.05239
C 0.02596 24.17511 0.03076
C 1.20697 23.45952 0.00723
C 1.25967 31.95735 -0.01404
C 30.7286 27.71883 -0.03039
C 29.54176 28.47596 -0.01415
C 29.49202 29.85285 -0.01854
C 21.94709 28.32216 -0.00178
C 23.27942 27.6983 0.00768
C 23.38762 26.27037 -0.0276
C 22.17885 25.59162 0.03005
C 22.15357 24.17804 -0.04078
C 23.31853 23.38128 0.02117
C 23.29525 21.99533 0.02737
C 22.05771 21.28553 -0.00498
C 22.02682 19.86742 0.00135
C 23.2962 19.14612 0.03102
C 23.32562 17.70981 0.02555
C 22.05536 17.00525 0.01423
C 22.06232 15.58273 -0.00285
C 23.30896 15.16478 -0.009
C 23.32629 0.75147 -0.01199
C 22.16101 34.02461 -0.00229
C 24.55649 32.70593 -0.00938
C 21.95388 29.75471 0.00733
C 23.29956 30.50413 -0.02118
C 23.37493 31.89776 -0.01971
C 22.12198 32.64596 -0.01586
C 20.78709 30.55903 -0.01662
C 19.44788 29.88841 -0.01185
C 19.60776 28.45976 0.01126
C 20.6822 27.58866 0.01852
C 20.9292 26.14936 -0.00381
C 20.94937 23.57455 0.03046
C 20.79096 22.12503 0.0296
C 19.68179 21.31024 0.03374
C 25.8159 32.04951 -0.0264
C 19.60316 19.86549 -0.02845
C 20.88956 17.77784 0.02239
C 19.70582 17.03472 0.01153
C 19.69722 15.60035 0.02734
C 20.80165 14.85549 -0.0055
C 19.72596 2.74763 0.01515
C 20.90651 2.08585 -0.00225
C 20.94891 0.69783 0.00071
C 19.62779 0.04439 -0.01107
C 20.84885 19.20006 -0.03213
C 25.79081 30.64122 -0.01154
C 24.57644 29.85685 0.00684
C 24.51713 28.43147 -0.01052
C 26.94089 25.6021 0.02611
C 26.99061 24.23008 0.02198
C 28.21995 23.48392 0.01094
C 28.30065 22.02266 0.00235
C 27.05859 21.37794 0.01495
C 27.05863 19.908 0.01259
C 28.24694 19.10846 0.01799
C 28.22708 17.70015 0.01699
C 28.13641 26.34663 -0.00621
C 27.06755 16.96448 -0.00416
C 28.28589 14.82135 0.04266
C 28.47971 13.21741 0.01324
C 28.36834 2.05938 0.0014
C 28.30004 0.71099 0.00924
C 27.07323 0.05542 0.02326
C 29.40969 32.69762 0.00261
C 30.69689 31.98114 0.03265
C 30.68331 30.6005 -0.02049
C 27.04537 15.55403 0.01177
C 19.65456 32.69176 0.01511
C 28.21233 27.74115 0.00194
C 27.00888 29.85043 0.02316
C 25.66738 27.64231 -0.01679
C 25.69282 26.27252 0.00367
C 24.55464 25.54318 0.04306
C 24.55964 24.13062 0.00996
C 25.8151 23.43823 0.00195
C 25.71821 22.04792 -0.00802
C 24.56534 21.26613 -0.00218
C 24.52387 19.9078 -0.01654
C 26.9179 28.35323 0.04185
C 25.82309 19.25769 -0.00037
C 24.61916 17.03419 0.00622
C 24.65818 15.53804 -0.02815
C 25.86125 14.82069 -0.00942
C 25.92679 0.76664 0.00487
C 24.62675 0.08361 0.00826
C 27.03187 32.73737 -0.00294
C 28.20161 31.99495 0.00152
C 28.19443 30.60156 0.01257
C 25.83297 17.75242 -0.0032
C 2.46053 32.70357 -0.00966
