287
Graphene
C 0.01191 0.04175 0.01295
C 7.41202 2.81532 0.00364
C 8.56586 2.20796 -0.00831
C 8.60687 0.77251 -0.02957
C 7.41856 34.06814 -0.04422
C 9.90377 32.71819 0.00654
C 11.1022 31.99586 -0.00703
C 7.31455 4.23576 -0.017
C 11.06327 30.505 -0.04076
C 9.83476 28.29012 0.0058
C 11.04645 27.58712 -0.00865
C 11.14352 26.37754 0.00675
C 9.90935 25.51733 -0.00311
C 9.91286 24.10528 0.00742
C 11.1352 23.27406 -0.01594
C 9.78887 29.89015 -0.00652
C 11.09016 22.00451 0.0106
C 8.58832 4.901 0.00143
C 7.30786 7.07703 -0.0054
C 8.67005 21.93481 -0.0258
C 7.32286 21.28524 -0.0331
C 7.34038 19.90513 -0.00316
C 8.60392 19.13986 0.02188
C 8.57143 17.80218 -0.01979
C 7.31241 17.10211 0.02691
C 8.6139 6.41007 0.00667
C 7.39322 15.65006 -0.01581
C 8.64116 13.50068 0.04892
C 7.39282 12.78814 -0.00111
C 7.3625 11.36587 -0.03557
C 8.61646 10.62805 0.03754
C 8.66061 9.24415 0.01739
C 7.42267 8.59185 0.00755
C 8.58399 14.91913 0.01452
C 8.62152 23.46521 0.03338
C 9.88588 21.20973 -0.01154
C 11.08258 19.16005 -0.02422
C 12.34722 32.6712 0.01153
C 13.66859 31.94503 0.02734
C 12.24086 29.72658 -0.0055
C 12.32802 19.88791 0.01515
C 13.43352 19.18166 -0.00225
C 13.49786 17.7575 0.00071
C 9.84671 0.0199 0.02239
C 12.3641 17.04151 -0.01107
C 13.5335 14.93456 -0.01971
C 13.55185 13.52744 -0.02118
C 12.2654 12.8647 0.00733
C 12.25547 11.39414 -0.00178
C 13.50097 10.58341 0.00768
C 13.52679 9.18345 -0.0276
C 12.31866 15.66777 -0.01586
C 9.82117 19.8282 -0.01721
C 11.0359 0.73726 -0.03213
C 9.81976 2.87665 0.03374
C 11.1002 17.71054 0.01277
C 9.89433 17.10035 0.00096
C 9.8476 15.57184 -0.01527
C 11.08932 14.91194 0.01087
C 11.05574 13.48292 0.00199
C 9.8774 12.72042 0.01511
C 11.00422 2.14396 -0.02845
C 9.81423 11.34023 -0.00478
C 11.08471 9.1871 -0.01185
C 9.86798 8.46937 0.01126
C 9.81956 7.1211 0.01852
C 11.00825 6.37045 -0.00381
C 11.0339 4.97703 0.03046
C 9.77635 4.2924 0.0296
C 11.04536 10.67294 -0.01662
C 12.27917 8.53887 0.03005
C 7.39636 24.07945 -0.00491
C 8.62622 26.24796 0.03698
C 2.46747 11.38598 0.01877
C 3.67999 10.67291 0.01363
C 3.74409 9.24438 -0.02162
C 2.46681 8.52799 0.00415
C 2.45447 7.04615 -0.0014
C 3.66566 6.36052 0.02162
C 2.43193 12.77925 -0.00925
C 3.72768 4.9906 0.0076
C 2.43624 2.85742 -0.01454
C 3.65155 2.14836 0.01945
C 3.64164 0.73878 0.01416
C 2.44485 34.07298 0.03542
C 4.86697 32.66731 0.02299
C 6.14893 31.9737 0.00244
C 2.49807 4.23897 0.01241
C 6.11899 30.52056 -0.01717
C 3.68329 13.42105 0.00444
C 2.4093 15.61157 0.02894
C 3.6951 30.50622 0.02841
C 2.40458 29.8092 -0.01111
C 2.48583 28.36444 -0.01275
C 3.73481 27.72294 0.00985
C 3.63308 26.3336 -0.02245
C 2.48356 25.53406 -0.00428
C 3.64811 14.91542 -0.01789
C 2.43445 24.15839 0.03101
C 3.70034 22.07901 -0.02689
C 2.47915 21.24962 -0.01046
C 2.45298 19.90836 -0.00891
C 3.67245 19.20399 0.02819
C 3.65758 17.75716 0.00165
C 2.45401 17.04258 -0.02971
C 3.68152 23.50326 -0.01536
C 7.41002 25.47907 -0.00109
C 4.92211 29.85198 0.05265
C 6.18118 27.70119 -0.02813
C 4.90422 7.11707 -0.02162
C 6.07242 6.46527 0.00889
C 6.14609 5.00837 -0.00481
C 4.91836 4.23896 0.00979
C 4.87751 2.82693 0.01443
C 6.11267 2.1743 0.03505
C 4.96776 8.46666 -0.00619
C 6.21394 0.74413 -0.02815
C 7.37093 32.64659 -0.05302
C 8.69554 31.93896 0.00213
C 8.62097 30.51952 -0.00066
C 7.30992 29.80866 -0.00289
C 7.35301 28.49492 0.00028
C 8.60856 27.68721 -0.02213
C 4.95737 34.06832 -0.04147
C 4.91704 28.42617 -0.01952
C 6.21007 9.20386 0.01848
C 4.9028 11.30191 -0.03113
C 6.19886 26.22637 0.00374
C 4.81062 25.54323 0.00052
C 4.88611 24.21092 -0.03682
C 6.10148 23.46934 0.01965
C 6.1188 22.0362 0.02058
C 4.95328 21.34804 -0.01957
C 6.14055 10.54339 0.02098
C 4.96765 19.89779 -0.0108
C 6.15914 17.80597 -0.02696
C 4.91189 17.08739 -0.00114
C 4.89168 15.62691 0.00228
C 6.0948 14.86732 0.00798
C 6.13495 13.45979 0.00422
C 4.94631 12.75584 0.0351
C 6.15307 19.14285 -0.00368
C 3.68068 31.98367 0.00943
C 12.2904 7.16938 -0.04078
C 13.50118 5.00293 0.02737
C 33.27251 23.42391 -0.0136
C 33.25326 21.99972 0.00594
C 32.01532 21.40024 -0.02474
C 33.18841 18.94583 0.00369
C 33.20265 17.75893 0.00455
C 33.1585 14.82407 -0.00644
C 31.89746 24.09106 -0.01429
C 33.20434 13.55645 -0.01839
C 33.14934 10.70209 0.00199
C 33.18161 9.24908 0.04381
C 31.98951 8.48313 0.02806
C 31.94949 7.11818 0.01504
C 33.18585 6.43124 -0.00069
C 33.23254 5.00519 0.04926
C 31.94234 11.30442 0.00137
C 31.98863 4.28938 -0.03838
C 32.04102 25.59419 -0.02383
C 33.18008 27.70884 0.01927
C 29.51322 8.60261 0.0103
C 29.54917 7.09572 0.02108
C 30.75876 6.4454 0.00716
C 30.75125 5.00279 0.00307
C 29.56151 4.31606 0.00346
C 29.46144 2.92366 0.01713
C 33.1948 26.31003 0.01574
C 30.747 2.16111 -0.01694
C 29.44856 34.04922 -0.02142
C 31.9859 32.67805 0.0544
C 33.23515 31.94435 0.00026
C 33.19192 30.51875 0.00682
C 31.93983 29.81181 -0.01779
C 31.9551 28.54192 0.03794
C 30.77025 0.71623 0.01428
C 30.62067 9.18865 0.07705
C 31.93185 2.88603 0.00349
C 33.20942 0.67312 -0.00841
C 1.22996 14.8928 -0.02957
C 1.16326 13.54239 0.00343
C 34.37084 12.81716 -0.02656
C 0.05736 11.41845 -0.02442
C 1.24465 10.61849 -0.00027
C 1.21157 9.25697 -0.00583
C 34.35608 15.60336 0.02114
C 34.42737 8.5421 -0.02302
C 1.19282 6.41992 0.02931
C 1.12716 4.95302 0.00628
C 34.36229 4.23923 -0.0345
C 34.39767 2.75466 -0.00931
C 1.23572 2.1726 -0.00939
C 1.1799 0.72614 -0.00468
C 34.43094 7.15281 -0.02849
C 33.19182 2.07758 -0.00323
C 34.41902 17.01162 0.00648
C 1.22683 19.20222 -0.01678
C 32.00809 34.06749 0.0001
C 0.02334 32.72043 -0.02927
C 1.2047 31.93354 -0.01404
C 1.1998 30.5406 0.01027
C 34.40304 29.83613 0.01831
C 34.36615 28.45377 -0.01037
C 1.27304 17.76117 0.01223
C 1.24541 27.6688 -0.00439
C 0.06066 25.54165 -0.05239
C 34.41956 24.18438 0.03076
C 1.21373 23.4673 0.00723
C 1.2435 22.02021 0.02712
C 34.42456 21.28697 -0.02213
C 34.39975 19.85645 0.01951
C 1.21363 26.2864 -0.00598
C 13.5539 6.45751 0.02117
C 30.7715 23.31952 0.01908
C 29.62389 32.57187 -0.00971
C 14.76202 4.29496 0.00195
C 14.75338 2.88856 -0.00802
C 16.0001 2.10215 -0.00218
C 15.93239 0.73106 -0.01654
C 14.8136 34.01798 -0.00037
C 17.23881 11.25144 -0.0032
C 15.96109 5.00604 0.00996
C 18.29272 10.63712 0.00622
C 17.15767 8.53879 -0.00942
C 17.21321 7.10795 0.00487
C 18.45095 6.34301 0.00826
C 18.48494 4.94695 -0.00294
C 17.21423 4.30689 0.00152
C 17.28765 2.8282 0.01257
C 18.47491 9.14493 -0.02815
C 18.46525 2.13547 0.02316
C 16.01345 6.37227 0.04306
C 14.71327 8.51588 -0.01679
C 12.31374 4.25383 -0.00498
C 12.2928 2.85874 0.00135
C 13.51128 2.15454 0.03102
C 13.54607 0.76856 0.02555
C 12.2842 0.00818 0.01423
C 14.75487 32.66878 -0.00285
C 14.72479 7.1322 0.00367
C 14.72212 17.04689 -0.009
C 15.96173 14.80439 -0.00229
C 16.05057 13.63518 -0.00938
C 14.82279 12.78024 -0.0264
C 14.71015 11.31553 -0.01154
C 15.97823 10.69795 0.00684
C 15.99331 9.24588 -0.01052
C 14.82652 15.74181 -0.01199
C 30.6548 31.87991 0.01518
C 18.39321 0.63567 0.04185
C 19.65411 8.49802 -0.00621
C 25.90275 4.95225 -0.01854
C 24.55227 4.2268 -0.01415
C 24.54798 2.84725 -0.03039
C 25.799 2.09012 0.01836
C 25.78948 0.64611 0.03531
C 24.58136 34.00223 -0.00669
C 25.82441 6.49128 -0.02049
C 27.07452 7.13904 0.0101
C 28.30084 4.9655 -0.0405
C 27.0706 4.24836 -0.01303
C 26.99023 2.79508 -0.01461
C 28.20216 2.15577 -0.02155
C 28.2808 0.72928 -0.00944
C 27.11085 34.06444 -0.03735
C 28.293 6.39364 0.01705
C 17.13851 0.07464 0.00194
C 24.58961 7.08541 0.03265
C 23.36261 0.71514 0.02326
C 19.64531 7.12687 0.02611
C 20.87561 6.40844 0.02198
C 20.90771 5.0143 0.01094
C 19.69963 4.26159 0.00235
C 19.69024 2.83993 0.01495
C 20.88065 2.10606 0.01259
C 22.10424 0.01708 0.00261
C 20.86489 0.67713 0.01799
C 22.09583 7.17209 -0.00416
C 23.35538 6.35821 0.01177
C 23.33872 4.91758 0.04266
C 22.08429 4.24275 0.01324
C 22.13243 2.85218 0.0014
C 23.41625 2.14631 0.00924
C 19.58443 34.00495 0.01699
C 2.41872 32.65785 0.00406
