442
Graphene
C 0.00881 0.02824 0.01295
C 12.35494 12.76796 0.00057
C 12.25623 11.42589 -0.01634
C 13.52728 10.69518 -0.00334
C 13.56422 9.22619 0.02339
C 12.35946 8.58132 0.01641
C 12.32554 7.14384 -0.00719
C 13.47399 6.36826 0.01364
C 13.4927 4.96405 -0.01062
C 12.26213 4.16039 -0.00033
C 12.28536 2.81318 0.03589
C 13.57312 2.14875 -0.02759
C 13.56296 0.6816 0.0402
C 12.33769 34.06483 0.00572
C 14.78905 32.65988 0.03592
C 15.94615 32.0322 0.00406
C 15.98579 30.49953 0.00943
C 14.74626 29.74859 0.02841
C 14.69007 28.35764 -0.01111
C 16.04607 27.64177 -0.01275
C 15.93877 26.25542 0.00985
C 14.72977 25.60148 -0.02245
C 14.75386 24.11849 -0.00428
C 15.95002 23.47025 0.03101
C 13.46168 13.54838 0.00093
C 13.54658 14.95705 0.01291
C 12.33493 15.65212 0.00438
C 12.32755 17.07737 -0.00191
C 9.86299 8.51465 0.03007
C 9.8221 7.10081 -0.00095
C 11.07559 6.39015 0.01572
C 11.08256 4.99093 -0.04848
C 9.84705 4.33512 -0.00892
C 9.79976 2.86211 -0.01362
C 11.03195 2.20893 -0.0008
C 11.0943 0.65787 0.0288
C 9.85632 0.00052 0.00393
C 12.33277 32.6901 0.00895
C 13.60453 31.94861 0.00685
C 15.95794 21.94147 -0.01536
C 13.51707 30.55727 0.02888
C 12.30342 28.35048 -0.01384
C 13.45949 27.65466 0.03693
C 13.54003 26.2512 0.01745
C 12.36056 25.56782 0.00488
C 12.27348 24.1759 -0.01004
C 13.52905 23.47911 -0.02896
C 13.48523 22.12067 -0.00131
C 12.30196 21.32316 -0.01118
C 12.29419 19.82592 -0.014
C 13.53757 19.15367 0.02147
C 13.54233 17.81291 0.00373
C 12.29289 29.79032 -0.00482
C 11.04735 9.23547 0.00054
C 14.72895 21.33524 -0.02689
C 16.02588 19.14436 -0.00891
C 18.509 22.0749 0.01965
C 17.22433 21.25599 0.02058
C 17.24331 19.87366 -0.01957
C 18.45716 19.15424 -0.0108
C 18.48493 17.70001 -0.00368
C 17.17181 17.02684 -0.02696
C 17.19511 15.58992 -0.00114
C 18.47184 14.87232 0.00228
C 18.46043 13.45268 0.00798
C 17.18713 12.8289 0.00422
C 17.16502 11.34791 0.0351
C 18.40578 10.65295 -0.03113
C 18.38255 9.26202 0.02098
C 17.20402 8.54713 0.01848
C 17.2038 7.12116 -0.00619
C 18.47109 6.36605 -0.02162
C 18.45721 4.9709 0.00889
C 17.21571 4.29452 -0.00481
C 17.21253 2.87576 0.00979
C 18.48531 2.15389 0.01443
C 18.43984 0.71544 0.03505
C 17.21394 34.03935 -0.02815
C 19.65383 32.65498 -0.04147
C 18.44275 23.43176 -0.03682
C 17.24809 24.16052 0.00052
C 17.17834 25.54732 0.00374
C 18.4053 26.26025 -0.02813
C 15.95869 17.75803 0.02819
C 14.75363 17.04176 0.00165
C 14.70324 15.63895 -0.02971
C 15.9734 14.93531 0.02894
C 16.00394 13.48964 -0.01789
C 14.72338 12.76893 0.00444
C 14.74673 11.30824 -0.00925
C 15.94845 10.61929 0.01877
C 16.00011 9.19892 0.01363
C 14.71947 8.48785 -0.02162
C 14.76143 7.08192 0.00415
C 14.82708 19.90384 -0.01046
C 15.95814 6.4582 -0.0014
C 14.78329 4.22071 0.0076
C 14.73016 2.83798 0.01241
C 15.97161 2.13477 -0.01454
C 15.99058 0.75287 0.01945
C 14.76644 34.043 0.01416
C 17.19159 32.67343 0.03542
C 18.43095 31.97375 0.02299
C 18.41624 30.53358 0.00244
C 17.21486 29.82845 -0.01717
C 17.22792 28.44771 0.05265
C 18.46393 27.62445 -0.01952
C 15.99723 5.01472 0.02162
C 11.08305 10.65579 -0.00494
C 9.8519 11.36868 -0.00562
C 9.79216 12.85687 -0.01142
C 3.72656 0.72274 0.03278
C 2.45375 34.04245 -0.00177
C 4.88429 32.64295 0.04421
C 6.10691 31.98524 0.00088
C 6.18459 30.49782 0.00828
C 4.96852 29.85378 -0.02375
C 4.91683 28.39136 0.00558
C 6.22819 27.66956 -0.0059
C 6.16079 26.24994 -0.01386
C 4.85406 25.5473 -0.02805
C 4.90524 24.22174 0.00081
C 6.15902 23.44857 0.00245
C 6.18716 17.71274 0.02728
C 4.89604 17.07269 -0.00039
C 4.95429 15.60083 0.0064
C 6.11131 14.85812 0.00211
C 6.20814 13.44685 -0.00449
C 4.84181 12.73843 -0.01979
C 4.87747 11.42586 0.02784
C 6.08857 10.69371 -0.01977
C 6.1322 9.24594 -0.00561
C 4.95993 8.55378 0.00208
C 4.92992 7.0303 0.01707
C 3.75967 2.13587 0.01138
C 2.51743 2.87725 -0.00407
C 2.44829 4.28586 -0.01299
C 3.6717 4.96035 -0.0154
C 3.6474 30.4695 -0.00374
C 2.44007 29.78978 -0.0213
C 2.50454 28.3971 0.01116
C 3.71232 27.66404 -0.0005
C 3.67684 26.29851 -0.00018
C 2.46816 25.6108 0.01073
C 2.42746 24.13866 0.01984
C 3.75909 23.40668 0.00535
C 3.7648 22.01529 -0.00198
C 2.50179 21.37408 -0.00012
C 2.43574 19.77524 -0.04306
C 6.15128 6.39372 0.02769
C 3.62005 19.15897 -0.03672
C 2.39985 16.99289 0.00267
C 2.45587 15.62069 0.00787
C 3.66296 14.94011 0.02426
C 3.67536 13.52007 0.01218
C 2.4888 12.73017 -0.01471
C 2.43367 11.38488 -0.02827
C 3.66847 10.67333 0.01078
C 3.72895 9.25002 -0.00112
C 2.46285 8.48597 0.03345
C 2.47358 7.06934 0.00748
C 3.72945 6.40074 0.00662
C 3.67125 17.76725 0.01913
C 6.13378 5.013 -0.03291
C 4.97297 4.2473 -0.04999
C 4.94539 2.8842 0.04505
C 7.37798 4.28397 -0.00094
C 7.39401 2.87275 0.02322
C 8.56219 2.20136 -0.00725
C 8.58774 0.75898 -0.05697
C 7.39081 0.02912 0.01087
C 9.77446 32.66879 -0.01343
C 11.07112 31.99936 0.00988
C 11.07299 30.53694 0.0276
C 9.84337 29.82391 0.01305
C 9.80327 28.45461 -0.00077
C 11.02346 27.74054 0.03368
C 8.63077 4.97661 -0.02566
C 11.00975 26.26596 -0.02929
C 9.79464 24.184 -0.03337
C 11.05712 23.41185 0.01227
C 11.11486 22.00515 0.00873
C 9.79514 21.35182 -0.00049
C 9.79344 19.89669 0.00848
C 11.11266 19.22656 -0.01303
C 11.09376 17.72687 -0.01378
C 9.84195 17.06846 0.02635
C 9.79414 15.61972 0.0127
C 11.08622 14.92258 0.01396
C 11.05511 13.53977 0.01849
C 9.74865 25.57058 -0.00966
C 20.84761 31.95397 -0.05302
C 8.58848 6.33178 -0.03113
C 7.39781 8.58076 -0.00643
C 6.09348 2.11154 0.03284
C 6.1444 0.73314 -0.04307
C 4.91751 34.03466 0.03189
C 7.36149 32.67008 0.00031
C 8.58952 31.98843 -0.003
C 8.63731 30.55104 0.01402
C 7.40362 29.88377 0.02379
C 7.36666 28.4122 0.00907
C 8.58859 27.70858 0.00643
C 8.57613 26.2832 -0.01509
C 7.32607 25.60315 0.03267
C 7.42713 7.11977 0.017
C 7.39442 24.0912 0.02374
C 8.68603 21.99512 0.0073
C 8.59915 19.19203 0.0174
C 8.60006 17.78395 0.03828
C 7.3912 17.04772 0.01226
C 7.33087 15.61845 -0.00279
C 8.59419 14.9097 0.01996
C 8.59763 13.53297 -0.03996
C 7.43603 12.81231 0.01465
C 7.37742 11.28174 -0.00074
C 8.65189 10.61427 -0.00518
C 8.65006 9.24453 0.0086
C 8.61466 23.45489 0.00402
C 20.89848 30.47957 0.00213
C 19.6214 29.82096 -0.00066
C 19.72356 28.34429 -0.00289
C 29.48204 15.57053 0.01705
C 30.73366 14.93553 -0.0405
C 30.71123 13.47314 -0.01303
C 29.46781 12.81649 -0.01461
C 29.50628 11.36471 -0.02155
C 30.75784 10.59223 -0.00944
C 30.77547 9.21584 -0.03735
C 29.51149 8.55492 -0.00971
C 29.58014 7.08596 0.01518
C 30.75347 6.32886 0.01908
C 30.75818 4.97698 0.07705
C 29.54375 4.23616 0.0103
C 29.48452 2.82255 0.02108
C 30.75897 2.10481 0.00716
C 30.74102 0.70934 0.00307
C 29.4949 0.00343 0.00346
C 31.98588 32.72209 0.01713
C 33.19206 31.95889 -0.01694
C 33.24436 30.58036 0.01428
C 31.93994 29.84088 -0.02142
C 31.99386 28.40147 0.0544
C 33.20934 27.69613 0.00026
C 33.23952 26.32472 0.00682
C 29.53401 17.02219 0.0101
C 30.71893 17.69105 -0.00669
C 30.72872 19.18535 0.03531
C 29.51678 19.88593 0.01836
C 27.08779 11.3938 0.04185
C 28.25313 10.57785 0.00194
C 28.24564 9.20725 -0.00621
C 27.04247 8.51922 0.02611
C 27.11776 7.10269 0.02198
C 28.24335 6.34761 0.01094
C 28.23183 4.97167 0.00235
C 27.03972 4.21138 0.01495
C 27.02687 2.83124 0.01259
C 28.27276 2.07784 0.01799
C 28.28061 0.75319 0.01699
C 31.98003 25.60072 -0.01779
C 27.05888 34.06847 -0.00416
C 30.75264 31.92869 0.04266
C 30.69382 30.49233 0.01324
C 29.44784 29.82622 0.0014
C 29.52151 28.40624 0.00924
C 30.79731 27.62945 0.02326
C 30.73639 26.24212 0.00261
C 29.47279 25.57627 0.03265
C 29.51134 24.14142 -0.02049
C 30.74294 23.50168 -0.01854
C 30.72911 22.04943 -0.01415
C 29.50428 21.30614 -0.03039
C 29.51359 32.69397 0.01177
C 32.0055 24.1543 0.03794
C 33.22921 23.4247 0.01927
C 33.1985 21.97263 0.01574
C 34.40694 25.56806 -0.05239
C 34.40679 24.17386 0.03076
C 1.20425 23.51735 0.00723
C 1.22354 21.98096 0.02712
C 34.42658 21.26258 -0.02213
C 34.36602 19.86744 0.01951
C 1.21963 19.1877 -0.01678
C 1.25709 17.74368 0.01223
C 34.36008 16.96746 0.00648
C 34.39838 15.59892 0.02114
C 1.24524 14.92036 -0.02957
C 1.22034 26.22099 -0.00598
C 1.20072 13.50921 0.00343
C 0.0072 11.31461 -0.02442
C 1.23192 10.65622 -0.00027
C 1.26887 9.24358 -0.00583
C 34.41208 8.50139 -0.02302
C 0.01063 7.04091 -0.02849
C 1.20657 6.34527 0.02931
C 1.18186 4.93676 0.00628
C 0.00208 4.2363 -0.0345
C 0.05549 2.79977 -0.00931
C 1.25388 2.17266 -0.00939
C 1.17423 0.71329 -0.00468
C 34.3768 12.74068 -0.02656
C 27.05956 12.71365 0.02316
C 1.19669 27.69406 -0.00439
C 0.04394 29.81958 0.01831
C 32.00674 21.29994 -0.02383
C 31.87805 19.8997 -0.01429
C 33.13 19.12045 -0.0136
C 33.20391 17.73791 0.00594
C 31.98148 17.0134 -0.02474
C 32.03648 15.55836 0.00369
C 33.25766 14.83671 0.00455
C 33.24242 13.456 -0.00644
C 31.95105 12.78081 -0.01839
C 31.98487 11.28052 0.00137
C 33.15692 10.6074 0.00199
C 34.41847 28.43545 -0.01037
C 33.23577 9.17659 0.04381
C 32.0429 7.07617 0.01504
C 33.17591 6.35013 -0.00069
C 33.20025 4.95254 0.04926
C 31.98939 4.27544 -0.03838
C 31.98115 2.82697 0.00349
C 33.24618 2.13289 -0.00323
C 33.17373 0.69137 -0.00841
C 31.97215 0.01915 0.0001
C 0.04516 32.65202 -0.02927
C 1.2871 31.96656 -0.01404
C 1.26414 30.56519 0.01027
C 31.98117 8.55077 0.02806
C 3.7191 31.86646 -0.00141
C 28.26172 13.49591 0.01257
C 27.06885 15.65224 -0.00294
C 23.33487 32.03327 0.00654
C 23.3329 30.53145 -0.00703
C 22.1403 29.84057 -0.04076
C 22.1326 28.43414 -0.00652
C 23.36887 27.67923 0.0058
C 23.39634 26.28531 -0.00865
C 22.12555 25.62231 0.00675
C 22.13071 24.09417 -0.00311
C 23.39688 23.48003 0.00742
C 23.4101 22.00197 -0.01594
C 22.19725 21.26385 0.0106
C 22.0733 19.86101 -0.01154
C 23.37264 19.19007 -0.01721
C 23.35188 17.72978 -0.02422
C 22.25315 17.06471 0.01277
C 22.09304 15.63764 0.00096
C 23.343 14.88658 -0.01527
C 23.38923 13.45484 0.01087
C 22.04803 12.78033 0.00199
C 22.05385 11.3666 0.01511
C 23.31426 10.65402 -0.00478
C 23.32576 9.22658 -0.01662
C 22.16121 8.47338 -0.01185
C 22.03832 32.62806 -0.04422
C 19.67432 0.02032 -0.02957
C 20.88085 0.74234 -0.00831
C 20.88661 2.1229 0.00364
C 20.90375 27.7236 0.00028
C 20.90989 26.28026 -0.02213
C 19.67273 25.54082 0.03698
C 19.67238 24.1319 -0.00109
C 20.91393 23.32581 -0.00491
C 20.93352 21.98109 0.03338
C 19.6694 21.27593 -0.0258
C 19.66537 19.87398 -0.0331
C 20.95813 19.25149 -0.00316
C 20.92451 17.77112 0.02188
C 19.65854 16.997 -0.01979
C 22.14251 7.0514 0.01126
C 19.67349 15.65723 0.02691
C 20.85762 13.5151 0.01452
C 19.68179 12.75147 0.04892
C 19.7353 11.38612 -0.00111
C 20.92672 10.6501 -0.03557
C 20.90016 9.22876 0.03754
C 19.65579 8.4678 0.01739
C 19.67077 7.12751 0.00755
C 20.91833 6.38893 -0.0054
C 20.86637 4.95424 0.00667
C 19.64404 4.232 0.00143
C 19.6858 2.81852 -0.017
C 20.86663 14.9055 -0.01581
C 23.3855 6.36444 0.01852
C 23.37615 4.94172 -0.00381
C 22.12447 4.3116 0.03046
C 24.63987 7.12145 -0.00285
C 25.79717 6.37766 -0.009
C 25.83756 4.9316 -0.01199
C 24.6028 4.28802 -0.00229
C 24.61023 2.90629 -0.00938
C 25.83985 2.11372 -0.0264
C 25.82999 0.67899 -0.01154
C 24.68071 0.01793 0.00684
C 27.02571 32.68468 -0.01052
C 28.30594 31.96152 -0.01679
C 28.28768 30.56984 0.00367
C 24.58746 8.50495 0.01423
C 27.06818 29.75737 0.04306
C 28.23581 27.65326 0.00195
C 28.33699 26.26598 -0.00802
C 27.03665 25.56572 -0.00218
C 26.99518 24.17531 -0.01654
C 28.26949 23.41554 -0.00037
C 28.24966 22.01859 -0.0032
C 27.06751 21.27978 0.00622
C 26.99543 19.79461 -0.02815
C 28.25574 19.15333 -0.00942
C 28.27713 17.77552 0.00487
C 27.05915 17.10129 0.00826
C 27.02544 28.30611 0.00996
C 28.30716 14.90177 0.00152
C 25.809 9.27206 0.02555
C 24.58697 11.37256 0.00135
C 22.13854 2.89326 0.0296
C 23.38127 2.09536 0.03374
C 23.3809 0.66813 -0.02845
C 22.13983 34.06243 -0.03213
C 24.59947 32.68833 0.02239
C 25.83117 31.913 0.01153
C 25.84458 30.53394 0.02734
C 24.57215 29.80954 -0.0055
C 24.59697 28.43722 0.01515
C 25.77711 27.69086 -0.00225
C 25.76238 26.32707 0.00071
C 25.80102 10.61695 0.03102
C 24.53176 25.54602 -0.01107
C 25.77406 23.44013 -0.01971
C 25.80829 22.01554 -0.02118
C 24.62802 21.36079 0.00733
C 24.56062 19.85682 -0.00178
C 25.81533 19.19666 0.00768
C 25.79685 17.73507 -0.0276
C 24.60799 16.98846 0.03005
C 24.55839 15.63448 -0.04078
C 25.79962 14.96528 0.02117
C 25.89702 13.51161 0.02737
C 24.69458 12.79854 -0.00498
C 24.63603 24.16639 -0.01586
C 2.46397 32.62023 -0.03951
