325
Graphene
C 0.02148 0.02363 0.01295
C 9.8655 24.11129 -0.00066
C 11.03095 23.48439 -0.00289
C 11.10903 22.05984 0.00028
C 9.90113 21.26354 -0.02213
C 9.86327 19.93741 0.03698
C 9.86224 12.74447 -0.00109
C 9.78243 11.31027 -0.00491
C 9.80868 25.54139 0.00213
C 11.0168 10.53025 0.03338
C 9.82089 8.49663 -0.0331
C 9.86595 7.13353 -0.00316
C 11.09954 6.3631 0.02188
C 11.12259 4.9558 -0.01979
C 9.8897 4.2605 0.02691
C 9.82175 2.92221 -0.01581
C 11.07171 2.1004 0.01452
C 11.06668 9.16741 -0.0258
C 11.03426 0.66814 0.04892
C 11.12154 26.2498 -0.05302
C 9.78671 28.3681 -0.02815
C 7.36096 11.37443 -0.02696
C 8.60528 10.60151 -0.00114
C 8.57498 9.27443 0.00228
C 7.30019 8.57426 0.00798
C 7.373 7.15107 0.00422
C 8.63089 6.394 0.0351
C 8.62081 4.97062 -0.03113
C 11.09739 27.69471 -0.04147
C 7.36383 4.2621 0.02098
C 8.62947 2.13458 -0.00619
C 8.63735 0.74702 -0.02162
C 7.3957 0.07988 0.00889
C 9.80041 32.67928 -0.00481
C 11.02485 32.00613 0.00979
C 11.10679 30.47722 0.01443
C 9.84179 29.78807 0.03505
C 7.40084 2.85024 0.01848
C 9.91558 34.07613 -0.00111
C 12.26872 32.58475 -0.03557
C 13.56029 32.01182 0.03754
C 14.76519 4.23604 -0.01154
C 14.69131 2.83383 -0.01721
C 15.98315 2.11458 -0.02422
C 16.0664 0.69088 0.01277
C 14.75005 34.07524 0.00096
C 18.46165 9.23852 -0.01527
C 17.19346 8.59397 0.01087
C 15.97949 4.97179 0.0106
C 17.20536 7.01908 0.00199
C 18.44695 4.938 -0.00478
C 17.21653 4.29662 -0.01662
C 17.20893 2.80556 -0.01185
C 18.43907 2.13045 0.01126
C 18.42139 0.69141 0.01852
C 17.22789 34.04363 -0.00381
C 20.96138 9.27007 0.03046
C 18.43898 6.34456 0.01511
C 16.0209 6.36143 -0.01594
C 14.78253 7.08547 0.00742
C 14.79001 8.48129 -0.00311
C 12.24814 29.80789 0.01739
C 12.25497 24.12055 0.00755
C 12.32591 12.72656 -0.0054
C 12.31247 11.33024 0.00667
C 13.52 10.67015 0.00143
C 13.49832 9.22445 -0.017
C 12.27378 8.55615 0.00364
C 12.25083 7.15227 -0.00831
C 13.51507 6.43822 -0.02957
C 13.51036 5.00129 -0.04422
C 12.33462 4.23934 0.00654
C 12.3027 2.81335 -0.00703
C 13.54356 2.14673 -0.04076
C 13.55122 0.74561 -0.00652
C 12.34802 0.00712 0.0058
C 14.71337 32.6435 -0.00865
C 16.0007 9.17844 0.00675
C 7.361 12.75173 -0.00368
C 8.62264 13.49693 -0.0108
C 8.63061 14.93488 -0.01957
C 7.36796 15.60362 0.02058
C 2.4372 8.52969 0.00093
C 2.42284 7.11133 0.00057
C 3.68329 6.39352 -0.01634
C 3.65957 4.98453 -0.00334
C 2.46932 4.29391 0.02339
C 2.51432 2.84445 0.01641
C 3.68759 2.12895 -0.00719
C 3.67351 9.19058 0.01291
C 3.65667 0.71548 0.01364
C 4.92094 32.6498 -0.00033
C 6.09912 31.92676 0.03589
C 6.16696 30.50635 -0.02759
C 4.96116 29.84739 0.0402
C 4.88231 28.45659 0.00572
C 6.14785 27.67574 0.03592
C 6.11797 26.28595 0.00406
C 2.45801 0.03152 -0.01062
C 3.7189 10.68892 0.00438
C 2.47927 11.32668 -0.00191
C 2.45295 12.80469 0.00373
C 3.65286 30.57601 -0.0008
C 2.43742 29.82535 0.0288
C 2.46156 28.41763 0.00393
C 3.68522 27.74954 0.00895
C 3.70418 26.24097 0.00685
C 2.47804 25.57777 0.02888
C 2.47219 24.15506 -0.00482
C 3.68031 23.43028 -0.01384
C 3.63683 22.06228 0.03693
C 2.46341 21.31767 0.01745
C 2.43501 19.86938 0.00488
C 3.63583 19.1812 -0.01004
C 3.64438 17.80417 -0.02896
C 2.49587 17.0052 -0.00131
C 2.51627 15.62732 -0.01118
C 3.66348 14.88814 -0.014
C 3.75304 13.46716 0.02147
C 4.91842 25.55616 0.00943
C 19.62746 8.51759 0.0296
C 4.88102 24.22535 0.02841
C 6.15203 22.04267 -0.01275
C 7.40285 32.62678 0.0076
C 8.58538 31.96186 0.01241
C 8.66246 30.49819 -0.01454
C 7.34931 29.79315 0.01945
C 7.40302 28.40537 0.01416
C 8.51852 27.6485 0.03542
C 8.61497 26.3318 0.02299
C 4.88979 0.04552 0.02162
C 7.37068 25.56615 0.00244
C 8.65325 23.4463 0.05265
C 8.5971 21.91846 -0.01952
C 7.40402 21.30327 -0.02813
C 7.39595 19.91403 0.00374
C 8.60999 19.18666 0.00052
C 8.60381 17.75767 -0.03682
C 7.35967 16.99315 0.01965
C 7.37336 24.12311 -0.01717
C 6.18725 0.72429 -0.0014
C 6.14382 2.10377 0.00415
C 4.9248 2.85325 -0.02162
C 4.93139 21.36571 0.00985
C 4.87382 19.89776 -0.02245
C 6.18552 19.17444 -0.00428
C 6.19855 17.75053 0.03101
C 4.92528 17.07071 -0.01536
C 4.87604 15.52319 -0.02689
C 6.14658 14.89939 -0.01046
C 6.13838 13.49999 -0.00891
C 4.88734 12.72736 0.02819
C 4.9308 11.36292 0.00165
C 6.13865 10.68379 -0.02971
C 6.11956 9.25845 0.02894
C 4.93539 8.48237 -0.01789
C 4.89476 7.12779 0.00444
C 6.12739 6.41907 -0.00925
C 6.17513 4.99223 0.01877
C 4.92061 4.2495 0.01363
C 6.14678 23.4422 -0.01111
C 3.69993 31.98871 -0.01362
C 19.65936 7.07878 0.03374
C 20.87051 5.00832 -0.03213
C 33.22818 26.26552 0.00682
C 31.97879 25.59473 -0.01779
C 31.98008 24.176 0.03794
C 33.24904 23.46913 0.01927
C 33.17804 22.07571 0.01574
C 31.97229 21.34207 -0.02383
C 31.98948 19.90246 -0.01429
C 33.14924 27.70055 0.00026
C 33.21006 19.20645 -0.0136
C 31.99218 17.02588 -0.02474
C 32.00963 15.58896 0.00369
C 33.1973 14.92282 0.00455
C 33.19503 13.51787 -0.00644
C 31.97724 12.79251 -0.01839
C 31.90601 11.33801 0.00137
C 33.14307 10.68133 0.00199
C 33.1864 17.73438 0.00594
C 33.20118 9.22152 0.04381
C 31.94475 28.43778 0.0544
C 33.18057 30.54213 0.01428
C 30.79373 13.54791 -0.01303
C 29.5227 12.75619 -0.01461
C 29.52035 11.376 -0.02155
C 30.70241 10.63191 -0.00944
C 30.75076 9.24217 -0.03735
C 29.48457 8.55287 -0.00971
C 29.44625 7.09931 0.01518
C 31.93892 29.81725 -0.02142
C 30.72014 6.35771 0.01908
C 29.51402 4.30015 0.0103
C 29.47029 2.84444 0.02108
C 30.75298 2.15787 0.00716
C 30.74702 0.67069 0.00307
C 29.5039 34.05506 0.00346
C 31.95324 32.68107 0.01713
C 33.24027 31.94877 -0.01694
C 30.76427 5.02321 0.07705
C 31.9605 8.50562 0.02806
C 31.94729 7.11629 0.01504
C 33.18064 6.39325 -0.00069
C 34.37746 17.07007 0.00648
C 0.03446 15.60954 0.02114
C 1.24278 14.86881 -0.02957
C 1.27908 13.46819 0.00343
C 34.42889 12.78723 -0.02656
C 34.40709 11.38823 -0.02442
C 1.23556 10.67686 -0.00027
C 1.21149 17.73315 0.01223
C 1.22241 9.21545 -0.00583
C 34.40642 7.12728 -0.02849
C 1.25489 6.41087 0.02931
C 1.22614 4.88878 0.00628
C 0.02735 4.20205 -0.0345
C 0.02189 2.83451 -0.00931
C 1.25066 2.17339 -0.00939
C 1.25481 0.67527 -0.00468
C 34.37899 8.54069 -0.02302
C 1.27452 19.13427 -0.01678
C 34.39984 19.8474 0.01951
C 34.3962 21.32367 -0.02213
C 33.17833 4.94619 0.04926
C 31.94048 4.29885 -0.03838
C 31.9662 2.86502 0.00349
C 33.21002 2.07002 -0.00323
C 33.23341 0.68149 -0.00841
C 31.9746 0.02856 0.0001
C 0.05325 32.64577 -0.02927
C 1.23093 31.8923 -0.01404
C 1.24091 30.5297 0.01027
C 0.02975 29.79742 0.01831
C 34.40521 28.39904 -0.01037
C 1.24596 27.65827 -0.00439
C 1.23857 26.27661 -0.00598
C 34.41833 25.59373 -0.05239
C 0.01416 24.21649 0.03076
C 1.21212 23.45485 0.00723
C 1.2484 22.06906 0.02712
C 30.73047 14.94224 -0.0405
C 29.52396 15.64636 0.01705
C 29.5043 16.98969 0.0101
C 30.78683 17.77398 -0.00669
C 25.85981 30.52207 0.03102
C 24.53488 29.75308 0.02555
C 24.60749 28.42436 0.01423
C 25.82525 27.70134 -0.00285
C 25.84564 26.31366 -0.009
C 24.59075 25.45745 -0.01199
C 24.50457 11.32756 -0.00229
C 25.82185 31.96156 0.00135
C 25.89744 10.67345 -0.00938
C 24.55876 8.50404 -0.01154
C 24.53369 7.10558 0.00684
C 25.80421 6.33156 -0.01052
C 25.8168 4.95176 -0.01679
C 24.57486 4.22489 0.00367
C 24.60163 2.90604 0.04306
C 25.82275 2.17441 0.00996
C 25.81973 9.24184 -0.0264
C 24.62348 32.68013 -0.00498
C 22.09335 34.06341 0.02737
C 23.30165 0.72764 0.02117
C 19.684 4.31091 0.02239
C 19.72323 2.80225 0.01153
C 20.88867 2.10539 0.02734
C 20.85908 0.72968 -0.0055
C 19.68346 0.04538 0.01515
C 22.11549 32.73405 -0.00225
C 23.31029 31.98317 0.00071
C 23.33848 30.52695 -0.01107
C 23.41987 10.69855 -0.01586
C 23.37094 9.2491 -0.01971
C 22.13641 8.52397 -0.02118
C 22.09697 7.07449 0.00733
C 23.33693 6.36575 -0.00178
C 23.33145 4.98156 0.00768
C 22.11037 4.34167 -0.0276
C 22.12999 2.80388 0.03005
C 23.34102 2.10251 -0.04078
C 25.78054 0.70917 0.00195
C 20.89595 6.40524 -0.02845
C 24.63157 0.01856 -0.00802
C 28.21318 31.89502 -0.01654
C 28.25337 0.7001 0.01699
C 27.06915 0.00509 -0.00416
C 29.47843 32.60442 0.01177
C 30.7241 31.95301 0.04266
C 30.76596 30.49241 0.01324
C 29.52458 29.80473 0.0014
C 29.55129 28.3938 0.00924
C 28.26354 2.11067 0.01799
C 30.77839 27.61706 0.02326
C 29.49279 25.50806 0.03265
C 29.48367 24.08906 -0.02049
C 30.75933 23.43919 -0.01854
C 30.79777 22.01049 -0.01415
C 29.52161 21.34114 -0.03039
C 29.45244 19.86242 0.01836
C 30.67195 19.14916 0.03531
C 30.72844 26.19681 0.00261
C 27.02198 2.85644 0.01259
C 27.08967 4.24232 0.01495
C 28.31463 4.96146 0.00235
C 28.20133 30.52814 -0.00037
C 27.00744 29.77156 -0.0032
C 27.06482 28.38445 0.00622
C 28.29167 27.65379 -0.02815
C 28.32288 26.2142 -0.00942
C 27.08441 25.49713 0.00487
C 27.07663 24.13486 0.00826
C 28.23584 23.43005 -0.00294
C 28.31801 21.93745 0.00152
C 28.229 13.4482 0.01257
C 27.05786 12.80825 0.02316
C 27.11589 11.31077 0.04185
C 28.37081 10.6185 0.00194
C 28.26073 9.2033 -0.00621
C 27.05188 8.51859 0.02611
C 27.06396 7.10009 0.02198
C 28.29508 6.36261 0.01094
C 27.09636 32.69094 -0.00218
C 2.43596 32.65395 -0.00892
