346
Graphene
C 34.42599 34.05055 0.01295
C 9.91771 17.0352 -0.03113
C 9.90516 15.66372 0.02098
C 11.17113 14.86154 0.01848
C 11.20988 13.4159 -0.00619
C 9.93442 12.825 -0.02162
C 9.8526 11.35149 0.00889
C 10.98794 10.58044 -0.00481
C 10.93914 9.20231 0.00979
C 9.7606 8.45037 0.01443
C 9.86554 7.05969 0.03505
C 11.18502 6.37763 -0.02815
C 11.12866 4.94474 -0.04147
C 9.88246 4.25853 -0.05302
C 9.89233 2.80951 0.00213
C 11.09395 2.12711 -0.00066
C 11.04284 0.68476 -0.00289
C 9.75255 0.05964 0.00028
C 11.05579 17.78614 0.0351
C 11.05133 19.18484 0.00422
C 9.77983 19.85431 0.00798
C 9.80838 21.29009 0.00228
C 8.61133 6.34851 0.01416
C 8.6195 4.97056 0.03542
C 7.36014 4.24779 0.02299
C 7.36605 2.85781 0.00244
C 8.58447 2.22091 -0.01717
C 8.53398 0.83146 0.05265
C 7.3535 0.04182 -0.01952
C 9.76401 32.74016 -0.02813
C 12.24571 32.67232 -0.02213
C 11.00203 31.95376 0.00374
C 9.80047 29.86705 -0.03682
C 9.7918 28.39526 0.01965
C 11.04341 27.80808 0.02058
C 11.12612 26.39477 -0.01957
C 9.99723 25.62715 -0.0108
C 9.94863 24.15791 -0.00368
C 11.1758 23.34274 -0.02696
C 11.04068 21.9197 -0.00114
C 10.93657 30.56134 0.00052
C 7.36778 7.15365 0.01945
C 13.42944 31.96634 0.03698
C 12.23929 29.88402 -0.00491
C 14.79234 32.66569 -0.04422
C 15.98874 31.98132 0.00654
C 15.98431 30.42958 -0.00703
C 14.67679 29.74792 -0.04076
C 14.69421 28.36896 -0.00652
C 15.86312 27.6363 0.0058
C 15.88383 26.21518 -0.00865
C 15.95806 23.45408 0.00675
C 15.84393 22.02803 -0.00311
C 14.61219 21.40862 0.00742
C 14.72872 19.91457 -0.01594
C 15.98432 19.15522 0.0106
C 15.97147 17.73878 -0.01154
C 14.68046 16.98921 -0.01721
C 14.78275 15.65165 -0.02422
C 14.97942 2.44424 0.01277
C 15.72243 0.95555 0.00096
C 12.24581 0.01989 -0.02957
C 13.49723 0.63244 -0.00831
C 13.63301 2.05578 0.00364
C 12.41697 2.72327 -0.017
C 12.21161 28.54112 0.03338
C 13.39138 27.769 -0.0258
C 13.35575 22.01901 -0.0331
C 12.19224 21.21514 -0.00316
C 12.25842 19.81404 0.02188
C 13.53169 19.14116 -0.01979
C 13.58905 17.77375 0.02691
C 12.3701 17.03351 -0.01581
C 13.52234 30.54723 -0.00109
C 12.35734 15.61479 0.01452
C 13.43796 13.53603 -0.00111
C 12.4949 12.54125 -0.03557
C 12.26799 11.22952 0.03754
C 12.17045 8.51222 0.01739
C 12.48725 7.22803 0.00755
C 13.59808 6.29014 -0.0054
C 13.45935 5.11425 0.00667
C 12.30999 4.16073 0.00143
C 13.59245 14.86356 0.04892
C 7.39158 8.57396 -0.01454
C 8.57063 9.26383 0.01241
C 8.59922 10.64353 0.0076
C 2.47471 7.06759 0.0288
C 3.68201 6.47343 0.00393
C 3.66016 5.00085 0.00895
C 2.4258 4.2368 0.00685
C 2.47314 2.79676 0.02888
C 3.69933 2.15054 -0.00482
C 3.71807 0.73695 -0.01384
C 2.46597 34.04528 0.03693
C 4.89432 32.76919 0.01745
C 6.16641 31.95055 0.00488
C 6.1423 30.52818 -0.01004
C 4.86599 29.82195 -0.02896
C 4.86925 28.42428 -0.00131
C 6.11835 27.69182 -0.01118
C 6.09544 26.33327 -0.014
C 4.89369 25.57984 0.02147
C 4.91316 24.13961 0.00373
C 2.47137 8.53349 -0.0008
C 3.70343 9.29794 -0.01362
C 3.75697 10.64265 -0.00892
C 2.42074 11.36758 -0.04848
C 3.63367 30.55555 -0.03337
C 2.41562 29.81755 0.01227
C 2.34869 28.41429 0.00873
C 3.64875 27.68452 -0.00049
C 3.627 26.23796 0.00848
C 2.42988 25.60554 -0.01303
C 2.36589 24.19907 -0.01378
C 3.70373 23.44703 0.02635
C 6.15763 23.41597 -0.00191
C 3.70052 22.06874 0.0127
C 2.3636 19.94453 0.01849
C 3.56919 19.22076 -0.01142
C 3.6174 17.72282 -0.00562
C 2.42696 17.0387 -0.00494
C 2.36914 15.62467 0.00054
C 3.63628 14.93921 0.03007
C 3.68752 13.51442 -0.00095
C 2.44477 12.78782 0.01572
C 2.41821 21.325 0.01396
C 6.1437 22.00206 0.00438
C 4.85693 21.28327 0.01291
C 4.87993 19.9208 0.00093
C 7.37922 29.83148 0.03101
C 7.34477 28.37278 -0.01536
C 8.61704 27.75788 -0.02689
C 8.68683 26.30152 -0.01046
C 7.45312 25.57013 -0.00891
C 7.42919 24.10879 0.02819
C 8.67168 23.38855 0.00165
C 8.59123 21.95365 -0.02971
C 8.56455 30.54243 -0.00428
C 7.29162 21.33718 0.02894
C 8.62273 19.21974 0.00444
C 8.52738 17.74079 -0.00925
C 7.30772 17.03806 0.01877
C 7.39454 15.65027 0.01363
C 8.64772 14.96948 -0.02162
C 8.65856 13.57121 0.00415
C 7.46021 12.83311 -0.0014
C 7.42467 11.4117 0.02162
C 7.33803 19.90603 -0.01789
C 14.69216 34.03203 -0.01527
C 8.52503 32.04528 -0.02245
C 4.94858 0.07196 -0.01275
C 6.16544 19.12913 0.00057
C 6.10697 17.7445 -0.01634
C 4.89671 17.08968 -0.00334
C 4.87521 15.60839 0.02339
C 6.09957 14.93818 0.01641
C 6.18773 13.52466 -0.00719
C 4.99236 12.83392 0.01364
C 4.95847 11.42307 -0.01062
C 7.36257 32.76791 0.00985
C 6.17487 10.69949 -0.00033
C 4.92108 8.51918 -0.02759
C 4.88639 7.1724 0.0402
C 6.12844 6.4239 0.00572
C 6.13102 5.03446 0.03592
C 4.88026 4.29562 0.00406
C 5.00298 2.87102 0.00943
C 6.12968 2.17034 0.02841
C 6.16529 0.79277 -0.01111
C 6.13234 9.25518 0.03589
C 17.20266 32.73926 0.01087
C 18.44628 32.00613 0.00199
C 18.39019 30.58439 0.01511
C 33.22912 30.54036 0.01428
C 31.93649 29.83133 -0.02142
C 31.88696 28.43282 0.0544
C 33.10137 27.72905 0.00026
C 33.10616 26.29725 0.00682
C 31.85799 25.66002 -0.01779
C 31.88737 24.2365 0.03794
C 33.15348 23.5178 0.01927
C 33.18716 22.09515 0.01574
C 31.95478 21.31157 -0.02383
C 31.98674 19.9233 -0.01429
C 33.19833 19.19479 -0.0136
C 33.14029 17.83661 0.00594
C 31.9129 17.0898 -0.02474
C 31.86315 15.61938 0.00369
C 33.11567 14.94943 0.00455
C 33.1676 13.44945 -0.00644
C 33.19826 31.98056 -0.01694
C 31.98768 32.68949 0.01713
C 29.55691 0.02215 0.00346
C 30.74576 0.70596 0.00307
C 30.64408 26.30109 0.01836
C 29.41761 25.56345 0.03531
C 29.48022 24.17492 -0.00669
C 30.68282 23.46077 0.0101
C 30.71029 21.95767 0.01705
C 29.46822 21.29234 -0.0405
C 29.52569 19.84586 -0.01303
C 30.72909 19.13818 -0.01461
C 31.89417 12.61332 -0.01839
C 30.74303 17.79816 -0.02155
C 29.6058 15.67425 -0.03735
C 30.64234 14.80923 -0.00971
C 30.73837 13.37712 0.01518
C 30.7465 6.43519 0.01908
C 30.69076 5.0438 0.07705
C 29.62628 4.19997 0.0103
C 29.4893 2.82869 0.02108
C 30.72007 2.11242 0.00716
C 29.55153 17.05846 -0.00944
C 32.0711 11.14076 0.00137
C 33.39154 10.58132 0.00199
C 33.28037 9.1926 0.04381
C 1.12828 19.1766 -0.01678
C 1.17908 17.73595 0.01223
C 34.3744 17.005 0.00648
C 34.35237 15.64064 0.02114
C 1.18474 14.90594 -0.02957
C 1.18904 13.50632 0.00343
C 0.01734 12.76199 -0.02656
C 0.09234 11.3619 -0.02442
C 34.37614 19.95987 0.01951
C 1.26244 10.64149 -0.00027
C 0.06086 8.44643 -0.02302
C 0.06955 7.05289 -0.02849
C 1.23239 6.32558 0.02931
C 1.27113 4.89733 0.00628
C 34.41044 4.23433 -0.0345
C 34.39815 2.89664 -0.00931
C 1.22713 2.08474 -0.00939
C 1.15618 0.66533 -0.00468
C 1.28892 9.19083 -0.00583
C 30.70087 27.69355 -0.03039
C 34.41227 21.32092 -0.02213
C 1.18657 23.44713 0.00723
C 31.98167 8.62393 0.02806
C 31.94871 7.22991 0.01504
C 33.20621 6.40061 -0.00069
C 33.18478 4.98649 0.04926
C 31.93723 4.26887 -0.03838
C 31.94469 2.91577 0.00349
C 33.17776 2.15048 -0.00323
C 33.21444 0.69218 -0.00841
C 1.19678 22.00944 0.02712
C 32.03192 0.08145 0.0001
C 1.18385 31.99432 -0.01404
C 1.18193 30.52409 0.01027
C 34.42121 29.87328 0.01831
C 34.28899 28.46656 -0.01037
C 1.15089 27.68686 -0.00439
C 1.16034 26.2771 -0.00598
C 34.37965 25.65796 -0.05239
C 34.37392 24.16703 0.03076
C 34.39073 32.6451 -0.02927
C 3.62247 31.94514 -0.00966
C 29.48298 28.44881 -0.01415
C 30.70059 30.52606 -0.02049
C 19.63827 25.56463 0.00733
C 19.65526 24.10863 -0.00178
C 20.83245 23.363 0.00768
C 20.83389 21.94034 -0.0276
C 19.60809 21.27725 0.03005
C 19.64834 19.78988 -0.04078
C 20.83422 19.15159 0.02117
C 19.53269 0.06391 0.02737
C 22.21074 32.86437 -0.00498
C 23.34061 32.06874 0.00135
C 23.42696 30.62106 0.03102
C 22.16962 29.88631 0.02555
C 22.07899 28.49104 0.01423
C 23.28466 27.73041 -0.00285
C 23.31001 26.31818 -0.009
C 22.08691 25.54381 -0.01199
C 22.04929 24.18292 -0.00229
C 20.82874 26.23077 -0.02118
C 20.84815 27.72555 -0.01971
C 19.63025 28.41325 -0.01586
C 19.64305 29.88255 -0.01107
C 17.18514 29.77052 -0.00478
C 17.08308 28.34919 -0.01662
C 18.37839 27.71362 -0.01185
C 18.41027 26.25057 0.01126
C 17.15305 25.56013 0.01852
C 17.15632 24.10568 -0.00381
C 18.42743 23.3918 0.03046
C 18.35568 22.02756 0.0296
C 23.30307 23.38507 -0.00938
C 17.1303 21.30574 0.03374
C 18.46673 19.18341 -0.03213
C 18.24999 17.7465 0.02239
C 17.33661 17.05804 0.01153
C 18.50061 0.53074 0.02734
C 16.97902 0.23596 -0.0055
C 19.65903 32.67508 0.01515
C 20.92917 32.03305 -0.00225
C 20.9031 30.65962 0.00071
C 17.14872 19.86644 -0.02845
C 23.26057 21.93427 -0.0264
C 22.13671 21.15521 -0.01154
C 22.12574 19.58662 0.00684
C 26.98288 29.84653 -0.00621
C 27.06452 28.36715 0.02611
C 28.23389 27.70655 0.02198
C 28.19636 26.27129 0.01094
C 27.03858 25.5748 0.00235
C 26.98977 24.16242 0.01495
C 28.28901 23.4638 0.01259
C 28.25586 22.0071 0.01799
C 28.25452 30.55379 0.00194
C 27.01288 21.29078 0.01699
C 28.3021 19.16379 0.01177
C 28.28871 17.73768 0.04266
C 26.88825 17.11418 0.01324
C 28.31281 2.04866 0.0014
C 28.39595 0.6704 0.00924
C 27.07773 33.99197 0.02326
C 29.51896 32.65568 0.00261
C 30.7761 31.96664 0.03265
C 27.0493 19.87963 -0.00416
C 29.4523 29.81253 -0.01854
C 28.28546 31.94615 0.04185
C 24.62043 0.00099 0.01257
C 23.4933 19.2461 -0.01052
C 22.50984 0.15562 -0.01679
C 24.61495 32.67971 0.00367
C 25.85126 32.03067 0.04306
C 25.80017 30.56293 0.00996
C 24.59743 29.88178 0.00195
C 24.56563 28.43135 -0.00802
C 25.74711 27.68767 -0.00218
C 27.0761 32.62717 0.02316
C 25.76053 26.20892 -0.01654
C 24.53436 24.14702 -0.0032
C 25.7628 23.37836 0.00622
C 25.81842 21.97207 -0.02815
C 24.57529 21.35459 -0.00942
C 24.58803 19.9417 0.00487
C 25.78937 19.30583 0.00826
C 25.94427 17.80448 -0.00294
C 25.82587 0.59869 0.00152
C 24.45919 25.51873 -0.00037
C 2.38041 32.65365 -0.02929
