407
Graphene
C 0.00696 34.01588 0.01295
C 15.6516 23.61951 -0.02689
C 15.81779 22.13554 -0.01046
C 14.66963 21.33098 -0.00891
C 14.63361 19.96773 0.02819
C 15.88048 19.23778 0.00165
C 15.91383 17.71296 -0.02971
C 14.73289 17.04986 0.02894
C 14.74167 15.63102 -0.01789
C 15.94485 14.88592 0.00444
C 15.95358 13.43117 -0.00925
C 14.67162 12.82145 0.01877
C 14.69979 11.40485 0.01363
C 15.91562 10.64666 -0.02162
C 15.90551 9.13196 0.00415
C 14.63545 8.32902 -0.0014
C 14.63408 6.98527 0.02162
C 15.83071 6.2764 0.0076
C 16.08404 4.8553 0.01241
C 15.97232 2.28064 -0.01454
C 16.00441 0.87994 0.01945
C 14.76019 0.10176 0.01416
C 14.33798 24.4397 -0.01536
C 14.5894 25.73802 0.03101
C 15.77525 26.47157 -0.00428
C 15.91904 27.8503 -0.02245
C 10.01093 0.24786 0.01291
C 13.78382 31.98633 0.00093
C 13.35018 23.49878 0.00057
C 13.44074 22.01833 -0.01634
C 12.27085 21.31795 -0.00334
C 12.21253 19.88948 0.02339
C 13.42414 19.221 0.01641
C 13.50948 17.7819 -0.00719
C 12.23665 17.03826 0.01364
C 12.32222 15.6987 -0.01062
C 17.18881 32.76332 0.03542
C 13.53628 14.89074 -0.00033
C 12.27734 12.78606 -0.02759
C 12.26112 11.40572 0.0402
C 13.48939 10.57777 0.00572
C 13.36618 9.18659 0.03592
C 12.19436 8.44737 0.00406
C 13.46994 0.64562 0.00943
C 12.32439 0.26997 0.02841
C 14.84777 32.75953 -0.01111
C 16.03168 31.93394 -0.01275
C 16.04248 30.41688 0.00985
C 13.46721 13.51657 0.03589
C 11.12155 33.95452 0.00438
C 18.45027 31.95957 0.02299
C 17.2885 29.83558 -0.01717
C 18.58764 0.6822 0.03505
C 17.29353 0.06396 -0.02815
C 19.74337 32.65361 -0.04147
C 20.90996 31.90175 -0.05302
C 20.93294 30.49259 0.00213
C 19.68824 29.81984 -0.00066
C 19.6378 28.46449 -0.00289
C 20.80743 27.75178 0.00028
C 20.76628 26.39893 -0.02213
C 19.56626 25.71789 0.03698
C 19.41995 24.2154 -0.00109
C 20.73732 23.48059 -0.00491
C 20.80589 22.03201 0.03338
C 19.62798 21.26557 -0.0258
C 19.59801 19.8343 -0.0331
C 20.82727 19.20371 -0.00316
C 20.8692 17.68103 0.02188
C 19.64042 17.04678 -0.01979
C 19.64551 15.64528 0.02691
C 20.91563 14.90884 -0.01581
C 20.85603 13.45143 0.01452
C 18.50617 2.1365 0.01443
C 17.27524 2.80917 0.00979
C 17.29963 4.19635 -0.00481
C 18.45954 4.96259 0.00889
C 17.1999 28.49609 0.05265
C 18.40447 27.76288 -0.01952
C 18.31911 26.34013 -0.02813
C 17.0697 25.71582 0.00374
C 16.91222 24.27495 0.00052
C 18.20284 23.55301 -0.03682
C 18.34355 22.11254 0.01965
C 17.14003 21.41763 0.02058
C 17.12787 19.92441 -0.01957
C 18.37422 19.20665 -0.0108
C 18.47548 30.58307 0.00244
C 18.39347 17.78089 -0.00368
C 17.16518 15.68176 -0.00114
C 18.40302 14.87663 0.00228
C 18.39274 13.44829 0.00798
C 17.15425 12.78135 0.00422
C 17.1814 11.28326 0.0351
C 18.34653 10.51198 -0.03113
C 18.39245 9.14169 0.02098
C 17.21849 8.41258 0.01848
C 17.11383 6.97066 -0.00619
C 18.42019 6.30732 -0.02162
C 17.18688 16.99579 -0.02696
C 19.61528 12.71632 0.04892
C 9.42076 3.69265 -0.00191
C 9.84577 8.53051 0.02147
C 2.43935 2.84539 0.02379
C 3.6276 2.16615 0.00907
C 3.58803 0.72844 0.00643
C 2.34393 0.08535 -0.01509
C 4.76254 32.66351 0.03267
C 6.19318 32.20414 0.02374
C 4.7393 29.80388 0.00402
C 4.79513 28.62075 0.0073
C 4.75608 25.5241 0.0174
C 4.78168 24.22537 0.03828
C 6.05882 23.56988 0.01226
C 6.08595 22.12372 -0.00279
C 4.80766 21.4753 0.01996
C 4.77846 19.96735 -0.03996
C 6.08875 19.29941 0.01465
C 6.06189 17.81186 -0.00074
C 4.85516 17.13747 -0.00518
C 4.95931 15.70349 0.0086
C 6.18228 14.99984 -0.00643
C 6.15771 13.62615 0.017
C 4.89752 12.84456 -0.03113
C 2.4716 4.24995 0.01402
C 3.64996 4.99439 -0.003
C 3.6928 6.40682 0.00031
C 2.43 7.16999 0.03189
C 3.65632 30.65291 -0.0059
C 2.36573 29.81497 -0.01386
C 2.32363 28.43033 -0.02805
C 3.63699 27.68107 0.00081
C 3.62737 26.2981 0.00245
C 2.36731 25.67067 0.02728
C 2.33032 24.16466 -0.00039
C 3.57246 23.47342 0.0064
C 3.61058 22.09292 0.00211
C 2.44715 21.29918 -0.00449
C 4.89252 11.41469 -0.02566
C 2.41858 19.83961 -0.01979
C 3.55998 17.74012 -0.01977
C 2.37193 17.0743 -0.00561
C 2.36941 15.6351 0.00208
C 3.64096 14.90787 0.01707
C 3.60106 13.53498 0.02769
C 2.31185 12.84215 -0.03291
C 2.31253 11.43662 -0.04999
C 3.6233 10.74086 0.04505
C 3.62926 9.35586 0.03284
C 2.42511 8.58264 -0.04307
C 3.62031 19.13627 0.02784
C 9.88331 7.17012 0.00373
C 6.15609 10.67857 -0.00094
C 4.97723 8.57474 -0.00725
C 8.71549 6.30958 -0.00095
C 8.38147 4.98738 0.01572
C 7.12646 4.27932 -0.04848
C 7.21146 2.8415 -0.00892
C 8.67052 2.52193 -0.01362
C 8.82771 1.00972 -0.0008
C 7.47211 0.12871 0.0288
C 11.79564 23.63197 0.00393
C 11.2756 22.28066 0.00895
C 9.99678 21.5835 0.00685
C 9.84834 20.05279 0.02888
C 11.01151 19.22981 -0.00482
C 11.00355 17.74088 -0.01384
C 9.79826 17.13991 0.03693
C 9.85166 15.60719 0.01745
C 11.10211 14.95755 0.00488
C 11.03901 13.49711 -0.01004
C 9.82495 12.82297 -0.02896
C 9.7673 11.38514 -0.00131
C 10.95069 10.61032 -0.01118
C 10.99609 9.26033 -0.014
C 7.42789 6.98463 0.03007
C 7.43439 8.46245 0.00054
C 8.5755 9.24914 -0.00494
C 8.55204 10.67629 -0.00562
C 5.00277 7.09266 -0.05697
C 6.16802 6.34067 0.01087
C 6.00806 4.93829 -0.01343
C 4.83204 4.24443 0.00988
C 4.79757 2.85244 0.0276
C 6.00419 2.14424 0.01305
C 6.05431 0.76366 -0.00077
C 4.84014 0.01299 0.03368
C 7.22525 32.79351 -0.02929
C 7.26776 24.11037 -0.00966
C 6.1731 9.19436 0.02322
C 8.36596 23.72479 -0.03337
C 7.42948 21.44897 0.00873
C 7.37705 19.99241 -0.00049
C 8.59165 19.32254 0.00848
C 8.60316 17.83819 -0.01303
C 7.32453 17.14628 -0.01378
C 7.41141 15.75284 0.02635
C 8.59469 15.03311 0.0127
C 8.55503 13.51474 0.01396
C 7.29902 12.76996 0.01849
C 7.33878 11.35076 -0.01142
C 8.68071 22.19712 0.01227
C 3.5553 32.00559 0.00558
C 19.6084 11.28784 -0.00111
C 20.94182 9.15093 0.03754
C 29.46915 8.44117 -0.00971
C 29.4992 7.06898 0.01518
C 30.69779 6.38876 0.01908
C 30.71812 4.92643 0.07705
C 29.50132 4.13878 0.0103
C 29.52078 2.79243 0.02108
C 30.7127 2.09584 0.00716
C 30.81755 0.69115 0.00307
C 29.55365 0.01272 0.00346
C 31.9165 32.61719 0.01713
C 33.13531 31.93644 -0.01694
C 33.10801 30.53794 0.01428
C 31.9108 29.74154 -0.02142
C 31.9318 28.33667 0.0544
C 33.15812 27.68429 0.00026
C 33.12894 26.25987 0.00682
C 31.96271 25.53704 -0.01779
C 31.93497 24.13212 0.03794
C 33.16832 23.44418 0.01927
C 33.10826 21.99634 0.01574
C 31.88509 21.28472 -0.02383
C 30.70924 9.26017 -0.03735
C 30.75351 10.68221 -0.00944
C 29.49253 11.3644 -0.02155
C 29.48562 12.7449 -0.01461
C 28.2689 2.07437 0.01799
C 28.34169 0.66899 0.01699
C 27.10182 0.00041 -0.00416
C 29.43855 32.7001 0.01177
C 30.7365 31.91836 0.04266
C 30.71616 30.5188 0.01324
C 29.47819 29.79263 0.0014
C 29.42071 28.35926 0.00924
C 30.70484 27.65496 0.02326
C 30.7287 26.29279 0.00261
C 31.88811 19.83662 -0.01429
C 29.50058 25.50499 0.03265
C 30.72118 23.43464 -0.01854
C 30.64722 21.99561 -0.01415
C 29.4622 21.29209 -0.03039
C 29.43467 19.87477 0.01836
C 30.63088 19.15682 0.03531
C 30.72866 17.73823 -0.00669
C 29.39143 16.99261 0.0101
C 29.52916 15.57745 0.01705
C 30.788 14.93521 -0.0405
C 30.73044 13.45712 -0.01303
C 29.46064 24.03623 -0.02049
C 27.02009 2.77744 0.01259
C 33.18923 19.25236 -0.0136
C 31.91958 17.05612 -0.02474
C 1.18981 22.02262 0.02712
C 34.40201 21.34899 -0.02213
C 34.4306 19.9489 0.01951
C 1.1817 19.13045 -0.01678
C 1.13195 17.7127 0.01223
C 34.35638 17.01329 0.00648
C 0.00163 15.64347 0.02114
C 1.22793 14.91724 -0.02957
C 1.1635 13.56402 0.00343
C 34.34373 12.78594 -0.02656
C 34.32074 11.41091 -0.02442
C 1.15662 10.72059 -0.00027
C 1.23194 9.17348 -0.00583
C 34.39495 8.40494 -0.02302
C 34.40921 7.03488 -0.02849
C 1.22352 6.36447 0.02931
C 1.31446 4.95145 0.00628
C 0.00131 4.2317 -0.0345
C 34.4118 2.82861 -0.00931
C 1.23704 2.21384 -0.00939
C 1.17971 0.81031 -0.00468
C 1.12108 23.46406 0.00723
C 34.3308 24.13558 0.03076
C 34.33586 25.52445 -0.05239
C 1.08086 26.32804 -0.00598
C 31.95351 15.662 0.00369
C 33.17633 14.91997 0.00455
C 33.15839 13.48793 -0.00644
C 31.89667 12.80077 -0.01839
C 31.93445 11.37558 0.00137
C 33.12531 10.64535 0.00199
C 33.14031 9.21396 0.04381
C 32.00389 8.47946 0.02806
C 31.93507 7.10562 0.01504
C 33.16038 6.37892 -0.00069
C 33.16272 17.8267 0.00594
C 33.09599 4.93988 0.04926
C 31.97753 2.82431 0.00349
C 33.1792 2.18155 -0.00323
C 33.23244 0.70032 -0.00841
C 31.98791 0.01298 0.0001
C 34.31924 32.63316 -0.02927
C 1.09623 31.99602 -0.01404
C 1.10467 30.56635 0.01027
C 34.35952 29.83779 0.01831
C 34.39511 28.47607 -0.01037
C 1.09331 27.68199 -0.00439
C 31.93416 4.18419 -0.03838
C 20.89756 10.58496 -0.03557
C 27.06141 4.19776 0.01495
C 28.39251 6.29541 0.01094
C 23.41252 14.93741 -0.01527
C 23.41436 13.46866 0.01087
C 22.16008 12.74697 0.00199
C 22.11049 11.40405 0.01511
C 23.335 10.70493 -0.00478
C 23.3921 9.20428 -0.01662
C 22.15781 8.48067 -0.01185
C 22.2225 7.08645 0.01126
C 23.45104 6.40179 0.01852
C 23.38388 4.9154 -0.00381
C 22.08498 4.21058 0.03046
C 22.15075 2.8722 0.0296
C 23.34271 2.12859 0.03374
C 23.38599 0.73636 -0.02845
C 22.23339 34.03036 -0.03213
C 24.57988 32.67492 0.02239
C 25.84983 31.92834 0.01153
C 25.7778 30.44137 0.02734
C 24.57549 29.7384 -0.0055
C 24.591 28.34485 0.01515
C 25.75162 27.61395 -0.00225
C 22.12382 15.57446 0.00096
C 22.07119 16.98719 0.01277
C 23.20634 17.75517 -0.02422
C 23.26036 19.11522 -0.01721
C 19.66121 8.40507 0.01739
C 19.63422 6.99629 0.00755
C 20.95438 6.35504 -0.0054
C 20.9358 4.93272 0.00667
C 19.73982 4.23298 0.00143
C 19.77393 2.81874 -0.017
C 21.01715 2.16277 0.00364
C 21.0652 0.69292 -0.00831
C 19.85209 34.04904 -0.02957
C 22.17888 32.61377 -0.04422
C 25.70746 26.27559 0.00071
C 23.3853 31.91566 0.00654
C 22.15554 29.78443 -0.04076
C 22.16015 28.39958 -0.00652
C 23.29086 27.63203 0.0058
C 23.2367 26.17446 -0.00865
C 22.00783 25.52617 0.00675
C 22.06483 24.08504 -0.00311
C 23.26477 23.40931 0.00742
C 23.36677 21.96204 -0.01594
C 22.1172 21.28323 0.0106
C 22.08639 19.87616 -0.01154
C 23.37745 30.45344 -0.00703
C 28.35462 4.9039 0.00235
C 24.56599 25.51805 -0.01107
C 25.75285 23.49754 -0.01971
C 26.99928 28.32796 0.00996
C 28.22535 27.65043 0.00195
C 28.20427 26.20278 -0.00802
C 26.94018 25.60748 -0.00218
C 26.971 24.24112 -0.01654
C 28.18785 23.41773 -0.00037
C 28.21063 21.98611 -0.0032
C 26.96092 21.27482 0.00622
C 27.01521 19.90135 -0.02815
C 28.18492 19.16166 -0.00942
C 28.09787 17.69186 0.00487
C 26.94853 16.93271 0.00826
C 27.01892 15.61702 -0.00294
C 28.29439 14.86996 0.00152
C 28.27423 13.41098 0.01257
C 27.0306 12.68386 0.02316
C 27.03286 11.25165 0.04185
C 28.26528 10.62158 0.00194
C 28.27512 9.16834 -0.00621
C 27.06633 8.43524 0.02611
C 27.12656 6.98873 0.02198
C 27.09394 29.78137 0.04306
C 28.27157 30.4823 0.00367
C 28.30382 31.9273 -0.01679
C 27.02526 32.58819 -0.01052
C 25.78226 22.00201 -0.02118
C 24.50854 21.31107 0.00733
C 24.48895 19.78852 -0.00178
C 25.75288 19.16706 0.00768
C 25.76147 17.74306 -0.0276
C 24.49438 17.03369 0.03005
C 24.52962 15.62097 -0.04078
C 25.74191 14.93417 0.02117
C 25.84515 13.49426 0.02737
C 24.66082 12.79114 -0.00498
C 24.51723 24.116 -0.01586
C 24.59669 11.44276 0.00135
C 25.76956 9.09709 0.02555
C 24.60366 8.45772 0.01423
C 24.6793 7.03575 -0.00285
C 25.83674 6.36046 -0.009
C 25.85676 4.93305 -0.01199
C 24.53637 4.26661 -0.00229
C 24.5591 2.85905 -0.00938
C 25.71792 2.15144 -0.0264
C 25.86671 0.722 -0.01154
C 24.62992 34.06201 0.00684
C 25.74137 10.60948 0.03102
C 2.28227 32.74486 -0.02375
