327
Graphene
C 0.03939 34.06461 0.01295
C 9.72134 4.26412 0.00213
C 9.84813 2.85173 -0.00066
C 11.14254 2.16286 -0.00289
C 11.10323 0.75746 0.00028
C 9.79807 0.01518 -0.02213
C 12.28169 32.65479 0.03698
C 13.4696 31.85906 -0.00109
C 11.04191 4.88132 -0.05302
C 13.47439 30.51396 -0.00491
C 12.29743 28.33247 -0.0258
C 13.49806 27.61757 -0.0331
C 13.61048 26.29679 -0.00316
C 12.34165 25.63684 0.02188
C 12.31528 24.15656 -0.01979
C 13.56753 23.32515 0.02691
C 13.63963 21.9258 -0.01581
C 12.26602 29.76107 0.03338
C 11.16195 6.27446 -0.04147
C 9.82586 7.03361 -0.02815
C 9.65559 8.44439 0.03505
C 7.3149 2.87289 -0.0108
C 8.59484 2.19163 -0.00368
C 8.59287 0.72643 -0.02696
C 7.39819 0.01968 -0.00114
C 9.83706 32.69055 0.00228
C 11.08717 31.90155 0.00798
C 11.05793 30.52453 0.00422
C 9.86645 29.87056 0.0351
C 9.821 28.45355 -0.03113
C 11.02607 27.69141 0.02098
C 11.06473 26.26405 0.01848
C 9.86074 25.58556 -0.00619
C 9.87321 24.21272 -0.02162
C 11.09306 23.41924 0.00889
C 11.1992 22.07086 -0.00481
C 10.03675 21.25315 0.00979
C 9.85215 19.91905 0.01443
C 12.3957 21.34577 0.01452
C 7.37422 4.32209 -0.01957
C 12.15249 7.11098 0.04892
C 12.51585 2.90473 -0.03557
C 17.20864 28.41631 0.0106
C 18.44094 27.75737 -0.01154
C 18.49091 26.32841 -0.01721
C 17.26053 25.69031 -0.02422
C 17.26017 24.27088 0.01277
C 18.40735 23.4688 0.00096
C 18.4378 22.12828 -0.01527
C 17.14855 29.82643 -0.01594
C 17.23434 21.39994 0.01087
C 18.30555 19.02014 0.01511
C 18.45483 17.63806 -0.00478
C 18.40458 0.67784 -0.01662
C 17.14891 0.13371 -0.01185
C 19.62846 32.72373 0.01126
C 20.84245 31.99036 0.01852
C 20.89503 30.57995 -0.00381
C 17.1834 19.96414 0.00199
C 18.37056 30.52191 0.00742
C 18.3659 31.99671 -0.00311
C 17.20316 32.66514 0.00675
C 13.4477 2.02167 0.03754
C 13.51844 0.61994 0.01739
C 12.23539 34.05409 0.00755
C 14.70514 32.50404 -0.0054
C 15.91914 31.93946 0.00667
C 15.92923 30.52191 0.00143
C 14.70502 29.77271 -0.017
C 14.72311 28.38802 0.00364
C 15.98324 27.68755 -0.00831
C 16.04315 26.30254 -0.02957
C 14.84904 25.54127 -0.04422
C 14.78788 24.11317 0.00654
C 16.0274 23.50224 -0.00703
C 16.04958 22.14595 -0.04076
C 14.91195 21.39038 -0.00652
C 15.86207 0.56765 0.0058
C 14.65385 33.9012 -0.00865
C 12.26029 4.19018 -0.00111
C 19.63566 29.81878 0.03046
C 8.5673 4.99671 0.02058
C 7.34116 7.09658 -0.03682
C 2.38814 8.49883 0.00438
C 2.42273 7.13293 0.01291
C 3.70567 6.43553 0.00093
C 3.67465 4.98362 0.00057
C 2.44937 4.20474 -0.01634
C 2.47711 2.78735 -0.00334
C 3.69315 2.14946 0.02339
C 3.60752 9.22335 -0.00191
C 3.71027 0.67477 0.01641
C 5.00719 32.62992 0.01364
C 6.19043 31.95475 -0.01062
C 6.09667 30.52479 -0.00033
C 4.92558 29.84992 0.03589
C 4.84536 28.47504 -0.02759
C 6.06329 27.70558 0.0402
C 6.14671 26.23036 0.00572
C 2.48 34.05591 -0.00719
C 3.59308 10.62936 0.00373
C 2.41587 11.35788 0.02147
C 2.44521 12.74232 -0.014
C 3.73769 30.5502 -0.00892
C 2.45644 29.83946 -0.01362
C 2.44527 28.46959 -0.0008
C 3.65893 27.73868 0.0288
C 3.69319 26.29778 0.00393
C 2.36633 25.63725 0.00895
C 2.40374 24.23031 0.00685
C 3.68019 23.44408 0.02888
C 3.68147 22.06898 -0.00482
C 2.39766 21.34861 -0.01384
C 2.42107 19.92157 0.03693
C 3.68519 19.12673 0.01745
C 3.72801 17.78113 0.00488
C 2.47853 17.01665 -0.01004
C 2.51841 15.62723 -0.02896
C 3.69127 14.90579 -0.00131
C 3.66978 13.4211 -0.01118
C 4.91417 25.55305 0.03592
C 8.57993 6.37589 0.01965
C 4.93101 24.12707 0.00406
C 6.16882 22.09356 0.02841
C 7.38959 32.66775 -0.0014
C 8.60566 32.01194 0.02162
C 8.62701 30.59748 0.0076
C 7.35403 29.89827 0.01241
C 7.32911 28.41594 -0.01454
C 8.60105 27.77733 0.01945
C 8.61229 26.35452 0.01416
C 4.9224 34.04799 0.00415
C 7.37859 25.59298 0.03542
C 8.66339 23.52429 0.00244
C 8.74734 22.00303 -0.01717
C 7.46651 21.30326 0.05265
C 7.35888 19.87494 -0.01952
C 8.62764 19.30688 -0.02813
C 8.56637 9.01755 0.00374
C 7.18613 8.54494 0.00052
C 7.40984 24.20522 0.02299
C 6.10948 0.74142 -0.02162
C 6.06034 2.1515 0.01363
C 4.84592 2.88397 0.01877
C 4.96025 21.33514 -0.01111
C 4.92835 19.93586 -0.01275
C 6.16575 19.15586 0.00985
C 6.16695 17.77803 -0.02245
C 5.01598 17.05063 -0.00428
C 4.9231 15.61606 0.03101
C 6.05997 14.75482 -0.01536
C 5.9854 13.39096 -0.02689
C 4.84905 12.67152 -0.01046
C 4.8447 11.23874 -0.00891
C 6.08342 10.63895 0.02819
C 6.01846 9.31194 0.00165
C 4.85079 8.52784 -0.02971
C 4.8741 7.07869 0.02894
C 6.06249 6.41451 -0.01789
C 6.1446 5.01147 0.00444
C 4.89542 4.30819 -0.00925
C 6.13113 23.44172 0.00943
C 3.71853 31.95872 -0.04848
C 19.73418 28.40606 0.0296
C 20.90455 26.36124 -0.02845
C 33.16537 26.38993 0.00682
C 31.93782 25.65128 -0.01779
C 31.89223 24.24653 0.03794
C 33.19517 23.54862 0.01927
C 33.14796 22.12197 0.01574
C 31.94049 21.34416 -0.02383
C 31.92501 19.86656 -0.01429
C 33.08141 27.79547 0.00026
C 33.1222 19.1483 -0.0136
C 31.87054 17.01331 -0.02474
C 31.82712 15.5442 0.00369
C 33.13617 14.93354 0.00455
C 33.09863 13.56034 -0.00644
C 31.90351 12.92622 -0.01839
C 31.9805 11.47589 0.00137
C 33.09089 10.67015 0.00199
C 33.09606 17.7274 0.00594
C 31.89139 28.4569 0.0544
C 31.90755 29.84797 -0.02142
C 33.12821 30.56473 0.01428
C 30.74402 23.47188 -0.0405
C 30.68306 22.00132 -0.01303
C 29.47614 21.33009 -0.01461
C 29.49101 19.89417 -0.02155
C 30.69282 19.10782 -0.00944
C 30.69304 17.74481 -0.03735
C 29.41171 17.02837 -0.00971
C 30.75974 14.69577 0.01518
C 30.78042 6.38896 0.01908
C 30.75251 5.02022 0.07705
C 29.46742 4.26992 0.0103
C 29.4747 2.91267 0.02108
C 30.74013 2.1164 0.00716
C 30.8344 0.7218 0.00307
C 29.58423 0.02355 0.00346
C 31.92028 32.61279 0.01713
C 33.22894 31.97975 -0.01694
C 33.10406 9.22978 0.04381
C 29.45395 24.05174 0.01705
C 31.86922 8.60269 0.02806
C 33.11981 6.39705 -0.00069
C 0.00143 17.06029 0.00648
C 34.3846 15.64808 0.02114
C 1.26202 14.89463 -0.02957
C 1.20838 13.47652 0.00343
C 34.3019 12.80265 -0.02656
C 34.35477 11.42845 -0.02442
C 1.15951 10.6755 -0.00027
C 1.26629 17.71209 0.01223
C 1.0971 9.17877 -0.00583
C 34.42274 7.083 -0.02849
C 1.22311 6.34286 0.02931
C 1.25871 4.91109 0.00628
C 0.02696 4.24446 -0.0345
C 0.01533 2.88819 -0.00931
C 1.24231 2.15488 -0.00939
C 1.23643 0.69944 -0.00468
C 34.37626 8.47974 -0.02302
C 1.16924 19.21289 -0.01678
C 34.30342 19.95776 0.01951
C 34.35551 21.3927 -0.02213
C 33.15786 4.94445 0.04926
C 31.9275 4.26447 -0.03838
C 31.96643 2.84848 0.00349
C 33.22422 2.10922 -0.00323
C 33.24652 0.67274 -0.00841
C 32.02315 0.04427 0.0001
C 0.04647 32.67809 -0.02927
C 1.25071 32.00037 -0.01404
C 1.2564 30.57469 0.01027
C 34.36797 29.88689 0.01831
C 34.386 28.53184 -0.01037
C 1.21643 27.76176 -0.00439
C 1.20286 26.42461 -0.00598
C 34.42722 25.74494 -0.05239
C 34.42577 24.27287 0.03076
C 1.19987 23.49506 0.00723
C 1.1739 22.08223 0.02712
C 31.84621 7.22541 0.01504
C 20.92017 27.74233 0.03374
C 29.35725 25.48177 0.0101
C 30.6844 27.71416 0.03531
C 22.10737 24.14851 0.00135
C 23.382 23.40034 0.03102
C 23.34106 21.95655 0.02555
C 22.17187 21.40065 0.01423
C 22.16981 19.88917 -0.00285
C 23.42299 19.15469 -0.009
C 23.46822 17.77203 -0.01199
C 22.12432 25.60284 -0.00498
C 22.22491 17.22146 -0.00229
C 23.35002 0.57345 -0.0264
C 22.17195 34.0633 -0.01154
C 24.61748 32.61593 0.00684
C 25.86414 31.88299 -0.01052
C 25.83399 30.499 -0.01679
C 24.5999 29.8011 0.00367
C 24.63665 28.421 0.04306
C 23.02013 1.95713 -0.00938
C 23.33698 26.25023 0.02737
C 23.40444 27.69309 0.02117
C 22.15748 28.391 -0.04078
C 19.70108 25.59776 -0.03213
C 19.70879 24.23767 0.02239
C 20.89625 23.41823 0.01153
C 20.87957 22.03639 0.02734
C 19.68665 21.37543 -0.0055
C 19.60367 19.94262 0.01515
C 20.86669 19.12677 -0.00225
C 20.97662 17.70239 0.00071
C 19.75507 17.05054 -0.01107
C 19.48081 15.72575 -0.01586
C 21.12585 2.20353 -0.01971
C 20.92014 0.73991 -0.02118
C 19.67545 0.03563 0.00733
C 22.14365 32.62993 -0.00178
C 23.37525 31.9098 0.00768
C 23.41664 30.48663 -0.0276
C 22.14693 29.85126 0.03005
C 25.78455 27.71217 0.00996
C 30.68586 26.30224 -0.00669
C 25.73764 26.28505 0.00195
C 24.58415 24.1728 -0.00218
C 28.26988 21.981 0.01799
C 27.03752 21.22869 0.01699
C 27.05866 19.82758 -0.00416
C 28.2289 19.19782 0.01177
C 28.29993 17.73794 0.04266
C 28.19691 4.80124 0.01324
C 27.04367 4.09204 0.0014
C 28.25316 23.38584 0.01259
C 27.00133 2.69204 0.00924
C 28.32083 0.73534 0.00261
C 27.15724 34.06326 0.03265
C 29.48602 32.6481 -0.02049
C 30.70496 31.93998 -0.01854
C 30.64097 30.53134 -0.01415
C 29.45459 29.74938 -0.03039
C 29.42936 28.27848 0.01836
C 28.25924 2.11423 0.02326
C 27.01113 24.07524 0.01495
C 26.97051 25.51574 0.00235
C 28.19869 26.18381 0.01094
C 25.79989 23.39171 -0.01654
C 25.79288 21.93928 -0.00037
C 24.56014 21.2779 -0.0032
C 24.5867 19.82937 0.00622
C 25.85037 19.0599 -0.02815
C 25.75023 17.6575 -0.00942
C 24.7505 4.04122 0.00487
C 24.36691 2.69087 0.00826
C 25.77569 1.9586 -0.00294
C 25.85605 0.58795 0.00152
C 24.59778 34.04283 0.01257
C 27.09488 32.65633 0.02316
C 28.31395 31.93401 0.04185
C 28.2333 30.50441 0.00194
C 27.00678 29.82703 -0.00621
C 27.04762 28.39934 0.02611
C 28.21642 27.59179 0.02198
C 24.52674 25.56371 -0.00802
C 2.4443 32.64835 0.01572
