351
Graphene
C 0.05143 34.07426 0.01295
C 9.86779 15.65396 0.00228
C 11.11693 14.87303 0.00798
C 11.05338 13.53294 0.00422
C 9.81326 12.86418 0.0351
C 9.79952 11.33312 -0.03113
C 11.09557 10.69944 0.02098
C 11.07018 9.27284 0.01848
C 9.77068 8.662 -0.00619
C 9.82759 17.08386 -0.00114
C 9.78232 7.22412 -0.02162
C 11.04626 5.01527 -0.00481
C 9.79927 4.31795 0.00979
C 9.86138 2.94927 0.01443
C 11.00753 2.14551 0.03505
C 10.9972 0.72914 -0.02815
C 9.80776 0.07708 -0.04147
C 12.20752 32.72849 -0.05302
C 13.50028 31.94294 0.00213
C 11.02723 6.47459 0.00889
C 13.55125 30.57028 -0.00066
C 11.10339 17.73279 -0.02696
C 9.81186 19.91325 -0.0108
C 8.65888 5.06295 0.0076
C 7.38122 4.35536 0.01241
C 7.29262 2.89846 -0.01454
C 8.56139 2.1534 0.01945
C 8.58855 0.75377 0.01416
C 7.38068 0.04653 0.03542
C 9.83415 32.76908 0.02299
C 10.95731 31.98136 0.00244
C 11.08442 19.18997 -0.00368
C 10.99355 30.51433 -0.01717
C 9.87922 28.348 -0.01952
C 11.13017 27.6216 -0.02813
C 11.15614 26.28813 0.00374
C 9.89054 25.59018 0.00052
C 9.96197 24.11103 -0.03682
C 11.19164 23.44914 0.01965
C 11.11526 22.05007 0.02058
C 9.87077 21.28199 -0.01957
C 9.79918 29.81068 0.05265
C 8.56058 6.5045 0.02162
C 12.24918 29.91342 -0.00289
C 13.53302 27.81023 -0.02213
C 12.2359 2.8782 0.00364
C 13.43523 2.06818 -0.00831
C 13.52387 0.60778 -0.02957
C 12.2396 34.06945 -0.04422
C 14.72898 32.56943 0.00654
C 14.72864 29.9586 -0.00703
C 14.94533 28.48292 -0.04076
C 16.17363 27.73633 -0.00652
C 12.30738 4.18528 -0.017
C 15.87458 26.29349 0.0058
C 14.86774 24.2001 0.00675
C 16.16059 23.68483 -0.00311
C 14.37785 20.46252 0.00742
C 14.86127 15.66235 -0.01594
C 16.02388 13.48886 0.0106
C 14.73293 12.85672 -0.01154
C 14.70278 11.38029 -0.01721
C 15.91448 10.76927 -0.02422
C 14.70112 25.65134 -0.00865
C 12.32986 28.52943 0.00028
C 13.46357 4.94348 0.00143
C 12.29589 7.17425 -0.0054
C 13.52423 26.37185 0.03698
C 12.43217 25.49161 -0.00109
C 12.59716 24.08185 -0.00491
C 13.80887 23.27186 0.03338
C 13.7102 21.77249 -0.0258
C 12.29534 21.31102 -0.0331
C 12.27619 19.91856 -0.00316
C 13.65878 19.39698 0.02188
C 13.45613 6.4038 0.00667
C 13.76423 17.9185 -0.01979
C 12.3412 15.7074 -0.01581
C 13.64609 15.02503 0.01452
C 13.53897 13.54714 0.04892
C 12.27308 12.81684 -0.00111
C 12.26362 11.44808 -0.03557
C 13.54834 10.68153 0.03754
C 13.5385 9.2154 0.01739
C 12.32592 8.58819 0.00755
C 12.48483 17.13642 0.02691
C 15.90557 9.27362 0.01277
C 7.29015 7.14083 -0.0014
C 8.53711 9.24877 -0.02162
C 2.39381 7.20608 0.01572
C 3.66208 6.44413 -0.04848
C 3.7174 4.9724 -0.00892
C 2.46018 4.29825 -0.01362
C 2.41316 2.87284 -0.0008
C 3.63276 2.12335 0.0288
C 3.691 0.70054 0.00393
C 2.44521 0.06423 0.00895
C 2.4086 8.56642 -0.00095
C 4.87723 32.77159 0.00685
C 6.08388 30.5836 -0.00482
C 4.86705 29.84137 -0.01384
C 4.94674 28.40112 0.03693
C 6.15626 27.66714 0.01745
C 6.18482 26.31017 0.00488
C 4.90834 25.59516 -0.01004
C 4.86726 24.11427 -0.02896
C 6.1311 23.4157 -0.00131
C 6.08139 31.99853 0.02888
C 6.12318 21.93481 -0.01118
C 3.67199 9.25392 0.03007
C 2.4482 11.40192 -0.00494
C 3.69646 30.60421 0.01305
C 2.49465 29.87876 -0.00077
C 2.47271 28.4575 0.03368
C 3.72108 27.72834 -0.02929
C 3.68417 26.36444 -0.00966
C 2.42934 25.61005 -0.03337
C 2.40311 24.13019 0.01227
C 3.61809 23.47993 0.00873
C 3.5986 10.71864 0.00054
C 3.65059 22.05889 -0.00049
C 2.294 19.81263 -0.01303
C 3.52421 19.14148 -0.01378
C 3.5366 17.70606 0.02635
C 2.27519 17.14172 0.0127
C 2.26667 15.73469 0.01396
C 3.50146 14.98027 0.01849
C 3.63868 13.553 -0.01142
C 2.48337 12.84082 -0.00562
C 2.44796 21.23288 0.00848
C 7.28905 8.56239 0.00415
C 4.88705 21.30029 -0.014
C 6.02902 19.14073 0.00373
C 7.35611 28.48775 -0.01275
C 8.59835 27.7346 0.00985
C 8.6196 26.27631 -0.02245
C 7.38437 25.54547 -0.00428
C 7.3864 24.15203 0.03101
C 8.70633 23.42615 -0.01536
C 8.66999 21.95447 -0.02689
C 7.34957 21.30529 -0.01046
C 7.34464 29.84492 -0.01111
C 7.35594 19.83972 -0.00891
C 8.58684 17.70658 0.00165
C 7.36356 17.03908 -0.02971
C 7.314 15.64302 0.02894
C 8.55895 14.98543 -0.01789
C 8.56882 13.53033 0.00444
C 7.40672 12.82371 -0.00925
C 7.33569 11.39156 0.01877
C 8.56518 10.6754 0.01363
C 8.59845 19.19773 0.02819
C 4.81753 19.83398 0.02147
C 8.58773 30.62637 0.02841
C 7.3427 32.73302 0.00406
C 6.05235 17.81615 -0.00191
C 4.84233 17.05603 0.00438
C 4.75984 15.56973 0.01291
C 6.06811 14.92177 0.00093
C 6.1372 13.51144 0.00057
C 4.84451 12.75478 -0.01634
C 4.83085 11.40485 -0.00334
C 6.06828 10.71619 0.02339
C 8.61409 32.00418 0.00943
C 6.18126 9.31636 0.01641
C 4.95693 7.07981 0.01364
C 6.08434 6.38273 -0.01062
C 6.14084 4.98643 -0.00033
C 4.93993 4.26601 0.03589
C 4.88101 2.83535 -0.02759
C 6.08305 2.14467 0.0402
C 6.1735 0.71171 0.00572
C 4.90739 0.00661 0.03592
C 4.97436 8.56614 -0.00719
C 3.6916 32.04145 0.0276
C 14.72665 8.46748 0.00096
C 16.01919 6.38242 0.01087
C 33.13051 31.99424 -0.01694
C 33.1507 30.56152 0.01428
C 31.93662 29.80391 -0.02142
C 31.99005 28.39976 0.0544
C 33.21483 27.76591 0.00026
C 33.12439 26.2627 0.00682
C 31.92948 25.49121 -0.01779
C 31.85549 24.07089 0.03794
C 31.87517 32.6015 0.01713
C 33.19718 23.54664 0.01927
C 31.7732 21.85237 -0.02383
C 31.82635 20.35968 -0.01429
C 32.83269 19.39245 -0.0136
C 32.89299 17.83532 0.00594
C 31.87459 16.97948 -0.02474
C 31.88696 15.43515 0.00369
C 33.08839 14.84181 0.00455
C 33.20196 13.4869 -0.00644
C 33.18343 22.14493 0.01574
C 31.92844 12.82835 -0.01839
C 29.5091 0.01396 0.00346
C 30.71074 2.1225 0.00716
C 30.71519 30.53237 -0.03039
C 29.42746 29.85399 0.01836
C 29.48895 28.429 0.03531
C 30.70588 27.68074 -0.00669
C 30.72704 26.21054 0.0101
C 29.45411 25.61949 0.01705
C 30.85684 23.03155 -0.0405
C 30.75216 13.51447 -0.01303
C 30.73497 0.72115 0.00307
C 29.71027 12.74758 -0.01461
C 30.66237 10.63021 -0.00944
C 30.78963 9.26008 -0.03735
C 29.62788 8.48074 -0.00971
C 29.56639 7.07696 0.01518
C 30.78157 6.29689 0.01908
C 30.74947 4.86464 0.07705
C 29.48862 4.23464 0.0103
C 29.47527 2.85395 0.02108
C 29.33825 11.39755 -0.02155
C 30.69266 31.92812 -0.01415
C 31.86804 11.39908 0.00137
C 33.19963 9.24781 0.04381
C 0.94946 19.21652 -0.01678
C 1.04049 17.8127 0.01223
C 34.19222 17.09685 0.00648
C 34.35564 15.65141 0.02114
C 1.18713 14.90924 -0.02957
C 1.25286 13.52481 0.00343
C 34.40279 12.76861 -0.02656
C 34.31467 11.34024 -0.02442
C 34.22957 19.96373 0.01951
C 1.15961 10.72932 -0.00027
C 34.42125 8.59799 -0.02302
C 34.35627 7.1428 -0.02849
C 1.15607 6.41189 0.02931
C 1.26396 4.99977 0.00628
C 0.05146 4.31874 -0.0345
C 0.01548 2.87435 -0.00931
C 1.25617 2.16288 -0.00939
C 1.23291 0.70825 -0.00468
C 1.13399 9.3107 -0.00583
C 33.13556 10.59892 0.00199
C 34.39036 21.34938 -0.02213
C 1.1973 23.40542 0.00723
C 32.03121 8.48576 0.02806
C 31.95969 7.06226 0.01504
C 33.23186 6.33143 -0.00069
C 33.22473 4.96543 0.04926
C 32.01116 4.16473 -0.03838
C 31.97942 2.81941 0.00349
C 33.18742 2.07613 -0.00323
C 33.25679 0.69921 -0.00841
C 1.18712 22.02823 0.02712
C 31.98548 34.05797 0.0001
C 1.18565 31.98119 -0.01404
C 1.24536 30.56445 0.01027
C 34.40085 29.89011 0.01831
C 34.40887 28.51258 -0.01037
C 1.26562 27.7807 -0.00439
C 1.1906 26.3686 -0.00598
C 34.39646 25.65293 -0.05239
C 0.0085 24.18548 0.03076
C 34.35321 32.64847 -0.02927
C 14.74263 7.07549 -0.01527
C 29.50021 32.64662 -0.01854
C 28.28389 0.63144 0.03265
C 20.77542 31.80947 -0.01971
C 20.93547 30.47637 -0.02118
C 19.45332 27.69184 0.00733
C 20.48154 28.31133 -0.00178
C 20.81797 9.36703 0.00768
C 19.61321 8.64506 -0.0276
C 19.61799 7.19252 0.03005
C 20.90745 6.45755 -0.04078
C 19.58994 32.6376 -0.01586
C 20.93668 5.04836 0.02117
C 19.67492 2.92349 -0.00498
C 20.86876 2.19216 0.00135
C 20.9173 0.74289 0.03102
C 19.63613 0.00233 0.02555
C 22.10042 32.55834 0.01423
C 23.31934 31.93469 -0.00285
C 23.43072 30.47619 -0.009
C 22.21523 29.87579 -0.01199
C 19.73388 4.34589 0.02737
C 21.98809 28.43456 -0.00229
C 17.32424 0.01548 -0.01107
C 18.43212 2.19662 -0.00225
C 15.93796 5.01339 0.00199
C 14.71037 4.29474 0.01511
C 14.71786 2.7666 -0.00478
C 15.92743 2.08225 -0.01662
C 16.05743 0.66661 -0.01185
C 14.80772 33.96375 0.01126
C 18.18639 27.21437 0.01852
C 18.17694 25.83773 -0.00381
C 18.44458 0.77122 0.00071
C 16.84174 24.9908 0.03046
C 18.17026 10.76348 0.03374
C 18.33136 9.39475 -0.02845
C 17.09651 8.5551 -0.03213
C 17.25759 7.17458 0.02239
C 18.44464 6.42752 0.01153
C 18.41371 5.01564 0.02734
C 17.18409 4.26408 -0.0055
C 17.16879 2.88696 0.01515
C 17.07898 11.46419 0.0296
C 27.05877 33.97712 -0.02049
C 23.08103 27.53827 -0.00938
C 22.09732 8.74737 -0.01154
C 25.80815 0.71638 0.00194
C 24.56915 34.05461 -0.00621
C 26.89478 32.6332 0.02611
C 28.13572 31.90861 0.02198
C 28.15991 30.50115 0.01094
C 26.92475 29.80593 0.00235
C 26.97446 28.2853 0.01495
C 28.15952 27.52881 0.01259
C 25.79291 2.18021 0.04185
C 28.43198 26.09958 0.01799
C 28.46407 9.25291 -0.00416
C 27.17087 8.55538 0.01177
C 27.07507 7.11259 0.04266
C 28.22003 6.41181 0.01324
C 28.28393 4.96344 0.0014
C 27.04038 4.31198 0.00924
C 27.05045 2.86578 0.02326
C 28.17031 2.08508 0.00261
C 28.12405 10.55477 0.01699
C 23.3561 9.34106 -0.0264
C 24.55748 2.79112 0.02316
C 25.75935 5.08755 0.00152
C 22.14489 7.16173 0.00684
C 23.3966 6.59258 -0.01052
C 23.38412 5.07256 -0.01679
C 22.13609 4.37455 0.00367
C 22.07155 2.86879 0.04306
C 23.29877 2.11003 0.00996
C 23.36115 0.6928 0.00195
C 22.09484 34.03922 -0.00802
C 24.55151 4.27474 0.01257
C 24.52991 32.66632 -0.00218
C 25.66921 30.43469 -0.00037
C 24.53985 29.59916 -0.0032
C 24.43966 28.03465 0.00622
C 25.82587 27.65589 -0.02815
C 26.0714 9.28849 -0.00942
C 24.7626 8.73728 0.00487
C 24.59844 7.23008 0.00826
C 25.8279 6.42762 -0.00294
C 25.69218 31.92556 -0.01654
C 2.45602 32.71879 0.00988
