348
Graphene
C 34.3651 0.03753 0.01295
C 14.72502 25.51482 0.00422
C 14.26866 8.75673 0.0351
C 14.64092 7.34506 -0.03113
C 15.92164 6.49651 0.02098
C 15.91972 5.06093 0.01848
C 14.7262 4.30359 -0.00619
C 14.767 2.90743 -0.02162
C 16.0073 2.1609 0.00889
C 16.06575 0.71822 -0.00481
C 14.80144 0.04804 0.00979
C 17.19229 32.63559 0.01443
C 18.40918 31.83668 0.03505
C 18.4328 30.38313 -0.02815
C 17.1804 29.7177 -0.04147
C 17.27991 28.31995 -0.05302
C 18.4647 27.726 0.00213
C 18.4451 26.34282 -0.00066
C 16.06621 26.03146 0.00798
C 16.07678 27.51342 0.00228
C 14.87849 28.362 -0.00114
C 14.83356 29.79647 -0.02696
C 12.30579 29.75003 -0.01454
C 12.30052 28.33891 0.01945
C 13.59587 27.72964 0.01416
C 13.60984 26.32513 0.03542
C 12.29808 25.65478 0.02299
C 12.30056 24.31639 0.00244
C 12.70445 8.63843 -0.01717
C 12.34864 7.13123 0.05265
C 17.34429 25.38052 -0.00289
C 13.52184 6.39196 -0.01952
C 12.24801 4.26627 0.00374
C 12.33326 2.8815 0.00052
C 13.50755 2.07935 -0.03682
C 13.54017 0.70177 0.01965
C 12.24902 0.07163 0.02058
C 14.79691 32.72895 -0.01957
C 15.98423 31.90846 -0.0108
C 16.05163 30.47841 -0.00368
C 13.51181 4.96628 -0.02813
C 18.0144 23.98557 0.00028
C 18.46908 9.13221 -0.02213
C 17.17304 8.6709 0.03698
C 19.63275 7.05804 -0.00831
C 20.88932 6.40323 -0.02957
C 20.88135 4.98555 -0.04422
C 19.63981 4.20633 0.00654
C 19.66948 2.79351 -0.00703
C 20.91591 2.17301 -0.04076
C 20.86581 0.75519 -0.00652
C 19.67427 0.04294 0.0058
C 19.67746 8.44211 0.00364
C 22.19396 32.67409 -0.00865
C 23.36394 30.50684 -0.00311
C 22.10514 29.77514 0.00742
C 22.07932 28.32363 -0.01594
C 23.33287 27.69178 0.0106
C 23.22426 26.20377 -0.01154
C 22.02875 25.49234 -0.01721
C 21.93435 24.10946 -0.02422
C 23.18446 23.48145 0.01277
C 23.37947 31.98969 0.00675
C 13.56106 30.45875 0.01241
C 20.93239 9.1908 -0.017
C 20.84613 22.10375 0.00667
C 17.14547 7.21383 -0.00109
C 18.41586 6.34753 -0.00491
C 18.39288 4.91294 0.03338
C 17.1278 4.36724 -0.0258
C 17.18571 2.99166 -0.0331
C 18.4304 2.03657 -0.00316
C 18.46112 0.68024 0.02188
C 17.20076 0.00088 -0.01979
C 20.7241 10.58259 0.00143
C 19.63336 32.58064 0.02691
C 20.92348 30.48734 0.01452
C 19.68522 29.85251 0.04892
C 19.64809 28.37425 -0.00111
C 20.87566 27.68078 -0.03557
C 20.77821 26.19516 0.03754
C 19.61063 25.5605 0.01739
C 19.42717 24.1856 0.00755
C 20.55363 23.39201 -0.0054
C 20.92955 31.93607 -0.01581
C 23.26936 22.0651 0.00096
C 13.54876 31.94752 0.0076
C 9.78922 0.06282 -0.0014
C 6.13017 30.45147 -0.01362
C 4.87924 29.79474 -0.0008
C 4.88945 28.40304 0.0288
C 6.07928 27.68899 0.00393
C 6.10769 26.21915 0.00895
C 4.88273 25.44083 0.00685
C 4.83415 24.07524 0.02888
C 6.12393 23.42237 -0.00482
C 6.03136 21.78664 -0.01384
C 4.79838 21.22682 0.03693
C 6.06406 9.3481 0.01745
C 4.82138 8.73626 0.00488
C 4.89077 7.17706 -0.01004
C 6.16876 6.57658 -0.02896
C 6.1821 5.16184 -0.00131
C 5.00837 4.39378 -0.01118
C 4.89566 2.90365 -0.014
C 6.10143 31.93601 -0.00892
C 4.87009 32.67329 -0.04848
C 2.48499 34.04169 0.01572
C 3.6557 0.70295 -0.00095
C 3.59244 30.54091 -0.02929
C 2.48956 29.77484 -0.00966
C 2.37773 28.40215 -0.03337
C 3.6608 27.74994 0.01227
C 3.70303 26.28341 0.00873
C 2.48514 25.62888 -0.00049
C 2.43018 24.09254 0.00848
C 3.58327 23.30246 -0.01303
C 6.12868 2.24173 0.02147
C 3.51171 21.78585 -0.01378
C 3.48496 9.30487 0.0127
C 2.44378 8.49786 0.01396
C 2.43157 7.00891 0.01849
C 3.68207 6.39544 -0.01142
C 3.71286 5.03257 -0.00562
C 2.46112 4.28481 -0.00494
C 2.40823 2.86924 0.00054
C 3.68084 2.12825 0.03007
C 2.23375 21.07367 0.02635
C 6.20987 0.79838 0.00373
C 4.95032 0.05709 -0.00191
C 7.36095 32.66876 0.00438
C 11.0675 32.01904 -0.02245
C 11.06426 30.50034 -0.00428
C 9.75963 29.78049 0.03101
C 9.80095 28.35436 -0.01536
C 11.09024 27.79374 -0.02689
C 11.04396 26.39218 -0.01046
C 9.86391 25.61786 -0.00891
C 9.93011 24.12182 0.02819
C 9.83216 32.73889 0.00985
C 11.1523 23.51412 0.00165
C 9.88549 8.70265 0.02894
C 9.8589 7.22747 -0.01789
C 11.05738 6.50833 0.00444
C 11.09838 5.02447 -0.00925
C 9.81215 4.36033 0.01877
C 9.76831 2.98501 0.01363
C 10.97462 2.25677 -0.02162
C 11.03789 0.77784 0.00415
C 11.43278 9.24092 -0.02971
C 12.29573 32.70338 0.02162
C 7.3644 34.03842 -0.01275
C 8.5894 2.17369 0.02841
C 8.65413 31.98456 0.01291
C 8.48971 30.4977 0.00093
C 7.27569 29.80448 0.00057
C 7.36072 28.31472 -0.01634
C 8.56218 27.64914 -0.00334
C 8.60261 26.23614 0.02339
C 7.39186 25.48534 0.01641
C 7.38158 24.09227 -0.00719
C 8.61794 0.77798 -0.01111
C 8.70165 23.34728 0.01364
C 7.36922 21.31228 -0.00033
C 8.66877 9.49803 0.03589
C 7.31297 8.71052 -0.02759
C 7.36136 7.26458 0.0402
C 8.59027 6.55893 0.00572
C 8.61758 5.10803 0.03592
C 7.39 4.37011 0.00406
C 7.35608 2.91179 0.00943
C 8.62375 22.04179 -0.01062
C 22.06307 21.39365 -0.01527
C 23.49409 19.15466 0.01087
C 23.44778 17.8035 0.00199
C 29.44055 34.07375 0.01428
C 31.92119 32.71693 -0.02142
C 33.05833 31.97307 0.0544
C 33.21298 30.55143 0.00026
C 31.94499 29.86015 0.00682
C 31.86759 28.46084 -0.01779
C 33.13528 27.74829 0.03794
C 33.20455 26.32154 0.01927
C 31.94902 25.65985 0.01574
C 31.94295 24.15835 -0.02383
C 33.19435 23.4944 -0.01429
C 33.18741 22.04755 -0.0136
C 32.00254 21.36854 0.00594
C 31.99662 19.98446 -0.02474
C 33.17048 19.2747 0.00369
C 33.13051 17.87683 0.00455
C 31.8612 17.08831 -0.00644
C 30.73706 0.68351 -0.01694
C 30.76757 2.08048 0.01713
C 29.50488 2.85019 0.00346
C 29.56936 4.29789 0.00307
C 30.72612 23.51798 0.01836
C 30.74816 22.06621 0.03531
C 29.4853 21.44228 -0.00669
C 29.4837 19.99289 0.0101
C 30.76257 19.21296 0.01705
C 30.6274 17.72802 -0.0405
C 29.43018 17.05847 -0.01303
C 29.47972 15.58081 -0.01461
C 31.88381 15.6537 -0.01839
C 30.63247 14.86892 -0.02155
C 29.43695 12.72403 -0.03735
C 29.50007 11.34722 -0.00971
C 30.75444 10.6483 0.01518
C 30.72483 9.20306 0.01908
C 29.52773 8.48831 0.07705
C 29.54986 7.10249 0.0103
C 30.72776 6.36085 0.02108
C 30.85283 4.95398 0.00716
C 30.67281 13.43146 -0.00944
C 33.19765 14.99569 0.00137
C 33.16787 13.4643 0.00199
C 31.95762 12.68557 0.04381
C 1.21293 21.97895 -0.01678
C 34.3906 21.38698 0.01223
C 0.04454 19.98046 0.00648
C 1.4636 19.46858 0.02114
C 34.23606 17.08425 -0.02957
C 34.39021 15.71856 0.00343
C 34.42664 12.91854 -0.02656
C 0.16931 11.49517 -0.02442
C 1.15555 23.44801 0.01951
C 1.40136 10.49494 -0.00027
C 34.39626 8.53581 -0.02302
C 34.40952 7.06605 -0.02849
C 1.17905 6.37408 0.02931
C 1.16636 4.98781 0.00628
C 34.37315 4.26825 -0.0345
C 34.38606 2.88686 -0.00931
C 1.19254 2.10169 -0.00939
C 1.1672 0.70505 -0.00468
C 1.23898 9.12693 -0.00583
C 29.4479 24.21578 -0.03039
C 34.40281 24.15648 -0.02213
C 1.20172 26.26518 0.00723
C 31.99291 11.326 0.02806
C 33.32935 10.6591 0.01504
C 33.24802 9.23186 -0.00069
C 32.00694 8.55726 0.04926
C 31.97814 7.09523 -0.03838
C 33.14912 6.30302 0.00349
C 33.18296 4.92004 -0.00323
C 32.01347 4.2449 -0.00841
C 0.02463 25.52488 0.02712
C 31.95214 2.85152 0.0001
C 33.19167 0.77139 -0.01404
C 31.98469 0.01962 0.01027
C 34.33196 32.68908 0.01831
C 1.08935 31.8979 -0.01037
C 1.24824 30.54403 -0.00439
C 34.42273 29.86913 -0.00598
C 34.37247 28.49374 -0.05239
C 1.11393 27.70385 0.03076
C 33.19522 2.17584 -0.02927
C 29.47132 25.67178 -0.01415
C 30.70141 26.29662 -0.01854
C 30.6548 27.74531 -0.02049
C 24.54495 25.58407 -0.02118
C 24.51307 24.14864 0.00733
C 25.75632 23.52792 -0.00178
C 25.80861 22.02956 0.00768
C 24.51174 21.3149 -0.0276
C 24.63312 19.87487 0.03005
C 25.84279 19.17116 -0.04078
C 25.81432 17.72559 0.02117
C 25.76538 26.24474 -0.01971
C 24.5766 16.99244 0.02737
C 25.8408 14.72954 0.00135
C 25.77631 13.41739 0.03102
C 24.55449 12.78491 0.02555
C 24.52777 11.34962 0.01423
C 25.75173 10.68364 -0.00285
C 25.77373 9.23332 -0.009
C 24.58779 8.51152 -0.01199
C 24.62216 6.9821 -0.00229
C 24.66269 15.53988 -0.00498
C 25.84709 6.29985 -0.00938
C 25.77064 27.7049 -0.01586
C 24.59547 29.78834 0.00071
C 23.37183 15.01793 0.01511
C 23.24303 13.48417 -0.00478
C 22.06372 12.71563 -0.01662
C 21.94205 11.32886 -0.01185
C 23.31557 10.56047 0.01126
C 23.37112 9.11371 0.01852
C 22.14938 8.45758 -0.00381
C 22.08327 7.08379 0.03046
C 24.54363 28.3917 -0.01107
C 23.30005 6.35185 0.0296
C 22.11923 4.29558 -0.02845
C 22.12335 2.89576 -0.03213
C 23.33996 2.10493 0.02239
C 23.21165 0.69932 0.01153
C 22.08047 0.02446 0.02734
C 24.65408 32.61705 -0.0055
C 25.86963 31.95391 0.01515
C 25.80936 30.54228 -0.00225
C 23.34164 4.95426 0.03374
C 3.59373 31.89741 0.03368
C 25.812 4.88567 -0.0264
C 24.64171 2.81791 0.00684
C 27.01373 12.74965 -0.00621
C 27.02277 11.32922 0.02611
C 28.30063 10.58899 0.02198
C 28.29933 9.205 0.01094
C 27.01235 8.52616 0.00235
C 27.06185 7.10957 0.01495
C 28.27428 6.4317 0.01259
C 28.33539 5.01338 0.01799
C 28.21458 13.50105 0.00194
C 27.07398 4.23745 0.01699
C 28.2541 2.12612 0.01177
C 28.23871 0.79754 0.04266
C 27.03461 0.01847 0.01324
C 29.43759 32.70345 0.0014
C 30.64934 32.04923 0.00924
C 30.64215 30.61358 0.02326
C 29.44555 29.86466 0.00261
C 29.41713 28.40671 0.03265
C 27.07089 2.85597 -0.00416
C 24.55136 4.1797 -0.01154
C 28.24788 14.93687 0.04185
C 27.01852 16.98805 0.01257
C 25.85139 2.15043 -0.01052
C 25.74458 0.68657 -0.01679
C 24.528 0.00849 0.00367
C 27.03557 32.67754 0.04306
C 28.22802 32.00442 0.00996
C 28.20967 30.57348 0.00195
C 26.988 29.8321 -0.00802
C 26.96668 28.35188 -0.00218
C 26.99493 15.56395 0.02316
C 28.20028 27.70632 -0.01654
C 26.99698 25.57009 -0.0032
C 27.0459 24.17252 0.00622
C 28.26615 23.49841 -0.02815
C 28.24066 22.03527 -0.00942
C 27.03648 21.33526 0.00487
C 26.96457 19.92176 0.00826
C 28.23474 19.20649 -0.00294
C 28.20223 17.80997 0.00152
C 28.22917 26.36678 -0.00037
C 2.30499 32.65032 -0.00077
