385
Graphene
C 0.00438 0.08093 0.01295
C 13.54035 4.9466 0.02162
C 12.27629 4.34151 0.0076
C 12.27938 2.8753 0.01241
C 13.52865 2.16779 -0.01454
C 13.57712 0.75049 0.01945
C 12.38034 0.00193 0.01416
C 14.77174 32.65737 0.03542
C 15.90412 31.90177 0.02299
C 16.02159 30.42226 0.00244
C 13.49744 6.38783 -0.0014
C 14.76449 29.77709 -0.01717
C 15.84966 27.73401 -0.01952
C 16.04979 13.45528 -0.02813
C 14.81555 12.8582 0.00374
C 14.83386 11.36954 0.00052
C 15.98884 10.62253 -0.03682
C 14.69335 6.9525 0.01965
C 15.90911 6.34546 0.02058
C 16.00328 4.83417 -0.01957
C 14.74305 4.17697 -0.0108
C 14.89082 28.38581 0.05265
C 14.70879 2.80445 -0.00368
C 12.26779 7.15528 0.00415
C 13.3843 9.30912 0.01363
C 11.10125 10.71607 0.00943
C 11.07042 9.28308 0.02841
C 9.85636 8.60472 -0.01111
C 9.83205 7.11812 -0.01275
C 11.05218 6.44257 0.00985
C 11.07603 5.01249 -0.02245
C 9.91165 4.3036 -0.00428
C 9.85501 2.935 0.03101
C 11.06066 2.16456 -0.01536
C 12.27482 8.63529 -0.02162
C 11.11372 0.68255 -0.02689
C 12.33787 32.70333 -0.00891
C 13.54702 31.93664 0.02819
C 13.61773 30.51909 0.00165
C 12.31418 29.7632 -0.02971
C 12.16573 28.40446 0.02894
C 13.5457 13.34072 -0.01789
C 12.21537 12.85172 0.00444
C 12.33191 11.33584 -0.00925
C 13.61441 10.62824 0.01877
C 9.83093 0.01914 -0.01046
C 9.87526 11.38748 0.00406
C 15.9392 2.1966 -0.02696
C 14.76461 0.00859 0.00228
C 19.6798 29.73279 0.03338
C 19.62234 28.30397 -0.0258
C 20.95906 27.75167 -0.0331
C 20.86939 26.20548 -0.00316
C 19.60116 25.64364 0.02188
C 20.91569 23.44676 -0.01979
C 20.97098 19.08377 0.02691
C 21.0633 17.91437 -0.01581
C 19.61684 15.46441 0.01452
C 20.93727 30.4371 -0.00491
C 20.90473 14.95521 0.04892
C 19.72065 12.78742 -0.03557
C 19.60483 11.30855 0.03754
C 20.86749 10.61263 0.01739
C 20.9451 9.17694 0.00755
C 19.66671 8.50432 -0.0054
C 19.68033 7.09499 0.00667
C 20.88313 6.32074 0.00143
C 20.78809 4.95833 -0.017
C 19.58962 4.28332 0.00364
C 20.85447 13.50605 -0.00111
C 15.96557 0.74493 -0.00114
C 20.90689 31.89222 -0.00109
C 17.19303 0.0125 -0.02213
C 17.19071 32.68837 0.00798
C 18.4839 31.97205 0.00422
C 18.46576 30.5546 0.0351
C 17.27144 29.79422 -0.03113
C 17.24491 28.19117 0.02098
C 18.4752 27.59735 0.01848
C 18.57474 14.94921 -0.00619
C 18.4897 13.51332 -0.02162
C 17.20413 12.82438 0.00889
C 19.66577 32.68927 0.03698
C 17.16407 11.33747 -0.00481
C 18.39042 9.16566 0.01443
C 17.15693 8.57915 0.03505
C 17.16769 7.1675 -0.02815
C 18.44524 6.38807 -0.04147
C 18.37876 4.97015 -0.05302
C 17.22374 4.16682 0.00213
C 17.18711 2.79734 -0.00066
C 18.41092 2.095 -0.00289
C 18.393 0.69916 0.00028
C 18.45562 10.63872 0.00979
C 9.93314 12.7811 0.03592
C 11.01787 13.58685 0.00572
C 11.20732 27.70635 0.0402
C 3.60633 4.98557 -0.03113
C 2.41009 4.29665 -0.02566
C 2.49535 2.88235 -0.00094
C 3.68954 2.11078 0.02322
C 3.61409 0.72025 -0.00725
C 2.415 34.06525 -0.05697
C 4.84905 32.67347 0.01087
C 6.11228 32.02885 -0.01343
C 6.14043 30.60025 0.00988
C 3.68751 6.34083 0.017
C 4.9104 29.88587 0.0276
C 6.11319 27.71565 -0.00077
C 6.09853 26.33915 0.03368
C 4.88642 25.64913 -0.02929
C 4.88607 24.17115 -0.00966
C 6.2291 23.39025 -0.03337
C 6.05447 21.99766 0.01227
C 4.86016 21.30919 0.00873
C 5.01194 19.85471 -0.00049
C 6.2404 19.23486 0.00848
C 4.87314 28.44724 0.01305
C 6.28669 17.84558 -0.01303
C 2.44582 7.06614 -0.00643
C 3.66047 9.21376 -0.00518
C 3.64155 30.63975 0.03189
C 2.44202 29.82769 0.00031
C 2.47749 28.37311 -0.003
C 3.70708 27.70492 0.01402
C 3.67299 26.29475 0.02379
C 2.43713 25.49948 0.00907
C 2.42471 24.13551 0.00643
C 3.64497 23.43379 -0.01509
C 3.63011 22.0751 0.03267
C 2.41132 8.5161 0.0086
C 2.41254 21.31393 0.02374
C 3.7573 19.15061 0.0073
C 3.72523 17.71929 0.0174
C 2.49885 17.06282 0.03828
C 2.44302 15.69553 0.01226
C 3.74469 14.94151 -0.00279
C 3.64822 13.50953 0.01996
C 2.42578 12.74553 -0.03996
C 2.43006 11.32071 0.01465
C 3.69981 10.63515 -0.00074
C 2.50249 19.8984 0.00402
C 4.95622 17.08007 -0.01378
C 4.9114 15.74256 0.02635
C 6.08833 14.9527 0.0127
C 8.67665 14.86558 -0.00131
C 8.65059 13.54857 -0.01118
C 7.41088 12.82298 -0.014
C 7.34332 11.28289 0.02147
C 8.58187 10.63227 0.00373
C 8.55617 9.21002 -0.00191
C 7.30862 8.46757 0.00438
C 7.38855 7.049 0.01291
C 8.60116 6.40705 0.00093
C 7.45458 15.68016 -0.02896
C 8.64167 4.98209 0.00057
C 7.31747 2.90153 -0.00334
C 8.59503 2.2203 0.02339
C 8.64177 0.78057 0.01641
C 7.37332 0.03006 -0.00719
C 9.90282 32.71694 0.01364
C 11.12414 31.98164 -0.01062
C 11.0689 30.56351 -0.00033
C 9.85091 29.83924 0.03589
C 9.90569 28.35288 -0.02759
C 7.37438 4.32122 -0.01634
C 7.39021 17.01059 -0.01004
C 7.35611 24.25748 0.00488
C 7.3714 25.66191 0.01745
C 6.15316 13.57079 0.01396
C 4.9001 12.79843 0.01849
C 4.85874 11.38901 -0.01142
C 6.10804 10.64164 -0.00562
C 6.15023 9.22342 -0.00494
C 4.89967 8.51125 0.00054
C 4.87789 7.1381 0.03007
C 6.08562 6.44827 -0.00095
C 6.13024 5.00006 0.01572
C 4.86307 4.26676 -0.04848
C 4.82696 2.84782 -0.00892
C 6.1567 2.14408 -0.01362
C 6.16787 0.68602 -0.0008
C 4.8681 0.04139 0.0288
C 7.3677 32.69063 0.00393
C 8.64592 32.02056 0.00895
C 8.59206 30.51858 0.00685
C 7.34128 29.87397 0.02888
C 7.33067 28.42383 -0.00482
C 8.63435 27.70742 -0.01384
C 8.53632 26.35192 0.03693
C 19.54818 2.85478 -0.00831
C 3.61319 32.02643 -0.04307
C 20.88925 2.12646 -0.02957
C 19.67678 0.02117 0.00654
C 29.45603 4.29425 0.0103
C 29.47708 2.82158 0.02108
C 30.71828 2.12109 0.00716
C 30.7068 0.69631 0.00307
C 29.48599 0.00155 0.00346
C 32.03418 32.67722 0.01713
C 33.22913 32.01416 -0.01694
C 33.15914 30.5548 0.01428
C 31.92265 29.86126 -0.02142
C 30.7124 4.93763 0.07705
C 31.89718 28.45275 0.0544
C 33.24271 26.31992 0.00682
C 32.02742 25.51254 -0.01779
C 32.00779 24.07503 0.03794
C 33.22276 23.4562 0.01927
C 33.20356 22.05542 0.01574
C 31.96065 21.32931 -0.02383
C 31.98901 19.91654 -0.01429
C 33.18854 19.16275 -0.0136
C 33.19053 17.74034 0.00594
C 33.22788 27.74537 0.00026
C 31.98385 17.01103 -0.02474
C 30.7557 6.33174 0.01908
C 29.53793 8.5129 -0.00971
C 29.49081 29.81837 0.0014
C 29.48253 28.357 0.00924
C 30.69379 27.66688 0.02326
C 30.78697 26.16955 0.00261
C 29.45996 25.51317 0.03265
C 29.44183 24.16028 -0.02049
C 30.71167 23.4288 -0.01854
C 30.75793 22.02516 -0.01415
C 29.55382 21.26955 -0.03039
C 29.49382 7.03687 0.01518
C 29.53321 19.89357 0.01836
C 30.75728 17.78772 -0.00669
C 29.60103 16.99765 0.0101
C 29.51502 15.52258 0.01705
C 30.76658 14.88059 -0.0405
C 30.79733 13.45137 -0.01303
C 29.52814 12.76357 -0.01461
C 29.48683 11.3481 -0.02155
C 30.71763 10.69221 -0.00944
C 30.71068 9.22149 -0.03735
C 30.78653 19.2329 0.03531
C 30.72331 30.53203 0.01324
C 32.01345 15.64178 0.00369
C 33.14593 13.45476 -0.00644
C 34.41502 21.2898 -0.02213
C 0.02036 19.86703 0.01951
C 1.27686 19.1837 -0.01678
C 1.26753 17.76346 0.01223
C 34.3874 17.05403 0.00648
C 34.41543 15.59918 0.02114
C 1.24317 14.97066 -0.02957
C 1.23472 13.51265 0.00343
C 34.38671 12.769 -0.02656
C 1.19783 22.00205 0.02712
C 34.40425 11.30054 -0.02442
C 1.22952 9.25239 -0.00583
C 34.37423 8.50635 -0.02302
C 34.34328 7.09333 -0.02849
C 1.18751 6.36847 0.02931
C 1.17487 4.93766 0.00628
C 34.38507 4.26825 -0.0345
C 34.40276 2.83602 -0.00931
C 1.22946 2.19758 -0.00939
C 1.21558 0.78288 -0.00468
C 1.22949 10.59689 -0.00027
C 33.17787 14.88258 0.00455
C 1.16965 23.44282 0.00723
C 34.39996 25.55321 -0.05239
C 32.01665 12.70627 -0.01839
C 31.95592 11.36459 0.00137
C 33.17198 10.6858 0.00199
C 33.19734 9.2765 0.04381
C 31.9283 8.62457 0.02806
C 31.95402 7.14591 0.01504
C 33.12557 6.41326 -0.00069
C 33.19379 4.99165 0.04926
C 31.97045 4.27385 -0.03838
C 34.43064 24.18632 0.03076
C 31.939 2.77691 0.00349
C 33.17633 0.7317 -0.00841
C 31.94707 34.06418 0.0001
C 0.01314 32.756 -0.02927
C 1.1916 31.87794 -0.01404
C 1.18393 30.48187 0.01027
C 34.38139 29.83382 0.01831
C 0.03615 28.40327 -0.01037
C 1.26913 27.70735 -0.00439
C 1.18752 26.22853 -0.00598
C 33.16621 2.12727 -0.00323
C 30.74155 31.95604 0.04266
C 29.5523 32.61087 0.01177
C 27.03251 0.00603 -0.00416
C 22.21923 6.97734 -0.00381
C 23.50138 6.39118 0.03046
C 22.08047 2.83405 0.0296
C 23.31948 2.15343 0.03374
C 23.35033 0.63453 -0.02845
C 22.1296 33.99122 -0.03213
C 24.58068 32.62049 0.02239
C 25.79859 31.93774 0.01153
C 25.84192 30.52448 0.02734
C 22.20243 8.52507 0.01852
C 24.54151 29.80162 -0.0055
C 25.7933 27.64579 -0.00225
C 25.78232 26.18478 0.00071
C 24.55663 25.54435 -0.01107
C 24.6002 24.11894 -0.01586
C 25.83428 23.40306 -0.01971
C 25.71387 22.00651 -0.02118
C 24.49965 21.21781 0.00733
C 24.61057 19.87325 -0.00178
C 25.87803 19.14993 0.00768
C 24.55552 28.34721 0.01515
C 25.878 17.67924 -0.0276
C 23.35818 9.23927 0.01126
C 22.12629 11.37823 -0.01662
C 22.13626 32.56691 -0.00703
C 23.3407 31.94357 -0.04076
C 23.30758 30.51999 -0.00652
C 22.20098 29.75618 0.0058
C 22.22052 28.34849 -0.00865
C 23.37277 27.60029 0.00675
C 23.3364 26.22593 -0.00311
C 22.11583 25.53587 0.00742
C 22.09546 24.11395 -0.01594
C 23.40562 10.65364 -0.01185
C 23.38919 23.41723 0.0106
C 22.1158 21.35863 -0.01721
C 22.15228 19.96188 -0.02422
C 23.40423 19.18591 0.01277
C 23.40869 17.82179 0.00096
C 22.12957 17.02132 -0.01527
C 22.1434 15.57974 0.01087
C 23.36569 14.90343 0.00199
C 23.40841 13.49994 0.01511
C 22.12048 12.85107 -0.00478
C 23.28457 21.96589 -0.01154
C 24.60507 17.05336 0.03005
C 24.58146 15.68586 -0.04078
C 25.81212 14.9168 0.02117
C 27.10583 21.36925 0.00622
C 27.03356 19.9698 -0.02815
C 28.29139 19.17947 -0.00942
C 28.35268 17.7679 0.00487
C 27.14256 17.03673 0.00826
C 27.06252 15.59329 -0.00294
C 28.23756 14.86615 0.00152
C 28.25551 13.45271 0.01257
C 27.05289 12.78416 0.02316
C 28.39236 22.03779 -0.0032
C 27.00987 11.37759 0.04185
C 28.28547 9.21982 -0.00621
C 27.03486 8.49531 0.02611
C 26.97703 7.11306 0.02198
C 28.17461 6.4055 0.01094
C 28.16164 4.97885 0.00235
C 27.01159 4.21983 0.01495
C 27.017 2.79479 0.01259
C 28.22421 2.08361 0.01799
C 28.26568 0.69098 0.01699
C 28.25029 10.67106 0.00194
C 28.23833 23.44958 -0.00037
C 27.02517 24.16078 -0.01654
C 27.0083 25.54793 -0.00218
C 25.8083 13.47575 0.02737
C 24.56977 12.73826 -0.00498
C 24.63747 11.28118 0.00135
C 25.8424 10.60885 0.03102
C 25.86847 9.22465 0.02555
C 24.61946 8.50996 0.01423
C 24.66281 7.13273 -0.00285
C 25.82625 6.36142 -0.009
C 25.70927 4.92538 -0.01199
C 24.56444 4.30064 -0.00229
C 24.49094 2.91269 -0.00938
C 25.80169 2.17908 -0.0264
C 25.80993 0.73368 -0.01154
C 24.66067 0.02119 0.00684
C 27.08581 32.6989 -0.01052
C 28.23981 31.92375 -0.01679
C 28.28133 30.48208 0.00367
C 27.0136 29.80216 0.04306
C 27.02741 28.4046 0.00996
C 28.22765 27.65901 0.00195
C 28.23373 26.22884 -0.00802
C 20.93994 0.67797 -0.04422
C 2.38248 32.67847 0.03284
