425
Graphene
C 34.42454 0.00187 0.01295
C 13.49551 0.8181 0.00572
C 12.25927 0.09622 0.03592
C 14.70148 32.71095 0.00406
C 15.99734 31.93833 0.00943
C 15.98688 30.49285 0.02841
C 14.77358 29.83721 -0.01111
C 14.75813 28.4146 -0.01275
C 16.00716 27.72516 0.00985
C 15.9724 26.22789 -0.02245
C 14.7005 25.7298 -0.00428
C 13.53767 2.22084 0.0402
C 14.67366 24.21896 0.03101
C 15.97201 22.02208 -0.02689
C 14.79998 21.24727 -0.01046
C 14.71538 19.8911 -0.00891
C 16.03907 19.15408 0.02819
C 16.02187 17.72746 0.00165
C 14.73934 17.03543 -0.02971
C 14.76451 15.52755 0.02894
C 15.95031 14.82604 -0.01789
C 15.96687 13.4464 0.00444
C 14.73597 12.70796 -0.00925
C 15.93439 23.4925 -0.01536
C 12.17331 2.91173 -0.02759
C 12.22943 4.28165 0.03589
C 13.41949 5.08977 -0.00033
C 13.54976 30.47784 -0.01384
C 12.4974 29.66449 0.03693
C 13.46943 28.05453 0.01745
C 13.35656 26.51168 0.00488
C 12.26713 25.62413 -0.01004
C 12.10649 24.25559 -0.02896
C 13.38783 23.46422 -0.00131
C 13.51347 22.12205 -0.01118
C 12.324 21.34219 -0.014
C 12.34079 19.96 0.02147
C 13.54516 19.18435 0.00373
C 13.58042 17.71062 -0.00191
C 12.24666 17.00447 0.00438
C 12.24991 15.69453 0.01291
C 13.47701 14.85993 0.00093
C 13.46599 13.49236 0.00057
C 12.29188 12.799 -0.01634
C 12.2568 11.42053 -0.00334
C 13.43641 10.64091 0.02339
C 13.48842 9.2076 0.01641
C 12.24768 8.60949 -0.00719
C 12.23187 7.18894 0.01364
C 13.42882 6.44949 -0.01062
C 14.69913 11.31969 0.01877
C 13.58738 31.94167 -0.00482
C 15.95003 10.60111 0.01363
C 14.70604 8.51938 0.00415
C 17.20624 12.74351 0.0351
C 17.24211 11.30511 -0.03113
C 18.43655 10.61683 0.02098
C 18.40707 9.15966 0.01848
C 17.19641 8.47668 -0.00619
C 17.09602 7.08064 -0.02162
C 18.36736 6.3355 0.00889
C 18.37918 4.96254 -0.00481
C 17.20041 4.28543 0.00979
C 17.17785 2.85821 0.01443
C 18.48047 13.46258 0.00422
C 18.38718 2.17939 0.03505
C 17.20494 0.03173 -0.04147
C 19.64942 32.60962 -0.05302
C 20.85782 31.96172 0.00213
C 20.9024 30.52425 -0.00066
C 19.679 29.84455 -0.00289
C 19.62436 28.36594 0.00028
C 20.82262 27.65919 -0.02213
C 20.88217 26.28276 0.03698
C 19.69156 25.55671 -0.00109
C 19.70888 24.16815 -0.00491
C 18.44561 0.71765 -0.02815
C 18.44926 14.90948 0.00798
C 17.18403 15.60719 0.00228
C 17.24167 17.02537 -0.00114
C 14.71603 7.13874 -0.0014
C 15.86042 6.39312 0.02162
C 15.91148 4.99922 0.0076
C 14.65656 4.33626 0.01241
C 14.71524 2.87688 -0.01454
C 15.92589 2.14905 0.01945
C 15.96399 0.75083 0.01416
C 14.7163 0.0588 0.03542
C 17.17668 32.63947 0.02299
C 18.44236 31.91525 0.00244
C 18.39772 30.51321 -0.01717
C 17.22634 29.7799 0.05265
C 17.19596 28.35797 -0.01952
C 18.46552 27.64016 -0.02813
C 18.49079 26.27151 0.00374
C 17.21326 25.60802 0.00052
C 17.26782 24.11782 -0.03682
C 18.50401 23.45429 0.01965
C 18.45555 22.02145 0.02058
C 17.22792 21.37084 -0.01957
C 17.263 19.83397 -0.0108
C 18.44293 19.13467 -0.00368
C 18.45035 17.69508 -0.02696
C 15.94599 9.23135 -0.02162
C 12.40372 32.65797 0.02888
C 9.83565 0.12424 0.00685
C 11.08225 0.71978 0.00895
C 3.64303 2.17855 -0.00449
C 3.65077 0.76408 -0.01979
C 2.44427 34.03042 0.02784
C 4.83901 32.78303 -0.01977
C 6.12765 32.06104 -0.00561
C 5.00966 24.10838 0.00208
C 6.04286 23.44549 0.01707
C 6.17081 22.00653 0.02769
C 4.90019 21.36763 -0.03291
C 4.90116 19.99096 -0.04999
C 2.34844 2.82735 0.00211
C 6.11744 19.19952 0.04505
C 4.86002 17.08579 -0.04307
C 4.92661 15.66372 0.03189
C 6.12638 14.98191 0.00031
C 6.07138 13.43266 -0.003
C 4.85496 12.72478 0.01402
C 4.83544 11.33541 0.02379
C 6.17938 10.70244 0.00907
C 6.08748 9.27812 0.00643
C 4.87208 8.54315 -0.01509
C 4.87412 7.0979 0.03267
C 6.12493 17.85421 0.03284
C 2.31808 4.29006 0.0064
C 3.57284 5.00792 -0.00039
C 3.65223 6.47001 0.02728
C 3.76502 30.50562 -0.01471
C 2.63476 29.78975 -0.02827
C 2.49525 28.35544 0.01078
C 3.69797 27.53149 -0.00112
C 3.67074 26.33593 0.03345
C 2.44614 25.45136 0.00748
C 2.42383 24.0964 0.00662
C 3.69835 23.49062 -0.0154
C 3.65809 22.02924 -0.01299
C 2.47789 21.27229 -0.00407
C 2.50998 19.90026 0.01138
C 3.62699 19.2089 0.03278
C 3.65513 17.79033 -0.00177
C 2.46256 17.02341 0.04421
C 2.44725 15.64301 0.00088
C 3.70445 14.90837 0.00828
C 3.68149 13.51906 -0.02375
C 2.38826 12.80015 0.00558
C 2.36304 11.23536 -0.0059
C 3.61287 10.58476 -0.01386
C 3.58604 9.25951 -0.02805
C 2.34517 8.54013 0.00081
C 2.39268 7.08286 0.00245
C 6.12896 6.37236 0.02374
C 6.13949 4.9788 0.00402
C 4.88783 4.31791 0.0073
C 4.84747 2.8613 0.0174
C 9.98667 32.62994 0.01227
C 11.06926 32.14377 0.00873
C 10.8106 23.4279 -0.00049
C 11.0108 22.1139 0.00848
C 9.89533 21.34259 -0.01303
C 9.90704 20.00409 -0.01378
C 11.11086 19.25831 0.02635
C 11.14022 17.80855 0.0127
C 9.81557 17.1236 0.01396
C 9.78801 15.69672 0.01849
C 11.01899 14.98174 -0.01142
C 11.04546 13.56752 -0.00562
C 9.81478 12.97474 -0.00494
C 9.73335 11.47177 0.00054
C 10.95636 10.71705 0.03007
C 11.05054 9.31155 -0.00095
C 9.84379 8.60929 0.01572
C 9.80653 7.14788 -0.04848
C 10.97627 6.45793 -0.00892
C 11.0099 5.08525 -0.01362
C 9.78511 4.32203 -0.0008
C 9.8239 2.87928 0.0288
C 10.99563 2.17849 0.00393
C 7.32951 0.11387 -0.03337
C 20.88523 23.46059 0.03338
C 8.57602 0.76382 -0.00966
C 7.31175 2.89604 0.03368
C 6.05812 2.17124 0.03828
C 6.10399 0.77292 0.01226
C 4.86993 0.04631 -0.00279
C 7.19125 32.77997 0.01996
C 8.58363 23.58205 -0.03996
C 8.63016 22.11531 0.01465
C 7.44431 21.37195 -0.00074
C 7.32114 19.87819 -0.00518
C 8.64581 19.29786 0.0086
C 8.68967 17.80904 -0.00643
C 7.42727 17.08964 0.017
C 7.34164 15.69755 -0.03113
C 8.59232 15.00314 -0.02566
C 8.5869 13.64753 -0.00094
C 7.33603 12.83802 0.02322
C 7.33732 11.425 -0.00725
C 8.54086 10.73181 -0.05697
C 8.55177 9.34132 0.01087
C 7.38303 8.5704 -0.01343
C 7.32321 7.14023 0.00988
C 8.5561 6.42664 0.0276
C 8.53462 5.07517 0.01305
C 7.3624 4.29029 -0.00077
C 8.57364 2.18931 -0.02929
C 3.61842 31.94021 0.01218
C 20.89573 21.96552 -0.0258
C 19.65171 19.86862 -0.00316
C 29.51271 11.38276 -0.02155
C 30.76091 10.63634 -0.00944
C 30.7565 9.16988 -0.03735
C 29.48637 8.49512 -0.00971
C 29.48694 6.99793 0.01518
C 30.75202 6.24675 0.01908
C 30.70156 4.87051 0.07705
C 29.48864 4.21862 0.0103
C 29.41266 2.79762 0.02108
C 30.68464 2.11542 0.00716
C 29.45599 12.72262 -0.01461
C 30.70667 0.67992 0.00307
C 31.99986 32.61818 0.01713
C 33.2189 31.86531 -0.01694
C 33.22059 30.46352 0.01428
C 31.97247 29.73255 -0.02142
C 32.03171 28.28135 0.0544
C 33.25461 27.63211 0.00026
C 33.16707 26.24304 0.00682
C 31.88663 25.52796 -0.01779
C 31.8893 24.11811 0.03794
C 33.17393 23.42426 0.01927
C 29.44565 34.03972 0.00346
C 30.64985 13.48673 -0.01303
C 30.73143 14.95805 -0.0405
C 29.50612 15.66559 0.01705
C 28.2617 6.34105 0.01094
C 28.17898 4.93729 0.00235
C 26.95095 4.27882 0.01495
C 26.91784 2.86603 0.01259
C 28.18477 2.21338 0.01799
C 28.27215 0.71697 0.01699
C 27.00161 34.02114 -0.00416
C 29.48889 32.59659 0.01177
C 30.78744 31.87511 0.04266
C 30.82464 30.47746 0.01324
C 29.49431 29.76627 0.0014
C 29.50254 28.36911 0.00924
C 30.71099 27.63276 0.02326
C 30.71419 26.24452 0.00261
C 29.45655 25.49262 0.03265
C 29.47006 24.17 -0.02049
C 30.67159 23.40625 -0.01854
C 30.69971 22.01837 -0.01415
C 29.43956 21.25126 -0.03039
C 29.48791 19.89868 0.01836
C 30.712 19.19235 0.03531
C 30.74483 17.77101 -0.00669
C 29.52063 17.06513 0.0101
C 33.17425 21.96736 0.01574
C 27.00097 7.14178 0.02198
C 31.94748 21.30737 -0.02383
C 33.21419 19.1527 -0.0136
C 1.2734 23.36245 0.00723
C 1.22393 21.97156 0.02712
C 34.41481 21.26726 -0.02213
C 0.00463 19.88798 0.01951
C 1.2334 19.19716 -0.01678
C 1.23127 17.77587 0.01223
C 0.04249 17.11242 0.00648
C 34.42215 15.67625 0.02114
C 1.17068 14.89722 -0.02957
C 1.15814 13.41759 0.00343
C 0.00764 24.10759 0.03076
C 34.36048 12.75812 -0.02656
C 1.15221 10.63833 -0.00027
C 1.17605 9.11681 -0.00583
C 34.40205 8.42335 -0.02302
C 34.28503 7.01933 -0.02849
C 1.15282 6.3759 0.02931
C 1.18153 4.95761 0.00628
C 34.33764 4.20022 -0.0345
C 34.32579 2.8538 -0.00931
C 1.15957 2.14969 -0.00939
C 1.19338 0.67359 -0.00468
C 34.40799 11.32857 -0.02442
C 0.00968 25.49994 -0.05239
C 1.28248 26.15124 -0.00598
C 1.30124 27.59689 -0.00439
C 33.2356 17.80031 0.00594
C 32.00085 17.08651 -0.02474
C 31.92927 15.70205 0.00369
C 33.12074 14.98306 0.00455
C 33.14879 13.53628 -0.00644
C 31.95288 12.75722 -0.01839
C 32.01382 11.37929 0.00137
C 33.16015 10.6203 0.00199
C 33.17724 9.1759 0.04381
C 31.97307 8.48216 0.02806
C 31.92638 7.05489 0.01504
C 33.16111 6.28754 -0.00069
C 33.201 4.87242 0.04926
C 31.88069 4.19356 -0.03838
C 31.91353 2.72827 0.00349
C 33.18343 2.0825 -0.00323
C 33.18704 0.66745 -0.00841
C 31.98207 33.97229 0.0001
C 0.03999 32.6047 -0.02927
C 1.2403 31.857 -0.01404
C 1.31204 30.48642 0.01027
C 0.09097 29.76802 0.01831
C 0.04442 28.35393 -0.01037
C 31.91558 19.87836 -0.01429
C 27.05413 8.48383 0.02611
C 28.29342 9.20356 -0.00621
C 28.25294 10.65575 0.00194
C 23.29909 23.40277 0.00742
C 23.34967 22.01602 -0.01594
C 22.14717 21.26673 0.0106
C 22.18004 19.84622 -0.01154
C 23.42613 19.21787 -0.01721
C 23.34235 17.77108 -0.02422
C 22.05583 17.03901 0.01277
C 22.1305 15.65627 0.00096
C 23.36007 14.90552 -0.01527
C 23.39958 13.46856 0.01087
C 22.09623 24.11711 -0.00311
C 22.1407 12.7631 0.00199
C 23.34996 10.63876 -0.00478
C 23.36661 9.2834 -0.01662
C 22.11399 8.53956 -0.01185
C 22.09641 7.18303 0.01126
C 23.31772 6.46409 0.01852
C 23.24865 5.00509 -0.00381
C 22.07865 4.29344 0.03046
C 21.98506 2.92318 0.0296
C 23.24811 2.08224 0.03374
C 23.30393 0.73105 -0.02845
C 22.15216 11.3912 0.01511
C 22.18676 25.60532 0.00675
C 23.41682 26.23016 -0.00865
C 23.35411 27.75773 0.0058
C 20.86311 19.11338 0.02188
C 20.90768 17.76499 -0.01979
C 19.60942 16.97312 0.02691
C 19.67917 15.59074 -0.01581
C 20.90192 14.93812 0.01452
C 20.8982 13.57604 0.04892
C 19.65803 12.8138 -0.00111
C 19.61348 11.32148 -0.03557
C 20.91016 10.68352 0.03754
C 20.95761 9.28701 0.01739
C 19.5867 8.52244 0.00755
C 19.57143 7.15666 -0.0054
C 20.84448 6.45018 0.00667
C 20.82788 5.04493 0.00143
C 19.66681 4.25515 -0.017
C 19.65068 2.82687 0.00364
C 20.82323 0.56949 -0.00831
C 19.64059 34.03753 -0.02957
C 22.10626 32.63223 -0.04422
C 23.3473 32.01748 0.00654
C 23.32988 30.51898 -0.00703
C 22.10365 29.74043 -0.04076
C 22.12769 28.39256 -0.00652
C 22.06304 0.01192 -0.03213
C 24.54213 32.66159 0.02239
C 25.78221 31.92016 0.01153
C 25.9007 30.53309 0.02734
C 25.75845 0.6945 -0.01154
C 24.55501 0.03797 0.00684
C 27.04053 32.67193 -0.01052
C 28.22464 31.97946 -0.01679
C 28.32974 30.55171 0.00367
C 27.07739 29.71824 0.04306
C 27.04624 28.32377 0.00996
C 28.29443 27.63363 0.00195
C 28.27861 26.19436 -0.00802
C 27.01929 25.46324 -0.00218
C 26.99837 24.08336 -0.01654
C 28.2322 23.46296 -0.00037
C 28.20439 22.01417 -0.0032
C 26.96944 21.25238 0.00622
C 26.99492 19.88106 -0.02815
C 28.28711 19.21876 -0.00942
C 28.29757 17.78503 0.00487
C 27.16811 17.04095 0.00826
C 27.08603 15.64094 -0.00294
C 28.32726 14.96681 0.00152
C 28.32047 13.47334 0.01257
C 27.1052 12.75427 0.02316
C 27.11087 11.3949 0.04185
C 25.73635 2.14299 -0.0264
C 19.70937 21.2883 -0.0331
C 24.54234 2.88564 -0.00938
C 25.74356 5.00772 -0.01199
C 24.59008 29.78174 -0.0055
C 24.54238 28.37954 0.01515
C 25.80041 27.63305 -0.00225
C 25.81764 26.17618 0.00071
C 24.58625 25.4739 -0.01107
C 24.57777 24.08016 -0.01586
C 25.77346 23.37638 -0.01971
C 25.76423 22.01406 -0.02118
C 24.57313 21.22129 0.00733
C 24.64814 19.90122 -0.00178
C 25.85278 19.18245 0.00768
C 25.9579 17.77813 -0.0276
C 24.66255 17.00595 0.03005
C 24.67472 15.62285 -0.04078
C 25.87532 14.92213 0.02117
C 25.84621 13.43391 0.02737
C 24.61748 12.78244 -0.00498
C 24.58786 11.32836 0.00135
C 25.81465 10.67391 0.03102
C 25.85101 9.28976 0.02555
C 24.63725 8.55942 0.01423
C 24.57841 7.14857 -0.00285
C 25.80889 6.44399 -0.009
C 24.52552 4.2866 -0.00229
C 2.41327 32.66033 0.02426
