442
Graphene
C 0.05437 0.05554 0.01295
C 12.2762 12.84368 0.00057
C 12.25584 11.46875 -0.01634
C 13.52813 10.68678 -0.00334
C 13.44408 9.2275 0.02339
C 12.26115 8.55496 0.01641
C 12.3349 7.09061 -0.00719
C 13.47517 6.34668 0.01364
C 13.52162 4.99402 -0.01062
C 12.27557 4.20157 -0.00033
C 12.26114 2.77137 0.03589
C 13.56074 2.10486 -0.02759
C 13.58842 0.68341 0.0402
C 12.32963 34.06402 0.00572
C 14.79155 32.60372 0.03592
C 15.98517 31.89146 0.00406
C 15.94237 30.42491 0.00943
C 14.74155 29.77495 0.02841
C 14.7358 28.37884 -0.01111
C 15.93821 27.65521 -0.01275
C 15.98332 26.25025 0.00985
C 14.73875 25.54639 -0.02245
C 14.74417 24.08722 -0.00428
C 15.9892 23.43628 0.03101
C 13.50428 13.52536 0.00093
C 13.48558 14.95481 0.01291
C 12.25859 15.67091 0.00438
C 12.25106 17.14135 -0.00191
C 9.92648 8.57378 0.03007
C 9.90826 7.17515 -0.00095
C 11.05489 6.43212 0.01572
C 11.05833 5.00723 -0.04848
C 9.88417 4.29819 -0.00892
C 9.83361 2.87159 -0.01362
C 11.04468 2.14161 -0.0008
C 11.05962 0.66003 0.0288
C 9.82425 0.01954 0.00393
C 12.34645 32.66535 0.00895
C 13.56304 31.87148 0.00685
C 16.01651 22.01679 -0.01536
C 13.52971 30.39854 0.02888
C 12.19149 28.42764 -0.01384
C 13.48911 27.69231 0.03693
C 13.43729 26.2123 0.01745
C 12.20495 25.60609 0.00488
C 12.25863 24.17568 -0.01004
C 13.53078 23.43212 -0.02896
C 13.52519 22.01432 -0.00131
C 12.19479 21.38392 -0.01118
C 12.25449 19.98514 -0.014
C 13.50509 19.22617 0.02147
C 13.51135 17.80391 0.00373
C 12.25219 29.81991 -0.00482
C 11.08492 9.36284 0.00054
C 14.78909 21.34599 -0.02689
C 16.02649 19.20282 -0.00891
C 18.47075 22.0066 0.01965
C 17.21842 21.2627 0.02058
C 17.22338 19.88444 -0.01957
C 18.44766 19.15342 -0.0108
C 18.45902 17.72699 -0.00368
C 17.19297 16.98961 -0.02696
C 17.16661 15.59932 -0.00114
C 18.34112 14.89995 0.00228
C 18.35718 13.44964 0.00798
C 17.09342 12.78432 0.00422
C 17.15966 11.31687 0.0351
C 18.33899 10.65409 -0.03113
C 18.38325 9.2936 0.02098
C 17.18308 8.51904 0.01848
C 17.21062 7.12019 -0.00619
C 18.41613 6.42941 -0.02162
C 18.41894 5.01241 0.00889
C 17.1724 4.29226 -0.00481
C 17.20002 2.87759 0.00979
C 18.4308 2.17416 0.01443
C 18.43118 0.73084 0.03505
C 17.21902 0.04614 -0.02815
C 19.57347 32.64476 -0.04147
C 18.47809 23.41891 -0.03682
C 17.21752 24.1147 0.00052
C 17.23981 25.52199 0.00374
C 18.44177 26.26472 -0.02813
C 16.01104 17.7823 0.02819
C 14.79196 17.06206 0.00165
C 14.73257 15.64114 -0.02971
C 15.97418 14.88365 0.02894
C 15.94979 13.49145 -0.01789
C 14.71746 12.81317 0.00444
C 14.68518 11.41036 -0.00925
C 15.88313 10.70724 0.01877
C 15.94591 9.23384 0.01363
C 14.63703 8.5013 -0.02162
C 14.69188 7.06946 0.00415
C 14.78615 19.98253 -0.01046
C 15.97989 6.38566 -0.0014
C 14.74186 4.26091 0.0076
C 14.7762 2.89486 0.01241
C 16.0308 2.15046 -0.01454
C 16.02737 0.80025 0.01945
C 14.8343 0.00415 0.01416
C 17.16566 32.703 0.03542
C 18.37977 31.94862 0.02299
C 18.36379 30.48489 0.00244
C 17.16817 29.74473 -0.01717
C 17.13769 28.32877 0.05265
C 18.349 27.65232 -0.01952
C 15.97352 4.9867 0.02162
C 11.07612 10.74948 -0.00494
C 9.79691 11.4559 -0.00562
C 9.79765 12.90027 -0.01142
C 3.68697 0.74335 0.03278
C 2.48312 34.0664 -0.00177
C 4.93359 32.646 0.04421
C 6.16042 31.9591 0.00088
C 6.14086 30.52562 0.00828
C 4.97596 29.77143 -0.02375
C 4.95681 28.29779 0.00558
C 6.18405 27.66609 -0.0059
C 6.19207 26.29135 -0.01386
C 4.97295 25.53925 -0.02805
C 4.90346 24.17925 0.00081
C 6.31034 21.8279 0.00245
C 4.96821 21.27542 0.02728
C 4.86686 19.81182 -0.00039
C 6.1271 19.12314 0.0064
C 6.12906 17.75049 0.00211
C 4.89061 17.07929 -0.00449
C 4.8672 15.60132 -0.01979
C 6.09934 14.9064 0.02784
C 6.09932 13.49528 -0.01977
C 4.9364 12.75129 -0.00561
C 4.94824 11.39049 0.00208
C 6.15097 10.64017 0.01707
C 3.68928 2.17971 0.01138
C 2.45849 2.8573 -0.00407
C 2.51061 4.28296 -0.01299
C 3.70748 5.03042 -0.0154
C 3.75111 30.43365 -0.00374
C 2.51871 29.74755 -0.0213
C 2.45469 28.40767 0.01116
C 3.68552 27.6894 -0.0005
C 3.70839 26.28533 -0.00018
C 2.43253 25.57879 0.01073
C 2.43611 24.14224 0.01984
C 3.6339 23.44349 0.00535
C 3.69869 21.96621 -0.00198
C 2.47452 21.31282 -0.00012
C 2.40714 19.83131 -0.04306
C 6.1962 9.26092 0.02769
C 3.64844 19.13585 -0.03672
C 2.35855 16.98231 0.00267
C 2.37092 15.60568 0.00787
C 3.63367 14.88554 0.02426
C 3.66379 13.46259 0.01218
C 2.39225 12.70961 -0.01471
C 2.44798 11.36212 -0.02827
C 3.72081 10.67126 0.01078
C 3.69178 9.26656 -0.00112
C 2.4968 8.53491 0.03345
C 2.50506 7.13583 0.00748
C 3.64935 6.44165 0.00662
C 3.56998 17.767 0.01913
C 4.92994 8.55777 -0.03291
C 4.86768 7.14314 -0.04999
C 6.14097 6.53933 0.04505
C 8.5922 5.07277 -0.00094
C 7.3744 4.36498 0.02322
C 7.39817 2.93027 -0.00725
C 8.61032 2.27723 -0.05697
C 8.63535 0.83221 0.01087
C 7.38611 0.04508 -0.01343
C 9.87868 32.66821 0.00988
C 11.09478 31.94586 0.0276
C 11.08025 30.56454 0.01305
C 9.81927 29.85585 -0.00077
C 9.74627 28.45581 0.03368
C 8.67813 6.49556 -0.02566
C 10.99974 27.70936 -0.02929
C 9.87082 25.46012 -0.03337
C 11.01624 23.58623 0.01227
C 10.88563 22.24704 0.00873
C 9.73895 21.38288 -0.00049
C 9.80121 19.96587 0.00848
C 11.07046 19.26091 -0.01303
C 11.00731 17.86632 -0.01378
C 9.77859 17.15373 0.02635
C 9.78299 15.72738 0.0127
C 10.99965 15.01198 0.01396
C 10.99481 13.65648 0.01849
C 11.03477 26.34352 -0.00966
C 20.78683 31.99819 -0.05302
C 7.39474 7.1348 -0.03113
C 8.63701 9.24142 -0.00643
C 6.12235 5.07387 0.03284
C 4.94843 4.37193 -0.04307
C 4.84763 2.91227 0.03189
C 6.13827 2.21114 0.00031
C 6.13011 0.787 -0.003
C 4.83516 34.06093 0.01402
C 7.39279 32.74155 0.02379
C 8.60853 32.04796 0.00907
C 8.62431 30.62762 0.00643
C 7.35986 29.89074 -0.01509
C 7.32097 28.41358 0.03267
C 7.41279 8.57605 0.017
C 8.59437 27.67259 0.02374
C 7.32133 25.47919 0.0073
C 7.23511 20.00953 0.0174
C 8.50739 19.36214 0.03828
C 8.58463 17.89075 0.01226
C 7.32966 17.14797 -0.00279
C 7.3319 15.63927 0.01996
C 8.52949 14.94007 -0.03996
C 8.55659 13.52023 0.01465
C 7.31248 12.81195 -0.00074
C 7.36822 11.42034 -0.00518
C 8.61244 10.70446 0.0086
C 8.60781 26.13617 0.00402
C 20.81257 30.49999 0.00213
C 19.56172 29.83213 -0.00066
C 19.6028 28.42611 -0.00289
C 29.48831 15.58507 0.01705
C 30.72093 14.81174 -0.0405
C 30.71228 13.35381 -0.01303
C 29.50479 12.69907 -0.01461
C 29.47253 11.29748 -0.02155
C 30.70927 10.5679 -0.00944
C 30.75327 9.18682 -0.03735
C 29.49882 8.4011 -0.00971
C 29.53617 6.98654 0.01518
C 30.73932 6.30857 0.01908
C 30.74409 4.90275 0.07705
C 29.48483 4.18849 0.0103
C 29.52245 2.85499 0.02108
C 30.74594 2.14658 0.00716
C 30.74978 0.75864 0.00307
C 29.51861 34.07411 0.00346
C 31.9722 32.68628 0.01713
C 33.23478 31.97916 -0.01694
C 33.18682 30.59453 0.01428
C 31.96971 29.87753 -0.02142
C 31.93589 28.4888 0.0544
C 33.18898 27.79347 0.00026
C 33.20816 26.32782 0.00682
C 29.51127 17.05115 0.0101
C 30.71059 17.70894 -0.00669
C 30.63263 19.13245 0.03531
C 29.43589 19.91713 0.01836
C 27.02635 11.37725 0.04185
C 28.24113 10.57004 0.00194
C 28.30636 9.17516 -0.00621
C 27.05013 8.49645 0.02611
C 27.08059 7.06997 0.02198
C 28.3011 6.32344 0.01094
C 28.3147 4.94528 0.00235
C 27.03589 4.24628 0.01495
C 27.02102 2.86358 0.01259
C 28.30694 2.097 0.01799
C 28.29699 0.74161 0.01699
C 31.9837 25.57954 -0.01779
C 27.0513 0.01576 -0.00416
C 30.75254 31.98978 0.04266
C 30.74307 30.61 0.01324
C 29.49801 29.82168 0.0014
C 29.45677 28.38353 0.00924
C 30.70089 27.75326 0.02326
C 30.77162 26.37682 0.00261
C 29.50647 25.61041 0.03265
C 29.49 24.12683 -0.02049
C 30.69099 23.47642 -0.01854
C 30.64051 22.07019 -0.01415
C 29.46551 21.37875 -0.03039
C 29.43828 32.70227 0.01177
C 31.9278 24.17689 0.03794
C 33.17397 23.43995 0.01927
C 33.13938 21.99097 0.01574
C 34.42885 25.60968 -0.05239
C 0.00579 24.0887 0.03076
C 1.26706 23.39349 0.00723
C 1.2306 21.98569 0.02712
C 34.40036 21.29953 -0.02213
C 34.32585 19.83328 0.01951
C 1.11432 19.13145 -0.01678
C 1.17611 17.69669 0.01223
C 34.36498 16.94939 0.00648
C 34.36098 15.56247 0.02114
C 1.13121 14.78968 -0.02957
C 1.22014 26.29988 -0.00598
C 1.13958 13.41829 0.00343
C 0.06511 11.29067 -0.02442
C 1.26202 10.5766 -0.00027
C 1.26047 9.13376 -0.00583
C 0.03406 8.42374 -0.02302
C 0.08933 7.02269 -0.02849
C 1.30271 6.39331 0.02931
C 1.28835 4.97942 0.00628
C 0.04781 4.24338 -0.0345
C 0.0273 2.8175 -0.00931
C 1.24869 2.13793 -0.00939
C 1.29641 0.68875 -0.00468
C 34.38358 12.654 -0.02656
C 26.99799 12.76453 0.02316
C 1.19757 27.68833 -0.00439
C 34.37858 29.8615 0.01831
C 31.90839 21.30507 -0.02383
C 31.8412 19.85897 -0.01429
C 33.08433 19.10523 -0.0136
C 33.09528 17.68813 0.00594
C 31.88049 16.97246 -0.02474
C 31.88635 15.49587 0.00369
C 33.11503 14.83962 0.00455
C 33.19196 13.38297 -0.00644
C 31.89298 12.69314 -0.01839
C 31.95514 11.244 0.00137
C 33.20868 10.5582 0.00199
C 0.0181 28.51313 -0.01037
C 33.26636 9.10049 0.04381
C 32.01194 6.9794 0.01504
C 33.24845 6.30539 -0.00069
C 33.20265 4.89082 0.04926
C 31.96751 4.15585 -0.03838
C 31.9843 2.7826 0.00349
C 33.22201 2.14671 -0.00323
C 33.20695 0.69555 -0.00841
C 31.97394 0.02974 0.0001
C 0.02729 32.70283 -0.02927
C 1.28421 31.98003 -0.01404
C 1.26585 30.52395 0.01027
C 32.01812 8.39423 0.02806
C 3.752 31.93248 -0.00141
C 28.33395 13.50595 0.01257
C 27.04182 15.65234 -0.00294
C 23.28138 31.97365 0.00654
C 23.29292 30.51197 -0.00703
C 22.08798 29.85597 -0.04076
C 22.07274 28.46731 -0.00652
C 23.27127 27.7494 0.0058
C 23.25673 26.32537 -0.00865
C 22.07818 25.5759 0.00675
C 22.11218 24.19188 -0.00311
C 23.32105 23.49052 0.00742
C 23.42002 22.03076 -0.01594
C 22.23326 21.31051 0.0106
C 22.19466 19.88825 -0.01154
C 23.49625 19.21268 -0.01721
C 23.34351 17.74555 -0.02422
C 22.18073 17.04638 0.01277
C 22.13428 15.63393 0.00096
C 23.39315 14.9259 -0.01527
C 23.32434 13.50279 0.01087
C 22.1378 12.80192 0.00199
C 22.07741 11.36894 0.01511
C 23.34538 10.65136 -0.00478
C 23.2898 9.25791 -0.01662
C 22.07865 8.50849 -0.01185
C 22.05228 32.66966 -0.04422
C 19.63164 34.05453 -0.02957
C 20.87853 0.68863 -0.00831
C 20.88856 2.14117 0.00364
C 20.8464 27.70021 0.00028
C 20.86546 26.24446 -0.02213
C 19.6444 25.56697 0.03698
C 19.70698 24.08834 -0.00109
C 20.94571 23.4362 -0.00491
C 20.92388 22.04816 0.03338
C 19.73097 21.26839 -0.0258
C 19.71964 19.80599 -0.0331
C 20.96182 19.17309 -0.00316
C 20.86413 17.69178 0.02188
C 19.65344 16.99086 -0.01979
C 22.12625 7.0969 0.01126
C 19.63451 15.65298 0.02691
C 20.91099 13.52443 0.01452
C 19.639 12.76401 0.04892
C 19.60289 11.3645 -0.00111
C 20.82019 10.61087 -0.03557
C 20.86144 9.232 0.03754
C 19.62347 8.53698 0.01739
C 19.59427 7.14871 0.00755
C 20.89079 6.39433 -0.0054
C 20.90687 4.96895 0.00667
C 19.67889 4.26334 0.00143
C 19.64487 2.82811 -0.017
C 20.92531 14.92741 -0.01581
C 23.35276 6.4353 0.01852
C 23.37962 4.95851 -0.00381
C 22.14334 4.23955 0.03046
C 24.62343 7.128 -0.00285
C 25.7818 6.38955 -0.009
C 25.83833 4.93436 -0.01199
C 24.55631 4.23386 -0.00229
C 24.57656 2.79994 -0.00938
C 25.79457 2.09502 -0.0264
C 25.79337 0.68839 -0.01154
C 24.51335 34.02712 0.00684
C 27.0101 32.67448 -0.01052
C 28.27865 31.92201 -0.01679
C 28.22983 30.50834 0.00367
C 24.568 8.54593 0.01423
C 27.02024 29.80684 0.04306
C 28.22289 27.65099 0.00195
C 28.22099 26.25769 -0.00802
C 26.99497 25.53385 -0.00218
C 27.02195 24.17084 -0.01654
C 28.2491 23.45628 -0.00037
C 28.24928 22.08775 -0.0032
C 27.03674 21.32702 0.00622
C 26.98582 19.86598 -0.02815
C 28.22506 19.21087 -0.00942
C 28.26694 17.7575 0.00487
C 27.09345 17.05507 0.00826
C 27.03391 28.39161 0.00996
C 28.29376 14.93999 0.00152
C 25.80111 9.23639 0.02555
C 24.54228 11.39706 0.00135
C 22.13151 2.84152 0.0296
C 23.32424 2.1008 0.03374
C 23.31578 0.72881 -0.02845
C 22.11521 34.06743 -0.03213
C 24.52419 32.62588 0.02239
C 25.85634 31.93502 0.01153
C 25.78441 30.53548 0.02734
C 24.56914 29.8818 -0.0055
C 24.54092 28.48176 0.01515
C 25.77933 27.68019 -0.00225
C 25.79052 26.30394 0.00071
C 25.77406 10.61489 0.03102
C 24.49111 25.5997 -0.01107
C 25.80351 23.47393 -0.01971
C 25.78497 22.03752 -0.02118
C 24.60258 21.40415 0.00733
C 24.63206 19.87999 -0.00178
C 25.80693 19.18385 0.00768
C 25.86363 17.75689 -0.0276
C 24.657 16.99732 0.03005
C 24.63038 15.54302 -0.04078
C 25.84737 14.87945 0.02117
C 25.76429 13.47282 0.02737
C 24.48493 12.7997 -0.00498
C 24.56005 24.17381 -0.01586
C 2.47531 32.67835 -0.03951
