425
Graphene
C 34.43164 34.00713 0.01295
C 13.53307 0.79103 0.00572
C 12.35872 0.07931 0.03592
C 14.77687 32.68568 0.00406
C 15.97061 31.91271 0.00943
C 15.96563 30.50529 0.02841
C 14.78416 29.80716 -0.01111
C 14.76468 28.4527 -0.01275
C 15.95382 27.5965 0.00985
C 15.97585 26.22354 -0.02245
C 14.68349 25.57075 -0.00428
C 13.43681 2.23234 0.0402
C 14.65484 24.09789 0.03101
C 16.01914 22.03862 -0.02689
C 14.75628 21.4306 -0.01046
C 14.81671 19.85933 -0.00891
C 15.94098 19.12107 0.02819
C 15.97965 17.69259 0.00165
C 14.76257 16.9472 -0.02971
C 14.71734 15.50746 0.02894
C 15.97502 14.82162 -0.01789
C 15.93537 13.38776 0.00444
C 14.70687 12.74522 -0.00925
C 16.0014 23.42945 -0.01536
C 12.28387 2.87452 -0.02759
C 12.20981 4.34247 0.03589
C 13.42778 5.05225 -0.00033
C 13.57637 30.57526 -0.01384
C 12.4479 29.78159 0.03693
C 13.40025 27.91949 0.01745
C 13.46026 26.46271 0.00488
C 12.30686 25.62704 -0.01004
C 12.10935 24.25047 -0.02896
C 13.40101 23.49441 -0.00131
C 13.55234 22.04215 -0.01118
C 12.3211 21.37591 -0.014
C 12.38426 19.94252 0.02147
C 13.56561 19.11591 0.00373
C 13.52135 17.724 -0.00191
C 12.3353 17.08775 0.00438
C 12.25765 15.6215 0.01291
C 13.47452 14.82781 0.00093
C 13.51318 13.40155 0.00057
C 12.25054 12.81073 -0.01634
C 12.28488 11.37633 -0.00334
C 13.54765 10.65248 0.02339
C 13.46876 9.21694 0.01641
C 12.21632 8.53889 -0.00719
C 12.24648 7.18118 0.01364
C 13.45312 6.5046 -0.01062
C 14.80234 11.34358 0.01877
C 13.55038 31.9942 -0.00482
C 16.05662 10.66526 0.01363
C 14.6962 8.51492 0.00415
C 17.15821 12.71711 0.0351
C 17.19361 11.35411 -0.03113
C 18.40591 10.63914 0.02098
C 18.37763 9.21474 0.01848
C 17.18446 8.47028 -0.00619
C 17.15782 7.06954 -0.02162
C 18.36331 6.32014 0.00889
C 18.37872 4.89394 -0.00481
C 17.10325 4.24816 0.00979
C 17.17221 2.88229 0.01443
C 18.32074 13.51239 0.00422
C 18.42975 2.11679 0.03505
C 17.24486 0.02103 -0.04147
C 19.58579 32.67985 -0.05302
C 20.85508 31.96449 0.00213
C 20.86519 30.55739 -0.00066
C 19.6697 29.77678 -0.00289
C 19.73799 28.39522 0.00028
C 20.94037 27.67743 -0.02213
C 20.97253 26.2802 0.03698
C 19.72767 25.59873 -0.00109
C 19.73215 24.18583 -0.00491
C 18.39634 0.74046 -0.02815
C 18.45333 14.88445 0.00798
C 17.23164 15.57037 0.00228
C 17.22504 16.97017 -0.00114
C 14.68675 7.10539 -0.0014
C 15.94592 6.40422 0.02162
C 15.95566 4.99602 0.0076
C 14.6948 4.3234 0.01241
C 14.71514 2.85955 -0.01454
C 15.95281 2.13283 0.01945
C 16.00128 0.70539 0.01416
C 14.74889 0.03744 0.03542
C 17.20937 32.69433 0.02299
C 18.3646 31.93782 0.00244
C 18.43181 30.46421 -0.01717
C 17.21292 29.69498 0.05265
C 17.19268 28.28574 -0.01952
C 18.41733 27.70355 -0.02813
C 18.46619 26.27089 0.00374
C 17.24617 25.54103 0.00052
C 17.27256 24.1895 -0.03682
C 18.51335 23.53592 0.01965
C 18.50612 22.02416 0.02058
C 17.228 21.27517 -0.01957
C 17.15996 19.89626 -0.0108
C 18.45959 19.16942 -0.00368
C 18.47253 17.69166 -0.02696
C 16.00224 9.17794 -0.02162
C 12.35439 32.71028 0.02888
C 9.78315 0.01458 0.00685
C 11.07153 0.75367 0.00895
C 3.63799 2.24185 -0.00449
C 3.69832 0.7774 -0.01979
C 2.46308 0.02575 0.02784
C 4.78513 32.62181 -0.01977
C 6.05595 32.11619 -0.00561
C 4.92996 24.12802 0.00208
C 6.08449 23.39296 0.01707
C 6.16647 22.03344 0.02769
C 4.94293 21.3133 -0.03291
C 4.896 19.91192 -0.04999
C 2.35957 2.89734 0.00211
C 6.15619 19.19266 0.04505
C 4.90695 17.07627 -0.04307
C 4.877 15.63064 0.03189
C 6.1119 14.8969 0.00031
C 6.12597 13.57341 -0.003
C 4.91673 12.72675 0.01402
C 4.90654 11.2982 0.02379
C 6.12724 10.61589 0.00907
C 6.1325 9.20867 0.00643
C 4.87244 8.57071 -0.01509
C 4.89844 7.10319 0.03267
C 6.17796 17.70573 0.03284
C 2.41515 4.27725 0.0064
C 3.64791 4.9485 -0.00039
C 3.6319 6.38684 0.02728
C 3.79565 30.555 -0.01471
C 2.55354 29.80656 -0.02827
C 2.54095 28.38738 0.01078
C 3.63112 27.62273 -0.00112
C 3.52994 26.28101 0.03345
C 2.50756 25.48123 0.00748
C 2.50744 24.09517 0.00662
C 3.67447 23.4055 -0.0154
C 3.69684 22.02214 -0.01299
C 2.49698 21.32091 -0.00407
C 2.44318 19.92933 0.01138
C 3.71648 19.24431 0.03278
C 3.67139 17.83844 -0.00177
C 2.46106 17.10183 0.04421
C 2.42785 15.57622 0.00088
C 3.68084 14.86933 0.00828
C 3.64187 13.38381 -0.02375
C 2.39469 12.68175 0.00558
C 2.33734 11.30538 -0.0059
C 3.65629 10.6508 -0.01386
C 3.63752 9.21301 -0.02805
C 2.43668 8.53358 0.00081
C 2.38068 7.13212 0.00245
C 6.17287 6.42104 0.02374
C 6.11951 4.97422 0.00402
C 4.89153 4.27473 0.0073
C 4.90387 2.91342 0.0174
C 9.90606 32.7102 0.01227
C 11.15282 32.10362 0.00873
C 10.93807 23.49674 -0.00049
C 11.12485 22.0457 0.00848
C 9.8683 21.35742 -0.01303
C 9.84383 19.94697 -0.01378
C 11.15753 19.21946 0.02635
C 11.07978 17.82683 0.0127
C 9.85497 17.12202 0.01396
C 9.82438 15.74392 0.01849
C 11.0721 14.9838 -0.01142
C 11.0501 13.54646 -0.00562
C 9.83076 12.82738 -0.00494
C 9.82928 11.49536 0.00054
C 11.01989 10.74805 0.03007
C 11.03225 9.34065 -0.00095
C 9.79002 8.63571 0.01572
C 9.78415 7.21768 -0.04848
C 11.07069 6.51166 -0.00892
C 11.0108 5.07618 -0.01362
C 9.83083 4.29618 -0.0008
C 9.74219 2.83817 0.0288
C 11.03794 2.1932 0.00393
C 7.37485 0.05548 -0.03337
C 20.91183 23.40741 0.03338
C 8.59646 0.75019 -0.00966
C 7.33023 2.88907 0.03368
C 6.13703 2.20133 0.03828
C 6.14928 0.7574 0.01226
C 4.85932 0.06252 -0.00279
C 7.12961 32.76366 0.01996
C 8.51571 23.44714 -0.03996
C 8.60694 22.08968 0.01465
C 7.37245 21.33497 -0.00074
C 7.39254 19.9846 -0.00518
C 8.63042 19.26893 0.0086
C 8.59338 17.89614 -0.00643
C 7.43348 17.12447 0.017
C 7.35078 15.65932 -0.03113
C 8.55159 15.02466 -0.02566
C 8.58612 13.59065 -0.00094
C 7.36533 12.89812 0.02322
C 7.35754 11.43658 -0.00725
C 8.57844 10.74013 -0.05697
C 8.57798 9.26866 0.01087
C 7.36483 8.48904 -0.01343
C 7.37481 7.098 0.00988
C 8.59577 6.44478 0.0276
C 8.59843 4.95094 0.01305
C 7.31707 4.27968 -0.00077
C 8.51523 2.12306 -0.02929
C 3.71003 31.91622 0.01218
C 20.9094 22.02888 -0.0258
C 19.6905 19.90932 -0.00316
C 29.54013 11.31889 -0.02155
C 30.75182 10.62259 -0.00944
C 30.79882 9.25825 -0.03735
C 29.53684 8.45451 -0.00971
C 29.50026 7.05834 0.01518
C 30.70083 6.33072 0.01908
C 30.68395 4.91136 0.07705
C 29.39288 4.26373 0.0103
C 29.42669 2.85606 0.02108
C 30.7067 2.09101 0.00716
C 29.53463 12.7754 -0.01461
C 30.76258 0.65142 0.00307
C 32.02981 32.61228 0.01713
C 33.28524 31.90959 -0.01694
C 33.26076 30.461 0.01428
C 31.9785 29.75229 -0.02142
C 31.95445 28.37639 0.0544
C 33.22709 27.63152 0.00026
C 33.2346 26.14638 0.00682
C 31.96183 25.44978 -0.01779
C 31.88389 24.09751 0.03794
C 33.15508 23.43309 0.01927
C 29.50252 0.02392 0.00346
C 30.71579 13.48104 -0.01303
C 30.70052 14.89737 -0.0405
C 29.48466 15.65575 0.01705
C 28.29857 6.35649 0.01094
C 28.25829 5.00485 0.00235
C 27.04959 4.30829 0.01495
C 26.99152 2.88863 0.01259
C 28.19197 2.1125 0.01799
C 28.21021 0.72546 0.01699
C 27.02111 0.0713 -0.00416
C 29.49078 32.70409 0.01177
C 30.82438 31.90727 0.04266
C 30.70882 30.4967 0.01324
C 29.54751 29.80842 0.0014
C 29.52714 28.34718 0.00924
C 30.75555 27.62861 0.02326
C 30.71554 26.22715 0.00261
C 29.51202 25.60872 0.03265
C 29.45297 24.11868 -0.02049
C 30.64842 23.42433 -0.01854
C 30.65134 22.01122 -0.01415
C 29.48071 21.30869 -0.03039
C 29.51377 19.84436 0.01836
C 30.75281 19.14129 0.03531
C 30.75406 17.78524 -0.00669
C 29.51735 17.13475 0.0101
C 33.14958 22.0311 0.01574
C 27.05896 7.07311 0.02198
C 31.96297 21.26943 -0.02383
C 33.20113 19.2071 -0.0136
C 1.24416 23.42189 0.00723
C 1.22367 22.00572 0.02712
C 34.39302 21.30176 -0.02213
C 34.39772 19.88747 0.01951
C 1.25668 19.22124 -0.01678
C 1.29785 17.80167 0.01223
C 0.06515 17.03353 0.00648
C 34.42443 15.65665 0.02114
C 1.19192 14.91209 -0.02957
C 1.17532 13.53479 0.00343
C 34.40932 24.08646 0.03076
C 34.35627 12.76446 -0.02656
C 1.10715 10.56799 -0.00027
C 1.13153 9.19776 -0.00583
C 34.36406 8.49558 -0.02302
C 34.41284 7.06378 -0.02849
C 1.15128 6.37433 0.02931
C 1.14202 4.97266 0.00628
C 34.39004 4.24095 -0.0345
C 34.36516 2.79743 -0.00931
C 1.14666 2.11922 -0.00939
C 1.23961 0.67143 -0.00468
C 34.34475 11.3368 -0.02442
C 0.08452 25.50139 -0.05239
C 1.29058 26.23779 -0.00598
C 1.32257 27.58902 -0.00439
C 33.2022 17.77653 0.00594
C 31.94783 17.10437 -0.02474
C 31.92881 15.60369 0.00369
C 33.22413 14.96465 0.00455
C 33.15303 13.52969 -0.00644
C 31.88943 12.8305 -0.01839
C 31.93591 11.349 0.00137
C 33.16311 10.60998 0.00199
C 33.1711 9.19508 0.04381
C 32.02223 8.38269 0.02806
C 31.93758 6.97642 0.01504
C 33.16752 6.2591 -0.00069
C 33.07529 4.87345 0.04926
C 31.91086 4.16298 -0.03838
C 31.92329 2.82723 0.00349
C 33.10879 2.08941 -0.00323
C 33.17304 0.64783 -0.00841
C 31.9769 34.0741 0.0001
C 0.01793 32.61997 -0.02927
C 1.2585 31.93229 -0.01404
C 1.31413 30.45391 0.01027
C 0.048 29.73253 0.01831
C 0.09284 28.33153 -0.01037
C 31.98686 19.87039 -0.01429
C 27.0933 8.54764 0.02611
C 28.32619 9.2098 -0.00621
C 28.3292 10.58721 0.00194
C 23.39639 23.39687 0.00742
C 23.38713 21.92693 -0.01594
C 22.11363 21.28793 0.0106
C 22.13294 19.90205 -0.01154
C 23.37058 19.12417 -0.01721
C 23.42049 17.73098 -0.02422
C 22.1528 17.05559 0.01277
C 22.13907 15.62318 0.00096
C 23.43596 14.94395 -0.01527
C 23.32223 13.45607 0.01087
C 22.14994 24.09988 -0.00311
C 22.06188 12.84093 0.00199
C 23.40007 10.69262 -0.00478
C 23.40092 9.22043 -0.01662
C 22.08972 8.5814 -0.01185
C 22.11353 7.13293 0.01126
C 23.31064 6.44223 0.01852
C 23.33956 5.0236 -0.00381
C 22.00494 4.31704 0.03046
C 22.09162 2.92567 0.0296
C 23.27053 2.17976 0.03374
C 23.33392 0.68881 -0.02845
C 22.09903 11.39763 0.01511
C 22.14942 25.52357 0.00675
C 23.32605 26.25331 -0.00865
C 23.36291 27.67565 0.0058
C 20.91066 19.18266 0.02188
C 20.85538 17.72742 -0.01979
C 19.70827 17.04796 0.02691
C 19.68174 15.64153 -0.01581
C 20.89765 14.97376 0.01452
C 20.87055 13.51395 0.04892
C 19.67605 12.77837 -0.00111
C 19.6949 11.29202 -0.03557
C 20.93666 10.66778 0.03754
C 20.84284 9.25069 0.01739
C 19.62806 8.51252 0.00755
C 19.62918 7.04284 -0.0054
C 20.84812 6.43615 0.00667
C 20.84196 5.01184 0.00143
C 19.64828 4.25955 -0.017
C 19.62948 2.90905 0.00364
C 20.88125 0.55966 -0.00831
C 19.60105 0.01703 -0.02957
C 22.10544 32.70582 -0.04422
C 23.32921 31.92171 0.00654
C 23.35076 30.44944 -0.00703
C 22.10637 29.88797 -0.04076
C 22.09382 28.451 -0.00652
C 22.13602 34.05338 -0.03213
C 24.58193 32.65552 0.02239
C 25.86321 31.93971 0.01153
C 25.77853 30.48899 0.02734
C 25.8364 0.72252 -0.01154
C 24.53924 34.02255 0.00684
C 26.99077 32.67381 -0.01052
C 28.29134 31.93171 -0.01679
C 28.26417 30.52924 0.00367
C 27.08249 29.81004 0.04306
C 27.03165 28.34239 0.00996
C 28.25148 27.60652 0.00195
C 28.1985 26.19789 -0.00802
C 26.97106 25.46478 -0.00218
C 26.94315 24.03181 -0.01654
C 28.22093 23.41041 -0.00037
C 28.23673 22.05343 -0.0032
C 26.98523 21.30988 0.00622
C 27.04439 19.88702 -0.02815
C 28.266 19.1977 -0.00942
C 28.30666 17.83548 0.00487
C 27.08247 17.11321 0.00826
C 27.10452 15.68297 -0.00294
C 28.287 14.89312 0.00152
C 28.33058 13.52091 0.01257
C 27.04472 12.77877 0.02316
C 27.10653 11.32884 0.04185
C 25.74851 2.1078 -0.0264
C 19.67564 21.29338 -0.0331
C 24.55272 2.86339 -0.00938
C 25.83563 4.98021 -0.01199
C 24.63544 29.77733 -0.0055
C 24.65298 28.36967 0.01515
C 25.84312 27.58582 -0.00225
C 25.76823 26.20749 0.00071
C 24.56609 25.53468 -0.01107
C 24.59244 24.11626 -0.01586
C 25.74502 23.37001 -0.01971
C 25.76917 21.97099 -0.02118
C 24.58452 21.32491 0.00733
C 24.62508 19.84605 -0.00178
C 25.81263 19.14303 0.00768
C 25.86484 17.79505 -0.0276
C 24.69818 17.08804 0.03005
C 24.68069 15.64199 -0.04078
C 25.89122 14.88328 0.02117
C 25.83711 13.46454 0.02737
C 24.58299 12.77451 -0.00498
C 24.65066 11.40037 0.00135
C 25.90272 10.63164 0.03102
C 25.85179 9.20304 0.02555
C 24.64061 8.53761 0.01423
C 24.57004 7.13605 -0.00285
C 25.78252 6.42313 -0.009
C 24.52986 4.31114 -0.00229
C 2.46106 32.59394 0.02426
