348
Graphene
C 34.41173 34.02356 0.01295
C 14.71414 25.54058 0.00422
C 14.55344 8.64967 0.0351
C 14.7681 7.31365 -0.03113
C 15.92538 6.51485 0.02098
C 15.90255 5.00125 0.01848
C 14.71646 4.2661 -0.00619
C 14.724 2.83752 -0.02162
C 15.95123 2.07831 0.00889
C 15.99734 0.70846 -0.00481
C 14.76779 34.00148 0.00979
C 17.32013 32.60663 0.01443
C 18.54932 31.92867 0.03505
C 18.50973 30.51545 -0.02815
C 17.24765 29.77826 -0.04147
C 17.20049 28.25383 -0.05302
C 18.41366 27.60127 0.00213
C 18.43029 26.26559 -0.00066
C 16.06825 26.12686 0.00798
C 15.90435 27.64755 0.00228
C 14.76927 28.40627 -0.00114
C 14.79203 29.77418 -0.02696
C 12.29946 29.90811 -0.01454
C 12.29626 28.4609 0.01945
C 13.54828 27.70062 0.01416
C 13.5706 26.27864 0.03542
C 12.37359 25.6584 0.02299
C 12.26505 24.32688 0.00244
C 12.40731 8.52449 -0.01717
C 12.37048 7.16633 0.05265
C 17.26172 25.36965 -0.00289
C 13.54088 6.52505 -0.01952
C 12.30093 4.36855 0.00374
C 12.26259 2.94188 0.00052
C 13.47774 2.10842 -0.03682
C 13.49135 0.73113 0.01965
C 12.31291 34.02268 0.02058
C 14.81662 32.55363 -0.01957
C 16.06472 31.90743 -0.0108
C 16.06394 30.54029 -0.00368
C 13.55063 5.07939 -0.02813
C 17.59802 23.99685 0.00028
C 18.43229 9.08641 -0.02213
C 17.2126 8.51297 0.03698
C 19.61316 7.11787 -0.00831
C 20.93734 6.35576 -0.02957
C 20.89448 4.95268 -0.04422
C 19.66423 4.30554 0.00654
C 19.64694 2.91212 -0.00703
C 20.84453 2.15808 -0.04076
C 20.94724 0.70655 -0.00652
C 19.69389 34.0004 0.0058
C 19.65074 8.57407 0.00364
C 22.11644 32.6603 -0.00865
C 23.34145 30.542 -0.00311
C 22.14003 29.87219 0.00742
C 22.15144 28.39075 -0.01594
C 23.36787 27.71115 0.0106
C 23.40276 26.26101 -0.01154
C 22.14006 25.51514 -0.01721
C 21.92914 24.13477 -0.02422
C 23.29328 23.34743 0.01277
C 23.34393 31.96419 0.00675
C 13.52297 30.60276 0.01241
C 20.89441 9.22967 -0.017
C 20.92236 22.15683 0.00667
C 17.16002 7.11375 -0.00109
C 18.41164 6.49386 -0.00491
C 18.43143 5.0525 0.03338
C 17.18705 4.27022 -0.0258
C 17.1662 2.78139 -0.0331
C 18.4137 2.24183 -0.00316
C 18.46586 0.73996 0.02188
C 17.28105 34.01673 -0.01979
C 20.91264 10.54296 0.00143
C 19.73687 32.66244 0.02691
C 20.90973 30.48555 0.01452
C 19.711 29.7167 0.04892
C 19.7305 28.33222 -0.00111
C 20.95351 27.67027 -0.03557
C 20.93292 26.24512 0.03754
C 19.70404 25.61264 0.01739
C 19.3773 24.19002 0.00755
C 20.55335 23.43416 -0.0054
C 20.92825 31.9113 -0.01581
C 23.37597 21.93374 0.00096
C 13.55603 31.91629 0.0076
C 9.77791 34.07213 -0.0014
C 6.10591 30.51692 -0.01362
C 4.86589 29.81379 -0.0008
C 4.88451 28.33147 0.0288
C 6.11682 27.65398 0.00393
C 6.1781 26.26414 0.00895
C 4.86491 25.61302 0.00685
C 4.94155 24.1207 0.02888
C 6.19949 23.38628 -0.00482
C 6.07038 21.99587 -0.01384
C 4.92182 21.23171 0.03693
C 6.11323 9.2204 0.01745
C 4.86032 8.64006 0.00488
C 4.86953 7.19163 -0.01004
C 6.15263 6.45157 -0.02896
C 6.10958 4.98816 -0.00131
C 4.88718 4.27387 -0.01118
C 4.93447 2.87399 -0.014
C 6.12256 31.88481 -0.00892
C 4.90814 32.67317 -0.04848
C 2.43861 0.01516 0.01572
C 3.69379 0.75067 -0.00095
C 3.63444 30.49105 -0.02929
C 2.3655 29.84877 -0.00966
C 2.40702 28.42918 -0.03337
C 3.60556 27.66377 0.01227
C 3.62887 26.25583 0.00873
C 2.4214 25.50452 -0.00049
C 2.49002 24.17276 0.00848
C 3.73497 23.38636 -0.01303
C 6.17021 2.16054 0.02147
C 3.62861 21.89455 -0.01378
C 3.5855 9.23462 0.0127
C 2.42425 8.5365 0.01396
C 2.47453 7.04037 0.01849
C 3.67425 6.41668 -0.01142
C 3.61524 5.00542 -0.00562
C 2.47 4.21709 -0.00494
C 2.42229 2.83463 0.00054
C 3.71066 2.20883 0.03007
C 2.38292 21.28632 0.02635
C 6.12629 0.74148 0.00373
C 4.86339 34.04319 -0.00191
C 7.33787 32.6166 0.00438
C 11.04583 31.92417 -0.02245
C 11.01507 30.55265 -0.00428
C 9.83801 29.91519 0.03101
C 9.7979 28.43729 -0.01536
C 11.02933 27.65329 -0.02689
C 11.08941 26.23693 -0.01046
C 9.87163 25.51994 -0.00891
C 9.93378 24.10087 0.02819
C 9.78508 32.63292 0.00985
C 11.13585 23.56774 0.00165
C 9.91166 8.68712 0.02894
C 9.86587 7.19181 -0.01789
C 11.11162 6.46409 0.00444
C 11.068 5.10748 -0.00925
C 9.7845 4.36291 0.01877
C 9.8218 2.87182 0.01363
C 11.09014 2.10684 -0.02162
C 11.0847 0.76027 0.00415
C 11.14482 9.07724 -0.02971
C 12.31906 32.6181 0.02162
C 7.34017 0.1011 -0.01275
C 8.62227 2.19095 0.02841
C 8.51144 31.92132 0.01291
C 8.60954 30.52668 0.00093
C 7.34167 29.84108 0.00057
C 7.34477 28.36018 -0.01634
C 8.63262 27.67564 -0.00334
C 8.59513 26.25248 0.02339
C 7.40114 25.57974 0.01641
C 7.41563 24.1294 -0.00719
C 8.54625 0.67813 -0.01111
C 8.68714 23.41781 0.01364
C 7.32872 21.38406 -0.00033
C 8.65578 9.19317 0.03589
C 7.40718 8.82207 -0.02759
C 7.37234 7.24906 0.0402
C 8.58374 6.5113 0.00572
C 8.61484 5.02584 0.03592
C 7.35455 4.31877 0.00406
C 7.37003 2.89704 0.00943
C 8.48197 22.06251 -0.01062
C 22.0831 21.42023 -0.01527
C 23.458 19.10919 0.01087
C 23.46689 17.75329 0.00199
C 29.52563 34.06862 0.01428
C 31.926 32.60156 -0.02142
C 33.17708 31.9792 0.0544
C 33.10091 30.57057 0.00026
C 31.87965 29.83267 0.00682
C 31.97181 28.47914 -0.01779
C 33.14318 27.73819 0.03794
C 33.18102 26.28133 0.01927
C 31.94931 25.58217 0.01574
C 31.9737 24.1516 -0.02383
C 33.23847 23.4945 -0.01429
C 33.25047 21.99613 -0.0136
C 31.98883 21.33658 0.00594
C 31.9258 19.91061 -0.02474
C 33.20338 19.19059 0.00369
C 33.11208 17.82751 0.00455
C 31.90612 17.05733 -0.00644
C 30.71888 0.79127 -0.01694
C 30.70936 2.1581 0.01713
C 29.54732 2.89822 0.00346
C 29.47618 4.2707 0.00307
C 30.73895 23.50313 0.01836
C 30.75934 22.07043 0.03531
C 29.51036 21.32581 -0.00669
C 29.48118 19.92359 0.0101
C 30.67774 19.17835 0.01705
C 30.66995 17.81965 -0.0405
C 29.47859 17.01323 -0.01303
C 29.49801 15.61572 -0.01461
C 32.00482 15.59123 -0.01839
C 30.72652 14.94186 -0.02155
C 29.55369 12.78062 -0.03735
C 29.49595 11.31999 -0.00971
C 30.78896 10.63146 0.01518
C 30.79032 9.23998 0.01908
C 29.52895 8.53099 0.07705
C 29.57009 7.11195 0.0103
C 30.82243 6.47 0.02108
C 30.72199 5.0012 0.00716
C 30.73608 13.47062 -0.00944
C 33.15878 14.90085 0.00137
C 33.22166 13.52944 0.00199
C 31.97189 12.85404 0.04381
C 1.25349 22.00003 -0.01678
C 0.01811 21.31254 0.01223
C 0.12474 19.80584 0.00648
C 1.27892 19.18216 0.02114
C 34.12567 16.99126 -0.02957
C 34.26468 15.71037 0.00343
C 34.4268 12.73056 -0.02656
C 0.13475 11.36091 -0.02442
C 1.31626 23.44229 0.01951
C 1.18546 10.62168 -0.00027
C 34.38624 8.5055 -0.02302
C 0.04924 7.06451 -0.02849
C 1.21893 6.35525 0.02931
C 1.2436 4.98218 0.00628
C 34.42265 4.18165 -0.0345
C 34.37077 2.77614 -0.00931
C 1.24905 2.10281 -0.00939
C 1.22866 0.68634 -0.00468
C 1.17209 9.19259 -0.00583
C 29.51618 24.19389 -0.03039
C 0.04606 24.15307 -0.02213
C 1.20251 26.32888 0.00723
C 31.98202 11.3736 0.02806
C 33.24601 10.67766 0.01504
C 33.21192 9.267 -0.00069
C 31.99992 8.54574 0.04926
C 32.0111 7.08411 -0.03838
C 33.26171 6.40837 0.00349
C 33.24062 5.0026 -0.00323
C 31.9587 4.29252 -0.00841
C 34.37263 25.64224 0.02712
C 31.95473 2.82226 0.0001
C 33.15705 0.67554 -0.01404
C 31.90536 34.06934 0.01027
C 0.05651 32.66343 0.01831
C 1.26119 32.02477 -0.01037
C 1.1426 30.59844 -0.00439
C 34.3289 29.83404 -0.00598
C 34.38446 28.43698 -0.05239
C 1.23925 27.73759 0.03076
C 33.17498 2.07808 -0.02927
C 29.48634 25.5447 -0.01415
C 30.71503 26.33809 -0.01854
C 30.72603 27.74923 -0.02049
C 24.58309 25.52458 -0.02118
C 24.50977 24.14346 0.00733
C 25.81078 23.42631 -0.00178
C 25.82071 22.02557 0.00768
C 24.5661 21.31935 -0.0276
C 24.53834 19.9005 0.03005
C 25.83813 19.17675 -0.04078
C 25.81048 17.74874 0.02117
C 25.79128 26.28443 -0.01971
C 24.57861 16.99011 0.02737
C 25.88195 14.96424 0.00135
C 25.76614 13.46659 0.03102
C 24.4949 12.77324 0.02555
C 24.51432 11.33967 0.01423
C 25.79518 10.55174 -0.00285
C 25.83818 9.1446 -0.009
C 24.60371 8.46812 -0.01199
C 24.58781 7.02069 -0.00229
C 24.58347 15.62319 -0.00498
C 25.84695 6.38762 -0.00938
C 25.84065 27.74005 -0.01586
C 24.52388 29.85189 0.00071
C 23.43131 14.77783 0.01511
C 23.17145 13.55374 -0.00478
C 22.08286 12.69241 -0.01662
C 22.03442 11.33353 -0.01185
C 23.31644 10.70603 0.01126
C 23.3461 9.24895 0.01852
C 22.14164 8.51671 -0.00381
C 22.1758 7.0635 0.03046
C 24.54375 28.42414 -0.01107
C 23.4331 6.31351 0.0296
C 22.10608 4.22285 -0.02845
C 22.1063 2.7419 -0.03213
C 23.38319 2.088 0.02239
C 23.46561 0.66556 0.01153
C 22.1424 34.0691 0.02734
C 24.5346 32.64682 -0.0055
C 25.77226 31.94479 0.01515
C 25.77906 30.55195 -0.00225
C 23.34729 4.92893 0.03374
C 3.77733 31.94861 0.03368
C 25.77638 4.94767 -0.0264
C 24.53909 2.79147 0.00684
C 27.05298 12.68332 -0.00621
C 27.04316 11.31658 0.02611
C 28.25776 10.61969 0.02198
C 28.28815 9.20879 0.01094
C 27.06404 8.46278 0.00235
C 27.0621 7.04792 0.01495
C 28.33078 6.369 0.01259
C 28.26885 4.94423 0.01799
C 28.23713 13.42523 0.00194
C 27.07645 4.27289 0.01699
C 28.28816 2.1337 0.01177
C 28.2872 0.72047 0.04266
C 27.00136 34.07492 0.01324
C 29.50867 32.68231 0.0014
C 30.69167 31.94224 0.00924
C 30.66183 30.53092 0.02326
C 29.41917 29.86921 0.00261
C 29.48007 28.45438 0.03265
C 27.08618 2.84192 -0.00416
C 24.61809 4.2075 -0.01154
C 28.25686 14.84649 0.04185
C 27.02804 17.07591 0.01257
C 25.80171 2.10033 -0.01052
C 25.90109 0.69159 -0.01679
C 24.633 0.05352 0.00367
C 27.00601 32.62539 0.04306
C 28.19585 31.9259 0.00996
C 28.22568 30.49886 0.00195
C 26.99003 29.85991 -0.00802
C 27.02213 28.43323 -0.00218
C 27.1081 15.60339 0.02316
C 28.28751 27.75864 -0.01654
C 26.99718 25.6204 -0.0032
C 26.98683 24.17592 0.00622
C 28.22654 23.55047 -0.02815
C 28.26994 22.07333 -0.00942
C 27.05075 21.3447 0.00487
C 27.04845 19.94532 0.00826
C 28.35198 19.23033 -0.00294
C 28.26793 17.71649 0.00152
C 28.28405 26.33127 -0.00037
C 2.48527 32.63566 -0.00077
