439
Graphene
C 0.0453 34.01653 0.01295
C 12.30212 19.98122 -0.00334
C 13.61607 19.23303 0.02339
C 13.49071 17.81284 0.01641
C 12.25956 17.07731 -0.00719
C 12.19817 15.60338 0.01364
C 13.45456 14.99175 -0.01062
C 13.51166 13.61417 -0.00033
C 12.29741 12.7923 0.03589
C 12.2511 11.47387 -0.02759
C 13.42757 10.71036 0.0402
C 13.4266 9.22682 0.00572
C 12.26353 8.45978 0.03592
C 12.28732 6.99628 0.00406
C 13.48486 6.31406 0.00943
C 13.53768 4.91331 0.02841
C 12.2794 4.30534 -0.01111
C 12.25366 2.90473 -0.01275
C 13.51352 2.09528 0.00985
C 13.48944 0.74189 -0.02245
C 12.32294 0.02068 -0.00428
C 14.70199 32.54304 0.03101
C 15.87934 31.85079 -0.01536
C 16.18633 30.40669 -0.02689
C 12.33711 21.37013 -0.01634
C 13.52404 22.14478 0.00057
C 13.51065 23.58752 0.00093
C 12.26987 24.24865 0.01291
C 9.79159 15.69984 0.01572
C 11.01907 14.93713 -0.04848
C 10.97585 13.50931 -0.00892
C 9.7747 12.76204 -0.01362
C 9.82229 11.31296 -0.0008
C 11.00337 10.73654 0.0288
C 11.03392 9.25048 0.00393
C 9.79594 8.60557 0.00895
C 9.85393 7.16878 0.00685
C 10.98683 6.40055 0.02888
C 11.00732 5.0301 -0.00482
C 14.8698 29.76273 -0.01046
C 9.8805 4.22651 -0.01384
C 11.04667 2.15957 0.01745
C 11.09604 0.76085 0.00488
C 9.80148 0.06192 -0.01004
C 12.22233 32.64149 -0.02896
C 13.50973 31.86759 -0.00131
C 13.57727 30.44813 -0.01118
C 12.33612 29.73391 -0.014
C 12.40816 28.30531 0.02147
C 13.85887 27.75641 0.00373
C 13.68676 26.31559 -0.00191
C 12.32566 25.69052 0.00438
C 9.8535 2.84342 0.03693
C 9.83122 17.1469 -0.00095
C 14.53193 24.54951 -0.00891
C 15.92663 22.26193 0.00165
C 17.13702 19.884 -0.01957
C 18.40494 19.20565 -0.0108
C 18.4006 17.69302 -0.00368
C 17.18331 17.04372 -0.02696
C 17.16387 15.62037 -0.00114
C 18.46821 14.87834 0.00228
C 18.37925 13.47688 0.00798
C 17.12652 12.82872 0.00422
C 17.11146 11.40019 0.0351
C 18.37802 10.70201 -0.03113
C 18.41404 9.31563 0.02098
C 17.17579 8.52853 0.01848
C 17.13872 7.05842 -0.00619
C 18.41167 6.37683 -0.02162
C 18.40285 4.92563 0.00889
C 17.15121 4.25368 -0.00481
C 17.20617 2.85332 0.00979
C 18.37454 2.14083 0.01443
C 18.41738 0.72609 0.03505
C 17.16138 34.03315 -0.02815
C 19.61467 32.62417 -0.04147
C 20.82403 31.90192 -0.05302
C 20.77988 30.5194 0.00213
C 17.16014 21.52141 0.02058
C 18.31459 22.11121 0.01965
C 18.37444 23.51721 -0.03682
C 17.26124 24.30489 0.00052
C 14.79386 21.44789 -0.02971
C 14.74756 20.02941 0.02894
C 15.93967 19.15816 -0.01789
C 15.91617 17.70072 0.00444
C 14.6647 17.0564 -0.00925
C 14.73494 15.66674 0.01877
C 15.91278 14.96532 0.01363
C 15.95365 13.51483 -0.02162
C 14.7029 12.8289 0.00415
C 14.72873 11.32707 -0.0014
C 15.88648 10.59906 0.02162
C 15.89185 23.83491 0.02819
C 15.93131 9.1069 0.0076
C 14.65102 7.08601 -0.01454
C 15.89228 6.35573 0.01945
C 15.97851 4.98316 0.01416
C 14.70261 4.25073 0.03542
C 14.70776 2.84047 0.02299
C 16.03074 2.05175 0.00244
C 16.00074 0.63371 -0.01717
C 14.76003 34.04447 0.05265
C 17.13395 32.64076 -0.01952
C 18.34961 31.89631 -0.02813
C 18.01515 30.53307 0.00374
C 14.65088 8.45601 0.01241
C 19.41447 29.77585 -0.00066
C 11.04421 17.78514 0.03007
C 9.8531 19.89981 -0.00494
C 3.70888 0.70605 0.00088
C 2.50883 34.07502 0.00828
C 4.90444 32.69927 -0.02375
C 6.1411 31.92174 0.00558
C 6.1247 30.55201 -0.0059
C 4.86095 29.78113 -0.01386
C 4.84576 28.38493 -0.02805
C 6.09153 27.73159 0.00081
C 6.1055 26.26526 0.00245
C 4.91905 25.56084 0.02728
C 4.93578 24.09977 -0.00039
C 6.10816 23.46546 0.0064
C 6.02824 22.00448 0.00211
C 4.80134 21.27486 -0.00449
C 4.76693 19.95429 -0.01979
C 6.1143 19.30115 0.02784
C 6.00876 17.79451 -0.01977
C 4.88132 17.02978 -0.00561
C 4.85304 15.48317 0.00208
C 6.15941 14.87363 0.01707
C 6.13637 13.54505 0.02769
C 4.77611 12.82279 -0.03291
C 4.87898 11.44982 -0.04999
C 3.70929 2.17626 0.04421
C 2.53311 2.86913 -0.00177
C 2.54016 4.26034 0.03278
C 3.74142 5.04282 0.01138
C 3.70604 30.61241 -0.0005
C 2.48397 29.85 -0.00018
C 2.43431 28.40685 0.01073
C 3.66583 27.66048 0.01984
C 3.74051 26.24456 0.00535
C 2.51014 25.61382 -0.00198
C 2.46305 24.10207 -0.00012
C 3.6724 23.42931 -0.04306
C 3.61431 22.02995 -0.03672
C 2.36727 21.27588 0.01913
C 2.36799 19.88326 0.00267
C 6.137 10.74022 0.04505
C 3.69175 19.12487 0.00787
C 2.3893 17.08955 0.01218
C 2.31431 15.64388 -0.01471
C 3.59542 14.91116 -0.02827
C 3.5429 13.52565 0.01078
C 2.28579 12.76965 -0.00112
C 2.36255 11.28849 0.03345
C 3.64378 10.66134 0.00748
C 3.69333 9.24525 0.00662
C 2.52697 8.59681 -0.0154
C 2.51708 7.13438 -0.01299
C 3.72619 6.42608 -0.00407
C 3.65562 17.69987 0.02426
C 11.1074 19.2057 0.00054
C 6.08939 9.34759 0.03284
C 4.99699 7.16601 0.03189
C 8.58447 10.66316 -0.05697
C 8.55114 9.20855 0.01087
C 7.329 8.57534 -0.01343
C 7.40517 7.17149 0.00988
C 8.63002 6.46378 0.0276
C 8.70278 5.08382 0.01305
C 7.39929 4.35898 -0.00077
C 7.35026 2.97491 0.03368
C 8.54217 2.18718 -0.02929
C 8.57724 0.73506 -0.00966
C 7.38701 0.06154 -0.03337
C 9.8494 32.67075 0.01227
C 11.05764 31.96039 0.00873
C 11.0697 30.49378 -0.00049
C 9.84037 29.82742 0.00848
C 9.84744 28.43889 -0.01303
C 11.09652 27.67023 -0.01378
C 11.13053 26.33608 0.02635
C 9.83535 25.61221 0.0127
C 9.8029 24.28853 0.01396
C 11.04989 23.46702 0.01849
C 11.01015 22.05785 -0.01142
C 9.83999 21.34893 -0.00562
C 7.34679 11.4738 -0.00725
C 7.4213 12.91082 0.02322
C 8.62001 13.59736 -0.00094
C 8.56533 15.05342 -0.02566
C 6.18236 6.45596 0.00031
C 6.25032 5.08057 -0.003
C 4.98561 4.33633 0.01402
C 4.94628 2.95797 0.02379
C 6.10986 2.19458 0.00907
C 6.1312 0.75971 0.00643
C 4.93035 0.05141 -0.01509
C 7.30119 32.6907 0.03267
C 8.59841 31.96276 0.02374
C 8.59857 30.52072 0.00402
C 7.41217 29.84461 0.0073
C 5.0156 8.56951 -0.04307
C 7.39181 28.48416 0.0174
C 8.65781 26.40286 0.01226
C 7.37027 25.65798 -0.00279
C 7.35677 24.17026 0.01996
C 8.5352 23.48003 -0.03996
C 8.63808 22.05484 0.01465
C 7.37221 21.31055 -0.00074
C 7.32849 19.87442 -0.00518
C 8.54643 19.18814 0.0086
C 8.50486 17.77618 -0.00643
C 7.2796 17.12509 0.017
C 7.25018 15.70101 -0.03113
C 8.60489 27.79901 0.03828
C 3.71714 31.9682 0.01116
C 19.48441 28.33316 -0.00289
C 20.79506 26.38568 -0.02213
C 30.59577 14.94232 -0.0405
C 30.65177 13.46607 -0.01303
C 29.45972 12.67156 -0.01461
C 29.54441 11.31528 -0.02155
C 30.73804 10.50313 -0.00944
C 30.75315 8.98758 -0.03735
C 29.54469 8.38792 -0.00971
C 29.49547 7.00681 0.01518
C 30.74118 6.28843 0.01908
C 30.66995 4.92825 0.07705
C 29.50581 4.25649 0.0103
C 29.5812 2.73633 0.02108
C 30.81576 2.08691 0.00716
C 30.76918 0.70292 0.00307
C 29.49621 0.00575 0.00346
C 32.0021 32.66584 0.01713
C 33.22731 31.95485 -0.01694
C 33.17546 30.49496 0.01428
C 31.94225 29.8481 -0.02142
C 31.9586 28.3932 0.0544
C 33.24725 27.67407 0.00026
C 33.13662 26.31449 0.00682
C 31.90015 25.61408 -0.01779
C 29.449 15.61208 0.01705
C 29.4575 17.01479 0.0101
C 30.65736 17.7248 -0.00669
C 30.67159 19.09989 0.03531
C 28.28714 10.551 0.00194
C 28.29449 9.0689 -0.00621
C 26.97532 8.50585 0.02611
C 27.03923 7.02395 0.02198
C 28.28619 6.39818 0.01094
C 28.16618 4.96002 0.00235
C 27.03295 4.2592 0.01495
C 27.04818 2.80514 0.01259
C 28.3133 2.11665 0.01799
C 28.26501 0.6842 0.01699
C 27.00586 0.05737 -0.00416
C 31.89953 24.07043 0.03794
C 29.51223 32.61911 0.01177
C 30.65884 30.54698 0.01324
C 29.47147 29.86264 0.0014
C 29.50968 28.50025 0.00924
C 30.7588 27.75639 0.02326
C 30.66631 26.2664 0.00261
C 29.45255 25.55792 0.03265
C 29.44207 24.13633 -0.02049
C 30.69403 23.37796 -0.01854
C 30.65806 21.97487 -0.01415
C 29.43847 21.22773 -0.03039
C 29.48288 19.8436 0.01836
C 30.78062 31.96949 0.04266
C 27.0269 11.2159 0.04185
C 33.1778 23.43708 0.01927
C 31.84056 21.30854 -0.02383
C 0.00208 24.19059 0.03076
C 1.16212 23.38507 0.00723
C 1.10656 21.9869 0.02712
C 34.35094 21.2428 -0.02213
C 34.34537 19.89467 0.01951
C 1.08682 19.12118 -0.01678
C 1.16908 17.75514 0.01223
C 34.38267 17.03403 0.00648
C 34.25635 15.58039 0.02114
C 1.13139 14.92014 -0.02957
C 1.12738 13.45887 0.00343
C 34.33818 12.70996 -0.02656
C 34.36458 11.34203 -0.02442
C 1.14471 10.58111 -0.00027
C 1.19948 9.25298 -0.00583
C 34.41678 8.48883 -0.02302
C 34.38033 7.00488 -0.02849
C 1.30278 6.37472 0.02931
C 1.29625 4.98561 0.00628
C 0.09884 4.27793 -0.0345
C 0.04748 2.8753 -0.00931
C 1.2638 2.11841 -0.00939
C 1.22133 0.67308 -0.00468
C 34.39096 25.56272 -0.05239
C 1.27275 26.37515 -0.00598
C 1.22967 27.74945 -0.00439
C 0.00693 28.43851 -0.01037
C 31.87711 19.86885 -0.01429
C 33.13045 19.15324 -0.0136
C 33.12477 17.69621 0.00594
C 31.91932 16.95229 -0.02474
C 31.92692 15.6194 0.00369
C 33.08723 14.79503 0.00455
C 33.11704 13.36372 -0.00644
C 31.8753 12.69702 -0.01839
C 31.92329 11.2976 0.00137
C 33.17467 10.53912 0.00199
C 33.16993 9.11942 0.04381
C 33.10781 22.06608 0.01574
C 32.00389 8.35843 0.02806
C 33.21507 6.24935 -0.00069
C 33.20064 4.92567 0.04926
C 31.93514 4.16953 -0.03838
C 32.0609 2.77911 0.00349
C 33.26905 2.1386 -0.00323
C 33.28436 0.73741 -0.00841
C 32.02016 0.0084 0.0001
C 0.0327 32.59535 -0.02927
C 1.32385 31.99186 -0.01404
C 1.24057 30.57687 0.01027
C 34.41059 29.86583 0.01831
C 31.94831 6.94947 0.01504
C 20.77876 27.7424 0.00028
C 27.06042 12.62876 0.02316
C 28.22784 14.89505 0.00152
C 21.93423 29.795 -0.04076
C 22.04924 28.41995 -0.00652
C 23.33385 27.67976 0.0058
C 23.3732 26.36011 -0.00865
C 22.05872 25.59904 0.00675
C 22.10795 24.14011 -0.00311
C 23.30174 23.46128 0.00742
C 23.22935 22.07115 -0.01594
C 22.04925 21.39263 0.0106
C 22.07743 19.92184 -0.01154
C 23.32489 19.12238 -0.01721
C 23.33518 17.70239 -0.02422
C 22.0802 17.04085 0.01277
C 22.18235 15.636 0.00096
C 23.328 14.84741 -0.01527
C 23.33518 13.47787 0.01087
C 21.98084 12.69109 0.00199
C 22.06351 11.29658 0.01511
C 23.28569 10.6781 -0.00478
C 23.32255 9.27451 -0.01662
C 22.13918 8.53201 -0.01185
C 22.07808 7.14656 0.01126
C 23.32895 6.39364 0.01852
C 23.23035 30.4929 -0.00703
C 23.2964 31.9417 0.00654
C 22.11313 32.60527 -0.04422
C 19.62631 0.02521 -0.02957
C 19.58855 25.64395 0.03698
C 19.58039 24.28114 -0.00109
C 20.86685 23.50185 -0.00491
C 20.80728 22.07448 0.03338
C 19.56324 21.36618 -0.0258
C 19.59695 19.92772 -0.0331
C 20.86199 19.23151 -0.00316
C 20.85005 17.72817 0.02188
C 19.63313 17.03952 -0.01979
C 19.66438 15.60934 0.02691
C 20.82917 14.84774 -0.01581
C 23.33432 4.97059 -0.00381
C 20.93654 13.52146 0.01452
C 19.59761 11.38443 -0.00111
C 20.81465 10.59696 -0.03557
C 20.86039 9.22967 0.03754
C 19.60491 8.59911 0.01739
C 19.59784 7.15747 0.00755
C 20.79892 6.47295 -0.0054
C 20.82752 5.08994 0.00667
C 19.67514 4.31751 0.00143
C 19.59162 2.80116 -0.017
C 20.82175 2.14079 0.00364
C 20.83239 0.76522 -0.00831
C 19.60948 12.79593 0.04892
C 28.25841 13.36612 0.01257
C 22.02952 4.3683 0.03046
C 23.28792 2.11153 0.03374
C 25.78677 4.95717 -0.01199
C 24.57324 4.21962 -0.00229
C 24.4878 2.84123 -0.00938
C 25.77522 2.1338 -0.0264
C 25.77477 0.75535 -0.01154
C 24.57159 0.03578 0.00684
C 26.9998 32.6872 -0.01052
C 28.23695 31.97359 -0.01679
C 28.23552 30.55803 0.00367
C 26.9961 29.76161 0.04306
C 27.04691 28.36782 0.00996
C 28.27988 27.74184 0.00195
C 28.23534 26.27278 -0.00802
C 26.9371 25.60621 -0.00218
C 26.98785 24.21268 -0.01654
C 28.26724 23.51684 -0.00037
C 28.1722 22.06719 -0.0032
C 26.99754 21.42933 0.00622
C 27.06085 19.89079 -0.02815
C 28.25846 19.15011 -0.00942
C 28.33968 17.72548 0.00487
C 26.97684 17.12261 0.00826
C 27.07804 15.65075 -0.00294
C 25.82999 6.33629 -0.009
C 24.56576 7.08119 -0.00285
C 24.51517 8.47973 0.01423
C 25.74817 9.23982 0.02555
C 23.30153 0.69644 -0.02845
C 22.0009 34.04625 -0.03213
C 24.56877 32.68955 0.02239
C 25.77224 31.94002 0.01153
C 25.79543 30.50597 0.02734
C 24.48696 29.79685 -0.0055
C 24.50998 28.3916 0.01515
C 25.7893 27.73808 -0.00225
C 25.69936 26.33437 0.00071
C 24.46796 25.52854 -0.01107
C 24.50706 24.1476 -0.01586
C 22.05283 2.8456 0.0296
C 25.76001 23.49386 -0.01971
C 24.51935 21.28148 0.00733
C 24.59221 19.96175 -0.00178
C 25.81584 19.23546 0.00768
C 25.79762 17.80517 -0.0276
C 24.58421 17.00732 0.03005
C 24.58448 15.55192 -0.04078
C 25.81406 14.88014 0.02117
C 25.86754 13.41342 0.02737
C 24.61171 12.83314 -0.00498
C 24.5041 11.43102 0.00135
C 25.78392 10.58421 0.03102
C 25.69926 22.02698 -0.02118
C 2.49469 32.68138 -0.0213
