442
Graphene
C 0.00793 0.02855 0.01295
C 12.35475 12.77105 0.00057
C 12.25498 11.4249 -0.01634
C 13.52438 10.69539 -0.00334
C 13.56495 9.22632 0.02339
C 12.36074 8.58202 0.01641
C 12.32264 7.14556 -0.00719
C 13.4734 6.36574 0.01364
C 13.48946 4.95932 -0.01062
C 12.26162 4.15769 -0.00033
C 12.28576 2.81166 0.03589
C 13.57394 2.14921 -0.02759
C 13.56428 0.68045 0.0402
C 12.34028 34.06555 0.00572
C 14.79178 32.65875 0.03592
C 15.94634 32.03304 0.00406
C 15.9859 30.5 0.00943
C 14.7463 29.74449 0.02841
C 14.68808 28.35591 -0.01111
C 16.04824 27.63845 -0.01275
C 15.93563 26.25331 0.00985
C 14.73222 25.60012 -0.02245
C 14.75423 24.11872 -0.00428
C 15.94987 23.46976 0.03101
C 13.45871 13.55077 0.00093
C 13.54795 14.95716 0.01291
C 12.33271 15.65452 0.00438
C 12.32687 17.07751 -0.00191
C 9.85511 8.52031 0.03007
C 9.82676 7.11103 -0.00095
C 11.07944 6.38928 0.01572
C 11.08491 4.99271 -0.04848
C 9.83792 4.34289 -0.00892
C 9.79718 2.86871 -0.01362
C 11.03051 2.2071 -0.0008
C 11.09742 0.6596 0.0288
C 9.85929 0.01017 0.00393
C 12.33135 32.68841 0.00895
C 13.606 31.94742 0.00685
C 15.95806 21.94115 -0.01536
C 13.51734 30.55864 0.02888
C 12.30421 28.34068 -0.01384
C 13.4567 27.65679 0.03693
C 13.53325 26.24874 0.01745
C 12.36454 25.57793 0.00488
C 12.25325 24.17606 -0.01004
C 13.53161 23.47597 -0.02896
C 13.48199 22.12401 -0.00131
C 12.30737 21.32399 -0.01118
C 12.29476 19.82678 -0.014
C 13.54133 19.15272 0.02147
C 13.54365 17.8162 0.00373
C 12.29611 29.78389 -0.00482
C 11.04407 9.23596 0.00054
C 14.72908 21.33691 -0.02689
C 16.02468 19.14396 -0.00891
C 18.51021 22.07585 0.01965
C 17.22468 21.25699 0.02058
C 17.24597 19.87267 -0.01957
C 18.45842 19.15217 -0.0108
C 18.48418 17.69799 -0.00368
C 17.17066 17.0277 -0.02696
C 17.19425 15.58961 -0.00114
C 18.47324 14.86958 0.00228
C 18.46078 13.45218 0.00798
C 17.18938 12.82718 0.00422
C 17.16153 11.34998 0.0351
C 18.40562 10.6556 -0.03113
C 18.38102 9.2635 0.02098
C 17.20305 8.54931 0.01848
C 17.20287 7.1213 -0.00619
C 18.47199 6.36413 -0.02162
C 18.45804 4.96993 0.00889
C 17.21718 4.29522 -0.00481
C 17.21399 2.87804 0.00979
C 18.48435 2.15266 0.01443
C 18.44053 0.71734 0.03505
C 17.21401 34.03968 -0.02815
C 19.65099 32.65405 -0.04147
C 18.44101 23.43088 -0.03682
C 17.2495 24.16224 0.00052
C 17.17595 25.54709 0.00374
C 18.40457 26.25952 -0.02813
C 15.95624 17.75872 0.02819
C 14.75331 17.04164 0.00165
C 14.7026 15.63919 -0.02971
C 15.97203 14.93682 0.02894
C 16.00301 13.48873 -0.01789
C 14.72297 12.76927 0.00444
C 14.74701 11.30737 -0.00925
C 15.94731 10.61725 0.01877
C 15.99789 9.19756 0.01363
C 14.71885 8.48813 -0.02162
C 14.76236 7.08076 0.00415
C 14.82729 19.90227 -0.01046
C 15.9565 6.45999 -0.0014
C 14.78399 4.22247 0.0076
C 14.73039 2.83782 0.01241
C 15.97048 2.13779 -0.01454
C 15.99147 0.75245 0.01945
C 14.76807 34.04032 0.01416
C 17.19147 32.67354 0.03542
C 18.42664 31.97451 0.02299
C 18.41385 30.53538 0.00244
C 17.21371 29.82932 -0.01717
C 17.22636 28.44916 0.05265
C 18.46674 27.62415 -0.01952
C 15.99632 5.01598 0.02162
C 11.0843 10.65967 -0.00494
C 9.86103 11.37282 -0.00562
C 9.79625 12.85788 -0.01142
C 3.72075 0.72549 0.03278
C 2.45519 34.04182 -0.00177
C 4.88715 32.65622 0.04421
C 6.10722 31.99214 0.00088
C 6.1818 30.49644 0.00828
C 4.96836 29.85139 -0.02375
C 4.91711 28.39391 0.00558
C 6.22797 27.66353 -0.0059
C 6.1973 26.2331 -0.01386
C 4.85908 25.52968 -0.02805
C 4.88122 24.23238 0.00081
C 6.14556 21.99863 0.00245
C 4.9869 21.28552 0.02728
C 4.87483 19.88932 -0.00039
C 6.18721 19.16441 0.0064
C 6.10624 17.70925 0.00211
C 4.95953 16.99818 -0.00449
C 4.82466 15.56149 -0.01979
C 6.12027 14.98185 0.02784
C 6.0939 13.53464 -0.01977
C 4.89479 12.79859 -0.00561
C 4.96308 11.39903 0.00208
C 6.16324 10.58747 0.01707
C 3.74434 2.12457 0.01138
C 2.51515 2.88146 -0.00407
C 2.44547 4.28688 -0.01299
C 3.66254 4.96509 -0.0154
C 3.64738 30.46753 -0.00374
C 2.43949 29.79069 -0.0213
C 2.50564 28.39354 0.01116
C 3.7119 27.66377 -0.0005
C 3.67313 26.29668 -0.00018
C 2.46996 25.61095 0.01073
C 2.42913 24.14448 0.01984
C 3.77292 23.42107 0.00535
C 3.75992 22.01374 -0.00198
C 2.49514 21.37182 -0.00012
C 2.41667 19.77717 -0.04306
C 6.14723 9.22031 0.02769
C 3.63904 19.17099 -0.03672
C 2.40586 16.9923 0.00267
C 2.45396 15.61764 0.00787
C 3.65346 14.93429 0.02426
C 3.66594 13.51955 0.01218
C 2.48987 12.73121 -0.01471
C 2.43632 11.38519 -0.02827
C 3.68572 10.67916 0.01078
C 3.73277 9.24596 -0.00112
C 2.46168 8.48617 0.03345
C 2.47459 7.07036 0.00748
C 3.73821 6.40787 0.00662
C 3.68777 17.73738 0.01913
C 4.91077 8.55281 -0.03291
C 4.98287 7.08261 -0.04999
C 6.17208 6.41828 0.04505
C 8.59887 5.00415 -0.00094
C 7.39775 4.2973 0.02322
C 7.33374 2.91512 -0.00725
C 8.57259 2.17643 -0.05697
C 8.62233 0.74233 0.01087
C 7.313 0.01773 -0.01343
C 9.83958 32.71238 0.00988
C 11.07616 31.95775 0.0276
C 11.08086 30.52791 0.01305
C 9.8044 29.8842 -0.00077
C 9.80995 28.4657 0.03368
C 8.62788 6.39802 -0.02566
C 11.00047 27.6825 -0.02929
C 9.81008 25.60421 -0.03337
C 11.07877 23.42177 0.01227
C 11.08405 22.01134 0.00873
C 9.80169 21.33751 -0.00049
C 9.80439 19.92563 0.00848
C 11.11255 19.23011 -0.01303
C 11.09996 17.72552 -0.01378
C 9.84577 17.05932 0.02635
C 9.79222 15.6222 0.0127
C 11.08633 14.92445 0.01396
C 11.05847 13.54033 0.01849
C 10.96548 26.25588 -0.00966
C 20.84507 31.95066 -0.05302
C 7.36836 7.04699 -0.03113
C 8.62933 9.28024 -0.00643
C 6.08457 4.95448 0.03284
C 4.90366 4.28285 -0.04307
C 4.92604 2.80261 0.03189
C 6.14161 2.13339 0.00031
C 6.13637 0.74751 -0.003
C 4.95944 0.00636 0.01402
C 7.38882 32.7206 0.02379
C 8.58819 31.95937 0.00907
C 8.58123 30.55506 0.00643
C 7.35963 29.81979 -0.01509
C 7.32898 28.45249 0.03267
C 7.42533 8.531 0.017
C 8.63458 27.67682 0.02374
C 7.44356 25.54055 0.0073
C 7.34427 19.905 0.0174
C 8.57921 19.20333 0.03828
C 8.61808 17.74774 0.01226
C 7.35836 17.03878 -0.00279
C 7.36114 15.62032 0.01996
C 8.58419 14.95005 -0.03996
C 8.654 13.5433 0.01465
C 7.37932 12.70972 -0.00074
C 7.42974 11.31965 -0.00518
C 8.64619 10.66863 0.0086
C 8.61161 26.29018 0.00402
C 20.89746 30.47916 0.00213
C 19.62092 29.82073 -0.00066
C 19.72388 28.34171 -0.00289
C 29.48141 15.57042 0.01705
C 30.73143 14.93468 -0.0405
C 30.70983 13.47301 -0.01303
C 29.46722 12.81611 -0.01461
C 29.5042 11.36413 -0.02155
C 30.75718 10.59308 -0.00944
C 30.77611 9.21123 -0.03735
C 29.513 8.55556 -0.00971
C 29.58105 7.08612 0.01518
C 30.75432 6.32591 0.01908
C 30.7581 4.97537 0.07705
C 29.54609 4.2368 0.0103
C 29.48302 2.81976 0.02108
C 30.75939 2.10559 0.00716
C 30.74008 0.71018 0.00307
C 29.49399 0.00572 0.00346
C 31.98812 32.72415 0.01713
C 33.19186 31.9603 -0.01694
C 33.24491 30.5821 0.01428
C 31.93825 29.84236 -0.02142
C 31.9924 28.40209 0.0544
C 33.21014 27.69595 0.00026
C 33.24144 26.32763 0.00682
C 29.5348 17.02078 0.0101
C 30.71723 17.69077 -0.00669
C 30.72808 19.18557 0.03531
C 29.51538 19.88819 0.01836
C 27.0876 11.39351 0.04185
C 28.25228 10.57659 0.00194
C 28.24419 9.20492 -0.00621
C 27.04064 8.51762 0.02611
C 27.11912 7.10327 0.02198
C 28.24163 6.34701 0.01094
C 28.22926 4.97043 0.00235
C 27.04054 4.21022 0.01495
C 27.02573 2.82849 0.01259
C 28.27147 2.07843 0.01799
C 28.281 0.75373 0.01699
C 31.98093 25.60305 -0.01779
C 27.05883 34.06888 -0.00416
C 30.75071 31.92998 0.04266
C 30.69226 30.49075 0.01324
C 29.44529 29.8265 0.0014
C 29.52158 28.40717 0.00924
C 30.79731 27.62979 0.02326
C 30.73798 26.24088 0.00261
C 29.47257 25.57696 0.03265
C 29.51015 24.14649 -0.02049
C 30.74328 23.50304 -0.01854
C 30.72983 22.0501 -0.01415
C 29.5014 21.30513 -0.03039
C 29.51686 32.69504 0.01177
C 32.00624 24.15444 0.03794
C 33.22833 23.42398 0.01927
C 33.19758 21.97392 0.01574
C 34.40665 25.56731 -0.05239
C 34.40713 24.17499 0.03076
C 1.20196 23.51824 0.00723
C 1.22459 21.97775 0.02712
C 34.42826 21.26118 -0.02213
C 34.36286 19.86632 0.01951
C 1.21914 19.19118 -0.01678
C 1.25594 17.74157 0.01223
C 34.35916 16.96831 0.00648
C 34.39913 15.59685 0.02114
C 1.24568 14.92161 -0.02957
C 1.21672 26.22098 -0.00598
C 1.19912 13.50776 0.00343
C 0.00785 11.31115 -0.02442
C 1.23307 10.65384 -0.00027
C 1.2693 9.24405 -0.00583
C 34.41357 8.49984 -0.02302
C 0.01108 7.03848 -0.02849
C 1.20682 6.34468 0.02931
C 1.18048 4.9361 0.00628
C 0.00126 4.23701 -0.0345
C 0.0567 2.79931 -0.00931
C 1.2548 2.17316 -0.00939
C 1.17178 0.71411 -0.00468
C 34.37591 12.74117 -0.02656
C 27.06211 12.71427 0.02316
C 1.19518 27.6953 -0.00439
C 0.0468 29.82179 0.01831
C 32.00422 21.29974 -0.02383
C 31.87434 19.89975 -0.01429
C 33.12647 19.11898 -0.0136
C 33.20421 17.73654 0.00594
C 31.98189 17.01059 -0.02474
C 32.0371 15.55776 0.00369
C 33.25911 14.83438 0.00455
C 33.24038 13.45487 -0.00644
C 31.95162 12.77931 -0.01839
C 31.98498 11.28009 0.00137
C 33.15788 10.60535 0.00199
C 34.4175 28.43396 -0.01037
C 33.23812 9.17409 0.04381
C 32.04597 7.07408 0.01504
C 33.17614 6.34762 -0.00069
C 33.20033 4.95131 0.04926
C 31.98945 4.27589 -0.03838
C 31.98144 2.82395 0.00349
C 33.24808 2.13325 -0.00323
C 33.17358 0.69338 -0.00841
C 31.97117 0.01952 0.0001
C 0.04738 32.65264 -0.02927
C 1.28852 31.96522 -0.01404
C 1.26526 30.56692 0.01027
C 31.98085 8.55201 0.02806
C 3.72042 31.86484 -0.00141
C 28.25905 13.49486 0.01257
C 27.06989 15.65301 -0.00294
C 23.33338 32.03389 0.00654
C 23.33364 30.53544 -0.00703
C 22.13846 29.84154 -0.04076
C 22.13044 28.43393 -0.00652
C 23.3689 27.68036 0.0058
C 23.39697 26.28651 -0.00865
C 22.12393 25.62323 0.00675
C 22.13147 24.09283 -0.00311
C 23.39739 23.48139 0.00742
C 23.40952 22.00596 -0.01594
C 22.19867 21.26405 0.0106
C 22.07439 19.86045 -0.01154
C 23.37255 19.18966 -0.01721
C 23.35653 17.73066 -0.02422
C 22.25414 17.0656 0.01277
C 22.09432 15.6401 0.00096
C 23.34194 14.88395 -0.01527
C 23.38904 13.4557 0.01087
C 22.0445 12.78172 0.00199
C 22.05251 11.36788 0.01511
C 23.31154 10.65478 -0.00478
C 23.32571 9.22623 -0.01662
C 22.16235 8.47195 -0.01185
C 22.03499 32.62665 -0.04422
C 19.67385 0.0203 -0.02957
C 20.87891 0.74311 -0.00831
C 20.88603 2.12026 0.00364
C 20.90159 27.72445 0.00028
C 20.90809 26.2816 -0.02213
C 19.67314 25.53887 0.03698
C 19.67324 24.1348 -0.00109
C 20.91453 23.32433 -0.00491
C 20.93691 21.97839 0.03338
C 19.66845 21.27489 -0.0258
C 19.66523 19.87555 -0.0331
C 20.95962 19.25032 -0.00316
C 20.92624 17.77262 0.02188
C 19.65734 16.99755 -0.01979
C 22.14068 7.051 0.01126
C 19.67224 15.65433 0.02691
C 20.85539 13.51611 0.01452
C 19.68167 12.75198 0.04892
C 19.73463 11.38512 -0.00111
C 20.92759 10.65088 -0.03557
C 20.89814 9.22691 0.03754
C 19.6538 8.46881 0.01739
C 19.67232 7.12784 0.00755
C 20.91688 6.38914 -0.0054
C 20.86528 4.95332 0.00667
C 19.64182 4.23194 0.00143
C 19.68605 2.81881 -0.017
C 20.86404 14.90567 -0.01581
C 23.38841 6.36463 0.01852
C 23.37515 4.943 -0.00381
C 22.12391 4.31437 0.03046
C 24.63981 7.12327 -0.00285
C 25.79804 6.3764 -0.009
C 25.83574 4.93303 -0.01199
C 24.6061 4.28695 -0.00229
C 24.60811 2.90629 -0.00938
C 25.84147 2.11287 -0.0264
C 25.82876 0.67747 -0.01154
C 24.68446 0.01835 0.00684
C 27.02632 32.68767 -0.01052
C 28.30299 31.96366 -0.01679
C 28.28813 30.56967 0.00367
C 24.58669 8.50429 0.01423
C 27.06648 29.75359 0.04306
C 28.23456 27.65173 0.00195
C 28.33668 26.26488 -0.00802
C 27.03491 25.56495 -0.00218
C 26.99323 24.17629 -0.01654
C 28.26828 23.4169 -0.00037
C 28.24627 22.01712 -0.0032
C 27.0683 21.2784 0.00622
C 26.99355 19.79453 -0.02815
C 28.2545 19.15324 -0.00942
C 28.27808 17.77743 0.00487
C 27.06019 17.10367 0.00826
C 27.02518 28.30284 0.00996
C 28.30673 14.90257 0.00152
C 25.80961 9.27453 0.02555
C 24.58663 11.37135 0.00135
C 22.13748 2.89486 0.0296
C 23.38306 2.09612 0.03374
C 23.38154 0.66731 -0.02845
C 22.13953 34.06302 -0.03213
C 24.59938 32.68523 0.02239
C 25.82877 31.91209 0.01153
C 25.84842 30.53501 0.02734
C 24.57157 29.81073 -0.0055
C 24.59635 28.43738 0.01515
C 25.77563 27.69126 -0.00225
C 25.76088 26.32565 0.00071
C 25.79978 10.61797 0.03102
C 24.53057 25.54747 -0.01107
C 25.77329 23.43892 -0.01971
C 25.80974 22.01707 -0.02118
C 24.63112 21.36037 0.00733
C 24.5593 19.86004 -0.00178
C 25.81561 19.19614 0.00768
C 25.79532 17.73281 -0.0276
C 24.60824 16.98622 0.03005
C 24.55884 15.63613 -0.04078
C 25.80077 14.96657 0.02117
C 25.89887 13.51248 0.02737
C 24.69568 12.79696 -0.00498
C 24.63552 24.16847 -0.01586
C 2.46488 32.61894 -0.03951
