309
Graphene
C 0.05059 0.01052 0.01295
C 11.28156 15.03883 0.02188
C 11.16672 13.52865 -0.01979
C 9.88525 12.77806 0.02691
C 9.81547 11.40109 -0.01581
C 11.02985 10.6428 0.01452
C 11.02415 9.18017 0.04892
C 9.84403 8.55031 -0.00111
C 9.78797 7.11788 -0.03557
C 11.00207 6.40502 0.03754
C 11.03375 4.96208 0.01739
C 9.83214 4.1824 0.00755
C 9.84133 2.80305 -0.0054
C 11.07886 2.13855 0.00667
C 11.17627 0.66986 0.00143
C 9.89569 0.0567 -0.017
C 9.92548 15.65903 -0.00316
C 12.28122 32.57896 0.00364
C 9.67943 16.94601 -0.0331
C 11.02292 30.46308 0.03338
C 7.37929 12.77746 -0.00481
C 7.39002 11.30602 0.00979
C 8.61825 10.70846 0.01443
C 8.57928 9.22729 0.03505
C 7.29616 8.51584 -0.02815
C 7.33983 7.10828 -0.04147
C 8.59352 6.41537 -0.05302
C 8.64335 4.93439 0.00213
C 7.42237 4.29831 -0.00066
C 7.4074 2.91018 -0.00289
C 8.62346 2.18987 0.00028
C 8.63726 0.75103 -0.02213
C 7.36466 34.0768 0.03698
C 9.82894 32.67608 -0.00109
C 11.01378 31.81164 -0.00491
C 9.82724 29.76845 -0.0258
C 13.51773 31.7808 -0.00831
C 12.54928 15.56782 -0.02957
C 13.68198 14.83158 -0.04422
C 15.96357 10.64995 -0.00478
C 15.96357 9.17451 -0.01662
C 14.73673 8.46344 -0.01185
C 14.78808 7.05873 0.01126
C 15.93929 6.40576 0.01852
C 15.95993 5.00388 -0.00381
C 14.72558 4.32078 0.03046
C 14.68877 2.92657 0.0296
C 15.89212 2.13942 0.03374
C 15.93656 0.73532 -0.02845
C 14.73686 0.03148 -0.03213
C 17.26247 32.54802 0.02239
C 18.54082 32.14185 0.01153
C 18.16101 14.87476 0.02734
C 18.44505 13.48149 -0.0055
C 14.71288 11.31911 0.01511
C 14.76869 12.77284 0.00199
C 15.97154 13.49966 0.01087
C 16.03439 15.09126 -0.01527
C 13.60443 13.52382 0.00654
C 12.33707 12.84972 -0.00703
C 12.29059 11.42071 -0.04076
C 13.55043 10.6028 -0.00652
C 13.5018 9.13054 0.0058
C 12.20653 8.4475 -0.00865
C 12.23405 7.05245 0.00675
C 8.62074 13.42348 0.00889
C 13.47428 6.34985 -0.00311
C 12.31636 4.2458 -0.01594
C 12.32542 2.83182 0.0106
C 13.49573 2.15629 -0.01154
C 13.52869 0.69555 -0.01721
C 12.31424 33.99116 -0.02422
C 14.70731 32.53355 0.01277
C 15.94155 32.05336 0.00096
C 13.52295 4.97276 0.00742
C 8.61752 14.84258 -0.02162
C 7.41174 15.61882 -0.00619
C 7.38563 17.04151 0.01848
C 3.61956 9.26375 0.00406
C 2.39881 8.55397 0.00943
C 2.39046 7.15695 0.02841
C 3.63937 6.30226 -0.01111
C 3.6796 4.95709 -0.01275
C 2.38879 4.24785 0.00985
C 2.42755 2.85724 -0.02245
C 3.72673 2.14092 -0.00428
C 3.76601 0.69482 0.03101
C 2.49835 0.01656 -0.01536
C 4.8979 32.63688 -0.02689
C 6.11257 31.95874 -0.01046
C 6.14452 30.4477 -0.00891
C 4.89495 29.71781 0.02819
C 4.90635 28.33896 0.00165
C 3.69611 10.66016 0.03592
C 2.48694 11.36404 0.00572
C 2.52083 12.80305 0.0402
C 3.72409 13.52874 -0.02759
C 3.6843 30.49456 0.02147
C 2.47286 29.79622 0.00373
C 2.39915 28.4091 -0.00191
C 3.6571 27.65409 0.00438
C 3.64099 26.26606 0.01291
C 2.38421 25.56142 0.00093
C 2.39007 24.14234 0.00057
C 6.23622 27.70189 -0.02971
C 3.66127 23.48702 -0.01634
C 2.38397 21.32808 0.02339
C 2.37809 19.85211 0.01641
C 3.67709 19.16384 -0.00719
C 3.6596 17.73143 0.01364
C 2.49062 17.04692 -0.01062
C 2.4322 15.63045 -0.00033
C 3.68981 14.97195 0.03589
C 3.60639 22.06137 -0.00334
C 17.21555 12.7623 0.01515
C 6.20634 26.30244 0.02894
C 4.92845 24.15708 0.00444
C 6.16165 2.14077 0.00052
C 6.15206 0.74845 -0.03682
C 4.94577 0.00164 0.01965
C 7.36256 32.62461 0.02058
C 8.59833 31.9339 -0.01957
C 8.65725 30.53144 -0.0108
C 7.40697 29.83357 -0.00368
C 7.51035 28.35977 -0.02696
C 8.71759 27.76276 -0.00114
C 7.28052 25.47333 0.00228
C 7.45529 24.05123 0.00798
C 7.10752 21.36411 0.00422
C 7.40155 19.94966 0.0351
C 8.52078 19.16153 -0.03113
C 8.6411 17.81789 0.02098
C 4.96188 2.85389 0.00374
C 4.92754 4.33239 -0.02813
C 6.15621 5.02275 -0.01952
C 6.11134 6.4062 0.05265
C 6.18492 23.47001 -0.00925
C 5.94472 22.1016 0.01877
C 4.8081 21.35279 0.01363
C 4.91743 19.86078 -0.02162
C 6.13073 19.16692 0.00415
C 6.13956 17.74515 -0.0014
C 4.89297 17.0372 0.02162
C 4.94239 25.60533 -0.01789
C 4.92465 15.63393 0.0076
C 6.15424 13.49517 -0.01454
C 4.90018 12.75743 0.01945
C 4.92997 11.34403 0.01416
C 6.15948 10.62007 0.03542
C 6.04016 9.20635 0.02299
C 4.78251 8.4391 0.00244
C 4.87259 7.05332 -0.01717
C 6.12305 14.96345 0.01241
C 3.66006 31.95456 -0.014
C 17.17765 11.31333 -0.00225
C 18.47589 9.2138 -0.01107
C 31.92533 32.6296 0.01927
C 33.19443 31.96219 0.01574
C 33.18504 30.58986 -0.02383
C 31.94823 29.91282 -0.01429
C 32.00847 28.53542 -0.0136
C 33.15693 27.73519 0.00594
C 33.06952 26.35127 -0.02474
C 31.66743 25.99652 0.00369
C 33.35512 14.92937 0.00455
C 33.15498 13.5516 -0.00644
C 31.90225 12.90015 -0.01839
C 31.69242 11.52953 0.00137
C 33.18299 10.74252 0.00199
C 33.19946 9.36983 0.04381
C 31.98732 8.59187 0.02806
C 29.48258 0.03672 0.03794
C 31.93159 7.15233 0.01504
C 30.69402 0.71059 -0.01779
C 29.51364 2.88245 0.00026
C 28.25409 0.69498 -0.03735
C 26.94279 34.07373 -0.00971
C 29.40872 32.70382 0.01518
C 30.64651 31.96322 0.01908
C 30.71859 30.53001 0.07705
C 29.43275 29.77328 0.0103
C 29.53067 28.26706 0.02108
C 30.90741 27.58316 0.00716
C 30.60133 10.77501 0.00307
C 30.73609 9.31938 0.00346
C 29.50526 8.58515 0.01713
C 29.43015 7.11971 -0.01694
C 30.70028 6.46631 0.01428
C 30.70444 4.9925 -0.02142
C 29.48917 4.28035 0.0544
C 30.75734 2.12304 0.00682
C 33.19952 6.3914 -0.00069
C 33.16194 4.98008 0.04926
C 31.90946 4.22242 -0.03838
C 34.35964 15.81638 0.02114
C 1.17452 15.00065 -0.02957
C 1.22694 13.62298 0.00343
C 34.43015 12.8531 -0.02656
C 0.02682 11.45921 -0.02442
C 1.23701 10.72334 -0.00027
C 1.19597 9.25595 -0.00583
C 34.39964 8.6193 -0.02302
C 34.35398 7.20627 -0.02849
C 1.12806 6.48268 0.02931
C 1.18393 5.03024 0.00628
C 34.41681 4.26635 -0.0345
C 34.4177 2.86501 -0.00931
C 1.23517 2.14069 -0.00939
C 1.29932 0.67065 -0.00468
C 34.4053 17.18678 0.00648
C 1.20552 17.76315 0.01223
C 1.2179 19.14798 -0.01678
C 0.0231 19.8981 0.01951
C 31.97365 2.80097 0.00349
C 33.18147 2.1243 -0.00323
C 33.19296 0.77033 -0.00841
C 31.91229 0.04463 0.0001
C 34.41397 32.66884 -0.02927
C 1.23669 31.99318 -0.01404
C 1.26401 30.56548 0.01027
C 28.23131 2.0885 -0.00944
C 34.37297 29.87658 0.01831
C 1.20373 27.67166 -0.00439
C 1.10644 26.29218 -0.00598
C 34.27232 25.58244 -0.05239
C 34.37019 24.09399 0.03076
C 1.13019 23.43269 0.00723
C 1.19576 22.08583 0.02712
C 0.18133 21.17175 -0.02213
C 34.4321 28.46283 -0.01037
C 27.00434 2.86399 -0.02155
C 27.01285 4.293 -0.01461
C 28.23711 4.94601 -0.01303
C 19.68715 7.04153 -0.00938
C 20.90788 6.34066 -0.0264
C 20.91559 4.95518 -0.01154
C 19.65224 4.25833 0.00684
C 19.60621 2.85297 -0.01052
C 20.86679 2.18237 -0.01679
C 20.84875 0.79641 0.00367
C 19.7013 0.04528 0.04306
C 22.04136 32.62653 0.00996
C 23.29787 31.97348 0.00195
C 23.28477 30.58039 -0.00802
C 22.09256 29.93484 -0.00218
C 23.30134 27.60966 -0.01654
C 22.06309 12.76132 -0.00037
C 22.17533 11.34542 -0.0032
C 19.64665 8.43856 -0.00229
C 20.87712 9.15477 -0.01199
C 20.91603 10.70445 -0.009
C 19.66398 11.36561 -0.00285
C 17.24191 8.50104 -0.01586
C 17.19973 7.10901 -0.01971
C 18.42477 6.35414 -0.02118
C 18.46513 4.96831 0.00733
C 17.20775 4.25858 -0.00178
C 17.18458 2.84166 0.00768
C 18.45787 2.19069 -0.0276
C 23.49127 10.69539 0.00622
C 18.41638 0.69852 0.03005
C 19.70227 32.76078 0.02117
C 20.86023 31.89136 0.02737
C 20.84766 30.54175 -0.00498
C 19.46667 15.42375 0.00135
C 20.75131 14.93636 0.03102
C 20.88108 13.67263 0.02555
C 19.66609 12.81994 0.01423
C 17.15977 0.03839 -0.04078
C 18.37999 10.62441 0.00071
C 23.39904 9.27615 -0.02815
C 22.14398 7.08171 0.00487
C 24.58464 2.82033 0.0014
C 25.76848 2.14434 0.00924
C 25.79334 0.74728 0.02326
C 24.55023 0.02589 0.00261
C 26.91787 32.69103 0.03265
C 28.14162 31.95815 -0.02049
C 28.19637 30.52157 -0.01854
C 26.94792 29.69478 -0.01415
C 27.02455 28.19777 -0.03039
C 28.27428 27.69197 0.01836
C 28.09361 10.62826 0.03531
C 28.29694 9.2072 -0.00669
C 27.01216 8.49361 0.0101
C 27.00558 7.10156 0.01705
C 28.23779 6.37725 -0.0405
C 24.55669 4.20962 0.01324
C 25.82557 4.93268 0.04266
C 25.73853 6.34733 0.01177
C 24.5399 7.13608 -0.00416
C 23.31942 6.36432 0.00826
C 23.34364 4.93631 -0.00294
C 22.13597 4.24605 0.00152
C 22.11578 2.8806 0.01257
C 23.35145 2.12784 0.02316
C 23.36469 0.70046 0.04185
C 22.09738 0.01203 0.00194
C 22.13622 8.57798 -0.00942
C 24.52779 32.68609 -0.00621
C 25.74074 30.46628 0.02198
C 24.50619 29.78907 0.01094
C 24.53222 28.37331 0.00235
C 25.72017 27.65115 0.01495
C 26.01321 10.58073 0.01259
C 25.81147 9.18774 0.01799
C 24.60996 8.5586 0.01699
C 25.75179 31.96512 0.02611
C 2.47521 32.6582 -0.01118
