284
Graphene
C 34.35126 0.14663 0.01295
C 14.78152 7.06342 0.0106
C 14.76337 8.61547 -0.01594
C 15.96811 9.32101 0.00742
C 15.98939 10.77101 -0.00311
C 14.86007 11.50569 0.00675
C 14.86168 13.03148 -0.00865
C 16.21149 13.43068 0.0058
C 12.37037 0.01248 -0.00652
C 13.5719 0.76814 -0.04076
C 13.49392 2.22911 -0.00703
C 12.20898 2.81491 0.00654
C 12.19698 4.24895 -0.04422
C 13.47194 4.93932 -0.02957
C 13.55817 6.33961 -0.00831
C 12.32626 7.13177 0.00364
C 12.42416 8.5425 -0.017
C 13.60188 9.31118 0.00143
C 11.03361 9.32288 -0.00316
C 9.88061 8.56449 0.02188
C 9.90231 7.09022 -0.01979
C 11.11564 6.42549 0.02691
C 11.02357 5.03069 -0.01581
C 9.78317 4.3317 0.01452
C 16.00059 6.37244 -0.01154
C 9.82452 2.75047 0.04892
C 11.01312 0.40373 -0.03557
C 9.68467 33.98661 0.03754
C 13.58383 13.59539 0.01739
C 12.28787 13.16718 0.00755
C 12.37219 11.46923 -0.0054
C 13.60968 10.86716 0.00667
C 11.01189 1.86601 -0.00111
C 15.95664 4.88814 -0.01721
C 14.73501 4.27641 -0.02422
C 14.74543 2.78886 0.01277
C 18.42341 2.02586 0.02734
C 18.41274 0.62415 -0.0055
C 17.22179 33.97146 0.01515
C 19.92078 32.56564 -0.00225
C 21.21813 31.6507 0.00071
C 20.77716 30.35073 -0.01107
C 17.09036 2.69664 0.01153
C 20.16131 29.22259 -0.01586
C 20.73648 18.00397 -0.02118
C 19.57047 17.2852 0.00733
C 19.38314 15.89261 -0.00178
C 20.74523 14.94632 0.00768
C 20.87618 13.49933 -0.0276
C 19.70025 12.77183 0.03005
C 21.38157 19.29253 -0.01971
C 11.06241 10.87216 -0.0331
C 17.20306 4.1919 0.02239
C 18.42383 6.39082 -0.02845
C 15.91404 1.91759 0.00096
C 15.88031 0.42666 -0.01527
C 14.66877 33.94614 0.01087
C 17.48436 32.58505 0.00199
C 18.65867 31.97415 0.01511
C 16.82613 14.9638 -0.00478
C 18.41614 4.96923 -0.03213
C 18.21722 14.86045 -0.01662
C 17.34351 12.71668 0.01126
C 17.22258 11.3164 0.01852
C 18.37672 10.64108 -0.00381
C 18.37107 9.31343 0.03046
C 17.14613 8.56599 0.0296
C 17.25295 7.1261 0.03374
C 18.52715 13.45927 -0.01185
C 19.67023 11.4298 -0.04078
C 9.77119 11.50299 -0.0258
C 11.03507 13.5862 -0.00491
C 4.7872 32.65677 0.05265
C 2.36475 0.0072 -0.01717
C 3.62395 0.72057 0.00244
C 3.70861 2.09785 0.02299
C 2.42687 2.87111 0.03542
C 2.34621 4.25891 0.01416
C 3.61091 4.98889 0.01945
C 3.65708 6.50626 -0.01454
C 2.38745 7.22772 0.01241
C 2.35801 8.62149 0.0076
C 3.64054 9.28221 0.02162
C 3.63686 10.72822 -0.0014
C 2.42336 11.42174 0.00415
C 2.33968 12.85925 -0.02162
C 3.63239 13.56604 0.01363
C 3.60946 14.9423 0.01877
C 2.37023 15.69675 -0.00925
C 3.60831 30.68186 0.00985
C 2.34978 30.02031 -0.02245
C 2.43676 28.57852 -0.00428
C 3.81423 27.86567 0.03101
C 3.567 26.64072 -0.01536
C 2.70236 25.56639 -0.02689
C 6.05501 31.89219 -0.01952
C 2.60774 24.05909 -0.01046
C 3.67976 21.97712 0.02819
C 2.48009 21.27052 0.00165
C 2.38467 19.86877 -0.02971
C 3.57203 19.17105 0.02894
C 3.68723 17.82199 -0.01789
C 2.36282 17.13992 0.00444
C 3.79568 23.33257 -0.00891
C 4.8715 30.1347 -0.02813
C 4.82705 17.05763 0.00374
C 4.76376 15.60866 0.00052
C 8.53102 13.5119 -0.00481
C 7.34154 12.8391 0.00979
C 7.368 11.39822 0.01443
C 8.53686 10.71959 0.03505
C 8.58373 9.25867 -0.02815
C 7.38189 8.51024 -0.04147
C 8.42143 14.83237 0.00889
C 7.37281 7.16623 -0.05302
C 8.56985 4.9618 -0.00066
C 7.3775 4.30941 -0.00289
C 7.30506 2.94542 0.00028
C 8.5273 2.12055 -0.02213
C 8.51279 0.71039 0.03698
C 7.26797 0.00559 -0.00109
C 8.61279 6.48642 0.00213
C 9.80471 12.92138 0.03338
C 7.25612 15.50737 -0.02162
C 4.85907 0.03236 0.01848
C 6.04037 14.95005 -0.03682
C 6.04662 13.51137 0.01965
C 4.87902 12.7949 0.02058
C 4.85242 11.35013 -0.01957
C 6.12535 10.72486 -0.0108
C 6.15413 9.26163 -0.00368
C 7.02915 32.59607 -0.00619
C 4.93444 8.59792 -0.02696
C 6.13937 6.40964 0.00228
C 6.11147 5.00699 0.00798
C 4.87906 4.27418 0.00422
C 4.86439 2.87165 0.0351
C 6.10653 2.2302 -0.03113
C 6.03497 0.77868 0.02098
C 4.92896 7.15894 -0.00114
C 20.91984 10.73112 0.02117
C 20.87693 9.31829 0.02737
C 19.59189 8.62535 -0.00498
C 33.14494 5.02577 0.04926
C 33.07749 6.42561 -0.00069
C 31.84892 7.06584 0.01504
C 31.85046 8.5554 0.02806
C 33.08247 9.35219 0.04381
C 33.13039 10.68276 0.00199
C 31.88286 11.41705 0.00137
C 31.90675 12.95004 -0.01839
C 33.09405 13.55017 -0.00644
C 33.07012 14.91151 0.00455
C 31.93321 15.69595 0.00369
C 31.95559 17.11919 -0.02474
C 33.14501 17.83435 0.00594
C 33.09605 19.28034 -0.0136
C 31.82721 19.90177 -0.01429
C 33.63859 22.7619 -0.02383
C 33.11309 30.74378 0.01574
C 29.44194 11.51777 0.02108
C 30.65006 10.77142 0.00716
C 30.64216 9.31149 0.00307
C 29.43837 8.61203 0.00346
C 29.41168 7.11583 0.01713
C 30.53554 6.41327 -0.01694
C 31.89204 4.33979 -0.03838
C 30.66181 4.98861 0.01428
C 29.4288 2.84828 0.0544
C 30.70404 2.21758 0.00026
C 30.6993 0.82965 0.00682
C 29.46189 0.05428 -0.01779
C 31.67417 32.83649 0.03794
C 32.86288 32.03804 0.01927
C 29.45458 4.22472 -0.02142
C 31.94712 2.89415 0.00349
C 33.17876 2.20787 -0.00323
C 33.09502 0.73766 -0.00841
C 1.0752 14.94769 -0.02957
C 1.137 13.56542 0.00343
C 34.3687 12.88333 -0.02656
C 0.01843 11.46155 -0.02442
C 1.18111 10.75537 -0.00027
C 1.12549 9.29238 -0.00583
C 34.27792 15.66837 0.02114
C 34.35281 8.58234 -0.02302
C 1.1217 6.54579 0.02931
C 1.13898 5.08171 0.00628
C 34.4203 4.31468 -0.0345
C 0.03048 2.90807 -0.00931
C 1.19911 2.19703 -0.00939
C 1.1881 0.79795 -0.00468
C 34.32071 7.1641 -0.02849
C 29.41192 12.95367 0.0103
C 34.30356 17.10233 0.00648
C 1.122 19.35554 -0.01678
C 31.84476 0.07111 0.0001
C 34.21891 32.79276 -0.02927
C 1.04758 32.0174 -0.01404
C 1.07322 30.50852 0.01027
C 34.0673 29.87671 0.01831
C 34.38061 28.4484 -0.01037
C 1.18097 17.86626 0.01223
C 1.13588 27.82204 -0.00439
C 0.21931 25.15718 -0.05239
C 34.31622 23.81353 0.03076
C 1.35521 23.46598 0.00723
C 1.42641 22.05665 0.02712
C 0.04274 21.49298 -0.02213
C 34.3379 20.01438 0.01951
C 1.24038 26.21429 -0.00598
C 30.65244 13.62554 0.07705
C 30.73155 15.03761 0.01908
C 29.4358 15.74407 0.01518
C 23.33483 10.68882 -0.00802
C 23.38787 9.21789 -0.00218
C 22.11133 8.54524 -0.01654
C 22.03308 7.09614 -0.00037
C 23.27928 6.4337 -0.0032
C 23.2712 5.00748 0.00622
C 22.07558 11.35268 0.00195
C 22.10351 4.27734 -0.02815
C 23.34878 2.13753 0.00487
C 23.25993 0.7071 0.00826
C 22.10013 33.97999 -0.00294
C 25.70571 17.94631 0.00152
C 24.52751 17.21101 0.01257
C 24.46056 15.70855 0.02316
C 22.14601 2.867 -0.00942
C 25.69162 15.06971 0.04185
C 22.16759 12.75496 0.00996
C 23.23543 14.96919 0.00367
C 19.60235 7.20035 0.00135
C 20.74313 6.37619 0.03102
C 20.7955 5.00046 0.02555
C 19.62858 4.26221 0.01423
C 19.6695 2.8185 -0.00285
C 20.95902 2.10821 -0.009
C 23.31901 13.57249 0.04306
C 20.94097 0.69474 -0.01199
C 22.19165 32.60646 -0.00938
C 22.37969 19.99502 -0.0264
C 23.36493 19.10349 -0.01154
C 23.29897 17.79986 0.00684
C 21.98549 17.16789 -0.01052
C 21.97747 15.64391 -0.01679
C 19.75999 34.07963 -0.00229
C 3.51378 32.04857 -0.01275
C 25.75741 13.58447 0.00194
C 24.48043 11.3977 0.02611
C 28.21855 10.76966 -0.01415
C 28.19042 9.31485 -0.03039
C 26.96104 8.53326 0.01836
C 26.99298 7.12875 0.03531
C 28.13461 6.39357 -0.00669
C 28.14756 4.95255 0.0101
C 26.92724 11.48905 -0.01854
C 26.91025 4.18959 0.01705
C 28.20075 2.05791 -0.01303
C 28.14191 0.47881 -0.01461
C 26.92586 34.03761 -0.02155
C 30.70598 19.32653 -0.00944
C 30.73463 17.86342 -0.03735
C 29.48391 17.12748 -0.00971
C 26.92523 2.78148 -0.0405
C 24.59126 12.84827 -0.00621
C 26.95866 12.87039 -0.02049
C 28.17406 15.02286 0.00261
C 25.70324 10.77797 0.02198
C 25.68631 9.27106 0.01094
C 24.52993 8.5197 0.00235
C 24.50143 7.12272 0.01495
C 25.71601 6.39898 0.01259
C 25.69616 4.99522 0.01799
C 28.10106 13.55534 0.03265
C 24.47168 4.3476 0.01699
C 25.74392 2.10512 0.01177
C 25.70685 0.60552 0.04266
C 24.5411 34.06206 0.01324
C 28.26123 17.82634 0.0014
C 26.95681 17.31875 0.00924
C 26.92595 15.74997 0.02326
C 24.55628 2.89123 -0.00416
C 2.33946 32.68176 -0.01111
