306
Graphene
C 34.33125 34.07521 0.01295
C 9.7807 24.14857 0.02691
C 11.08577 23.24452 -0.01581
C 11.06343 21.68493 0.01452
C 9.64674 21.17991 0.04892
C 9.57746 11.34047 -0.00111
C 10.98014 10.99049 -0.03557
C 10.98256 9.4107 0.03754
C 9.77329 8.6098 0.01739
C 9.75945 7.21231 0.00755
C 11.0193 6.44237 -0.0054
C 11.00734 4.9564 0.00667
C 9.82661 4.26323 0.00143
C 9.81751 2.83481 -0.017
C 11.10077 2.16014 0.00364
C 11.07491 0.60708 -0.00831
C 9.89303 25.53014 -0.01979
C 9.86205 34.05193 -0.02957
C 11.13136 26.26679 0.02188
C 9.85643 28.35562 -0.0331
C 8.46624 10.66104 0.01443
C 8.51255 9.1837 0.03505
C 7.29822 8.51022 -0.02815
C 7.2964 7.07003 -0.04147
C 8.53011 6.42038 -0.05302
C 8.58829 4.98255 0.00213
C 7.34007 4.29477 -0.00066
C 7.26662 2.82385 -0.00289
C 8.58652 2.09594 0.00028
C 8.69182 0.69006 -0.02213
C 7.46955 34.06998 0.03698
C 9.89651 32.58813 -0.00109
C 11.14719 31.88783 -0.00491
C 11.14873 30.5271 0.03338
C 9.84509 29.75557 -0.0258
C 11.13632 27.74009 -0.00316
C 7.2803 11.42583 0.00979
C 12.37664 32.62055 -0.04422
C 13.67729 30.51987 -0.00703
C 13.60198 0.78135 -0.01662
C 12.31512 34.04849 -0.01185
C 14.84948 32.65419 0.01126
C 16.10641 31.98863 0.01852
C 16.12291 30.5466 -0.00381
C 14.89254 29.87158 0.03046
C 14.87237 28.45087 0.0296
C 16.22758 27.69095 0.03374
C 16.05924 26.30201 -0.02845
C 14.82756 25.54159 -0.03213
C 14.87449 24.11684 0.02239
C 15.91827 23.22957 0.01153
C 15.89361 21.9108 0.02734
C 14.72024 21.19235 -0.0055
C 14.34526 19.68809 0.01515
C 13.56115 2.16334 -0.00478
C 13.63329 31.95636 0.00654
C 12.29451 2.92425 0.01511
C 13.44848 5.02107 0.01087
C 12.40431 29.8436 -0.04076
C 12.37615 28.39731 -0.00652
C 13.58448 27.72834 0.0058
C 13.49832 26.23274 -0.00865
C 12.27552 25.50735 0.00675
C 12.24623 24.10199 -0.00311
C 13.5319 23.41074 0.00742
C 13.54175 21.94714 -0.01594
C 12.40052 21.16033 0.0106
C 12.33738 11.34424 -0.01154
C 13.51549 10.62151 -0.01721
C 13.40822 9.2617 -0.02422
C 12.17123 8.63274 0.01277
C 12.15047 7.16849 0.00096
C 13.32543 6.34435 -0.01527
C 12.25377 4.31073 0.00199
C 7.45369 12.80292 -0.00481
C 7.44741 19.91708 0.00889
C 7.34639 21.3532 -0.02162
C 3.6622 10.86974 0.02841
C 3.63062 9.30559 -0.01111
C 2.3782 8.60709 -0.01275
C 2.30156 7.13736 0.00985
C 3.63513 6.44336 -0.02245
C 3.58602 4.99235 -0.00428
C 2.37621 4.28683 0.03101
C 2.38936 2.88634 -0.01536
C 3.63504 2.12006 -0.02689
C 3.632 0.69274 -0.01046
C 2.36781 0.03477 -0.00891
C 4.95899 32.61579 0.02819
C 6.23424 31.95462 0.00165
C 6.27196 30.52234 -0.02971
C 4.96614 29.82957 0.02894
C 2.39418 11.45569 0.00943
C 4.89478 28.39677 -0.01789
C 2.45298 12.90813 0.00406
C 3.69824 14.93507 0.00572
C 3.68416 30.53371 0.00438
C 2.42301 29.79816 0.01291
C 2.42825 28.35572 0.00093
C 3.64098 27.61602 0.00057
C 3.64057 26.24499 -0.01634
C 2.38858 25.52079 -0.00334
C 2.40471 24.1048 0.02339
C 3.67392 23.43241 0.01641
C 3.68497 22.02932 -0.00719
C 2.42709 21.31342 0.01364
C 2.48314 19.95946 -0.01062
C 3.68943 19.17595 -0.00033
C 3.67962 17.8104 0.03589
C 2.45325 17.16413 -0.02759
C 2.45071 15.70335 0.0402
C 3.75474 13.56737 0.03592
C 6.12795 27.68476 0.00444
C 6.12069 26.20035 -0.00925
C 4.8946 25.47405 0.01877
C 4.78701 2.80962 0.01965
C 6.07016 2.02024 0.02058
C 6.18309 0.65654 -0.01957
C 4.83209 34.04481 -0.0108
C 7.42747 32.66694 -0.00368
C 8.70997 31.94551 -0.02696
C 8.67931 30.47756 -0.00114
C 7.44926 29.84374 0.00228
C 7.35973 28.41068 0.00798
C 8.58683 27.63705 0.00422
C 8.65148 26.1613 0.0351
C 7.34824 25.59198 -0.03113
C 7.34016 24.22387 0.02098
C 8.58585 23.45525 0.01848
C 8.61773 22.00043 -0.00619
C 4.81451 4.1983 -0.03682
C 6.06538 4.9542 0.00052
C 6.07326 6.37431 0.00374
C 4.86065 7.14564 -0.02813
C 4.86345 24.10027 0.01363
C 6.09762 23.44999 -0.02162
C 6.11356 22.03525 0.00415
C 4.91487 21.28355 -0.0014
C 4.99588 19.87084 0.02162
C 6.28869 19.16861 0.0076
C 6.08082 17.72497 0.01241
C 15.53952 18.88555 -0.00225
C 4.88406 17.06369 -0.01454
C 6.22681 15.0508 0.01416
C 6.26132 13.58351 0.03542
C 5.00569 12.96073 0.02299
C 4.86022 11.50384 0.00244
C 6.01401 10.67052 -0.01717
C 6.09801 9.27154 0.05265
C 4.82999 8.51946 -0.01952
C 4.93422 15.70741 0.01945
C 15.94366 17.49226 0.00071
C 15.92655 14.75804 -0.01107
C 14.81769 14.0428 -0.01586
C 33.13422 23.44178 0.01927
C 33.16172 22.11798 0.01574
C 32.01379 21.47584 -0.02383
C 31.95981 20.053 -0.01429
C 33.12155 19.31741 -0.0136
C 33.10613 17.9066 0.00594
C 31.80915 17.25552 -0.02474
C 31.84036 15.84448 0.00369
C 33.12344 15.10262 0.00455
C 33.11298 13.62107 -0.00644
C 31.83791 12.9218 -0.01839
C 31.97531 11.51226 0.00137
C 33.20367 10.82762 0.00199
C 33.17143 9.44121 0.04381
C 31.98759 8.69998 0.02806
C 31.87033 24.13141 0.03794
C 31.89144 7.42288 0.01504
C 31.95203 25.57332 -0.01779
C 33.04304 27.71466 0.00026
C 30.50463 18.11568 -0.03735
C 29.35019 17.32777 -0.00971
C 29.30172 15.982 0.01518
C 30.61738 15.12195 0.01908
C 30.54852 13.75533 0.07705
C 30.14795 4.21434 0.0103
C 29.53033 3.18539 0.02108
C 30.73941 2.11617 0.00716
C 30.71038 0.73598 0.00307
C 29.51076 0.0044 0.00346
C 31.86723 32.6511 0.01713
C 33.11165 31.98173 -0.01694
C 33.09769 30.61861 0.01428
C 31.83953 29.84289 -0.02142
C 31.85515 28.48463 0.0544
C 33.12352 26.29404 0.00682
C 32.94479 6.45376 -0.00069
C 32.93604 5.06766 0.04926
C 31.56783 4.24145 -0.03838
C 34.38652 15.74394 0.02114
C 1.20914 14.99822 -0.02957
C 1.24842 13.64793 0.00343
C 34.39741 12.9075 -0.02656
C 0.01497 11.53211 -0.02442
C 1.21906 10.70291 -0.00027
C 1.21305 9.26919 -0.00583
C 34.37475 8.65772 -0.02302
C 34.26763 7.15832 -0.02849
C 1.08137 6.3901 0.02931
C 1.09926 4.94569 0.00628
C 34.23041 4.29755 -0.0345
C 34.36211 2.80155 -0.00931
C 1.10519 2.16387 -0.00939
C 1.12781 0.73645 -0.00468
C 34.33796 17.12872 0.00648
C 1.18555 17.81168 0.01223
C 1.27765 19.21754 -0.01678
C 34.43294 19.89645 0.01951
C 31.89061 2.8372 0.00349
C 33.14854 2.14386 -0.00323
C 33.12308 0.73925 -0.00841
C 31.91628 0.03506 0.0001
C 34.39101 32.71371 -0.02927
C 1.20159 31.95892 -0.01404
C 1.20619 30.45363 0.01027
C 30.56703 19.63434 -0.00944
C 34.36487 29.82723 0.01831
C 1.15574 27.67923 -0.00439
C 1.12227 26.29394 -0.00598
C 34.37798 25.59484 -0.05239
C 34.38082 24.13466 0.03076
C 1.13323 23.45463 0.00723
C 1.24088 22.03109 0.02712
C 0.0185 21.35368 -0.02213
C 34.33662 28.4204 -0.01037
C 3.65057 31.95186 -0.00191
C 29.77983 20.74793 -0.02155
C 30.54322 23.33393 -0.01303
C 18.1651 19.3221 -0.00938
C 18.41668 17.93119 -0.0264
C 17.27393 17.00971 -0.01154
C 17.19458 15.52117 0.00684
C 18.59865 14.73914 -0.01052
C 18.51559 13.36172 -0.01679
C 18.02421 12.09846 0.00367
C 17.19032 11.1098 0.04306
C 16.7934 7.90762 0.00996
C 17.17196 4.26267 0.00195
C 17.28097 2.95562 -0.00802
C 18.49231 2.23912 -0.00218
C 18.44299 0.78281 -0.01654
C 17.23716 0.01581 -0.00037
C 19.69785 32.7706 -0.0032
C 16.76218 19.56806 -0.00229
C 20.88551 31.78384 0.00622
C 17.4215 28.46411 -0.01199
C 18.80698 30.53751 -0.00285
C 14.52485 12.76976 -0.01971
C 14.7364 11.21958 -0.02118
C 15.89002 10.41328 0.00733
C 15.91398 8.90253 -0.00178
C 14.59747 8.45504 0.00768
C 14.59879 6.97812 -0.0276
C 15.99769 6.6544 0.03005
C 16.10328 5.20388 -0.04078
C 14.73741 4.48246 0.02117
C 14.71891 2.96243 0.02737
C 15.98527 2.2113 -0.00498
C 16.02302 0.77402 0.00135
C 14.82075 0.01224 0.03102
C 17.35153 32.66814 0.02555
C 18.57076 32.05845 0.01423
C 17.45155 29.77922 -0.009
C 20.03743 30.55215 -0.02815
C 19.61142 16.9822 -0.00942
C 19.71087 15.82264 0.00487
C 28.21619 26.27822 0.0014
C 28.15936 23.34612 0.00924
C 28.5858 14.85471 0.02326
C 28.47197 2.28906 0.00261
C 28.32399 0.89756 0.03265
C 27.04176 0.04291 -0.02049
C 29.39978 32.64969 -0.01854
C 30.60952 31.92076 -0.01415
C 30.5336 30.50339 -0.03039
C 29.25623 29.86177 0.01836
C 29.31209 28.377 0.03531
C 30.55531 27.75156 -0.00669
C 30.6231 26.31777 0.0101
C 29.45764 25.56837 0.01705
C 29.33945 24.10729 -0.0405
C 27.90702 27.60655 0.01324
C 26.86154 28.52739 0.04266
C 26.70652 29.88231 0.01177
C 28.06474 30.59618 -0.00416
C 19.90992 2.7004 0.00826
C 20.84532 2.01283 -0.00294
C 20.97098 0.65338 0.00152
C 19.67183 0.1186 0.01257
C 22.15653 32.36538 0.02316
C 23.52315 31.76719 0.04185
C 24.17663 30.52466 0.00194
C 30.69455 21.96862 -0.01461
C 23.24743 0.50817 -0.00621
C 24.51225 32.75669 0.02198
C 25.73854 32.13156 0.01094
C 25.62281 30.66199 0.00235
C 25.834 0.73605 0.01495
C 24.61191 0.1887 0.01259
C 26.97869 32.66844 0.01799
C 28.20308 31.95864 0.01699
C 22.06711 33.88136 0.02611
C 2.42742 32.66506 0.00373
