334
Graphene
C 34.36894 0.05813 0.01295
C 12.3279 24.12501 0.01443
C 13.52112 23.50141 0.03505
C 13.48526 21.99272 -0.02815
C 12.31951 21.26008 -0.04147
C 12.31369 19.92415 -0.05302
C 13.47658 19.14568 0.00213
C 13.52056 17.6949 -0.00066
C 12.38687 25.58566 0.00979
C 12.31769 16.99566 -0.00289
C 13.55032 14.70965 -0.02213
C 13.72118 13.24533 0.03698
C 12.44277 12.7208 -0.00109
C 12.34157 11.25566 -0.00491
C 13.4131 10.49416 0.03338
C 13.82734 9.28876 -0.0258
C 12.5423 8.50652 -0.0331
C 12.28549 15.54586 0.00028
C 13.60471 26.26035 -0.00481
C 13.58513 27.64085 0.00889
C 12.2541 28.39796 -0.02162
C 11.10792 14.77178 0.00052
C 11.19058 13.52071 -0.03682
C 11.19642 10.49101 0.01965
C 11.23022 9.21941 0.02058
C 9.98749 8.52862 -0.01957
C 9.85903 7.09085 -0.0108
C 11.06156 6.396 -0.00368
C 11.08694 5.01179 -0.02696
C 9.79515 4.30047 -0.00114
C 9.80588 2.84889 0.00228
C 11.00541 2.12904 0.00798
C 11.03359 0.70364 0.00422
C 9.78114 0.04389 0.0351
C 12.23692 32.70243 -0.03113
C 13.51581 31.93653 0.02098
C 13.48962 30.56437 0.01848
C 12.25575 29.85585 -0.00619
C 12.34967 7.09026 -0.00316
C 13.4794 6.37912 0.02188
C 13.54421 5.02185 -0.01979
C 12.3526 4.25524 0.02691
C 14.81128 4.27937 -0.00865
C 14.7326 2.85366 0.00675
C 16.00913 2.18379 -0.00311
C 15.97263 0.72914 0.00742
C 14.71904 0.07458 -0.01594
C 17.17517 32.66247 0.0106
C 18.43302 31.99251 -0.01154
C 18.39252 30.57431 -0.01721
C 17.24802 29.80386 -0.02422
C 17.17506 28.48268 0.01277
C 18.58319 27.83984 0.00096
C 16.46727 8.62602 -0.01527
C 17.04664 7.23114 0.01087
C 18.31354 6.42779 0.00199
C 18.46999 5.05733 0.01511
C 17.22183 4.32393 -0.00478
C 17.17215 2.91971 -0.01662
C 16.01797 4.99346 0.0058
C 11.13556 17.76426 0.00374
C 15.9438 6.33525 -0.00652
C 15.18127 8.42713 -0.00703
C 12.19973 2.87279 -0.01581
C 13.45482 2.19318 0.01452
C 13.50794 0.79217 0.04892
C 12.20036 0.05108 -0.00111
C 14.77482 32.63453 -0.03557
C 15.96722 31.90872 0.03754
C 15.96499 30.53753 0.01739
C 14.72804 29.87829 0.00755
C 14.68765 28.44885 -0.0054
C 15.95868 27.72923 0.00667
C 16.0572 26.36591 0.00143
C 14.89262 25.53627 -0.017
C 14.80609 24.05309 0.00364
C 14.6587 21.17411 -0.00831
C 14.6417 19.86704 -0.02957
C 14.58398 16.88317 -0.04422
C 14.64832 15.48894 0.00654
C 14.75238 7.06529 -0.04076
C 11.07327 19.14515 -0.02813
C 9.83557 19.81553 -0.01952
C 9.85485 21.23004 0.05265
C 2.4007 0.03417 -0.02896
C 4.88572 32.6693 -0.00131
C 6.12208 31.98997 -0.01118
C 6.1763 30.53142 -0.014
C 4.88161 29.86049 0.02147
C 4.85401 28.43017 0.00373
C 6.11291 27.72122 -0.00191
C 6.13432 26.31217 0.00438
C 4.94797 25.57737 0.01291
C 4.88903 24.18445 0.00093
C 6.08513 23.56165 0.00057
C 6.10776 22.11305 -0.01634
C 4.92172 21.32959 -0.00334
C 4.87112 19.99398 0.02339
C 6.15815 9.18274 0.01641
C 4.83908 8.64248 -0.00719
C 4.95457 7.21064 0.01364
C 3.62507 0.79397 -0.01004
C 6.11648 6.55547 -0.01062
C 3.56122 2.13784 0.00488
C 2.43247 4.30192 0.03693
C 3.64266 30.52095 -0.00562
C 2.367 29.86666 -0.00494
C 2.38622 28.48009 0.00054
C 3.67096 27.79541 0.03007
C 3.66481 26.35568 -0.00095
C 2.44629 25.55055 0.01572
C 2.4235 24.09947 -0.04848
C 3.68801 23.44047 -0.00892
C 3.69762 22.03573 -0.01362
C 2.47925 21.35546 -0.0008
C 2.4863 19.853 0.0288
C 3.80015 19.32727 0.00393
C 3.53894 9.25483 0.00895
C 2.49423 8.42862 0.00685
C 2.47459 7.00633 0.02888
C 3.71314 6.38524 -0.00482
C 3.67345 5.05715 -0.01384
C 2.38944 2.93594 0.01745
C 18.41215 2.18597 -0.01185
C 6.12139 5.12236 -0.00033
C 4.85009 2.87185 -0.02759
C 8.5833 5.03464 0.00444
C 7.39894 4.32912 -0.00925
C 7.32991 2.91372 0.01877
C 8.55153 2.16667 0.01363
C 8.54268 0.7391 -0.02162
C 7.31583 0.04433 0.00415
C 9.81157 32.69585 -0.0014
C 10.96765 31.95336 0.02162
C 11.01464 30.56986 0.0076
C 9.79518 29.80364 0.01241
C 9.83349 28.38798 -0.01454
C 11.06083 27.68265 0.01945
C 11.12839 26.23977 0.01416
C 9.87352 25.61529 0.03542
C 9.7829 24.14213 0.02299
C 11.09943 23.38474 0.00244
C 11.08186 21.96074 -0.01717
C 8.60389 6.48534 -0.01789
C 4.88755 4.27693 0.03589
C 7.44926 7.18377 0.02894
C 8.82614 9.27595 0.00165
C 6.11132 2.28387 0.0402
C 6.09636 0.76608 0.00572
C 4.85706 0.05281 0.03592
C 7.30701 32.68415 0.00406
C 8.5293 31.98102 0.00943
C 8.55948 30.51985 0.02841
C 7.338 29.87403 -0.01111
C 7.33482 28.43661 -0.01275
C 8.60707 27.65289 0.00985
C 8.5633 26.27011 -0.02245
C 7.38013 25.56295 -0.00428
C 7.31896 24.12933 0.03101
C 8.55764 23.43741 -0.01536
C 8.67823 21.96612 -0.02689
C 7.34987 21.40421 -0.01046
C 7.33896 19.94004 -0.00891
C 8.524 19.43628 0.02819
C 7.47707 8.65026 -0.02971
C 18.40073 0.71772 0.01126
C 17.1851 34.04781 0.01852
C 19.64717 32.67342 -0.00381
C 33.14817 30.60025 0.0544
C 32.00361 29.87101 0.00026
C 31.96987 28.38381 0.00682
C 33.12443 27.68609 -0.01779
C 33.13453 26.25943 0.03794
C 31.81472 25.47947 0.01927
C 31.86277 24.00607 0.01574
C 33.10028 23.41583 -0.02383
C 33.14456 21.99609 -0.01429
C 31.96621 21.22023 -0.0136
C 31.9904 19.80733 0.00594
C 33.18882 19.16819 -0.02474
C 33.15796 17.69705 0.00369
C 31.9207 17.07073 0.00455
C 31.82017 15.6936 -0.00644
C 33.09859 14.95797 -0.01839
C 33.17894 13.53105 0.00137
C 33.15113 31.96089 -0.02142
C 31.93281 12.76283 0.00199
C 31.88372 32.72013 0.01428
C 30.67856 0.72493 0.01713
C 30.57612 19.43215 0.0101
C 30.56224 17.95264 0.01705
C 29.41521 17.17036 -0.0405
C 29.33009 15.66304 -0.01303
C 30.65683 14.95698 -0.01461
C 30.71095 13.49829 -0.02155
C 29.65262 12.73424 -0.00944
C 29.59223 11.23334 -0.03735
C 30.86074 10.60654 -0.00971
C 30.75562 9.21271 0.01518
C 29.54515 8.50309 0.01908
C 29.51957 7.11538 0.07705
C 30.72879 6.42494 0.0103
C 30.67749 4.93024 0.02108
C 29.44506 4.23759 0.00716
C 29.4469 2.83276 0.00307
C 30.67267 2.11019 0.00346
C 29.46202 34.06422 -0.01694
C 29.75784 20.58134 -0.00669
C 32.09205 11.35851 0.04381
C 33.29334 9.28401 0.01504
C 0.05012 19.98173 0.01223
C 1.2043 19.18159 0.00648
C 1.1735 17.79119 0.02114
C 34.39546 17.04896 -0.02957
C 34.38852 15.60419 0.00343
C 34.36667 12.83129 -0.02656
C 0.21924 11.40606 -0.02442
C 1.341 10.55573 -0.00027
C 1.18811 9.21276 -0.00583
C 34.36322 8.47856 -0.02302
C 34.32568 7.09076 -0.02849
C 1.1966 6.42539 0.02931
C 1.20583 4.99594 0.00628
C 34.3601 4.3212 -0.0345
C 34.34679 2.8671 -0.00931
C 1.11745 2.16543 -0.00939
C 1.12782 0.77462 -0.00468
C 0.06178 21.30173 -0.01678
C 33.38329 10.71118 0.02806
C 1.27339 21.99827 0.01951
C 34.42912 24.12538 0.02712
C 31.99516 8.53671 -0.00069
C 31.96577 7.11453 0.04926
C 33.13435 6.43172 -0.03838
C 33.15398 4.964 0.00349
C 31.90981 4.25721 -0.00323
C 31.85561 2.82488 -0.00841
C 33.08451 2.15037 0.0001
C 33.10932 0.77807 -0.02927
C 31.80798 0.06635 -0.01404
C 34.34693 32.71147 0.01027
C 1.15191 32.10383 0.01831
C 1.16207 30.57873 -0.01037
C 34.42471 29.92536 -0.00439
C 34.40818 28.47291 -0.00598
C 1.21314 27.77966 -0.05239
C 1.23464 26.32976 0.03076
C 0.02905 25.58394 0.00723
C 1.17678 23.36546 -0.02213
C 3.61765 31.96457 -0.01142
C 30.60809 21.66608 0.03531
C 29.52334 23.99844 -0.03039
C 22.15709 8.53733 -0.04078
C 22.13805 7.12352 0.02117
C 23.32377 6.40739 0.02737
C 23.25604 5.02253 -0.00498
C 22.13533 4.27838 0.00135
C 22.15109 2.85618 0.03102
C 23.37183 2.06274 0.02555
C 23.32536 0.64106 0.01423
C 22.10869 34.02912 -0.00285
C 24.50674 32.55239 -0.009
C 25.74043 31.95185 -0.01199
C 25.79634 30.46984 -0.00229
C 24.51186 29.82971 -0.00938
C 24.59847 28.30249 -0.0264
C 25.65773 27.67819 -0.01154
C 25.83156 13.41198 0.00684
C 24.62048 12.84512 -0.01052
C 23.35314 9.2427 0.03005
C 24.44137 11.42451 -0.01679
C 23.2967 10.66093 -0.0276
C 22.10782 29.74791 -0.00178
C 20.79168 31.89815 0.03046
C 20.85645 30.48783 0.0296
C 19.63219 29.90568 0.03374
C 19.65931 28.3817 -0.02845
C 20.86619 9.18095 -0.03213
C 19.78407 8.49811 0.02239
C 19.48293 7.18178 0.01153
C 20.8809 6.46235 0.02734
C 20.92027 5.0269 -0.0055
C 19.67527 4.3916 0.01515
C 19.65887 2.95291 -0.00225
C 20.92743 2.10897 0.00071
C 20.90545 0.63644 -0.01107
C 19.66738 34.04486 -0.01586
C 22.0185 32.54197 -0.01971
C 23.25289 31.84171 -0.02118
C 23.34905 30.5162 0.00733
C 22.13429 28.36025 0.00768
C 30.60881 23.16745 0.01836
C 25.64305 10.70695 0.00367
C 24.54467 8.45632 0.00996
C 26.97556 8.52762 0.00235
C 27.04271 7.12979 0.01495
C 28.2443 6.35986 0.01259
C 28.16081 4.90104 0.01799
C 26.93776 4.18339 0.01699
C 27.04856 2.81624 -0.00416
C 28.2679 2.09784 0.01177
C 28.20787 0.67662 0.04266
C 27.02018 34.02513 0.01324
C 29.40378 32.67997 0.0014
C 30.7342 32.03473 0.00924
C 30.77912 30.60711 0.02326
C 29.48637 29.83384 0.00261
C 29.51413 28.41083 0.03265
C 30.72091 27.68655 -0.02049
C 30.60532 26.20594 -0.01854
C 29.42654 25.35557 -0.01415
C 28.25218 9.17707 0.01094
C 25.69128 9.25324 0.04306
C 28.2926 10.61405 0.02198
C 27.13347 12.61631 -0.00621
C 24.59231 7.04612 0.00195
C 25.82471 6.42378 -0.00802
C 25.73434 4.92459 -0.00218
C 24.54868 4.21648 -0.01654
C 24.5776 2.75205 -0.00037
C 25.81898 2.09441 -0.0032
C 25.75735 0.66669 0.00622
C 24.50734 34.03445 -0.02815
C 27.01462 32.60524 -0.00942
C 28.20276 31.91561 0.00487
C 28.22385 30.47592 0.00826
C 27.00961 29.72118 -0.00294
C 27.11328 28.35135 0.00152
C 28.34787 27.66707 0.01257
C 28.29662 26.33435 0.02316
C 28.18292 14.82565 0.04185
C 28.40467 13.41536 0.00194
C 26.96622 11.25109 0.02611
C 2.38742 32.73625 0.01849
