414
Graphene
C 0.04082 34.0343 0.01295
C 14.73405 29.91353 0.00985
C 14.72589 28.5303 -0.02245
C 16.02176 27.75583 -0.00428
C 15.96325 26.22412 0.03101
C 14.73759 25.57867 -0.01536
C 14.69068 24.14156 -0.02689
C 15.84039 23.38278 -0.01046
C 15.965 21.96523 -0.00891
C 14.70263 21.26655 0.02819
C 14.7231 19.88039 0.00165
C 16.02183 19.16638 -0.02971
C 16.0816 17.68881 0.02894
C 14.82282 16.99206 -0.01789
C 14.81261 15.63658 0.00444
C 15.8867 14.89546 -0.00925
C 16.06852 13.42396 0.01877
C 16.08718 10.35206 0.01363
C 15.97096 9.12198 -0.02162
C 14.67638 6.92222 0.00415
C 16.03201 6.28886 -0.0014
C 16.04187 4.91534 0.02162
C 15.94881 30.58795 -0.01275
C 16.00773 32.08925 -0.01111
C 14.75514 32.73599 0.02841
C 12.2502 0.08935 0.00943
C 12.21484 32.72731 -0.014
C 13.49476 32.10941 0.02147
C 13.46741 30.70362 0.00373
C 12.22074 29.9614 -0.00191
C 12.22796 28.53632 0.00438
C 13.52556 27.77396 0.01291
C 13.49467 26.36554 0.00093
C 12.25203 25.65046 0.00057
C 12.28567 24.27868 -0.01634
C 13.46912 23.43455 -0.00334
C 14.74988 4.34395 0.0076
C 13.46496 22.07611 0.02339
C 12.28565 19.80107 -0.00719
C 13.47621 19.13935 0.01364
C 13.50336 17.77384 -0.01062
C 12.44232 16.90416 -0.00033
C 13.58468 6.43816 0.03589
C 13.44711 4.95768 -0.02759
C 12.22389 4.25693 0.0402
C 12.29301 2.90068 0.00572
C 13.57443 2.19482 0.03592
C 13.51781 0.7999 0.00406
C 12.2499 21.29688 0.01641
C 14.76607 2.89906 0.01241
C 16.01596 2.19374 -0.01454
C 16.07013 0.84161 0.01945
C 18.4228 6.36715 -0.02162
C 18.49812 4.97224 0.00889
C 17.33295 4.24513 -0.00481
C 17.28398 2.79658 0.00979
C 18.44979 2.13479 0.01443
C 18.48966 0.68517 0.03505
C 17.26073 0.09394 -0.02815
C 19.58502 32.68681 -0.04147
C 20.88021 31.97461 -0.05302
C 20.85984 30.56029 0.00213
C 17.22011 7.03911 -0.00619
C 19.61787 29.8161 -0.00066
C 20.77259 27.64027 0.00028
C 20.80254 26.25851 -0.02213
C 19.56129 25.49007 0.03698
C 19.60176 24.11333 -0.00109
C 20.79476 23.36281 -0.00491
C 20.86223 21.9602 0.03338
C 19.60051 21.30212 -0.0258
C 19.75158 19.85793 -0.0331
C 20.96322 19.10477 -0.00316
C 20.97266 17.68714 0.02188
C 19.53486 28.41205 -0.00289
C 9.75804 0.17608 -0.01118
C 17.20621 8.47172 0.01848
C 18.3935 10.60366 -0.03113
C 14.8166 0.00989 0.01416
C 17.21363 32.75423 0.03542
C 18.37326 31.98262 0.02299
C 18.36031 30.55236 0.00244
C 17.12384 29.91704 -0.01717
C 17.17308 28.49757 0.05265
C 18.34635 27.68267 -0.01952
C 18.33574 26.25264 -0.02813
C 17.11792 25.55588 0.00374
C 17.14019 24.14928 0.00052
C 18.31237 9.21084 0.02098
C 18.31158 23.40537 -0.03682
C 17.18108 21.22004 0.02058
C 17.26366 19.77937 -0.01957
C 18.50592 19.10403 -0.0108
C 18.5265 17.66257 -0.00368
C 17.29293 16.9499 -0.02696
C 17.14497 15.55929 -0.00114
C 18.4841 14.79059 0.00228
C 18.43976 13.44686 0.00798
C 17.22416 12.76039 0.00422
C 17.19895 11.3811 0.0351
C 18.38548 21.99204 0.01965
C 10.9729 0.8195 -0.00131
C 11.00389 2.25284 -0.02896
C 9.85897 3.04481 -0.01004
C 2.39181 2.85239 0.04505
C 3.58827 2.2069 0.03284
C 3.61848 0.74661 -0.04307
C 2.3807 0.07827 0.03189
C 4.85915 32.77459 0.00031
C 6.08579 31.99864 -0.003
C 6.05979 30.57182 0.01402
C 4.86917 29.85346 0.02379
C 4.83548 28.41646 0.00907
C 6.06366 27.79165 0.00643
C 2.42805 4.28988 -0.04999
C 6.09877 26.27858 -0.01509
C 4.94335 24.14459 0.02374
C 6.11056 23.45773 0.00402
C 6.143 22.04177 0.0073
C 4.89055 21.25673 0.0174
C 4.93826 19.83183 0.03828
C 6.19462 19.14117 0.01226
C 6.18497 17.70459 -0.00279
C 4.91223 17.00808 0.01996
C 4.89124 15.65506 -0.03996
C 6.18748 14.99114 0.01465
C 4.83841 25.54746 0.03267
C 4.84241 12.72422 -0.00074
C 3.57231 5.02771 -0.03291
C 2.41393 7.15944 0.01707
C 3.56822 30.53334 0.03278
C 2.37212 29.83921 -0.00177
C 2.42706 28.4158 0.04421
C 3.63814 27.68801 0.00088
C 3.62684 26.25982 0.00828
C 2.43458 25.54521 -0.02375
C 2.40708 24.11989 0.00558
C 3.68509 23.41704 -0.0059
C 3.61415 22.0161 -0.01386
C 2.44238 21.34086 -0.02805
C 3.7317 6.47468 0.02769
C 2.45252 19.93385 0.00081
C 3.68679 17.77573 0.02728
C 2.50286 17.01976 -0.00039
C 2.48728 15.55582 0.0064
C 3.74446 14.87562 0.00211
C 3.70942 13.51029 -0.00449
C 2.50422 12.89359 -0.01979
C 2.40834 11.37994 0.02784
C 3.52941 10.6619 -0.01977
C 3.56219 9.23415 -0.00561
C 2.31827 8.46724 0.00208
C 3.69695 19.18952 0.00245
C 19.71631 16.96116 -0.01979
C 4.73801 11.51915 -0.00518
C 4.96924 7.09768 -0.00643
C 7.35784 2.8838 0.01849
C 8.64838 2.3049 -0.01142
C 8.58434 0.86923 -0.00562
C 7.34371 0.08743 -0.00494
C 9.80354 32.79549 0.00054
C 10.99964 32.08759 0.03007
C 11.00365 30.69347 -0.00095
C 9.7993 29.99751 0.01572
C 9.77093 28.56522 -0.04848
C 10.98346 27.88314 -0.00892
C 7.32915 4.27022 0.01396
C 11.08389 26.43134 -0.01362
C 9.85764 24.27911 0.0288
C 11.13811 23.54598 0.00393
C 11.10857 22.09087 0.00895
C 9.85099 21.31974 0.00685
C 9.86919 19.89968 0.02888
C 11.05436 19.05656 -0.00482
C 11.17125 17.60276 -0.01384
C 9.86804 17.19417 0.03693
C 11.05514 5.14639 0.01745
C 9.81601 4.53626 0.00488
C 9.80802 25.67677 -0.0008
C 4.72921 8.63632 0.0086
C 8.49358 4.97723 0.0127
C 7.44861 17.07733 -0.01378
C 6.15004 6.42249 0.017
C 6.02906 5.0203 -0.03113
C 4.87896 4.34922 -0.02566
C 4.79183 2.86122 -0.00094
C 6.06223 2.25101 0.02322
C 6.09322 0.81851 -0.00725
C 4.90239 0.13361 -0.05697
C 7.38706 32.72556 0.01087
C 8.55533 32.07002 -0.01343
C 8.55305 30.63426 0.00988
C 7.29228 15.59994 0.02635
C 7.37381 29.84015 0.0276
C 8.55774 27.75766 -0.00077
C 8.61384 26.40163 0.03368
C 7.33589 25.67237 -0.02929
C 7.36459 24.1931 -0.00966
C 8.6572 23.50805 -0.03337
C 8.63765 22.02961 0.01227
C 7.3245 21.35937 0.00873
C 7.39736 19.87175 -0.00049
C 8.6443 19.21218 0.00848
C 8.68759 17.79793 -0.01303
C 7.32551 28.46364 0.01305
C 19.75679 15.52618 0.02691
C 20.95564 14.87762 -0.01581
C 20.85442 13.48536 0.01452
C 30.68897 10.60521 -0.00944
C 30.6821 9.18066 -0.03735
C 29.46349 8.49718 -0.00971
C 29.48978 7.02372 0.01518
C 30.72951 6.35026 0.01908
C 30.65849 4.9463 0.07705
C 29.50654 4.2817 0.0103
C 29.48711 2.73815 0.02108
C 30.7239 2.12738 0.00716
C 30.75957 0.73875 0.00307
C 29.48429 11.29214 -0.02155
C 29.50363 34.02943 0.00346
C 33.13063 31.94166 -0.01694
C 33.21326 30.49533 0.01428
C 31.97493 29.74582 -0.02142
C 31.91948 28.4072 0.0544
C 33.19836 27.66091 0.00026
C 33.16407 26.26061 0.00682
C 31.8803 25.54303 -0.01779
C 31.90016 24.03515 0.03794
C 33.14116 23.40157 0.01927
C 33.16424 22.03333 0.01574
C 32.00834 32.6639 0.01713
C 31.93219 21.2722 -0.02383
C 29.48694 12.6861 -0.01461
C 30.68588 14.86315 -0.0405
C 27.10765 4.27235 0.01495
C 27.13227 2.83188 0.01259
C 28.30285 2.11026 0.01799
C 28.28974 0.68185 0.01699
C 27.02946 0.04323 -0.00416
C 29.50301 32.64833 0.01177
C 30.71226 31.96476 0.04266
C 30.70026 30.45027 0.01324
C 29.39583 29.78957 0.0014
C 29.35217 28.34239 0.00924
C 30.68157 13.51998 -0.01303
C 30.66758 27.71851 0.02326
C 29.48841 25.5103 0.03265
C 29.50117 24.13415 -0.02049
C 30.67936 23.38849 -0.01854
C 30.75675 22.02846 -0.01415
C 29.44898 21.21119 -0.03039
C 29.45815 19.8701 0.01836
C 30.70502 19.16669 0.03531
C 30.74611 17.76725 -0.00669
C 29.4387 16.95998 0.0101
C 29.41112 15.5949 0.01705
C 30.71166 26.27297 0.00261
C 28.27613 4.94866 0.00235
C 31.94082 19.87375 -0.01429
C 33.13149 17.78381 0.00594
C 1.20648 23.38401 0.00723
C 1.21302 22.00198 0.02712
C 34.39695 21.30937 -0.02213
C 34.40526 19.86615 0.01951
C 1.18812 19.1603 -0.01678
C 1.24674 17.72214 0.01223
C 0.00563 17.00009 0.00648
C 0.07979 15.61498 0.02114
C 1.26268 14.92797 -0.02957
C 1.30761 13.49593 0.00343
C 34.42089 24.11879 0.03076
C 0.05553 12.79312 -0.02656
C 1.23976 10.69147 -0.00027
C 1.17446 9.24994 -0.00583
C 34.33574 8.52 -0.02302
C 34.3658 7.05445 -0.02849
C 1.16649 6.35631 0.02931
C 1.18118 4.92723 0.00628
C 34.35804 4.24517 -0.0345
C 34.40706 2.88151 -0.00931
C 1.20441 2.09822 -0.00939
C 1.14661 0.72791 -0.00468
C 34.41928 11.32858 -0.02442
C 33.17238 19.18642 -0.0136
C 0.02515 25.49833 -0.05239
C 1.16461 27.68748 -0.00439
C 31.86196 17.01786 -0.02474
C 31.89794 15.60511 0.00369
C 33.21106 14.96627 0.00455
C 33.23617 13.56252 -0.00644
C 31.95885 12.80386 -0.01839
C 31.93469 11.36386 0.00137
C 33.18997 10.70054 0.00199
C 33.12577 9.23573 0.04381
C 31.91852 8.54476 0.02806
C 31.9468 7.12325 0.01504
C 1.18678 26.23934 -0.00598
C 33.12119 6.37931 -0.00069
C 31.93069 4.19323 -0.03838
C 31.95701 2.78967 0.00349
C 33.16342 2.11374 -0.00323
C 33.22132 0.66688 -0.00841
C 31.99037 34.07086 0.0001
C 34.35172 32.63505 -0.02927
C 1.23488 31.88699 -0.01404
C 1.17765 30.50694 0.01027
C 34.36297 29.83474 0.01831
C 34.39094 28.34772 -0.01037
C 33.13958 4.91371 0.04926
C 3.58684 31.92924 0.01138
C 28.29612 6.32141 0.01094
C 27.09759 8.46026 0.02611
C 23.39017 19.18747 -0.01721
C 23.40861 17.76479 -0.02422
C 22.20615 16.96535 0.01277
C 22.24446 15.58889 0.00096
C 23.38745 14.84361 -0.01527
C 23.36181 13.412 0.01087
C 22.07157 12.76301 0.00199
C 22.12769 11.29826 0.01511
C 23.36445 10.51984 -0.00478
C 23.31829 9.10432 -0.01662
C 22.13801 19.87934 -0.01154
C 22.07451 8.52367 -0.01185
C 23.39861 6.38054 0.01852
C 23.34608 4.9773 -0.00381
C 22.16467 4.30417 0.03046
C 22.16551 2.86637 0.0296
C 23.40939 2.10551 0.03374
C 23.35142 0.68399 -0.02845
C 22.20539 34.03342 -0.03213
C 24.59448 32.65375 0.02239
C 25.79939 31.90993 0.01153
C 25.7429 30.55381 0.02734
C 22.11643 7.12917 0.01126
C 24.56459 29.7969 -0.0055
C 22.11893 21.31536 0.0106
C 23.28333 23.43541 0.00742
C 19.67209 12.70071 0.04892
C 19.6497 11.27986 -0.00111
C 20.91548 10.60479 -0.03557
C 20.78621 9.24024 0.03754
C 19.55229 8.52731 0.01739
C 19.65305 7.08856 0.00755
C 20.84867 6.46317 -0.0054
C 20.92677 5.05393 0.00667
C 19.69614 4.21273 0.00143
C 19.71327 2.84397 -0.017
C 23.30964 22.08256 -0.01594
C 20.87411 2.15255 0.00364
C 19.70764 0.00948 -0.02957
C 22.11086 32.69019 -0.04422
C 23.32263 31.92302 0.00654
C 23.31524 30.47987 -0.00703
C 22.06823 29.7712 -0.04076
C 22.06253 28.32597 -0.00652
C 23.26505 27.72941 0.0058
C 23.29408 26.33331 -0.00865
C 22.0622 25.596 0.00675
C 22.02801 24.12274 -0.00311
C 20.92681 0.78005 -0.00831
C 27.05408 7.12625 0.02198
C 24.58811 28.40885 0.01515
C 25.73574 26.24276 0.00071
C 28.21705 31.99287 -0.01679
C 28.31078 30.63275 0.00367
C 26.98163 29.80949 0.04306
C 26.95954 28.39066 0.00996
C 28.16921 27.71974 0.00195
C 28.29455 26.27874 -0.00802
C 26.9894 25.55412 -0.00218
C 27.01416 24.14872 -0.01654
C 28.25318 23.44653 -0.00037
C 28.23557 22.01085 -0.0032
C 26.99975 32.62123 -0.01052
C 27.05272 21.32243 0.00622
C 28.27198 19.14345 -0.00942
C 28.27084 17.70331 0.00487
C 27.03883 16.9516 0.00826
C 27.04009 15.59307 -0.00294
C 28.28669 14.90176 0.00152
C 28.25037 13.43394 0.01257
C 27.03767 12.75299 0.02316
C 27.0749 11.31681 0.04185
C 28.26996 10.59556 0.00194
C 28.26357 9.19813 -0.00621
C 27.00804 19.83902 -0.02815
C 25.73113 27.72526 -0.00225
C 24.62397 0.02893 0.00684
C 25.89688 2.11187 -0.0264
C 24.50617 25.52512 -0.01107
C 24.51991 24.14554 -0.01586
C 25.78322 23.5117 -0.01971
C 25.76184 22.03975 -0.02118
C 24.54132 21.27907 0.00733
C 24.5921 19.92912 -0.00178
C 25.75336 19.18546 0.00768
C 25.80293 17.69034 -0.0276
C 24.62316 17.00679 0.03005
C 24.64411 15.52884 -0.04078
C 25.80684 0.63976 -0.01154
C 25.81409 14.83569 0.02117
C 24.60573 12.69644 -0.00498
C 24.64562 11.23371 0.00135
C 25.84446 10.54779 0.03102
C 25.84995 9.1474 0.02555
C 24.57306 8.47504 0.01423
C 24.61664 7.09073 -0.00285
C 25.78554 6.35014 -0.009
C 25.8332 4.97256 -0.01199
C 24.6622 4.26661 -0.00229
C 24.62295 2.81976 -0.00938
C 25.79537 13.41321 0.02737
C 2.36095 32.69513 -0.00407
