377
Graphene
C 34.33254 0.07207 0.01295
C 10.99339 6.42265 0.03542
C 11.03054 5.05282 0.02299
C 9.79445 4.36698 0.00244
C 9.71796 2.89396 -0.01717
C 10.98741 2.16247 0.05265
C 11.03465 0.69987 -0.01952
C 9.81214 0.07723 -0.02813
C 12.31864 32.66444 0.00374
C 13.53601 31.94157 0.00052
C 13.54566 30.50204 -0.03682
C 12.28817 29.85176 0.01965
C 12.27248 28.37331 0.02058
C 13.45627 27.66984 -0.01957
C 13.45086 26.20488 -0.0108
C 12.20092 25.49424 -0.00368
C 12.17633 24.04362 -0.02696
C 13.5425 23.56711 -0.00114
C 12.43665 21.11026 0.00228
C 12.2238 20.00644 0.00798
C 9.70004 7.16269 0.01416
C 9.75403 8.60776 0.01945
C 10.99781 9.24721 -0.01454
C 10.96993 10.74744 0.01241
C 11.11996 31.97113 -0.00428
C 11.08253 30.5606 0.03101
C 9.86005 29.86566 -0.01536
C 9.79311 28.41811 -0.02689
C 11.06957 27.69504 -0.01046
C 11.04649 26.23278 -0.00891
C 9.79576 25.53712 0.02819
C 9.77787 24.05218 0.00165
C 11.02185 23.25743 -0.02971
C 12.06079 16.27203 0.00422
C 11.23614 21.79698 0.02894
C 9.97639 19.72487 0.00444
C 11.25858 19.09581 -0.00925
C 11.04021 17.61398 0.01877
C 9.83189 17.05244 0.01363
C 9.83633 15.63968 -0.02162
C 11.1902 15.16331 0.00415
C 11.28754 13.67998 -0.0014
C 9.92992 12.97886 0.02162
C 9.8651 11.52648 0.0076
C 9.95607 21.10493 -0.01789
C 9.95694 32.73477 -0.02245
C 13.79486 12.81807 0.0351
C 12.12289 11.41212 0.02098
C 14.67156 7.22508 -0.01979
C 15.87618 6.5226 0.02691
C 15.92481 5.08739 -0.01581
C 14.73692 4.31 0.01452
C 14.71689 2.8688 0.04892
C 15.93006 2.15706 -0.00111
C 15.92625 0.67355 -0.03557
C 14.7661 34.04552 0.03754
C 17.24804 32.50695 0.01739
C 18.44949 31.7704 0.00755
C 18.45487 30.3065 -0.0054
C 17.18121 29.57279 0.00667
C 17.18319 28.11687 0.00143
C 18.446 27.42904 -0.017
C 18.52387 25.89479 0.00364
C 17.22543 25.30209 -0.00831
C 17.11889 11.61586 -0.02957
C 18.32701 11.03011 -0.04422
C 18.29848 9.42362 0.00654
C 14.64738 8.67911 0.02188
C 15.83635 9.41353 -0.00316
C 15.85317 10.87564 -0.0331
C 14.59566 11.35774 -0.0258
C 13.37954 10.6522 0.01848
C 13.38883 9.34756 -0.00619
C 12.24149 8.62872 -0.02162
C 12.19643 7.18392 0.00889
C 13.48011 6.43848 -0.00481
C 13.46918 5.00749 0.00979
C 12.26851 4.31748 0.01443
C 12.19178 2.77919 0.03505
C 13.48599 2.14116 -0.02815
C 12.42159 12.80023 -0.03113
C 13.50597 0.7479 -0.04147
C 14.83398 32.64115 0.00213
C 16.04144 31.70898 -0.00066
C 16.05831 30.32863 -0.00289
C 14.83992 29.68945 0.00028
C 14.82306 28.25042 -0.02213
C 15.96291 27.51427 0.03698
C 16.01613 26.08582 -0.00109
C 14.78857 25.51058 -0.00491
C 14.61421 24.04957 0.03338
C 12.27725 0.00503 -0.05302
C 7.36138 0.00686 0.00985
C 8.59145 0.79534 -0.01275
C 8.50672 2.1814 -0.01111
C 3.58493 5.08705 0.00988
C 2.3852 4.35137 0.0276
C 2.34455 2.93529 0.01305
C 3.54385 2.17044 -0.00077
C 3.60601 0.81246 0.03368
C 2.39981 0.09659 -0.02929
C 4.96025 32.7634 -0.00966
C 6.14936 32.06376 -0.03337
C 6.07023 30.65141 0.01227
C 4.85549 29.95086 0.00873
C 4.84884 28.48461 -0.00049
C 6.06637 27.71525 0.00848
C 6.17095 26.29299 -0.01303
C 4.97595 25.62375 -0.01378
C 4.99428 24.15194 0.02635
C 6.18209 23.47683 0.0127
C 6.17678 22.04076 0.01396
C 4.92289 21.46688 0.01849
C 4.97338 20.03562 -0.01142
C 3.59972 6.45356 -0.01343
C 2.35996 7.13629 0.01087
C 2.38001 8.53073 -0.05697
C 3.60312 9.24257 -0.00725
C 3.61658 30.64703 0.03267
C 2.37027 29.8861 0.02374
C 2.51482 28.41424 0.00402
C 3.68563 27.67591 0.0073
C 3.6711 26.2879 0.0174
C 2.49896 25.61612 0.03828
C 2.46541 24.1624 0.01226
C 3.70176 23.48933 -0.00279
C 3.73511 22.12055 0.01996
C 6.13483 19.243 -0.00562
C 2.53888 21.39132 -0.03996
C 3.69299 19.30293 -0.00074
C 3.63652 17.81406 -0.00518
C 2.4507 17.12617 0.0086
C 2.45226 15.72648 -0.00643
C 3.73712 14.99216 0.017
C 3.75005 13.49828 -0.03113
C 2.39617 12.80462 -0.02566
C 2.34964 11.40472 -0.00094
C 3.65669 10.7185 0.02322
C 2.41939 19.95589 0.01465
C 6.16255 17.81966 -0.00494
C 4.95229 17.11227 0.00054
C 4.98142 15.72264 0.03007
C 8.57366 23.41562 0.00438
C 8.7446 21.91738 0.01291
C 7.46634 21.31994 0.00093
C 7.45905 19.91534 0.00057
C 8.69202 19.04855 -0.01634
C 8.63297 17.72926 -0.00334
C 7.42967 17.11106 0.02339
C 7.38521 15.73739 0.01641
C 8.60597 15.01129 -0.00719
C 7.37047 24.18729 -0.00191
C 8.61325 13.54389 0.01364
C 7.35175 11.44157 -0.00033
C 8.55715 10.77725 0.03589
C 8.58335 9.285 -0.02759
C 7.3783 8.61419 0.0402
C 7.29839 7.11176 0.00572
C 8.50695 6.45422 0.03592
C 8.51179 5.06954 0.00406
C 7.32532 4.36592 0.00943
C 7.3306 2.95071 0.02841
C 7.37631 12.85971 -0.01062
C 17.02487 8.63262 -0.00703
C 7.37482 25.5371 0.00373
C 8.55009 27.64875 -0.014
C 6.16237 14.94883 -0.00095
C 6.16939 13.56549 0.01572
C 4.93437 12.83837 -0.04848
C 4.91749 11.44529 -0.00892
C 6.11593 10.68955 -0.01362
C 6.07712 9.2632 -0.0008
C 4.88866 8.54077 0.0288
C 4.85224 7.11016 0.00393
C 6.0894 6.44217 0.00895
C 8.55479 26.22195 0.02147
C 6.05725 5.0655 0.00685
C 4.7816 2.86718 -0.00482
C 6.07792 2.18126 -0.01384
C 6.12269 0.72285 0.03693
C 4.83309 0.03202 0.01745
C 7.37394 32.66754 0.00488
C 8.59617 31.9666 -0.01004
C 8.57898 30.49764 -0.02896
C 7.30726 29.90193 -0.00131
C 7.28029 28.44397 -0.01118
C 4.80769 4.29053 0.02888
C 3.59507 32.08163 -0.01509
C 17.097 7.22848 -0.04076
C 18.44911 5.03908 0.0058
C 30.67281 6.39784 0.00716
C 30.65936 4.9615 0.00307
C 29.38102 4.29314 0.00346
C 29.39316 2.93122 0.01713
C 30.57779 2.05529 -0.01694
C 30.54713 0.59946 0.01428
C 29.29806 0.04756 -0.02142
C 32.02827 32.60181 0.0544
C 33.09271 31.9639 0.00026
C 33.11991 26.34768 0.00682
C 32.09003 25.72526 -0.01779
C 31.85332 24.34832 0.03794
C 33.11511 23.54858 0.01927
C 33.21793 22.1309 0.01574
C 31.93123 21.45322 -0.02383
C 31.97416 20.00209 -0.01429
C 33.19287 19.35423 -0.0136
C 33.17958 17.8747 0.00594
C 31.91815 17.11919 -0.02474
C 29.47559 7.13586 0.02108
C 29.44548 8.54388 0.0103
C 30.66101 9.2868 0.07705
C 30.69206 10.69692 0.01908
C 28.27703 6.33751 0.02326
C 28.17755 4.98154 0.00261
C 26.88647 4.25514 0.03265
C 26.89716 2.80265 -0.02049
C 28.07847 2.15413 -0.01854
C 28.13072 0.71785 -0.01415
C 27.07 33.977 -0.03039
C 29.40143 24.31287 0.01836
C 30.67184 23.72915 0.03531
C 31.93271 15.62073 0.00369
C 30.68788 22.25386 -0.00669
C 29.49502 20.01713 0.01705
C 30.7539 19.20163 -0.0405
C 30.74221 17.75329 -0.01303
C 29.51154 17.09741 -0.01461
C 29.44687 15.59022 -0.02155
C 30.74065 14.90609 -0.00944
C 30.64881 13.51663 -0.03735
C 29.39867 12.79612 -0.00971
C 29.49074 11.40466 0.01518
C 29.51882 21.47025 0.0101
C 27.02506 7.05763 0.00924
C 33.14355 14.93308 0.00455
C 31.82984 12.76758 -0.01839
C 0.00123 20.01789 0.01951
C 1.21401 19.36049 -0.01678
C 1.24444 17.87095 0.01223
C 0.01534 17.11156 0.00648
C 34.33779 15.65522 0.02114
C 1.18155 14.96151 -0.02957
C 1.18547 13.53404 0.00343
C 34.4295 12.76761 -0.02656
C 34.38858 11.37105 -0.02442
C 1.18725 10.73467 -0.00027
C 1.20082 9.32259 -0.00583
C 34.37116 8.57053 -0.02302
C 34.36833 7.15196 -0.02849
C 1.14048 6.4377 0.02931
C 1.18363 5.0444 0.00628
C 34.32339 4.32668 -0.0345
C 34.33739 2.88282 -0.00931
C 1.12201 2.22684 -0.00939
C 1.14953 0.80059 -0.00468
C 0.00461 21.38326 -0.02213
C 1.24298 22.1147 0.02712
C 1.19416 23.44781 0.00723
C 34.34978 24.2132 0.03076
C 31.89445 11.37276 0.00137
C 33.08666 10.70296 0.00199
C 33.11463 9.32364 0.04381
C 31.88188 8.51844 0.02806
C 31.88827 7.10028 0.01504
C 33.11363 6.44495 -0.00069
C 33.04612 5.02168 0.04926
C 31.84451 4.22065 -0.03838
C 31.86701 2.81402 0.00349
C 33.14242 13.43824 -0.00644
C 33.08857 2.19708 -0.00323
C 31.80363 0.02712 0.0001
C 34.33873 32.64608 -0.02927
C 1.12759 31.92585 -0.01404
C 1.09702 30.478 0.01027
C 34.34357 29.73704 0.01831
C 0.07471 28.51049 -0.01037
C 1.23293 27.70479 -0.00439
C 1.25176 26.2998 -0.00598
C 34.42029 25.6096 -0.05239
C 33.0925 0.78047 -0.00841
C 27.01376 8.56995 0.0014
C 28.2412 9.20732 0.01324
C 28.32375 10.5913 0.04266
C 19.56206 34.04181 -0.02845
C 22.07918 32.54048 -0.03213
C 23.33472 31.83255 0.02239
C 23.33523 30.4117 0.01153
C 22.06265 29.73079 0.02734
C 22.01975 28.30453 -0.0055
C 23.34957 27.60659 0.01515
C 23.4265 26.12201 -0.00225
C 22.26897 25.25513 0.00071
C 22.44402 23.84919 -0.01107
C 23.6923 23.20917 -0.01586
C 22.09602 11.32555 -0.01971
C 23.23645 10.57036 -0.02118
C 23.21684 9.22104 0.00733
C 22.00434 8.49696 -0.00178
C 22.00685 7.00849 0.00768
C 23.22162 6.37708 -0.0276
C 23.24438 4.96758 0.03005
C 22.02197 4.17413 -0.04078
C 20.7139 0.64595 0.03374
C 20.76526 2.0575 0.0296
C 19.55043 2.79272 0.03046
C 19.5512 4.21058 -0.00381
C 17.11334 4.31594 -0.00865
C 17.1424 2.84129 0.00675
C 18.26768 2.09401 -0.00311
C 18.31295 0.66823 0.00742
C 17.14267 33.88979 -0.01594
C 19.62659 32.61348 0.0106
C 20.83334 31.84668 -0.01154
C 20.82967 30.41019 -0.01721
C 19.63917 29.66108 -0.02422
C 22.01027 2.79176 0.02117
C 19.65665 28.23627 0.01277
C 21.00162 25.92073 -0.01527
C 19.74987 25.1954 0.01087
C 19.61183 11.38025 0.00199
C 20.84239 10.82757 0.01511
C 20.76349 9.35223 -0.00478
C 19.50207 8.63372 -0.01662
C 19.5878 7.14274 -0.01185
C 20.79031 6.33962 0.01126
C 20.81298 4.93402 0.01852
C 20.86293 27.45716 0.00096
C 23.29883 2.0219 0.02737
C 23.25288 0.65344 -0.00498
C 22.04529 34.01131 0.00135
C 24.47157 4.26452 -0.00942
C 24.40504 2.83122 0.00487
C 25.65179 2.04979 0.00826
C 25.77833 0.53743 -0.00294
C 24.45495 33.93002 0.00152
C 27.1699 32.61858 0.01257
C 27.11204 25.55393 0.02316
C 27.15378 24.17058 0.04185
C 28.32069 23.43907 0.00194
C 25.70603 4.92985 -0.02815
C 28.25653 22.08035 -0.00621
C 27.02355 19.9491 0.02198
C 28.32113 19.2687 0.01094
C 28.29417 17.87065 0.00235
C 27.04573 17.05797 0.01495
C 26.95225 15.68486 0.01259
C 28.1639 14.97111 0.01799
C 28.16053 13.48256 0.01699
C 26.94246 12.74802 -0.00416
C 26.96402 11.31605 0.01177
C 27.02972 21.29722 0.02611
C 18.3564 6.49908 -0.00652
C 25.68368 6.35364 0.00622
C 24.43039 8.53122 -0.00037
C 24.52465 32.56472 0.03102
C 26.01803 31.6985 0.02555
C 25.75635 30.36084 0.01423
C 24.49335 29.68952 -0.00285
C 24.59016 28.27299 -0.009
C 25.82144 27.68835 -0.01199
C 26.0306 26.40309 -0.00229
C 24.74351 25.55196 -0.00938
C 24.66873 24.15825 -0.0264
C 24.48689 7.07226 -0.0032
C 25.91572 23.46808 -0.01154
C 24.28376 21.79504 -0.01052
C 25.91153 19.13135 -0.01679
C 25.8092 17.89794 0.00367
C 25.76769 15.00118 0.04306
C 25.64754 13.55595 0.00996
C 24.47622 12.60469 0.00195
C 24.54785 11.26622 -0.00802
C 25.74842 10.63943 -0.00218
C 25.73607 9.19488 -0.01654
C 25.81969 22.10851 0.00684
C 2.35174 32.77707 0.00643
