303
Graphene
C 34.41398 0.05337 0.01295
C 9.86606 24.07373 0.01452
C 11.17455 23.38289 0.04892
C 11.18199 22.03641 -0.00111
C 9.895 21.38529 -0.03557
C 9.80418 20.02061 0.03754
C 10.94971 19.15012 0.01739
C 11.00489 17.8247 0.00755
C 9.87497 2.74022 -0.0054
C 11.13303 0.48242 0.00667
C 9.83651 0.00854 0.00143
C 12.32651 32.67835 -0.017
C 13.54321 31.97057 0.00364
C 13.50847 30.49816 -0.00831
C 12.23491 29.807 -0.02957
C 12.19422 28.41365 -0.04422
C 9.8578 25.52864 -0.01581
C 13.52384 27.76506 0.00654
C 11.13111 26.24246 0.02691
C 9.83329 28.43089 0.02188
C 8.37428 15.00249 -0.02815
C 8.48774 13.76194 -0.04147
C 7.37298 12.71831 -0.05302
C 7.36444 11.25564 0.00213
C 7.16359 8.48056 -0.00066
C 7.33793 7.22351 -0.00289
C 7.40511 4.23162 0.00028
C 7.4094 2.85486 -0.02213
C 8.59769 2.17131 0.03698
C 8.58034 0.68022 -0.00109
C 7.35346 34.05049 -0.00491
C 9.8025 32.6708 0.03338
C 11.10662 32.01131 -0.0258
C 11.07716 30.56397 -0.0331
C 9.89566 29.82588 -0.00316
C 11.05661 27.60269 -0.01979
C 7.14192 15.98885 0.03505
C 13.56017 26.30106 -0.00703
C 12.46367 24.0903 -0.00652
C 18.39965 27.85923 0.01126
C 18.31424 0.62072 0.01852
C 17.27943 33.96432 -0.00381
C 19.68161 32.77648 0.03046
C 20.87716 31.9704 0.0296
C 20.89299 30.51505 0.03374
C 19.72482 29.79337 -0.02845
C 19.55233 28.45626 -0.03213
C 21.00742 2.18517 0.02239
C 20.77868 0.88236 0.01153
C 19.588 0.18235 0.02734
C 22.05758 32.69312 -0.0055
C 23.30669 31.94378 0.01515
C 23.35147 30.50092 -0.00225
C 22.07368 29.93154 0.00071
C 17.10805 28.22436 -0.01185
C 12.41809 25.50303 -0.04076
C 17.22953 29.63338 -0.01662
C 18.47611 31.91668 0.01511
C 13.69753 23.42527 0.0058
C 12.22164 21.18287 -0.00865
C 12.23536 19.87182 0.00675
C 13.32209 17.67339 -0.00311
C 12.12012 16.96128 0.00742
C 12.45294 34.07727 -0.01594
C 14.79801 32.6501 0.0106
C 15.97181 31.90096 -0.01154
C 16.05016 30.45585 -0.01721
C 14.75792 29.84613 -0.02422
C 14.75233 28.4639 0.01277
C 15.87527 27.65669 0.00096
C 14.86442 25.75808 -0.01527
C 14.90091 0.00054 0.01087
C 17.20093 32.55343 0.00199
C 18.44589 30.45111 -0.00478
C 22.19984 28.45396 -0.01107
C 7.55779 19.94005 0.01443
C 8.63406 22.00489 -0.00481
C 3.7418 10.63259 0.00985
C 3.66534 9.20846 -0.02245
C 2.43407 8.51422 -0.00428
C 2.47778 7.07135 0.03101
C 3.69637 6.3075 -0.01536
C 3.69804 4.90136 -0.02689
C 2.42001 4.31014 -0.01046
C 2.41065 2.84308 -0.00891
C 3.68239 2.12467 0.02819
C 3.72807 0.70857 0.00165
C 2.45609 0.02523 -0.02971
C 4.91014 32.60567 0.02894
C 6.12987 31.92439 -0.01789
C 6.12684 30.46246 0.00444
C 4.887 29.7458 -0.00925
C 2.52569 11.39246 -0.01275
C 4.89751 28.3271 0.01877
C 2.48619 12.73832 -0.01111
C 3.64157 14.93323 0.00943
C 3.69654 30.44882 0.00057
C 2.4401 29.81498 -0.01634
C 2.45907 28.35623 -0.00334
C 3.64345 27.65599 0.02339
C 3.61554 26.21361 0.01641
C 2.35194 25.56315 -0.00719
C 2.39402 24.13887 0.01364
C 3.61717 23.43143 -0.01062
C 3.64015 22.00603 -0.00033
C 2.4235 21.31375 0.03589
C 2.40992 19.89752 -0.02759
C 3.70853 19.24736 0.0402
C 3.67981 17.78936 0.00572
C 2.42386 17.08718 0.03592
C 2.44184 15.69507 0.00406
C 3.66122 13.56536 0.02841
C 7.41277 21.31949 0.00979
C 6.2261 27.71058 0.01363
C 4.83727 25.58265 0.00415
C 4.94184 4.29775 -0.01957
C 4.92583 2.88426 -0.0108
C 6.18476 2.17852 -0.00368
C 6.16813 0.71833 -0.02696
C 4.93659 34.05548 -0.00114
C 7.37007 32.64695 0.00228
C 8.63647 31.88373 0.00798
C 8.66384 30.47856 0.00422
C 7.46423 29.78643 0.0351
C 7.44053 28.37297 -0.03113
C 8.64076 27.67022 0.02098
C 8.58266 26.25308 0.01848
C 7.3985 25.56861 -0.00619
C 7.34397 24.10758 -0.02162
C 8.62286 23.4209 0.00889
C 6.22802 4.97542 0.02058
C 6.13364 26.25699 -0.02162
C 6.21055 6.36579 0.01965
C 4.86448 8.47476 0.00052
C 4.82257 24.14034 -0.0014
C 6.08315 23.4216 0.02162
C 6.15255 21.96653 0.0076
C 4.89634 21.30417 0.01241
C 5.02554 19.84519 -0.01454
C 6.46708 19.02585 0.01945
C 6.36564 17.5479 0.01416
C 4.94186 17.0888 0.03542
C 4.8788 15.68868 0.02299
C 6.07063 14.96596 0.00244
C 6.22681 13.55399 -0.01717
C 4.95127 12.87038 0.05265
C 4.84346 11.40199 -0.01952
C 6.04642 10.72068 -0.02813
C 6.02573 9.28455 0.00374
C 4.9893 7.06869 -0.03682
C 3.69357 31.91375 0.00093
C 23.1831 27.62824 -0.01586
C 23.54549 6.18064 -0.02118
C 33.10763 22.05666 0.01574
C 31.88618 21.34461 -0.02383
C 31.96735 19.93747 -0.01429
C 33.14161 19.17983 -0.0136
C 33.1324 17.75908 0.00594
C 31.94286 17.05743 -0.02474
C 31.8538 15.64158 0.00369
C 33.11308 14.95084 0.00455
C 33.20906 13.5346 -0.00644
C 31.92042 12.79433 -0.01839
C 31.96938 11.37463 0.00137
C 33.20255 10.69594 0.00199
C 33.22358 9.32639 0.04381
C 32.02209 8.56665 0.02806
C 32.00139 7.15726 0.01504
C 33.06588 23.46921 0.01927
C 33.23448 6.42675 -0.00069
C 31.85161 24.23173 0.03794
C 33.16771 26.25834 0.00682
C 29.50982 8.48228 -0.00971
C 29.51232 7.06368 0.01518
C 30.78218 6.44492 0.01908
C 30.74245 5.02241 0.07705
C 29.4916 4.27785 0.0103
C 29.47823 2.86966 0.02108
C 30.70543 2.11255 0.00716
C 30.65907 0.71181 0.00307
C 29.42348 34.06926 0.00346
C 31.8842 32.68963 0.01713
C 33.20746 32.02391 -0.01694
C 33.21298 30.57472 0.01428
C 31.94445 29.88473 -0.02142
C 31.95239 28.45767 0.0544
C 33.14311 27.70925 0.00026
C 31.8923 25.64275 -0.01779
C 30.75125 9.31458 -0.03735
C 33.1238 5.02612 0.04926
C 31.89919 2.89132 0.00349
C 34.36722 15.71059 0.02114
C 1.22868 14.959 -0.02957
C 1.28127 13.54948 0.00343
C 0.03281 12.79632 -0.02656
C 0.02242 11.44633 -0.02442
C 1.26141 10.70064 -0.00027
C 1.24343 9.23971 -0.00583
C 34.43207 8.58184 -0.02302
C 0.02202 7.15824 -0.02849
C 1.18529 6.43233 0.02931
C 1.19243 5.04333 0.00628
C 34.38639 4.33178 -0.0345
C 34.34852 2.90583 -0.00931
C 1.13885 2.15795 -0.00939
C 1.22027 0.70644 -0.00468
C 0.00777 17.08484 0.00648
C 31.92376 4.26919 -0.03838
C 1.22948 17.82116 0.01223
C 34.36022 19.94899 0.01951
C 33.14154 2.15474 -0.00323
C 33.14416 0.71874 -0.00841
C 31.88831 0.04459 0.0001
C 34.412 32.69934 -0.02927
C 1.20025 32.00233 -0.01404
C 1.22854 30.53539 0.01027
C 34.42534 29.84401 0.01831
C 34.36722 28.42553 -0.01037
C 1.16752 27.68423 -0.00439
C 1.1376 26.27909 -0.00598
C 34.36249 25.62037 -0.05239
C 34.34401 24.15894 0.03076
C 1.15141 23.45217 0.00723
C 1.18284 22.05418 0.02712
C 34.33724 21.39121 -0.02213
C 1.19001 19.26712 -0.01678
C 23.37829 10.4312 -0.01971
C 30.77277 10.65214 -0.00944
C 29.4909 12.73272 -0.01461
C 25.7916 6.38884 -0.01154
C 25.76904 4.9668 0.00684
C 24.61983 4.15176 -0.01052
C 24.61141 2.81237 -0.01679
C 25.72943 2.10083 0.00367
C 25.79591 0.70694 0.04306
C 24.46711 34.0746 0.00996
C 26.98734 32.65621 0.00195
C 28.20672 31.94165 -0.00802
C 28.20041 30.5533 -0.00218
C 26.93704 29.77079 -0.01654
C 26.90694 28.38198 -0.00037
C 28.17269 27.74564 -0.0032
C 28.25101 26.33004 0.00622
C 27.04103 25.60313 -0.02815
C 24.45387 7.2692 -0.0264
C 28.38542 23.41474 -0.00942
C 24.49835 8.79484 -0.00938
C 25.81461 10.63298 -0.01199
C 23.45208 4.98057 0.00733
C 22.15333 2.79299 -0.00178
C 23.34243 2.153 0.00768
C 23.23012 0.75427 -0.0276
C 21.96348 0.07273 0.03005
C 24.49652 32.59764 -0.04078
C 25.70201 31.90305 0.02117
C 25.71346 30.45057 0.02737
C 24.50462 29.67492 -0.00498
C 24.39564 28.21987 0.00135
C 25.71214 27.72578 0.03102
C 25.99816 26.39348 0.02555
C 25.90511 13.54335 0.01423
C 24.79631 12.72308 -0.00285
C 24.44737 11.3927 -0.009
C 25.78632 9.26031 -0.00229
C 29.48107 11.3377 -0.02155
C 28.40446 22.19465 0.00487
C 26.95293 15.48159 -0.00294
C 29.42391 28.44288 0.00924
C 30.67563 27.8055 0.02326
C 30.6552 26.39509 0.00261
C 29.44837 25.69732 0.03265
C 29.49922 24.26242 -0.02049
C 30.61898 23.47156 -0.01854
C 30.57002 21.96324 -0.01415
C 29.37037 21.10614 -0.03039
C 29.43774 19.66184 0.01836
C 30.75028 19.21687 0.03531
C 30.78512 17.77577 -0.00669
C 29.48391 17.1229 0.0101
C 29.43894 15.66064 0.01705
C 30.68048 14.96385 -0.0405
C 30.68401 13.51974 -0.01303
C 29.43398 29.85063 0.0014
C 28.36493 18.04756 0.00826
C 30.69674 30.54273 0.01324
C 29.39447 32.67819 0.01177
C 28.25967 14.86658 0.00152
C 28.33875 13.49838 0.01257
C 27.08469 12.80247 0.02316
C 26.98957 11.39484 0.04185
C 28.22959 10.62868 0.00194
C 28.23873 9.192 -0.00621
C 27.06475 8.49064 0.02611
C 26.98433 7.06582 0.02198
C 28.27223 6.41723 0.01094
C 28.2967 5.01036 0.00235
C 27.03195 4.23192 0.01495
C 26.98951 2.82224 0.01259
C 28.21945 2.092 0.01799
C 28.19234 0.70079 0.01699
C 27.00629 34.06557 -0.00416
C 30.70772 31.95223 0.04266
C 2.41581 32.64471 0.01291
