419
Graphene
C 34.3481 34.05035 0.01295
C 13.4062 27.82944 0.00943
C 13.4959 26.35292 0.02841
C 12.24172 25.59296 -0.01111
C 12.15793 24.1845 -0.01275
C 13.32849 23.41025 0.00985
C 13.44957 22.0599 -0.02245
C 12.2785 21.34815 -0.00428
C 12.32642 19.89782 0.03101
C 13.54709 19.26596 -0.01536
C 13.54669 17.77104 -0.02689
C 12.20831 28.51655 0.00406
C 12.26786 17.1321 -0.01046
C 13.49098 14.84287 0.02819
C 13.52838 13.44027 0.00165
C 12.34391 12.68064 -0.02971
C 12.29712 11.3367 0.02894
C 13.5576 10.61529 -0.01789
C 13.58366 9.22484 0.00444
C 12.30265 8.59244 -0.00925
C 12.29727 7.11805 0.01877
C 13.50445 6.31439 0.01363
C 13.54159 4.97041 -0.02162
C 12.31809 15.63349 -0.00891
C 12.34774 4.20037 0.00415
C 12.25649 29.96248 0.03592
C 13.4616 32.04336 0.0402
C 9.84158 21.36903 -0.01004
C 9.84303 19.92459 -0.02896
C 11.0738 19.18189 -0.00131
C 11.06551 17.78999 -0.01118
C 9.85586 17.06473 -0.014
C 9.90648 15.52628 0.02147
C 11.16675 14.89456 0.00373
C 11.10591 13.42451 -0.00191
C 9.84551 12.88079 0.00438
C 9.77707 11.39346 0.01291
C 13.54187 30.63068 0.00572
C 10.96093 10.68948 0.00093
C 9.79549 8.52871 -0.01634
C 9.82689 7.03225 -0.00334
C 11.02254 6.39802 0.02339
C 11.07079 4.97245 0.01641
C 9.76043 4.30575 -0.00719
C 9.75552 2.86937 0.01364
C 10.96887 2.18562 -0.01062
C 11.04534 0.80093 -0.00033
C 9.8507 0.04289 0.03589
C 12.27805 32.75749 -0.02759
C 11.06533 9.25263 0.00057
C 12.16551 2.84543 -0.0014
C 13.49004 2.12359 0.02162
C 13.58759 0.75176 0.0076
C 16.11396 4.91343 0.01848
C 14.85362 4.25903 -0.00619
C 14.79656 2.87719 -0.02162
C 16.02438 2.12172 0.00889
C 15.99904 0.72627 -0.00481
C 14.74165 34.04353 0.00979
C 17.27052 32.66923 0.01443
C 18.48111 31.98394 0.03505
C 18.48123 30.56294 -0.02815
C 17.20725 29.83617 -0.04147
C 16.04836 6.37259 0.02098
C 17.15215 28.38372 -0.05302
C 18.33188 26.25714 -0.00066
C 17.06605 25.55868 -0.00289
C 17.01651 24.09757 0.00028
C 18.26742 23.43681 -0.02213
C 17.06031 21.43939 0.03698
C 17.05673 19.97469 -0.00109
C 17.28136 17.13362 -0.00491
C 17.17061 15.69693 0.03338
C 18.38189 14.97053 -0.0258
C 18.35421 13.48651 -0.0331
C 18.36169 27.6832 0.00213
C 14.76625 7.06218 -0.03113
C 14.69943 8.51884 0.0351
C 15.96933 9.22992 0.00422
C 12.33567 0.12263 0.01241
C 14.69292 32.66209 -0.01454
C 16.02443 32.04517 0.01945
C 15.98232 30.57959 0.01416
C 14.76011 29.85366 0.03542
C 14.67674 28.51601 0.02299
C 15.90483 27.70331 0.00244
C 15.8186 26.29452 -0.01717
C 14.57767 25.61612 0.05265
C 14.55218 24.22337 -0.01952
C 15.74083 23.5222 -0.02813
C 15.97088 22.14609 0.00374
C 14.73957 21.40672 0.00052
C 14.77169 19.90807 -0.03682
C 16.00671 19.21924 0.01965
C 15.96758 17.74819 0.02058
C 14.72879 16.9901 -0.01957
C 14.69053 15.5956 -0.0108
C 15.97543 14.88694 -0.00368
C 15.98626 13.50373 -0.02696
C 14.77024 12.76246 -0.00114
C 14.74038 11.40756 0.00228
C 15.98332 10.65292 0.00798
C 11.08807 22.09939 0.00488
C 17.20688 12.74215 -0.00316
C 10.98334 23.45715 0.01745
C 9.82756 25.59224 -0.01384
C 2.40086 2.88448 0.00208
C 3.59934 2.17598 0.01707
C 3.55082 0.7964 0.02769
C 2.36912 0.01411 -0.03291
C 4.89571 32.76386 -0.04999
C 6.05137 32.01185 0.04505
C 6.13145 30.55598 0.03284
C 4.88064 29.82428 -0.04307
C 4.89743 28.42893 0.03189
C 6.0934 27.82845 0.00031
C 2.38157 4.23129 -0.00561
C 6.1706 26.29376 -0.003
C 4.83848 24.16462 0.02379
C 6.09854 23.47117 0.00907
C 6.14127 22.10336 0.00643
C 4.90102 21.28796 -0.01509
C 4.86477 19.92813 0.03267
C 6.12361 19.21652 0.02374
C 6.18194 17.78263 0.00402
C 4.90889 17.06875 0.0073
C 4.96999 15.68825 0.0174
C 6.07552 14.96556 0.03828
C 4.98205 25.62649 0.01402
C 6.19296 13.47057 0.01226
C 3.63303 4.99167 -0.01977
C 2.49479 7.11386 -0.01979
C 3.62579 30.5045 0.00662
C 2.4719 29.82063 -0.0154
C 2.40661 28.3613 -0.01299
C 3.65191 27.69821 -0.00407
C 3.71224 26.34407 0.01138
C 2.4837 25.5649 0.03278
C 2.42743 24.13373 -0.00177
C 3.68148 23.4552 0.04421
C 3.6238 22.01059 0.00088
C 2.45884 21.30811 0.00828
C 3.66973 6.37987 0.02784
C 2.33672 19.81291 -0.02375
C 3.70648 17.72382 -0.0059
C 2.35567 17.03836 -0.01386
C 2.34938 15.65373 -0.02805
C 3.64527 14.9093 0.00081
C 3.68216 13.57407 0.00245
C 2.47381 12.78679 0.02728
C 2.50308 11.39795 -0.00039
C 3.69418 10.77036 0.0064
C 3.56289 9.26778 0.00211
C 2.34642 8.49595 -0.00449
C 3.61567 19.16858 0.00558
C 4.90047 12.91553 -0.00279
C 4.91872 11.39693 0.01996
C 6.14151 10.71329 -0.03996
C 8.53508 14.92416 -0.01378
C 8.58369 13.50873 0.02635
C 7.36218 12.78589 0.0127
C 7.3868 11.35034 0.01396
C 8.61406 10.65998 0.01849
C 8.58569 9.24515 -0.01142
C 7.33237 8.58629 -0.00562
C 7.31347 7.14124 -0.00494
C 8.57089 6.43412 0.00054
C 8.56596 5.04171 0.03007
C 7.33492 15.60402 -0.01303
C 7.3397 4.38019 -0.00095
C 8.59988 2.19136 -0.04848
C 8.59445 0.79737 -0.00892
C 7.29024 0.11394 -0.01362
C 9.8195 32.73397 -0.0008
C 11.01925 32.08933 0.0288
C 11.01091 30.65134 0.00393
C 9.83387 29.89213 0.00895
C 9.76298 28.49387 0.00685
C 11.02255 27.77773 0.02888
C 11.05141 26.32492 -0.00482
C 7.29885 2.90343 0.01572
C 7.29348 17.11159 0.00848
C 8.57784 17.73617 -0.00049
C 8.60111 19.21468 0.00873
C 6.10516 9.25799 0.01465
C 4.82149 8.59849 -0.00074
C 4.77714 7.11976 -0.00518
C 6.02526 6.52238 0.0086
C 5.95516 5.10184 -0.00643
C 4.77611 4.32859 0.017
C 4.8368 2.95789 -0.03113
C 6.02831 2.13249 -0.02566
C 6.1057 0.78638 -0.00094
C 4.80482 0.11069 0.02322
C 7.35687 32.83169 -0.00725
C 8.538 32.00712 -0.05697
C 8.58645 30.64658 0.01087
C 7.39608 29.90341 -0.01343
C 7.37079 28.51357 0.00988
C 8.54236 27.81599 0.0276
C 8.6139 26.36512 0.01305
C 7.4057 25.59433 -0.00077
C 7.33084 24.16494 0.03368
C 8.5613 23.5101 -0.02929
C 8.64316 22.05689 -0.00966
C 7.32581 21.40886 -0.03337
C 7.36965 19.99928 0.01227
C 9.76475 24.24722 0.03693
C 3.69112 31.99 0.00748
C 17.23195 11.32708 0.02188
C 18.47031 9.22777 0.02691
C 29.56143 11.29242 -0.02155
C 30.76559 10.64759 -0.00944
C 30.76182 9.18823 -0.03735
C 29.4146 8.447 -0.00971
C 29.47513 7.09141 0.01518
C 30.69857 6.31926 0.01908
C 30.6796 4.88459 0.07705
C 29.48522 4.1813 0.0103
C 29.5152 2.81206 0.02108
C 30.81237 2.01913 0.00716
C 29.4209 12.70378 -0.01461
C 30.70495 0.65543 0.00307
C 31.98296 32.57581 0.01713
C 33.15039 31.9206 -0.01694
C 33.2048 30.48671 0.01428
C 31.98759 29.77753 -0.02142
C 31.94436 28.40866 0.0544
C 33.13442 27.62811 0.00026
C 33.1717 26.21539 0.00682
C 31.89708 25.50804 -0.01779
C 31.86354 24.03686 0.03794
C 33.09701 23.34162 0.01927
C 29.44239 0.00199 0.00346
C 33.08581 21.99063 0.01574
C 30.65735 13.51021 -0.01303
C 29.47905 15.61149 0.01705
C 28.25621 5.00792 0.00235
C 27.05405 4.18758 0.01495
C 27.05381 2.83348 0.01259
C 28.23257 2.06556 0.01799
C 28.27146 0.68927 0.01699
C 27.03385 0.02469 -0.00416
C 29.51767 32.67057 0.01177
C 30.72604 31.9176 0.04266
C 30.69581 30.48791 0.01324
C 29.56158 29.75014 0.0014
C 30.67643 14.9507 -0.0405
C 29.51362 28.34706 0.00924
C 30.68849 26.21571 0.00261
C 29.465 25.49897 0.03265
C 29.32175 24.06846 -0.02049
C 30.62751 23.39877 -0.01854
C 30.61666 22.03444 -0.01415
C 29.34166 21.30153 -0.03039
C 29.3881 19.85972 0.01836
C 30.66875 19.14174 0.03531
C 30.6414 17.64817 -0.00669
C 29.4164 17.02478 0.0101
C 30.73632 27.68293 0.02326
C 31.84955 21.25007 -0.02383
C 31.91025 19.81904 -0.01429
C 33.18154 19.11445 -0.0136
C 1.16344 23.39743 0.00723
C 1.23959 21.90651 0.02712
C 34.33315 21.30369 -0.02213
C 34.35312 19.92255 0.01951
C 1.16165 19.13138 -0.01678
C 1.16221 17.69773 0.01223
C 34.3876 17.00136 0.00648
C 34.40836 15.52809 0.02114
C 1.2408 14.84028 -0.02957
C 1.26319 13.4781 0.00343
C 34.33467 24.06156 0.03076
C 34.4055 12.82715 -0.02656
C 1.211 10.62538 -0.00027
C 1.13928 9.24336 -0.00583
C 34.3459 8.5109 -0.02302
C 34.32743 7.07567 -0.02849
C 1.22469 6.37154 0.02931
C 1.17034 4.99087 0.00628
C 34.35958 4.21546 -0.0345
C 34.38269 2.8079 -0.00931
C 1.1527 2.14667 -0.00939
C 1.12313 0.76064 -0.00468
C 34.42818 11.37582 -0.02442
C 34.4197 25.51963 -0.05239
C 1.17332 26.26073 -0.00598
C 1.21331 27.71887 -0.00439
C 33.18398 17.6436 0.00594
C 31.89333 17.00964 -0.02474
C 31.91447 15.64031 0.00369
C 33.11637 14.90068 0.00455
C 33.14719 13.50615 -0.00644
C 31.90278 12.77734 -0.01839
C 31.93681 11.36604 0.00137
C 33.17112 10.5878 0.00199
C 33.1125 9.18723 0.04381
C 31.90885 8.44369 0.02806
C 31.92438 6.98264 0.01504
C 33.19792 6.30816 -0.00069
C 33.20145 4.93526 0.04926
C 31.91949 4.28251 -0.03838
C 31.95989 2.82583 0.00349
C 33.08504 2.1054 -0.00323
C 33.07074 0.68891 -0.00841
C 31.96505 33.96967 0.0001
C 34.38998 32.65437 -0.02927
C 1.17122 31.95762 -0.01404
C 1.24121 30.52728 0.01027
C 34.3902 29.84225 0.01831
C 34.37437 28.39907 -0.01037
C 28.18711 6.46231 0.01094
C 18.48098 10.63307 -0.01979
C 27.019 7.22453 0.02198
C 28.21659 9.27585 -0.00621
C 19.67045 7.16415 0.0106
C 20.93501 6.51104 -0.01154
C 20.94597 5.01926 -0.01721
C 19.76401 4.28005 -0.02422
C 19.71254 2.85808 0.01277
C 20.98221 2.11212 0.00096
C 20.95661 0.67895 -0.01527
C 19.67818 34.02281 0.01087
C 22.20094 32.64291 0.00199
C 23.36934 31.85001 0.01511
C 19.66946 8.62607 -0.01594
C 23.29422 30.40618 -0.00478
C 22.06547 28.24396 -0.01185
C 23.34533 27.65156 0.01126
C 23.39709 25.98267 0.01852
C 22.15896 25.4615 -0.00381
C 23.35777 14.91846 0.03046
C 23.34896 13.57052 0.0296
C 22.12804 12.86984 0.03374
C 22.05538 11.3763 -0.02845
C 23.31791 10.65686 -0.03213
C 23.3191 9.22984 0.02239
C 22.11876 29.6727 -0.01662
C 22.10684 8.5379 0.01153
C 20.89981 9.35533 0.00742
C 19.62632 11.33376 0.00675
C 17.18762 8.44709 -0.01581
C 17.22213 7.07726 0.01452
C 18.49769 6.41804 0.04892
C 18.49224 4.9148 -0.00111
C 17.32387 4.27176 -0.03557
C 17.19567 2.80855 0.03754
C 18.51245 2.08857 0.01739
C 18.52515 0.73722 0.00755
C 17.26204 0.03111 -0.0054
C 19.73919 32.62358 0.00667
C 20.91851 10.65 -0.00311
C 20.91331 31.91895 0.00143
C 19.62806 29.75965 0.00364
C 19.53459 28.3908 -0.00831
C 20.84792 27.66419 -0.02957
C 20.88686 26.18563 -0.04422
C 19.58476 25.48044 0.00654
C 19.40938 24.1224 -0.00703
C 19.58751 15.63448 -0.04076
C 20.82107 15.03146 -0.00652
C 20.85421 13.59632 0.0058
C 19.63721 12.82895 -0.00865
C 20.8702 30.49066 -0.017
C 22.19039 7.20511 0.02734
C 23.38526 6.46901 -0.0055
C 23.40018 4.97623 0.01515
C 25.74896 0.67054 -0.01052
C 24.54945 34.04916 -0.01679
C 26.98052 32.6632 0.00367
C 28.24498 31.98922 0.04306
C 28.26575 30.47555 0.00996
C 27.00303 29.87367 0.00195
C 27.01666 28.42642 -0.00802
C 28.31347 27.64429 -0.00218
C 28.26625 26.24793 -0.01654
C 27.0592 25.56966 -0.00037
C 25.83411 2.1614 0.00684
C 26.91319 24.10581 -0.0032
C 28.1618 21.92997 -0.02815
C 28.24907 19.13567 -0.00942
C 28.15794 17.79615 0.00487
C 27.01026 17.00128 0.00826
C 27.04104 15.57546 -0.00294
C 28.29707 14.82874 0.00152
C 28.213 13.4101 0.01257
C 26.96616 12.69897 0.02316
C 26.97007 11.31742 0.04185
C 28.29126 10.66404 0.00194
C 28.13526 23.34789 0.00622
C 24.60708 2.82878 -0.01154
C 24.59842 4.22521 -0.0264
C 25.89239 5.01835 -0.00938
C 22.21549 4.30101 -0.00225
C 22.1471 2.89005 0.00071
C 23.40709 2.11131 -0.01107
C 23.35311 0.72322 -0.01586
C 22.15719 34.00125 -0.01971
C 24.63661 32.5652 -0.02118
C 25.79826 31.88425 0.00733
C 25.75986 30.56607 -0.00178
C 24.4915 29.79047 0.00768
C 24.56439 28.39876 -0.0276
C 25.80758 27.60297 0.03005
C 25.80868 26.24916 -0.04078
C 24.71793 25.48559 0.02117
C 24.60207 15.49229 0.02737
C 25.78692 14.88535 -0.00498
C 25.80129 13.44852 0.00135
C 24.55437 12.82563 0.03102
C 24.49408 11.39154 0.02555
C 25.76343 10.73329 0.01423
C 25.74536 9.26368 -0.00285
C 24.56467 8.55231 -0.009
C 24.59874 7.18577 -0.01199
C 25.85465 6.40536 -0.00229
C 26.94032 8.61336 0.02611
C 2.44164 32.68716 0.03345
