343
Graphene
C 34.41482 0.11125 0.01295
C 11.05094 4.94156 0.01848
C 9.79337 4.32721 -0.00619
C 9.79605 2.93514 -0.02162
C 11.0423 2.21763 0.00889
C 11.03223 0.79467 -0.00481
C 9.86729 0.00221 0.00979
C 12.26769 32.79872 0.01443
C 13.35833 32.00675 0.03505
C 13.04545 30.58986 -0.02815
C 12.50214 12.6932 -0.04147
C 12.27063 11.2683 -0.05302
C 13.38978 10.56665 0.00213
C 13.50517 9.23285 -0.00066
C 12.29523 8.46927 -0.00289
C 12.36728 7.07291 0.00028
C 13.53795 6.29985 -0.02213
C 13.53965 4.95109 0.03698
C 11.03058 6.4063 0.02098
C 9.84241 7.13441 -0.03113
C 9.82372 8.5262 0.0351
C 11.0742 9.26632 0.00422
C 8.62805 5.0074 0.02299
C 7.4081 4.28658 0.00244
C 7.39981 2.80766 -0.01717
C 8.66724 2.14557 0.05265
C 8.58786 0.69223 -0.01952
C 7.34466 34.03237 -0.02813
C 9.92832 32.66568 0.00374
C 11.07005 31.98429 0.00052
C 12.30006 4.23323 -0.00109
C 11.57657 30.68514 -0.03682
C 9.7889 20.03862 0.02058
C 9.86738 17.05183 -0.01957
C 10.10047 15.66119 -0.0108
C 11.19416 14.98194 -0.00368
C 11.38138 13.5719 -0.02696
C 9.98529 12.75168 -0.00114
C 9.89889 11.39891 0.00228
C 11.09184 10.61817 0.00798
C 9.729 21.1781 0.01965
C 8.57591 6.48463 0.03542
C 12.31137 2.83605 -0.00491
C 13.48571 0.75582 -0.0258
C 16.8877 29.68353 -0.00703
C 16.94413 28.10205 -0.04076
C 18.40583 27.68021 -0.00652
C 17.11137 11.32531 0.0058
C 18.39594 10.86899 -0.00865
C 18.40386 9.30073 0.00675
C 17.17325 8.58718 -0.00311
C 17.27392 7.15267 0.00742
C 18.47051 6.42661 -0.01594
C 18.40357 5.00869 0.0106
C 17.19549 4.25035 -0.01154
C 17.12302 2.76271 -0.01721
C 18.39218 2.06036 -0.02422
C 18.37315 0.59588 0.01277
C 17.10895 33.85578 0.00096
C 19.56872 32.63149 -0.01527
C 20.84555 31.93338 0.01087
C 18.3212 30.41984 0.00654
C 18.36479 31.82386 -0.04422
C 17.04839 32.44526 -0.02957
C 14.65568 34.04303 -0.00831
C 12.28908 0.13258 -0.0331
C 14.58666 32.58381 -0.00316
C 15.80904 31.81143 0.02188
C 15.69724 30.35482 -0.01979
C 14.17835 29.73082 0.02691
C 14.50915 28.31915 -0.01581
C 15.5779 27.8754 0.01452
C 14.51355 11.34107 0.04892
C 13.48402 2.11118 0.03338
C 15.84292 10.81384 -0.00111
C 14.83178 8.53328 0.03754
C 14.77788 7.0467 0.01739
C 16.07282 6.40397 0.00755
C 16.04397 4.95814 -0.0054
C 14.79386 4.22018 0.00667
C 14.73092 2.73319 0.00143
C 15.94192 2.05398 -0.017
C 15.97783 0.62933 0.00364
C 15.94914 9.35209 -0.03557
C 20.80945 30.49813 0.00199
C 7.40221 7.15359 0.01416
C 8.56587 9.28573 -0.01454
C 2.3992 7.20626 0.00685
C 3.64656 6.50754 0.02888
C 3.70127 5.0716 -0.00482
C 2.34324 4.45793 -0.01384
C 2.49111 3.04968 0.03693
C 3.62189 2.24577 0.01745
C 3.59315 0.82487 0.00488
C 2.26155 0.07067 -0.01004
C 4.96401 32.62255 -0.02896
C 6.19743 31.86107 -0.00131
C 6.17755 30.47554 -0.01118
C 4.92123 29.91528 -0.014
C 4.80658 28.53133 0.02147
C 6.03001 27.8214 0.00373
C 5.94891 26.43959 -0.00191
C 4.80839 25.59083 0.00438
C 4.87195 24.15336 0.01291
C 2.44128 8.59149 0.00895
C 3.76349 9.27523 0.00393
C 3.7582 10.68221 0.0288
C 2.45637 11.37092 -0.0008
C 3.6538 30.63975 -0.00049
C 2.44333 29.81945 0.00848
C 2.35864 28.42642 -0.01303
C 3.57494 27.76714 -0.01378
C 3.4902 26.31763 0.02635
C 2.32978 25.60505 0.0127
C 2.44386 24.14633 0.01396
C 3.65973 23.48557 0.01849
C 6.2153 23.56297 0.00093
C 3.68953 22.09336 -0.01142
C 2.40827 19.9013 -0.00494
C 3.62366 19.23699 0.00054
C 3.70118 17.75519 0.03007
C 2.43459 16.98164 -0.00095
C 2.48185 15.54039 0.01572
C 3.77419 14.83812 -0.04848
C 3.80032 13.49148 -0.00892
C 2.54568 12.71982 -0.01362
C 2.42336 21.27744 -0.00562
C 7.39568 8.54021 0.01945
C 6.23941 22.15536 0.00057
C 4.89367 19.95498 -0.00334
C 7.49793 29.65088 -0.01046
C 7.34891 28.30042 -0.00891
C 7.22204 25.81035 0.02819
C 7.43465 24.43632 0.00165
C 8.48335 23.5778 -0.02971
C 8.8181 22.17328 0.02894
C 7.40694 21.38028 -0.01789
C 7.30683 19.99387 0.00444
C 8.62636 19.23572 -0.00925
C 8.71247 17.80377 0.01877
C 7.42478 17.07422 0.01363
C 7.46997 15.60997 -0.02162
C 8.75574 14.94061 0.00415
C 8.77842 13.48834 -0.0014
C 7.51633 12.77381 0.02162
C 7.36036 11.38511 0.0076
C 8.53584 10.70734 0.01241
C 8.56848 30.48069 -0.02689
C 8.66779 31.97446 -0.01536
C 7.39901 32.63955 0.03101
C 4.84192 34.05019 -0.00428
C 6.13389 19.21579 0.02339
C 6.15201 17.76379 0.01641
C 4.99004 17.03776 -0.00719
C 4.93729 15.63555 0.01364
C 6.20045 14.93778 -0.01062
C 6.24838 13.48456 -0.00033
C 5.02082 12.76625 0.03589
C 4.93778 11.4009 -0.02759
C 4.92264 21.3908 -0.01634
C 6.17951 10.70668 0.0402
C 4.99085 8.55022 0.03592
C 4.88635 7.14573 0.00406
C 6.15401 6.45779 0.00943
C 6.11145 4.98874 0.02841
C 4.88974 4.31288 -0.01111
C 4.88145 2.9257 -0.01275
C 6.12744 2.17766 0.00985
C 6.05647 0.74837 -0.02245
C 6.19699 9.29089 0.00572
C 3.71295 32.02692 0.00873
C 19.62421 29.76683 0.01511
C 20.91691 27.69178 -0.01662
C 30.592 0.78496 -0.02142
C 29.43972 0.13937 0.0544
C 31.85513 32.70022 0.00026
C 33.12228 32.06837 0.00682
C 33.13375 30.5826 -0.01779
C 31.86242 29.86479 0.03794
C 31.86682 28.3593 0.01927
C 33.05189 27.68416 0.01574
C 33.09535 26.31892 -0.02383
C 31.87087 25.54965 -0.01429
C 31.8466 24.12321 -0.0136
C 33.05336 23.50147 0.00594
C 33.09718 22.0889 -0.02474
C 31.92329 21.24392 0.00369
C 31.87285 19.78284 0.00455
C 33.14459 19.03828 -0.00644
C 33.1122 17.6814 -0.01839
C 30.63818 2.20956 0.01428
C 29.4847 3.06973 -0.01694
C 29.52068 4.54425 0.01713
C 30.80182 5.10158 0.00346
C 30.61294 30.58746 0.03531
C 29.41824 29.78694 -0.00669
C 29.39021 28.3911 0.0101
C 30.62453 27.66666 0.01705
C 30.66719 26.27677 -0.0405
C 29.39757 25.57649 -0.01303
C 29.35663 24.13341 -0.01461
C 30.63893 23.43882 -0.02155
C 31.92538 16.985 0.00137
C 30.62386 21.98995 -0.00944
C 29.51345 19.867 -0.00971
C 30.65211 19.07973 0.01518
C 30.69637 17.75487 0.01908
C 29.51528 16.99825 0.07705
C 29.55833 15.55537 0.0103
C 30.76384 14.83972 0.02108
C 30.80692 13.29373 0.00716
C 29.50953 12.75448 0.00307
C 29.37939 21.34377 -0.03735
C 30.63088 32.01062 0.01836
C 31.90664 15.55077 0.00199
C 33.23579 13.49485 0.02806
C 1.12467 17.73779 0.01223
C 34.34238 17.00081 0.00648
C 34.37962 15.59561 0.02114
C 1.25814 14.88242 -0.02957
C 1.33166 13.49411 0.00343
C 0.08031 12.76685 -0.02656
C 0.07115 11.46356 -0.02442
C 1.26863 10.73088 -0.00027
C 1.22497 9.27636 -0.00583
C 0.01995 8.55883 -0.02302
C 34.19854 7.25858 -0.02849
C 1.11905 6.56271 0.02931
C 1.09815 5.09443 0.00628
C 34.37438 4.31105 -0.0345
C 34.37118 2.95754 -0.00931
C 1.23812 2.32643 -0.00939
C 1.21633 0.84265 -0.00468
C 1.19072 19.24667 -0.01678
C 34.32291 19.8158 0.01951
C 34.36592 21.27654 -0.02213
C 1.20963 22.10113 0.02712
C 32.03664 12.66591 0.01504
C 33.03546 6.45882 -0.00069
C 33.15449 5.01902 0.04926
C 31.92444 4.28231 -0.03838
C 31.92056 2.85187 0.00349
C 33.12112 2.16887 -0.00323
C 33.11273 0.73353 -0.00841
C 31.81297 0.08929 0.0001
C 33.14847 14.85869 0.04381
C 34.4159 32.76511 -0.02927
C 1.25895 30.595 0.01027
C 34.36753 29.83806 0.01831
C 34.28554 28.49358 -0.01037
C 1.09861 27.66232 -0.00439
C 1.14768 26.30898 -0.00598
C 34.29944 25.65121 -0.05239
C 34.32508 24.21813 0.03076
C 1.16902 23.53901 0.00723
C 1.22134 32.08049 -0.01404
C 19.64223 28.23506 -0.00478
C 29.44584 32.78323 -0.03039
C 28.22422 0.92133 -0.01854
C 23.35416 10.59433 0.00768
C 23.34409 9.17804 -0.0276
C 22.09066 8.4672 0.03005
C 22.0775 7.04615 -0.04078
C 23.41164 6.3626 0.02117
C 23.39032 4.98165 0.02737
C 22.15191 4.25713 -0.00498
C 22.04635 2.87987 0.00135
C 23.26523 2.11581 0.03102
C 23.27815 0.66639 0.02555
C 22.01728 0.01004 0.01423
C 24.58372 32.61226 -0.00285
C 25.79716 31.96778 -0.009
C 25.806 30.53697 -0.01199
C 24.47964 29.85858 -0.00229
C 24.43633 28.38607 -0.00938
C 25.6306 27.71809 -0.0264
C 22.11973 11.33617 -0.00178
C 22.27414 12.72273 0.00733
C 23.34506 13.15147 -0.02118
C 23.44984 26.21568 -0.01971
C 19.75848 11.39346 -0.01185
C 20.9638 10.6996 0.01126
C 20.92569 9.21919 0.01852
C 19.6359 8.56535 -0.00381
C 19.62663 7.19528 0.03046
C 20.8641 6.44965 0.0296
C 20.90795 5.0234 0.03374
C 19.67191 4.29986 -0.02845
C 25.75755 26.27092 -0.01154
C 19.6453 2.78595 -0.03213
C 20.84756 0.72031 0.01153
C 19.58594 34.05366 0.02734
C 22.03274 32.67489 -0.0055
C 23.28437 32.00949 0.01515
C 23.24628 30.57567 -0.00225
C 22.0211 29.80672 0.00071
C 22.11346 28.3339 -0.01107
C 23.28915 27.59351 -0.01586
C 20.86855 2.21817 0.02239
C 27.04952 0.06062 -0.01415
C 24.45232 25.578 0.00684
C 25.87877 14.83922 -0.01679
C 26.96574 24.11849 0.02198
C 28.18228 23.39885 0.01094
C 28.13743 22.00316 0.00235
C 26.86388 21.31805 0.01495
C 27.14166 20.05288 0.01259
C 28.33444 19.18535 0.01799
C 28.29866 17.70214 0.01699
C 26.9772 17.08377 -0.00416
C 27.09231 15.62582 0.01177
C 28.35263 14.85957 0.04266
C 28.35675 13.4701 0.01324
C 27.13555 12.7312 0.0014
C 26.87697 11.4331 0.00924
C 28.27253 5.15014 0.02326
C 27.04082 4.3692 0.00261
C 26.95787 3.01292 0.03265
C 28.20767 2.34412 -0.02049
C 26.94677 25.57654 0.02611
C 28.19319 26.26992 -0.00621
C 28.21644 27.69911 0.00194
C 26.96298 28.40995 0.04185
C 25.78974 13.46812 0.00367
C 24.63667 12.69303 0.04306
C 24.61093 11.23243 0.00996
C 25.87292 10.60444 0.00195
C 25.7464 9.18017 -0.00802
C 24.56506 8.4638 -0.00218
C 24.59495 7.1051 -0.01654
C 25.86061 6.46552 -0.00037
C 25.87163 23.11361 -0.01052
C 25.75001 5.05754 -0.0032
C 24.55111 2.78375 -0.02815
C 25.80498 2.21222 -0.00942
C 25.80321 0.74372 0.00487
C 24.52404 34.03815 0.00826
C 27.03032 32.68725 -0.00294
C 28.2738 31.93676 0.00152
C 28.23061 30.55063 0.01257
C 27.02047 29.8648 0.02316
C 24.55309 4.20204 0.00622
C 2.40827 32.70679 0.01227
