400
Graphene
C 34.42808 0.02228 0.01295
C 9.74453 0.07341 0.00165
C 12.21916 32.63146 -0.02971
C 13.4699 31.95356 0.02894
C 13.61713 30.53551 -0.01789
C 12.34022 29.82306 0.00444
C 12.37226 28.45467 -0.00925
C 13.33868 27.55581 0.01877
C 13.29653 26.24406 0.01363
C 12.29537 25.48684 -0.02162
C 12.38109 23.9999 0.00415
C 13.61228 23.41129 -0.0014
C 13.72067 22.07981 0.02162
C 12.36947 21.33686 0.0076
C 12.24322 19.94935 0.01241
C 13.49691 19.05343 -0.01454
C 13.45901 17.70745 0.01945
C 12.26284 17.00574 0.01416
C 12.39165 15.54791 0.03542
C 13.50731 14.8666 0.02299
C 13.56092 13.42086 0.00244
C 12.276 12.73237 -0.01717
C 10.98804 0.86957 0.02819
C 12.26154 11.32157 0.05265
C 11.03398 2.21079 -0.00891
C 9.86826 4.41133 -0.02689
C 11.09752 26.26537 0.02339
C 9.82104 25.61984 0.01641
C 9.8292 24.17891 -0.00719
C 11.07821 23.35963 0.01364
C 11.13382 22.00321 -0.01062
C 9.84787 21.35389 -0.00033
C 9.79237 19.90693 0.03589
C 11.02682 19.25312 -0.02759
C 11.05011 17.71057 0.0402
C 9.82168 17.04077 0.00572
C 9.86663 15.555 0.03592
C 11.0853 14.83383 0.00406
C 10.98203 13.481 0.00943
C 9.84686 12.81628 0.02841
C 9.8457 11.28695 -0.01111
C 11.02904 10.63167 -0.01275
C 11.10783 9.19878 0.00985
C 9.82504 8.51961 -0.02245
C 9.8289 7.09896 -0.00428
C 11.15684 6.42236 0.03101
C 11.11448 5.06026 -0.01536
C 9.84033 3.00009 -0.01046
C 11.14444 27.70962 -0.00334
C 13.50366 10.71273 -0.01952
C 12.29465 8.53163 0.00374
C 14.76123 7.04668 -0.05302
C 16.00428 6.43218 0.00213
C 16.01623 4.96738 -0.00066
C 14.757 4.22055 -0.00289
C 14.78791 2.83026 0.00028
C 16.06753 2.10633 -0.02213
C 16.08833 0.70879 0.03698
C 14.76437 0.0472 -0.00109
C 17.29267 32.49482 -0.00491
C 18.53365 31.87171 0.03338
C 17.10941 19.70183 -0.0258
C 18.24826 19.08765 -0.0331
C 18.42913 17.79662 -0.00316
C 17.21545 17.08203 0.02188
C 17.24152 15.62419 -0.01979
C 18.41355 14.93933 0.02691
C 18.39241 13.5203 -0.01581
C 17.16683 12.84054 0.01452
C 17.18061 11.45282 0.04892
C 18.41989 10.68508 -0.00111
C 18.47707 9.28572 -0.03557
C 14.76565 8.54011 -0.04147
C 13.4979 9.21062 -0.02813
C 16.01662 9.26967 -0.02815
C 14.70681 11.32465 0.01443
C 12.34784 7.08854 0.00052
C 13.54521 6.38469 -0.03682
C 13.53238 4.9696 0.01965
C 12.308 4.27913 0.02058
C 12.23693 2.85104 -0.01957
C 13.55636 2.12382 -0.0108
C 13.5355 0.7237 -0.00368
C 12.24784 0.06588 -0.02696
C 14.72061 32.71552 -0.00114
C 16.0655 31.92375 0.00228
C 15.8796 30.62077 0.00798
C 14.80118 29.82008 0.00422
C 14.70672 21.13483 0.0351
C 14.73604 19.83093 -0.03113
C 15.94904 19.10431 0.02098
C 15.94155 17.71439 0.01848
C 14.75048 16.9708 -0.00619
C 14.7406 15.57055 -0.02162
C 15.97829 14.94824 0.00889
C 15.95061 13.52972 -0.00481
C 14.73197 12.78883 0.00979
C 16.02609 10.69991 0.03505
C 17.25264 8.54201 0.03754
C 9.82039 28.34084 -0.01634
C 11.00551 30.51233 0.00093
C 2.41638 4.2902 0.00402
C 2.453 2.8873 0.0073
C 3.72627 2.23371 0.0174
C 3.64242 0.7911 0.03828
C 2.40411 0.05014 0.01226
C 4.91 32.64175 -0.00279
C 6.19982 31.9807 0.01996
C 6.09103 30.59481 -0.03996
C 4.91972 29.90802 0.01465
C 4.89144 28.4417 -0.00074
C 6.0253 27.67643 -0.00518
C 6.03755 26.29548 0.0086
C 4.84682 25.58846 -0.00643
C 4.93083 24.09901 0.017
C 6.10695 23.46483 -0.03113
C 6.16689 21.95865 -0.02566
C 5.02094 21.25128 -0.00094
C 4.89108 19.86308 0.02322
C 6.18268 19.16958 -0.00725
C 6.12424 17.77133 -0.05697
C 4.82809 16.98432 0.01087
C 3.62169 5.03129 0.02374
C 4.91759 15.6751 -0.01343
C 3.70852 6.40741 0.03267
C 2.4256 8.57943 0.00643
C 3.66764 30.50394 0.0064
C 2.35813 29.78119 0.00211
C 2.36629 28.43206 -0.00449
C 3.58898 27.7568 -0.01979
C 3.68015 26.36897 0.02784
C 2.47498 25.59478 -0.01977
C 2.44409 24.12428 -0.00561
C 3.6903 23.46024 0.00208
C 3.71741 21.94341 0.01707
C 2.44623 21.29219 0.02769
C 2.41603 19.87563 -0.03291
C 3.64847 19.19004 -0.04999
C 3.57193 17.79654 0.04505
C 2.35096 17.00457 0.03284
C 2.43636 15.60979 -0.04307
C 3.71241 14.98522 0.03189
C 3.66043 13.54066 0.00031
C 2.41671 12.77012 -0.003
C 2.48236 11.38352 0.01402
C 3.65433 10.72557 0.02379
C 3.64305 9.27799 0.00907
C 2.48159 7.13164 -0.01509
C 9.74734 29.87649 0.00057
C 6.17681 14.92073 0.00988
C 4.91333 12.824 0.01305
C 8.66729 19.17829 -0.0008
C 8.57489 17.69974 0.0288
C 7.31551 17.00941 0.00393
C 7.38187 15.59336 0.00895
C 8.59126 14.95154 0.00685
C 8.60324 13.45929 0.02888
C 7.37626 12.78291 -0.00482
C 7.36606 11.38736 -0.01384
C 8.61433 10.68872 0.03693
C 8.60997 9.24802 0.01745
C 7.33217 8.58406 0.00488
C 7.40071 7.17709 -0.01004
C 8.68408 6.43578 -0.02896
C 8.5928 5.11218 -0.00131
C 7.35115 4.36855 -0.01118
C 7.3817 2.97781 -0.014
C 8.5798 2.27661 0.02147
C 8.63665 0.80409 0.00373
C 7.38417 0.08283 -0.00191
C 9.76385 32.6551 0.00438
C 11.03366 31.88433 0.01291
C 7.41567 19.83374 -0.01362
C 6.11435 13.50804 0.0276
C 7.44894 21.32187 -0.00892
C 8.63744 23.45928 0.01572
C 4.93463 11.39844 -0.00077
C 6.12106 10.73331 0.03368
C 6.1372 9.30727 -0.02929
C 4.9375 8.50117 -0.00966
C 4.91701 7.14806 -0.03337
C 6.12607 6.46949 0.01227
C 6.13547 5.0289 0.00873
C 4.892 4.32375 -0.00049
C 4.90268 2.88701 0.00848
C 6.13835 2.21596 -0.01303
C 6.05601 0.69382 -0.01378
C 4.88379 34.04282 0.02635
C 7.36431 32.78685 0.0127
C 8.53796 31.96867 0.01396
C 8.53758 30.52618 0.01849
C 7.29103 29.79205 -0.01142
C 7.32169 28.44255 -0.00562
C 8.56987 27.68678 -0.00494
C 8.63097 26.3325 0.00054
C 7.31428 25.56756 0.03007
C 7.36546 24.19855 -0.00095
C 8.6819 22.08596 -0.04848
C 17.23327 7.12414 0.01739
C 18.44269 6.46875 0.00755
C 18.50323 5.00426 -0.0054
C 29.42857 7.00916 0.01518
C 30.70395 6.38503 0.01908
C 30.65837 4.98872 0.07705
C 29.48433 4.21024 0.0103
C 29.58011 2.83923 0.02108
C 30.79185 2.07004 0.00716
C 30.751 0.65853 0.00307
C 29.56345 34.02652 0.00346
C 32.05611 32.58737 0.01713
C 33.27136 31.91902 -0.01694
C 33.24722 30.5106 0.01428
C 31.98445 29.8369 -0.02142
C 31.9644 28.37655 0.0544
C 33.12108 27.61051 0.00026
C 33.24171 26.29565 0.00682
C 32.01416 25.54231 -0.01779
C 31.98026 24.09869 0.03794
C 33.22555 23.38598 0.01927
C 33.16592 22.03994 0.01574
C 31.9842 21.2966 -0.02383
C 31.96099 19.9434 -0.01429
C 29.4919 8.44694 -0.00971
C 33.27991 19.20106 -0.0136
C 30.64229 9.23334 -0.03735
C 29.49256 11.3794 -0.02155
C 27.08592 0.05398 -0.00416
C 29.5397 32.67289 0.01177
C 30.78505 31.94223 0.04266
C 30.75023 30.49625 0.01324
C 29.47109 29.75485 0.0014
C 29.45627 28.3645 0.00924
C 30.7242 27.61151 0.02326
C 30.76075 26.22012 0.00261
C 29.47026 25.5753 0.03265
C 29.42288 24.15848 -0.02049
C 30.74431 23.45032 -0.01854
C 30.73559 22.03952 -0.01415
C 29.46486 21.30173 -0.03039
C 29.5068 19.95269 0.01836
C 30.70911 19.21208 0.03531
C 30.72467 17.80262 -0.00669
C 29.46387 17.06254 0.0101
C 29.49064 15.63526 0.01705
C 30.66391 14.87458 -0.0405
C 30.68026 13.49534 -0.01303
C 29.49322 12.82977 -0.01461
C 30.66562 10.68433 -0.00944
C 28.32252 0.7315 0.01699
C 33.16808 17.75904 0.00594
C 31.96984 15.71754 0.00369
C 1.26137 22.03568 0.02712
C 0.01444 21.31093 -0.02213
C 34.42796 19.88137 0.01951
C 1.26791 19.15131 -0.01678
C 1.17739 17.67775 0.01223
C 34.35627 17.03929 0.00648
C 34.38274 15.58415 0.02114
C 1.21844 14.98198 -0.02957
C 1.19322 13.48598 0.00343
C 34.40372 12.76798 -0.02656
C 34.41548 11.34718 -0.02442
C 1.20497 10.6219 -0.00027
C 1.21828 9.22026 -0.00583
C 34.40827 8.46501 -0.02302
C 0.02898 7.05128 -0.02849
C 1.25961 6.46067 0.02931
C 1.16347 5.03164 0.00628
C 34.36575 4.29282 -0.0345
C 34.35443 2.91032 -0.00931
C 1.17745 2.19787 -0.00939
C 1.18799 0.82055 -0.00468
C 1.26275 23.43814 0.00723
C 31.94892 17.06985 -0.02474
C 0.00269 24.1118 0.03076
C 1.19257 26.23186 -0.00598
C 33.15895 14.8988 0.00455
C 33.18138 13.48312 -0.00644
C 31.95636 12.79577 -0.01839
C 31.94444 11.3398 0.00137
C 33.16121 10.68406 0.00199
C 33.08748 9.23145 0.04381
C 31.89432 8.50833 0.02806
C 31.95467 7.06752 0.01504
C 33.16809 6.36862 -0.00069
C 33.11539 5.00961 0.04926
C 31.8624 4.20788 -0.03838
C 31.96094 2.78914 0.00349
C 33.21876 2.17127 -0.00323
C 33.23475 0.69774 -0.00841
C 32.01159 34.05453 0.0001
C 0.04789 32.69284 -0.02927
C 1.24287 31.9205 -0.01404
C 1.25 30.50823 0.01027
C 34.42294 29.81323 0.01831
C 34.39406 28.3766 -0.01037
C 1.15241 27.6235 -0.00439
C 0.01062 25.51507 -0.05239
C 28.3302 2.18663 0.01799
C 27.13219 2.85313 0.01259
C 26.99758 4.26277 0.01495
C 22.14867 32.6091 0.00199
C 23.24607 32.01302 0.01511
C 22.13339 19.82666 -0.00478
C 23.27555 19.19919 -0.01662
C 23.21853 17.73096 -0.01185
C 22.01869 17.07826 0.01126
C 22.05657 15.66379 0.01852
C 23.26064 14.88519 -0.00381
C 23.33858 13.46623 0.03046
C 22.15255 12.72145 0.0296
C 22.1667 11.31947 0.03374
C 23.43288 10.62873 -0.02845
C 23.40687 9.16179 -0.03213
C 22.12897 8.46482 0.02239
C 22.10762 6.9956 0.01153
C 23.36696 6.3246 0.02734
C 23.43773 4.95946 -0.0055
C 22.20749 4.23056 0.01515
C 22.30626 2.83102 -0.00225
C 23.4499 2.08752 0.00071
C 23.32926 0.66525 -0.01107
C 19.72553 0.00641 0.01087
C 22.09796 33.99104 -0.01586
C 20.99114 0.69857 -0.01527
C 19.81175 2.84812 0.01277
C 17.2386 4.3619 0.00667
C 17.31613 2.90485 0.00143
C 18.55177 2.12982 -0.017
C 18.49103 0.64541 0.00364
C 17.26171 34.00343 -0.00831
C 19.59914 32.72646 -0.02957
C 20.95425 19.17477 -0.04422
C 20.7766 17.82821 0.00654
C 19.6652 17.08057 -0.00703
C 19.58699 15.62245 -0.04076
C 20.84244 14.85972 -0.00652
C 20.93896 13.45707 0.0058
C 19.61061 12.83413 -0.00865
C 19.65525 11.37283 0.00675
C 20.92741 10.69862 -0.00311
C 20.96467 9.17543 0.00742
C 19.73117 8.54917 -0.01594
C 19.69034 7.13855 0.0106
C 20.92591 6.30394 -0.01154
C 20.984 4.83616 -0.01721
C 19.76326 4.31569 -0.02422
C 20.91706 2.08607 0.00096
C 24.53055 32.58154 -0.01971
C 25.81218 31.99764 -0.02118
C 25.79461 30.65332 0.00733
C 26.9034 28.45682 -0.00802
C 27.94045 27.56425 -0.00218
C 28.27017 26.24725 -0.01654
C 28.27926 23.3951 -0.00037
C 28.17116 22.03212 -0.0032
C 27.05153 21.34982 0.00622
C 26.9775 19.89938 -0.02815
C 28.26844 19.19372 -0.00942
C 28.24187 17.78789 0.00487
C 26.99772 17.03955 0.00826
C 27.00344 15.60468 -0.00294
C 28.25673 14.92205 0.00152
C 28.2689 13.47076 0.01257
C 27.0466 12.77796 0.02316
C 27.06134 11.32307 0.04185
C 28.29095 10.64592 0.00194
C 28.33708 9.23936 -0.00621
C 27.03484 8.55606 0.02611
C 27.06467 7.17669 0.02198
C 28.21281 6.3787 0.01094
C 28.1717 4.9567 0.00235
C 26.9304 29.81201 0.00195
C 28.32274 30.46647 0.00996
C 28.3098 31.92809 0.04306
C 27.03474 32.67548 0.00367
C 25.80858 21.9195 -0.00178
C 24.6191 21.22074 0.00768
C 24.51943 19.94594 -0.0276
C 25.73047 19.1754 0.03005
C 25.72711 17.775 -0.04078
C 24.55182 17.01338 0.02117
C 24.55973 15.55672 0.02737
C 25.77856 14.8372 -0.00498
C 25.86516 13.43487 0.00135
C 24.59813 12.8026 0.03102
C 3.70484 31.90711 -0.00039
C 24.639 11.36689 0.02555
C 25.8182 9.26024 -0.00285
C 24.65524 8.5507 -0.009
C 24.56576 7.15368 -0.01199
C 25.82296 6.46407 -0.00229
C 25.78605 4.99459 -0.00938
C 24.62896 4.20373 -0.0264
C 24.67063 2.80425 -0.01154
C 25.83794 2.16419 0.00684
C 25.8639 0.72427 -0.01052
C 24.56117 0.00073 -0.01679
C 25.83795 10.67426 0.01423
C 2.48892 32.69608 0.02728
