325
Graphene
C 34.36444 0.02981 0.01295
C 9.92019 24.13542 -0.00066
C 11.20203 23.39538 -0.00289
C 11.08819 22.02499 0.00028
C 9.8815 21.31147 -0.02213
C 9.85871 19.9083 0.03698
C 11.07935 19.26879 -0.00109
C 11.11832 17.78967 -0.00491
C 9.93743 25.50033 0.00213
C 9.8599 17.04085 0.03338
C 11.00893 14.95924 -0.0331
C 11.06228 13.50075 -0.00316
C 9.84335 12.75513 0.02188
C 9.79822 11.28766 -0.01979
C 11.05907 10.66465 0.02691
C 11.11175 9.24881 -0.01581
C 9.84417 8.58584 0.01452
C 9.83618 15.64212 -0.0258
C 9.80177 7.1941 0.04892
C 11.03374 26.33591 -0.05302
C 9.79619 28.44119 -0.02815
C 7.31054 11.24108 -0.02696
C 8.56157 10.67641 -0.00114
C 8.6122 9.20166 0.00228
C 7.40515 8.52024 0.00798
C 7.33044 7.05226 0.00422
C 8.54221 6.37641 0.0351
C 8.59628 4.98682 -0.03113
C 11.06601 27.74127 -0.04147
C 7.40282 4.29665 0.02098
C 8.51295 2.16762 -0.00619
C 8.56172 0.74699 -0.02162
C 7.35248 0.00531 0.00889
C 9.85566 32.69455 -0.00481
C 11.04016 31.92008 0.00979
C 11.06036 30.46334 0.01443
C 9.80664 29.81726 0.03505
C 7.32137 2.85143 0.01848
C 10.93658 6.41441 -0.00111
C 11.05043 5.0863 -0.03557
C 9.76272 4.3236 0.03754
C 13.48955 14.90469 -0.01154
C 13.56248 13.51234 -0.01721
C 12.27409 12.82946 -0.02422
C 12.20906 11.40573 0.01277
C 13.46776 10.63452 0.00096
C 13.55051 9.17503 -0.01527
C 12.32553 8.53806 0.01087
C 12.25364 15.57762 0.0106
C 12.30845 7.11865 0.00199
C 13.45439 5.02137 -0.00478
C 12.267 4.33995 -0.01662
C 12.31569 2.91528 -0.01185
C 13.5569 2.10963 0.01126
C 13.42222 0.67468 0.01852
C 12.16745 0.02184 -0.00381
C 14.68743 32.57798 0.03046
C 13.51861 6.37767 0.01511
C 12.27569 17.05317 -0.01594
C 13.49943 17.80097 0.00742
C 13.56984 19.14758 -0.00311
C 9.74919 2.93203 0.01739
C 11.05469 2.18613 0.00755
C 10.93199 0.71201 -0.0054
C 9.71427 0.01862 0.00667
C 12.21155 32.64347 0.00143
C 13.47649 31.87003 -0.017
C 13.46961 30.40772 0.00364
C 12.31488 29.71024 -0.00831
C 12.35639 28.40705 -0.02957
C 13.53275 27.67708 -0.04422
C 13.48215 26.26967 0.00654
C 12.29832 25.60999 -0.00703
C 12.31615 24.19361 -0.04076
C 13.57257 23.47882 -0.00652
C 13.57054 22.13282 0.0058
C 12.41488 21.33566 -0.00865
C 12.36161 19.84384 0.00675
C 7.3265 12.73102 -0.00368
C 8.60183 13.49873 -0.0108
C 8.61303 14.96437 -0.01957
C 7.42681 15.67786 0.02058
C 2.37371 8.42972 0.00093
C 2.35772 7.04249 0.00057
C 3.5781 6.38512 -0.01634
C 3.59723 5.00719 -0.00334
C 2.31437 4.32604 0.02339
C 2.37857 2.92296 0.01641
C 3.6381 2.1929 -0.00719
C 3.66865 9.19247 0.01291
C 3.77105 0.78488 0.01364
C 4.94742 32.7141 -0.00033
C 6.18186 31.93698 0.03589
C 6.0952 30.56125 -0.02759
C 4.89761 29.84688 0.0402
C 4.96703 28.44416 0.00572
C 6.20574 27.71403 0.03592
C 6.18022 26.29719 0.00406
C 2.51941 0.01537 -0.01062
C 3.66014 10.62002 0.00438
C 2.40062 11.44543 -0.00191
C 2.42593 12.81073 0.00373
C 3.73148 30.49851 -0.0008
C 2.43804 29.90166 0.0288
C 2.40132 28.49133 0.00393
C 3.65362 27.71286 0.00895
C 3.66512 26.3284 0.00685
C 2.3587 25.62556 0.02888
C 2.45821 24.16897 -0.00482
C 3.66937 23.45912 -0.01384
C 3.69197 22.01231 0.03693
C 2.46665 21.3242 0.01745
C 2.47365 19.91275 0.00488
C 3.64125 19.21205 -0.01004
C 3.66811 17.75342 -0.02896
C 2.40521 17.07148 -0.00131
C 2.32091 15.65908 -0.01118
C 3.60967 14.88324 -0.014
C 3.60732 13.50627 0.02147
C 4.89578 25.60791 0.00943
C 16.00681 31.89805 0.0296
C 4.904 24.13636 0.02841
C 6.25869 21.98002 -0.01275
C 7.33614 32.69423 0.0076
C 8.62977 31.94111 0.01241
C 8.52238 30.57537 -0.01454
C 7.35146 29.87417 0.01945
C 7.36097 28.40306 0.01416
C 8.62911 27.75374 0.03542
C 8.61071 26.26712 0.02299
C 4.95015 0.02089 0.02162
C 7.39682 25.63986 0.00244
C 8.66134 23.40615 0.05265
C 8.69591 22.02584 -0.01952
C 7.44961 21.25771 -0.02813
C 7.3894 19.89295 0.00374
C 8.62998 19.20527 0.00052
C 8.56989 17.69156 -0.03682
C 7.37707 17.02029 0.01965
C 7.42005 24.20858 -0.01717
C 6.09061 0.7479 -0.0014
C 6.14358 2.17487 0.00415
C 4.86709 2.84441 -0.02162
C 4.91406 21.31893 0.00985
C 4.91286 19.88864 -0.02245
C 6.18399 19.15378 -0.00428
C 6.17727 17.74418 0.03101
C 4.88046 17.0898 -0.01536
C 4.88241 15.55972 -0.02689
C 6.15821 14.84216 -0.01046
C 6.10773 13.41945 -0.00891
C 4.92158 12.7726 0.02819
C 4.92337 11.30871 0.00165
C 6.10121 10.53526 -0.02971
C 6.11027 9.18552 0.02894
C 4.88727 8.54152 -0.01789
C 4.8003 7.09165 0.00444
C 6.05228 6.43382 -0.00925
C 6.07929 4.9846 0.01877
C 4.84674 4.27468 0.01363
C 6.11312 23.45367 -0.01111
C 3.74618 31.96008 -0.01362
C 15.94807 30.47323 0.03374
C 14.69919 28.46285 -0.03213
C 31.89362 32.78171 0.00682
C 33.09621 32.04791 -0.01779
C 33.17061 30.64752 0.03794
C 31.92153 29.94041 0.01927
C 32.05382 28.47919 0.01574
C 33.19291 27.72016 -0.02383
C 33.06501 26.31562 -0.01429
C 29.45981 0.09827 0.00026
C 31.73745 25.67303 -0.0136
C 33.14392 23.52157 -0.02474
C 33.10779 22.08748 0.00369
C 31.97517 21.18948 0.00455
C 31.82849 19.88916 -0.00644
C 33.23371 19.15041 -0.01839
C 33.21353 17.79924 0.00137
C 31.87214 17.29027 0.00199
C 31.90344 24.2148 0.00594
C 31.80043 15.78151 0.04381
C 30.68237 0.74649 0.0544
C 29.49378 2.91349 0.01428
C 27.16393 29.75613 -0.01303
C 27.24971 28.03602 -0.01461
C 28.48517 27.62571 -0.02155
C 26.87467 2.78825 -0.00944
C 28.22885 2.30539 -0.03735
C 28.24274 0.89583 -0.00971
C 26.98004 0.11489 0.01518
C 30.64268 2.20263 -0.02142
C 29.3967 32.75831 0.01908
C 30.74542 30.67974 0.0103
C 29.51238 29.86059 0.02108
C 29.64379 28.50591 0.00716
C 30.85461 27.87934 0.00307
C 30.53169 26.52304 0.00346
C 29.12151 26.45973 0.01713
C 30.818 18.26627 -0.01694
C 30.65192 32.06549 0.07705
C 32.95655 14.89616 0.02806
C 33.23564 13.50846 0.01504
C 33.19839 6.3211 -0.00069
C 34.39252 17.07725 0.00648
C 34.35557 15.57393 0.02114
C 1.11485 14.8841 -0.02957
C 1.12387 13.45204 0.00343
C 34.28409 12.71035 -0.02656
C 34.42884 11.19369 -0.02442
C 1.20359 10.57385 -0.00027
C 1.21556 17.83605 0.01223
C 1.13852 9.17863 -0.00583
C 34.23782 7.22169 -0.02849
C 1.08846 6.45887 0.02931
C 1.07862 5.05499 0.00628
C 34.29556 4.3065 -0.0345
C 34.32957 2.88165 -0.00931
C 1.17533 2.16646 -0.00939
C 1.17685 0.76909 -0.00468
C 34.33537 8.68425 -0.02302
C 1.20654 19.24032 -0.01678
C 34.40084 19.96034 0.01951
C 34.42668 21.38494 -0.02213
C 32.9914 4.99772 0.04926
C 31.83358 4.18372 -0.03838
C 31.84665 2.81982 0.00349
C 33.1305 2.20442 -0.00323
C 33.13642 0.78241 -0.00841
C 31.95449 0.04358 0.0001
C 34.3311 32.73204 -0.02927
C 1.21915 32.05146 -0.01404
C 1.214 30.61557 0.01027
C 34.39229 29.97085 0.01831
C 0.00408 28.50956 -0.01037
C 1.16527 27.81364 -0.00439
C 1.09772 26.39492 -0.00598
C 34.3342 25.6302 -0.05239
C 34.42419 24.21902 0.03076
C 1.2422 23.50505 0.00723
C 1.2531 22.0646 0.02712
C 28.26779 30.57171 -0.0405
C 28.21874 32.00591 0.01705
C 27.00044 32.70866 0.0101
C 24.47153 33.99731 -0.00669
C 17.22078 32.61234 0.03102
C 18.41789 31.84538 0.02555
C 18.39716 30.36391 0.01423
C 17.17359 29.86334 -0.00285
C 17.16713 28.44371 -0.009
C 18.2728 27.62083 -0.01199
C 17.08025 17.01424 -0.00229
C 14.6927 0.00654 0.00135
C 17.24026 15.6538 -0.00938
C 18.60514 13.20961 -0.01154
C 17.32725 12.70891 0.00684
C 17.1876 11.29677 -0.01052
C 18.33551 10.37669 -0.01679
C 18.37948 9.0684 0.00367
C 17.09643 8.39279 0.04306
C 17.13014 7.04016 0.00996
C 18.45512 14.76818 -0.0264
C 15.90886 0.6821 -0.00498
C 16.00163 2.11737 0.02737
C 14.80903 2.82926 0.02117
C 15.92837 27.71641 0.02239
C 15.90418 26.32066 0.01153
C 14.72875 25.67811 0.02734
C 15.90517 17.65098 -0.0055
C 14.69083 17.1369 0.01515
C 14.75432 15.68245 -0.00225
C 16.0392 14.9291 0.00071
C 16.0273 13.51567 -0.01107
C 14.72683 12.82176 -0.01586
C 14.60515 11.39903 -0.01971
C 15.87324 10.60387 -0.02118
C 15.98274 9.18613 0.00733
C 14.78123 8.48943 -0.00178
C 14.7246 7.11417 0.00768
C 15.90832 6.31555 -0.0276
C 15.87012 4.88487 0.03005
C 14.64796 4.24618 -0.04078
C 18.50491 6.51493 0.00195
C 14.71393 29.83051 -0.02845
C 18.43824 5.01327 -0.00802
C 17.31571 2.83308 -0.01654
C 22.15869 28.25247 0.01699
C 23.38666 27.5724 -0.00416
C 21.98305 4.03873 0.01177
C 22.06362 2.70991 0.04266
C 23.22739 2.01883 0.01324
C 23.27765 0.55326 0.0014
C 22.03133 33.9053 0.00924
C 22.12794 29.71382 0.01799
C 24.52563 32.59496 0.02326
C 25.92535 30.35096 0.03265
C 24.68614 29.63042 -0.02049
C 24.70001 28.14374 -0.01854
C 26.01161 27.47306 -0.01415
C 24.29415 2.83183 -0.03039
C 25.61645 2.25097 0.01836
C 25.73041 0.76978 0.03531
C 25.79742 31.84677 0.00261
C 23.40834 30.27434 0.01259
C 23.33808 31.73607 0.01495
C 22.05561 32.43256 0.00235
C 18.48535 2.07816 -0.00037
C 18.44629 0.70271 -0.0032
C 17.21036 34.04682 0.00622
C 19.61707 32.52197 -0.02815
C 20.84006 31.74541 -0.00942
C 20.85199 30.3347 0.00487
C 19.61262 29.64006 0.00826
C 19.62264 28.19195 -0.00294
C 20.86293 27.48934 0.00152
C 19.57228 15.52696 0.01257
C 19.38216 7.67974 0.02316
C 20.85847 4.69471 0.04185
C 19.63225 4.27083 0.00194
C 19.65511 2.79685 -0.00621
C 20.79303 2.03549 0.02611
C 20.84843 0.59436 0.02198
C 19.58839 33.97716 0.01094
C 17.19999 4.21094 -0.00218
C 2.50756 32.7141 -0.00892
