378
Graphene
C 34.31685 34.07752 0.01295
C 11.07737 6.35857 0.01416
C 11.08466 5.00522 0.03542
C 9.75417 4.29333 0.02299
C 9.7257 2.8633 0.00244
C 10.96882 2.17334 -0.01717
C 11.02245 0.80055 0.05265
C 9.73419 0.02551 -0.01952
C 12.23249 32.72082 -0.02813
C 13.43099 31.93103 0.00374
C 13.51701 30.59211 0.00052
C 12.29084 29.88533 -0.03682
C 12.28365 28.42079 0.01965
C 13.54897 27.69961 0.02058
C 13.57274 26.26875 -0.01957
C 12.32346 25.63612 -0.0108
C 12.23502 24.12142 -0.00368
C 13.49886 23.49585 -0.02696
C 13.53793 22.09332 -0.00114
C 12.35028 21.33778 0.00228
C 9.76645 7.15665 0.01945
C 9.80177 8.62843 -0.01454
C 11.0722 9.22892 0.01241
C 11.06744 10.68639 0.0076
C 11.01422 32.01366 -0.02245
C 11.07186 30.56848 -0.00428
C 9.80142 29.82952 0.03101
C 9.83187 28.44846 -0.01536
C 11.04382 27.75953 -0.02689
C 11.11013 26.32575 -0.01046
C 9.88089 25.58916 -0.00891
C 9.87029 24.1927 0.02819
C 11.01611 23.44205 0.00165
C 12.33221 19.9762 0.00798
C 11.01766 22.05753 -0.02971
C 9.84359 19.82621 -0.01789
C 11.10226 19.19184 0.00444
C 11.10216 17.71325 -0.00925
C 9.90681 17.02053 0.01877
C 9.95056 15.55754 0.01363
C 11.26576 14.9378 -0.02162
C 11.21799 13.50138 0.00415
C 9.92743 12.7952 -0.0014
C 9.89084 11.39237 0.02162
C 9.85702 21.33007 0.02894
C 9.81437 32.69405 0.00985
C 13.61541 19.15156 0.00422
C 12.33855 17.04751 -0.03113
C 14.7622 24.17079 0.02188
C 15.94088 23.35126 -0.01979
C 16.02805 21.92522 0.02691
C 14.78571 21.34881 -0.01581
C 14.79482 19.88377 0.01452
C 16.01019 19.14416 0.04892
C 16.04022 17.8099 -0.00111
C 14.90518 17.09566 -0.03557
C 15.14751 15.78861 0.03754
C 14.66044 12.64923 0.01739
C 14.73099 11.30929 0.00755
C 14.69845 8.53262 -0.0054
C 14.82911 7.08269 0.00667
C 15.83742 6.2236 0.00143
C 16.01359 4.86948 -0.017
C 14.79111 4.21709 0.00364
C 14.71226 2.82717 -0.00831
C 15.87018 2.05021 -0.02957
C 15.89351 0.59919 -0.04422
C 14.75338 25.54374 -0.00316
C 15.98388 26.17603 -0.0331
C 15.99753 27.55219 -0.0258
C 14.81265 28.37096 0.03338
C 12.51928 15.53924 0.02098
C 13.80895 14.99442 0.01848
C 13.64155 13.55046 -0.00619
C 12.38406 12.80809 -0.02162
C 12.362 11.33709 0.00889
C 13.52063 10.59555 -0.00481
C 13.52037 9.15948 0.00979
C 12.21664 8.47594 0.01443
C 12.30402 7.10803 0.03505
C 13.56503 17.75688 0.0351
C 13.51983 6.42992 -0.02815
C 12.31559 4.23531 -0.05302
C 12.24597 2.83495 0.00213
C 13.51788 2.03878 -0.00066
C 13.50479 0.67426 -0.00289
C 12.22629 0.08153 0.00028
C 14.73175 32.66195 -0.02213
C 15.90083 31.98337 0.03698
C 15.96189 30.55301 -0.00109
C 14.72794 29.8399 -0.00491
C 13.56062 4.99255 -0.04147
C 7.29948 0.08793 -0.01275
C 8.5232 0.81653 -0.01111
C 8.51168 2.22809 0.02841
C 3.585 5.00856 -0.01343
C 2.37251 4.26327 0.00988
C 2.40264 2.88483 0.0276
C 3.60496 2.15284 0.01305
C 3.58389 0.7421 -0.00077
C 2.33857 34.06438 0.03368
C 4.87292 32.74147 -0.02929
C 6.10639 31.97175 -0.00966
C 6.07752 30.5834 -0.03337
C 4.89421 29.84492 0.01227
C 4.92601 28.46248 0.00873
C 6.17194 27.74057 -0.00049
C 6.09478 26.3655 0.00848
C 4.88308 25.55075 -0.01303
C 4.93661 24.09508 -0.01378
C 6.15529 23.50543 0.02635
C 6.20149 21.98745 0.0127
C 4.9115 21.3121 0.01396
C 4.89024 19.88678 0.01849
C 3.60011 6.44127 0.01087
C 2.4573 7.17611 -0.05697
C 2.43655 8.63939 -0.00725
C 3.61428 9.33946 0.02322
C 3.71864 30.56763 -0.01509
C 2.43056 29.87683 0.03267
C 2.46172 28.42503 0.02374
C 3.71251 27.77689 0.00402
C 3.68046 26.25693 0.0073
C 2.39414 25.59542 0.0174
C 2.36683 24.24882 0.03828
C 3.63901 23.52473 0.01226
C 3.73323 22.07458 -0.00279
C 6.18476 19.22283 -0.01142
C 2.40437 21.3911 0.01996
C 3.66057 19.20587 0.01465
C 3.66748 17.79378 -0.00074
C 2.42591 17.11221 -0.00518
C 2.421 15.69794 0.0086
C 3.68071 15.0262 -0.00643
C 3.65174 13.6056 0.017
C 2.44779 12.88261 -0.03113
C 2.44202 11.41676 -0.02566
C 3.6543 10.66182 -0.00094
C 2.48009 19.94724 -0.03996
C 6.20087 17.83575 -0.00562
C 4.98152 17.16674 -0.00494
C 4.92466 15.68004 0.00054
C 8.62594 23.45487 -0.00191
C 8.56177 22.08828 0.00438
C 7.37878 21.26848 0.01291
C 7.40066 19.87028 0.00093
C 8.63686 19.24057 0.00057
C 8.68565 17.85692 -0.01634
C 7.3714 17.06956 -0.00334
C 7.4303 15.66157 0.02339
C 8.68545 14.90749 0.01641
C 7.37032 24.1988 0.00373
C 8.67037 13.46487 -0.00719
C 7.32442 11.38854 -0.01062
C 8.59629 10.76016 -0.00033
C 8.60267 9.2565 0.03589
C 7.32159 8.53636 -0.02759
C 7.31105 7.17358 0.0402
C 8.55798 6.50779 0.00572
C 8.59034 5.00683 0.03592
C 7.34986 4.313 0.00406
C 7.29391 2.94981 0.00943
C 7.41198 12.7976 0.01364
C 14.70255 34.03829 0.00654
C 7.36754 25.69788 0.02147
C 8.55912 27.83089 -0.01118
C 6.16172 14.99655 0.03007
C 6.12189 13.52467 -0.00095
C 4.8243 12.86045 0.01572
C 4.89224 11.38583 -0.04848
C 6.14021 10.65382 -0.00892
C 6.1034 9.26022 -0.01362
C 4.82725 8.62596 -0.0008
C 4.84981 7.18094 0.0288
C 6.09136 6.41836 0.00393
C 8.62041 26.38444 -0.014
C 6.1038 5.04661 0.00895
C 4.8926 2.83413 0.02888
C 6.04256 2.16777 -0.00482
C 6.07088 0.84918 -0.01384
C 4.85739 0.05527 0.03693
C 7.35768 32.77874 0.01745
C 8.55261 32.04523 0.00488
C 8.58716 30.65219 -0.01004
C 7.37122 29.92706 -0.02896
C 7.40435 28.44184 -0.00131
C 4.9136 4.27241 0.00685
C 17.11178 32.66488 -0.00703
C 18.34911 31.87562 -0.04076
C 18.37725 30.48028 -0.00652
C 29.37691 2.90182 0.02108
C 30.60316 2.16497 0.00716
C 30.64427 0.72279 0.00307
C 29.44285 0.0753 0.00346
C 31.96875 32.73626 0.01713
C 33.14541 31.91751 -0.01694
C 33.17841 30.46746 0.01428
C 31.87079 29.84705 -0.02142
C 31.76521 28.42609 0.0544
C 33.10099 27.68228 0.00026
C 33.16453 26.29921 0.00682
C 31.834 25.62756 -0.01779
C 31.76604 24.15958 0.03794
C 33.06565 23.45247 0.01927
C 33.15072 22.08659 0.01574
C 31.99634 21.34487 -0.02383
C 31.93552 19.87703 -0.01429
C 33.16093 19.14987 -0.0136
C 33.19267 17.76295 0.00594
C 29.48236 4.31563 0.0103
C 30.64368 4.94644 0.07705
C 30.60187 6.39078 0.01908
C 29.44751 7.16251 0.01518
C 27.01453 0.00892 0.00924
C 29.46786 32.78953 0.02326
C 30.75316 31.9869 0.00261
C 30.71328 30.59675 0.03265
C 29.44639 29.87961 -0.02049
C 29.16108 28.50165 -0.01854
C 30.45956 27.64467 -0.01415
C 30.6147 26.34121 -0.03039
C 30.49479 23.43639 0.01836
C 31.98005 17.01291 -0.02474
C 30.73298 22.06405 0.03531
C 29.49553 19.72396 0.0101
C 30.70563 19.15579 0.01705
C 30.75888 17.71438 -0.0405
C 29.51603 17.00575 -0.01303
C 29.44988 15.62272 -0.01461
C 30.74059 14.92022 -0.02155
C 30.70807 13.47672 -0.00944
C 30.77186 10.38319 -0.03735
C 30.68323 9.1611 -0.00971
C 29.56343 21.10728 -0.00669
C 31.95791 15.64574 0.00369
C 33.21256 14.90938 0.00455
C 33.18742 13.55641 -0.00644
C 34.40155 21.32314 -0.02213
C 34.36975 19.93487 0.01951
C 1.18654 19.22973 -0.01678
C 1.22436 17.81449 0.01223
C 34.37213 17.07119 0.00648
C 34.40832 15.59577 0.02114
C 1.20755 14.96182 -0.02957
C 1.2119 13.51808 0.00343
C 34.40599 12.82101 -0.02656
C 1.21494 22.01923 0.02712
C 0.00159 11.39712 -0.02442
C 1.13797 9.28163 -0.00583
C 34.39991 8.55136 -0.02302
C 34.39182 7.03555 -0.02849
C 1.19607 6.44235 0.02931
C 1.1307 5.00207 0.00628
C 34.36197 4.26556 -0.0345
C 34.36097 2.77007 -0.00931
C 1.15447 2.15958 -0.00939
C 1.0962 0.69485 -0.00468
C 1.16908 10.67078 -0.00027
C 28.22464 0.75984 0.0014
C 1.14975 23.54014 0.00723
C 34.38788 25.58614 -0.05239
C 31.98218 12.78186 -0.01839
C 32.01609 11.32408 0.00137
C 33.18032 10.62358 0.00199
C 33.16405 9.24211 0.04381
C 31.97949 8.4823 0.02806
C 32.00006 7.00157 0.01504
C 33.15199 6.3353 -0.00069
C 33.06742 4.97068 0.04926
C 31.84387 4.31857 -0.03838
C 34.35585 24.20214 0.03076
C 31.8552 2.8362 0.00349
C 33.11987 0.74293 -0.00841
C 31.88036 0.05885 0.0001
C 34.39436 32.66893 -0.02927
C 1.18454 32.01206 -0.01404
C 1.18217 30.59713 0.01027
C 34.40117 29.83046 0.01831
C 34.3676 28.42468 -0.01037
C 1.20832 27.85734 -0.00439
C 1.17473 26.30167 -0.00598
C 33.12639 2.11333 -0.00323
C 3.62176 32.00344 0.00643
C 28.18741 2.25354 0.01324
C 27.14934 4.37994 0.01177
C 20.78075 27.52343 0.03374
C 20.82053 26.16857 -0.02845
C 19.60388 25.51569 -0.03213
C 19.64538 24.02251 0.02239
C 20.90856 23.36598 0.01153
C 20.93883 21.84304 0.02734
C 19.6462 21.11065 -0.0055
C 19.69317 19.69185 0.01515
C 21.02036 19.11888 -0.00225
C 20.8832 17.60736 0.00071
C 19.78309 17.09551 -0.01107
C 19.49847 2.82124 -0.01586
C 20.82913 2.28076 -0.01971
C 20.81488 0.73663 -0.02118
C 19.58605 34.07746 0.00733
C 22.08566 32.62396 -0.00178
C 23.32035 31.9231 0.00768
C 23.33863 30.4765 -0.0276
C 22.12777 29.81177 0.03005
C 19.64392 28.31668 0.0296
C 19.66708 29.76671 0.03046
C 20.79618 30.48164 -0.00381
C 20.88169 31.84392 0.01852
C 17.15689 29.78597 0.0058
C 17.19171 28.33234 -0.00865
C 18.3919 27.59861 0.00675
C 18.41608 26.18297 -0.00311
C 17.20791 25.40497 0.00742
C 17.15927 24.06037 -0.01594
C 18.42011 23.35451 0.0106
C 18.40286 21.92509 -0.01154
C 17.23293 21.27657 -0.01721
C 22.13529 28.30633 -0.04078
C 17.30668 19.82101 -0.02422
C 18.39832 17.5663 0.00096
C 17.12501 16.93436 -0.01527
C 16.51393 15.56763 0.01087
C 17.36836 4.093 0.00199
C 17.17747 2.7332 0.01511
C 18.39168 2.05956 -0.00478
C 18.35854 0.67906 -0.01662
C 17.19148 34.00125 -0.01185
C 19.65944 32.6046 0.01126
C 18.41634 19.05691 0.01277
C 23.40751 27.65122 0.02117
C 23.38144 26.15022 0.02737
C 22.13357 25.47363 -0.00498
C 25.78635 19.19925 -0.02815
C 25.721 17.80039 -0.00942
C 24.46796 2.9056 0.00487
C 25.66571 2.11198 0.00826
C 25.73088 0.65141 -0.00294
C 24.49102 34.02387 0.00152
C 26.93881 32.61851 0.01257
C 28.22561 32.03818 0.02316
C 28.21746 30.60415 0.04185
C 24.61812 19.94789 0.00622
C 27.09409 29.88672 0.00194
C 28.61048 23.38088 0.02611
C 28.3379 22.04593 0.02198
C 27.1151 21.29839 0.01094
C 27.01507 19.85048 0.00235
C 28.30527 19.14251 0.01495
C 28.2043 17.75027 0.01259
C 26.93521 17.06502 0.01799
C 28.1017 15.03682 0.01699
C 28.19779 5.07109 -0.00416
C 27.35335 28.54435 -0.00621
C 26.88957 2.86008 0.04266
C 24.59828 21.24186 -0.0032
C 25.92787 23.39222 -0.01654
C 22.17472 24.02056 0.00135
C 23.47043 23.32564 0.03102
C 23.4126 21.95768 0.02555
C 22.15335 21.189 0.01423
C 22.19151 19.86649 -0.00285
C 23.46413 19.10902 -0.009
C 23.69777 17.72308 -0.01199
C 22.13627 2.72832 -0.00229
C 23.30593 2.04692 -0.00938
C 25.92564 22.04842 -0.00037
C 23.33426 0.6697 -0.0264
C 24.51863 32.62074 0.00684
C 25.77567 31.94928 -0.01052
C 25.73711 30.51718 -0.01679
C 24.53426 29.75553 0.00367
C 24.63784 28.40359 0.04306
C 26.03644 27.73148 0.00996
C 25.79055 26.24575 0.00195
C 24.5857 25.50546 -0.00802
C 24.68946 24.11256 -0.00218
C 22.04821 0.0151 -0.01154
C 2.38214 32.71704 0.00907
