372
Graphene
C 34.34074 34.05547 0.01295
C 15.96578 26.05791 0.00244
C 14.72344 25.70895 -0.01717
C 15.89385 14.91553 0.05265
C 16.18879 13.59325 -0.01952
C 16.15154 10.63435 -0.02813
C 15.77851 9.34745 0.00374
C 14.80317 8.47134 0.00052
C 14.71176 7.09279 -0.03682
C 15.9173 6.39241 0.01965
C 16.03303 4.89438 0.02058
C 14.75603 4.14638 -0.01957
C 14.82574 2.77524 -0.0108
C 16.0495 2.09555 -0.00368
C 15.99541 0.64989 -0.02696
C 14.77057 34.06385 -0.00114
C 17.16988 32.56732 0.00228
C 18.41042 31.84709 0.00798
C 18.43464 30.44167 0.00422
C 17.1509 29.76599 0.0351
C 16.00851 27.57559 0.02299
C 17.18233 28.24926 -0.03113
C 14.7279 28.39093 0.03542
C 15.98948 30.46584 0.01945
C 12.258 32.71026 -0.02689
C 13.44028 32.02221 -0.01046
C 13.56562 30.55505 -0.00891
C 12.34675 29.82234 0.02819
C 12.26261 28.38877 0.00165
C 13.48676 27.74966 -0.02971
C 13.48514 26.38424 0.02894
C 12.23269 25.65223 -0.01789
C 12.23855 24.20728 0.00444
C 12.22815 7.02404 -0.00925
C 13.43279 6.38452 0.01877
C 13.53233 5.04408 0.01363
C 12.3114 4.31872 -0.02162
C 12.39386 2.83704 0.00415
C 13.5683 2.11208 -0.0014
C 13.51106 0.75658 0.02162
C 12.23455 0.05419 0.0076
C 14.68894 32.73924 0.01241
C 15.97259 31.93093 -0.01454
C 14.76199 29.79975 0.01416
C 18.41547 27.67406 0.02098
C 18.4751 26.21024 0.01848
C 17.25107 25.60883 -0.00619
C 20.81694 14.95985 -0.01581
C 20.90044 13.53636 0.01452
C 19.70571 12.8138 0.04892
C 19.68734 11.34662 -0.00111
C 20.90362 10.5326 -0.03557
C 20.97282 9.17223 0.03754
C 19.7193 8.51757 0.01739
C 19.63216 7.09015 0.00755
C 20.84768 6.39341 -0.0054
C 20.8943 4.92394 0.00667
C 19.74976 4.2533 0.00143
C 19.65686 2.80441 -0.017
C 20.83746 2.04151 0.00364
C 20.76746 0.6098 -0.00831
C 19.57375 34.06654 -0.02957
C 22.1237 32.60892 -0.04422
C 23.30746 31.92239 0.00654
C 23.3347 30.48621 -0.00703
C 22.13237 29.78811 -0.04076
C 19.54631 15.56681 0.02691
C 19.74097 25.62114 -0.01979
C 20.92304 26.28437 0.02188
C 20.93186 27.7097 -0.00316
C 18.42969 14.74548 -0.02162
C 18.41714 13.46394 0.00889
C 17.22048 12.83339 -0.00481
C 17.27512 11.39342 0.00979
C 18.46351 10.64346 0.01443
C 18.39313 9.21156 0.03505
C 17.19131 8.49354 -0.02815
C 17.15472 7.0633 -0.04147
C 18.4473 6.35588 -0.05302
C 9.80649 0.03777 -0.01536
C 18.47234 4.90624 0.00213
C 17.23858 2.83923 -0.00289
C 18.45942 2.13474 0.00028
C 18.39341 0.67884 -0.02213
C 17.2022 34.00244 0.03698
C 19.59605 32.62776 -0.00109
C 20.83307 31.93613 -0.00491
C 20.82287 30.55719 0.03338
C 19.72333 29.78914 -0.0258
C 19.72304 28.41427 -0.0331
C 17.29869 4.23982 -0.00066
C 22.16406 28.41617 -0.00652
C 11.04977 0.81987 0.03101
C 9.89977 2.89961 -0.02245
C 3.65696 4.92703 0.03368
C 2.44755 4.20086 -0.02929
C 2.39053 2.89337 -0.00966
C 3.68729 2.20792 -0.03337
C 3.68363 0.77395 0.01227
C 2.4154 0.00656 0.00873
C 4.86197 32.7699 -0.00049
C 6.10526 32.0097 0.00848
C 6.10865 30.55584 -0.01303
C 4.88573 29.84316 -0.01378
C 4.84883 28.42484 0.02635
C 6.08632 27.7348 0.0127
C 6.09338 26.3762 0.01396
C 4.8562 25.6275 0.01849
C 4.86639 24.20922 -0.01142
C 6.06968 23.53616 -0.00562
C 6.16761 22.01664 -0.00494
C 4.88573 21.28321 0.00054
C 4.86588 19.88075 0.03007
C 3.66534 6.33193 -0.00077
C 6.12499 19.40466 -0.00095
C 2.44762 7.15021 0.01305
C 3.9132 9.3543 0.00988
C 3.6663 30.54502 0.03828
C 2.37196 29.88756 0.01226
C 2.38025 28.49533 -0.00279
C 3.70211 27.73943 0.01996
C 3.67151 26.24273 -0.03996
C 2.43953 25.57801 0.01465
C 2.42042 24.15623 -0.00074
C 3.69823 23.42367 -0.00518
C 3.67542 22.01092 0.0086
C 2.50724 21.28119 -0.00643
C 2.37352 19.88573 0.017
C 3.70228 19.18729 -0.03113
C 3.60344 17.74951 -0.02566
C 2.45437 17.03375 -0.00094
C 2.55216 15.6673 0.02322
C 3.6619 14.94896 -0.00725
C 2.47601 12.90666 -0.05697
C 2.52467 11.43616 0.01087
C 3.75514 10.70906 -0.01343
C 2.54533 8.52696 0.0276
C 4.83406 8.42559 0.01572
C 4.87627 7.07245 -0.04848
C 6.15813 6.49209 -0.00892
C 8.63029 2.17787 -0.01634
C 8.59822 0.76369 -0.00334
C 7.33117 0.08383 0.02339
C 9.76537 32.66575 0.01641
C 11.06621 31.98236 -0.00719
C 11.07767 30.57675 0.01364
C 9.86373 29.85905 -0.01062
C 9.8462 28.38185 -0.00033
C 11.07236 27.7125 0.03589
C 10.96184 26.22535 -0.02759
C 9.76881 25.48653 0.0402
C 9.77052 24.1197 0.00572
C 11.20375 23.3946 0.03592
C 10.90227 22.01972 0.00406
C 9.73711 21.26546 0.00943
C 9.86083 19.91638 0.02841
C 11.02312 6.44585 -0.01111
C 11.09551 5.05147 -0.01275
C 9.86213 4.32158 0.00985
C 7.44501 2.91996 0.00057
C 7.48826 4.36012 0.00093
C 8.65481 5.10294 0.01291
C 8.4528 6.42553 0.00438
C 6.22385 5.03846 -0.01362
C 4.94837 4.33345 -0.0008
C 4.94229 2.8884 0.0288
C 6.17439 2.22089 0.00393
C 6.10706 0.77179 0.00895
C 4.92157 0.02064 0.00685
C 7.34882 32.71327 0.02888
C 8.53785 32.01246 -0.00482
C 8.67191 30.58505 -0.01384
C 11.16087 2.18681 -0.00428
C 7.32743 29.91919 0.03693
C 8.60196 27.80141 0.00488
C 8.56606 26.29711 -0.01004
C 7.367 25.63538 -0.02896
C 7.29287 24.23802 -0.00131
C 8.52981 23.41843 -0.01118
C 8.47826 21.9774 -0.014
C 7.30987 21.27752 0.02147
C 7.38336 19.83012 0.00373
C 7.28182 7.09571 -0.00191
C 7.36451 28.45006 0.01745
C 23.34949 27.64095 0.0058
C 23.3414 26.31035 -0.00865
C 22.07303 25.57447 0.00675
C 30.71863 2.09116 0.00716
C 30.68537 0.67804 0.00307
C 29.50213 34.04844 0.00346
C 31.89543 32.67682 0.01713
C 33.13711 31.96216 -0.01694
C 33.15559 30.61085 0.01428
C 31.87266 29.84559 -0.02142
C 31.90666 28.45668 0.0544
C 33.11659 27.71128 0.00026
C 33.20733 26.33339 0.00682
C 32.00513 25.60518 -0.01779
C 31.96495 24.18121 0.03794
C 33.17285 23.48124 0.01927
C 33.22797 22.02605 0.01574
C 32.03742 21.36215 -0.02383
C 32.02396 19.94439 -0.01429
C 33.22314 19.24084 -0.0136
C 33.19622 17.76958 0.00594
C 31.96794 16.99083 -0.02474
C 29.4829 2.93512 0.02108
C 32.00065 15.55952 0.00369
C 29.50538 4.28986 0.0103
C 30.76801 6.43539 0.01908
C 30.7564 26.32299 0.00261
C 29.56436 25.62982 0.03265
C 29.57675 24.19747 -0.02049
C 30.78341 23.43671 -0.01854
C 30.7224 22.01153 -0.01415
C 29.58877 21.36479 -0.03039
C 29.61 19.90319 0.01836
C 30.83817 19.14287 0.03531
C 30.80726 17.66421 -0.00669
C 29.58305 17.04651 0.0101
C 29.60575 15.54074 0.01705
C 30.76059 14.87079 -0.0405
C 30.7882 13.42017 -0.01303
C 29.50871 12.77127 -0.01461
C 29.42968 11.3757 -0.02155
C 30.65188 10.63133 -0.00944
C 30.68007 9.27499 -0.03735
C 29.46449 8.54338 -0.00971
C 29.46184 7.11966 0.01518
C 30.75815 5.00296 0.07705
C 33.23334 14.86616 0.00455
C 33.212 13.47156 -0.00644
C 31.94773 12.70982 -0.01839
C 34.39399 19.91539 0.01951
C 1.20504 19.1514 -0.01678
C 1.17169 17.77031 0.01223
C 34.39829 17.10935 0.00648
C 0.05165 15.65599 0.02114
C 1.27781 14.94045 -0.02957
C 1.26668 13.55695 0.00343
C 34.41131 12.73762 -0.02656
C 0.01817 11.3658 -0.02442
C 1.24358 10.70738 -0.00027
C 1.31391 9.2738 -0.00583
C 0.01886 8.49611 -0.02302
C 34.42178 7.11482 -0.02849
C 1.22836 6.44969 0.02931
C 1.22085 5.00849 0.00628
C 34.40652 4.27205 -0.0345
C 34.37928 2.81982 -0.00931
C 1.22037 2.15781 -0.00939
C 1.18164 0.67879 -0.00468
C 0.05687 21.3051 -0.02213
C 1.24286 21.98814 0.02712
C 1.27083 23.43594 0.00723
C 0.0333 24.14695 0.03076
C 31.89973 11.31424 0.00137
C 33.21883 10.64396 0.00199
C 33.22997 9.28776 0.04381
C 31.96546 8.53833 0.02806
C 31.98967 7.15235 0.01504
C 33.21039 6.42059 -0.00069
C 33.13453 4.99692 0.04926
C 31.94626 4.24219 -0.03838
C 31.97097 2.79577 0.00349
C 30.67829 27.70205 0.02326
C 33.14728 2.17102 -0.00323
C 31.93976 0.03355 0.0001
C 34.33994 32.63359 -0.02927
C 1.14053 32.02544 -0.01404
C 1.20806 30.56796 0.01027
C 34.42049 29.87477 0.01831
C 34.40308 28.47369 -0.01037
C 1.1961 27.70235 -0.00439
C 1.20621 26.32545 -0.00598
C 0.01554 25.59718 -0.05239
C 33.16529 0.76066 -0.00841
C 29.45645 28.41743 0.00924
C 29.48996 29.80629 0.0014
C 30.638 30.55969 0.01324
C 24.50468 32.62468 0.02239
C 25.78371 31.95759 0.01153
C 25.84425 30.50938 0.02734
C 24.61863 29.81271 -0.0055
C 24.58579 28.39367 0.01515
C 25.87183 27.62379 -0.00225
C 25.8284 26.19596 0.00071
C 24.5584 25.47369 -0.01107
C 24.568 24.0831 -0.01586
C 25.85774 23.37724 -0.01971
C 25.85948 21.99325 -0.02118
C 24.56378 21.30998 0.00733
C 24.54451 19.79762 -0.00178
C 25.8713 19.10844 0.00768
C 25.83293 17.71428 -0.0276
C 24.60261 16.98518 0.03005
C 24.63431 15.54782 -0.04078
C 25.86968 14.92364 0.02117
C 25.8472 13.52154 0.02737
C 22.05959 33.97182 -0.03213
C 23.35819 0.65894 -0.02845
C 23.29327 2.09844 0.03374
C 22.06964 2.8189 0.0296
C 22.12491 24.21841 -0.00311
C 23.18999 23.42459 0.00742
C 23.18419 21.95764 -0.01594
C 22.10242 21.1999 0.0106
C 22.14684 19.85696 -0.01154
C 23.25625 19.13352 -0.01721
C 23.37741 17.72256 -0.02422
C 22.26119 16.98162 0.01277
C 22.07362 15.6055 0.00096
C 24.63504 12.75627 -0.00498
C 23.41489 14.83901 -0.01527
C 22.12602 12.84727 0.00199
C 22.16764 11.37332 0.01511
C 23.40202 10.59212 -0.00478
C 23.40694 9.23866 -0.01662
C 22.1642 8.50017 -0.01185
C 22.1102 7.09362 0.01126
C 23.26661 6.33117 0.01852
C 23.36744 4.88903 -0.00381
C 22.1325 4.20254 0.03046
C 23.38222 13.40062 0.01087
C 3.67045 31.99282 0.0174
C 24.57928 11.31551 0.00135
C 25.82002 9.22438 0.02555
C 27.09049 17.03697 0.00826
C 27.08113 15.6187 -0.00294
C 28.30271 14.86067 0.00152
C 28.29438 13.54869 0.01257
C 27.0635 12.774 0.02316
C 26.98073 11.34617 0.04185
C 28.19139 10.596 0.00194
C 28.30073 9.23758 -0.00621
C 27.05987 8.50436 0.02611
C 26.97337 7.0822 0.02198
C 28.20746 6.43712 0.01094
C 28.22929 4.9915 0.00235
C 26.98973 4.26524 0.01495
C 26.9729 2.89433 0.01259
C 28.21453 2.1485 0.01799
C 28.25118 0.76338 0.01699
C 27.01974 0.03959 -0.00416
C 29.35946 32.70041 0.01177
C 30.60218 31.98078 0.04266
C 28.39576 17.79565 0.00487
C 28.28922 19.16793 -0.00942
C 27.1448 19.81869 -0.02815
C 27.12588 21.30703 0.00622
C 24.63829 8.52754 0.01423
C 24.54154 7.07876 -0.00285
C 25.73261 6.42277 -0.009
C 25.77094 5.00074 -0.01199
C 24.55008 4.18169 -0.00229
C 24.53069 2.76603 -0.00938
C 25.81523 2.08104 -0.0264
C 25.78989 0.61982 -0.01154
C 24.52325 33.96801 0.00684
C 25.81223 10.66652 0.03102
C 26.97887 32.65118 -0.01052
C 28.16374 30.43771 0.00367
C 27.00022 29.71446 0.04306
C 27.02939 28.27721 0.00996
C 28.24779 27.67737 0.00195
C 28.23525 26.2114 -0.00802
C 27.04549 25.50297 -0.00218
C 27.06075 24.0799 -0.01654
C 28.27197 23.39903 -0.00037
C 28.34007 22.00524 -0.0032
C 28.18698 31.91272 -0.01679
C 2.41111 32.69068 0.0073
