368
Graphene
C 34.36054 0.08457 0.01295
C 15.88004 19.09716 -0.01952
C 16.03174 17.86004 -0.02813
C 16.44099 14.54286 0.00374
C 15.63461 13.53837 0.00052
C 14.70396 12.57007 -0.03682
C 14.96127 11.08719 0.01965
C 14.87159 8.66613 0.02058
C 14.9565 7.2708 -0.01957
C 16.10879 6.48478 -0.0108
C 15.91362 5.01831 -0.00368
C 14.68112 4.26727 -0.02696
C 14.74654 2.85835 -0.00114
C 15.92764 2.12364 0.00228
C 15.9216 0.6568 0.00798
C 14.66586 34.03745 0.00422
C 17.07335 32.67595 0.0351
C 18.28846 31.99175 -0.03113
C 18.28812 30.59113 0.02098
C 17.14518 29.77049 0.01848
C 15.96146 21.99186 0.05265
C 17.16274 28.40487 -0.00619
C 15.67635 23.41417 -0.01717
C 14.76372 25.62987 0.02299
C 12.53674 11.48962 0.02819
C 13.58439 10.52954 0.00165
C 13.51468 9.24767 -0.02971
C 12.23688 8.62392 0.02894
C 12.2517 7.22512 -0.01789
C 13.54617 6.50622 0.00444
C 13.45445 5.09591 -0.00925
C 12.27215 4.32088 0.01877
C 12.27005 2.88405 0.01363
C 13.54682 2.12999 -0.02162
C 13.47193 0.72122 0.00415
C 12.27557 34.0498 -0.0014
C 14.6877 32.63504 0.02162
C 15.83709 31.93818 0.0076
C 15.82133 30.54459 0.01241
C 14.59731 29.84354 -0.01454
C 14.6522 28.43249 0.01945
C 15.88914 27.78319 0.01416
C 15.9341 26.29633 0.03542
C 14.37941 24.16949 0.00244
C 13.18762 12.53747 -0.00891
C 18.32305 27.67185 -0.02162
C 17.16261 25.57529 -0.00481
C 19.57712 25.4228 0.04892
C 19.494 24.07481 -0.00111
C 20.79197 23.39138 -0.03557
C 20.89899 22.00835 0.03754
C 19.64448 21.33663 0.01739
C 19.71595 19.9175 0.00755
C 20.94903 19.10247 -0.0054
C 20.96814 17.66801 0.00667
C 19.78632 16.94686 0.00143
C 19.92148 15.44363 -0.017
C 21.14733 14.69721 0.00364
C 20.9804 6.34555 -0.00831
C 20.84221 4.90824 -0.02957
C 19.54713 4.30555 -0.04422
C 19.60838 2.80521 0.00654
C 20.90063 2.12886 -0.00703
C 20.85606 0.71473 -0.04076
C 19.61411 34.05695 -0.00652
C 22.04 32.6224 0.0058
C 20.8191 26.18793 0.01452
C 18.37459 26.23282 0.00889
C 20.75799 27.65305 -0.01581
C 19.55116 29.7349 -0.01979
C 17.02175 24.10526 0.00979
C 18.27743 23.3408 0.01443
C 18.34913 21.92021 0.03505
C 17.175 21.28137 -0.02815
C 17.20031 19.92568 -0.04147
C 18.5629 19.22675 -0.05302
C 18.55644 17.72671 0.00213
C 17.16322 17.09069 -0.00066
C 17.38423 15.68002 -0.00289
C 18.6141 15.15758 0.00028
C 18.29018 4.81931 -0.02213
C 17.07452 4.22214 0.03698
C 17.12282 2.76053 -0.00109
C 18.3099 2.06684 -0.00491
C 18.31664 0.66303 0.03338
C 17.11826 0.01396 -0.0258
C 19.55875 32.59331 -0.0331
C 20.78219 31.86451 -0.00316
C 20.75358 30.46445 0.02188
C 19.49569 28.36508 0.02691
C 23.27298 31.89652 -0.00865
C 12.89088 24.15799 -0.01046
C 13.49388 26.27563 -0.01536
C 6.16329 31.98495 0.01227
C 6.15285 30.50224 0.00873
C 4.80226 29.7522 -0.00049
C 4.78639 28.39373 0.00848
C 6.00085 27.592 -0.01303
C 6.00956 26.0404 -0.01378
C 4.76923 25.68571 0.02635
C 4.68847 11.56485 0.0127
C 5.98966 11.13696 0.01396
C 6.09584 9.50192 0.01849
C 4.93835 8.76361 -0.01142
C 4.91907 7.28778 -0.00562
C 6.16308 6.5481 -0.00494
C 6.16295 5.14864 0.00054
C 4.93074 4.29678 0.03007
C 4.91117 2.92198 -0.00095
C 6.12175 2.24824 0.01572
C 6.19314 0.74916 -0.04848
C 4.90136 0.08865 -0.00892
C 4.8565 32.76148 -0.03337
C 7.3931 32.70382 -0.01362
C 2.43661 0.059 -0.00966
C 3.64654 2.27898 0.03368
C 3.59046 30.56127 -0.03996
C 2.3839 29.91871 0.01465
C 2.35856 28.45414 -0.00074
C 3.5847 27.75689 -0.00518
C 3.57703 26.37793 0.0086
C 2.30597 25.65271 -0.00643
C 2.67798 24.31179 0.017
C 4.05521 24.19225 -0.03113
C 4.0463 12.81476 -0.02566
C 2.57217 12.7743 -0.00094
C 2.26958 11.37331 0.02322
C 3.47808 10.67937 -0.00725
C 3.64177 9.42323 -0.05697
C 2.54786 8.60705 0.01087
C 2.4835 7.12355 -0.01343
C 3.75967 6.51331 0.00988
C 3.63412 5.02268 0.0276
C 2.37113 4.29807 0.01305
C 2.4263 2.90215 -0.00077
C 3.65067 0.84071 -0.02929
C 12.42972 25.33123 -0.02689
C 8.60623 31.93862 -0.0008
C 7.33957 29.80229 0.00393
C 9.84167 25.50617 0.01641
C 9.81668 11.59213 -0.00719
C 11.10552 11.13381 0.01364
C 11.10436 9.55522 -0.01062
C 9.84964 8.84442 -0.00033
C 9.90885 7.35738 0.03589
C 11.03578 6.47694 -0.02759
C 11.03682 5.00958 0.0402
C 9.72647 4.38676 0.00572
C 9.7886 3.03389 0.03592
C 11.0547 2.21234 0.00406
C 11.09869 0.78725 0.00943
C 9.88492 0.14279 0.02841
C 12.21989 32.62483 -0.01111
C 13.43443 31.98732 -0.01275
C 13.39643 30.55105 0.00985
C 12.16051 29.78414 -0.02245
C 12.223 28.31574 -0.00428
C 13.49193 27.59801 0.03101
C 11.12852 25.98477 0.02339
C 8.59138 30.43453 0.0288
C 11.12089 27.52156 -0.00334
C 9.78619 29.72977 0.00057
C 7.26145 28.30021 0.00895
C 8.54557 27.54792 0.00685
C 8.52755 26.00506 0.02888
C 7.27712 25.47018 -0.00482
C 7.22589 11.55811 -0.01384
C 8.49042 10.99551 0.03693
C 8.60522 9.54201 0.01745
C 7.30876 8.827 0.00488
C 7.32644 7.38203 -0.01004
C 8.64506 6.72432 -0.02896
C 8.53262 5.1945 -0.00131
C 7.3559 4.41213 -0.01118
C 7.32635 2.97302 -0.014
C 8.5702 2.1802 0.02147
C 8.61753 0.80194 0.00373
C 7.45529 0.04758 -0.00191
C 9.85208 32.69813 0.00438
C 11.00843 31.9329 0.01291
C 10.98428 30.50808 0.00093
C 9.80831 28.30797 -0.01634
C 23.24835 30.50431 0.00675
C 21.93955 29.7656 -0.00311
C 21.9904 28.26144 0.00742
C 30.66516 0.71163 0.00307
C 29.43222 0.01566 0.00346
C 31.87241 32.73229 0.01713
C 33.10504 31.97983 -0.01694
C 33.08499 30.56146 0.01428
C 31.87365 29.82859 -0.02142
C 31.87658 28.44347 0.0544
C 33.08816 27.77665 0.00026
C 33.11671 26.27893 0.00682
C 31.91516 25.60804 -0.01779
C 31.96318 24.2157 0.03794
C 33.16329 23.49825 0.01927
C 33.22079 22.07166 0.01574
C 32.04105 21.29426 -0.02383
C 32.03634 19.87029 -0.01429
C 33.28071 19.15455 -0.0136
C 33.26723 17.75137 0.00594
C 32.05092 17.10609 -0.02474
C 32.07072 15.58012 0.00369
C 30.69283 2.15901 0.00716
C 33.27087 14.84713 0.00455
C 29.48476 2.8508 0.02108
C 30.74155 4.99562 0.07705
C 29.43595 25.54414 0.03265
C 29.45224 24.02191 -0.02049
C 30.75757 23.40502 -0.01854
C 30.74137 21.97639 -0.01415
C 29.55126 21.30607 -0.03039
C 29.54134 19.80994 0.01836
C 30.76905 19.18286 0.03531
C 30.78024 17.7804 -0.00669
C 29.50765 17.01253 0.0101
C 29.5436 15.5551 0.01705
C 30.81585 14.92898 -0.0405
C 30.77619 13.54853 -0.01303
C 29.50028 12.79369 -0.01461
C 29.54936 11.31958 -0.02155
C 30.73929 10.61768 -0.00944
C 30.77787 9.27889 -0.03735
C 29.54462 8.45617 -0.00971
C 29.5225 7.11188 0.01518
C 30.71695 6.40582 0.01908
C 29.44672 4.27198 0.0103
C 30.63625 26.35904 0.00261
C 33.29685 13.4019 -0.00644
C 31.94767 11.38439 0.00137
C 0.09799 19.99045 0.01951
C 1.13386 19.00576 -0.01678
C 1.195 17.85638 0.01223
C 0.14651 17.02569 0.00648
C 0.02309 15.64382 0.02114
C 1.22782 14.89309 -0.02957
C 1.46294 13.49782 0.00343
C 0.09045 12.72115 -0.02656
C 34.40237 11.35683 -0.02442
C 1.17539 10.614 -0.00027
C 1.22046 9.14775 -0.00583
C 34.43089 8.49147 -0.02302
C 34.36412 7.14399 -0.02849
C 1.1371 6.41918 0.02931
C 1.10554 5.04477 0.00628
C 34.35983 4.20731 -0.0345
C 34.38473 2.85397 -0.00931
C 1.1975 2.13562 -0.00939
C 1.19585 0.75297 -0.00468
C 0.12236 21.38292 -0.02213
C 31.92436 12.8431 -0.01839
C 1.35549 22.11239 0.02712
C 34.40093 24.17919 0.03076
C 33.1415 10.69813 0.00199
C 33.26412 9.28663 0.04381
C 32.03114 8.52034 0.02806
C 31.9467 7.1695 0.01504
C 33.16282 6.37988 -0.00069
C 33.1609 4.92372 0.04926
C 31.92189 4.18826 -0.03838
C 31.95185 2.84326 0.00349
C 33.12892 2.16741 -0.00323
C 33.10386 0.73058 -0.00841
C 31.90082 0.04987 0.0001
C 34.28436 32.74393 -0.02927
C 1.11959 32.08213 -0.01404
C 1.1326 30.63866 0.01027
C 34.31894 29.82559 0.01831
C 34.33446 28.45564 -0.01037
C 1.14754 27.74797 -0.00439
C 1.11343 26.3374 -0.00598
C 34.31694 25.59819 -0.05239
C 1.37567 23.47605 0.00723
C 30.53147 27.70894 0.02326
C 29.34566 28.45311 0.00924
C 29.41732 29.8518 0.0014
C 25.71054 31.94964 0.01153
C 25.65265 30.47042 0.02734
C 24.45038 29.76366 -0.0055
C 24.44317 28.37692 0.01515
C 25.69401 27.61954 -0.00225
C 25.72061 26.23432 0.00071
C 24.51795 25.46513 -0.01107
C 24.48368 24.10989 -0.01586
C 25.74402 23.41362 -0.01971
C 25.81511 21.94427 -0.02118
C 24.51946 21.30331 0.00733
C 24.66451 19.81635 -0.00178
C 25.90322 19.09 0.00768
C 25.8861 17.67288 -0.0276
C 24.58138 16.99604 0.03005
C 24.60206 15.50269 -0.04078
C 25.84105 14.8195 0.02117
C 25.85263 13.43452 0.02737
C 24.46255 12.64451 -0.00498
C 24.42876 32.70031 0.02239
C 24.51019 11.23807 0.00135
C 22.0541 34.03408 -0.03213
C 23.27169 2.14294 0.03374
C 23.26449 27.59647 -0.01594
C 23.29611 26.19432 0.0106
C 22.05068 25.53769 -0.01154
C 22.08412 24.10428 -0.01721
C 23.21945 23.41365 -0.02422
C 23.24532 21.97489 0.01277
C 22.10058 21.1829 0.00096
C 22.15956 19.74562 -0.01527
C 23.42955 19.15341 0.01087
C 23.33565 17.73767 0.00199
C 22.16788 16.98419 0.01511
C 22.24117 15.57892 -0.00478
C 23.4291 14.82826 -0.01662
C 23.38917 13.43371 -0.01185
C 21.96436 6.99302 0.01126
C 23.34053 6.48833 0.01852
C 23.33165 4.98098 -0.00381
C 22.11391 4.26481 0.03046
C 22.10367 2.87261 0.0296
C 23.24855 0.68308 -0.02845
C 25.8341 10.62764 0.03102
C 25.85365 9.21139 0.02555
C 24.62725 8.65215 0.01423
C 27.0483 15.54386 -0.00294
C 28.28544 14.85151 0.00152
C 28.33811 13.49091 0.01257
C 27.06141 12.75631 0.02316
C 27.09506 11.30054 0.04185
C 28.30115 10.54758 0.00194
C 28.33219 9.17685 -0.00621
C 27.13988 8.47729 0.02611
C 26.97813 7.07553 0.02198
C 28.35827 6.3145 0.01094
C 28.28161 4.96354 0.00235
C 27.00197 4.26628 0.01495
C 27.00362 2.83786 0.01259
C 28.21498 2.08055 0.01799
C 28.23464 0.64163 0.01699
C 26.90088 0.03614 -0.00416
C 29.41869 32.66867 0.01177
C 30.66397 32.0016 0.04266
C 30.59189 30.63532 0.01324
C 27.05475 16.93133 0.00826
C 28.30772 17.71397 0.00487
C 28.31013 19.19027 -0.00942
C 27.07202 19.84819 -0.02815
C 24.51799 7.23664 -0.00285
C 25.67969 6.44793 -0.009
C 25.72755 4.97484 -0.01199
C 24.47446 4.25003 -0.00229
C 24.57902 2.83835 -0.00938
C 25.76594 2.15167 -0.0264
C 25.7226 0.68833 -0.01154
C 24.43552 34.0376 0.00684
C 26.87574 32.68981 -0.01052
C 3.59768 31.98306 0.01996
C 28.2105 31.92888 -0.01679
C 26.91647 29.78315 0.04306
C 26.87034 28.34055 0.00996
C 28.16021 27.71215 0.00195
C 28.16839 26.25688 -0.00802
C 26.93214 25.53069 -0.00218
C 26.85991 24.12165 -0.01654
C 28.14431 23.38641 -0.00037
C 28.26919 22.0322 -0.0032
C 26.97346 21.27236 0.00622
C 28.14402 30.52987 0.00367
C 2.36448 32.78223 -0.00279
