340
Graphene
C 0.02079 0.04816 0.01295
C 13.58832 30.49407 -0.00619
C 12.24061 29.9019 -0.02162
C 12.28573 28.45443 0.00889
C 13.53713 27.68284 -0.00481
C 13.58221 26.32932 0.00979
C 12.32613 25.58259 0.01443
C 12.22738 24.10845 0.03505
C 13.47827 23.40919 -0.02815
C 13.47551 21.90117 -0.04147
C 12.28341 21.27961 -0.05302
C 12.35857 19.91267 0.00213
C 13.57199 19.12421 -0.00066
C 13.60897 17.71622 -0.00289
C 12.36195 17.01889 0.00028
C 12.29485 15.70085 -0.02213
C 13.53362 14.86816 0.03698
C 13.52319 13.40316 -0.00109
C 13.46627 31.90975 0.01848
C 12.35135 12.68084 -0.00491
C 12.23124 32.61542 0.02098
C 11.0364 0.74085 0.0351
C 11.08528 19.11349 -0.01717
C 11.05317 17.78634 0.05265
C 9.70348 17.06666 -0.01952
C 9.89708 15.64165 -0.02813
C 11.08409 14.93688 0.00374
C 11.09303 13.50344 0.00052
C 9.90324 12.80153 -0.03682
C 9.79328 11.40626 0.01965
C 11.08201 10.6357 0.02058
C 11.09251 9.25629 -0.01957
C 9.87599 8.61584 -0.0108
C 9.81887 7.13174 -0.00368
C 11.04734 6.45438 -0.02696
C 11.07486 4.91214 -0.00114
C 9.84033 4.25491 0.00228
C 9.85545 2.8699 0.00798
C 11.14767 2.12739 0.00422
C 9.81385 34.02006 -0.03113
C 12.28609 11.35763 0.03338
C 13.53957 10.5998 -0.0258
C 13.46042 9.20636 -0.0331
C 14.77796 17.03696 -0.04076
C 14.90781 15.65056 -0.00652
C 15.99573 14.91048 0.0058
C 16.04397 13.53272 -0.00865
C 14.71893 12.86271 0.00675
C 14.74718 11.38721 -0.00311
C 15.96309 10.56688 0.00742
C 16.00249 9.16629 -0.01594
C 14.75944 8.56004 0.0106
C 14.74753 7.0808 -0.01154
C 15.92596 6.4039 -0.01721
C 15.95599 4.99285 -0.02422
C 14.76015 4.2393 0.01277
C 14.80686 2.88991 0.00096
C 15.98559 2.08667 -0.01527
C 16.01754 0.7026 0.01087
C 14.78602 34.06281 0.00199
C 14.77714 19.80202 -0.00703
C 14.73478 21.28196 0.00654
C 15.92289 22.00354 -0.04422
C 16.04531 23.36533 -0.02957
C 12.30039 8.48857 -0.00316
C 12.27163 7.14093 0.02188
C 13.47881 6.39964 -0.01979
C 13.48713 4.98258 0.02691
C 12.24378 4.31287 -0.01581
C 12.28448 2.88614 0.01452
C 13.50418 2.14225 0.04892
C 13.56912 0.66489 -0.00111
C 9.86435 19.86383 0.00244
C 12.30833 0.0144 -0.03557
C 15.97728 31.98025 0.01739
C 16.03586 30.54365 0.00755
C 14.775 29.81641 -0.0054
C 14.76834 28.34605 0.00667
C 15.9639 27.65236 0.00143
C 15.99476 26.25544 -0.017
C 14.80476 25.59569 0.00364
C 14.71758 24.15881 -0.00831
C 14.71908 32.65434 0.03754
C 17.16338 32.68549 0.01511
C 9.83803 21.28615 0.02299
C 10.97488 23.43939 0.01416
C 2.45581 0.02714 -0.00482
C 4.96651 32.63362 -0.01384
C 6.11931 31.91417 0.03693
C 6.11981 30.45745 0.01745
C 4.85855 29.80113 0.00488
C 4.89624 28.38757 -0.01004
C 6.0872 27.68956 -0.02896
C 6.1817 26.27239 -0.00131
C 4.98707 25.59312 -0.01118
C 4.87259 24.1887 -0.014
C 6.16589 23.39951 0.02147
C 6.12549 22.02628 0.00373
C 4.92427 21.32391 -0.00191
C 4.94081 19.9036 0.00438
C 6.17955 19.11981 0.01291
C 6.17527 9.22751 0.00093
C 4.88274 8.60632 0.00057
C 3.65778 0.7216 0.02888
C 4.92078 7.1091 -0.01634
C 3.68888 2.1971 0.00685
C 2.49046 4.22635 0.00393
C 3.69488 30.57811 -0.01378
C 2.48549 29.86083 0.02635
C 2.46583 28.43578 0.0127
C 3.61746 27.76219 0.01396
C 3.72479 26.30658 0.01849
C 2.45694 25.53319 -0.01142
C 2.42807 24.12197 -0.00562
C 3.63562 23.45273 -0.00494
C 3.72968 21.94797 0.00054
C 2.52871 21.30936 0.03007
C 2.46047 19.84608 -0.00095
C 3.76791 19.17138 0.01572
C 3.65951 9.1854 -0.04848
C 2.41393 8.51218 -0.00892
C 2.40312 7.17066 -0.01362
C 3.682 6.41847 -0.0008
C 3.73818 4.95827 0.0288
C 2.45243 2.88276 0.00895
C 6.19009 6.37415 -0.00334
C 6.12723 4.94373 0.02339
C 4.98283 4.24864 0.01641
C 7.30594 7.06334 0.02819
C 8.59043 6.4832 0.00165
C 8.56451 5.04106 -0.02971
C 7.36279 4.29169 0.02894
C 7.41297 2.8836 -0.01789
C 8.60747 2.0572 0.00444
C 8.64886 0.70279 -0.00925
C 7.39905 0.05757 0.01877
C 9.82873 32.67052 0.01363
C 11.03602 31.9345 -0.02162
C 11.01077 30.48291 0.00415
C 9.8144 29.78514 -0.0014
C 9.88879 28.39942 0.02162
C 11.08263 27.66117 0.0076
C 11.0804 26.28861 0.01241
C 9.84052 25.62767 -0.01454
C 9.78361 24.17001 0.01945
C 7.45226 8.51906 -0.00891
C 8.68708 9.2614 -0.01046
C 8.64746 10.69544 -0.02689
C 8.52356 17.64322 -0.01536
C 4.90107 2.8392 -0.00719
C 6.11188 2.16106 0.01364
C 6.08933 0.66768 -0.01062
C 4.91858 34.06359 -0.00033
C 7.35649 32.69154 0.03589
C 8.58331 31.9754 -0.02759
C 8.6334 30.47076 0.0402
C 7.35821 29.85538 0.00572
C 11.05249 22.05274 0.03542
C 7.39565 28.4379 0.03592
C 8.59761 26.27022 0.00943
C 7.38494 25.57013 0.02841
C 7.4015 24.1879 -0.01111
C 8.59016 23.45107 -0.01275
C 8.58555 22.0684 0.00985
C 7.4203 21.31407 -0.02245
C 7.37667 19.92718 -0.00428
C 8.59087 19.18433 0.03101
C 8.64257 27.75082 0.00406
C 18.37504 32.03631 -0.00478
C 18.4038 30.58987 -0.01662
C 17.23077 29.82298 -0.01185
C 30.67999 2.1344 -0.02142
C 30.75684 0.74726 0.0544
C 29.53874 34.07697 0.00026
C 31.97307 32.64639 0.00682
C 33.17695 32.00792 -0.01779
C 33.18004 30.58243 0.03794
C 32.00418 29.83452 0.01927
C 31.92279 28.3962 0.01574
C 33.16493 27.72934 -0.02383
C 33.20125 26.25761 -0.01429
C 32.00216 25.54818 -0.0136
C 31.91405 24.19911 0.00594
C 33.15839 23.46093 -0.02474
C 33.2753 22.07463 0.00369
C 32.01199 21.25231 0.00455
C 31.95926 19.89568 -0.00644
C 33.15397 19.15147 -0.01839
C 29.55044 2.81986 0.01428
C 33.1607 17.78434 0.00137
C 30.69957 13.45326 -0.01694
C 29.4165 15.63163 0.00346
C 27.02501 34.01205 -0.00669
C 29.49587 32.7114 0.0101
C 30.67793 31.95686 0.01705
C 30.77166 30.56727 -0.0405
C 29.52648 29.79024 -0.01303
C 29.50839 28.38836 -0.01461
C 30.73411 27.70864 -0.02155
C 30.80461 26.28276 -0.00944
C 29.56241 25.60069 -0.03735
C 29.49094 24.12922 -0.00971
C 30.71175 23.44418 0.01518
C 30.74932 22.00527 0.01908
C 29.4194 21.34911 0.07705
C 29.58759 19.87133 0.0103
C 30.74555 19.12297 0.02108
C 30.78225 17.70806 0.00716
C 29.51556 17.06252 0.00307
C 30.72165 14.90698 0.01713
C 31.99578 17.02485 0.00199
C 31.94316 15.60368 0.04381
C 33.20647 14.91157 0.02806
C 34.40476 19.89777 0.01223
C 1.27041 19.17764 0.00648
C 1.22889 17.67719 0.02114
C 0.05814 16.98 -0.02957
C 34.42125 15.62073 0.00343
C 34.38518 12.82328 -0.02656
C 34.42241 11.32221 -0.02442
C 1.16183 10.64526 -0.00027
C 1.24086 9.17912 -0.00583
C 34.40784 8.50451 -0.02302
C 34.34047 7.1391 -0.02849
C 1.18361 6.36144 0.02931
C 1.17999 4.98891 0.00628
C 34.41559 4.245 -0.0345
C 0.01855 2.76804 -0.00931
C 1.28336 2.1205 -0.00939
C 1.24331 0.76411 -0.00468
C 0.072 21.27693 -0.01678
C 1.25794 21.9357 0.01951
C 1.22401 23.42834 -0.02213
C 0.03122 24.12009 0.02712
C 33.15519 13.46196 0.01504
C 31.92279 12.79774 -0.00069
C 33.20075 10.66346 0.04926
C 33.20415 6.41135 -0.03838
C 33.19156 5.07722 0.00349
C 31.96347 4.23898 -0.00323
C 32.00332 2.90464 -0.00841
C 33.17369 2.14833 0.0001
C 28.2867 0.6893 0.03531
C 33.19898 0.7034 -0.02927
C 0.0511 32.71536 0.01027
C 1.26564 31.94968 0.01831
C 1.20574 30.47662 -0.01037
C 34.42505 29.86478 -0.00439
C 0.01019 28.42628 -0.00598
C 1.26716 27.76407 -0.05239
C 1.18883 26.19913 0.03076
C 34.38667 25.53461 0.00723
C 31.9651 34.07292 -0.01404
C 28.3624 2.16026 0.01836
C 26.98864 2.77952 -0.03039
C 28.2118 14.96616 -0.01415
C 19.64669 28.36589 -0.0276
C 20.86504 27.70038 0.03005
C 20.88582 26.1528 -0.04078
C 19.63192 25.66931 0.02117
C 19.68846 11.41387 0.02737
C 20.91736 10.71585 -0.00498
C 20.91561 9.21765 0.00135
C 19.61567 8.49663 0.03102
C 19.59919 7.09719 0.02555
C 20.91109 6.40744 0.01423
C 20.96244 4.91425 -0.00285
C 19.68149 4.25355 -0.009
C 19.62206 2.88904 -0.01199
C 20.90676 2.17209 -0.00229
C 20.88579 0.78813 -0.00938
C 19.65384 0.02429 -0.0264
C 22.0938 32.65261 -0.01154
C 19.66162 29.87179 0.00768
C 20.92645 30.52785 -0.00178
C 20.91318 31.94743 0.00733
C 19.6406 32.63884 -0.02118
C 17.18984 28.38212 0.01126
C 18.43398 27.7063 0.01852
C 18.41981 26.33369 -0.00381
C 17.23199 25.47829 0.03046
C 17.22676 24.11634 0.0296
C 17.12099 12.72544 0.03374
C 17.21644 11.37734 -0.02845
C 18.51215 10.6877 -0.03213
C 23.29074 31.8811 0.00684
C 18.42364 9.22511 0.02239
C 17.22159 7.09028 0.02734
C 18.40225 6.33148 -0.0055
C 18.41102 4.97701 0.01515
C 17.2284 4.23816 -0.00225
C 17.22557 2.82983 0.00071
C 18.47184 2.14676 -0.01107
C 18.41842 0.69662 -0.01586
C 17.23308 34.0177 -0.01971
C 17.21695 8.47837 0.01153
C 3.64652 31.96436 -0.01303
C 23.3871 30.5219 -0.01052
C 22.19048 28.36676 0.00367
C 24.60168 25.62226 0.01094
C 24.49834 4.21829 0.00235
C 24.52642 2.82829 0.01495
C 25.82808 2.07166 0.01259
C 25.79435 0.70186 0.01799
C 24.62251 34.07835 0.01699
C 27.04648 32.639 -0.00416
C 28.18685 31.94009 0.01177
C 28.22046 30.46072 0.04266
C 27.06703 29.78631 0.01324
C 27.07851 28.36674 0.0014
C 28.32878 27.62475 0.00924
C 28.33114 26.21329 0.02326
C 27.08862 25.51737 0.00261
C 27.03809 24.15558 0.03265
C 28.26895 23.31931 -0.02049
C 28.25428 21.9584 -0.01854
C 25.80335 26.29188 0.02198
C 25.88681 27.63762 0.02611
C 24.69636 28.35645 -0.00621
C 24.57821 29.76649 0.00194
C 23.37838 27.69333 0.04306
C 23.37386 26.24591 0.00996
C 22.13525 25.55541 0.00195
C 22.27425 11.34459 -0.00802
C 23.26752 10.63049 -0.00218
C 23.36069 9.31981 -0.01654
C 22.2011 8.52774 -0.00037
C 22.21878 7.11424 -0.0032
C 22.16645 29.83956 -0.01679
C 23.3571 6.42914 0.00622
C 22.18073 4.1586 -0.00942
C 22.1139 2.83768 0.00487
C 23.35941 2.15053 0.00826
C 23.33052 0.7696 -0.00294
C 22.1047 0.01996 0.00152
C 24.58182 32.67468 0.01257
C 25.78112 31.96608 0.02316
C 25.80832 30.50742 0.04185
C 23.43626 5.01266 -0.02815
C 2.43884 32.73335 0.00848
