326
Graphene
C 0.00713 34.05811 0.01295
C 17.23728 28.39074 0.00213
C 18.42979 27.69454 -0.00066
C 18.46396 26.2628 -0.00289
C 17.19988 25.64597 0.00028
C 17.21118 24.30537 -0.02213
C 18.3671 23.5438 0.03698
C 18.42946 10.72239 -0.00109
C 17.19871 29.8033 -0.05302
C 18.33725 9.3014 -0.00491
C 17.29977 7.01038 -0.0258
C 18.53531 6.32891 -0.0331
C 18.4788 4.87589 -0.00316
C 17.25477 4.20481 0.02188
C 17.28281 2.81112 -0.01979
C 18.4384 2.13827 0.02691
C 18.48525 0.68032 -0.01581
C 17.33164 8.3811 0.03338
C 17.18563 0.00609 0.01452
C 18.46625 30.47863 -0.04147
C 17.14428 32.69038 0.03505
C 14.70191 29.82756 -0.00368
C 14.68669 28.40005 -0.02696
C 15.8899 27.6995 -0.00114
C 15.89542 26.32028 0.00228
C 14.74869 25.60383 0.00798
C 14.71906 24.16282 0.00422
C 15.92325 23.55925 0.0351
C 18.42099 31.94276 -0.02815
C 15.90665 22.11168 -0.03113
C 16.02177 6.32262 0.01848
C 15.91231 4.87017 -0.00619
C 14.71339 4.14045 -0.02162
C 14.7672 2.72436 0.00889
C 16.03425 2.15471 -0.00481
C 15.99369 0.66294 0.00979
C 14.741 34.06118 0.01443
C 14.75861 21.60735 0.02098
C 19.65084 32.60482 0.04892
C 20.83813 31.90648 -0.00111
C 20.90952 30.60252 -0.03557
C 23.36981 31.96721 0.0106
C 23.31796 30.54759 -0.01154
C 22.15396 29.85395 -0.01721
C 22.16376 28.3911 -0.02422
C 23.32429 27.61124 0.01277
C 23.39823 26.18835 0.00096
C 22.11413 25.68674 -0.01527
C 22.09861 32.65197 -0.01594
C 22.14638 24.20244 0.01087
C 23.23308 22.03417 0.01511
C 23.26931 14.86774 -0.00478
C 23.08263 13.42322 -0.01662
C 21.77479 12.75367 -0.01185
C 21.96686 11.41168 0.01126
C 23.30624 10.67831 0.01852
C 23.37868 9.32681 -0.00381
C 23.36084 23.42993 0.00199
C 19.67681 34.0082 0.00742
C 20.90164 0.68921 -0.00311
C 20.9327 2.0897 0.00675
C 19.65745 29.8444 0.03754
C 19.61536 28.40759 0.01739
C 20.87768 27.6181 0.00755
C 20.88217 26.22758 -0.0054
C 19.68002 25.54143 0.00667
C 19.63566 24.0494 0.00143
C 21.02215 23.49881 -0.017
C 19.78055 12.82857 0.00364
C 19.63383 11.44661 -0.00831
C 20.77186 10.71899 -0.02957
C 20.82647 9.2662 -0.04422
C 19.59828 8.52821 0.00654
C 19.65553 7.09595 -0.00703
C 20.8924 6.3927 -0.04076
C 20.932 4.94122 -0.00652
C 19.66669 4.22953 0.0058
C 19.64918 2.76831 -0.00865
C 15.92542 30.5708 -0.0108
C 15.96689 32.00059 -0.01957
C 14.74178 32.66982 0.02058
C 12.30948 0.08503 0.01965
C 6.05274 23.57739 0.01291
C 6.0986 22.16833 0.00093
C 4.90836 21.39745 0.00057
C 4.82166 19.88411 -0.01634
C 4.7409 2.81739 -0.00334
C 6.09194 2.27697 0.02339
C 6.16291 0.82765 0.01641
C 4.78768 24.21406 0.00438
C 5.0298 34.0768 -0.00719
C 8.64551 31.93523 -0.01062
C 8.63542 30.51319 -0.00033
C 7.35991 29.83919 0.03589
C 7.39279 28.4419 -0.02759
C 8.58489 27.68208 0.0402
C 8.48853 26.22925 0.00572
C 7.22112 25.56355 0.03592
C 7.42309 32.71261 0.01364
C 4.78041 25.74431 -0.00191
C 6.02161 26.31372 0.00373
C 6.11659 27.77721 0.02147
C 2.2805 28.69341 -0.01362
C 3.5117 26.32717 -0.0008
C 2.35645 25.59869 0.0288
C 2.40842 24.22687 0.00393
C 3.63958 23.49848 0.00895
C 3.62633 22.11161 0.00685
C 2.40612 21.35687 0.02888
C 2.38108 19.87584 -0.00482
C 3.68148 19.33484 -0.01384
C 2.66279 4.16895 0.03693
C 2.47928 2.74443 0.01745
C 3.66211 1.97287 0.00488
C 3.76669 0.62516 -0.01004
C 2.48911 34.02927 -0.02896
C 5.06699 32.69764 -0.00131
C 6.19384 31.95968 -0.01118
C 6.15563 30.5067 -0.014
C 7.32766 24.11773 0.00406
C 22.0425 8.54979 0.03046
C 8.55496 23.34271 0.00943
C 7.32041 21.39153 -0.01111
C 13.49445 31.87075 0.02162
C 13.43453 30.47563 0.0076
C 12.23076 29.78921 0.01241
C 12.15936 28.43432 -0.01454
C 13.45034 27.69722 0.01945
C 13.47331 26.27265 0.01416
C 12.31746 25.58235 0.03542
C 12.24088 32.71264 -0.0014
C 12.32809 24.11573 0.02299
C 13.55603 22.13815 -0.01717
C 12.36824 21.25284 0.05265
C 12.74138 19.86321 -0.01952
C 13.72089 19.17722 -0.02813
C 12.41423 2.91802 0.00374
C 13.54229 2.13222 0.00052
C 13.51556 0.74163 -0.03682
C 13.49775 23.44294 0.00244
C 9.8009 0.0669 0.00415
C 11.05576 0.7134 -0.02162
C 11.15951 2.27461 0.01363
C 7.33067 2.88366 -0.01275
C 8.52978 2.18135 0.00985
C 8.55092 0.73292 -0.02245
C 7.36763 0.06176 -0.00428
C 9.87087 32.71097 0.03101
C 11.02431 31.90598 -0.01536
C 11.06249 30.55308 -0.02689
C 9.83701 29.78924 -0.01046
C 9.79604 28.3428 -0.00891
C 11.02645 27.62984 0.02819
C 11.04447 26.27719 0.00165
C 9.76947 25.55743 -0.02971
C 9.80597 24.0464 0.02894
C 11.08192 23.5 -0.01789
C 11.06359 22.04482 0.00444
C 9.90448 21.45326 -0.00925
C 9.83712 2.74746 0.01877
C 8.59051 21.94454 0.02841
C 22.1384 7.12835 0.0296
C 23.39791 6.3905 0.03374
C 23.29093 4.9931 -0.02845
C 33.13105 30.59753 0.00682
C 31.86138 29.87665 -0.01779
C 31.82994 28.45474 0.03794
C 33.12107 27.748 0.01927
C 33.1521 26.36472 0.01574
C 31.99167 25.60241 -0.02383
C 32.00387 24.14621 -0.01429
C 33.10332 31.99514 0.00026
C 33.23652 23.52778 -0.0136
C 32.00816 21.3072 -0.02474
C 31.99526 19.86144 0.00369
C 33.17167 19.14735 0.00455
C 33.279 17.72737 -0.00644
C 31.98359 17.07094 -0.01839
C 31.8613 15.67343 0.00137
C 33.05535 15.013 0.00199
C 33.23455 22.06502 0.00594
C 31.93022 32.67665 0.0544
C 29.42735 0.0381 -0.02142
C 30.68417 0.69125 0.01428
C 30.78717 19.21069 -0.0405
C 30.71693 17.77571 -0.01303
C 29.48063 17.05965 -0.01461
C 29.42924 15.61275 -0.02155
C 30.71812 14.91454 -0.00944
C 30.67056 13.49868 -0.03735
C 29.39139 12.78306 -0.00971
C 29.42328 11.33013 0.01518
C 30.71027 10.59723 0.01908
C 30.71259 9.25217 0.07705
C 29.45449 8.44022 0.0103
C 29.53551 7.03454 0.02108
C 30.84282 6.39452 0.00716
C 30.80049 5.00299 0.00307
C 29.55085 4.25886 0.00346
C 29.55967 2.81434 0.01713
C 30.75708 2.12264 -0.01694
C 33.02671 13.55952 0.04381
C 29.52371 19.84378 0.01705
C 31.86439 12.82125 0.02806
C 33.04034 10.62221 -0.00069
C 0.00881 21.39889 0.00648
C 34.31276 19.95504 0.02114
C 1.09675 19.16682 -0.02957
C 1.25757 17.80692 0.00343
C 0.11574 16.98948 -0.02656
C 34.26692 15.63538 -0.02442
C 34.19114 12.77519 -0.00027
C 1.21322 22.10685 0.01223
C 34.1545 11.54883 -0.00583
C 0.11299 7.24556 -0.02849
C 1.2372 6.33809 0.02931
C 1.41387 4.93549 0.00628
C 0.12104 4.18051 -0.0345
C 0.04447 2.80635 -0.00931
C 1.25177 2.00118 -0.00939
C 1.17898 0.7043 -0.00468
C 0.06976 8.5887 -0.02302
C 1.13339 23.50631 -0.01678
C 34.40431 24.28636 0.01951
C 34.37891 25.66716 -0.02213
C 33.15955 9.17135 0.04926
C 31.9351 8.56803 -0.03838
C 32.06362 7.08153 0.00349
C 33.32312 6.43777 -0.00323
C 33.32451 5.01098 -0.00841
C 32.08683 4.3165 0.0001
C 31.96868 2.84287 -0.02927
C 33.17581 2.10546 -0.01404
C 33.19039 0.65181 0.01027
C 31.91748 34.04574 0.01831
C 0.03706 32.55987 -0.01037
C 1.29296 31.82432 -0.00439
C 1.28808 30.36263 -0.00598
C 34.40271 29.92409 -0.05239
C 34.31836 28.44938 0.03076
C 1.25461 27.85621 0.00723
C 1.15093 26.38011 0.02712
C 31.92499 11.37293 0.01504
C 3.70432 31.92127 -0.00892
C 29.55495 21.25819 0.0101
C 30.7311 23.45818 0.03531
C 24.40557 15.62026 0.00135
C 25.71969 14.95501 0.03102
C 25.62144 13.52718 0.02555
C 24.38814 12.84799 0.01423
C 24.44994 11.33699 -0.00285
C 25.69894 10.61596 -0.009
C 25.75177 9.23983 -0.01199
C 24.63721 17.07472 -0.00498
C 24.57384 8.50253 -0.00229
C 25.83775 6.39009 -0.0264
C 25.86799 4.96121 -0.01154
C 24.63768 4.29075 0.00684
C 24.63752 2.83513 -0.01052
C 25.78618 2.1489 -0.01679
C 25.81068 0.727 0.00367
C 24.56604 34.04801 0.04306
C 24.59701 7.0652 -0.00938
C 25.83784 17.70645 0.02737
C 25.92209 19.12156 0.02117
C 24.60352 19.60487 -0.04078
C 22.15406 4.23822 -0.03213
C 22.16144 2.85855 0.02239
C 23.32844 2.15174 0.01153
C 23.35992 0.70297 0.02734
C 22.08498 34.05212 -0.0055
C 24.58895 32.6495 0.01515
C 25.73821 31.91884 -0.00225
C 25.79124 30.49124 0.00071
C 24.55178 29.79646 -0.01107
C 24.58718 28.34856 -0.01586
C 25.81449 27.62375 -0.01971
C 25.73702 26.23121 -0.02118
C 24.57809 25.39559 0.00733
C 24.58817 24.05871 -0.00178
C 25.77162 23.25347 0.00768
C 25.69409 21.89617 -0.0276
C 24.40555 21.18196 0.03005
C 26.97134 32.68345 0.00996
C 30.76145 22.04094 -0.00669
C 28.14452 31.9533 0.00195
C 27.01417 29.80626 -0.00218
C 28.27781 6.39921 0.01799
C 28.33218 4.93769 0.01699
C 27.09158 4.27185 -0.00416
C 27.02245 2.8354 0.01177
C 28.20385 2.16614 0.04266
C 28.28743 0.75389 0.01324
C 26.97931 0.0155 0.0014
C 27.0196 7.04509 0.01259
C 29.42616 32.63405 0.00924
C 30.60472 30.58164 0.00261
C 29.42332 29.83989 0.03265
C 29.39737 28.37748 -0.02049
C 30.61551 27.74228 -0.01854
C 30.73479 26.31197 -0.01415
C 29.49546 25.59081 -0.03039
C 29.46747 24.12025 0.01836
C 30.65341 32.02298 0.02326
C 27.03119 8.47492 0.01495
C 28.22585 9.12532 0.00235
C 28.18269 10.60422 0.01094
C 27.02965 28.33778 -0.01654
C 28.24019 27.58262 -0.00037
C 28.2567 26.19308 -0.0032
C 27.03196 25.44055 0.00622
C 27.00377 24.0072 -0.02815
C 28.27665 23.35898 -0.00942
C 28.25506 21.94076 0.00487
C 27.00611 21.23851 0.00826
C 27.1209 19.85475 -0.00294
C 28.33198 19.19027 0.00152
C 28.29001 17.75188 0.01257
C 27.15775 17.03603 0.02316
C 26.94885 15.64629 0.04185
C 28.23068 14.91419 0.00194
C 28.16161 13.46134 -0.00621
C 26.86997 12.74046 0.02611
C 27.00837 11.35761 0.02198
C 28.19436 30.58256 -0.00802
C 2.49686 32.66516 -0.04848
