311
Graphene
C 0.02878 34.0618 0.01295
C 13.5827 31.98238 -0.00316
C 13.58622 30.50996 0.02188
C 12.31663 29.98938 -0.01979
C 13.62165 9.16861 0.02691
C 12.35105 8.62217 -0.01581
C 12.3151 7.188 0.01452
C 13.46098 6.33944 0.04892
C 13.43763 4.83141 -0.00111
C 12.24156 4.18233 -0.03557
C 12.3099 2.66616 0.03754
C 13.5608 2.1054 0.01739
C 13.52655 0.74548 0.00755
C 12.27723 34.01667 -0.0054
C 14.75097 32.7353 0.00667
C 16.03244 32.02668 0.00143
C 12.29713 32.64089 -0.0331
C 9.72445 0.03283 -0.0258
C 11.08168 0.55166 0.03338
C 11.07178 1.98211 -0.00491
C 8.65016 2.08838 -0.02162
C 8.56248 0.63066 0.00889
C 7.38948 34.00544 -0.00481
C 9.70666 32.64801 0.00979
C 10.98789 31.97518 0.01443
C 11.06574 30.5135 0.03505
C 9.79131 30.00487 -0.02815
C 16.04247 30.59393 -0.017
C 9.8786 11.33077 -0.04147
C 11.12651 9.30583 0.00213
C 9.80292 8.62188 -0.00066
C 9.80883 7.11795 -0.00289
C 11.07515 6.45378 0.00028
C 11.07018 5.01114 -0.02213
C 9.90543 4.16829 0.03698
C 9.90244 2.79844 -0.00109
C 10.92431 10.65905 -0.05302
C 7.37713 2.78843 -0.00619
C 14.75197 29.79074 0.00364
C 15.8754 27.713 -0.02957
C 17.2014 7.08215 0.01511
C 18.35739 6.37536 -0.00478
C 18.46216 4.95616 -0.01662
C 17.21919 4.20266 -0.01185
C 17.2066 2.82862 0.01126
C 18.51366 2.16737 0.01852
C 18.40224 0.78715 -0.00381
C 17.21031 0.10192 0.03046
C 19.63354 32.62651 0.0296
C 20.91355 31.97847 0.03374
C 20.89601 30.55868 -0.02845
C 19.68641 29.78741 -0.03213
C 19.63322 28.38733 0.02239
C 20.89834 27.70876 0.01153
C 20.90056 26.28582 0.02734
C 17.30048 8.69842 0.00199
C 18.5473 9.3345 0.01087
C 18.48233 23.36774 -0.01527
C 18.5056 26.33916 0.00096
C 16.05342 9.06812 -0.04422
C 14.79986 8.52087 0.00654
C 14.7202 7.02517 -0.00703
C 15.92508 6.35756 -0.04076
C 15.96434 4.91195 -0.00652
C 14.72384 4.28019 0.0058
C 14.80825 2.85811 -0.00865
C 14.8426 28.4318 -0.00831
C 16.01864 2.18443 0.00675
C 14.81023 0.00665 0.00742
C 17.18463 32.82384 -0.01594
C 18.38994 31.98604 0.0106
C 18.45598 30.54245 -0.01154
C 17.24989 29.80418 -0.01721
C 17.18253 28.34582 -0.02422
C 18.40697 27.67355 0.01277
C 15.92567 0.79926 -0.00311
C 19.57987 25.56425 -0.0055
C 7.38298 4.26051 0.01848
C 8.6331 6.37567 -0.03113
C 3.70022 9.28804 0.00572
C 2.42871 8.54593 0.03592
C 2.40149 7.1546 0.00406
C 3.58373 6.41118 0.00943
C 3.66085 4.99477 0.02841
C 2.46337 4.2459 -0.01111
C 2.47717 2.80198 -0.01275
C 3.72595 2.14481 0.00985
C 3.75661 0.68917 -0.02245
C 2.5334 34.06258 -0.00428
C 4.89872 32.5913 0.03101
C 6.12707 31.86368 -0.01536
C 6.12285 30.44967 -0.02689
C 4.87677 29.79192 -0.01046
C 4.87138 28.41255 -0.00891
C 3.71624 10.71186 0.0402
C 2.47566 11.35006 -0.02759
C 2.44988 12.82274 0.03589
C 3.7049 13.48985 -0.00033
C 3.65115 30.55154 -0.01118
C 2.47895 29.76361 -0.014
C 2.44285 28.40887 0.02147
C 3.70364 27.66953 0.00373
C 3.63506 26.26976 -0.00191
C 2.38417 25.59174 0.00438
C 2.50365 24.16562 0.01291
C 6.29139 27.69748 0.02819
C 3.66675 23.46898 0.00093
C 2.43704 21.32614 -0.01634
C 2.42437 19.9542 -0.00334
C 3.62517 19.22898 0.02339
C 3.68874 17.77183 0.01641
C 2.40248 17.05405 -0.00719
C 2.44272 15.65124 0.01364
C 3.64591 14.89256 -0.01062
C 3.6933 21.99587 0.00057
C 8.5984 4.95004 0.02098
C 6.14417 26.3234 0.00165
C 4.81835 24.18447 0.02894
C 4.94976 33.98717 -0.02813
C 7.26856 32.60897 0.00374
C 8.54318 32.00673 0.00052
C 8.58489 30.51586 -0.03682
C 7.4072 29.7969 0.01965
C 7.50491 28.48063 0.02058
C 7.30687 16.91553 -0.01957
C 7.46211 15.6524 -0.0108
C 8.6289 13.39339 -0.00368
C 7.39416 12.75958 -0.02696
C 7.38753 11.34924 -0.00114
C 8.61115 10.74519 0.00228
C 8.59278 9.34828 0.00798
C 7.38303 8.50835 0.00422
C 7.33884 7.06987 0.0351
C 6.23476 0.68576 -0.01952
C 6.14964 2.10188 0.05265
C 4.94984 2.87948 -0.01717
C 4.8786 4.31713 0.00244
C 4.79783 21.27477 -0.01789
C 4.99677 19.96374 0.00444
C 6.03336 19.10244 -0.00925
C 6.29811 17.82229 0.01877
C 4.87182 17.12 0.01363
C 4.92125 15.66131 -0.02162
C 6.29465 14.91047 0.00415
C 5.0005 25.52818 -0.02971
C 6.17864 13.57082 -0.0014
C 4.93351 11.44107 0.0076
C 6.09315 10.51838 0.01241
C 6.08036 9.18983 -0.01454
C 4.82681 8.44794 0.01945
C 4.83434 7.00551 0.01416
C 6.11598 6.4014 0.03542
C 6.12159 4.96231 0.02299
C 4.96828 12.84122 0.02162
C 3.6576 31.90012 -0.00131
C 19.56691 24.03349 0.01515
C 20.83009 22.02928 0.00071
C 33.21278 26.31187 0.01927
C 32.0165 25.57653 0.01574
C 31.99202 24.14803 -0.02383
C 33.22208 23.43225 -0.01429
C 33.23805 22.01462 -0.0136
C 31.86064 21.32816 0.00594
C 32.05712 19.96321 -0.02474
C 33.12627 19.21776 0.00369
C 33.3263 17.82548 0.00455
C 33.20004 14.87843 -0.00644
C 33.38458 13.62035 -0.01839
C 31.8087 11.44711 0.00137
C 33.13696 10.82818 0.00199
C 33.12805 9.34028 0.04381
C 31.93581 8.62327 0.02806
C 33.17796 27.68032 0.03794
C 31.96105 28.42073 -0.01779
C 31.96438 29.815 0.00682
C 33.16014 30.54377 0.00026
C 29.51759 24.24876 -0.00944
C 30.70796 23.44016 -0.03735
C 30.62552 22.09951 -0.00971
C 30.77913 10.73168 0.01518
C 30.63424 9.33289 0.01908
C 29.44273 8.60808 0.07705
C 29.49897 7.14553 0.0103
C 31.91309 7.12746 0.01504
C 30.63247 6.37717 0.02108
C 29.45865 4.28758 0.00307
C 29.43293 2.8261 0.00346
C 30.72635 2.11185 0.01713
C 30.68981 0.70723 -0.01694
C 29.48584 34.05237 0.01428
C 31.85111 32.71769 -0.02142
C 33.0607 32.00767 0.0544
C 30.73212 4.99869 0.00716
C 29.53291 25.63045 -0.02155
C 33.13325 6.37481 -0.00069
C 31.93365 4.15983 -0.03838
C 34.39031 15.63743 0.02114
C 1.21251 14.92549 -0.02957
C 1.24695 13.49613 0.00343
C 34.4227 12.86469 -0.02656
C 34.39998 11.39545 -0.02442
C 1.2039 10.66561 -0.00027
C 1.19799 9.25413 -0.00583
C 34.37987 8.584 -0.02302
C 34.35186 7.08503 -0.02849
C 1.13685 6.41296 0.02931
C 1.23788 4.99644 0.00628
C 34.40543 4.27494 -0.0345
C 34.42153 2.82703 -0.00931
C 1.1832 2.11676 -0.00939
C 1.22648 0.73787 -0.00468
C 34.4094 17.05277 0.00648
C 1.22574 17.79457 0.01223
C 1.26167 19.17302 -0.01678
C 0.06398 19.92814 0.01951
C 31.94875 2.74357 0.00349
C 33.21269 2.11474 -0.00323
C 33.23683 0.69258 -0.00841
C 31.95091 0.00625 0.0001
C 34.36522 32.68585 -0.02927
C 1.22436 31.8842 -0.01404
C 1.18443 30.528 0.01027
C 33.2116 4.95812 0.04926
C 34.42772 29.81997 0.01831
C 1.21507 27.70625 -0.00439
C 1.15046 26.23978 -0.00598
C 34.39841 25.51744 -0.05239
C 0.04211 24.15767 0.03076
C 1.26918 23.46707 0.00723
C 1.29502 22.04668 0.02712
C 0.04778 21.382 -0.02213
C 34.41543 28.42212 -0.01037
C 20.89636 23.33629 -0.00225
C 30.79836 26.30132 -0.01461
C 29.48744 28.37574 -0.0405
C 23.32035 23.41982 -0.00229
C 23.41927 9.14542 -0.00938
C 22.16263 8.69303 -0.0264
C 22.08653 7.17381 -0.01154
C 23.3531 6.49927 0.00684
C 23.35076 5.05034 -0.01052
C 22.11401 4.33143 -0.01679
C 22.10215 2.89695 0.00367
C 23.30288 2.16902 0.04306
C 23.35586 0.72515 0.00996
C 22.12412 0.02633 0.00195
C 24.59005 32.65806 -0.00802
C 25.86734 31.98712 -0.00218
C 25.82033 30.59715 -0.01654
C 24.59665 29.87556 -0.00037
C 22.15946 24.09754 -0.01199
C 22.07035 25.51798 -0.009
C 23.28736 26.25486 -0.00285
C 23.36302 27.70384 0.01423
C 20.62839 10.56745 -0.01107
C 20.81675 9.21327 -0.01586
C 19.60265 8.43247 -0.01971
C 19.6477 7.01203 -0.02118
C 20.91451 6.49729 0.00733
C 20.87751 5.01932 -0.00178
C 19.65572 4.30798 0.00768
C 24.62449 28.45539 -0.0032
C 19.69524 2.91646 -0.0276
C 20.9037 0.76119 -0.04078
C 19.65127 34.06522 0.02117
C 22.13525 32.61346 0.02737
C 23.32456 31.90173 -0.00498
C 23.36314 30.49918 0.00135
C 22.1671 29.80811 0.03102
C 22.18431 28.44571 0.02555
C 20.8951 2.13153 0.03005
C 30.76835 27.67817 -0.01303
C 25.82702 27.66509 0.00622
C 24.50006 25.5153 -0.00942
C 28.36038 23.52241 0.01324
C 28.20068 9.08014 0.0014
C 27.13878 8.47765 0.00924
C 26.92658 7.13561 0.02326
C 28.24711 6.4519 0.00261
C 28.28448 4.96568 0.03265
C 27.09489 4.27266 -0.02049
C 26.98165 2.75855 -0.01854
C 28.26263 2.10354 -0.01415
C 28.27339 0.7042 -0.03039
C 27.08917 34.06734 0.01836
C 29.4763 32.6724 0.03531
C 30.63379 31.92651 -0.00669
C 30.6986 30.47204 0.0101
C 29.42617 29.82389 0.01705
C 27.01808 23.99568 0.04266
C 27.07017 25.54572 0.01177
C 28.2811 26.28981 -0.00416
C 28.2457 27.66454 0.01699
C 24.60732 23.95921 0.00487
C 25.80688 23.40333 0.00826
C 24.43417 8.43263 -0.00294
C 24.6249 7.11625 0.00152
C 25.78166 6.32429 0.01257
C 25.86483 4.94977 0.02316
C 24.60222 4.27561 0.04185
C 25.8073 26.2508 -0.02815
C 24.56695 2.86153 0.00194
C 25.83314 0.62819 0.02611
C 24.60786 34.04804 0.02198
C 27.08121 32.68591 0.01094
C 28.20294 31.86016 0.00235
C 28.20067 30.42883 0.01495
C 26.95777 29.76086 0.01259
C 27.01983 28.33014 0.01799
C 25.74998 2.02325 -0.00621
C 2.40332 32.63772 -0.02896
