313
Graphene
C 0.01337 0.01724 0.01295
C 9.86087 25.53063 -0.0331
C 9.78396 24.20054 -0.00316
C 11.0595 23.44159 0.02188
C 11.11107 22.001 -0.01979
C 9.87577 21.36057 0.02691
C 9.86177 19.89829 -0.01581
C 11.03668 19.13325 0.01452
C 11.04751 17.73867 0.04892
C 9.84888 16.98713 -0.00111
C 9.82697 15.57997 -0.03557
C 11.13207 14.94644 0.03754
C 9.87994 2.79136 0.01739
C 11.05556 2.11602 0.00755
C 11.11341 0.68803 -0.0054
C 9.81357 0.05383 0.00667
C 11.08808 26.2504 -0.0258
C 11.04668 27.64424 0.03338
C 9.79816 28.35154 -0.00491
C 9.86882 29.7341 -0.00109
C 8.58743 14.9044 -0.00619
C 8.584 13.53798 -0.02162
C 7.38139 12.76379 0.00889
C 7.33098 11.39972 -0.00481
C 7.30685 8.54122 0.00979
C 7.41365 7.14821 0.01443
C 8.60592 6.35927 0.03505
C 12.32493 32.6554 0.00143
C 8.61195 4.98464 -0.02815
C 7.36592 2.87277 -0.05302
C 8.6056 2.11582 0.00213
C 8.61263 0.71385 -0.00066
C 7.38325 0.04707 -0.00289
C 9.868 32.66722 0.00028
C 11.07921 31.98196 -0.02213
C 11.07524 30.50303 0.03698
C 7.41152 4.2729 -0.04147
C 7.39462 15.616 0.01848
C 13.57767 31.93882 -0.017
C 12.30341 29.79591 -0.00831
C 18.4499 27.69516 0.00199
C 18.44338 0.67094 0.01511
C 17.18167 34.07695 -0.00478
C 19.67124 32.65065 -0.01662
C 20.94052 31.9427 -0.01185
C 20.93348 30.51783 0.01126
C 19.67496 29.80414 0.01852
C 19.66246 28.42445 -0.00381
C 20.90021 27.69243 0.03046
C 20.91269 2.08748 0.0296
C 20.89476 0.67359 0.03374
C 19.67951 0.01644 -0.02845
C 22.13181 32.63056 -0.03213
C 23.34833 32.00841 0.02239
C 23.38429 30.54391 0.01153
C 17.24087 28.3498 0.01087
C 17.23123 29.86679 -0.01527
C 18.41757 30.4794 0.00096
C 18.45759 31.93555 0.01277
C 12.30385 28.40879 -0.02957
C 13.54613 27.67804 -0.04422
C 13.48288 26.29776 0.00654
C 12.27568 25.51979 -0.00703
C 12.32159 15.57923 -0.04076
C 13.57332 0.70504 -0.00652
C 12.30164 0.01416 0.0058
C 13.51582 30.56241 0.00364
C 14.73123 32.65545 -0.00865
C 15.94103 30.55737 -0.00311
C 14.75747 29.83604 0.00742
C 14.77601 28.36402 -0.01594
C 16.01861 27.64999 0.0106
C 15.98663 0.7234 -0.01154
C 14.75299 0.01755 -0.01721
C 17.19254 32.67609 -0.02422
C 16.02707 31.96537 0.00675
C 7.37371 17.03352 0.02098
C 8.60219 17.70119 -0.03113
C 8.60113 19.13012 0.0351
C 3.68011 9.21624 -0.02759
C 2.48814 8.54504 0.0402
C 2.42845 7.09401 0.00572
C 3.64302 6.42362 0.03592
C 3.65514 4.99271 0.00406
C 2.44698 4.24006 0.00943
C 2.41813 2.86013 0.02841
C 3.67983 2.1368 -0.01111
C 3.71631 0.74059 -0.01275
C 2.45334 34.07835 0.00985
C 4.90903 32.63783 -0.02245
C 6.10902 31.95662 -0.00428
C 6.15318 30.52032 0.03101
C 4.87691 29.79157 -0.01536
C 4.92536 28.38462 -0.02689
C 3.70284 10.65668 0.03589
C 2.43227 11.39879 -0.00033
C 2.49223 12.80168 -0.01062
C 3.66899 13.51492 0.01364
C 3.66814 30.56844 -0.02896
C 2.46984 29.87223 -0.00131
C 2.48431 28.34057 -0.01118
C 3.6619 27.69981 -0.014
C 3.66406 26.28702 0.02147
C 2.44637 25.5711 0.00373
C 2.4636 24.17062 -0.00191
C 6.16983 27.74606 -0.01046
C 3.73566 23.39922 0.00438
C 2.4835 21.32223 0.00093
C 2.47721 19.88593 0.00057
C 3.69646 19.19552 -0.01634
C 3.67907 17.80035 -0.00334
C 2.47931 17.07485 0.02339
C 2.46605 15.6259 0.01641
C 3.70481 14.91686 -0.00719
C 3.64521 22.04272 0.01291
C 6.21007 26.2343 -0.00891
C 4.96919 25.56673 0.02819
C 4.91338 24.1492 0.00165
C 6.21082 2.10048 0.05265
C 6.13841 0.67945 -0.01952
C 4.87004 34.05698 -0.02813
C 7.36964 32.70076 0.00374
C 8.59051 31.94345 0.00052
C 8.65665 30.53129 -0.03682
C 7.37627 29.83715 0.01965
C 4.9584 2.83602 -0.01717
C 7.36869 28.35336 0.02058
C 8.6376 26.26512 -0.0108
C 7.34498 25.5324 -0.00368
C 7.37194 24.153 -0.02696
C 8.58608 23.4475 -0.00114
C 8.59794 22.03664 0.00228
C 7.39513 21.31491 0.00798
C 7.34209 19.86319 0.00422
C 8.6166 27.69621 -0.01957
C 22.11499 29.81706 0.02734
C 4.9303 4.27072 0.00244
C 6.12795 6.38936 0.03542
C 6.1293 23.41626 -0.02971
C 6.13613 21.99231 0.02894
C 4.93069 21.32384 -0.01789
C 4.91507 19.85869 0.00444
C 6.13799 19.18812 -0.00925
C 6.15464 17.78427 0.01877
C 4.91459 17.04184 0.01363
C 6.22328 4.9653 0.02299
C 4.95515 15.59867 -0.02162
C 6.17245 13.5253 -0.0014
C 4.90762 12.72944 0.02162
C 4.91202 11.32706 0.0076
C 6.12145 10.65558 0.01241
C 6.12809 9.17056 -0.01454
C 4.90979 8.52594 0.01945
C 4.89805 7.14582 0.01416
C 6.11303 14.93197 0.00415
C 3.66803 31.92677 -0.01004
C 22.11146 28.40372 -0.0055
C 23.34723 26.29045 -0.00225
C 33.24044 23.42824 0.01927
C 33.20834 21.98581 0.01574
C 32.01282 21.31003 -0.02383
C 31.99439 19.90347 -0.01429
C 33.2037 19.17701 -0.0136
C 33.16051 17.78253 0.00594
C 32.00498 17.04305 -0.02474
C 32.00522 15.61955 0.00369
C 33.21564 14.90195 0.00455
C 33.24921 13.4995 -0.00644
C 31.93286 12.83058 -0.01839
C 31.95155 11.35581 0.00137
C 33.19276 10.64938 0.00199
C 33.14193 9.23859 0.04381
C 31.98878 8.52932 0.02806
C 31.99028 24.14479 0.03794
C 31.97861 25.53729 -0.01779
C 33.17428 26.29244 0.00682
C 33.19226 27.73107 0.00026
C 30.76424 10.63048 -0.00944
C 30.71035 9.26206 -0.03735
C 29.47739 8.54004 -0.00971
C 29.52319 7.07891 0.01518
C 30.76629 6.40029 0.01908
C 30.72347 5.00813 0.07705
C 29.47356 4.25579 0.0103
C 31.9829 7.1542 0.01504
C 29.5324 2.82798 0.02108
C 30.74601 0.70491 0.00307
C 29.48914 34.05219 0.00346
C 31.95383 32.65157 0.01713
C 33.19562 31.96973 -0.01694
C 33.16276 30.52558 0.01428
C 31.95712 29.80718 -0.02142
C 31.9803 28.36208 0.0544
C 30.75196 2.14008 0.00716
C 29.50362 11.36026 -0.02155
C 33.20467 6.4205 -0.00069
C 31.97739 4.2442 -0.03838
C 34.41718 15.609 0.02114
C 1.22383 14.92193 -0.02957
C 1.25578 13.50213 0.00343
C 0.0169 12.7759 -0.02656
C 34.40302 11.36411 -0.02442
C 1.21064 10.68621 -0.00027
C 1.22572 9.22261 -0.00583
C 34.38916 8.55541 -0.02302
C 0.01994 7.10101 -0.02849
C 1.21868 6.33997 0.02931
C 1.24929 4.93281 0.00628
C 34.43014 4.24105 -0.0345
C 0.0058 2.84323 -0.00931
C 1.26524 2.14539 -0.00939
C 1.24794 0.70331 -0.00468
C 34.43242 17.00105 0.00648
C 1.21115 17.75587 0.01223
C 1.2725 19.2116 -0.01678
C 34.43188 19.84403 0.01951
C 31.99975 2.85017 0.00349
C 33.20663 2.12514 -0.00323
C 33.19503 0.70707 -0.00841
C 31.98099 34.05505 0.0001
C 34.39962 32.66445 -0.02927
C 1.25687 31.93984 -0.01404
C 1.21131 30.49723 0.01027
C 33.18452 4.98614 0.04926
C 34.40174 29.79877 0.01831
C 1.20989 27.67623 -0.00439
C 1.2341 26.27661 -0.00598
C 0.0035 25.55715 -0.05239
C 0.00722 24.14247 0.03076
C 1.22859 23.4702 0.00723
C 1.24352 22.01706 0.02712
C 34.42316 21.25481 -0.02213
C 0.01196 28.42908 -0.01037
C 29.52381 12.77722 -0.01461
C 30.72659 13.48828 -0.01303
C 30.79141 14.90812 -0.0405
C 25.84551 13.47386 -0.01199
C 24.55285 12.81108 -0.00229
C 24.63551 11.41865 -0.00938
C 25.8049 10.66199 -0.0264
C 25.87562 9.27479 -0.01154
C 24.56075 8.54204 0.00684
C 24.58339 7.06852 -0.01052
C 25.86146 6.37033 -0.01679
C 25.8403 5.00991 0.00367
C 24.63908 4.27295 0.04306
C 24.56413 2.8176 0.00996
C 25.82475 2.14971 0.00195
C 25.83169 0.73215 -0.00802
C 24.62066 0.06352 -0.00218
C 27.02283 32.62113 -0.01654
C 25.80624 14.89302 -0.009
C 24.60298 24.12048 -0.00285
C 24.62651 25.56592 0.01423
C 25.77347 26.22811 0.02555
C 23.30876 14.94291 0.00071
C 23.35641 13.46389 -0.01107
C 23.36268 10.6396 -0.01586
C 23.36148 6.37235 -0.01971
C 23.34139 5.00094 -0.02118
C 22.11886 4.29381 0.00733
C 22.12606 2.80669 -0.00178
C 28.28678 31.92694 -0.00037
C 23.31226 2.11271 0.00768
C 22.09793 0.0211 0.03005
C 24.56888 32.65872 -0.04078
C 25.8281 31.9361 0.02117
C 25.84752 30.53847 0.02737
C 24.60996 29.87673 -0.00498
C 24.60219 28.43714 0.00135
C 25.82291 27.70839 0.03102
C 23.35051 0.74726 -0.0276
C 28.29128 30.53964 -0.0032
C 27.04587 29.83789 0.00622
C 27.06842 28.37633 -0.02815
C 29.54836 32.64047 0.04266
C 30.72542 31.93151 0.01324
C 30.73594 30.51286 0.0014
C 29.50696 29.81091 0.00924
C 29.52748 28.41729 0.02326
C 30.72467 27.64858 0.00261
C 30.73757 26.22944 0.03265
C 26.98975 34.07058 0.01177
C 29.50966 25.51989 -0.02049
C 30.76241 23.45636 -0.01415
C 30.73964 21.9932 -0.03039
C 29.50851 21.27683 0.01836
C 30.75046 19.1645 0.03531
C 30.74508 17.70443 -0.00669
C 29.48427 17.04774 0.0101
C 29.53016 15.58928 0.01705
C 29.52729 24.14271 -0.01854
C 23.38088 27.71171 0.01515
C 28.27319 0.68817 -0.00416
C 27.07141 2.7978 0.01799
C 28.28073 27.66735 -0.00942
C 28.25448 26.24722 0.00487
C 27.0422 25.55324 0.00826
C 27.07559 24.13557 -0.00294
C 28.26938 23.44371 0.00152
C 28.25214 14.91491 0.01257
C 28.23093 13.46294 0.02316
C 28.27897 2.08234 0.01699
C 27.0416 12.7693 0.04185
C 28.31022 10.6544 -0.00621
C 28.31299 9.24088 0.02611
C 27.00164 8.52473 0.02198
C 27.04263 7.05858 0.01094
C 28.30501 6.38378 0.00235
C 28.26992 4.95146 0.01495
C 27.07924 4.24811 0.01259
C 27.08215 11.33284 0.00194
C 2.46029 32.66746 0.00488
