310
Graphene
C 34.36553 0.00221 0.01295
C 9.98536 29.65618 -0.00316
C 9.75576 28.31989 0.02188
C 9.94385 21.22279 -0.01979
C 9.86233 19.81234 0.02691
C 10.91761 18.78106 -0.01581
C 9.99056 17.41631 0.01452
C 9.97251 15.78744 0.04892
C 10.94359 14.92267 -0.00111
C 11.04552 13.42965 -0.03557
C 9.79377 12.79297 0.03754
C 9.82658 11.31645 0.01739
C 11.07713 10.69497 0.00755
C 11.0636 9.24127 -0.0054
C 9.79825 8.47787 0.00667
C 9.8771 6.98188 0.00143
C 11.11529 30.48453 -0.0331
C 11.08846 6.44009 -0.017
C 11.20025 31.83391 -0.0258
C 7.34975 34.01671 -0.00491
C 7.42773 15.68923 0.00889
C 8.70857 15.03037 -0.00481
C 8.61602 13.59474 0.00979
C 7.41608 12.79688 0.01443
C 7.35316 11.40226 0.03505
C 8.50842 10.61293 -0.02815
C 8.58464 9.1341 -0.04147
C 7.30759 8.48016 -0.05302
C 7.3181 7.03906 0.00213
C 8.60495 6.36369 -0.00066
C 8.60312 4.95146 -0.00289
C 7.40905 4.20082 0.00028
C 7.39279 2.79426 -0.02213
C 8.64446 2.11837 0.03698
C 8.6149 0.6082 -0.00109
C 9.92398 32.56347 0.03338
C 11.05885 4.98384 0.00364
C 9.8373 4.22695 -0.00831
C 9.79941 2.83994 -0.02957
C 14.68611 7.05668 0.01511
C 16.05012 6.52976 -0.00478
C 16.02748 5.15358 -0.01662
C 14.78808 4.30857 -0.01185
C 14.7352 2.82138 0.01126
C 15.91002 2.24369 0.01852
C 16.02436 0.83881 -0.00381
C 14.77534 0.11734 0.03046
C 16.79726 32.69301 0.0296
C 18.55158 4.95854 0.03374
C 17.25928 4.44635 -0.02845
C 17.14926 3.00678 -0.03213
C 18.32463 2.16897 0.02239
C 18.37515 0.78565 0.01153
C 17.16625 0.03365 0.02734
C 14.80763 8.45677 0.00199
C 16.27025 8.59328 0.01087
C 15.05564 32.73518 -0.01527
C 12.3093 0.07515 0.00096
C 11.05212 2.11545 -0.04422
C 11.03143 0.70132 0.00654
C 9.80821 33.9693 -0.00703
C 12.46285 32.69524 -0.04076
C 13.74522 32.04694 -0.00652
C 12.28116 11.25085 0.0058
C 13.43937 10.67956 -0.00865
C 7.46797 17.09337 -0.02162
C 13.59746 9.31235 0.00675
C 12.32469 7.13483 0.00742
C 13.46002 6.28115 -0.01594
C 13.46313 4.90244 0.0106
C 12.24974 4.23148 -0.01154
C 12.28609 2.88315 -0.01721
C 13.48069 2.18881 -0.02422
C 13.57497 0.7872 0.01277
C 12.32144 8.52616 -0.00311
C 8.59831 17.88282 -0.00619
C 8.55973 19.25093 0.01848
C 7.35522 19.97517 0.02098
C 3.66651 9.25054 0.03592
C 2.41479 8.56182 0.00406
C 2.38053 7.13359 0.00943
C 3.66096 6.48975 0.02841
C 3.65126 4.98932 -0.01111
C 2.46697 4.19207 -0.01275
C 2.48621 2.80305 0.00985
C 3.75709 2.11744 -0.02245
C 3.66376 0.68814 -0.00428
C 2.38052 0.03648 0.03101
C 4.95063 32.59962 -0.01536
C 6.24995 31.92323 -0.02689
C 6.24515 30.5165 -0.01046
C 4.931 29.8853 -0.00891
C 4.84882 28.46497 0.02819
C 3.67776 10.68479 0.00572
C 2.42461 11.44075 0.0402
C 2.42416 12.81635 -0.02759
C 3.69633 13.55929 0.03589
C 3.67228 30.47706 -0.014
C 2.41604 29.75197 0.02147
C 2.37343 28.3401 0.00373
C 3.59577 27.73269 -0.00191
C 3.6342 26.21045 0.00438
C 2.32285 25.55775 0.01291
C 2.38695 24.14882 0.00093
C 6.00586 27.60101 0.00165
C 3.62047 23.37475 0.00057
C 2.34895 21.36566 -0.00334
C 2.4028 19.91637 0.02339
C 3.6667 19.26311 0.01641
C 3.70242 17.83737 -0.00719
C 2.47549 17.09918 0.01364
C 2.47371 15.69063 -0.01062
C 3.7291 14.94388 -0.00033
C 3.65382 21.98595 -0.01634
C 19.48544 32.75754 -0.0055
C 6.02354 26.19331 -0.02971
C 4.80684 24.1029 -0.01789
C 6.23465 2.12059 0.00374
C 6.14834 0.67798 0.00052
C 4.93778 34.00812 -0.03682
C 7.45281 32.61889 0.01965
C 8.68641 31.85718 0.02058
C 8.61679 30.50238 -0.01957
C 7.37658 29.70738 -0.0108
C 7.27911 28.22733 -0.00368
C 8.66024 27.45566 -0.02696
C 8.53394 26.06177 -0.00114
C 7.2318 25.52255 0.00228
C 7.31358 24.14813 0.00798
C 8.4898 23.53925 0.00422
C 8.70883 22.15525 0.0351
C 7.41964 21.36674 -0.03113
C 4.87905 2.79301 -0.02813
C 4.87979 4.34008 -0.01952
C 6.12257 4.89231 0.05265
C 6.11091 6.33237 -0.01717
C 6.10528 23.42383 0.00444
C 6.18055 22.05899 -0.00925
C 4.94008 21.31617 0.01877
C 4.95245 19.90238 0.01363
C 6.14715 19.2356 -0.02162
C 6.21936 17.89471 0.00415
C 4.99631 17.1014 -0.0014
C 4.81771 25.47839 0.02894
C 5.06972 15.61305 0.02162
C 6.14132 13.48084 0.01241
C 4.89675 12.82598 -0.01454
C 4.865 11.38315 0.01945
C 6.10402 10.78613 0.01416
C 6.13548 9.30417 0.03542
C 4.95157 8.59653 0.02299
C 4.94288 7.20951 0.00244
C 6.23819 14.85362 0.0076
C 20.74115 32.14896 0.01515
C 19.67057 4.29844 -0.00225
C 19.63043 2.92346 0.00071
C 33.07282 23.41708 0.01927
C 33.09317 22.01159 0.01574
C 31.80218 21.34901 -0.02383
C 31.8868 19.98512 -0.01429
C 33.10421 19.27028 -0.0136
C 33.13374 17.82775 0.00594
C 31.95199 17.1254 -0.02474
C 31.94396 15.68883 0.00369
C 33.13553 15.00325 0.00455
C 33.139 13.55258 -0.00644
C 31.94312 12.87499 -0.01839
C 31.82656 11.43848 0.00137
C 33.16868 10.68121 0.00199
C 33.13509 9.28103 0.04381
C 31.84236 8.64123 0.02806
C 31.89647 24.16132 0.03794
C 31.84497 25.58116 -0.01779
C 33.05771 26.29543 0.00682
C 33.08753 27.71306 0.00026
C 30.63119 10.71143 -0.00944
C 30.66446 9.27498 -0.03735
C 29.45858 8.54412 -0.00971
C 29.44125 7.12223 0.01518
C 30.65984 6.43446 0.01908
C 30.58935 5.09068 0.07705
C 29.39069 4.31509 0.0103
C 31.91166 7.19909 0.01504
C 29.49566 2.9155 0.02108
C 30.62338 0.67609 0.00307
C 29.39605 34.06459 0.00346
C 31.92493 32.70243 0.01713
C 33.21895 31.95313 -0.01694
C 33.18322 30.55661 0.01428
C 31.90194 29.85231 -0.02142
C 31.89292 28.44342 0.0544
C 30.79031 2.15393 0.00716
C 29.40437 11.49852 -0.02155
C 33.14156 6.47538 -0.00069
C 31.89327 4.33976 -0.03838
C 34.39537 15.68627 0.02114
C 1.18631 14.99295 -0.02957
C 1.19468 13.60473 0.00343
C 34.36218 12.87585 -0.02656
C 34.32652 11.48873 -0.02442
C 1.15315 10.70755 -0.00027
C 1.18356 9.32095 -0.00583
C 34.36263 8.56795 -0.02302
C 34.42891 7.15998 -0.02849
C 1.24863 6.41519 0.02931
C 1.18531 5.00133 0.00628
C 34.39388 4.32078 -0.0345
C 34.42786 2.8805 -0.00931
C 1.22808 2.16172 -0.00939
C 1.17057 0.76596 -0.00468
C 34.41781 17.11983 0.00648
C 1.20636 17.83328 0.01223
C 1.21124 19.20931 -0.01678
C 34.3798 19.86464 0.01951
C 31.99799 2.88316 0.00349
C 33.25697 2.20829 -0.00323
C 33.19401 0.79384 -0.00841
C 31.9512 0.03546 0.0001
C 0.02457 32.63812 -0.02927
C 1.20783 31.9467 -0.01404
C 1.20494 30.49962 0.01027
C 33.07768 5.08472 0.04926
C 34.37646 29.79019 0.01831
C 1.14487 27.63911 -0.00439
C 1.10161 26.28028 -0.00598
C 34.30643 25.52993 -0.05239
C 34.29291 24.11534 0.03076
C 1.07529 23.50574 0.00723
C 1.10371 22.05047 0.02712
C 34.38391 21.2664 -0.02213
C 34.3206 28.40135 -0.01037
C 3.75393 31.88544 -0.01118
C 29.4483 12.85895 -0.01461
C 30.66662 15.02591 -0.0405
C 25.75214 9.26153 -0.00229
C 25.61877 6.35633 -0.00938
C 25.35905 4.99059 -0.0264
C 24.13934 4.09092 -0.01154
C 24.52592 2.65659 0.00684
C 25.72237 2.09135 -0.01052
C 25.69211 0.65631 -0.01679
C 24.54123 34.03535 0.00367
C 26.99848 32.72358 0.04306
C 28.20546 31.98612 0.00996
C 28.08714 30.5876 0.00195
C 26.91589 29.83702 -0.00802
C 26.91186 28.39201 -0.00218
C 28.11102 27.63326 -0.01654
C 28.1021 26.23582 -0.00037
C 25.71095 10.54241 -0.01199
C 26.1816 22.74881 -0.009
C 25.68893 26.1981 -0.00285
C 25.68897 27.62281 0.01423
C 20.89573 2.21733 -0.01107
C 20.89837 0.79604 -0.01586
C 19.61563 0.08692 -0.01971
C 21.94732 32.70194 -0.02118
C 23.23127 31.94213 0.00733
C 23.16315 30.62777 -0.00178
C 22.90705 4.23679 0.00768
C 26.83314 25.40886 -0.0032
C 22.23002 2.88601 -0.0276
C 23.28866 0.63506 -0.04078
C 22.02179 0.0133 0.02117
C 24.51363 32.6643 0.02737
C 25.73413 32.01737 -0.00498
C 25.70676 30.65676 0.00135
C 24.37162 29.84036 0.03102
C 24.59652 28.46814 0.02555
C 23.3396 1.95702 0.03005
C 30.7095 13.53584 -0.01303
C 26.99991 23.95096 0.00622
C 28.15028 21.95513 -0.00942
C 30.60077 30.56826 0.01324
C 29.3382 29.84551 0.0014
C 29.2994 28.41031 0.00924
C 30.58269 27.70872 0.02326
C 30.59291 26.24592 0.00261
C 29.36156 25.5898 0.03265
C 29.4388 24.14521 -0.02049
C 30.66238 23.50634 -0.01854
C 30.60419 22.07634 -0.01415
C 29.38755 21.37209 -0.03039
C 29.39507 19.93033 0.01836
C 30.64606 19.26701 0.03531
C 30.73539 17.86841 -0.00669
C 29.46432 17.12787 0.0101
C 29.50833 15.73973 0.01705
C 30.67576 32.02621 0.04266
C 29.43886 32.60049 0.01177
C 26.95365 0.06966 -0.00416
C 28.19429 0.77224 0.01699
C 26.69975 21.73238 0.00487
C 28.28084 19.13916 0.00826
C 28.27123 17.7912 -0.00294
C 28.24835 15.11969 0.00152
C 28.05851 13.69857 0.01257
C 26.86821 12.84021 0.02316
C 26.78956 11.46927 0.04185
C 28.28074 23.42158 -0.02815
C 28.19542 10.76659 0.00194
C 26.93499 8.46069 0.02611
C 26.89569 7.05672 0.02198
C 28.17602 6.35788 0.01094
C 28.10035 4.96998 0.00235
C 26.81469 4.26685 0.01495
C 27.00186 2.84852 0.01259
C 28.23081 2.22334 0.01799
C 28.2288 9.3394 -0.00621
C 2.47866 32.62536 -0.00131
