345
Graphene
C 34.43048 0.06899 0.01295
C 9.85308 2.92941 0.02098
C 10.98483 2.13729 0.01848
C 11.03696 0.61749 -0.00619
C 9.71312 0.04745 -0.02162
C 12.15177 32.38642 0.00889
C 13.42337 31.88504 -0.00481
C 13.62246 17.81704 0.00979
C 12.44668 17.19383 0.01443
C 12.37227 15.66123 0.03505
C 13.55927 14.8951 -0.02815
C 13.56097 13.44907 -0.04147
C 12.34252 12.71813 -0.05302
C 12.33914 11.35515 0.00213
C 13.60751 10.64527 -0.00066
C 13.53846 9.24668 -0.00289
C 12.30271 8.55845 0.00028
C 12.33976 7.14686 -0.02213
C 9.8524 4.33685 -0.03113
C 11.10735 5.01823 0.0351
C 11.10852 6.40971 0.00422
C 9.88729 7.16502 0.00798
C 8.58329 2.18164 0.03542
C 8.47167 0.80704 0.02299
C 7.23154 0.11612 0.00244
C 9.62295 32.80091 -0.01717
C 10.88229 32.08467 0.05265
C 10.16512 30.56342 -0.01952
C 9.85403 19.80791 -0.02813
C 11.00419 19.11206 0.00374
C 13.51637 6.41452 0.03698
C 11.20154 17.68622 0.00052
C 9.82468 15.62303 0.01965
C 11.13285 14.89886 0.02058
C 11.15612 13.48525 -0.01957
C 9.89231 12.77263 -0.0108
C 9.83189 11.37771 -0.00368
C 11.09254 10.71607 -0.02696
C 11.12578 9.31887 -0.00114
C 9.88828 8.55657 0.00228
C 9.90409 17.08437 -0.03682
C 7.31213 2.86596 0.01416
C 13.47681 4.98219 -0.00109
C 12.23213 2.79391 0.03338
C 14.67189 33.957 0.00654
C 17.1291 32.67066 -0.00703
C 18.34077 31.9888 -0.04076
C 18.33687 30.59321 -0.00652
C 18.40674 19.20944 0.0058
C 18.42587 17.73935 -0.00865
C 17.19582 17.00933 0.00675
C 17.23208 15.61764 -0.00311
C 18.47579 14.87864 0.00742
C 18.62021 13.54101 -0.01594
C 17.34354 12.73416 0.0106
C 17.2458 11.34079 -0.01154
C 17.13264 8.33685 -0.01721
C 17.31962 7.10846 -0.02422
C 17.17698 4.26984 0.01277
C 17.21669 2.924 0.00096
C 18.52923 2.22417 -0.01527
C 15.865 0.69626 -0.04422
C 15.93634 2.15648 -0.02957
C 14.63103 2.7553 -0.00831
C 14.7258 4.18123 0.00364
C 13.3837 1.97463 -0.0258
C 13.40093 0.50805 -0.0331
C 12.23607 33.97321 -0.00316
C 14.66805 32.42422 0.02188
C 15.93556 31.92652 -0.01979
C 16.03333 17.82598 0.02691
C 14.794 17.15649 -0.01581
C 14.77263 15.61803 0.01452
C 12.29113 4.27289 -0.00491
C 15.99634 14.81825 0.04892
C 14.80446 12.74889 -0.03557
C 14.86794 11.33694 0.03754
C 16.15771 10.62319 0.01739
C 16.07799 9.2361 0.00755
C 14.84628 8.48015 -0.0054
C 14.79652 7.12277 0.00667
C 16.05195 6.28398 0.00143
C 15.96699 4.92579 -0.017
C 16.00979 13.38064 -0.00111
C 7.40748 4.31948 0.01945
C 8.63483 4.98578 -0.01454
C 8.65156 6.34645 0.01241
C 2.45958 7.10438 0.00393
C 3.7088 6.41616 0.00895
C 3.6751 4.94675 0.00685
C 2.41894 4.3532 0.02888
C 2.38079 2.92909 -0.00482
C 3.54283 2.20549 -0.01384
C 3.59589 0.745 0.03693
C 2.40358 0.0746 0.01745
C 4.80603 32.66396 0.00488
C 6.10198 31.93204 -0.01004
C 6.15549 30.55371 -0.02896
C 4.90678 29.81591 -0.00131
C 4.92255 28.40929 -0.01118
C 6.15687 27.72914 -0.014
C 6.08261 26.43803 0.02147
C 4.87192 25.63638 0.00373
C 4.86537 24.2153 -0.00191
C 2.37801 8.57602 0.0288
C 3.63844 9.37665 -0.0008
C 3.70751 10.72217 -0.01362
C 2.42847 11.39334 -0.00892
C 3.6316 30.60439 0.01227
C 2.49934 29.78185 0.00873
C 2.41633 28.41748 -0.00049
C 3.6402 27.72473 0.00848
C 3.57662 26.3388 -0.01303
C 2.41708 25.50152 -0.01378
C 2.40192 24.12086 0.02635
C 3.68059 23.41978 0.0127
C 6.12811 23.41042 0.00438
C 3.54932 22.06996 0.01396
C 2.42936 19.91345 -0.01142
C 3.5406 19.12217 -0.00562
C 3.6323 17.71615 -0.00494
C 2.43862 17.11264 0.00054
C 2.42516 15.66269 0.03007
C 3.65108 14.92878 -0.00095
C 3.7115 13.54272 0.01572
C 2.47905 12.82295 -0.04848
C 2.38602 21.31694 0.01849
C 6.05053 21.95872 0.01291
C 4.79731 21.33554 0.00093
C 4.82614 19.96062 0.00057
C 7.50739 29.88444 -0.01536
C 7.35961 28.49614 -0.02689
C 7.25305 25.49829 -0.01046
C 7.1548 24.37032 -0.00891
C 7.29875 21.30056 0.02819
C 7.39719 19.9105 0.00165
C 8.60916 19.12969 -0.02971
C 8.60112 17.78388 0.02894
C 8.72312 30.59929 0.03101
C 7.34205 17.1111 -0.01789
C 8.61363 14.90988 -0.00925
C 8.58094 13.48714 0.01877
C 7.33092 12.81048 0.01363
C 7.35066 11.40585 -0.02162
C 8.52979 10.66979 0.00415
C 8.65839 9.22802 -0.0014
C 7.44246 8.49335 0.02162
C 7.35388 7.13298 0.0076
C 7.41221 15.60031 0.00444
C 18.42878 0.78623 0.01087
C 8.43062 32.02538 -0.00428
C 4.80982 34.06953 0.00985
C 6.0877 19.18562 -0.01634
C 6.10584 17.81297 -0.00334
C 4.90965 17.05878 0.02339
C 4.92175 15.62153 0.01641
C 6.177 14.9634 -0.00719
C 6.1162 13.50241 0.01364
C 4.97809 12.80638 -0.01062
C 4.96401 11.36062 -0.00033
C 7.25164 32.71849 -0.02245
C 6.14981 10.68362 0.03589
C 4.92983 8.55012 0.0402
C 4.89597 7.15292 0.00572
C 6.12406 6.39747 0.03592
C 6.1053 5.04701 0.00406
C 4.89629 4.25906 0.00943
C 4.86768 2.84974 0.02841
C 6.0329 2.25092 -0.01111
C 6.04331 0.78606 -0.01275
C 6.19127 9.23117 -0.02759
C 3.54667 31.99258 -0.03337
C 17.1828 0.0265 0.00199
C 20.90633 31.99817 -0.00478
C 31.93734 29.84382 -0.02142
C 31.93045 28.44328 0.0544
C 33.11401 27.72318 0.00026
C 33.12643 26.29208 0.00682
C 31.84135 25.55597 -0.01779
C 31.93272 24.21076 0.03794
C 33.17264 23.41937 0.01927
C 33.24934 21.96402 0.01574
C 31.93422 21.28641 -0.02383
C 31.88087 19.85184 -0.01429
C 33.08948 19.14989 -0.0136
C 33.06749 17.71256 0.00594
C 31.95943 16.94894 -0.02474
C 31.8787 15.50789 0.00369
C 33.24234 14.87009 0.00455
C 33.19105 13.46058 -0.00644
C 32.01031 12.80521 -0.01839
C 33.13552 30.60004 0.01428
C 33.10902 31.96237 -0.01694
C 31.88737 32.75032 0.01713
C 29.41412 0.03339 0.00346
C 29.36061 25.61461 0.03531
C 29.43967 24.18616 -0.00669
C 30.69374 23.46539 0.0101
C 30.67899 21.9809 0.01705
C 29.46157 21.2471 -0.0405
C 29.43261 19.88806 -0.01303
C 30.61293 19.10743 -0.01461
C 30.72437 17.63318 -0.02155
C 31.85641 11.39126 0.00137
C 29.39648 16.93158 -0.00944
C 30.73495 14.87848 -0.00971
C 30.78733 13.45332 0.01518
C 29.71817 12.45064 0.01908
C 30.37128 11.37794 0.07705
C 31.05942 5.63881 0.0103
C 29.42389 2.84829 0.02108
C 30.69516 2.19675 0.00716
C 30.61815 0.76825 0.00307
C 29.49528 15.53878 -0.03735
C 30.65059 26.30044 0.01836
C 32.96741 10.5866 0.00199
C 31.98013 8.15084 0.02806
C 1.25035 17.82213 0.01223
C 34.31885 17.08758 0.00648
C 0.02628 15.60535 0.02114
C 1.23364 14.95057 -0.02957
C 1.23337 13.47532 0.00343
C 34.38104 12.68331 -0.02656
C 34.28321 11.34816 -0.02442
C 1.16109 10.61741 -0.00027
C 1.10074 9.21782 -0.00583
C 34.37547 8.57084 -0.02302
C 34.3459 7.15316 -0.02849
C 1.14388 6.5023 0.02931
C 1.20197 5.0867 0.00628
C 0.01938 4.35143 -0.0345
C 34.40016 2.91599 -0.00931
C 1.20663 2.27249 -0.00939
C 1.23204 0.78201 -0.00468
C 1.1667 19.21955 -0.01678
C 34.36542 19.85069 0.01951
C 0.03413 21.32077 -0.02213
C 1.22249 22.07779 0.02712
C 31.65815 6.81179 0.01504
C 33.23405 6.38706 -0.00069
C 33.28185 5.00809 0.04926
C 32.00939 4.43669 -0.03838
C 31.85425 3.02892 0.00349
C 33.07032 2.2088 -0.00323
C 33.18275 0.70147 -0.00841
C 31.85645 0.03083 0.0001
C 33.0794 9.12386 0.04381
C 34.32019 32.78251 -0.02927
C 1.24974 30.51658 0.01027
C 34.39928 29.90306 0.01831
C 34.28838 28.41375 -0.01037
C 1.16445 27.70199 -0.00439
C 1.16072 26.25739 -0.00598
C 34.34546 25.60717 -0.05239
C 34.32728 24.1646 0.03076
C 1.17521 23.46166 0.00723
C 1.11399 31.99572 -0.01404
C 30.61348 27.72785 -0.03039
C 29.37209 28.42208 -0.01415
C 29.37847 29.90614 -0.01854
C 21.97596 28.4569 -0.00178
C 23.20196 27.80901 0.00768
C 23.32194 26.41506 -0.0276
C 22.1522 25.6047 0.03005
C 22.13867 24.17681 -0.04078
C 23.31189 23.37652 0.02117
C 23.28102 21.94078 0.02737
C 22.06027 21.27197 -0.00498
C 22.04614 19.86198 0.00135
C 23.28078 19.13107 0.03102
C 23.33072 17.72018 0.02555
C 22.10288 17.06934 0.01423
C 22.0847 15.49896 -0.00285
C 23.36913 14.91659 -0.009
C 23.32547 0.59992 -0.01199
C 22.10158 0.07793 -0.00229
C 24.54384 32.60438 -0.00938
C 22.05663 29.88347 0.00733
C 23.28326 30.49848 -0.02118
C 23.27892 31.94315 -0.01971
C 22.12108 32.63957 -0.01586
C 20.79802 30.58074 -0.01662
C 19.49413 29.73692 -0.01185
C 19.44633 28.37451 0.01126
C 20.59654 27.55761 0.01852
C 20.92519 26.23517 -0.00381
C 20.87536 23.50245 0.03046
C 20.81066 22.09911 0.0296
C 19.6118 21.38125 0.03374
C 25.78 31.99134 -0.0264
C 19.44751 20.0495 -0.02845
C 20.83135 17.76465 0.02239
C 19.62717 17.07723 0.01153
C 19.63564 15.69905 0.02734
C 20.80185 14.93035 -0.0055
C 19.81157 2.89045 0.01515
C 20.94071 2.13463 -0.00225
C 20.84954 0.7627 0.00071
C 19.66549 0.06676 -0.01107
C 20.77347 19.20048 -0.03213
C 25.74427 30.53254 -0.01154
C 24.5332 29.83948 0.00684
C 24.46033 28.45839 -0.01052
C 26.88071 25.5826 0.02611
C 26.96764 24.15801 0.02198
C 28.24471 23.4952 0.01094
C 28.19582 22.09963 0.00235
C 26.9905 21.30069 0.01495
C 26.97529 19.89141 0.01259
C 28.19948 19.18152 0.01799
C 28.22223 17.68291 0.01699
C 28.15956 26.27037 -0.00621
C 26.97712 17.00154 -0.00416
C 28.37678 14.63101 0.04266
C 28.4108 13.3322 0.01324
C 28.46132 2.24371 0.0014
C 28.22901 0.79422 0.00924
C 26.9551 0.14197 0.02326
C 29.51047 32.67571 0.00261
C 30.64125 31.97761 0.03265
C 30.62825 30.56811 -0.02049
C 27.05961 15.40696 0.01177
C 19.6357 32.70006 0.01511
C 28.17984 27.70869 0.00194
C 26.97141 29.86526 0.02316
C 25.69179 27.74752 -0.01679
C 25.70159 26.25405 0.00367
C 24.44753 25.53228 0.04306
C 24.46549 24.11604 0.00996
C 25.72044 23.47698 0.00195
C 25.81988 21.9976 -0.00802
C 24.50319 21.30657 -0.00218
C 24.50374 19.81247 -0.01654
C 26.94813 28.45573 0.04185
C 25.74954 19.17251 -0.00037
C 24.58499 17.07503 0.00622
C 24.59822 15.43567 -0.02815
C 25.8722 14.72454 -0.00942
C 25.73425 0.7584 0.00487
C 24.56168 0.08176 0.00826
C 26.99829 32.75546 -0.00294
C 28.23155 32.02767 0.00152
C 28.22086 30.56513 0.01257
C 25.8075 17.76831 -0.0032
C 2.32993 32.70331 -0.00966
