290
Graphene
C 34.40984 0.06656 0.01295
C 14.70522 32.68887 0.00143
C 16.07423 31.94628 -0.017
C 15.96167 30.559 0.00364
C 14.72489 29.92632 -0.00831
C 14.67248 28.4464 -0.02957
C 16.05499 27.6519 -0.04422
C 12.28139 33.97801 0.00667
C 15.80547 26.37274 0.00654
C 15.79669 13.60377 -0.04076
C 14.73291 12.65557 -0.00652
C 14.77335 11.23867 0.0058
C 16.05873 10.59832 -0.00865
C 16.11929 9.13981 0.00675
C 14.84886 8.46368 -0.00311
C 15.84174 14.90808 -0.00703
C 14.78728 7.05588 0.00742
C 13.47767 0.6724 -0.0054
C 12.34298 2.92915 0.01739
C 12.24078 32.59914 -0.00491
C 13.57274 31.91816 0.03338
C 13.50681 30.47389 -0.0258
C 12.24406 29.87809 -0.0331
C 12.26933 28.30605 -0.00316
C 13.5845 27.95017 0.02188
C 13.5161 2.05833 0.00755
C 12.30702 11.34296 -0.01979
C 13.6373 9.17049 -0.01581
C 12.35365 8.52376 0.01452
C 12.29883 7.12025 0.04892
C 13.5155 6.41361 -0.00111
C 13.53188 4.97256 -0.03557
C 12.25977 4.30423 0.03754
C 13.55247 10.61015 0.02691
C 9.80415 0.00088 -0.00109
C 15.95818 6.32918 -0.01594
C 14.74243 4.19918 -0.01154
C 18.4962 9.25944 -0.03213
C 17.28157 8.41141 0.02239
C 17.27176 7.03998 0.01153
C 18.52205 6.37677 0.02734
C 18.4677 5.00839 -0.0055
C 17.28346 4.275 0.01515
C 18.49583 10.73451 -0.02845
C 17.25907 2.83702 -0.00225
C 18.43001 0.79777 -0.01107
C 17.24545 0.01471 -0.01586
C 19.49001 32.81822 -0.01971
C 20.89517 17.6322 -0.02118
C 19.73169 17.05615 0.00733
C 19.61637 15.63787 -0.00178
C 18.51364 2.16981 0.00071
C 15.97381 4.89527 0.0106
C 17.26713 11.34692 0.03374
C 18.32129 13.53785 0.03046
C 14.82337 2.77775 -0.01721
C 16.05877 2.08589 -0.02422
C 16.03827 0.74826 0.01277
C 14.75015 0.00207 0.00096
C 17.33177 32.66389 -0.01527
C 18.62774 31.86039 0.01087
C 17.1426 12.77883 0.0296
C 18.38734 30.53254 0.00199
C 17.30992 28.36442 -0.00478
C 18.54476 19.0713 -0.01662
C 18.33073 17.7045 -0.01185
C 17.06877 17.13038 0.01126
C 17.0243 15.72129 0.01852
C 18.33172 14.92822 -0.00381
C 17.22325 29.74614 0.01511
C 11.07619 0.65804 0.03698
C 11.05414 2.13794 -0.02213
C 9.84724 2.81364 0.00028
C 2.37319 2.85313 -0.01789
C 3.6147 2.129 0.00444
C 3.65682 0.71967 -0.00925
C 2.45589 0.05424 0.01877
C 4.89335 32.66833 0.01363
C 6.20717 32.0047 -0.02162
C 2.39849 4.27058 0.02894
C 6.209 30.55595 0.00415
C 4.94804 28.44604 0.02162
C 6.14898 27.76663 0.0076
C 6.02141 26.43674 0.01241
C 4.9955 25.56114 -0.01454
C 4.7542 24.23075 0.01945
C 6.06133 9.21389 0.01416
C 4.96926 29.83989 -0.0014
C 4.90533 8.52238 0.03542
C 3.68335 4.94101 -0.02971
C 2.37086 7.07568 0.02819
C 3.72941 30.46216 0.03592
C 2.51568 29.81678 0.00406
C 2.46759 28.40414 0.00943
C 3.6894 27.71371 0.02841
C 3.7066 26.26507 -0.01111
C 2.43589 25.60126 -0.01275
C 3.64483 6.30048 0.00165
C 2.39453 24.1642 0.00985
C 3.47877 22.11766 -0.00428
C 2.46928 21.27632 0.03101
C 2.37799 11.37492 -0.01536
C 3.50194 10.60467 -0.02689
C 3.64044 9.25054 -0.01046
C 2.34442 8.52209 -0.00891
C 3.64591 23.38511 -0.02245
C 4.85152 7.08123 0.02299
C 6.17485 6.36089 0.00244
C 6.18377 4.9506 -0.01717
C 8.52615 0.7504 0.01848
C 7.31856 0.05311 -0.00619
C 9.84403 32.66333 -0.02162
C 11.05377 31.92026 0.00889
C 11.06278 30.49909 -0.00481
C 9.86449 29.77178 0.00979
C 8.5913 2.20029 0.02098
C 9.80739 28.23311 0.01443
C 11.22919 9.31375 -0.02815
C 9.85127 8.58244 -0.04147
C 9.80125 7.08996 -0.05302
C 11.10841 6.48511 0.00213
C 11.05413 4.98013 -0.00066
C 9.87757 4.22308 -0.00289
C 11.05387 27.71318 0.03505
C 7.40585 2.82574 -0.03113
C 7.37607 4.23846 0.0351
C 8.6807 4.92907 0.00422
C 4.90511 4.28111 0.05265
C 4.91596 2.93524 -0.01952
C 6.10249 2.18433 -0.02813
C 6.06956 0.7983 0.00374
C 4.91098 34.07455 0.00052
C 7.34277 32.71503 -0.03682
C 8.62408 32.08034 0.01965
C 8.62594 30.56776 0.02058
C 7.42214 29.84105 -0.01957
C 7.38662 28.43479 -0.0108
C 8.55103 27.82304 -0.00368
C 8.64562 8.96157 -0.02696
C 7.31108 8.65381 -0.00114
C 7.39868 7.06472 0.00228
C 8.64176 6.34074 0.00798
C 20.96408 14.98959 0.00768
C 20.87878 13.52613 -0.0276
C 19.66301 12.85912 0.03005
C 19.66811 11.46593 -0.04078
C 33.40761 22.04018 -0.01429
C 32.01974 19.88039 -0.0136
C 33.23072 19.18303 0.00594
C 33.1154 17.6535 -0.02474
C 31.90344 16.96748 0.00369
C 31.88619 15.62091 0.00455
C 33.25069 23.35499 -0.02383
C 33.1581 14.92396 -0.00644
C 32.01391 12.77543 0.00137
C 31.9871 11.44271 0.00199
C 33.25446 10.67964 0.04381
C 33.19115 9.26442 0.02806
C 31.96461 8.54335 0.01504
C 31.96781 7.16847 -0.00069
C 33.23652 13.51542 -0.01839
C 33.11179 6.41136 0.04926
C 33.27976 26.36429 0.01574
C 31.91386 30.04883 0.03794
C 30.7611 10.66543 0.07705
C 30.77488 9.20641 0.0103
C 29.48993 8.63567 0.02108
C 29.41219 7.19375 0.00716
C 30.71258 6.46355 0.00307
C 30.64054 5.03882 0.00346
C 33.33732 27.7003 0.01927
C 29.47545 4.30742 0.01713
C 30.69746 2.14559 0.01428
C 30.68922 0.74318 -0.02142
C 29.46382 34.02362 0.0544
C 31.86553 32.65003 0.00026
C 33.13129 32.0107 0.00682
C 33.12952 30.55059 -0.01779
C 29.50948 2.882 -0.01694
C 33.10882 4.98568 -0.03838
C 31.86441 4.3127 0.00349
C 31.94689 2.88162 -0.00323
C 1.0884 14.94313 -0.02957
C 1.13512 13.59701 0.00343
C 0.02176 12.76648 -0.02656
C 0.03224 11.43845 -0.02442
C 1.21192 10.6669 -0.00027
C 1.18919 9.28285 -0.00583
C 0.05623 15.81009 0.02114
C 34.37602 8.55366 -0.02302
C 1.18738 6.38568 0.02931
C 1.15415 4.97243 0.00628
C 34.32389 4.35536 -0.0345
C 34.37953 2.86295 -0.00931
C 1.21228 2.19127 -0.00939
C 1.2102 0.75684 -0.00468
C 34.35234 7.18668 -0.02849
C 34.41834 17.16105 0.00648
C 1.24658 19.14389 0.01223
C 34.41159 19.82438 -0.01678
C 33.19177 2.12868 -0.00841
C 33.22069 0.78239 0.0001
C 31.96185 0.03588 -0.02927
C 34.34736 32.77279 -0.01404
C 1.19189 31.98017 0.01027
C 1.19162 30.56018 0.01831
C 0.02219 29.85047 -0.01037
C 34.41831 28.43422 -0.00439
C 1.28258 27.66933 -0.00598
C 1.22793 26.24048 -0.05239
C 34.37214 25.55941 0.03076
C 34.35632 24.15603 0.00723
C 1.19599 23.44916 0.02712
C 1.30049 21.96747 -0.02213
C 0.05245 21.23347 0.01951
C 29.49883 11.34834 0.01908
C 3.63857 31.90068 0.00572
C 29.47347 12.68011 0.01518
C 30.60255 14.84301 -0.03735
C 23.30418 9.24072 0.04306
C 22.12031 8.50376 0.00996
C 22.09209 7.14383 0.00195
C 23.3578 6.38075 -0.00802
C 23.29922 4.91477 -0.00218
C 22.1025 4.25599 -0.01654
C 23.35523 10.5992 0.00367
C 22.16636 2.76276 -0.00037
C 23.37875 0.49622 0.00622
C 22.07357 34.04018 -0.02815
C 24.60606 17.0018 -0.00942
C 24.60297 15.67452 0.00487
C 25.86768 14.8914 0.00826
C 25.79437 13.40742 -0.00294
C 23.33141 2.03091 -0.0032
C 24.58407 12.74244 0.00152
C 22.12171 11.43827 -0.01679
C 23.31719 13.45504 0.00684
C 20.92562 10.7067 0.02117
C 20.91068 9.2311 0.02737
C 19.73762 8.59957 -0.00498
C 19.66786 7.13921 0.00135
C 20.92779 6.43401 0.03102
C 20.90879 5.02755 0.02555
C 22.07117 12.81841 -0.01052
C 19.67538 4.2466 0.01423
C 20.92152 2.10748 -0.009
C 20.96951 0.72858 -0.01199
C 19.64401 0.09639 -0.00229
C 22.05696 17.13193 -0.00938
C 22.18135 15.71265 -0.0264
C 23.3468 14.9528 -0.01154
C 19.79382 2.86882 -0.00285
C 24.59316 11.32209 0.01257
C 25.78048 10.63707 0.02316
C 25.8279 9.25749 0.04185
C 27.04876 7.11538 -0.02049
C 28.24188 6.45126 -0.01854
C 28.19255 4.95839 -0.01415
C 26.96221 4.31655 -0.03039
C 27.03293 2.8088 0.01836
C 28.24555 2.12671 0.03531
C 27.02692 8.56616 0.03265
C 28.31822 0.74161 -0.00669
C 29.42483 32.62672 0.01705
C 30.67314 32.01567 -0.0405
C 30.9475 19.1418 -0.01303
C 30.64672 17.82922 -0.01461
C 29.41917 17.14741 -0.02155
C 29.3942 15.62062 -0.00944
C 27.11735 0.09142 0.0101
C 28.23642 9.26193 0.00261
C 28.26284 10.67732 0.02326
C 27.05074 11.38436 0.00924
C 24.5323 8.4653 0.00194
C 24.55134 7.0571 -0.00621
C 25.78344 6.35089 0.02611
C 25.73359 4.96964 0.02198
C 24.50116 4.27387 0.01094
C 24.5557 2.82567 0.00235
C 25.82061 2.16187 0.01495
C 25.85087 0.55316 0.01259
C 24.64561 34.05036 0.01799
C 28.19029 17.63957 0.01699
C 27.00067 16.96692 -0.00416
C 26.96444 15.60388 0.01177
C 28.25367 14.92819 0.04266
C 28.26933 13.42784 0.01324
C 27.01589 12.73232 0.0014
C 30.70423 13.49193 -0.00971
C 2.43873 32.67421 0.0402
