361
Graphene
C 0.01552 0.12238 0.01295
C 12.21987 24.08865 0.02058
C 13.54955 23.38126 -0.01957
C 13.5573 21.91573 -0.0108
C 12.30303 21.30992 -0.00368
C 12.28765 2.87359 -0.02696
C 13.55756 2.26348 -0.00114
C 13.46251 0.6834 0.00228
C 12.28547 34.00924 0.00798
C 12.25021 25.52808 0.01965
C 14.81549 32.56719 0.00422
C 16.05293 30.47814 -0.03113
C 14.8245 29.79765 0.02098
C 14.79886 28.37721 0.01848
C 16.04768 27.73247 -0.00619
C 15.99 26.21182 -0.02162
C 14.71916 25.54106 0.00889
C 14.73358 24.12595 -0.00481
C 15.94146 23.3755 0.00979
C 16.00491 31.95901 0.0351
C 13.45394 26.178 -0.03682
C 13.56808 27.62458 0.00052
C 12.29542 28.39223 0.00374
C 9.81129 29.88227 -0.00925
C 9.78959 28.45483 0.01877
C 10.99074 27.71417 0.01363
C 11.07769 26.29965 -0.02162
C 9.87964 25.58738 0.00415
C 9.81806 24.15518 -0.0014
C 11.0629 23.39492 0.02162
C 11.14878 22.03812 0.0076
C 9.90989 21.38894 0.01241
C 9.84397 20.05369 -0.01454
C 9.75876 4.26504 0.01945
C 9.89505 2.86024 0.01416
C 11.14473 2.16927 0.03542
C 11.03387 0.68433 0.02299
C 9.81294 34.07739 0.00244
C 12.28949 32.59221 -0.01717
C 13.56286 31.90721 0.05265
C 13.57657 30.42034 -0.01952
C 12.32349 29.77872 -0.02813
C 16.01357 21.88043 0.01443
C 11.09436 30.49545 0.00444
C 14.69401 21.32445 0.03505
C 16.01332 2.29169 -0.04147
C 20.89378 27.75954 0.00755
C 20.86275 26.27977 -0.0054
C 19.65694 25.54146 0.00667
C 19.63421 24.1489 0.00143
C 20.85584 23.40497 -0.017
C 20.92122 21.90973 0.00364
C 19.66884 21.26573 -0.00831
C 19.77825 19.84939 -0.02957
C 19.69455 28.46133 0.01739
C 20.79862 19.22951 -0.04422
C 19.76111 4.24495 -0.00703
C 19.64682 2.88537 -0.04076
C 20.88575 2.07842 -0.00652
C 20.95704 0.66697 0.0058
C 19.69252 0.01711 -0.00865
C 22.09744 32.58177 0.00675
C 23.35712 31.8824 -0.00311
C 23.35932 30.48788 0.00742
C 20.95556 4.8492 0.00654
C 19.65278 29.82011 0.03754
C 20.90286 30.55593 -0.03557
C 20.839 31.9148 -0.00111
C 15.89936 0.74678 -0.05302
C 14.68119 0.01419 0.00213
C 17.23942 32.66081 -0.00066
C 18.44908 31.97844 -0.00289
C 18.4342 30.55444 0.00028
C 17.27341 29.83136 -0.02213
C 17.30516 28.42133 0.03698
C 18.46736 27.74938 -0.00109
C 18.41922 26.27347 -0.00491
C 17.17517 25.54116 0.03338
C 17.10478 24.07852 -0.0258
C 18.39494 23.43778 -0.0331
C 18.44587 21.95161 -0.00316
C 17.26363 21.36722 0.02188
C 17.245 2.86685 -0.01979
C 18.40216 2.10739 0.02691
C 18.39572 0.67321 -0.01581
C 17.11628 0.03504 0.01452
C 19.66249 32.64968 0.04892
C 14.75935 2.75031 -0.02815
C 11.14119 31.88286 -0.01789
C 9.87281 32.69105 0.02894
C 7.37525 0.02562 -0.02971
C 3.64632 6.45776 0.0127
C 3.666 5.03147 0.01396
C 2.43287 4.27443 0.01849
C 2.44646 2.86189 -0.01142
C 3.76131 2.14402 -0.00562
C 3.67529 0.78185 -0.00494
C 2.45747 0.06096 0.00054
C 4.89307 32.68558 0.03007
C 2.43896 7.18874 0.02635
C 6.10641 31.99427 -0.00095
C 4.86422 29.88388 -0.04848
C 4.88696 28.48102 -0.00892
C 6.13138 27.75281 -0.01362
C 6.1413 26.2842 -0.0008
C 4.91733 25.54373 0.0288
C 4.8629 24.15176 0.00393
C 6.10999 23.40074 0.00895
C 6.17348 22.01246 0.00685
C 6.1028 30.50457 0.01572
C 2.4774 8.55658 -0.01378
C 3.66253 9.28424 -0.01303
C 3.69737 10.73165 0.00848
C 3.58559 30.6043 -0.03113
C 2.41925 29.78662 -0.02566
C 2.43444 28.38331 -0.00094
C 3.67843 27.68922 0.02322
C 3.73809 26.31902 -0.00725
C 2.48171 25.55198 -0.05697
C 2.43796 24.14954 0.01087
C 3.68154 23.49278 -0.01343
C 3.68107 22.01278 0.00988
C 2.45321 21.31575 0.0276
C 2.44355 19.89 0.01305
C 3.7233 19.11696 -0.00077
C 3.67126 17.71723 0.03368
C 2.49335 17.00175 -0.02929
C 2.38275 15.58486 -0.00966
C 3.72063 14.96684 -0.03337
C 3.62005 13.48779 0.01227
C 2.43421 12.77091 0.00873
C 2.4341 11.41494 -0.00049
C 4.90658 21.34655 0.02888
C 4.9459 19.89288 -0.00482
C 6.2049 19.18191 -0.01384
C 6.19826 17.74674 0.03693
C 8.60158 26.24743 -0.02759
C 7.35072 25.54321 0.0402
C 7.38504 24.16631 0.00572
C 8.62967 23.41442 0.03592
C 8.63418 22.00791 0.00406
C 7.42581 21.36048 0.00943
C 7.41668 19.92012 0.02841
C 8.74012 19.25506 -0.01111
C 8.51057 17.95248 -0.01275
C 7.56627 16.96459 0.00985
C 7.44345 15.60877 -0.02245
C 7.37487 8.51168 -0.00428
C 7.40164 7.14443 0.03101
C 8.45961 6.31922 -0.01536
C 8.61359 4.98066 -0.02689
C 7.24933 4.224 -0.01046
C 7.32164 2.81728 -0.00891
C 8.60699 2.19033 0.02819
C 8.60984 0.73215 0.00165
C 8.55856 27.73618 0.03589
C 22.09686 29.83023 -0.01594
C 7.33702 28.40085 -0.00033
C 8.53396 30.58883 0.01364
C 4.99857 17.05874 0.01745
C 4.90168 15.6035 0.00488
C 6.30475 14.91866 -0.01004
C 6.05173 13.5192 -0.02896
C 4.88093 12.83313 -0.00131
C 4.90049 11.46183 -0.01118
C 6.17494 10.80106 -0.014
C 6.30953 9.39287 0.02147
C 4.92541 8.64523 0.00373
C 4.88141 7.18228 -0.00191
C 6.01096 6.42996 0.00438
C 6.07704 4.99153 0.01291
C 4.86881 4.29273 0.00093
C 4.93048 2.86286 0.00057
C 6.14266 2.10996 -0.01634
C 6.10859 0.73025 -0.00334
C 4.92615 34.06432 0.02339
C 7.33671 32.64263 0.01641
C 8.54512 32.00063 -0.00719
C 7.34439 29.79817 -0.01062
C 3.62702 31.9824 0.017
C 22.14578 28.42537 0.0106
C 23.36122 26.19081 -0.01721
C 31.95465 32.64783 0.01713
C 33.18318 32.05612 -0.01694
C 33.21905 30.58704 0.01428
C 31.99633 29.90672 -0.02142
C 31.90339 28.41572 0.0544
C 33.13472 27.63875 0.00026
C 33.21855 26.24449 0.00682
C 31.9376 25.63078 -0.01779
C 29.4643 0.02172 0.00346
C 31.91037 24.20202 0.03794
C 33.21207 22.04824 0.01574
C 31.93704 21.30245 -0.02383
C 31.96645 19.92613 -0.01429
C 33.17067 19.16801 -0.0136
C 33.22028 17.76672 0.00594
C 31.96406 17.03836 -0.02474
C 31.98627 15.63997 0.00369
C 33.24564 14.94685 0.00455
C 33.14435 23.45521 0.01927
C 30.65389 0.68974 0.00307
C 30.6916 2.0878 0.00716
C 29.5223 2.81885 0.02108
C 30.67967 23.44796 -0.01854
C 30.73435 22.05923 -0.01415
C 29.5469 21.2529 -0.03039
C 29.49206 19.873 0.01836
C 30.76946 19.1577 0.03531
C 30.72351 17.76267 -0.00669
C 29.4916 17.07847 0.0101
C 29.49446 15.65226 0.01705
C 30.70418 14.97161 -0.0405
C 30.74748 13.54977 -0.01303
C 29.57495 12.70842 -0.01461
C 29.53912 11.32455 -0.02155
C 30.74561 10.65124 -0.00944
C 30.75214 9.13866 -0.03735
C 29.52679 8.50444 -0.00971
C 29.44811 7.12422 0.01518
C 30.68364 6.29091 0.01908
C 30.66805 4.92169 0.07705
C 29.53342 4.25227 0.0103
C 33.18796 13.49822 -0.00644
C 29.39112 24.23226 -0.02049
C 31.95383 12.84743 -0.01839
C 33.13287 10.72744 0.00199
C 1.2749 19.1117 -0.01678
C 1.26512 17.70678 0.01223
C 0.04065 17.0494 0.00648
C 0.07001 15.62347 0.02114
C 1.274 14.88376 -0.02957
C 1.19094 13.43513 0.00343
C 34.392 12.79254 -0.02656
C 34.41601 11.35159 -0.02442
C 0.03859 19.80479 0.01951
C 1.20869 10.67137 -0.00027
C 0.00415 8.62659 -0.02302
C 34.40302 7.15516 -0.02849
C 1.25307 6.51345 0.02931
C 1.24874 5.01804 0.00628
C 0.05592 4.29638 -0.0345
C 34.4055 2.83237 -0.00931
C 1.25031 2.20115 -0.00939
C 1.22982 0.78835 -0.00468
C 1.18636 9.32551 -0.00583
C 0.01812 21.27162 -0.02213
C 1.2044 22.01154 0.02712
C 1.22457 23.43496 0.00723
C 33.16019 9.24179 0.04381
C 31.96435 8.48799 0.02806
C 31.93405 7.00857 0.01504
C 33.20962 6.40764 -0.00069
C 33.17729 4.98882 0.04926
C 31.98792 4.23373 -0.03838
C 31.92811 2.76278 0.00349
C 33.15526 2.12893 -0.00323
C 33.1679 0.71351 -0.00841
C 31.8937 0.02686 0.0001
C 34.41049 32.77425 -0.02927
C 1.15182 31.99255 -0.01404
C 1.1893 30.58293 0.01027
C 0.00541 29.84111 0.01831
C 34.34088 28.37839 -0.01037
C 1.1949 27.70945 -0.00439
C 1.25696 26.25426 -0.00598
C 0.03541 25.55012 -0.05239
C 0.01462 24.14155 0.03076
C 31.93299 11.46006 0.00137
C 29.40916 25.61092 0.03265
C 30.69447 26.33254 0.00261
C 30.68502 27.78056 0.02326
C 25.84107 27.72 -0.00225
C 25.76044 26.28633 0.00071
C 24.59535 25.56046 -0.01107
C 24.54004 24.13309 -0.01586
C 25.76395 23.38311 -0.01971
C 25.7793 21.99086 -0.02118
C 24.56192 21.3172 0.00733
C 24.49312 19.89286 -0.00178
C 24.55862 28.36657 0.01515
C 25.77327 19.1405 0.00768
C 24.49193 17.0145 0.03005
C 24.53532 15.58312 -0.04078
C 25.84581 14.84471 0.02117
C 25.80009 13.4521 0.02737
C 24.49736 12.6673 -0.00498
C 24.64462 11.41877 0.00135
C 25.74458 10.63758 0.03102
C 25.84692 9.19766 0.02555
C 25.70831 17.67325 -0.0276
C 24.63171 29.77037 -0.0055
C 25.86899 30.5529 0.02734
C 25.83141 31.95289 0.01153
C 22.12802 25.54924 -0.02422
C 22.08887 24.12368 0.01277
C 23.36985 23.44819 0.00096
C 23.35845 22.01561 -0.01527
C 22.11803 21.33322 0.01087
C 22.04262 19.85889 0.00199
C 23.28122 19.20526 0.01511
C 23.16568 17.7116 -0.00478
C 22.11848 16.82773 -0.01662
C 23.31022 14.98909 -0.01185
C 23.45409 9.25276 0.01126
C 23.41386 6.31641 0.01852
C 23.21529 4.99223 -0.00381
C 22.09635 4.23415 0.03046
C 22.15479 2.77359 0.0296
C 23.45112 2.11133 0.03374
C 23.38886 0.68927 -0.02845
C 22.1505 34.04831 -0.03213
C 24.55235 32.55376 0.02239
C 24.57012 8.42774 0.01423
C 24.55623 7.03762 -0.00285
C 25.86078 6.36127 -0.009
C 25.79642 4.94447 -0.01199
C 28.32876 13.45259 0.01257
C 27.09158 12.69113 0.02316
C 27.03622 11.29177 0.04185
C 28.27428 10.61092 0.00194
C 28.27434 9.20753 -0.00621
C 27.03769 8.52036 0.02611
C 27.03501 7.08175 0.02198
C 28.26214 6.40079 0.01094
C 28.28263 4.96113 0.00235
C 27.07678 4.28961 0.01495
C 27.12577 2.8639 0.01259
C 28.30342 2.13636 0.01799
C 28.24952 0.74856 0.01699
C 27.09968 34.07609 -0.00416
C 29.49124 32.68156 0.01177
C 30.66666 32.00504 0.04266
C 30.79283 30.53574 0.01324
C 29.6163 29.83363 0.0014
C 29.47609 28.42973 0.00924
C 28.30752 14.8833 0.00152
C 23.34922 27.59724 -0.01154
C 27.06296 15.58845 -0.00294
C 28.24536 17.78664 0.00487
C 24.5659 4.27962 -0.00229
C 24.62927 2.78109 -0.00938
C 25.94943 2.10736 -0.0264
C 25.84364 0.64657 -0.01154
C 24.68197 34.0279 0.00684
C 27.06872 32.60821 -0.01052
C 28.30943 31.95715 -0.01679
C 28.31248 30.52827 0.00367
C 27.12243 29.83038 0.04306
C 27.05251 28.4517 0.00996
C 28.24697 27.70692 0.00195
C 28.18167 26.25292 -0.00802
C 26.93753 25.53247 -0.00218
C 26.95197 24.12198 -0.01654
C 28.18387 23.39093 -0.00037
C 28.2147 21.8974 -0.0032
C 27.00384 21.27458 0.00622
C 26.95589 19.85966 -0.02815
C 28.26693 19.22434 -0.00942
C 27.0621 17.05956 0.00826
C 2.40254 32.72267 -0.00643
