385
Graphene
C 0.01422 0.0549 0.01295
C 14.80475 32.62493 0.02162
C 15.94306 32.00655 0.0076
C 15.97919 30.56488 0.01241
C 14.7841 29.83524 -0.01454
C 14.81931 28.45235 0.01945
C 16.01163 27.71694 0.01416
C 15.95113 26.23998 0.03542
C 14.71933 25.50126 0.02299
C 14.739 24.00277 0.00244
C 12.28322 0.01824 -0.0014
C 16.03661 23.44045 -0.01717
C 14.79444 21.25383 -0.01952
C 14.80559 19.84313 -0.02813
C 16.04967 19.15776 0.00374
C 15.97272 17.83913 0.00052
C 14.77771 16.962 -0.03682
C 14.78312 15.54591 0.01965
C 15.92935 0.60903 0.02058
C 14.80629 34.03916 -0.01957
C 17.1529 32.61309 -0.0108
C 15.96327 22.04666 0.05265
C 18.4299 31.89897 -0.00368
C 13.47601 0.76246 0.00415
C 12.21972 17.07973 0.01363
C 11.07688 17.82639 0.00943
C 9.89858 17.03722 0.02841
C 9.79996 15.61111 -0.01111
C 11.08744 0.7419 -0.01275
C 9.84725 0.0639 0.00985
C 12.31448 32.64994 -0.02245
C 13.56775 31.99117 -0.00428
C 13.5355 30.61603 0.03101
C 12.277 29.83654 -0.01536
C 12.26177 15.73399 -0.02162
C 12.32966 28.34151 -0.02689
C 13.57264 26.27346 -0.00891
C 12.35763 25.61201 0.02819
C 12.38355 24.13645 0.00165
C 13.51216 23.34907 -0.02971
C 13.51487 22.01779 0.02894
C 12.31899 21.24231 -0.01789
C 12.23352 19.86691 0.00444
C 13.54453 19.14438 -0.00925
C 13.62347 17.75746 0.01877
C 13.54887 27.70915 -0.01046
C 11.07037 19.18667 0.00406
C 18.41262 30.60937 -0.02696
C 17.19712 28.44248 0.00228
C 19.63594 25.48829 0.03338
C 19.65813 24.08567 -0.0258
C 20.91553 23.47822 -0.0331
C 20.89995 21.98365 -0.00316
C 19.63548 21.30655 0.02188
C 19.6547 19.91226 -0.01979
C 20.92109 19.15872 0.02691
C 20.98245 17.81943 -0.01581
C 19.67643 17.01043 0.01452
C 20.91563 26.23268 -0.00491
C 19.68215 15.60915 0.04892
C 20.94467 13.41625 -0.03557
C 19.5471 12.84784 0.03754
C 20.89849 10.51651 0.01739
C 20.93795 9.24847 0.00755
C 20.98733 6.35781 -0.0054
C 20.84213 5.01853 0.00667
C 19.64655 4.24819 0.00143
C 19.59838 2.89108 -0.017
C 20.84829 2.17971 0.00364
C 20.87664 14.92422 -0.00111
C 17.18692 29.86381 -0.00114
C 20.94594 27.6474 -0.00109
C 19.69028 29.82217 -0.02213
C 18.44154 27.74672 0.00798
C 18.44839 26.30594 0.00422
C 17.24507 25.58024 0.0351
C 17.25312 24.15311 -0.03113
C 18.45314 23.35526 0.02098
C 18.40839 21.97646 0.01848
C 17.19208 21.29866 -0.00619
C 17.26788 19.91776 -0.02162
C 18.4215 19.18703 0.00889
C 19.65677 28.39511 0.03698
C 18.39459 17.77076 -0.00481
C 17.19342 15.63824 0.01443
C 18.31642 14.88073 0.03505
C 18.53956 13.4647 -0.02815
C 18.50455 2.06874 -0.04147
C 18.39953 0.70765 -0.05302
C 17.19207 34.01446 0.00213
C 19.63763 32.62316 -0.00066
C 20.91086 31.91298 -0.00289
C 20.86508 30.50385 0.00028
C 17.2224 17.01207 0.00979
C 9.88917 19.92354 0.03592
C 9.79717 21.3894 0.00572
C 11.08952 21.96837 0.0402
C 3.63513 4.98827 -0.03113
C 2.44081 4.29136 -0.02566
C 2.47942 2.89047 -0.00094
C 3.69931 2.06638 0.02322
C 3.64753 0.70753 -0.00725
C 2.42312 0.00679 -0.05697
C 4.86208 32.6442 0.01087
C 6.12749 31.98642 -0.01343
C 6.14291 30.60369 0.00988
C 3.72394 6.33268 0.017
C 4.91366 29.87633 0.0276
C 6.16289 27.72706 -0.00077
C 6.15293 26.29545 0.03368
C 4.86924 25.6475 -0.02929
C 4.9188 24.16793 -0.00966
C 6.12826 23.41861 -0.03337
C 6.10187 22.01873 0.01227
C 4.86692 21.32966 0.00873
C 4.98243 19.8339 -0.00049
C 6.23697 19.19413 0.00848
C 4.87934 28.42146 0.01305
C 6.2434 17.75046 -0.01303
C 2.46218 7.07928 -0.00643
C 3.65938 9.20777 -0.00518
C 3.64081 30.63633 0.03189
C 2.44765 29.82631 0.00031
C 2.48333 28.37467 -0.003
C 3.67619 27.72044 0.01402
C 3.72373 26.27924 0.02379
C 2.43598 25.51681 0.00907
C 2.47834 24.13396 0.00643
C 3.60121 23.39274 -0.01509
C 3.66098 22.08954 0.03267
C 2.42274 8.54753 0.0086
C 2.43267 21.31812 0.02374
C 3.7529 19.19237 0.0073
C 3.69617 17.68028 0.0174
C 2.50114 17.05377 0.03828
C 2.46227 15.68365 0.01226
C 3.70808 14.95701 -0.00279
C 3.66727 13.50129 0.01996
C 2.41995 12.73076 -0.03996
C 2.44195 11.32497 0.01465
C 3.71816 10.6441 -0.00074
C 2.49828 19.8708 0.00402
C 4.95234 17.08445 -0.01378
C 4.92148 15.72418 0.02635
C 6.07713 14.93141 0.0127
C 8.67438 19.17631 -0.00131
C 8.67524 17.76381 -0.01118
C 7.44989 17.06449 -0.014
C 7.33842 15.48819 0.02147
C 8.63935 14.92268 0.00373
C 7.30361 12.84693 -0.00191
C 7.35439 2.68849 0.00438
C 8.50861 2.1604 0.01291
C 8.60817 0.75281 0.00093
C 7.37061 19.93368 -0.02896
C 7.41122 34.04487 0.00057
C 11.05337 32.01228 -0.00334
C 11.06203 30.57905 0.02339
C 9.8698 29.86262 0.01641
C 9.82047 28.41186 -0.00719
C 11.08812 27.70446 0.01364
C 11.11748 26.31042 -0.01062
C 9.83625 25.58754 -0.00033
C 9.79713 24.19263 0.03589
C 11.12396 23.42358 -0.02759
C 9.85106 32.73111 -0.01634
C 7.37046 21.35688 -0.01004
C 8.61689 22.08312 0.00488
C 8.55054 23.54035 0.01745
C 6.1478 13.5396 0.01396
C 4.92388 12.81009 0.01849
C 4.88254 11.35658 -0.01142
C 6.13053 10.70439 -0.00562
C 4.93215 8.42399 -0.00494
C 4.9582 7.1088 0.00054
C 6.08688 5.0144 0.03007
C 4.90605 4.33548 -0.00095
C 4.89785 2.83324 0.01572
C 6.06385 2.1396 -0.04848
C 6.09307 0.73819 -0.00892
C 4.91428 34.04422 -0.01362
C 7.39554 32.63452 -0.0008
C 8.56719 32.03631 0.0288
C 8.59504 30.58427 0.00393
C 7.42889 29.90082 0.00895
C 7.40951 28.37449 0.00685
C 8.60525 27.71326 0.02888
C 8.54576 26.25747 -0.00482
C 7.37099 25.57116 -0.01384
C 7.32113 24.17413 0.03693
C 20.79981 0.72833 -0.00831
C 3.61489 31.97459 -0.04307
C 19.62866 34.01718 -0.02957
C 23.37881 32.00629 0.00654
C 29.44893 4.27525 0.0103
C 29.51212 2.8576 0.02108
C 30.73694 2.10255 0.00716
C 30.72515 0.69331 0.00307
C 29.49425 0.01076 0.00346
C 32.02459 32.66256 0.01713
C 33.22641 32.01115 -0.01694
C 33.17296 30.52774 0.01428
C 31.9474 29.83707 -0.02142
C 30.72108 4.96068 0.07705
C 31.91192 28.45984 0.0544
C 33.24862 26.29374 0.00682
C 31.9984 25.50615 -0.01779
C 32.03679 24.09171 0.03794
C 33.2096 23.4551 0.01927
C 33.20698 22.04396 0.01574
C 31.9863 21.31719 -0.02383
C 31.96898 19.89412 -0.01429
C 33.19017 19.15887 -0.0136
C 33.17834 17.76797 0.00594
C 33.25244 27.7534 0.00026
C 31.98366 16.97089 -0.02474
C 30.7761 6.34477 0.01908
C 29.53471 8.53228 -0.00971
C 29.49456 29.84132 0.0014
C 29.51459 28.34048 0.00924
C 30.69427 27.68319 0.02326
C 30.7877 26.18489 0.00261
C 29.4558 25.49007 0.03265
C 29.45848 24.1491 -0.02049
C 30.71379 23.41701 -0.01854
C 30.73075 22.0526 -0.01415
C 29.53517 21.2979 -0.03039
C 29.52012 7.03574 0.01518
C 29.54841 19.87212 0.01836
C 30.74924 17.78282 -0.00669
C 29.58851 17.00732 0.0101
C 29.51405 15.5221 0.01705
C 30.77535 14.90838 -0.0405
C 30.79637 13.46188 -0.01303
C 29.49566 12.77004 -0.01461
C 29.5184 11.34064 -0.02155
C 30.73477 10.6751 -0.00944
C 30.71928 9.23142 -0.03735
C 30.77919 19.23763 0.03531
C 30.72692 30.52493 0.01324
C 32.03657 15.66138 0.00369
C 33.15788 13.47925 -0.00644
C 34.42584 21.29649 -0.02213
C 0.00781 19.87055 0.01951
C 1.29101 19.21485 -0.01678
C 1.2678 17.74787 0.01223
C 34.38594 17.0087 0.00648
C 34.42076 15.62133 0.02114
C 1.23659 14.94651 -0.02957
C 1.25884 13.5416 0.00343
C 34.38251 12.71481 -0.02656
C 1.18534 21.99989 0.02712
C 34.40018 11.32715 -0.02442
C 1.28138 9.24781 -0.00583
C 34.36011 8.49148 -0.02302
C 34.35259 7.1064 -0.02849
C 1.19487 6.33975 0.02931
C 1.18177 4.9448 0.00628
C 34.40493 4.21454 -0.0345
C 34.42283 2.8666 -0.00931
C 1.24671 2.19443 -0.00939
C 1.23348 0.7417 -0.00468
C 1.22709 10.62454 -0.00027
C 33.16852 14.86504 0.00455
C 1.15817 23.45624 0.00723
C 34.41571 25.58117 -0.05239
C 32.01737 12.71198 -0.01839
C 31.96794 11.34946 0.00137
C 33.1521 10.69472 0.00199
C 33.19979 9.26866 0.04381
C 31.94255 8.60998 0.02806
C 31.94645 7.13873 0.01504
C 33.14417 6.40074 -0.00069
C 33.20569 5.00549 0.04926
C 31.98537 4.27767 -0.03838
C 0.00807 24.17334 0.03076
C 31.94546 2.79509 0.00349
C 33.18012 0.70361 -0.00841
C 31.94989 34.07831 0.0001
C 34.42608 32.7557 -0.02927
C 1.21465 31.87898 -0.01404
C 1.21087 30.48895 0.01027
C 34.37156 29.82166 0.01831
C 0.01812 28.41951 -0.01037
C 1.27882 27.69632 -0.00439
C 1.1683 26.21161 -0.00598
C 33.16291 2.12396 -0.00323
C 30.75525 31.94886 0.04266
C 29.52428 32.60147 0.01177
C 27.02582 0.00871 -0.00416
C 23.3718 4.93501 -0.00381
C 22.1686 4.25489 0.03046
C 22.16548 2.85893 0.0296
C 23.35521 2.09867 0.03374
C 23.37625 0.64057 -0.02845
C 22.10506 34.05899 -0.03213
C 24.57535 32.66497 0.02239
C 25.8243 31.93485 0.01153
C 25.85593 30.50322 0.02734
C 23.40146 6.41022 0.01852
C 24.51285 29.78912 -0.0055
C 25.76254 27.66486 -0.00225
C 25.80707 26.20205 0.00071
C 24.57423 25.54715 -0.01107
C 24.63603 24.12092 -0.01586
C 25.85197 23.41794 -0.01971
C 25.70858 22.02015 -0.02118
C 24.52604 21.20044 0.00733
C 24.58758 19.85224 -0.00178
C 25.83633 19.14743 0.00768
C 24.6099 28.3461 0.01515
C 25.86975 17.69617 -0.0276
C 22.17164 7.07786 0.01126
C 23.34014 9.26371 -0.01662
C 23.37026 30.47412 -0.00703
C 22.09464 29.78062 -0.04076
C 22.12439 28.38959 -0.00652
C 23.42952 27.62098 0.0058
C 23.43725 26.21742 -0.00865
C 22.11539 25.502 0.00675
C 22.1424 24.11857 -0.00311
C 23.39218 23.41701 0.00742
C 23.33088 21.98198 -0.01594
C 22.17259 8.51676 -0.01185
C 22.08133 21.29792 0.0106
C 23.35274 19.18786 -0.01721
C 23.41995 17.75418 -0.02422
C 22.19749 17.06181 0.01277
C 22.17279 15.67049 0.00096
C 23.34866 14.92616 -0.01527
C 23.39968 13.4074 0.01087
C 22.136 12.77149 0.00199
C 22.12864 11.37344 0.01511
C 23.33494 10.7149 -0.00478
C 22.10837 19.88278 -0.01154
C 24.6037 17.07226 0.03005
C 24.54772 15.6704 -0.04078
C 25.80842 14.90625 0.02117
C 27.09804 21.33965 0.00622
C 27.02917 19.95797 -0.02815
C 28.28458 19.13566 -0.00942
C 28.3239 17.78974 0.00487
C 27.11108 17.0446 0.00826
C 27.08467 15.59388 -0.00294
C 28.21073 14.86706 0.00152
C 28.28924 13.49265 0.01257
C 27.03815 12.75372 0.02316
C 28.4414 22.05009 -0.0032
C 27.01465 11.38324 0.04185
C 28.28971 9.2235 -0.00621
C 27.05398 8.49437 0.02611
C 26.96716 7.11651 0.02198
C 28.19493 6.40256 0.01094
C 28.20193 4.96893 0.00235
C 27.0174 4.24183 0.01495
C 27.0641 2.79382 0.01259
C 28.1959 2.07951 0.01799
C 28.27371 0.69713 0.01699
C 28.25278 10.67562 0.00194
C 28.23618 23.41243 -0.00037
C 27.01729 24.17897 -0.01654
C 27.02936 25.57631 -0.00218
C 25.83147 13.48381 0.02737
C 24.60565 12.76995 -0.00498
C 24.62761 11.27531 0.00135
C 25.84377 10.62344 0.03102
C 25.82712 9.20365 0.02555
C 24.57992 8.51901 0.01423
C 24.6839 7.18183 -0.00285
C 25.82685 6.37625 -0.009
C 25.76061 4.90373 -0.01199
C 24.59377 4.22327 -0.00229
C 24.56014 2.87442 -0.00938
C 25.79063 2.1677 -0.0264
C 25.82585 0.71131 -0.01154
C 24.66915 0.05219 0.00684
C 27.09735 32.66928 -0.01052
C 28.25643 31.94032 -0.01679
C 28.27468 30.47657 0.00367
C 27.02767 29.84598 0.04306
C 27.04886 28.41071 0.00996
C 28.23447 27.66679 0.00195
C 28.24727 26.2412 -0.00802
C 22.12827 32.63129 -0.04422
C 2.40529 32.65542 0.03284
