348
Graphene
C 0.01844 0.02587 0.01295
C 13.56573 27.65699 0.00422
C 13.47614 26.32771 0.0351
C 12.2954 25.57962 -0.03113
C 12.32082 24.10476 0.02098
C 13.58097 23.47595 0.01848
C 13.53278 22.04436 -0.00619
C 12.23848 21.28228 -0.02162
C 12.24928 19.86268 0.00889
C 13.47966 19.06819 -0.00481
C 13.52359 17.71257 0.00979
C 12.36761 17.09375 0.01443
C 12.32374 33.99434 0.03505
C 14.78389 32.64999 -0.02815
C 16.04007 31.9426 -0.04147
C 15.95317 30.61242 -0.05302
C 14.76655 29.78149 0.00213
C 14.75599 28.31856 -0.00066
C 12.24368 28.37449 0.00798
C 12.333 29.74679 0.00228
C 13.47799 30.49553 -0.00114
C 13.51479 31.9628 -0.02696
C 9.82914 32.63013 -0.01454
C 11.03047 31.99227 0.01945
C 10.97871 30.61522 0.01416
C 9.85389 29.86251 0.03542
C 9.88103 28.41586 0.02299
C 11.09052 27.69435 0.00244
C 11.08615 26.27248 -0.01717
C 9.83386 25.56859 0.05265
C 16.00215 27.6646 -0.00289
C 9.86688 24.15884 -0.01952
C 11.06696 22.09459 0.00374
C 9.81698 21.31589 0.00052
C 9.83042 19.9385 -0.03682
C 11.08432 19.10832 0.01965
C 11.09432 17.67697 0.02058
C 9.84127 17.09836 -0.01957
C 9.94776 34.03989 -0.0108
C 12.2711 32.62098 -0.00368
C 11.0621 23.46503 -0.02813
C 16.00451 26.23378 0.00028
C 14.70024 25.54613 -0.02213
C 14.7805 24.1273 0.03698
C 17.30233 21.31378 -0.00831
C 17.21789 19.91531 -0.02957
C 18.45489 19.20993 -0.04422
C 18.3892 17.84674 0.00654
C 17.19171 17.06735 -0.00703
C 17.23157 15.53103 -0.04076
C 18.51037 14.87581 -0.00652
C 17.23918 12.89136 0.0058
C 18.46372 21.9857 0.00364
C 17.16645 2.82662 -0.00865
C 18.44067 0.71176 -0.00311
C 17.23182 34.04774 0.00742
C 19.74934 32.69376 -0.01594
C 20.92543 31.89799 0.0106
C 20.91892 30.51349 -0.01154
C 19.6804 29.80429 -0.01721
C 19.69208 28.35056 -0.02422
C 20.83278 27.67764 0.01277
C 18.40925 2.14085 0.00675
C 7.39289 34.02778 0.01241
C 18.4784 23.40631 -0.017
C 17.21777 25.58425 0.00667
C 15.94558 23.40153 -0.00109
C 15.94387 21.99417 -0.00491
C 14.68257 21.3382 0.03338
C 14.72087 19.90981 -0.0258
C 15.96152 19.20184 -0.0331
C 16.0073 17.70791 -0.00316
C 14.75785 17.02742 0.02188
C 14.85253 15.62714 -0.01979
C 17.21883 24.16226 0.00143
C 16.00371 14.97345 0.02691
C 14.81052 0.02305 0.01452
C 17.25243 32.60978 0.04892
C 18.44334 31.91306 -0.00111
C 18.45055 30.52366 -0.03557
C 17.24925 29.8481 0.03754
C 17.18071 28.40893 0.01739
C 18.40235 27.68988 0.00755
C 18.39724 26.29336 -0.0054
C 15.95022 0.67648 -0.01581
C 20.82714 26.27526 0.00096
C 8.64577 0.74401 0.0076
C 7.44307 2.83212 -0.0014
C 2.41996 7.08485 -0.01362
C 3.66735 6.33524 -0.0008
C 3.6522 4.9627 0.0288
C 2.47092 4.23036 0.00393
C 2.42333 2.82481 0.00895
C 3.70825 2.1199 0.00685
C 3.74712 0.73701 0.02888
C 2.45016 0.06444 -0.00482
C 4.94092 32.61157 -0.01384
C 6.11858 31.94591 0.03693
C 6.12364 30.54356 0.01745
C 4.91833 29.86015 0.00488
C 4.90819 28.35297 -0.01004
C 6.11436 27.73773 -0.02896
C 6.11177 26.31565 -0.00131
C 4.89493 25.56938 -0.01118
C 4.92984 24.15312 -0.014
C 2.43735 8.5645 -0.00892
C 3.69713 9.19077 -0.04848
C 3.7061 10.67745 0.01572
C 2.46179 11.36989 -0.00095
C 3.68479 30.55305 -0.02929
C 2.39899 29.88619 -0.00966
C 2.4591 28.42717 -0.03337
C 3.66699 27.67062 0.01227
C 3.66957 26.25767 0.00873
C 2.42523 25.58975 -0.00049
C 2.5039 24.08358 0.00848
C 3.74905 23.45529 -0.01303
C 6.12689 23.42714 0.02147
C 3.77141 22.01559 -0.01378
C 2.47266 19.88032 0.0127
C 3.63501 19.17358 0.01396
C 3.67206 17.84119 0.01849
C 2.47452 17.04395 -0.01142
C 2.49308 15.58449 -0.00562
C 3.67343 14.91682 -0.00494
C 3.74319 13.46946 0.00054
C 2.42524 12.74323 0.03007
C 2.52743 21.29967 0.02635
C 6.07193 21.98135 0.00373
C 4.9036 21.38131 -0.00191
C 4.86822 19.94301 0.00438
C 7.35447 29.8414 -0.02245
C 7.41282 28.45554 -0.00428
C 8.61681 27.61636 0.03101
C 8.65531 26.27119 -0.01536
C 7.39975 25.62298 -0.02689
C 7.38436 24.18356 -0.01046
C 8.60257 23.42039 -0.00891
C 8.57024 21.95844 0.02819
C 8.58235 30.51753 0.00985
C 7.40553 21.30243 0.00165
C 8.62079 19.16074 0.02894
C 8.61672 17.77672 -0.01789
C 7.38866 17.10277 0.00444
C 7.32278 15.67163 -0.00925
C 7.44102 8.49948 0.01877
C 7.46874 7.10487 0.01363
C 8.64557 6.41313 -0.02162
C 7.2952 4.16744 0.00415
C 7.36427 19.87275 -0.02971
C 8.56346 2.13418 0.02162
C 8.54978 31.88857 -0.01275
C 4.92719 34.05921 0.02841
C 6.12512 19.21342 0.01291
C 6.12553 17.78504 0.00093
C 4.9593 17.00118 0.00057
C 4.88785 15.65232 -0.01634
C 6.16772 14.93324 -0.00334
C 6.17089 13.52812 0.02339
C 4.9452 12.78361 0.01641
C 4.94174 11.37534 -0.00719
C 7.40532 32.69214 -0.01111
C 6.12243 10.67016 0.01364
C 4.87227 8.56895 -0.00033
C 4.96078 7.09095 0.03589
C 6.15408 6.44311 -0.02759
C 6.15011 4.99812 0.0402
C 4.94177 4.33596 0.00572
C 4.86442 2.94257 0.03592
C 6.1004 2.17887 0.00406
C 6.16228 0.7349 0.00943
C 6.11084 9.27054 -0.01062
C 19.65902 25.57667 -0.01527
C 19.70321 24.11478 0.01087
C 20.93544 23.39632 0.00199
C 33.16831 30.5594 0.01428
C 31.95977 29.85736 -0.02142
C 31.99629 28.41503 0.0544
C 33.15576 27.6965 0.00026
C 33.14132 26.31565 0.00682
C 31.96211 25.52782 -0.01779
C 32.00288 24.12773 0.03794
C 33.15663 23.4793 0.01927
C 33.19124 22.04532 0.01574
C 32.02536 21.36571 -0.02383
C 31.99124 19.8431 -0.01429
C 33.19449 19.1918 -0.0136
C 33.14563 17.74999 0.00594
C 31.9778 17.03699 -0.02474
C 31.9626 15.65357 0.00369
C 33.12442 14.88839 0.00455
C 33.14205 13.47921 -0.00644
C 33.16348 31.89574 -0.01694
C 31.98247 32.71233 0.01713
C 29.4529 34.07161 0.00346
C 30.75268 0.75077 0.00307
C 29.51114 19.84538 0.01836
C 30.73956 19.15382 0.03531
C 30.73844 17.76838 -0.00669
C 29.54949 17.04246 0.0101
C 29.55453 15.66619 0.01705
C 30.74052 14.90326 -0.0405
C 30.72472 13.51409 -0.01303
C 29.46619 12.75486 -0.01461
C 31.90375 12.82748 -0.01839
C 29.60827 11.36636 -0.02155
C 30.74529 9.19464 -0.03735
C 29.60062 8.40592 -0.00971
C 29.52095 7.21333 0.01518
C 30.71809 6.42229 0.01908
C 30.74616 4.98022 0.07705
C 29.49432 4.24435 0.0103
C 29.50191 2.83154 0.02108
C 30.73397 2.16795 0.00716
C 30.78544 10.69016 -0.00944
C 31.98677 11.28156 0.00137
C 33.22553 10.61198 0.00199
C 33.22814 9.24441 0.04381
C 1.21976 19.21536 -0.01678
C 1.23369 17.69574 0.01223
C 34.36882 17.03808 0.00648
C 0.03208 15.55887 0.02114
C 1.18776 14.86219 -0.02957
C 1.19026 13.49161 0.00343
C 34.39359 12.75632 -0.02656
C 34.38277 11.37766 -0.02442
C 34.42357 19.90809 0.01951
C 1.2271 10.605 -0.00027
C 0.03093 8.51613 -0.02302
C 34.43092 7.13248 -0.02849
C 1.27135 6.35052 0.02931
C 1.22584 4.87598 0.00628
C 0.00636 4.24133 -0.0345
C 0.04084 2.79312 -0.00931
C 1.21049 2.11629 -0.00939
C 1.24384 0.69816 -0.00468
C 1.22695 9.24754 -0.00583
C 29.50901 21.31474 -0.03039
C 0.02155 21.37556 -0.02213
C 1.20733 23.44275 0.00723
C 32.00861 8.57974 0.02806
C 31.92895 7.15022 0.01504
C 33.19596 6.40397 -0.00069
C 33.21393 4.96881 0.04926
C 32.02362 4.31575 -0.03838
C 32.0126 2.84319 0.00349
C 33.17538 2.08233 -0.00323
C 33.2096 0.73378 -0.00841
C 1.23976 22.03469 0.02712
C 31.9998 0.06646 0.0001
C 1.19003 31.87207 -0.01404
C 1.1762 30.50957 0.01027
C 34.41482 29.81766 0.01831
C 0.061 28.40158 -0.01037
C 1.17018 27.6546 -0.00439
C 1.16947 26.26437 -0.00598
C 34.39913 25.5332 -0.05239
C 34.39118 24.15668 0.03076
C 34.41967 32.59491 -0.02927
C 30.7601 22.10012 -0.01415
C 30.76398 23.4874 -0.01854
C 29.53261 24.12882 -0.02049
C 22.13237 21.28569 -0.02118
C 22.06868 19.84779 0.00733
C 23.29043 19.18197 -0.00178
C 23.37452 17.77811 0.00768
C 22.17915 16.96318 -0.0276
C 22.13547 15.62847 0.03005
C 23.34895 2.20796 -0.04078
C 23.34945 0.75636 0.02117
C 23.35493 22.06815 -0.01971
C 22.10772 0.00228 0.02737
C 25.8033 31.93701 0.00135
C 25.82456 30.55821 0.03102
C 24.61922 29.82008 0.02555
C 24.60593 28.38851 0.01423
C 25.80516 27.6579 -0.00285
C 25.79443 26.25532 -0.009
C 24.5601 25.58944 -0.01199
C 24.57282 24.21746 -0.00229
C 24.6014 32.63247 -0.00498
C 25.83102 23.41614 -0.00938
C 23.30423 23.43898 -0.01586
C 22.10328 25.58674 0.00071
C 20.93715 21.99254 0.01511
C 19.60481 21.23909 -0.00478
C 19.63727 19.87436 -0.01662
C 20.90021 19.15272 -0.01185
C 20.88343 17.6899 0.01126
C 19.63459 17.04701 0.01852
C 19.6988 15.54916 -0.00381
C 19.76219 2.77332 0.03046
C 22.1627 24.1658 -0.01107
C 20.83261 2.12088 0.0296
C 19.68645 34.0124 -0.02845
C 22.12115 32.64388 -0.03213
C 23.34453 31.9527 0.02239
C 23.37169 30.53467 0.01153
C 22.17502 29.79402 0.02734
C 22.0975 28.42572 -0.0055
C 23.2778 27.69341 0.01515
C 23.28173 26.26655 -0.00225
C 20.91619 0.63887 0.03374
C 3.65951 31.96024 0.03368
C 25.88584 22.00375 -0.0264
C 24.61869 19.87436 0.00684
C 28.19899 19.16844 -0.00621
C 28.22376 17.69648 0.02611
C 27.07218 17.01564 0.02198
C 27.06917 15.57449 0.01094
C 28.33918 14.84103 0.00235
C 28.32328 13.45185 0.01495
C 27.11209 2.81774 0.01259
C 28.26287 2.13601 0.01799
C 27.06224 19.81633 0.00194
C 28.22836 0.66568 0.01699
C 29.50782 32.68936 0.01177
C 30.79744 31.88889 0.04266
C 30.82094 30.47633 0.01324
C 29.47899 29.77417 0.0014
C 29.51881 28.36966 0.00924
C 30.77322 27.68334 0.02326
C 30.74046 26.23308 0.00261
C 29.54589 25.54741 0.03265
C 27.00854 34.05814 -0.00416
C 24.60392 21.33272 -0.01154
C 27.09635 21.2721 0.04185
C 28.33889 23.43435 0.01257
C 25.85071 19.19786 -0.01052
C 25.8392 17.77374 -0.01679
C 24.6214 16.96554 0.00367
C 24.65534 15.61633 0.04306
C 25.79927 14.97701 0.00996
C 24.48093 2.86919 0.00195
C 25.80224 2.1957 -0.00802
C 25.82282 0.74253 -0.00218
C 28.26063 22.03813 0.02316
C 24.59657 0.00875 -0.01654
C 28.30839 31.97251 -0.0032
C 28.26811 30.5919 0.00622
C 27.04784 29.7855 -0.02815
C 27.08558 28.42833 -0.00942
C 28.32508 27.67548 0.00487
C 28.32726 26.22924 0.00826
C 26.97572 25.5231 -0.00294
C 27.09509 24.1706 0.00152
C 27.034 32.62441 -0.00037
C 2.59219 32.72875 -0.00077
