338
Graphene
C 0.00104 0.01437 0.01295
C 11.01093 17.75828 0.00889
C 9.83382 17.04397 -0.00481
C 9.87939 15.63288 0.00979
C 11.09888 14.97818 0.01443
C 11.12229 13.49999 0.03505
C 9.89181 12.79762 -0.02815
C 9.82042 11.38386 -0.04147
C 11.03684 10.60914 -0.05302
C 11.09918 9.24958 0.00213
C 9.83013 8.51346 -0.00066
C 9.83646 7.07009 -0.00289
C 11.11371 6.40252 0.00028
C 11.12415 4.98138 -0.02213
C 9.84572 4.37124 0.03698
C 9.91421 2.82393 -0.00109
C 11.08227 2.11256 -0.00491
C 11.05941 0.74691 0.03338
C 10.96554 19.16951 -0.02162
C 9.83022 0.02441 -0.0258
C 9.7357 19.82137 -0.00619
C 11.01102 21.98381 0.02098
C 7.31471 8.63632 -0.01952
C 7.37314 7.17402 -0.02813
C 8.67729 6.42423 0.00374
C 8.63362 5.04296 0.00052
C 7.42965 4.37278 -0.03682
C 7.44803 2.94606 0.01965
C 8.69241 2.19149 0.02058
C 8.68259 0.75691 -0.01957
C 7.43039 0.04854 -0.0108
C 9.88848 32.60242 -0.00368
C 11.338 32.29898 -0.02696
C 9.77992 29.83187 -0.00114
C 9.72194 28.5494 0.00228
C 11.1145 26.06602 0.00798
C 9.83717 25.67745 0.00422
C 9.86443 24.19885 0.0351
C 11.03932 23.45215 -0.03113
C 9.84373 21.24633 0.01848
C 8.60735 9.24791 0.05265
C 12.34604 25.49135 -0.0331
C 13.59252 23.42996 0.02188
C 14.85721 25.4575 -0.00652
C 14.68281 24.12677 0.0058
C 16.01562 23.50979 -0.00865
C 16.02534 22.05733 0.00675
C 14.75298 21.26961 -0.00311
C 14.70114 19.89226 0.00742
C 15.80814 19.1818 -0.01594
C 15.98025 4.79789 0.0106
C 14.69349 4.24164 -0.01154
C 14.7331 2.86481 -0.01721
C 15.98947 2.21145 -0.02422
C 15.90879 0.7496 0.01277
C 14.73971 34.06992 0.00096
C 17.40472 32.82358 -0.01527
C 18.33537 31.86394 0.01087
C 18.49144 30.48191 0.00199
C 18.43899 27.75178 0.01511
C 16.00993 26.1404 -0.04076
C 12.39411 24.14878 -0.00316
C 12.1946 33.85525 -0.00703
C 13.51885 2.02548 -0.04422
C 13.45206 22.02683 -0.01979
C 12.19921 21.28891 0.02691
C 12.16216 19.89548 -0.01581
C 13.42288 19.30628 0.01452
C 13.33847 17.90197 0.04892
C 12.32451 17.02153 -0.00111
C 12.42654 15.59773 -0.03557
C 13.44272 14.75795 0.03754
C 12.33946 12.73439 0.01739
C 12.21016 11.34384 0.00755
C 13.42058 9.5114 -0.0054
C 12.39926 8.55585 0.00667
C 12.40418 7.11541 0.00143
C 13.50939 6.33135 -0.017
C 13.52646 4.97195 0.00364
C 12.34899 4.17047 -0.00831
C 12.30292 2.71917 -0.02957
C 13.50368 0.36868 0.00654
C 8.5216 10.70157 -0.01717
C 7.32337 11.44102 0.00244
C 7.41126 12.86578 0.02299
C 2.42256 8.53944 0.03693
C 2.41389 7.08943 0.01745
C 3.6074 6.40816 0.00488
C 3.62422 4.94275 -0.01004
C 2.40046 4.21302 -0.02896
C 2.45138 2.73037 -0.00131
C 3.73137 2.11012 -0.01118
C 3.76734 0.71252 -0.014
C 2.49915 33.99099 0.02147
C 4.92967 32.69643 0.00373
C 6.17794 31.96609 -0.00191
C 6.12282 30.59398 0.00438
C 4.90637 29.82961 0.01291
C 4.90716 28.40423 0.00093
C 6.10389 27.6287 0.00057
C 6.10213 26.2976 -0.01634
C 4.87417 25.58481 -0.00334
C 3.63568 9.20979 -0.01384
C 4.8611 24.17052 0.02339
C 3.66018 10.66726 -0.00482
C 2.52118 12.73379 0.00685
C 3.71017 30.57462 0.0127
C 2.45728 29.83806 0.01396
C 2.421 28.4736 0.01849
C 3.65633 27.76714 -0.01142
C 3.67693 26.29347 -0.00562
C 2.40677 25.56423 -0.00494
C 2.36943 24.17197 0.00054
C 3.62783 23.43749 0.03007
C 3.74422 21.97485 -0.00095
C 2.47304 21.28948 0.01572
C 2.45886 19.81709 -0.04848
C 3.67387 19.03721 -0.00892
C 3.58863 17.65722 -0.01362
C 2.40767 17.01428 -0.0008
C 2.4425 15.60441 0.0288
C 3.62467 14.86862 0.00393
C 3.70898 13.5171 0.00895
C 2.43511 11.36602 0.02888
C 6.09182 23.39819 0.01641
C 6.05006 21.97016 -0.00719
C 4.88689 21.21658 0.01364
C 8.54719 30.57826 -0.02971
C 7.38486 29.92394 0.02894
C 7.35069 28.42831 -0.01789
C 8.63319 27.72652 0.00444
C 8.67872 26.34593 -0.00925
C 7.38017 25.5367 0.01877
C 7.40823 24.16814 0.01363
C 8.65062 23.45761 -0.02162
C 8.60832 22.01464 0.00415
C 7.3699 21.29473 -0.0014
C 7.25713 19.90867 0.02162
C 8.46813 19.14808 0.0076
C 8.53758 17.73651 0.01241
C 7.2943 16.98985 -0.01454
C 7.34199 15.64689 0.01945
C 8.6494 14.96765 0.01416
C 8.65046 13.50906 0.03542
C 8.67489 31.94587 0.00165
C 7.40787 32.67036 0.02819
C 4.98399 0.03666 -0.00891
C 6.23109 0.77475 -0.01046
C 4.91403 19.84359 -0.01062
C 6.0831 19.11376 -0.00033
C 6.13945 17.70437 0.03589
C 4.9429 17.03528 -0.02759
C 4.86422 15.61245 0.0402
C 6.12817 14.8755 0.00572
C 6.13226 13.51168 0.03592
C 4.89441 12.86761 0.00406
C 18.53287 26.34289 -0.00478
C 4.89008 11.35915 0.00943
C 6.0657 9.25894 -0.01111
C 4.88452 8.5628 -0.01275
C 4.8772 7.10364 0.00985
C 6.12271 6.40684 -0.02245
C 6.1517 5.00157 -0.00428
C 4.94664 4.26928 0.03101
C 4.906 2.90265 -0.01536
C 6.21174 2.18486 -0.02689
C 6.10622 10.6779 0.02841
C 17.25745 25.67592 -0.01662
C 17.28489 24.21515 -0.01185
C 18.47442 23.42426 0.01126
C 31.99262 29.79353 -0.02142
C 32.01092 28.36679 0.0544
C 33.19773 27.70449 0.00026
C 33.20779 26.33372 0.00682
C 31.98814 25.5968 -0.01779
C 31.97626 24.159 0.03794
C 33.20161 23.45306 0.01927
C 33.13018 22.06596 0.01574
C 31.93452 21.35409 -0.02383
C 31.89712 19.88281 -0.01429
C 33.15456 19.18683 -0.0136
C 33.1417 17.77283 0.00594
C 31.93795 17.08652 -0.02474
C 31.95341 15.71467 0.00369
C 33.15653 14.98357 0.00455
C 33.18838 13.62654 -0.00644
C 31.93075 12.87099 -0.01839
C 33.25298 30.57735 0.01428
C 31.94823 11.4448 0.00137
C 33.2167 31.97082 -0.01694
C 29.48619 0.00765 0.00346
C 30.68562 22.02262 -0.00669
C 29.43743 21.28403 0.0101
C 29.31754 19.76682 0.01705
C 30.64509 19.20834 -0.0405
C 30.60696 17.7659 -0.01303
C 29.54381 16.96374 -0.01461
C 30.81027 15.01427 -0.02155
C 30.8135 13.59011 -0.00944
C 30.87864 10.65281 -0.03735
C 30.86848 9.25321 -0.00971
C 29.43687 7.06105 0.01518
C 30.65798 6.43495 0.01908
C 30.68872 5.016 0.07705
C 29.5003 4.22216 0.0103
C 29.51821 2.84352 0.02108
C 30.74574 2.12351 0.00716
C 30.65386 0.71156 0.00307
C 31.95103 32.67672 0.01713
C 33.22746 10.64964 0.00199
C 33.16313 9.22962 0.04381
C 32.00162 8.47826 0.02806
C 1.27971 17.77366 0.01223
C 0.05481 17.07345 0.00648
C 34.42282 15.6315 0.02114
C 1.21285 14.9117 -0.02957
C 1.25487 13.47266 0.00343
C 34.41275 12.76724 -0.02656
C 0.0231 11.34445 -0.02442
C 1.21867 10.68276 -0.00027
C 1.17046 9.18254 -0.00583
C 34.31593 8.47702 -0.02302
C 34.40998 7.05382 -0.02849
C 1.23037 6.35377 0.02931
C 1.20865 4.96739 0.00628
C 34.4071 4.2479 -0.0345
C 0.02355 2.87334 -0.00931
C 1.1885 2.09529 -0.00939
C 1.25333 0.63965 -0.00468
C 1.30364 19.1516 -0.01678
C 34.3744 19.83333 0.01951
C 34.38359 21.2966 -0.02213
C 1.22291 21.89563 0.02712
C 31.87532 7.13392 0.01504
C 33.16243 6.35133 -0.00069
C 33.08397 4.93397 0.04926
C 31.85224 4.23721 -0.03838
C 31.96809 2.86454 0.00349
C 33.20375 2.17352 -0.00323
C 33.25686 0.81033 -0.00841
C 31.96338 0.0307 0.0001
C 30.73402 23.43824 0.03531
C 34.38691 32.69986 -0.02927
C 1.2387 30.55388 0.01027
C 34.39741 29.82857 0.01831
C 34.41169 28.46345 -0.01037
C 1.24752 27.76139 -0.00439
C 1.23513 26.32248 -0.00598
C 0.00863 25.59339 -0.05239
C 34.39549 24.1143 0.03076
C 1.20184 23.41235 0.00723
C 1.2065 31.99096 -0.01404
C 3.75252 31.9462 0.02635
C 29.46345 24.10864 0.01836
C 30.75957 26.25109 -0.01415
C 20.83456 2.25036 -0.0276
C 20.86666 0.7724 0.03005
C 19.63579 34.05863 -0.04078
C 22.10119 32.69935 0.02117
C 23.35852 31.89189 0.02737
C 23.35557 30.4709 -0.00498
C 22.11413 29.81103 0.00135
C 22.09141 28.40295 0.03102
C 23.31806 27.68017 0.02555
C 23.35949 26.2295 0.01423
C 22.12043 25.49225 -0.00285
C 22.1563 24.1435 -0.009
C 23.39602 23.41263 -0.01199
C 23.35724 22.04396 -0.00229
C 22.05166 2.80511 -0.00938
C 23.33112 2.33169 -0.0264
C 23.34588 0.70971 -0.01154
C 19.54859 2.74697 0.00768
C 22.05506 34.0679 0.00684
C 19.66515 21.42487 -0.00178
C 20.97702 23.37763 -0.02118
C 18.44066 21.98485 0.01852
C 17.26079 21.24796 -0.00381
C 16.95317 19.95747 0.03046
C 17.18335 4.20762 0.0296
C 17.1878 2.92815 0.03374
C 18.36476 2.14139 -0.02845
C 18.43286 0.71108 -0.03213
C 17.10138 0.04178 0.02239
C 19.58015 32.59933 0.01153
C 20.88962 31.9403 0.02734
C 20.9367 30.4742 -0.0055
C 19.66625 29.75245 0.01515
C 19.68933 28.35261 -0.00225
C 20.91077 27.6561 0.00071
C 20.90103 26.25456 -0.01107
C 19.69156 25.56411 -0.01586
C 19.68084 24.10132 -0.01971
C 20.82956 22.0807 0.00733
C 24.5445 32.6822 -0.01052
C 25.82417 31.85145 -0.01679
C 25.80868 30.43877 0.00367
C 28.31358 23.37539 0.01094
C 28.23419 21.99062 0.00235
C 26.97911 21.25056 0.01495
C 26.98275 19.92819 0.01259
C 28.14271 19.25149 0.01799
C 28.25103 4.83155 0.01699
C 26.98589 4.23542 -0.00416
C 27.02614 2.88189 0.01177
C 28.27599 2.13055 0.04266
C 28.22585 0.68553 0.01324
C 26.97816 34.07908 0.0014
C 29.48255 32.68112 0.00924
C 30.75422 31.96969 0.02326
C 30.72104 30.56708 0.00261
C 29.50455 29.86518 0.03265
C 29.48952 28.37963 -0.02049
C 30.74853 27.64327 -0.01854
C 27.08305 24.10244 0.02198
C 27.05909 25.47817 0.02611
C 28.23945 26.17121 -0.00621
C 28.24276 27.69686 0.00194
C 24.50305 29.76229 0.04306
C 24.56604 28.35191 0.00996
C 25.84324 27.64878 0.00195
C 25.80146 26.2138 -0.00802
C 24.56401 25.56827 -0.00218
C 24.57005 24.12015 -0.01654
C 25.87322 23.40013 -0.00037
C 25.84242 21.98029 -0.0032
C 29.46553 25.54407 -0.03039
C 24.63516 21.49602 0.00622
C 25.81855 2.1714 -0.00942
C 25.73664 0.74214 0.00487
C 24.51909 0.08867 0.00826
C 27.00507 32.60101 -0.00294
C 28.25791 31.9176 0.00152
C 28.34826 30.5069 0.01257
C 27.12375 29.79921 0.02316
C 27.07127 28.37016 0.04185
C 24.67365 2.93621 -0.02815
C 2.45938 32.60339 -0.01378
