279
Graphene
C 0.01473 0.01573 0.01295
C 16.01827 31.91918 0.01277
C 14.70501 32.69353 -0.02422
C 12.28554 0.01881 -0.01721
C 13.53042 0.71751 -0.01154
C 13.56745 2.13065 0.0106
C 12.34899 17.01474 -0.01594
C 13.49551 17.72266 0.00742
C 13.50012 19.16249 -0.00311
C 12.29993 19.8268 0.00675
C 12.28887 21.2794 -0.00865
C 13.56177 22.01719 0.0058
C 13.5806 23.42486 -0.00652
C 12.33761 24.12194 -0.04076
C 12.30325 25.51484 -0.00703
C 13.5102 26.33977 0.00654
C 13.5282 27.69112 -0.04422
C 12.30014 28.38124 -0.02957
C 11.04661 23.41744 -0.01581
C 11.09915 21.9761 0.01452
C 9.81671 21.26982 0.04892
C 9.85073 19.90823 -0.00111
C 11.05965 19.12561 -0.03557
C 11.07817 17.77537 0.03754
C 15.91426 30.52916 0.00096
C 9.86613 17.04003 0.01739
C 11.08954 0.70206 -0.0054
C 9.84845 0.01922 0.00667
C 12.31835 32.64833 0.00143
C 13.52417 31.95233 -0.017
C 13.54438 30.56427 0.00364
C 12.33127 29.838 -0.00831
C 9.81086 15.64826 0.00755
C 9.83392 24.17502 0.02691
C 14.73392 29.86179 -0.01527
C 16.00428 27.63914 0.00199
C 19.69953 32.66583 0.02737
C 17.21303 0.02436 0.02117
C 18.45334 0.68445 -0.04078
C 18.42625 2.11654 0.03005
C 17.2107 2.88474 -0.0276
C 17.17651 19.84896 0.00768
C 17.19092 21.2524 -0.00178
C 18.42621 22.01663 0.00733
C 18.47354 23.42043 -0.02118
C 17.21336 24.16889 -0.01971
C 17.23675 25.5579 -0.01586
C 18.42425 26.29801 -0.01107
C 18.41471 27.73762 0.00071
C 17.19357 28.3735 -0.00225
C 17.21087 29.81213 0.01515
C 18.43937 30.5436 -0.0055
C 18.40852 31.90896 0.02734
C 15.95343 26.26476 0.01511
C 14.75134 25.57441 -0.00478
C 14.7524 24.1293 -0.01662
C 16.00441 23.45471 -0.01185
C 16.01885 21.96473 0.01126
C 14.75377 21.27601 0.01852
C 14.77499 28.36757 0.01087
C 14.78406 19.83347 -0.00381
C 14.74756 4.25847 0.0296
C 14.73179 2.81214 0.03374
C 16.0064 2.09504 -0.02845
C 15.99528 0.67726 -0.03213
C 14.75273 0.07442 0.02239
C 17.22184 32.65171 0.01153
C 15.98133 19.16788 0.03046
C 20.90762 32.00293 -0.00498
C 9.85631 25.57181 -0.01979
C 11.02903 27.72434 -0.00316
C 4.96446 24.13993 -0.03682
C 4.90403 25.54801 0.00052
C 6.16029 26.26826 0.00374
C 6.1372 27.69598 -0.02813
C 4.9261 28.38496 -0.01952
C 4.93757 29.80688 0.05265
C 6.16149 30.51027 -0.01717
C 6.14714 31.92241 0.00244
C 4.95933 32.65621 0.02299
C 2.47185 0.01499 0.03542
C 3.6685 0.74035 0.01416
C 2.43088 2.85738 0.01945
C 2.445 11.34294 -0.01454
C 2.45773 12.76822 0.01241
C 3.66521 13.47025 0.0076
C 3.69872 14.92819 0.02162
C 2.49416 15.61958 -0.0014
C 3.67136 30.51824 -0.02689
C 2.48074 29.81596 -0.01046
C 2.48089 28.38326 -0.00891
C 3.71421 27.66891 0.02819
C 3.67121 26.27363 0.00165
C 2.4763 25.56911 -0.02971
C 6.18578 23.44196 0.01965
C 2.43943 24.16303 0.02894
C 3.69149 21.98551 0.00444
C 2.43394 21.30677 -0.00925
C 2.45263 19.88658 0.01877
C 3.71259 19.19241 0.01363
C 3.69978 17.69612 -0.02162
C 2.4203 17.05517 0.00415
C 3.66422 23.46471 -0.01789
C 11.04899 26.27049 0.02188
C 6.15461 21.98468 0.02058
C 4.91732 19.9147 -0.0108
C 9.83914 28.35829 -0.0331
C 9.85711 29.83511 -0.0258
C 11.05514 30.53102 0.03338
C 11.06722 31.92752 -0.00491
C 9.79955 32.64716 -0.00109
C 7.38298 0.02292 0.03698
C 8.63726 14.90172 -0.02213
C 7.41251 15.61209 0.00028
C 7.35926 17.05939 -0.00289
C 8.61696 17.71132 -0.00066
C 8.62652 19.16988 0.00213
C 7.36415 19.90049 -0.05302
C 7.43546 21.30981 -0.04147
C 8.60933 21.9987 -0.02815
C 8.5635 23.40075 0.03505
C 7.38108 24.20726 0.01443
C 7.35993 25.55656 0.00979
C 6.17917 19.16137 -0.00368
C 6.14384 17.7321 -0.02696
C 4.9478 17.02654 -0.00114
C 4.90244 15.6206 0.00228
C 6.1716 14.89073 0.00798
C 6.05785 13.49762 0.00422
C 4.89599 21.34169 -0.01957
C 4.90238 0.00074 0.0351
C 8.59412 31.94226 0.02098
C 8.63281 30.52896 0.01848
C 7.38905 29.78976 -0.00619
C 7.39094 28.42697 -0.02162
C 8.61323 27.72437 0.00889
C 8.58366 26.30121 -0.00481
C 7.3594 32.63739 -0.03113
C 3.65234 31.90509 -0.01536
C 20.9011 30.54186 0.00135
C 19.67525 28.37637 0.02555
C 31.98255 4.24316 -0.03838
C 33.20363 4.98578 0.04926
C 33.20242 6.42587 -0.00069
C 31.93111 7.12095 0.01504
C 32.01431 8.50008 0.02806
C 33.20726 9.23852 0.04381
C 33.19668 10.66582 0.00199
C 31.93458 11.26857 0.00137
C 33.17772 13.49997 -0.01839
C 33.21029 14.88677 -0.00644
C 33.1904 21.95983 0.00455
C 33.22729 23.39309 0.00369
C 31.96766 24.16537 -0.02474
C 31.94202 25.58414 0.00594
C 33.22278 26.24687 -0.0136
C 33.20001 27.7115 -0.01429
C 32.00026 28.4201 -0.02383
C 30.759 9.22216 0.00716
C 29.51151 8.49814 0.00307
C 29.52059 7.07599 0.00346
C 30.73447 6.39895 0.01713
C 30.74861 4.96925 -0.01694
C 29.50406 4.27656 0.01428
C 32.00408 2.86553 0.00349
C 29.53091 2.84871 -0.02142
C 30.74652 0.73948 0.00026
C 29.52026 0.02169 0.00682
C 31.94752 32.68732 -0.01779
C 33.19857 31.9828 0.03794
C 33.23156 30.52367 0.01927
C 31.95416 29.80135 0.01574
C 30.77574 2.14622 0.0544
C 30.77204 10.66503 0.02108
C 33.20682 2.10583 -0.00323
C 31.96431 0.02389 0.0001
C 1.24046 0.72962 -0.00468
C 1.27044 2.15048 -0.00939
C 34.41002 2.82647 -0.00931
C 34.4157 4.24524 -0.0345
C 1.21528 4.94506 0.00628
C 1.22062 6.3412 0.02931
C 34.40513 7.12872 -0.02849
C 34.40955 8.53382 -0.02302
C 1.25802 9.25081 -0.00583
C 1.23021 10.65536 -0.00027
C 34.40837 11.38328 -0.02442
C 34.40709 12.7427 -0.02656
C 1.23564 13.50411 0.00343
C 1.21803 14.92333 -0.02957
C 34.37208 15.61493 0.02114
C 34.41867 17.00969 0.00648
C 1.20385 17.70897 0.01223
C 34.43243 32.68046 -0.02927
C 1.20346 31.9652 -0.01404
C 1.24107 30.54333 0.01027
C 34.42118 29.79594 0.01831
C 0.00268 28.42252 -0.01037
C 1.22915 27.67154 -0.00439
C 33.21829 0.68355 -0.00841
C 1.25536 26.29658 -0.00598
C 34.41372 24.14052 0.03076
C 1.21994 23.45179 0.00723
C 1.20056 22.02635 0.02712
C 34.38873 21.32357 -0.02213
C 0.02262 19.88489 0.01951
C 1.25024 19.16435 -0.01678
C 0.02737 25.57281 -0.05239
C 19.67709 29.81922 0.03102
C 30.71471 23.42973 0.0103
C 30.75787 26.29312 0.01908
C 25.82213 26.25783 0.00194
C 25.83144 27.66798 0.04185
C 24.56783 28.39373 0.02316
C 24.63042 29.85312 0.01257
C 25.8274 30.4775 0.00152
C 25.8304 31.94837 -0.00294
C 24.59001 32.66413 0.00826
C 22.12144 0.00294 0.00487
C 23.37026 0.67572 -0.00942
C 23.3434 2.11228 -0.02815
C 22.14915 2.81542 0.00622
C 22.13977 4.24787 -0.0032
C 23.34431 4.9692 -0.00037
C 23.34832 6.38112 -0.01654
C 22.12303 25.61038 -0.00218
C 23.36655 26.28269 -0.00802
C 23.37205 27.66452 0.00195
C 20.92407 27.69325 0.01423
C 20.91796 26.26897 -0.00285
C 19.70694 25.55081 -0.009
C 19.69557 24.07584 -0.01199
C 19.65027 4.28959 -0.00229
C 19.72899 2.85316 -0.00938
C 24.57791 25.57194 -0.00621
C 20.89929 2.12872 -0.0264
C 19.66136 0.00898 0.00684
C 22.1213 32.62909 -0.01052
C 23.41325 31.96987 -0.01679
C 23.34763 30.54776 0.00367
C 22.1794 29.86519 0.04306
C 22.10205 28.41573 0.00996
C 20.93962 0.7301 -0.01154
C 29.52457 25.56514 0.07705
C 25.84777 9.25852 0.02611
C 24.62818 7.0875 0.01094
C 30.74049 27.66569 0.01518
C 29.49725 28.41272 -0.00971
C 29.5173 29.86761 -0.03735
C 30.7732 30.53409 -0.00944
C 30.73998 31.91069 -0.02155
C 29.48263 32.66031 -0.01461
C 27.05385 34.07948 -0.01303
C 28.354 0.72228 -0.0405
C 28.25726 2.10147 0.01705
C 27.0135 2.843 0.0101
C 27.06094 4.21763 -0.00669
C 28.26028 4.95638 0.03531
C 28.2865 6.33894 0.01836
C 27.09133 7.14893 -0.03039
C 27.05331 8.57423 -0.01415
C 28.297 9.24013 -0.01854
C 27.05464 25.49332 -0.02049
C 25.81757 6.37564 0.00235
C 25.78105 4.96836 0.01495
C 24.60264 4.28295 0.01259
C 24.6199 2.80429 0.01799
C 25.81903 2.11381 0.01699
C 25.80955 0.71877 -0.00416
C 24.61258 8.53661 0.02198
C 24.55547 0.0271 0.01177
C 28.26546 31.95869 0.01324
C 28.2714 30.5184 0.0014
C 27.05683 29.82046 0.00924
C 27.08633 28.37529 0.02326
C 28.26995 27.68352 0.00261
C 28.2665 26.22557 0.03265
C 27.07074 32.63526 0.04266
C 2.45058 32.67173 0.03101
