373
Graphene
C 34.38177 0.06725 0.01295
C 9.83014 8.5843 0.00244
C 9.81522 7.13234 -0.01717
C 10.9239 6.3375 0.05265
C 10.9495 4.96313 -0.01952
C 9.72707 4.22328 -0.02813
C 9.72828 2.87089 0.00374
C 11.02234 2.19432 0.00052
C 10.93817 0.72942 -0.03682
C 9.73455 0.10661 0.01965
C 12.22234 32.71621 0.02058
C 13.48493 31.93553 -0.01957
C 13.49808 30.53423 -0.0108
C 12.29356 29.7623 -0.00368
C 12.26797 28.43274 -0.02696
C 13.52917 27.69883 -0.00114
C 13.52013 26.28598 0.00228
C 12.2375 25.65924 0.00798
C 12.34475 24.18249 0.00422
C 13.51911 23.45918 0.0351
C 11.05351 9.24803 0.02299
C 13.54606 21.94809 -0.03113
C 11.02983 10.64508 0.03542
C 9.92252 12.78254 0.01945
C 9.76964 32.68584 -0.02689
C 10.922 31.92506 -0.01046
C 10.94884 30.51519 -0.00891
C 9.70774 29.87302 0.02819
C 9.79779 28.46177 0.00165
C 11.02728 27.73457 -0.02971
C 10.9775 26.36359 0.02894
C 9.8142 25.52495 -0.01789
C 9.86139 24.13824 0.00444
C 11.08346 23.49175 -0.00925
C 11.11271 21.95671 0.01877
C 9.81991 21.30521 0.01363
C 9.79717 19.91194 -0.02162
C 11.05097 19.16865 0.00415
C 11.06441 17.7538 -0.0014
C 9.84415 17.0527 0.02162
C 9.91499 15.65277 0.0076
C 11.18692 14.87718 0.01241
C 11.14269 13.47533 -0.01454
C 9.85102 11.37276 0.01416
C 12.32344 21.23161 0.02098
C 12.33203 19.80089 0.01848
C 13.55019 19.08669 -0.00619
C 16.03978 26.14036 -0.01581
C 14.77521 25.52877 0.01452
C 14.84096 24.07046 0.04892
C 16.01923 23.36581 -0.00111
C 15.9876 22.00562 -0.03557
C 14.71134 21.28564 0.03754
C 14.82222 19.832 0.01739
C 16.02909 19.12936 0.00755
C 16.08009 17.74347 -0.0054
C 14.88021 16.93934 0.00667
C 14.88652 15.49516 0.00143
C 16.22229 14.96916 -0.017
C 16.06039 13.48278 0.00364
C 14.75133 12.82023 -0.00831
C 14.77437 11.35059 -0.02957
C 15.95106 10.5061 -0.04422
C 16.01575 9.19224 0.00654
C 14.68494 8.53403 -0.00703
C 14.67779 7.03587 -0.04076
C 15.97401 27.52635 0.02691
C 14.72476 28.314 -0.01979
C 14.74099 29.74808 0.02188
C 15.93896 30.49781 -0.00316
C 13.62049 17.71069 -0.02162
C 12.33628 17.03026 0.00889
C 12.42602 15.55772 -0.00481
C 13.62149 14.83871 0.00979
C 13.54403 13.40489 0.01443
C 12.34936 12.75304 0.03505
C 12.31122 11.34796 -0.02815
C 13.48513 10.69734 -0.04147
C 13.5141 9.27293 -0.05302
C 7.31912 0.01293 -0.01536
C 12.26663 8.59165 0.00213
C 13.40937 6.35026 -0.00289
C 13.39018 4.98467 0.00028
C 12.19366 4.2796 -0.02213
C 12.22462 2.86695 0.03698
C 13.41069 2.13758 -0.00109
C 13.42745 0.64663 -0.00491
C 12.18608 0.02467 0.03338
C 14.71105 32.60517 -0.0258
C 15.9362 31.93425 -0.0331
C 12.23741 7.1446 -0.00066
C 8.50964 0.70701 0.03101
C 8.54412 2.14683 -0.00428
C 7.2862 2.94356 -0.02245
C 3.66286 5.06987 0.03368
C 2.42649 4.33131 -0.02929
C 2.43996 2.92152 -0.00966
C 3.67412 2.16861 -0.03337
C 3.53941 0.81804 0.01227
C 2.3099 0.06669 0.00873
C 4.82005 32.7584 -0.00049
C 6.08048 32.01309 0.00848
C 6.06233 30.5751 -0.01303
C 4.83362 29.90273 -0.01378
C 4.82484 28.49638 0.02635
C 6.14203 27.74338 0.0127
C 6.12082 26.36297 0.01396
C 4.8917 25.55201 0.01849
C 4.93583 24.12397 -0.01142
C 6.21584 23.41208 -0.00562
C 6.17957 22.0386 -0.00494
C 4.91724 21.36954 0.00054
C 4.97075 19.96579 0.03007
C 3.71114 6.46374 -0.00077
C 2.43589 7.15264 0.01305
C 2.43882 8.56981 0.0276
C 3.63474 9.25519 0.00988
C 3.62933 30.62721 0.0174
C 2.40879 29.85992 0.03828
C 2.39729 28.45038 0.01226
C 3.63928 27.72719 -0.00279
C 3.61716 26.33058 0.01996
C 2.47782 25.59745 -0.03996
C 2.42735 24.18095 0.01465
C 3.71584 23.47482 -0.00074
C 3.66072 22.07751 -0.00518
C 6.16024 19.2671 -0.00095
C 2.4083 21.31958 0.0086
C 3.75336 19.23548 0.017
C 3.71623 17.8282 -0.03113
C 2.45025 17.16333 -0.02566
C 2.41733 15.71204 -0.00094
C 3.67457 14.98688 0.02322
C 3.64185 13.54964 -0.00725
C 2.38451 12.85258 -0.05697
C 2.46228 11.45988 0.01087
C 3.67606 10.735 -0.01343
C 2.49865 19.8823 -0.00643
C 15.79907 6.32392 -0.00652
C 6.16974 17.80751 0.01572
C 4.93318 15.73351 -0.00892
C 8.59185 23.515 -0.01634
C 8.60409 22.04653 -0.00334
C 7.39132 21.33067 0.02339
C 7.46825 19.86912 0.01641
C 8.64234 19.16725 -0.00719
C 8.65978 17.78696 0.01364
C 7.35129 17.09621 -0.01062
C 7.41108 15.61129 -0.00033
C 8.68698 14.9062 0.03589
C 8.70299 13.49861 -0.02759
C 7.4011 12.83837 0.0402
C 7.34087 11.4425 0.00572
C 8.59566 10.69445 0.03592
C 8.62331 9.25474 0.00406
C 7.33918 8.57866 0.00943
C 7.4082 7.09751 0.02841
C 8.58479 6.47706 -0.01111
C 8.49433 4.98196 -0.01275
C 7.2458 4.31726 0.00985
C 7.35649 24.25425 0.00057
C 7.34033 25.67608 0.00093
C 8.63181 26.32373 0.01291
C 8.62198 27.709 0.00438
C 6.15036 14.95168 -0.01362
C 6.13622 13.52644 -0.0008
C 4.90259 12.83146 0.0288
C 4.89837 11.41528 0.00393
C 6.14122 10.72379 0.00895
C 6.11138 9.30424 0.00685
C 4.86096 8.61707 0.02888
C 4.9545 7.17132 -0.00482
C 6.15753 6.4814 -0.01384
C 4.98179 17.12815 -0.04848
C 6.05105 5.04785 0.03693
C 4.85491 2.85082 0.00488
C 6.14651 2.20651 -0.01004
C 6.09753 0.75472 -0.02896
C 4.78353 0.11171 -0.00131
C 7.25413 32.66658 -0.01118
C 8.55634 32.00374 -0.014
C 8.52517 30.57636 0.02147
C 7.31666 29.84567 0.00373
C 7.40416 28.4301 -0.00191
C 4.85514 4.28187 0.01745
C 3.58676 32.05121 0.0073
C 15.98587 4.93195 0.0058
C 14.6066 2.81928 0.00675
C 30.76141 2.17092 0.00716
C 30.69527 0.77286 0.00307
C 29.47872 0.05627 0.00346
C 31.90316 32.68987 0.01713
C 33.12035 31.99143 -0.01694
C 33.10394 30.54322 0.01428
C 31.94055 29.88909 -0.02142
C 31.90705 28.46381 0.0544
C 33.17521 27.73274 0.00026
C 33.18204 26.28619 0.00682
C 31.98036 25.57552 -0.01779
C 31.97816 24.1443 0.03794
C 33.1941 23.39582 0.01927
C 33.12214 22.0355 0.01574
C 31.93731 21.27745 -0.02383
C 31.91114 19.86787 -0.01429
C 33.19659 19.20046 -0.0136
C 33.15081 17.72739 0.00594
C 31.85146 17.0107 -0.02474
C 29.40597 2.82176 0.02108
C 31.84953 15.59621 0.00369
C 29.63658 4.32088 0.0103
C 30.66202 6.34813 0.01908
C 29.45441 32.64153 0.00261
C 30.67517 31.97906 0.03265
C 30.75837 30.61162 -0.02049
C 29.48129 29.89963 -0.01854
C 29.47971 28.41045 -0.01415
C 30.69085 27.72071 -0.03039
C 30.73437 26.33207 0.01836
C 29.49926 25.58836 0.03531
C 29.41957 24.17998 -0.00669
C 30.73618 23.42647 0.0101
C 30.70689 21.99462 0.01705
C 29.46995 21.16136 -0.0405
C 29.39988 19.64309 -0.01303
C 30.79677 19.13185 -0.01461
C 30.59535 17.77899 -0.02155
C 29.29458 17.32852 -0.00944
C 29.27532 15.85117 -0.03735
C 30.585 15.01968 -0.00971
C 30.63552 13.61826 0.01518
C 30.80887 4.99701 0.07705
C 33.11863 14.91683 0.00455
C 33.10002 13.48026 -0.00644
C 31.88598 12.67831 -0.01839
C 0.00372 19.92251 0.01951
C 1.19704 19.18018 -0.01678
C 1.1859 17.79485 0.01223
C 34.39261 17.0524 0.00648
C 34.38289 15.59182 0.02114
C 1.17983 14.94565 -0.02957
C 1.14503 13.52972 0.00343
C 34.40116 12.87166 -0.02656
C 0.06059 11.40511 -0.02442
C 1.31066 10.74008 -0.00027
C 1.20492 9.31583 -0.00583
C 34.43303 8.57589 -0.02302
C 0.01498 7.14168 -0.02849
C 1.25166 6.45458 0.02931
C 1.18642 5.07639 0.00628
C 34.33238 4.38594 -0.0345
C 34.3796 2.90739 -0.00931
C 1.18986 2.17804 -0.00939
C 1.13677 0.80941 -0.00468
C 34.329 21.32357 -0.02213
C 1.17424 22.03546 0.02712
C 1.1904 23.44301 0.00723
C 34.43097 24.17663 0.03076
C 32.09314 11.27995 0.00137
C 33.33111 10.705 0.00199
C 33.26713 9.27555 0.04381
C 32.06115 8.6945 0.02806
C 31.82367 7.27846 0.01504
C 33.11803 6.52091 -0.00069
C 33.16345 5.15091 0.04926
C 32.02342 4.31604 -0.03838
C 31.94712 2.89215 0.00349
C 26.99776 0.06698 0.02326
C 33.13801 2.17451 -0.00323
C 31.9442 0.07243 0.0001
C 34.33674 32.73602 -0.02927
C 1.10143 31.9952 -0.01404
C 1.12554 30.54323 0.01027
C 34.32247 29.87943 0.01831
C 34.35708 28.40285 -0.01037
C 1.17429 27.8106 -0.00439
C 1.20705 26.26601 -0.00598
C 34.40746 25.54492 -0.05239
C 33.19809 0.80581 -0.00841
C 28.23048 0.79271 0.00924
C 28.17038 2.21535 0.0014
C 26.99052 2.97801 0.01324
C 18.30212 1.99278 0.02239
C 18.36602 0.62978 0.01153
C 17.1341 34.02961 0.02734
C 19.6513 32.65932 -0.0055
C 20.90706 31.94786 0.01515
C 20.86955 30.4816 -0.00225
C 19.63928 29.74395 0.00071
C 19.65159 28.35183 -0.01107
C 20.86569 27.53187 -0.01586
C 20.83417 26.10402 -0.01971
C 19.62969 25.44421 -0.02118
C 19.67318 23.98518 0.00733
C 20.95329 23.32717 -0.00178
C 20.88135 21.83421 0.00768
C 19.68181 21.30615 -0.0276
C 19.50797 2.77102 0.03005
C 20.8437 2.21755 -0.04078
C 20.84425 0.74572 0.02117
C 19.64145 34.0511 0.02737
C 17.09413 2.78113 -0.03213
C 17.14974 4.11517 -0.02845
C 17.09848 12.54782 0.03374
C 18.11088 13.47512 0.0296
C 15.81783 2.05857 -0.00311
C 15.84604 0.66206 0.00742
C 14.63083 34.02281 -0.01594
C 17.17131 32.64264 0.0106
C 18.39847 31.89373 -0.01154
C 18.40695 30.47434 -0.01721
C 17.13673 29.78778 -0.02422
C 17.15129 28.35772 0.01277
C 18.41058 27.64886 0.00096
C 22.06446 32.71872 -0.00498
C 18.41476 26.16815 -0.01527
C 17.28441 24.01989 0.00199
C 18.45649 23.2671 0.01511
C 18.47642 21.79467 -0.00478
C 17.26078 21.15875 -0.01662
C 17.30709 19.66742 -0.01185
C 18.15596 18.42332 0.01126
C 17.49573 17.37369 0.01852
C 17.4619 15.84983 -0.00381
C 18.47146 14.76444 0.03046
C 17.23278 25.40916 0.01087
C 14.70008 4.26132 -0.00865
C 23.27888 31.9791 0.00135
C 22.05143 29.76472 0.02555
C 25.81338 2.30661 0.00826
C 25.82304 0.83124 -0.00294
C 24.55001 0.03289 0.00152
C 26.97125 32.63972 0.01257
C 28.19812 31.99678 0.02316
C 28.22146 30.57972 0.04185
C 27.01732 29.78475 0.00194
C 26.98371 28.30647 -0.00621
C 28.22195 27.62163 0.02611
C 28.21883 26.23622 0.02198
C 26.93893 25.53247 0.01094
C 27.09249 24.15577 0.00235
C 28.29832 23.40307 0.01495
C 28.2975 21.92665 0.01259
C 26.99471 21.35906 0.01799
C 28.48263 18.50932 0.01699
C 28.42355 14.80317 -0.00416
C 28.51435 5.28496 0.01177
C 27.11396 4.46966 0.04266
C 24.57957 2.90726 0.00487
C 24.67487 4.20978 -0.00942
C 25.86383 4.89754 -0.02815
C 25.89512 22.09524 0.00622
C 22.14486 28.24472 0.01423
C 23.3761 27.57086 -0.00285
C 23.29207 26.16729 -0.009
C 22.06653 25.48012 -0.01199
C 22.16622 24.02413 -0.00229
C 23.31799 23.31719 -0.00938
C 22.07467 2.7735 -0.0264
C 23.23284 2.08781 -0.01154
C 23.28275 0.63424 0.00684
C 23.25665 30.51564 0.03102
C 22.03113 0.11636 -0.01052
C 25.77472 31.9975 0.00367
C 25.77075 30.5388 0.04306
C 24.55078 29.89399 0.00996
C 24.61565 28.38135 0.00195
C 25.77409 27.60106 -0.00802
C 25.71365 26.19432 -0.00218
C 24.55101 25.45465 -0.01654
C 24.58179 24.0511 -0.00037
C 25.80598 23.42145 -0.0032
C 24.54248 32.6502 -0.01679
C 2.32967 32.75845 0.00402
