369
Graphene
C 34.35207 0.01799 0.01295
C 11.04301 9.22468 -0.01952
C 9.83402 8.5496 -0.02813
C 9.84744 7.14704 0.00374
C 11.02253 6.46594 0.00052
C 10.97721 4.99002 -0.03682
C 9.7584 4.25444 0.01965
C 9.79804 2.82941 0.02058
C 10.98396 2.07976 -0.01957
C 11.05728 0.68449 -0.0108
C 9.77665 34.01986 -0.00368
C 12.32599 32.6289 -0.02696
C 13.50515 31.94618 -0.00114
C 13.50886 30.5816 0.00228
C 12.28899 29.81688 0.00798
C 12.30436 28.4063 0.00422
C 13.46339 27.6305 0.0351
C 13.49919 26.28072 -0.03113
C 12.3059 25.59115 0.02098
C 12.28169 24.13648 0.01848
C 11.13519 10.66087 0.05265
C 13.53234 23.39131 -0.00619
C 9.81951 11.33121 -0.01717
C 11.07669 13.43929 0.02299
C 7.30591 0.0096 0.02819
C 9.80086 32.59386 0.00165
C 11.107 31.97772 -0.02971
C 11.11181 30.56735 0.02894
C 9.87729 29.89764 -0.01789
C 9.87488 28.45644 0.00444
C 11.09798 27.73572 -0.00925
C 11.06779 26.32119 0.01877
C 9.85876 25.62031 0.01363
C 9.86759 24.1855 -0.02162
C 11.01883 23.42459 0.00415
C 11.04706 22.02512 -0.0014
C 9.83957 21.28795 0.02162
C 9.89994 19.82799 0.0076
C 11.08332 19.16914 0.01241
C 11.1449 17.73993 -0.01454
C 9.82954 16.98113 0.01945
C 9.77636 15.58277 0.01416
C 11.07539 14.8794 0.03542
C 9.78986 12.69042 0.00244
C 8.49921 0.68341 -0.00891
C 13.51923 21.98885 -0.02162
C 12.36402 19.85053 -0.00481
C 14.6434 28.29268 0.04892
C 15.87961 27.63525 -0.00111
C 15.92554 26.25835 -0.03557
C 14.74323 25.5623 0.03754
C 14.7827 24.04869 0.01739
C 15.99999 23.37001 0.00755
C 16.01322 21.95589 -0.0054
C 14.74548 21.28558 0.00667
C 14.8218 19.8674 0.00143
C 16.05296 19.07663 -0.017
C 16.13945 17.7067 0.00364
C 14.8444 16.98546 -0.00831
C 14.84137 15.57739 -0.02957
C 16.08213 14.84748 -0.04422
C 15.92565 13.43045 0.00654
C 14.70829 12.67444 -0.00703
C 14.75329 11.36009 -0.04076
C 14.82798 6.84489 -0.00652
C 15.78253 5.17968 0.0058
C 14.74563 29.76048 0.01452
C 12.3086 21.30065 0.00889
C 15.99731 30.48293 -0.01581
C 14.76252 32.63446 -0.01979
C 13.61985 19.13438 0.00979
C 13.597 17.75942 0.01443
C 12.33239 17.03419 0.03505
C 12.30825 15.59132 -0.02815
C 13.5741 14.85815 -0.04147
C 13.49041 13.45462 -0.05302
C 12.25667 12.73032 0.00213
C 12.32765 11.34681 -0.00066
C 13.6981 10.4889 -0.00289
C 13.54619 9.10952 0.00028
C 12.25513 8.47536 -0.02213
C 12.3142 7.12411 0.03698
C 13.50892 6.38257 -0.00109
C 13.45243 5.0009 -0.00491
C 12.19644 4.23425 0.03338
C 12.23538 2.78061 -0.0258
C 13.42277 2.12642 -0.0331
C 13.46404 0.78722 -0.00316
C 12.35356 0.00272 0.02188
C 15.95117 31.98561 0.02691
C 8.5623 2.19331 -0.01046
C 7.33046 2.92388 -0.02689
C 7.39045 4.32817 -0.01536
C 3.72118 6.46935 -0.03337
C 3.64409 4.99743 0.01227
C 2.48495 4.28111 0.00873
C 2.42319 2.85505 -0.00049
C 3.68924 2.20193 0.00848
C 3.69846 0.75629 -0.01303
C 2.4123 0.09962 -0.01378
C 4.94358 32.72741 0.02635
C 6.12685 31.99052 0.0127
C 6.13258 30.51277 0.01396
C 4.89332 29.83428 0.01849
C 4.97339 28.42287 -0.01142
C 6.18946 27.71457 -0.00562
C 6.16936 26.34331 -0.00494
C 4.92349 25.65435 0.00054
C 4.89787 24.20922 0.03007
C 6.15934 23.49612 -0.00095
C 6.16796 22.09332 0.01572
C 4.90583 21.34062 -0.04848
C 2.52216 7.17802 -0.00966
C 4.96248 19.93219 -0.00892
C 2.43232 8.51751 -0.02929
C 3.67222 10.72562 -0.00077
C 3.66119 30.53191 0.01996
C 2.44105 29.84683 -0.03996
C 2.44326 28.46516 0.01465
C 3.67694 27.72027 -0.00074
C 3.68897 26.29154 -0.00518
C 2.40212 25.59227 0.0086
C 2.43303 24.17715 -0.00643
C 3.66989 23.53986 0.017
C 3.69532 22.03264 -0.03113
C 2.47386 21.24704 -0.02566
C 2.46149 19.86648 -0.00094
C 3.68146 19.18329 0.02322
C 3.6847 17.7628 -0.00725
C 2.40952 17.04069 -0.05697
C 2.3568 15.64614 0.01087
C 3.58315 14.95323 -0.01343
C 3.62585 13.57037 0.00988
C 2.4711 12.83256 0.0276
C 2.46928 11.36806 0.01305
C 3.6209 9.26007 0.03368
C 6.1432 19.17924 -0.01362
C 6.13328 17.77363 -0.0008
C 4.89938 17.07776 0.0288
C 7.40645 24.15465 0.01641
C 8.67008 23.45184 -0.00719
C 8.59842 22.03267 0.01364
C 7.38356 21.36986 -0.01062
C 7.36449 19.91167 -0.00033
C 8.66186 19.26822 0.03589
C 8.60825 17.82087 -0.02759
C 7.35571 17.09449 0.0402
C 7.38405 15.5859 0.00572
C 8.5635 14.8566 0.03592
C 8.58957 13.4026 0.00406
C 7.36853 12.76657 0.00943
C 7.36105 11.41918 0.02841
C 8.56593 10.62385 -0.01111
C 8.55868 9.25957 -0.01275
C 7.30218 8.58759 0.00985
C 7.3663 7.20948 -0.02245
C 8.59898 6.4343 -0.00428
C 8.59515 5.005 0.03101
C 7.38138 25.58073 0.02339
C 8.59577 26.32474 -0.00334
C 8.61771 27.76792 -0.01634
C 7.39289 28.4533 0.00057
C 4.83346 15.66007 0.00393
C 6.1531 14.94122 0.00895
C 6.13285 13.57408 0.00685
C 4.90357 12.88894 0.02888
C 4.90086 11.50597 -0.00482
C 6.09118 10.71405 -0.01384
C 6.10804 9.31894 0.03693
C 4.88489 8.56987 0.01745
C 4.96575 7.20382 0.00488
C 14.62854 4.29573 -0.00865
C 6.13812 6.41307 -0.01004
C 4.87631 4.34859 -0.00131
C 4.91883 2.9013 -0.01118
C 6.08896 2.19121 -0.014
C 6.09425 0.74572 0.02147
C 4.87178 0.06542 0.00373
C 7.32258 32.73666 -0.00191
C 8.57562 31.96426 0.00438
C 8.59183 30.61678 0.01291
C 7.40269 29.8938 0.00093
C 6.17524 4.99511 -0.02896
C 3.67868 31.99728 -0.00279
C 14.65296 2.85241 0.00675
C 15.94803 0.72467 0.00742
C 30.73843 4.95036 0.00307
C 29.49528 4.30203 0.00346
C 29.44102 2.88122 0.01713
C 30.71554 2.13646 -0.01694
C 30.69618 0.72926 0.01428
C 29.49786 0.02535 -0.02142
C 31.94712 32.69945 0.0544
C 33.1896 32.01538 0.00026
C 33.1703 30.57216 0.00682
C 31.8778 29.79842 -0.01779
C 31.93413 28.44744 0.03794
C 33.23689 27.7608 0.01927
C 33.16719 26.30617 0.01574
C 31.92151 25.60941 -0.02383
C 31.9022 24.1332 -0.01429
C 33.18298 23.43855 -0.0136
C 33.21003 21.9978 0.00594
C 31.94259 21.29319 -0.02474
C 31.93673 19.84181 0.00369
C 30.76853 6.34166 0.00716
C 32.99474 19.13721 0.00455
C 29.58859 7.0837 0.02108
C 29.4363 21.47808 0.07705
C 28.2497 22.1324 0.03265
C 28.3276 6.38723 -0.02049
C 28.25904 5.0559 -0.01854
C 27.05271 4.23475 -0.01415
C 27.04447 2.79321 -0.03039
C 28.21967 2.10155 0.01836
C 28.20457 0.75374 0.03531
C 27.00123 0.03222 -0.00669
C 29.50915 32.66025 0.0101
C 30.72941 31.90049 0.01705
C 30.68646 30.52729 -0.0405
C 29.4745 29.77916 -0.01303
C 29.47684 28.4196 -0.01461
C 30.74958 27.69105 -0.02155
C 30.68917 26.22259 -0.00944
C 29.47856 25.56352 -0.03735
C 29.51569 24.10883 -0.00971
C 30.72433 23.40548 0.01518
C 30.6891 22.05187 0.01908
C 30.59929 9.0706 0.0103
C 28.23338 23.49987 0.00261
C 33.29702 17.82716 -0.00644
C 33.22309 13.44186 0.00137
C 34.34823 19.86111 0.01951
C 1.17498 19.20405 -0.01678
C 1.18534 17.74492 0.01223
C 34.37561 17.00489 0.00648
C 34.33355 15.59686 0.02114
C 1.14444 14.89392 -0.02957
C 1.22528 13.4701 0.00343
C 34.43138 12.74561 -0.02656
C 34.34211 11.36527 -0.02442
C 1.23174 10.69439 -0.00027
C 1.19597 9.28543 -0.00583
C 34.4005 8.61009 -0.02302
C 0.0381 7.14759 -0.02849
C 1.25073 6.42294 0.02931
C 1.21671 5.0271 0.00628
C 34.40808 4.29482 -0.0345
C 34.37394 2.88743 -0.00931
C 1.15572 2.17416 -0.00939
C 1.19894 0.80772 -0.00468
C 0.05481 21.29195 -0.02213
C 33.26355 14.84483 -0.01839
C 1.21314 21.98869 0.02712
C 0.03271 24.1228 0.03076
C 33.2168 10.6508 0.00199
C 33.13423 9.29529 0.04381
C 31.95941 8.4662 0.02806
C 32.00569 7.09573 0.01504
C 33.29258 6.40287 -0.00069
C 33.1729 5.00294 0.04926
C 31.94126 4.27491 -0.03838
C 31.95039 2.88634 0.00349
C 33.19639 2.15773 -0.00323
C 33.13279 0.67636 -0.00841
C 31.8557 0.02747 0.0001
C 34.41987 32.70583 -0.02927
C 1.27929 32.04775 -0.01404
C 1.29223 30.5799 0.01027
C 0.00553 29.90622 0.01831
C 34.41702 28.5254 -0.01037
C 1.21647 27.78488 -0.00439
C 1.15022 26.3693 -0.00598
C 34.3742 25.56996 -0.05239
C 1.25611 23.4271 0.00723
C 27.08255 24.20549 0.02326
C 27.03741 25.62146 0.00924
C 28.29175 26.28578 0.0014
C 18.46291 0.66375 0.01153
C 17.15223 34.01322 0.02734
C 19.70452 32.66941 -0.0055
C 20.93973 31.94281 0.01515
C 20.87499 30.51619 -0.00225
C 19.61312 29.76013 0.00071
C 19.5278 28.34114 -0.01107
C 20.81582 27.66335 -0.01586
C 20.82541 26.22118 -0.01971
C 19.57108 25.44866 -0.02118
C 19.70062 24.0686 0.00733
C 21.0039 23.30505 -0.00178
C 20.9234 21.95377 0.00768
C 19.74231 21.2259 -0.0276
C 19.78704 19.79872 0.03005
C 20.85483 6.23378 -0.04078
C 20.76772 4.96101 0.02117
C 19.59225 4.21855 0.02737
C 19.63461 2.77505 -0.00498
C 18.33988 2.13611 0.02239
C 20.84499 2.11011 0.00135
C 17.1158 2.85453 -0.03213
C 18.37487 4.95421 0.03374
C 14.74382 34.05488 -0.01594
C 17.20291 32.67511 0.0106
C 18.45817 31.92628 -0.01154
C 18.40575 30.4644 -0.01721
C 17.1321 29.77894 -0.02422
C 17.13924 28.36479 0.01277
C 18.32636 27.67823 0.00096
C 18.36275 26.21999 -0.01527
C 17.19995 25.48722 0.01087
C 17.23721 24.07709 0.00199
C 18.44227 23.34896 0.01511
C 18.47738 21.92514 -0.00478
C 17.21721 21.27356 -0.01662
C 17.26237 19.8885 -0.01185
C 18.62653 19.16351 0.01126
C 18.28766 17.81231 0.01852
C 17.43399 16.81346 -0.00381
C 17.34847 15.37453 0.03046
C 17.04422 12.60242 0.0296
C 17.02446 4.49874 -0.02845
C 20.90472 0.63398 0.03102
C 19.66225 34.07819 0.02555
C 22.13628 32.60134 0.01423
C 25.83507 27.71062 -0.00294
C 25.77538 26.26803 0.00152
C 24.51816 25.5963 0.01257
C 24.57817 24.17088 0.02316
C 25.84773 23.46751 0.04185
C 25.86944 22.05623 0.00194
C 26.00085 6.39383 -0.00621
C 25.84815 4.9592 0.02611
C 24.50438 4.32004 0.02198
C 24.56807 2.87785 0.01094
C 25.78163 2.18455 0.00235
C 25.81554 0.74414 0.01495
C 24.68017 0.04168 0.01259
C 27.08545 32.66393 0.01799
C 28.28478 31.96164 0.01699
C 28.30484 30.53015 -0.00416
C 27.01476 29.87787 0.01177
C 27.09589 28.38012 0.04266
C 28.25157 27.68317 0.01324
C 24.48893 28.36115 0.00826
C 24.5626 29.78186 0.00487
C 25.78202 30.47834 -0.00942
C 25.89435 31.89522 -0.02815
C 23.37106 31.91044 -0.00285
C 23.33788 30.51454 -0.009
C 22.10565 29.7913 -0.01199
C 21.9722 28.41228 -0.00229
C 23.34053 27.61565 -0.00938
C 23.28285 26.17058 -0.0264
C 22.09458 25.47593 -0.01154
C 22.19901 24.07353 0.00684
C 23.42736 23.46169 -0.01052
C 15.93131 2.1646 -0.00311
C 23.39899 22.11043 -0.01679
C 22.03807 6.99414 0.04306
C 23.23238 6.42954 0.00996
C 23.31551 5.04872 0.00195
C 22.1069 4.2316 -0.00802
C 22.1162 2.82113 -0.00218
C 23.36908 2.13319 -0.01654
C 23.36642 0.73114 -0.00037
C 22.16152 34.05771 -0.0032
C 24.68063 32.67599 0.00622
C 22.19943 21.34667 0.00367
C 2.50816 32.64616 0.01226
