324
Graphene
C 0.03054 0.04384 0.01295
C 9.87069 12.75348 -0.00066
C 9.80056 11.40034 -0.00289
C 11.06108 10.68516 0.00028
C 11.09282 9.23154 -0.02213
C 9.90227 8.56089 0.03698
C 9.84758 7.13517 -0.00109
C 10.9943 6.32242 -0.00491
C 11.03309 13.46349 0.00213
C 11.02151 4.81865 0.03338
C 9.82186 2.80091 -0.0331
C 11.13836 2.1569 -0.00316
C 11.13602 0.69308 0.02188
C 9.90137 0.00519 -0.01979
C 12.34962 32.60991 0.02691
C 13.52555 32.11984 -0.01581
C 12.32359 21.15025 0.01452
C 9.79419 4.16116 -0.0258
C 12.19016 19.92287 0.04892
C 11.10978 14.80508 -0.05302
C 9.79723 17.00196 -0.02815
C 8.58773 9.26571 -0.02696
C 7.36795 8.51699 -0.00114
C 7.31115 7.14795 0.00228
C 8.50225 6.4757 0.00798
C 8.63678 5.01276 0.00422
C 7.41908 4.28627 0.0351
C 7.40384 2.85894 -0.03113
C 9.86262 15.604 -0.04147
C 8.58774 2.12419 0.02098
C 7.40253 34.07445 -0.00619
C 9.87688 32.67017 -0.02162
C 11.07631 32.11918 0.00889
C 9.70206 21.34117 -0.00481
C 9.80823 19.96731 0.00979
C 11.09565 19.06964 0.01443
C 11.11789 17.70071 0.03505
C 8.65801 0.73526 0.01848
C 12.39683 17.01926 -0.00111
C 12.32389 15.56279 -0.03557
C 13.49816 14.9312 0.03754
C 14.7519 7.04324 -0.01154
C 14.61898 4.22396 -0.01721
C 14.795 2.83068 -0.02422
C 16.09057 2.1492 0.01277
C 16.00461 0.72233 0.00096
C 14.79548 0.02399 -0.01527
C 17.15773 32.72785 0.01087
C 14.79247 8.51655 0.0106
C 18.43357 31.89055 0.00199
C 17.22158 29.77384 -0.00478
C 18.50143 27.80291 -0.01662
C 17.29458 11.25963 -0.01185
C 18.34865 10.65519 0.01126
C 18.42376 9.25989 0.01852
C 17.24132 2.77038 -0.00381
C 18.51234 2.26071 0.03046
C 18.4302 30.45054 0.01511
C 16.055 9.22991 -0.01594
C 16.0173 10.60419 0.00742
C 14.81732 11.29964 -0.00311
C 13.50911 13.51401 0.01739
C 12.26105 12.73895 0.00755
C 12.32863 11.31194 -0.0054
C 13.56969 10.59441 0.00667
C 13.50128 9.26575 0.00143
C 12.26649 8.52208 -0.017
C 12.21632 7.09528 0.00364
C 13.45914 6.476 -0.00831
C 13.49867 5.03793 -0.02957
C 12.28032 4.26812 -0.04422
C 12.3386 2.81518 0.00654
C 13.54651 2.13694 -0.00703
C 13.55 0.73115 -0.04076
C 12.32224 0.06697 -0.00652
C 14.81082 32.63218 0.0058
C 16.03394 31.96108 -0.00865
C 14.75691 12.68458 0.00675
C 8.57334 10.62643 -0.00368
C 18.42849 0.70095 0.0296
C 7.42062 11.38067 -0.0108
C 8.56986 13.49279 0.02058
C 3.64744 9.21376 0.00093
C 2.40712 8.54992 0.00057
C 2.42857 7.08517 -0.01634
C 3.6138 6.40841 -0.00334
C 3.71062 4.99492 0.02339
C 2.52394 4.25896 0.01641
C 2.43853 2.85372 -0.00719
C 3.70878 10.56795 0.01291
C 3.65525 2.12552 0.01364
C 2.48412 0.00181 -0.00033
C 4.86045 32.63069 0.03589
C 6.17448 31.94158 -0.02759
C 6.18346 30.5514 0.0402
C 4.88473 29.9055 0.00572
C 4.92822 28.38955 0.03592
C 6.13533 27.71497 0.00406
C 3.66786 0.70887 -0.01062
C 6.17396 26.33756 0.00943
C 2.45543 11.30918 0.00438
C 3.65716 13.51285 0.00373
C 3.62789 30.58129 0.0288
C 2.42282 29.80642 0.00393
C 2.43946 28.41272 0.00895
C 3.67626 27.7449 0.00685
C 3.70694 26.24329 0.02888
C 2.48464 25.58241 -0.00482
C 2.46914 24.19332 -0.01384
C 2.48307 12.77362 -0.00191
C 3.60239 23.4724 0.03693
C 2.46606 21.33692 0.00488
C 2.42676 19.88503 -0.01004
C 3.62865 19.18848 -0.02896
C 3.6525 17.79185 -0.00131
C 2.50274 17.00739 -0.01118
C 2.52312 15.61738 -0.014
C 3.67666 14.89581 0.02147
C 3.75043 22.0199 0.01745
C 4.93917 25.52961 0.02841
C 4.83096 24.15085 -0.01111
C 6.11756 23.53855 -0.01275
C 4.91921 0.02462 0.0076
C 7.40743 32.63325 0.01241
C 8.60828 31.96557 -0.01454
C 8.66576 30.53795 0.01945
C 7.40219 29.74313 0.01416
C 7.40645 28.37129 0.03542
C 7.23347 25.42673 0.02299
C 6.1358 0.77348 0.02162
C 7.32132 24.27275 0.00244
C 7.34669 21.33734 0.05265
C 7.4266 19.90997 -0.01952
C 8.61122 19.09943 -0.02813
C 8.63568 17.73711 0.00374
C 7.43546 17.0945 0.00052
C 7.38554 15.66014 -0.03682
C 8.61055 14.90515 0.01965
C 8.60671 21.88032 -0.01717
C 6.12523 2.13362 -0.0014
C 4.95534 2.83434 0.00415
C 4.94428 4.24535 -0.02162
C 6.15243 22.08723 0.00985
C 4.95898 21.37605 -0.02245
C 4.87828 19.89808 -0.00428
C 6.18842 19.16445 0.03101
C 6.21503 17.75965 -0.01536
C 4.94079 17.09862 -0.02689
C 4.87915 15.49445 -0.01046
C 6.14163 14.89165 -0.00891
C 6.08245 13.49709 0.02819
C 4.84407 12.72666 0.00165
C 4.9034 11.34207 -0.02971
C 6.13855 10.70239 0.02894
C 6.12694 9.25375 -0.01789
C 4.94818 8.47988 0.00444
C 4.89287 7.11674 -0.00925
C 6.12223 6.42646 0.01877
C 6.19089 4.99101 0.01363
C 7.36093 12.76784 -0.01957
C 17.22413 0.02427 0.03374
C 19.68753 32.69085 -0.02845
C 20.88403 31.98256 -0.03213
C 33.17309 26.33831 0.00682
C 32.01112 25.56394 -0.01779
C 32.01485 24.18435 0.03794
C 33.20086 23.47973 0.01927
C 33.23975 22.07594 0.01574
C 31.89562 21.42754 -0.02383
C 31.91091 19.96394 -0.01429
C 33.23711 27.71846 0.00026
C 33.10957 19.18322 -0.0136
C 31.95642 17.06913 -0.02474
C 32.04371 15.62683 0.00369
C 33.22737 14.88184 0.00455
C 33.18367 13.50448 -0.00644
C 31.93441 12.83959 -0.01839
C 31.97402 11.39031 0.00137
C 33.12402 10.64296 0.00199
C 33.14497 17.8114 0.00594
C 33.20766 9.19038 0.04381
C 31.99116 28.36698 0.0544
C 33.12923 30.58926 0.01428
C 30.72795 13.55667 -0.01303
C 29.55523 12.84063 -0.01461
C 29.53713 11.30245 -0.02155
C 30.72837 10.67904 -0.00944
C 30.6926 9.2032 -0.03735
C 29.53275 8.5275 -0.00971
C 29.46859 7.13918 0.01518
C 31.88023 29.79928 -0.02142
C 30.67984 6.39762 0.01908
C 29.50149 4.23263 0.0103
C 29.49631 2.85276 0.02108
C 30.68054 2.14631 0.00716
C 30.75594 0.74437 0.00307
C 29.53724 34.01801 0.00346
C 31.9654 32.65419 0.01713
C 33.18191 31.99555 -0.01694
C 30.76033 4.97168 0.07705
C 31.9591 8.58448 0.02806
C 31.94665 7.09774 0.01504
C 33.16451 6.39755 -0.00069
C 34.39586 17.06775 0.00648
C 34.38659 15.67053 0.02114
C 1.26915 14.92036 -0.02957
C 1.25769 13.44 0.00343
C 0.05421 12.76398 -0.02656
C 34.40325 11.36184 -0.02442
C 1.21518 10.67565 -0.00027
C 1.25455 17.72902 0.01223
C 1.18746 9.23934 -0.00583
C 34.40637 7.07329 -0.02849
C 1.20295 6.42339 0.02931
C 1.28489 5.00082 0.00628
C 0.0059 4.1791 -0.0345
C 0.03571 2.76112 -0.00931
C 1.27056 2.1455 -0.00939
C 1.23722 0.7669 -0.00468
C 34.42962 8.4638 -0.02302
C 1.17066 19.15977 -0.01678
C 0.01665 19.82638 0.01951
C 34.39598 21.24036 -0.02213
C 33.17155 4.98077 0.04926
C 31.9361 4.26598 -0.03838
C 31.91669 2.84609 0.00349
C 33.17782 2.12652 -0.00323
C 33.22144 0.65345 -0.00841
C 31.99851 34.04862 0.0001
C 0.0237 32.70934 -0.02927
C 1.28605 31.92168 -0.01404
C 1.21599 30.46466 0.01027
C 34.43139 29.83537 0.01831
C 0.0507 28.36979 -0.01037
C 1.21094 27.68424 -0.00439
C 1.2404 26.24548 -0.00598
C 34.41037 25.5886 -0.05239
C 34.41691 24.19404 0.03076
C 1.22714 23.51503 0.00723
C 1.19804 22.03638 0.02712
C 30.76357 15.00512 -0.0405
C 29.48645 15.64509 0.01705
C 30.75149 17.83315 0.0101
C 30.77134 19.05005 -0.00669
C 22.17093 7.16359 0.03102
C 23.41873 6.38803 0.02555
C 23.31917 4.92886 0.01423
C 22.08688 4.30154 -0.00285
C 22.1626 2.86431 -0.009
C 23.34908 2.17742 -0.01199
C 23.34029 0.61584 -0.00229
C 22.12317 8.51959 0.00135
C 22.08249 34.04744 -0.00938
C 25.87422 31.93029 -0.01154
C 25.75339 30.47003 0.00684
C 24.51101 29.83274 -0.01052
C 24.54634 28.27896 -0.01679
C 25.79173 27.69972 0.00367
C 24.48668 11.21684 0.04306
C 25.84724 10.79284 0.00996
C 24.615 32.68191 -0.0264
C 23.33244 9.25112 -0.00498
C 23.47106 10.6826 0.02737
C 23.19355 27.71419 0.02117
C 20.83429 30.54532 0.02239
C 19.68193 29.79459 0.01153
C 19.6652 28.31941 0.02734
C 20.89707 10.63167 -0.0055
C 20.84461 9.30045 0.01515
C 19.63283 8.56339 -0.00225
C 20.85825 6.46709 0.00071
C 20.85217 5.04223 -0.01107
C 19.69938 2.85041 -0.01586
C 20.89286 2.1953 -0.01971
C 20.92206 0.73154 -0.02118
C 19.6996 0.00934 0.00733
C 22.09492 32.63284 -0.00178
C 23.3472 31.95426 0.00768
C 23.32497 30.5321 -0.0276
C 22.07247 29.90906 0.03005
C 22.18628 28.31925 -0.04078
C 25.84827 9.20093 0.00195
C 3.6183 31.94156 -0.0008
C 24.61067 8.55704 -0.00802
C 25.85954 6.3883 -0.01654
C 26.97942 4.18506 0.01699
C 27.00197 2.80385 -0.00416
C 28.3155 2.11837 0.01177
C 28.26666 0.64684 0.04266
C 27.0291 0.00028 0.01324
C 29.55837 32.59027 0.0014
C 30.76216 31.9048 0.00924
C 28.29589 4.96203 0.01799
C 30.67068 30.48961 0.02326
C 29.52585 28.31467 0.03265
C 30.74452 27.65917 -0.02049
C 30.72322 26.22846 -0.01854
C 29.48847 25.52143 -0.01415
C 29.63721 24.14699 -0.03039
C 30.7147 23.45358 0.01836
C 30.64485 21.99556 0.03531
C 29.44078 29.76644 0.00261
C 28.27956 6.3206 0.01259
C 27.03144 7.11 0.01495
C 27.10724 8.50743 0.00235
C 25.8346 4.96037 -0.00037
C 24.48235 4.25148 -0.0032
C 24.56016 2.78892 0.00622
C 25.81314 2.10308 -0.02815
C 25.8173 0.68029 -0.00942
C 24.61425 34.04288 0.00487
C 27.12903 32.62672 0.00826
C 28.33957 31.91973 -0.00294
C 28.25049 30.53502 0.00152
C 27.03538 29.72764 0.01257
C 27.00096 28.33874 0.02316
C 28.24118 27.67785 0.04185
C 28.34761 26.24055 0.00194
C 28.40899 13.43899 -0.00621
C 27.06394 11.31149 0.02611
C 28.27339 10.64826 0.02198
C 28.30149 9.23385 0.01094
C 24.59411 7.0708 -0.00218
C 2.4936 32.69492 -0.01362
