395
Graphene
C 34.40913 0.01005 0.01295
C 10.94212 0.74405 0.00444
C 9.78104 0.05648 -0.00925
C 12.20019 32.71343 0.01877
C 13.38978 32.02716 0.01363
C 13.32905 30.56864 -0.02162
C 12.19022 29.81749 0.00415
C 12.22167 28.41409 -0.0014
C 13.47412 27.74602 0.02162
C 13.52001 26.38971 0.0076
C 10.95912 2.17 -0.01789
C 12.19404 25.6589 0.01241
C 13.5276 23.40505 0.01945
C 13.50924 21.94672 0.01416
C 12.26023 21.32227 0.03542
C 12.37242 19.89631 0.02299
C 13.55029 19.18003 0.00244
C 13.60267 17.79621 -0.01717
C 12.38827 17.01805 0.05265
C 12.32294 15.66037 -0.01952
C 13.60034 14.9377 -0.02813
C 12.27339 24.16538 -0.01454
C 9.70669 2.96018 0.02894
C 9.71935 4.32797 -0.02971
C 11.12578 5.01883 0.00165
C 10.94434 27.67263 -0.01062
C 10.96706 26.28068 -0.00033
C 9.76621 25.59828 0.03589
C 9.8122 24.1649 -0.02759
C 11.04305 23.43309 0.0402
C 11.10838 22.03109 0.00572
C 9.84914 21.29433 0.03592
C 9.92166 19.85494 0.00406
C 11.17701 19.18784 0.00943
C 11.16329 17.73515 0.02841
C 9.87677 17.05421 -0.01111
C 9.83742 15.60442 -0.01275
C 11.06314 14.92026 0.00985
C 11.03752 13.55824 -0.02245
C 9.89441 12.79274 -0.00428
C 9.87098 11.28046 0.03101
C 11.03152 10.68841 -0.01536
C 11.08771 9.22432 -0.02689
C 9.78095 8.51696 -0.01046
C 9.75707 7.09655 -0.00891
C 11.06909 6.44948 0.02819
C 13.55453 13.5561 0.00374
C 12.37437 12.7625 0.00052
C 12.32774 11.36669 -0.03682
C 13.50091 10.71569 0.01965
C 14.79501 17.02366 -0.00289
C 14.78055 15.53844 0.00028
C 16.14179 14.90807 -0.02213
C 16.09123 13.47504 0.03698
C 14.76686 12.85962 -0.00109
C 14.70842 11.47767 -0.00491
C 15.92441 10.60329 0.03338
C 15.90925 9.27947 -0.0258
C 14.74903 8.45465 -0.0331
C 14.77908 7.09043 -0.00316
C 16.04652 6.51316 0.02188
C 16.02959 5.03676 -0.01979
C 14.8246 4.37379 0.02691
C 14.74766 2.93935 -0.01581
C 15.94994 2.17642 0.01452
C 15.91827 0.68836 0.04892
C 14.70739 34.06647 -0.00111
C 17.15938 32.62336 -0.03557
C 18.40291 31.91279 0.03754
C 18.36018 30.46556 0.01739
C 17.09695 29.84587 0.00755
C 16.00033 17.72599 -0.00066
C 9.76267 28.45164 0.01364
C 16.01565 19.07651 0.00213
C 14.80578 21.23996 -0.04147
C 13.52569 9.17991 0.02058
C 12.28522 8.53921 -0.01957
C 12.25494 7.17499 -0.0108
C 13.5283 6.45293 -0.00368
C 13.59994 5.04377 -0.02696
C 12.31466 4.32974 -0.00114
C 12.28211 2.85456 0.00228
C 13.5701 2.15637 0.00798
C 13.45027 0.70964 0.00422
C 12.22347 0.04533 0.0351
C 14.7056 32.65346 -0.03113
C 15.90641 31.93907 0.02098
C 15.8301 30.57307 0.01848
C 14.60412 29.92183 -0.00619
C 14.6466 28.49517 -0.02162
C 15.88587 27.72058 0.00889
C 15.93381 26.25696 -0.00481
C 14.73808 25.57761 0.00979
C 14.76896 24.09464 0.01443
C 15.96304 23.2961 0.03505
C 16.07802 21.90304 -0.02815
C 14.80344 19.91159 -0.05302
C 17.17132 28.39575 -0.0054
C 9.71797 29.86604 -0.00719
C 10.98157 31.96472 0.02339
C 2.33111 4.34801 -0.00279
C 2.34299 2.85312 0.01996
C 3.54225 2.24369 -0.03996
C 3.64104 0.846 0.01465
C 2.37771 0.07237 -0.00074
C 4.86795 32.68585 -0.00518
C 6.02053 32.03468 0.0086
C 6.01209 30.58134 -0.00643
C 4.87264 29.86377 0.017
C 3.58063 5.0429 0.01226
C 4.89123 28.47929 -0.03113
C 6.07637 26.29286 -0.00094
C 4.87553 25.66898 0.02322
C 4.93001 24.2465 -0.00725
C 6.20696 23.45664 -0.05697
C 6.14693 22.09968 0.01087
C 4.92266 21.2753 -0.01343
C 5.02446 19.88012 0.00988
C 6.14896 19.15637 0.0276
C 6.19737 17.8031 0.01305
C 6.09706 27.74783 -0.02566
C 3.57341 6.38267 0.03828
C 2.40331 7.13519 0.0174
C 2.32196 8.55305 0.0073
C 3.67069 30.52832 -0.01977
C 2.36681 29.86892 -0.00561
C 2.40397 28.4665 0.00208
C 3.61525 27.69572 0.01707
C 3.67006 26.3086 0.02769
C 2.47718 25.39901 -0.03291
C 2.50092 24.05942 -0.04999
C 3.76657 23.44103 0.04505
C 3.67598 21.92583 0.03284
C 2.4623 21.30042 -0.04307
C 2.45632 19.8138 0.03189
C 3.73566 19.14111 0.00031
C 3.70276 17.71938 -0.003
C 2.40961 17.09152 0.01402
C 2.4475 15.66964 0.02379
C 3.69412 14.86729 0.00907
C 3.6097 13.38453 0.00643
C 2.39009 12.78987 -0.01509
C 2.35773 11.32213 0.03267
C 3.60396 10.70704 0.02374
C 3.62076 9.33633 0.00402
C 4.93838 17.07231 -0.00077
C 4.95055 15.61595 0.03368
C 6.21174 14.84198 -0.02929
C 6.0943 13.5612 -0.00966
C 7.39965 19.96545 0.00685
C 8.68648 19.20778 0.02888
C 8.67159 17.82024 -0.00482
C 7.38153 17.08053 -0.01384
C 7.38643 15.69943 0.03693
C 8.59391 14.90258 0.01745
C 8.59065 13.53229 0.00488
C 7.34142 12.80338 -0.01004
C 7.3583 11.37821 -0.02896
C 8.58125 10.67543 -0.00131
C 8.61984 9.25913 -0.01118
C 7.37828 8.61361 -0.014
C 7.30717 7.14135 0.02147
C 8.57889 6.50009 0.00373
C 8.48672 5.11237 -0.00191
C 7.27605 4.38555 0.00438
C 7.27858 2.92326 0.01291
C 8.48169 2.26801 0.00093
C 8.4767 0.81361 0.00057
C 7.33744 0.06698 -0.01634
C 9.75269 32.7155 -0.00334
C 7.35015 21.33532 0.00895
C 10.9854 30.57744 0.01641
C 8.58832 22.00351 0.00393
C 7.40326 24.16795 -0.0008
C 4.83951 12.79807 -0.03337
C 4.86939 11.38058 0.01227
C 6.09137 10.6836 0.00873
C 6.08226 9.27014 -0.00049
C 4.83696 8.63781 0.00848
C 4.80621 7.15988 -0.01303
C 6.01619 6.49571 -0.01378
C 6.07784 5.07259 0.02635
C 4.84857 4.38219 0.0127
C 4.81027 2.9669 0.01396
C 6.02463 2.21806 0.01849
C 6.02823 0.88213 -0.01142
C 4.81741 0.1155 -0.00562
C 7.29345 32.75782 -0.00494
C 8.48024 32.06944 0.00054
C 8.49731 30.61698 0.03007
C 7.3248 29.96363 -0.00095
C 7.33353 28.5237 0.01572
C 8.55459 27.8711 -0.04848
C 8.51576 26.33006 -0.00892
C 7.33636 25.57254 -0.01362
C 8.56727 23.4172 0.0288
C 3.65956 32.02985 0.02784
C 18.44323 27.73745 0.00667
C 17.18341 25.43856 -0.017
C 30.69316 6.30215 0.01908
C 30.52325 4.88187 0.07705
C 29.28946 4.14375 0.0103
C 29.5224 2.77548 0.02108
C 30.72208 2.05246 0.00716
C 30.73445 0.54799 0.00307
C 29.44446 33.94776 0.00346
C 31.95886 32.60856 0.01713
C 33.13999 31.88895 -0.01694
C 30.59492 15.00103 0.01518
C 33.13833 30.46755 0.01428
C 31.92027 28.4003 0.0544
C 33.16233 27.65229 0.00026
C 33.21523 26.22972 0.00682
C 31.96335 25.46971 -0.01779
C 31.94039 24.04476 0.03794
C 33.19484 23.40272 0.01927
C 33.1518 21.98412 0.01574
C 31.96181 21.24589 -0.02383
C 31.93689 19.83223 -0.01429
C 31.89463 29.83195 -0.02142
C 29.49309 15.75733 -0.00971
C 29.30836 17.08089 -0.03735
C 30.62028 17.79232 -0.00944
C 28.24584 19.20922 0.01177
C 28.20522 17.81289 0.04266
C 26.98127 17.05947 0.01324
C 27.14579 2.79297 0.0014
C 28.26642 2.04396 0.00924
C 28.26296 0.56086 0.02326
C 27.0406 34.00317 0.00261
C 29.4468 32.57646 0.03265
C 30.75535 31.97287 -0.02049
C 30.72864 30.548 -0.01854
C 29.51492 29.80694 -0.01415
C 29.58766 28.42634 -0.03039
C 30.71481 27.67852 0.01836
C 30.74071 26.25769 0.03531
C 29.50105 25.52213 -0.00669
C 29.48917 24.04779 0.0101
C 30.75924 23.35412 0.01705
C 30.69593 21.90197 -0.0405
C 29.50743 21.28185 -0.01303
C 29.50096 19.88212 -0.01461
C 30.68486 19.19337 -0.02155
C 33.16692 19.11569 -0.0136
C 33.14588 17.73432 0.00594
C 31.83404 17.07128 -0.02474
C 31.82127 15.5885 0.00369
C 1.14959 21.93855 0.02712
C 34.35058 21.17349 -0.02213
C 0.01388 19.89243 0.01951
C 1.24619 19.16229 -0.01678
C 1.15941 17.79769 0.01223
C 34.36116 17.09277 0.00648
C 0.01491 15.73277 0.02114
C 1.19674 14.94288 -0.02957
C 1.20569 13.57676 0.00343
C 34.37931 12.83161 -0.02656
C 34.3462 11.46182 -0.02442
C 1.12084 10.65023 -0.00027
C 1.1193 9.24258 -0.00583
C 34.34027 8.5425 -0.02302
C 34.29147 7.14053 -0.02849
C 1.1843 6.51027 0.02931
C 1.15132 5.052 0.00628
C 34.27551 4.35447 -0.0345
C 34.31517 2.9221 -0.00931
C 1.12289 2.18268 -0.00939
C 1.21526 0.74352 -0.00468
C 1.22944 23.37848 0.00723
C 26.98914 19.85587 -0.00416
C 34.42422 24.11159 0.03076
C 1.24732 26.25514 -0.00598
C 33.14572 14.90993 0.00455
C 33.01215 13.51258 -0.00644
C 31.85822 12.76202 -0.01839
C 32.04275 11.41385 0.00137
C 33.13385 10.68578 0.00199
C 33.10953 9.24272 0.04381
C 31.78961 8.57206 0.02806
C 31.77844 7.17622 0.01504
C 33.06283 6.44198 -0.00069
C 33.07503 5.06161 0.04926
C 31.85507 4.23752 -0.03838
C 31.87232 2.81508 0.00349
C 33.21435 2.16641 -0.00323
C 33.17224 0.7003 -0.00841
C 31.91859 33.99531 0.0001
C 34.36752 32.67788 -0.02927
C 1.18332 31.97397 -0.01404
C 1.13462 30.60507 0.01027
C 34.35228 29.82962 0.01831
C 34.38626 28.36951 -0.01037
C 1.2316 27.63613 -0.00439
C 0.02036 25.58775 -0.05239
C 18.40198 26.29539 0.00143
C 27.0352 21.32747 0.01699
C 28.191 23.44234 0.01259
C 19.50556 29.7824 -0.01662
C 19.66578 28.37078 -0.01185
C 20.94136 27.72498 0.01126
C 20.88996 26.32588 0.01852
C 19.6605 25.61917 -0.00381
C 19.65638 24.14527 0.03046
C 20.81492 23.47233 0.0296
C 20.90112 22.00736 0.03374
C 19.79583 21.2625 -0.02845
C 20.78164 30.52492 -0.00478
C 19.66355 19.83346 -0.03213
C 20.85905 17.80671 0.01153
C 19.63051 17.101 0.02734
C 19.86137 15.75806 -0.0055
C 20.8879 4.93602 0.01515
C 19.69295 4.25487 -0.00225
C 19.62017 2.87222 0.00071
C 20.89576 2.12134 -0.01107
C 20.82987 0.67671 -0.01586
C 19.56541 0.03834 -0.01971
C 20.85996 19.20045 0.02239
C 20.82846 31.95477 0.01511
C 19.60214 32.67665 0.00199
C 17.15374 34.07879 0.01087
C 17.19694 24.02931 0.00364
C 18.43379 23.41282 -0.00831
C 18.53481 22.05042 -0.02957
C 17.31092 21.19821 -0.04422
C 17.17225 19.81214 0.00654
C 18.36243 19.14627 -0.00703
C 18.39523 17.72267 -0.04076
C 17.26106 16.94076 -0.00652
C 17.45725 15.59279 0.0058
C 18.69685 14.86001 -0.00865
C 18.47199 13.46025 0.00675
C 17.40881 12.56851 -0.00311
C 17.25802 11.16194 0.00742
C 17.17038 8.66173 -0.01594
C 17.34501 7.23592 0.0106
C 18.43045 6.41326 -0.01154
C 18.41795 4.93525 -0.01721
C 17.12969 4.23782 -0.02422
C 17.1807 2.88573 0.01277
C 18.35812 2.07525 0.00096
C 18.3696 0.72715 -0.01527
C 22.07455 32.61626 -0.02118
C 23.44414 31.94454 0.00733
C 23.29021 30.52554 -0.00178
C 22.05746 29.89913 0.00768
C 24.46091 24.11196 -0.00218
C 25.86953 23.40525 -0.01654
C 25.80779 21.99954 -0.00037
C 24.61117 21.25604 -0.0032
C 24.59952 19.83198 0.00622
C 25.80115 19.1978 -0.02815
C 25.73489 17.61378 -0.00942
C 24.48958 17.0432 0.00487
C 24.50807 2.796 0.00826
C 25.88883 2.22861 -0.00294
C 25.82885 0.74641 0.00152
C 24.62653 34.02028 0.01257
C 27.06365 32.62428 0.02316
C 28.27043 31.8916 0.04185
C 28.27678 30.51458 0.00194
C 26.99585 29.80659 -0.00621
C 27.03779 28.37893 0.02611
C 28.27337 27.78844 0.02198
C 28.26766 26.29764 0.01094
C 27.03911 25.60755 0.00235
C 26.99884 24.16825 0.01495
C 24.52071 25.54103 -0.00802
C 28.2074 22.00019 0.01799
C 25.85115 26.29329 0.00195
C 24.55485 28.43284 0.04306
C 22.09304 28.396 -0.0276
C 23.35826 27.62423 0.03005
C 23.36 26.24652 -0.04078
C 22.06989 25.60051 0.02117
C 22.04082 24.15606 0.02737
C 23.34105 23.39665 -0.00498
C 23.41839 21.98425 0.00135
C 22.16602 21.29153 0.03102
C 22.11936 19.87114 0.02555
C 23.3456 19.1377 0.01423
C 23.21466 17.57818 -0.00285
C 21.92693 17.01986 -0.009
C 22.06711 4.17324 -0.01199
C 22.17278 2.80663 -0.00229
C 23.40936 2.08491 -0.00938
C 23.356 0.62812 -0.0264
C 22.04099 34.03558 -0.01154
C 24.65122 32.56805 0.00684
C 25.80153 31.93843 -0.01052
C 25.78264 30.50736 -0.01679
C 24.49464 29.79049 0.00367
C 25.75964 27.65806 0.00996
C 2.42341 32.71744 -0.01979
