290
Graphene
C 34.27362 0.0248 0.01295
C 14.74973 32.61236 0.00143
C 16.03764 31.92878 -0.017
C 16.09722 30.58062 0.00364
C 14.84412 29.8984 -0.00831
C 14.75066 28.43957 -0.02957
C 16.09821 27.62295 -0.04422
C 12.27886 0.0643 0.00667
C 15.30559 26.50015 0.00654
C 15.75959 13.54585 -0.04076
C 14.73493 12.62996 -0.00652
C 14.65669 11.22486 0.0058
C 15.94682 10.67238 -0.00865
C 16.00984 9.21377 0.00675
C 14.79292 8.41165 -0.00311
C 15.78923 14.98602 -0.00703
C 14.85341 7.01651 0.00742
C 13.58471 0.6791 -0.0054
C 12.2829 2.80243 0.01739
C 12.25911 32.75397 -0.00491
C 13.58678 31.99689 0.03338
C 13.60071 30.51077 -0.0258
C 12.29757 29.81495 -0.0331
C 12.36114 28.23321 -0.00316
C 13.79172 27.56121 0.02188
C 13.54926 2.09821 0.00755
C 12.01889 10.64379 -0.01979
C 13.58314 9.07465 -0.01581
C 12.3165 8.42123 0.01452
C 12.32746 7.02469 0.04892
C 13.6178 6.33139 -0.00111
C 13.61691 4.90504 -0.03557
C 12.3416 4.16762 0.03754
C 13.53341 10.53528 0.02691
C 9.86689 0.03405 -0.00109
C 16.05406 6.3853 -0.01594
C 14.86854 4.30147 -0.01154
C 18.46434 9.26945 -0.03213
C 17.21815 8.54243 0.02239
C 17.27116 7.17797 0.01153
C 18.45144 6.39153 0.02734
C 18.43553 4.9729 -0.0055
C 17.21129 4.26581 0.01515
C 18.38308 10.74003 -0.02845
C 17.16183 2.79759 -0.00225
C 18.44739 0.70081 -0.01107
C 17.22731 34.07207 -0.01586
C 19.82928 32.62442 -0.01971
C 20.92383 17.60127 -0.02118
C 19.72109 17.15681 0.00733
C 19.50561 15.7731 -0.00178
C 18.37623 2.14949 0.00071
C 16.02965 4.97315 0.0106
C 17.14116 11.42939 0.03374
C 18.26868 13.70143 0.03046
C 14.82731 2.89842 -0.01721
C 15.96444 2.14792 -0.02422
C 16.0527 0.74258 0.01277
C 14.80651 34.00186 0.00096
C 17.26371 32.64371 -0.01527
C 18.59915 31.94639 0.01087
C 17.03918 12.91455 0.0296
C 18.5808 30.55614 0.00199
C 17.28486 28.33951 -0.00478
C 18.80323 19.06299 -0.01662
C 18.09178 17.88298 -0.01185
C 16.85842 17.17849 0.01126
C 17.08075 15.78714 0.01852
C 18.28124 15.07982 -0.00381
C 17.38588 29.76039 0.01511
C 11.07405 0.72858 0.03698
C 10.97487 2.1395 -0.02213
C 9.82387 2.87456 0.00028
C 2.35409 2.89517 -0.01789
C 3.57298 2.13933 0.00444
C 3.61117 0.76608 -0.00925
C 2.37475 0.11759 0.01877
C 4.87577 32.81487 0.01363
C 6.11394 32.06201 -0.02162
C 2.36345 4.3391 0.02894
C 6.0501 30.65218 0.00415
C 4.83085 28.48705 0.02162
C 6.05841 27.799 0.0076
C 6.26604 26.37736 0.01241
C 5.07361 25.58193 -0.01454
C 4.87455 24.19858 0.01945
C 6.05917 9.24085 0.01416
C 4.7979 29.92698 -0.0014
C 4.90045 8.50634 0.03542
C 3.63797 5.0386 -0.02971
C 2.31994 7.16753 0.02819
C 3.58647 30.63401 0.03592
C 2.42906 29.86802 0.00406
C 2.41036 28.45543 0.00943
C 3.63063 27.7442 0.02841
C 3.69063 26.31244 -0.01111
C 2.38776 25.57848 -0.01275
C 3.58248 6.42499 0.00165
C 2.39918 24.08428 0.00985
C 3.59679 21.98236 -0.00428
C 2.41389 21.38415 0.03101
C 2.42798 11.32576 -0.01536
C 3.51173 10.52713 -0.02689
C 3.69986 9.17774 -0.01046
C 2.34849 8.59023 -0.00891
C 3.72646 23.35594 -0.02245
C 4.83747 7.13034 0.02299
C 6.11606 6.45273 0.00244
C 6.04533 5.06319 -0.01717
C 8.62903 0.73735 0.01848
C 7.41248 34.05132 -0.00619
C 9.81764 32.6564 -0.02162
C 11.07185 31.93189 0.00889
C 11.07594 30.45424 -0.00481
C 9.80241 29.80947 0.00979
C 8.62997 2.20288 0.02098
C 9.76414 28.30476 0.01443
C 11.36819 9.47992 -0.02815
C 10.01077 8.76804 -0.04147
C 9.92407 7.17483 -0.05302
C 11.17013 6.3595 0.00213
C 11.09719 4.88863 -0.00066
C 9.80339 4.31725 -0.00289
C 11.06766 27.67252 0.03505
C 7.3971 2.8586 -0.03113
C 7.27921 4.36227 0.0351
C 8.60795 5.14453 0.00422
C 4.82532 4.25026 0.05265
C 4.87409 2.88107 -0.01952
C 6.09584 2.16817 -0.02813
C 6.10673 0.76791 0.00374
C 4.88056 0.07602 0.00052
C 7.34967 32.62669 -0.03682
C 8.61378 31.91716 0.01965
C 8.58475 30.52412 0.02058
C 7.29592 29.93389 -0.01957
C 7.31323 28.52495 -0.0108
C 8.41556 27.6158 -0.00368
C 8.74019 9.16846 -0.02696
C 7.33754 8.59895 -0.00114
C 7.34761 7.18251 0.00228
C 8.6505 6.56223 0.00798
C 20.80103 15.01014 0.00768
C 20.82345 13.54383 -0.0276
C 19.58377 12.82168 0.03005
C 19.56808 11.41748 -0.04078
C 33.27433 21.89363 -0.01429
C 31.98945 19.98275 -0.0136
C 33.23822 19.30744 0.00594
C 33.10469 17.81781 -0.02474
C 31.91174 17.16951 0.00369
C 31.98775 15.86716 0.00455
C 33.20717 23.2768 -0.02383
C 33.20327 15.1432 -0.00644
C 31.94677 12.84479 0.00137
C 31.86565 11.48583 0.00199
C 33.10721 10.69234 0.04381
C 33.1181 9.23477 0.02806
C 31.8464 8.61483 0.01504
C 31.89939 7.20911 -0.00069
C 33.14998 13.69848 -0.01839
C 33.08764 6.46969 0.04926
C 33.30218 26.46161 0.01574
C 31.63051 30.30728 0.03794
C 30.66833 10.76086 0.07705
C 30.67374 9.27616 0.0103
C 29.47214 8.57702 0.02108
C 29.37344 7.10704 0.00716
C 30.68058 6.4203 0.00307
C 30.65199 5.02183 0.00346
C 33.24115 27.75815 0.01927
C 29.42717 4.3591 0.01713
C 30.59403 2.21354 0.01428
C 30.66375 0.81035 -0.02142
C 29.47592 0.0168 0.0544
C 31.91236 32.69907 0.00026
C 33.163 32.08581 0.00682
C 32.9414 30.65769 -0.01779
C 29.40731 2.94358 -0.01694
C 33.15879 5.03376 -0.03838
C 31.88712 4.34344 0.00349
C 31.85032 2.94059 -0.00323
C 1.04763 15.00239 -0.02957
C 1.11454 13.65807 0.00343
C 34.3633 12.87151 -0.02656
C 34.33833 11.48765 -0.02442
C 1.1589 10.69716 -0.00027
C 1.17573 9.29337 -0.00583
C 0.10276 15.93922 0.02114
C 34.35545 8.55508 -0.02302
C 1.17748 6.41893 0.02931
C 1.13449 5.01886 0.00628
C 34.33483 4.35585 -0.0345
C 34.31941 2.86652 -0.00931
C 1.15379 2.18014 -0.00939
C 1.07716 0.74529 -0.00468
C 34.34938 7.18423 -0.02849
C 0.04622 17.34467 0.00648
C 1.00682 18.37212 0.01223
C 0.14926 19.71331 -0.01678
C 33.08324 2.18323 -0.00841
C 33.09317 0.81518 0.0001
C 31.89142 0.05059 -0.02927
C 34.42368 32.7494 -0.01404
C 1.22547 31.98915 0.01027
C 1.14368 30.58179 0.01831
C 34.37008 29.94756 -0.01037
C 34.30623 28.53682 -0.00439
C 1.20072 27.81809 -0.00598
C 1.19827 26.32426 -0.05239
C 34.38605 25.55424 0.03076
C 34.33104 24.0774 0.00723
C 1.16433 23.36889 0.02712
C 1.18626 21.95395 -0.02213
C 34.42923 21.12874 0.01951
C 29.42872 11.46195 0.01908
C 3.60693 32.05778 0.00572
C 29.44072 12.81846 0.01518
C 30.7641 15.02524 -0.03735
C 23.34206 9.30891 0.04306
C 22.08194 8.55762 0.00996
C 22.10691 7.13316 0.00195
C 23.37107 6.38182 -0.00802
C 23.43114 4.89359 -0.00218
C 22.19782 4.25997 -0.01654
C 23.30897 10.69176 0.00367
C 22.15827 2.78806 -0.00037
C 23.27601 0.50593 0.00622
C 22.00459 33.99394 -0.02815
C 24.83991 17.1213 -0.00942
C 24.49984 15.74925 0.00487
C 25.78233 14.85071 0.00826
C 25.76131 13.43543 -0.00294
C 23.31509 2.0056 -0.0032
C 24.54432 12.85126 0.00152
C 22.08812 11.47956 -0.01679
C 23.28634 13.50937 0.00684
C 20.83913 10.73937 0.02117
C 20.86775 9.27206 0.02737
C 19.71096 8.56519 -0.00498
C 19.68045 7.05713 0.00135
C 20.92648 6.34566 0.03102
C 20.99102 4.95477 0.02555
C 22.06575 12.85231 -0.01052
C 19.69129 4.2604 0.01423
C 20.87823 2.15926 -0.009
C 20.90418 0.73093 -0.01199
C 19.65884 34.06504 -0.00229
C 22.06741 17.01968 -0.00938
C 22.03548 15.64809 -0.0264
C 23.25202 14.96639 -0.01154
C 19.66514 2.81493 -0.00285
C 24.56188 11.43385 0.01257
C 25.7429 10.66388 0.02316
C 25.79962 9.26021 0.04185
C 26.93607 7.10528 -0.02049
C 28.16288 6.44957 -0.01854
C 28.15457 4.96927 -0.01415
C 27.00525 4.27602 -0.03039
C 26.98137 2.85153 0.01836
C 28.14966 2.19289 0.03531
C 26.99013 8.55253 0.03265
C 28.25769 0.76322 -0.00669
C 29.68833 32.73326 0.01705
C 30.78623 31.90083 -0.0405
C 30.80962 19.16275 -0.01303
C 30.61153 17.80342 -0.01461
C 29.26448 17.08051 -0.02155
C 29.37941 15.6328 -0.00944
C 27.10198 33.96962 0.0101
C 28.19941 9.1908 0.00261
C 28.23533 10.66291 0.02326
C 27.0162 11.4082 0.00924
C 24.53408 8.57044 0.00194
C 24.49923 7.15978 -0.00621
C 25.71663 6.34496 0.02611
C 25.76884 4.9125 0.02198
C 24.58262 4.1664 0.01094
C 24.5957 2.70552 0.00235
C 25.86083 2.10027 0.01495
C 25.80855 0.43241 0.01259
C 24.54821 34.04728 0.01799
C 27.9403 17.63076 0.01699
C 26.70898 16.92479 -0.00416
C 26.90445 15.54895 0.01177
C 28.21467 14.96399 0.04266
C 28.19936 13.5021 0.01324
C 26.9716 12.75925 0.0014
C 30.69037 13.63438 -0.00971
C 2.42531 32.76016 0.0402
