414
Graphene
C 34.34607 34.07898 0.01295
C 12.22318 28.39566 0.00985
C 13.54945 27.64515 -0.02245
C 13.54029 26.24899 -0.00428
C 12.29405 25.65453 0.03101
C 12.36351 24.19731 -0.01536
C 13.51444 23.34468 -0.02689
C 13.4461 21.93391 -0.01046
C 12.22891 21.18821 -0.00891
C 12.2954 19.83557 0.02819
C 13.57817 19.11752 0.00165
C 13.58889 17.67228 -0.02971
C 12.38773 17.03993 0.02894
C 12.3361 15.61506 -0.01789
C 13.54577 14.91709 0.00444
C 13.55138 13.41387 -0.00925
C 12.28108 12.7895 0.01877
C 12.28126 11.35026 0.01363
C 13.53527 10.53945 -0.02162
C 13.51635 9.13062 0.00415
C 12.32877 8.46284 -0.0014
C 12.26896 7.00526 0.02162
C 12.27719 29.82775 -0.01275
C 13.47467 30.56913 -0.01111
C 13.47239 31.99285 0.02841
C 12.20934 32.74826 0.00943
C 11.08264 22.06349 -0.014
C 9.87006 21.33 0.02147
C 9.80502 19.87376 0.00373
C 11.039 19.0961 -0.00191
C 11.13714 17.74381 0.00438
C 9.87596 17.09325 0.01291
C 9.83501 15.67896 0.00093
C 11.08087 14.99757 0.00057
C 11.08316 13.48614 -0.01634
C 9.85939 12.852 -0.00334
C 13.46479 6.34821 0.0076
C 9.88044 11.34795 0.02339
C 10.99734 9.22284 -0.00719
C 9.85812 8.55851 0.01364
C 9.88641 7.06127 -0.01062
C 11.03519 6.36218 -0.00033
C 11.0917 4.9751 0.03589
C 9.79158 4.29511 -0.02759
C 9.79703 2.86783 0.0402
C 11.13394 2.15906 0.00572
C 11.0977 0.78833 0.03592
C 9.85572 0.1005 0.00406
C 11.07888 10.59572 0.01641
C 13.53715 4.97111 0.01241
C 12.25577 4.29517 -0.01454
C 12.3291 2.82081 0.01945
C 14.80794 8.43603 -0.02162
C 14.75016 7.02342 0.00889
C 16.00785 6.38887 -0.00481
C 16.05932 5.03751 0.00979
C 14.75624 4.18361 0.01443
C 14.82581 2.85756 0.03505
C 16.08021 2.15324 -0.02815
C 16.02873 0.69226 -0.04147
C 14.77762 0.00803 -0.05302
C 17.14988 32.62764 0.00213
C 16.04579 9.19373 -0.00619
C 18.32397 31.98086 -0.00066
C 17.13049 29.87465 0.00028
C 17.15114 28.40558 -0.02213
C 18.38393 27.69506 0.03698
C 18.3679 26.29579 -0.00109
C 17.19334 25.56904 -0.00491
C 17.15578 24.13414 0.03338
C 18.36768 23.42126 -0.0258
C 18.39472 22.05693 -0.0331
C 17.24928 21.29173 -0.00316
C 17.27802 19.89247 0.02188
C 18.40897 30.48446 -0.00289
C 11.11094 23.52999 -0.01118
C 16.01136 10.64564 0.01848
C 14.72651 12.79227 -0.03113
C 13.58231 2.11752 0.01416
C 13.60525 0.70136 0.03542
C 12.26922 0.0703 0.02299
C 14.67906 32.65719 0.00244
C 15.87399 31.93926 -0.01717
C 15.93394 30.53458 0.05265
C 14.68551 29.90209 -0.01952
C 14.73264 28.45791 -0.02813
C 15.91122 27.729 0.00374
C 15.87154 26.31684 0.00052
C 14.72792 11.31229 0.02098
C 14.71372 25.52677 -0.03682
C 16.00252 23.37552 0.02058
C 15.96246 21.9441 -0.01957
C 14.71181 21.25025 -0.0108
C 14.76599 19.85125 -0.00368
C 16.0178 19.21366 -0.02696
C 16.08673 17.73851 -0.00114
C 14.82732 17.05598 0.00228
C 14.82377 15.6174 0.00798
C 16.02693 14.89242 0.00422
C 15.95459 13.47278 0.0351
C 14.7403 24.09479 0.01965
C 9.85786 24.15154 -0.00131
C 9.82756 25.56444 -0.02896
C 11.07147 26.29647 -0.01004
C 2.39238 2.84264 0.04505
C 3.66371 2.1364 0.03284
C 3.64024 0.7945 -0.04307
C 2.46105 34.06078 0.03189
C 4.89888 32.67788 0.00031
C 6.14637 32.06151 -0.003
C 6.13664 30.58558 0.01402
C 4.85213 29.82933 0.02379
C 4.91349 28.38673 0.00907
C 6.14283 27.62573 0.00643
C 2.33197 4.2302 -0.04999
C 6.16427 26.24121 -0.01509
C 4.90154 24.04198 0.02374
C 6.21311 23.41609 0.00402
C 6.14172 22.00046 0.0073
C 4.90714 21.32246 0.0174
C 4.88651 19.94894 0.03828
C 6.1204 19.21392 0.01226
C 6.15629 17.84832 -0.00279
C 4.93628 17.06665 0.01996
C 4.99617 15.60377 -0.03996
C 6.18014 14.91271 0.01465
C 4.98539 25.5205 0.03267
C 6.21455 13.49441 -0.00074
C 3.58394 5.04301 -0.03291
C 2.44239 7.0225 0.01707
C 3.65263 30.54101 0.03278
C 2.43966 29.81473 -0.00177
C 2.41025 28.33798 0.04421
C 3.6882 27.71224 0.00088
C 3.73451 26.23405 0.00828
C 2.47965 25.58032 -0.02375
C 2.48767 24.20062 0.00558
C 3.70238 23.3902 -0.0059
C 3.66185 22.01479 -0.01386
C 2.41605 21.25563 -0.02805
C 3.68094 6.39788 0.02769
C 2.35413 19.83662 0.00081
C 3.7184 17.73307 0.02728
C 2.47402 17.06069 -0.00039
C 2.49988 15.69169 0.0064
C 3.67453 14.96934 0.00211
C 3.69358 13.54472 -0.00449
C 2.46267 12.7704 -0.01979
C 2.41799 11.3771 0.02784
C 3.6345 10.64232 -0.01977
C 3.5722 9.2151 -0.00561
C 2.36513 8.57833 0.00208
C 3.6224 19.16522 0.00245
C 18.48412 19.14731 -0.01979
C 4.9881 12.77527 -0.00518
C 6.10658 10.74044 -0.00643
C 7.38816 15.65688 0.01849
C 8.6218 14.98802 -0.01142
C 8.65583 13.54601 -0.00562
C 7.48932 12.80026 -0.00494
C 7.41843 11.36085 0.00054
C 8.64842 10.66493 0.03007
C 8.59071 9.282 -0.00095
C 7.34501 8.53844 0.01572
C 7.39598 7.17313 -0.04848
C 8.63255 6.441 -0.00892
C 7.37374 17.08715 0.01396
C 8.58997 5.03157 -0.01362
C 7.32067 2.90588 0.0288
C 8.56611 2.2459 0.00393
C 8.46739 0.86187 0.00895
C 7.26847 0.15525 0.00685
C 9.7925 32.79148 0.02888
C 11.04255 32.01345 -0.00482
C 11.05382 30.5642 -0.01384
C 9.75414 29.9317 0.03693
C 9.81501 28.48909 0.01745
C 11.02407 27.72848 0.00488
C 7.36045 4.38055 -0.0008
C 4.87529 11.35953 0.0086
C 8.63481 17.75219 0.0127
C 7.35524 19.85943 -0.01378
C 6.08681 9.23939 0.017
C 4.82161 8.58305 -0.03113
C 4.94185 7.11896 -0.02566
C 6.1983 6.46224 -0.00094
C 6.03057 4.98588 0.02322
C 4.78235 4.30544 -0.00725
C 4.85554 2.88375 -0.05697
C 6.09495 2.17133 0.01087
C 6.03854 0.80183 -0.01343
C 4.86077 0.01058 0.00988
C 8.61756 19.15535 0.02635
C 7.3209 32.77798 0.0276
C 8.52694 30.66283 -0.00077
C 7.26119 29.85201 0.03368
C 7.27942 28.46748 -0.02929
C 8.5747 27.79462 -0.00966
C 8.6175 26.33247 -0.03337
C 7.40451 25.57682 0.01227
C 7.38303 24.11962 0.00873
C 8.62855 23.4612 -0.00049
C 8.65092 22.0327 0.00848
C 7.45726 21.25494 -0.01303
C 8.59912 32.06979 0.01305
C 18.45671 17.7018 0.02691
C 17.25649 17.04799 -0.01581
C 17.21028 15.61106 0.01452
C 30.72748 10.71201 -0.00944
C 30.76269 9.20592 -0.03735
C 29.52863 8.61192 -0.00971
C 29.39807 7.21726 0.01518
C 30.70912 6.40933 0.01908
C 30.76846 4.97332 0.07705
C 29.53375 4.19755 0.0103
C 29.56564 2.8248 0.02108
C 30.75711 2.08694 0.00716
C 30.75706 0.64032 0.00307
C 29.47654 11.39293 -0.02155
C 29.54023 0.07051 0.00346
C 33.27693 31.87508 -0.01694
C 33.084 30.51083 0.01428
C 31.88655 29.85697 -0.02142
C 31.87005 28.36691 0.0544
C 33.05843 27.66792 0.00026
C 33.14723 26.23447 0.00682
C 31.96022 25.49262 -0.01779
C 32.00339 24.12771 0.03794
C 33.23297 23.4508 0.01927
C 33.20301 21.97709 0.01574
C 31.98666 32.61416 0.01713
C 31.94519 21.28471 -0.02383
C 29.59454 12.84619 -0.01461
C 30.73161 14.9559 -0.0405
C 26.96826 4.13859 0.01495
C 27.03894 2.79266 0.01259
C 28.32735 2.11349 0.01799
C 28.34888 0.74076 0.01699
C 27.10886 34.06742 -0.00416
C 29.62126 32.71325 0.01177
C 30.77186 31.95079 0.04266
C 30.71769 30.56788 0.01324
C 29.48424 29.84595 0.0014
C 29.53893 28.42475 0.00924
C 30.80308 13.46192 -0.01303
C 30.66648 27.62551 0.02326
C 29.45406 25.61647 0.03265
C 29.51212 24.14323 -0.02049
C 30.7685 23.41489 -0.01854
C 30.72257 21.91603 -0.01415
C 29.47383 21.26662 -0.03039
C 29.47322 19.82318 0.01836
C 30.70036 19.10704 0.03531
C 30.65242 17.69962 -0.00669
C 29.48087 17.03768 0.0101
C 29.50623 15.57758 0.01705
C 30.71318 26.21671 0.00261
C 28.09099 4.95369 0.00235
C 31.90727 19.83957 -0.01429
C 33.24173 17.71023 0.00594
C 1.24359 23.49282 0.00723
C 1.23739 22.04154 0.02712
C 0.00216 21.33204 -0.02213
C 34.37837 19.92467 0.01951
C 1.14633 19.15312 -0.01678
C 1.2058 17.76416 0.01223
C 34.41326 17.08736 0.00648
C 34.38342 15.61094 0.02114
C 1.25398 14.91874 -0.02957
C 1.22949 13.50367 0.00343
C 0.02595 24.16343 0.03076
C 34.43016 12.8231 -0.02656
C 1.13812 10.6426 -0.00027
C 1.13178 9.22191 -0.00583
C 34.41152 8.50532 -0.02302
C 34.43044 7.10521 -0.02849
C 1.23748 6.41034 0.02931
C 1.1624 5.00355 0.00628
C 34.41025 4.27654 -0.0345
C 34.36679 2.79024 -0.00931
C 1.1598 2.12281 -0.00939
C 1.20186 0.68553 -0.00468
C 34.4039 11.39567 -0.02442
C 33.15119 19.14853 -0.0136
C 34.35496 25.60958 -0.05239
C 1.18182 27.72624 -0.00439
C 32.03531 17.04528 -0.02474
C 31.97685 15.63926 0.00369
C 33.1792 14.9233 0.00455
C 33.1882 13.45653 -0.00644
C 31.99645 12.75494 -0.01839
C 31.96452 11.34515 0.00137
C 33.15689 10.58616 0.00199
C 33.21862 9.18135 0.04381
C 31.95199 8.49612 0.02806
C 31.98034 7.04709 0.01504
C 1.23365 26.29515 -0.00598
C 33.22921 6.38137 -0.00069
C 31.96 4.30742 -0.03838
C 31.9341 2.84072 0.00349
C 33.17499 2.14437 -0.00323
C 33.15978 0.73964 -0.00841
C 31.96501 34.04394 0.0001
C 0.02664 32.66168 -0.02927
C 1.22331 31.94891 -0.01404
C 1.161 30.51125 0.01027
C 0.00379 29.73528 0.01831
C 34.33526 28.35474 -0.01037
C 33.19388 5.00217 0.04926
C 3.69318 31.99883 0.01138
C 28.44143 6.25655 0.01094
C 27.16673 12.65764 0.02611
C 20.89597 19.13771 -0.01721
C 20.92719 17.70591 -0.02422
C 19.69826 17.05516 0.01277
C 19.72854 15.63474 0.00096
C 20.8651 14.83394 -0.01527
C 19.73596 12.83249 0.01087
C 19.81467 4.16977 0.00199
C 19.73699 2.81313 0.01511
C 20.91682 2.09989 -0.00478
C 20.9295 0.70449 -0.01662
C 19.70193 19.87866 -0.01154
C 19.63207 0.03656 -0.01185
C 23.31156 32.00604 0.01852
C 23.34257 30.52522 -0.00381
C 22.08012 29.85045 0.03046
C 22.1012 28.38346 0.0296
C 23.34888 27.66254 0.03374
C 23.32101 26.28255 -0.02845
C 22.11197 25.56994 -0.03213
C 22.10638 24.05909 0.02239
C 23.33933 23.45991 0.01153
C 23.35322 22.02271 0.02734
C 21.99284 32.70293 0.01126
C 22.07552 21.36883 -0.0055
C 19.67413 21.29541 0.0106
C 20.83423 23.4642 0.00742
C 18.44473 14.89424 0.04892
C 18.55984 13.41694 -0.00111
C 17.28507 12.82376 -0.03557
C 17.16731 11.35555 0.03754
C 17.2178 8.58206 0.01739
C 17.30124 7.21416 0.00755
C 18.25053 6.1869 -0.0054
C 18.73861 4.94344 0.00667
C 17.31958 4.32772 0.00143
C 17.25032 2.85449 -0.017
C 20.83861 22.04462 -0.01594
C 18.49022 2.08953 0.00364
C 17.20022 34.04891 -0.02957
C 19.5895 32.70091 -0.04422
C 20.76826 31.93937 0.00654
C 20.88026 30.54016 -0.00703
C 19.65222 29.76706 -0.04076
C 19.56578 28.34551 -0.00652
C 20.94367 27.65676 0.0058
C 20.87228 26.18513 -0.00865
C 19.58143 25.52588 0.00675
C 19.61038 24.15258 -0.00311
C 18.44123 0.66587 -0.00831
C 28.32078 10.693 0.02198
C 22.09507 19.94068 0.01515
C 23.34399 17.73947 0.00071
C 25.82573 2.08711 -0.01679
C 25.83035 0.60992 0.00367
C 24.63258 34.03437 0.04306
C 27.11115 32.7245 0.00996
C 28.27887 31.94223 0.00195
C 28.23073 30.54117 -0.00802
C 27.02654 29.82691 -0.00218
C 27.06176 28.38405 -0.01654
C 28.31906 27.7118 -0.00037
C 28.272 26.30582 -0.0032
C 24.6657 2.6784 -0.01052
C 27.01946 25.51451 0.00622
C 28.2855 23.40434 -0.00942
C 28.27196 21.96329 0.00487
C 27.03041 21.35471 0.00826
C 27.05422 19.85401 -0.00294
C 28.20988 19.11924 0.00152
C 28.1981 17.72573 0.01257
C 26.9807 17.07631 0.02316
C 27.07046 15.66557 0.04185
C 28.27596 14.89125 0.00194
C 28.28881 13.4579 -0.00621
C 27.06638 24.14227 -0.02815
C 23.30815 19.14263 -0.00225
C 25.9024 14.8484 0.00684
C 24.58883 17.07701 -0.0264
C 22.10848 17.06834 -0.01107
C 22.069 15.53477 -0.01586
C 23.34217 15.08731 -0.01971
C 22.10267 2.71136 -0.02118
C 23.40385 2.20764 0.00733
C 23.36917 0.71667 -0.00178
C 22.19869 34.07253 0.00768
C 24.5607 32.60262 -0.0276
C 25.84393 31.91709 0.03005
C 25.77974 30.5157 -0.04078
C 24.65111 15.45154 -0.01154
C 24.60424 29.74667 0.02117
C 25.81174 27.56857 -0.00498
C 25.82697 26.20801 0.00135
C 24.59264 25.58032 0.03102
C 24.5832 24.21239 0.02555
C 25.83322 23.4015 0.01423
C 25.71768 21.97521 -0.00285
C 24.52261 21.35749 -0.009
C 24.5332 19.89827 -0.01199
C 25.79494 19.19314 -0.00229
C 25.73582 17.75622 -0.00938
C 24.66417 28.35645 0.02737
C 2.46863 32.66494 -0.00407
