350
Graphene
C 0.01328 34.0693 0.01295
C 11.06089 0.72233 0.00798
C 9.82998 0.00966 0.00422
C 12.19664 32.70062 0.0351
C 13.46262 31.97945 -0.03113
C 13.48811 30.59828 0.02098
C 12.2629 29.84394 0.01848
C 12.29034 28.40278 -0.00619
C 13.53274 27.69244 -0.02162
C 13.50942 26.24515 0.00889
C 12.25003 25.62369 -0.00481
C 12.21575 24.21082 0.00979
C 13.32616 23.44148 0.01443
C 13.5171 4.96266 0.03505
C 12.30731 4.36512 -0.02815
C 12.33791 2.98192 -0.04147
C 13.57153 2.18668 -0.05302
C 13.51215 0.815 0.00213
C 11.08318 2.1826 0.00228
C 9.9438 3.023 -0.00114
C 9.82613 4.4113 -0.02696
C 10.99682 5.15391 -0.00368
C 8.70282 2.19823 0.01241
C 8.64302 0.7917 -0.01454
C 7.37908 0.05127 0.01945
C 9.77975 32.73158 0.01416
C 10.97941 32.01138 0.03542
C 10.98069 30.51792 0.02299
C 9.71838 29.76946 0.00244
C 9.73831 28.38719 -0.01717
C 12.32195 0.0563 -0.00066
C 11.08154 27.78529 0.05265
C 9.75563 25.66841 -0.02813
C 9.76236 24.20444 0.00374
C 10.94334 23.5754 0.00052
C 11.02902 22.1443 -0.03682
C 9.93943 21.3454 0.01965
C 9.72573 20.05494 0.02058
C 9.85862 7.10921 -0.01957
C 11.12599 6.51766 -0.0108
C 10.99855 26.37914 -0.01952
C 14.70071 32.7084 -0.00289
C 15.86393 31.94504 0.00028
C 15.95167 30.5244 -0.02213
C 17.98011 4.14991 0.00364
C 17.42757 2.87996 -0.00831
C 18.6026 1.95441 -0.02957
C 18.43579 0.66808 -0.04422
C 17.19253 34.06064 0.00654
C 19.58082 32.48868 -0.00703
C 20.84835 31.8554 -0.04076
C 20.85216 30.53278 -0.00652
C 18.41314 23.42939 -0.017
C 19.51323 29.7779 0.0058
C 20.78778 27.73136 0.00675
C 20.82512 26.25833 -0.00311
C 19.66996 25.51868 0.00742
C 19.60307 24.05627 -0.01594
C 20.85298 23.53084 0.0106
C 20.96478 22.15595 -0.01154
C 20.76625 4.84453 -0.01721
C 19.50402 4.04178 -0.02422
C 19.58115 28.37913 -0.00865
C 7.41275 2.81476 0.0076
C 17.06329 23.84597 0.00143
C 18.36354 26.16104 -0.0054
C 14.69511 29.82704 0.03698
C 14.74342 28.36913 -0.00109
C 15.9214 27.63235 -0.00491
C 15.8949 26.18394 0.03338
C 14.67835 25.50334 -0.0258
C 14.58522 24.04856 -0.0331
C 15.79169 23.34431 -0.00316
C 14.72692 4.28683 0.02188
C 17.15331 25.40097 0.00667
C 14.81672 2.92547 -0.01979
C 16.05694 0.82212 -0.01581
C 14.75965 0.1136 0.01452
C 17.12044 32.62146 0.04892
C 18.29187 31.88001 -0.00111
C 18.36044 30.4885 -0.03557
C 17.11362 29.74552 0.03754
C 17.15434 28.37248 0.01739
C 18.38633 27.637 0.00755
C 16.07907 2.24705 0.02691
C 7.4322 4.26474 0.02162
C 8.60976 5.0032 -0.0014
C 8.65642 6.43199 0.00415
C 2.49388 7.19825 -0.04848
C 3.68634 6.43332 -0.00892
C 3.74701 5.04751 -0.01362
C 2.48003 4.37495 -0.0008
C 2.42297 2.95441 0.0288
C 3.73767 2.16691 0.00393
C 3.7449 0.77177 0.00895
C 2.43267 0.0336 0.00685
C 2.53948 8.53516 0.01572
C 4.86748 32.76532 0.02888
C 5.96764 30.62999 -0.01384
C 4.84026 29.87485 0.03693
C 4.89668 28.40072 0.01745
C 6.02828 27.68239 0.00488
C 6.05281 26.3308 -0.01004
C 4.84467 25.61266 -0.02896
C 4.85263 24.18078 -0.00131
C 6.03303 23.46433 -0.01118
C 6.11189 31.949 -0.00482
C 6.0611 22.04949 -0.014
C 3.76081 9.25959 -0.00095
C 2.48492 11.39972 0.00054
C 3.60049 30.64927 -0.00077
C 2.4227 29.87848 0.03368
C 2.43449 28.42723 -0.02929
C 3.61701 27.74727 -0.00966
C 3.5555 26.30769 -0.03337
C 2.37569 25.59363 0.01227
C 2.37359 24.20851 0.00873
C 3.56383 23.46772 -0.00049
C 3.74796 10.63631 0.03007
C 3.71271 22.00873 0.00848
C 2.44299 19.92877 -0.01378
C 3.68408 19.21196 0.02635
C 3.64791 17.74821 0.0127
C 2.44393 17.08521 0.01396
C 2.52446 15.70215 0.01849
C 3.76106 14.93612 -0.01142
C 3.66462 13.47466 -0.00562
C 2.56013 12.79564 -0.00494
C 2.38788 21.40407 -0.01303
C 19.74521 2.69447 0.01277
C 4.87393 21.33557 0.02147
C 6.13338 19.19851 -0.00191
C 7.3071 28.44054 0.00985
C 8.46313 27.6575 -0.02245
C 8.49207 26.33507 -0.00428
C 7.24599 25.61091 0.03101
C 7.25734 24.15925 -0.01536
C 8.54187 23.54711 -0.02689
C 8.55598 22.10222 -0.01046
C 7.31642 21.29482 -0.00891
C 7.24299 29.85604 -0.01275
C 7.36072 19.8558 0.02819
C 8.34413 17.85898 -0.02971
C 7.3531 17.03499 0.02894
C 7.47151 15.54469 -0.01789
C 7.34596 12.51808 0.00444
C 7.5374 11.27143 -0.00925
C 8.48744 9.8198 0.01877
C 7.54445 8.75279 0.01363
C 7.4498 7.31064 -0.02162
C 8.67343 19.08515 0.00165
C 4.87886 19.85506 0.00373
C 8.48579 30.56575 -0.01111
C 7.36289 32.69647 0.00943
C 6.14762 17.75747 0.00438
C 4.92295 17.03494 0.01291
C 4.97288 15.62252 0.00093
C 6.33078 14.84845 0.00057
C 6.21345 13.43027 -0.01634
C 4.92057 12.79594 -0.00334
C 4.9086 11.39805 0.02339
C 6.1618 10.69231 0.01641
C 8.60709 31.99964 0.02841
C 6.21988 9.28497 -0.00719
C 4.99098 7.13753 -0.01062
C 6.19132 6.48994 -0.00033
C 6.21407 4.9514 0.03589
C 5.00699 4.25159 -0.02759
C 4.99348 2.87867 0.0402
C 6.19788 2.13758 0.00572
C 6.19208 0.74938 0.03592
C 4.84489 0.06559 0.00406
C 5.07035 8.61719 0.01364
C 20.95243 1.98603 0.00096
C 20.8419 0.56498 -0.01527
C 19.60582 33.99215 0.01087
C 33.11494 32.01343 -0.01694
C 33.19353 30.55985 0.01428
C 31.94185 29.84325 -0.02142
C 31.89873 28.46876 0.0544
C 33.22319 27.77884 0.00026
C 33.17283 26.31862 0.00682
C 31.91807 25.6514 -0.01779
C 31.9115 24.22667 0.03794
C 31.87886 32.69286 0.01713
C 33.07691 23.44862 0.01927
C 31.84228 21.32422 -0.02383
C 31.78882 19.92637 -0.01429
C 33.08879 19.22006 -0.0136
C 33.14523 17.87461 0.00594
C 31.95307 17.02622 -0.02474
C 31.95666 15.51447 0.00369
C 33.28451 14.81445 0.00455
C 33.29668 13.43707 -0.00644
C 33.0748 22.0825 0.01574
C 31.9902 12.77419 -0.01839
C 29.39053 0.03175 0.00346
C 30.6843 2.19698 0.00716
C 29.37376 21.34817 -0.03039
C 29.44031 19.91606 0.01836
C 30.65053 19.22239 0.03531
C 30.72722 17.78677 -0.00669
C 29.49456 17.04563 0.0101
C 29.48644 15.61805 0.01705
C 30.69155 14.90045 -0.0405
C 30.79268 13.53622 -0.01303
C 30.67998 0.7138 0.00307
C 29.5739 12.86477 -0.01461
C 30.79956 10.63316 -0.00944
C 30.75784 9.18997 -0.03735
C 29.51112 8.4353 -0.00971
C 29.4466 7.0302 0.01518
C 30.68854 6.39674 0.01908
C 30.68038 4.99004 0.07705
C 29.42717 4.34213 0.0103
C 29.45028 2.80375 0.02108
C 29.617 11.42369 -0.02155
C 30.64188 22.0672 -0.01415
C 32.03531 11.28483 0.00137
C 33.17678 9.21637 0.04381
C 1.15662 19.22898 -0.01678
C 1.26236 17.72176 0.01223
C 34.37024 17.08118 0.00648
C 0.06481 15.66936 0.02114
C 1.35518 14.90136 -0.02957
C 1.3103 13.45091 0.00343
C 0.13189 12.76026 -0.02656
C 0.04708 11.29071 -0.02442
C 34.4008 19.97026 0.01951
C 1.28396 10.73637 -0.00027
C 0.04214 8.66573 -0.02302
C 0.01297 7.19733 -0.02849
C 1.29894 6.50057 0.02931
C 1.29885 5.03508 0.00628
C 0.01266 4.30927 -0.0345
C 0.02831 2.87541 -0.00931
C 1.24773 2.16502 -0.00939
C 1.23729 0.7042 -0.00468
C 1.31316 9.33913 -0.00583
C 33.20383 10.64065 0.00199
C 34.37091 21.41517 -0.02213
C 1.11855 23.54165 0.00723
C 31.98352 8.519 0.02806
C 31.92264 7.08008 0.01504
C 33.20355 6.46893 -0.00069
C 33.26345 4.98156 0.04926
C 31.95709 4.22159 -0.03838
C 31.93616 2.8154 0.00349
C 33.2237 2.12399 -0.00323
C 33.14253 0.71588 -0.00841
C 1.14145 22.09979 0.02712
C 31.84951 34.03612 0.0001
C 1.20033 31.91317 -0.01404
C 1.25477 30.52664 0.01027
C 34.37929 29.80779 0.01831
C 34.37127 28.46983 -0.01037
C 1.22415 27.77176 -0.00439
C 1.12266 26.36396 -0.00598
C 34.3604 25.59735 -0.05239
C 34.35921 24.17945 0.03076
C 34.41861 32.68482 -0.02927
C 3.61783 32.00233 0.01305
C 30.64523 23.50209 -0.01854
C 29.42065 25.57425 0.03265
C 24.38905 29.817 -0.01971
C 24.45601 28.39339 -0.02118
C 25.7901 27.66401 0.00733
C 25.73776 26.28687 -0.00178
C 24.46296 25.59775 0.00768
C 24.5852 24.21098 -0.0276
C 25.79361 23.51894 0.03005
C 25.68174 22.07485 -0.04078
C 25.69843 30.48816 -0.01586
C 24.57125 21.35532 0.02117
C 25.5779 19.0347 -0.00498
C 25.84405 17.7737 0.00135
C 25.86861 10.65684 0.03102
C 25.74773 9.29336 0.02555
C 24.71671 8.34434 0.01423
C 24.39938 6.9918 -0.00285
C 25.74954 6.40033 -0.009
C 25.70853 4.98172 -0.01199
C 24.56432 19.98391 0.02737
C 24.4378 4.31129 -0.00229
C 25.68575 31.95982 -0.01107
C 22.04534 34.07476 -0.00225
C 22.03367 32.66017 0.00199
C 23.29691 31.96939 0.01511
C 23.22852 30.51117 -0.00478
C 22.047 29.83727 -0.01662
C 22.04219 28.38492 -0.01185
C 23.22905 27.69622 0.01126
C 23.31357 26.3467 0.01852
C 22.03313 25.5962 -0.00381
C 24.46343 32.65736 0.00071
C 22.03704 24.20768 0.03046
C 23.33939 22.11092 0.03374
C 22.10242 21.42448 -0.02845
C 23.27579 6.24982 -0.03213
C 23.0907 4.93131 0.02239
C 21.94886 4.26674 0.01153
C 21.95539 2.84421 0.02734
C 23.3316 2.14655 -0.0055
C 23.30609 0.77817 0.01515
C 23.36438 23.51157 0.0296
C 29.43045 24.18316 -0.02049
C 24.47688 2.83519 -0.00938
C 25.68142 0.66094 -0.01154
C 28.41376 10.62691 0.00194
C 28.26925 9.13707 -0.00621
C 26.98124 8.54624 0.02611
C 26.99571 7.14205 0.02198
C 28.24477 6.39821 0.01094
C 28.19901 4.99902 0.00235
C 26.99107 4.28037 0.01495
C 26.94339 2.8304 0.01259
C 27.07526 11.42858 0.04185
C 28.26136 2.13559 0.01799
C 26.95305 34.05186 -0.00416
C 29.38367 32.68586 0.01177
C 30.58253 31.99651 0.04266
C 30.72373 30.55613 0.01324
C 29.45374 29.82291 0.0014
C 29.50089 28.4194 0.00924
C 30.70698 27.67817 0.02326
C 30.71339 26.27282 0.00261
C 28.21634 0.71627 0.01699
C 25.80529 2.13465 -0.0264
C 27.06394 12.85244 0.02316
C 28.19854 14.96715 0.00152
C 24.58547 34.05634 0.00684
C 26.97322 32.63088 -0.01052
C 28.22711 31.89926 -0.01679
C 28.23852 30.51009 0.00367
C 26.96585 29.83132 0.04306
C 27.0171 28.45394 0.00996
C 28.17451 27.71473 0.00195
C 28.20853 26.29495 -0.00802
C 28.27643 13.49323 0.01257
C 26.98397 25.63262 -0.00218
C 28.22227 23.42684 -0.00037
C 28.17784 22.11654 -0.0032
C 26.92653 21.33143 0.00622
C 26.95243 19.81298 -0.02815
C 28.15166 19.08735 -0.00942
C 28.18096 17.64951 0.00487
C 26.93089 16.94251 0.00826
C 26.98142 15.52999 -0.00294
C 26.98269 24.20681 -0.01654
C 2.38878 32.69523 0.0276
