338
Graphene
C 0.01966 0.03745 0.01295
C 9.8808 12.77282 0.00889
C 9.77283 11.43 -0.00481
C 11.04949 10.70371 0.00979
C 11.08861 9.22303 0.01443
C 9.88913 8.56489 0.03505
C 9.85093 7.12447 -0.02815
C 11.02007 6.3675 -0.04147
C 11.02156 4.95378 -0.05302
C 9.79515 4.14009 0.00213
C 9.83502 2.78901 -0.00066
C 11.1287 2.1541 -0.00289
C 11.1275 0.67628 0.00028
C 9.90005 34.06839 -0.02213
C 12.36364 32.65254 0.03698
C 12.32745 19.88645 -0.00109
C 13.45016 19.13614 -0.00491
C 13.53902 17.66895 0.03338
C 11.01402 13.46066 -0.02162
C 12.35551 16.94802 -0.0258
C 11.0068 14.8746 -0.00619
C 9.81671 17.06334 0.02098
C 7.3779 8.47475 -0.01952
C 7.34081 7.13934 -0.02813
C 8.52483 6.44797 0.00374
C 8.63302 5.01118 0.00052
C 7.40442 4.28721 -0.03682
C 7.41264 2.86964 0.01965
C 8.62196 2.12387 0.02058
C 8.60025 0.71463 -0.01957
C 7.40391 34.07498 -0.0108
C 9.87245 32.68799 -0.00368
C 11.13205 32.01032 -0.02696
C 10.96959 30.50792 -0.00114
C 9.86894 29.96098 0.00228
C 9.8398 21.21189 0.00798
C 9.83611 19.86659 0.00422
C 11.09437 19.19419 0.0351
C 11.16069 17.71602 -0.03113
C 9.80785 15.56251 0.01848
C 8.60254 9.25393 0.05265
C 12.29765 15.56801 -0.0331
C 13.4592 13.47633 0.02188
C 16.03645 10.63393 -0.00652
C 16.07519 9.23269 0.0058
C 14.75922 8.55168 -0.00865
C 14.76977 7.12854 0.00675
C 15.94864 6.47595 -0.00311
C 15.96916 4.98559 0.00742
C 14.76116 4.1712 -0.01594
C 14.76719 2.78636 0.0106
C 15.99834 2.16811 -0.01154
C 15.98558 0.68077 -0.01721
C 14.70741 34.06421 -0.02422
C 17.20803 32.7018 0.01277
C 18.46475 17.68262 0.00096
C 17.25506 17.14454 -0.01527
C 17.22988 15.55732 0.01087
C 18.46619 14.90612 0.00199
C 18.453 13.4748 0.01511
C 14.80865 11.29386 -0.04076
C 13.47316 14.91551 -0.00316
C 14.72461 12.74829 -0.00703
C 16.00422 14.87556 -0.04422
C 12.31238 12.76194 -0.01979
C 12.27979 11.4011 0.02691
C 13.48635 10.6459 -0.01581
C 13.48104 9.24391 0.01452
C 12.24068 8.56786 0.04892
C 12.2854 7.13739 -0.00111
C 13.51523 6.39737 -0.03557
C 13.57822 4.91856 0.03754
C 12.31627 4.26 0.01739
C 12.31252 2.86542 0.00755
C 13.53173 2.15255 -0.0054
C 13.56095 0.75281 0.00667
C 12.32583 34.06466 0.00143
C 14.75899 32.61987 -0.017
C 15.94965 17.73723 0.00364
C 14.77236 17.04858 -0.00831
C 14.80333 15.65525 -0.02957
C 15.94111 13.49002 0.00654
C 8.56607 10.66114 -0.01717
C 7.33539 11.3828 0.00244
C 7.38469 12.77792 0.02299
C 2.38754 8.51226 0.03693
C 2.44077 7.11008 0.01745
C 3.72179 6.37797 0.00488
C 3.64037 4.96797 -0.01004
C 2.42808 4.20766 -0.02896
C 2.43317 2.82608 -0.00131
C 3.70377 2.09292 -0.01118
C 3.65825 0.67569 -0.014
C 2.4866 34.05782 0.02147
C 4.98236 32.6885 0.00373
C 6.14406 32.01363 -0.00191
C 6.16799 30.50172 0.00438
C 4.89902 29.83196 0.01291
C 4.91573 28.42211 0.00093
C 6.16557 27.74086 0.00057
C 6.17404 26.22734 -0.01634
C 4.89478 25.59001 -0.00334
C 3.63929 9.24941 -0.01384
C 4.88113 24.15212 0.02339
C 3.67975 10.64598 -0.00482
C 2.46952 12.84391 0.00685
C 3.7056 30.49165 0.0127
C 2.47228 29.85396 0.01396
C 2.48782 28.42151 0.01849
C 3.70636 27.71252 -0.01142
C 3.62358 26.33887 -0.00562
C 2.47855 25.56793 -0.00494
C 2.45074 24.09492 0.00054
C 3.66224 23.41529 0.03007
C 3.63966 22.02912 -0.00095
C 2.47979 21.25232 0.01572
C 2.51318 19.90059 -0.04848
C 3.67117 19.1509 -0.00892
C 3.75203 17.7229 -0.01362
C 2.45712 17.0387 -0.0008
C 2.38891 15.60526 0.0288
C 3.66316 15.02188 0.00393
C 3.69489 13.52123 0.00895
C 2.49074 11.33951 0.02888
C 6.13329 23.46077 0.01641
C 6.20868 22.01511 -0.00719
C 4.89181 21.26895 0.01364
C 8.6481 30.5116 -0.02971
C 7.29368 29.79051 0.02894
C 7.36333 28.47756 -0.01789
C 8.53626 27.68031 0.00444
C 8.56967 26.36986 -0.00925
C 7.43057 25.58731 0.01877
C 7.40553 24.05542 0.01363
C 8.64505 23.43618 -0.02162
C 8.66859 22.07406 0.00415
C 7.38515 21.33468 -0.0014
C 7.36616 19.87631 0.02162
C 8.54857 19.10634 0.0076
C 8.59066 17.71144 0.01241
C 7.40467 17.03281 -0.01454
C 7.37315 15.59068 0.01945
C 8.59533 14.94709 0.01416
C 8.61956 13.56705 0.03542
C 8.59426 31.95719 0.00165
C 7.43186 32.66039 0.02819
C 5.00535 0.0123 -0.00891
C 6.19752 0.7742 -0.01046
C 4.87492 19.78584 -0.01062
C 6.1286 19.15279 -0.00033
C 6.0924 17.75497 0.03589
C 4.86036 16.97633 -0.02759
C 4.91932 15.61755 0.0402
C 6.12414 14.94089 0.00572
C 6.12014 13.52378 0.03592
C 4.9414 12.72942 0.00406
C 17.18663 12.82467 -0.00478
C 4.89821 11.38062 0.00943
C 6.17661 9.26115 -0.01111
C 4.89694 8.52554 -0.01275
C 4.92957 7.11721 0.00985
C 6.1696 6.43214 -0.02245
C 6.1347 4.98756 -0.00428
C 4.86347 4.307 0.03101
C 4.95656 2.82369 -0.01536
C 6.17304 2.20032 -0.02689
C 6.13443 10.6882 0.02841
C 17.24874 11.42905 -0.01662
C 18.40582 10.73321 -0.01185
C 18.42943 9.26268 0.01126
C 31.9761 29.8277 -0.02142
C 31.91937 28.39818 0.0544
C 33.22247 27.73994 0.00026
C 33.21558 26.27068 0.00682
C 31.9903 25.53735 -0.01779
C 31.9498 24.17482 0.03794
C 33.18477 23.48206 0.01927
C 33.22698 22.01493 0.01574
C 31.91691 21.30636 -0.02383
C 31.92648 19.92486 -0.01429
C 33.20035 19.14591 -0.0136
C 33.21383 17.73749 0.00594
C 31.91952 17.09287 -0.02474
C 31.96364 15.63587 0.00369
C 33.26952 14.9555 0.00455
C 33.23451 13.43048 -0.00644
C 31.96437 12.79705 -0.01839
C 33.15332 30.52902 0.01428
C 31.97502 11.36037 0.00137
C 33.16894 31.99122 -0.01694
C 29.43063 34.0517 0.00346
C 30.68141 17.74764 -0.00669
C 29.48658 16.96987 0.0101
C 29.52947 15.65284 0.01705
C 30.705 14.91739 -0.0405
C 30.7592 13.54569 -0.01303
C 29.49095 12.7265 -0.01461
C 29.53938 11.35414 -0.02155
C 30.73219 10.68117 -0.00944
C 30.77807 9.23204 -0.03735
C 29.53904 8.52524 -0.00971
C 29.50201 7.13341 0.01518
C 30.72116 6.40339 0.01908
C 30.73023 4.97918 0.07705
C 29.45206 4.32361 0.0103
C 29.55396 2.83039 0.02108
C 30.76495 2.07576 0.00716
C 30.79865 0.66539 0.00307
C 31.9656 32.68956 0.01713
C 33.18499 10.67616 0.00199
C 33.21584 9.23336 0.04381
C 31.95825 8.51266 0.02806
C 1.21455 17.74011 0.01223
C 34.40716 17.0619 0.00648
C 0.05545 15.65819 0.02114
C 1.23261 14.83021 -0.02957
C 1.26326 13.44907 0.00343
C 0.02753 12.78585 -0.02656
C 34.41288 11.3944 -0.02442
C 1.22566 10.61416 -0.00027
C 1.17069 9.24715 -0.00583
C 0.03584 8.4698 -0.02302
C 34.37692 7.04823 -0.02849
C 1.17617 6.39378 0.02931
C 1.17842 4.93165 0.00628
C 34.38607 4.2738 -0.0345
C 34.4293 2.83479 -0.00931
C 1.25867 2.07695 -0.00939
C 1.27726 0.69739 -0.00468
C 1.23542 19.206 -0.01678
C 0.06025 19.85816 0.01951
C 34.4267 21.22313 -0.02213
C 1.22146 22.01264 0.02712
C 32.00652 7.0857 0.01504
C 33.15648 6.37236 -0.00069
C 33.21271 4.95196 0.04926
C 31.96197 4.28907 -0.03838
C 31.95927 2.8546 0.00349
C 33.22027 2.19854 -0.00323
C 33.20106 0.71683 -0.00841
C 32.0156 0.04466 0.0001
C 30.70904 19.18068 0.03531
C 34.43292 32.67075 -0.02927
C 1.22835 30.52522 0.01027
C 0.04505 29.8709 0.01831
C 0.04309 28.40371 -0.01037
C 1.21212 27.64873 -0.00439
C 1.23421 26.28699 -0.00598
C 0.00225 25.59891 -0.05239
C 0.02592 24.21884 0.03076
C 1.17685 23.36414 0.00723
C 1.19377 31.93308 -0.01404
C 3.68603 31.95634 0.02635
C 29.58115 19.88275 0.01836
C 30.69684 21.99745 -0.01415
C 20.83987 5.0109 -0.0276
C 19.6469 4.22036 0.03005
C 19.62221 2.83406 -0.04078
C 20.88569 2.10048 0.02117
C 20.94327 0.77627 0.02737
C 19.69964 0.05221 -0.00498
C 22.05883 19.83461 0.00135
C 23.37527 19.17767 0.03102
C 23.29945 17.69305 0.02555
C 22.0677 17.05613 0.01423
C 22.13722 15.62003 -0.00285
C 23.42638 14.8418 -0.009
C 23.30848 13.42502 -0.01199
C 22.15775 12.9047 -0.00229
C 23.44013 4.99003 -0.00938
C 22.12921 4.36011 -0.0264
C 22.1133 2.87962 -0.01154
C 20.83973 6.36482 0.00768
C 23.35837 2.17723 0.00684
C 19.70924 7.11086 -0.00178
C 19.66971 11.37353 -0.02118
C 17.19716 8.45935 0.01852
C 17.19251 7.07896 -0.00381
C 18.41971 6.398 0.03046
C 18.42889 5.03823 0.0296
C 17.22073 4.19947 0.03374
C 17.20667 2.80765 -0.02845
C 18.37573 2.12408 -0.03213
C 18.46441 0.75124 0.02239
C 17.2707 34.06748 0.01153
C 19.53439 32.59551 0.02734
C 20.94205 19.19849 -0.0055
C 20.89173 17.77237 0.01515
C 19.64327 17.00979 -0.00225
C 19.63581 15.63968 0.00071
C 20.94289 14.87481 -0.01107
C 20.91045 13.4703 -0.01586
C 19.70688 12.7853 -0.01971
C 19.61159 8.50218 0.00733
C 23.38302 0.59363 -0.01052
C 22.1216 34.04958 -0.01679
C 24.56114 19.85482 0.00367
C 28.31358 13.50341 0.01094
C 28.28562 4.92835 0.00235
C 27.06024 4.32699 0.01495
C 26.98007 2.86837 0.01259
C 28.21964 2.10777 0.01799
C 28.27416 0.63399 0.01699
C 27.00677 34.07303 -0.00416
C 29.55106 32.63884 0.01177
C 30.76677 31.93038 0.04266
C 30.64894 30.53421 0.01324
C 29.41148 29.72111 0.0014
C 29.56045 28.35471 0.00924
C 30.74609 27.65051 0.02326
C 30.7642 26.20214 0.00261
C 29.58135 25.47993 0.03265
C 29.52195 24.10762 -0.02049
C 30.74773 23.44044 -0.01854
C 28.3076 14.82791 0.02198
C 27.01707 15.58809 0.02611
C 27.02837 17.08052 -0.00621
C 28.32494 17.69682 0.00194
C 25.89233 19.13611 0.04306
C 25.78784 17.71486 0.00996
C 24.57604 17.03084 0.00195
C 24.62691 15.61942 -0.00802
C 25.83581 14.92237 -0.00218
C 24.60368 4.29681 -0.01654
C 24.56752 2.83391 -0.00037
C 25.81963 2.14764 -0.0032
C 29.57509 21.27936 -0.03039
C 25.86844 0.72886 0.00622
C 27.09891 32.72139 -0.00942
C 28.2509 31.95447 0.00487
C 28.32034 30.44562 0.00826
C 28.26232 23.43641 -0.00294
C 28.2969 22.03842 0.00152
C 27.04301 21.36195 0.01257
C 27.03599 19.88914 0.02316
C 28.30294 19.18753 0.04185
C 24.58505 0.02911 -0.02815
C 2.45736 32.64547 -0.01378
