353
Graphene
C 34.41714 34.07212 0.01295
C 11.12872 14.93188 -0.00114
C 11.12096 13.46819 0.00228
C 9.87148 12.73892 0.00798
C 9.81646 11.36662 0.00422
C 11.05641 10.63537 0.0351
C 11.01032 9.23163 -0.03113
C 9.82786 8.53686 0.02098
C 9.885 7.07586 0.01848
C 9.9432 15.67414 -0.02696
C 11.09636 6.38591 -0.00619
C 9.81664 4.21151 0.00889
C 9.88512 2.8646 -0.00481
C 11.08794 2.11052 0.00979
C 11.10942 0.71803 0.01443
C 9.8465 0.04488 0.03505
C 12.2994 32.66778 -0.02815
C 13.42216 31.912 -0.04147
C 13.44983 30.48302 -0.05302
C 11.04238 4.98968 -0.02162
C 12.23235 29.75097 0.00213
C 9.87468 16.97909 -0.00368
C 11.19212 19.15626 -0.01957
C 7.30477 4.34805 0.02162
C 7.36302 2.93007 0.0076
C 8.55752 2.27444 0.01241
C 8.56195 0.86802 -0.01454
C 7.34696 0.11892 0.01945
C 9.84105 32.74089 0.01416
C 11.06403 31.99247 0.03542
C 11.00529 30.57606 0.02299
C 11.13081 17.6916 -0.0108
C 9.75344 29.82056 0.00244
C 11.05149 27.72982 0.05265
C 11.07116 26.28974 -0.01952
C 9.88947 25.51205 -0.02813
C 9.83739 24.04565 0.00374
C 11.06865 23.36515 0.00052
C 11.07864 22.01414 -0.03682
C 9.87578 21.34842 0.01965
C 9.90849 19.80728 0.02058
C 9.78201 28.50554 -0.01717
C 8.64008 4.9472 -0.0014
C 12.28931 28.34208 -0.00066
C 13.49448 26.24908 0.00028
C 15.89066 31.96326 -0.017
C 15.93344 30.56739 0.00364
C 14.74465 29.79384 -0.00831
C 14.79436 28.41776 -0.02957
C 16.0007 27.65278 -0.04422
C 16.02682 26.24025 0.00654
C 14.73055 25.57605 -0.00703
C 14.70656 11.2074 -0.04076
C 14.66286 32.58711 0.00143
C 15.89935 10.57225 -0.00652
C 14.80553 8.56871 -0.00865
C 14.77522 7.03869 0.00675
C 16.0294 6.37382 -0.00311
C 15.93646 4.93118 0.00742
C 14.70612 4.26693 -0.01594
C 14.67604 2.87037 0.0106
C 15.91537 2.0913 -0.01154
C 15.90719 0.69878 -0.01721
C 16.06731 9.28177 0.0058
C 13.5637 27.69297 -0.00289
C 12.35323 34.0192 0.00667
C 13.51975 2.13161 0.00755
C 12.31458 25.67796 -0.02213
C 12.31494 24.24381 0.03698
C 13.44599 23.6013 -0.00109
C 12.25583 21.2177 -0.00491
C 12.31355 19.89111 0.03338
C 12.26654 16.99367 -0.0258
C 12.33202 15.58507 -0.0331
C 13.45021 13.63914 -0.00316
C 13.51526 0.68057 -0.0054
C 12.34841 12.84778 0.02188
C 13.47672 10.6575 0.02691
C 13.55827 9.21483 -0.01581
C 12.26919 8.52972 0.01452
C 12.25853 7.07612 0.04892
C 13.57578 6.41091 -0.00111
C 13.55568 4.96853 -0.03557
C 12.37483 4.22126 0.03754
C 12.33122 2.82578 0.01739
C 12.37626 11.4043 -0.01979
C 8.60275 6.35441 0.00415
C 7.34467 7.16492 -0.02162
C 7.33042 8.56045 0.01363
C 2.41884 7.119 0.03007
C 3.67139 6.41654 -0.00095
C 3.62838 5.02891 0.01572
C 2.47114 4.27633 -0.04848
C 2.46876 2.85832 -0.00892
C 3.69872 2.21628 -0.01362
C 3.67286 0.74269 -0.0008
C 2.37263 0.06278 0.0288
C 2.49506 8.48914 0.00054
C 4.83487 32.73213 0.00393
C 6.15469 30.54346 0.00685
C 4.88719 29.92296 0.02888
C 4.85516 28.43295 -0.00482
C 6.1092 27.70942 -0.01384
C 6.18575 26.34962 0.03693
C 4.96248 25.5697 0.01745
C 5.00682 24.1289 0.00488
C 6.18666 23.47608 -0.01004
C 6.09596 32.01355 0.00895
C 6.1045 21.99355 -0.02896
C 3.68175 9.26555 -0.00494
C 2.44296 11.27979 -0.01142
C 3.64156 30.56398 0.00988
C 2.42388 29.84082 0.0276
C 2.40477 28.42767 0.01305
C 3.6464 27.65423 -0.00077
C 3.67576 26.32618 0.03368
C 2.43204 25.53784 -0.02929
C 2.48851 24.16184 -0.00966
C 3.67377 23.48376 -0.03337
C 3.6371 10.70182 -0.00562
C 3.66039 22.07934 0.01227
C 2.39238 19.89754 -0.00049
C 3.63546 19.28956 0.00848
C 3.61995 17.83098 -0.01303
C 2.42273 17.01702 -0.01378
C 2.41211 15.60874 0.02635
C 3.69902 14.89885 0.0127
C 3.63573 13.44876 0.01396
C 2.47705 12.76972 0.01849
C 2.39245 21.3442 0.00873
C 4.88286 21.32221 -0.00131
C 4.92617 19.91917 -0.01118
C 6.15072 19.19472 -0.014
C 8.64383 27.67603 -0.01111
C 8.66013 26.18043 -0.01275
C 7.36046 25.55921 0.00985
C 7.41006 24.16569 -0.02245
C 8.58444 23.36912 -0.00428
C 8.61466 22.01152 0.03101
C 7.34647 21.28788 -0.01536
C 7.37834 19.87023 -0.02689
C 7.38809 28.39236 0.02841
C 8.64569 19.13782 -0.01046
C 7.37816 16.99166 0.02819
C 7.42042 15.61914 0.00165
C 8.59513 14.89833 -0.02971
C 8.58144 13.45724 0.02894
C 7.4027 12.71446 -0.01789
C 7.40403 11.41192 0.00444
C 8.63613 10.62838 -0.00925
C 8.57226 9.19064 0.01877
C 8.65009 17.77065 -0.00891
C 7.38677 29.82519 0.00943
C 8.59499 30.57645 0.00406
C 8.63197 32.00644 0.03592
C 6.11733 17.83055 0.02147
C 4.91203 17.0564 0.00373
C 4.89383 15.60244 -0.00191
C 6.13895 14.92755 0.00438
C 6.20941 13.52906 0.01291
C 4.96293 12.80508 0.00093
C 4.87459 11.36483 0.00057
C 6.11737 10.64815 -0.01634
C 6.11456 9.20562 -0.00334
C 4.83618 8.54831 0.02339
C 4.8505 7.09829 0.01641
C 6.14421 6.49447 -0.00719
C 6.0463 5.08935 0.01364
C 4.93332 4.34131 -0.01062
C 4.95637 2.96215 -0.00033
C 6.10604 2.23896 0.03589
C 6.15158 0.81265 -0.02759
C 4.87274 0.03736 0.0402
C 7.36152 32.75402 0.00572
C 14.66747 34.04362 -0.02422
C 3.60508 31.96724 -0.01343
C 17.11398 32.72504 0.01277
C 18.40502 30.49067 -0.01527
C 33.18421 31.95878 -0.01694
C 33.1698 30.50428 0.01428
C 31.94865 29.80155 -0.02142
C 31.84534 28.39126 0.0544
C 33.13298 27.68998 0.00026
C 33.26673 26.31411 0.00682
C 32.00366 25.50239 -0.01779
C 31.906 24.14373 0.03794
C 31.92204 32.65929 0.01713
C 33.21805 23.41194 0.01927
C 31.89469 21.33094 -0.02383
C 31.79546 19.89373 -0.01429
C 33.08975 19.19295 -0.0136
C 33.06562 17.75484 0.00594
C 31.83481 17.07525 -0.02474
C 31.8809 15.57571 0.00369
C 33.19829 14.93949 0.00455
C 33.18613 13.50162 -0.00644
C 33.20413 22.00768 0.01574
C 32.00335 12.79334 -0.01839
C 29.56169 0.02267 0.00346
C 30.79679 2.15901 0.00716
C 29.57528 25.4522 -0.03039
C 29.54673 24.15565 0.01836
C 30.57959 23.35484 0.03531
C 30.79199 22.0648 -0.00669
C 30.65889 19.22835 0.0101
C 30.91386 17.91306 0.01705
C 30.85106 14.8147 -0.0405
C 30.63196 13.51446 -0.01303
C 30.79974 0.74922 0.00307
C 29.55753 12.73973 -0.01461
C 30.65965 10.67969 -0.00944
C 30.75151 9.24822 -0.03735
C 29.49831 8.50045 -0.00971
C 29.55675 7.05539 0.01518
C 30.74762 6.36608 0.01908
C 30.79047 5.03989 0.07705
C 29.53807 4.22579 0.0103
C 29.59276 2.80613 0.02108
C 29.41949 11.37568 -0.02155
C 30.79555 26.25289 -0.01415
C 31.96417 11.36793 0.00137
C 33.25942 9.30522 0.04381
C 1.21421 19.20822 -0.01678
C 1.17466 17.70912 0.01223
C 34.33839 17.1008 0.00648
C 34.40125 15.62208 0.02114
C 1.20681 14.9293 -0.02957
C 1.20873 13.56088 0.00343
C 34.37694 12.79997 -0.02656
C 34.40543 11.3531 -0.02442
C 34.29628 19.85583 0.01951
C 1.15994 10.6677 -0.00027
C 0.08156 8.47876 -0.02302
C 0.00652 7.0911 -0.02849
C 1.22265 6.32203 0.02931
C 1.18561 4.92352 0.00628
C 34.38021 4.23286 -0.0345
C 34.39752 2.83643 -0.00931
C 1.17693 2.12429 -0.00939
C 1.21751 0.76429 -0.00468
C 1.25613 9.15121 -0.00583
C 33.22428 10.64718 0.00199
C 34.4111 21.27264 -0.02213
C 1.19514 23.50713 0.00723
C 32.01256 8.52934 0.02806
C 31.99464 7.14065 0.01504
C 33.26341 6.4443 -0.00069
C 33.19749 4.97625 0.04926
C 32.0065 4.24922 -0.03838
C 32.00759 2.82563 0.00349
C 33.24419 2.15206 -0.00323
C 33.22931 0.70105 -0.00841
C 1.13651 22.08264 0.02712
C 31.9247 0.01374 0.0001
C 1.11645 31.94132 -0.01404
C 1.17126 30.47351 0.01027
C 34.32521 29.82134 0.01831
C 34.36197 28.41322 -0.01037
C 1.15381 27.74772 -0.00439
C 1.24277 26.24938 -0.00598
C 0.01363 25.57805 -0.05239
C 34.38752 24.1929 0.03076
C 34.32924 32.68767 -0.02927
C 30.72166 27.66073 -0.01854
C 29.55953 28.37462 -0.02049
C 29.59156 29.80861 0.03265
C 20.87814 6.34567 -0.01586
C 20.85507 4.91665 -0.01971
C 19.64966 4.23844 -0.02118
C 19.57531 2.87803 0.00733
C 20.82914 2.09458 -0.00178
C 20.80061 0.71635 0.00768
C 19.58981 34.06164 -0.0276
C 22.04261 32.6534 0.03005
C 19.67658 7.04319 -0.01107
C 23.3293 32.0218 -0.04078
C 22.14269 29.83806 0.02737
C 22.1696 28.2611 -0.00498
C 23.42253 27.77737 0.00135
C 23.32028 9.30819 0.03102
C 22.14123 8.61498 0.02555
C 22.14679 7.06639 0.01423
C 23.45977 6.3737 -0.00285
C 23.27568 4.89727 -0.009
C 23.30664 30.56659 0.02117
C 22.12895 4.19479 -0.01199
C 19.67387 8.54042 0.00071
C 20.88763 27.7601 0.01515
C 17.18543 29.81183 0.01087
C 17.23469 28.27939 0.00199
C 18.40351 27.65214 0.01511
C 18.40802 9.22377 -0.00478
C 17.22718 8.45217 -0.01662
C 17.2711 7.0609 -0.01185
C 18.45412 6.3944 0.01126
C 18.39921 4.96269 0.01852
C 20.91002 9.03177 -0.00225
C 17.15433 4.21846 -0.00381
C 18.34053 2.208 0.0296
C 18.36947 0.71242 0.03374
C 17.19402 0.08466 -0.02845
C 19.59204 32.63213 -0.03213
C 20.81055 31.98841 0.02239
C 20.91471 30.48911 0.01153
C 19.61976 29.78997 0.02734
C 19.64716 28.25251 -0.0055
C 17.18039 2.7818 0.03046
C 22.13634 2.80104 -0.00229
C 23.36531 2.09695 -0.00938
C 23.33704 0.70759 -0.0264
C 28.3239 27.60538 0.00194
C 28.2888 26.15646 -0.00621
C 27.10318 25.67188 0.02611
C 26.99778 11.14969 0.02198
C 28.19966 10.64868 0.01094
C 28.29903 9.17654 0.00235
C 27.06767 8.38684 0.01495
C 27.06025 7.05425 0.01259
C 27.08288 28.39122 0.04185
C 28.36455 6.36488 0.01799
C 27.10245 4.28319 -0.00416
C 27.17222 2.88853 0.01177
C 28.39405 2.11445 0.04266
C 28.24321 0.68626 0.01324
C 27.08446 34.06911 0.0014
C 29.51804 32.66959 0.00924
C 30.71831 31.97409 0.02326
C 30.73875 30.54839 0.00261
C 28.32807 4.91217 0.01699
C 27.08776 29.78303 0.02316
C 28.31604 30.57354 0.01257
C 28.30751 31.91735 0.00152
C 22.0451 0.0308 -0.01154
C 24.60604 32.71409 0.00684
C 25.80284 31.99571 -0.01052
C 25.80969 30.56554 -0.01679
C 24.61552 29.83273 0.00367
C 24.62438 28.43917 0.04306
C 25.83729 27.73246 0.00996
C 26.00168 26.44083 0.00195
C 25.90766 9.31275 -0.00802
C 24.55286 8.68981 -0.00218
C 24.61956 7.14795 -0.01654
C 25.80386 6.35396 -0.00037
C 25.85824 4.95785 -0.0032
C 24.49881 4.19868 0.00622
C 24.64112 2.84156 -0.02815
C 25.83209 2.17086 -0.00942
C 25.87822 0.74812 0.00487
C 24.62287 0.07676 0.00826
C 27.03985 32.65862 -0.00294
C 18.35169 31.94659 0.00096
C 2.36279 32.64121 0.01087
