414
Graphene
C 34.38321 34.02162 0.01295
C 12.20986 12.89705 0.00985
C 12.33592 11.463 -0.02245
C 13.52027 10.76547 -0.00428
C 13.3984 9.34674 0.03101
C 13.41496 6.39151 -0.01536
C 13.47619 4.98685 -0.02689
C 12.30963 4.27815 -0.01046
C 12.27326 2.89868 -0.00891
C 13.53931 2.17092 0.02819
C 13.47194 0.78262 0.00165
C 12.2675 0.07346 -0.02971
C 14.78537 32.59756 0.02894
C 15.97374 31.95328 -0.01789
C 15.96153 30.43693 0.00444
C 14.74498 29.80805 -0.00925
C 14.74805 28.40942 0.01877
C 15.98057 27.7251 0.01363
C 15.94486 26.29012 -0.02162
C 14.69208 25.6734 0.00415
C 14.81492 24.24404 -0.0014
C 16.02597 23.4796 0.02162
C 13.49617 13.55724 -0.01275
C 13.469 14.89028 -0.01111
C 12.23178 15.68165 0.02841
C 12.31537 17.08852 0.00943
C 9.75649 12.89476 -0.014
C 11.111 5.09777 0.02147
C 9.7769 4.51356 0.00373
C 9.78415 2.93998 -0.00191
C 11.02314 2.2143 0.00438
C 11.0356 0.83115 0.01291
C 9.89722 0.13599 0.00093
C 12.30082 32.70963 0.00057
C 13.52371 31.9683 -0.01634
C 13.49823 30.52454 -0.00334
C 15.96457 22.05856 0.0076
C 12.25878 29.83437 0.02339
C 13.47272 27.76111 -0.00719
C 13.49742 26.33816 0.01364
C 12.3169 25.62 -0.01062
C 12.25098 24.19748 -0.00033
C 13.60817 23.55545 0.03589
C 13.51925 22.10655 -0.02759
C 12.22897 21.42712 0.0402
C 12.26899 19.95598 0.00572
C 13.46864 19.25347 0.03592
C 13.50181 17.84167 0.00406
C 12.24092 28.36763 0.01641
C 14.73062 21.399 0.01241
C 14.68694 19.95457 -0.01454
C 15.92085 19.13249 0.01945
C 17.28848 24.13477 -0.02162
C 18.60221 23.3768 0.00889
C 18.59387 21.95622 -0.00481
C 17.17827 21.2366 0.00979
C 17.24845 19.81053 0.01443
C 18.49126 19.05524 0.03505
C 18.40147 17.62374 -0.02815
C 17.13263 16.97172 -0.04147
C 17.13329 15.60157 -0.05302
C 18.24932 14.61445 0.00213
C 17.20949 25.57503 -0.00619
C 17.38031 13.28553 -0.00066
C 18.86776 10.88557 0.00028
C 18.49266 9.26553 -0.02213
C 17.26125 8.62239 0.03698
C 17.16493 7.1171 -0.00109
C 18.39278 6.29117 -0.00491
C 18.44991 4.83144 0.03338
C 17.23115 4.24423 -0.0258
C 17.20897 2.82178 -0.0331
C 18.43644 2.16326 -0.00316
C 18.4815 0.66157 0.02188
C 17.68559 11.79751 -0.00289
C 10.98016 13.50984 -0.01118
C 18.43768 26.21024 0.01848
C 17.17052 28.38646 -0.03113
C 15.9372 17.7855 0.01416
C 14.70163 17.10882 0.03542
C 14.71089 15.67893 0.02299
C 15.86118 14.99751 0.00244
C 15.99712 13.60176 -0.01717
C 14.80698 12.85735 0.05265
C 14.79672 11.48733 -0.01952
C 16.13452 10.83371 -0.02813
C 15.99319 9.35919 0.00374
C 14.64255 8.64854 0.00052
C 18.45478 27.59411 0.02098
C 14.6651 7.24598 -0.03682
C 15.99218 5.0384 0.02058
C 14.79068 4.31277 -0.01957
C 14.85059 2.87765 -0.0108
C 16.01724 2.07253 -0.00368
C 15.98051 0.62372 -0.02696
C 14.74263 34.04315 -0.00114
C 17.31172 32.57389 0.00228
C 18.57369 31.83103 0.00798
C 18.55572 30.44746 0.00422
C 17.2517 29.76272 0.0351
C 15.89597 6.55809 0.01965
C 10.95765 14.91802 -0.00131
C 9.73335 15.70478 -0.02896
C 9.77248 17.13909 -0.01004
C 4.80503 32.75467 0.04505
C 6.05782 32.09065 0.03284
C 6.1053 30.65214 -0.04307
C 4.83158 29.86586 0.03189
C 4.86777 28.43553 0.00031
C 6.11259 27.81753 -0.003
C 6.08102 26.39994 0.01402
C 4.8283 25.65211 0.02379
C 4.90257 24.24853 0.00907
C 6.12446 23.54283 0.00643
C 2.36732 0.01543 -0.04999
C 6.09271 22.09505 -0.01509
C 4.87039 19.94507 0.02374
C 6.10669 19.21036 0.00402
C 5.92594 17.79662 0.0073
C 4.69208 17.07596 0.0174
C 4.61959 15.58469 0.03828
C 6.02743 14.80325 0.01226
C 6.00054 13.3338 -0.00279
C 4.76447 12.43888 0.01996
C 3.61211 11.98288 -0.03996
C 7.31744 9.87024 0.01465
C 4.85132 21.32851 0.03267
C 6.36835 9.01688 -0.00074
C 3.57464 0.76104 -0.03291
C 2.37693 2.85712 0.01707
C 3.67469 30.62055 0.03278
C 2.3479 29.84408 -0.00177
C 2.32971 28.39741 0.04421
C 3.58817 27.68667 0.00088
C 3.52828 26.27599 0.00828
C 2.3102 25.51201 -0.02375
C 2.41175 24.10418 0.00558
C 3.62935 23.52976 -0.0059
C 3.68941 22.08591 -0.01386
C 2.41935 21.31074 -0.02805
C 3.57258 2.15714 0.02769
C 2.34887 19.95045 0.00081
C 3.56889 17.77749 0.02728
C 2.40747 16.91432 -0.00039
C 2.68255 15.47168 0.0064
C 2.87149 10.84538 0.00211
C 3.56736 9.41859 -0.00449
C 2.46829 8.40464 -0.01979
C 2.47605 7.01924 0.02784
C 3.66524 6.34393 -0.01977
C 3.56116 4.99797 -0.00561
C 2.40515 4.27198 0.00208
C 3.55146 19.225 0.00245
C 17.23473 33.99482 -0.01979
C 5.0148 8.66994 -0.00518
C 6.11607 6.47096 -0.00643
C 7.47262 11.13403 0.01849
C 8.54982 5.15438 -0.01142
C 7.3516 4.31121 -0.00562
C 7.29499 2.99093 -0.00494
C 8.52396 2.32177 0.00054
C 8.56491 0.91417 0.03007
C 7.34448 0.17029 -0.00095
C 9.80456 32.75204 0.01572
C 11.07328 32.08502 -0.04848
C 11.05792 30.54739 -0.00892
C 7.341 12.57958 0.01396
C 9.79803 29.86113 -0.01362
C 11.02985 27.73238 0.0288
C 11.00976 26.31378 0.00393
C 9.74715 25.66429 0.00895
C 9.79115 24.16245 0.00685
C 11.05149 23.46216 0.02888
C 10.93194 22.10116 -0.00482
C 9.73988 21.31419 -0.01384
C 9.78473 19.89308 0.03693
C 11.06774 19.19088 0.01745
C 11.02855 17.85115 0.00488
C 9.75036 28.48815 -0.0008
C 4.93504 7.10354 0.0086
C 8.58209 13.54309 0.0127
C 7.27188 15.69321 -0.01378
C 6.09885 5.04145 0.017
C 4.85612 4.26845 -0.03113
C 4.76966 2.90956 -0.02566
C 6.05385 2.25039 -0.00094
C 6.0384 0.79379 0.02322
C 4.80832 0.0998 -0.00725
C 7.30221 32.83756 -0.05697
C 8.52035 32.04645 0.01087
C 8.5964 30.54444 -0.01343
C 7.31933 29.92914 0.00988
C 8.52258 14.99448 0.02635
C 7.2499 28.51055 0.0276
C 8.51858 26.40885 -0.00077
C 7.28505 25.69871 0.03368
C 7.34182 24.24136 -0.02929
C 8.54387 23.50224 -0.00966
C 8.48941 22.02853 -0.03337
C 7.27226 21.32511 0.01227
C 7.32461 19.9771 0.00873
C 8.49508 19.21115 -0.00049
C 8.53008 17.80261 0.00848
C 7.22032 17.10643 -0.01303
C 8.55239 27.77152 0.01305
C 19.70676 32.65013 0.02691
C 20.95912 31.95517 -0.01581
C 20.95142 30.5044 0.01452
C 29.51128 11.31185 -0.00944
C 30.81482 10.73952 -0.03735
C 30.73615 9.21415 -0.00971
C 29.47443 8.53637 0.01518
C 29.50774 7.14923 0.01908
C 30.77291 6.47421 0.07705
C 30.66128 4.99498 0.0103
C 29.46899 4.30916 0.02108
C 29.42552 2.78447 0.00716
C 30.69038 2.13744 0.00307
C 29.47869 12.75568 -0.02155
C 30.69354 0.73302 0.00346
C 31.8129 32.6345 -0.01694
C 33.01281 32.00647 0.01428
C 33.12987 30.51073 -0.02142
C 31.98705 29.72144 0.0544
C 31.9966 28.3425 0.00026
C 33.1549 27.62435 0.00682
C 33.10982 26.25582 -0.01779
C 31.90907 25.66674 0.03794
C 31.94443 24.14911 0.01927
C 33.10867 23.31396 0.01574
C 29.45147 34.07027 0.01713
C 33.14923 21.95288 -0.02383
C 30.69742 13.46685 -0.01461
C 29.40599 15.63 -0.0405
C 28.23121 5.03247 0.01495
C 26.99066 4.30687 0.01259
C 27.09719 2.86909 0.01799
C 28.25315 2.08012 0.01699
C 28.27651 0.62773 -0.00416
C 26.99905 34.06642 0.01177
C 29.43766 32.56366 0.04266
C 30.62123 31.84629 0.01324
C 30.737 30.44387 0.0014
C 29.4965 29.78531 0.00924
C 30.66092 14.85628 -0.01303
C 29.4677 28.29811 0.02326
C 30.68429 26.28248 0.03265
C 29.4297 25.46266 -0.02049
C 29.53023 24.06411 -0.01854
C 30.73896 23.35863 -0.01415
C 30.75316 21.98053 -0.03039
C 29.47218 21.2344 0.01836
C 29.35099 19.89446 0.03531
C 30.5737 19.17604 -0.00669
C 30.63708 17.81281 0.0101
C 29.40313 17.09624 0.01705
C 30.72028 27.67107 0.00261
C 28.2264 6.43554 0.00235
C 31.92157 21.23504 -0.01429
C 33.12471 19.08593 0.00594
C 34.36408 23.99202 0.00723
C 1.1603 23.40538 0.02712
C 1.18858 21.97544 -0.02213
C 34.40181 21.27769 0.01951
C 34.3643 19.8635 -0.01678
C 1.10849 19.22733 0.01223
C 1.1761 17.77274 0.00648
C 34.37227 17.06538 0.02114
C 0.06568 15.49674 -0.02957
C 1.3045 14.69671 0.00343
C 34.28804 25.43765 0.03076
C 0.30341 12.99871 -0.02656
C 1.55425 10.72208 -0.00027
C 1.32115 9.19001 -0.00583
C 0.02835 8.63043 -0.02302
C 34.39105 7.12626 -0.02849
C 1.16714 6.43176 0.02931
C 1.23055 5.04434 0.00628
C 0.03831 4.26521 -0.0345
C 34.40967 2.88903 -0.00931
C 1.1648 2.15015 -0.00939
C 1.17529 0.68759 -0.00468
C 0.49728 11.61723 -0.02442
C 31.89071 19.80168 -0.0136
C 1.10416 26.1998 -0.05239
C 34.36817 28.29293 -0.00439
C 33.12751 17.71799 -0.02474
C 31.88862 17.0329 0.00369
C 31.94342 15.55307 0.00455
C 33.23611 14.87182 -0.00644
C 33.19809 13.55484 -0.01839
C 31.99878 12.86547 0.00137
C 32.11173 11.44556 0.00199
C 33.46627 10.836 0.04381
C 33.25076 9.36971 0.02806
C 31.99115 8.61985 0.01504
C 1.15574 27.60689 -0.00598
C 32.02629 7.16913 -0.00069
C 33.24251 4.991 -0.03838
C 31.96312 4.24901 0.00349
C 31.95638 2.78767 -0.00323
C 33.18272 2.11533 -0.00841
C 33.14886 0.68371 0.0001
C 31.88944 0.006 -0.02927
C 34.27864 32.65335 -0.01404
C 1.10043 31.99319 0.01027
C 1.15509 30.594 0.01831
C 34.4094 29.81572 -0.01037
C 33.15957 6.41471 0.04926
C 3.60553 32.06277 0.01138
C 26.98195 7.17032 0.01094
C 28.24304 9.22041 0.02611
C 19.66089 34.02866 -0.01721
C 22.19675 32.6243 -0.02422
C 23.39768 31.94504 0.01277
C 23.39762 30.4655 0.00096
C 22.24274 29.74787 -0.01527
C 22.16987 28.31466 0.01087
C 23.34401 27.63579 0.00199
C 23.2366 26.30932 0.01511
C 22.09567 25.52669 -0.00478
C 22.32651 24.15498 -0.01662
C 20.98358 0.70343 -0.01154
C 23.81898 24.13276 -0.01185
C 22.11397 19.74396 0.01852
C 23.34126 17.63848 -0.00381
C 22.0871 17.11749 0.03046
C 21.99411 15.67337 0.0296
C 23.27868 14.88163 0.03374
C 23.24014 13.43212 -0.02845
C 21.93104 12.77809 -0.03213
C 21.75847 11.26194 0.02239
C 23.03218 10.63593 0.01153
C 23.19325 9.21505 0.02734
C 22.23167 21.02473 0.01126
C 21.96898 8.59499 -0.0055
C 20.89513 2.08777 0.0106
C 19.66205 4.18668 0.00742
C 19.7425 29.72172 0.04892
C 19.72073 28.31887 -0.00111
C 20.9094 27.6709 -0.03557
C 20.89201 26.26004 0.03754
C 19.61384 25.46213 0.01739
C 19.78791 24.07678 0.00755
C 21.25282 23.33837 -0.0054
C 21.12654 21.9192 0.00667
C 19.84682 21.27785 0.00143
C 19.64671 19.84229 -0.017
C 19.70535 2.77205 -0.01594
C 20.89149 19.05447 0.00364
C 19.53936 16.88281 -0.02957
C 19.46298 15.41579 -0.04422
C 20.6977 14.89026 0.00654
C 20.84147 13.53391 -0.00703
C 20.3747 10.63742 -0.04076
C 20.72339 9.26833 -0.00652
C 19.58628 8.46163 0.0058
C 19.63207 7.03635 -0.00865
C 20.82126 6.28684 0.00675
C 20.8472 4.88925 -0.00311
C 20.84898 17.61591 -0.00831
C 26.91639 8.58324 0.02198
C 22.01218 7.12162 0.01515
C 23.26893 4.97706 0.00071
C 24.647 2.91102 -0.01679
C 25.82984 2.19602 0.00367
C 25.86077 0.71926 0.04306
C 24.57316 0.01312 0.00996
C 27.00502 32.63247 0.00195
C 28.19681 31.88988 -0.00802
C 28.28398 30.5209 -0.00218
C 27.01648 29.61378 -0.01654
C 26.93964 28.10237 -0.00037
C 28.20531 27.56128 -0.0032
C 24.5244 4.26734 -0.01052
C 28.11288 26.14134 0.00622
C 27.22575 23.91574 -0.00942
C 28.25908 23.28544 0.00487
C 28.13053 17.82255 0.00826
C 27.02963 17.01555 -0.00294
C 26.92449 15.65442 0.00152
C 28.21782 14.86753 0.01257
C 28.22629 13.42606 0.02316
C 26.95364 12.77929 0.04185
C 26.94287 11.35844 0.00194
C 28.19816 10.63263 -0.00621
C 26.90408 25.3067 -0.02815
C 23.30914 6.32567 -0.00225
C 25.70456 4.95596 0.00684
C 24.53385 7.09294 -0.0264
C 22.08446 4.23212 -0.01107
C 22.08769 2.79903 -0.01586
C 23.34917 2.14612 -0.01971
C 23.39868 0.71758 -0.02118
C 22.24069 34.05777 0.00733
C 24.62844 32.6429 -0.00178
C 25.82911 31.78555 0.00768
C 25.86745 30.36182 -0.0276
C 24.56642 29.71604 0.03005
C 24.52476 28.26471 -0.04078
C 25.80331 6.42821 -0.01154
C 25.74889 27.43501 0.02117
C 24.35823 25.46939 -0.00498
C 24.51532 17.07341 0.00135
C 24.53187 15.72358 0.03102
C 25.64937 14.96439 0.02555
C 25.66258 13.49908 0.01423
C 24.45739 12.64851 -0.00285
C 24.31256 11.34959 -0.009
C 25.66025 10.6604 -0.01199
C 25.60708 9.25674 -0.00229
C 24.47256 8.5268 -0.00938
C 25.66562 25.95464 0.02737
C 2.30478 32.66701 -0.00407
