303
Graphene
C 0.02191 0.07341 0.01295
C 13.55814 2.20082 0.01452
C 13.59086 0.70423 0.04892
C 12.2889 0.044 -0.00111
C 14.79 32.72108 -0.03557
C 16.01637 31.97506 0.03754
C 15.95639 30.56903 0.01739
C 14.91509 29.7781 0.00755
C 14.82134 2.74817 -0.0054
C 15.81549 1.87709 0.00667
C 16.11878 0.6123 0.00143
C 14.74519 0.00149 -0.017
C 17.33227 32.63963 0.00364
C 18.54206 31.87043 -0.00831
C 18.42953 30.45067 -0.02957
C 17.21758 29.73945 -0.04422
C 12.34446 2.80162 -0.01581
C 17.28875 28.37337 0.00654
C 12.10148 4.11386 0.02691
C 13.53253 30.37756 0.02188
C 9.67347 12.69581 -0.02815
C 9.99136 11.38961 -0.04147
C 11.0148 10.65499 -0.05302
C 10.78526 9.28004 0.00213
C 9.78277 8.47955 -0.00066
C 9.86868 7.13852 -0.00289
C 11.06543 6.49711 0.00028
C 11.21507 5.10495 -0.02213
C 9.88659 4.31269 0.03698
C 9.89271 2.86401 -0.00109
C 11.07795 2.18842 -0.00491
C 11.03025 0.78292 0.03338
C 9.82108 0.00407 -0.0258
C 12.29683 32.69992 -0.0331
C 13.58176 31.92897 -0.00316
C 12.34766 29.769 -0.01979
C 9.87188 29.89936 0.03505
C 18.49122 27.76794 -0.00703
C 18.54459 0.68451 -0.00652
C 22.11576 29.8553 0.01126
C 22.15284 28.35255 0.01852
C 23.37871 27.71731 -0.00381
C 23.3507 26.25175 0.03046
C 22.06484 25.53201 0.0296
C 22.09317 24.14542 0.03374
C 23.41818 23.47246 -0.02845
C 23.28115 22.03901 -0.03213
C 21.9724 21.37705 0.02239
C 21.96591 19.9922 0.01153
C 23.27587 19.17672 0.02734
C 23.28395 17.67467 -0.0055
C 22.03321 17.19407 0.01515
C 23.22906 2.04817 -0.00225
C 23.43443 0.63398 0.00071
C 23.32063 30.55176 -0.01185
C 18.60217 2.07838 -0.04076
C 23.33 31.9415 -0.01662
C 19.81084 34.0208 0.01511
C 17.35614 34.03449 0.0058
C 19.79218 32.57942 -0.00865
C 20.95806 31.90504 0.00675
C 20.88701 30.4356 -0.00311
C 19.68297 29.70542 0.00742
C 19.70904 28.34818 -0.01594
C 20.91739 27.65977 0.0106
C 20.81152 26.12456 -0.01154
C 19.60814 25.57055 -0.01721
C 20.93813 23.58314 -0.02422
C 20.76198 22.21557 0.01277
C 20.86489 19.23848 0.00096
C 20.98362 17.99943 -0.01527
C 21.0686 2.07385 0.01087
C 20.97757 0.68615 0.00199
C 22.14797 32.66159 -0.00478
C 22.19025 34.0413 -0.01107
C 11.11104 30.31864 0.01443
C 9.82876 32.70031 -0.00481
C 3.64691 10.62554 0.00985
C 3.69425 9.1793 -0.02245
C 2.43059 8.53752 -0.00428
C 2.46281 7.11682 0.03101
C 3.70833 6.39513 -0.01536
C 3.64042 4.97095 -0.02689
C 2.38055 4.26767 -0.01046
C 2.37657 2.87137 -0.00891
C 3.71008 2.15176 0.02819
C 3.70534 0.66694 0.00165
C 2.46186 34.04504 -0.02971
C 4.89077 32.5303 0.02894
C 6.09807 31.86251 -0.01789
C 6.17584 30.40719 0.00444
C 4.90004 29.70021 -0.00925
C 2.48008 11.34025 -0.01275
C 4.91045 28.28656 0.01877
C 2.46864 12.78314 -0.01111
C 3.60762 15.02359 0.00943
C 3.66348 30.44493 0.00057
C 2.4763 29.77631 -0.01634
C 2.47438 28.37492 -0.00334
C 3.6859 27.56397 0.02339
C 3.68189 26.26546 0.01641
C 2.42788 25.57941 -0.00719
C 2.41158 24.17766 0.01364
C 3.43997 23.43148 -0.01062
C 3.55179 22.07578 -0.00033
C 2.47971 21.28634 0.03589
C 2.43858 19.95871 -0.02759
C 3.63896 19.27482 0.0402
C 3.79926 17.94202 0.00572
C 2.42069 17.1731 0.03592
C 2.37728 15.69958 0.00406
C 3.69544 13.62289 0.02841
C 11.07005 31.99059 0.00979
C 6.18168 27.7922 0.01363
C 5.01452 15.69791 0.00415
C 7.37532 28.38898 -0.01957
C 8.54865 13.50888 -0.0108
C 7.41649 12.84383 -0.00368
C 7.36135 11.42264 -0.02696
C 8.67201 10.70853 -0.00114
C 8.58767 9.31864 0.00228
C 7.33062 8.49426 0.00798
C 7.42736 7.1527 0.00422
C 8.64396 6.46074 0.0351
C 8.67623 4.99553 -0.03113
C 7.38074 4.28531 0.02098
C 7.47283 2.86117 0.01848
C 8.60336 2.10895 -0.00619
C 8.60904 0.70816 -0.02162
C 7.29975 33.94225 0.00889
C 7.45765 29.74117 0.02058
C 4.75352 17.00527 -0.02162
C 8.63672 30.47396 0.01965
C 7.30319 32.63565 0.00052
C 6.14149 14.97943 -0.0014
C 6.16717 13.56544 0.02162
C 4.95591 12.86209 0.0076
C 4.88819 11.40739 0.01241
C 6.14241 10.72053 -0.01454
C 6.05235 9.23853 0.01945
C 4.8394 8.44223 0.01416
C 4.90835 7.08585 0.03542
C 6.18737 6.41404 0.02299
C 6.14782 4.96467 0.00244
C 4.92295 4.30037 -0.01717
C 4.89367 2.8758 0.05265
C 6.13618 2.14234 -0.01952
C 6.07466 0.65259 -0.02813
C 4.9191 34.07489 0.00374
C 8.60828 31.97151 -0.03682
C 3.69006 31.80843 0.00093
C 24.67544 32.71685 -0.01586
C 25.79784 30.49454 -0.02118
C 33.12314 22.0975 0.01574
C 31.9345 21.29527 -0.02383
C 31.92142 19.90922 -0.01429
C 33.19916 19.16392 -0.0136
C 33.21949 17.74373 0.00594
C 31.9443 17.0129 -0.02474
C 31.918 15.63048 0.00369
C 33.12222 14.9328 0.00455
C 33.14897 13.51118 -0.00644
C 31.98891 12.79128 -0.01839
C 31.98636 11.36685 0.00137
C 33.19181 10.74942 0.00199
C 33.22403 9.30197 0.04381
C 32.03199 8.59223 0.02806
C 31.9937 7.17353 0.01504
C 33.16982 23.47763 0.01927
C 33.2668 6.45621 -0.00069
C 31.86484 24.20815 0.03794
C 33.14472 26.26835 0.00682
C 29.51407 8.45794 -0.00971
C 29.48865 7.08352 0.01518
C 30.77935 6.46083 0.01908
C 30.76671 4.98045 0.07705
C 29.50977 4.27985 0.0103
C 29.45632 2.91721 0.02108
C 30.68273 2.12508 0.00716
C 30.65544 0.67044 0.00307
C 29.42694 34.04458 0.00346
C 31.8364 32.67743 0.01713
C 33.21777 32.00508 -0.01694
C 33.27836 30.60097 0.01428
C 31.98231 29.8195 -0.02142
C 31.95564 28.48902 0.0544
C 33.17894 27.66185 0.00026
C 31.89205 25.62747 -0.01779
C 30.73097 9.25459 -0.03735
C 33.16135 5.02719 0.04926
C 31.93655 2.8146 0.00349
C 34.39586 15.63094 0.02114
C 1.16495 14.96997 -0.02957
C 1.24608 13.46677 0.00343
C 0.04371 12.83205 -0.02656
C 0.01693 11.39448 -0.02442
C 1.20326 10.65525 -0.00027
C 1.21597 9.23365 -0.00583
C 34.43044 8.54777 -0.02302
C 0.01637 7.17687 -0.02849
C 1.24724 6.42461 0.02931
C 1.18075 5.06207 0.00628
C 34.36546 4.34234 -0.0345
C 34.33345 2.90496 -0.00931
C 1.18931 2.12588 -0.00939
C 1.24609 0.75165 -0.00468
C 34.40906 17.09053 0.00648
C 31.89324 4.27521 -0.03838
C 1.19559 17.8047 0.01223
C 34.36707 19.92321 0.01951
C 33.09255 2.12999 -0.00323
C 33.17692 0.73734 -0.00841
C 31.89162 0.02171 0.0001
C 0.01028 32.72447 -0.02927
C 1.15673 31.91705 -0.01404
C 1.23159 30.58332 0.01027
C 34.4121 29.84801 0.01831
C 34.40754 28.37624 -0.01037
C 1.2181 27.67222 -0.00439
C 1.12953 26.33242 -0.00598
C 34.37577 25.55504 -0.05239
C 34.36075 24.19757 0.03076
C 1.22919 23.45517 0.00723
C 1.22545 21.96602 0.02712
C 34.36111 21.39716 -0.02213
C 1.18447 19.21108 -0.01678
C 25.79808 31.90521 -0.01971
C 30.68526 10.69954 -0.00944
C 29.45599 12.74455 -0.01461
C 25.79816 0.75077 -0.01154
C 24.57569 0.01593 0.00684
C 26.96578 32.67775 -0.01052
C 28.17959 31.85039 -0.01679
C 28.18985 30.44671 0.00367
C 27.02735 29.74133 0.04306
C 26.98615 28.35347 0.00996
C 28.26036 27.71611 0.00195
C 28.23096 26.33661 -0.00802
C 26.96983 25.53835 -0.00218
C 27.02702 24.17869 -0.01654
C 28.2244 23.50657 -0.00037
C 28.26459 22.05236 -0.0032
C 27.00473 21.30406 0.00622
C 27.04472 19.91562 -0.02815
C 25.77252 2.14215 -0.0264
C 28.2747 19.23094 -0.00942
C 24.36397 2.90542 -0.00938
C 25.71624 4.94516 -0.01199
C 24.54874 29.86402 0.00733
C 24.5633 28.38507 -0.00178
C 25.80997 27.69879 0.00768
C 25.76743 26.23851 -0.0276
C 24.5253 25.5405 0.03005
C 24.58278 24.13304 -0.04078
C 25.86893 23.43024 0.02117
C 25.76371 21.91692 0.02737
C 24.48076 21.23285 -0.00498
C 24.50937 19.77137 0.00135
C 25.80274 19.23709 0.03102
C 25.82076 17.7002 0.02555
C 24.55093 16.94363 0.01423
C 24.75014 15.69015 -0.00285
C 25.84265 14.97357 -0.009
C 24.65362 4.1648 -0.00229
C 29.48278 11.31855 -0.02155
C 28.27232 17.77768 0.00487
C 27.02373 15.58121 -0.00294
C 29.46761 28.43272 0.00924
C 30.74411 27.74418 0.02326
C 30.67448 26.3736 0.00261
C 29.48133 25.67352 0.03265
C 29.49847 24.29077 -0.02049
C 30.70433 23.50787 -0.01854
C 30.69103 22.01842 -0.01415
C 29.46462 21.34475 -0.03039
C 29.53101 19.91346 0.01836
C 30.7633 19.17257 0.03531
C 30.74937 17.73286 -0.00669
C 29.49183 17.06616 0.0101
C 29.49975 15.58467 0.01705
C 30.67374 14.92632 -0.0405
C 30.73795 13.47559 -0.01303
C 29.58234 29.80306 0.0014
C 27.05454 17.0058 0.00826
C 30.71489 30.49284 0.01324
C 29.44275 32.63301 0.01177
C 28.31771 14.88841 0.00152
C 28.24766 13.484 0.01257
C 27.17972 12.71887 0.02316
C 27.09295 11.38109 0.04185
C 28.15112 10.62026 0.00194
C 28.25543 9.20699 -0.00621
C 27.2217 8.38732 0.02611
C 27.14253 7.07727 0.02198
C 28.2114 6.3831 0.01094
C 28.215 4.98014 0.00235
C 26.97839 4.32064 0.01495
C 27.07732 2.88931 0.01259
C 28.25556 2.14945 0.01799
C 28.22456 0.6472 0.01699
C 27.04036 34.06516 -0.00416
C 30.7083 31.90822 0.04266
C 2.44358 32.6482 0.01291
