340
Graphene
C 0.01027 0.05623 0.01295
C 9.90576 19.9185 -0.00619
C 11.10706 19.06989 -0.02162
C 11.01281 17.64202 0.00889
C 9.75561 16.98801 -0.00481
C 9.82244 15.56344 0.00979
C 11.15865 15.0082 0.01443
C 11.14436 13.58547 0.03505
C 9.92205 12.837 -0.02815
C 9.8377 11.47663 -0.04147
C 11.13192 10.75335 -0.05302
C 10.97134 9.25973 0.00213
C 9.77213 8.50163 -0.00066
C 9.83104 7.11917 -0.00289
C 11.06106 6.41285 0.00028
C 11.09333 4.97153 -0.02213
C 9.82736 4.31489 0.03698
C 9.91278 2.88097 -0.00109
C 9.87775 21.36905 0.01848
C 11.14145 2.14823 -0.00491
C 11.17382 22.06075 0.02098
C 9.86925 24.15232 0.0351
C 7.32643 8.57658 -0.01717
C 7.33264 7.14249 0.05265
C 8.58103 6.36509 -0.01952
C 8.59494 4.9944 -0.02813
C 7.39457 4.30223 0.00374
C 7.31664 2.88515 0.00052
C 8.65204 2.24254 -0.03682
C 8.60072 0.80724 0.01965
C 7.36704 0.08456 0.02058
C 9.67949 32.76722 -0.01957
C 10.95233 32.06373 -0.0108
C 10.99568 30.55279 -0.00368
C 9.75404 29.88124 -0.02696
C 9.76197 28.46691 -0.00114
C 11.00956 27.75903 0.00228
C 10.97951 26.32878 0.00798
C 9.73234 25.56332 0.00422
C 11.10029 23.51478 -0.03113
C 10.99486 0.7561 0.03338
C 9.80161 0.09414 -0.0258
C 12.20798 32.79693 -0.0331
C 12.19015 8.58858 -0.04076
C 12.28901 7.18868 -0.00652
C 13.48339 6.39646 0.0058
C 13.512 4.94507 -0.00865
C 12.2963 4.26503 0.00675
C 12.31872 2.92304 -0.00311
C 13.52508 2.15818 0.00742
C 13.53332 0.68204 -0.01594
C 12.26983 0.06899 0.0106
C 14.71468 32.59352 -0.01154
C 15.95061 32.05622 -0.01721
C 14.70112 29.67546 -0.02422
C 14.83849 19.65418 0.01277
C 14.81987 17.16739 0.00096
C 14.754 15.72639 -0.01527
C 15.8826 14.93169 0.01087
C 15.98419 13.57565 0.00199
C 13.41746 9.19369 -0.00703
C 13.56136 10.60026 0.00654
C 12.40424 11.42653 -0.04422
C 12.35561 12.89922 -0.02957
C 13.38255 32.11264 -0.00316
C 13.47529 30.54822 0.02188
C 12.23685 29.87063 -0.01979
C 12.2422 28.46574 0.02691
C 13.61327 27.942 -0.01581
C 13.46968 26.64001 0.01452
C 12.32007 25.77864 0.04892
C 12.34829 24.35488 -0.00111
C 8.5542 9.28082 0.00244
C 13.50944 23.26566 -0.03557
C 12.28834 21.25504 0.01739
C 12.25162 19.84948 0.00755
C 13.51799 19.24749 -0.0054
C 13.47045 17.82792 0.00667
C 12.26457 17.03202 0.00143
C 12.37888 15.64952 -0.017
C 13.57132 14.93704 0.00364
C 13.61324 13.53586 -0.00831
C 13.54535 22.04803 0.03754
C 14.78747 12.78178 0.01511
C 8.59025 10.70399 0.02299
C 7.31512 12.80063 0.01416
C 2.35871 8.54371 -0.00482
C 2.45984 7.13366 -0.01384
C 3.7387 6.41106 0.03693
C 3.71065 5.06677 0.01745
C 2.46123 4.32572 0.00488
C 2.40648 2.88688 -0.01004
C 3.69019 2.19109 -0.02896
C 3.60755 0.76027 -0.00131
C 2.41449 0.08573 -0.01118
C 4.90001 32.65854 -0.014
C 6.13354 32.00234 0.02147
C 6.05719 30.53816 0.00373
C 4.82431 29.83403 -0.00191
C 4.90988 28.38367 0.00438
C 6.05569 27.74583 0.01291
C 6.14301 26.33551 0.00093
C 4.8828 25.52196 0.00057
C 3.66197 9.20114 0.02888
C 4.8969 24.143 -0.01634
C 3.59598 10.68714 0.00685
C 2.40458 12.81715 0.00393
C 3.61957 30.55535 -0.01378
C 2.38547 29.76268 0.02635
C 2.37848 28.42399 0.0127
C 3.59791 27.69326 0.01396
C 3.65877 26.33285 0.01849
C 2.44142 25.62281 -0.01142
C 2.44748 24.11872 -0.00562
C 3.70246 23.39177 -0.00494
C 3.57901 22.03572 0.00054
C 2.33571 21.30781 0.03007
C 2.37104 19.8559 -0.00095
C 3.56867 19.20615 0.01572
C 3.6757 17.7477 -0.04848
C 2.54496 17.01753 -0.00892
C 2.40337 15.57772 -0.01362
C 3.63783 14.91189 -0.0008
C 3.67242 13.47968 0.0288
C 2.36918 11.3359 0.00895
C 6.15765 23.43673 -0.00334
C 6.13142 22.05613 0.02339
C 4.86975 21.37193 0.01641
C 8.55289 30.5837 0.02819
C 7.32773 29.87775 0.00165
C 7.35465 28.41577 -0.02971
C 8.58738 27.66572 0.02894
C 8.53738 26.25605 -0.01789
C 7.32787 25.5297 0.00444
C 7.3535 24.14233 -0.00925
C 8.60627 23.42908 0.01877
C 8.62485 22.06967 0.01363
C 7.41558 21.34687 -0.02162
C 7.38548 19.93262 0.00415
C 8.65056 19.2307 -0.0014
C 8.66932 17.77283 0.02162
C 7.44856 17.04665 0.0076
C 7.35854 15.58425 0.01241
C 8.60164 14.83301 -0.01454
C 8.59487 13.41773 0.01945
C 8.53178 32.03909 -0.00891
C 7.2767 32.78241 -0.01046
C 4.85594 0.04331 -0.02689
C 6.10859 0.84236 -0.01536
C 4.85769 19.8591 -0.00719
C 6.17525 19.19479 0.01364
C 6.22297 17.79494 -0.01062
C 4.97613 17.00082 -0.00033
C 4.90106 15.58835 0.03589
C 6.12093 14.83221 -0.02759
C 6.1089 13.42877 0.0402
C 4.85762 12.6953 0.00572
C 7.29225 11.31255 0.03542
C 4.91039 11.25275 0.03592
C 6.10998 9.23266 0.00943
C 4.89967 8.51122 0.02841
C 4.90459 7.01497 -0.01111
C 6.15842 6.36141 -0.01275
C 6.20291 4.98765 0.00985
C 4.90201 4.34173 -0.02245
C 4.82851 2.90022 -0.00428
C 6.09617 2.25691 0.03101
C 6.1472 10.57091 0.00406
C 14.75838 11.31079 -0.00478
C 15.93907 10.5987 -0.01662
C 15.9117 9.1637 -0.01185
C 31.87884 29.77588 -0.02142
C 31.918 28.30316 0.0544
C 33.16429 27.72131 0.00026
C 33.16519 26.22242 0.00682
C 32.02178 25.47279 -0.01779
C 31.96929 24.04042 0.03794
C 33.13085 23.30981 0.01927
C 33.07834 21.88906 0.01574
C 31.69724 21.21174 -0.02383
C 31.77644 19.82027 -0.01429
C 33.10622 19.17699 -0.0136
C 33.20367 17.79251 0.00594
C 31.94839 17.24745 -0.02474
C 31.77688 15.78699 0.00369
C 33.0662 15.00637 0.00455
C 33.10677 13.55431 -0.00644
C 31.91026 12.84054 -0.01839
C 33.12787 30.54382 0.01428
C 31.98213 11.39931 0.00137
C 33.12995 32.01415 -0.01694
C 29.46905 33.9811 0.00346
C 30.66287 23.62863 -0.00669
C 30.75358 22.28632 0.0101
C 31.1958 18.4822 0.01705
C 30.63737 14.98223 -0.0405
C 30.70781 13.65693 -0.01303
C 29.47455 12.94622 -0.01461
C 29.46144 11.42308 -0.02155
C 30.71299 10.76144 -0.00944
C 30.64753 9.34761 -0.03735
C 29.43135 8.52854 -0.00971
C 29.42671 7.11495 0.01518
C 30.70415 6.42686 0.01908
C 30.73492 4.9978 0.07705
C 29.45639 4.19402 0.0103
C 29.50745 2.86113 0.02108
C 30.64719 2.02393 0.00716
C 30.68724 0.63081 0.00307
C 31.89642 32.62142 0.01713
C 33.1381 10.65196 0.00199
C 33.09911 9.24051 0.04381
C 31.897 8.51222 0.02806
C 1.22859 17.78513 0.01223
C 0.06302 17.00458 0.00648
C 34.34803 15.71727 0.02114
C 1.16804 14.87007 -0.02957
C 1.16802 13.49494 0.00343
C 34.32376 12.81273 -0.02656
C 34.31992 11.49843 -0.02442
C 1.09416 10.72108 -0.00027
C 1.14642 9.25244 -0.00583
C 34.36264 8.57712 -0.02302
C 34.3632 7.17204 -0.02849
C 1.1582 6.44754 0.02931
C 1.21987 5.00557 0.00628
C 34.4164 4.26154 -0.0345
C 34.35766 2.90058 -0.00931
C 1.19524 2.25129 -0.00939
C 1.26898 0.80687 -0.00468
C 1.16189 19.19052 -0.01678
C 34.28631 19.83684 0.01951
C 34.32162 21.23099 -0.02213
C 1.05428 22.00492 0.02712
C 31.84633 7.17459 0.01504
C 33.1047 6.42584 -0.00069
C 33.17812 5.02246 0.04926
C 31.98973 4.25273 -0.03838
C 31.87836 2.83042 0.00349
C 33.10819 2.14366 -0.00323
C 33.14375 0.67962 -0.00841
C 31.87712 34.04694 0.0001
C 29.72035 24.9458 0.03531
C 34.39845 32.71246 -0.02927
C 1.1781 30.51492 0.01027
C 34.34086 29.82148 0.01831
C 34.40209 28.46051 -0.01037
C 1.17723 27.63133 -0.00439
C 1.20812 26.24183 -0.00598
C 0.00818 25.53247 -0.05239
C 34.38876 24.1945 0.03076
C 1.212 23.51529 0.00723
C 1.2056 31.97015 -0.01404
C 30.6749 26.05286 0.01836
C 30.70434 27.50272 -0.03039
C 29.61564 28.38245 -0.01415
C 18.69628 1.04358 -0.0276
C 17.33345 0.06544 0.03005
C 19.45683 12.80699 -0.04078
C 19.56792 11.36881 0.02117
C 20.81203 10.6266 0.02737
C 20.84682 9.18923 -0.00498
C 19.65038 8.45062 0.00135
C 19.64814 7.03346 0.03102
C 20.82151 6.24588 0.02555
C 20.69629 4.66237 0.01423
C 19.29232 3.96246 -0.00285
C 20.90265 33.69762 -0.009
C 19.73988 0.21935 -0.01199
C 21.97908 11.2289 -0.00229
C 23.29319 10.85615 -0.00938
C 23.29008 9.18428 -0.0264
C 22.05471 8.40104 -0.01154
C 18.57772 2.60012 0.00768
C 17.16856 2.95535 -0.00178
C 17.04889 4.38868 0.00733
C 18.26564 4.93325 -0.02118
C 14.66653 8.53833 0.01126
C 14.70987 7.11375 0.01852
C 15.96686 6.47593 -0.00381
C 15.89009 5.10044 0.03046
C 14.74488 4.28643 0.0296
C 14.71688 2.85541 0.03374
C 15.96093 2.21544 -0.02845
C 15.97152 0.77245 -0.03213
C 22.05452 6.97231 0.00684
C 14.79055 34.0795 0.02239
C 18.49007 13.39691 0.02734
C 17.17353 12.91716 -0.0055
C 17.22209 11.39406 0.01515
C 18.41405 10.60313 -0.00225
C 18.46666 9.20283 0.00071
C 17.27082 8.50523 -0.01107
C 17.26074 7.05496 -0.01586
C 18.44499 6.32998 -0.01971
C 17.0831 32.7985 0.01153
C 3.66259 31.9768 -0.01303
C 23.29971 6.21788 -0.01052
C 22.00345 4.05573 0.00367
C 27.12895 12.85472 0.01094
C 26.95701 11.39686 0.00235
C 28.23029 10.67509 0.01495
C 28.20176 9.27459 0.01259
C 26.92398 8.60137 0.01799
C 26.95302 7.2009 0.01699
C 28.17068 6.46618 -0.00416
C 28.18038 4.98075 0.01177
C 26.96703 4.29237 0.04266
C 27.00758 2.88548 0.01324
C 28.28299 2.15587 0.0014
C 28.2399 0.72685 0.00924
C 27.04746 0.00414 0.02326
C 29.4979 32.5846 0.00261
C 30.69615 31.86694 0.03265
C 30.58161 30.48149 -0.02049
C 29.3332 29.67925 -0.01854
C 28.14058 13.38086 0.02198
C 28.26276 30.49111 0.02611
C 28.28098 31.92673 -0.00621
C 27.08027 32.58086 0.00194
C 22.22109 2.5757 0.04306
C 23.51769 2.08763 0.00996
C 23.2626 0.65852 0.00195
C 21.86031 0.62199 -0.00802
C 24.71136 32.5527 -0.00218
C 25.72458 31.99254 -0.01654
C 24.46074 11.38262 -0.00037
C 25.71315 10.71836 -0.0032
C 23.32549 4.78324 -0.01679
C 25.70365 9.2539 0.00622
C 24.52162 7.10313 -0.00942
C 25.77187 6.4302 0.00487
C 25.74936 5.03341 0.00826
C 24.56139 4.24926 -0.00294
C 24.68054 2.84535 0.00152
C 25.85496 2.1346 0.01257
C 25.84241 0.67373 0.02316
C 24.54878 33.9786 0.04185
C 24.51587 8.50809 -0.02815
C 2.39819 32.77254 0.00848
