324
Graphene
C 0.04981 0.02769 0.01295
C 9.9196 19.78836 -0.00066
C 9.7233 11.44768 -0.00289
C 10.96741 10.92224 0.00028
C 11.14683 9.35011 -0.02213
C 9.9098 8.53916 0.03698
C 9.84963 7.11669 -0.00109
C 11.07598 6.29729 -0.00491
C 9.96614 21.18007 0.00213
C 11.05616 4.86762 0.03338
C 9.88528 2.74133 -0.0331
C 11.134 2.04206 -0.00316
C 11.13942 0.71459 0.02188
C 9.88114 0.03935 -0.01979
C 12.29538 32.69086 0.02691
C 13.57971 31.87764 -0.01581
C 13.5097 30.53048 0.01452
C 9.75035 4.16982 -0.0258
C 12.35162 29.81983 0.04892
C 11.04778 21.99198 -0.05302
C 9.88001 24.12569 -0.02815
C 7.35953 7.13006 -0.02696
C 8.6007 6.48534 -0.00114
C 8.58333 4.92873 0.00228
C 7.37097 4.29977 0.00798
C 7.38701 2.88386 0.00422
C 8.60328 2.12905 0.0351
C 8.63439 0.72489 -0.03113
C 11.05494 23.34101 -0.04147
C 7.40584 0.04188 0.02098
C 11.12202 31.96419 -0.00619
C 11.10823 30.53474 -0.02162
C 9.86649 29.82314 0.00889
C 9.81861 28.44292 -0.00481
C 11.05734 27.67151 0.00979
C 10.98443 26.29377 0.01443
C 9.76599 25.5485 0.03505
C 9.88369 32.6708 0.01848
C 12.27659 28.36926 -0.00111
C 13.62237 27.6832 -0.03557
C 13.54232 26.14965 0.03754
C 15.9389 31.92508 -0.01154
C 15.9707 30.49448 -0.01721
C 14.70564 29.79431 -0.02422
C 14.79716 28.36461 0.01277
C 16.0547 27.62581 0.00096
C 14.80284 25.6847 -0.01527
C 14.27025 16.82775 0.01087
C 14.80847 32.63133 0.0106
C 15.05344 15.8999 0.00199
C 15.95279 13.43081 -0.00478
C 14.7482 12.70956 -0.01662
C 14.6927 11.41918 -0.01185
C 15.97288 10.71903 0.01126
C 15.99236 9.31051 0.01852
C 14.8112 8.59632 -0.00381
C 14.76711 7.10751 0.03046
C 15.65622 14.76438 0.01511
C 12.36546 34.06056 -0.01594
C 13.63043 0.64682 0.00742
C 13.56096 2.09122 -0.00311
C 12.28808 25.49271 0.01739
C 12.36959 24.10423 0.00755
C 13.43931 23.34575 -0.0054
C 13.51005 22.00323 0.00667
C 12.3618 21.28998 0.00143
C 12.28392 20.02991 -0.017
C 12.95559 19.00843 0.00364
C 13.8023 18.02087 -0.00831
C 12.32332 11.39227 -0.02957
C 13.49997 10.64813 -0.04422
C 13.54496 9.22834 0.00654
C 12.33552 8.52028 -0.00703
C 12.25024 7.03523 -0.04076
C 13.5511 6.43666 -0.00652
C 13.54127 5.03552 0.0058
C 12.37413 4.20766 -0.00865
C 12.39985 2.80507 0.00675
C 7.40451 8.59613 -0.00368
C 16.00911 6.37866 0.0296
C 8.63918 9.22276 -0.0108
C 7.33389 11.35675 0.02058
C 3.65496 9.13251 0.00093
C 2.37754 8.51436 0.00057
C 2.3659 7.14844 -0.01634
C 3.64621 6.39283 -0.00334
C 3.70951 4.9654 0.02339
C 2.47021 4.28054 0.01641
C 2.48009 2.86401 -0.00719
C 3.6581 10.57431 0.01291
C 3.70994 2.12848 0.01364
C 2.43388 0.0339 -0.00033
C 4.94469 32.6687 0.03589
C 6.14596 31.9803 -0.02759
C 6.13746 30.51179 0.0402
C 4.90532 29.86638 0.00572
C 4.89195 28.48712 0.03592
C 6.13845 27.70532 0.00406
C 3.6828 0.69391 -0.01062
C 6.11591 26.26281 0.00943
C 2.43283 11.31143 0.00438
C 3.65774 13.40703 0.00373
C 3.60403 30.51132 0.0288
C 2.42091 29.77616 0.00393
C 2.43892 28.36741 0.00895
C 3.70094 27.67077 0.00685
C 3.71571 26.35926 0.02888
C 2.48863 25.62065 -0.00482
C 2.39121 24.22159 -0.01384
C 2.44882 12.66316 -0.00191
C 3.64459 23.45209 0.03693
C 2.45062 21.33203 0.00488
C 2.40243 19.92854 -0.01004
C 3.67026 19.20487 -0.02896
C 3.73767 17.75081 -0.00131
C 2.4604 17.07741 -0.01118
C 2.46544 15.5997 -0.014
C 3.69015 14.82843 0.02147
C 3.64985 22.09857 0.01745
C 4.90733 25.60468 0.02841
C 4.85444 24.19331 -0.01111
C 6.07485 23.44893 -0.01275
C 4.89139 0.01347 0.0076
C 7.37089 32.73421 0.01241
C 8.66536 31.98966 -0.01454
C 8.59041 30.57424 0.01945
C 7.45175 29.80091 0.01416
C 7.29252 28.38469 0.03542
C 8.58891 27.67856 0.02299
C 6.14125 0.69848 0.02162
C 8.55425 26.19399 0.00244
C 7.32371 24.14173 0.05265
C 8.55711 23.37309 -0.01952
C 8.68146 22.01066 -0.02813
C 7.36959 21.34792 0.00374
C 7.42265 19.87288 0.00052
C 8.71161 19.43085 -0.03682
C 7.26072 12.71932 0.01965
C 7.33512 25.60981 -0.01717
C 6.19511 2.19621 -0.0014
C 4.89798 2.85333 0.00415
C 4.9138 4.32199 -0.02162
C 6.17627 22.09955 0.00985
C 4.98518 21.32203 -0.02245
C 4.96688 19.89352 -0.00428
C 6.19542 19.15447 0.03101
C 6.22994 17.73685 -0.01536
C 4.97613 17.03909 -0.02689
C 4.89497 15.63708 -0.01046
C 6.01283 14.86235 -0.00891
C 6.1841 13.49129 0.02819
C 4.85722 12.76214 0.00165
C 4.84449 11.29395 -0.02971
C 6.09726 10.64417 0.02894
C 6.13741 9.23432 -0.01789
C 4.87264 8.55044 0.00444
C 4.85526 7.08711 -0.00925
C 6.0913 6.44876 0.01877
C 6.05086 5.06108 0.01363
C 8.58324 10.6878 -0.01957
C 16.02415 4.9539 0.03374
C 14.75374 4.29388 -0.02845
C 14.72616 2.87854 -0.03213
C 31.99211 29.868 0.00682
C 31.93071 28.4546 -0.01779
C 33.23507 27.74009 0.03794
C 33.25295 26.35853 0.01927
C 32.03422 25.71949 0.01574
C 33.09834 23.55742 -0.02383
C 33.23013 22.26609 -0.01429
C 33.1931 30.54063 0.00026
C 33.11563 19.28534 -0.0136
C 32.04179 16.98666 -0.02474
C 31.84748 15.72111 0.00369
C 33.18865 14.96549 0.00455
C 33.19465 13.50896 -0.00644
C 31.94115 12.84572 -0.01839
C 31.86132 11.47413 0.00137
C 33.1933 10.65905 0.00199
C 33.0483 17.87242 0.00594
C 33.19631 9.24067 0.04381
C 33.20732 32.01683 0.0544
C 29.47534 0.04954 0.01428
C 30.79505 30.62066 -0.01303
C 29.58014 30.01643 -0.01461
C 30.93509 27.51643 -0.02155
C 30.80029 14.83831 -0.00944
C 30.65834 13.54855 -0.03735
C 29.4502 12.71155 -0.00971
C 30.66736 10.78746 0.01518
C 32.01231 32.67611 -0.02142
C 30.643 9.37571 0.01908
C 29.44645 7.13331 0.0103
C 30.67902 6.39388 0.02108
C 30.71889 5.02955 0.00716
C 29.4883 4.21589 0.00307
C 29.42135 2.86103 0.00346
C 30.69267 2.13689 0.01713
C 30.71787 0.69965 -0.01694
C 29.36946 8.52624 0.07705
C 31.876 8.57789 0.02806
C 31.93361 7.1658 0.01504
C 33.14498 6.36696 -0.00069
C 34.38222 17.14268 0.00648
C 0.03484 15.6573 0.02114
C 1.24523 14.92631 -0.02957
C 1.26355 13.49158 0.00343
C 34.3915 12.80675 -0.02656
C 34.39488 11.33418 -0.02442
C 1.17136 10.60167 -0.00027
C 1.21655 17.72697 0.01223
C 1.16166 9.23493 -0.00583
C 34.3832 7.06638 -0.02849
C 1.20178 6.37779 0.02931
C 1.24467 4.95476 0.00628
C 0.01174 4.29173 -0.0345
C 34.38591 2.82099 -0.00931
C 1.21823 2.12457 -0.00939
C 1.2725 0.72114 -0.00468
C 34.40047 8.49624 -0.02302
C 1.2387 19.11314 -0.01678
C 34.27984 19.8773 0.01951
C 34.31418 21.35445 -0.02213
C 33.17424 4.90897 0.04926
C 31.90878 4.29872 -0.03838
C 31.94543 2.81275 0.00349
C 33.17379 2.10147 -0.00323
C 33.19478 0.75168 -0.00841
C 31.94381 0.01668 0.0001
C 0.07848 32.66822 -0.02927
C 1.2369 31.94887 -0.01404
C 1.21643 30.56213 0.01027
C 34.42433 29.79618 0.01831
C 0.00876 28.41967 -0.01037
C 1.27522 27.67512 -0.00439
C 1.24595 26.28763 -0.00598
C 0.02141 25.60646 -0.05239
C 34.36712 24.22044 0.03076
C 1.14404 23.47526 0.00723
C 1.17304 22.0534 0.02712
C 30.62188 31.99856 -0.0405
C 29.44374 32.71099 0.01705
C 27.02546 34.06652 0.0101
C 28.19656 0.76374 -0.00669
C 19.7072 32.60297 0.03102
C 20.91326 31.97938 0.02555
C 19.49596 12.73168 0.01423
C 19.70651 11.38517 -0.00285
C 20.89859 10.73696 -0.009
C 20.7966 9.25046 -0.01199
C 19.66448 8.55845 -0.00229
C 17.1831 34.07463 0.00135
C 19.63216 7.04835 -0.00938
C 20.87339 4.89153 -0.01154
C 19.67554 4.32774 0.00684
C 19.62532 2.84562 -0.01052
C 20.83503 2.13376 -0.01679
C 20.90254 0.64491 0.00367
C 19.65655 0.00529 0.04306
C 22.1301 32.5585 0.00996
C 20.85008 6.28689 -0.0264
C 18.38855 0.62259 -0.00498
C 18.35637 2.07236 0.02737
C 17.17978 2.78483 0.02117
C 15.92935 2.10573 0.02239
C 15.98068 0.70501 0.01153
C 14.80617 0.00461 0.02734
C 17.18263 32.65715 -0.0055
C 18.52406 31.97167 0.01515
C 18.32766 30.67039 -0.00225
C 17.18198 30.04503 0.00071
C 18.43576 13.42546 -0.01107
C 17.2387 12.8214 -0.01586
C 17.21439 11.34732 -0.01971
C 18.45512 10.6577 -0.02118
C 18.42045 9.20088 0.00733
C 17.19155 8.57376 -0.00178
C 17.18401 7.12331 0.00768
C 18.37789 6.38641 -0.0276
C 18.41997 4.9325 0.03005
C 17.23338 4.27537 -0.04078
C 23.27733 31.91873 0.00195
C 3.70161 31.96135 -0.0008
C 22.17558 12.7517 -0.00802
C 23.43343 10.63052 -0.01654
C 24.58919 2.82526 0.01699
C 25.78207 2.11037 -0.00416
C 25.7793 0.66132 0.01177
C 24.57504 34.02061 0.04266
C 27.04727 32.60961 0.01324
C 28.202 31.91605 0.0014
C 28.36833 30.5391 0.00924
C 24.59777 4.16983 0.01799
C 28.26271 13.26157 0.02326
C 26.99917 8.43752 0.03265
C 26.99779 7.01722 -0.02049
C 28.25097 6.33434 -0.01854
C 28.27105 4.91364 -0.01415
C 27.04657 4.23127 -0.03039
C 26.96027 2.80234 0.01836
C 28.22007 2.15905 0.03531
C 28.22072 9.10281 0.00261
C 25.86023 4.91039 0.01259
C 25.82419 6.2622 0.01495
C 24.5372 7.06749 0.00235
C 23.33041 9.23319 -0.00037
C 22.09977 8.51531 -0.0032
C 22.14988 7.13689 0.00622
C 23.34037 6.37803 -0.02815
C 23.42409 4.94777 -0.00942
C 22.18813 4.18859 0.00487
C 22.11339 2.74187 0.00826
C 23.34648 2.00796 -0.00294
C 23.36309 0.58713 0.00152
C 22.104 0.02009 0.01257
C 24.53992 32.42867 0.02316
C 25.8164 32.07809 0.04185
C 24.70378 12.6559 0.00194
C 24.77026 11.28498 -0.00621
C 25.96775 10.45642 0.02611
C 25.8546 9.10069 0.02198
C 24.5696 8.47888 0.01094
C 22.20557 11.43639 -0.00218
C 2.43623 32.67601 -0.01362
