347
Graphene
C 34.29859 34.07845 0.01295
C 18.4997 31.94775 0.0351
C 18.44044 30.59146 -0.03113
C 17.24918 29.83877 0.02098
C 17.16766 28.42985 0.01848
C 18.39643 27.71101 -0.00619
C 18.40531 26.23634 -0.02162
C 17.14838 25.5221 0.00889
C 17.23578 24.17947 -0.00481
C 18.47721 23.41506 0.00979
C 18.44987 22.00479 0.01443
C 17.21539 21.2222 0.03505
C 17.15409 19.79958 -0.02815
C 18.4481 19.11451 -0.04147
C 18.506 17.63314 -0.05302
C 17.24746 16.87485 0.00213
C 17.27808 15.43719 -0.00066
C 18.47238 14.69775 -0.00289
C 17.25077 32.71479 0.00422
C 14.53378 0.12626 0.00798
C 15.76151 0.73133 0.00228
C 15.79707 2.13888 -0.00114
C 14.72128 32.70251 0.01945
C 16.02832 32.04325 0.01416
C 15.96089 30.54932 0.03542
C 14.68958 29.94529 0.02299
C 14.63096 28.54733 0.00244
C 15.83925 27.76823 -0.01717
C 15.9617 26.20049 0.05265
C 14.64364 25.5405 -0.01952
C 18.52369 13.29423 0.00028
C 14.70505 24.15757 -0.02813
C 15.98278 21.99365 0.00052
C 14.79752 21.21813 -0.03682
C 14.67879 19.83185 0.01965
C 15.90073 19.04097 0.02058
C 15.99963 17.65385 -0.01957
C 14.58837 16.88941 -0.0108
C 14.78844 15.48224 -0.00368
C 16.03237 15.00336 -0.02696
C 15.9867 23.49667 0.00374
C 17.59901 12.04955 -0.02213
C 18.23779 10.91729 0.03698
C 18.37397 9.55844 -0.00109
C 19.70847 16.88229 -0.02957
C 19.68956 15.47828 -0.04422
C 20.98815 14.83575 0.00654
C 20.93736 13.42469 -0.00703
C 19.77285 12.7392 -0.04076
C 19.74803 11.30249 -0.00652
C 20.87266 10.58247 0.0058
C 20.82651 9.24068 -0.00865
C 20.86272 17.63561 -0.00831
C 19.47181 8.7464 0.00675
C 20.69258 6.59543 0.00742
C 20.7496 5.10567 -0.01594
C 19.52573 4.4356 0.0106
C 19.53009 2.99435 -0.01154
C 20.75193 2.29902 -0.01721
C 20.79439 0.86027 -0.02422
C 19.57034 0.09335 0.01277
C 22.03402 32.76507 0.00096
C 19.43208 7.31867 -0.00311
C 11.93594 0.055 -0.01454
C 20.83273 19.11925 0.00364
C 19.66316 21.28053 0.00143
C 18.33025 6.51669 -0.00491
C 18.18585 5.13524 0.03338
C 17.15479 4.21178 -0.0258
C 17.01565 2.86116 -0.0331
C 18.37317 2.1577 -0.00316
C 18.29245 0.71804 0.02188
C 17.06628 0.06618 -0.01979
C 19.61478 32.82701 0.02691
C 19.65357 19.86959 -0.017
C 20.8654 32.04362 -0.01581
C 19.69396 29.91994 0.04892
C 19.63851 28.46671 -0.00111
C 20.88242 27.77294 -0.03557
C 20.92151 26.28525 0.03754
C 19.65746 25.53526 0.01739
C 19.72419 24.13527 0.00755
C 20.95612 23.42074 -0.0054
C 20.92314 21.94141 0.00667
C 20.88989 30.61523 0.01452
C 23.26248 31.98235 -0.01527
C 13.22299 0.60565 0.01241
C 13.43241 17.56957 0.02162
C 4.8069 29.95663 -0.0008
C 4.91293 28.49818 0.0288
C 6.11845 27.7841 0.00393
C 6.13362 26.38185 0.00895
C 4.87812 25.67883 0.00685
C 4.86949 24.16188 0.02888
C 6.07762 23.37583 -0.00482
C 6.0674 21.99659 -0.01384
C 4.96677 21.25247 0.03693
C 5.01503 19.88558 0.01745
C 6.21373 19.16734 0.00488
C 6.14439 17.72134 -0.01004
C 5.08814 17.23218 -0.02896
C 5.9693 0.6275 -0.00131
C 4.69229 0.22369 -0.01118
C 7.31522 32.84535 -0.014
C 8.5818 32.13703 0.02147
C 6.0969 30.71593 -0.01362
C 6.07476 32.09658 -0.00892
C 4.77178 32.81964 -0.04848
C 2.28811 0.1419 0.01572
C 3.63371 30.60149 -0.00966
C 2.31921 29.84064 -0.03337
C 2.41549 28.41332 0.01227
C 3.68141 27.75182 0.00873
C 3.66243 26.34041 -0.00049
C 2.39893 25.59601 0.00848
C 2.38506 24.15779 -0.01303
C 3.62772 23.51919 -0.01378
C 8.61254 30.69914 0.00373
C 3.70925 22.02032 0.02635
C 2.47166 19.97534 0.01396
C 3.77786 19.25558 0.01849
C 3.82473 17.77004 -0.01142
C 2.57506 17.15229 -0.00562
C 2.47622 15.79898 -0.00494
C 2.16061 2.94562 0.00054
C 3.18979 2.23282 0.03007
C 3.49995 1.01189 -0.00095
C 2.45722 21.37828 0.0127
C 7.3489 29.94712 -0.00191
C 7.41047 28.57514 0.00438
C 8.48809 27.72062 0.01291
C 9.87685 19.97143 -0.00428
C 11.07925 19.1349 0.03101
C 11.0799 17.74855 -0.01536
C 10.63364 0.23426 -0.02689
C 12.27703 32.76626 -0.01046
C 13.49311 32.04573 -0.00891
C 13.50362 30.59764 0.02819
C 12.28254 29.90458 0.00165
C 9.7886 21.4141 -0.02245
C 12.25164 28.49257 -0.02971
C 13.48659 26.37567 -0.01789
C 12.30109 25.58946 0.00444
C 12.30964 24.13666 -0.00925
C 13.48294 23.40537 0.01877
C 13.64163 21.96482 0.01363
C 12.25153 21.33736 -0.02162
C 12.23515 19.90024 0.00415
C 13.45008 19.12951 -0.0014
C 13.44525 27.81033 0.02894
C 12.09128 17.21576 0.0076
C 11.00908 22.08686 0.00985
C 9.853 24.14852 -0.01111
C 8.56434 26.29372 0.00093
C 7.28326 25.58067 0.00057
C 7.25962 24.16984 -0.01634
C 8.53171 23.53593 -0.00334
C 8.48599 22.08726 0.02339
C 7.33608 21.30081 0.01641
C 7.42786 19.93519 -0.00719
C 8.61449 19.21088 0.01364
C 11.12523 23.45979 -0.01275
C 8.78495 17.70821 -0.01062
C 9.90853 32.8869 0.03589
C 11.0055 32.01518 -0.02759
C 11.05373 30.66896 0.0402
C 9.81649 29.88003 0.00572
C 9.74492 28.44467 0.03592
C 10.99016 27.76656 0.00406
C 11.05146 26.30002 0.00943
C 9.81584 25.63199 0.02841
C 7.1991 0.16725 -0.00033
C 3.60764 32.01546 -0.02929
C 23.36118 30.47414 0.01087
C 22.12051 28.44109 0.01511
C 30.60549 2.23992 0.01428
C 30.60044 0.80464 -0.02142
C 29.48253 0.06518 0.0544
C 31.89871 32.64211 0.00026
C 33.11947 31.94352 0.00682
C 33.09285 30.50532 -0.01779
C 31.86449 29.81493 0.03794
C 31.82791 28.35645 0.01927
C 33.11365 27.64395 0.01574
C 33.13484 26.30363 -0.02383
C 31.91489 25.58412 -0.01429
C 31.87504 24.19032 -0.0136
C 33.02839 23.38056 0.00594
C 33.0937 22.00552 -0.02474
C 31.88447 21.24772 0.00369
C 31.97986 19.83833 0.00455
C 33.25284 19.20484 -0.00644
C 29.45358 2.91134 -0.01694
C 29.51794 4.36648 0.01713
C 30.6941 4.9568 0.00346
C 30.64697 6.38319 0.00307
C 30.64509 31.94441 0.01836
C 30.63949 30.58727 0.03531
C 29.43595 29.95234 -0.00669
C 29.40909 28.46457 0.0101
C 30.61328 27.73062 0.01705
C 30.69187 26.27609 -0.0405
C 29.47716 25.57197 -0.01303
C 29.44343 24.12392 -0.01461
C 33.13542 17.88207 -0.01839
C 30.72767 23.33233 -0.02155
C 29.44342 21.31352 -0.03735
C 29.46826 19.809 -0.00971
C 30.67608 19.13055 0.01518
C 30.78698 17.73143 0.01908
C 29.56419 17.1085 0.07705
C 30.83892 9.31543 0.0103
C 29.55048 8.66337 0.02108
C 29.51382 7.21869 0.00716
C 30.73026 21.96184 -0.00944
C 32.02797 17.02751 0.00137
C 32.08289 15.70464 0.00199
C 33.32454 15.05543 0.04381
C 1.1811 22.09677 -0.01678
C 34.40551 21.32268 0.01223
C 0.02439 19.92794 0.00648
C 1.34304 19.25086 0.02114
C 1.33755 17.87602 -0.02957
C 0.03528 17.25052 0.00343
C 0.10959 15.85832 -0.02656
C 1.30362 15.0381 -0.02442
C 1.174 23.4303 0.01951
C 0.879 13.67836 -0.00027
C 34.27583 11.31154 -0.02302
C 0.01883 8.0652 -0.02849
C 34.3649 6.89357 0.02931
C 1.48696 4.4574 0.00628
C 0.14896 4.14148 -0.0345
C 34.28541 2.79424 -0.00931
C 1.01623 2.14125 -0.00939
C 1.04233 0.73742 -0.00468
C 34.38882 12.63832 -0.00583
C 29.43818 32.73358 -0.03039
C 34.30564 24.08532 -0.02213
C 1.13982 26.27698 0.00723
C 33.71054 13.82242 0.02806
C 33.451 10.33539 0.01504
C 33.36431 8.9904 -0.00069
C 32.04821 8.40886 0.04926
C 31.96973 6.96851 -0.03838
C 33.22687 6.18062 0.00349
C 33.3094 4.74209 -0.00323
C 31.97893 4.20335 -0.00841
C 34.3156 25.55486 0.02712
C 31.90558 2.83676 0.0001
C 33.07667 0.67122 -0.01404
C 31.82928 0.02179 0.01027
C 34.27533 32.68008 0.01831
C 1.13251 32.03301 -0.01037
C 1.10145 30.50408 -0.00439
C 34.29828 29.79242 -0.00598
C 34.32984 28.3574 -0.05239
C 1.11904 27.71092 0.03076
C 33.07573 2.10724 -0.02927
C 22.07973 29.884 0.00199
C 27.02882 0.10928 -0.01415
C 28.27873 2.21905 -0.02049
C 21.96564 4.34047 0.00733
C 21.96302 2.86841 -0.00178
C 23.23604 2.18352 0.00768
C 23.26789 0.81567 -0.0276
C 22.04453 0.1288 0.03005
C 24.52139 32.68075 -0.04078
C 25.74159 32.01828 0.02117
C 25.75529 30.55394 0.02737
C 24.56152 29.80391 -0.00498
C 24.48264 28.32453 0.00135
C 25.71965 27.59326 0.03102
C 25.75047 26.20844 0.02555
C 24.52692 25.53735 0.01423
C 24.58896 24.15216 -0.00285
C 25.8585 23.48324 -0.009
C 25.77972 22.03897 -0.01199
C 24.57644 21.34217 -0.00229
C 23.23516 5.02217 -0.02118
C 23.22796 6.33777 -0.01971
C 22.00627 7.09006 -0.01586
C 21.98448 8.49963 -0.01107
C 23.23059 27.64388 -0.00478
C 23.32904 26.26308 -0.01662
C 22.125 25.50325 -0.01185
C 22.18958 24.08599 0.01126
C 23.38984 23.40717 0.01852
C 23.30587 21.95249 -0.00381
C 22.17372 21.18263 0.03046
C 22.12031 19.71827 0.0296
C 24.59972 19.81817 -0.00938
C 23.40298 19.02511 0.03374
C 22.18267 16.98088 -0.03213
C 22.31179 15.56866 0.02239
C 23.52944 14.72723 0.01153
C 23.36485 13.41446 0.02734
C 22.21595 12.75152 -0.0055
C 22.1828 11.32784 0.01515
C 23.3272 10.58439 -0.00225
C 23.28123 9.12287 0.00071
C 23.4225 17.61247 -0.02845
C 25.88574 19.08382 -0.0264
C 25.83488 17.65612 -0.01154
C 24.65857 16.92528 0.00684
C 28.25801 26.23672 -0.00621
C 26.94189 25.52367 0.02611
C 27.04738 24.12293 0.02198
C 28.26111 23.41349 0.01094
C 28.27444 22.07493 0.00235
C 27.04084 21.29858 0.01495
C 27.02058 19.89058 0.01259
C 28.22213 19.13246 0.01799
C 28.19022 27.71662 0.00194
C 28.30275 17.70236 0.01699
C 27.20145 15.42808 0.01177
C 28.27082 9.30986 0.04266
C 27.03337 8.62022 0.01324
C 27.00656 7.18544 0.0014
C 28.28306 6.49469 0.00924
C 28.32642 5.03899 0.02326
C 27.07578 4.45346 0.00261
C 27.03158 3.01446 0.03265
C 27.12482 16.94457 -0.00416
C 28.2314 0.76884 -0.01854
C 26.96369 28.3389 0.04185
C 28.18611 30.55377 0.01257
C 24.6764 15.42615 -0.01052
C 26.01998 14.66519 -0.01679
C 25.86958 13.25467 0.00367
C 24.5427 12.71733 0.04306
C 24.50843 11.37283 0.00996
C 25.68828 10.63302 0.00195
C 25.72348 9.30324 -0.00802
C 24.58431 8.51772 -0.00218
C 26.93456 29.74194 0.02316
C 24.4518 7.12558 -0.01654
C 25.76726 5.02349 -0.0032
C 24.54189 4.28877 0.00622
C 24.49764 2.95936 -0.02815
C 25.80681 2.29275 -0.00942
C 25.74515 0.82227 0.00487
C 24.48325 0.03012 0.00826
C 27.00397 32.66906 -0.00294
C 28.15369 31.97077 0.00152
C 25.75079 6.42164 -0.00037
C 2.28665 32.73332 0.03368
