379
Graphene
C 34.3246 0.03709 0.01295
C 16.00178 30.52367 0.01945
C 14.6694 29.96854 0.01416
C 14.97476 28.43585 0.03542
C 15.96839 27.79139 0.02299
C 16.24587 14.89417 0.00244
C 16.019 13.50736 -0.01717
C 14.74801 12.87244 0.05265
C 14.73206 11.49376 -0.01952
C 15.92112 10.60282 -0.02813
C 15.95208 9.19106 0.00374
C 14.78463 8.50982 0.00052
C 14.78224 7.01523 -0.03682
C 16.03323 6.28839 0.01965
C 15.98256 4.84538 0.02058
C 14.778 4.18246 -0.01957
C 14.72774 2.73502 -0.0108
C 15.98542 2.08208 -0.00368
C 15.9327 0.68144 -0.02696
C 14.78323 34.05056 -0.00114
C 15.94721 31.96979 -0.01454
C 14.67256 32.67362 0.01241
C 12.15204 0.05298 0.0076
C 13.44303 0.77369 0.02162
C 9.81206 2.84453 0.00985
C 11.10399 2.15158 -0.02245
C 10.9396 0.7304 -0.00428
C 9.71372 0.01326 0.03101
C 12.19936 32.72611 -0.01536
C 13.3927 32.01666 -0.02689
C 13.40587 30.57671 -0.01046
C 12.24685 29.85778 -0.00891
C 13.63892 13.64575 0.02819
C 17.22974 32.6058 0.00228
C 12.36107 12.99091 0.00165
C 13.5556 10.75266 0.02894
C 13.54481 9.26719 -0.01789
C 12.3468 8.57098 0.00444
C 12.35086 7.05993 -0.00925
C 13.54395 6.28977 0.01877
C 13.65292 4.94725 0.01363
C 12.36344 4.27453 -0.02162
C 12.25102 2.87784 0.00415
C 13.5035 2.12817 -0.0014
C 12.37788 11.54706 -0.02971
C 18.41961 31.88648 0.00798
C 18.41046 30.45928 0.00422
C 17.11523 29.86945 0.0351
C 19.65397 28.43077 -0.00316
C 20.8496 27.59585 0.02188
C 20.76859 26.18784 -0.01979
C 19.43404 25.46529 0.02691
C 19.67245 24.04437 -0.01581
C 20.89403 23.44702 0.01452
C 20.99149 22.04986 0.04892
C 19.71242 21.24593 -0.00111
C 19.76411 20.04177 -0.03557
C 19.69883 29.79442 -0.0331
C 20.99506 19.12832 0.03754
C 19.65977 17.04631 0.00755
C 19.73132 15.60959 -0.0054
C 20.83701 14.90402 0.00667
C 20.8273 13.45529 0.00143
C 19.64038 12.68034 -0.017
C 19.66661 11.2431 0.00364
C 20.98154 10.48487 -0.00831
C 20.83127 9.00611 -0.02957
C 19.62435 8.48866 -0.04422
C 20.88881 17.71805 0.01739
C 9.75039 4.29453 -0.01275
C 20.92906 30.44232 -0.0258
C 19.66367 32.53362 -0.00491
C 17.27374 28.38495 -0.03113
C 18.45298 27.74642 0.02098
C 18.47314 26.41304 0.01848
C 18.50188 17.78639 -0.00619
C 17.20706 15.58343 -0.02162
C 18.51232 14.86015 0.00889
C 18.34093 13.43597 -0.00481
C 17.16934 12.78465 0.00979
C 17.23839 11.38354 0.01443
C 20.87476 31.8606 0.03338
C 18.3857 10.61002 0.03505
C 17.18448 8.49305 -0.04147
C 17.24908 6.99816 -0.05302
C 18.45367 6.23426 0.00213
C 18.4785 4.79935 -0.00066
C 17.22499 4.15034 -0.00289
C 17.22427 2.77976 0.00028
C 18.47769 2.04101 -0.02213
C 18.41556 0.63939 0.03698
C 17.23452 34.03592 -0.00109
C 18.37124 9.15873 -0.02815
C 19.68351 7.03643 0.00654
C 11.07172 5.02932 -0.01111
C 9.86286 7.22396 0.00943
C 3.67302 5.01256 0.01087
C 2.42263 4.25228 -0.01343
C 2.35955 2.82396 0.00988
C 3.58853 2.12866 0.0276
C 3.58191 0.64681 0.01305
C 2.36059 0.04932 -0.00077
C 4.78752 32.6326 0.03368
C 6.08205 31.96796 -0.02929
C 6.09065 30.52963 -0.00966
C 4.84845 29.88809 -0.03337
C 4.83297 28.4077 0.01227
C 6.02403 27.75218 0.00873
C 6.29041 26.38697 -0.00049
C 5.08324 25.65717 0.00848
C 4.71833 24.28683 -0.01303
C 4.96696 21.20626 -0.01378
C 4.81114 20.07001 0.02635
C 4.87386 17.13862 0.0127
C 4.88717 15.7507 0.01396
C 3.71438 6.41912 -0.05697
C 2.45365 7.06261 -0.00725
C 2.43415 8.45906 0.02322
C 3.72584 9.29744 -0.00094
C 3.6631 30.52376 0.00643
C 2.42266 29.7776 -0.01509
C 2.42861 28.44939 0.03267
C 3.6732 27.69477 0.02374
C 3.74543 26.26893 0.00402
C 2.44483 25.67329 0.0073
C 2.40193 24.20139 0.0174
C 3.63693 23.56399 0.03828
C 3.79734 22.13328 0.01226
C 6.10298 15.08456 0.01849
C 2.51569 21.3933 -0.00279
C 3.55999 19.16187 -0.03996
C 3.59547 17.75269 0.01465
C 2.40574 17.1347 -0.00074
C 2.39139 15.64454 -0.00518
C 3.67701 14.99806 0.0086
C 3.60614 13.56172 -0.00643
C 2.3989 12.76475 0.017
C 2.41328 11.3454 -0.03113
C 3.666 10.70852 -0.02566
C 2.44666 19.92724 0.01996
C 6.22158 13.68206 -0.01142
C 4.89262 12.87738 -0.00562
C 4.92044 11.50622 -0.00494
C 7.45551 8.67681 0.00373
C 7.44905 7.2341 -0.00191
C 8.70937 6.48842 0.00438
C 8.61264 5.07322 0.01291
C 7.40205 4.37067 0.00093
C 7.32078 2.84486 0.00057
C 8.56576 2.17997 -0.01634
C 8.49238 0.79398 -0.00334
C 7.30424 34.05959 0.02339
C 8.67797 9.32289 0.02147
C 9.79784 32.64517 0.01641
C 11.03756 30.61978 0.01364
C 9.77519 29.9082 -0.01062
C 9.66128 28.44446 -0.00033
C 11.08944 13.5887 0.03589
C 9.96867 12.85053 -0.02759
C 9.90468 11.40094 0.0402
C 11.12915 10.74881 0.00572
C 11.15552 9.33504 0.03592
C 9.89086 8.61116 0.00406
C 10.97431 32.01718 -0.00719
C 11.0528 6.41371 0.02841
C 8.66811 10.76457 -0.014
C 7.36113 12.88812 -0.00131
C 6.16897 10.69926 0.00054
C 6.13826 9.3019 0.03007
C 4.88764 8.58303 -0.00095
C 4.95902 7.12142 0.01572
C 6.18864 6.42734 -0.04848
C 6.17598 5.00642 -0.00892
C 4.90201 4.26311 -0.01362
C 4.85133 2.77211 -0.0008
C 6.1135 2.15163 0.0288
C 7.36145 11.45156 -0.01118
C 6.09363 0.66591 0.00393
C 7.31764 32.66518 0.00685
C 8.55559 32.00027 0.02888
C 8.54875 30.56003 -0.00482
C 7.34021 29.87415 -0.01384
C 7.19831 28.54851 0.03693
C 8.62765 27.86322 0.01745
C 7.4776 15.58768 0.00488
C 8.44498 14.96562 -0.01004
C 8.65568 13.54878 -0.02896
C 4.75136 34.02807 0.00895
C 3.58136 31.94199 0.00907
C 20.87435 6.38713 -0.00703
C 19.68321 4.16219 -0.00652
C 29.39642 2.84818 0.02108
C 30.64945 2.08135 0.00716
C 30.65993 0.74694 0.00307
C 29.42789 34.07511 0.00346
C 31.91088 32.75 0.01713
C 33.1162 31.97114 -0.01694
C 33.16718 30.57331 0.01428
C 31.9288 29.93206 -0.02142
C 32.00502 28.48338 0.0544
C 33.16452 27.71992 0.00026
C 33.18057 26.24555 0.00682
C 31.91051 25.62451 -0.01779
C 31.98142 24.15323 0.03794
C 33.16331 23.46338 0.01927
C 33.24307 21.9957 0.01574
C 31.9963 21.27595 -0.02383
C 32.0214 19.90624 -0.01429
C 33.17245 19.19669 -0.0136
C 33.19804 17.77935 0.00594
C 29.43212 4.31114 0.0103
C 30.68292 4.93244 0.07705
C 30.74457 6.35743 0.01908
C 29.51292 7.04692 0.01518
C 29.41226 28.36159 0.00924
C 30.69599 27.76762 0.02326
C 30.72166 26.3753 0.00261
C 29.49339 25.58662 0.03265
C 29.50752 24.14776 -0.02049
C 30.75035 23.3809 -0.01854
C 30.74494 22.0561 -0.01415
C 29.56043 21.2945 -0.03039
C 29.48982 19.85383 0.01836
C 31.97421 17.05344 -0.02474
C 30.73314 19.14721 0.03531
C 29.5067 17.04151 0.0101
C 29.43888 15.64166 0.01705
C 30.69993 14.9 -0.0405
C 30.68373 13.48641 -0.01303
C 29.402 12.67856 -0.01461
C 29.33786 11.17736 -0.02155
C 30.64651 10.62352 -0.00944
C 30.63245 9.25386 -0.03735
C 29.43559 8.45485 -0.00971
C 30.745 17.7459 -0.00669
C 31.9492 15.60425 0.00369
C 33.18112 14.94518 0.00455
C 33.23411 13.53529 -0.00644
C 0.02992 21.39832 -0.02213
C 34.40414 19.95482 0.01951
C 1.25367 19.28129 -0.01678
C 1.17576 17.83538 0.01223
C 0.0135 17.0518 0.00648
C 34.39212 15.63238 0.02114
C 1.21663 14.9594 -0.02957
C 1.26535 13.46817 0.00343
C 0.01268 12.75421 -0.02656
C 1.28086 22.04014 0.02712
C 0.01862 11.37285 -0.02442
C 1.25572 9.25705 -0.00583
C 34.40404 8.47466 -0.02302
C 34.42463 7.10381 -0.02849
C 1.20411 6.35622 0.02931
C 1.26984 4.96354 0.00628
C 34.37871 4.27384 -0.0345
C 34.38882 2.91934 -0.00931
C 1.15385 2.12022 -0.00939
C 1.1068 0.72376 -0.00468
C 1.22531 10.60165 -0.00027
C 29.44007 29.79896 0.0014
C 1.20227 23.44936 0.00723
C 0.03945 25.63016 -0.05239
C 31.97909 12.78993 -0.01839
C 31.98411 11.27494 0.00137
C 33.19782 10.59067 0.00199
C 33.17647 9.14328 0.04381
C 31.89881 8.49242 0.02806
C 32.00248 7.0648 0.01504
C 33.18663 6.36961 -0.00069
C 33.17892 4.91549 0.04926
C 31.90246 4.25151 -0.03838
C 34.42274 24.19639 0.03076
C 31.8942 2.76762 0.00349
C 33.05542 0.74222 -0.00841
C 31.81857 0.0229 0.0001
C 34.33539 32.71046 -0.02927
C 1.13725 32.00253 -0.01404
C 1.21021 30.55614 0.01027
C 34.41083 29.82178 0.01831
C 34.34976 28.41356 -0.01037
C 1.23652 27.70681 -0.00439
C 1.25389 26.34934 -0.00598
C 33.13281 2.15762 -0.00323
C 20.91409 4.97588 -0.04076
C 30.70874 30.56203 0.01324
C 29.40296 32.64767 0.01177
C 22.1366 11.25628 0.03374
C 22.11032 7.19189 -0.02845
C 23.32935 6.43348 -0.03213
C 23.3334 5.07254 0.02239
C 22.13819 4.2569 0.01153
C 22.08014 2.83252 0.02734
C 23.3476 2.12096 -0.0055
C 23.33554 0.65648 0.01515
C 22.13737 34.05465 -0.00225
C 24.53256 32.59184 0.00071
C 25.75604 31.92177 -0.01107
C 25.72922 30.4362 -0.01586
C 24.5351 29.69694 -0.01971
C 24.59924 28.3437 -0.02118
C 25.84355 27.60468 0.00733
C 25.87484 26.18758 -0.00178
C 24.62995 25.4956 0.00768
C 24.5496 24.13156 -0.0276
C 25.88317 23.43399 0.03005
C 22.11046 12.70457 0.0296
C 23.29125 13.5098 0.03046
C 23.31138 14.93026 -0.00381
C 22.11981 15.57814 0.01852
C 19.71167 2.7681 0.0058
C 20.90188 2.0806 -0.00865
C 20.9337 0.68327 0.00675
C 19.72374 34.02717 -0.00311
C 22.08649 32.64803 0.00742
C 23.34688 31.8815 -0.01594
C 23.2838 30.48034 0.0106
C 22.1354 29.78957 -0.01154
C 22.14072 28.29785 -0.01721
C 25.89908 21.97725 -0.04078
C 23.32579 27.57137 -0.02422
C 22.00805 25.50128 0.00096
C 22.14309 24.10853 -0.01527
C 23.38142 23.37077 0.01087
C 23.38282 21.98953 0.00199
C 22.1159 21.2875 0.01511
C 22.14134 19.92303 -0.00478
C 23.37389 19.17664 -0.01662
C 23.31382 17.74511 -0.01185
C 22.11779 16.96552 0.01126
C 23.28977 26.23365 0.01277
C 24.60657 21.27918 0.02117
C 24.58187 19.92502 0.02737
C 25.84722 19.17492 -0.00498
C 27.02454 21.27548 -0.02815
C 27.06573 19.78258 -0.00942
C 28.30811 19.12996 0.00487
C 28.26364 17.72266 0.00826
C 27.00135 16.96724 -0.00294
C 27.0179 15.58523 0.00152
C 28.22107 14.93657 0.01257
C 28.2637 13.43886 0.02316
C 27.06126 12.84534 0.04185
C 28.31101 22.05488 0.00622
C 27.0314 11.38813 0.00194
C 28.10402 9.00381 0.02611
C 27.10932 7.27626 0.02198
C 28.22789 6.38425 0.01094
C 28.2822 5.03563 0.00235
C 26.94701 4.36749 0.01495
C 27.02325 2.86327 0.01259
C 28.25342 2.11796 0.01799
C 28.21349 0.72106 0.01699
C 26.97868 0.05132 -0.00416
C 28.0229 10.47489 -0.00621
C 30.65201 31.99981 0.04266
C 28.24626 23.42816 -0.0032
C 27.06566 25.5278 -0.01654
C 25.77105 17.73897 0.00135
C 24.48374 17.07471 0.03102
C 24.57597 15.63529 0.02555
C 25.73939 14.89797 0.01423
C 25.76215 13.47258 -0.00285
C 24.56961 12.71942 -0.009
C 25.81824 6.53759 -0.01199
C 25.8362 5.10783 -0.00229
C 24.66963 4.36354 -0.00938
C 27.0524 24.17479 -0.00037
C 24.61216 2.88281 -0.0264
C 25.82355 0.70069 0.00684
C 24.51237 34.00832 -0.01052
C 26.96773 32.61807 -0.01679
C 28.24001 31.93976 0.00367
C 28.23368 30.52685 0.04306
C 26.98846 29.76172 0.00996
C 27.05432 28.33316 0.00195
C 28.24329 27.66316 -0.00802
C 28.30653 26.29202 -0.00218
C 25.78485 2.10311 -0.01154
C 2.35369 32.6953 0.02379
