348
Graphene
C 34.39111 0.03929 0.01295
C 13.43022 14.91196 0.00422
C 13.57438 13.38402 0.0351
C 12.22285 12.75712 -0.03113
C 12.20457 11.36669 0.02098
C 13.4967 10.56942 0.01848
C 13.50319 9.21601 -0.00619
C 12.28562 8.55786 -0.02162
C 12.27344 7.13088 0.00889
C 13.54521 6.50113 -0.00481
C 13.56429 4.99436 0.00979
C 12.30041 4.26039 0.01443
C 12.29198 2.87176 0.03505
C 13.53675 2.21391 -0.02815
C 13.45383 0.77439 -0.04147
C 12.26928 34.05502 -0.05302
C 14.75288 32.68055 0.00213
C 15.89907 31.84691 -0.00066
C 12.30408 15.64817 0.00798
C 12.27325 17.0726 0.00228
C 13.58612 17.75701 -0.00114
C 13.57231 19.14607 -0.02696
C 10.90581 10.66942 -0.01454
C 10.97923 9.17522 0.01945
C 9.85932 8.47009 0.01416
C 9.78032 7.13292 0.03542
C 10.9998 6.465 0.02299
C 11.0369 5.01255 0.00244
C 9.82411 4.32325 -0.01717
C 9.82651 2.8302 0.05265
C 15.8413 30.38803 -0.00289
C 11.06866 2.13496 -0.01952
C 9.89723 0.06454 0.00374
C 12.29559 32.71809 0.00052
C 13.47042 31.90523 -0.03682
C 13.25045 30.61 0.01965
C 13.47968 23.39995 0.02058
C 13.19793 22.07545 -0.01957
C 11.97293 21.22589 -0.0108
C 12.37668 19.90846 -0.00368
C 11.0803 0.74359 -0.02813
C 14.42752 29.73203 0.00028
C 14.67404 28.3378 -0.02213
C 15.87861 27.76622 0.03698
C 14.77043 2.85625 -0.00831
C 16.0832 2.15851 -0.02957
C 16.11451 0.7464 -0.04422
C 14.86641 0.00788 0.00654
C 17.18696 32.51762 -0.00703
C 18.43384 31.91373 -0.04076
C 18.30103 30.48913 -0.00652
C 17.12294 29.80978 0.0058
C 14.8017 4.32438 0.00364
C 17.19198 28.49727 -0.00865
C 18.40918 26.2393 -0.00311
C 17.17529 25.62055 0.00742
C 17.09269 24.13707 -0.01594
C 18.3652 23.5301 0.0106
C 18.34686 22.05768 -0.01154
C 17.1364 21.30584 -0.01721
C 17.22298 19.92088 -0.02422
C 18.52366 19.17143 0.01277
C 18.39861 27.75624 0.00675
C 9.67746 11.49367 0.01241
C 16.07396 4.95075 -0.017
C 14.76158 7.12516 0.00667
C 15.94933 26.27379 -0.00109
C 14.69437 25.61112 -0.00491
C 14.54102 24.27722 0.03338
C 15.85096 23.48828 -0.0258
C 15.82504 22.03016 -0.0331
C 14.60891 21.29183 -0.00316
C 14.75495 19.83633 0.02188
C 16.04328 19.16858 -0.01979
C 15.95208 6.33183 0.00143
C 16.00796 17.69356 0.02691
C 14.76673 15.49967 0.01452
C 15.96653 14.80884 0.04892
C 16.00619 13.39738 -0.00111
C 14.76554 12.66719 -0.03557
C 14.70223 11.29415 0.03754
C 15.93232 10.61141 0.01739
C 16.00617 9.20563 0.00755
C 14.79873 8.5132 -0.0054
C 14.79283 16.97783 -0.01581
C 18.48814 17.74517 0.00096
C 9.77547 12.82915 0.0076
C 11.04526 14.99448 -0.0014
C 3.65256 6.31921 -0.01362
C 3.70477 4.97741 -0.0008
C 2.48869 4.29377 0.0288
C 2.44428 2.91603 0.00393
C 3.70636 2.15976 0.00895
C 3.63434 0.73044 0.00685
C 2.28986 0.05089 0.02888
C 4.90393 32.571 -0.00482
C 6.0242 31.91394 -0.01384
C 5.14808 21.3596 0.03693
C 4.98665 19.96417 0.01745
C 6.18891 19.23663 0.00488
C 6.10874 17.8351 -0.01004
C 4.8782 17.09606 -0.02896
C 4.84517 15.68725 -0.00131
C 6.09745 15.01886 -0.01118
C 5.99078 13.57208 -0.014
C 2.52772 7.08873 -0.00892
C 2.40729 8.57923 -0.04848
C 3.66665 9.22867 0.01572
C 3.66537 10.68712 -0.00095
C 3.72687 30.51431 -0.02929
C 2.6592 29.64209 -0.00966
C 2.4864 28.11721 -0.03337
C 3.26833 26.86897 0.01227
C 2.42727 25.75633 0.00873
C 2.6476 24.35961 -0.00049
C 3.70821 23.6055 0.00848
C 3.90724 22.13837 -0.01303
C 4.77845 12.78618 0.02147
C 2.4864 21.47331 -0.01378
C 3.70352 19.34612 0.0127
C 3.72449 17.82942 0.01396
C 2.40954 17.035 0.01849
C 2.29356 15.65311 -0.01142
C 3.55638 14.99521 -0.00562
C 3.55413 13.56303 -0.00494
C 2.26283 12.83748 0.00054
C 2.45378 11.42102 0.03007
C 2.47757 19.98464 0.02635
C 4.90739 11.44156 0.00373
C 6.05394 10.67691 -0.00191
C 6.12724 9.26701 0.00438
C 8.62902 9.24469 -0.02245
C 7.34325 8.53618 -0.00428
C 7.35509 7.16314 0.03101
C 8.60104 6.43456 -0.01536
C 8.55269 5.00078 -0.02689
C 7.3624 4.23661 -0.01046
C 7.42553 2.83825 -0.00891
C 8.64246 2.16308 0.02819
C 8.5135 10.71013 0.00985
C 8.5979 0.70908 0.00165
C 9.90178 32.64506 0.02894
C 11.14801 31.94005 -0.01789
C 10.64515 21.2916 0.00444
C 9.99976 19.97715 -0.00925
C 11.13142 19.17704 0.01877
C 11.04448 17.73299 0.01363
C 9.81518 17.07661 -0.02162
C 9.82449 15.71444 0.00415
C 7.40191 0.02343 -0.02971
C 11.02597 13.59236 0.02162
C 7.30289 11.428 -0.01275
C 8.52204 13.55626 0.02841
C 4.87776 8.52042 0.01291
C 4.86671 7.06663 0.00093
C 6.04652 6.41408 0.00057
C 6.13736 4.96475 -0.01634
C 4.94497 4.2277 -0.00334
C 4.94997 2.81155 0.02339
C 6.21166 2.12925 0.01641
C 6.1379 0.69131 -0.00719
C 7.24669 12.77246 -0.01111
C 4.86094 34.04161 0.01364
C 8.69637 32.04219 -0.00033
C 6.84787 21.37954 0.03589
C 7.39433 20.05048 -0.02759
C 8.66258 19.35038 0.0402
C 8.56175 17.85568 0.00572
C 7.44042 17.0726 0.03592
C 7.36262 15.68726 0.00406
C 8.55734 14.90757 0.00943
C 7.41365 32.563 -0.01062
C 17.27564 16.93928 -0.01527
C 17.22386 15.51552 0.01087
C 18.43033 14.75291 0.00199
C 29.5323 2.8536 0.01428
C 30.72025 2.22477 -0.02142
C 30.71395 0.76756 0.0544
C 29.52241 0.09257 0.00026
C 31.98799 32.70514 0.00682
C 33.17858 32.01459 -0.01779
C 33.20681 30.58431 0.03794
C 32.0534 29.80939 0.01927
C 31.88214 28.45798 0.01574
C 33.07517 27.72696 -0.02383
C 33.15632 26.31771 -0.01429
C 31.8958 25.55108 -0.0136
C 31.95795 24.11931 0.00594
C 33.25199 23.49275 -0.02474
C 33.18307 22.04111 0.00369
C 31.93973 21.36519 0.00455
C 31.90768 19.99111 -0.00644
C 29.62078 17.00679 -0.01694
C 30.69934 17.85147 0.01713
C 30.66963 19.33718 0.00346
C 29.37378 19.98414 0.00307
C 28.20566 19.08164 0.01836
C 28.17502 17.48977 0.03531
C 26.99556 16.68891 -0.00669
C 28.3213 2.19929 0.0101
C 28.13451 0.8254 0.01705
C 26.99716 0.13268 -0.0405
C 29.55353 32.69713 -0.01303
C 30.77305 31.99743 -0.01461
C 33.16673 19.25096 -0.01839
C 30.77049 30.59974 -0.02155
C 29.44997 28.45835 -0.03735
C 30.62463 27.72695 -0.00971
C 30.66012 26.26972 0.01518
C 29.45142 25.54454 0.01908
C 29.428 24.17596 0.07705
C 30.64908 23.42162 0.0103
C 30.67542 22.07529 0.02108
C 29.47362 21.3785 0.00716
C 29.47089 29.86684 -0.00944
C 33.1789 17.91979 0.00137
C 31.90174 17.20462 0.00199
C 31.80167 15.79494 0.04381
C 1.25659 19.23043 -0.01678
C 1.17277 17.82467 0.01223
C 34.39191 17.1048 0.00648
C 34.1335 15.75465 0.02114
C 1.00396 14.99311 -0.02957
C 1.04737 13.47445 0.00343
C 34.20197 12.70944 -0.02656
C 34.37507 11.05618 -0.02442
C 0.03289 19.94924 0.01951
C 1.19352 10.64386 -0.00027
C 34.38227 8.60544 -0.02302
C 34.33322 7.21259 -0.02849
C 1.23012 6.38472 0.02931
C 1.24166 5.02222 0.00628
C 34.41527 4.22613 -0.0345
C 34.39919 2.84897 -0.00931
C 1.24909 2.21443 -0.00939
C 1.16809 0.84983 -0.00468
C 1.25032 9.20862 -0.00583
C 26.99273 19.6379 -0.03039
C 0.03157 21.37426 -0.02213
C 1.26335 23.63293 0.00723
C 32.85907 14.90467 0.02806
C 33.13968 13.53535 0.01504
C 33.32017 6.38952 -0.00069
C 33.14258 5.03553 0.04926
C 31.89254 4.21855 -0.03838
C 31.9553 2.90414 0.00349
C 33.2272 2.20805 -0.00323
C 33.19223 0.75814 -0.00841
C 1.26454 22.18428 0.02712
C 31.95563 0.02118 0.0001
C 1.24758 31.895 -0.01404
C 1.27456 30.41957 0.01027
C 34.41906 29.87534 0.01831
C 34.28604 28.53885 -0.01037
C 1.12861 27.73519 -0.00439
C 1.10719 26.32425 -0.00598
C 0.0146 25.61084 -0.05239
C 0.03255 24.20006 0.03076
C 0.01017 32.71483 -0.02927
C 27.05231 25.49076 -0.01415
C 28.20399 26.16073 -0.01854
C 28.24239 27.65951 -0.02049
C 19.60579 24.12819 -0.02118
C 20.83896 23.50683 0.00733
C 20.8874 22.03599 -0.00178
C 19.57714 21.32059 0.00768
C 19.60772 19.92105 -0.0276
C 20.80764 19.15844 0.03005
C 20.84486 17.71542 -0.04078
C 19.58793 16.98028 0.02117
C 19.64714 25.46196 -0.01971
C 19.59058 15.48963 0.02737
C 19.52099 12.24342 0.00135
C 19.34449 7.7567 0.03102
C 21.25196 4.68987 0.02555
C 19.88788 4.29418 0.01423
C 19.84297 2.82843 -0.00285
C 21.03784 2.07299 -0.009
C 20.94709 0.6604 -0.01199
C 19.73682 34.00858 -0.00229
C 20.91346 14.96315 -0.00498
C 22.19685 32.66552 -0.00938
C 20.90043 26.25794 -0.01586
C 19.64233 28.4118 0.00071
C 18.52261 13.27808 0.01511
C 17.25088 12.67892 -0.00478
C 17.16196 11.26104 -0.01662
C 18.49063 10.58436 -0.01185
C 18.56858 9.10686 0.01126
C 17.22734 8.50569 0.01852
C 17.15144 7.17253 -0.00381
C 18.50955 6.57492 0.03046
C 20.86126 27.66549 -0.01107
C 18.60623 5.07466 0.0296
C 17.32917 2.85657 -0.02845
C 18.56273 2.12528 -0.03213
C 18.5861 0.71275 0.02239
C 17.31098 34.03987 0.01153
C 19.71832 32.65954 0.02734
C 20.96076 31.92294 -0.0055
C 20.95737 30.55158 0.01515
C 19.64818 29.85616 -0.00225
C 17.35885 4.28405 0.03374
C 3.70452 31.92643 0.03368
C 23.34991 31.94678 -0.0264
C 22.10056 29.76123 0.00684
C 25.90708 27.58473 -0.00621
C 25.90528 26.21243 0.02611
C 24.65029 25.5006 0.02198
C 24.55581 24.07292 0.01094
C 25.28724 22.84133 0.00235
C 24.64914 21.65713 0.01495
C 24.52614 20.08158 0.01259
C 25.70864 19.38102 0.01799
C 24.55759 28.44545 0.00194
C 25.78021 17.30173 0.01699
C 25.30381 2.19878 0.01177
C 25.6444 0.88926 0.04266
C 24.54266 0.00467 0.01324
C 27.03654 32.78023 0.0014
C 28.27044 32.12455 0.00924
C 28.28709 30.67843 0.02326
C 27.05862 29.9216 0.00261
C 27.02234 28.38954 0.03265
C 24.548 17.01741 -0.00416
C 23.36143 30.49398 -0.01154
C 24.57659 29.83747 0.04185
C 25.76095 31.99392 0.01257
C 22.08772 28.33639 -0.01052
C 23.37565 27.6585 -0.01679
C 23.39965 26.2949 0.00367
C 22.14096 25.59455 0.04306
C 21.96558 24.15855 0.00996
C 23.24457 23.48768 0.00195
C 23.30208 22.08488 -0.00802
C 22.0491 21.26954 -0.00218
C 25.85251 30.58398 0.02316
C 22.03056 19.85776 -0.01654
C 23.38585 17.81779 -0.0032
C 22.14491 17.07913 0.00622
C 21.97848 15.64001 -0.02815
C 22.30505 2.82472 -0.00942
C 23.61973 2.26477 0.00487
C 23.38229 0.69955 0.00826
C 22.19535 0.03267 -0.00294
C 24.55463 32.62035 0.00152
C 23.3792 19.32224 -0.00037
C 2.29882 32.63829 -0.00077
