333
Graphene
C 34.34376 34.07267 0.01295
C 10.96918 4.98566 0.03505
C 9.73776 4.26094 -0.02815
C 9.79114 2.91376 -0.04147
C 11.0154 2.17103 -0.05302
C 11.07635 0.72073 0.00213
C 9.79559 0.10791 -0.00066
C 12.4531 32.60333 -0.00289
C 10.95582 6.3888 0.01443
C 13.6985 31.82568 0.00028
C 12.3648 29.74101 0.03698
C 12.35373 28.32489 -0.00109
C 13.60221 27.58059 -0.00491
C 13.61776 26.31493 0.03338
C 12.40126 25.54146 -0.0258
C 12.39691 24.13151 -0.0331
C 13.56938 23.40325 -0.00316
C 13.52882 30.47047 -0.02213
C 10.86797 10.01451 0.00979
C 10.38829 11.2682 -0.00481
C 9.21265 12.28924 0.00889
C 7.44503 0.06804 -0.03682
C 9.9205 32.68413 0.01965
C 11.20566 31.92747 0.02058
C 11.09136 30.46884 -0.01957
C 9.86661 29.81495 -0.0108
C 9.88949 28.3846 -0.00368
C 11.12302 27.64125 -0.02696
C 11.12815 26.295 -0.00114
C 9.87697 25.65763 0.00228
C 9.80221 24.16311 0.00798
C 11.09666 23.45503 0.00422
C 11.25953 22.0353 0.0351
C 9.9226 21.33489 -0.03113
C 9.8061 19.95406 0.02098
C 11.05094 19.14891 0.01848
C 9.73707 16.97223 -0.00619
C 9.75739 15.78116 -0.02162
C 13.84198 21.99919 0.02188
C 12.69108 21.26826 -0.01979
C 12.06914 19.99612 0.02691
C 12.79528 8.32141 -0.01581
C 18.43524 5.05024 0.00675
C 17.18385 4.33795 -0.00311
C 17.1636 2.87683 0.00742
C 18.39783 2.13063 -0.01594
C 18.46418 0.6933 0.0106
C 17.10593 0.12481 -0.01154
C 20.26458 21.45624 -0.01721
C 19.73134 6.95395 -0.02422
C 20.92966 6.29837 0.01277
C 20.90156 4.96146 0.00096
C 19.66798 4.28003 -0.01527
C 19.6528 2.81029 0.01087
C 20.92263 2.06127 0.00199
C 20.99723 0.62842 0.01511
C 19.74889 0.18598 -0.00478
C 23.17492 21.72841 -0.01662
C 21.66963 21.30231 -0.01185
C 18.44188 6.47378 -0.00865
C 8.58484 0.81483 0.00052
C 17.12298 7.09521 0.0058
C 15.9132 0.72707 -0.04076
C 12.12887 7.1106 0.01452
C 13.46096 6.33348 0.04892
C 13.53454 4.9929 -0.00111
C 12.2498 4.31235 -0.03557
C 12.28695 2.88877 0.03754
C 13.53022 2.11583 0.01739
C 13.49177 0.6833 0.00755
C 12.31358 34.01964 -0.0054
C 14.69598 32.66742 0.00667
C 15.0339 23.74834 0.00143
C 15.12239 22.58219 -0.017
C 14.6118 7.09354 0.00364
C 15.96782 6.4738 -0.00831
C 15.92425 5.03492 -0.02957
C 14.754 4.26452 -0.04422
C 14.70697 2.88197 0.00654
C 15.87027 2.1502 -0.00703
C 14.7281 34.04923 -0.00652
C 8.52418 2.24264 0.00374
C 7.29779 3.00307 -0.02813
C 7.31683 4.52657 -0.01952
C 2.47867 8.47074 -0.00131
C 2.48934 7.03079 -0.01118
C 3.62822 6.31474 -0.014
C 3.65161 4.91812 0.02147
C 2.42287 4.25506 0.00373
C 2.41848 2.82074 -0.00191
C 3.62765 2.1232 0.00438
C 3.70314 0.71447 0.01291
C 2.43227 0.01837 0.00093
C 4.96817 32.6866 0.00057
C 6.1888 31.95945 -0.01634
C 6.19519 30.56317 -0.00334
C 4.96409 29.91797 0.02339
C 4.90802 28.5299 0.01641
C 6.16726 27.77477 -0.00719
C 6.088 26.32797 0.01364
C 4.84517 25.56869 -0.01062
C 3.64725 9.26312 -0.02896
C 4.8689 24.15575 -0.00033
C 3.69547 10.61694 -0.01004
C 2.41015 12.74326 0.01745
C 3.71144 30.67287 -0.00494
C 2.50245 29.94665 0.00054
C 2.42481 28.56126 0.03007
C 3.65104 27.76687 -0.00095
C 3.61445 26.34807 0.01572
C 2.39554 25.65262 -0.04848
C 2.45162 24.21864 -0.00892
C 3.62002 23.43188 -0.01362
C 3.68259 22.04893 -0.0008
C 2.49814 21.31795 0.0288
C 2.49409 19.86601 0.00393
C 3.7075 19.14873 0.00895
C 3.66644 17.72889 0.00685
C 2.45449 17.07799 0.02888
C 2.40937 15.65515 -0.00482
C 3.64587 14.84839 -0.01384
C 3.68227 13.46395 0.03693
C 2.49088 11.32934 0.00488
C 22.35638 19.93382 0.01126
C 6.12308 23.46601 0.03589
C 4.95954 21.29404 0.0402
C 7.37481 28.42392 -0.00925
C 8.64274 27.79507 0.01877
C 8.61842 26.34049 0.01363
C 7.37106 25.61411 -0.02162
C 7.32956 24.19987 0.00415
C 8.57149 23.46602 -0.0014
C 8.63713 22.09905 0.02162
C 7.35327 21.31404 0.0076
C 7.43606 19.96018 0.01241
C 8.60514 19.21316 -0.01454
C 8.56954 17.82754 0.01945
C 7.41492 17.03987 0.01416
C 7.40905 15.56916 0.03542
C 8.69554 14.8884 0.02299
C 8.514 13.56936 0.00244
C 7.35993 12.7832 -0.01717
C 8.69032 5.10294 0.05265
C 7.3996 29.84836 0.00444
C 6.10506 22.04296 -0.02759
C 8.64394 30.56382 -0.01789
C 7.39257 32.69683 -0.02971
C 4.93051 19.83677 0.00572
C 6.17304 19.09822 0.03592
C 6.22162 17.69941 0.00406
C 4.94439 17.02515 0.00943
C 4.92293 15.53582 0.02841
C 6.17846 14.81102 -0.01111
C 6.09231 13.42873 -0.01275
C 4.91204 12.72345 0.00985
C 4.87972 11.32869 -0.02245
C 4.86617 8.46613 -0.00428
C 4.78338 7.11908 0.03101
C 6.03924 5.12673 -0.01536
C 4.84027 4.28033 -0.02689
C 4.86368 2.87621 -0.01046
C 6.15111 2.21423 -0.00891
C 6.22987 0.73622 0.02819
C 4.94552 0.08859 0.00165
C 8.63585 32.01731 0.02894
C 3.69755 32.04457 -0.00562
C 23.36809 19.04793 0.01852
C 23.24557 9.17172 0.03046
C 33.18856 27.78516 0.00026
C 33.14462 26.30166 0.00682
C 31.94435 25.57349 -0.01779
C 31.93537 24.18815 0.03794
C 33.15576 23.49728 0.01927
C 33.20722 22.07003 0.01574
C 31.99874 21.31208 -0.02383
C 31.97926 28.47134 0.0544
C 32.01351 19.89921 -0.01429
C 33.20662 17.78464 0.00594
C 31.99975 17.07435 -0.02474
C 31.89698 15.64338 0.00369
C 33.13245 14.97128 0.00455
C 33.15782 13.5551 -0.00644
C 31.97533 12.79153 -0.01839
C 31.95729 11.30733 0.00137
C 33.26638 19.19046 -0.0136
C 31.94964 29.86155 -0.02142
C 33.1249 30.63527 0.01428
C 33.2105 31.9942 -0.01694
C 29.41157 15.6957 0.01705
C 30.67209 14.93293 -0.0405
C 30.76195 13.46069 -0.01303
C 29.49432 12.85132 -0.01461
C 29.45542 11.32939 -0.02155
C 30.76117 10.63876 -0.00944
C 30.74728 9.21875 -0.03735
C 29.50502 8.53442 -0.00971
C 29.53341 7.04471 0.01518
C 30.78725 6.3469 0.01908
C 30.76517 4.91202 0.07705
C 29.47059 4.21192 0.0103
C 29.46595 2.83284 0.02108
C 30.67124 2.11014 0.00716
C 30.70261 0.71772 0.00307
C 29.45124 0.01405 0.00346
C 31.90357 32.66184 0.01713
C 33.20901 10.69432 0.00199
C 33.19345 9.24432 0.04381
C 32.06065 8.48727 0.02806
C 31.963 7.11244 0.01504
C 1.15861 17.79214 0.01223
C 34.40824 17.06476 0.00648
C 34.33933 15.70279 0.02114
C 1.13563 14.93793 -0.02957
C 1.115 13.49483 0.00343
C 34.33704 12.81273 -0.02656
C 34.41538 11.38164 -0.02442
C 1.25364 10.66982 -0.00027
C 1.22181 9.1845 -0.00583
C 34.39925 8.46814 -0.02302
C 0.01802 6.99081 -0.02849
C 1.23921 6.34421 0.02931
C 1.25499 4.9055 0.00628
C 34.41486 4.22061 -0.0345
C 34.40716 2.8445 -0.00931
C 1.20163 2.08046 -0.00939
C 1.15679 0.68212 -0.00468
C 1.23634 19.21709 -0.01678
C 29.46462 17.09904 0.0101
C 0.02686 19.88796 0.01951
C 1.28219 22.08469 0.02712
C 33.2139 6.3666 -0.00069
C 33.20632 4.91398 0.04926
C 32.00463 4.22644 -0.03838
C 31.94552 2.81648 0.00349
C 33.11479 2.1501 -0.00323
C 33.09266 0.69054 -0.00841
C 31.87693 34.06889 0.0001
C 34.41021 32.66534 -0.02927
C 1.21088 32.03721 -0.01404
C 1.18178 30.59665 0.01027
C 34.36123 29.94651 0.01831
C 34.35703 28.55275 -0.01037
C 1.20699 27.82916 -0.00439
C 1.2375 26.36285 -0.00598
C 0.00735 25.68578 -0.05239
C 34.32856 24.22738 0.03076
C 1.14885 23.52985 0.00723
C 34.43225 21.37508 -0.02213
C 30.81443 17.74246 -0.00669
C 30.79704 19.16253 0.03531
C 29.49674 19.77068 0.01836
C 25.72269 14.96936 0.02117
C 25.77483 13.57491 0.02737
C 24.71732 12.81307 -0.00498
C 24.47003 11.3455 0.00135
C 25.77371 10.67581 0.03102
C 25.781 9.25265 0.02555
C 24.5546 8.58599 0.01423
C 24.60125 7.07896 -0.00285
C 25.8319 6.34651 -0.009
C 25.8718 4.90811 -0.01199
C 24.57827 4.2894 -0.00229
C 24.60942 2.87787 -0.00938
C 25.78555 2.1079 -0.0264
C 25.79284 0.70635 -0.01154
C 24.5981 0.03192 0.00684
C 26.87125 32.58419 -0.01052
C 28.11414 31.86804 -0.01679
C 24.54741 15.79178 -0.04078
C 28.17261 30.38583 0.00367
C 24.56911 17.15357 0.03005
C 25.82313 19.18714 0.00768
C 21.94555 8.48168 0.0296
C 22.14422 7.09346 0.03374
C 23.37029 6.37152 -0.02845
C 23.35113 4.96626 -0.03213
C 22.13219 4.28194 0.02239
C 22.11638 2.85552 0.01153
C 23.30664 2.14325 0.02734
C 23.36242 0.78823 -0.0055
C 22.26185 34.02258 0.01515
C 24.4669 32.69293 -0.00225
C 25.62377 31.89089 0.00071
C 25.89824 30.49414 -0.01107
C 26.13239 26.72733 -0.01586
C 25.66624 23.257 -0.01971
C 25.74637 21.90778 -0.02118
C 24.51526 21.22213 0.00733
C 24.5977 19.76581 -0.00178
C 25.82021 17.80158 -0.0276
C 23.35128 10.5385 -0.00381
C 26.95462 29.50541 0.04306
C 28.28467 27.61464 0.00195
C 27.05541 4.24146 0.01495
C 27.04826 2.8411 0.01259
C 28.21294 2.1009 0.01799
C 28.22059 0.69876 0.01699
C 27.0194 34.05602 -0.00416
C 29.39263 32.6296 0.01177
C 30.66592 31.9887 0.04266
C 30.66126 30.58838 0.01324
C 29.46064 29.81333 0.0014
C 29.48595 28.32066 0.00924
C 30.71471 27.70439 0.02326
C 30.72193 26.25734 0.00261
C 29.51069 25.47882 0.03265
C 29.44387 24.03236 -0.02049
C 30.72699 23.3824 -0.01854
C 30.67609 21.99836 -0.01415
C 29.42689 21.29175 -0.03039
C 28.29755 4.96661 0.00235
C 26.95689 28.03023 0.00996
C 28.31208 6.37083 0.01094
C 27.00735 8.5382 0.02611
C 28.30405 26.13115 -0.00802
C 26.99385 25.54833 -0.00218
C 26.91494 24.08893 -0.01654
C 28.15773 23.34863 -0.00037
C 28.22288 22.0053 -0.0032
C 26.96937 21.20099 0.00622
C 27.04527 19.81652 -0.02815
C 28.27929 19.14609 -0.00942
C 28.16542 17.72846 0.00487
C 26.98521 17.01527 0.00826
C 26.9092 15.64922 -0.00294
C 28.16708 14.96775 0.00152
C 28.25085 13.51041 0.01257
C 26.99302 12.79207 0.02316
C 26.98932 11.36067 0.04185
C 28.21257 10.69215 0.00194
C 28.25812 9.18854 -0.00621
C 27.01998 7.07553 0.02198
C 2.47004 32.71694 -0.01142
