315
Graphene
C 34.28627 34.05453 0.01295
C 9.89549 25.58918 0.03338
C 9.71495 24.19302 -0.0258
C 9.91916 21.44511 -0.0331
C 9.94061 19.95747 -0.00316
C 10.99199 19.17171 0.02188
C 11.07109 17.80297 -0.01979
C 9.86009 17.01877 0.02691
C 9.78852 15.58081 -0.01581
C 10.98784 14.89458 0.01452
C 11.01454 13.47676 0.04892
C 9.78129 12.76716 -0.00111
C 9.89539 11.37115 -0.03557
C 11.16815 10.75345 0.03754
C 11.07165 9.38264 0.01739
C 9.88151 8.52704 0.00755
C 9.86604 28.42377 -0.00491
C 10.00747 29.76986 -0.00109
C 11.24636 30.52125 0.03698
C 10.99117 31.96577 -0.02213
C 8.57218 14.86657 0.02098
C 8.5385 13.48438 0.01848
C 7.29463 12.79974 -0.00619
C 7.41012 11.30809 -0.02162
C 8.6182 10.56232 0.00889
C 8.56368 9.15796 -0.00481
C 7.34563 8.53827 0.00979
C 9.83387 7.08049 -0.0054
C 7.33215 7.13969 0.01443
C 8.55681 5.00895 -0.02815
C 7.34158 4.29685 -0.04147
C 7.37468 2.84153 -0.05302
C 8.62302 2.12691 0.00213
C 8.60618 0.68942 -0.00066
C 7.35066 33.979 -0.00289
C 9.77669 32.61885 0.00028
C 8.58245 6.46537 0.03505
C 11.14357 6.40928 0.00667
C 11.08949 5.03486 0.00143
C 9.84195 4.30755 -0.017
C 12.26587 2.77464 -0.01527
C 13.52482 2.07004 0.01087
C 13.5456 0.57457 0.00199
C 12.35281 33.99961 0.01511
C 14.74723 32.46822 -0.00478
C 16.12934 32.0972 -0.01662
C 14.6381 15.80064 -0.01185
C 12.32315 4.2164 0.00096
C 14.71402 12.85723 0.01126
C 15.96256 9.26101 -0.00381
C 14.78056 8.56936 0.03046
C 14.78671 7.05969 0.0296
C 16.06325 6.39804 0.03374
C 15.98167 5.01176 -0.02845
C 14.76123 4.30355 -0.03213
C 14.77733 2.78729 0.02239
C 14.77429 11.47227 0.01852
C 7.42483 15.61033 -0.03113
C 13.46759 4.92631 0.01277
C 12.30206 7.19489 -0.01721
C 9.78789 2.82175 0.00364
C 11.02194 2.08853 -0.00831
C 11.13309 0.68003 -0.02957
C 9.87873 34.02676 -0.04422
C 12.32406 32.52801 0.00654
C 13.34678 31.56154 -0.00703
C 12.57546 29.95935 -0.04076
C 13.52168 6.35012 -0.02422
C 12.19725 16.94768 -0.00652
C 13.55303 15.07931 -0.00865
C 13.57492 13.56568 0.00675
C 12.32657 12.93421 -0.00311
C 12.39118 11.51953 0.00742
C 13.55622 10.7135 -0.01594
C 13.55488 9.21578 0.0106
C 12.27668 8.5959 -0.01154
C 12.19272 15.64963 0.0058
C 15.92321 2.15216 0.01153
C 7.44835 17.04541 0.0351
C 8.68602 19.21075 0.00798
C 3.61176 9.23758 -0.00033
C 2.37435 8.46975 0.03589
C 2.40287 7.06181 -0.02759
C 3.69634 6.41404 0.0402
C 3.64227 5.00928 0.00572
C 2.38821 4.23023 0.03592
C 2.38876 2.82017 0.00406
C 3.62149 2.12224 0.00943
C 3.69223 0.66243 0.02841
C 2.37614 34.06251 -0.01111
C 4.86662 32.5875 -0.01275
C 6.08288 31.90103 0.00985
C 6.17737 30.54397 -0.02245
C 4.93074 29.90181 -0.00428
C 4.94652 28.42863 0.03101
C 3.63139 10.6553 -0.01062
C 2.3344 11.4226 0.01364
C 2.34049 12.82642 -0.00719
C 3.60507 13.49024 0.01641
C 3.63738 30.50904 0.00488
C 2.46013 29.77518 -0.01004
C 2.40421 28.33053 -0.02896
C 3.65893 27.72663 -0.00131
C 3.69218 26.28502 -0.01118
C 2.48155 25.57163 -0.014
C 2.47305 24.18303 0.02147
C 6.19138 27.65981 -0.01536
C 3.74634 23.46787 0.00373
C 2.47371 21.3398 0.00438
C 2.60084 19.93402 0.01291
C 3.79126 19.1757 0.00093
C 3.70002 17.7623 0.00057
C 2.49017 17.07894 -0.01634
C 2.38748 15.68868 -0.00334
C 3.58127 14.90358 0.02339
C 3.7216 21.99852 -0.00191
C 6.21171 26.25499 -0.02689
C 5.02021 25.55594 -0.01046
C 4.90126 24.19918 -0.00891
C 6.09654 2.08126 0.00244
C 6.15428 0.67832 -0.01717
C 4.90817 34.05801 0.05265
C 7.38776 32.62658 -0.01952
C 8.58037 31.90431 -0.02813
C 8.63957 30.49161 0.00374
C 7.37244 29.82502 0.00052
C 4.80328 2.83534 0.02299
C 7.32967 28.39933 -0.03682
C 8.56736 26.36969 0.02058
C 7.4199 25.56546 -0.01957
C 7.36317 24.16771 -0.0108
C 8.62502 23.45058 -0.00368
C 8.61474 22.00554 -0.02696
C 7.33346 21.30915 -0.00114
C 7.47042 19.84671 0.00228
C 8.60872 27.71481 0.01965
C 8.71401 17.80426 0.00422
C 4.90053 4.31697 0.03542
C 6.19388 6.40845 0.01945
C 6.15671 23.49316 0.02819
C 6.12877 22.03964 0.00165
C 4.97978 21.29279 -0.02971
C 5.03945 19.91362 0.02894
C 6.26628 19.14658 -0.01789
C 6.19645 17.69238 0.00444
C 4.90248 17.02832 -0.00925
C 6.16902 4.98123 0.01416
C 4.82178 15.62427 0.01877
C 6.0484 13.52821 -0.02162
C 4.87026 12.77645 0.00415
C 4.88593 11.37052 -0.0014
C 6.12529 10.63807 0.02162
C 6.07234 9.23694 0.0076
C 4.87071 8.51359 0.01241
C 4.91397 7.1033 -0.01454
C 6.0757 14.97444 0.01363
C 3.65 31.9667 0.01745
C 15.96661 0.73028 0.02734
C 17.36621 32.67393 0.01515
C 31.87286 24.06359 0.03794
C 33.12568 23.43357 0.01927
C 33.18151 22.08611 0.01574
C 31.90486 21.32654 -0.02383
C 32.03922 19.93752 -0.01429
C 33.22197 19.21077 -0.0136
C 33.20134 17.75629 0.00594
C 31.93507 16.98189 -0.02474
C 31.84203 15.58822 0.00369
C 33.13929 14.90802 0.00455
C 33.08313 13.52713 -0.00644
C 31.87245 12.82434 -0.01839
C 31.98588 11.44929 0.00137
C 33.13789 10.73278 0.00199
C 33.15695 9.30883 0.04381
C 31.87252 25.47593 -0.01779
C 33.13213 26.2514 0.00682
C 33.11173 27.62231 0.00026
C 31.87535 28.34764 0.0544
C 29.70997 11.90912 -0.02155
C 30.6985 10.89302 -0.00944
C 30.61009 9.36125 -0.03735
C 29.55092 8.6108 -0.00971
C 29.42261 7.11799 0.01518
C 30.63479 6.38913 0.01908
C 30.57313 4.98294 0.07705
C 31.86555 8.65159 0.02806
C 29.34597 4.26735 0.0103
C 30.76112 2.15639 0.00716
C 30.64869 0.70308 0.00307
C 29.42206 34.07007 0.00346
C 31.93462 32.69183 0.01713
C 33.07689 31.89274 -0.01694
C 33.05002 30.48997 0.01428
C 31.88337 29.70509 -0.02142
C 29.45283 2.83147 0.02108
C 31.84348 7.17008 0.01504
C 33.07885 6.45086 -0.00069
C 33.10398 5.00664 0.04926
C 34.3933 17.14925 0.00648
C 34.38037 15.71752 0.02114
C 1.18903 15.05833 -0.02957
C 1.14493 13.60981 0.00343
C 34.36985 12.87258 -0.02656
C 34.36055 11.4536 -0.02442
C 1.13601 10.7179 -0.00027
C 1.24026 17.85533 0.01223
C 1.10598 9.32914 -0.00583
C 34.37821 7.1046 -0.02849
C 1.20092 6.37356 0.02931
C 1.16686 4.99004 0.00628
C 34.40939 4.29135 -0.0345
C 34.3716 2.86106 -0.00931
C 1.08374 2.08364 -0.00939
C 1.04754 0.68674 -0.00468
C 34.35935 8.54416 -0.02302
C 30.52185 13.24688 -0.01461
C 1.33386 19.28374 -0.01678
C 34.40855 21.39234 -0.02213
C 31.86464 4.35513 -0.03838
C 31.92384 2.88862 0.00349
C 33.18365 2.16176 -0.00323
C 33.08224 0.7331 -0.00841
C 31.89417 34.05936 0.0001
C 34.35976 32.60317 -0.02927
C 1.24268 31.93557 -0.01404
C 0.0534 19.93983 0.01951
C 1.1497 30.53797 0.01027
C 34.36708 28.34109 -0.01037
C 1.18502 27.72312 -0.00439
C 1.25914 26.28325 -0.00598
C 34.42691 25.5806 -0.05239
C 34.4015 24.15197 0.03076
C 1.19993 23.4621 0.00723
C 1.25077 22.06217 0.02712
C 34.33836 29.82378 0.01831
C 14.77021 33.92996 -0.0055
C 30.57697 14.76753 -0.01303
C 29.62862 17.09353 0.01705
C 21.94669 4.31235 -0.009
C 22.12539 2.90396 -0.01199
C 23.37422 2.1969 -0.00229
C 23.26841 0.79747 -0.00938
C 22.06864 0.07916 -0.0264
C 24.57284 32.79596 -0.01154
C 25.74119 31.92943 0.00684
C 25.72504 30.57679 -0.01052
C 24.44492 29.89633 -0.01679
C 24.39515 28.47369 0.00367
C 25.6326 27.71476 0.04306
C 25.729 26.17061 0.00996
C 25.70024 23.20149 0.00195
C 25.65902 21.73478 -0.00802
C 25.10609 4.26182 -0.00218
C 23.22995 30.67175 -0.00285
C 23.31145 32.02661 0.01423
C 22.03611 32.71188 0.02555
C 19.66813 0.14056 0.03102
C 17.12757 8.52662 -0.00225
C 17.35228 7.0959 0.00071
C 18.49234 6.37396 -0.01107
C 18.44496 5.01532 -0.01586
C 17.19466 4.28837 -0.01971
C 17.15572 2.89169 -0.02118
C 18.44434 2.29858 0.00733
C 24.54648 2.97198 -0.01654
C 18.42148 0.87894 -0.00178
C 19.65477 32.77642 -0.0276
C 20.75863 32.07074 0.03005
C 20.91056 5.05289 -0.04078
C 19.69146 4.32142 0.02117
C 19.69517 2.94835 0.02737
C 20.88764 2.21058 -0.00498
C 20.88487 0.81358 0.00135
C 17.25506 0.06439 0.00768
C 25.74898 2.12055 -0.00037
C 25.72462 0.73245 -0.0032
C 24.50338 0.13836 0.00622
C 26.98953 0.008 0.01177
C 29.42132 32.6451 0.04266
C 30.70288 31.93825 0.01324
C 30.71302 30.47824 0.0014
C 29.38713 29.80742 0.00924
C 29.38192 28.37676 0.02326
C 30.679 27.62637 0.00261
C 28.19338 0.74769 -0.00416
C 30.63961 26.16301 0.03265
C 29.34519 24.04617 -0.01854
C 30.63514 23.39195 -0.01415
C 30.63267 21.99387 -0.03039
C 29.40082 21.28313 0.01836
C 29.54675 19.82593 0.03531
C 30.82477 19.26959 -0.00669
C 30.83835 17.79233 0.0101
C 29.41525 25.49105 -0.02049
C 29.6342 15.74541 -0.0405
C 28.25442 2.15474 0.01699
C 26.66721 4.15923 0.01259
C 26.89727 32.68621 -0.02815
C 28.16439 31.93609 -0.00942
C 28.1569 30.54135 0.00487
C 26.89521 29.80606 0.00826
C 26.91528 28.35058 -0.00294
C 28.16825 27.6193 0.00152
C 28.23227 26.16414 0.01257
C 26.95501 2.85427 0.01799
C 26.94965 25.49077 0.02316
C 28.0898 23.25603 0.00194
C 28.04025 21.78281 -0.00621
C 26.8887 20.96249 0.02611
C 27.12659 19.48644 0.02198
C 28.40555 19.03457 0.01094
C 28.20401 6.36008 0.00235
C 28.0397 4.9682 0.01495
C 26.90866 23.90524 0.04185
C 2.43312 32.66215 0.03693
