348
Graphene
C 34.41596 34.05949 0.01295
C 14.74088 25.53517 0.00422
C 14.60878 8.59776 0.0351
C 14.77666 7.28255 -0.03113
C 15.9715 6.44504 0.02098
C 15.96776 5.00063 0.01848
C 14.7563 4.28193 -0.00619
C 14.72177 2.86379 -0.02162
C 15.91954 2.04106 0.00889
C 15.9937 0.64218 -0.00481
C 14.7535 34.0036 0.00979
C 17.33694 32.6304 0.01443
C 18.58887 31.95551 0.03505
C 18.54743 30.50259 -0.02815
C 17.23056 29.82186 -0.04147
C 17.22536 28.32161 -0.05302
C 18.41089 27.6226 0.00213
C 18.4407 26.24547 -0.00066
C 16.01934 26.16847 0.00798
C 15.94754 27.63623 0.00228
C 14.71658 28.38576 -0.00114
C 14.76536 29.79141 -0.02696
C 12.28578 29.91723 -0.01454
C 12.24118 28.4609 0.01945
C 13.47209 27.72265 0.01416
C 13.59815 26.32387 0.03542
C 12.36627 25.60328 0.02299
C 12.24915 24.26012 0.00244
C 12.28494 8.54627 -0.01717
C 12.33718 7.18033 0.05265
C 17.22455 25.38389 -0.00289
C 13.52924 6.48562 -0.01952
C 12.25677 4.36781 0.00374
C 12.29567 2.95495 0.00052
C 13.43017 2.10997 -0.03682
C 13.49804 0.71724 0.01965
C 12.30592 34.06128 0.02058
C 14.8281 32.57532 -0.01957
C 16.09463 31.91573 -0.0108
C 16.02971 30.51981 -0.00368
C 13.57132 5.05329 -0.02813
C 17.44074 24.05721 0.00028
C 18.34478 9.10977 -0.02213
C 17.24851 8.43574 0.03698
C 19.6472 7.11554 -0.00831
C 20.97301 6.37406 -0.02957
C 20.92055 4.97591 -0.04422
C 19.63293 4.34105 0.00654
C 19.66704 2.9404 -0.00703
C 20.83418 2.10354 -0.04076
C 20.93489 0.65161 -0.00652
C 19.6965 34.07823 0.0058
C 19.66763 8.5255 0.00364
C 22.12916 32.64152 -0.00865
C 23.34236 30.55109 -0.00311
C 22.1431 29.86729 0.00742
C 22.16913 28.41724 -0.01594
C 23.40545 27.71258 0.0106
C 23.40083 26.21719 -0.01154
C 22.17412 25.51447 -0.01721
C 22.04525 24.14132 -0.02422
C 23.2796 23.34828 0.01277
C 23.28621 31.97475 0.00675
C 13.51697 30.54566 0.01241
C 20.93511 9.23366 -0.017
C 20.96961 22.10131 0.00667
C 17.15277 7.16417 -0.00109
C 18.41811 6.50787 -0.00491
C 18.39643 5.0689 0.03338
C 17.17758 4.25811 -0.0258
C 17.15473 2.82734 -0.0331
C 18.45663 2.1542 -0.00316
C 18.47443 0.74174 0.02188
C 17.23297 34.07816 -0.01979
C 20.93353 10.58761 0.00143
C 19.71518 32.65965 0.02691
C 20.91573 30.47092 0.01452
C 19.71867 29.75177 0.04892
C 19.66088 28.29479 -0.00111
C 20.98217 27.72352 -0.03557
C 20.92469 26.25233 0.03754
C 19.70058 25.56422 0.01739
C 19.49898 24.19206 0.00755
C 20.63068 23.42603 -0.0054
C 20.89731 31.92391 -0.01581
C 23.36225 21.94834 0.00096
C 13.52925 31.94323 0.0076
C 9.77915 34.02539 -0.0014
C 6.15999 30.5044 -0.01362
C 4.89374 29.76069 -0.0008
C 4.88862 28.32291 0.0288
C 6.10867 27.65413 0.00393
C 6.16228 26.26584 0.00895
C 4.89713 25.57432 0.00685
C 4.97406 24.19331 0.02888
C 6.20925 23.4304 -0.00482
C 6.10165 21.89432 -0.01384
C 4.98321 21.30528 0.03693
C 6.1363 9.19538 0.01745
C 4.89365 8.65982 0.00488
C 4.90235 7.10424 -0.01004
C 6.16151 6.42158 -0.02896
C 6.0672 4.9955 -0.00131
C 4.88461 4.27474 -0.01118
C 4.90903 2.81728 -0.014
C 6.10999 31.94597 -0.00892
C 4.92868 32.69993 -0.04848
C 2.526 0.03887 0.01572
C 3.6642 0.75714 -0.00095
C 3.60132 30.55156 -0.02929
C 2.388 29.85218 -0.00966
C 2.43759 28.45775 -0.03337
C 3.62957 27.67272 0.01227
C 3.61482 26.21526 0.00873
C 2.42058 25.54828 -0.00049
C 2.52411 24.13854 0.00848
C 3.76146 23.4424 -0.01303
C 6.13583 2.13077 0.02147
C 3.70567 21.90496 -0.01378
C 3.56996 9.19085 0.0127
C 2.43791 8.6084 0.01396
C 2.45499 7.06577 0.01849
C 3.63745 6.38804 -0.01142
C 3.64916 4.99901 -0.00562
C 2.49649 4.22585 -0.00494
C 2.44322 2.82243 0.00054
C 3.71454 2.1623 0.03007
C 2.4371 21.31252 0.02635
C 6.08994 0.71264 0.00373
C 4.83509 34.01341 -0.00191
C 7.29955 32.67427 0.00438
C 11.03506 31.94097 -0.02245
C 11.07902 30.52422 -0.00428
C 9.86616 29.86719 0.03101
C 9.85528 28.41603 -0.01536
C 11.0702 27.71007 -0.02689
C 11.09871 26.25371 -0.01046
C 9.85333 25.5518 -0.00891
C 9.89149 24.05405 0.02819
C 9.78158 32.63199 0.00985
C 11.17689 23.55821 0.00165
C 9.88738 8.64905 0.02894
C 9.88088 7.13911 -0.01789
C 11.07776 6.4781 0.00444
C 11.07041 5.07923 -0.00925
C 9.80321 4.3095 0.01877
C 9.86345 2.85704 0.01363
C 11.09263 2.09592 -0.02162
C 11.1287 0.66166 0.00415
C 11.15912 9.05809 -0.02971
C 12.28187 32.6259 0.02162
C 7.30357 0.03563 -0.01275
C 8.65685 2.15923 0.02841
C 8.56591 31.95589 0.01291
C 8.59234 30.53173 0.00093
C 7.35068 29.86771 0.00057
C 7.3668 28.35074 -0.01634
C 8.611 27.71121 -0.00334
C 8.61931 26.28186 0.02339
C 7.39545 25.57971 0.01641
C 7.36074 24.156 -0.00719
C 8.60612 0.71594 -0.01111
C 8.6528 23.35854 0.01364
C 7.29108 21.43298 -0.00033
C 8.68006 9.14698 0.03589
C 7.3947 8.78488 -0.02759
C 7.36324 7.19405 0.0402
C 8.59606 6.52941 0.00572
C 8.60921 5.03397 0.03592
C 7.32869 4.34655 0.00406
C 7.36848 2.90162 0.00943
C 8.46304 22.09815 -0.01062
C 22.033 21.43869 -0.01527
C 23.45587 19.05047 0.01087
C 23.4391 17.82017 0.00199
C 29.53251 34.01677 0.01428
C 31.92841 32.62603 -0.02142
C 33.15453 31.98471 0.0544
C 33.09886 30.54807 0.00026
C 31.91618 29.78755 0.00682
C 31.98735 28.43715 -0.01779
C 33.15871 27.70444 0.03794
C 33.14516 26.31128 0.01927
C 31.94894 25.63082 0.01574
C 31.99623 24.14118 -0.02383
C 33.26739 23.46992 -0.01429
C 33.19897 21.96062 -0.0136
C 31.97478 21.30631 0.00594
C 31.95444 19.90968 -0.02474
C 33.14464 19.17711 0.00369
C 33.12886 17.80102 0.00455
C 31.87811 17.07507 -0.00644
C 30.7114 0.74337 -0.01694
C 30.74857 2.16472 0.01713
C 29.47443 2.90192 0.00346
C 29.45874 4.29451 0.00307
C 30.77406 23.49823 0.01836
C 30.72919 22.03093 0.03531
C 29.48737 21.31572 -0.00669
C 29.5032 19.89449 0.0101
C 30.73909 19.19198 0.01705
C 30.6603 17.80102 -0.0405
C 29.51709 17.04382 -0.01303
C 29.53306 15.60256 -0.01461
C 32.0089 15.6056 -0.01839
C 30.71531 14.95429 -0.02155
C 29.58047 12.71288 -0.03735
C 29.54175 11.33068 -0.00971
C 30.80459 10.6781 0.01518
C 30.76028 9.25052 0.01908
C 29.53837 8.51723 0.07705
C 29.58512 7.11872 0.0103
C 30.77016 6.43259 0.02108
C 30.7202 5.02337 0.00716
C 30.77334 13.53032 -0.00944
C 33.22008 14.88713 0.00137
C 33.24503 13.46718 0.00199
C 32.01686 12.82819 0.04381
C 1.26699 21.98058 -0.01678
C 0.00948 21.30599 0.01223
C 0.07436 19.82131 0.00648
C 1.28312 19.13025 0.02114
C 34.19841 16.96705 -0.02957
C 34.2463 15.65996 0.00343
C 34.37752 12.73687 -0.02656
C 0.08728 11.36013 -0.02442
C 1.27443 23.46716 0.01951
C 1.17155 10.58593 -0.00027
C 34.41258 8.54668 -0.02302
C 0.07681 7.0814 -0.02849
C 1.27338 6.37023 0.02931
C 1.24571 4.9425 0.00628
C 34.40054 4.1982 -0.0345
C 34.40277 2.76891 -0.00931
C 1.26732 2.08272 -0.00939
C 1.21088 0.7155 -0.00468
C 1.19413 9.24256 -0.00583
C 29.49499 24.16204 -0.03039
C 0.04007 24.19976 -0.02213
C 1.19313 26.30337 0.00723
C 31.94191 11.43388 0.02806
C 33.19832 10.65326 0.01504
C 33.21128 9.25654 -0.00069
C 31.99091 8.56807 0.04926
C 32.01742 7.10709 -0.03838
C 33.2497 6.36013 0.00349
C 33.2264 4.98447 -0.00323
C 31.94903 4.33312 -0.00841
C 34.38812 25.64044 0.02712
C 31.97989 2.8529 0.0001
C 33.14589 0.61789 -0.01404
C 31.88369 34.04608 0.01027
C 0.09702 32.68243 0.01831
C 1.30892 31.97728 -0.01037
C 1.12245 30.6138 -0.00439
C 34.28369 29.80573 -0.00598
C 34.39261 28.39421 -0.05239
C 1.23648 27.72735 0.03076
C 33.2017 2.05337 -0.02927
C 29.52415 25.56967 -0.01415
C 30.72106 26.29802 -0.01854
C 30.76704 27.77072 -0.02049
C 24.61532 25.54147 -0.02118
C 24.49911 24.11083 0.00733
C 25.75411 23.50067 -0.00178
C 25.86225 22.00859 0.00768
C 24.56201 21.27935 -0.0276
C 24.50545 19.86845 0.03005
C 25.82969 19.2204 -0.04078
C 25.83886 17.7826 0.02117
C 25.80144 26.27606 -0.01971
C 24.56136 16.99741 0.02737
C 25.84853 14.93166 0.00135
C 25.74729 13.52936 0.03102
C 24.577 12.78706 0.02555
C 24.56162 11.3137 0.01423
C 25.77976 10.56647 -0.00285
C 25.845 9.14632 -0.009
C 24.56034 8.57849 -0.01199
C 24.60038 7.06403 -0.00229
C 24.54894 15.59057 -0.00498
C 25.8048 6.38664 -0.00938
C 25.82258 27.76731 -0.01586
C 24.53061 29.81491 0.00071
C 23.4599 14.81574 0.01511
C 23.17793 13.52084 -0.00478
C 22.08524 12.70188 -0.01662
C 22.08506 11.36465 -0.01185
C 23.33138 10.6676 0.01126
C 23.35187 9.22818 0.01852
C 22.15605 8.48296 -0.00381
C 22.17613 7.06354 0.03046
C 24.56014 28.45223 -0.01107
C 23.37879 6.3121 0.0296
C 22.11227 4.19857 -0.02845
C 22.08044 2.75381 -0.03213
C 23.37199 2.05783 0.02239
C 23.41081 0.6852 0.01153
C 22.22324 34.07055 0.02734
C 24.53074 32.64199 -0.0055
C 25.75235 31.94768 0.01515
C 25.75198 30.56293 -0.00225
C 23.37356 4.91829 0.03374
C 3.78883 31.92556 0.03368
C 25.83226 4.96825 -0.0264
C 24.60135 2.84561 0.00684
C 26.99539 12.7045 -0.00621
C 26.99427 11.30379 0.02611
C 28.28289 10.62412 0.02198
C 28.29407 9.21639 0.01094
C 27.07739 8.44193 0.00235
C 27.1083 7.04171 0.01495
C 28.3194 6.32862 0.01259
C 28.25735 4.94019 0.01799
C 28.26016 13.39714 0.00194
C 27.06675 4.24384 0.01699
C 28.26626 2.10059 0.01177
C 28.30267 0.74131 0.04266
C 27.10517 34.05039 0.01324
C 29.52778 32.6652 0.0014
C 30.71448 31.95139 0.00924
C 30.65539 30.54278 0.02326
C 29.48705 29.84281 0.00261
C 29.51178 28.41484 0.03265
C 27.04189 2.84562 -0.00416
C 24.61474 4.2171 -0.01154
C 28.27597 14.86792 0.04185
C 27.06556 17.07077 0.01257
C 25.80382 2.14164 -0.01052
C 25.87538 0.70174 -0.01679
C 24.6757 0.03304 0.00367
C 26.98458 32.61311 0.04306
C 28.24304 31.964 0.00996
C 28.23384 30.53988 0.00195
C 26.97758 29.87598 -0.00802
C 27.02711 28.40706 -0.00218
C 27.09162 15.64798 0.02316
C 28.29001 27.71153 -0.01654
C 26.98783 25.6006 -0.0032
C 27.00177 24.18064 0.00622
C 28.25125 23.53974 -0.02815
C 28.2911 22.03022 -0.00942
C 27.10206 21.32934 0.00487
C 27.03045 19.91726 0.00826
C 28.3202 19.16433 -0.00294
C 28.31063 17.74965 0.00152
C 28.29582 26.33266 -0.00037
C 2.54271 32.71411 -0.00077
