383
Graphene
C 34.29721 0.05679 0.01295
C 15.93628 6.50187 0.0076
C 15.97138 4.98636 0.01241
C 14.70585 4.31645 -0.01454
C 14.69746 2.90872 0.01945
C 15.94696 2.16037 0.01416
C 15.96435 0.74989 0.03542
C 14.71307 34.0512 0.02299
C 17.14888 32.624 0.00244
C 18.40096 31.98179 -0.01717
C 14.71826 7.22306 0.02162
C 18.38001 30.46832 0.05265
C 17.12786 28.3556 -0.02813
C 18.39214 27.6345 0.00374
C 18.40076 26.24066 0.00052
C 17.22809 25.45858 -0.03682
C 17.24455 24.0716 0.01965
C 18.48762 23.38209 0.02058
C 18.4289 21.94701 -0.01957
C 17.08305 21.30049 -0.0108
C 17.17856 19.842 -0.00368
C 17.1947 29.81141 -0.01952
C 18.40051 19.18532 -0.02696
C 14.78806 8.60443 -0.0014
C 15.84165 10.7661 -0.02162
C 12.27339 0.08321 0.02841
C 14.7476 32.59157 -0.01111
C 15.93051 31.92017 -0.01275
C 15.91253 30.54017 0.00985
C 14.72863 29.75936 -0.02245
C 14.70025 28.32436 -0.00428
C 15.95685 27.58961 0.03101
C 15.98319 26.22695 -0.01536
C 14.80509 25.65508 -0.02689
C 16.01289 9.31384 0.00415
C 14.85703 24.30964 -0.01046
C 15.88116 22.07845 0.02819
C 14.5865 21.24764 0.00165
C 14.69919 19.90187 -0.02971
C 15.80273 19.02133 0.02894
C 15.99312 17.49669 -0.01789
C 16.0863 15.08382 0.00444
C 15.91511 13.67546 -0.00925
C 14.77114 12.89646 0.01877
C 14.6399 11.47227 0.01363
C 15.98608 23.45021 -0.00891
C 13.48734 0.78355 0.00943
C 18.47118 17.6748 -0.00114
C 17.30176 15.59836 0.00798
C 20.82555 23.41237 -0.0258
C 20.83939 21.99808 -0.0331
C 19.62557 21.23491 -0.00316
C 19.63974 19.89027 0.02188
C 20.87226 19.1205 -0.01979
C 20.95766 17.68668 0.02691
C 19.7181 17.06395 -0.01581
C 19.76658 15.52985 0.01452
C 20.94085 14.90424 0.04892
C 19.65374 24.07233 0.03338
C 20.8927 13.4728 -0.00111
C 19.68408 11.42451 0.03754
C 20.91916 10.66361 0.01739
C 20.92268 9.26985 0.00755
C 19.61478 8.56918 -0.0054
C 19.58346 7.14231 0.00667
C 20.81928 6.39551 0.00143
C 20.9318 4.97475 -0.017
C 19.67877 4.21562 0.00364
C 19.59909 2.74126 -0.00831
C 19.78973 12.76777 -0.03557
C 17.211 17.01475 0.00228
C 19.60626 25.51495 -0.00491
C 20.84877 27.5706 0.03698
C 18.5961 14.81574 0.00422
C 18.51523 13.43473 0.0351
C 17.2051 12.81449 -0.03113
C 17.09669 11.43614 0.02098
C 18.42667 10.80068 0.01848
C 18.4469 9.33762 -0.00619
C 17.23603 8.57662 -0.02162
C 17.18712 7.13064 0.00889
C 18.43965 6.40765 -0.00481
C 20.85846 26.13436 -0.00109
C 18.47179 4.97346 0.00979
C 17.23849 2.8838 0.03505
C 18.39426 2.10544 -0.02815
C 18.40176 0.66546 -0.04147
C 17.17712 0.01236 -0.05302
C 19.67032 32.61017 0.00213
C 20.9099 31.90111 -0.00066
C 20.86703 30.46239 -0.00289
C 19.61012 29.77902 0.00028
C 19.63689 28.36647 -0.02213
C 17.18105 4.25803 0.01443
C 20.8185 2.06033 -0.02957
C 13.54842 2.17592 0.00406
C 12.26274 4.42112 0.00572
C 5.97686 26.27848 -0.00094
C 5.84808 9.42334 0.02322
C 4.74524 8.54124 -0.00725
C 4.83381 7.08935 -0.05697
C 6.13254 6.50273 0.01087
C 6.11913 5.1281 -0.01343
C 4.88244 4.33277 0.00988
C 4.86158 2.93197 0.0276
C 6.07968 2.20707 0.01305
C 6.05245 27.7385 -0.02566
C 6.11836 0.81628 -0.00077
C 7.33395 32.74086 -0.02929
C 8.50451 31.99471 -0.00966
C 8.52117 30.60218 -0.03337
C 7.26371 29.9049 0.01227
C 7.2767 28.42133 0.00873
C 8.4597 27.63351 -0.00049
C 8.53676 26.18965 0.00848
C 7.25475 25.57883 -0.01303
C 7.50893 24.19713 -0.01378
C 4.88605 0.07375 0.03368
C 8.76519 23.33308 0.02635
C 4.80186 28.40746 -0.03113
C 6.11467 30.65261 -0.00643
C 3.59372 30.53597 -0.003
C 2.3983 29.84842 0.01402
C 2.35787 28.34503 0.02379
C 3.61571 27.63097 0.00907
C 2.6678 19.35481 0.00643
C 2.49891 12.71727 -0.01509
C 2.60432 11.35988 0.03267
C 3.74233 10.56856 0.02374
C 3.53692 9.18601 0.00402
C 4.81914 29.84107 0.017
C 2.30081 8.54531 0.0073
C 3.56281 6.29341 0.03828
C 3.57308 4.97526 0.01226
C 2.36789 4.2129 -0.00279
C 2.33428 2.88607 0.01996
C 3.57651 2.25633 -0.03996
C 3.61326 0.8075 0.01465
C 2.45987 0.01572 -0.00074
C 4.77851 32.68519 -0.00518
C 6.05239 32.07119 0.0086
C 2.31684 7.15459 0.0174
C 12.3006 2.93159 0.03592
C 8.4528 9.39256 0.0127
C 7.28086 7.34139 0.01849
C 11.02158 2.31364 -0.01118
C 11.00894 0.86167 -0.014
C 9.73589 0.05181 0.02147
C 12.24725 32.76858 0.00373
C 13.47911 32.02546 -0.00191
C 13.47186 30.57761 0.00438
C 12.29461 29.90885 0.01291
C 12.2001 28.4464 0.00093
C 13.42414 27.76669 0.00057
C 9.85611 2.99939 -0.00131
C 13.56018 26.42061 -0.01634
C 12.5164 24.29104 0.02339
C 13.70274 23.53017 0.01641
C 13.35695 22.21171 -0.00719
C 13.30925 10.64957 0.01364
C 13.48568 9.26567 -0.01062
C 12.24113 8.5202 -0.00033
C 12.19217 7.15539 0.03589
C 13.47685 6.47205 -0.02759
C 13.47483 5.07211 0.0402
C 12.34176 25.68273 -0.00334
C 7.20024 8.8188 0.01396
C 9.76845 4.41984 -0.02896
C 10.99128 6.48237 0.00488
C 8.57551 6.63948 -0.01142
C 8.56803 5.22503 -0.00562
C 7.36845 4.4121 -0.00494
C 7.30984 2.88976 0.00054
C 8.62242 2.25065 0.03007
C 8.53628 0.8231 -0.00095
C 7.37499 0.06204 0.01572
C 9.75085 32.70899 -0.04848
C 10.94976 32.05805 -0.00892
C 11.05946 5.14225 -0.01004
C 11.06115 30.58673 -0.01362
C 9.70535 28.39552 0.0288
C 10.97897 27.71928 0.00393
C 11.09342 26.28803 0.00895
C 9.88214 25.51292 0.00685
C 9.99074 23.96201 0.02888
C 11.3955 23.45436 -0.00482
C 11.23861 9.45163 -0.01384
C 9.78187 8.83606 0.03693
C 9.84618 7.38193 0.01745
C 9.74975 29.86787 -0.0008
C 3.6001 31.98465 0.00031
C 20.85597 0.64638 -0.04422
C 22.11327 32.63382 -0.00703
C 30.6474 6.39629 0.0103
C 30.60647 5.01527 0.02108
C 29.40582 4.22081 0.00716
C 29.48715 2.85255 0.00307
C 30.70364 2.12514 0.00346
C 30.65148 0.7331 0.01713
C 29.42776 0.05314 -0.01694
C 31.84313 32.66646 0.01428
C 33.1069 31.9147 -0.02142
C 29.4499 7.08957 0.07705
C 33.16715 30.50286 0.0544
C 31.90267 28.37894 0.00682
C 33.16232 27.57966 -0.01779
C 33.20883 26.09837 0.03794
C 31.89947 25.58396 0.01927
C 31.91914 24.17236 0.01574
C 33.08414 23.42956 -0.02383
C 33.10247 22.05228 -0.01429
C 31.92147 21.30821 -0.0136
C 32.0252 19.93583 0.00594
C 31.9336 29.79885 0.00026
C 33.28111 19.30172 -0.02474
C 29.49916 8.5382 0.01908
C 30.77366 10.70924 -0.00971
C 30.65519 31.86255 0.0014
C 30.67543 30.4204 0.00924
C 29.37984 29.8584 0.02326
C 29.4468 28.4391 0.00261
C 30.58789 27.74319 0.03265
C 30.71111 26.29927 -0.02049
C 29.46586 25.51462 -0.01854
C 29.4063 24.12985 -0.01415
C 30.65217 23.39998 -0.03039
C 30.68326 9.24039 0.01518
C 30.61381 21.99216 0.01836
C 29.47218 19.86774 -0.00669
C 30.79929 19.1605 0.0101
C 30.84691 17.7944 0.01705
C 29.59911 17.08542 -0.0405
C 29.55401 15.60987 -0.01303
C 30.8141 14.96349 -0.01461
C 30.7779 13.50046 -0.02155
C 29.53979 12.83069 -0.00944
C 29.59139 11.37195 -0.03735
C 29.4897 21.19995 0.03531
C 29.43953 32.63757 0.01324
C 33.3339 17.89614 0.00369
C 32.07152 15.67735 -0.00644
C 34.40649 21.4845 -0.02213
C 0.12022 20.09844 0.01951
C 1.30925 19.24425 -0.01678
C 1.48229 17.91432 0.01223
C 0.14978 17.19148 0.00648
C 0.10175 15.76139 0.02114
C 1.3409 15.08999 -0.02957
C 1.35473 13.62642 0.00343
C 0.12724 12.85927 -0.02656
C 34.38406 24.00513 0.02712
C 0.07854 11.37147 -0.02442
C 1.10015 9.22653 -0.00583
C 34.29904 8.47175 -0.02302
C 34.34123 7.13732 -0.02849
C 1.07662 6.36226 0.02931
C 1.14754 5.01022 0.00628
C 34.36438 4.31161 -0.0345
C 34.31031 2.90829 -0.00931
C 1.10279 2.17457 -0.00939
C 1.16549 0.73111 -0.00468
C 1.20293 10.58132 -0.00027
C 32.09724 17.14677 0.00455
C 0.01704 25.41537 0.00723
C 1.13749 27.65096 -0.05239
C 33.32707 14.99456 -0.01839
C 33.29476 13.63169 0.00137
C 32.01884 12.78469 0.00199
C 32.0583 11.35208 0.04381
C 33.2138 10.65394 0.02806
C 33.15912 9.15235 0.01504
C 31.85141 8.45325 -0.00069
C 31.88102 7.07365 0.04926
C 33.11829 6.44627 -0.03838
C 1.2423 26.24664 0.03076
C 33.12057 5.06354 0.00349
C 31.88349 2.89801 -0.00841
C 33.1108 2.21387 0.0001
C 33.09817 0.82272 -0.02927
C 31.85063 0.04118 -0.01404
C 34.35407 32.68145 0.01027
C 1.17124 32.03975 0.01831
C 1.1412 30.61064 -0.01037
C 34.34939 29.84907 -0.00439
C 34.33043 28.36275 -0.00598
C 31.87449 4.31946 -0.00323
C 19.60121 34.04574 0.00654
C 26.93738 34.0529 0.04266
C 28.21311 2.14871 -0.00416
C 23.31017 6.30245 0.03046
C 23.23643 4.83842 0.0296
C 22.04393 4.15862 0.03374
C 22.05625 2.75721 -0.02845
C 23.303 2.14934 -0.03213
C 23.26085 0.66167 0.02239
C 22.03663 34.00332 0.01153
C 24.54193 32.61367 0.02734
C 25.73313 31.83925 -0.0055
C 22.05427 7.11495 -0.00381
C 25.74673 30.40646 0.01515
C 24.58471 28.35897 0.00071
C 25.77576 27.65069 -0.01107
C 25.73288 26.22631 -0.01586
C 24.55964 25.41338 -0.01971
C 24.49605 24.05928 -0.02118
C 25.75258 23.37606 0.00733
C 25.87557 21.96769 -0.00178
C 24.62967 21.3031 0.00768
C 24.60975 19.85915 -0.0276
C 24.52123 29.75644 -0.00225
C 25.7893 19.13352 0.03005
C 22.13003 8.55028 0.01852
C 23.35343 10.62818 -0.01185
C 23.28104 31.84442 -0.04076
C 23.24965 30.46206 -0.00652
C 22.08079 29.76035 0.0058
C 22.11857 28.29061 -0.00865
C 23.31202 27.66805 0.00675
C 23.30271 26.21883 -0.00311
C 22.12191 25.47538 0.00742
C 22.06192 24.01232 -0.01594
C 23.33069 23.32355 0.0106
C 23.37829 9.18259 0.01126
C 23.34324 21.88338 -0.01154
C 22.19253 19.8279 -0.02422
C 23.44823 19.10249 0.01277
C 23.42214 17.68994 0.00096
C 22.16035 17.00465 -0.01527
C 22.13719 15.60865 0.01087
C 23.44984 14.92507 0.00199
C 23.32125 13.53268 0.01511
C 22.13579 12.75388 -0.00478
C 22.11542 11.39119 -0.01662
C 22.16603 21.19182 -0.01721
C 28.20626 0.69289 0.01177
C 25.81506 17.72969 -0.04078
C 24.71185 15.57855 0.02737
C 28.18027 23.4301 0.00622
C 28.28615 21.99334 -0.02815
C 27.09614 21.16547 -0.00942
C 27.11525 19.76276 0.00487
C 28.34295 19.09829 0.00826
C 28.38295 17.74207 -0.00294
C 27.0778 17.08927 0.00152
C 27.18559 15.60938 0.01257
C 28.36388 14.87151 0.02316
C 26.97167 24.09914 -0.0032
C 28.29495 13.48053 0.04185
C 27.00963 11.28084 -0.00621
C 28.31572 10.69265 0.02611
C 28.29252 9.21527 0.02198
C 27.03246 8.47695 0.01094
C 27.00279 7.02829 0.00235
C 28.23757 6.39545 0.01495
C 28.20907 4.97336 0.01259
C 26.89559 4.26801 0.01799
C 26.9696 2.83033 0.01699
C 27.06448 12.76443 0.00194
C 24.62677 16.96516 0.02117
C 27.03712 25.54083 -0.00037
C 28.3022 27.63502 -0.00218
C 25.93314 14.89012 -0.00498
C 25.85897 13.54572 0.00135
C 24.60995 12.83005 0.03102
C 24.63052 11.45659 0.02555
C 25.78028 10.57602 0.01423
C 25.80403 9.19538 -0.00285
C 24.60906 8.5031 -0.009
C 24.51617 7.06069 -0.01199
C 25.74266 6.31915 -0.00229
C 28.28146 26.28179 -0.01654
C 25.68835 4.9365 -0.00938
C 24.46835 2.75416 -0.01154
C 25.71623 1.9917 0.00684
C 25.74571 0.65603 -0.01052
C 24.4545 33.98791 -0.01679
C 26.9266 32.61432 0.00367
C 28.19565 31.9279 0.04306
C 28.1713 30.54192 0.00996
C 27.01694 29.73816 0.00195
C 27.0294 28.33581 -0.00802
C 24.5123 4.168 -0.0264
C 2.42753 32.68714 0.03189
