347
Graphene
C 34.39915 0.06276 0.01295
C 13.54641 31.92903 0.0351
C 13.60738 30.47092 -0.03113
C 13.35046 19.18472 0.02098
C 13.14673 17.96931 0.01848
C 12.02474 17.02068 -0.00619
C 12.37137 15.61325 -0.02162
C 12.0931 8.49132 0.00889
C 12.3318 7.15912 -0.00481
C 13.68576 6.3103 0.00979
C 13.45731 4.85271 0.01443
C 12.22452 4.1671 0.03505
C 12.25598 2.65758 -0.02815
C 13.5206 1.99647 -0.04147
C 13.59436 0.63192 -0.05302
C 12.30649 33.97143 0.00213
C 14.79276 32.65045 -0.00066
C 15.95764 31.86583 -0.00289
C 12.2167 32.45048 0.00422
C 9.89505 33.98929 0.00798
C 11.09395 0.54582 0.00228
C 10.9984 1.94649 -0.00114
C 11.01805 31.72716 0.01945
C 10.96232 30.40953 0.01416
C 10.39117 19.34613 0.03542
C 10.88962 17.91488 0.02299
C 9.80041 17.0454 0.00244
C 9.97828 15.67367 -0.01717
C 11.19823 14.85103 0.05265
C 11.01773 13.47212 -0.01952
C 15.96168 30.52813 0.00028
C 9.8044 12.90755 -0.02813
C 11.07457 10.84563 0.00052
C 11.11019 9.42414 -0.03682
C 9.86444 8.65752 0.01965
C 9.91925 7.10288 0.02058
C 11.10977 6.36655 -0.01957
C 11.02511 4.96084 -0.0108
C 9.7639 4.23778 -0.00368
C 9.84203 2.77772 -0.02696
C 9.83668 11.46531 0.00374
C 14.62673 29.90742 -0.02213
C 14.62502 19.60173 0.03698
C 15.88526 19.76972 -0.00109
C 18.39747 0.80726 -0.02957
C 17.21996 33.99774 -0.04422
C 19.65777 32.63162 0.00654
C 20.85125 31.95678 -0.00703
C 20.86944 30.46302 -0.04076
C 19.53362 29.73688 -0.00652
C 19.48043 28.3393 0.0058
C 20.72794 27.70269 -0.00865
C 18.3843 2.35323 -0.00831
C 20.86298 26.24624 0.00675
C 19.68963 24.03933 0.00742
C 20.9346 23.31001 -0.01594
C 20.9523 21.96423 0.0106
C 19.76775 21.26923 -0.01154
C 19.71314 19.93832 -0.01721
C 21.01463 19.17728 -0.02422
C 20.97038 4.89978 0.01277
C 19.5858 4.44995 0.00096
C 19.69709 25.47677 -0.00311
C 9.87579 32.62268 -0.01454
C 17.14949 2.96732 0.00364
C 18.34189 5.06478 0.00143
C 15.78062 5.07166 -0.00491
C 14.7496 4.15546 0.03338
C 14.7623 2.69761 -0.0258
C 16.04334 2.06578 -0.0331
C 16.01748 0.58415 -0.00316
C 14.76164 34.05794 0.02188
C 17.20862 32.58511 -0.01979
C 18.48759 31.92918 0.02691
C 17.17022 4.39498 -0.017
C 18.39065 30.54343 -0.01581
C 17.23522 28.39321 0.04892
C 18.32028 27.46514 -0.00111
C 18.41892 26.07811 -0.03557
C 18.46358 23.47488 0.03754
C 18.66858 22.07704 0.01739
C 17.64631 21.25943 0.00755
C 17.16212 19.95317 -0.0054
C 18.44899 19.44942 0.00667
C 17.1659 29.72908 0.01452
C 19.62377 2.99933 -0.01527
C 7.35 34.01173 0.01241
C 8.60964 2.11732 0.02162
C 2.43926 7.07285 -0.0008
C 3.69022 6.36271 0.0288
C 3.7346 4.96722 0.00393
C 2.49767 4.29852 0.00895
C 2.44564 2.86552 0.00685
C 3.68903 2.10842 0.02888
C 3.63333 0.7013 -0.00482
C 2.41438 0.02234 -0.01384
C 4.83078 32.63871 0.03693
C 6.03982 31.92924 0.01745
C 6.04071 30.49416 0.00488
C 4.81239 29.90755 -0.01004
C 4.80427 28.48667 -0.02896
C 6.04539 27.86084 -0.00131
C 6.0525 26.62292 -0.01118
C 4.8324 25.60546 -0.014
C 4.85479 24.13541 0.02147
C 2.50454 8.53053 -0.01362
C 3.67695 9.20536 -0.00892
C 3.69848 10.68459 -0.04848
C 2.45325 11.38644 0.01572
C 3.59405 30.53342 -0.00966
C 2.39665 29.80886 -0.03337
C 2.37141 28.36861 0.01227
C 3.63315 27.68546 0.00873
C 3.65428 26.31891 -0.00049
C 2.46212 25.67121 0.00848
C 2.41889 24.19692 -0.01303
C 3.67524 23.46618 -0.01378
C 6.19388 23.26989 0.00373
C 3.6641 22.06179 0.02635
C 2.4682 19.9009 0.01396
C 3.66907 19.13242 0.01849
C 3.60903 17.78791 -0.01142
C 2.41131 17.06456 -0.00562
C 2.37752 15.6306 -0.00494
C 3.64389 15.01075 0.00054
C 3.65998 13.53602 0.03007
C 2.39032 12.85674 -0.00095
C 2.40794 21.29427 0.0127
C 6.13377 22.05395 -0.00191
C 4.87137 21.29782 0.00438
C 4.92241 19.86137 0.01291
C 7.3745 29.75788 -0.00428
C 7.54368 19.9383 0.03101
C 8.83921 19.2429 -0.01536
C 8.57213 17.78151 -0.02689
C 7.33824 17.07633 -0.01046
C 7.41415 15.68083 -0.00891
C 8.67954 15.02713 0.02819
C 8.523 13.62212 0.00165
C 8.50286 30.38439 -0.02245
C 7.36015 12.90185 -0.02971
C 8.58568 10.68898 -0.01789
C 8.65681 9.32113 0.00444
C 7.42685 8.51197 -0.00925
C 7.38759 7.10108 0.01877
C 8.66504 6.43308 0.01363
C 8.60771 5.09404 -0.02162
C 7.37631 4.35947 0.00415
C 7.43029 2.86094 -0.0014
C 7.38167 11.46006 0.02894
C 8.50802 0.75183 0.0076
C 8.5646 31.89199 0.00985
C 4.88246 0.0659 -0.01111
C 6.19536 19.1802 0.00093
C 6.1765 17.76125 0.00057
C 4.97471 17.0666 -0.01634
C 4.92497 15.72411 -0.00334
C 6.17301 14.92979 0.02339
C 6.0972 13.53671 0.01641
C 4.82017 12.80877 -0.00719
C 4.87736 11.377 0.01364
C 7.32351 32.54029 -0.01275
C 6.1356 10.64912 -0.01062
C 4.95171 8.5219 0.03589
C 4.98863 7.10072 -0.02759
C 6.15228 6.36781 0.0402
C 6.14041 4.98493 0.00572
C 5.00005 4.21191 0.03592
C 4.95811 2.80293 0.00406
C 6.26219 2.14823 0.00943
C 6.17096 0.66819 0.02841
C 6.16934 9.23444 -0.00033
C 3.66015 31.94891 -0.02929
C 20.93988 2.1874 0.01087
C 19.61701 0.03129 0.01511
C 33.08289 30.56313 0.01428
C 31.88621 29.83419 -0.02142
C 31.9088 28.39402 0.0544
C 33.09957 27.63404 0.00026
C 33.14759 26.24345 0.00682
C 31.88552 25.59572 -0.01779
C 31.98286 24.11545 0.03794
C 33.17983 23.43422 0.01927
C 33.19289 21.99924 0.01574
C 31.96718 21.36361 -0.02383
C 31.97582 19.89615 -0.01429
C 33.1826 19.20163 -0.0136
C 33.17698 17.78777 0.00594
C 31.96646 17.07674 -0.02474
C 31.88339 15.66586 0.00369
C 33.12135 14.93623 0.00455
C 33.17519 13.51346 -0.00644
C 33.1527 31.91447 -0.01694
C 32.00537 32.65803 0.01713
C 29.50787 34.07609 0.00346
C 30.80404 0.73401 0.00307
C 29.4539 19.93398 0.01836
C 30.70324 19.21323 0.03531
C 30.69283 17.8207 -0.00669
C 29.45847 17.06394 0.0101
C 29.45111 15.62367 0.01705
C 30.64522 14.88257 -0.0405
C 30.66034 13.50059 -0.01303
C 29.44489 12.72725 -0.01461
C 31.94992 12.85427 -0.01839
C 29.50245 11.34993 -0.02155
C 30.62817 9.17545 -0.03735
C 29.31706 8.79241 -0.00971
C 29.22289 7.25826 0.01518
C 30.61656 6.4904 0.01908
C 30.71827 5.07517 0.07705
C 29.5704 4.31949 0.0103
C 29.55328 2.83571 0.02108
C 30.81873 2.15031 0.00716
C 30.71455 10.72132 -0.00944
C 31.91741 11.34224 0.00137
C 33.14542 10.66149 0.00199
C 33.21947 9.2303 0.04381
C 1.2383 19.24038 -0.01678
C 1.1922 17.78604 0.01223
C 34.38014 17.11486 0.00648
C 34.39756 15.64348 0.02114
C 1.11016 14.92655 -0.02957
C 1.18607 13.54246 0.00343
C 0.03464 12.83758 -0.02656
C 34.39463 11.37085 -0.02442
C 0.01156 19.8948 0.01951
C 1.23231 10.62528 -0.00027
C 0.01244 8.52194 -0.02302
C 0.0067 7.10865 -0.02849
C 1.2763 6.38566 0.02931
C 1.26481 4.96675 0.00628
C 0.00282 4.32325 -0.0345
C 0.04095 2.85766 -0.00931
C 1.21503 2.10369 -0.00939
C 1.18754 0.67193 -0.00468
C 1.25625 9.25269 -0.00583
C 29.4224 21.32325 -0.03039
C 34.38927 21.28505 -0.02213
C 1.19726 23.48691 0.00723
C 31.93163 8.53388 0.02806
C 31.91879 7.06583 0.01504
C 33.17629 6.33789 -0.00069
C 33.1884 4.96881 0.04926
C 31.96105 4.37688 -0.03838
C 31.98895 2.86643 0.00349
C 33.18214 2.1403 -0.00323
C 33.15223 0.75652 -0.00841
C 1.11183 22.06996 0.02712
C 32.00246 34.04911 0.0001
C 1.196 31.95774 -0.01404
C 1.19587 30.57706 0.01027
C 0.003 29.86969 0.01831
C 34.3577 28.37838 -0.01037
C 1.08615 27.70041 -0.00439
C 1.21225 26.31265 -0.00598
C 0.06288 25.57302 -0.05239
C 34.43176 24.19705 0.03076
C 34.39521 32.67217 -0.02927
C 20.86248 0.75433 0.00199
C 30.72758 22.092 -0.01415
C 29.46879 24.1987 -0.02049
C 25.81446 30.47508 0.00733
C 24.52671 29.84779 -0.00178
C 24.53102 28.46501 0.00768
C 25.78582 27.74501 -0.0276
C 25.74145 26.26709 0.03005
C 24.53021 25.58466 -0.04078
C 24.60143 24.12127 0.02117
C 25.83478 23.36464 0.02737
C 25.85293 21.9874 -0.00498
C 24.60795 21.33742 0.00135
C 24.6955 19.90968 0.03102
C 25.76758 19.3547 0.02555
C 25.987 13.51896 0.01423
C 24.65423 11.42766 -0.00285
C 25.60151 10.71005 -0.009
C 23.97259 8.09733 -0.01199
C 24.9867 7.08425 -0.00229
C 25.82461 31.95687 -0.02118
C 24.57162 32.6231 -0.01971
C 22.1497 0.02663 -0.01586
C 23.41322 0.7245 -0.01107
C 22.04463 32.72743 -0.00478
C 23.3295 32.01982 -0.01662
C 23.36734 30.57259 -0.01185
C 22.12493 29.8054 0.01126
C 22.02142 28.39288 0.01852
C 23.2543 27.74724 -0.00381
C 23.30951 26.34961 0.03046
C 22.16912 25.52909 0.0296
C 26.1931 6.26038 -0.00938
C 22.1649 24.09543 0.03374
C 23.38734 22.09962 -0.03213
C 22.1976 21.2726 0.02239
C 22.03246 19.81897 0.01153
C 23.71771 6.58734 0.02734
C 23.4704 5.09899 -0.0055
C 22.18878 4.25775 0.01515
C 22.21742 2.83909 -0.00225
C 23.41268 2.11678 0.00071
C 23.34245 23.47215 -0.02845
C 25.93878 4.90565 -0.0264
C 24.60474 4.30336 -0.01154
C 24.6816 2.8414 0.00684
C 27.03047 12.57701 -0.00621
C 27.0049 11.01508 0.02611
C 28.39794 10.29376 0.02198
C 27.91375 6.3875 0.01094
C 28.25888 5.01857 0.00235
C 27.13184 4.16151 0.01495
C 27.04293 2.77205 0.01259
C 28.33308 2.17051 0.01799
C 28.20085 13.32251 0.00194
C 28.29758 0.70959 0.01699
C 29.54855 32.6634 0.01177
C 30.72064 31.95789 0.04266
C 30.6884 30.48309 0.01324
C 29.41922 29.86712 0.0014
C 29.45703 28.48924 0.00924
C 30.66104 27.77512 0.02326
C 30.65571 26.33506 0.00261
C 29.43931 25.59436 0.03265
C 27.09223 34.06813 -0.00416
C 30.70045 23.44293 -0.01854
C 28.19005 14.82094 0.04185
C 27.05444 16.91736 0.01257
C 25.8165 2.07438 -0.01052
C 25.79927 0.65632 -0.01679
C 24.63516 34.02783 0.00367
C 27.03164 32.62758 0.04306
C 28.27014 31.97874 0.00996
C 28.15096 30.58996 0.00195
C 26.96669 29.77162 -0.00802
C 27.03645 28.33604 -0.00218
C 27.03523 15.69231 0.02316
C 28.2781 27.73379 -0.01654
C 26.92161 25.56342 -0.0032
C 27.02538 24.15196 0.00622
C 28.21775 23.52248 -0.02815
C 28.24118 22.02366 -0.00942
C 27.08594 21.35979 0.00487
C 27.10684 19.97846 0.00826
C 28.28583 19.21891 -0.00294
C 28.12604 17.82763 0.00152
C 28.23212 26.33349 -0.00037
C 2.44304 32.63746 0.03368
