377
Graphene
C 34.34261 34.06171 0.01295
C 12.19818 28.42358 0.03542
C 13.57659 27.73539 0.02299
C 13.54211 26.32428 0.00244
C 12.30415 25.66281 -0.01717
C 12.35003 24.18486 0.05265
C 13.51189 23.36691 -0.01952
C 13.48089 21.96686 -0.02813
C 12.259 21.21114 0.00374
C 12.27844 19.84406 0.00052
C 13.51876 19.12232 -0.03682
C 13.52707 17.70631 0.01965
C 12.37292 17.05209 0.02058
C 12.42857 15.61087 -0.01957
C 13.65178 14.88272 -0.0108
C 13.6331 13.40026 -0.00368
C 12.37525 12.72609 -0.02696
C 12.34419 11.26812 -0.00114
C 13.57558 10.42491 0.00228
C 13.64598 9.15192 0.00798
C 12.326 29.81154 0.01416
C 13.49461 30.51599 0.01945
C 13.4625 32.03675 -0.01454
C 12.31186 32.74654 0.01241
C 9.83567 25.64881 -0.00428
C 9.87482 24.2576 0.03101
C 11.13167 23.55035 -0.01536
C 11.06842 22.06421 -0.02689
C 9.82112 21.36307 -0.01046
C 9.80824 19.93844 -0.00891
C 11.02157 19.13889 0.02819
C 11.14241 17.73443 0.00165
C 9.87866 17.13285 -0.02971
C 13.50778 2.17792 0.00422
C 9.97654 15.72504 0.02894
C 11.12627 13.49411 0.00444
C 9.86445 12.76456 -0.00925
C 9.88714 11.27794 0.01877
C 11.07563 10.49769 0.01363
C 11.04996 9.18083 -0.02162
C 9.77004 8.68241 0.00415
C 11.10997 2.04693 -0.0014
C 11.05534 0.69129 0.02162
C 9.74841 34.0469 0.0076
C 11.15179 14.89189 -0.01789
C 11.04657 26.26778 -0.02245
C 13.49317 0.811 0.0351
C 14.75838 32.59231 0.02098
C 15.89705 0.74683 -0.01979
C 14.73019 0.08304 0.02691
C 17.21325 32.64763 -0.01581
C 18.50371 31.88212 0.01452
C 18.46728 30.54282 0.04892
C 17.24021 29.83281 -0.00111
C 17.26251 28.41266 -0.03557
C 18.45469 27.72205 0.03754
C 18.46428 26.20544 0.01739
C 17.28985 25.59494 0.00755
C 17.24856 24.1026 -0.0054
C 18.53783 23.3687 0.00667
C 18.38421 21.97927 0.00143
C 17.18621 21.26852 -0.017
C 17.19973 19.82289 0.00364
C 18.29777 19.01429 -0.00831
C 17.28547 17.1204 -0.02957
C 17.07412 7.16855 -0.04422
C 18.13897 6.45285 0.00654
C 15.78474 2.23834 0.02188
C 14.5371 2.90222 -0.00316
C 15.9384 5.12035 -0.0331
C 16.08015 6.35582 -0.0258
C 15.95183 31.97614 0.01848
C 15.96847 30.56092 -0.00619
C 14.73261 29.87072 -0.02162
C 14.78255 28.44749 0.00889
C 15.99462 27.70718 -0.00481
C 16.0336 26.25483 0.00979
C 14.74165 25.56922 0.01443
C 14.78277 24.12607 0.03505
C 15.99881 23.42126 -0.02815
C 12.30882 0.07776 -0.03113
C 15.93509 21.98981 -0.04147
C 14.72174 19.86212 0.00213
C 15.94948 19.16974 -0.00066
C 16.06215 17.72917 -0.00289
C 14.83326 17.00211 0.00028
C 14.76869 15.6737 -0.02213
C 14.71549 12.62907 0.03698
C 14.59272 11.34735 -0.00109
C 15.94158 8.81253 -0.00491
C 14.75259 8.39295 0.03338
C 14.66356 21.29477 -0.05302
C 11.07546 27.68893 0.00985
C 9.83939 28.46763 -0.01275
C 9.80452 29.88319 -0.01111
C 2.40065 4.21626 0.00988
C 2.42143 2.85226 0.0276
C 3.72473 2.14533 0.01305
C 3.68896 0.75361 -0.00077
C 2.42037 0.03566 0.03368
C 4.84469 32.71127 -0.02929
C 6.11377 31.9753 -0.00966
C 6.1641 30.55466 -0.03337
C 4.95605 29.84151 0.01227
C 4.85951 28.42536 0.00873
C 6.12826 27.6778 -0.00049
C 6.15836 26.34808 0.00848
C 4.91556 25.61583 -0.01303
C 4.92559 24.17056 -0.01378
C 6.16769 23.52103 0.02635
C 6.15578 22.04113 0.0127
C 4.84738 21.31557 0.01396
C 4.90854 19.92706 0.01849
C 6.07631 19.09105 -0.01142
C 3.64233 4.95375 -0.01343
C 3.69659 6.45712 0.01087
C 2.43029 7.02513 -0.05697
C 2.41604 8.52659 -0.00725
C 3.63188 30.52102 0.03267
C 2.43657 29.82514 0.02374
C 2.39172 28.45305 0.00402
C 3.61337 27.71144 0.0073
C 3.71011 26.36817 0.0174
C 2.46878 25.60484 0.03828
C 2.47492 24.10463 0.01226
C 3.70788 23.36198 -0.00279
C 3.60515 21.97775 0.01996
C 6.07803 17.69208 -0.00562
C 2.3699 21.29094 -0.03996
C 3.66724 19.19532 -0.00074
C 3.7078 17.78891 -0.00518
C 2.47027 17.06219 0.0086
C 2.46574 15.63771 -0.00643
C 3.87376 13.34245 0.017
C 2.51308 12.84059 -0.03113
C 2.44404 11.394 -0.02566
C 3.67745 10.70733 -0.00094
C 3.61101 9.32617 0.02322
C 2.40111 19.91969 0.01465
C 4.87281 17.12759 -0.00494
C 5.03769 12.77143 0.00054
C 4.93062 11.42759 0.03007
C 8.55223 19.26109 0.00438
C 8.62986 17.83614 0.01291
C 7.43097 17.0338 0.00093
C 7.55525 15.70289 0.00057
C 8.68878 14.96194 -0.01634
C 8.52641 13.42388 -0.00334
C 7.34207 12.75856 0.02339
C 7.34601 11.31699 0.01641
C 8.6525 10.63363 -0.00719
C 7.31462 19.90994 -0.00191
C 8.55912 9.21928 0.01364
C 7.3253 7.14607 -0.00033
C 7.25644 4.2794 0.03589
C 7.50173 2.98338 -0.02759
C 8.72066 2.12283 0.0402
C 8.62948 0.74014 0.00572
C 7.35206 0.05044 0.03592
C 9.77214 32.65361 0.00406
C 11.05766 32.02204 0.00943
C 11.07602 30.57196 0.02841
C 7.35223 8.52795 -0.01062
C 18.41812 5.09655 -0.00703
C 7.30677 21.32329 0.00373
C 8.68322 23.48804 -0.014
C 6.11281 10.6463 -0.00095
C 6.12069 9.26838 0.01572
C 4.91838 8.62418 -0.04848
C 4.91607 7.23116 -0.00892
C 6.11698 6.47563 -0.01362
C 6.12196 5.04123 -0.0008
C 4.80081 4.24699 0.0288
C 4.90491 2.8826 0.00393
C 6.1529 2.17858 0.00895
C 8.64074 22.04041 0.02147
C 6.14815 0.6833 0.00685
C 7.30617 32.73642 -0.00482
C 8.55867 31.97916 -0.01384
C 8.57443 30.53886 0.03693
C 7.32802 29.87073 0.01745
C 7.31885 28.48469 0.00488
C 8.63646 27.76497 -0.01004
C 8.59464 26.38676 -0.02896
C 7.36573 25.55746 -0.00131
C 7.41605 24.23956 -0.01118
C 4.86153 0.00226 0.02888
C 3.6963 31.94177 -0.01509
C 17.03227 4.35072 -0.04076
C 18.35387 2.12062 0.0058
C 30.73311 2.14199 0.00716
C 30.62068 0.71585 0.00307
C 29.43103 34.07831 0.00346
C 31.8966 32.69571 0.01713
C 33.16888 31.9999 -0.01694
C 33.17602 30.52969 0.01428
C 31.93948 29.85694 -0.02142
C 31.90351 28.42906 0.0544
C 33.15429 27.72496 0.00026
C 33.20441 26.36404 0.00682
C 32.01774 25.61466 -0.01779
C 31.99125 24.21345 0.03794
C 33.20247 23.50875 0.01927
C 33.12985 22.07282 0.01574
C 31.95618 21.28968 -0.02383
C 31.9777 19.88355 -0.01429
C 33.21727 19.14283 -0.0136
C 33.19669 17.71905 0.00594
C 32.00113 16.984 -0.02474
C 29.54597 2.93465 0.02108
C 29.49921 4.31112 0.0103
C 30.74616 4.97068 0.07705
C 30.71837 6.34975 0.01908
C 30.68713 27.7158 0.02326
C 30.75188 26.2781 0.00261
C 29.55973 25.57317 0.03265
C 29.51457 24.13993 -0.02049
C 30.75843 23.42341 -0.01854
C 30.67153 21.98599 -0.01415
C 29.43574 21.3157 -0.03039
C 29.53765 19.86485 0.01836
C 30.75238 19.23101 0.03531
C 31.92309 15.62802 0.00369
C 30.80086 17.73861 -0.00669
C 29.47816 15.64143 0.01705
C 30.67412 14.84337 -0.0405
C 30.66122 13.48582 -0.01303
C 29.59227 12.68634 -0.01461
C 29.5629 11.35424 -0.02155
C 30.77772 10.64054 -0.00944
C 30.65452 9.2431 -0.03735
C 29.39241 8.59843 -0.00971
C 29.50586 7.0478 0.01518
C 29.52603 17.05964 0.0101
C 29.4418 28.37218 0.00924
C 33.16765 14.96116 0.00455
C 31.97817 12.8549 -0.01839
C 34.39874 19.84264 0.01951
C 1.16172 19.12375 -0.01678
C 1.26592 17.79826 0.01223
C 0.04313 17.04304 0.00648
C 0.06215 15.66083 0.02114
C 1.3026 14.97164 -0.02957
C 1.31576 13.5582 0.00343
C 0.02954 12.79264 -0.02656
C 0.02577 11.36696 -0.02442
C 1.28864 10.69506 -0.00027
C 1.21172 9.23193 -0.00583
C 34.42659 8.56145 -0.02302
C 34.42402 7.11341 -0.02849
C 1.23509 6.43464 0.02931
C 1.17951 4.97113 0.00628
C 34.40183 4.22523 -0.0345
C 34.34796 2.83599 -0.00931
C 1.22843 2.13076 -0.00939
C 1.18951 0.68913 -0.00468
C 34.32692 21.30807 -0.02213
C 1.11866 21.9568 0.02712
C 1.17002 23.4711 0.00723
C 34.4226 24.18592 0.03076
C 31.99301 11.41702 0.00137
C 33.22585 10.6762 0.00199
C 33.18714 9.24904 0.04381
C 31.98247 8.50075 0.02806
C 31.98746 7.03388 0.01504
C 33.20585 6.40289 -0.00069
C 33.16674 5.00686 0.04926
C 31.94267 4.27257 -0.03838
C 31.92281 2.81016 0.00349
C 33.22207 13.50973 -0.00644
C 33.16133 2.14058 -0.00323
C 31.89243 0.0733 0.0001
C 34.39478 32.68182 -0.02927
C 1.21963 31.99601 -0.01404
C 1.26808 30.5945 0.01027
C 0.02713 29.86505 0.01831
C 34.41319 28.44445 -0.01037
C 1.16013 27.70752 -0.00439
C 1.26994 26.29475 -0.00598
C 0.03835 25.59055 -0.05239
C 33.13913 0.8185 -0.00841
C 29.44399 29.79383 0.0014
C 30.73034 30.50586 0.01324
C 30.7131 31.9264 0.04266
C 23.33518 30.45668 -0.02845
C 22.20609 29.72416 -0.03213
C 22.1479 28.23357 0.02239
C 23.37575 27.62103 0.01153
C 23.31112 26.27856 0.02734
C 22.1347 25.48656 -0.0055
C 22.16566 24.10582 0.01515
C 23.37027 23.39374 -0.00225
C 23.34049 21.93419 0.00071
C 22.1566 21.21681 -0.01107
C 22.13124 19.62695 -0.01586
C 23.42065 19.11832 -0.01971
C 23.36436 4.91438 -0.02118
C 22.11425 4.34636 0.00733
C 22.17122 2.89446 -0.00178
C 23.47599 2.13918 0.00768
C 23.2757 0.6803 -0.0276
C 22.00355 34.06317 0.03005
C 24.54997 32.66119 -0.04078
C 23.37847 31.89704 0.03374
C 22.08027 32.62602 0.0296
C 19.56681 34.02351 0.03046
C 20.83907 0.71482 -0.00381
C 18.40302 0.71402 -0.00865
C 17.11019 34.06002 0.00675
C 19.7534 32.5922 -0.00311
C 20.93294 31.89483 0.00742
C 20.9179 30.48561 -0.01594
C 19.67459 29.79356 0.0106
C 19.72142 28.3379 -0.01154
C 20.87292 27.60475 -0.01721
C 20.91438 26.19707 -0.02422
C 25.84414 31.97776 0.02117
C 19.67883 25.52102 0.01277
C 20.97588 23.32452 -0.01527
C 20.91788 21.91284 0.01087
C 19.64857 21.21057 0.00199
C 19.63495 19.69504 0.01511
C 20.88995 19.16305 -0.00478
C 20.84182 4.9178 -0.01662
C 19.66693 4.3613 -0.01185
C 19.61589 2.86663 0.01126
C 20.87592 2.17359 0.01852
C 19.79209 24.01898 0.00096
C 25.82703 30.5409 0.02737
C 24.64661 29.75122 -0.00498
C 24.61797 28.37963 0.00135
C 26.97586 25.53215 -0.00942
C 26.98216 24.12273 0.00487
C 28.2955 23.41091 0.00826
C 28.26608 22.02575 -0.00294
C 26.97894 21.35192 0.00152
C 27.01446 19.89159 0.01257
C 28.26535 19.20212 0.02316
C 28.33389 17.73876 0.04185
C 27.13488 17.23779 0.00194
C 28.27297 26.17282 -0.02815
C 28.20455 15.01052 -0.00621
C 27.20541 7.06265 0.02198
C 28.30147 6.3706 0.01094
C 28.32235 4.98775 0.00235
C 26.98317 4.21695 0.01495
C 27.11236 2.80271 0.01259
C 28.25099 2.1432 0.01799
C 28.28554 0.74111 0.01699
C 27.0004 0.09109 -0.00416
C 29.43484 32.60784 0.01177
C 28.19685 9.13517 0.02611
C 17.07794 2.86352 -0.00652
C 28.29161 27.54437 0.00622
C 27.0455 29.75254 -0.00037
C 25.79441 27.5733 0.03102
C 25.78639 26.19576 0.02555
C 24.48503 25.51657 0.01423
C 24.56952 24.11054 -0.00285
C 25.78054 23.49597 -0.009
C 25.77505 22.04052 -0.01199
C 24.57329 21.27119 -0.00229
C 24.54331 19.873 -0.00938
C 25.76984 19.16871 -0.0264
C 27.02584 28.32009 -0.0032
C 25.90703 17.84045 -0.01154
C 25.8115 5.1226 -0.01052
C 24.57377 4.39341 -0.01679
C 24.6389 2.82902 0.00367
C 25.85496 2.05021 0.04306
C 25.72978 0.68743 0.00996
C 24.43315 34.02142 0.00195
C 27.02553 32.69909 -0.00802
C 28.23732 31.88336 -0.00218
C 28.22225 30.49776 -0.01654
C 26.07797 6.39726 0.00684
C 2.43274 32.72533 0.00643
