379
Graphene
C 34.31423 34.07397 0.01295
C 15.89524 5.11213 0.01945
C 14.73802 4.32467 0.01416
C 14.71418 2.88773 0.03542
C 15.88139 2.2021 0.02299
C 15.89479 0.71268 0.00244
C 14.70366 0.04077 -0.01717
C 17.21577 32.66194 0.05265
C 18.43517 31.87067 -0.01952
C 18.4061 30.49795 -0.02813
C 17.21364 29.79503 0.00374
C 17.24253 28.35821 0.00052
C 18.44076 27.61728 -0.03682
C 18.48266 26.21145 0.01965
C 17.29043 25.42429 0.02058
C 17.21629 23.97575 -0.01957
C 18.37713 23.16393 -0.0108
C 18.26291 21.74146 -0.00368
C 18.44076 18.8158 -0.02696
C 18.25452 17.37483 -0.00114
C 15.99789 6.50191 -0.01454
C 14.73346 7.19641 0.01241
C 14.69195 8.605 0.0076
C 15.89301 9.26437 0.02162
C 12.34003 7.25185 0.00985
C 13.46045 6.51559 -0.02245
C 13.41862 5.10581 -0.00428
C 12.15828 4.44784 0.03101
C 12.16689 2.98222 -0.01536
C 13.47806 2.2022 -0.02689
C 13.4959 0.8068 -0.01046
C 12.23202 0.09981 -0.00891
C 14.78807 32.66917 0.02819
C 17.47183 16.09412 0.00228
C 15.96516 31.95736 0.00165
C 14.75143 29.88993 0.02894
C 14.81589 28.46139 -0.01789
C 16.01196 27.70651 0.00444
C 15.96827 26.29791 -0.00925
C 14.72477 25.66167 0.01877
C 16.0284 13.52257 0.01363
C 14.86628 12.91122 -0.02162
C 14.83839 11.56658 0.00415
C 15.96587 10.75148 -0.0014
C 15.97814 30.5841 -0.02971
C 18.45632 15.0346 0.00798
C 18.48288 13.5789 0.00422
C 17.27876 12.82075 0.0351
C 19.59696 19.60979 -0.00316
C 20.87132 19.06733 0.02188
C 20.83645 17.63677 -0.01979
C 19.60017 16.96551 0.02691
C 19.74368 15.54852 -0.01581
C 20.96464 14.87427 0.01452
C 20.91208 13.4397 0.04892
C 19.6673 12.76556 -0.00111
C 19.64278 11.36657 -0.03557
C 19.54977 21.05982 -0.0331
C 20.85248 10.72765 0.03754
C 19.63163 8.60978 0.00755
C 19.65123 7.19745 -0.0054
C 20.90627 6.41411 0.00667
C 20.83379 4.98116 0.00143
C 19.60231 4.29565 -0.017
C 19.57414 2.90176 0.00364
C 20.83194 2.11955 -0.00831
C 20.86197 0.66238 -0.02957
C 19.59945 34.0239 -0.04422
C 20.91543 9.30048 0.01739
C 12.3168 8.6861 -0.01275
C 20.84062 21.78078 -0.0258
C 19.59271 23.97477 -0.00491
C 17.21463 11.41761 -0.03113
C 18.51521 10.70408 0.02098
C 18.44839 9.30201 0.01848
C 17.15044 8.61923 -0.00619
C 17.20806 7.21036 -0.02162
C 18.4318 6.51303 0.00889
C 18.46969 5.04399 -0.00481
C 17.14252 4.32344 0.00979
C 17.11055 2.89122 0.01443
C 20.82144 23.19783 0.03338
C 18.36091 2.10684 0.03505
C 17.15186 0.03122 -0.04147
C 19.67592 32.54008 -0.05302
C 20.90912 31.80843 0.00213
C 20.87496 30.42874 -0.00066
C 19.63035 29.76241 -0.00289
C 19.62468 28.31701 0.00028
C 20.86075 27.63575 -0.02213
C 20.86943 26.14961 0.03698
C 19.65944 25.35063 -0.00109
C 18.39617 0.71714 -0.02815
C 22.06923 32.49366 0.00654
C 13.46797 9.32073 -0.01111
C 12.4299 11.46657 0.00943
C 4.8765 32.71041 0.01087
C 6.17261 31.96389 -0.01343
C 6.1495 30.57001 0.00988
C 4.87106 29.90823 0.0276
C 4.88587 28.53339 0.01305
C 6.12078 27.81202 -0.00077
C 6.16962 26.32205 0.03368
C 4.96525 25.62591 -0.02929
C 4.85323 24.32654 -0.00966
C 4.86479 11.54221 -0.03337
C 6.0312 10.83968 0.01227
C 5.99612 9.35977 0.00873
C 4.78076 8.63816 -0.00049
C 4.807 7.25906 0.00848
C 6.04333 6.45164 -0.01303
C 6.02905 4.9797 -0.01378
C 4.8079 4.21694 0.02635
C 4.80374 2.87274 0.0127
C 6.05104 2.13287 0.01396
C 2.3356 0.09612 -0.05697
C 3.53171 0.74276 -0.00725
C 3.58045 2.13626 0.02322
C 2.3748 2.87643 -0.00094
C 3.67185 30.60875 0.00643
C 2.48086 29.9368 -0.01509
C 2.43021 28.35843 0.03267
C 3.62606 27.77484 0.02374
C 3.62944 26.3421 0.00402
C 2.41829 25.51847 0.0073
C 2.47804 24.17548 0.0174
C 3.77975 23.48822 0.03828
C 3.68731 22.04434 0.01226
C 6.08643 0.79156 0.01849
C 2.41707 21.32588 -0.00279
C 3.7446 19.5282 -0.03996
C 2.19569 11.83947 0.01465
C 3.50512 11.07207 -0.00074
C 3.58127 9.38441 -0.00518
C 2.36291 8.63466 0.0086
C 2.4342 7.19885 -0.00643
C 3.63713 6.46436 0.017
C 3.63641 4.95065 -0.03113
C 2.32811 4.27488 -0.02566
C 2.43334 19.89546 0.01996
C 4.7467 0.03683 -0.01142
C 7.33765 32.68216 -0.00562
C 8.60839 32.00657 -0.00494
C 11.10528 27.82593 0.00373
C 9.83137 11.40046 -0.00191
C 11.02931 10.8522 0.00438
C 10.99337 9.42553 0.01291
C 9.73874 8.62574 0.00093
C 9.84651 7.2826 0.00057
C 11.08321 6.55023 -0.01634
C 10.93364 5.07784 -0.00334
C 9.76091 4.40696 0.02339
C 9.92067 28.55398 0.02147
C 9.80596 3.02508 0.01641
C 10.97472 0.83725 0.01364
C 9.80248 0.08571 -0.01062
C 12.29111 32.78833 -0.00033
C 13.52622 32.00947 0.03589
C 13.54163 30.53952 -0.02759
C 12.28294 29.9392 0.0402
C 12.28652 28.43755 0.00572
C 13.44534 27.73202 0.03592
C 13.76055 26.35117 0.00406
C 11.02273 2.22804 -0.00719
C 13.56701 10.80563 0.02841
C 9.89345 29.97741 -0.014
C 11.09886 32.13958 -0.00131
C 8.65668 30.64153 0.00054
C 7.41717 29.93186 0.03007
C 7.35859 28.50331 -0.00095
C 8.68461 27.80591 0.01572
C 8.4393 26.42485 -0.04848
C 7.43786 25.84491 -0.00892
C 7.39036 12.79009 -0.01362
C 7.29286 11.44894 -0.0008
C 8.57963 10.74825 0.0288
C 11.12261 30.72176 -0.01118
C 8.44275 9.30782 0.00393
C 7.29355 7.14693 0.00685
C 8.54954 6.44197 0.02888
C 8.54014 5.10299 -0.00482
C 7.30449 4.317 -0.01384
C 7.34661 2.93935 0.03693
C 8.59179 2.24924 0.01745
C 8.54824 0.79245 0.00488
C 7.27395 0.06406 -0.01004
C 9.8258 32.72793 -0.02896
C 7.19046 8.61581 0.00895
C 3.66448 32.01635 0.00907
C 23.27699 31.76769 -0.00703
C 22.14744 29.69458 -0.00652
C 29.42988 4.35264 0.02108
C 29.44439 2.91782 0.00716
C 30.71634 2.16054 0.00307
C 30.69788 0.70731 0.00346
C 29.3637 0.0107 0.01713
C 31.89552 32.69295 -0.01694
C 33.13427 32.03198 0.01428
C 33.1395 30.60414 -0.02142
C 31.91435 29.87193 0.0544
C 31.87553 28.38075 0.00026
C 33.11765 27.74023 0.00682
C 33.17248 26.29787 -0.01779
C 31.98432 25.6575 0.03794
C 32.03417 24.20854 0.01927
C 33.16092 23.47653 0.01574
C 33.08855 22.07968 -0.02383
C 31.84815 21.30406 -0.01429
C 31.97239 19.92754 -0.0136
C 33.15717 19.16135 0.00594
C 30.64063 4.91926 0.0103
C 30.72325 6.38236 0.07705
C 29.46297 7.09544 0.01908
C 29.48279 8.48671 0.01518
C 29.39541 29.80719 0.00924
C 29.50208 28.45938 0.02326
C 30.68126 27.67874 0.00261
C 30.76867 26.26175 0.03265
C 29.56574 25.49574 -0.02049
C 29.4464 24.16432 -0.01854
C 30.73748 23.4478 -0.01415
C 30.68779 22.05719 -0.03039
C 29.51425 21.33789 0.01836
C 33.27934 17.72039 -0.02474
C 29.50903 19.91475 0.03531
C 30.82682 17.79101 0.0101
C 29.61539 16.9943 0.01705
C 29.53158 15.62002 -0.0405
C 30.77771 14.90003 -0.01303
C 30.77033 13.49619 -0.01461
C 29.57913 12.83859 -0.02155
C 29.59927 11.3819 -0.00944
C 30.78847 10.63073 -0.03735
C 30.67412 9.14843 -0.00971
C 30.79591 19.22254 -0.00669
C 32.01401 17.01 0.00369
C 32.05262 15.56996 0.00455
C 33.29061 14.83313 -0.00644
C 1.09083 22.00447 -0.02213
C 34.30375 21.30836 0.01951
C 34.35541 19.84577 -0.01678
C 1.17694 19.17453 0.01223
C 1.20354 17.83209 0.00648
C 0.21283 16.96946 0.02114
C 34.42929 15.58777 -0.02957
C 1.50806 12.8943 0.00343
C 0.0927 12.75351 -0.02656
C 1.25431 23.43516 0.02712
C 34.40842 11.28698 -0.02442
C 1.13064 9.31318 -0.00583
C 0.00989 8.57253 -0.02302
C 34.39747 7.12927 -0.02849
C 1.2257 6.45487 0.02931
C 1.10332 5.02037 0.00628
C 34.4125 4.22251 -0.0345
C 34.37608 2.80975 -0.00931
C 1.16383 2.2012 -0.00939
C 1.16959 0.73179 -0.00468
C 1.16807 10.74766 -0.00027
C 30.67691 30.50467 0.0014
C 0.0446 24.14048 0.00723
C 1.18435 26.2679 -0.05239
C 33.26948 13.45414 -0.01839
C 32.00927 12.81899 0.00137
C 31.98595 11.36449 0.00199
C 33.10935 10.59312 0.04381
C 33.15074 9.18691 0.02806
C 31.90326 8.46905 0.01504
C 31.9089 7.05616 -0.00069
C 33.05905 6.33834 0.04926
C 33.16165 4.928 -0.03838
C 34.39989 25.53156 0.03076
C 31.99749 4.27995 0.00349
C 33.10056 2.11349 -0.00841
C 33.05215 0.73713 0.0001
C 31.91699 0.01394 -0.02927
C 34.33367 32.6939 -0.01404
C 1.14383 31.98405 0.01027
C 1.18787 30.5487 0.01831
C 34.38821 29.8537 -0.01037
C 34.34612 28.49562 -0.00439
C 1.15783 27.69842 -0.00598
C 31.93207 2.84681 -0.00323
C 23.35482 30.37612 -0.04076
C 30.6866 31.94107 0.01324
C 26.94603 0.01895 0.01177
C 22.01154 2.85631 0.03374
C 23.24455 2.11281 -0.02845
C 23.26379 0.60389 -0.03213
C 22.02455 33.91267 0.02239
C 24.53339 32.5491 0.01153
C 25.68915 31.90498 0.02734
C 25.80708 30.52733 -0.0055
C 24.63074 29.75748 0.01515
C 24.62828 28.32243 -0.00225
C 25.78399 27.63131 0.00071
C 25.81284 26.19124 -0.01107
C 24.56754 25.43312 -0.01586
C 24.49531 24.05849 -0.01971
C 25.78151 23.33979 -0.02118
C 25.80482 21.94748 0.00733
C 24.58925 21.1886 -0.00178
C 24.56565 19.79241 0.00768
C 25.8356 19.08442 -0.0276
C 25.79438 17.70522 0.03005
C 22.03053 4.28879 0.0296
C 23.32399 4.89593 0.03046
C 23.3209 6.38512 -0.00381
C 22.06695 7.09649 0.01852
C 22.1238 28.2554 0.0058
C 23.35888 27.55363 -0.00865
C 23.32946 26.1359 0.00675
C 22.02886 25.38295 -0.00311
C 22.00789 23.93221 0.00742
C 23.23856 23.32444 -0.01594
C 23.33048 21.87297 0.0106
C 22.06372 21.13324 -0.01154
C 22.07405 19.80548 -0.01721
C 24.50759 17.00153 -0.04078
C 23.32591 19.15782 -0.02422
C 22.06167 16.97171 0.00096
C 22.1699 15.56681 -0.01527
C 23.42874 14.8498 0.01087
C 23.40885 13.43883 0.00199
C 22.18889 12.77275 0.01511
C 22.1037 11.34073 -0.00478
C 23.28094 10.61653 -0.01662
C 23.28657 9.23059 -0.01185
C 22.06949 8.53708 0.01126
C 23.38471 17.70432 0.01277
C 24.60917 15.66884 0.02117
C 25.85333 14.90839 0.02737
C 25.82085 13.42634 -0.00498
C 27.02096 21.22498 -0.02815
C 27.05724 19.81045 -0.00942
C 28.29369 19.06298 0.00487
C 28.33273 17.62953 0.00826
C 27.03656 17.06776 -0.00294
C 27.01797 15.60913 0.00152
C 28.28627 14.88776 0.01257
C 28.32625 13.50099 0.02316
C 27.03509 12.71165 0.04185
C 28.20135 21.94048 0.00622
C 27.03817 11.33107 0.00194
C 28.30637 9.22765 0.02611
C 26.99669 8.51585 0.02198
C 27.00777 7.14131 0.01094
C 28.11717 6.32631 0.00235
C 28.07475 4.83316 0.01495
C 26.90905 4.16587 0.01259
C 26.92001 2.73986 0.01799
C 28.23978 2.18247 0.01699
C 28.20633 0.71154 -0.00416
C 28.4102 10.6432 -0.00621
C 29.45687 32.65327 0.04266
C 28.15977 23.40734 -0.0032
C 27.05104 25.55947 -0.01654
C 24.58781 12.70041 0.00135
C 24.61543 11.30535 0.03102
C 25.80567 10.64471 0.02555
C 25.84562 9.20438 0.01423
C 24.5813 8.5617 -0.00285
C 24.41721 7.17206 -0.009
C 25.73426 6.41158 -0.01199
C 25.67749 5.00308 -0.00229
C 24.50067 4.20435 -0.00938
C 27.00405 24.13049 -0.00037
C 24.45471 2.80897 -0.0264
C 25.70142 0.57126 0.00684
C 24.5182 33.95022 -0.01052
C 27.01314 32.71043 -0.01679
C 28.1251 31.98682 0.00367
C 28.15852 30.5134 0.04306
C 26.98401 29.76978 0.00996
C 26.97248 28.35983 0.00195
C 28.14475 27.60509 -0.00802
C 28.23394 26.18566 -0.00218
C 25.68785 2.09032 -0.01154
C 2.41361 32.70734 0.02379
