265
Graphene
C 0.01666 0.1375 0.01295
C 13.42153 5.03747 0.01126
C 13.6408 6.35334 -0.01185
C 12.37084 6.96949 -0.01662
C 11.73955 23.98984 -0.00478
C 12.20598 25.46786 0.01511
C 13.54271 26.14567 0.00199
C 13.65939 27.65558 0.01087
C 12.28767 28.33482 -0.01527
C 12.31823 29.85211 0.00096
C 13.49806 30.51532 0.01277
C 13.52474 31.90055 -0.02422
C 12.31502 32.63145 -0.01721
C 9.82623 0.05092 -0.01154
C 11.10271 0.73168 0.0106
C 11.07868 2.08418 -0.01594
C 9.8101 2.85303 0.00742
C 9.7937 4.22181 -0.00311
C 11.07603 4.97203 0.00675
C 11.00847 6.4349 -0.00865
C 9.82822 7.19586 0.0058
C 9.83606 8.56507 -0.00652
C 11.58192 22.66331 -0.04076
C 11.18454 26.2891 -0.00703
C 10.99159 27.72186 0.00654
C 9.6072 28.24936 -0.04422
C 9.79924 29.69796 -0.02957
C 11.05404 30.44987 -0.00831
C 11.04453 31.92021 0.00364
C 9.84834 32.64098 -0.017
C 12.22727 4.23621 0.01852
C 7.36737 0.11583 0.00143
C 12.3215 2.78312 -0.00381
C 13.59389 0.71149 0.0296
C 17.28864 34.05391 -0.009
C 18.48565 0.73887 -0.00285
C 18.45804 2.15271 0.01423
C 17.14785 2.82954 0.02555
C 17.12514 4.36507 0.03102
C 18.36264 4.99897 0.00135
C 18.53563 6.34008 -0.00498
C 18.99985 28.25285 0.02737
C 17.57264 28.36567 0.02117
C 17.33021 29.74369 -0.04078
C 18.52999 30.54244 0.03005
C 18.47706 31.9081 -0.0276
C 17.26734 32.66864 0.00768
C 14.81716 33.99888 -0.00178
C 16.03588 0.6648 0.00733
C 16.0175 2.08829 -0.02118
C 14.74428 2.84925 -0.01971
C 14.63626 4.22422 -0.01586
C 15.93289 5.11787 -0.01107
C 15.78366 6.56781 0.00071
C 14.94616 25.63418 -0.00225
C 15.91161 26.24669 0.01515
C 16.16812 27.57684 -0.0055
C 14.84834 28.38842 0.02734
C 14.74897 29.72755 0.01153
C 16.00644 30.45165 0.02239
C 16.05318 31.91939 -0.03213
C 14.85179 32.64375 -0.02845
C 12.38524 0.02628 0.03374
C 13.48046 2.08321 0.03046
C 8.59376 0.76525 0.00667
C 8.64243 2.12024 -0.0054
C 7.34475 2.85985 0.00755
C 5.81382 19.37047 -0.03113
C 4.57242 20.08298 0.0351
C 4.01115 21.26509 0.00422
C 6.14713 30.60568 0.00798
C 6.09229 32.03178 0.00228
C 4.90865 32.7839 -0.00114
C 2.45168 0.05723 -0.02696
C 3.66564 0.79377 -0.00368
C 3.66614 2.21897 -0.0108
C 2.42568 2.94704 -0.01957
C 2.43812 4.35962 0.02058
C 3.71386 5.06952 0.01965
C 3.74664 6.48912 -0.03682
C 2.44459 7.1828 0.00052
C 2.43465 8.64617 0.00374
C 3.73989 9.29759 -0.02813
C 3.72542 10.72547 -0.01952
C 2.49589 11.40201 0.05265
C 2.44797 12.78892 -0.01717
C 3.58555 13.59474 0.00244
C 3.60654 15.01479 0.02299
C 2.39007 15.65806 0.03542
C 2.32913 17.09968 0.01416
C 3.51623 17.73564 0.01945
C 3.57731 19.04985 -0.01454
C 2.35186 19.70947 0.01241
C 2.48794 21.12843 0.0076
C 2.44568 30.11784 0.02162
C 3.60434 30.58818 -0.0014
C 6.01462 17.68478 0.02098
C 4.78274 17.04525 0.01848
C 4.79981 15.67077 -0.00619
C 5.98102 15.06147 -0.02162
C 7.38333 4.25789 0.01739
C 8.60877 4.99053 0.03754
C 8.53659 6.38083 -0.03557
C 7.30648 7.16582 -0.00111
C 7.36238 8.58612 0.04892
C 8.64883 9.22199 0.01452
C 8.54706 10.68163 -0.01581
C 7.43753 11.45681 0.02691
C 7.33064 12.82102 -0.01979
C 6.66475 20.40356 0.02188
C 7.38718 21.43942 -0.00316
C 8.40419 22.3852 -0.0331
C 7.39921 30.03908 -0.0258
C 8.62432 30.46558 0.03338
C 19.71049 32.61432 -0.01199
C 8.59252 31.95603 -0.00491
C 4.86019 0.10991 0.03698
C 6.07493 0.76964 -0.02213
C 6.16215 2.19526 0.00028
C 4.8907 2.91988 -0.00289
C 4.96422 4.31937 -0.00066
C 6.18067 4.96174 0.00213
C 6.07734 6.4044 -0.05302
C 4.98234 7.20186 -0.04147
C 4.97181 8.594 -0.02815
C 6.1465 9.31802 0.03505
C 6.15261 10.72525 0.01443
C 4.89803 11.44834 0.00979
C 4.86035 12.9508 -0.00481
C 6.25708 13.66809 0.00889
C 7.37702 32.68965 -0.00109
C 3.71996 32.05381 0.00415
C 20.85275 31.91138 -0.00229
C 19.77552 29.62939 -0.0264
C 33.14645 2.19433 -0.00323
C 31.97121 2.92104 0.00349
C 32.0545 4.29192 -0.03838
C 33.23303 5.05193 0.04926
C 33.16449 6.49626 -0.00069
C 31.88952 7.18946 0.01504
C 31.92943 8.59897 0.02806
C 33.15313 9.37596 0.04381
C 33.05184 10.76268 0.00199
C 31.81674 11.41959 0.00137
C 31.85638 12.84129 -0.01839
C 33.13344 13.46532 -0.00644
C 33.0064 14.86824 0.00455
C 31.97911 15.76902 0.00369
C 33.15881 17.57404 -0.02474
C 33.00254 18.99902 0.00594
C 32.86185 26.20366 -0.0136
C 32.86864 27.69162 -0.01429
C 31.90798 28.62883 -0.02383
C 31.95225 29.93354 0.01574
C 33.18125 30.66654 0.01927
C 33.24015 32.15629 0.03794
C 32.03593 32.76718 -0.01779
C 29.46974 0.08884 0.00682
C 30.71342 0.77076 0.00026
C 30.77074 2.20547 0.0544
C 29.47388 2.85847 -0.02142
C 29.4935 4.27744 0.01428
C 30.7919 5.00397 -0.01694
C 33.20342 0.78421 -0.00841
C 30.68333 6.43975 0.01713
C 31.99096 0.07538 0.0001
C 1.17199 32.03874 -0.01404
C 1.2426 0.79007 -0.00468
C 1.26714 2.20282 -0.00939
C 34.38919 2.89409 -0.00931
C 0.02174 4.30944 -0.0345
C 1.24337 5.06076 0.00628
C 1.21145 6.44992 0.02931
C 34.35263 7.20234 -0.02849
C 34.38854 8.6333 -0.02302
C 1.21271 9.30208 -0.00583
C 1.20866 10.72778 -0.00027
C 34.3816 11.40304 -0.02442
C 34.43271 12.74969 -0.02656
C 1.25845 13.46234 0.00343
C 1.23999 14.84393 -0.02957
C 34.35571 15.51845 0.02114
C 34.42243 16.90218 0.00648
C 1.12421 17.7173 0.01223
C 1.09868 19.14953 -0.01678
C 34.18775 19.71158 0.01951
C 0.1915 21.21092 -0.02213
C 1.44641 21.79599 0.02712
C 0.51593 22.92107 0.00723
C 0.19925 24.09347 0.03076
C 34.07549 25.44507 -0.05239
C 0.55468 26.51921 -0.00598
C 1.04829 27.75859 -0.00439
C 34.26215 28.51873 -0.01037
C 34.36036 29.95808 0.01831
C 1.16161 30.59251 0.01027
C 34.43173 32.83443 -0.02927
C 29.53655 7.19097 0.00346
C 29.48075 8.57481 0.00307
C 30.61622 9.33314 0.00716
C 24.4937 8.53383 0.00235
C 25.81976 9.17582 0.01094
C 25.84856 10.51221 0.02198
C 24.60899 11.28468 0.02611
C 24.59924 12.70446 -0.00621
C 25.80943 32.00712 0.00194
C 24.45738 32.4339 0.04185
C 22.0939 0.00837 0.02316
C 23.34259 0.67682 0.01257
C 23.41249 2.05366 0.00152
C 22.16354 2.7822 -0.00294
C 22.19461 4.23093 0.00826
C 23.43169 4.94705 0.00487
C 23.34437 6.39521 -0.00942
C 22.08193 7.14642 -0.02815
C 22.10719 8.62492 0.00622
C 23.26414 9.32856 -0.0032
C 23.23942 10.82944 -0.00037
C 22.44827 30.43273 -0.01654
C 23.18905 31.79793 -0.00218
C 22.07939 32.67874 -0.00802
C 19.69105 0.07111 0.00195
C 20.92048 0.72217 0.00996
C 20.98284 2.121 0.04306
C 19.67829 2.85367 0.00367
C 19.7467 4.30007 -0.01679
C 20.97778 4.92996 -0.01052
C 20.88565 6.43868 0.00684
C 19.61648 6.9229 -0.01154
C 24.54674 7.14509 0.01495
C 25.81863 6.50413 0.01259
C 25.8692 5.0613 0.01799
C 24.62884 4.21117 0.01699
C 30.63616 10.82166 0.02108
C 29.41658 11.45007 0.0103
C 29.38597 12.94192 0.07705
C 30.65855 13.67795 0.01908
C 30.68464 15.09557 0.01518
C 29.42767 30.04996 -0.00971
C 30.73141 30.61156 -0.03735
C 30.73438 32.0297 -0.00944
C 29.51106 32.75021 -0.02155
C 27.00111 0.04333 -0.01461
C 28.26157 0.75381 -0.01303
C 28.20742 2.12461 -0.0405
C 27.00403 2.83559 0.01705
C 27.05094 4.28671 0.0101
C 21.18781 30.43742 -0.00938
C 28.28605 4.96551 -0.00669
C 27.08093 7.16207 0.01836
C 27.05198 8.60669 -0.03039
C 28.22052 9.33093 -0.01415
C 28.23232 10.73413 -0.01854
C 26.92529 11.35349 -0.02049
C 26.8332 12.75767 0.03265
C 28.05251 13.28602 0.00261
C 28.44132 30.68722 0.02326
C 28.22845 32.00206 0.00924
C 27.0264 32.72695 0.0014
C 24.51156 33.99357 0.01324
C 25.79062 0.70537 0.04266
C 25.82487 2.16042 0.01177
C 24.63418 2.77966 -0.00416
C 28.31154 6.4381 0.03531
C 2.47775 32.69803 -0.02162
