351
Graphene
C 0.01511 0.02067 0.01295
C 14.79223 0.00688 0.00228
C 17.19755 32.68595 0.00798
C 18.39317 32.01771 0.00422
C 18.45546 26.21861 0.0351
C 17.25485 25.57328 -0.03113
C 17.23109 24.14923 0.02098
C 18.4207 23.38953 0.01848
C 18.42977 22.00863 -0.00619
C 15.96505 0.62489 -0.00114
C 17.20739 21.30333 -0.02162
C 18.46469 19.1971 -0.00481
C 18.45034 17.72468 0.00979
C 18.47433 4.9711 0.01443
C 17.25487 4.23161 0.03505
C 17.18776 2.88882 -0.02815
C 18.46908 2.13238 -0.04147
C 18.44061 0.68839 -0.05302
C 17.16537 34.0425 0.00213
C 17.24513 19.84496 0.00889
C 19.62746 32.63379 -0.00066
C 15.97068 2.12932 -0.02696
C 15.99516 19.15013 -0.0108
C 11.05048 2.15262 0.0076
C 11.01516 0.73575 0.01241
C 9.86324 34.07393 -0.01454
C 12.29832 24.15833 0.01945
C 13.52733 23.48411 0.01416
C 13.5324 22.01172 0.03542
C 12.3277 21.31357 0.02299
C 12.32064 19.85292 0.00244
C 14.79049 2.84979 -0.00368
C 13.54348 19.23432 -0.01717
C 13.49741 2.1312 -0.01952
C 13.50344 0.72255 -0.02813
C 12.31348 34.03165 0.00374
C 14.75365 24.11396 0.00052
C 16.02488 23.46767 -0.03682
C 16.04546 22.00637 0.01965
C 14.7487 21.24316 0.02058
C 14.73751 19.89255 -0.01957
C 12.32889 2.78315 0.05265
C 9.80524 2.83398 0.02162
C 20.91887 31.94523 -0.00289
C 19.7562 29.80455 -0.02213
C 20.91854 2.18098 0.00364
C 20.94053 0.73035 -0.00831
C 19.65277 0.07433 -0.02957
C 22.11889 32.68954 -0.04422
C 23.35241 31.93506 0.00654
C 23.35356 30.4825 -0.00703
C 22.16168 29.84302 -0.04076
C 22.1687 28.39177 -0.00652
C 19.65776 2.84454 -0.017
C 23.36386 27.69958 0.0058
C 22.16171 25.54749 0.00675
C 22.16603 24.18226 -0.00311
C 23.37632 23.39885 0.00742
C 23.39585 21.97387 -0.01594
C 22.15366 21.28 0.0106
C 22.15248 19.8671 -0.01154
C 23.31724 19.17182 -0.01721
C 23.32371 17.73745 -0.02422
C 23.37319 26.23189 -0.00865
C 20.96038 30.51069 0.00028
C 19.6766 4.27717 0.00143
C 20.88947 6.38218 -0.0054
C 19.65007 28.43174 0.03698
C 20.85487 27.67639 -0.00109
C 20.89253 26.26526 -0.00491
C 19.64306 25.56426 0.03338
C 19.7069 24.1144 -0.0258
C 20.90939 23.41669 -0.0331
C 20.88734 22.04509 -0.00316
C 19.67504 21.32563 0.02188
C 20.93033 4.98462 0.00667
C 19.69964 19.88137 -0.01979
C 20.92018 17.72856 -0.01581
C 19.64925 17.01654 0.01452
C 19.68247 15.59905 0.04892
C 20.94705 14.92804 -0.00111
C 20.87842 13.46669 -0.03557
C 20.90751 10.64037 0.03754
C 20.89166 9.24381 0.01739
C 19.65923 7.07759 0.00755
C 20.87778 19.19767 0.02691
C 22.13351 17.03689 0.01277
C 11.10468 19.17242 -0.0014
C 9.8261 21.27589 -0.02162
C 2.42552 7.06756 0.01572
C 3.62737 6.36658 -0.04848
C 3.70614 4.94574 -0.00892
C 2.40722 4.2491 -0.01362
C 2.46813 2.85655 -0.0008
C 3.73657 2.14646 0.0288
C 3.67935 0.77179 0.00393
C 2.48564 34.06366 0.00895
C 2.44252 8.50907 -0.00095
C 4.90566 32.6893 0.00685
C 6.15163 30.56292 -0.00482
C 4.91011 29.75863 -0.01384
C 4.91375 28.40531 0.03693
C 6.11496 27.68561 0.01745
C 6.10451 26.27828 0.00488
C 4.8814 25.57603 -0.01004
C 4.91027 24.20944 -0.02896
C 6.16735 23.42172 -0.00131
C 6.15773 31.9552 0.02888
C 6.17765 22.00021 -0.01118
C 3.70347 9.21978 0.03007
C 2.4244 11.36949 -0.00494
C 3.69778 30.56244 0.01305
C 2.44535 29.8211 -0.00077
C 2.44538 28.40822 0.03368
C 3.68612 27.69503 -0.02929
C 3.71467 26.24437 -0.00966
C 2.48141 25.57006 -0.03337
C 2.4485 24.13538 0.01227
C 3.7729 23.44173 0.00873
C 3.70557 10.63714 0.00054
C 3.65577 21.99016 -0.00049
C 2.46861 19.94818 -0.01303
C 3.69577 19.2057 -0.01378
C 3.72984 17.73001 0.02635
C 2.45402 17.06667 0.0127
C 2.49042 15.60603 0.01396
C 3.6857 14.90273 0.01849
C 3.74676 13.48582 -0.01142
C 2.39352 12.73278 -0.00562
C 2.43589 21.35008 0.00848
C 9.7878 19.9115 0.00415
C 4.89119 21.30798 -0.014
C 6.17832 19.2113 0.00373
C 8.61221 21.99278 -0.01275
C 7.41453 21.31366 0.00985
C 7.3934 19.92129 -0.02245
C 8.58897 19.20569 -0.00428
C 8.57205 17.74644 0.03101
C 7.35372 16.99893 -0.01536
C 7.35828 4.23681 -0.02689
C 7.43502 2.8717 -0.01046
C 8.60013 23.40117 -0.01111
C 8.65051 2.14422 -0.00891
C 7.38735 0.05596 0.00165
C 9.80604 32.68106 -0.02971
C 9.86557 29.78044 0.02894
C 9.86227 28.44575 -0.01789
C 9.8404 25.58249 0.00444
C 9.80177 24.07353 -0.00925
C 11.06021 23.41973 0.01877
C 11.05947 22.01616 0.01363
C 8.59083 0.66054 0.02819
C 4.9149 19.88118 0.02147
C 7.35813 24.17468 0.02841
C 8.5874 26.30025 0.00406
C 6.17785 17.73441 -0.00191
C 4.94242 17.05256 0.00438
C 4.88485 15.65883 0.01291
C 4.95814 8.53471 0.00093
C 4.91967 7.08783 0.00057
C 6.15103 6.41168 -0.01634
C 6.2064 5.01263 -0.00334
C 4.9258 4.27871 0.02339
C 7.34055 25.5791 0.00943
C 4.96301 2.85094 0.01641
C 6.1526 0.76448 0.01364
C 4.93346 0.06333 -0.01062
C 7.39133 32.69845 -0.00033
C 8.57202 32.00505 0.03589
C 8.59491 30.54601 -0.02759
C 7.39313 29.83749 0.0402
C 7.32117 28.3968 0.00572
C 8.59261 27.7411 0.03592
C 6.19089 2.13802 -0.00719
C 3.67713 31.96374 0.0276
C 22.09661 15.62401 0.00096
C 23.35903 13.49632 0.01087
C 33.22029 31.9542 -0.01694
C 33.1677 30.52326 0.01428
C 31.95396 29.83205 -0.02142
C 31.99572 28.37619 0.0544
C 33.22403 27.69196 0.00026
C 33.15635 26.30644 0.00682
C 31.94737 25.56286 -0.01779
C 32.0147 24.19128 0.03794
C 31.96441 32.61895 0.01713
C 33.21776 23.43207 0.01927
C 31.96773 21.30477 -0.02383
C 31.98291 19.88604 -0.01429
C 33.19109 19.20217 -0.0136
C 33.12617 17.759 0.00594
C 31.94511 17.05135 -0.02474
C 31.98155 15.55718 0.00369
C 33.22377 14.91828 0.00455
C 33.19166 13.47094 -0.00644
C 33.21999 22.02394 0.01574
C 31.95833 12.76122 -0.01839
C 29.5121 34.05682 0.00346
C 30.74271 2.13071 0.00716
C 29.57459 21.31561 -0.03039
C 29.53609 19.89469 0.01836
C 30.72668 19.1472 0.03531
C 30.7452 17.73434 -0.00669
C 29.48964 17.03507 0.0101
C 29.47942 15.64674 0.01705
C 30.80699 14.91714 -0.0405
C 30.75334 13.46451 -0.01303
C 30.78575 0.67516 0.00307
C 29.49776 12.80808 -0.01461
C 30.74966 10.64499 -0.00944
C 30.75403 9.26272 -0.03735
C 29.49306 8.51338 -0.00971
C 29.51886 7.08585 0.01518
C 30.73956 6.42877 0.01908
C 30.78125 5.01128 0.07705
C 29.49797 4.19909 0.0103
C 29.54645 2.82663 0.02108
C 29.54104 11.37329 -0.02155
C 30.73788 22.05849 -0.01415
C 31.96992 11.30401 0.00137
C 33.14785 9.24962 0.04381
C 1.27902 19.15482 -0.01678
C 1.19552 17.71074 0.01223
C 34.40968 17.02887 0.00648
C 34.40201 15.59494 0.02114
C 1.20183 14.92851 -0.02957
C 1.22214 13.50617 0.00343
C 0.00993 12.71472 -0.02656
C 0.00399 11.36117 -0.02442
C 34.43042 19.90982 0.01951
C 1.25759 10.66579 -0.00027
C 34.41826 8.47555 -0.02302
C 0.0024 7.1052 -0.02849
C 1.23826 6.34992 0.02931
C 1.19376 4.94465 0.00628
C 0.00888 4.21501 -0.0345
C 0.00741 2.83594 -0.00931
C 1.24643 2.14973 -0.00939
C 1.27146 0.75399 -0.00468
C 1.22344 9.2223 -0.00583
C 33.21188 10.67655 0.00199
C 34.39805 21.31515 -0.02213
C 1.22853 23.45129 0.00723
C 31.97864 8.50541 0.02806
C 31.98767 7.14738 0.01504
C 33.22071 6.39219 -0.00069
C 33.18531 4.94172 0.04926
C 31.97379 4.28548 -0.03838
C 31.98264 2.87666 0.00349
C 33.21829 2.15792 -0.00323
C 33.17229 0.63563 -0.00841
C 1.1836 22.01076 0.02712
C 31.96839 34.07654 0.0001
C 1.27252 31.9643 -0.01404
C 1.19062 30.5004 0.01027
C 34.3849 29.82261 0.01831
C 34.43078 28.3939 -0.01037
C 1.21226 27.66244 -0.00439
C 1.23537 26.2327 -0.00598
C 34.42721 25.6285 -0.05239
C 34.42799 24.18093 0.03076
C 34.4319 32.65499 -0.02927
C 23.34937 14.90641 -0.01527
C 30.72147 23.42583 -0.01854
C 29.46844 25.54686 0.03265
C 25.82763 23.45857 -0.01971
C 25.83557 21.97214 -0.02118
C 24.58371 21.29642 0.00733
C 24.56229 19.87666 -0.00178
C 25.80016 19.18778 0.00768
C 25.81588 17.81493 -0.0276
C 24.57068 17.06373 0.03005
C 24.54441 15.6018 -0.04078
C 24.60308 24.15524 -0.01586
C 25.81817 14.92658 0.02117
C 24.641 12.81257 -0.00498
C 24.58436 11.36151 0.00135
C 25.81603 10.63057 0.03102
C 25.79844 9.21618 0.02555
C 24.58247 8.57324 0.01423
C 24.60694 7.04696 -0.00285
C 25.82713 6.36861 -0.009
C 25.80361 4.93936 -0.01199
C 25.84257 13.51993 0.02737
C 24.59952 4.28123 -0.00229
C 24.54706 25.50639 -0.01107
C 25.78953 27.69647 -0.00225
C 22.15235 12.7669 0.00199
C 22.1113 11.31922 0.01511
C 23.34707 10.66277 -0.00478
C 23.36956 9.20842 -0.01662
C 22.13101 8.50517 -0.01185
C 22.18988 7.08824 0.01126
C 23.34009 6.35396 0.01852
C 23.38046 4.91499 -0.00381
C 25.79281 26.28553 0.00071
C 22.11415 4.23934 0.03046
C 23.36442 2.11186 0.03374
C 23.3955 0.68011 -0.02845
C 22.12739 0.01402 -0.03213
C 24.549 32.70708 0.02239
C 25.80167 31.93107 0.01153
C 25.78975 30.46465 0.02734
C 24.55553 29.8166 -0.0055
C 24.61576 28.39946 0.01515
C 22.1695 2.8358 0.0296
C 29.45088 24.09908 -0.02049
C 24.57737 2.8221 -0.00938
C 25.86374 0.7206 -0.01154
C 28.2965 10.63753 0.00194
C 28.30984 9.21227 -0.00621
C 27.09283 8.50167 0.02611
C 27.07772 7.08973 0.02198
C 28.29596 6.38391 0.01094
C 28.30668 4.92415 0.00235
C 27.01714 4.23284 0.01495
C 27.04719 2.87084 0.01259
C 27.0932 11.31039 0.04185
C 28.34285 2.09699 0.01799
C 27.0413 34.04192 -0.00416
C 29.48451 32.64914 0.01177
C 30.7735 31.93442 0.04266
C 30.73892 30.51404 0.01324
C 29.543 29.81904 0.0014
C 29.49572 28.37706 0.00924
C 30.76924 27.67886 0.02326
C 30.74677 26.25217 0.00261
C 28.31532 0.70756 0.01699
C 25.83417 2.16614 -0.0264
C 27.04346 12.78578 0.02316
C 28.30535 14.85106 0.00152
C 24.57819 0.0142 0.00684
C 27.06453 32.63444 -0.01052
C 28.29777 31.97715 -0.01679
C 28.25793 30.54304 0.00367
C 27.07448 29.85015 0.04306
C 27.02164 28.42238 0.00996
C 28.28064 27.68224 0.00195
C 28.31412 26.2942 -0.00802
C 28.28061 13.53904 0.01257
C 27.05774 25.55977 -0.00218
C 28.2972 23.44949 -0.00037
C 28.33515 22.02306 -0.0032
C 27.07895 21.27698 0.00622
C 27.0099 19.83302 -0.02815
C 28.30651 19.17799 -0.00942
C 28.26286 17.71891 0.00487
C 27.13021 17.06664 0.00826
C 27.02112 15.65683 -0.00294
C 27.05263 24.14113 -0.01654
C 2.45678 32.65804 0.00988
