438
Graphene
C 0.03807 34.06177 0.01295
C 12.34489 21.32262 -0.00334
C 12.24984 19.94988 0.02339
C 13.5133 19.18403 0.01641
C 13.45177 17.68108 -0.00719
C 12.25452 17.04213 0.01364
C 12.28887 15.60885 -0.01062
C 13.48917 14.89676 -0.00033
C 13.54802 13.47417 0.03589
C 12.25451 12.78336 -0.02759
C 12.25971 11.41872 0.0402
C 13.51787 10.71856 0.00572
C 13.54808 9.21812 0.03592
C 12.32437 8.49443 0.00406
C 12.31774 7.06092 0.00943
C 13.48098 6.40743 0.02841
C 13.52277 4.90786 -0.01111
C 12.25569 4.23707 -0.01275
C 12.23406 2.87977 0.00985
C 13.542 2.09715 -0.02245
C 13.50653 0.7268 -0.00428
C 12.29823 34.07629 0.03101
C 14.78483 32.59791 -0.01536
C 15.98841 31.93247 -0.02689
C 13.44216 22.07338 -0.01634
C 15.96783 30.47999 -0.01046
C 13.52218 23.44353 0.00057
C 12.35943 25.60043 0.01291
C 9.84262 15.69596 -0.04848
C 11.02069 14.92866 -0.00892
C 11.00144 13.51729 -0.01362
C 9.77904 12.79085 -0.0008
C 9.82533 11.36949 0.0288
C 11.06561 10.61371 0.00393
C 11.06145 9.26555 0.00895
C 9.8087 8.53535 0.00685
C 9.86131 7.14688 0.02888
C 11.04592 6.42515 -0.00482
C 11.07098 4.97293 -0.01384
C 9.78023 4.24656 0.03693
C 9.77673 2.93203 0.01745
C 11.06403 2.10746 0.00488
C 11.03229 0.67946 -0.01004
C 9.79124 0.02432 -0.02896
C 12.27167 32.62971 -0.00131
C 13.4517 32.01739 -0.01118
C 13.48605 30.58618 -0.014
C 12.26286 29.90398 0.02147
C 12.22419 28.49033 0.00373
C 13.50512 27.78873 -0.00191
C 13.51374 26.37071 0.00438
C 12.26196 24.18163 0.00093
C 14.69447 29.81096 -0.00891
C 14.76212 28.45523 0.02819
C 15.97953 27.68673 0.00165
C 18.42458 30.50529 -0.01957
C 17.2254 29.82051 -0.0108
C 17.19502 28.33043 -0.00368
C 18.44007 27.68337 -0.02696
C 18.37455 26.2293 -0.00114
C 17.18986 25.51429 0.00228
C 17.19943 24.15174 0.00798
C 18.39687 23.40921 0.00422
C 18.36464 21.96125 0.0351
C 17.13941 21.26446 -0.03113
C 17.11694 19.89481 0.02098
C 18.33921 19.16172 0.01848
C 18.34871 17.73089 -0.00619
C 17.13843 16.99698 -0.02162
C 17.19616 15.56001 0.00889
C 18.42942 14.92686 -0.00481
C 18.45771 13.50992 0.00979
C 17.1747 12.88306 0.01443
C 17.22395 11.41749 0.03505
C 18.44602 10.5625 -0.02815
C 18.42821 9.17699 -0.04147
C 17.2042 8.50776 -0.05302
C 17.23387 7.11702 0.00213
C 18.44664 31.95524 0.02058
C 17.24297 32.71761 0.01965
C 14.78267 0.04564 -0.03682
C 15.94238 0.73731 0.00052
C 15.93195 26.28639 -0.02971
C 14.68849 25.65172 0.02894
C 14.73151 24.14937 -0.01789
C 15.97692 23.44146 0.00444
C 15.89463 22.02952 -0.00925
C 14.71272 21.34321 0.01877
C 14.67773 19.93287 0.01363
C 15.88902 19.15706 -0.02162
C 15.92972 17.73634 0.00415
C 14.70453 17.0405 -0.0014
C 14.68565 15.64406 0.02162
C 9.88262 17.06845 0.01572
C 15.94784 14.94042 0.0076
C 14.75649 12.78206 -0.01454
C 14.77528 11.2893 0.01945
C 15.96527 10.66976 0.01416
C 15.99925 9.24154 0.03542
C 14.78495 8.54714 0.02299
C 14.76451 7.02814 0.00244
C 16.00492 6.42208 -0.01717
C 15.96982 5.01757 0.05265
C 14.73836 4.22577 -0.01952
C 14.73265 2.81903 -0.02813
C 15.92242 2.16561 0.00374
C 15.93651 13.49321 0.01241
C 11.03809 17.80546 -0.00095
C 11.06494 19.22442 0.03007
C 9.85033 19.94358 0.00054
C 3.64533 0.79099 0.00828
C 2.49127 34.04887 -0.02375
C 4.84554 32.65517 0.00558
C 6.0611 32.00973 -0.0059
C 6.07274 30.59687 -0.01386
C 4.90397 29.76542 -0.02805
C 4.89192 28.4024 0.00081
C 6.13677 27.71596 0.00245
C 6.19035 26.3127 0.02728
C 4.91261 25.60436 -0.00039
C 5.00018 24.15818 0.0064
C 6.20771 23.46647 0.00211
C 6.15328 21.9587 -0.00449
C 4.87883 21.33535 -0.01979
C 4.90066 19.93316 0.02784
C 6.20879 19.21309 -0.01977
C 6.07469 17.7413 -0.00561
C 4.88888 17.08771 0.00208
C 4.79797 15.63231 0.01707
C 6.08549 14.94245 0.02769
C 6.04943 13.47205 -0.03291
C 4.76984 12.78191 -0.04999
C 4.8403 11.4212 0.04505
C 3.64398 2.12809 0.00088
C 2.44325 2.85309 0.04421
C 2.45947 4.28446 -0.00177
C 3.67018 4.9666 0.03278
C 3.66537 30.56937 -0.00018
C 2.45045 29.85317 0.01073
C 2.45351 28.45821 0.01984
C 3.65221 27.70429 0.00535
C 3.61893 26.25296 -0.00198
C 2.44005 25.54843 -0.00012
C 2.53633 24.18895 -0.04306
C 3.74893 23.46726 -0.03672
C 3.65436 22.02875 0.01913
C 2.45885 21.25047 0.00267
C 2.49171 19.85732 0.00787
C 6.09165 10.73915 0.03284
C 3.68299 19.1283 0.02426
C 2.35506 17.03754 -0.01471
C 2.27476 15.56354 -0.02827
C 3.58769 14.90827 0.01078
C 3.53603 13.5144 -0.00112
C 2.34344 12.77824 0.03345
C 2.45422 11.28232 0.00748
C 3.62353 10.65891 0.00662
C 3.6874 9.26096 -0.0154
C 2.53013 8.53408 -0.01299
C 2.42567 7.08259 -0.00407
C 3.66115 6.3909 0.01138
C 3.65678 17.77484 0.01218
C 18.42308 6.39323 -0.00066
C 6.17988 9.38545 -0.04307
C 4.9163 7.16321 0.00031
C 8.52312 10.73559 0.01087
C 8.55945 9.28538 -0.01343
C 7.44126 8.53405 0.00988
C 7.41682 7.15163 0.0276
C 8.66243 6.40294 0.01305
C 8.64433 5.0142 -0.00077
C 7.34545 4.27815 0.03368
C 7.35608 2.89342 -0.02929
C 8.57226 2.16858 -0.00966
C 8.55714 0.76304 -0.03337
C 7.33426 0.08517 0.01227
C 9.70508 32.70588 0.00873
C 10.9691 31.92369 -0.00049
C 11.07722 30.50381 0.00848
C 9.82315 29.98384 -0.01303
C 9.77812 28.51717 -0.01378
C 11.00396 27.79612 0.02635
C 11.06417 26.38179 0.0127
C 9.84846 25.60881 0.01396
C 9.81138 24.20946 0.01849
C 11.00935 23.45849 -0.01142
C 11.09012 22.12324 -0.00562
C 9.8504 21.37347 -0.00494
C 7.36805 11.5044 -0.05697
C 7.36399 12.87629 -0.00725
C 8.52398 13.59857 0.02322
C 8.53527 15.01324 -0.00094
C 6.12892 6.43528 -0.003
C 6.19826 5.0901 0.01402
C 4.91219 4.31549 0.02379
C 4.88864 2.93686 0.00907
C 6.10541 2.16189 0.00643
C 6.138 0.75482 -0.01509
C 4.95601 0.03901 0.03267
C 7.3339 32.71538 0.02374
C 8.52165 31.98897 0.00402
C 8.56206 30.5309 0.0073
C 7.35376 29.80798 0.0174
C 4.94743 8.62935 0.03189
C 7.31743 28.42815 0.03828
C 8.67837 26.30204 -0.00279
C 7.36168 25.59996 0.01996
C 7.43684 24.1481 -0.03996
C 8.54042 23.43228 0.01465
C 8.62635 22.02623 -0.00074
C 7.42914 21.33803 -0.00518
C 7.40031 19.91017 0.0086
C 8.61891 19.19947 -0.00643
C 8.60647 17.78739 0.017
C 7.39538 17.09858 -0.03113
C 7.32674 15.60515 -0.02566
C 8.63801 27.71135 0.01226
C 18.38152 5.00147 -0.00289
C 17.16153 4.33549 0.00028
C 17.13955 2.84404 -0.02213
C 30.71572 14.89594 -0.0405
C 30.70992 13.44306 -0.01303
C 29.43375 12.70608 -0.01461
C 29.49395 11.29439 -0.02155
C 30.74888 10.51219 -0.00944
C 30.73041 9.16467 -0.03735
C 29.52071 8.4752 -0.00971
C 29.4759 6.96726 0.01518
C 30.77136 6.26095 0.01908
C 30.74051 4.8733 0.07705
C 29.57322 4.21197 0.0103
C 29.53005 2.75819 0.02108
C 30.71252 2.09824 0.00716
C 30.74999 0.65804 0.00307
C 29.45824 34.01697 0.00346
C 31.84946 32.59486 0.01713
C 33.15983 31.96923 -0.01694
C 33.15425 30.56341 0.01428
C 31.90894 29.89647 -0.02142
C 31.87933 28.3942 0.0544
C 33.15667 27.72223 0.00026
C 33.01819 26.29562 0.00682
C 31.77385 25.68693 -0.01779
C 29.44979 15.55463 0.01705
C 29.4532 17.07714 0.0101
C 30.67403 17.80769 -0.00669
C 30.75419 19.20125 0.03531
C 27.04788 12.80492 0.00194
C 26.99503 11.33698 -0.00621
C 28.28503 10.67712 0.02611
C 28.29317 9.10947 0.02198
C 27.08486 8.46973 0.01094
C 27.01618 7.04893 0.00235
C 28.28461 6.35742 0.01495
C 28.30839 4.94541 0.01259
C 27.10186 4.32645 0.01799
C 27.10291 2.82851 0.01699
C 28.29895 2.09388 -0.00416
C 31.88329 24.22747 0.03794
C 28.28363 0.74078 0.01177
C 29.29312 32.72075 0.01324
C 30.54312 31.91994 0.0014
C 30.67843 30.50046 0.00924
C 30.58353 27.815 0.02326
C 30.49437 26.41949 0.00261
C 29.30567 25.63134 0.03265
C 29.44723 24.11118 -0.02049
C 30.69142 23.43832 -0.01854
C 30.67069 22.02658 -0.01415
C 29.48067 21.25129 -0.03039
C 29.49955 19.85766 0.01836
C 27.06392 34.02073 0.04266
C 28.24452 13.49722 0.04185
C 33.14202 23.46378 0.01927
C 32.00385 21.34499 -0.02383
C 34.38046 24.1838 0.03076
C 1.21383 23.4482 0.00723
C 1.20389 22.02964 0.02712
C 0.01655 21.29256 -0.02213
C 34.40464 19.91974 0.01951
C 1.22635 19.14986 -0.01678
C 1.24246 17.74965 0.01223
C 34.38437 16.98222 0.00648
C 34.34201 15.60539 0.02114
C 1.11774 14.90562 -0.02957
C 1.11005 13.42947 0.00343
C 34.36966 12.70087 -0.02656
C 34.4069 11.26798 -0.02442
C 1.21823 10.57916 -0.00027
C 1.22757 9.2067 -0.00583
C 0.02027 8.43715 -0.02302
C 0.05237 7.01566 -0.02849
C 1.29585 6.37603 0.02931
C 1.2313 4.94222 0.00628
C 0.08577 4.22306 -0.0345
C 0.08093 2.84148 -0.00931
C 1.2469 2.11587 -0.00939
C 1.26749 0.69753 -0.00468
C 34.34825 25.57085 -0.05239
C 1.19538 26.3007 -0.00598
C 1.18323 27.71755 -0.00439
C 34.33636 28.3818 -0.01037
C 32.02477 19.89989 -0.01429
C 33.14591 19.15777 -0.0136
C 33.19044 17.68445 0.00594
C 31.8893 17.02837 -0.02474
C 31.89221 15.59716 0.00369
C 33.12281 14.79731 0.00455
C 33.15238 13.41211 -0.00644
C 31.86161 12.72444 -0.01839
C 31.9615 11.23435 0.00137
C 33.17256 10.53681 0.00199
C 33.18795 9.13208 0.04381
C 33.21839 21.97725 0.01574
C 31.98101 8.39362 0.02806
C 33.2056 6.27287 -0.00069
C 33.20941 4.90357 0.04926
C 32.00865 4.14215 -0.03838
C 32.00771 2.73649 0.00349
C 33.20403 2.08921 -0.00323
C 33.18704 0.63347 -0.00841
C 31.91428 34.01527 0.0001
C 34.42929 32.62814 -0.02927
C 1.23969 31.92142 -0.01404
C 1.22605 30.52579 0.01027
C 0.00156 29.86882 0.01831
C 32.02189 7.00522 0.01504
C 3.71762 31.9364 -0.0005
C 28.24547 14.93712 0.02316
C 27.01567 17.10554 0.00152
C 20.98101 6.34415 -0.04076
C 20.87505 5.01327 -0.00652
C 19.63366 4.26968 0.0058
C 19.65717 2.86007 -0.00865
C 20.89175 2.11884 0.00675
C 20.85829 0.76793 -0.00311
C 19.63503 0.03457 0.00742
C 22.0791 32.72466 -0.01594
C 23.34962 32.00205 0.0106
C 23.40715 30.65307 -0.01154
C 22.1811 29.82352 -0.01721
C 22.14619 28.4317 -0.02422
C 23.44532 27.75482 0.01277
C 23.44078 26.30857 0.00096
C 22.09657 25.50896 -0.01527
C 22.14651 24.14897 0.01087
C 23.29923 23.37287 0.00199
C 23.35866 22.02835 0.01511
C 22.05272 21.32216 -0.00478
C 22.06952 19.88825 -0.01662
C 23.33162 19.2097 -0.01185
C 23.35497 17.78702 0.01126
C 22.07828 17.07649 0.01852
C 19.66124 7.07788 -0.00703
C 19.61992 8.5063 0.00654
C 20.93074 9.21966 -0.04422
C 20.90646 10.66301 -0.02957
C 18.37251 2.20489 0.03698
C 18.43319 0.7897 -0.00109
C 17.19505 0.04992 -0.00491
C 19.66244 32.71648 0.03338
C 20.91176 32.01161 -0.0258
C 20.97042 30.58789 -0.0331
C 19.68858 29.89535 -0.00316
C 19.69054 28.32343 0.02188
C 20.92485 27.62864 -0.01979
C 20.89527 26.18591 0.02691
C 19.61204 25.48407 -0.01581
C 22.09331 15.66797 -0.00381
C 19.63049 24.09235 0.01452
C 20.88229 21.97284 -0.00111
C 19.63673 21.30476 -0.03557
C 19.62127 19.90983 0.03754
C 20.84246 19.23078 0.01739
C 20.84315 17.74922 0.00755
C 19.65151 17.09027 -0.0054
C 19.65111 15.6754 0.00667
C 20.7958 14.91791 0.00143
C 20.87259 13.47475 -0.017
C 19.66333 12.82982 0.00364
C 19.68602 11.31274 -0.00831
C 20.86097 23.37963 0.04892
C 27.03525 15.70109 0.01257
C 23.29293 14.8815 0.03046
C 22.11248 12.81826 0.03374
C 25.79778 13.57372 -0.01199
C 24.55167 12.72521 -0.00229
C 24.48359 11.32342 -0.00938
C 25.8094 10.65253 -0.0264
C 25.84395 9.19325 -0.01154
C 24.61894 8.52695 0.00684
C 24.61233 7.10787 -0.01052
C 25.81949 6.40024 -0.01679
C 25.87826 4.93963 0.00367
C 24.55304 4.27353 0.04306
C 24.62903 2.84316 0.00996
C 25.80186 2.143 0.00195
C 25.83695 0.6385 -0.00802
C 24.57956 34.05755 -0.00218
C 27.10544 32.64956 -0.01654
C 27.16368 25.53738 -0.00037
C 26.98239 24.18843 -0.0032
C 28.2505 23.44017 0.00622
C 28.27829 22.04891 -0.02815
C 27.04549 21.31849 -0.00942
C 27.068 19.88228 0.00487
C 28.21836 19.1552 0.00826
C 28.219 17.7536 -0.00294
C 25.77464 14.97026 -0.009
C 24.49254 15.61708 -0.00285
C 24.59495 17.04243 0.01423
C 25.79047 17.74744 0.02555
C 22.1357 11.36099 -0.02845
C 23.30713 10.60982 -0.03213
C 23.28264 9.21776 0.02239
C 22.07008 8.43407 0.01153
C 22.15171 7.09653 0.02734
C 23.37207 6.37893 -0.0055
C 23.35484 4.99995 0.01515
C 22.10691 4.30703 -0.00225
C 22.10914 2.85485 0.00071
C 23.324 2.07518 -0.01107
C 23.32435 0.70926 -0.01586
C 23.29909 13.51008 0.0296
C 22.03448 0.09595 -0.01971
C 25.88747 31.92233 0.00733
C 24.60959 29.89604 -0.00178
C 24.65296 28.44858 0.00768
C 25.87402 26.23438 -0.0276
C 24.61382 25.64326 0.03005
C 24.60271 24.15584 -0.04078
C 25.86099 23.44763 0.02117
C 25.78788 21.92183 0.02737
C 24.4934 21.36728 -0.00498
C 24.52354 19.91704 0.00135
C 25.81713 19.1039 0.03102
C 24.60026 32.60799 -0.02118
C 2.42075 32.62293 0.01116
