309
Graphene
C 34.40693 0.00338 0.01295
C 9.76205 29.83335 0.02188
C 9.89972 28.36039 -0.01979
C 11.07615 27.60165 0.02691
C 11.02984 26.23997 -0.01581
C 9.7405 25.46794 0.01452
C 9.76278 24.1176 0.04892
C 11.06562 23.43263 -0.00111
C 11.11378 22.00726 -0.03557
C 9.85864 21.30379 0.03754
C 9.79818 19.88762 0.01739
C 11.00415 19.16154 0.00755
C 11.04205 17.75016 -0.0054
C 9.88604 16.96903 0.00667
C 9.93673 15.60113 0.00143
C 11.23917 14.88003 -0.017
C 10.9721 30.57375 -0.00316
C 11.17663 13.36859 0.00364
C 11.0391 31.9731 -0.0331
C 7.31505 34.07926 0.03338
C 7.44771 15.6003 -0.00481
C 8.7272 14.86741 0.00979
C 8.61746 13.48422 0.01443
C 7.4039 12.79493 0.03505
C 7.41336 11.38545 -0.02815
C 8.62315 10.64612 -0.04147
C 8.54961 9.13832 -0.05302
C 7.32057 8.47644 0.00213
C 7.32284 7.11569 -0.00066
C 8.56247 6.42213 -0.00289
C 8.51433 5.04854 0.00028
C 7.32409 4.25449 -0.02213
C 7.38784 2.78641 0.03698
C 8.61123 2.16869 -0.00109
C 8.56069 0.66144 -0.00491
C 9.78218 32.6517 -0.0258
C 9.85672 12.77796 -0.00831
C 9.89927 11.40304 -0.02957
C 11.01132 10.64112 -0.04422
C 13.48311 21.97949 -0.00478
C 12.31249 21.29575 -0.01662
C 12.25077 19.90406 -0.01185
C 13.54324 19.19839 0.01126
C 13.60443 17.73902 0.01852
C 12.31473 17.01484 -0.00381
C 12.39385 15.62538 0.03046
C 13.69051 14.85618 0.0296
C 13.55532 13.42732 0.03374
C 12.39755 12.62284 -0.02845
C 12.32628 11.16172 -0.03213
C 12.23837 8.60572 0.02239
C 12.38834 7.20645 0.01153
C 13.54258 6.47877 0.02734
C 13.52878 4.95637 -0.0055
C 13.45286 23.36785 0.01511
C 12.27494 24.18053 0.00199
C 12.27452 25.52702 0.01087
C 13.51774 26.28281 -0.01527
C 11.0137 9.25036 0.00654
C 9.84998 8.51755 -0.00703
C 9.8193 7.11008 -0.04076
C 11.06903 6.37778 -0.00652
C 11.09928 5.02075 0.0058
C 9.84924 4.35558 -0.00865
C 9.81794 2.87369 0.00675
C 7.3768 17.05882 0.00889
C 11.07843 2.12392 -0.00311
C 9.75381 34.06388 -0.01594
C 12.26805 32.65775 0.0106
C 13.56362 31.93711 -0.01154
C 13.51485 30.52282 -0.01721
C 12.16219 29.89737 -0.02422
C 12.27404 28.44399 0.01277
C 13.53122 27.68992 0.00096
C 10.99845 0.67228 0.00742
C 8.63483 17.7649 -0.02162
C 8.5613 19.18957 -0.00619
C 7.32169 19.84178 0.01848
C 3.7243 9.23786 0.00406
C 2.49425 8.5071 0.00943
C 2.38902 7.07496 0.02841
C 3.64153 6.47774 -0.01111
C 3.6415 4.99069 -0.01275
C 2.45794 4.23797 0.00985
C 2.485 2.80257 -0.02245
C 3.70674 2.13881 -0.00428
C 3.65642 0.71413 0.03101
C 2.43529 0.03815 -0.01536
C 4.9399 32.59532 -0.02689
C 6.13708 31.95513 -0.01046
C 6.13292 30.55223 -0.00891
C 4.87859 29.86727 0.02819
C 4.90496 28.40038 0.00165
C 3.65988 10.6946 0.03592
C 2.36074 11.45257 0.00572
C 2.32158 12.81249 0.0402
C 3.56003 13.54069 -0.02759
C 3.65548 30.48818 0.02147
C 2.39621 29.80347 0.00373
C 2.39877 28.35721 -0.00191
C 3.6324 27.70537 0.00438
C 3.65917 26.23181 0.01291
C 2.4048 25.58707 0.00093
C 2.40175 24.1859 0.00057
C 6.07285 27.59208 -0.02971
C 3.68729 23.379 -0.01634
C 2.37835 21.37075 0.02339
C 2.43742 19.94232 0.01641
C 3.6152 19.1919 -0.00719
C 3.68689 17.75656 0.01364
C 2.47238 17.01004 -0.01062
C 2.39121 15.6204 -0.00033
C 3.689 14.93131 0.03589
C 3.61712 21.99132 -0.00334
C 12.24121 4.2228 0.01515
C 6.05689 26.23757 0.02894
C 4.88422 24.14042 0.00444
C 6.15404 2.19288 0.00052
C 6.06449 0.67175 -0.03682
C 4.86189 34.05594 0.01965
C 7.39093 32.7032 0.02058
C 8.59432 31.89639 -0.01957
C 8.56122 30.47454 -0.0108
C 7.29594 29.78356 -0.00368
C 7.35731 28.3364 -0.02696
C 8.60233 27.73079 -0.00114
C 8.56935 26.2802 0.00228
C 7.27731 25.55508 0.00798
C 7.38718 24.1858 0.00422
C 8.50755 23.40906 0.0351
C 8.60887 21.92997 -0.03113
C 7.35779 21.23035 0.02098
C 4.8378 2.86555 0.00374
C 4.87267 4.32859 -0.02813
C 6.13144 4.94596 -0.01952
C 6.06235 6.34011 0.05265
C 6.15977 23.46734 -0.00925
C 6.16315 22.05365 0.01877
C 4.89763 21.34259 0.01363
C 4.90095 19.92233 -0.02162
C 6.11739 19.16577 0.00415
C 6.17047 17.84071 -0.0014
C 4.95558 17.09266 0.02162
C 4.83711 25.47273 -0.01789
C 4.96668 15.64772 0.0076
C 6.10583 13.46842 -0.01454
C 4.83753 12.85369 0.01945
C 4.88057 11.39288 0.01416
C 6.16203 10.7657 0.03542
C 6.15332 9.28974 0.02299
C 4.97255 8.59759 0.00244
C 4.89843 7.20398 -0.01717
C 6.14585 14.7938 0.01241
C 3.74169 31.86782 -0.014
C 12.29332 2.85528 -0.00225
C 13.49232 0.75142 -0.01107
C 31.91472 28.45843 0.01927
C 33.09959 27.72026 0.01574
C 33.14796 26.26622 -0.02383
C 31.91301 25.58961 -0.01429
C 31.84193 24.18642 -0.0136
C 33.04791 23.509 0.00594
C 33.06086 22.09768 -0.02474
C 31.7721 21.40953 0.00369
C 32.02229 20.09023 0.00455
C 33.17422 19.2023 -0.00644
C 33.12527 17.75266 -0.01839
C 33.25987 15.01231 0.00137
C 33.24581 13.64776 0.00199
C 33.34988 9.5876 0.04381
C 32.15235 8.85008 0.02806
C 31.8784 29.85461 0.03794
C 31.86133 7.39812 0.01504
C 33.11081 30.57801 -0.01779
C 31.85782 32.74798 0.00026
C 29.44166 29.83399 -0.03735
C 29.40597 28.3941 -0.00971
C 30.68745 27.79665 0.01518
C 30.73628 26.35533 0.01908
C 29.44237 25.70116 0.07705
C 29.33857 24.40406 0.0103
C 30.49343 23.52936 0.02108
C 30.552 22.11471 0.00716
C 30.65081 6.55726 0.00307
C 30.63228 5.08175 0.00346
C 29.58286 4.23644 0.01713
C 29.37927 2.75995 -0.01694
C 30.63896 2.12988 0.01428
C 30.71304 0.71551 -0.02142
C 29.47349 34.04858 0.0544
C 33.11642 32.03472 0.00682
C 33.04903 6.6092 -0.00069
C 33.08692 5.15257 0.04926
C 31.86556 4.37367 -0.03838
C 34.37012 15.76723 0.02114
C 1.16001 14.87868 -0.02957
C 1.10814 13.44478 0.00343
C 34.2929 12.76459 -0.02656
C 34.24748 11.21848 -0.02442
C 1.13422 10.70291 -0.00027
C 1.29366 9.26509 -0.00583
C 0.04725 8.68915 -0.02302
C 34.40951 7.17796 -0.02849
C 1.23389 6.37446 0.02931
C 1.19274 4.96036 0.00628
C 34.26823 4.38645 -0.0345
C 34.34999 2.96535 -0.00931
C 1.13134 2.17672 -0.00939
C 1.17115 0.76668 -0.00468
C 34.37328 17.17327 0.00648
C 1.24428 17.8809 0.01223
C 1.26465 19.28411 -0.01678
C 0.01241 19.94066 0.01951
C 31.83583 2.89956 0.00349
C 33.09432 2.15048 -0.00323
C 33.17602 0.7077 -0.00841
C 31.94655 0.01502 0.0001
C 34.42557 32.6681 -0.02927
C 1.24239 31.90768 -0.01404
C 1.16407 30.54305 0.01027
C 30.69576 30.58758 -0.00944
C 34.36156 29.87877 0.01831
C 1.12432 27.7435 -0.00439
C 1.15244 26.21878 -0.00598
C 34.38428 25.53623 -0.05239
C 34.2766 24.18763 0.03076
C 1.0671 23.49252 0.00723
C 1.14569 22.08172 0.02712
C 34.31992 21.34297 -0.02213
C 34.28708 28.38466 -0.01037
C 30.67928 31.99604 -0.02155
C 29.46567 32.61808 -0.01461
C 27.06637 33.98445 -0.01303
C 14.62767 34.07106 -0.00938
C 17.16779 32.69082 -0.0264
C 18.34475 31.99822 -0.01154
C 18.37563 30.58625 0.00684
C 17.18906 29.89345 -0.01052
C 17.12304 28.38122 -0.01679
C 18.40126 27.64788 0.00367
C 18.3241 26.23369 0.04306
C 17.1712 25.57492 0.00996
C 17.11917 24.14447 0.00195
C 18.36514 23.52932 -0.00802
C 18.27359 0.76606 -0.00218
C 17.11863 0.04782 -0.01654
C 19.64654 32.65344 -0.00037
C 20.85607 31.95582 -0.0032
C 15.84771 0.65873 -0.00229
C 16.05632 2.01415 -0.01199
C 14.87328 2.79497 -0.009
C 14.59152 4.11147 -0.00285
C 12.27928 0.01316 -0.01586
C 14.69569 32.69656 -0.01971
C 15.96324 32.044 -0.02118
C 16.0018 30.61565 0.00733
C 14.77455 29.89503 -0.00178
C 14.77656 28.3896 0.00768
C 15.9353 27.68192 -0.0276
C 20.80267 30.513 0.00622
C 15.90979 26.23499 0.03005
C 14.61582 24.18564 0.02117
C 15.83405 23.475 0.02737
C 15.9136 22.11523 -0.00498
C 14.76595 21.33416 0.00135
C 14.8117 19.84282 0.03102
C 14.80968 17.05112 0.02555
C 14.85093 15.66985 0.01423
C 14.73082 25.57862 -0.04078
C 13.57703 2.07409 0.00071
C 19.55671 29.82446 -0.02815
C 20.84026 27.70997 0.00487
C 25.79159 27.62181 0.0014
C 25.84738 26.15062 0.00924
C 24.5714 25.50438 0.02326
C 26.00152 0.73348 0.00261
C 24.62198 0.05306 0.03265
C 26.95341 32.6029 -0.02049
C 28.21488 31.8622 -0.01854
C 28.19633 30.43302 -0.01415
C 26.86756 29.8261 -0.03039
C 26.88174 28.41649 0.01836
C 28.1287 27.74631 0.03531
C 28.21005 26.37531 -0.00669
C 27.17242 25.51498 0.0101
C 28.12343 2.08924 0.01705
C 28.22065 0.70758 -0.0405
C 24.52225 28.25408 0.01324
C 24.41076 29.76434 0.04266
C 25.66184 30.42439 0.01177
C 25.66001 31.94035 -0.00416
C 20.85733 26.34295 0.00826
C 19.61834 25.59162 -0.00294
C 19.52531 24.26296 0.00152
C 20.89823 0.61739 0.01257
C 19.60663 0.07785 0.02316
C 22.09841 32.63816 0.04185
C 23.30879 32.0286 0.00194
C 19.56465 28.38298 -0.00942
C 23.27185 30.51755 -0.00621
C 22.08491 28.35456 0.02198
C 23.28066 27.60757 0.01094
C 23.23259 26.14458 0.00235
C 21.98766 25.48632 0.01495
C 23.42787 0.81731 0.01259
C 22.16097 0.04934 0.01799
C 24.56843 32.71733 0.01699
C 22.06107 29.83087 0.02611
C 2.5013 32.64271 -0.01118
