393
Graphene
C 34.40631 34.04944 0.01295
C 12.15671 32.72677 0.01877
C 13.53416 31.97865 0.01363
C 13.58239 30.58863 -0.02162
C 12.33906 29.93424 0.00415
C 12.32614 28.44631 -0.0014
C 13.52551 27.6666 0.02162
C 13.48653 26.26438 0.0076
C 12.23094 25.54125 0.01241
C 12.28968 24.15658 -0.01454
C 9.81926 0.07554 -0.00925
C 13.50498 23.41352 0.01945
C 12.29469 21.30587 0.03542
C 12.48071 19.91693 0.02299
C 12.44464 8.54925 0.00244
C 12.318 7.07278 -0.01717
C 13.44327 6.34988 0.05265
C 13.54765 4.92288 -0.01952
C 12.34333 4.18013 -0.02813
C 12.20017 2.77735 0.00374
C 13.51892 2.07061 0.00052
C 13.50814 22.03126 0.01416
C 11.01894 0.7737 0.00444
C 10.96865 2.11694 -0.01789
C 9.84876 2.91259 0.02894
C 11.06082 27.77434 0.03589
C 11.04041 26.3429 -0.02759
C 9.82894 25.61504 0.0402
C 9.78041 24.12778 0.00572
C 11.03592 23.36061 0.03592
C 11.05766 21.95904 0.00406
C 9.72892 21.36298 0.00943
C 9.81039 19.93271 0.02841
C 11.1946 19.2768 -0.01111
C 10.855 17.92012 -0.01275
C 10.00413 16.92615 0.00985
C 9.84486 15.53448 -0.02245
C 9.86058 12.90045 -0.00428
C 10.00594 11.56633 0.03101
C 10.91316 10.55604 -0.01536
C 11.25211 9.17253 -0.02689
C 9.85466 8.51538 -0.01046
C 9.86163 7.09296 -0.00891
C 11.06482 6.40178 0.02819
C 11.05262 4.98277 0.00165
C 9.85281 4.38735 -0.02971
C 13.49133 0.65984 -0.03682
C 9.80648 28.35665 -0.00033
C 12.24003 34.0767 0.01965
C 15.99478 31.99027 -0.01957
C 18.44113 26.22281 -0.02213
C 17.18656 25.50943 0.03698
C 17.18717 24.14581 -0.00109
C 18.42591 23.40852 -0.00491
C 18.41633 21.82138 0.03338
C 17.1106 21.36794 -0.0258
C 18.5654 6.34915 -0.0331
C 18.43538 5.05603 -0.00316
C 17.20988 4.25457 0.02188
C 18.41768 27.63201 0.00028
C 17.13971 2.81318 -0.01979
C 18.4935 0.65252 -0.01581
C 17.22288 34.02004 0.01452
C 19.74235 32.74599 0.04892
C 20.92292 31.98354 -0.00111
C 20.8461 30.53397 -0.03557
C 19.67385 29.87162 0.03754
C 19.58852 28.44623 0.01739
C 20.84419 27.78811 0.00755
C 20.87835 26.33313 -0.0054
C 18.43433 2.10222 0.02691
C 17.192 28.38557 -0.00289
C 17.25113 29.79118 -0.00066
C 18.44559 30.55233 0.00213
C 16.03199 30.48234 -0.0108
C 14.75372 29.8425 -0.00368
C 14.80128 28.40102 -0.02696
C 16.00637 27.69225 -0.00114
C 15.97967 26.25802 0.00228
C 14.71452 25.56547 0.00798
C 14.74091 24.13837 0.00422
C 16.03397 23.41864 0.0351
C 15.92816 21.94466 -0.03113
C 14.68489 21.23785 0.02098
C 14.48664 19.89715 0.01848
C 14.67471 6.88431 -0.00619
C 15.86377 6.31774 -0.02162
C 15.98454 4.98646 0.00889
C 14.82379 4.20274 -0.00481
C 14.7689 2.77868 0.00979
C 15.99499 2.06638 0.01443
C 15.96545 0.64738 0.03505
C 14.74234 0.01806 -0.02815
C 17.23442 32.62207 -0.04147
C 18.48598 31.967 -0.05302
C 14.78101 32.64668 0.02058
C 9.81522 29.8952 -0.01062
C 11.09438 30.57282 0.01364
C 10.98856 31.99108 -0.00719
C 2.41424 4.23514 -0.03996
C 2.38973 2.89079 0.01465
C 3.64438 2.12694 -0.00074
C 3.72056 0.70922 -0.00518
C 2.4754 0.03617 0.0086
C 4.93684 32.71553 -0.00643
C 6.14369 31.99297 0.017
C 6.15161 30.61444 -0.03113
C 4.90222 29.83668 -0.02566
C 3.65324 4.98676 0.01996
C 4.83457 28.4328 -0.00094
C 6.11825 26.30231 -0.00725
C 4.86161 25.52598 -0.05697
C 4.86642 24.18162 0.01087
C 6.0929 23.47107 -0.01343
C 6.13089 22.04616 0.00988
C 4.88634 21.38177 0.0276
C 4.97434 19.85601 0.01305
C 6.16627 19.05983 -0.00077
C 6.05135 17.67512 0.03368
C 6.05238 27.77529 0.02322
C 3.60522 6.47319 -0.00279
C 2.41734 7.12746 0.01226
C 2.45787 8.63604 0.03828
C 3.66766 30.59081 0.00208
C 2.50846 29.7957 0.01707
C 2.46383 28.41755 0.02769
C 3.712 27.65857 -0.03291
C 3.6328 26.24994 -0.04999
C 2.44862 25.63648 0.04505
C 2.36842 24.12132 0.03284
C 3.62981 23.46422 -0.04307
C 3.69964 22.06307 0.03189
C 2.46675 21.27556 0.00031
C 2.50864 19.92429 -0.003
C 3.73859 19.18391 0.01402
C 3.67926 17.7482 0.02379
C 2.462 17.03448 0.00907
C 2.50429 15.61563 0.00643
C 3.75126 14.91729 -0.01509
C 3.68571 13.44345 0.03267
C 2.37457 12.72812 0.02374
C 2.42104 11.33691 0.00402
C 3.68675 10.71561 0.0073
C 3.70322 9.28268 0.0174
C 4.9065 16.9769 -0.02929
C 4.90393 15.59514 -0.00966
C 6.1439 14.89267 -0.03337
C 6.18042 13.43427 0.01227
C 7.37038 19.90404 -0.00482
C 8.63156 19.16953 -0.01384
C 8.65277 17.70418 0.03693
C 7.42009 17.02913 0.01745
C 7.4217 15.6266 0.00488
C 8.63492 14.86345 -0.01004
C 8.66038 13.46903 -0.02896
C 7.39313 12.85066 -0.00131
C 7.44829 11.35068 -0.01118
C 8.7047 10.70586 -0.014
C 8.6487 9.26316 0.02147
C 7.38006 8.60499 0.00373
C 7.27275 7.1624 -0.00191
C 8.50353 6.40412 0.00438
C 8.57073 5.05124 0.01291
C 7.40223 4.32966 0.00093
C 7.29937 2.9632 0.00057
C 8.57178 2.24395 -0.01634
C 8.65092 0.81279 -0.00334
C 7.36484 0.11172 0.02339
C 9.7613 32.64763 0.01641
C 7.28358 21.23307 0.02888
C 19.65303 25.55023 0.00667
C 8.52996 22.06284 0.00685
C 7.24299 24.20886 0.00393
C 4.94036 12.83557 0.00873
C 4.91365 11.42568 -0.00049
C 6.15784 10.67863 0.00848
C 6.15172 9.24503 -0.01303
C 4.85477 8.56777 -0.01378
C 4.85166 7.16083 0.02635
C 6.06612 6.445 0.0127
C 6.09898 5.07276 0.01396
C 4.85101 4.33929 0.01849
C 4.90675 2.86184 -0.01142
C 6.12477 2.24738 -0.00562
C 6.14433 0.80623 -0.00494
C 4.95357 0.1242 0.00054
C 7.34947 32.76742 0.03007
C 8.55329 32.01106 -0.00095
C 8.56955 30.58553 0.01572
C 7.37907 29.84874 -0.04848
C 7.37646 28.47259 -0.00892
C 8.56776 27.7181 -0.01362
C 8.58195 26.35897 -0.0008
C 7.2942 25.6097 0.0288
C 8.53796 23.49748 0.00895
C 3.68684 31.97903 -0.00561
C 19.66763 24.1131 0.00143
C 20.90712 21.91483 0.00364
C 30.78625 4.92345 0.07705
C 29.48802 4.25189 0.0103
C 29.47542 2.82871 0.02108
C 30.69444 2.13449 0.00716
C 30.75695 0.73476 0.00307
C 29.55948 0.0117 0.00346
C 31.96193 32.61003 0.01713
C 33.10605 31.91072 -0.01694
C 33.16635 30.52832 0.01428
C 30.71631 6.37405 0.01908
C 31.89406 29.82976 -0.02142
C 33.13802 27.72745 0.00026
C 33.16063 26.33304 0.00682
C 32.03021 25.56343 -0.01779
C 31.95581 24.14233 0.03794
C 33.22215 23.4881 0.01927
C 33.19299 22.02657 0.01574
C 32.08919 21.25111 -0.02383
C 32.02563 19.78222 -0.01429
C 33.27972 19.13868 -0.0136
C 31.88699 28.43535 0.0544
C 29.49064 7.06918 0.01518
C 29.49207 8.44989 -0.00971
C 30.64392 9.24347 -0.03735
C 30.76484 31.97106 0.04266
C 30.67188 30.55121 0.01324
C 29.46001 29.88033 0.0014
C 29.51185 28.43112 0.00924
C 30.71735 27.70838 0.02326
C 30.79604 26.34094 0.00261
C 29.59205 25.61098 0.03265
C 29.60761 24.11885 -0.02049
C 30.74217 23.33441 -0.01854
C 30.839 21.92798 -0.01415
C 29.59658 21.20493 -0.03039
C 29.53011 19.80809 0.01836
C 30.80852 19.0961 0.03531
C 30.70847 17.70762 -0.00669
C 29.39478 17.05865 0.0101
C 29.44188 15.64675 0.01705
C 30.70088 14.98304 -0.0405
C 30.73307 13.60606 -0.01303
C 29.44709 12.80944 -0.01461
C 29.51194 11.38782 -0.02155
C 30.68115 10.65057 -0.00944
C 33.23028 17.74493 0.00594
C 29.44975 32.68447 0.01177
C 31.95913 17.07963 -0.02474
C 33.19281 14.91841 0.00455
C 0.02615 21.35695 -0.02213
C 0.02964 19.91698 0.01951
C 1.2131 19.0924 -0.01678
C 1.19367 17.76741 0.01223
C 0.01597 16.96938 0.00648
C 0.0028 15.53865 0.02114
C 1.21008 14.85402 -0.02957
C 1.21962 13.47455 0.00343
C 34.37907 12.75195 -0.02656
C 1.24687 22.08565 0.02712
C 0.0097 11.35805 -0.02442
C 1.24198 9.30246 -0.00583
C 34.42271 8.53234 -0.02302
C 34.39453 7.15594 -0.02849
C 1.15166 6.45591 0.02931
C 1.18321 5.01963 0.00628
C 34.39854 4.32111 -0.0345
C 34.37869 2.85758 -0.00931
C 1.12132 2.13263 -0.00939
C 1.15942 0.75551 -0.00468
C 1.19254 10.66204 -0.00027
C 1.1838 23.452 0.00723
C 34.38557 24.22506 0.03076
C 34.41074 25.62608 -0.05239
C 33.12762 13.48147 -0.00644
C 31.88881 12.82589 -0.01839
C 31.91276 11.35265 0.00137
C 33.16068 10.6788 0.00199
C 33.15299 9.2623 0.04381
C 31.98284 8.51729 0.02806
C 31.97749 7.1086 0.01504
C 33.23112 6.43022 -0.00069
C 33.1586 4.97177 0.04926
C 31.97241 4.24256 -0.03838
C 31.90977 2.84178 0.00349
C 33.17816 2.11847 -0.00323
C 33.19921 0.68291 -0.00841
C 31.94623 0.02164 0.0001
C 34.42122 32.6937 -0.02927
C 1.22066 31.97477 -0.01404
C 1.22978 30.51564 0.01027
C 0.01974 29.80807 0.01831
C 0.04912 28.36553 -0.01037
C 1.22108 27.71546 -0.00439
C 1.19203 26.35645 -0.00598
C 31.9629 15.64069 0.00369
C 27.04617 0.02974 -0.00416
C 28.28161 0.7239 0.01699
C 28.32786 2.07145 0.01799
C 22.18148 8.44998 -0.01185
C 22.11487 7.15406 0.01126
C 23.30723 6.43257 0.01852
C 23.32385 4.93305 -0.00381
C 22.11843 4.25459 0.03046
C 22.1356 2.85095 0.0296
C 23.29531 2.15097 0.03374
C 23.41735 0.68895 -0.02845
C 22.16726 34.0403 -0.03213
C 23.38049 9.08254 -0.01662
C 24.60046 32.62468 0.02239
C 25.7956 30.57284 0.02734
C 24.57807 29.73184 -0.0055
C 24.59349 28.30214 0.01515
C 25.84518 27.6076 -0.00225
C 25.89599 26.23332 0.00071
C 24.62302 25.56682 -0.01107
C 24.66321 24.1629 -0.01586
C 25.85912 23.46059 -0.01971
C 25.91287 22.02197 -0.02118
C 25.79307 31.91708 0.01153
C 23.47376 17.78438 -0.00478
C 23.34169 19.12444 0.01511
C 22.1729 19.81937 0.00199
C 19.65906 21.36105 -0.00831
C 19.76375 7.06182 -0.02957
C 20.9367 6.44702 -0.04422
C 20.83831 5.00886 0.00654
C 19.66976 4.30185 -0.00703
C 19.64765 2.82375 -0.04076
C 20.85308 2.13749 -0.00652
C 20.91806 0.67878 0.0058
C 19.71263 34.07885 -0.00865
C 22.15476 32.58498 0.00675
C 23.32602 31.92159 -0.00311
C 23.36782 30.46979 0.00742
C 22.07108 29.86112 -0.01594
C 22.08635 28.45407 0.0106
C 23.31138 27.69836 -0.01154
C 23.36825 26.26008 -0.01721
C 22.11432 25.62903 -0.02422
C 22.10607 24.22598 0.01277
C 23.33985 23.47793 0.00096
C 23.34883 22.00558 -0.01527
C 22.15073 21.22864 0.01087
C 24.57635 21.28968 0.00733
C 24.65108 19.89522 -0.00178
C 25.78687 19.15598 0.00768
C 25.65863 17.68292 -0.0276
C 27.11094 24.08195 -0.01654
C 28.38939 23.46891 -0.00037
C 28.27797 21.97723 -0.0032
C 27.15879 21.30005 0.00622
C 27.10857 19.89656 -0.02815
C 28.26786 19.1867 -0.00942
C 28.20951 17.74815 0.00487
C 26.92821 16.99899 0.00826
C 27.01281 15.62576 -0.00294
C 28.22357 14.9135 0.00152
C 28.17508 13.51852 0.01257
C 26.98361 12.84871 0.02316
C 26.97564 11.38561 0.04185
C 28.23177 10.65901 0.00194
C 28.22516 9.25165 -0.00621
C 26.9856 8.50664 0.02611
C 27.02446 7.07792 0.02198
C 28.24907 6.37477 0.01094
C 28.27952 4.93189 0.00235
C 27.01242 4.22572 0.01495
C 27.04944 2.74288 0.01259
C 27.20467 25.52115 -0.00218
C 20.89305 23.38863 -0.017
C 28.31134 26.24852 -0.00802
C 27.02917 28.3679 0.00996
C 24.35157 16.7677 0.03005
C 24.53875 15.43034 -0.04078
C 25.76158 14.86643 0.02117
C 25.71088 13.5029 0.02737
C 24.59576 12.74229 -0.00498
C 24.76501 11.43619 0.00135
C 25.77815 10.58505 0.03102
C 25.73867 9.22045 0.02555
C 24.59175 8.6047 0.01423
C 24.6324 7.07424 -0.00285
C 25.81697 6.34618 -0.009
C 25.81322 4.91545 -0.01199
C 24.52508 4.18954 -0.00229
C 24.57118 2.78585 -0.00938
C 25.80463 2.05902 -0.0264
C 25.78713 0.68273 -0.01154
C 24.55449 34.03633 0.00684
C 26.99313 32.6491 -0.01052
C 28.21847 31.97962 -0.01679
C 28.211 30.57633 0.00367
C 26.99192 29.84095 0.04306
C 28.31542 27.71188 0.00195
C 2.42217 32.64272 -0.01977
