314
Graphene
C 34.3579 0.01935 0.01295
C 17.13299 28.52069 -0.0258
C 18.21819 27.5887 -0.0331
C 19.22848 26.89662 -0.00316
C 18.33347 10.50826 0.02188
C 18.45543 9.15491 -0.01979
C 17.1925 8.45201 0.02691
C 17.16426 7.04681 -0.01581
C 18.42583 6.42125 0.01452
C 18.46517 4.95629 0.04892
C 17.21215 4.28355 -0.00111
C 17.21273 2.85154 -0.03557
C 18.44732 2.10055 0.03754
C 18.44425 0.68423 0.01739
C 17.23986 34.01473 0.00755
C 19.88825 32.67352 -0.0054
C 17.20086 29.95163 0.03338
C 18.42389 30.42244 -0.00491
C 18.63792 31.79566 -0.00109
C 17.29774 32.61576 0.03698
C 14.73194 32.65489 0.01848
C 16.01831 32.00239 -0.00619
C 15.89795 30.50848 -0.02162
C 14.68708 29.82218 0.00889
C 14.60465 28.41876 -0.00481
C 16.00112 27.79618 0.00979
C 16.12171 9.36661 0.01443
C 19.04139 25.13751 0.00667
C 14.8162 8.73412 0.03505
C 15.90543 6.49343 -0.04147
C 15.92109 5.0049 -0.05302
C 14.70412 4.2615 0.00213
C 14.84023 2.79518 -0.00066
C 16.00557 2.00613 -0.00289
C 16.00248 0.66162 0.00028
C 14.78839 34.02165 -0.02213
C 14.7115 7.25664 -0.02815
C 12.31755 0.02151 0.02098
C 20.08249 24.50523 0.00143
C 20.97799 22.02324 0.00364
C 22.12988 19.84521 0.01087
C 23.40586 19.15705 0.00199
C 23.34069 17.72636 0.01511
C 22.1103 17.18867 -0.00478
C 22.10073 15.74222 -0.01662
C 23.31685 14.93251 -0.01185
C 23.3205 13.48046 0.01126
C 22.0429 12.83201 0.01852
C 22.02466 11.40337 -0.00381
C 23.34196 10.73 0.03046
C 23.32754 9.31504 0.0296
C 22.09723 8.63862 0.03374
C 22.07335 7.04296 -0.02845
C 23.33627 6.38622 -0.03213
C 23.33767 4.99942 0.02239
C 22.12443 21.26987 -0.01527
C 23.42803 21.95089 0.00096
C 23.37604 23.41946 0.01277
C 22.18326 23.77715 -0.02422
C 21.05724 14.83166 -0.00831
C 20.68212 13.57287 -0.02957
C 19.59853 12.75871 -0.04422
C 19.56843 11.35265 0.00654
C 20.81735 10.67957 -0.00703
C 20.82863 9.28898 -0.04076
C 19.66943 8.50467 -0.00652
C 20.83361 23.3936 -0.017
C 19.64484 7.09258 0.0058
C 20.8439 4.95543 0.00675
C 19.64956 4.27234 -0.00311
C 19.6619 2.86241 0.00742
C 20.96049 2.13141 -0.01594
C 20.97675 0.74488 0.0106
C 19.69662 34.04026 -0.01154
C 22.18214 32.64969 -0.01721
C 20.88818 6.31798 -0.00865
C 13.52706 0.72824 -0.03113
C 13.57578 2.10684 0.0351
C 12.36571 2.90102 0.00422
C 3.65497 0.69175 0.03589
C 2.41165 0.06505 -0.02759
C 4.91138 32.60918 0.0402
C 6.08387 31.89487 0.00572
C 6.09196 30.46594 0.03592
C 4.86821 29.76348 0.00406
C 4.90168 28.34662 0.00943
C 6.12571 27.64796 0.02841
C 6.11849 26.23896 -0.01111
C 4.84844 25.53394 -0.01275
C 4.97948 24.16072 0.00985
C 4.76561 4.22034 -0.02245
C 4.97401 2.76427 -0.00428
C 6.13329 2.11976 0.03101
C 6.15799 0.76152 -0.01536
C 3.74541 2.13271 -0.00033
C 2.42914 2.90135 -0.01062
C 2.41161 4.25248 0.01364
C 3.7325 4.81293 -0.00719
C 3.62022 30.54805 -0.01004
C 2.37786 29.8815 -0.02896
C 2.4464 28.30679 -0.00131
C 3.6764 27.64567 -0.01118
C 3.67799 26.25621 -0.014
C 2.50465 25.46924 0.02147
C 2.57116 24.05868 0.00373
C 4.92623 0.01809 -0.02689
C 3.83016 23.3509 -0.00191
C 2.36477 21.39804 0.01291
C 2.44172 19.94574 0.00093
C 3.67531 19.23807 0.00057
C 3.48132 18.00311 -0.01634
C 2.47829 17.09538 -0.00334
C 2.48132 15.59016 0.02339
C 3.53218 14.7344 0.01641
C 3.53161 22.00442 0.00438
C 7.28652 32.71159 -0.01046
C 8.46272 31.96308 -0.00891
C 8.5307 30.45812 0.02819
C 9.79101 2.86553 -0.01717
C 11.08385 2.23721 0.05265
C 11.05393 0.70791 -0.01952
C 9.83746 34.06093 -0.02813
C 12.26721 32.66455 0.00374
C 13.52293 31.9135 0.00052
C 13.46559 30.49129 -0.03682
C 9.94887 4.28843 0.00244
C 12.20333 29.75631 0.01965
C 13.53345 27.72266 -0.01957
C 13.47807 9.06261 -0.0108
C 12.25109 8.80868 -0.00368
C 12.14032 7.19023 -0.02696
C 13.40265 6.53585 -0.00114
C 13.49981 5.10028 0.00228
C 12.33416 4.27141 0.00798
C 12.28699 28.20081 0.02058
C 22.16089 4.35511 0.01153
C 11.12 4.92859 0.02299
C 10.96881 27.73683 0.01416
C 7.3147 29.70668 0.00165
C 7.311 28.33716 -0.02971
C 8.59015 27.69926 0.02894
C 8.49934 26.17121 -0.01789
C 7.37716 25.79612 0.00444
C 8.5477 4.89026 -0.00925
C 7.52036 4.31787 0.01877
C 11.10032 6.30178 0.03542
C 7.40698 2.8653 0.01363
C 8.67971 0.72855 0.00415
C 7.34302 0.01375 -0.0014
C 9.73359 32.52336 0.02162
C 10.97825 31.96441 0.0076
C 10.97653 30.48652 0.01241
C 9.7967 29.80909 -0.01454
C 9.78257 28.41167 0.01945
C 8.53937 2.13426 -0.02162
C 22.18074 2.85993 0.02734
C 23.34909 2.15032 -0.0055
C 23.36458 0.74551 0.01515
C 33.20303 26.26389 0.03794
C 31.92333 25.5325 0.01927
C 31.94375 24.14964 0.01574
C 33.17187 23.45333 -0.02383
C 33.16613 22.03616 -0.01429
C 31.90917 21.32271 -0.0136
C 31.97886 19.89458 0.00594
C 33.23858 19.26572 -0.02474
C 33.16803 17.79645 0.00369
C 31.95803 17.06606 0.00455
C 31.93506 15.66974 -0.00644
C 33.24211 14.96892 -0.01839
C 33.31277 13.53134 0.00137
C 31.97129 12.8573 0.00199
C 31.89752 11.45983 0.04381
C 33.16921 27.65271 -0.01779
C 31.888 28.3321 0.00682
C 31.8889 29.85251 0.00026
C 33.10606 30.59693 0.0544
C 30.75521 13.53132 -0.02155
C 29.44118 12.80296 -0.00944
C 29.49703 11.43148 -0.03735
C 30.72217 10.67733 -0.00971
C 30.6891 9.25827 0.01518
C 29.45914 8.50871 0.01908
C 29.50499 7.07081 0.07705
C 33.14256 10.69234 0.02806
C 30.82509 6.3432 0.0103
C 29.4689 4.26963 0.00716
C 29.44341 2.77151 0.00307
C 30.73456 2.11259 0.00346
C 30.72419 0.75297 0.01713
C 29.37219 34.07528 -0.01694
C 31.83507 32.65462 0.01428
C 33.10678 31.92994 -0.02142
C 30.72396 4.99144 0.02108
C 33.11162 9.23345 0.01504
C 31.94495 8.62083 -0.00069
C 32.03501 7.11806 0.04926
C 1.26632 19.15286 0.00648
C 1.23562 17.79274 0.02114
C 0.02391 17.12885 -0.02957
C 34.42729 15.78902 0.00343
C 1.16036 15.01162 -0.02656
C 1.20832 13.63169 -0.02442
C 0.08848 12.75971 -0.00027
C 0.03903 20.00596 0.01223
C 34.34779 11.30997 -0.00583
C 0.16863 7.22185 -0.02849
C 1.30517 6.41713 0.02931
C 1.17993 5.05591 0.00628
C 0.00214 4.26537 -0.0345
C 34.40069 2.83376 -0.00931
C 1.17946 2.16397 -0.00939
C 1.13758 0.74608 -0.00468
C 34.29982 8.59291 -0.02302
C 30.73096 14.98341 -0.01461
C 34.40987 21.30866 -0.01678
C 1.283 23.45728 -0.02213
C 33.30128 6.46919 -0.03838
C 33.26469 5.01769 0.00349
C 31.96017 4.29018 -0.00323
C 31.87018 2.90585 -0.00841
C 33.16282 2.15864 0.0001
C 33.12027 0.73969 -0.02927
C 31.9182 0.03538 -0.01404
C 1.12476 22.08389 0.01951
C 34.33226 32.68456 0.01027
C 1.15606 30.59737 -0.01037
C 34.40198 29.838 -0.00439
C 34.38063 28.42137 -0.00598
C 1.18367 27.70557 -0.05239
C 1.30369 26.17655 0.03076
C 34.41698 25.4749 0.00723
C 34.40646 24.13709 0.02712
C 1.21136 31.96853 0.01831
C 3.62265 31.98056 0.00488
C 29.44663 15.66167 -0.01303
C 30.7156 17.84611 0.01705
C 24.54863 8.50062 -0.009
C 24.60777 7.09821 -0.01199
C 25.82416 6.35121 -0.00229
C 25.81265 4.97437 -0.00938
C 24.53603 4.28091 -0.0264
C 24.5796 2.86401 -0.01154
C 25.78951 2.09511 0.00684
C 25.74411 0.65202 -0.01052
C 24.55111 33.92876 -0.01679
C 26.88548 32.57734 0.00367
C 28.11794 31.88559 0.04306
C 28.12395 30.45923 0.00996
C 26.96368 29.78151 0.00195
C 26.91991 28.29696 -0.00802
C 28.1992 27.72004 -0.00218
C 25.76377 9.25705 -0.00285
C 25.81119 10.68409 0.01423
C 24.52269 11.41556 0.02555
C 24.50706 12.79859 0.03102
C 22.15872 33.99821 -0.00225
C 24.5388 32.5825 0.00071
C 25.6829 31.79682 -0.01107
C 25.80356 26.33055 -0.01586
C 24.71027 25.75092 -0.01971
C 24.54969 24.27803 -0.02118
C 25.73965 23.51663 0.00733
C 28.24464 26.29214 -0.01654
C 25.7695 22.07619 -0.00178
C 24.60195 19.92016 -0.0276
C 25.81438 19.13834 0.03005
C 25.86289 17.75672 -0.04078
C 24.62032 17.01386 0.02117
C 24.61047 15.58484 0.02737
C 25.81048 14.88313 -0.00498
C 25.74857 13.46322 0.00135
C 24.60094 21.27879 0.00768
C 27.06468 25.62094 -0.00037
C 26.97673 24.17342 -0.0032
C 28.20911 23.46772 0.00622
C 28.19704 0.67035 0.01177
C 26.90203 34.03197 0.04266
C 29.36818 32.59709 0.01324
C 30.61188 31.96422 0.0014
C 30.65688 30.44045 0.00924
C 29.40528 29.79867 0.02326
C 29.38902 28.43955 0.00261
C 28.19087 2.16331 -0.00416
C 30.64421 27.66822 0.03265
C 29.45415 25.55883 -0.01854
C 29.4302 24.18118 -0.01415
C 30.72138 23.44201 -0.03039
C 30.71179 21.98238 0.01836
C 29.46962 21.33936 0.03531
C 29.4229 19.89664 -0.00669
C 30.67371 19.2393 0.0101
C 30.76334 26.27843 -0.02049
C 29.56554 17.08874 -0.0405
C 27.008 2.85021 0.01699
C 28.26915 5.00241 0.01259
C 28.24029 22.0302 -0.02815
C 27.06704 21.30351 -0.00942
C 27.01747 19.85634 0.00487
C 28.20792 19.17512 0.00826
C 28.27421 17.74173 -0.00294
C 27.03491 17.05065 0.00152
C 26.97628 15.60902 0.01257
C 27.03461 4.34297 0.01799
C 28.19948 14.95217 0.02316
C 26.98122 12.75942 0.00194
C 26.95762 11.36995 -0.00621
C 28.27728 10.64129 0.02611
C 28.3003 9.25067 0.02198
C 27.01319 8.53135 0.01094
C 27.02008 7.11016 0.00235
C 28.29187 6.42282 0.01495
C 28.23044 13.48083 0.04185
C 2.38854 32.7145 0.01745
