418
Graphene
C 0.01822 0.03194 0.01295
C 14.80874 29.80851 0.02841
C 14.70254 28.47313 -0.01111
C 15.98477 27.74984 -0.01275
C 16.01311 26.26597 0.00985
C 14.8074 25.623 -0.02245
C 14.76901 24.18366 -0.00428
C 15.91725 23.38292 0.03101
C 15.93522 21.97263 -0.01536
C 14.72077 21.19173 -0.02689
C 14.77231 19.83943 -0.01046
C 16.03677 30.56855 0.00943
C 16.04369 19.13466 -0.00891
C 14.79666 17.03984 0.00165
C 14.79381 15.60991 -0.02971
C 15.95578 14.98987 0.02894
C 15.97398 13.47315 -0.01789
C 14.75834 12.69926 0.00444
C 14.70099 11.31241 -0.00925
C 16.04223 10.56495 0.01877
C 15.93467 9.19283 0.01363
C 14.72498 8.55387 -0.02162
C 14.74282 7.06944 0.00415
C 15.97426 17.7893 0.02819
C 15.90833 6.46036 -0.0014
C 15.99391 31.9978 0.00406
C 12.32674 0.02585 0.00572
C 13.54561 23.4782 -0.02896
C 13.53352 22.02654 -0.00131
C 12.31733 21.33117 -0.01118
C 12.28193 19.888 -0.014
C 13.57065 19.20859 0.02147
C 13.54624 17.84867 0.00373
C 12.29172 17.07145 -0.00191
C 12.2886 15.69787 0.00438
C 13.5552 14.85436 0.01291
C 13.55937 13.47062 0.00093
C 14.76811 32.71913 0.03592
C 12.39264 12.76423 0.00057
C 13.49776 10.59869 -0.00334
C 13.52799 9.26445 0.02339
C 12.33737 8.48507 0.01641
C 12.23195 7.0945 -0.00719
C 13.53905 6.38989 0.01364
C 13.61943 4.9908 -0.01062
C 12.29408 4.30591 -0.00033
C 12.29913 2.87686 0.03589
C 13.48009 2.22615 -0.02759
C 13.49943 0.75833 0.0402
C 12.27827 11.29751 -0.01634
C 12.24937 24.09847 -0.01004
C 15.99618 5.03529 0.02162
C 14.75549 2.80477 0.01241
C 17.18582 8.52647 0.01848
C 17.19377 7.13149 -0.00619
C 18.45398 6.38897 -0.02162
C 18.49496 5.04237 0.00889
C 17.21469 4.23676 -0.00481
C 17.23049 2.84061 0.00979
C 18.45564 2.11772 0.01443
C 18.47824 0.65459 0.03505
C 17.15757 0.00033 -0.02815
C 19.66561 32.65014 -0.04147
C 18.4791 9.16093 0.02098
C 20.91479 31.91397 -0.05302
C 19.65885 29.85291 -0.00066
C 19.63402 28.38702 -0.00289
C 20.88602 27.71269 0.00028
C 20.84963 26.32092 -0.02213
C 19.65395 25.59433 0.03698
C 19.6677 24.1422 -0.00109
C 20.92512 23.37436 -0.00491
C 20.92128 21.98944 0.03338
C 19.68232 21.32127 -0.0258
C 19.66898 19.91635 -0.0331
C 20.94305 30.54411 0.00213
C 14.7736 4.26739 0.0076
C 18.45154 10.57743 -0.03113
C 17.17592 12.74927 0.00422
C 15.97925 2.12045 -0.01454
C 16.02039 0.73752 0.01945
C 14.72019 0.03325 0.01416
C 17.18092 32.6721 0.03542
C 18.41722 31.97181 0.02299
C 18.43937 30.52155 0.00244
C 17.17013 29.82039 -0.01717
C 17.22273 28.42348 0.05265
C 18.48309 27.65348 -0.01952
C 18.409 26.23972 -0.02813
C 17.2086 11.28096 0.0351
C 17.16905 25.52403 0.00374
C 18.45014 23.40265 -0.03682
C 18.40853 21.98652 0.01965
C 17.23627 21.27789 0.02058
C 17.27398 19.88929 -0.01957
C 18.41928 19.22242 -0.0108
C 18.47398 17.71022 -0.00368
C 17.19907 17.03882 -0.02696
C 17.19563 15.62703 -0.00114
C 18.46154 14.96339 0.00228
C 18.45744 13.42222 0.00798
C 17.18223 24.141 0.00052
C 12.26112 25.59124 0.00488
C 13.48645 26.26478 0.01745
C 13.50348 27.68792 0.03693
C 4.91684 29.88832 0.01707
C 4.98049 28.36618 0.02769
C 6.18973 27.72481 -0.03291
C 4.9361 15.62012 -0.04999
C 6.16289 14.94546 0.04505
C 6.07386 13.53733 0.03284
C 4.92039 12.79789 -0.04307
C 4.90732 11.32689 0.03189
C 6.11399 10.6557 0.00031
C 6.09548 9.27636 -0.003
C 6.15969 30.50392 0.00208
C 4.95718 8.55507 0.01402
C 6.12187 6.38048 0.00907
C 6.2077 4.95632 0.00643
C 4.91199 4.24215 -0.01509
C 4.8474 2.81053 0.03267
C 6.13165 2.23737 0.02374
C 6.16275 0.73691 0.00402
C 4.97133 34.04792 0.0073
C 7.35275 32.69032 0.0174
C 8.65625 31.92882 0.03828
C 8.56471 30.48556 0.01226
C 4.97128 7.10385 0.02379
C 7.28406 29.76842 -0.00279
C 6.12941 32.02824 -0.00561
C 2.42483 0.02165 0.02784
C 3.66458 30.53219 -0.0154
C 2.49005 29.83976 -0.01299
C 2.48003 28.29496 -0.00407
C 3.77321 27.68729 0.01138
C 3.7032 26.27713 0.03278
C 2.497 25.61816 -0.00177
C 2.43363 17.01971 0.04421
C 2.41896 15.58034 0.00088
C 3.68581 14.9164 0.00828
C 3.73275 13.50662 -0.02375
C 4.92163 32.62174 -0.01977
C 2.46449 12.82485 0.00558
C 3.68538 10.69737 -0.01386
C 3.65373 9.23801 -0.02805
C 2.50911 8.49903 0.00081
C 2.52224 7.08719 0.00245
C 3.72184 6.43087 0.02728
C 3.63054 4.85975 -0.00039
C 2.41675 4.22851 0.0064
C 2.41503 2.83917 0.00211
C 3.63229 2.04371 -0.00449
C 3.69734 0.67565 -0.01979
C 2.45021 11.39986 -0.0059
C 7.35753 28.42154 0.01996
C 8.62919 27.62848 -0.03996
C 8.65789 26.26996 0.01465
C 9.85356 17.05541 0.02635
C 9.88336 15.6718 0.0127
C 11.07405 14.91029 0.01396
C 11.10877 13.49979 0.01849
C 9.89998 12.81226 -0.01142
C 9.83719 11.36017 -0.00562
C 11.02999 10.67607 -0.00494
C 11.11982 9.20625 0.00054
C 9.8501 8.56553 0.03007
C 9.81112 7.13453 -0.00095
C 11.0784 17.83579 -0.01378
C 11.01345 6.48087 0.01572
C 9.80103 4.29848 -0.00892
C 9.8318 2.86317 -0.01362
C 10.98977 2.14834 -0.0008
C 11.08089 0.76176 0.0288
C 9.85421 0.01152 0.00393
C 12.31419 32.66053 0.00895
C 13.50414 32.00087 0.00685
C 13.5017 30.5858 0.02888
C 12.31804 29.819 -0.00482
C 12.22959 28.38907 -0.01384
C 11.00617 5.02611 -0.04848
C 11.10386 19.14666 -0.01303
C 11.09451 23.39759 0.00848
C 9.75377 25.6641 -0.00049
C 7.37094 15.62623 -0.00074
C 8.66261 14.98893 -0.00518
C 8.64971 13.44757 0.0086
C 7.36777 12.80907 -0.00643
C 7.31796 11.36282 0.017
C 8.61091 10.65499 -0.03113
C 8.58017 9.26408 -0.02566
C 7.27566 8.52339 -0.00094
C 7.32254 7.10228 0.02322
C 8.57676 6.33639 -0.00725
C 8.61158 5.00973 -0.05697
C 7.33389 4.26947 0.01087
C 7.38882 2.90058 -0.01343
C 8.59575 2.1078 0.00988
C 8.59627 0.72288 0.0276
C 7.37458 0.03572 0.01305
C 9.87734 32.67433 -0.00077
C 11.09487 32.00789 0.03368
C 11.06032 30.52273 -0.02929
C 9.82663 29.82424 -0.00966
C 9.80715 28.4002 -0.03337
C 10.98864 27.75649 0.01227
C 11.10748 26.28759 0.00873
C 20.90542 19.1329 -0.00316
C 20.97138 17.72364 0.02188
C 19.6868 17.07714 -0.01979
C 19.67607 15.66522 0.02691
C 29.53861 11.37229 -0.02155
C 30.73294 10.63552 -0.00944
C 30.73222 9.20993 -0.03735
C 29.49732 8.5506 -0.00971
C 29.57612 7.1447 0.01518
C 30.76164 6.32002 0.01908
C 30.76962 4.93444 0.07705
C 29.52798 4.28105 0.0103
C 29.51114 2.87066 0.02108
C 30.75268 2.06834 0.00716
C 29.46205 12.80117 -0.01461
C 30.80183 0.6445 0.00307
C 31.92578 32.61169 0.01713
C 33.14874 31.96796 -0.01694
C 33.17099 30.50012 0.01428
C 31.93871 29.84559 -0.02142
C 31.97278 28.39905 0.0544
C 33.22917 27.643 0.00026
C 33.22504 26.25849 0.00682
C 31.97109 25.58807 -0.01779
C 32.04489 24.12773 0.03794
C 33.21131 23.34225 0.01927
C 29.52882 0.00091 0.00346
C 33.24856 21.98532 0.01574
C 30.70063 13.47884 -0.01303
C 29.52679 15.58824 0.01705
C 28.28253 4.97652 0.00235
C 27.03744 4.2818 0.01495
C 27.07807 2.9111 0.01259
C 28.27317 2.14319 0.01799
C 28.32703 0.75637 0.01699
C 27.02177 0.01458 -0.00416
C 29.53771 32.67084 0.01177
C 30.73029 31.93085 0.04266
C 30.79013 30.56636 0.01324
C 29.55173 29.8165 0.0014
C 30.73589 14.86274 -0.0405
C 29.52268 28.41964 0.00924
C 30.73753 26.26181 0.00261
C 29.52772 25.60013 0.03265
C 29.47603 24.03932 -0.02049
C 30.71674 23.41348 -0.01854
C 30.75698 22.02856 -0.01415
C 29.59099 21.29551 -0.03039
C 29.45785 19.83746 0.01836
C 30.68671 19.16945 0.03531
C 30.71728 17.70035 -0.00669
C 29.4698 17.02367 0.0101
C 30.74389 27.62522 0.02326
C 31.98316 21.37186 -0.02383
C 31.97578 19.93931 -0.01429
C 33.20249 19.17089 -0.0136
C 1.22042 23.38049 0.00723
C 1.14665 22.0559 0.02712
C 34.38616 21.3002 -0.02213
C 0.01833 19.89565 0.01951
C 1.27007 19.13617 -0.01678
C 1.25237 17.74904 0.01223
C 34.37583 17.06594 0.00648
C 0.00083 15.64905 0.02114
C 1.20324 14.97365 -0.02957
C 1.20859 13.51291 0.00343
C 34.40301 24.13767 0.03076
C 0.01353 12.8115 -0.02656
C 1.24028 10.66659 -0.00027
C 1.24795 9.2335 -0.00583
C 34.40213 8.49476 -0.02302
C 34.40622 7.09251 -0.02849
C 1.20617 6.40207 0.02931
C 1.19157 5.02849 0.00628
C 34.42587 4.19123 -0.0345
C 34.42825 2.78886 -0.00931
C 1.18498 2.11881 -0.00939
C 1.23128 0.74336 -0.00468
C 0.0272 11.36189 -0.02442
C 34.34949 25.50772 -0.05239
C 1.20092 26.24032 -0.00598
C 1.26667 27.68087 -0.00439
C 33.18008 17.70917 0.00594
C 31.94356 17.04613 -0.02474
C 32.02318 15.56503 0.00369
C 33.23607 14.88281 0.00455
C 33.24178 13.49056 -0.00644
C 31.9465 12.75581 -0.01839
C 31.98306 11.29086 0.00137
C 33.18042 10.62278 0.00199
C 33.15774 9.21469 0.04381
C 31.9691 8.52095 0.02806
C 32.01281 7.07842 0.01504
C 33.18361 6.42731 -0.00069
C 33.11911 4.96314 0.04926
C 31.90645 4.23914 -0.03838
C 31.96932 2.77128 0.00349
C 33.16174 2.1292 -0.00323
C 33.24723 0.68637 -0.00841
C 32.01325 34.0526 0.0001
C 34.32814 32.68148 -0.02927
C 1.15767 31.88796 -0.01404
C 1.23874 30.51187 0.01027
C 34.43264 29.79529 0.01831
C 0.04495 28.35282 -0.01037
C 28.34399 6.34931 0.01094
C 3.71622 31.92102 0.00662
C 27.05479 7.11808 0.02198
C 28.30524 9.18093 -0.00621
C 22.10002 21.27023 0.0106
C 22.10542 19.90319 -0.01154
C 23.39517 19.10423 -0.01721
C 23.42822 17.70189 -0.02422
C 22.10957 16.98197 0.01277
C 22.124 15.59919 0.00096
C 23.35441 14.90011 -0.01527
C 23.38742 13.45881 0.01087
C 22.18546 12.779 0.00199
C 22.10068 11.34 0.01511
C 23.36701 22.02095 -0.01594
C 23.39245 10.63557 -0.00478
C 22.19618 8.52595 -0.01185
C 22.17755 7.13055 0.01126
C 23.3773 6.39482 0.01852
C 23.37666 4.88724 -0.00381
C 22.12497 4.2604 0.03046
C 22.16022 2.86166 0.0296
C 23.35039 2.19028 0.03374
C 23.32595 0.71226 -0.02845
C 22.13012 0.01995 -0.03213
C 24.56782 32.7145 0.02239
C 23.36267 9.21809 -0.01662
C 25.85814 31.95508 0.01153
C 23.33853 23.49619 0.00742
C 22.12607 25.51695 0.00675
C 20.91478 14.96204 -0.01581
C 20.95931 13.49694 0.01452
C 19.73723 12.74072 0.04892
C 19.60946 11.30668 -0.00111
C 20.92343 10.66547 -0.03557
C 20.92029 9.20383 0.03754
C 19.82452 8.54844 0.01739
C 19.65717 7.13293 0.00755
C 20.91811 6.37666 -0.0054
C 20.9149 4.94765 0.00667
C 22.04146 24.14298 -0.00311
C 19.60503 4.28031 0.00143
C 20.87292 2.14186 0.00364
C 20.8841 0.72892 -0.00831
C 19.71524 34.05225 -0.02957
C 22.04574 32.62779 -0.04422
C 23.35181 31.97099 0.00654
C 23.32158 30.55041 -0.00703
C 22.10023 29.79388 -0.04076
C 22.11873 28.42331 -0.00652
C 23.36125 27.68929 0.0058
C 23.36943 26.24061 -0.00865
C 19.66039 2.86042 -0.017
C 25.82742 30.43006 0.02734
C 24.59232 29.80312 -0.0055
C 24.5816 28.37263 0.01515
C 27.07237 32.64195 -0.01052
C 28.36909 32.01598 -0.01679
C 28.30128 30.54607 0.00367
C 27.01067 29.75952 0.04306
C 27.03871 28.37076 0.00996
C 28.27517 27.73588 0.00195
C 28.24827 26.30662 -0.00802
C 27.05347 25.56113 -0.00218
C 27.11089 24.18851 -0.01654
C 28.30082 23.41612 -0.00037
C 24.58141 0.04142 0.00684
C 28.27381 21.9451 -0.0032
C 27.03453 19.90852 -0.02815
C 28.27516 19.16072 -0.00942
C 28.23348 17.71906 0.00487
C 27.01205 17.01471 0.00826
C 27.0367 15.59541 -0.00294
C 28.25482 14.8987 0.00152
C 28.28078 13.48555 0.01257
C 27.0736 12.75464 0.02316
C 27.04703 11.40095 0.04185
C 28.34807 10.68667 0.00194
C 27.00333 21.29171 0.00622
C 25.84296 0.69748 -0.01154
C 25.84046 2.16902 -0.0264
C 24.60537 2.91059 -0.00938
C 25.82482 27.66696 -0.00225
C 25.80653 26.23844 0.00071
C 24.66997 25.56146 -0.01107
C 24.56166 24.18858 -0.01586
C 25.84389 23.45707 -0.01971
C 25.81407 22.05341 -0.02118
C 24.59511 21.26526 0.00733
C 24.58465 19.79731 -0.00178
C 25.77385 19.12548 0.00768
C 25.86478 17.742 -0.0276
C 24.58281 17.02127 0.03005
C 24.5217 15.64444 -0.04078
C 25.79792 14.9142 0.02117
C 25.79822 13.51381 0.02737
C 24.6333 12.77602 -0.00498
C 24.5506 11.29498 0.00135
C 25.78954 10.63883 0.03102
C 25.81669 9.26335 0.02555
C 24.60078 8.56255 0.01423
C 24.57694 6.9972 -0.00285
C 25.86542 6.38088 -0.009
C 25.81931 5.0268 -0.01199
C 24.59433 4.27287 -0.00229
C 27.04853 8.5738 0.02611
C 2.46618 32.61317 0.00748
