265
Graphene
C 0.01764 0.02628 0.01295
C 16.05319 0.66755 0.01126
C 15.94167 2.16614 -0.01185
C 14.73856 2.86569 -0.01662
C 14.78283 4.23769 -0.00478
C 16.00969 4.99629 0.01511
C 16.01533 6.39724 0.00199
C 14.70776 7.02333 0.01087
C 14.7085 32.66286 -0.01527
C 12.25036 33.96524 0.00096
C 13.51787 0.67967 0.01277
C 13.54273 2.14556 -0.02422
C 12.30865 2.81534 -0.01721
C 12.32477 4.25203 -0.01154
C 13.57207 4.93494 0.0106
C 13.54828 6.41702 -0.01594
C 12.30072 32.61932 0.00742
C 9.83019 34.02966 -0.00311
C 11.03284 0.6805 0.00675
C 11.10697 2.06838 -0.00865
C 9.80888 2.81845 0.0058
C 9.8451 4.29832 -0.00652
C 11.09559 4.93488 -0.04076
C 10.99846 6.40569 -0.00703
C 9.79608 7.15709 0.00654
C 9.84991 29.87329 -0.04422
C 11.10813 31.98291 -0.02957
C 9.87324 32.67356 -0.00831
C 7.39613 0.03586 0.00364
C 8.60395 0.7172 -0.017
C 14.75491 34.04126 0.01852
C 8.63912 2.13305 0.00143
C 17.23975 32.70778 -0.00381
C 18.44972 14.92968 0.0296
C 19.65423 0.05176 -0.009
C 20.9313 0.6455 -0.00285
C 20.91851 2.12371 0.01423
C 19.68415 2.83805 0.02555
C 19.73874 4.23725 0.03102
C 20.89143 4.94638 0.00135
C 20.9247 6.4403 -0.00498
C 19.70644 7.08028 0.02737
C 19.61247 8.51261 0.02117
C 20.89167 9.20608 -0.04078
C 20.96064 10.658 0.03005
C 19.66282 11.40597 -0.0276
C 19.67013 12.79618 0.00768
C 20.8704 13.52703 -0.00178
C 20.84777 14.94705 0.00733
C 19.64673 15.54238 -0.02118
C 20.88956 31.94571 -0.01971
C 19.70881 32.68933 -0.01586
C 17.22339 34.03263 -0.01107
C 18.40295 0.75368 0.00071
C 18.41905 2.15502 -0.00225
C 17.21879 2.83398 0.01515
C 17.24385 4.29839 -0.0055
C 18.42327 4.92069 0.02734
C 18.48797 6.38637 0.01153
C 17.23107 7.13859 0.02239
C 17.24674 8.46648 -0.03213
C 18.3914 9.23077 -0.02845
C 18.42763 10.61562 0.03374
C 17.24079 16.97462 0.03046
C 7.39194 2.82181 0.00667
C 7.3773 4.27929 -0.0054
C 8.57096 4.95596 0.00755
C 4.87766 28.38876 -0.03113
C 4.8741 29.8344 0.0351
C 6.09689 30.58136 0.00422
C 6.1253 31.95976 0.00798
C 4.9378 32.64249 0.00228
C 2.47521 34.06809 -0.00114
C 3.70409 0.70151 -0.02696
C 3.70454 2.15545 -0.00368
C 2.49638 2.86256 -0.0108
C 2.44926 4.26993 -0.01957
C 3.70576 4.9105 0.02058
C 3.67479 6.36748 0.01965
C 2.47257 7.10646 -0.03682
C 2.47555 8.53218 0.00052
C 3.67152 9.22053 0.00374
C 3.65147 10.64627 -0.02813
C 2.41155 11.35751 -0.01952
C 2.46814 12.75675 0.05265
C 3.65372 13.49038 -0.01717
C 3.70458 14.9202 0.00244
C 2.52734 15.60359 0.02299
C 2.43453 17.03039 0.03542
C 3.66317 17.7296 0.01416
C 2.44047 25.57244 0.01945
C 3.68312 26.21526 -0.01454
C 3.65644 27.65907 0.01241
C 2.47492 28.36821 0.0076
C 2.51047 29.84242 0.02162
C 3.67519 30.58066 -0.0014
C 6.17038 27.64592 0.02098
C 6.15283 26.24158 0.01848
C 6.1466 17.75095 -0.00619
C 4.91665 17.11565 -0.02162
C 8.62948 6.33281 0.01739
C 7.38248 7.1207 0.03754
C 7.33338 8.51217 -0.03557
C 7.36878 11.3744 -0.00111
C 7.36101 15.61316 0.04892
C 7.38592 17.08823 0.01452
C 8.62891 17.75288 -0.01581
C 8.63068 19.19663 0.02691
C 7.39674 25.57535 -0.01979
C 7.37021 28.41903 0.02188
C 7.29825 29.88756 -0.00316
C 8.61968 30.53381 -0.0331
C 8.60987 31.93497 -0.0258
C 7.34524 32.65209 0.03338
C 22.11468 32.66092 -0.01199
C 4.94367 34.01311 -0.00491
C 6.18645 2.15063 0.03698
C 4.9238 2.82831 -0.02213
C 5.01449 4.23707 0.00028
C 6.16454 4.96702 -0.00289
C 6.08953 6.36869 -0.00066
C 4.88977 7.16354 0.00213
C 4.91764 8.54611 -0.05302
C 6.19936 9.2294 -0.04147
C 6.1343 10.67091 -0.02815
C 4.93936 11.33456 0.03505
C 4.90994 12.77036 0.01443
C 6.16403 13.46075 0.00979
C 6.06981 14.87748 -0.00481
C 4.8913 15.69083 0.00889
C 6.11555 0.70652 -0.00109
C 3.65096 31.96681 0.00415
C 23.37598 32.00818 -0.00229
C 22.12232 29.77081 -0.0264
C 32.00114 4.25909 -0.00323
C 33.23094 5.02699 0.00349
C 33.20284 6.42069 -0.03838
C 31.96177 7.09892 0.04926
C 31.933 8.48238 -0.00069
C 33.17261 9.22842 0.01504
C 33.23856 10.6434 0.02806
C 31.96155 11.33856 0.04381
C 31.957 12.79527 0.00199
C 33.19938 13.51252 0.00137
C 33.16669 14.9071 -0.01839
C 32.02514 15.60801 -0.00644
C 32.0447 17.01223 0.00455
C 33.23231 17.76363 0.00369
C 33.18637 19.0892 -0.02474
C 33.19639 22.00816 0.00594
C 33.19125 23.45208 -0.0136
C 31.93879 25.52323 -0.01429
C 33.22317 26.2679 -0.02383
C 33.20547 27.6981 0.01574
C 31.97674 28.40337 0.01927
C 32.00059 29.78387 0.03794
C 33.18719 30.54067 -0.01779
C 33.18516 31.96834 0.00682
C 32.00427 32.69555 0.00026
C 29.52645 34.06179 0.0544
C 30.7607 0.70186 -0.02142
C 30.77487 2.14976 0.01428
C 29.51353 2.83715 -0.01694
C 31.9464 2.85325 -0.00841
C 29.52251 4.24196 0.01713
C 33.21513 2.16656 0.0001
C 31.97251 0.03602 -0.01404
C 1.28082 0.74648 -0.00468
C 1.22428 2.20131 -0.00939
C 34.42387 2.86 -0.00931
C 0.01214 4.24557 -0.0345
C 1.16956 4.95206 0.00628
C 1.22506 6.39781 0.02931
C 0.00941 7.0922 -0.02849
C 0.00318 8.50839 -0.02302
C 1.20899 9.25596 -0.00583
C 1.19153 10.71157 -0.00027
C 34.42913 11.37628 -0.02442
C 34.38644 12.75522 -0.02656
C 1.1987 13.52407 0.00343
C 1.22857 14.88551 -0.02957
C 0.00499 15.59542 0.02114
C 34.40557 17.04695 0.00648
C 1.19851 17.75987 0.01223
C 1.2813 19.2241 -0.01678
C 0.01624 19.85268 0.01951
C 34.37913 21.31324 -0.02213
C 34.34201 24.15214 0.02712
C 0.01285 25.57307 0.00723
C 1.20334 26.30529 0.03076
C 1.16836 27.71299 -0.05239
C 34.40302 28.4022 -0.00598
C 34.4132 29.75414 -0.00439
C 1.24137 30.58261 -0.01037
C 1.17512 31.94407 0.01831
C 0.0072 32.68721 0.01027
C 33.20287 0.68526 -0.02927
C 30.74063 4.94583 0.00346
C 30.74437 6.393 0.00307
C 29.54706 7.08502 0.00716
C 24.61823 2.87598 0.00235
C 24.59954 4.2435 0.01094
C 25.81548 4.9726 0.02198
C 25.82049 6.39742 0.02611
C 24.55215 7.15508 -0.00621
C 24.62953 8.52026 0.00194
C 25.83992 9.17978 0.04185
C 25.85369 10.6075 0.02316
C 24.60044 11.3793 0.01257
C 24.5939 12.79906 0.00152
C 25.82732 13.50382 -0.00294
C 24.56193 29.81663 0.00826
C 25.81334 30.48616 0.00487
C 25.8129 31.96101 -0.00942
C 24.62979 32.67305 -0.02815
C 22.13352 34.01775 0.00622
C 23.41304 0.68933 -0.0032
C 23.37939 2.1315 -0.00037
C 22.12556 2.875 -0.01654
C 22.14596 4.24942 -0.00218
C 23.33739 4.99257 -0.00802
C 23.40433 6.35828 0.00195
C 22.10458 7.07377 0.00996
C 22.12342 8.55231 0.04306
C 23.33765 9.22504 0.00367
C 23.36805 10.66573 -0.01679
C 22.12204 11.33611 -0.01052
C 22.13805 12.74036 0.00684
C 23.41459 13.49117 -0.01154
C 25.81582 2.15222 0.01495
C 25.87234 0.70964 0.01259
C 24.60254 34.01579 0.01799
C 27.05498 32.65539 0.01699
C 29.54374 8.51062 0.02108
C 30.69955 9.21238 0.0103
C 30.75829 10.64129 0.07705
C 29.52041 11.38244 0.01908
C 29.50663 12.79188 0.01518
C 30.74696 13.54941 -0.00971
C 30.7352 14.94537 -0.03735
C 30.77048 27.71733 -0.00944
C 29.52816 28.41399 -0.02155
C 29.50177 29.83408 -0.01461
C 30.74789 30.52318 -0.01303
C 30.81158 31.99466 -0.0405
C 29.54896 32.64495 0.01705
C 27.02429 34.04417 0.0101
C 23.38586 30.57083 -0.00938
C 28.29809 0.69815 -0.00669
C 27.08394 2.86864 0.01836
C 27.04986 4.21514 -0.03039
C 28.25133 4.97233 -0.01415
C 28.28585 6.39577 -0.01854
C 27.10335 7.05425 -0.02049
C 27.00404 8.46453 0.03265
C 28.22167 9.22666 0.00261
C 28.29281 10.59996 0.02326
C 27.03415 11.33426 0.00924
C 27.04712 12.73798 0.0014
C 28.27839 13.53341 0.01324
C 27.08301 29.83833 0.04266
C 28.25535 30.52444 0.01177
C 28.28882 31.93332 -0.00416
C 28.24551 2.09291 0.03531
C 2.41017 32.65437 -0.02162
