362
Graphene
C 0.02594 34.07849 0.01295
C 11.03902 0.70051 0.01965
C 9.80565 34.02993 0.02058
C 12.28876 32.69467 -0.01957
C 13.40544 31.91454 -0.0108
C 13.54099 17.74789 -0.00368
C 12.36442 17.09214 -0.02696
C 12.33248 15.69145 -0.00114
C 13.5233 14.91007 0.00228
C 11.0143 2.13431 -0.03682
C 13.61214 13.4662 0.00798
C 12.36073 11.27886 0.0351
C 13.62173 10.67835 -0.03113
C 13.59699 9.25095 0.02098
C 12.31488 8.48532 0.01848
C 12.35238 7.02845 -0.00619
C 13.49498 6.2992 -0.02162
C 13.4268 4.91747 0.00889
C 12.22924 4.16063 -0.00481
C 12.34452 12.79577 0.00422
C 9.77923 2.8252 0.00052
C 9.75048 4.21979 0.00374
C 10.98439 4.92489 -0.02813
C 7.32982 34.05077 0.00444
C 9.84163 32.65202 -0.00925
C 11.05991 32.0679 0.01877
C 10.99844 30.73032 0.01363
C 9.84291 30.03099 -0.02162
C 9.83335 19.92976 0.00415
C 10.99731 19.18545 -0.0014
C 11.19661 17.86998 0.02162
C 9.91065 17.15863 0.0076
C 9.8147 15.7078 0.01241
C 11.09357 14.93702 -0.01454
C 11.16025 13.41823 0.01945
C 9.88362 12.75165 0.01416
C 9.87006 11.2658 0.03542
C 11.1547 10.58857 0.02299
C 11.0509 9.21646 0.00244
C 9.88109 8.54044 -0.01717
C 9.81795 7.08296 0.05265
C 11.01927 6.35459 -0.01952
C 12.20341 2.70295 0.00979
C 8.5373 0.73715 -0.01789
C 13.42364 2.15676 0.01443
C 12.33502 0.01074 -0.02815
C 18.467 19.23531 0.01739
C 18.33215 17.8107 0.00755
C 17.19186 17.0589 -0.0054
C 17.14738 15.69209 0.00667
C 18.41189 14.87967 0.00143
C 18.42172 13.39723 -0.017
C 17.22288 12.73158 0.00364
C 17.22095 11.28711 -0.00831
C 18.53479 30.62616 0.03754
C 18.40021 10.57729 -0.02957
C 17.28711 8.46686 0.00654
C 17.27101 7.03685 -0.00703
C 18.49573 6.31162 -0.04076
C 18.46275 4.92003 -0.00652
C 17.15102 4.22731 0.0058
C 17.2042 2.80797 -0.00865
C 18.40716 2.07825 0.00675
C 18.42505 0.69534 -0.00311
C 18.51479 9.13434 -0.04422
C 18.31971 31.94163 -0.03557
C 17.13889 32.72855 -0.00111
C 14.75061 34.06506 0.04892
C 14.66546 32.55322 -0.04147
C 15.90281 32.0824 -0.05302
C 15.96745 17.73122 0.00213
C 14.72967 17.14704 -0.00066
C 14.67805 15.62938 -0.00289
C 15.97418 14.90827 0.00028
C 16.02549 13.44006 -0.02213
C 14.80222 12.77358 0.03698
C 14.82919 11.36483 -0.00109
C 16.00601 10.61976 -0.00491
C 16.06556 9.19683 0.03338
C 14.86718 8.45378 -0.0258
C 14.76627 6.95142 -0.0331
C 16.05034 6.38305 -0.00316
C 15.98036 4.93058 0.02188
C 14.71931 4.22837 -0.01979
C 14.66639 2.86407 0.02691
C 15.97453 2.16539 -0.01581
C 15.96028 0.72533 0.01452
C 13.51328 0.72588 0.03505
C 8.54845 2.15277 0.02894
C 7.31136 2.90633 -0.02971
C 7.26162 4.30746 0.00165
C 3.64743 6.50736 0.02635
C 3.67341 5.10786 0.0127
C 2.39109 4.34768 0.01396
C 2.40683 2.88815 0.01849
C 3.71477 2.16336 -0.01142
C 3.6845 0.75371 -0.00562
C 2.44507 0.06886 -0.00494
C 4.87918 32.68577 0.00054
C 2.39434 7.23201 -0.01378
C 6.07668 32.01483 0.03007
C 4.85383 29.88939 0.01572
C 4.90992 28.44082 -0.04848
C 6.1717 27.71614 -0.00892
C 6.13803 26.33005 -0.01362
C 4.99738 25.58072 -0.0008
C 4.94616 24.17138 0.0288
C 6.19566 23.48147 0.00393
C 6.13627 22.05269 0.00895
C 6.14106 30.57376 -0.00095
C 2.46055 8.60353 -0.01303
C 3.6197 9.36205 0.00848
C 3.62642 10.77859 -0.00049
C 3.58586 30.56838 0.017
C 2.36744 29.81193 -0.03113
C 2.40703 28.44333 -0.02566
C 3.7107 27.73393 -0.00094
C 3.7496 26.25571 0.02322
C 2.43333 25.60465 -0.00725
C 2.43445 24.18668 -0.05697
C 3.73925 23.46473 0.01087
C 3.7147 21.97002 -0.01343
C 2.44865 21.31022 0.00988
C 2.48362 19.90068 0.0276
C 3.77455 19.15478 0.01305
C 3.71156 17.7315 -0.00077
C 2.47146 17.05676 0.03368
C 2.42623 15.611 -0.02929
C 3.68309 15.01033 -0.00966
C 3.69456 13.46564 -0.03337
C 2.40051 12.74916 0.01227
C 2.44153 11.40358 0.00873
C 4.87525 21.32796 0.00685
C 4.97317 19.96874 0.02888
C 6.17331 19.22065 -0.00482
C 6.16834 17.73134 -0.01384
C 7.37762 25.69915 0.03589
C 7.35082 24.26719 -0.02759
C 8.65739 21.92695 0.0402
C 7.35587 21.27702 0.00572
C 7.37973 19.88573 0.03592
C 8.66352 19.2657 0.00406
C 8.67517 17.83927 0.00943
C 7.46849 17.08772 0.02841
C 7.45515 15.65581 -0.01111
C 8.62017 14.9758 -0.01275
C 8.64877 13.47541 0.00985
C 7.44659 12.78761 -0.02245
C 7.42793 11.44539 -0.00428
C 8.66282 10.60279 0.03101
C 8.64191 9.15462 -0.01536
C 7.37826 8.53874 -0.02689
C 7.27645 7.15167 -0.01046
C 8.54216 6.37817 -0.00891
C 8.50267 4.93474 0.02819
C 8.49618 27.48769 -0.00033
C 17.19114 0.01499 0.00742
C 7.43617 28.30864 -0.01062
C 8.58916 30.52305 -0.00719
C 4.97624 17.08576 0.03693
C 4.94258 15.66171 0.01745
C 6.1757 14.9504 0.00488
C 6.18619 13.52343 -0.01004
C 4.96768 12.83542 -0.02896
C 4.85828 11.46201 -0.00131
C 6.15808 10.70771 -0.01118
C 6.1174 9.30781 -0.014
C 4.84596 8.59028 0.02147
C 4.88711 7.16653 0.00373
C 6.03568 6.40049 -0.00191
C 6.07311 4.99167 0.00438
C 4.84905 4.31653 0.01291
C 4.9025 2.86702 0.00093
C 6.06189 2.1599 0.00057
C 6.09068 0.7329 -0.01634
C 4.90198 0.01567 -0.00334
C 7.36663 32.66094 0.02339
C 8.56732 31.9682 0.01641
C 7.42602 29.75805 0.01364
C 19.65643 32.63384 -0.01594
C 20.83711 31.90984 0.0106
C 20.87949 30.51802 -0.01154
C 29.39236 2.95887 0.00346
C 30.58863 2.18297 0.01713
C 30.70151 0.72825 -0.01694
C 29.54682 0.02721 0.01428
C 31.98152 32.45151 -0.02142
C 33.32186 31.87532 0.0544
C 32.98416 27.77632 0.00026
C 33.18454 26.30398 0.00682
C 29.36097 4.35983 0.00307
C 31.9872 25.56657 -0.01779
C 33.2196 23.52025 0.01927
C 33.22743 22.00831 0.01574
C 32.02519 21.28917 -0.02383
C 31.98712 19.78826 -0.01429
C 33.23124 19.12213 -0.0136
C 33.21098 17.67479 0.00594
C 31.96553 17.00848 -0.02474
C 31.89638 15.5615 0.00369
C 31.96023 24.18184 0.03794
C 30.65031 4.80345 0.00716
C 29.42123 12.84971 0.02108
C 30.71889 13.39331 0.0103
C 28.36867 0.70158 -0.02049
C 27.11801 0.07299 -0.01854
C 29.52525 32.65429 -0.01415
C 30.67635 31.7026 -0.03039
C 29.68417 30.02274 0.01836
C 29.79052 28.59123 0.03531
C 30.9088 27.74634 -0.00669
C 30.76566 26.34007 0.0101
C 29.5244 25.60394 0.01705
C 29.54488 24.13281 -0.0405
C 30.71777 23.42418 -0.01303
C 30.72459 22.08037 -0.01461
C 29.51535 21.36054 -0.02155
C 29.55798 19.84462 -0.00944
C 30.74927 19.13086 -0.03735
C 30.70305 17.70845 -0.00971
C 29.45216 17.02809 0.01518
C 29.39798 15.63625 0.01908
C 30.68671 14.88734 0.07705
C 33.18547 14.8858 0.00455
C 33.14473 13.47646 -0.00644
C 31.91082 12.70963 -0.01839
C 31.93231 11.31759 0.00137
C 0.00949 19.87987 0.01951
C 1.27581 19.14581 -0.01678
C 1.27061 17.69856 0.01223
C 0.0288 16.98841 0.00648
C 34.4145 15.62336 0.02114
C 1.16693 14.85046 -0.02957
C 1.12762 13.44618 0.00343
C 34.32451 12.73701 -0.02656
C 34.30522 11.37576 -0.02442
C 1.13722 10.71701 -0.00027
C 1.15476 9.25471 -0.00583
C 34.29585 8.51421 -0.02302
C 34.38964 7.12736 -0.02849
C 1.16381 6.46232 0.02931
C 1.16573 5.0966 0.00628
C 34.39143 4.30281 -0.0345
C 34.43067 2.95106 -0.00931
C 1.20159 2.17357 -0.00939
C 1.23022 0.75887 -0.00468
C 0.00117 21.29623 -0.02213
C 28.21734 2.20174 0.03265
C 1.19352 22.0242 0.02712
C 34.41291 24.19203 0.03076
C 33.11395 10.659 0.00199
C 33.0605 9.25137 0.04381
C 31.91412 8.44323 0.02806
C 32.09263 7.11951 0.01504
C 33.25716 6.3234 -0.00069
C 33.1147 4.91208 0.04926
C 31.86441 4.27012 -0.03838
C 31.90687 2.89397 0.00349
C 33.20959 2.22654 -0.00323
C 33.22864 0.71139 -0.00841
C 31.98296 34.02626 0.0001
C 0.01548 32.69415 -0.02927
C 1.17861 31.98709 -0.01404
C 1.12997 30.54585 0.01027
C 34.2105 30.0208 0.01831
C 34.18926 28.55783 -0.01037
C 1.12876 27.75268 -0.00439
C 1.18754 26.34629 -0.00598
C 34.41147 25.61616 -0.05239
C 1.18989 23.42911 0.00723
C 3.61049 31.93582 -0.00643
C 26.96858 2.82925 0.00261
C 28.15764 15.00283 0.00924
C 22.09477 32.58565 0.01515
C 23.34698 31.86886 -0.00225
C 23.35105 30.49119 0.00071
C 22.12242 29.78822 -0.01107
C 22.00452 28.40282 -0.01586
C 23.23818 27.72308 -0.01971
C 23.24892 26.26841 -0.02118
C 22.14455 25.48929 0.00733
C 19.72228 0.02739 -0.0055
C 21.9897 24.03779 -0.00178
C 23.32487 22.00104 -0.0276
C 22.10035 21.29191 0.03005
C 22.10667 19.86021 -0.04078
C 23.28113 19.11137 0.02117
C 23.16729 17.64044 0.02737
C 21.97717 16.9537 -0.00498
C 22.13193 15.45093 0.00135
C 23.32923 14.74584 0.03102
C 23.20567 23.40005 0.00768
C 20.94703 0.66554 0.02734
C 20.92018 2.07887 0.01153
C 19.64369 2.80737 0.02239
C 19.66075 29.8796 -0.01721
C 20.78042 27.63086 -0.02422
C 20.98544 22.10102 0.01277
C 19.68467 19.89828 0.00096
C 20.92818 19.11834 -0.01527
C 20.80257 17.68524 0.01087
C 19.53707 17.0865 0.00199
C 19.59595 15.6629 0.01511
C 20.90885 14.7973 -0.00478
C 20.87756 13.40761 -0.01662
C 19.64871 12.75815 -0.01185
C 19.63291 11.39003 0.01126
C 20.60052 10.50528 0.01852
C 20.87235 9.25759 -0.00381
C 19.79373 8.38521 0.03046
C 19.73611 6.99148 0.0296
C 20.9714 6.35908 0.03374
C 21.07091 4.94807 -0.02845
C 19.74356 4.15845 -0.03213
C 23.2885 13.38387 0.02555
C 22.10464 12.73063 0.01423
C 22.17407 4.13106 -0.00285
C 22.10346 2.74319 -0.009
C 25.81927 0.74096 0.00152
C 24.7125 34.05162 0.01257
C 27.07415 32.67326 0.02316
C 28.31315 31.94642 0.04185
C 28.32808 30.5505 0.00194
C 27.13492 29.79475 -0.00621
C 27.11164 28.36734 0.02611
C 28.4153 27.80383 0.02198
C 28.28899 26.37073 0.01094
C 27.00142 25.57744 0.00235
C 27.01522 24.11938 0.01495
C 28.2903 23.41226 0.01259
C 28.27775 22.05263 0.01799
C 27.0238 21.34018 0.01699
C 26.9517 19.90598 -0.00416
C 28.21894 19.20542 0.01177
C 28.24532 17.782 0.04266
C 26.95265 17.08411 0.01324
C 26.99177 15.67073 0.0014
C 25.77108 2.24811 -0.00294
C 28.41705 13.60153 0.02326
C 24.59364 2.96378 0.00826
C 24.52755 15.55176 -0.00942
C 23.43811 2.10781 -0.01199
C 23.42479 0.73142 -0.00229
C 22.24621 34.07859 -0.00938
C 24.60166 32.60784 -0.0264
C 25.90827 31.96524 -0.01154
C 25.92134 30.55206 0.00684
C 24.61559 29.81187 -0.01052
C 24.59917 28.40288 -0.01679
C 25.76844 27.67868 0.00367
C 25.75494 26.27531 0.04306
C 24.5245 25.61004 0.00996
C 24.50062 24.19527 0.00195
C 25.76765 23.49546 -0.00802
C 25.80528 22.07207 -0.00218
C 24.55639 21.30272 -0.01654
C 24.51705 19.85372 -0.00037
C 25.72131 19.19546 -0.0032
C 25.70776 17.72893 0.00622
C 24.50322 16.97614 -0.02815
C 25.78541 14.94648 0.00487
C 2.43373 32.70878 0.0086
