421
Graphene
C 34.42741 33.99804 0.01295
C 15.92207 31.94245 0.00406
C 15.93703 30.61013 0.00943
C 14.75894 29.86511 0.02841
C 14.74084 28.44838 -0.01111
C 15.88523 27.66968 -0.01275
C 15.96587 26.23839 0.00985
C 14.65265 25.54009 -0.02245
C 14.74996 24.18845 -0.00428
C 16.00234 23.40817 0.03101
C 15.9957 22.02183 -0.01536
C 14.72513 32.77144 0.03592
C 14.74628 21.32839 -0.02689
C 16.02762 19.15969 -0.00891
C 15.98471 17.70211 0.02819
C 14.77094 16.94553 0.00165
C 14.72373 15.46446 -0.02971
C 15.98982 14.84243 0.02894
C 15.9298 13.46326 -0.01789
C 14.75307 12.70983 0.00444
C 14.75099 11.28639 -0.00925
C 16.00615 10.6198 0.01877
C 16.04132 9.14848 0.01363
C 14.71907 19.9149 -0.01046
C 14.76168 8.46771 -0.02162
C 12.31906 0.09164 0.00572
C 13.53333 2.20795 -0.02759
C 12.24475 25.62458 0.00488
C 12.2025 24.19957 -0.01004
C 13.4772 23.5211 -0.02896
C 13.47213 22.03617 -0.00131
C 12.21608 21.38538 -0.01118
C 12.26338 19.93662 -0.014
C 13.51707 19.11792 0.02147
C 13.61432 17.73415 0.00373
C 12.35021 17.07855 -0.00191
C 12.3057 15.71937 0.00438
C 13.49469 0.82338 0.0402
C 13.48535 14.86145 0.01291
C 12.08871 12.69531 0.00057
C 12.12358 11.26191 -0.01634
C 13.51488 10.57358 -0.00334
C 13.5053 9.11102 0.02339
C 12.23158 8.59247 0.01641
C 12.1192 7.21114 -0.00719
C 13.37966 6.51976 0.01364
C 13.5493 5.09478 -0.01062
C 12.32807 4.38509 -0.00033
C 12.28085 2.896 0.03589
C 13.3851 13.38522 0.00093
C 14.69994 7.03969 0.00415
C 15.94788 6.435 -0.0014
C 15.9985 4.99271 0.02162
C 18.39057 9.24851 0.02098
C 17.21552 8.53346 0.01848
C 17.18413 7.1213 -0.00619
C 18.41024 6.45193 -0.02162
C 18.42559 4.93205 0.00889
C 17.18132 4.28021 -0.00481
C 17.14765 2.86287 0.00979
C 18.40549 2.08891 0.01443
C 18.42186 0.71489 0.03505
C 17.1772 0.03833 -0.02815
C 18.41437 10.60084 -0.03113
C 19.64342 32.59658 -0.04147
C 20.86863 30.56379 0.00213
C 19.62224 29.80485 -0.00066
C 19.651 28.37632 -0.00289
C 20.87353 27.68958 0.00028
C 20.89862 26.23414 -0.02213
C 19.61962 25.54946 0.03698
C 19.69471 24.08284 -0.00109
C 20.90145 23.41379 -0.00491
C 20.92271 22.03671 0.03338
C 19.75757 21.30012 -0.0258
C 20.89529 31.95015 -0.05302
C 17.18331 11.33768 0.0351
C 17.22739 12.70104 0.00422
C 18.41471 13.39934 0.00798
C 14.78472 4.34868 0.0076
C 14.74614 2.91627 0.01241
C 15.88661 2.1812 -0.01454
C 15.9476 0.77122 0.01945
C 14.67587 0.12288 0.01416
C 17.1243 32.6713 0.03542
C 18.3151 31.94257 0.02299
C 18.39727 30.5331 0.00244
C 17.21035 29.75755 -0.01717
C 17.07756 28.35181 0.05265
C 18.37732 27.66831 -0.01952
C 18.38753 26.28461 -0.02813
C 17.2017 25.5503 0.00374
C 17.24077 24.16931 0.00052
C 18.48462 23.40612 -0.03682
C 18.57142 22.00072 0.01965
C 17.20082 21.32432 0.02058
C 17.27641 19.79031 -0.01957
C 18.47395 19.1592 -0.0108
C 18.41049 17.7381 -0.00368
C 17.18206 17.08081 -0.02696
C 17.20885 15.56239 -0.00114
C 18.42911 14.90137 0.00228
C 13.47709 26.32958 0.01745
C 13.49937 27.70935 0.03693
C 12.30117 28.4546 -0.01384
C 12.27474 29.95492 -0.00482
C 6.21769 30.58723 -0.00561
C 4.99003 29.90389 0.00208
C 4.90064 28.46481 0.01707
C 6.12944 27.73503 0.02769
C 6.04626 26.33531 -0.03291
C 4.87684 25.57272 -0.04999
C 4.84506 24.15983 0.04505
C 6.04476 23.50202 0.03284
C 6.04963 22.06133 -0.04307
C 4.85781 21.29927 0.03189
C 6.18246 32.03377 -0.01977
C 4.89156 19.86882 0.00031
C 6.16064 17.71113 0.01402
C 4.83081 17.00139 0.02379
C 4.85429 15.52277 0.00907
C 6.13188 15.05623 0.00643
C 6.09116 4.99667 -0.01509
C 4.84668 4.40724 0.03267
C 4.82448 3.00149 0.02374
C 6.17813 2.30148 0.00402
C 6.1078 0.79247 0.0073
C 4.93233 34.07575 0.0174
C 6.06726 19.13956 -0.003
C 4.8877 32.75688 0.02784
C 2.35576 0.0063 -0.01979
C 3.62247 0.66665 -0.00449
C 3.77428 30.59931 0.03345
C 2.47188 29.84462 0.00748
C 2.5438 28.47539 0.00662
C 3.71601 27.68966 -0.0154
C 3.64213 26.27419 -0.01299
C 2.44954 25.5552 -0.00407
C 2.4708 24.14218 0.01138
C 3.64603 23.46879 0.03278
C 3.64791 22.06601 -0.00177
C 2.41114 21.22551 0.04421
C 2.48298 19.84597 0.00088
C 3.69996 19.17838 0.00828
C 3.62318 17.7198 -0.02375
C 2.47356 16.96334 0.00558
C 2.45262 15.56028 -0.0059
C 3.65507 14.84558 -0.01386
C 3.50552 13.31256 -0.02805
C 2.38485 12.80556 0.00081
C 2.37324 7.01926 0.00245
C 3.44028 5.13148 0.02728
C 2.40967 4.27042 -0.00039
C 2.3724 2.80011 0.0064
C 3.63143 2.13175 0.00211
C 7.41907 32.66067 0.03828
C 19.71679 19.8755 -0.0331
C 8.59728 31.99968 0.01226
C 7.40766 29.96205 0.01996
C 9.7436 25.63517 -0.01303
C 9.7364 24.25388 -0.01378
C 10.93336 23.5588 0.02635
C 10.98032 22.08596 0.0127
C 9.78259 21.42952 0.01396
C 9.83437 19.96325 0.01849
C 10.99947 19.29704 -0.01142
C 11.10204 17.87229 -0.00562
C 9.92326 17.13981 -0.00494
C 9.92832 15.78192 0.00054
C 11.00562 26.31606 0.00848
C 11.14336 15.00695 0.03007
C 10.82397 6.33079 0.01572
C 11.09753 5.01367 -0.04848
C 9.83952 4.32259 -0.00892
C 9.88239 2.8974 -0.01362
C 11.07121 2.20843 -0.0008
C 11.02497 0.81686 0.0288
C 9.84524 0.09239 0.00393
C 12.3276 32.76765 0.00895
C 13.50165 32.00774 0.00685
C 13.56463 30.56558 0.02888
C 11.00364 13.62694 -0.00095
C 11.06765 27.69316 -0.00049
C 9.86602 28.39224 0.00873
C 9.87662 29.87608 0.01227
C 7.39759 28.49132 -0.03996
C 8.55518 27.76087 0.01465
C 8.50224 26.33311 -0.00074
C 7.36747 25.56164 -0.00518
C 7.30559 24.17939 0.0086
C 8.47658 23.48698 -0.00643
C 8.56389 22.04788 0.017
C 7.37524 21.31519 -0.03113
C 7.38898 19.96234 -0.02566
C 8.56264 19.22506 -0.00094
C 8.62995 17.81468 0.02322
C 7.37517 16.99685 -0.00725
C 7.49701 15.57069 -0.05697
C 8.81356 14.99816 0.01087
C 8.72098 5.10197 -0.01343
C 7.36851 4.41677 0.00988
C 7.3758 2.98876 0.0276
C 8.59532 2.23941 0.01305
C 8.6004 0.83726 -0.00077
C 7.33274 0.13186 0.03368
C 9.87531 32.78801 -0.02929
C 11.11434 32.12531 -0.00966
C 11.08414 30.67572 -0.03337
C 8.63498 30.59049 -0.00279
C 3.70126 31.96765 -0.00112
C 20.91943 19.09329 -0.00316
C 19.6376 16.97205 -0.01979
C 29.44988 11.34345 -0.02155
C 30.71092 10.67846 -0.00944
C 30.7575 9.2299 -0.03735
C 29.48063 8.50418 -0.00971
C 29.49341 7.11408 0.01518
C 30.72895 6.40746 0.01908
C 30.72649 4.96058 0.07705
C 29.50481 4.22721 0.0103
C 29.44697 2.84856 0.02108
C 30.69966 2.09969 0.00716
C 29.43285 12.76823 -0.01461
C 30.69383 0.69809 0.00307
C 31.97736 32.6442 0.01713
C 33.15755 31.85595 -0.01694
C 33.22835 30.43154 0.01428
C 32.02612 29.76178 -0.02142
C 32.024 28.38707 0.0544
C 33.2125 27.66257 0.00026
C 33.24797 26.16336 0.00682
C 31.94621 25.43847 -0.01779
C 31.86565 24.1086 0.03794
C 33.143 23.34748 0.01927
C 29.43517 34.02326 0.00346
C 33.11872 21.92849 0.01574
C 30.69285 13.49873 -0.01303
C 29.44194 15.54777 0.01705
C 28.24646 4.98728 0.00235
C 27.0132 4.22904 0.01495
C 27.095 2.84011 0.01259
C 28.29628 2.17007 0.01799
C 28.30119 0.72597 0.01699
C 27.00289 0.08977 -0.00416
C 29.47471 32.67949 0.01177
C 30.71265 32.02305 0.04266
C 30.77752 30.506 0.01324
C 29.56619 29.74382 0.0014
C 30.69765 14.85512 -0.0405
C 29.5092 28.29418 0.00924
C 30.80538 26.24539 0.00261
C 29.57482 25.58138 0.03265
C 29.47187 24.11663 -0.02049
C 30.69164 23.35722 -0.01854
C 30.70872 21.91957 -0.01415
C 29.49841 21.26924 -0.03039
C 29.4378 19.83825 0.01836
C 30.63066 19.18395 0.03531
C 30.68632 17.74082 -0.00669
C 29.46636 17.05007 0.0101
C 30.77733 27.71351 0.02326
C 31.94577 21.23437 -0.02383
C 31.93469 19.85404 -0.01429
C 33.16033 19.14382 -0.0136
C 1.26606 23.39036 0.00723
C 1.18481 21.96165 0.02712
C 34.38458 21.24247 -0.02213
C 0.00516 19.87992 0.01951
C 1.18091 19.14285 -0.01678
C 1.22995 17.68657 0.01223
C 34.41801 16.99317 0.00648
C 0.01566 15.57793 0.02114
C 1.16746 14.81927 -0.02957
C 1.11152 13.43335 0.00343
C 0.0215 24.03156 0.03076
C 34.31183 12.78765 -0.02656
C 1.29628 10.51497 -0.00027
C 1.19029 9.21253 -0.00583
C 34.31617 8.42816 -0.02302
C 34.3599 7.06106 -0.02849
C 1.2112 6.33589 0.02931
C 1.13991 4.93013 0.00628
C 34.31059 4.25672 -0.0345
C 34.26892 2.83625 -0.00931
C 1.11516 2.09606 -0.00939
C 1.09928 0.60927 -0.00468
C 34.39645 11.35128 -0.02442
C 0.03927 25.48747 -0.05239
C 1.2433 26.23004 -0.00598
C 1.29818 27.71793 -0.00439
C 33.20966 17.70309 0.00594
C 31.92893 17.01614 -0.02474
C 31.95285 15.61457 0.00369
C 33.19896 14.97926 0.00455
C 33.17164 13.53755 -0.00644
C 31.92932 12.80969 -0.01839
C 31.94891 11.36919 0.00137
C 33.21055 10.67147 0.00199
C 33.17691 9.19421 0.04381
C 31.90634 8.53708 0.02806
C 31.91191 7.07538 0.01504
C 33.12751 6.36447 -0.00069
C 33.18324 4.93458 0.04926
C 31.94055 4.26657 -0.03838
C 31.8975 2.77045 0.00349
C 33.08689 2.06987 -0.00323
C 33.16096 0.66177 -0.00841
C 31.94845 34.04601 0.0001
C 34.39775 32.5775 -0.02927
C 1.21721 32.00669 -0.01404
C 1.22632 30.56774 0.01027
C 0.06508 29.73987 0.01831
C 0.07392 28.32195 -0.01037
C 28.22015 6.37642 0.01094
C 27.01577 7.11377 0.02198
C 26.9982 8.54321 0.02611
C 28.21164 9.25377 -0.00621
C 22.14243 21.26711 0.0106
C 22.16776 19.85855 -0.01154
C 23.33671 19.10327 -0.01721
C 23.35051 17.68913 -0.02422
C 22.10644 17.0228 0.01277
C 22.11165 15.63503 0.00096
C 23.33465 14.89026 -0.01527
C 23.36952 13.49473 0.01087
C 22.13377 12.84643 0.00199
C 22.15247 11.35531 0.01511
C 23.35516 22.03944 -0.01594
C 23.33297 10.58047 -0.00478
C 22.13457 8.59297 -0.01185
C 22.15597 7.12433 0.01126
C 23.29137 6.40221 0.01852
C 23.2958 4.99794 -0.00381
C 22.13325 4.26523 0.03046
C 22.10269 2.82504 0.0296
C 23.33796 2.12482 0.03374
C 23.27491 0.72706 -0.02845
C 22.10339 0.01447 -0.03213
C 24.59484 32.70958 0.02239
C 23.33146 9.17028 -0.01662
C 23.3918 23.4136 0.00742
C 22.17059 24.19563 -0.00311
C 22.17309 25.55935 0.00675
C 19.69378 15.56847 0.02691
C 20.82104 14.90501 -0.01581
C 20.90151 13.55328 0.01452
C 19.69197 12.69285 0.04892
C 19.73806 11.32835 -0.00111
C 20.87803 10.7498 -0.03557
C 20.92081 9.28382 0.03754
C 19.7009 8.53969 0.01739
C 19.60791 7.10549 0.00755
C 20.90642 6.42698 -0.0054
C 20.91915 4.97039 0.00667
C 19.6277 4.26656 0.00143
C 19.66648 2.82005 -0.017
C 20.82116 2.12723 0.00364
C 20.8777 0.74985 -0.00831
C 19.63403 34.05735 -0.02957
C 22.04835 32.6641 -0.04422
C 23.26716 31.9703 0.00654
C 23.29516 30.51754 -0.00703
C 22.09383 29.81683 -0.04076
C 22.09613 28.45414 -0.00652
C 23.35131 27.74628 0.0058
C 23.34075 26.36507 -0.00865
C 25.81957 31.96356 0.01153
C 20.87417 17.69414 0.02188
C 25.84851 30.59918 0.02734
C 24.63676 28.42372 0.01515
C 27.02931 32.6756 -0.01052
C 28.20344 31.93133 -0.01679
C 28.37086 30.54721 0.00367
C 27.0193 29.88546 0.04306
C 27.06103 28.39598 0.00996
C 28.24691 27.63349 0.00195
C 28.35435 26.24543 -0.00802
C 27.08155 25.57129 -0.00218
C 27.09063 24.12376 -0.01654
C 28.26042 23.40313 -0.00037
C 24.53865 0.04925 0.00684
C 28.27829 21.91748 -0.0032
C 26.99137 19.78093 -0.02815
C 28.23574 19.0886 -0.00942
C 28.21916 17.72895 0.00487
C 27.05299 17.03453 0.00826
C 27.07135 15.60951 -0.00294
C 28.227 14.90079 0.00152
C 28.25178 13.49041 0.01257
C 27.01877 12.79107 0.02316
C 27.08441 11.36192 0.04185
C 28.28046 10.64464 0.00194
C 27.02175 21.26141 0.00622
C 25.72885 0.74457 -0.01154
C 25.74441 2.14812 -0.0264
C 24.5528 2.88888 -0.00938
C 25.82544 27.72483 -0.00225
C 25.84252 26.23636 0.00071
C 24.55976 25.61711 -0.01107
C 24.64888 24.15431 -0.01586
C 25.90112 23.42326 -0.01971
C 25.75143 22.02428 -0.02118
C 24.61081 21.25633 0.00733
C 24.59159 19.8057 -0.00178
C 25.80385 19.07595 0.00768
C 25.79309 17.67286 -0.0276
C 24.56946 16.97 0.03005
C 24.59351 15.54604 -0.04078
C 25.79858 14.85518 0.02117
C 25.82565 13.50519 0.02737
C 24.61562 12.78364 -0.00498
C 24.58655 11.35342 0.00135
C 25.82976 10.6559 0.03102
C 25.87212 9.32551 0.02555
C 24.62081 8.53478 0.01423
C 24.51654 7.071 -0.00285
C 25.79048 6.43666 -0.009
C 25.78591 4.96164 -0.01199
C 24.56247 4.28761 -0.00229
C 24.52468 29.79784 -0.0055
C 2.47429 32.67023 0.01078
