375
Graphene
C 0.01238 0.0129 0.01295
C 9.90837 4.24485 0.02299
C 9.83127 2.85731 0.00244
C 11.07593 2.14744 -0.01717
C 11.09571 0.68124 0.05265
C 9.84251 34.0761 -0.01952
C 12.29323 32.65838 -0.02813
C 13.51267 31.92171 0.00374
C 13.48926 30.51251 0.00052
C 12.31276 29.7874 -0.03682
C 12.30357 28.39826 0.01965
C 12.33473 15.59639 0.02058
C 13.52069 14.89989 -0.01957
C 13.54374 13.49066 -0.0108
C 12.33001 12.7703 -0.00368
C 12.28915 11.36417 -0.02696
C 13.5333 10.62984 -0.00114
C 13.52745 9.21774 0.00228
C 12.26911 8.49697 0.00798
C 12.28588 7.09961 0.00422
C 11.03362 4.96157 0.03542
C 11.04349 6.44039 0.01416
C 9.82904 7.09053 0.01945
C 9.83426 8.51216 -0.01454
C 9.80141 32.68793 0.03101
C 11.06052 31.9481 -0.01536
C 11.0732 30.53282 -0.02689
C 9.87366 29.85481 -0.01046
C 9.88801 28.39916 -0.00891
C 11.08634 27.68505 0.02819
C 11.07483 26.2827 0.00165
C 9.85704 25.58806 -0.02971
C 9.8373 24.16858 0.02894
C 13.52671 6.36946 0.0351
C 9.82018 21.3444 -0.01789
C 11.06499 17.72285 -0.00925
C 9.84806 17.03678 0.01877
C 9.86985 15.63122 0.01363
C 11.10864 14.88293 -0.02162
C 11.02834 13.47145 0.00415
C 9.84629 12.80328 -0.0014
C 9.85814 11.35248 0.02162
C 11.04174 10.61828 0.0076
C 11.07104 9.22102 0.01241
C 9.86547 19.88572 0.00444
C 7.35881 0.03015 -0.00428
C 13.52512 4.94966 -0.03113
C 12.28625 2.85725 0.01848
C 18.44817 30.5723 0.02691
C 17.21789 29.7995 -0.01581
C 18.4565 14.8986 0.01452
C 18.45389 13.49464 0.04892
C 17.24457 12.77691 -0.00111
C 17.18737 11.34412 -0.03557
C 18.46398 10.66814 0.03754
C 18.46716 9.20314 0.01739
C 17.22396 8.54124 0.00755
C 17.2355 7.07456 -0.0054
C 18.44639 6.39889 0.00667
C 18.46409 4.95226 0.00143
C 17.23774 4.2326 -0.017
C 17.20545 2.88168 0.00364
C 18.45789 2.1296 -0.00831
C 18.4586 0.70497 -0.02957
C 17.22106 0.00036 -0.04422
C 19.66864 32.70574 0.00654
C 20.86792 31.91401 -0.00703
C 18.45882 31.94906 -0.01979
C 17.18587 32.68083 0.02188
C 14.71807 0.04385 -0.00316
C 15.96975 0.69976 -0.0331
C 13.55129 2.12497 -0.00619
C 13.52529 0.73132 -0.02162
C 12.29587 0.02178 0.00889
C 14.73435 32.68884 -0.00481
C 15.98379 31.95192 0.00979
C 16.00428 30.55337 0.01443
C 14.74421 29.782 0.03505
C 15.96741 14.88951 -0.02815
C 16.00349 13.51324 -0.04147
C 12.31239 4.26149 0.02098
C 14.73979 12.80601 -0.05302
C 15.96088 10.64435 -0.00066
C 15.96864 9.24216 -0.00289
C 14.80084 8.51486 0.00028
C 14.75271 7.09516 -0.02213
C 15.98278 6.40951 0.03698
C 15.99956 4.91203 -0.00109
C 14.74035 4.22522 -0.00491
C 14.73154 2.80655 0.03338
C 15.98388 2.12317 -0.0258
C 14.75182 11.3387 0.00213
C 20.90954 30.5107 -0.04076
C 8.61742 0.7141 -0.02245
C 7.40674 2.88936 -0.01275
C 3.6704 5.01176 0.01305
C 2.46174 4.26202 -0.00077
C 2.45369 2.86324 0.03368
C 3.71006 2.11383 -0.02929
C 3.69756 0.74233 -0.00966
C 2.44746 34.04677 -0.03337
C 4.9113 32.67243 0.01227
C 6.17213 31.99242 0.00873
C 6.14307 30.52104 -0.00049
C 4.9111 29.81681 0.00848
C 4.9466 28.42822 -0.01303
C 6.16261 27.70463 -0.01378
C 6.17384 26.27554 0.02635
C 4.9353 25.58312 0.0127
C 4.92292 24.13312 0.01396
C 6.13096 23.48528 0.01849
C 6.18856 22.0345 -0.01142
C 4.90401 21.26946 -0.00562
C 4.91377 19.83917 -0.00494
C 3.64288 6.43295 0.0276
C 2.46216 7.0827 0.00988
C 2.48798 8.52083 -0.01343
C 3.67869 9.24689 0.01087
C 3.76627 30.51979 0.00402
C 2.47444 29.81928 0.0073
C 2.42752 28.39287 0.0174
C 3.65931 27.71924 0.03828
C 3.708 26.2551 0.01226
C 2.42468 25.58661 -0.00279
C 2.46547 24.15777 0.01996
C 3.71168 23.4268 -0.03996
C 3.68722 21.9933 0.01465
C 6.18838 19.15673 0.00054
C 2.41578 21.27736 -0.00074
C 3.7184 19.20832 0.0086
C 3.66571 17.76298 -0.00643
C 2.44329 17.07172 0.017
C 2.49231 15.62995 -0.03113
C 3.69581 14.87609 -0.02566
C 3.69649 13.50093 -0.00094
C 2.45137 12.77567 0.02322
C 2.47648 11.3444 -0.00725
C 3.67754 10.66374 -0.05697
C 2.46139 19.86084 -0.00518
C 8.60856 2.12588 0.00985
C 6.16726 17.73073 0.03007
C 4.89267 15.61743 0.01572
C 8.63286 23.44738 0.00093
C 8.62032 22.03195 0.00057
C 7.36458 21.32325 -0.01634
C 7.42762 19.88875 -0.00334
C 8.64594 19.18865 0.02339
C 8.62953 17.79119 0.01641
C 7.39535 17.00522 -0.00719
C 7.3622 15.63049 0.01364
C 8.61066 14.96405 -0.01062
C 8.57424 13.4693 -0.00033
C 7.36663 12.77566 0.03589
C 7.36898 11.35665 -0.02759
C 8.60586 10.67381 0.0402
C 8.6108 9.19687 0.00572
C 7.34249 8.56197 0.03592
C 7.36193 7.12282 0.00406
C 8.60913 6.38599 0.00943
C 8.59101 4.98501 0.02841
C 7.3723 4.25258 -0.01111
C 7.37084 24.17015 0.01291
C 7.41568 25.55672 0.00438
C 8.59667 26.31882 -0.00191
C 8.6337 27.69733 0.00373
C 6.11846 14.92325 -0.04848
C 6.15961 13.49098 -0.00892
C 4.90831 12.80366 -0.01362
C 4.88716 11.42799 -0.0008
C 6.15008 10.66702 0.0288
C 6.16619 9.26235 0.00393
C 4.89839 8.53137 0.00895
C 4.92115 7.1376 0.00685
C 6.16103 6.36301 0.02888
C 4.93308 17.01426 -0.00095
C 6.13439 4.98937 -0.00482
C 4.91731 2.85675 0.03693
C 6.14695 2.11313 0.01745
C 6.10091 0.72039 0.00488
C 4.85922 0.02612 -0.01004
C 7.36826 32.68401 -0.02896
C 8.62376 31.97029 -0.00131
C 8.60784 30.5269 -0.01118
C 7.347 29.83075 -0.014
C 7.39275 28.4316 0.02147
C 4.90622 4.21225 -0.01384
C 3.70709 31.97743 0.02374
C 19.69304 29.83645 -0.00652
C 20.90599 14.89877 -0.00865
C 30.73502 2.12708 0.00716
C 30.7131 0.69303 0.00307
C 29.49566 34.05931 0.00346
C 31.9345 32.62653 0.01713
C 33.21492 31.97079 -0.01694
C 33.18817 30.52503 0.01428
C 31.98967 29.82289 -0.02142
C 32.00081 28.38059 0.0544
C 33.20615 27.70462 0.00026
C 33.18493 26.28184 0.00682
C 31.98485 25.54636 -0.01779
C 31.99174 24.17665 0.03794
C 33.21651 23.40848 0.01927
C 33.21038 21.99545 0.01574
C 31.99968 21.30882 -0.02383
C 31.9516 19.91138 -0.01429
C 33.22674 19.17636 -0.0136
C 33.18488 17.74088 0.00594
C 32.00287 17.03927 -0.02474
C 29.51965 2.86886 0.02108
C 29.48719 4.25608 0.0103
C 30.75991 4.98181 0.07705
C 30.74646 6.40703 0.01908
C 30.76702 27.65603 0.02326
C 30.70808 26.27308 0.00261
C 29.52786 25.55546 0.03265
C 29.51386 24.0475 -0.02049
C 30.76747 23.42868 -0.01854
C 30.74496 22.04162 -0.01415
C 29.54921 21.33486 -0.03039
C 29.52372 19.83615 0.01836
C 30.71317 19.16429 0.03531
C 32.0212 15.57061 0.00369
C 30.74076 17.70794 -0.00669
C 29.50363 15.61975 0.01705
C 30.76958 14.91005 -0.0405
C 30.73004 13.50716 -0.01303
C 29.49375 12.79707 -0.01461
C 29.53744 11.33634 -0.02155
C 30.7707 10.6174 -0.00944
C 30.74465 9.28495 -0.03735
C 29.52778 8.51087 -0.00971
C 29.52401 7.06319 0.01518
C 29.50322 17.04176 0.0101
C 29.53457 28.37114 0.00924
C 33.20413 14.88165 0.00455
C 31.96025 12.77923 -0.01839
C 34.42679 19.89217 0.01951
C 1.24109 19.19139 -0.01678
C 1.23131 17.76884 0.01223
C 34.43075 17.00903 0.00648
C 0.00475 15.63368 0.02114
C 1.21035 14.91715 -0.02957
C 1.2344 13.50429 0.00343
C 0.00152 12.7413 -0.02656
C 34.43309 11.3935 -0.02442
C 1.23357 10.68104 -0.00027
C 1.22274 9.20112 -0.00583
C 34.42036 8.53656 -0.02302
C 34.4293 7.10761 -0.02849
C 1.22588 6.39113 0.02931
C 1.19896 4.91601 0.00628
C 34.42009 4.21465 -0.0345
C 0.00483 2.82825 -0.00931
C 1.28835 2.14485 -0.00939
C 1.23071 0.69048 -0.00468
C 34.40099 21.30291 -0.02213
C 1.20119 22.00784 0.02712
C 1.2149 23.44942 0.00723
C 34.41669 24.12345 0.03076
C 31.96372 11.35978 0.00137
C 33.1869 10.65992 0.00199
C 33.17869 9.23965 0.04381
C 31.98762 8.49997 0.02806
C 31.93274 7.1082 0.01504
C 33.17256 6.4034 -0.00069
C 33.20492 4.98098 0.04926
C 31.99522 4.24073 -0.03838
C 31.98404 2.86834 0.00349
C 33.21463 13.49232 -0.00644
C 33.19981 2.12707 -0.00323
C 31.97296 0.03 0.0001
C 34.41607 32.66121 -0.02927
C 1.2181 31.96459 -0.01404
C 1.23646 30.53869 0.01027
C 34.42664 29.81313 0.01831
C 0.01432 28.42769 -0.01037
C 1.22079 27.64254 -0.00439
C 1.23311 26.26867 -0.00598
C 34.42361 25.59549 -0.05239
C 33.19207 0.71799 -0.00841
C 19.67687 15.5807 0.0058
C 29.51716 29.79629 0.0014
C 30.74531 31.92279 0.04266
C 22.1339 8.51093 -0.03213
C 22.16052 7.15942 0.02239
C 23.36444 6.3575 0.01153
C 23.30865 4.94285 0.02734
C 22.13085 4.25067 -0.0055
C 22.1253 2.82857 0.01515
C 23.339 2.14583 -0.00225
C 23.35702 0.7287 0.00071
C 22.14019 34.05835 -0.01107
C 24.61864 32.65788 -0.01586
C 25.81341 31.96038 -0.01971
C 25.81529 30.49681 -0.02118
C 24.564 29.8215 0.00733
C 24.57791 28.35889 -0.00178
C 25.79819 27.69031 0.00768
C 25.84696 26.2877 -0.0276
C 24.58189 25.58888 0.03005
C 24.52901 24.11731 -0.04078
C 25.77633 23.43704 0.02117
C 22.13475 15.58658 -0.02845
C 22.11253 17.01814 0.03374
C 23.40254 17.73762 0.0296
C 23.38276 26.25258 0.03046
C 20.88124 13.50162 0.00675
C 19.64078 12.75712 -0.00311
C 19.69603 11.35074 0.00742
C 20.93072 10.59599 -0.01594
C 20.9411 9.19182 0.0106
C 19.68645 8.51748 -0.01154
C 19.67835 7.09708 -0.01721
C 20.8685 6.39244 -0.02422
C 20.91811 4.92491 0.01277
C 25.82581 22.01188 0.02737
C 19.63467 4.24415 0.00096
C 20.93969 2.07566 0.01087
C 20.94893 0.67507 0.00199
C 19.64752 34.0548 0.01511
C 22.13621 32.65284 -0.00478
C 23.3558 31.95475 -0.01662
C 23.35353 30.51179 -0.01185
C 22.18894 29.79806 0.01126
C 22.10569 28.37117 0.01852
C 23.37167 27.67599 -0.00381
C 19.68326 2.84352 -0.01527
C 30.76202 30.53716 0.01324
C 24.6491 21.34095 -0.00498
C 25.82849 19.17381 0.03102
C 27.0581 19.83175 0.00487
C 28.26301 19.16747 0.00826
C 28.28306 17.77532 -0.00294
C 27.04247 17.04933 0.00152
C 27.05774 15.63367 0.01257
C 28.26379 14.89571 0.02316
C 28.28348 13.48757 0.04185
C 28.29047 10.6415 0.00194
C 28.30039 9.25323 -0.00621
C 27.06177 8.56451 0.02611
C 27.04894 7.07807 0.02198
C 28.31897 6.40375 0.01094
C 28.31167 4.97087 0.00235
C 27.06249 4.23987 0.01495
C 27.02805 2.83757 0.01259
C 28.30363 2.12997 0.01799
C 28.26712 0.68661 0.01699
C 27.11993 0.00748 -0.00416
C 29.46659 32.67099 0.01177
C 27.06111 21.28327 -0.00942
C 28.29434 21.97523 -0.02815
C 28.23306 23.42817 0.00622
C 27.04856 24.16258 -0.0032
C 25.78459 17.71679 0.02555
C 24.57961 17.05587 0.01423
C 25.84358 9.18956 -0.00285
C 24.56129 8.50333 -0.009
C 24.6125 7.07523 -0.01199
C 25.7804 6.42268 -0.00229
C 25.84088 4.97976 -0.00938
C 24.56336 4.28225 -0.0264
C 24.62553 2.86148 -0.01154
C 24.5989 19.90456 0.00135
C 25.80484 2.13771 0.00684
C 24.63898 34.02755 -0.01679
C 27.0521 32.67548 0.00367
C 28.30352 31.95723 0.04306
C 28.27147 30.52947 0.00996
C 27.09378 29.85504 0.00195
C 27.06408 28.41854 -0.00802
C 28.27452 27.69219 -0.00218
C 28.2744 26.26389 -0.01654
C 27.05179 25.56018 -0.00037
C 25.79582 0.68197 -0.01052
C 2.47145 32.63038 0.03267
