321
Graphene
C 0.01294 0.03086 0.01295
C 14.77725 8.52056 -0.02213
C 14.71827 7.17096 0.03698
C 15.99142 6.40452 -0.00109
C 16.01614 4.92274 -0.00491
C 14.7997 4.2974 0.03338
C 14.7795 2.85756 -0.0258
C 15.93246 2.09597 -0.0331
C 12.28698 0.00543 0.00028
C 15.93589 0.57193 -0.00316
C 18.49785 19.15322 -0.01979
C 17.27113 7.14375 0.02691
C 18.49104 6.38766 -0.01581
C 18.4802 4.95214 0.01452
C 17.27246 4.23371 0.04892
C 17.19571 2.90105 -0.00111
C 18.44746 2.10129 -0.03557
C 14.75514 34.0102 0.02188
C 18.39658 0.66005 0.03754
C 13.5911 0.61073 -0.00289
C 12.24951 2.81308 0.00213
C 9.81077 7.1503 0.00798
C 11.04851 6.35399 0.00422
C 11.03353 5.00984 0.0351
C 9.76136 4.2949 -0.03113
C 9.85507 2.86128 0.02098
C 11.08437 2.14431 0.01848
C 11.10123 0.697 -0.00619
C 13.53833 2.14242 -0.00066
C 9.80825 0.0549 -0.02162
C 12.29571 17.09358 -0.00481
C 13.60617 9.20669 0.00979
C 12.32101 8.62291 0.01443
C 12.26341 7.10487 0.03505
C 13.49204 6.46231 -0.02815
C 13.55525 4.92587 -0.04147
C 12.30985 4.25943 -0.05302
C 13.51296 17.77195 0.00889
C 9.90312 8.5198 0.00228
C 17.20696 34.01037 0.01739
C 20.87254 32.00728 -0.0054
C 22.1083 21.26476 -0.02422
C 22.06646 19.8309 0.01277
C 23.35837 19.14721 0.00096
C 23.42127 17.7358 -0.01527
C 22.16351 17.04315 0.01087
C 23.39083 14.86821 0.00199
C 23.31716 13.62465 0.01511
C 23.32676 22.03924 -0.01721
C 23.37231 10.58683 -0.00478
C 22.13545 8.45858 -0.01185
C 22.16268 7.13902 0.01126
C 23.37719 6.34659 0.01852
C 23.31894 4.97273 -0.00381
C 22.111 4.27322 0.03046
C 22.15413 2.80627 0.0296
C 23.42702 2.19053 0.03374
C 23.33002 9.20214 -0.01662
C 19.73371 32.63578 0.00755
C 23.35058 23.45009 -0.01154
C 23.41511 26.21807 -0.01594
C 20.84876 22.01881 0.00667
C 19.66521 19.79608 0.00143
C 20.91375 19.12837 -0.017
C 19.72131 7.08475 0.00364
C 20.90406 6.44358 -0.00831
C 20.86233 4.97601 -0.02957
C 19.64048 4.28585 -0.04422
C 22.08818 24.17401 0.0106
C 19.65724 2.87873 0.00654
C 20.91037 0.70665 -0.04076
C 19.72229 34.0416 -0.00652
C 22.15035 32.64073 0.0058
C 23.38557 31.98067 -0.00865
C 23.35548 30.55985 0.00675
C 22.19101 29.85221 -0.00311
C 23.37172 27.65279 0.00742
C 20.90376 2.08328 -0.00703
C 11.049 9.21205 -0.00114
C 11.04713 10.61959 -0.02696
C 9.9003 11.37829 -0.00368
C 2.45142 4.28179 -0.00334
C 2.44198 2.86562 0.02339
C 3.65642 2.17095 0.01641
C 3.68226 0.7227 -0.00719
C 2.41777 0.01224 0.01364
C 4.92078 32.71465 -0.01062
C 6.19771 31.91176 -0.00033
C 3.6637 4.9644 -0.01634
C 6.11338 30.46803 0.03589
C 4.85688 28.38085 0.0402
C 4.91094 25.4793 0.00572
C 4.83197 24.18457 0.03592
C 6.16003 21.99088 0.00406
C 4.97751 21.33617 0.00943
C 4.87292 19.93002 0.02841
C 6.15909 19.15489 -0.01111
C 4.89895 29.8113 -0.02759
C 6.14492 17.76591 -0.01275
C 2.47934 11.42919 0.00057
C 3.70611 13.45101 0.01291
C 3.65564 30.56355 0.00685
C 2.43581 29.8331 0.02888
C 2.42014 28.39327 -0.00482
C 3.67728 27.69347 -0.01384
C 3.69549 26.31545 0.03693
C 2.48326 25.50537 0.01745
C 2.45143 24.17076 0.00488
C 2.48804 12.78821 0.00093
C 3.67526 23.44709 -0.01004
C 2.39758 21.38899 -0.00131
C 2.47581 19.90773 -0.01118
C 3.67838 19.1457 -0.014
C 3.6658 17.7402 0.02147
C 2.41762 17.07747 0.00373
C 2.50388 15.58176 -0.00191
C 3.75699 14.92516 0.00438
C 3.64628 22.02576 -0.02896
C 4.99576 17.03051 0.00985
C 4.93959 15.62699 -0.02245
C 6.07613 14.88974 -0.00428
C 8.56866 9.31124 0.01945
C 7.3611 8.52867 0.01416
C 7.4063 7.09446 0.03542
C 8.59965 6.40863 0.02299
C 8.6658 4.95906 0.00244
C 7.36214 4.22412 -0.01717
C 7.42134 2.80719 0.05265
C 8.53162 10.6079 -0.01454
C 8.59928 2.18866 -0.01952
C 7.33377 0.01545 0.00374
C 11.07014 17.72192 0.00052
C 9.87959 17.10464 -0.03682
C 9.86929 15.54092 0.01965
C 11.10731 14.84705 0.02058
C 11.0751 13.60015 -0.01957
C 9.85056 12.81672 -0.0108
C 8.58752 0.69498 -0.02813
C 7.32959 11.2951 0.01241
C 7.36542 12.74503 0.0076
C 8.65261 13.50686 0.02162
C 6.15309 13.45126 0.03101
C 4.9051 12.79013 -0.01536
C 4.93547 11.41028 -0.02689
C 6.08977 10.6789 -0.01046
C 6.25787 4.95175 -0.00891
C 4.99759 4.29824 0.02819
C 4.95357 2.88879 0.00165
C 6.11506 2.03317 -0.02971
C 6.12519 0.68446 0.02894
C 4.87738 0.03265 -0.01789
C 7.30904 32.61293 0.00444
C 7.41009 19.84314 -0.00925
C 8.53441 19.22265 0.01877
C 8.61335 17.78327 0.01363
C 7.40899 16.98674 -0.02162
C 7.33744 15.64177 0.00415
C 8.59949 14.9391 -0.0014
C 23.39072 0.72915 -0.02845
C 3.68791 31.95836 0.00895
C 22.15138 34.07174 -0.03213
C 25.85928 31.9725 0.01153
C 31.96239 25.5594 -0.01779
C 31.95435 24.18495 0.03794
C 33.25565 23.41332 0.01927
C 33.23191 22.04698 0.01574
C 31.9832 21.34224 -0.02383
C 32.00139 19.93875 -0.01429
C 33.16412 19.2573 -0.0136
C 33.16928 26.30973 0.00682
C 33.20591 17.77437 0.00594
C 31.9324 15.60565 0.00369
C 33.21857 14.92188 0.00455
C 33.23511 13.46045 -0.00644
C 31.98735 12.76292 -0.01839
C 31.94403 11.39327 0.00137
C 33.15977 10.69411 0.00199
C 33.2018 9.25447 0.04381
C 31.92065 17.03195 -0.02474
C 31.93203 8.56709 0.02806
C 33.20516 27.67342 0.00026
C 31.99554 29.79237 -0.02142
C 29.47654 12.83431 -0.01461
C 29.49349 11.38491 -0.02155
C 30.78993 10.70054 -0.00944
C 30.757 9.19685 -0.03735
C 29.50373 8.53734 -0.00971
C 29.47362 7.09322 0.01518
C 30.75689 6.40387 0.01908
C 31.96658 28.42647 0.0544
C 30.66122 4.97771 0.07705
C 29.46916 2.84188 0.02108
C 30.71046 2.07591 0.00716
C 30.74902 0.73956 0.00307
C 29.45287 34.07188 0.00346
C 31.98051 32.6967 0.01713
C 33.20201 31.91661 -0.01694
C 33.19896 30.5243 0.01428
C 29.50258 4.27745 0.0103
C 30.78108 13.49539 -0.01303
C 31.98824 7.16105 0.01504
C 33.18748 4.94652 0.04926
C 34.41324 17.03555 0.00648
C 34.40733 15.61545 0.02114
C 1.17658 14.96681 -0.02957
C 1.27457 13.49539 0.00343
C 0.02588 12.72305 -0.02656
C 0.03044 11.33183 -0.02442
C 1.24376 10.67722 -0.00027
C 1.20965 17.77574 0.01223
C 1.23689 9.23039 -0.00583
C 34.42127 7.093 -0.02849
C 1.19038 6.35131 0.02931
C 1.21076 4.99312 0.00628
C 0.03578 4.27822 -0.0345
C 0.01247 2.74592 -0.00931
C 1.28325 2.10034 -0.00939
C 1.25402 0.73255 -0.00468
C 34.42458 8.57018 -0.02302
C 33.2002 6.34244 -0.00069
C 1.18873 19.19855 -0.01678
C 0.04423 21.26017 -0.02213
C 31.92271 4.23061 -0.03838
C 31.93648 2.86681 0.00349
C 33.16546 2.10047 -0.00323
C 33.16366 0.72536 -0.00841
C 31.95592 0.00781 0.0001
C 0.01186 32.60324 -0.02927
C 1.2729 31.94233 -0.01404
C 34.43009 19.92124 0.01951
C 1.29097 30.5185 0.01027
C 34.43299 28.33772 -0.01037
C 1.24176 27.68162 -0.00439
C 1.27679 26.23727 -0.00598
C 34.39279 25.56965 -0.05239
C 0.00818 24.13587 0.03076
C 1.21634 23.45814 0.00723
C 1.1965 22.04119 0.02712
C 0.02491 29.88297 0.01831
C 30.74782 14.91302 -0.0405
C 29.55471 15.66733 0.01705
C 29.45615 17.06539 0.0101
C 25.81746 9.22956 0.02555
C 24.59079 8.50191 0.01423
C 24.64495 7.12839 -0.00285
C 25.86726 6.37742 -0.009
C 25.79301 4.92032 -0.01199
C 24.58158 4.30091 -0.00229
C 24.60623 2.87277 -0.00938
C 25.85761 10.70176 0.03102
C 25.77787 2.05632 -0.0264
C 24.5588 34.06836 0.00684
C 27.05787 32.63346 -0.01052
C 28.35813 31.93485 -0.01679
C 28.22291 30.4997 0.00367
C 26.99433 29.83513 0.04306
C 27.03235 28.36838 0.00996
C 28.25539 27.7001 0.00195
C 25.81835 0.65333 -0.01154
C 28.2937 26.33706 -0.00802
C 24.59907 11.41963 0.00135
C 25.84645 13.50396 0.02737
C 25.79927 30.50019 0.02734
C 24.54413 29.78808 -0.0055
C 24.51522 28.41548 0.01515
C 25.80965 27.71934 -0.00225
C 25.84936 26.25062 0.00071
C 24.60628 25.53804 -0.01107
C 24.56944 24.17674 -0.01586
C 24.6083 12.83476 -0.00498
C 25.8072 23.50324 -0.01971
C 24.54142 21.31819 0.00733
C 24.54308 19.86024 -0.00178
C 25.81525 19.21285 0.00768
C 25.82651 17.76206 -0.0276
C 24.62254 17.04982 0.03005
C 24.54614 15.59091 -0.04078
C 25.79345 14.9099 0.02117
C 25.78882 22.02861 -0.02118
C 27.04561 25.65736 -0.00218
C 27.06233 24.10467 -0.01654
C 28.28211 23.38028 -0.00037
C 26.99833 34.05367 -0.00416
C 29.51667 32.67732 0.01177
C 30.78908 31.93741 0.04266
C 30.67799 30.4636 0.01324
C 29.46878 29.80247 0.0014
C 29.53873 28.38837 0.00924
C 30.74555 27.62373 0.02326
C 28.24359 0.72564 0.01699
C 30.75938 26.21085 0.00261
C 29.52684 24.09981 -0.02049
C 30.78474 23.45444 -0.01854
C 30.73662 22.01506 -0.01415
C 29.55424 21.24536 -0.03039
C 29.50874 19.84325 0.01836
C 30.71261 19.14787 0.03531
C 30.74284 17.74241 -0.00669
C 29.54951 25.50681 0.03265
C 28.26535 2.16915 0.01799
C 26.9707 2.83536 0.01259
C 26.98693 4.23119 0.01495
C 28.3007 21.93954 -0.0032
C 27.00738 21.30551 0.00622
C 27.09092 19.85649 -0.02815
C 28.31 19.14916 -0.00942
C 28.17243 17.74863 0.00487
C 26.97352 16.98526 0.00826
C 27.05428 15.6098 -0.00294
C 28.28896 14.89197 0.00152
C 28.31027 13.45164 0.01257
C 27.09654 12.72216 0.02316
C 27.09676 11.33683 0.04185
C 28.28872 10.65243 0.00194
C 28.30317 9.17421 -0.00621
C 27.01865 8.49471 0.02611
C 27.0431 7.12423 0.02198
C 28.34181 6.32625 0.01094
C 28.35286 4.93016 0.00235
C 24.57178 32.64596 0.02239
C 2.45717 32.6714 0.00393
