353
Graphene
C 34.39861 0.05834 0.01295
C 14.73094 16.92882 -0.00114
C 15.80064 15.22009 0.00228
C 15.94529 6.36738 0.00798
C 15.92803 5.02159 0.00422
C 14.79573 4.22806 0.0351
C 14.77975 2.83431 -0.03113
C 16.01269 2.12745 0.02098
C 15.99585 0.66078 0.01848
C 15.97243 17.77572 -0.02696
C 14.73509 34.06414 -0.00619
C 18.47154 31.94336 0.00889
C 18.46807 30.51034 -0.00481
C 17.2503 29.80663 0.00979
C 17.24235 28.41388 0.01443
C 18.4032 27.57455 0.03505
C 18.42063 26.20196 -0.02815
C 17.21704 25.50868 -0.04147
C 17.22895 24.05571 -0.05302
C 17.23543 32.64525 -0.02162
C 18.47349 23.32385 0.00213
C 15.91708 19.12006 -0.00368
C 14.73469 21.23528 -0.01957
C 12.2067 19.85957 0.02162
C 13.47209 19.17886 0.0076
C 13.77851 17.91294 0.01241
C 12.46923 2.93817 -0.01454
C 13.57383 2.14085 0.01945
C 13.49526 0.7614 0.01416
C 12.21678 0.05632 0.03542
C 14.76797 32.61343 0.02299
C 14.67779 19.83891 -0.0108
C 16.01109 31.8973 0.00244
C 14.83244 29.78618 0.05265
C 14.77773 28.34046 -0.01952
C 15.96737 27.67682 -0.02813
C 16.0111 26.23248 0.00374
C 14.74562 25.48351 0.00052
C 14.7437 24.10491 -0.03682
C 15.96404 23.34995 0.01965
C 15.9926 21.91256 0.02058
C 16.05827 30.51522 -0.01717
C 12.31531 21.31818 -0.0014
C 18.45131 21.92428 -0.00066
C 17.16596 19.81589 0.00028
C 19.69082 29.82612 -0.017
C 19.65814 28.42178 0.00364
C 20.87233 27.63818 -0.00831
C 20.81157 26.23447 -0.02957
C 19.61182 25.53548 -0.04422
C 19.6446 24.14188 0.00654
C 20.82795 23.33393 -0.00703
C 20.90751 21.95543 -0.04076
C 20.88896 30.54929 0.00143
C 19.71138 21.28002 -0.00652
C 20.92254 19.13917 -0.00865
C 20.91108 17.70902 0.00675
C 19.70278 17.01262 -0.00311
C 19.64056 15.65432 0.00742
C 20.875 14.91263 -0.01594
C 20.8415 13.50197 0.0106
C 19.63209 12.7747 -0.01154
C 19.6011 11.32158 -0.01721
C 19.68294 19.86956 0.0058
C 17.18621 21.25533 -0.00289
C 20.92802 31.98798 0.00667
C 17.19696 34.03409 0.00755
C 18.41885 19.13922 -0.02213
C 18.53909 17.72758 0.03698
C 17.21425 17.026 -0.00109
C 17.13347 15.64792 -0.00491
C 18.37494 14.96801 0.03338
C 18.45431 13.5644 -0.0258
C 17.22893 12.82209 -0.0331
C 17.28353 11.5721 -0.00316
C 19.7193 32.67756 -0.0054
C 18.28121 10.62049 0.02188
C 17.16793 8.49445 0.02691
C 17.15398 7.06991 -0.01581
C 18.42225 6.36443 0.01452
C 18.39254 4.90891 0.04892
C 17.22044 4.25068 -0.00111
C 17.21118 2.81334 -0.03557
C 18.42102 2.11044 0.03754
C 18.38279 0.73065 0.01739
C 18.32201 9.23485 -0.01979
C 13.51145 22.02055 0.00415
C 13.49276 23.40942 -0.02162
C 12.33739 24.12682 0.01363
C 4.82114 32.64945 0.03007
C 6.08391 31.93114 -0.00095
C 6.14985 30.56 0.01572
C 4.89022 29.8569 -0.04848
C 4.8808 28.42369 -0.00892
C 6.07829 27.6937 -0.01362
C 6.19682 26.29975 -0.0008
C 4.97214 25.58366 0.0288
C 2.40868 0.067 0.00054
C 4.95473 24.1863 0.00393
C 6.1345 22.0294 0.00685
C 4.89592 21.37125 0.02888
C 4.8625 19.96622 -0.00482
C 6.02763 19.2565 -0.01384
C 4.67221 4.24529 0.03693
C 4.94612 2.84143 0.01745
C 6.11943 2.1357 0.00488
C 6.09191 0.76519 -0.01004
C 6.20325 23.4435 0.00895
C 4.86768 0.05324 -0.02896
C 3.64678 0.70583 -0.00494
C 2.43073 2.83495 -0.01142
C 3.6172 30.53759 0.00988
C 2.40545 29.8167 0.0276
C 2.48428 28.40061 0.01305
C 3.68193 27.66727 -0.00077
C 3.66712 26.27809 0.03368
C 2.44481 25.5135 -0.02929
C 2.47465 24.1501 -0.00966
C 3.67373 23.45688 -0.03337
C 3.65905 2.18286 -0.00562
C 3.64447 22.05714 0.01227
C 2.40348 19.86656 -0.00049
C 3.60593 19.2309 0.00848
C 3.62654 17.89898 -0.01303
C 2.584 17.00298 -0.01378
C 2.36813 15.68656 0.02635
C 2.38677 6.97817 0.0127
C 3.55135 5.02488 0.01396
C 2.40554 4.30672 0.01849
C 2.45417 21.30301 0.00873
C 7.27834 32.69158 -0.00131
C 8.54724 31.99724 -0.01118
C 8.60292 30.62758 -0.014
C 9.87734 24.19428 -0.01111
C 11.09541 23.47702 -0.01275
C 11.03982 21.99688 0.00985
C 9.7996 21.29888 -0.02245
C 9.84092 19.8958 -0.00428
C 11.03661 19.05974 0.03101
C 9.8677 2.76401 -0.01536
C 11.1906 2.31644 -0.02689
C 9.82251 25.65429 0.02841
C 11.0254 0.78617 -0.01046
C 12.29497 32.71399 0.02819
C 13.48935 31.99574 0.00165
C 13.55292 30.56963 -0.02971
C 12.28987 29.80671 0.02894
C 12.30211 28.40865 -0.01789
C 13.5592 27.69219 0.00444
C 13.5595 26.25367 -0.00925
C 12.30855 25.56696 0.01877
C 9.79022 0.141 -0.00891
C 11.04492 26.29057 0.00943
C 11.07106 27.6997 0.00406
C 9.85518 28.47499 0.03592
C 7.42772 29.86548 0.02147
C 7.41347 28.4303 0.00373
C 8.66517 27.68883 -0.00191
C 8.65563 26.26399 0.00438
C 7.41589 25.60508 0.01291
C 7.41792 24.20274 0.00093
C 8.60325 23.46778 0.00057
C 8.56519 22.03121 -0.01634
C 7.36619 21.27083 -0.00334
C 7.30818 19.82282 0.02339
C 8.58537 19.43448 0.01641
C 7.33416 3.00056 -0.00719
C 8.56248 2.4123 0.01364
C 8.54689 0.84146 -0.01062
C 7.30938 0.02231 -0.00033
C 9.72468 32.78371 0.03589
C 11.05335 32.02491 -0.02759
C 11.14304 30.61144 0.0402
C 9.86916 29.88898 0.00572
C 20.84941 10.69099 -0.02422
C 3.57207 31.92162 -0.01343
C 20.914 9.23554 0.01277
C 19.61353 7.16717 -0.01527
C 30.65712 13.48631 -0.01694
C 29.38282 12.86232 0.01428
C 30.84524 2.03679 -0.02142
C 30.69283 0.73267 0.0544
C 29.55255 0.01994 0.00026
C 31.95204 32.62845 0.00682
C 33.18101 31.89958 -0.01779
C 33.18114 30.54423 0.03794
C 30.70724 14.90269 0.01713
C 31.95341 29.86416 0.01927
C 33.1147 27.64819 -0.02383
C 33.16898 26.22558 -0.01429
C 31.93024 25.59599 -0.0136
C 31.91952 24.17695 0.00594
C 33.18177 23.52424 -0.02474
C 33.19828 22.05247 0.00369
C 31.94981 21.33076 0.00455
C 31.99655 19.92609 -0.00644
C 31.90742 28.41021 0.01574
C 33.13364 19.23876 -0.01839
C 29.55578 15.64462 0.00346
C 30.76942 17.72462 0.00716
C 27.0994 2.87573 -0.03039
C 28.19736 2.10983 0.01836
C 28.32956 0.70657 0.03531
C 27.08588 34.02835 -0.00669
C 29.52523 32.63226 0.0101
C 30.73681 31.95631 0.01705
C 30.71978 30.59154 -0.0405
C 29.49453 29.78952 -0.01303
C 29.52719 17.07442 0.00307
C 29.49025 28.38416 -0.01461
C 30.67591 26.23659 -0.00944
C 29.42881 25.59594 -0.03735
C 29.48345 24.12608 -0.00971
C 30.70599 23.38289 0.01518
C 30.68901 22.02489 0.01908
C 29.52363 21.28502 0.07705
C 29.55535 19.88723 0.0103
C 30.77507 19.18389 0.02108
C 30.69825 27.69584 -0.02155
C 27.09508 11.31743 -0.01415
C 33.17295 17.78788 0.00137
C 31.94642 15.62763 0.04381
C 1.21302 19.19595 -0.01678
C 1.26642 17.75587 0.01223
C 0.02029 17.07365 0.00648
C 0.06718 15.5894 0.02114
C 1.4103 14.79943 -0.02957
C 1.22887 13.46124 0.00343
C 0.00413 12.73089 -0.02656
C 0.06581 11.29544 -0.02442
C 34.38364 19.92966 0.01951
C 1.26738 10.58062 -0.00027
C 0.22112 8.45517 -0.02302
C 0.10906 7.13356 -0.02849
C 1.10206 6.29661 0.02931
C 1.06657 4.92392 0.00628
C 34.34732 4.24003 -0.0345
C 34.33778 2.89647 -0.00931
C 1.11161 2.16304 -0.00939
C 1.18476 0.77115 -0.00468
C 1.15197 9.38138 -0.00583
C 31.96957 17.02911 0.00199
C 34.34771 21.32264 -0.02213
C 1.20983 23.5213 0.00723
C 33.24585 14.84154 0.02806
C 33.09795 13.45523 0.01504
C 31.87377 12.81519 -0.00069
C 32.12488 11.44096 0.04926
C 33.25188 10.74637 -0.03838
C 31.97838 2.80166 0.00349
C 33.18344 2.24195 -0.00323
C 33.15296 0.77143 -0.00841
C 1.14986 22.08263 0.02712
C 31.92057 0.02499 0.0001
C 1.15788 31.96533 -0.01404
C 1.18922 30.46639 0.01027
C 34.35534 29.76968 0.01831
C 34.33358 28.38438 -0.01037
C 1.23932 27.66317 -0.00439
C 1.20624 26.24615 -0.00598
C 34.40452 25.55532 -0.05239
C 34.38251 24.18471 0.03076
C 34.36858 32.68408 -0.02927
C 27.05651 12.73303 -0.01854
C 28.1657 13.52701 -0.02049
C 28.2733 14.97979 0.03265
C 22.19314 17.02658 -0.01586
C 22.18712 15.62715 -0.01971
C 23.41125 14.91019 -0.02118
C 23.38627 13.5187 0.00733
C 22.11723 12.79117 -0.00178
C 22.1464 11.40671 0.00768
C 23.37188 10.67812 -0.0276
C 23.36115 9.27112 0.03005
C 23.43735 17.74956 -0.01107
C 22.12173 8.52776 -0.04078
C 23.44923 6.32578 0.02737
C 23.40491 4.92919 -0.00498
C 22.1279 4.22788 0.00135
C 22.17776 2.75296 0.03102
C 23.37608 2.0786 0.02555
C 23.38675 0.68858 0.01423
C 22.16938 34.07546 -0.00285
C 24.60767 32.60767 -0.009
C 22.1507 7.14797 0.02117
C 25.84525 31.80466 -0.01199
C 23.43619 19.17106 0.00071
C 22.1665 21.34694 0.01515
C 20.93119 6.45781 0.01087
C 20.91377 5.00977 0.00199
C 19.62484 4.24133 0.01511
C 19.6326 2.79769 -0.00478
C 20.88672 2.11504 -0.01662
C 20.89308 0.73426 -0.01185
C 19.64399 0.08399 0.01126
C 22.12591 32.66486 0.01852
C 22.20042 19.87777 -0.00225
C 23.37286 31.95538 -0.00381
C 22.10302 29.88748 0.0296
C 22.03709 28.40813 0.03374
C 23.26354 27.66746 -0.02845
C 23.24209 26.28684 -0.03213
C 22.04032 25.59827 0.02239
C 22.10914 24.1035 0.01153
C 23.32068 23.4753 0.02734
C 23.37485 22.04924 -0.0055
C 23.32188 30.53244 0.03046
C 25.75067 30.44581 -0.00229
C 24.52307 29.75678 -0.00938
C 24.43346 28.33849 -0.0264
C 24.60207 34.06483 0.00194
C 27.01828 32.59193 -0.00621
C 28.29073 31.89683 0.02611
C 28.26373 30.4944 0.02198
C 27.06349 29.77351 0.01094
C 27.03081 28.35843 0.00235
C 28.28469 27.63753 0.01495
C 28.23548 26.28627 0.01259
C 25.876 0.73716 0.04185
C 27.00938 25.58512 0.01799
C 28.26957 23.39565 -0.00416
C 28.30074 21.99164 0.01177
C 27.11584 21.31606 0.04266
C 27.03216 19.92995 0.01324
C 28.33847 19.20376 0.0014
C 28.30287 17.782 0.00924
C 27.07858 17.05469 0.02326
C 27.01962 15.65797 0.00261
C 27.03656 24.14936 0.01699
C 25.8604 2.13573 0.02316
C 24.65149 2.82784 0.01257
C 24.52342 4.12739 0.00152
C 25.76061 27.66179 -0.01154
C 25.76178 26.26189 0.00684
C 24.50795 25.58759 -0.01052
C 24.6143 24.225 -0.01679
C 25.79575 23.47734 0.00367
C 25.88299 22.05936 0.04306
C 24.59488 21.2988 0.00996
C 24.62792 19.86394 0.00195
C 25.84233 19.18974 -0.00802
C 25.87205 17.78614 -0.00218
C 24.63244 17.06273 -0.01654
C 24.64495 15.64889 -0.00037
C 25.89528 14.93673 -0.0032
C 25.84815 13.43342 0.00622
C 24.56726 12.7744 -0.02815
C 24.50712 11.37092 -0.00942
C 25.77864 10.67562 0.00487
C 24.47204 8.50784 0.00826
C 24.50473 7.16567 -0.00294
C 19.61503 8.55042 0.00096
C 2.36989 32.68731 0.01087
