380
Graphene
C 0.01261 0.03537 0.01295
C 16.04919 6.37662 -0.01454
C 15.92921 5.03448 0.01945
C 14.73363 4.31047 0.01416
C 14.81358 2.83552 0.03542
C 16.051 2.17088 0.02299
C 16.00933 0.73755 0.00244
C 14.71005 34.04879 -0.01717
C 17.18193 32.62752 0.05265
C 18.40775 31.82581 -0.01952
C 18.45205 30.47396 -0.02813
C 17.26173 29.82228 0.00374
C 17.25307 28.36591 0.00052
C 18.46746 27.65301 -0.03682
C 18.53766 26.24523 0.01965
C 18.41874 23.41333 0.02058
C 18.46602 22.05894 -0.01957
C 18.46105 19.08518 -0.0108
C 18.3587 17.72228 -0.00368
C 17.3066 16.92301 -0.02696
C 14.70838 7.06999 0.01241
C 14.73377 8.55439 0.0076
C 16.00036 9.18462 0.02162
C 15.95846 10.69371 -0.0014
C 13.43704 10.72548 -0.01275
C 13.55183 9.29412 0.00985
C 12.32825 8.56083 -0.02245
C 12.31671 7.1439 -0.00428
C 13.52732 6.3991 0.03101
C 13.50232 4.9919 -0.01536
C 12.3066 4.26011 -0.02689
C 12.34003 2.86925 -0.01046
C 13.56281 2.22279 -0.00891
C 17.18512 15.61928 -0.00114
C 13.53335 0.7926 0.02819
C 14.78283 32.59731 -0.02971
C 15.99596 31.9422 0.02894
C 16.02298 30.54714 -0.01789
C 14.79052 29.85208 0.00444
C 14.66385 15.50387 -0.00925
C 15.96488 14.95388 0.01877
C 15.96605 13.46533 0.01363
C 14.69459 12.75775 -0.02162
C 14.75823 11.35363 0.00415
C 12.38993 0.02091 0.00165
C 18.46018 14.93649 0.00228
C 18.46762 13.51443 0.00798
C 17.19513 12.8772 0.00422
C 19.63229 19.88358 -0.0331
C 20.87943 19.10425 -0.00316
C 20.91672 17.72104 0.02188
C 19.69923 17.08985 -0.01979
C 19.67723 15.61488 0.02691
C 20.85664 14.91837 -0.01581
C 20.89191 13.51736 0.01452
C 19.70178 12.76609 0.04892
C 19.74566 11.41651 -0.00111
C 19.65827 21.25179 -0.0258
C 20.9316 10.6602 -0.03557
C 19.68913 8.50292 0.01739
C 19.71196 7.04642 0.00755
C 20.86258 6.38271 -0.0054
C 20.88291 4.94129 0.00667
C 19.6898 4.20393 0.00143
C 19.69669 2.8053 -0.017
C 20.90008 2.17315 0.00364
C 20.85894 0.72546 -0.00831
C 19.62945 0.02011 -0.02957
C 20.84092 9.26479 0.03754
C 12.26373 11.41883 -0.01111
C 20.88575 22.00528 0.03338
C 19.68932 24.08688 -0.00109
C 17.22942 11.36544 0.0351
C 18.46951 10.67479 -0.03113
C 18.46248 9.25529 0.02098
C 17.2658 8.53784 0.01848
C 17.2293 7.10481 -0.00619
C 18.45061 6.34387 -0.02162
C 18.40879 4.93427 0.00889
C 17.18572 4.26924 -0.00481
C 17.27738 2.88845 0.00979
C 20.87437 23.39732 -0.00491
C 18.41627 2.13514 0.01443
C 17.1674 34.07677 -0.02815
C 19.65467 32.65239 -0.04147
C 20.84778 31.96022 -0.05302
C 20.88924 30.55282 0.00213
C 19.71737 29.79055 -0.00066
C 19.68687 28.38709 -0.00289
C 20.92812 27.62529 0.00028
C 20.88065 26.24458 -0.02213
C 19.68308 25.51893 0.03698
C 18.38346 0.69274 0.03505
C 22.15273 32.64636 -0.04422
C 12.37019 12.78636 0.02841
C 13.51701 15.00069 0.00406
C 2.48355 2.78392 -0.05697
C 3.66484 2.13814 0.01087
C 3.67095 0.72907 -0.01343
C 2.4653 0.05588 0.00988
C 4.91403 32.61201 0.0276
C 6.12287 31.98275 0.01305
C 6.11071 30.56159 -0.00077
C 4.88246 29.81723 0.03368
C 4.92846 28.41736 -0.02929
C 4.90075 17.10434 -0.00966
C 4.94034 15.59013 -0.03337
C 6.158 14.96808 0.01227
C 6.18525 13.52892 0.00873
C 4.93867 12.79679 -0.00049
C 4.86212 11.43196 0.00848
C 6.15846 10.68597 -0.01303
C 6.14924 9.21965 -0.01378
C 4.89217 8.53269 0.02635
C 4.86369 7.13213 0.0127
C 2.51504 4.1906 -0.00725
C 3.75768 4.9754 0.02322
C 3.67307 6.37091 -0.00094
C 2.52426 7.06185 -0.02566
C 3.68613 30.53857 0.00907
C 2.39024 29.81432 0.00643
C 2.40856 28.48848 -0.01509
C 3.72777 27.6857 0.03267
C 3.73007 26.26785 0.02374
C 2.50528 25.56131 0.00402
C 2.51402 24.12714 0.0073
C 2.3781 21.26595 0.0174
C 2.54716 19.88826 0.03828
C 6.03937 6.34989 0.01396
C 3.6739 19.24005 0.01226
C 2.38827 17.08318 0.01996
C 2.45268 15.6487 -0.03996
C 3.71677 14.94377 0.01465
C 3.71141 13.41694 -0.00074
C 2.50809 12.79701 -0.00518
C 2.49065 11.41461 0.0086
C 3.683 10.69198 -0.00643
C 3.66859 9.22886 0.017
C 2.42836 8.46511 -0.03113
C 3.67279 17.76964 -0.00279
C 6.19514 4.97134 0.01849
C 4.946 4.22711 -0.01142
C 4.92099 2.86327 -0.00562
C 11.07214 32.00004 0.02147
C 11.01951 30.57089 0.00373
C 11.15738 14.90099 -0.00191
C 11.14398 13.53198 0.00438
C 9.8736 12.82528 0.01291
C 9.79212 11.26175 0.00093
C 11.04716 10.62694 0.00057
C 11.02403 9.25094 -0.01634
C 9.78533 8.47392 -0.00334
C 9.8091 32.66162 -0.014
C 9.81712 7.13101 0.02339
C 11.05468 5.01937 -0.00719
C 9.88309 4.23775 0.01364
C 9.8204 2.88999 -0.01062
C 11.06245 2.17033 -0.00033
C 11.09641 0.74074 0.03589
C 9.81649 34.07081 -0.02759
C 12.32005 32.69247 0.0402
C 13.55479 31.98115 0.00572
C 13.55341 30.52079 0.03592
C 11.03341 6.45339 0.01641
C 13.56666 13.48946 0.00943
C 7.39857 0.05936 -0.01118
C 8.59204 2.20217 -0.02896
C 6.17127 2.1706 -0.00494
C 6.11486 0.77843 0.00054
C 4.88929 0.04149 0.03007
C 7.3772 32.68447 -0.00095
C 8.53882 31.93574 0.01572
C 8.5351 30.55077 -0.04848
C 7.44618 29.84319 -0.00892
C 7.43603 15.56481 -0.01362
C 8.50971 15.00084 -0.0008
C 8.578 0.7881 -0.00131
C 8.63886 13.534 0.0288
C 7.32135 11.381 0.00895
C 8.55487 10.68846 0.00685
C 8.6019 9.1979 0.02888
C 7.39206 8.49905 -0.00482
C 7.30524 7.13737 -0.01384
C 8.56733 6.4173 0.03693
C 8.65743 5.02804 0.01745
C 7.39699 4.22752 0.00488
C 7.35635 2.86961 -0.01004
C 7.33729 12.79424 0.00393
C 23.38479 31.96338 0.00654
C 23.32767 30.56862 -0.00703
C 22.04654 29.81383 -0.04076
C 29.45393 2.83241 0.02108
C 30.70558 2.07935 0.00716
C 30.74924 0.73587 0.00307
C 29.43901 34.06185 0.00346
C 31.98964 32.70151 0.01713
C 33.20148 31.91907 -0.01694
C 33.18743 30.52785 0.01428
C 31.96713 29.84134 -0.02142
C 32.02277 28.39467 0.0544
C 33.24223 27.75251 0.00026
C 33.17924 26.27038 0.00682
C 31.95776 25.56101 -0.01779
C 31.95698 24.13929 0.03794
C 33.14317 23.48779 0.01927
C 33.25044 22.01584 0.01574
C 32.00108 21.2579 -0.02383
C 32.02164 19.85136 -0.01429
C 33.20202 19.19712 -0.0136
C 33.18756 17.78314 0.00594
C 29.51921 4.26672 0.0103
C 30.72234 4.97506 0.07705
C 30.73636 6.37953 0.01908
C 29.52599 7.14465 0.01518
C 29.58676 28.44754 0.00924
C 30.76972 27.59857 0.02326
C 30.76974 26.20846 0.00261
C 29.52185 25.55155 0.03265
C 29.50259 24.15475 -0.02049
C 30.75118 23.39115 -0.01854
C 30.71535 22.03088 -0.01415
C 29.56858 21.24321 -0.03039
C 29.48228 19.82509 0.01836
C 31.94147 17.06052 -0.02474
C 30.71477 19.12302 0.03531
C 29.45513 17.06577 0.0101
C 29.5049 15.62825 0.01705
C 30.77676 14.85227 -0.0405
C 30.78067 13.48159 -0.01303
C 29.52355 12.81473 -0.01461
C 29.5794 11.34419 -0.02155
C 30.73776 10.57675 -0.00944
C 30.76066 9.20382 -0.03735
C 29.55624 8.51072 -0.00971
C 30.6935 17.72947 -0.00669
C 32.00668 15.5926 0.00369
C 33.21461 14.89843 0.00455
C 33.19137 13.47786 -0.00644
C 0.02851 21.36738 -0.02213
C 34.42803 19.90023 0.01951
C 1.25405 19.2298 -0.01678
C 1.18109 17.78583 0.01223
C 34.41982 17.03623 0.00648
C 34.43227 15.6001 0.02114
C 1.27357 14.95352 -0.02957
C 1.27357 13.48488 0.00343
C 34.41303 12.73649 -0.02656
C 1.23117 22.0652 0.02712
C 34.41502 11.35341 -0.02442
C 1.25674 9.28237 -0.00583
C 34.38088 8.44778 -0.02302
C 34.38267 7.0677 -0.02849
C 1.21563 6.3665 0.02931
C 1.29933 4.94041 0.00628
C 34.36675 4.21265 -0.0345
C 34.37182 2.82589 -0.00931
C 1.21791 2.09143 -0.00939
C 1.20334 0.72152 -0.00468
C 1.22345 10.61482 -0.00027
C 29.51027 29.88864 0.0014
C 1.2457 23.50507 0.00723
C 34.42633 25.57132 -0.05239
C 31.9753 12.75212 -0.01839
C 31.91096 11.31823 0.00137
C 33.12204 10.66927 0.00199
C 33.19841 9.24545 0.04381
C 32.01038 8.4835 0.02806
C 31.97096 7.09137 0.01504
C 33.1522 6.43437 -0.00069
C 33.20748 5.00613 0.04926
C 31.96087 4.33851 -0.03838
C 34.39708 24.18246 0.03076
C 31.93011 2.84326 0.00349
C 33.20556 0.74176 -0.00841
C 31.99071 0.00379 0.0001
C 0.01276 32.66733 -0.02927
C 1.20285 31.92218 -0.01404
C 1.1961 30.52639 0.01027
C 34.41672 29.85178 0.01831
C 34.42545 28.47858 -0.01037
C 1.23624 27.6378 -0.00439
C 1.23624 26.22888 -0.00598
C 33.12841 2.11926 -0.00323
C 30.75105 30.55246 0.01324
C 30.78253 31.95183 0.04266
C 29.45048 32.59494 0.01177
C 22.1139 2.83807 0.0296
C 23.39112 2.11848 0.03374
C 23.34332 0.6555 -0.02845
C 22.0933 0.01831 -0.03213
C 24.63733 32.63859 0.02239
C 25.82699 31.92472 0.01153
C 25.83772 30.53647 0.02734
C 24.54899 29.79559 -0.0055
C 24.60601 28.34435 0.01515
C 22.12009 4.23331 0.03046
C 25.78037 27.69165 -0.00225
C 24.5948 25.54488 -0.01107
C 24.63254 24.10972 -0.01586
C 25.81906 23.46537 -0.01971
C 25.72633 22.00631 -0.02118
C 24.52057 21.25492 0.00733
C 24.56408 19.80051 -0.00178
C 25.78194 19.17428 0.00768
C 25.85521 17.74033 -0.0276
C 24.62191 17.02846 0.03005
C 25.71155 26.29608 0.00071
C 24.52922 15.56533 -0.04078
C 23.36568 4.94277 -0.00381
C 22.13668 7.07361 0.01126
C 22.19868 28.34628 -0.00652
C 23.42721 27.63066 0.0058
C 23.40372 26.24116 -0.00865
C 22.12851 25.55415 0.00675
C 22.15483 24.06606 -0.00311
C 23.33236 23.38727 0.00742
C 23.33201 22.02621 -0.01594
C 22.18518 21.23389 0.0106
C 22.20566 19.83428 -0.01154
C 23.34464 6.32455 0.01852
C 23.35352 19.12936 -0.01721
C 22.14291 17.01958 0.01277
C 22.12545 15.58944 0.00096
C 23.36974 14.8988 -0.01527
C 23.34076 13.48062 0.01087
C 22.13574 12.78726 0.00199
C 22.18045 11.33892 0.01511
C 23.42587 10.67793 -0.00478
C 23.39215 9.27337 -0.01662
C 22.13995 8.55879 -0.01185
C 23.39478 17.66163 -0.02422
C 3.65381 31.97549 0.02379
C 25.84267 14.93252 0.02117
C 24.58627 12.86303 -0.00498
C 27.01421 19.86825 -0.02815
C 28.27122 19.18236 -0.00942
C 28.23401 17.77731 0.00487
C 27.04032 17.03609 0.00826
C 27.07642 15.65036 -0.00294
C 28.26669 14.97786 0.00152
C 28.27504 13.45638 0.01257
C 27.09284 12.82237 0.02316
C 27.08583 11.3555 0.04185
C 27.08392 21.25924 0.00622
C 28.23062 10.61814 0.00194
C 27.07455 8.5428 0.02611
C 27.05115 7.07459 0.02198
C 28.42954 6.42654 0.01094
C 28.25906 5.00727 0.00235
C 27.07045 4.24338 0.01495
C 27.07387 2.83171 0.01259
C 28.19295 2.13517 0.01799
C 28.19705 0.71379 0.01699
C 26.99836 34.04416 -0.00416
C 28.26015 9.22684 -0.00621
C 25.87479 13.48147 0.02737
C 28.20938 21.95554 -0.0032
C 27.05364 24.16602 -0.01654
C 24.5713 11.4066 0.00135
C 25.78104 10.62066 0.03102
C 25.78287 9.24966 0.02555
C 24.57297 8.51258 0.01423
C 24.58259 7.06843 -0.00285
C 25.81773 6.38141 -0.009
C 25.83562 4.87165 -0.01199
C 24.62445 4.25324 -0.00229
C 24.5889 2.82672 -0.00938
C 28.27226 23.41288 -0.00037
C 25.91445 2.21619 -0.0264
C 24.60808 0.02065 0.00684
C 27.02554 32.5788 -0.01052
C 28.25637 31.91018 -0.01679
C 28.28019 30.56003 0.00367
C 27.00278 29.84677 0.04306
C 27.0557 28.38441 0.00996
C 28.34505 27.74025 0.00195
C 28.32518 26.2948 -0.00802
C 27.03049 25.60331 -0.00218
C 25.807 0.67134 -0.01154
C 2.43579 32.71921 0.01402
