373
Graphene
C 34.39693 0.07847 0.01295
C 12.23706 4.28105 0.00244
C 12.27538 2.83552 -0.01717
C 13.48343 2.14997 0.05265
C 13.49885 0.69754 -0.01952
C 12.25543 33.98782 -0.02813
C 14.65222 32.55485 0.00374
C 15.94398 31.93393 0.00052
C 15.96299 30.41881 -0.03682
C 14.66632 29.82618 0.01965
C 14.76543 28.45268 0.02058
C 15.89206 27.70721 -0.01957
C 14.82098 11.20723 -0.0108
C 16.10727 10.67794 -0.00368
C 16.04974 9.25911 -0.02696
C 14.78448 8.57046 -0.00114
C 14.7047 7.15639 0.00228
C 15.96248 6.40442 0.00798
C 16.0338 4.98437 0.00422
C 14.70569 4.36864 0.0351
C 13.52477 5.01669 0.02299
C 14.75873 2.89213 -0.03113
C 13.47012 6.44765 0.03542
C 12.26211 8.58901 0.01945
C 11.11986 10.72804 -0.02689
C 11.05032 9.30431 -0.01046
C 9.88739 8.64846 -0.00891
C 9.78343 7.23669 0.02819
C 10.99973 6.48369 0.00165
C 11.07687 4.98696 -0.02971
C 9.75708 4.32452 0.02894
C 9.79809 2.82978 -0.01789
C 11.0382 2.10578 0.00444
C 11.043 0.7344 -0.00925
C 9.79042 34.03112 0.01877
C 12.29299 32.63775 0.01363
C 13.49858 31.91672 -0.02162
C 13.49125 30.5189 0.00415
C 12.17537 29.77945 -0.0014
C 12.15606 28.43604 0.02162
C 12.20079 11.56784 0.0076
C 13.5104 10.77251 0.01241
C 13.51843 9.33628 -0.01454
C 12.26798 7.20918 0.01416
C 15.88134 2.12943 0.02098
C 15.85182 0.64711 0.01848
C 14.67216 33.92456 -0.00619
C 20.54586 26.26053 -0.01581
C 20.82418 14.77533 0.01452
C 20.71455 13.4256 0.04892
C 19.55215 12.59053 -0.00111
C 19.6311 11.16174 -0.03557
C 20.89598 10.56845 0.03754
C 20.90764 9.07404 0.01739
C 19.64946 8.40111 0.00755
C 19.6673 7.02708 -0.0054
C 20.8888 6.30596 0.00667
C 20.89651 4.95572 0.00143
C 19.59809 4.15102 -0.017
C 19.59634 2.69203 0.00364
C 20.82778 2.08465 -0.00831
C 20.84575 0.68905 -0.02957
C 19.60735 34.02146 -0.04422
C 22.03769 32.68391 0.00654
C 23.26414 31.90868 -0.00703
C 23.30482 30.45215 -0.04076
C 20.93971 27.75213 0.02691
C 19.70184 28.45232 -0.01979
C 19.6598 29.77495 0.02188
C 20.78309 30.48798 -0.00316
C 17.14277 32.61489 -0.02162
C 18.27893 31.89663 0.00889
C 18.41894 30.50979 -0.00481
C 17.23545 29.70653 0.00979
C 17.23818 28.08681 0.01443
C 18.56786 27.49529 0.03505
C 17.37485 11.32069 -0.02815
C 18.4491 10.53534 -0.04147
C 18.45806 9.13524 -0.05302
C 9.88733 11.55134 -0.01536
C 17.24382 8.42523 0.00213
C 18.38789 6.36588 -0.00289
C 18.36283 4.91604 0.00028
C 17.16001 4.19256 -0.02213
C 17.16945 2.83832 0.03698
C 18.37193 2.03857 -0.00109
C 18.40063 0.63088 -0.00491
C 17.09103 0.03814 0.03338
C 19.52217 32.63958 -0.0258
C 20.78599 31.96071 -0.0331
C 17.18197 7.09244 -0.00066
C 9.60652 12.95845 0.03101
C 10.85156 27.76849 -0.00428
C 9.75412 28.54583 -0.02245
C 3.68179 5.08443 0.03368
C 2.46655 4.30984 -0.02929
C 2.38741 2.92116 -0.00966
C 3.62649 2.13478 -0.03337
C 3.51286 0.73765 0.01227
C 2.27194 0.0804 0.00873
C 4.84004 32.76276 -0.00049
C 6.11101 32.04904 0.00848
C 6.09743 30.61774 -0.01303
C 4.84616 29.92877 -0.01378
C 4.80784 28.48221 0.02635
C 6.09678 27.74609 0.0127
C 6.14142 26.35737 0.01396
C 4.9027 25.53608 0.01849
C 4.92905 24.15552 -0.01142
C 6.31878 23.39497 -0.00562
C 6.2053 22.00948 -0.00494
C 4.90713 21.39114 0.00054
C 4.92035 19.96442 0.03007
C 3.73231 6.48712 -0.00077
C 2.53096 7.1384 0.01305
C 2.45347 8.62291 0.0276
C 3.66425 9.3282 0.00988
C 3.65919 30.60087 0.0174
C 2.37063 29.84058 0.03828
C 2.43712 28.45066 0.01226
C 3.65111 27.76641 -0.00279
C 3.73055 26.28194 0.01996
C 2.49631 25.59653 -0.03996
C 2.43821 24.19067 0.01465
C 3.73805 23.46806 -0.00074
C 3.59645 22.1071 -0.00518
C 5.97989 19.11764 -0.00095
C 2.37783 21.35141 0.0086
C 3.71669 19.25324 0.017
C 3.67906 17.75213 -0.03113
C 2.4538 17.12978 -0.02566
C 2.45902 15.72592 -0.00094
C 3.69759 14.89434 0.02322
C 3.71655 13.54527 -0.00725
C 2.4533 12.83895 -0.05697
C 2.52313 11.46401 0.01087
C 3.76596 10.78736 -0.01343
C 2.44332 19.89093 -0.00643
C 22.05405 29.82936 -0.00652
C 6.14354 17.83913 0.01572
C 5.00806 15.67809 -0.00892
C 7.67372 15.37335 -0.01634
C 8.58446 13.79316 -0.00334
C 7.32131 12.89638 0.02339
C 7.43358 11.46589 0.01641
C 8.68002 10.77803 -0.00719
C 8.67983 9.35064 0.01364
C 7.36211 8.62632 -0.01062
C 7.41474 7.26969 -0.00033
C 8.61835 6.48954 0.03589
C 8.53085 5.02103 -0.02759
C 7.28649 4.38514 0.0402
C 7.36476 2.98084 0.00572
C 8.6077 2.12305 0.03592
C 8.61877 0.7022 0.00406
C 7.35916 0.0769 0.00943
C 9.85266 32.63712 0.02841
C 11.08622 31.95803 -0.01111
C 10.98759 30.55577 -0.01275
C 9.76537 29.94707 0.00985
C 7.33267 24.28326 0.00057
C 7.41009 25.5962 0.00093
C 8.66148 26.41706 0.01291
C 8.62225 27.78562 0.00438
C 6.38081 15.02104 -0.01362
C 6.10815 13.57081 -0.0008
C 4.93773 12.8145 0.0288
C 4.95799 11.47149 0.00393
C 6.19561 10.73057 0.00895
C 6.09828 9.36652 0.00685
C 4.87687 8.61641 0.02888
C 4.9852 7.22256 -0.00482
C 6.12828 6.44109 -0.01384
C 5.00453 17.07571 -0.04848
C 6.08956 5.06732 0.03693
C 4.83696 2.88969 0.00488
C 6.12424 2.27255 -0.01004
C 6.15758 0.80098 -0.02896
C 4.83456 0.08527 -0.00131
C 7.35891 32.68565 -0.01118
C 8.57671 32.01442 -0.014
C 8.53053 30.66688 0.02147
C 7.3558 29.91452 0.00373
C 7.37057 28.51394 -0.00191
C 4.84102 4.28777 0.01745
C 3.58816 32.06897 0.0073
C 22.17513 28.34824 0.0058
C 23.14138 26.17316 0.00675
C 30.63365 2.13344 0.00716
C 30.58884 0.72679 0.00307
C 29.43792 0.02769 0.00346
C 31.87645 32.67426 0.01713
C 33.09194 31.98892 -0.01694
C 33.07753 30.50904 0.01428
C 31.92338 29.90215 -0.02142
C 31.92036 28.46596 0.0544
C 33.16097 27.71244 0.00026
C 33.18476 26.28905 0.00682
C 32.00864 25.55322 -0.01779
C 31.98592 24.17242 0.03794
C 33.20296 23.43203 0.01927
C 33.15783 22.05402 0.01574
C 31.98849 21.29035 -0.02383
C 31.99871 19.90383 -0.01429
C 33.27153 19.16027 -0.0136
C 33.19256 17.75571 0.00594
C 31.95547 17.06209 -0.02474
C 29.38137 2.86475 0.02108
C 32.0219 15.58435 0.00369
C 29.46862 4.25997 0.0103
C 30.69627 6.42942 0.01908
C 30.74164 26.2082 0.00261
C 29.47181 25.58339 0.03265
C 29.45387 24.19046 -0.02049
C 30.7393 23.42706 -0.01854
C 30.75345 22.01226 -0.01415
C 29.46056 21.24577 -0.03039
C 29.48431 19.82138 0.01836
C 30.74828 19.21445 0.03531
C 30.70523 17.82872 -0.00669
C 29.55172 16.98528 0.0101
C 29.52426 15.6471 0.01705
C 30.80065 14.94788 -0.0405
C 30.75838 13.48296 -0.01303
C 29.50031 12.81033 -0.01461
C 29.5841 11.36946 -0.02155
C 30.81105 10.65515 -0.00944
C 30.7067 9.23743 -0.03735
C 29.48495 8.5232 -0.00971
C 29.49503 7.11495 0.01518
C 30.64975 5.03051 0.07705
C 33.23233 14.95405 0.00455
C 33.21167 13.51524 -0.00644
C 31.9856 12.81994 -0.01839
C 0.05264 19.87309 0.01951
C 1.24021 19.17919 -0.01678
C 1.18749 17.79769 0.01223
C 0.07751 17.03957 0.00648
C 34.40122 15.58037 0.02114
C 1.2355 14.95236 -0.02957
C 1.22093 13.51545 0.00343
C 0.05787 12.82203 -0.02656
C 0.00374 11.39388 -0.02442
C 1.28396 10.7943 -0.00027
C 1.23087 9.34249 -0.00583
C 34.4003 8.59408 -0.02302
C 0.0855 7.16238 -0.02849
C 1.29974 6.47541 0.02931
C 1.1846 5.11414 0.00628
C 34.33887 4.29937 -0.0345
C 34.36578 2.91794 -0.00931
C 1.20697 2.16428 -0.00939
C 1.14163 0.77321 -0.00468
C 34.3341 21.32542 -0.02213
C 1.21905 22.04301 0.02712
C 1.2165 23.46498 0.00723
C 34.41814 24.1903 0.03076
C 32.07038 11.42124 0.00137
C 33.26022 10.69853 0.00199
C 33.17741 9.23709 0.04381
C 31.94728 8.55228 0.02806
C 31.94617 7.18435 0.01504
C 33.19605 6.47827 -0.00069
C 33.14616 5.08735 0.04926
C 31.96383 4.31593 -0.03838
C 31.84974 2.90445 0.00349
C 30.68994 27.73419 0.02326
C 33.06682 2.18218 -0.00323
C 31.88763 0.04123 0.0001
C 34.28464 32.71156 -0.02927
C 1.10656 31.97556 -0.01404
C 1.16559 30.52696 0.01027
C 34.32144 29.81751 0.01831
C 34.36461 28.3854 -0.01037
C 1.14566 27.78004 -0.00439
C 1.23929 26.28328 -0.00598
C 0.02362 25.58025 -0.05239
C 33.17042 0.79292 -0.00841
C 29.44556 28.42689 0.00924
C 29.46511 29.80389 0.0014
C 30.65148 30.58285 0.01324
C 24.45123 32.57647 0.02239
C 25.65923 31.88998 0.01153
C 25.73048 30.5175 0.02734
C 24.50968 29.70481 -0.0055
C 24.55858 28.30364 0.01515
C 25.7431 27.57815 -0.00225
C 25.74196 26.17522 0.00071
C 24.45143 25.53046 -0.01107
C 24.45819 24.00466 -0.01586
C 25.74696 23.37489 -0.01971
C 25.81457 21.93099 -0.02118
C 24.57545 21.22051 0.00733
C 24.68882 19.88467 -0.00178
C 25.87394 19.24189 0.00768
C 25.86227 17.76134 -0.0276
C 24.56168 17.15001 0.03005
C 24.54874 15.69749 -0.04078
C 25.69065 14.87324 0.02117
C 25.82059 13.3876 0.02737
C 22.07964 34.06223 -0.03213
C 23.37363 0.69635 -0.02845
C 23.3005 2.14636 0.03374
C 22.12665 2.77254 0.0296
C 21.90183 25.38007 -0.00311
C 22.06444 24.10287 0.00742
C 23.166 23.21092 -0.01594
C 23.21522 21.73167 0.0106
C 22.61991 20.3993 -0.01154
C 23.28801 19.34648 -0.01721
C 23.35533 17.8998 -0.02422
C 22.34567 17.03804 0.01277
C 22.03746 15.66225 0.00096
C 24.53711 12.77863 -0.00498
C 23.35223 14.9491 -0.01527
C 22.00461 12.83316 0.00199
C 22.09975 11.33824 0.01511
C 23.31361 10.69178 -0.00478
C 23.29365 9.20222 -0.01662
C 22.16086 8.43837 -0.01185
C 22.16937 6.99548 0.01126
C 23.30653 6.32438 0.01852
C 23.32548 4.9495 -0.00381
C 22.03084 4.1564 0.03046
C 23.27157 13.49436 0.01087
C 23.27867 27.58113 -0.00865
C 24.50756 11.4045 0.00135
C 25.72582 9.21448 0.02555
C 27.02677 16.95641 0.00826
C 27.04201 15.49234 -0.00294
C 28.29051 14.91749 0.00152
C 28.29421 13.46401 0.01257
C 27.03736 12.7417 0.02316
C 27.0433 11.31454 0.04185
C 28.28453 10.67752 0.00194
C 28.2723 9.22614 -0.00621
C 27.05359 8.49483 0.02611
C 27.0579 7.08619 0.02198
C 28.2563 6.4073 0.01094
C 28.21372 4.90964 0.00235
C 26.9668 4.23178 0.01495
C 26.90128 2.75724 0.01259
C 28.13282 2.13694 0.01799
C 28.12266 0.76036 0.01699
C 27.05292 34.01538 -0.00416
C 29.39586 32.65809 0.01177
C 30.63818 31.9572 0.04266
C 28.1985 17.68423 0.00487
C 28.31476 19.11571 -0.00942
C 27.1257 19.90131 -0.02815
C 27.05485 21.29011 0.00622
C 24.61288 8.47621 0.01423
C 24.55646 7.05124 -0.00285
C 25.79873 6.39789 -0.009
C 25.79681 4.96126 -0.01199
C 24.49741 4.26258 -0.00229
C 24.51705 2.87186 -0.00938
C 25.64842 2.12849 -0.0264
C 25.75983 0.65102 -0.01154
C 24.56031 33.97912 0.00684
C 25.80773 10.65109 0.03102
C 26.91323 32.55555 -0.01052
C 28.17171 30.52572 0.00367
C 26.97109 29.78565 0.04306
C 26.91846 28.39318 0.00996
C 28.21912 27.56312 0.00195
C 28.20056 26.15747 -0.00802
C 26.97437 25.50585 -0.00218
C 26.92577 24.06044 -0.01654
C 28.21907 23.44552 -0.00037
C 28.29842 21.98894 -0.0032
C 28.21637 31.93083 -0.01679
C 2.33458 32.74782 0.00402
