362
Graphene
C 34.37438 0.02934 0.01295
C 10.93571 4.99935 0.01965
C 9.68878 4.34243 0.02058
C 9.76128 2.8654 -0.01957
C 11.07505 2.14113 -0.0108
C 11.04269 0.6839 -0.00368
C 9.81169 0.00423 -0.02696
C 12.25994 32.72379 -0.00114
C 13.50586 31.97647 0.00228
C 11.02033 6.41548 -0.03682
C 13.51767 30.58387 0.00798
C 12.26601 28.4997 0.0351
C 13.53804 27.75478 -0.03113
C 13.51949 26.31368 0.02098
C 12.28125 25.71453 0.01848
C 12.38014 24.30127 -0.00619
C 13.32024 8.96275 -0.02162
C 12.15781 8.45268 0.00889
C 12.30101 7.04219 -0.00481
C 12.27813 29.91678 0.00422
C 9.78914 7.08784 0.00052
C 9.61853 8.4623 0.00374
C 10.86979 9.10635 -0.02813
C 8.49978 2.14854 0.00444
C 8.58104 0.73527 -0.00925
C 7.31955 0.07329 0.01877
C 9.85912 32.63126 0.01363
C 11.04568 32.00361 -0.02162
C 11.06333 30.64531 0.00415
C 9.85194 29.90319 -0.0014
C 9.84988 28.46557 0.02162
C 11.03386 27.80968 0.0076
C 11.03293 26.31621 0.01241
C 9.85332 25.59904 -0.01454
C 9.94265 24.15387 0.01945
C 11.27538 23.48197 0.01416
C 11.22472 22.11527 0.03542
C 9.9827 21.385 0.02299
C 10.04121 19.93596 0.00244
C 9.61275 12.59784 -0.01717
C 9.94329 11.28589 0.05265
C 11.14746 10.44587 -0.01952
C 13.5256 6.33412 0.00979
C 7.31183 2.929 -0.01789
C 13.41956 4.8845 0.01443
C 12.295 2.88463 -0.02815
C 17.17182 29.67138 0.01739
C 17.17945 28.20045 0.00755
C 18.40719 27.57114 -0.0054
C 18.38732 26.06586 0.00667
C 17.0892 25.54373 0.00143
C 17.1332 7.10147 -0.017
C 18.43007 6.52485 0.00364
C 18.52658 5.05916 -0.00831
C 18.35229 30.45397 0.03754
C 17.27038 4.34857 -0.02957
C 18.3606 2.09368 0.00654
C 18.44834 0.76832 -0.00703
C 17.1956 34.07058 -0.04076
C 19.59722 32.6633 -0.00652
C 20.84864 31.96556 0.0058
C 20.81334 30.54267 -0.00865
C 19.56141 29.75524 0.00675
C 19.66367 28.28281 -0.00311
C 17.19517 2.9157 -0.04422
C 18.3683 31.98274 -0.03557
C 17.14313 32.68512 -0.00111
C 14.74205 0.08508 0.04892
C 13.57344 2.18389 -0.04147
C 13.45272 0.75682 -0.05302
C 12.26769 0.00936 0.00213
C 14.77255 32.71054 -0.00066
C 15.97974 31.94248 -0.00289
C 16.00442 30.53337 0.00028
C 14.78845 29.88396 -0.02213
C 14.75891 28.32797 0.03698
C 15.93014 27.56348 -0.00109
C 15.8759 26.1318 -0.00491
C 14.58417 25.45894 0.03338
C 14.6097 8.42993 -0.0258
C 14.73072 7.13071 -0.0331
C 16.01064 6.34281 -0.00316
C 15.96329 4.95124 0.02188
C 14.75604 4.25374 -0.01979
C 14.75317 2.86271 0.02691
C 15.98925 2.15378 -0.01581
C 15.99433 0.75018 0.01452
C 12.23631 4.26429 0.03505
C 7.32724 4.30725 0.02894
C 8.47011 5.02799 -0.02971
C 8.53191 6.38655 0.00165
C 3.58258 6.5088 0.02635
C 3.59603 5.0857 0.0127
C 2.43571 4.37555 0.01396
C 2.39656 2.99725 0.01849
C 3.55661 2.22947 -0.01142
C 3.60383 0.83564 -0.00562
C 2.42247 0.05566 -0.00494
C 4.84957 32.70955 0.00054
C 2.40548 7.17393 -0.01378
C 6.11212 32.04285 0.03007
C 4.97897 29.83576 0.01572
C 4.93953 28.443 -0.04848
C 6.1553 27.76657 -0.00892
C 6.21896 26.29145 -0.01362
C 4.87433 25.56247 -0.0008
C 4.9482 24.15525 0.0288
C 6.28119 23.43043 0.00393
C 6.25913 22.01554 0.00895
C 6.14644 30.60504 -0.00095
C 2.35072 8.58945 -0.01303
C 3.57528 9.31658 0.00848
C 3.63534 10.72255 -0.00049
C 3.72152 30.56444 0.017
C 2.42436 29.86855 -0.03113
C 2.39786 28.4489 -0.02566
C 3.60904 27.71052 -0.00094
C 3.63067 26.36562 0.02322
C 2.4051 25.59172 -0.00725
C 2.44394 24.15797 -0.05697
C 3.65691 23.44934 0.01087
C 3.65387 22.0141 -0.01343
C 2.49633 21.25188 0.00988
C 2.48744 19.84379 0.0276
C 3.74319 19.19692 0.01305
C 3.73207 17.7997 -0.00077
C 2.52506 17.02914 0.03368
C 2.46097 15.62145 -0.02929
C 3.75516 14.93518 -0.00966
C 3.64534 13.54636 -0.03337
C 2.43999 12.87563 0.01227
C 2.31928 11.41908 0.00873
C 5.01022 21.28768 0.00685
C 5.02887 19.86581 0.02888
C 6.31154 19.17197 -0.00482
C 6.23553 17.83265 -0.01384
C 8.65936 26.28747 0.03589
C 7.45276 25.57631 -0.02759
C 7.50253 24.17476 0.0402
C 8.71219 23.52387 0.00572
C 8.68194 22.07244 0.03592
C 7.47872 21.27452 0.00406
C 7.56827 19.88962 0.00943
C 8.81644 19.1049 0.02841
C 8.61528 17.70917 -0.01111
C 7.35862 17.00491 -0.01275
C 7.41501 15.65104 0.00985
C 8.7065 15.10599 -0.02245
C 8.69808 13.49115 -0.00428
C 7.37496 12.78355 0.03101
C 7.39307 11.40374 -0.01536
C 8.53653 10.60168 -0.02689
C 8.47107 9.20737 -0.01046
C 7.24624 8.58875 -0.00891
C 7.28164 7.17802 0.02819
C 8.67553 27.76562 -0.00033
C 20.84565 27.60119 0.00742
C 7.35259 28.47844 -0.01062
C 8.59636 30.58776 -0.00719
C 4.95313 17.11648 0.03693
C 4.94666 15.61333 0.01745
C 6.20897 14.92807 0.00488
C 6.17219 13.54316 -0.01004
C 4.87922 12.85031 -0.02896
C 4.88708 11.42875 -0.00131
C 6.12234 10.70046 -0.01118
C 6.0753 9.27547 -0.014
C 4.79715 8.61468 0.02147
C 4.79541 7.2082 0.00373
C 6.01938 6.46293 -0.00191
C 6.02191 5.02671 0.00438
C 4.81417 4.37053 0.01291
C 4.76493 2.96176 0.00093
C 6.1166 2.20813 0.00057
C 6.14163 0.78517 -0.01634
C 4.88125 0.04023 -0.00334
C 7.33994 32.71877 0.02339
C 8.58553 31.98335 0.01641
C 7.40009 29.95422 0.01364
C 20.73752 26.22313 -0.01594
C 19.62801 25.41465 0.0106
C 19.73837 7.00369 -0.01154
C 29.46884 0.02245 0.00346
C 31.97624 32.71141 0.01713
C 33.12873 31.94098 -0.01694
C 33.15094 30.59276 0.01428
C 31.9093 29.88161 -0.02142
C 31.84866 28.48371 0.0544
C 33.07997 27.71874 0.00026
C 33.12598 26.28813 0.00682
C 30.74788 0.72689 0.00307
C 31.84774 25.65362 -0.01779
C 33.09494 23.46884 0.01927
C 33.10391 22.0271 0.01574
C 31.86082 21.32749 -0.02383
C 31.94501 19.92534 -0.01429
C 33.22014 19.23118 -0.0136
C 33.18161 17.77901 0.00594
C 31.94345 16.98699 -0.02474
C 31.88236 15.64225 0.00369
C 31.85578 24.16153 0.03794
C 30.77292 2.16337 0.00716
C 29.53773 2.8584 0.02108
C 29.51368 4.2741 0.0103
C 29.41742 24.16196 -0.02049
C 30.6687 23.45029 -0.01854
C 30.68044 21.96324 -0.01415
C 29.37896 21.30261 -0.03039
C 29.46701 19.89909 0.01836
C 30.73341 19.18968 0.03531
C 30.67946 17.70934 -0.00669
C 29.47363 16.98231 0.0101
C 29.51131 15.5907 0.01705
C 30.71076 14.89161 -0.0405
C 30.67941 13.48638 -0.01303
C 29.42713 12.71938 -0.01461
C 29.4603 11.31754 -0.02155
C 30.6747 10.65434 -0.00944
C 30.74393 9.12937 -0.03735
C 29.51183 8.50008 -0.00971
C 29.48805 7.02563 0.01518
C 30.75634 6.37975 0.01908
C 30.77648 4.96857 0.07705
C 33.1141 14.92265 0.00455
C 33.10777 13.55713 -0.00644
C 31.99348 12.75417 -0.01839
C 31.90131 11.3734 0.00137
C 0.03762 19.91479 0.01951
C 1.22717 19.20709 -0.01678
C 1.22122 17.78104 0.01223
C 34.37548 17.11304 0.00648
C 34.41683 15.64969 0.02114
C 1.23421 14.95516 -0.02957
C 1.19399 13.58901 0.00343
C 34.40691 12.87836 -0.02656
C 34.34869 11.36963 -0.02442
C 1.14456 10.62918 -0.00027
C 1.15143 9.28846 -0.00583
C 34.38703 8.5332 -0.02302
C 34.32007 7.12963 -0.02849
C 1.1531 6.46732 0.02931
C 1.2774 5.0181 0.00628
C 34.42581 4.33806 -0.0345
C 34.35817 2.86752 -0.00931
C 1.16987 2.20324 -0.00939
C 1.14279 0.77085 -0.00468
C 0.02924 21.38214 -0.02213
C 29.41189 25.55956 0.03265
C 1.2873 21.99536 0.02712
C 34.3621 24.12197 0.03076
C 33.12804 10.65411 0.00199
C 33.20129 9.23891 0.04381
C 31.97262 8.53958 0.02806
C 31.96453 7.09427 0.01504
C 33.16377 6.36293 -0.00069
C 33.23962 5.01773 0.04926
C 32.03755 4.337 -0.03838
C 31.99617 2.86828 0.00349
C 33.15968 2.19461 -0.00323
C 33.23815 0.77805 -0.00841
C 32.00098 0.03744 0.0001
C 34.38682 32.71242 -0.02927
C 1.20229 32.00784 -0.01404
C 1.19536 30.66876 0.01027
C 34.38674 29.94968 0.01831
C 34.26286 28.52534 -0.01037
C 1.09487 27.83503 -0.00439
C 1.20222 26.32468 -0.00598
C 34.39785 25.57657 -0.05239
C 1.22904 23.4758 0.00723
C 3.65562 32.01336 -0.00643
C 30.66387 26.30591 0.00261
C 29.40343 28.51658 0.00924
C 22.11642 2.76042 0.01515
C 23.37122 2.14986 -0.00225
C 23.35777 0.66007 0.00071
C 22.10829 34.03588 -0.01107
C 24.45032 32.657 -0.01586
C 25.71139 31.90284 -0.01971
C 25.72582 30.43775 -0.02118
C 24.43372 29.78459 0.00733
C 22.15027 4.21538 -0.0055
C 24.53044 28.35667 -0.00178
C 25.62741 26.20665 -0.0276
C 24.41622 25.45649 0.03005
C 24.55869 24.00502 -0.04078
C 25.841 23.3559 0.02117
C 25.72203 21.98662 0.02737
C 25.60903 12.89989 -0.00498
C 24.74205 11.53331 0.00135
C 25.84137 10.63623 0.03102
C 25.73347 27.64233 0.00768
C 23.39505 4.93704 0.02734
C 23.38277 6.40007 0.01153
C 22.18511 7.04082 0.02239
C 20.96512 6.38065 -0.01721
C 20.96714 4.88597 -0.02422
C 19.72002 4.24269 0.01277
C 19.61793 2.87042 0.00096
C 20.86046 2.12221 -0.01527
C 20.88107 0.75224 0.01087
C 19.65593 0.03857 0.00199
C 22.08583 32.62758 0.01511
C 23.25597 31.95725 -0.00478
C 23.23061 30.53021 -0.01662
C 22.01153 29.75174 -0.01185
C 22.06731 28.30258 0.01126
C 23.31159 27.64811 0.01852
C 23.26016 26.21749 -0.00381
C 22.04207 25.44527 0.03046
C 22.15042 24.13061 0.0296
C 23.32823 23.40429 0.03374
C 23.41375 9.10735 -0.02845
C 22.2341 8.56237 -0.03213
C 25.83367 9.21846 0.02555
C 24.62556 8.53056 0.01423
C 24.63891 7.11122 -0.00285
C 25.85204 6.36174 -0.009
C 28.29024 14.87599 0.00152
C 28.1527 13.37963 0.01257
C 26.92801 12.71327 0.02316
C 27.11028 11.25976 0.04185
C 28.31409 10.6112 0.00194
C 28.29914 9.19303 -0.00621
C 27.08645 8.47429 0.02611
C 27.06192 7.03297 0.02198
C 28.20039 6.3513 0.01094
C 28.24981 4.94208 0.00235
C 27.01427 4.3082 0.01495
C 27.02328 2.83608 0.01259
C 28.26352 2.14503 0.01799
C 28.23422 0.66663 0.01699
C 26.99629 0.01609 -0.00416
C 29.44519 32.7179 0.01177
C 30.6172 32.01186 0.04266
C 30.66621 30.56893 0.01324
C 29.41688 29.92739 0.0014
C 27.05912 15.63079 -0.00294
C 30.63684 27.78089 0.02326
C 27.1679 16.92318 0.00826
C 28.25283 19.13164 -0.00942
C 25.74303 4.92462 -0.01199
C 24.55716 4.2314 -0.00229
C 24.47856 2.86216 -0.00938
C 25.79069 2.17299 -0.0264
C 25.73209 0.71023 -0.01154
C 24.58771 0.01266 0.00684
C 26.94104 32.70305 -0.01052
C 28.20618 32.02808 -0.01679
C 28.11832 30.60093 0.00367
C 26.91786 29.77836 0.04306
C 26.93113 28.35178 0.00996
C 28.17023 27.69519 0.00195
C 28.15771 26.2843 -0.00802
C 26.92445 25.56701 -0.00218
C 27.02235 24.19637 -0.01654
C 28.21028 23.40103 -0.00037
C 28.16448 21.97497 -0.0032
C 26.92593 21.15048 0.00622
C 27.04996 19.74354 -0.02815
C 28.27425 17.70479 0.00487
C 2.38098 32.72997 0.0086
