401
Graphene
C 34.41614 0.06553 0.01295
C 13.46559 6.41263 0.00165
C 13.56334 4.97894 -0.02971
C 12.33812 4.34907 0.02894
C 12.34821 2.94332 -0.01789
C 13.59009 2.12494 0.00444
C 13.50522 0.73398 -0.00925
C 12.30772 0.03934 0.01877
C 14.77157 32.67888 0.01363
C 15.95981 31.96621 -0.02162
C 15.9634 30.47834 0.00415
C 14.67004 29.79639 -0.0014
C 14.69317 28.34665 0.02162
C 15.9008 27.54579 0.0076
C 15.90075 26.16877 0.01241
C 14.74516 25.44059 -0.01454
C 14.74816 23.87503 0.01945
C 16.09753 23.3394 0.01416
C 16.02114 10.68863 0.03542
C 15.89331 9.29456 0.02299
C 14.73394 8.52542 0.00244
C 14.72137 7.05635 -0.01717
C 12.25331 7.14608 0.02819
C 15.97268 6.36716 0.05265
C 12.32463 8.57495 -0.00891
C 13.40141 23.53012 -0.02689
C 9.81033 11.36237 0.02339
C 10.84118 10.80483 0.01641
C 11.06986 9.39816 -0.00719
C 9.85179 8.62441 0.01364
C 9.81936 7.23342 -0.01062
C 10.96323 6.46435 -0.00033
C 11.09054 5.07075 0.03589
C 9.89007 4.3834 -0.02759
C 9.80759 2.96448 0.0402
C 11.03631 2.21818 0.00572
C 11.08964 0.77475 0.03592
C 9.80526 0.09243 0.00406
C 12.25686 32.69899 0.00943
C 13.50772 32.10323 0.02841
C 13.52963 30.62839 -0.01111
C 12.34152 29.87 -0.01275
C 12.32083 28.37237 0.00985
C 13.50597 27.57693 -0.02245
C 13.41864 26.11801 -0.00428
C 12.21502 25.43786 0.03101
C 12.11996 23.93442 -0.01536
C 13.50189 9.24725 -0.01046
C 10.44359 22.1311 -0.00334
C 16.00401 4.99643 -0.01952
C 14.84432 2.93431 0.00374
C 17.23057 34.05695 -0.05302
C 19.76873 32.69114 0.00213
C 21.00641 31.91171 -0.00066
C 20.88859 30.51579 -0.00289
C 19.6589 29.83685 0.00028
C 19.66367 28.31962 -0.02213
C 20.92674 27.69854 0.03698
C 20.90319 26.30832 -0.00109
C 19.69528 25.52316 -0.00491
C 19.66652 24.12698 0.03338
C 20.90695 23.2889 -0.0258
C 20.74411 21.87234 -0.0331
C 19.47723 21.15627 -0.00316
C 19.5647 19.78299 0.02188
C 20.74831 18.94963 -0.01979
C 20.86909 17.454 0.02691
C 20.96406 15.0571 -0.01581
C 20.72335 13.71289 0.01452
C 19.61773 12.89127 0.04892
C 19.62406 11.48782 -0.00111
C 20.75463 10.68695 -0.03557
C 18.48343 0.68641 -0.04147
C 14.73881 4.30457 -0.02813
C 18.37073 2.11313 -0.02815
C 17.17462 4.23631 0.01443
C 15.99752 2.21754 0.00052
C 16.01257 0.81643 -0.03682
C 14.76855 0.08123 0.01965
C 17.19332 32.65991 0.02058
C 18.45624 31.93864 -0.01957
C 18.43018 30.49885 -0.0108
C 17.22739 29.72574 -0.00368
C 17.1431 28.32041 -0.02696
C 18.40839 27.70417 -0.00114
C 18.46802 26.22425 0.00228
C 17.18124 25.46663 0.00798
C 17.14115 24.15808 0.00422
C 18.44359 23.43593 0.0351
C 18.34692 22.06487 -0.03113
C 17.10875 11.35493 0.02098
C 18.35525 10.6504 0.01848
C 18.47846 9.20899 -0.00619
C 17.19961 8.5494 -0.02162
C 17.1059 7.12152 0.00889
C 18.45931 6.39758 -0.00481
C 18.4069 5.02658 0.00979
C 17.19348 2.81468 0.03505
C 10.8357 23.42137 -0.01634
C 9.67012 24.27447 0.00057
C 9.72506 25.68326 0.00093
C 2.44053 4.33561 0.02374
C 2.42978 2.88504 0.00402
C 3.66799 2.21519 0.0073
C 3.64642 0.77441 0.0174
C 2.43532 0.04282 0.03828
C 4.8778 32.82379 0.01226
C 6.06328 32.06425 -0.00279
C 6.05755 30.60891 0.01996
C 4.85122 29.91188 -0.03996
C 4.84308 28.40866 0.01465
C 6.08829 27.84546 -0.00074
C 6.14886 26.38322 -0.00518
C 4.92671 25.5726 0.0086
C 4.90853 24.0385 -0.00643
C 6.11042 23.47338 0.017
C 6.1727 22.05094 -0.03113
C 4.97206 21.32808 -0.02566
C 4.93568 19.93961 -0.00094
C 6.19491 19.25407 0.02322
C 6.18387 17.79561 -0.00725
C 4.8625 16.9747 -0.05697
C 3.66828 5.10833 0.03267
C 4.74766 15.63998 0.01087
C 3.64212 6.48631 -0.01509
C 2.36196 8.58431 0.00907
C 3.67139 30.59583 -0.00039
C 2.45486 29.82137 0.0064
C 2.4861 28.42682 0.00211
C 3.64052 27.59352 -0.00449
C 3.64509 26.1528 -0.01979
C 2.4128 25.42261 0.02784
C 2.40029 23.97444 -0.01977
C 3.66024 23.35746 -0.00561
C 3.64845 21.95368 0.00208
C 2.46175 21.21596 0.01707
C 2.50207 19.8308 0.02769
C 3.74675 19.13126 -0.03291
C 3.65242 17.70488 -0.04999
C 2.4117 16.98439 0.04505
C 2.30866 15.5584 0.03284
C 3.52508 14.91471 -0.04307
C 3.59857 13.47792 0.03189
C 2.38699 12.72666 0.00031
C 2.40739 11.34369 -0.003
C 3.59479 10.66037 0.01402
C 3.61418 9.23997 0.02379
C 2.33678 7.08212 0.00643
C 6.03876 14.93673 -0.01343
C 5.99646 13.51211 0.00988
C 4.82365 12.75116 0.0276
C 7.31106 15.56625 -0.0008
C 7.26571 12.87589 0.0288
C 7.29106 11.47367 0.00393
C 8.54348 10.78261 0.00895
C 8.5811 9.34496 0.00685
C 7.31641 8.57415 0.02888
C 7.37805 7.15743 -0.00482
C 8.56706 6.45888 -0.01384
C 8.66489 5.10981 0.03693
C 7.37561 4.38732 0.01745
C 7.31119 2.99002 0.00488
C 8.53155 2.22537 -0.01004
C 8.65016 0.78899 -0.02896
C 7.31753 0.11705 -0.00131
C 9.79992 32.73087 -0.01118
C 11.05133 31.97541 -0.014
C 11.02777 30.45215 0.02147
C 9.80989 29.78546 0.00373
C 9.75975 28.37829 -0.00191
C 10.99003 27.68939 0.00438
C 11.01542 26.26565 0.01291
C 7.27605 16.9206 -0.01362
C 7.34181 19.94713 -0.00892
C 7.65321 21.27305 -0.04848
C 8.89577 22.14604 0.01572
C 4.84333 11.35467 0.01305
C 6.03453 10.71581 -0.00077
C 6.09504 9.2989 0.03368
C 4.92306 8.53867 -0.02929
C 4.84831 7.23479 -0.00966
C 6.07646 6.53375 -0.03337
C 6.17633 5.07333 0.01227
C 4.90595 4.38502 0.00873
C 4.82805 2.9247 -0.00049
C 6.1155 2.30781 0.00848
C 20.79572 9.23656 0.03754
C 6.17431 0.84659 -0.01303
C 7.30148 32.71185 0.02635
C 8.5547 32.07657 0.0127
C 8.59536 30.60254 0.01396
C 7.30651 29.94745 0.01849
C 7.40307 28.57106 -0.01142
C 8.53109 27.72551 -0.00562
C 8.55231 26.34979 -0.00494
C 7.34905 25.57652 0.00054
C 7.33069 24.22981 0.03007
C 8.60136 23.58654 -0.00095
C 4.87166 0.1266 -0.01378
C 3.64723 32.04159 0.02728
C 19.61173 8.5189 0.01739
C 20.89934 6.43164 -0.0054
C 29.49314 7.10947 0.01518
C 30.71638 6.41291 0.01908
C 30.74406 4.97158 0.07705
C 29.43192 4.24064 0.0103
C 29.4986 2.87541 0.02108
C 30.74417 2.16748 0.00716
C 30.72318 0.7083 0.00307
C 29.56475 34.00672 0.00346
C 32.00464 32.66741 0.01713
C 33.20328 31.94354 -0.01694
C 33.21091 30.50009 0.01428
C 31.94429 29.78953 -0.02142
C 31.96187 28.37294 0.0544
C 33.19563 27.66366 0.00026
C 33.14209 26.22067 0.00682
C 31.93147 25.45305 -0.01779
C 31.90327 24.03977 0.03794
C 33.16362 23.40845 0.01927
C 33.16936 21.94904 0.01574
C 31.84287 21.28265 -0.02383
C 31.88359 19.89213 -0.01429
C 29.49423 8.42423 -0.00971
C 33.12004 19.23409 -0.0136
C 30.67192 9.21021 -0.03735
C 29.48062 11.31713 -0.02155
C 27.1207 0.01183 -0.00416
C 29.59605 32.62385 0.01177
C 30.86509 31.88923 0.04266
C 30.68144 30.54798 0.01324
C 29.51256 29.90633 0.0014
C 29.49787 28.39144 0.00924
C 30.72405 27.67765 0.02326
C 30.74375 26.21739 0.00261
C 29.47799 25.48594 0.03265
C 29.46701 24.04946 -0.02049
C 30.73496 23.35133 -0.01854
C 30.60837 21.91744 -0.01415
C 29.4305 21.26503 -0.03039
C 29.4359 19.79739 0.01836
C 30.74358 19.13865 0.03531
C 30.67113 17.75664 -0.00669
C 29.43754 17.0542 0.0101
C 29.46533 15.57267 0.01705
C 30.68039 14.95335 -0.0405
C 30.63138 13.49961 -0.01303
C 29.42133 12.71973 -0.01461
C 30.6855 10.62458 -0.00944
C 28.2905 0.63733 0.01699
C 33.15122 17.86057 0.00594
C 31.91324 15.67683 0.00369
C 1.20229 21.95988 0.02712
C 34.33966 21.25364 -0.02213
C 34.35851 19.87414 0.01951
C 1.24314 19.17217 -0.01678
C 1.19133 17.74579 0.01223
C 34.38786 17.05952 0.00648
C 34.25771 15.66439 0.02114
C 1.08301 14.92112 -0.02957
C 1.15231 13.53493 0.00343
C 34.36355 12.79034 -0.02656
C 34.33455 11.37616 -0.02442
C 1.16161 10.72698 -0.00027
C 1.24233 9.2992 -0.00583
C 34.37536 8.6094 -0.02302
C 34.30975 7.2385 -0.02849
C 1.10638 6.40749 0.02931
C 1.21004 4.97339 0.00628
C 34.37234 4.26359 -0.0345
C 34.38906 2.83935 -0.00931
C 1.16744 2.17148 -0.00939
C 1.24784 0.76442 -0.00468
C 1.19623 23.28538 0.00723
C 31.89649 17.10491 -0.02474
C 34.38765 24.10088 0.03076
C 1.20605 26.28417 -0.00598
C 33.06438 14.9463 0.00455
C 33.14178 13.49066 -0.00644
C 31.88614 12.79233 -0.01839
C 31.9162 11.44474 0.00137
C 33.15666 10.68671 0.00199
C 33.13689 9.28921 0.04381
C 31.89856 8.5141 0.02806
C 31.86442 7.15033 0.01504
C 33.22495 6.46185 -0.00069
C 33.18041 5.03974 0.04926
C 31.92761 4.30778 -0.03838
C 31.9982 2.96906 0.00349
C 33.23769 2.1294 -0.00323
C 33.18263 0.7636 -0.00841
C 31.97215 0.06652 0.0001
C 34.34079 32.66787 -0.02927
C 1.18855 32.06211 -0.01404
C 1.22826 30.59177 0.01027
C 0.00693 29.82443 0.01831
C 0.02456 28.39391 -0.01037
C 1.20614 27.66043 -0.00439
C 34.38359 25.53852 -0.05239
C 28.28271 2.0541 0.01799
C 27.10084 2.82037 0.01259
C 27.06568 4.24965 0.01495
C 22.01814 12.9025 0.00199
C 22.02235 11.46729 0.01511
C 23.19948 10.82939 -0.00478
C 23.20945 9.36595 -0.01662
C 22.11147 8.52745 -0.01185
C 22.20404 7.12381 0.01126
C 23.40301 6.4186 0.01852
C 23.36327 5.00123 -0.00381
C 22.09652 4.28444 0.03046
C 22.1669 2.84884 0.0296
C 23.35791 2.10826 0.03374
C 23.34151 0.7042 -0.02845
C 22.05402 34.0374 -0.03213
C 24.71071 32.7061 0.02239
C 25.9457 31.85647 0.01153
C 25.83445 30.47141 0.02734
C 24.57966 29.79672 -0.0055
C 24.60041 28.36818 0.01515
C 25.82614 27.67824 -0.00225
C 25.78673 26.31078 0.00071
C 24.57494 25.57443 -0.01107
C 23.2651 13.3967 0.01087
C 24.4983 24.12106 -0.01586
C 23.43377 14.83536 -0.01527
C 22.22007 16.9865 0.01277
C 20.83109 4.97274 0.00667
C 19.64997 4.27458 0.00143
C 19.63176 2.80452 -0.017
C 20.91371 2.15795 0.00364
C 20.93232 0.65111 -0.00831
C 19.71806 34.0555 -0.02957
C 22.14488 32.55877 -0.04422
C 23.42243 31.99549 0.00654
C 23.36425 30.4741 -0.00703
C 22.1442 29.75682 -0.04076
C 22.16682 28.35625 -0.00652
C 23.34201 27.64235 0.0058
C 23.36276 26.25516 -0.00865
C 22.10457 25.60933 0.00675
C 22.01898 24.04713 -0.00311
C 23.19125 23.35182 0.00742
C 23.177 21.92013 -0.01594
C 22.0216 21.22823 0.0106
C 22.00742 19.72384 -0.01154
C 23.30659 19.09244 -0.01721
C 23.34091 17.70858 -0.02422
C 22.23948 15.4815 0.00096
C 25.71645 23.48355 -0.01971
C 25.76199 21.99591 -0.02118
C 24.57736 21.24475 0.00733
C 28.35027 26.25311 -0.00802
C 27.09796 25.63544 -0.00218
C 27.0407 24.20946 -0.01654
C 28.20358 23.4413 -0.00037
C 28.23259 22.0314 -0.0032
C 26.97496 21.33259 0.00622
C 27.01874 19.91813 -0.02815
C 28.25863 19.15748 -0.00942
C 28.19169 17.68051 0.00487
C 26.9029 17.00041 0.00826
C 26.9653 15.63339 -0.00294
C 28.24864 14.88269 0.00152
C 28.20371 13.46085 0.01257
C 26.91847 12.68497 0.02316
C 26.98321 11.32098 0.04185
C 28.19629 10.65361 0.00194
C 28.20819 9.17314 -0.00621
C 27.00079 8.48655 0.02611
C 26.98841 7.10493 0.02198
C 28.22258 6.48365 0.01094
C 28.23639 4.97617 0.00235
C 28.32062 27.66126 0.00195
C 26.99821 28.40266 0.00996
C 27.07599 29.7594 0.04306
C 28.23913 30.53216 0.00367
C 24.54331 19.81773 -0.00178
C 25.75306 19.21335 0.00768
C 25.76772 17.78021 -0.0276
C 24.60917 17.009 0.03005
C 24.5889 15.65267 -0.04078
C 25.76552 14.93409 0.02117
C 25.7331 13.45497 0.02737
C 24.54056 12.77737 -0.00498
C 24.49025 11.43695 0.00135
C 25.69366 10.71255 0.03102
C 19.67335 7.11676 0.00755
C 25.70639 9.25561 0.02555
C 24.69124 7.06151 -0.00285
C 25.79659 6.33584 -0.009
C 25.83356 4.89521 -0.01199
C 24.5397 4.23306 -0.00229
C 24.63081 2.88835 -0.00938
C 25.79338 2.14104 -0.0264
C 25.86371 0.72149 -0.01154
C 24.6584 34.0662 0.00684
C 27.10425 32.64923 -0.01052
C 28.36637 31.93619 -0.01679
C 24.51798 8.57321 0.01423
C 2.40679 32.73298 0.00245
