323
Graphene
C 0.01722 0.02248 0.01295
C 9.87482 25.54376 -0.00289
C 9.84524 24.18241 0.00028
C 11.0866 23.44678 -0.02213
C 11.07557 22.00998 0.03698
C 9.87651 21.27767 -0.00109
C 9.84451 19.86582 -0.00491
C 9.77396 16.98055 0.03338
C 11.03207 26.25398 -0.00066
C 9.82862 15.57035 -0.0258
C 9.81255 11.36948 -0.00316
C 11.09606 10.66874 0.02188
C 11.12626 9.20761 -0.01979
C 9.86664 8.53986 0.02691
C 9.87587 7.09216 -0.01581
C 11.05829 6.44406 0.01452
C 11.07763 4.93322 0.04892
C 9.82206 12.71552 -0.0331
C 9.82312 4.24347 -0.00111
C 11.09783 27.63642 0.00213
C 9.81647 29.82713 -0.04147
C 7.36219 12.80003 -0.00114
C 7.37909 11.3479 0.00228
C 8.57733 10.67667 0.00798
C 8.52188 9.29471 0.00422
C 7.39821 8.52366 0.0351
C 7.38864 7.08736 -0.03113
C 8.61937 6.38981 0.02098
C 9.84709 28.42801 -0.05302
C 8.6068 4.9628 0.01848
C 7.38085 2.85314 -0.02162
C 8.61828 2.15827 0.00889
C 8.59095 0.77587 -0.00481
C 7.34434 34.0755 0.00979
C 9.83951 32.72263 0.01443
C 11.06849 31.89167 0.03505
C 11.07303 30.51456 -0.02815
C 7.40562 4.28802 -0.00619
C 9.88259 2.81306 -0.03557
C 11.0743 2.0946 0.03754
C 11.07529 0.71444 0.01739
C 15.9878 30.50423 -0.01721
C 14.69064 29.80322 -0.02422
C 14.77212 28.37623 0.01277
C 16.01167 27.67022 0.00096
C 15.97748 26.28937 -0.01527
C 14.7869 25.53989 0.01087
C 14.71347 24.17337 0.00199
C 15.96841 31.9763 -0.01154
C 14.7004 4.21657 0.01511
C 15.97569 2.09904 -0.01662
C 15.9818 0.74042 -0.01185
C 14.7892 34.03615 0.01126
C 17.18003 32.64666 0.01852
C 18.44261 31.94923 -0.00381
C 18.46127 30.50002 0.03046
C 17.26292 29.86189 0.0296
C 14.7736 2.81351 -0.00478
C 14.77928 32.64354 0.0106
C 12.32807 34.035 -0.01594
C 13.56561 0.67078 0.00742
C 9.7863 0.00307 0.00755
C 12.29928 32.63254 -0.0054
C 13.53654 31.92332 0.00667
C 13.54903 30.49656 0.00143
C 12.29049 29.84113 -0.017
C 12.27836 28.42961 0.00364
C 13.52079 27.70522 -0.00831
C 13.48664 26.31194 -0.02957
C 12.28534 25.60088 -0.04422
C 12.28845 24.17612 0.00654
C 13.54894 23.38757 -0.00703
C 12.32885 8.48293 -0.04076
C 12.33864 7.1489 -0.00652
C 13.55257 4.97279 0.0058
C 12.32288 4.26885 -0.00865
C 12.31871 2.84936 0.00675
C 13.52179 2.09857 -0.00311
C 8.5981 13.4411 -0.02696
C 17.20115 28.37808 0.03374
C 8.65399 14.92571 -0.00368
C 7.34804 17.03763 -0.01957
C 3.67414 9.23149 0.00057
C 2.43342 8.55204 -0.01634
C 2.47437 7.10314 -0.00334
C 3.66113 6.4114 0.02339
C 3.6983 5.00503 0.01641
C 2.51796 4.26043 -0.00719
C 2.44106 2.85414 0.01364
C 3.7025 10.61121 0.00093
C 3.68137 2.15874 -0.01062
C 2.45729 34.067 0.03589
C 4.88844 32.63445 -0.02759
C 6.17138 31.94453 0.0402
C 6.17085 30.53541 0.00572
C 4.87227 29.88328 0.03592
C 4.92391 28.38462 0.00406
C 6.12354 27.68751 0.00943
C 3.6692 0.72383 -0.00033
C 6.14444 26.31658 0.02841
C 2.44992 11.33106 0.01291
C 3.6816 13.52824 -0.00191
C 3.67289 30.57083 0.00393
C 2.44422 29.8291 0.00895
C 2.45497 28.41984 0.00685
C 3.69014 27.70866 0.02888
C 3.69881 26.23654 -0.00482
C 2.45248 25.5571 -0.01384
C 2.47872 24.14969 0.03693
C 2.49885 12.78257 0.00438
C 3.63945 23.45674 0.01745
C 2.43345 21.32936 -0.01004
C 2.44329 19.89593 -0.02896
C 3.67483 19.18985 -0.00131
C 3.68115 17.7515 -0.01118
C 2.46926 17.00486 -0.014
C 2.48806 15.63813 0.02147
C 3.68116 14.91624 0.00373
C 3.71882 22.00683 0.00488
C 4.91673 25.54974 -0.01111
C 4.8788 24.16072 -0.01275
C 6.13106 23.49625 0.00985
C 4.91218 0.00198 0.01241
C 7.40806 32.62208 -0.01454
C 8.58982 31.97658 0.01945
C 8.6317 30.55369 0.01416
C 7.34849 29.79391 0.03542
C 7.44953 28.38552 0.02299
C 8.56472 27.64914 0.00244
C 6.13654 0.73934 0.0076
C 8.58828 26.2946 -0.01717
C 7.35306 24.12476 -0.01952
C 8.62284 23.44468 -0.02813
C 8.61314 21.94419 0.00374
C 7.3856 21.30078 0.00052
C 7.42079 19.92371 -0.03682
C 8.618 19.19706 0.01965
C 8.60552 17.72406 0.02058
C 7.36642 25.50989 0.05265
C 6.15095 2.12615 0.02162
C 4.9579 2.85318 -0.0014
C 4.90069 4.24553 0.00415
C 6.14552 22.04303 -0.02245
C 4.90934 21.35904 -0.00428
C 4.89108 19.88889 0.03101
C 6.17225 19.14986 -0.01536
C 6.18245 17.74719 -0.02689
C 4.95875 17.09233 -0.01046
C 4.93034 15.54485 -0.00891
C 6.158 14.8879 0.02819
C 6.12222 13.51273 0.00165
C 4.88399 12.75944 -0.02971
C 4.91622 11.35155 0.02894
C 6.13201 10.68556 -0.01789
C 6.12829 9.24467 0.00444
C 4.93092 8.48127 -0.00925
C 4.90805 7.12027 0.01877
C 6.15505 6.40244 0.01363
C 6.17167 4.96619 -0.02162
C 7.37211 15.61939 -0.0108
C 3.70294 31.95414 0.0288
C 18.47074 27.70402 -0.02845
C 17.20992 25.62393 0.02239
C 33.16731 27.71785 0.00682
C 33.22756 26.25474 -0.01779
C 31.99051 25.59874 0.03794
C 31.99296 24.14827 0.01927
C 33.23973 23.4462 0.01574
C 33.20372 22.06923 -0.02383
C 31.96505 21.33006 -0.01429
C 31.98615 28.41893 0.00026
C 31.92941 19.88739 -0.0136
C 33.21419 17.78645 -0.02474
C 32.0085 17.00486 0.00369
C 31.9998 15.58676 0.00455
C 33.20793 14.92061 -0.00644
C 33.16801 13.52411 -0.01839
C 31.97683 12.76196 0.00137
C 31.9137 11.34461 0.00199
C 33.15287 19.20725 0.00594
C 33.17577 10.63891 0.04381
C 32.01111 29.80373 0.0544
C 33.1772 31.97976 0.01428
C 29.49547 15.64046 -0.01303
C 30.76763 14.95687 -0.01461
C 30.77187 13.45997 -0.02155
C 29.51736 12.7736 -0.00944
C 29.4754 11.38892 -0.03735
C 30.73396 10.6454 -0.00971
C 30.73554 9.25658 0.01518
C 33.15773 30.51779 -0.02142
C 29.48697 8.53921 0.01908
C 30.70424 6.34226 0.0103
C 30.76088 5.01251 0.02108
C 29.48524 4.22843 0.00716
C 29.52122 2.8492 0.00307
C 30.73903 0.66126 0.00346
C 29.48611 34.07341 0.01713
C 31.97311 32.67539 -0.01694
C 29.54123 7.10608 0.07705
C 33.22698 9.25151 0.02806
C 31.94494 8.52723 0.01504
C 31.95837 7.10907 -0.00069
C 34.42643 17.0148 0.00648
C 34.38482 15.64853 0.02114
C 1.25648 14.90552 -0.02957
C 1.24301 13.4697 0.00343
C 0.03802 12.73554 -0.02656
C 34.40501 11.38687 -0.02442
C 1.21104 10.69644 -0.00027
C 1.23395 17.7425 0.01223
C 1.2211 9.22057 -0.00583
C 34.42277 7.08841 -0.02849
C 1.20076 6.38828 0.02931
C 1.25143 4.97992 0.00628
C 0.00945 4.18047 -0.0345
C 0.02586 2.80031 -0.00931
C 1.26717 2.15112 -0.00939
C 1.24756 0.73543 -0.00468
C 34.43043 8.48842 -0.02302
C 1.21042 19.19581 -0.01678
C 0.025 19.85468 0.01951
C 34.39716 21.26831 -0.02213
C 33.17793 6.41025 0.04926
C 33.18535 4.94691 -0.03838
C 31.95841 4.32238 0.00349
C 33.19406 2.12356 -0.00323
C 33.20696 0.65715 -0.00841
C 31.99393 34.07803 0.0001
C 34.42874 32.67923 -0.02927
C 1.27056 31.95518 -0.01404
C 1.23022 30.47513 0.01027
C 34.42884 29.81968 0.01831
C 0.03122 28.40302 -0.01037
C 1.20949 27.65598 -0.00439
C 1.25007 26.25506 -0.00598
C 34.43072 25.59323 -0.05239
C 34.41418 24.15837 0.03076
C 1.24043 23.49478 0.00723
C 1.19469 22.02832 0.02712
C 29.5733 17.0875 -0.0405
C 18.41544 26.26393 -0.03213
C 30.75767 17.74341 0.01705
C 29.52543 19.85562 -0.00669
C 22.17445 25.58539 0.03102
C 23.39218 2.10996 0.02555
C 23.3434 0.69125 0.01423
C 22.13812 0.0081 -0.00285
C 24.59911 32.67175 -0.009
C 25.86366 31.97124 -0.01199
C 25.77284 30.50021 -0.00229
C 23.3413 26.27285 0.00135
C 24.60465 29.83804 -0.00938
C 25.89136 27.70225 -0.01154
C 25.77026 26.24672 0.00684
C 24.54625 25.53205 -0.01052
C 24.62243 24.10614 -0.01679
C 25.78777 23.43771 0.00367
C 25.85116 21.99129 0.04306
C 24.56083 2.86653 0.00996
C 24.59531 28.44405 -0.0264
C 25.82622 2.13348 0.00195
C 23.39819 27.71323 -0.00498
C 22.08462 29.81478 0.02117
C 18.42983 2.13214 0.01153
C 18.40623 0.7048 0.02734
C 17.22799 34.03374 -0.0055
C 19.67307 32.66226 0.01515
C 20.86868 31.98878 -0.00225
C 20.88646 30.58024 0.00071
C 19.66771 29.84406 -0.01107
C 22.13325 28.42242 0.02737
C 19.66454 28.38836 -0.01586
C 20.88994 26.27772 -0.02118
C 19.66574 25.58195 0.00733
C 20.91413 0.66899 -0.00178
C 19.63464 34.06275 0.00768
C 22.12097 32.67838 -0.0276
C 23.34789 31.97261 0.03005
C 23.32473 30.56571 -0.04078
C 20.91142 27.67263 -0.01971
C 25.83053 0.70217 -0.00802
C 24.56803 0.02015 -0.00218
C 27.05252 32.67615 -0.01654
C 27.07475 2.8393 0.01699
C 28.24826 2.0813 -0.00416
C 28.23027 0.70318 0.01177
C 27.08779 34.0647 0.04266
C 29.49952 32.62664 0.01324
C 30.72549 31.95496 0.0014
C 30.76882 30.48664 0.00924
C 27.07349 4.2363 0.01799
C 29.56048 29.80825 0.02326
C 30.72091 27.65673 0.03265
C 30.75731 26.18291 -0.02049
C 29.50579 25.55463 -0.01854
C 29.48581 24.15236 -0.01415
C 30.7826 23.44703 -0.03039
C 30.78057 21.97443 0.01836
C 29.50015 21.3138 0.03531
C 29.44263 28.38796 0.00261
C 28.23299 4.97279 0.01259
C 28.27852 6.33909 0.01495
C 28.27201 9.26743 0.00235
C 28.31081 31.92552 -0.00037
C 28.32727 30.53504 -0.0032
C 26.97937 29.82562 0.00622
C 27.02111 28.34259 -0.02815
C 28.2933 27.67068 -0.00942
C 28.27657 26.24624 0.00487
C 27.06229 25.52541 0.00826
C 27.07305 24.12614 -0.00294
C 28.30605 23.41084 0.00152
C 28.28875 22.02422 0.01257
C 27.04329 21.23022 0.02316
C 27.04433 19.84655 0.04185
C 28.26873 19.18299 0.00194
C 28.32462 17.72541 -0.00621
C 28.35904 14.87239 0.02611
C 28.2668 13.48672 0.02198
C 28.30822 10.60505 0.01094
C 30.742 19.17229 0.0101
C 2.44961 32.67359 -0.0008
