357
Graphene
C 34.37262 34.07081 0.01295
C 14.74386 4.26091 -0.0108
C 14.7262 2.81735 -0.00368
C 15.91963 2.18071 -0.02696
C 16.00252 0.78332 -0.00114
C 14.78349 34.0328 0.00228
C 17.21027 32.68507 0.00798
C 18.44844 31.88275 0.00422
C 18.36135 30.45855 0.0351
C 16.08124 4.94182 -0.01957
C 17.13373 29.68896 -0.03113
C 18.63042 27.77991 0.01848
C 18.49999 14.79786 -0.00619
C 18.48199 13.46598 -0.02162
C 17.25107 12.82701 0.00889
C 17.24859 11.31648 -0.00481
C 18.41688 10.58934 0.00979
C 18.34681 9.17413 0.01443
C 17.16437 8.46072 0.03505
C 17.42417 28.28586 0.02098
C 17.10185 7.05242 -0.02815
C 15.91974 6.28296 0.02058
C 14.73504 8.53796 -0.03682
C 12.29332 8.59173 -0.02162
C 12.26174 7.17833 0.00415
C 13.46076 6.4639 -0.0014
C 13.57087 5.05412 0.02162
C 12.35497 4.36045 0.0076
C 12.31944 2.91099 0.01241
C 13.53183 2.17055 -0.01454
C 13.60281 0.762 0.01945
C 14.71135 7.09182 0.01965
C 12.32085 0.00785 0.01416
C 15.94807 31.96252 0.02299
C 15.93617 30.42831 0.00244
C 14.69572 29.82692 -0.01717
C 16.02663 13.37712 0.05265
C 14.8755 12.77474 -0.01952
C 14.76547 11.4103 -0.02813
C 16.024 10.6934 0.00374
C 15.96602 9.18595 0.00052
C 14.66582 32.64335 0.03542
C 18.37157 6.4027 -0.04147
C 18.49478 4.98223 -0.05302
C 17.26028 4.25796 0.00213
C 20.92034 9.35414 0.00667
C 19.64286 8.62396 0.00143
C 19.58701 7.12578 -0.017
C 20.77104 6.32185 0.00364
C 20.90586 4.9615 -0.00831
C 19.69686 4.26264 -0.02957
C 19.63638 2.79653 -0.04422
C 20.85894 2.13084 0.00654
C 20.88605 10.71255 -0.0054
C 20.91303 0.68461 -0.00703
C 22.14466 32.6339 -0.00652
C 23.41017 31.92827 0.0058
C 23.3933 30.55016 -0.00865
C 22.12917 29.7827 0.00675
C 22.18492 28.36528 -0.00311
C 23.35012 27.66311 0.00742
C 23.29213 26.26585 -0.01594
C 22.08633 25.57137 0.0106
C 19.64518 34.05208 -0.04076
C 19.64146 11.37081 0.00755
C 19.69705 12.72746 0.01739
C 20.92804 13.42585 0.03754
C 17.18684 2.89104 -0.00066
C 18.42897 2.16876 -0.00289
C 18.43414 0.74697 0.00028
C 17.25378 0.04741 -0.02213
C 19.67261 32.56434 0.03698
C 20.9632 31.95419 -0.00109
C 20.94008 30.53815 -0.00491
C 19.69213 29.85079 0.03338
C 19.77765 28.43239 -0.0258
C 20.96382 27.69032 -0.0331
C 20.7924 26.1557 -0.00316
C 19.63556 25.5257 0.02188
C 20.91581 23.47872 -0.01979
C 21.04006 22.17004 0.02691
C 20.89959 19.18183 -0.01581
C 20.75162 17.77955 0.01452
C 19.63474 17.03501 0.04892
C 19.512 15.67239 -0.00111
C 20.8763 14.85198 -0.03557
C 13.54029 9.22758 0.01363
C 13.61166 10.65519 0.01877
C 12.32779 11.31285 -0.00925
C 12.27353 12.66487 0.00444
C 2.53405 2.88816 -0.00562
C 3.69237 2.14385 -0.00494
C 3.67149 0.66623 0.00054
C 2.35611 34.03622 0.03007
C 4.88429 32.68809 -0.00095
C 6.19958 31.92946 0.01572
C 6.0974 30.59668 -0.04848
C 4.88578 29.87322 -0.00892
C 2.42153 4.27668 -0.01142
C 4.91002 28.4835 -0.01362
C 5.99589 14.88898 0.0288
C 6.18385 13.52557 0.00393
C 4.93042 12.7737 0.00895
C 4.86335 11.37626 0.00685
C 6.10054 10.78169 0.02888
C 6.1217 9.29839 -0.00482
C 4.91549 8.61585 -0.01384
C 4.89465 7.12015 0.03693
C 4.97861 15.59057 -0.0008
C 3.59733 5.05839 0.01849
C 3.66336 6.47575 0.01396
C 2.38255 7.21379 0.0127
C 3.61125 30.56946 -0.00725
C 2.43033 29.78568 -0.05697
C 2.47134 28.35454 0.01087
C 3.86366 27.64371 -0.01343
C 3.66516 26.24331 0.00988
C 2.60301 25.4785 0.0276
C 2.56194 24.08709 0.01305
C 2.39498 21.16522 -0.00077
C 2.28282 19.90761 0.03368
C 3.51757 17.98505 -0.02929
C 2.50841 17.12857 -0.00966
C 2.51931 15.66879 -0.03337
C 3.76578 14.98354 0.01227
C 3.63616 13.51965 0.00873
C 2.5079 12.79802 -0.00049
C 2.40487 11.37381 0.00848
C 3.67921 10.66941 -0.01303
C 3.65943 9.16455 -0.01378
C 2.41272 8.57835 0.02635
C 6.14767 6.39201 0.01745
C 22.07632 24.1374 -0.01154
C 6.1765 4.97618 0.00488
C 4.89628 2.83956 -0.02896
C 11.02948 30.70977 0.00406
C 9.93147 30.09098 0.00943
C 9.8102 12.67659 0.02841
C 9.9135 11.40634 -0.01111
C 11.01072 10.61986 -0.01275
C 10.99649 9.24704 0.00985
C 9.79439 8.60488 -0.02245
C 9.7441 7.13029 -0.00428
C 11.072 32.02617 0.03592
C 10.99901 6.44728 0.03101
C 9.88533 4.29941 -0.02689
C 9.85827 2.84625 -0.01046
C 11.07818 2.09151 -0.00891
C 11.0437 0.75524 0.02819
C 9.76256 0.04357 0.00165
C 12.3018 32.72791 -0.02971
C 13.42213 31.89132 0.02894
C 13.64429 30.47713 -0.01789
C 11.12856 5.0341 -0.01536
C 9.82923 32.68393 0.00572
C 7.37816 0.04386 0.0402
C 8.5921 0.76595 -0.02759
C 6.18 2.13796 -0.00131
C 6.15176 0.73669 -0.01118
C 4.94877 0.03671 -0.014
C 7.39802 32.62948 0.02147
C 8.5978 31.92476 0.00373
C 8.59855 30.42189 -0.00191
C 7.35793 29.92329 0.00438
C 8.71695 13.42586 0.01291
C 7.40521 12.92055 0.00093
C 7.35352 11.50295 0.00057
C 8.54112 10.74124 -0.01634
C 8.576 9.29754 -0.00334
C 7.3392 8.6091 0.02339
C 7.2814 7.17767 0.01641
C 8.55167 6.44255 -0.00719
C 8.63828 4.97187 0.01364
C 7.39513 4.23158 -0.01062
C 7.40735 2.86811 -0.00033
C 8.67924 2.16782 0.03589
C 4.90847 4.26952 -0.01004
C 3.65231 31.95611 0.02322
C 23.34859 23.39382 -0.01721
C 22.08471 21.26448 0.01277
C 32.01498 32.70259 0.01713
C 33.18007 32.00228 -0.01694
C 33.16361 30.57147 0.01428
C 31.97617 29.87209 -0.02142
C 31.98801 28.42671 0.0544
C 33.23641 27.73652 0.00026
C 33.12765 26.26966 0.00682
C 31.90986 25.64315 -0.01779
C 29.52431 0.0269 0.00346
C 31.92208 24.18748 0.03794
C 33.1182 22.04101 0.01574
C 31.86598 21.24503 -0.02383
C 31.93053 19.87889 -0.01429
C 33.1894 19.18811 -0.0136
C 33.22353 17.80171 0.00594
C 31.97074 16.9847 -0.02474
C 31.97062 15.63196 0.00369
C 33.23746 14.84674 0.00455
C 33.10366 23.46099 0.01927
C 33.25876 13.39768 -0.00644
C 30.68863 0.73853 0.00307
C 29.55222 2.81101 0.02108
C 30.69365 22.01179 -0.01415
C 29.45009 21.32029 -0.03039
C 29.42767 19.87947 0.01836
C 30.66104 19.13519 0.03531
C 30.73398 17.74919 -0.00669
C 29.4873 17.05043 0.0101
C 29.50649 15.61495 0.01705
C 30.70827 14.8781 -0.0405
C 30.75955 2.15527 0.00716
C 30.73851 13.46081 -0.01303
C 29.39885 11.40188 -0.02155
C 30.64386 10.69058 -0.00944
C 30.67171 9.21068 -0.03735
C 29.56088 8.4914 -0.00971
C 29.53219 7.04563 0.01518
C 30.79355 6.37985 0.01908
C 30.71463 4.95196 0.07705
C 29.54137 4.24953 0.0103
C 29.45023 12.80501 -0.01461
C 32.01619 12.74018 -0.01839
C 31.94552 11.37155 0.00137
C 33.18962 10.58085 0.00199
C 1.16641 19.14789 -0.01678
C 1.15818 17.73143 0.01223
C 34.3761 17.04376 0.00648
C 0.02507 15.59731 0.02114
C 1.29357 14.90502 -0.02957
C 1.30351 13.43943 0.00343
C 0.05829 12.71965 -0.02656
C 0.03287 11.28029 -0.02442
C 34.42253 19.9273 0.01951
C 1.23258 10.59307 -0.00027
C 34.41587 8.5062 -0.02302
C 0.00803 7.11382 -0.02849
C 1.26604 6.44431 0.02931
C 1.23279 5.04432 0.00628
C 34.38461 4.30515 -0.0345
C 0.0293 2.90922 -0.00931
C 1.19611 2.14123 -0.00939
C 1.19289 0.74488 -0.00468
C 1.15633 9.2282 -0.00583
C 0.00387 21.39013 -0.02213
C 1.32193 22.04932 0.02712
C 1.30325 23.50447 0.00723
C 33.19869 9.23249 0.04381
C 31.94368 8.54498 0.02806
C 32.01666 7.14085 0.01504
C 33.19302 6.3599 -0.00069
C 33.14906 4.99567 0.04926
C 31.91361 4.23121 -0.03838
C 32.00948 2.79744 0.00349
C 33.20208 2.11187 -0.00323
C 33.17847 0.7206 -0.00841
C 31.92303 34.05672 0.0001
C 34.41241 32.68699 -0.02927
C 1.15081 31.86074 -0.01404
C 1.17403 30.53376 0.01027
C 34.35316 29.85746 0.01831
C 34.42479 28.43505 -0.01037
C 1.20049 27.71745 -0.00439
C 1.14552 26.25448 -0.00598
C 34.36476 25.55189 -0.05239
C 34.42093 24.12009 0.03076
C 30.76963 23.41337 -0.01854
C 29.53294 24.1786 -0.02049
C 29.50312 25.55108 0.03265
C 30.71038 26.29438 0.00261
C 25.85416 27.75475 -0.01107
C 25.7879 26.31003 -0.01586
C 24.5392 25.56506 -0.01971
C 24.57597 24.15612 -0.02118
C 25.88949 23.48602 0.00733
C 25.85524 22.10734 -0.00178
C 24.64069 21.29074 0.00768
C 24.55774 19.86603 -0.0276
C 24.60026 28.32193 0.00071
C 25.73019 19.16368 0.03005
C 24.58024 17.00107 0.02117
C 24.52287 15.6383 0.02737
C 25.74237 14.81875 -0.00498
C 25.69525 13.4345 0.00135
C 25.82882 10.53407 0.03102
C 25.83933 9.16249 0.02555
C 24.53618 8.47316 0.01423
C 24.57102 6.99483 -0.00285
C 25.78886 17.80058 -0.04078
C 24.59349 29.77597 -0.00225
C 25.84672 30.45485 0.01515
C 25.86167 31.96651 -0.0055
C 22.09104 19.90203 0.00096
C 23.30049 19.14978 -0.01527
C 23.28946 17.75755 0.01087
C 22.08167 16.99698 0.00199
C 22.09041 15.54545 0.01511
C 23.35484 14.8412 -0.00478
C 23.3859 13.40736 -0.01662
C 22.21396 12.72303 -0.01185
C 23.28506 9.2011 0.01126
C 22.14169 8.5649 0.01852
C 22.06802 7.09294 -0.00381
C 23.28063 6.3723 0.03046
C 23.39836 4.89516 0.0296
C 22.11045 4.24324 0.03374
C 22.04919 2.84148 -0.02845
C 23.33812 2.07849 -0.03213
C 23.35934 0.64514 0.02239
C 22.06814 34.02506 0.01153
C 24.7219 32.72111 0.02734
C 25.87937 6.35384 -0.009
C 23.34328 21.99764 -0.02422
C 25.85851 4.94199 -0.01199
C 24.51258 2.80363 -0.00938
C 26.97697 11.32435 0.04185
C 28.27072 10.59247 0.00194
C 28.34003 9.11657 -0.00621
C 27.09708 8.44352 0.02611
C 27.1095 7.01091 0.02198
C 28.37532 6.2966 0.01094
C 28.33556 4.8927 0.00235
C 27.10433 4.22601 0.01495
C 26.91563 12.76339 0.02316
C 27.06245 2.8257 0.01259
C 28.30932 0.71536 0.01699
C 27.02067 0.05481 -0.00416
C 29.57781 32.68062 0.01177
C 30.77817 31.96316 0.04266
C 30.73542 30.54845 0.01324
C 29.56917 29.80942 0.0014
C 29.48884 28.43317 0.00924
C 30.78454 27.74771 0.02326
C 28.28787 2.09397 0.01799
C 28.13986 13.50817 0.01257
C 28.25157 14.99675 0.00152
C 26.99548 15.6131 -0.00294
C 25.83955 2.14629 -0.0264
C 25.79542 0.78132 -0.01154
C 24.5872 0.00139 0.00684
C 27.07792 32.69366 -0.01052
C 28.29167 32.05112 -0.01679
C 28.32199 30.51809 0.00367
C 27.07399 29.81848 0.04306
C 27.07039 28.44628 0.00996
C 28.34263 27.65088 0.00195
C 28.25801 26.19927 -0.00802
C 27.05407 25.63279 -0.00218
C 27.06531 24.18235 -0.01654
C 28.3722 23.40576 -0.00037
C 28.22954 21.99798 -0.0032
C 27.02673 21.32285 0.00622
C 26.9489 19.91038 -0.02815
C 28.15533 19.19211 -0.00942
C 28.25662 17.7658 0.00487
C 27.02417 17.06748 0.00826
C 24.61595 4.23334 -0.00229
C 2.42943 32.59679 -0.00094
