273
Graphene
C 34.37044 0.09398 0.01295
C 17.11388 32.44493 0.00199
C 14.82877 34.06776 0.01087
C 16.02816 0.49614 -0.01527
C 16.10973 2.02057 0.00096
C 15.04755 2.84618 0.01277
C 14.76162 4.17218 -0.02422
C 15.25127 26.24134 -0.01721
C 16.14815 27.16728 -0.01154
C 15.99506 30.33695 0.0106
C 15.86932 31.81479 -0.01594
C 14.74164 32.69128 0.00742
C 12.36525 0.10312 -0.00311
C 13.61069 0.76354 0.00675
C 13.66623 2.20736 -0.00865
C 18.3935 31.73725 0.01511
C 12.441 2.89297 0.0058
C 13.7127 5.05076 -0.04076
C 13.36437 6.38937 -0.00703
C 12.40637 6.95644 0.00654
C 9.7762 0.08748 -0.04422
C 11.11978 0.67906 -0.02957
C 11.10824 2.09975 -0.00831
C 9.86435 2.71079 0.00364
C 9.95097 4.21743 -0.017
C 11.11321 5.06167 0.00143
C 10.94528 6.66136 0.00667
C 9.61959 7.4479 -0.0054
C 7.22352 33.99631 0.00755
C 8.49035 0.65572 0.01739
C 8.51693 2.14187 0.03754
C 12.3579 4.32507 -0.00652
C 7.31224 2.87036 -0.03557
C 18.3645 30.35597 -0.00478
C 17.21179 27.93602 -0.01185
C 22.11735 0.11253 0.03102
C 23.45748 0.82609 0.00135
C 23.36531 19.41318 -0.00498
C 23.22554 21.92622 0.02737
C 23.05199 23.31811 0.02117
C 21.88186 24.12634 -0.04078
C 22.23666 25.55443 0.03005
C 23.46695 26.31273 -0.0276
C 23.27937 27.72107 0.00768
C 22.10589 28.39279 -0.00178
C 22.09136 29.84768 0.00733
C 23.31973 30.49027 -0.02118
C 23.33314 31.93991 -0.01971
C 22.08309 32.73434 -0.01586
C 17.1787 29.6 -0.01662
C 19.51596 0.09583 -0.01107
C 20.46514 24.13102 -0.00225
C 19.93089 25.3241 0.01515
C 21.10602 26.22386 -0.0055
C 21.02957 27.5922 0.02734
C 19.76586 28.35536 0.01153
C 19.60249 29.8 0.02239
C 20.89905 30.60909 -0.03213
C 20.80027 32.01583 -0.02845
C 19.52335 32.58839 0.03374
C 17.1596 33.86715 0.0296
C 18.24841 0.68124 0.03046
C 17.7204 2.07259 -0.00381
C 18.84507 26.13169 0.01852
C 18.5372 27.45916 0.01126
C 20.81522 0.79401 0.00071
C 7.43529 4.35161 -0.00111
C 8.66885 5.04622 0.04892
C 8.62949 6.49774 0.01452
C 2.40475 0.14143 -0.00368
C 3.61283 0.84279 -0.0108
C 3.62775 2.29068 -0.01957
C 2.36711 2.85417 0.02058
C 2.4158 4.30959 0.01965
C 3.68767 5.04272 -0.03682
C 3.62115 6.43837 0.00052
C 2.43272 7.19405 0.00374
C 2.46552 8.64214 -0.02813
C 3.72462 9.33322 -0.01952
C 3.69085 10.76586 0.05265
C 2.41471 11.43393 -0.01717
C 2.46284 12.78811 0.00244
C 3.68548 13.54348 0.02299
C 4.93543 32.80195 -0.02696
C 3.61599 14.89599 0.03542
C 2.43566 17.01026 0.01945
C 3.60381 17.72519 -0.01454
C 3.58687 19.18242 0.01241
C 2.44102 19.91737 0.0076
C 2.45123 21.39126 0.02162
C 3.67628 22.09658 -0.0014
C 3.67926 23.48731 0.00415
C 2.48995 24.16325 -0.02162
C 2.51539 25.65455 0.01363
C 3.82296 26.31606 0.01877
C 3.84946 27.73435 -0.00925
C 2.41052 28.53725 0.00444
C 2.44179 29.92416 -0.01789
C 3.68672 30.65456 0.02894
C 2.41546 15.60529 0.01416
C 6.12026 32.19807 -0.00114
C 4.86932 30.01491 0.00228
C 4.84561 28.63799 0.00798
C 7.30577 7.19277 -0.01581
C 7.42877 8.5791 0.02691
C 8.82117 8.87121 -0.01979
C 7.37805 11.27999 0.02188
C 7.48031 12.72693 -0.00316
C 7.13921 24.41112 -0.0331
C 4.8312 0.12585 -0.0258
C 6.10855 0.70502 0.03338
C 6.11304 2.18978 -0.00491
C 4.88219 2.97277 -0.00109
C 4.96588 4.40066 0.03698
C 6.22235 5.03362 -0.02213
C 6.0976 6.49155 0.00028
C 4.84437 7.17132 -0.00289
C 4.89825 8.57737 -0.00066
C 6.08191 9.25693 0.00213
C 6.18434 10.67157 -0.05302
C 4.93448 25.55222 0.00422
C 4.88015 24.10435 0.0351
C 6.21546 23.41188 -0.03113
C 6.18078 22.02668 0.02098
C 4.90469 21.36409 0.01848
C 4.81044 19.92518 -0.00619
C 24.58472 32.65752 0.02555
C 5.94777 19.00652 -0.02162
C 4.90401 17.02545 -0.00481
C 4.86463 15.53666 0.00979
C 6.14442 14.90754 0.01443
C 6.27898 13.52054 0.03505
C 4.94127 12.86709 -0.02815
C 5.0018 11.4966 -0.04147
C 5.99984 17.80554 0.00889
C 3.60996 32.07622 -0.02971
C 25.82105 31.93521 0.01423
C 24.56448 29.82144 -0.009
C 31.93866 3.01153 0.00349
C 31.96601 4.34176 -0.03838
C 33.15745 5.10878 0.04926
C 33.22024 6.52539 -0.00069
C 31.9932 7.15315 0.01504
C 31.98255 8.46229 0.02806
C 33.19961 9.23279 0.04381
C 33.12923 10.63202 0.00199
C 31.92234 11.39549 0.00137
C 31.9339 12.8395 -0.01839
C 33.18109 13.57614 -0.00644
C 33.1232 14.9 0.00455
C 31.91287 15.63628 0.00369
C 31.83998 17.15124 -0.02474
C 33.1101 2.224 -0.00323
C 33.03103 17.81027 0.00594
C 31.91049 19.82751 -0.01429
C 31.95088 21.27476 -0.02383
C 33.17627 21.95918 0.01574
C 33.20096 23.39105 0.01927
C 31.98674 24.17364 0.03794
C 31.93934 25.63769 -0.01779
C 33.15796 26.28482 0.00682
C 33.19283 27.68599 0.00026
C 31.99205 28.47426 0.0544
C 31.96472 29.89676 -0.02142
C 33.12839 30.65385 0.01428
C 33.14668 32.02801 -0.01694
C 31.8681 32.73817 0.01713
C 29.42827 0.09701 0.00346
C 33.12297 19.13949 -0.0136
C 30.63344 0.8237 0.00307
C 33.12189 0.79324 -0.00841
C 34.40476 32.77996 -0.02927
C 1.15635 0.78558 -0.00468
C 1.11214 2.23106 -0.00939
C 34.34343 2.96713 -0.00931
C 34.40044 4.32786 -0.0345
C 1.18506 5.03409 0.00628
C 1.16294 6.47389 0.02931
C 0.01624 7.21329 -0.02849
C 0.05201 8.57479 -0.02302
C 1.24699 9.3137 -0.00583
C 1.17737 10.7555 -0.00027
C 34.35028 11.36382 -0.02442
C 0.01198 12.82225 -0.02656
C 1.20903 13.47339 0.00343
C 1.1641 14.91947 -0.02957
C 31.87928 0.11333 0.0001
C 34.36769 15.65023 0.02114
C 1.19941 17.85196 0.01223
C 1.18545 19.25019 -0.01678
C 34.36719 19.89317 0.01951
C 0.01371 21.29805 -0.02213
C 1.20053 22.07277 0.02712
C 1.15436 23.44189 0.00723
C 34.37715 24.18511 0.03076
C 34.43182 25.62284 -0.05239
C 1.23591 26.37114 -0.00598
C 1.19025 27.79318 -0.00439
C 34.39696 28.4789 -0.01037
C 34.36077 29.90362 0.01831
C 1.1837 30.59711 0.01027
C 1.15694 32.10775 -0.01404
C 34.37092 17.11836 0.00648
C 30.63751 2.22154 0.00716
C 29.40193 2.84755 0.02108
C 29.39306 4.33031 0.0103
C 26.72862 16.91159 0.02611
C 28.06356 17.68961 -0.00621
C 28.16364 19.11501 0.00194
C 26.95044 19.83347 0.04185
C 26.99969 21.25428 0.02316
C 28.24558 22.00425 0.01257
C 28.25599 23.48511 0.00152
C 27.05538 24.15248 -0.00294
C 27.06918 25.53403 0.00826
C 28.25116 26.3375 0.00487
C 28.24413 27.73201 -0.00942
C 27.04042 28.38008 -0.02815
C 27.07813 29.82342 0.00622
C 28.27707 30.59828 -0.0032
C 27.08273 15.5188 0.02198
C 28.24756 32.00824 -0.00037
C 24.62386 0.02865 -0.00218
C 25.74759 0.79481 -0.00802
C 25.64304 2.21689 0.00195
C 25.62125 17.66221 0.00996
C 25.77515 19.13281 0.04306
C 24.58435 19.97421 0.00367
C 24.53521 21.32567 -0.01679
C 25.81806 21.95506 -0.01052
C 25.77752 23.41215 0.00684
C 24.50145 24.0747 -0.01154
C 24.59949 25.50985 -0.0264
C 25.88801 26.27737 -0.00938
C 25.80174 27.72692 -0.00229
C 24.53748 28.38456 -0.01199
C 27.03944 32.72876 -0.01654
C 28.27335 14.79285 0.01094
C 28.21827 5.09054 0.00235
C 27.02897 4.32603 0.01495
C 30.69046 5.00519 0.07705
C 30.791 6.4343 0.01908
C 29.6004 7.17479 0.01518
C 29.46639 8.43321 -0.00971
C 30.62878 9.21968 -0.03735
C 30.67706 10.6727 -0.00944
C 29.46004 11.43847 -0.02155
C 29.46267 12.88603 -0.01461
C 30.64819 13.52005 -0.01303
C 30.69209 14.96423 -0.0405
C 29.42308 15.59022 0.01705
C 29.37499 16.94031 0.0101
C 30.5487 17.73329 -0.00669
C 30.63967 19.16317 0.03531
C 29.49485 19.83219 0.01836
C 29.5031 21.22243 -0.03039
C 30.72083 22.00222 -0.01415
C 26.82378 2.94934 0.01259
C 28.13002 2.21591 0.01799
C 28.20102 0.80079 0.01699
C 26.96718 0.14017 -0.00416
C 29.43916 32.78608 0.01177
C 30.69208 32.09551 0.04266
C 25.86258 30.4899 -0.00285
C 30.71647 30.66625 0.01324
C 29.48561 28.51109 0.00924
C 30.69618 27.82771 0.02326
C 30.69182 26.34167 0.00261
C 29.50354 25.63581 0.03265
C 29.45076 24.20883 -0.02049
C 30.7372 23.46796 -0.01854
C 29.52633 29.92223 0.0014
C 2.38594 32.83501 0.00165
