368
Graphene
C 34.40956 0.00746 0.01295
C 11.07544 10.65449 -0.01952
C 11.0239 9.28365 -0.02813
C 9.81859 8.52943 0.00374
C 9.76485 7.13478 0.00052
C 10.99778 6.46935 -0.03682
C 11.05926 5.002 0.01965
C 9.76896 4.24576 0.02058
C 9.74284 2.89179 -0.01957
C 11.01491 2.11523 -0.0108
C 11.02049 0.73005 -0.00368
C 9.80581 34.07383 -0.02696
C 12.20386 32.63831 -0.00114
C 13.48818 32.02718 0.00228
C 13.56856 30.46801 0.00798
C 12.26599 29.87084 0.00422
C 12.28807 28.36959 0.0351
C 13.50135 27.69856 -0.03113
C 13.45125 26.30891 0.02098
C 12.34634 25.52888 0.01848
C 9.79552 11.38489 0.05265
C 12.32317 24.15847 -0.00619
C 9.85583 12.76724 -0.01717
C 11.1321 14.85335 0.02299
C 8.49201 0.75933 0.02819
C 7.37921 0.03691 0.00165
C 9.80642 32.66659 -0.02971
C 11.00722 31.96069 0.02894
C 11.1079 30.56101 -0.01789
C 9.82057 29.93365 0.00444
C 9.84552 28.46951 -0.00925
C 11.0803 27.74488 0.01877
C 11.06994 26.35731 0.01363
C 9.83319 25.54213 -0.02162
C 9.84812 24.20979 0.00415
C 11.1203 23.40792 -0.0014
C 11.0836 22.00455 0.02162
C 9.8391 21.31308 0.0076
C 9.85583 19.8609 0.01241
C 11.10637 19.1415 -0.01454
C 11.19421 17.77583 0.01945
C 9.8146 17.04817 0.01416
C 9.82028 15.53429 0.03542
C 11.05374 13.47009 0.00244
C 8.6184 2.17688 -0.00891
C 13.5163 23.3721 -0.02162
C 12.2644 21.31497 -0.00481
C 14.7276 29.74775 0.04892
C 14.73698 28.37289 -0.00111
C 15.92195 27.62031 -0.03557
C 15.93444 26.23114 0.03754
C 14.72067 25.52851 0.01739
C 14.70743 23.994 0.00755
C 15.92214 23.32168 -0.0054
C 15.84216 21.92884 0.00667
C 14.69239 21.18982 0.00143
C 14.84117 16.97616 -0.017
C 14.65031 15.77806 0.00364
C 14.77113 12.76335 -0.00831
C 14.96015 11.39339 -0.02957
C 15.91205 10.42871 -0.04422
C 16.10804 9.14294 0.00654
C 14.769 8.48157 -0.00703
C 14.75554 7.11315 -0.04076
C 15.95351 6.33625 -0.00652
C 15.94679 4.93989 0.0058
C 15.87818 30.49555 0.01452
C 13.44493 21.96665 0.00889
C 15.95358 31.99412 -0.01581
C 12.28927 0.03678 -0.01979
C 12.331 19.89743 0.00979
C 13.71324 19.37195 0.01443
C 13.79032 17.9492 0.03505
C 12.49209 17.041 -0.02815
C 12.36581 15.60829 -0.04147
C 13.50685 14.88266 -0.05302
C 13.5472 13.46155 0.00213
C 12.29175 12.83686 -0.00066
C 12.34182 11.44716 -0.00289
C 13.65993 10.65966 0.00028
C 13.61751 9.24452 -0.02213
C 12.28601 8.54582 0.03698
C 12.21791 7.07391 -0.00109
C 13.4404 6.42141 -0.00491
C 13.40569 5.00093 0.03338
C 12.21043 4.26891 -0.0258
C 12.26972 2.88677 -0.0331
C 13.46485 2.13296 -0.00316
C 13.50716 0.71488 0.02188
C 14.76015 32.70435 0.02691
C 14.65023 4.23699 -0.00865
C 7.32484 2.90651 -0.01046
C 8.58815 4.99644 -0.01536
C 3.67584 6.50295 0.01227
C 3.67907 5.10692 0.00873
C 2.42624 4.35932 -0.00049
C 2.47094 2.85243 0.00848
C 3.70935 2.19031 -0.01303
C 3.65919 0.76237 -0.01378
C 2.44861 0.00074 0.02635
C 4.92569 32.6711 0.0127
C 6.16189 31.99311 0.01396
C 6.1273 30.57534 0.01849
C 4.9225 29.82737 -0.01142
C 4.96508 28.39641 -0.00562
C 6.20394 27.72917 -0.00494
C 6.17112 26.30443 0.00054
C 4.93074 25.64979 0.03007
C 4.91579 24.19693 -0.00095
C 6.14872 23.4608 0.01572
C 6.13923 22.02807 -0.04848
C 4.95873 21.34166 -0.00892
C 2.40556 7.16049 -0.03337
C 4.93103 19.89813 -0.01362
C 2.43179 8.58654 -0.00966
C 3.66071 10.72167 0.03368
C 3.72524 30.56306 -0.03996
C 2.38495 29.86036 0.01465
C 2.42795 28.43792 -0.00074
C 3.67887 27.78837 -0.00518
C 3.66713 26.30591 0.0086
C 2.41085 25.62436 -0.00643
C 2.38287 24.1697 0.017
C 3.69048 23.49685 -0.03113
C 3.64365 22.08441 -0.02566
C 2.46716 21.29378 -0.00094
C 2.41817 19.86154 0.02322
C 3.74087 19.20489 -0.00725
C 3.61495 17.79048 -0.05697
C 2.40712 17.06707 0.01087
C 2.39613 15.57255 -0.01343
C 3.62737 14.88156 0.00988
C 3.65912 13.55078 0.0276
C 2.42126 12.80034 0.01305
C 2.40314 11.45749 -0.00077
C 3.70174 9.32725 -0.02929
C 7.36873 4.361 -0.02689
C 6.19745 19.2007 -0.0008
C 4.9194 17.05431 0.00393
C 7.36565 25.63633 0.01641
C 7.44908 24.20831 -0.00719
C 8.65208 23.44477 0.01364
C 8.6286 22.06342 -0.01062
C 7.43464 21.28741 -0.00033
C 7.3864 19.86774 0.03589
C 8.60071 19.17682 -0.02759
C 8.56516 17.77239 0.0402
C 7.338 17.04619 0.00572
C 7.33484 15.61522 0.03592
C 8.59481 14.88527 0.00406
C 8.60291 13.49414 0.00943
C 7.32537 12.79113 0.02841
C 7.35222 11.40015 -0.01111
C 8.60232 10.65616 -0.01275
C 8.56357 9.21855 0.00985
C 7.31174 8.52333 -0.02245
C 7.37601 7.19096 -0.00428
C 8.57381 6.45939 0.03101
C 8.65128 26.32659 0.02339
C 6.16386 17.744 0.0288
C 8.64592 27.76288 -0.00334
C 7.40629 29.87506 0.00057
C 4.88631 15.62873 0.00895
C 6.10379 14.98581 0.00685
C 6.14867 13.49409 0.02888
C 4.86035 12.84432 -0.00482
C 4.88028 11.42806 -0.01384
C 6.15218 10.68155 0.03693
C 6.05433 9.3082 0.01745
C 4.8535 8.5648 0.00488
C 4.94465 7.14788 -0.01004
C 6.16368 6.4126 -0.02896
C 6.13787 5.00826 -0.00131
C 4.85035 4.33316 -0.01118
C 4.92222 2.88225 -0.014
C 6.09133 2.17121 0.02147
C 6.09473 0.73624 0.00373
C 4.89355 0.07492 -0.00191
C 7.38946 32.67432 0.00438
C 8.57001 32.03864 0.01291
C 8.59047 30.58504 0.00093
C 7.41939 28.44999 -0.01634
C 14.68912 2.87362 0.00675
C 15.92821 2.09721 -0.00311
C 15.96976 0.71882 0.00742
C 30.78435 0.70942 0.00307
C 29.47832 0.06556 0.00346
C 31.93537 32.69895 0.01713
C 33.24141 31.99259 -0.01694
C 33.20932 30.61105 0.01428
C 31.93499 29.8594 -0.02142
C 31.93392 28.44953 0.0544
C 33.15846 27.74306 0.00026
C 33.20197 26.32437 0.00682
C 31.91589 25.51141 -0.01779
C 31.93702 24.10724 0.03794
C 33.18347 23.39545 0.01927
C 33.17945 21.96873 0.01574
C 31.9479 21.2301 -0.02383
C 31.97629 19.75196 -0.01429
C 33.26101 19.17554 -0.0136
C 33.16685 17.69606 0.00594
C 31.88694 17.19636 -0.02474
C 31.95006 15.80971 0.00369
C 30.72425 2.19915 0.00716
C 33.12692 14.94042 0.00455
C 29.55064 2.8662 0.02108
C 30.71855 4.9417 0.07705
C 26.99477 34.05238 0.03265
C 29.47691 32.6811 -0.02049
C 30.74398 31.97019 -0.01854
C 30.6974 30.5656 -0.01415
C 29.44835 29.83144 -0.03039
C 29.43541 28.37812 0.01836
C 30.73314 27.73912 0.03531
C 30.7346 26.25239 -0.00669
C 29.47591 25.56814 0.0101
C 29.44567 24.12657 0.01705
C 30.70486 23.39894 -0.0405
C 30.75281 21.95391 -0.01303
C 29.37459 21.47785 -0.01461
C 30.96633 18.72509 -0.02155
C 30.6724 10.56694 -0.00944
C 30.7425 9.27997 -0.03735
C 29.51594 8.48989 -0.00971
C 29.46777 7.09811 0.01518
C 30.69066 6.37463 0.01908
C 29.43847 4.26884 0.0103
C 28.23431 0.72342 0.00261
C 33.19084 13.53602 -0.00644
C 31.72621 11.46317 0.00137
C 34.41639 19.89651 0.01951
C 1.23166 19.21123 -0.01678
C 1.20873 17.70777 0.01223
C 34.33648 16.98544 0.00648
C 34.33833 15.6197 0.02114
C 1.13748 14.89516 -0.02957
C 1.19566 13.50457 0.00343
C 34.42709 12.8041 -0.02656
C 34.38925 11.39955 -0.02442
C 1.20857 10.66852 -0.00027
C 1.17144 9.21882 -0.00583
C 34.39817 8.56621 -0.02302
C 34.41558 7.15897 -0.02849
C 1.23164 6.47272 0.02931
C 1.27194 5.03252 0.00628
C 0.03226 4.28925 -0.0345
C 34.41784 2.93108 -0.00931
C 1.20575 2.18522 -0.00939
C 1.22145 0.72522 -0.00468
C 34.40998 21.3231 -0.02213
C 31.98285 12.78176 -0.01839
C 1.23535 22.00682 0.02712
C 0.04853 24.12914 0.03076
C 33.15856 10.68846 0.00199
C 33.11206 9.29265 0.04381
C 31.94973 8.4572 0.02806
C 31.88312 7.09357 0.01504
C 33.18822 6.39343 -0.00069
C 33.20177 5.01369 0.04926
C 31.9294 4.25023 -0.03838
C 31.97439 2.83343 0.00349
C 33.20533 2.16894 -0.00323
C 33.19277 0.72325 -0.00841
C 31.98102 0.0649 0.0001
C 34.4312 32.69249 -0.02927
C 1.24033 31.99706 -0.01404
C 1.2169 30.59945 0.01027
C 34.38012 29.89682 0.01831
C 34.38944 28.5003 -0.01037
C 1.15666 27.76333 -0.00439
C 1.23186 26.32987 -0.00598
C 34.428 25.62953 -0.05239
C 1.22024 23.38997 0.00723
C 28.26726 2.16193 0.02326
C 26.97133 2.82212 0.00924
C 27.09563 4.22746 0.0014
C 19.62048 29.75445 0.01153
C 19.64039 28.29644 0.02734
C 20.79492 27.5371 -0.0055
C 20.84276 26.15349 0.01515
C 19.6494 25.41615 -0.00225
C 19.46036 23.89099 0.00071
C 21.00333 23.6364 -0.01107
C 19.64183 6.98841 -0.01586
C 20.94308 6.57774 -0.01971
C 20.84041 5.01789 -0.02118
C 19.64839 4.27442 0.00733
C 19.62442 2.74359 -0.00178
C 20.86213 2.06656 0.00768
C 20.88054 0.59245 -0.0276
C 19.59792 34.00901 0.03005
C 22.06467 32.56636 -0.04078
C 23.32509 31.93932 0.02117
C 23.29346 30.45018 0.02737
C 22.04669 29.71906 -0.00498
C 20.83348 30.48499 0.02239
C 22.03657 28.271 0.00135
C 20.85035 31.81405 -0.03213
C 17.11249 4e-05 0.03374
C 14.7324 0.02122 -0.01594
C 17.1808 32.65427 0.0106
C 18.40692 31.93165 -0.01154
C 18.29791 30.54086 -0.01721
C 17.12922 29.7629 -0.02422
C 17.18592 28.33259 0.01277
C 18.37964 27.64514 0.00096
C 18.41896 26.16789 -0.01527
C 17.18832 25.51511 0.01087
C 17.14168 24.02593 0.00199
C 18.30078 23.17669 0.01511
C 17.34158 8.32446 -0.00478
C 17.16995 6.96136 -0.01662
C 18.41772 6.30001 -0.01185
C 18.43972 4.86241 0.01126
C 17.19393 4.18415 0.01852
C 17.17287 2.82618 -0.00381
C 18.41385 2.07799 0.03046
C 18.38639 0.65956 0.0296
C 19.61255 32.54015 -0.02845
C 23.31312 27.62482 0.03102
C 23.29648 26.25511 0.02555
C 22.10171 25.581 0.01423
C 25.73601 2.08544 -0.00294
C 25.78041 0.63945 0.00152
C 24.59732 0.00665 0.01257
C 26.99395 32.67077 0.02316
C 28.22956 31.97229 0.04185
C 28.20794 30.55992 0.00194
C 26.97324 29.83384 -0.00621
C 27.02735 28.36714 0.02611
C 28.19047 27.68723 0.02198
C 28.207 26.24225 0.01094
C 26.96552 25.49656 0.00235
C 26.91476 24.11622 0.01495
C 28.18596 23.5093 0.01259
C 28.36453 22.09246 0.01799
C 28.1371 9.19207 0.01699
C 27.14069 8.56571 -0.00416
C 27.00213 7.09991 0.01177
C 28.2781 6.3541 0.04266
C 28.27192 5.03188 0.01324
C 24.55315 2.8119 0.00826
C 24.61797 4.23182 0.00487
C 25.86207 4.95181 -0.00942
C 25.85894 6.34607 -0.02815
C 22.09363 24.11217 -0.00285
C 22.1711 7.15368 -0.009
C 23.37853 6.43078 -0.01199
C 23.34106 5.02156 -0.00229
C 22.11292 4.26002 -0.00938
C 22.11348 2.78573 -0.0264
C 23.36771 2.12026 -0.01154
C 23.33481 0.68679 0.00684
C 22.08417 34.00916 -0.01052
C 3.69144 31.96092 0.01996
C 24.60315 32.62714 -0.01679
C 25.80203 30.53736 0.04306
C 24.52276 29.82552 0.00996
C 24.55648 28.34446 0.00195
C 25.79145 27.67354 -0.00802
C 25.81113 26.23997 -0.00218
C 24.52893 25.61363 -0.01654
C 24.76189 24.19712 -0.00037
C 25.78885 23.39312 -0.0032
C 24.64876 7.0932 0.00622
C 25.81456 31.95507 0.00367
C 2.41729 32.70746 -0.00279
