398
Graphene
C 0.01759 0.02568 0.01295
C 12.34217 12.76207 0.02894
C 12.24896 11.42514 -0.01789
C 13.5206 10.682 0.00444
C 13.53873 9.21773 -0.00925
C 12.33994 8.55621 0.01877
C 12.32816 7.12147 0.01363
C 13.485 6.34565 -0.02162
C 13.47083 4.95799 0.00415
C 12.27366 4.1804 -0.0014
C 13.52269 13.48074 -0.02971
C 12.34942 2.86475 0.02162
C 13.55469 0.65407 0.01241
C 12.33684 34.04839 -0.01454
C 16.01475 23.41359 0.01945
C 15.94546 22.10933 0.01416
C 14.75744 21.27158 0.03542
C 14.78967 19.82326 0.02299
C 15.95568 19.12275 0.00244
C 16.04046 17.68453 -0.01717
C 14.72873 17.00771 0.05265
C 13.5123 2.15048 0.0076
C 13.53345 14.87825 0.00165
C 12.29379 15.66179 0.02819
C 12.26296 17.08895 -0.00891
C 11.11194 14.95579 -0.00719
C 11.09464 13.52551 0.01364
C 9.86816 12.83269 -0.01062
C 9.84285 11.37386 -0.00033
C 11.04089 10.66466 0.03589
C 11.079 9.21519 -0.02759
C 9.86393 8.54802 0.0402
C 9.82842 7.17096 0.00572
C 11.02745 6.42332 0.03592
C 11.03926 5.03379 0.00406
C 9.84645 4.20844 0.00943
C 9.83984 2.8368 0.02841
C 11.08551 2.16257 -0.01111
C 11.14596 0.71313 -0.01275
C 9.81381 34.03407 0.00985
C 13.51512 23.4646 -0.02245
C 13.52625 22.00048 -0.00428
C 12.22937 21.285 0.03101
C 12.30785 19.86511 -0.01536
C 13.5969 19.17476 -0.02689
C 13.5519 17.78787 -0.01046
C 14.76149 15.61621 -0.01952
C 15.94453 14.97419 -0.02813
C 15.97597 13.50352 0.00374
C 14.72908 12.72494 0.00052
C 17.2193 17.00347 0.00213
C 17.21274 15.65232 -0.00066
C 18.45152 14.88951 -0.00289
C 18.44337 13.5105 0.00028
C 17.22247 12.80187 -0.02213
C 17.22842 11.34569 0.03698
C 18.51197 10.65826 -0.00109
C 18.43485 9.16215 -0.00491
C 17.22475 8.51391 0.03338
C 17.23254 7.09182 -0.0258
C 18.48514 6.34896 -0.0331
C 18.37612 4.97613 -0.00316
C 17.1963 4.24104 0.02188
C 17.25384 2.79335 -0.01979
C 18.47821 2.12494 0.02691
C 18.43036 0.7481 -0.01581
C 17.17301 34.07026 0.01452
C 19.64603 32.65483 0.04892
C 20.86645 31.99297 -0.00111
C 20.89298 30.55013 -0.03557
C 19.67124 29.83654 0.03754
C 18.47124 17.73928 -0.05302
C 9.86045 15.6355 0.01641
C 18.47255 19.20729 -0.04147
C 17.20778 21.31927 0.03505
C 14.81128 11.38095 -0.03682
C 16.00095 10.65592 0.01965
C 15.98868 9.17325 0.02058
C 14.72245 8.49426 -0.01957
C 14.74756 7.09493 -0.0108
C 16.03812 6.41351 -0.00368
C 15.96027 4.94788 -0.02696
C 14.72382 4.27054 -0.00114
C 14.71765 2.86634 0.00228
C 15.97833 2.12172 0.00798
C 15.90522 0.72483 0.00422
C 14.7656 0.00609 0.0351
C 17.24494 32.63568 -0.03113
C 18.40352 31.91151 0.02098
C 18.4549 30.45211 0.01848
C 18.43389 27.6874 -0.00619
C 18.43396 26.27421 -0.02162
C 17.17591 25.55031 0.00889
C 17.20709 24.14808 -0.00481
C 18.48059 23.44175 0.00979
C 18.4286 22.07075 0.01443
C 17.23226 19.84076 -0.02815
C 9.82293 17.06875 0.02339
C 11.07284 17.77303 -0.00334
C 11.07417 19.22352 -0.01634
C 2.4707 4.21136 0.0174
C 2.43891 2.85077 0.03828
C 3.6697 2.15036 0.01226
C 3.63004 0.73485 -0.00279
C 2.45852 0.00825 0.01996
C 4.91678 32.70583 -0.03996
C 6.17251 31.91392 0.01465
C 6.16862 30.55948 -0.00074
C 4.95392 29.83252 -0.00518
C 4.94054 28.41865 0.0086
C 6.0938 27.74229 -0.00643
C 6.16523 26.30539 0.017
C 4.92542 25.53654 -0.03113
C 4.90741 24.14284 -0.02566
C 6.10484 23.45288 -0.00094
C 6.16643 21.94854 0.02322
C 4.98008 21.28853 -0.00725
C 4.89789 19.86917 -0.05697
C 6.2129 19.16067 0.01087
C 6.15543 17.73798 -0.01343
C 4.85436 17.0304 0.00988
C 3.67568 5.04982 0.0073
C 4.8985 15.64431 0.0276
C 3.75678 6.38081 0.00402
C 2.4501 8.5271 0.03267
C 3.74893 30.50389 -0.00449
C 2.44633 29.76874 -0.01979
C 2.4786 28.37626 0.02784
C 3.59472 27.64823 -0.01977
C 3.67281 26.32204 -0.00561
C 2.43661 25.59967 0.00208
C 2.45265 24.16128 0.01707
C 3.72905 23.49112 0.02769
C 3.72453 21.92841 -0.03291
C 2.50915 21.30775 -0.04999
C 2.49966 19.90985 0.04505
C 3.67988 19.17757 0.03284
C 3.65375 17.73143 -0.04307
C 2.40248 16.97118 0.03189
C 2.44172 15.59315 0.00031
C 3.71411 14.93156 -0.003
C 3.68272 13.47631 0.01402
C 2.45544 12.82455 0.02379
C 2.4697 11.43861 0.00907
C 3.65318 10.66118 0.00643
C 3.71514 9.22884 -0.01509
C 2.52692 7.1003 0.02374
C 19.70063 28.42659 0.01739
C 6.10812 14.84454 0.01305
C 4.90567 12.77796 0.03368
C 7.34506 15.64783 0.00393
C 8.56644 14.87535 0.00895
C 8.60995 13.49902 0.00685
C 7.37112 12.79139 0.02888
C 7.36109 11.38397 -0.00482
C 8.61972 10.58505 -0.01384
C 8.59759 9.24638 0.03693
C 7.35623 8.53133 0.01745
C 7.38284 7.12456 0.00488
C 8.56782 6.39514 -0.01004
C 8.60785 4.9974 -0.02896
C 7.41431 4.30943 -0.00131
C 7.38762 2.83444 -0.01118
C 8.57072 2.16558 -0.014
C 8.64953 0.70105 0.02147
C 7.38885 0.05478 0.00373
C 9.86773 24.17372 -0.00191
C 11.10867 23.48741 0.00438
C 11.01884 22.09756 0.01291
C 9.81942 21.33805 0.00093
C 9.85569 19.89329 0.00057
C 7.3306 17.04192 0.0288
C 6.15062 13.53209 -0.00077
C 8.61 17.76181 -0.0008
C 7.39968 19.86017 -0.00892
C 4.91124 11.38396 -0.02929
C 6.12897 10.6971 -0.00966
C 6.14906 9.23886 -0.03337
C 4.86697 8.52675 0.01227
C 4.91817 7.15335 0.00873
C 6.15239 6.36329 -0.00049
C 6.16789 4.9529 0.00848
C 4.89347 4.31297 -0.01303
C 4.90071 2.88346 -0.01378
C 6.20194 2.18052 0.02635
C 6.16928 0.68178 0.0127
C 4.90669 0.01676 0.01396
C 7.35762 32.67002 0.01849
C 8.64363 31.97303 -0.01142
C 7.33797 29.79641 -0.00562
C 7.30255 28.40947 -0.00494
C 7.33945 25.55655 0.00054
C 7.35196 24.08088 0.03007
C 8.62578 23.46728 -0.00095
C 8.54261 22.01651 0.01572
C 7.36068 21.326 -0.04848
C 8.59717 19.14689 -0.01362
C 20.89078 27.67806 0.00755
C 20.90685 26.28552 -0.0054
C 19.70891 25.56226 0.00667
C 29.54698 7.13624 0.01518
C 30.7303 6.39229 0.01908
C 30.73645 4.98134 0.07705
C 29.48113 4.25665 0.0103
C 29.47471 2.89108 0.02108
C 30.78112 2.11712 0.00716
C 30.75768 0.66175 0.00307
C 29.55988 34.03485 0.00346
C 31.94873 32.67485 0.01713
C 33.19992 31.97159 -0.01694
C 33.21921 30.53098 0.01428
C 31.96955 29.80088 -0.02142
C 31.98533 28.38006 0.0544
C 33.19417 27.72759 0.00026
C 33.22873 26.31239 0.00682
C 31.97418 25.48892 -0.01779
C 32.01314 24.11422 0.03794
C 33.23382 23.43375 0.01927
C 33.20633 22.03123 0.01574
C 31.99996 21.26821 -0.02383
C 31.93127 19.89854 -0.01429
C 29.54032 8.48895 -0.00971
C 33.16787 19.13949 -0.0136
C 30.71804 9.26584 -0.03735
C 29.508 11.34109 -0.02155
C 27.02537 0.01914 -0.00416
C 29.48385 32.65959 0.01177
C 30.76516 31.88603 0.04266
C 30.77236 30.51203 0.01324
C 29.51565 29.84332 0.0014
C 29.57435 28.37325 0.00924
C 30.76072 27.60759 0.02326
C 30.7349 26.25567 0.00261
C 29.53702 25.5174 0.03265
C 29.48984 24.09188 -0.02049
C 30.76385 23.42184 -0.01854
C 30.74757 22.04073 -0.01415
C 29.52615 21.32201 -0.03039
C 29.53529 19.92268 0.01836
C 30.72479 19.16275 0.03531
C 30.78088 17.77914 -0.00669
C 29.46875 17.05834 0.0101
C 29.52566 15.61929 0.01705
C 30.77298 14.91246 -0.0405
C 30.78446 13.53524 -0.01303
C 29.53331 12.78366 -0.01461
C 30.72255 10.60236 -0.00944
C 28.27754 0.72484 0.01699
C 33.18861 17.76714 0.00594
C 32.02621 15.65484 0.00369
C 1.17874 21.95583 0.02712
C 34.39344 21.27584 -0.02213
C 34.42104 19.87821 0.01951
C 1.29744 19.18105 -0.01678
C 1.16782 17.70867 0.01223
C 34.38104 17.02827 0.00648
C 34.41448 15.5754 0.02114
C 1.19895 14.90217 -0.02957
C 1.21988 13.45283 0.00343
C 0.00227 12.81191 -0.02656
C 34.42089 11.40484 -0.02442
C 1.22393 10.67686 -0.00027
C 1.23234 9.21532 -0.00583
C 34.38457 8.49972 -0.02302
C 34.37728 7.11359 -0.02849
C 1.22363 6.39014 0.02931
C 1.25598 4.91252 0.00628
C 0.00574 4.22819 -0.0345
C 34.40768 2.85974 -0.00931
C 1.24941 2.16129 -0.00939
C 1.24183 0.763 -0.00468
C 1.20452 23.45713 0.00723
C 31.95455 17.04229 -0.02474
C 34.42615 24.18691 0.03076
C 1.25146 26.26974 -0.00598
C 33.22981 14.88872 0.00455
C 33.20036 13.44864 -0.00644
C 31.94597 12.7728 -0.01839
C 31.94815 11.35504 0.00137
C 33.17109 10.70957 0.00199
C 33.18849 9.19221 0.04381
C 31.97466 8.49271 0.02806
C 31.91293 7.10572 0.01504
C 33.19027 6.41493 -0.00069
C 33.23955 4.97291 0.04926
C 31.91658 4.22118 -0.03838
C 31.95141 2.85085 0.00349
C 33.21287 2.12252 -0.00323
C 33.19214 0.64986 -0.00841
C 31.94778 0.01459 0.0001
C 0.02196 32.62654 -0.02927
C 1.24211 31.95155 -0.01404
C 1.26566 30.5364 0.01027
C 34.40987 29.80387 0.01831
C 0.0214 28.36598 -0.01037
C 1.21662 27.65042 -0.00439
C 34.40072 25.57612 -0.05239
C 3.70019 31.93522 0.00211
C 28.3345 2.10056 0.01799
C 27.02333 4.30098 0.01495
C 23.28879 27.67411 0.01511
C 23.30637 26.2492 -0.00478
C 22.12565 25.49997 -0.01662
C 22.10111 24.14218 -0.01185
C 23.40962 23.3884 0.01126
C 23.38211 21.98045 0.01852
C 22.06247 21.29257 -0.00381
C 22.08522 19.81901 0.03046
C 23.38549 19.15852 0.0296
C 23.36169 17.72122 0.03374
C 22.16446 16.98918 -0.02845
C 22.17313 15.57881 -0.03213
C 23.40538 14.92415 0.02239
C 23.38212 13.50913 0.01153
C 23.35021 4.87266 0.02734
C 22.09175 4.24642 -0.0055
C 22.11094 2.86449 0.01515
C 23.39439 2.09596 -0.00225
C 23.41455 0.69553 0.00071
C 22.11041 34.03879 -0.01107
C 24.58778 32.63193 -0.01586
C 22.14742 28.39289 0.00199
C 25.83038 31.94406 -0.01971
C 22.17617 29.80715 0.01087
C 23.31456 31.91868 0.00096
C 19.68771 24.14947 0.00143
C 20.94622 23.42384 -0.017
C 20.9647 22.04814 0.00364
C 19.72184 21.35039 -0.00831
C 19.68792 19.93355 -0.02957
C 20.92745 19.11641 -0.04422
C 20.89214 17.76895 0.00654
C 19.68556 17.03923 -0.00703
C 19.6699 15.66538 -0.04076
C 20.90749 14.9063 -0.00652
C 20.91858 13.5196 0.0058
C 19.6637 12.78695 -0.00865
C 19.68075 11.35185 0.00675
C 19.68977 7.11673 -0.00311
C 20.87831 5.02175 0.00742
C 19.6968 4.20452 -0.01594
C 19.71232 2.86775 0.0106
C 20.94038 2.1412 -0.01154
C 20.93523 0.68365 -0.01721
C 19.59102 34.04565 -0.02422
C 22.16095 32.66917 0.01277
C 23.33203 30.50759 -0.01527
C 27.18521 2.88757 0.01259
C 25.7782 30.55494 -0.02118
C 24.58561 28.36817 -0.00178
C 28.30146 27.68705 -0.00802
C 28.21566 26.2934 -0.00218
C 26.98904 25.57937 -0.01654
C 27.01503 24.13071 -0.00037
C 28.26485 23.42674 -0.0032
C 28.30197 21.97443 0.00622
C 26.9837 21.24604 -0.02815
C 27.04895 19.86752 -0.00942
C 28.24713 19.17545 0.00487
C 28.23674 17.72379 0.00826
C 27.00787 17.06754 -0.00294
C 27.05253 15.62195 0.00152
C 28.28928 14.89689 0.01257
C 28.26498 13.49005 0.02316
C 27.05954 12.67878 0.04185
C 27.08907 11.35361 0.00194
C 28.2624 10.63435 -0.00621
C 28.3091 9.22816 0.02611
C 27.14136 7.16719 0.02198
C 28.29906 6.39714 0.01094
C 28.2514 4.91763 0.00235
C 27.04626 28.38436 0.00195
C 24.56864 29.85384 0.00733
C 27.00566 29.84276 0.00996
C 28.28454 31.94066 0.00367
C 25.84879 27.72287 0.00768
C 25.84411 26.30308 -0.0276
C 24.57372 25.58157 0.03005
C 24.55614 24.08543 -0.04078
C 25.80654 23.47122 0.02117
C 25.84507 22.02825 0.02737
C 24.59374 21.30821 -0.00498
C 24.57699 19.87929 0.00135
C 25.82435 19.13689 0.03102
C 25.78474 17.72652 0.02555
C 24.59967 17.03268 0.01423
C 24.6251 15.59789 -0.00285
C 25.82181 14.9407 -0.009
C 25.88601 13.51145 -0.01199
C 25.77827 4.9915 -0.00229
C 24.61759 4.26997 -0.00938
C 24.59715 2.85944 -0.0264
C 25.85717 2.19455 -0.01154
C 25.82537 0.68706 0.00684
C 24.57013 34.02032 -0.01052
C 27.14122 32.6585 -0.01679
C 28.26637 30.58076 0.04306
C 2.46205 32.66335 0.0064
