327
Graphene
C 0.00924 0.0417 0.01295
C 18.49984 27.75678 0.00213
C 18.44546 26.29594 -0.00066
C 17.2103 25.5863 -0.00289
C 17.26284 24.18461 0.00028
C 18.49111 23.42713 -0.02213
C 18.44971 21.96654 0.03698
C 17.18919 21.27597 -0.00109
C 17.21994 28.37444 -0.05302
C 17.19034 19.53661 -0.00491
C 18.48328 0.62947 -0.0258
C 17.34741 0.08449 -0.0331
C 19.72938 32.5735 -0.00316
C 20.97619 31.92946 0.02188
C 20.90707 30.54487 -0.01979
C 19.73701 29.79068 0.02691
C 19.75947 28.41188 -0.01581
C 18.54214 18.97843 0.03338
C 17.1193 29.79009 -0.04147
C 18.38188 30.4901 -0.02815
C 18.44185 31.92444 0.03505
C 12.14733 0.10638 -0.0108
C 14.74558 32.73345 -0.00368
C 16.01873 32.05317 -0.02696
C 15.97239 30.64287 -0.00114
C 14.76492 29.85263 0.00228
C 14.812 28.47681 0.00798
C 16.02356 27.65947 0.00422
C 15.95377 26.30467 0.0351
C 14.74845 25.5864 -0.03113
C 14.7609 24.14791 0.02098
C 16.0522 23.51866 0.01848
C 15.98583 22.03215 -0.00619
C 14.73715 21.37775 -0.02162
C 14.71433 19.87597 0.00889
C 15.85865 19.0745 -0.00481
C 14.80953 34.02009 0.00979
C 17.19391 32.71251 0.01443
C 20.98076 27.68093 0.01452
C 13.50912 19.14477 -0.01957
C 20.86151 26.28216 0.04892
C 19.77071 24.16487 -0.03557
C 22.04553 25.50801 0.0106
C 22.15352 24.06174 -0.01154
C 23.41239 23.4249 -0.01721
C 23.40443 22.03306 -0.02422
C 22.14988 21.36979 0.01277
C 22.08623 19.93436 0.00096
C 23.31642 19.17653 -0.01527
C 23.26142 26.24062 -0.01594
C 23.29331 17.79242 0.01087
C 22.13042 15.63206 0.01511
C 23.37636 14.91606 -0.00478
C 23.30468 13.44788 -0.01662
C 22.05651 12.83998 -0.01185
C 22.08324 11.38875 0.01126
C 23.39768 10.62316 0.01852
C 23.35016 9.27272 -0.00381
C 22.09838 17.08831 0.00199
C 23.37722 27.59083 0.00742
C 22.22098 28.35379 -0.00311
C 22.12564 29.7258 0.00675
C 20.93575 23.33694 0.03754
C 20.9031 21.97707 0.01739
C 19.69184 21.29572 0.00755
C 19.5507 19.84738 -0.0054
C 20.84158 19.20506 0.00667
C 20.77336 17.75423 0.00143
C 19.5178 17.23054 -0.017
C 20.88651 15.02248 0.00364
C 20.92779 10.64988 -0.00831
C 20.97007 4.91786 -0.02957
C 19.71897 2.84719 -0.04422
C 20.86568 2.19126 0.00654
C 20.93089 0.79276 -0.00703
C 19.70029 0.02646 -0.04076
C 22.13256 32.6504 -0.00652
C 23.35016 31.89959 0.0058
C 23.35789 30.47098 -0.00865
C 19.62639 25.55681 -0.00111
C 22.14931 8.49716 0.03046
C 12.29322 19.81682 0.02058
C 13.46325 22.02007 -0.03682
C 4.81108 29.82134 0.00438
C 4.89348 28.4099 0.01291
C 6.10667 27.70737 0.00093
C 6.20553 26.29532 0.00057
C 4.98368 25.533 -0.01634
C 4.88416 24.1193 -0.00334
C 6.14595 23.41788 0.02339
C 6.11001 30.4614 -0.00191
C 6.15457 21.96744 0.01641
C 4.81639 19.73589 0.01364
C 6.10897 19.21132 -0.01062
C 5.02876 2.83887 -0.00033
C 6.12663 2.14917 0.03589
C 6.15527 0.76062 -0.02759
C 4.92045 34.05986 0.0402
C 7.31738 32.68592 0.00572
C 4.86532 21.32886 -0.00719
C 6.08574 31.91991 0.00373
C 4.90108 32.6399 0.02147
C 2.52392 34.06495 -0.014
C 3.63681 30.57006 -0.00892
C 2.44509 29.88127 -0.01362
C 2.44803 28.40982 -0.0008
C 3.66023 27.72775 0.0288
C 3.73279 26.24978 0.00393
C 2.46011 25.63038 0.00895
C 2.39191 24.21806 0.00685
C 3.63248 23.51883 0.02888
C 3.66387 22.05815 -0.00482
C 2.46103 21.34828 -0.01384
C 2.41016 19.89878 0.03693
C 3.57573 19.17543 0.01745
C 2.52054 17.03538 0.00488
C 2.58611 4.23774 -0.01004
C 2.51004 2.83987 -0.02896
C 3.75141 2.14883 -0.00131
C 3.69365 0.76277 -0.01118
C 8.57226 31.93809 0.03592
C 12.23391 21.37086 0.01965
C 8.61612 30.55286 0.00406
C 7.35089 28.40525 0.02841
C 11.00775 22.01461 -0.0014
C 9.81053 21.181 0.02162
C 9.92646 19.79092 0.0076
C 10.97858 19.28522 0.01241
C 11.02564 0.52475 -0.01454
C 9.76751 0.07959 0.01945
C 12.31559 32.77397 0.01416
C 11.01025 23.42039 0.00415
C 13.49807 31.99331 0.03542
C 12.3192 29.83615 0.00244
C 12.33547 28.3728 -0.01717
C 13.57768 27.73911 0.05265
C 13.52978 26.31592 -0.01952
C 12.28026 25.5625 -0.02813
C 12.23669 24.13254 0.00374
C 13.51984 23.44435 0.00052
C 13.48382 30.58009 0.02299
C 9.76411 24.12962 -0.02162
C 9.87656 25.55741 0.01363
C 11.08674 26.30869 0.01877
C 8.61703 27.70413 -0.01111
C 8.67484 26.25388 -0.01275
C 7.46618 25.60293 0.00985
C 7.38866 24.12135 -0.02245
C 8.57919 23.33145 -0.00428
C 8.5875 21.86645 0.03101
C 7.4021 21.21704 -0.01536
C 7.25264 19.83697 -0.02689
C 8.59342 2.12942 -0.01046
C 8.49079 0.84408 -0.00891
C 7.33349 0.02029 0.02819
C 9.76376 32.64863 0.00165
C 11.06876 31.98889 -0.02971
C 11.11252 30.55664 0.02894
C 9.8646 29.83651 -0.01789
C 9.83353 28.44424 0.00444
C 11.0906 27.74764 -0.00925
C 7.38405 29.83821 0.00943
C 3.70198 31.95658 -0.04848
C 22.12428 7.23537 0.0296
C 23.43124 5.00776 -0.02845
C 33.21461 30.65051 0.00682
C 32.00755 29.91571 -0.01779
C 31.91975 28.4759 0.03794
C 33.18526 27.83799 0.01927
C 33.15085 26.40704 0.01574
C 31.89292 25.58092 -0.02383
C 31.88961 24.10206 -0.01429
C 33.18842 32.04606 0.00026
C 33.14238 23.38966 -0.0136
C 31.96267 21.28265 -0.02474
C 31.95334 19.89888 0.00369
C 33.19046 19.18939 0.00455
C 33.1458 17.76489 -0.00644
C 31.95109 17.05643 -0.01839
C 31.90957 15.67153 0.00137
C 33.18651 14.93914 0.00199
C 33.25111 21.95185 0.00594
C 31.92802 32.69351 0.0544
C 29.50896 0.01827 -0.02142
C 30.74789 0.73621 0.01428
C 30.7156 19.15033 -0.0405
C 30.69222 17.73547 -0.01303
C 29.54571 16.99752 -0.01461
C 29.47001 15.63927 -0.02155
C 30.67019 14.96417 -0.00944
C 30.59416 13.4816 -0.03735
C 29.43414 12.71153 -0.00971
C 29.41569 11.30148 0.01518
C 30.7153 10.65325 0.01908
C 30.71031 9.24162 0.07705
C 29.46682 8.55306 0.0103
C 29.49051 7.05925 0.02108
C 30.7543 6.40255 0.00716
C 30.7753 4.97357 0.00307
C 29.53102 4.32179 0.00346
C 29.57873 2.87711 0.01713
C 30.75702 2.16484 -0.01694
C 33.18689 13.50167 0.04381
C 29.53668 19.80742 0.01705
C 31.85673 12.85897 0.02806
C 33.32869 10.68947 -0.00069
C 0.02086 21.28702 0.00648
C 0.01719 19.85521 0.02114
C 1.23786 19.16134 -0.02957
C 1.32606 17.71765 0.00343
C 0.03765 17.01601 -0.02656
C 34.33989 15.61681 -0.02442
C 34.29716 12.73372 -0.00027
C 1.21138 22.04684 0.01223
C 0.03687 11.49459 -0.00583
C 0.12062 7.05316 -0.02849
C 1.2286 6.31116 0.02931
C 1.34683 4.97128 0.00628
C 0.02626 4.24606 -0.0345
C 34.41957 2.82089 -0.00931
C 1.22249 2.09478 -0.00939
C 1.21175 0.7368 -0.00468
C 34.25601 8.37568 -0.02302
C 1.16129 23.46171 -0.01678
C 34.36724 24.17088 0.01951
C 34.38974 25.62184 -0.02213
C 33.21818 9.2114 0.04926
C 31.92603 8.49845 -0.03838
C 31.98385 7.04118 0.00349
C 33.23118 6.35189 -0.00323
C 33.23216 4.96584 -0.00841
C 31.99408 4.21513 0.0001
C 32.01409 2.78222 -0.02927
C 33.20992 2.06284 -0.01404
C 33.2149 0.7012 0.01027
C 31.97088 0.04423 0.01831
C 0.00049 32.72159 -0.01037
C 1.22711 32.06712 -0.00439
C 1.19841 30.60985 -0.00598
C 0.00369 29.92687 -0.05239
C 34.42326 28.52014 0.03076
C 1.21187 27.755 0.00723
C 1.22129 26.31989 0.02712
C 32.03712 11.40874 0.01504
C 23.32332 6.40907 0.03374
C 29.4841 21.18816 0.0101
C 30.66556 23.3496 0.03531
C 24.56936 15.57975 0.00135
C 25.80567 14.94314 0.03102
C 25.83949 13.5179 0.02555
C 24.54113 12.73657 0.01423
C 24.62387 11.33938 -0.00285
C 25.82762 10.61505 -0.009
C 25.82062 9.23584 -0.01199
C 24.51664 17.01586 -0.00498
C 24.63572 8.48707 -0.00229
C 25.80201 6.33292 -0.0264
C 25.79483 4.9002 -0.01154
C 24.61665 4.27196 0.00684
C 24.62452 2.86042 -0.01052
C 25.79947 2.16249 -0.01679
C 25.84711 0.68918 0.00367
C 24.52306 0.02447 0.04306
C 24.55285 7.1041 -0.00938
C 25.74473 17.73427 0.02737
C 25.83039 19.15895 0.02117
C 24.57302 19.89605 -0.04078
C 22.17085 4.36324 -0.03213
C 22.12391 2.83979 0.02239
C 23.30532 2.22595 0.01153
C 23.38265 0.80372 0.02734
C 22.12607 0.05694 -0.0055
C 24.56319 32.65278 0.01515
C 25.82511 31.99843 -0.00225
C 25.85562 30.53787 0.00071
C 24.60314 29.81478 -0.01107
C 24.58287 28.37332 -0.01586
C 25.82521 27.67411 -0.01971
C 25.85944 26.2736 -0.02118
C 24.61082 25.53379 0.00733
C 24.66395 24.18028 -0.00178
C 25.86284 23.38974 0.00768
C 25.75636 21.96107 -0.0276
C 24.53123 21.26504 0.03005
C 27.06298 32.64286 0.00996
C 30.72022 21.95229 -0.00669
C 28.28827 31.93292 0.00195
C 27.07805 29.81243 -0.00218
C 28.2519 6.35936 0.01799
C 28.29439 4.92826 0.01699
C 27.05234 4.24138 -0.00416
C 27.14672 2.82433 0.01177
C 28.30587 2.15004 0.04266
C 28.28953 0.69852 0.01324
C 27.05616 34.07256 0.0014
C 27.02705 7.00921 0.01259
C 29.51 32.66552 0.00924
C 30.78763 30.52835 0.00261
C 29.53283 29.8537 0.03265
C 29.46184 28.44563 -0.02049
C 30.6798 27.68512 -0.01854
C 30.7156 26.24367 -0.01415
C 29.48662 25.4595 -0.03039
C 29.46459 24.06065 0.01836
C 30.70567 31.96355 0.02326
C 27.03683 8.43519 0.01495
C 28.21618 9.19397 0.00235
C 28.14791 10.61723 0.01094
C 27.06905 28.38596 -0.01654
C 28.27366 27.65427 -0.00037
C 28.2977 26.16485 -0.0032
C 27.10395 25.50652 0.00622
C 27.05595 24.09621 -0.02815
C 28.26894 23.34238 -0.00942
C 28.26362 21.93496 0.00487
C 27.00428 21.28529 0.00826
C 27.06554 19.83444 -0.00294
C 28.30793 19.13166 0.00152
C 28.24052 17.67502 0.01257
C 27.02693 17.03462 0.02316
C 27.0517 15.60774 0.04185
C 28.29503 14.90801 0.00194
C 28.2719 13.50028 -0.00621
C 27.03453 12.7808 0.02611
C 27.00723 11.37095 0.02198
C 28.31776 30.50948 -0.00802
C 2.48426 32.66947 0.01572
