338
Graphene
C 34.41156 0.07568 0.01295
C 9.94031 19.95943 0.00889
C 11.17292 19.26733 -0.00481
C 11.10684 17.81828 0.00979
C 9.91781 17.06403 0.01443
C 9.91377 15.60891 0.03505
C 11.18132 14.94733 -0.02815
C 11.1601 13.56516 -0.04147
C 9.89915 12.90782 -0.05302
C 9.80717 11.45439 0.00213
C 11.0574 10.72889 -0.00066
C 10.95114 9.3128 -0.00289
C 9.78823 8.49454 0.00028
C 9.78672 7.13721 -0.02213
C 10.97203 6.46724 0.03698
C 11.02987 5.07949 -0.00109
C 9.8042 4.31183 -0.00491
C 9.81145 2.97099 0.03338
C 9.80993 21.37016 -0.02162
C 11.11388 2.20638 -0.0258
C 10.99408 22.07511 -0.00619
C 9.71664 24.1309 0.02098
C 7.35663 8.55086 -0.01952
C 7.30859 7.20917 -0.02813
C 8.51486 6.42903 0.00374
C 8.55695 5.00148 0.00052
C 7.36766 4.31267 -0.03682
C 7.31997 2.85848 0.01965
C 8.60864 2.19431 0.02058
C 8.57034 0.77745 -0.01957
C 7.33783 0.04042 -0.0108
C 9.83371 32.74632 -0.00368
C 11.04395 32.03983 -0.02696
C 11.02518 30.50466 -0.00114
C 9.81128 29.84676 0.00228
C 9.8028 28.36014 0.00798
C 10.95555 27.63095 0.00422
C 10.91298 26.12527 0.0351
C 9.70797 25.47852 -0.03113
C 10.96438 23.38517 0.01848
C 8.62952 9.26014 0.05265
C 11.0578 0.80166 -0.0331
C 12.23331 32.78304 0.02188
C 12.22899 7.15165 -0.00652
C 13.50208 6.41994 0.0058
C 13.50354 5.00251 -0.00865
C 12.31324 4.2756 0.00675
C 12.31341 2.9309 -0.00311
C 13.51111 2.1311 0.00742
C 13.50152 0.7081 -0.01594
C 12.26081 0.08826 0.0106
C 14.71121 32.66552 -0.01154
C 16.0184 31.88147 -0.01721
C 15.93794 30.45533 -0.02422
C 14.74387 29.8148 0.01277
C 14.72143 28.44036 0.00096
C 14.71009 16.94697 -0.01527
C 14.83959 15.82501 0.01087
C 14.76566 12.53235 0.00199
C 14.74187 11.38103 0.01511
C 12.24232 8.5301 -0.04076
C 9.80068 0.09911 -0.00316
C 13.41791 9.20785 -0.00703
C 12.41604 11.42512 -0.04422
C 13.47009 31.95527 -0.01979
C 13.48354 30.61793 0.02691
C 12.26404 29.81289 -0.01581
C 12.24855 28.31621 0.01452
C 13.64287 27.58456 0.04892
C 13.33545 26.21472 -0.00111
C 12.16386 25.45027 -0.03557
C 12.20252 24.04058 0.03754
C 12.19067 21.39759 0.01739
C 12.44773 20.06592 0.00755
C 13.61325 19.324 -0.0054
C 13.70608 17.91689 0.00667
C 12.36646 17.11035 0.00143
C 12.40254 15.72125 -0.017
C 13.72911 14.90435 0.00364
C 13.7037 13.51324 -0.00831
C 12.39486 12.87536 -0.02957
C 13.58446 10.62025 0.00654
C 8.59408 10.66801 -0.01717
C 7.37297 11.36334 0.00244
C 7.45991 12.74964 0.02299
C 2.44383 8.46182 0.03693
C 2.44408 7.0871 0.01745
C 3.68758 6.43214 0.00488
C 3.68967 5.01406 -0.01004
C 2.42619 4.33222 -0.02896
C 2.37606 2.93197 -0.00131
C 3.69432 2.23502 -0.01118
C 3.61466 0.80097 -0.014
C 2.3763 0.12005 0.02147
C 4.89454 32.68796 0.00373
C 6.09002 31.99298 -0.00191
C 6.08271 30.54334 0.00438
C 4.79805 29.90685 0.01291
C 4.87445 28.44161 0.00093
C 6.10938 27.6677 0.00057
C 6.09568 26.22704 -0.01634
C 4.91231 25.59644 -0.00334
C 3.65538 9.24236 -0.01384
C 4.87772 24.13223 0.02339
C 3.60572 10.63692 -0.00482
C 2.46972 12.81422 0.00685
C 3.62521 30.56676 0.0127
C 2.43348 29.78123 0.01396
C 2.43995 28.39453 0.01849
C 3.70269 27.73951 -0.01142
C 3.62383 26.29218 -0.00562
C 2.44615 25.54636 -0.00494
C 2.43304 24.16774 0.00054
C 3.66843 23.39916 0.03007
C 3.61406 22.00136 -0.00095
C 2.36123 21.29316 0.01572
C 2.34154 19.90282 -0.04848
C 3.61618 19.22718 -0.00892
C 3.66169 17.78025 -0.01362
C 2.38876 17.08618 -0.0008
C 2.44023 15.67661 0.0288
C 3.62762 14.92844 0.00393
C 3.68292 13.42917 0.00895
C 2.41958 11.39588 0.02888
C 6.05598 23.41015 0.01641
C 6.08717 21.96755 -0.00719
C 4.85206 21.32369 0.01364
C 8.66335 30.55218 -0.02971
C 7.29081 29.84885 0.02894
C 7.35315 28.4312 -0.01789
C 8.59723 27.68425 0.00444
C 8.49494 26.23053 -0.00925
C 7.33555 25.62747 0.01877
C 7.29981 24.11569 0.01363
C 8.56396 23.43291 -0.02162
C 8.59089 22.00207 0.00415
C 7.31308 21.23746 -0.0014
C 7.42878 19.79282 0.02162
C 8.69885 19.12536 0.0076
C 8.73345 17.7551 0.01241
C 7.49215 17.06053 -0.01454
C 7.46274 15.63765 0.01945
C 8.67877 14.94634 0.01416
C 8.65908 13.49994 0.03542
C 8.57596 32.00853 0.00165
C 7.37091 32.67887 0.02819
C 4.8772 0.02896 -0.00891
C 6.07599 0.74898 -0.01046
C 4.90609 19.90594 -0.01062
C 6.15318 19.15109 -0.00033
C 6.20857 17.73685 0.03589
C 4.94469 17.01143 -0.02759
C 4.95239 15.55234 0.0402
C 6.19104 14.8023 0.00572
C 6.13704 13.4303 0.03592
C 4.92689 12.71314 0.00406
C 15.93882 9.07166 -0.00478
C 4.92666 11.28659 0.00943
C 6.12586 9.18835 -0.01111
C 4.92051 8.53408 -0.01275
C 4.95049 7.13525 0.00985
C 6.13963 6.33964 -0.02245
C 6.1674 4.92109 -0.00428
C 4.94482 4.28716 0.03101
C 4.92884 2.85613 -0.01536
C 6.05209 2.16705 -0.02689
C 6.18848 10.53817 0.02841
C 14.66275 8.49943 -0.01662
C 14.6859 7.07468 -0.01185
C 15.91921 6.42058 0.01126
C 31.96731 29.90709 -0.02142
C 31.9338 28.40175 0.0544
C 33.19421 27.71504 0.00026
C 33.18799 26.32346 0.00682
C 31.96467 25.53719 -0.01779
C 31.92655 24.12744 0.03794
C 33.1507 23.43574 0.01927
C 33.10377 22.06745 0.01574
C 31.85802 21.23091 -0.02383
C 31.84302 19.87038 -0.01429
C 33.06698 19.19741 -0.0136
C 33.03276 17.8247 0.00594
C 31.83411 17.03897 -0.02474
C 31.9081 15.58671 0.00369
C 33.12499 14.87942 0.00455
C 33.10122 13.44104 -0.00644
C 31.93755 12.78517 -0.01839
C 33.19953 30.59985 0.01428
C 31.88415 11.24701 0.00137
C 33.20209 32.03283 -0.01694
C 29.30497 34.01976 0.00346
C 29.36595 19.89012 -0.00669
C 30.52495 19.12796 0.0101
C 30.61815 17.72984 0.01705
C 29.41342 16.99901 -0.0405
C 29.35729 15.5146 -0.01303
C 30.65394 14.91035 -0.01461
C 30.76399 13.48446 -0.02155
C 29.54539 12.53717 -0.00944
C 30.60423 10.65107 -0.03735
C 30.57083 9.15887 -0.00971
C 29.4584 7.26432 0.01518
C 30.63074 6.51619 0.01908
C 30.76328 5.07523 0.07705
C 29.48073 4.37488 0.0103
C 29.49118 2.91304 0.02108
C 30.63252 2.12531 0.00716
C 30.65804 0.65339 0.00307
C 31.87176 32.65149 0.01713
C 33.15274 10.62303 0.00199
C 33.13387 9.27919 0.04381
C 31.91124 8.56468 0.02806
C 1.19507 17.69292 0.01223
C 34.29448 17.04372 0.00648
C 34.32502 15.6168 0.02114
C 1.23169 14.93574 -0.02957
C 1.24465 13.45264 0.00343
C 34.36315 12.74889 -0.02656
C 34.38725 11.33629 -0.02442
C 1.22968 10.64663 -0.00027
C 1.17864 9.24871 -0.00583
C 34.39367 8.51632 -0.02302
C 0.01075 7.09597 -0.02849
C 1.22457 6.40096 0.02931
C 1.1652 4.98831 0.00628
C 0.01869 4.2162 -0.0345
C 34.33829 2.83982 -0.00931
C 1.15984 2.23003 -0.00939
C 1.16345 0.80675 -0.00468
C 1.15355 19.15439 -0.01678
C 34.37319 19.90748 0.01951
C 34.25796 21.2828 -0.02213
C 1.14644 22.09764 0.02712
C 31.86225 7.19154 0.01504
C 33.11834 6.47106 -0.00069
C 33.27874 4.94604 0.04926
C 31.97831 4.32726 -0.03838
C 31.90636 2.84317 0.00349
C 33.15697 2.15686 -0.00323
C 33.12131 0.65619 -0.00841
C 31.89157 0.00505 0.0001
C 29.33647 21.34138 0.03531
C 34.4064 32.72846 -0.02927
C 1.26232 30.50565 0.01027
C 0.0382 29.84334 0.01831
C 34.38152 28.37763 -0.01037
C 1.15815 27.61516 -0.00439
C 1.21186 26.24514 -0.00598
C 34.38044 25.60153 -0.05239
C 0.00237 24.16258 0.03076
C 1.21187 23.45056 0.00723
C 1.18957 32.01184 -0.01404
C 3.62508 32.03754 0.02635
C 30.64608 21.94104 0.01836
C 29.47492 24.21754 -0.01415
C 20.84316 6.59042 -0.0276
C 20.88181 4.96573 0.03005
C 19.63596 4.30798 -0.04078
C 19.57736 2.82037 0.02117
C 20.76545 2.13182 0.02737
C 20.85452 0.74641 -0.00498
C 19.59234 34.03633 0.00135
C 22.13376 7.14188 0.03102
C 23.23244 6.37053 0.02555
C 23.2719 4.89512 0.01423
C 22.04392 4.17567 -0.00285
C 21.97575 2.71348 -0.009
C 23.24383 2.01907 -0.01199
C 23.2787 0.38508 -0.00229
C 21.99951 33.95422 -0.00938
C 26.19064 23.64999 -0.0264
C 25.83122 22.42861 -0.01154
C 19.60075 7.19302 0.00768
C 25.6117 19.0253 0.00684
C 19.71624 32.69519 -0.00178
C 18.44321 0.67565 -0.02118
C 15.95342 5.00459 0.01852
C 14.74414 4.22589 -0.00381
C 14.76022 2.75134 0.03046
C 15.93507 2.12153 0.0296
C 16.00674 0.72847 0.03374
C 14.73439 0.00496 -0.02845
C 17.22448 32.64996 -0.03213
C 18.61395 31.86183 0.02239
C 18.26018 30.43281 0.01153
C 17.30233 29.93338 0.02734
C 17.06629 8.64841 -0.0055
C 17.14508 7.13744 0.01515
C 18.38459 6.52571 -0.00225
C 18.37234 5.08745 0.00071
C 17.20081 4.27833 -0.01107
C 17.14687 2.79941 -0.01586
C 18.39395 2.11088 -0.01971
C 17.2122 0.02686 0.00733
C 25.73215 17.91329 -0.01052
C 24.61033 8.50121 -0.01679
C 24.51599 7.10828 0.00367
C 28.54035 13.28733 0.01094
C 26.87262 7.18444 0.00235
C 28.17855 6.72621 0.01495
C 28.3082 5.13272 0.01259
C 27.0026 4.37199 0.01799
C 26.96066 2.83138 0.01699
C 28.15515 2.18565 -0.00416
C 28.1394 0.68929 0.01177
C 26.90779 34.05991 0.04266
C 29.42218 32.65425 0.01324
C 30.63227 31.92579 0.0014
C 30.58436 30.52755 0.00924
C 29.37158 29.75912 0.02326
C 29.38103 28.39321 0.00261
C 30.66706 27.71389 0.03265
C 30.68613 26.26509 -0.02049
C 29.53732 25.57687 -0.01854
C 28.08218 14.68264 0.02198
C 27.00934 15.47534 0.02611
C 26.86927 16.84126 -0.00621
C 28.08548 17.69443 0.00194
C 25.71264 6.40409 0.04306
C 25.73918 4.98995 0.00996
C 24.58184 4.23084 0.00195
C 24.49663 2.78078 -0.00802
C 25.71169 2.1464 -0.00218
C 25.76083 0.72404 -0.01654
C 24.58054 0.03575 -0.00037
C 26.93748 32.67608 -0.0032
C 30.6562 23.42175 -0.03039
C 28.12097 31.91787 0.00622
C 28.1909 27.57388 -0.00942
C 28.23609 26.17532 0.00487
C 27.25713 24.79208 0.00826
C 28.23868 23.70211 -0.00294
C 28.11932 22.14677 0.00152
C 26.8363 21.45314 0.01257
C 26.80368 19.92892 0.02316
C 28.05106 19.15396 0.04185
C 28.20195 30.54282 -0.02815
C 2.42137 32.78323 -0.01378
