443
Graphene
C 34.43259 0.02188 0.01295
C 13.51373 19.18555 0.00093
C 13.43447 17.76659 0.00057
C 12.24425 17.08996 -0.01634
C 12.23384 15.6164 -0.00334
C 13.48074 14.87944 0.02339
C 13.54199 13.45801 0.01641
C 12.33966 12.77368 -0.00719
C 12.29094 11.39084 0.01364
C 13.55235 10.62626 -0.01062
C 13.51681 9.18756 -0.00033
C 12.31181 8.54152 0.03589
C 12.42782 7.07717 -0.02759
C 13.80902 6.4621 0.0402
C 13.79694 4.90057 0.00572
C 12.42506 4.24112 0.03592
C 12.28145 2.80337 0.00406
C 13.4731 2.0751 0.00943
C 13.43901 0.70182 0.02841
C 12.22299 34.07382 -0.01111
C 14.72996 32.63127 -0.01275
C 15.97815 31.98347 0.00985
C 15.94893 30.51196 -0.02245
C 14.72609 29.82758 -0.00428
C 12.19668 19.9489 0.01291
C 12.25156 21.30929 0.00438
C 13.46627 22.0072 -0.00191
C 13.50634 23.40916 0.00373
C 11.0212 14.95206 0.00054
C 11.11266 13.55755 0.03007
C 9.8448 12.87884 -0.00095
C 9.78565 11.46329 0.01572
C 11.05459 10.6599 -0.04848
C 11.0907 9.18338 -0.00892
C 9.8439 8.60555 -0.01362
C 9.85838 7.23095 -0.0008
C 11.18308 6.41969 0.0288
C 11.18994 4.98944 0.00393
C 9.89776 4.25332 0.00895
C 14.67895 28.35554 0.03101
C 9.89279 2.85204 0.00685
C 11.04397 0.75336 -0.00482
C 9.80254 34.07051 -0.01384
C 12.18745 32.66027 0.03693
C 13.50372 31.97342 0.01745
C 13.49963 30.52899 0.00488
C 12.2351 29.84714 -0.01004
C 12.23881 28.45135 -0.02896
C 13.47163 27.75282 -0.00131
C 13.50472 26.31456 -0.01118
C 12.25031 25.58413 -0.014
C 12.28294 24.17182 0.02147
C 11.09956 2.10098 0.02888
C 15.91359 27.69463 -0.01536
C 15.9689 26.2965 -0.02689
C 14.75452 25.63963 -0.01046
C 18.47019 26.30178 -0.03682
C 17.20391 25.54813 0.01965
C 17.2481 24.13177 0.02058
C 18.3769 23.39487 -0.01957
C 18.4716 21.9602 -0.0108
C 17.23115 21.21673 -0.00368
C 17.16466 19.81108 -0.02696
C 18.35667 19.11489 -0.00114
C 18.37317 17.74525 0.00228
C 17.1696 16.98028 0.00798
C 17.21817 15.58209 0.00422
C 18.38467 27.65261 0.00052
C 18.41459 14.91066 0.0351
C 17.21711 12.81611 0.02098
C 17.19747 11.40784 0.01848
C 18.38296 10.62897 -0.00619
C 18.38757 9.26334 -0.02162
C 17.18659 8.58819 0.00889
C 17.00891 7.19683 -0.00481
C 18.19183 6.36815 0.00979
C 18.20546 4.979 0.01443
C 16.92573 4.16803 0.03505
C 17.1376 2.76531 -0.02815
C 18.382 2.07906 -0.04147
C 18.45713 13.55253 -0.03113
C 9.78959 15.59037 -0.00494
C 17.18437 28.43075 0.00374
C 18.38458 30.50672 -0.01952
C 14.76432 24.17086 -0.00891
C 16.01539 23.42312 0.02819
C 16.02649 21.98338 0.00165
C 14.7463 21.31486 -0.02971
C 14.68441 19.89781 0.02894
C 15.94749 19.15832 -0.01789
C 15.95211 17.74116 0.00444
C 14.70765 17.06255 -0.00925
C 14.64538 15.60099 0.01877
C 16.0168 14.92883 0.01363
C 15.99256 13.46734 -0.02162
C 17.1469 29.90265 -0.02813
C 14.70065 12.73248 0.00415
C 15.9764 10.7238 0.02162
C 16.01061 9.32033 0.0076
C 14.8338 8.58687 0.01241
C 15.10723 7.0958 -0.01454
C 14.97435 4.089 0.01945
C 14.75018 2.70801 0.01416
C 15.96665 2.00306 0.03542
C 15.96899 0.65967 0.02299
C 14.77032 34.06528 0.00244
C 17.18232 32.68221 -0.01717
C 18.41625 31.97343 0.05265
C 14.76635 11.39687 -0.0014
C 18.39569 0.67796 -0.05302
C 9.74148 17.08146 -0.00562
C 11.06612 19.2297 0.01849
C 3.69345 0.74477 0.01138
C 2.45574 0.0744 0.03278
C 4.96341 32.67648 -0.00177
C 6.18453 31.94641 0.04421
C 6.20468 30.54624 0.00088
C 4.99095 29.78889 0.00828
C 4.98219 28.3972 -0.02375
C 6.18252 27.72087 0.00558
C 6.16936 26.30301 -0.0059
C 4.95145 25.63476 -0.01386
C 4.87953 24.17439 -0.02805
C 6.14633 23.45495 0.00081
C 6.14588 21.98592 0.00245
C 4.91441 21.26998 0.02728
C 4.88253 19.90813 -0.00039
C 6.10277 19.18246 0.0064
C 6.05324 17.7701 0.00211
C 4.85771 17.05922 -0.00449
C 4.84189 15.63021 -0.01979
C 6.03344 14.96018 0.02784
C 6.11975 13.60093 -0.01977
C 4.92467 12.83348 -0.00561
C 4.95568 11.44021 0.00208
C 3.66226 2.14828 -0.00407
C 2.41994 2.83517 -0.01299
C 2.47733 4.27088 -0.0154
C 3.73703 5.03932 0.00662
C 3.7955 30.53727 -0.00141
C 2.52186 29.8977 -0.00374
C 2.52923 28.44607 -0.0213
C 3.72077 27.72963 0.01116
C 3.70738 26.27316 -0.0005
C 2.44192 25.52887 -0.00018
C 2.47386 24.12226 0.01073
C 3.671 23.40925 0.01984
C 3.65805 21.96258 0.00535
C 2.39784 21.24156 -0.00198
C 2.36784 19.89734 -0.00012
C 6.12326 10.71418 0.01707
C 3.66626 19.14951 -0.04306
C 2.36386 16.95721 0.01913
C 2.44304 15.53864 0.00267
C 3.64687 14.92962 0.00787
C 3.68142 13.49817 0.02426
C 2.49198 12.7494 0.01218
C 2.44314 11.27659 -0.01471
C 3.69898 10.65748 -0.02827
C 3.67726 9.23228 0.01078
C 2.52328 8.49948 -0.00112
C 2.47803 7.12592 0.03345
C 3.65381 6.44578 0.00748
C 3.55271 17.74082 -0.03672
C 6.12688 9.25504 0.02769
C 4.88044 8.50862 -0.03291
C 4.86446 7.11431 -0.04999
C 8.62517 10.75233 -0.02566
C 8.65401 9.32487 -0.00094
C 7.3672 8.60077 0.02322
C 7.43123 7.13472 -0.00725
C 8.64674 6.46207 -0.05697
C 8.63267 5.02758 0.01087
C 7.38144 4.35091 -0.01343
C 7.3971 2.91694 0.00988
C 8.62965 2.18967 0.0276
C 8.61637 0.74084 0.01305
C 7.3572 0.04963 -0.00077
C 7.36052 11.40662 -0.03113
C 9.76364 32.73343 0.03368
C 11.02937 30.60236 -0.00966
C 9.8446 29.84028 -0.03337
C 9.80897 28.46701 0.01227
C 11.06759 27.72661 0.00873
C 11.03464 26.32629 -0.00049
C 9.81195 25.56934 0.00848
C 9.90159 24.23929 -0.01303
C 11.03971 23.46235 -0.01378
C 11.00892 22.01054 0.02635
C 9.81475 21.34046 0.0127
C 9.79558 19.90375 0.01396
C 10.97795 31.98888 -0.02929
C 11.03274 17.7881 -0.01142
C 7.3434 12.90714 0.017
C 8.57883 14.9849 0.0086
C 6.13657 6.50682 0.04505
C 6.15876 5.07948 0.03284
C 4.96932 4.34766 -0.04307
C 4.84974 2.8682 0.03189
C 6.14585 2.15593 0.00031
C 6.08309 0.76773 -0.003
C 4.84369 0.03363 0.01402
C 7.32877 32.73623 0.02379
C 8.56958 31.99429 0.00907
C 8.56542 30.56199 0.00643
C 7.37689 29.83555 -0.01509
C 8.56286 13.57839 -0.00643
C 7.41077 28.4175 0.03267
C 8.61045 26.28585 0.00402
C 7.39531 25.56029 0.0073
C 7.34442 24.1552 0.0174
C 8.61817 23.49593 0.03828
C 8.62098 22.03996 0.01226
C 7.34152 21.29573 -0.00279
C 7.30798 19.88013 0.01996
C 8.5715 19.20854 -0.03996
C 8.54441 17.77067 0.01465
C 7.28368 17.0332 -0.00074
C 7.30347 15.6268 -0.00518
C 8.60525 27.69059 0.02374
C 3.75466 31.95618 -0.03951
C 17.11651 0.0147 0.00213
C 20.87413 31.9679 -0.00289
C 29.48988 15.63497 0.01705
C 30.71819 14.85358 -0.0405
C 30.67416 13.42008 -0.01303
C 29.40232 12.75336 -0.01461
C 29.43364 11.31495 -0.02155
C 30.75533 10.53552 -0.00944
C 30.76649 9.15377 -0.03735
C 29.54864 8.39063 -0.00971
C 29.48762 6.97407 0.01518
C 30.72321 6.33408 0.01908
C 30.76351 4.88448 0.07705
C 29.47135 4.20825 0.0103
C 29.47888 2.80825 0.02108
C 30.70956 2.141 0.00716
C 30.74276 0.75702 0.00307
C 29.52206 0.12567 0.00346
C 31.94964 32.66731 0.01713
C 33.22659 31.93826 -0.01694
C 33.20512 30.55357 0.01428
C 31.91948 29.90615 -0.02142
C 32.01538 28.49559 0.0544
C 33.24125 27.78657 0.00026
C 33.22561 26.26786 0.00682
C 29.50314 17.04334 0.0101
C 30.75741 17.75868 -0.00669
C 30.71068 19.16893 0.03531
C 29.45865 19.87735 0.01836
C 27.02509 11.34343 0.04185
C 28.23253 10.58994 0.00194
C 28.28216 9.13125 -0.00621
C 27.09843 8.46114 0.02611
C 27.04424 7.0013 0.02198
C 28.29779 6.32509 0.01094
C 28.34127 4.91565 0.00235
C 27.06189 4.28069 0.01495
C 27.06059 2.80443 0.01259
C 28.24392 2.06222 0.01799
C 28.19907 0.62848 0.01699
C 31.97656 25.58404 -0.01779
C 26.9627 34.05258 -0.00416
C 30.74534 31.9891 0.04266
C 30.5615 30.56045 0.01324
C 29.27824 29.80054 0.0014
C 29.46131 28.33317 0.00924
C 30.8151 27.73326 0.02326
C 30.75126 26.3402 0.00261
C 29.51976 25.59236 0.03265
C 29.45634 24.16352 -0.02049
C 30.67468 23.50956 -0.01854
C 30.61309 22.05218 -0.01415
C 29.39129 21.36786 -0.03039
C 29.56967 32.81432 0.01177
C 31.93669 24.23897 0.03794
C 33.13389 23.41814 0.01927
C 33.15097 22.02279 0.01574
C 0.01544 25.50533 -0.05239
C 0.00095 24.05209 0.03076
C 1.25407 23.39444 0.00723
C 1.19237 22.02859 0.02712
C 34.3532 21.26117 -0.02213
C 34.2872 19.82626 0.01951
C 1.11794 19.14306 -0.01678
C 1.13669 17.6591 0.01223
C 34.39975 16.93846 0.00648
C 34.36467 15.53953 0.02114
C 1.18844 14.83293 -0.02957
C 1.255 26.26489 -0.00598
C 1.25184 13.45156 0.00343
C 0.05009 11.2838 -0.02442
C 1.27277 10.61398 -0.00027
C 1.28132 9.15756 -0.00583
C 0.03943 8.46712 -0.02302
C 0.06032 7.07085 -0.02849
C 1.25878 6.3644 0.02931
C 1.2557 4.95955 0.00628
C 0.00828 4.2311 -0.0345
C 0.03209 2.88788 -0.00931
C 1.21616 2.16883 -0.00939
C 1.20386 0.73929 -0.00468
C 34.42982 12.65602 -0.02656
C 26.98071 12.77466 0.02316
C 1.30143 27.72705 -0.00439
C 0.0093 29.88826 0.01831
C 31.91352 21.33405 -0.02383
C 31.90423 19.86592 -0.01429
C 33.10802 19.10753 -0.0136
C 33.12418 17.68209 0.00594
C 31.91078 17.01052 -0.02474
C 31.90582 15.55909 0.00369
C 33.13427 14.81904 0.00455
C 33.20174 13.43923 -0.00644
C 31.94884 12.73473 -0.01839
C 31.98199 11.25051 0.00137
C 33.25278 10.5388 0.00199
C 0.03117 28.49346 -0.01037
C 33.24348 9.13121 0.04381
C 31.96521 7.00988 0.01504
C 33.23572 6.32806 -0.00069
C 33.16611 4.92265 0.04926
C 31.94739 4.20823 -0.03838
C 31.98934 2.8539 0.00349
C 33.17775 2.12279 -0.00323
C 33.1635 0.70787 -0.00841
C 31.96665 0.0363 0.0001
C 34.40944 32.64578 -0.02927
C 1.22047 31.98746 -0.01404
C 1.25324 30.55238 0.01027
C 32.04174 8.38852 0.02806
C 19.62445 32.66748 -0.00066
C 28.21913 13.42698 0.01257
C 27.01264 15.68152 -0.00294
C 20.9335 0.76482 0.00654
C 19.68955 0.00182 -0.00703
C 22.10146 32.72033 -0.04076
C 23.31856 31.98765 -0.00652
C 23.32975 30.56513 0.0058
C 22.05013 29.81834 -0.00865
C 22.12213 28.42275 0.00675
C 23.37035 27.76209 -0.00311
C 23.37607 26.28685 0.00742
C 22.18483 25.57367 -0.01594
C 22.179 24.13239 0.0106
C 23.47707 23.50094 -0.01154
C 23.344 21.98657 -0.01721
C 22.17609 21.2805 -0.02422
C 22.11303 19.85935 0.01277
C 23.32662 19.16009 0.00096
C 23.3329 17.80207 -0.01527
C 22.15055 17.04496 0.01087
C 22.08673 15.62122 0.00199
C 23.27771 14.88196 0.01511
C 23.301 13.50262 -0.00478
C 22.1085 12.76948 -0.01662
C 22.02667 11.36224 -0.01185
C 20.86751 2.16824 -0.04422
C 19.56607 2.83332 -0.02957
C 19.54469 4.2538 -0.00831
C 20.85013 4.99289 0.00364
C 20.86483 30.54206 0.00028
C 19.64798 29.77244 -0.02213
C 19.61956 28.39397 0.03698
C 20.88386 27.70432 -0.00109
C 20.8987 26.34617 -0.00491
C 19.67496 25.54983 0.03338
C 19.67347 24.08893 -0.0258
C 20.94805 23.39032 -0.0331
C 20.85994 21.97954 -0.00316
C 19.67781 21.28327 0.02188
C 19.66133 19.87524 -0.01979
C 23.32678 10.66778 0.01126
C 20.87257 19.21393 0.02691
C 19.61238 17.0664 0.01452
C 19.6784 15.62611 0.04892
C 20.88881 14.92045 -0.00111
C 20.84437 13.48604 -0.03557
C 19.63305 12.80341 0.03754
C 19.59218 11.38194 0.01739
C 20.84903 10.64585 0.00755
C 20.92778 9.1954 -0.0054
C 19.63498 8.51146 0.00667
C 19.59787 7.0368 0.00143
C 20.85011 6.35283 -0.017
C 20.92659 17.74761 -0.01581
C 23.33357 9.1643 0.01852
C 22.11966 8.49135 -0.00381
C 22.09995 7.09241 0.03046
C 25.78833 10.68446 -0.00285
C 25.81542 9.1769 -0.009
C 24.57712 8.44488 -0.01199
C 24.55778 7.09928 -0.00229
C 25.86027 6.34945 -0.00938
C 25.75479 4.90819 -0.0264
C 24.56761 4.23714 -0.01154
C 24.53806 2.78756 0.00684
C 25.84116 2.07943 -0.01052
C 25.8173 0.72759 -0.01679
C 24.51503 0.04929 0.00367
C 24.52389 11.36844 0.01423
C 27.21702 29.77057 0.04306
C 28.23142 27.67077 0.00195
C 28.28557 26.28684 -0.00802
C 27.03686 25.59782 -0.00218
C 27.01629 24.11197 -0.01654
C 28.21917 23.48386 -0.00037
C 28.2365 22.14457 -0.0032
C 26.99618 21.36603 0.00622
C 27.06741 19.95423 -0.02815
C 28.23753 19.20594 -0.00942
C 28.33871 17.85358 0.00487
C 27.06881 17.0901 0.00826
C 27.0675 28.39469 0.00996
C 28.24681 14.83125 0.00152
C 24.51383 12.78391 0.02555
C 25.75051 14.91487 0.00135
C 23.30776 6.42375 0.0296
C 23.28092 5.01613 0.03374
C 22.09241 4.26228 -0.02845
C 22.09763 2.86168 -0.03213
C 23.31513 2.15275 0.02239
C 23.34848 0.74808 0.01153
C 22.09786 34.06105 0.02734
C 24.53866 32.70342 -0.0055
C 25.89748 32.1366 0.01515
C 26.00812 30.6545 -0.00225
C 24.66224 29.99372 0.00071
C 25.78274 13.43248 0.03102
C 24.6097 28.47858 -0.01107
C 25.83229 26.3069 -0.01971
C 24.60714 25.61504 -0.02118
C 24.61903 24.15166 0.00733
C 25.81829 23.40289 -0.00178
C 25.79349 22.04456 0.00768
C 24.65683 21.27043 -0.0276
C 24.59202 19.86037 0.03005
C 25.80918 19.15439 -0.04078
C 25.76938 17.72309 0.02117
C 24.52421 17.02575 0.02737
C 24.53212 15.62316 -0.00498
C 25.87797 27.71352 -0.01586
C 2.49104 32.69991 -0.02419
