373
Graphene
C 34.37079 0.00955 0.01295
C 9.81695 8.51893 0.00244
C 9.87068 7.11563 -0.01717
C 11.0728 6.32727 0.05265
C 11.01268 4.91966 -0.01952
C 9.69014 4.31913 -0.02813
C 9.75635 2.85192 0.00374
C 11.03596 2.19858 0.00052
C 11.02849 0.81829 -0.03682
C 9.77029 0.14059 0.01965
C 12.20849 32.6362 0.02058
C 13.38561 31.9426 -0.01957
C 13.36546 30.52046 -0.0108
C 12.20098 29.78678 -0.00368
C 12.31967 28.30514 -0.02696
C 13.61474 27.62469 -0.00114
C 13.61023 26.19601 0.00228
C 12.31417 25.56201 0.00798
C 12.40652 24.12426 0.00422
C 13.49541 23.30673 0.0351
C 11.08183 9.1942 0.02299
C 13.49282 21.93463 -0.03113
C 11.0828 10.60788 0.03542
C 9.87784 12.79532 0.01945
C 9.73013 32.7301 -0.02689
C 10.92821 31.97541 -0.01046
C 11.00467 30.51303 -0.00891
C 9.79936 29.83763 0.02819
C 9.83174 28.43269 0.00165
C 11.06054 27.7401 -0.02971
C 11.0254 26.31747 0.02894
C 9.84497 25.58929 -0.01789
C 9.83987 24.15044 0.00444
C 11.08719 23.3724 -0.00925
C 11.11808 21.97494 0.01877
C 9.85129 21.41525 0.01363
C 9.80221 19.95883 -0.02162
C 10.98133 19.20062 0.00415
C 10.95397 17.78596 -0.0014
C 9.8038 17.06788 0.02162
C 9.85674 15.56484 0.0076
C 11.09419 14.94667 0.01241
C 11.20146 13.49887 -0.01454
C 9.83311 11.38625 0.01416
C 12.2501 21.24678 0.02098
C 12.21255 19.83498 0.01848
C 13.42896 19.23297 -0.00619
C 15.93427 19.20986 -0.01581
C 15.88706 17.766 0.01452
C 14.6808 17.04359 0.04892
C 14.66513 15.62397 -0.00111
C 15.8597 14.85649 -0.03557
C 15.8876 13.48922 0.03754
C 14.71563 12.72419 0.01739
C 14.7312 11.25747 0.00755
C 15.98917 10.49062 -0.0054
C 15.91456 8.97727 0.00667
C 14.64943 8.40494 0.00143
C 14.72987 6.99568 -0.017
C 15.98265 6.34975 0.00364
C 15.99262 4.90324 -0.00831
C 14.70787 4.19205 -0.02957
C 14.70511 2.77069 -0.04422
C 15.92375 2.08178 0.00654
C 15.91692 0.61955 -0.00703
C 14.6975 34.04121 -0.04076
C 14.60536 20.01528 0.02691
C 14.74464 28.45166 -0.01979
C 14.70585 29.87564 0.02188
C 15.95673 30.40972 -0.00316
C 13.41955 17.81975 -0.02162
C 12.20211 17.06517 0.00889
C 12.30358 15.6302 -0.00481
C 13.50108 14.83278 0.00979
C 13.58909 13.51388 0.01443
C 12.37951 12.76167 0.03505
C 12.27014 11.31453 -0.02815
C 13.49799 10.57541 -0.04147
C 13.4578 9.20898 -0.05302
C 7.29342 0.03593 -0.01536
C 12.25516 8.39971 0.00213
C 13.49738 6.36144 -0.00289
C 13.48341 4.88027 0.00028
C 12.26623 4.18655 -0.02213
C 12.28362 2.82883 0.03698
C 13.47697 2.03359 -0.00109
C 13.40784 0.65777 -0.00491
C 12.16017 34.06419 0.03338
C 14.7012 32.61723 -0.0258
C 15.8992 31.92021 -0.0331
C 12.28 7.05076 -0.00066
C 8.53171 0.76998 0.03101
C 8.52552 2.14374 -0.00428
C 7.31532 2.906 -0.02245
C 3.65953 5.04132 0.03368
C 2.48521 4.34022 -0.02929
C 2.38202 2.9273 -0.00966
C 3.59488 2.1812 -0.03337
C 3.54363 0.72598 0.01227
C 2.29867 0.09892 0.00873
C 4.81332 32.76803 -0.00049
C 6.03973 32.0044 0.00848
C 6.01584 30.57654 -0.01303
C 4.75938 29.92078 -0.01378
C 4.846 28.48832 0.02635
C 6.07125 27.79079 0.0127
C 6.06882 26.35379 0.01396
C 4.86298 25.56851 0.01849
C 4.98405 24.13784 -0.01142
C 6.19519 23.47708 -0.00562
C 6.19932 22.026 -0.00494
C 4.90611 21.35145 0.00054
C 4.94465 19.98846 0.03007
C 3.70341 6.46478 -0.00077
C 2.51814 7.12353 0.01305
C 2.34014 8.58498 0.0276
C 3.58934 9.32271 0.00988
C 3.54782 30.61686 0.0174
C 2.25006 29.88128 0.03828
C 2.39208 28.48963 0.01226
C 3.64622 27.84601 -0.00279
C 3.75349 26.28389 0.01996
C 2.41964 25.61177 -0.03996
C 2.42092 24.17121 0.01465
C 3.69816 23.45288 -0.00074
C 3.65722 22.04315 -0.00518
C 6.21013 19.27184 -0.00095
C 2.4041 21.35281 0.0086
C 3.75694 19.312 0.017
C 3.67995 17.81983 -0.03113
C 2.43958 17.14405 -0.02566
C 2.45469 15.74496 -0.00094
C 3.62458 14.94159 0.02322
C 3.71894 13.56884 -0.00725
C 2.39024 12.8366 -0.05697
C 2.44383 11.42733 0.01087
C 3.65582 10.70769 -0.01343
C 2.44366 19.9073 -0.00643
C 17.17703 32.67369 -0.00652
C 6.16902 17.87005 0.01572
C 4.91699 15.67791 -0.00892
C 8.64745 23.52464 -0.01634
C 8.6261 22.10614 -0.00334
C 7.40628 21.33262 0.02339
C 7.37032 19.97375 0.01641
C 8.57972 19.20026 -0.00719
C 8.53856 17.73948 0.01364
C 7.39847 17.03871 -0.01062
C 7.40703 15.72935 -0.00033
C 8.61755 14.9796 0.03589
C 8.6128 13.52744 -0.02759
C 7.40277 12.9051 0.0402
C 7.3671 11.45497 0.00572
C 8.6152 10.69593 0.03592
C 8.6019 9.27839 0.00406
C 7.34949 8.56764 0.00943
C 7.38718 7.15077 0.02841
C 8.66379 6.3795 -0.01111
C 8.50115 5.03171 -0.01275
C 7.2526 4.36383 0.00985
C 7.42236 24.15152 0.00057
C 7.36876 25.55285 0.00093
C 8.62539 26.18696 0.01291
C 8.69209 27.64917 0.00438
C 6.12362 14.95151 -0.01362
C 6.16976 13.51006 -0.0008
C 4.95062 12.83177 0.0288
C 4.86429 11.44642 0.00393
C 6.12753 10.72512 0.00895
C 6.14988 9.32702 0.00685
C 4.88062 8.57269 0.02888
C 4.93966 7.20918 -0.00482
C 6.10331 6.38206 -0.01384
C 4.87397 17.15619 -0.04848
C 6.00707 5.03374 0.03693
C 4.86452 2.88659 0.00488
C 6.05056 2.18942 -0.01004
C 6.07836 0.79011 -0.02896
C 4.83817 0.06803 -0.00131
C 7.36158 32.71224 -0.01118
C 8.50164 32.01027 -0.014
C 8.52053 30.60727 0.02147
C 7.29464 29.87091 0.00373
C 7.36904 28.43359 -0.00191
C 4.78947 4.27659 0.01745
C 3.54519 32.09659 0.0073
C 18.39883 31.86906 0.0058
C 17.17574 29.83265 0.00675
C 30.67953 2.20746 0.00716
C 30.76552 0.74877 0.00307
C 29.41184 0.17176 0.00346
C 31.76537 32.56757 0.01713
C 32.9192 31.84615 -0.01694
C 32.69259 30.28828 0.01428
C 31.22197 29.49417 -0.02142
C 31.6222 28.05329 0.0544
C 33.0469 27.67093 0.00026
C 33.34802 26.33239 0.00682
C 32.18044 25.67811 -0.01779
C 32.05091 24.34128 0.03794
C 33.2043 23.51779 0.01927
C 33.0389 22.05609 0.01574
C 31.6506 21.41071 -0.02383
C 31.74408 19.958 -0.01429
C 33.16076 19.16839 -0.0136
C 33.12531 17.80349 0.00594
C 31.8941 17.0204 -0.02474
C 29.38539 2.94949 0.02108
C 31.93755 15.56325 0.00369
C 29.51871 4.21976 0.0103
C 30.71896 6.41161 0.01908
C 30.53316 31.92168 0.00261
C 30.12888 30.49546 0.03265
C 31.08365 26.67449 -0.02049
C 29.87896 25.92544 -0.01854
C 29.71814 24.45752 -0.01415
C 30.87072 23.69099 -0.03039
C 30.49118 22.29955 0.01836
C 29.05201 22.3777 0.03531
C 30.6977 19.02693 -0.00669
C 30.64587 17.73295 0.0101
C 29.4716 15.59034 0.01705
C 30.74861 14.96964 -0.0405
C 30.74861 13.51797 -0.01303
C 29.51997 12.83394 -0.01461
C 29.49008 11.33785 -0.02155
C 30.7507 10.61753 -0.00944
C 30.6184 9.25256 -0.03735
C 29.35763 8.47567 -0.00971
C 29.50279 7.02965 0.01518
C 30.65649 4.9573 0.07705
C 33.15174 14.87818 0.00455
C 33.21103 13.49304 -0.00644
C 31.92476 12.8227 -0.01839
C 34.36932 19.86925 0.01951
C 1.21685 19.21296 -0.01678
C 1.16569 17.80771 0.01223
C 0.01886 17.05152 0.00648
C 34.3934 15.66296 0.02114
C 1.22836 14.99674 -0.02957
C 1.17608 13.54979 0.00343
C 34.37849 12.75426 -0.02656
C 34.41208 11.44816 -0.02442
C 1.1901 10.77579 -0.00027
C 1.18033 9.33899 -0.00583
C 34.38379 8.559 -0.02302
C 0.04766 7.19768 -0.02849
C 1.268 6.46217 0.02931
C 1.2243 5.06828 0.00628
C 34.39056 4.30016 -0.0345
C 34.37839 2.91915 -0.00931
C 1.18411 2.20163 -0.00939
C 1.10445 0.73826 -0.00468
C 34.26589 21.31377 -0.02213
C 1.17182 22.01398 0.02712
C 1.2168 23.44627 0.00723
C 34.42281 24.17758 0.03076
C 32.00235 11.40487 0.00137
C 33.19967 10.67 0.00199
C 33.12873 9.22876 0.04381
C 31.94856 8.47325 0.02806
C 31.9695 7.13824 0.01504
C 33.26012 6.48967 -0.00069
C 33.15466 5.02712 0.04926
C 32.00272 4.29892 -0.03838
C 31.98823 2.9111 0.00349
C 29.4709 32.8062 0.02326
C 33.1727 2.15999 -0.00323
C 31.95612 34.02443 0.0001
C 34.16109 32.59904 -0.02927
C 1.01273 31.92799 -0.01404
C 1.02657 30.50957 0.01027
C 34.13259 29.74085 0.01831
C 34.20307 28.37991 -0.01037
C 1.07246 27.7182 -0.00439
C 1.22099 26.33569 -0.00598
C 0.07917 25.61634 -0.05239
C 33.1817 0.72048 -0.00841
C 27.03083 0.11545 0.00924
C 28.21529 0.90309 0.0014
C 28.10255 2.34706 0.01324
C 19.55677 15.61622 0.02239
C 20.74676 14.83082 0.01153
C 20.7535 13.3183 0.02734
C 19.51734 12.67208 -0.0055
C 19.59155 11.28509 0.01515
C 20.84828 10.56868 -0.00225
C 20.83147 9.16005 0.00071
C 19.65114 8.49558 -0.01107
C 19.74868 7.0425 -0.01586
C 21.04396 6.53685 -0.01971
C 21.10812 4.93513 -0.02118
C 19.71316 4.16478 0.00733
C 19.73155 2.77191 -0.00178
C 20.86786 2.05678 0.00768
C 20.93356 0.69126 -0.0276
C 19.65666 0.06577 0.03005
C 22.08838 32.55528 -0.04078
C 23.30561 31.97184 0.02117
C 23.44506 30.49413 0.02737
C 19.60274 17.07801 -0.03213
C 20.84622 17.82781 -0.02845
C 21.5712 18.82463 0.03374
C 21.00365 30.43951 0.0296
C 18.32508 17.72397 -0.00311
C 17.10739 17.03056 0.00742
C 17.13779 15.5739 -0.01594
C 18.31982 14.86356 0.0106
C 18.2872 13.40811 -0.01154
C 17.12672 12.74978 -0.01721
C 17.1357 11.33372 -0.02422
C 18.3591 10.58206 0.01277
C 18.33675 9.16942 0.00096
C 22.15914 29.89125 -0.00498
C 17.18291 8.3796 -0.01527
C 18.53661 6.28476 0.00199
C 18.50777 4.842 0.01511
C 17.22632 4.20106 -0.00478
C 17.14653 2.7815 -0.01662
C 18.45949 2.1521 -0.01185
C 18.45305 0.74709 0.01126
C 17.15219 34.06066 0.01852
C 19.62255 32.67075 -0.00381
C 20.83232 31.8674 0.03046
C 17.29415 6.96388 0.01087
C 18.33882 30.44917 -0.00865
C 21.93625 15.53366 0.00135
C 23.09927 13.55732 0.02555
C 25.79382 0.81273 0.00826
C 24.5965 33.99317 -0.00294
C 26.98567 32.80632 0.00152
C 28.23559 32.10638 0.01257
C 28.53633 30.6473 0.02316
C 27.33991 29.85897 0.04185
C 27.08428 28.45179 0.00194
C 28.12832 27.65006 -0.00621
C 28.53666 26.36825 0.02611
C 27.3978 25.48032 0.02198
C 27.34174 23.93576 0.01094
C 28.49413 23.49165 0.00235
C 28.348 14.85375 0.01495
C 28.18072 13.46705 0.01259
C 26.93442 12.73125 0.01799
C 26.98801 11.22347 0.01699
C 28.29873 10.61345 -0.00416
C 28.23547 9.236 0.01177
C 26.93219 2.99891 0.04266
C 25.66557 2.36522 0.00487
C 24.48508 2.92216 -0.00942
C 25.81297 10.45804 -0.02815
C 24.56435 10.40562 0.00622
C 22.02315 12.68922 0.01423
C 22.09013 11.20171 -0.00285
C 23.23268 10.26151 -0.009
C 22.00455 8.25626 -0.01199
C 22.26246 4.20854 -0.00229
C 22.17689 2.78848 -0.00938
C 23.32905 2.03097 -0.0264
C 23.3804 0.60234 -0.01154
C 22.14478 33.96628 0.00684
C 22.97382 15.04404 0.03102
C 24.55827 32.58411 -0.01052
C 26.08626 30.55994 0.00367
C 24.77287 29.83311 0.04306
C 24.75048 28.46577 0.00996
C 25.78419 27.49656 0.00195
C 26.10594 26.04271 -0.00802
C 24.84404 25.15147 -0.00218
C 26.0977 23.87393 -0.01654
C 25.76856 13.33077 -0.00037
C 24.46872 13.21565 -0.0032
C 25.8853 32.00674 -0.01679
C 2.2886 32.73087 0.00402
