289
Graphene
C 34.41412 0.07081 0.01295
C 13.61165 26.24628 -0.017
C 12.34822 25.59002 0.00364
C 12.28675 24.14728 -0.00831
C 13.49862 23.39819 -0.02957
C 13.43571 22.01972 -0.04422
C 12.15269 21.31921 0.00654
C 13.53428 27.63663 0.00143
C 12.14884 19.79353 -0.00703
C 13.42847 17.69828 -0.00652
C 12.22321 16.97654 0.0058
C 12.12455 15.53937 -0.00865
C 12.25218 13.07341 0.00675
C 14.04621 6.44895 -0.00311
C 13.65769 5.07902 0.00742
C 13.3763 19.10246 -0.04076
C 12.62495 4.23172 -0.01594
C 12.33047 28.3465 0.00667
C 13.48476 30.45261 0.00755
C 9.69381 21.27365 0.03338
C 9.64265 19.84379 -0.0258
C 10.91253 19.18397 -0.0331
C 10.91903 17.69951 -0.00316
C 9.69189 17.02188 0.02188
C 9.64781 15.54664 -0.01979
C 12.28101 29.86593 -0.0054
C 10.87341 14.89157 0.02691
C 9.51955 12.76744 0.01452
C 11.12403 2.06827 0.04892
C 11.18559 0.68222 -0.00111
C 10.01277 34.07903 -0.03557
C 12.39255 32.61169 0.03754
C 13.56902 31.9192 0.01739
C 10.87356 13.1052 -0.01581
C 10.87132 22.02376 -0.00491
C 12.39363 2.91239 0.0106
C 13.63371 0.70538 -0.01721
C 15.00659 2.87653 0.02239
C 16.25497 2.1173 0.01153
C 16.07776 0.6787 0.02734
C 14.90468 0.02259 -0.0055
C 17.28947 32.71006 0.01515
C 18.41923 31.947 -0.00225
C 14.87969 4.18346 -0.03213
C 18.49113 30.48732 0.00071
C 17.25964 28.42972 -0.01586
C 18.47286 27.62019 -0.01971
C 18.65165 26.28 -0.02118
C 17.34688 25.48529 0.00733
C 17.23682 24.14334 -0.00178
C 17.47013 2.63803 0.00768
C 17.22276 29.86748 -0.01107
C 13.73237 2.1461 -0.01154
C 14.82015 17.23723 -0.02845
C 15.99651 19.42636 0.0296
C 12.37661 34.01411 -0.02422
C 14.77808 32.63852 0.01277
C 15.97768 31.95069 0.00096
C 15.96453 30.52705 -0.01527
C 14.75327 29.82938 0.01087
C 14.78477 28.3906 0.00199
C 15.83872 18.00153 0.03374
C 15.99918 27.69848 0.01511
C 14.78083 25.47047 -0.01662
C 14.75988 24.0581 -0.01185
C 16.14591 23.38811 0.01126
C 15.90414 22.03678 0.01852
C 14.65709 21.26895 -0.00381
C 14.6161 19.83189 0.03046
C 16.0748 26.29676 -0.00478
C 10.99821 23.3655 -0.00109
C 9.81509 24.15672 0.03698
C 9.91483 25.59583 -0.02213
C 3.60424 0.80764 0.00444
C 2.42345 0.06219 -0.00925
C 4.94998 32.86226 0.01877
C 6.14389 32.10683 0.01363
C 6.09968 30.67433 -0.02162
C 4.84669 29.95954 0.00415
C 2.32471 12.71748 -0.01789
C 4.92013 28.521 -0.0014
C 6.08309 26.3664 0.0076
C 4.86229 25.59904 0.01241
C 4.82554 24.14574 -0.01454
C 6.09843 23.46603 0.01945
C 6.00665 22.01443 0.01416
C 4.79385 21.31337 0.03542
C 6.13942 27.79791 0.02162
C 4.8151 19.86891 0.02299
C 3.64739 13.41708 0.02894
C 2.29915 15.65473 0.00165
C 3.67994 30.65861 0.00406
C 2.41668 29.91809 0.00943
C 2.43893 28.46281 0.02841
C 3.69403 27.73852 -0.01111
C 3.64275 26.39459 -0.01275
C 2.4601 25.6278 0.00985
C 3.49447 14.82831 -0.02971
C 2.3952 24.18064 -0.02245
C 3.51454 21.95361 0.03101
C 2.25273 21.29023 -0.01536
C 2.29216 19.89938 -0.02689
C 3.60983 19.16015 -0.01046
C 3.59683 17.74334 -0.00891
C 2.38482 17.07596 0.02819
C 3.61377 23.38925 -0.00428
C 6.0835 19.19344 0.00244
C 6.10334 17.75295 -0.01717
C 4.76225 17.01393 0.05265
C 8.47753 17.69985 -0.00619
C 7.2569 17.00889 -0.02162
C 7.15281 15.60956 0.00889
C 8.37435 14.87082 -0.00481
C 8.54718 13.38095 0.00979
C 8.79473 0.80024 0.01443
C 8.49491 19.08257 0.01848
C 7.46575 0.3161 0.03505
C 11.062 31.99135 -0.04147
C 11.08695 30.52808 -0.05302
C 9.81194 29.81509 0.00213
C 9.8118 28.41862 -0.00066
C 11.04185 27.75798 -0.00289
C 11.1749 26.24287 0.00028
C 9.91949 32.737 -0.02815
C 7.22573 19.84848 0.02098
C 7.31983 21.21049 -0.03113
C 8.4044 22.01176 0.0351
C 4.74928 15.56971 -0.01952
C 5.94434 14.84897 -0.02813
C 5.6278 13.34278 0.00374
C 6.19604 0.81397 0.00052
C 4.94665 0.32874 -0.03682
C 7.42419 32.74323 0.01965
C 8.65188 31.97576 0.02058
C 8.64848 30.5858 -0.01957
C 7.32039 29.9545 -0.0108
C 7.36599 28.46106 -0.00368
C 8.64494 27.76393 -0.02696
C 8.62537 26.34293 -0.00114
C 7.35633 25.67815 0.00228
C 7.34341 24.26071 0.00798
C 8.48994 23.47836 0.00422
C 18.69046 2.1685 -0.0276
C 3.68288 32.13974 0.03592
C 18.5111 0.61347 0.03005
C 19.75691 32.642 0.02117
C 33.07721 22.05309 -0.0136
C 31.82669 21.42619 0.00594
C 31.79638 19.94429 -0.02474
C 33.01881 19.25974 0.00369
C 33.05774 17.81854 0.00455
C 31.81541 17.07662 -0.00644
C 33.18278 23.49747 -0.01429
C 31.78889 15.68956 -0.01839
C 33.12532 13.56202 0.00199
C 31.87557 12.77875 0.04381
C 31.96072 11.34735 0.02806
C 33.29869 10.6955 0.01504
C 33.34711 9.28625 -0.00069
C 32.04496 8.5955 0.04926
C 33.04137 14.9633 0.00137
C 31.87424 7.19306 -0.03838
C 31.9531 24.1811 -0.02383
C 33.26423 26.33164 0.01927
C 29.2159 7.44032 0.0103
C 30.54674 6.51392 0.02108
C 30.56844 5.03501 0.00716
C 29.3354 4.32043 0.00307
C 29.36835 2.90269 0.00346
C 30.66417 2.2288 0.01713
C 32.02992 25.5897 0.01574
C 30.65182 0.82568 -0.01694
C 31.914 32.73408 -0.02142
C 33.14653 31.96785 0.0544
C 33.12023 30.59529 0.00026
C 31.90083 29.83129 0.00682
C 31.87681 28.38762 -0.01779
C 33.20166 27.79585 0.03794
C 29.47746 0.10877 0.01428
C 29.64705 8.76061 0.07705
C 33.17648 6.47092 0.00349
C 31.93594 4.3981 -0.00841
C 1.04844 17.77763 -0.02957
C 34.26802 17.0193 0.00343
C 34.30427 15.6301 -0.02656
C 1.09362 14.87757 -0.02442
C 1.12289 13.50113 -0.00027
C 34.31171 12.74781 -0.00583
C 1.02071 19.17816 0.02114
C 0.05709 11.44258 -0.02302
C 0.0862 8.42609 0.02931
C 34.32158 7.2636 0.00628
C 34.25864 4.32439 -0.0345
C 0.08556 3.02249 -0.00931
C 1.13824 2.14616 -0.00939
C 1.19746 0.79929 -0.00468
C 1.49915 11.0712 -0.02849
C 33.16081 5.11996 -0.00323
C 34.21738 19.94895 0.00648
C 1.07105 22.06719 -0.01678
C 31.91558 3.02655 0.0001
C 33.20723 2.32506 -0.02927
C 33.16976 0.87129 -0.01404
C 31.8677 0.07979 0.01027
C 34.32843 32.76476 0.01831
C 1.18344 32.0845 -0.01037
C 34.24904 21.35254 0.01223
C 1.18178 30.59359 -0.00439
C 34.39348 28.48489 -0.05239
C 1.17124 27.77092 0.03076
C 1.26447 26.38959 0.00723
C 0.07651 25.65602 0.02712
C 34.42689 24.20431 -0.02213
C 1.15165 23.45612 0.01951
C 34.3867 29.89587 -0.00598
C 30.83488 9.33232 0.01908
C 30.65766 10.74557 0.01518
C 29.32158 11.349 -0.00971
C 25.7699 32.03173 0.00996
C 25.8142 30.55276 0.00195
C 24.57798 29.80911 -0.00802
C 24.46883 28.29531 -0.00218
C 25.70795 27.70181 -0.01654
C 25.94192 26.26742 -0.00037
C 24.51098 32.78201 0.04306
C 24.51724 2.70801 -0.0032
C 25.74701 0.8217 -0.02815
C 24.59101 0.09978 -0.00942
C 27.0014 32.7308 0.00487
C 28.2636 32.09582 0.00826
C 28.30596 30.57987 -0.00294
C 27.00661 29.8842 0.00152
C 25.77669 2.2477 0.00622
C 27.09331 28.39861 0.01257
C 21.98707 0.17215 0.00367
C 23.36128 2.24312 -0.01052
C 20.89941 31.86879 0.02737
C 20.87926 30.40714 -0.00498
C 19.67427 29.84823 0.00135
C 19.60184 28.35745 0.03102
C 20.78877 27.6685 0.02555
C 20.21675 2.10277 0.01423
C 23.28529 0.84004 -0.01679
C 20.78775 0.77421 -0.00285
C 22.05339 32.72095 -0.01199
C 23.35408 31.9845 -0.00229
C 23.28006 30.4337 -0.00938
C 22.10627 29.66767 -0.0264
C 22.02604 28.17998 -0.01154
C 23.30664 27.54041 0.00684
C 19.70992 33.94976 -0.009
C 28.23726 27.64614 0.02316
C 28.26643 26.16899 0.04185
C 26.89566 25.62713 0.00194
C 30.67448 26.23922 -0.01854
C 29.38433 25.42168 -0.01415
C 29.48785 24.01664 -0.03039
C 30.75978 23.51304 0.01836
C 30.69683 22.12932 0.03531
C 29.16343 21.37341 -0.00669
C 30.7275 27.63738 -0.02049
C 29.13822 19.97454 0.0101
C 30.5877 17.93929 -0.0405
C 29.31548 17.20211 -0.01303
C 29.38553 15.76926 -0.01461
C 30.58397 14.99248 -0.02155
C 30.60619 13.56327 -0.00944
C 29.23077 12.6506 -0.03735
C 30.5606 19.36833 0.01705
C 29.49663 28.36483 0.03265
C 29.50577 29.84684 0.00261
C 30.74731 30.54761 0.02326
C 28.98008 22.76041 -0.00621
C 28.03822 19.22737 0.02611
C 28.0226 17.81713 0.02198
C 26.96835 16.79608 0.01094
C 28.15528 14.91734 0.00235
C 28.23869 13.74206 0.01495
C 28.14273 6.49391 0.01259
C 28.05966 5.1481 0.01799
C 26.78635 4.46695 0.01699
C 26.89043 3.06728 -0.00416
C 28.09046 2.21433 0.01177
C 28.20842 0.78221 0.04266
C 26.98974 0.08994 0.01324
C 29.4457 32.76157 0.0014
C 30.69545 32.00824 0.00924
C 17.30568 0.10087 -0.04078
C 2.39469 32.7294 0.00572
