344
Graphene
C 34.40332 0.0531 0.01295
C 17.28628 16.9192 0.02098
C 18.38825 14.92952 0.01848
C 18.49234 13.70971 -0.00619
C 18.50202 10.52514 -0.02162
C 18.58218 9.37432 0.00889
C 17.12234 7.06447 -0.00481
C 18.36315 6.3871 0.00979
C 18.36124 4.87609 0.01443
C 17.19318 4.15521 0.03505
C 17.24366 2.75302 -0.02815
C 18.48332 2.11926 -0.04147
C 18.50437 0.6727 -0.05302
C 17.26471 34.06553 0.00213
C 19.70638 32.67325 -0.00066
C 20.93473 32.00304 -0.00289
C 20.88636 30.49435 0.00028
C 19.70074 29.77341 -0.02213
C 18.3842 17.6721 -0.03113
C 18.486 19.11502 0.0351
C 17.17458 19.80001 0.00422
C 17.15795 21.32742 0.00798
C 16.18849 6.40178 0.03542
C 15.82337 5.02041 0.02299
C 14.67002 4.36328 0.00244
C 14.76142 2.9458 -0.01717
C 16.01597 2.11818 0.05265
C 16.03159 0.72805 -0.01952
C 14.79352 0.02525 -0.02813
C 17.17232 32.64935 0.00374
C 19.66339 28.35331 0.03698
C 18.49477 31.9906 0.00052
C 17.2379 29.91418 0.01965
C 17.18996 28.49158 0.02058
C 18.42252 27.73851 -0.01957
C 18.46497 26.22512 -0.0108
C 17.21606 25.54886 -0.00368
C 17.30227 24.1629 -0.02696
C 18.52931 23.41065 -0.00114
C 18.38279 21.96012 0.00228
C 18.45621 30.55776 -0.03682
C 15.8704 19.16972 0.01416
C 20.84652 27.66275 -0.00109
C 19.71505 25.55743 0.03338
C 20.9708 0.70845 0.00654
C 19.73608 0.03899 -0.00703
C 22.11583 32.73471 -0.04076
C 23.30651 32.02431 -0.00652
C 23.30619 30.58722 0.0058
C 22.13885 29.74393 -0.00865
C 22.08509 28.311 0.00675
C 23.39061 27.70253 -0.00311
C 23.34166 26.25064 0.00742
C 22.09093 25.58418 -0.01594
C 22.08234 24.14722 0.0106
C 23.3577 23.42485 -0.01154
C 23.39788 22.05127 -0.01721
C 22.14165 21.29928 -0.02422
C 22.13835 19.88642 0.01277
C 23.39813 19.15078 0.00096
C 23.39992 17.67772 -0.01527
C 20.89489 2.12517 -0.04422
C 19.67765 2.8442 -0.02957
C 19.68916 4.23981 -0.00831
C 20.90203 4.902 0.00364
C 19.66641 24.16654 -0.0258
C 20.86372 23.45697 -0.0331
C 20.84239 21.99143 -0.00316
C 19.57943 21.3364 0.02188
C 19.62322 19.91739 -0.01979
C 20.90385 19.16632 0.02691
C 20.93585 17.71771 -0.01581
C 19.72312 17.02796 0.01452
C 20.89947 26.26546 -0.00491
C 19.64168 15.67802 0.04892
C 20.96239 13.52736 -0.03557
C 19.643 12.77367 0.03754
C 19.64072 11.34715 0.01739
C 20.88772 10.58499 0.00755
C 20.91776 9.20211 -0.0054
C 19.69238 8.51022 0.00667
C 19.59635 7.10477 0.00143
C 20.81115 6.38611 -0.017
C 20.85023 14.91904 -0.00111
C 22.15488 17.02313 0.01087
C 14.78478 19.80443 0.01945
C 16.00887 22.01856 0.01241
C 6.16906 27.654 0.00895
C 6.11144 26.21885 0.00685
C 4.88332 25.50502 0.02888
C 4.89124 24.06139 -0.00482
C 6.16343 23.43187 -0.01384
C 6.08967 21.98561 0.03693
C 4.92712 21.26132 0.01745
C 4.98957 19.89635 0.00488
C 4.80076 0.07255 -0.01004
C 7.40311 32.64164 -0.02896
C 8.59988 31.93131 -0.00131
C 8.58639 30.58708 -0.01118
C 7.40304 29.84567 -0.014
C 7.39872 28.37464 0.02147
C 8.5985 27.73132 0.00373
C 8.57165 26.30517 -0.00191
C 7.32019 25.59858 0.00438
C 4.94273 28.4286 0.00393
C 4.92554 29.89597 0.0288
C 6.18002 30.51279 -0.0008
C 6.18821 31.96056 -0.01362
C 3.6961 30.56218 0.00873
C 2.46342 29.87029 -0.00049
C 2.44516 28.47993 0.00848
C 3.69211 27.74385 -0.01303
C 3.68695 26.22613 -0.01378
C 2.39436 25.58358 0.02635
C 2.40603 24.14211 0.0127
C 3.67857 23.37661 0.01396
C 7.40682 24.14093 0.01291
C 3.65793 21.93333 0.01849
C 2.55277 19.8389 -0.00562
C 3.82117 19.10283 -0.00494
C 3.56659 17.73312 0.00054
C 2.4303 17.08725 0.03007
C 2.42596 15.66154 -0.00095
C 3.73925 0.61819 0.01572
C 2.48361 0.03163 -0.04848
C 4.9808 32.73163 -0.00892
C 2.45158 21.22146 -0.01142
C 14.79924 21.28432 -0.01454
C 8.50834 23.39757 0.00093
C 7.29587 21.46445 -0.01634
C 12.26875 24.21052 -0.02689
C 13.51701 23.45937 -0.01046
C 13.5496 22.04905 -0.00891
C 12.34675 21.2088 0.02819
C 13.65986 2.16034 0.00165
C 13.49689 0.81665 -0.02971
C 12.26762 0.07353 0.02894
C 14.73591 32.65697 -0.01789
C 15.92342 31.90537 0.00444
C 15.991 30.50872 -0.00925
C 14.77848 29.80206 0.01877
C 14.71843 28.36615 0.01363
C 15.98559 27.74587 -0.02162
C 16.01273 26.32089 0.00415
C 14.73004 25.55383 -0.0014
C 14.84909 24.13781 0.02162
C 16.08372 23.45175 0.0076
C 12.26678 25.6087 -0.01536
C 13.48858 26.17965 0.03101
C 13.49559 27.63802 -0.00428
C 12.24137 28.46971 -0.02245
C 7.28657 33.97162 -0.00334
C 9.84284 32.69426 0.02339
C 11.06684 31.99206 0.01641
C 11.0232 30.62345 -0.00719
C 9.88549 29.81033 0.01364
C 9.80035 28.41084 -0.01062
C 11.04033 27.74288 -0.00033
C 11.0905 26.33117 0.03589
C 8.54708 21.93246 0.00057
C 9.83282 25.61564 -0.02759
C 11.07961 23.51126 0.00572
C 11.076 21.93424 0.03592
C 9.82013 21.4316 0.00406
C 9.94044 34.04669 0.00943
C 12.30468 32.77262 0.02841
C 13.51921 32.04957 -0.01111
C 13.57096 30.57601 -0.01275
C 12.28329 29.95666 0.00985
C 9.78446 24.16079 0.0402
C 22.11016 15.63856 0.00199
C 23.34991 14.91586 0.01511
C 23.34014 13.50636 -0.00478
C 31.98361 32.64488 -0.02142
C 33.21244 31.95564 0.0544
C 33.1555 30.54872 0.00026
C 31.94964 29.87126 0.00682
C 31.94244 28.42766 -0.01779
C 33.13236 27.69587 0.03794
C 33.1117 26.32128 0.01927
C 31.96673 25.52589 0.01574
C 31.94339 24.11811 -0.02383
C 33.18847 23.46672 -0.01429
C 33.20026 22.05453 -0.0136
C 32.01338 21.34954 0.00594
C 32.0006 19.84838 -0.02474
C 33.1882 19.17981 0.00369
C 33.1543 17.75866 0.00455
C 31.94254 17.05816 -0.00644
C 31.95163 15.63191 -0.01839
C 29.45107 34.01024 0.01428
C 30.65072 0.67177 -0.01694
C 30.725 2.089 0.01713
C 29.49655 2.87001 0.00346
C 30.70747 22.04227 0.03531
C 29.46827 21.33114 -0.00669
C 29.51908 19.87031 0.0101
C 30.74924 19.18379 0.01705
C 30.74953 17.77103 -0.0405
C 29.57702 17.07344 -0.01303
C 29.56797 15.66109 -0.01461
C 30.71033 14.90643 -0.02155
C 33.18914 14.95151 0.00137
C 30.7438 13.49816 -0.00944
C 29.45546 11.4155 -0.00971
C 30.73492 10.63605 0.01518
C 30.77534 9.18883 0.01908
C 29.58252 8.47568 0.07705
C 29.49479 7.10122 0.0103
C 30.73237 6.40979 0.02108
C 30.75629 5.00088 0.00716
C 29.51478 4.27027 0.00307
C 29.4943 12.75239 -0.03735
C 30.72694 23.46452 0.01836
C 33.23179 13.53338 0.00199
C 31.95512 11.3124 0.02806
C 0.05165 21.28526 0.01223
C 0.01379 19.90188 0.00648
C 1.26774 19.17147 0.02114
C 1.16108 17.73816 -0.02957
C 34.3815 17.00205 0.00343
C 34.41227 15.60772 -0.02656
C 1.27578 14.82503 -0.02442
C 1.08299 13.48089 -0.00027
C 34.41895 12.80667 -0.00583
C 34.41921 11.36201 -0.02302
C 1.12741 10.68689 -0.02849
C 34.40111 8.35969 0.02931
C 0.03292 7.16583 0.00628
C 34.39 4.30815 -0.0345
C 0.16487 2.84854 -0.00931
C 1.22358 2.01888 -0.00939
C 1.21288 0.71261 -0.00468
C 1.25633 21.95392 -0.01678
C 1.20232 23.41184 0.01951
C 34.41936 24.14462 -0.02213
C 34.3999 25.56337 0.02712
C 33.20355 10.64187 0.01504
C 33.27333 9.29236 -0.00069
C 32.01161 8.57106 0.04926
C 32.00768 7.19194 -0.03838
C 33.18741 6.38431 0.00349
C 33.22406 4.98799 -0.00323
C 31.97477 4.27202 -0.00841
C 31.99677 2.83673 0.0001
C 32.02536 12.75115 0.04381
C 33.17896 2.11369 -0.02927
C 31.92496 0.00866 0.01027
C 0.04791 32.72589 0.01831
C 1.25365 31.97262 -0.01037
C 1.18914 30.48675 -0.00439
C 34.34233 29.78695 -0.00598
C 34.4036 28.35948 -0.05239
C 1.25573 27.69562 0.03076
C 1.16839 26.24301 0.00723
C 33.14808 0.70295 -0.01404
C 29.46577 24.11129 -0.03039
C 29.46854 25.53549 -0.01415
C 30.72049 26.12869 -0.01854
C 25.79124 23.53223 -0.00178
C 25.84212 22.0671 0.00768
C 24.5911 21.30595 -0.0276
C 24.55339 19.86671 0.03005
C 25.77121 19.17903 -0.04078
C 25.78542 17.77319 0.02117
C 24.59014 17.01475 0.02737
C 24.59783 15.56523 -0.00498
C 25.86698 14.89408 0.00135
C 25.8048 13.52621 0.03102
C 24.60006 12.87024 0.02555
C 24.5601 11.40402 0.01423
C 25.76328 10.68394 -0.00285
C 25.82104 9.23875 -0.009
C 24.57829 8.57584 -0.01199
C 24.61182 7.09008 -0.00229
C 25.7515 6.35691 -0.00938
C 24.57462 24.11724 0.00733
C 24.58449 25.55379 -0.02118
C 25.80876 26.29671 -0.01971
C 25.81589 27.77825 -0.01586
C 22.1645 12.70098 -0.01662
C 22.10705 11.29621 -0.01185
C 23.29023 10.6557 0.01126
C 23.38877 9.24994 0.01852
C 22.16387 8.47998 -0.00381
C 22.0627 7.04582 0.03046
C 23.30509 6.3766 0.0296
C 23.37826 5.00113 0.03374
C 25.85315 4.92578 -0.0264
C 22.13679 4.26103 -0.02845
C 23.36522 2.04429 0.02239
C 23.37529 0.71297 0.01153
C 22.2342 0.05491 0.02734
C 24.61373 32.67763 -0.0055
C 25.85926 31.89257 0.01515
C 25.80309 30.49775 -0.00225
C 24.5374 29.80516 0.00071
C 24.58083 28.45718 -0.01107
C 22.1534 2.82759 -0.03213
C 24.54128 4.28042 -0.01154
C 24.53862 2.86781 0.00684
C 25.72786 2.12575 -0.01052
C 27.01643 11.27752 0.02611
C 28.26498 10.63706 0.02198
C 28.35422 9.20921 0.01094
C 27.08929 8.52937 0.00235
C 26.98471 7.13018 0.01495
C 28.16769 6.32081 0.01259
C 28.26928 4.93739 0.01799
C 27.06091 4.19806 0.01699
C 27.07974 12.71629 -0.00621
C 27.03135 2.76068 -0.00416
C 28.25959 0.70752 0.04266
C 27.06952 34.07282 0.01324
C 29.55012 32.60866 0.0014
C 30.74142 31.91699 0.00924
C 30.67964 30.54054 0.02326
C 29.59292 29.7322 0.00261
C 29.5928 28.33416 0.03265
C 30.76362 27.62698 -0.02049
C 28.32665 2.09494 0.01177
C 3.75993 31.98504 0.01227
C 28.28158 13.48099 0.00194
C 27.14547 15.67744 0.02316
C 25.75636 0.69744 -0.01679
C 24.613 34.05977 0.00367
C 27.0949 32.63824 0.04306
C 28.37533 31.9539 0.00996
C 28.33519 30.54966 0.00195
C 27.0733 29.85872 -0.00802
C 27.08308 28.36933 -0.00218
C 28.30954 27.70492 -0.01654
C 28.31979 14.955 0.04185
C 28.26637 26.35434 -0.00037
C 27.04867 24.16832 0.00622
C 28.26304 23.46659 -0.02815
C 28.23736 22.03631 -0.00942
C 27.02535 21.31864 0.00487
C 27.03252 19.90047 0.00826
C 28.27045 19.21119 -0.00294
C 28.31002 17.76189 0.00152
C 27.05148 17.09311 0.01257
C 27.04339 25.57338 -0.0032
C 2.54604 32.67026 -0.03337
