340
Graphene
C 34.43016 0.08584 0.01295
C 9.90927 2.83396 -0.00619
C 11.09863 2.1699 -0.02162
C 11.03602 0.73386 0.00889
C 9.74128 0.05541 -0.00481
C 12.26024 32.71005 0.00979
C 13.4346 31.98433 0.01443
C 13.47424 30.49807 0.03505
C 12.24612 29.84851 -0.02815
C 12.20182 28.31279 -0.04147
C 13.47472 27.63291 -0.05302
C 13.41774 26.13871 0.00213
C 12.16956 25.54019 -0.00066
C 12.27354 24.0012 -0.00289
C 13.52022 23.51752 0.00028
C 12.33985 6.98717 -0.02213
C 13.40822 6.53592 0.03698
C 13.53802 5.06116 -0.00109
C 9.74288 4.29786 0.01848
C 12.30616 4.27613 -0.00491
C 10.98077 5.0021 0.02098
C 9.83003 7.21254 0.0351
C 7.4056 4.24675 -0.01717
C 7.37058 2.91903 0.05265
C 8.52057 2.20201 -0.01952
C 8.53054 0.79052 -0.02813
C 7.30172 0.08715 0.00374
C 9.74716 32.73519 0.00052
C 11.03778 31.92923 -0.03682
C 11.09432 30.50851 0.01965
C 9.84021 29.79541 0.02058
C 9.84437 28.37214 -0.01957
C 11.02726 27.61034 -0.0108
C 10.95535 26.13774 -0.00368
C 9.7093 25.65968 -0.02696
C 9.8057 24.14693 -0.00114
C 10.92597 23.41124 0.00228
C 10.3338 21.91158 0.00798
C 9.89991 8.59181 0.00422
C 11.05007 6.4148 -0.03113
C 12.32385 2.88252 0.03338
C 13.54197 2.07763 -0.0258
C 13.40096 0.718 -0.0331
C 18.44855 27.69751 -0.04076
C 18.42458 26.26675 -0.00652
C 17.04121 25.62632 0.0058
C 17.23016 24.28492 -0.00865
C 18.31917 23.44045 0.00675
C 17.79392 6.41835 -0.00311
C 18.2607 5.01333 0.00742
C 17.14149 4.14954 -0.01594
C 17.19072 2.78437 0.0106
C 18.37853 2.06628 -0.01154
C 18.36031 0.72492 -0.01721
C 17.19598 0.03223 -0.02422
C 19.59422 32.68648 0.01277
C 20.86705 31.97755 0.00096
C 20.90931 30.47314 -0.01527
C 19.73954 29.85465 0.01087
C 19.67239 28.44807 0.00199
C 17.19612 28.34423 -0.00703
C 17.23857 29.84898 0.00654
C 18.49118 30.57295 -0.04422
C 18.45936 31.99671 -0.02957
C 12.2189 34.05943 -0.00316
C 14.65513 32.71311 0.02188
C 15.93557 31.9905 -0.01979
C 16.01872 30.58502 0.02691
C 14.70963 29.81422 -0.01581
C 14.75287 28.34481 0.01452
C 15.94641 27.6864 0.04892
C 15.8775 26.27595 -0.00111
C 8.57014 4.97155 0.00244
C 14.69108 25.52671 -0.03557
C 16.3961 6.33757 0.01739
C 15.9089 4.86654 0.00755
C 14.66426 4.30919 -0.0054
C 14.73473 2.82768 0.00667
C 15.89463 2.1164 0.00143
C 15.9308 0.70038 -0.017
C 14.67844 0.04609 0.00364
C 17.19487 32.72306 -0.00831
C 14.64527 24.11497 0.03754
C 20.86472 27.71452 0.01511
C 8.61052 6.38316 0.02299
C 7.41278 8.51818 0.01416
C 2.48473 8.60805 -0.00482
C 2.45163 7.18731 -0.01384
C 3.67824 6.50457 0.03693
C 3.67373 5.04761 0.01745
C 2.36238 4.34302 0.00488
C 2.35701 2.91333 -0.01004
C 3.56375 2.21026 -0.02896
C 3.58833 0.79149 -0.00131
C 2.34942 0.07374 -0.01118
C 4.78016 32.66854 -0.014
C 6.01359 31.97305 0.02147
C 6.07684 30.57916 0.00373
C 4.88529 29.84903 -0.00191
C 4.92735 28.38776 0.00438
C 6.20589 27.71403 0.01291
C 6.14684 26.35217 0.00093
C 4.95713 25.56413 0.00057
C 3.70751 9.2917 0.02888
C 4.89178 24.12755 -0.01634
C 3.66183 10.65309 0.00685
C 2.46962 12.7303 0.00393
C 3.64609 30.56893 -0.01378
C 2.4488 29.82028 0.02635
C 2.42396 28.35635 0.0127
C 3.62698 27.74373 0.01396
C 3.70882 26.34357 0.01849
C 2.49187 25.60897 -0.01142
C 2.54072 24.1419 -0.00562
C 3.68596 23.45298 -0.00494
C 3.70151 22.04147 0.00054
C 2.49837 21.32717 0.03007
C 2.40976 19.91039 -0.00095
C 3.66021 19.24335 0.01572
C 3.69907 17.85259 -0.04848
C 2.43428 17.02714 -0.00892
C 2.40449 15.67454 -0.01362
C 3.64017 14.9113 -0.0008
C 3.7453 13.4424 0.0288
C 2.42204 11.34675 0.00895
C 6.13415 23.43116 -0.00334
C 6.31889 22.00701 0.02339
C 5.05423 21.35851 0.01641
C 8.55857 30.44206 0.02819
C 7.3887 29.80344 0.00165
C 7.43793 28.36858 -0.02971
C 8.62191 27.64877 0.02894
C 8.58308 26.30793 -0.01789
C 7.33711 25.5592 0.00444
C 7.3298 24.12988 -0.00925
C 8.57904 23.50967 0.01877
C 8.86733 22.07625 0.01363
C 7.68967 21.27561 -0.02162
C 7.51377 19.94166 0.00415
C 7.39915 16.93912 -0.0014
C 7.17775 15.62946 0.02162
C 7.35764 12.81655 0.0076
C 7.4771 11.4425 0.01241
C 8.54244 10.66584 -0.01454
C 8.73249 9.30789 0.01945
C 8.53378 31.94005 -0.00891
C 7.28462 32.74376 -0.01046
C 4.79159 0.07233 -0.02689
C 6.00978 0.76875 -0.01536
C 4.94538 19.87296 -0.00719
C 6.32662 19.29598 0.01364
C 6.30466 17.78771 -0.01062
C 5.00379 17.09045 -0.00033
C 4.8961 15.59071 0.03589
C 6.10147 14.88305 -0.02759
C 6.16357 13.43842 0.0402
C 4.92687 12.71238 0.00572
C 7.36052 7.16254 0.03542
C 4.92585 11.27035 0.03592
C 6.24299 9.24422 0.00943
C 4.96223 8.55248 0.02841
C 4.96884 7.14943 -0.01111
C 6.13679 6.39229 -0.01275
C 6.1702 5.00909 0.00985
C 4.92493 4.35712 -0.02245
C 4.87288 3.0004 -0.00428
C 6.0705 2.33029 0.03101
C 6.20991 10.66733 0.00406
C 20.82707 26.3344 -0.00478
C 19.59474 25.53087 -0.01662
C 19.65995 23.99538 -0.01185
C 31.8915 29.86919 -0.02142
C 31.9002 28.42413 0.0544
C 33.14511 27.71724 0.00026
C 33.19781 26.2709 0.00682
C 31.89932 25.60153 -0.01779
C 31.99512 24.20251 0.03794
C 33.25403 23.44413 0.01927
C 33.21597 21.93628 0.01574
C 31.93808 21.27887 -0.02383
C 31.82073 19.82482 -0.01429
C 33.0929 19.17488 -0.0136
C 33.05669 17.82444 0.00594
C 31.87132 17.05552 -0.02474
C 31.9392 15.64104 0.00369
C 33.17367 14.95353 0.00455
C 33.18373 13.52542 -0.00644
C 31.86824 12.76238 -0.01839
C 33.24529 30.58891 0.01428
C 31.94427 11.31129 0.00137
C 33.17957 32.06936 -0.01694
C 29.33019 34.01184 0.00346
C 30.6511 17.72993 -0.00669
C 29.29077 16.87553 0.0101
C 29.50987 15.52102 0.01705
C 30.74014 14.95924 -0.0405
C 30.7185 13.54863 -0.01303
C 29.52062 12.88771 -0.01461
C 29.40131 11.50368 -0.02155
C 30.67401 10.69408 -0.00944
C 30.60985 9.38112 -0.03735
C 29.31583 8.60167 -0.00971
C 29.41405 7.15646 0.01518
C 30.74785 6.40455 0.01908
C 30.66194 4.96404 0.07705
C 29.45716 4.20577 0.0103
C 29.36099 2.77718 0.02108
C 30.60387 2.09603 0.00716
C 30.60201 0.67302 0.00307
C 31.97752 32.7219 0.01713
C 33.2327 10.641 0.00199
C 33.07846 9.23977 0.04381
C 31.85266 8.56992 0.02806
C 1.156 17.72686 0.01223
C 34.35545 17.04198 0.00648
C 34.38589 15.59188 0.02114
C 1.16957 14.90307 -0.02957
C 1.17839 13.48288 0.00343
C 34.35417 12.82213 -0.02656
C 34.41932 11.40375 -0.02442
C 1.13281 10.73256 -0.00027
C 1.23295 9.25584 -0.00583
C 34.3155 8.58593 -0.02302
C 34.34493 7.24895 -0.02849
C 1.14022 6.42755 0.02931
C 1.10607 5.01777 0.00628
C 34.35032 4.28993 -0.0345
C 34.33097 2.85566 -0.00931
C 1.15683 2.18488 -0.00939
C 1.13491 0.82203 -0.00468
C 1.20237 19.15033 -0.01678
C 34.33712 19.82432 0.01951
C 34.39836 21.24204 -0.02213
C 1.25183 21.95754 0.02712
C 31.95962 7.15389 0.01504
C 33.18527 6.42592 -0.00069
C 33.16667 5.01006 0.04926
C 31.93537 4.29229 -0.03838
C 31.85169 2.90086 0.00349
C 33.066 2.18036 -0.00323
C 33.17883 0.77451 -0.00841
C 31.87534 0.05568 0.0001
C 30.52466 19.18583 0.03531
C 0.02744 32.73917 -0.02927
C 1.24496 30.47267 0.01027
C 0.0054 29.79362 0.01831
C 34.33719 28.36679 -0.01037
C 1.16584 27.68483 -0.00439
C 1.24343 26.24563 -0.00598
C 0.00611 25.67483 -0.05239
C 34.40284 24.20741 0.03076
C 1.206 23.47239 0.00723
C 1.22409 31.95165 -0.01404
C 29.35689 19.88245 0.01836
C 29.3777 21.32215 -0.03039
C 30.70117 22.06271 -0.01415
C 22.13132 2.84027 -0.0276
C 23.2543 2.12032 0.03005
C 23.27534 0.58378 -0.04078
C 22.05049 34.03679 0.02117
C 24.61113 32.65715 0.02737
C 25.78755 31.98307 -0.00498
C 25.82413 30.5794 0.00135
C 24.54273 29.79834 0.03102
C 24.54529 28.37388 0.02555
C 25.78212 27.71534 0.01423
C 25.80772 26.29583 -0.00285
C 24.55342 25.63639 -0.009
C 24.52573 24.22536 -0.01199
C 25.76807 23.37119 -0.00229
C 25.56436 21.98996 -0.00938
C 24.29025 21.51271 -0.0264
C 24.56799 6.91383 -0.01154
C 22.0151 4.21636 0.00768
C 23.25917 4.98401 -0.00178
C 23.30951 6.47553 0.00733
C 23.05418 22.02677 -0.02118
C 21.01709 23.35952 0.01126
C 21.79802 22.10786 0.01852
C 20.81692 4.86394 -0.00381
C 19.50739 4.39032 0.03046
C 19.52246 2.89654 0.0296
C 20.85055 2.12412 0.03374
C 20.81785 0.64042 -0.02845
C 19.62039 34.07664 -0.03213
C 25.74966 6.47649 0.00684
C 22.08181 32.59795 0.02239
C 23.31423 30.53093 0.02734
C 22.08279 29.74717 -0.0055
C 22.09571 28.43049 0.01515
C 23.30961 27.71801 -0.00225
C 23.29196 26.33153 0.00071
C 22.10009 25.65359 -0.01107
C 22.05068 24.2737 -0.01586
C 23.31135 23.57157 -0.01971
C 23.3336 31.96037 0.01153
C 3.60445 31.93752 -0.01303
C 25.78459 4.99197 -0.01052
C 24.48281 2.83023 0.00367
C 28.20499 6.45395 0.01094
C 28.246 5.0087 0.00235
C 26.99348 4.31146 0.01495
C 26.95664 2.80566 0.01259
C 28.15836 2.1507 0.01799
C 28.20731 0.69924 0.01699
C 26.9316 0.01766 -0.00416
C 29.51747 32.67038 0.01177
C 30.74471 31.94975 0.04266
C 30.73531 30.59495 0.01324
C 29.49254 29.83624 0.0014
C 29.5292 28.39078 0.00924
C 30.69911 27.66748 0.02326
C 30.67013 26.29421 0.00261
C 29.41845 25.55741 0.03265
C 29.59153 24.07336 -0.02049
C 30.76318 23.44983 -0.01854
C 26.95606 7.24577 0.02198
C 26.87502 8.5683 0.02611
C 27.95224 9.41458 -0.00621
C 28.24171 10.70654 0.00194
C 25.63356 2.14627 0.04306
C 25.73504 0.73559 0.00996
C 24.53139 34.00761 0.00195
C 27.03315 32.70858 -0.00802
C 28.30905 31.99203 -0.00218
C 28.28497 30.52946 -0.01654
C 27.05846 29.84122 -0.00037
C 27.05741 28.41375 -0.0032
C 24.47001 4.27553 -0.01679
C 28.28055 27.72294 0.00622
C 27.01339 25.50826 -0.00942
C 26.96813 24.14737 0.00487
C 28.32424 23.36749 0.00826
C 28.1 21.98884 -0.00294
C 26.78945 21.24124 0.00152
C 26.74477 19.85234 0.01257
C 28.00866 19.09997 0.02316
C 28.20546 17.66501 0.04185
C 28.23171 26.27482 -0.02815
C 2.40839 32.74944 0.00848
