394
Graphene
C 34.38828 34.0536 0.01295
C 13.59739 23.49678 -0.00925
C 11.79446 12.94063 0.01877
C 12.2897 11.57605 0.01363
C 13.51786 10.88051 -0.02162
C 13.52747 9.3255 0.00415
C 12.33222 8.57806 -0.0014
C 12.29681 7.13035 0.02162
C 13.50364 6.4765 0.0076
C 13.48126 4.95367 0.01241
C 12.30928 23.9339 0.00444
C 12.30297 4.22451 -0.01454
C 13.56006 2.13131 0.01416
C 13.54741 0.68989 0.03542
C 12.33473 0.00175 0.02299
C 14.80596 32.60265 0.00244
C 15.97736 31.85676 -0.01717
C 15.98541 30.48224 0.05265
C 14.67747 29.81385 -0.01952
C 14.71208 28.35578 -0.02813
C 15.88463 27.61199 0.00374
C 12.2762 2.79113 0.01945
C 12.27472 25.48355 -0.01789
C 13.4923 26.18246 0.02894
C 13.40076 27.68683 -0.02971
C 9.75746 25.61825 -0.00033
C 9.74751 24.20353 0.03589
C 10.99751 23.55568 -0.02759
C 10.12139 12.74876 0.0402
C 9.89129 11.34134 0.00572
C 11.11255 10.6875 0.03592
C 11.08308 9.31189 0.00406
C 9.84482 8.58687 0.00943
C 9.82065 7.16594 0.02841
C 11.0641 6.46346 -0.01111
C 11.01367 5.03589 -0.01275
C 9.84011 4.25544 0.00985
C 9.89512 2.84144 -0.02245
C 11.08934 2.09849 -0.00428
C 11.07409 0.71986 0.03101
C 9.85568 0.06434 -0.01536
C 12.25781 32.6329 -0.02689
C 13.54163 31.93051 -0.01046
C 13.50551 30.5067 -0.00891
C 12.23983 29.877 0.02819
C 12.18906 28.47922 0.00165
C 15.93885 26.18433 0.00052
C 11.04922 26.27129 -0.01062
C 14.74294 25.53534 -0.03682
C 16.0104 23.50145 0.02058
C 18.31969 13.47615 0.00028
C 16.98693 12.75228 -0.02213
C 17.20464 11.35067 0.03698
C 18.46895 10.7138 -0.00109
C 18.43891 9.31634 -0.00491
C 17.20202 8.51721 0.03338
C 17.17723 7.10565 -0.0258
C 18.45032 6.39413 -0.0331
C 18.44105 5.01232 -0.00316
C 18.64839 14.74673 -0.00289
C 17.2573 4.24229 0.02188
C 18.39104 2.10801 0.02691
C 18.40881 0.69243 -0.01581
C 17.21421 33.99969 0.01452
C 19.67106 32.6326 0.04892
C 20.87452 31.97631 -0.00111
C 20.79971 30.50542 -0.03557
C 19.6213 29.78877 0.03754
C 19.66543 28.37614 0.01739
C 20.80814 27.6786 0.00755
C 17.20625 2.84304 -0.01979
C 18.51399 22.049 -0.00066
C 18.46363 23.4467 0.00213
C 17.24393 24.06662 -0.05302
C 15.10213 12.89211 -0.01957
C 14.83235 11.46543 -0.0108
C 15.99358 10.66392 -0.00368
C 16.02231 9.2311 -0.02696
C 14.7702 8.50831 -0.00114
C 14.76528 7.09337 0.00228
C 15.9404 6.33301 0.00798
C 15.99828 4.97711 0.00422
C 14.81937 4.28432 0.0351
C 14.74305 2.85253 -0.03113
C 15.98523 2.09875 0.02098
C 15.98171 0.67499 0.01848
C 14.78876 34.01736 -0.00619
C 17.14043 32.59211 -0.02162
C 18.36762 31.93419 0.00889
C 18.36619 30.45762 -0.00481
C 17.09611 29.77568 0.00979
C 17.19892 28.35161 0.01443
C 18.41281 27.645 0.03505
C 18.37093 26.20754 -0.02815
C 17.20407 25.4635 -0.04147
C 14.81477 24.13006 0.01965
C 10.96845 27.73794 0.01364
C 9.77189 28.50102 -0.00719
C 9.76733 29.90389 0.01641
C 2.41595 4.30104 0.01996
C 2.39584 2.81365 -0.03996
C 3.63215 2.11713 0.01465
C 3.65826 0.69773 -0.00074
C 2.47674 34.02404 -0.00518
C 4.97357 32.7609 0.0086
C 6.13115 32.01578 -0.00643
C 6.13813 30.54345 0.017
C 4.89068 29.84192 -0.03113
C 3.56044 5.04241 -0.00279
C 4.88125 28.41807 -0.02566
C 6.06063 26.28735 0.02322
C 4.81344 25.59424 -0.00725
C 4.84056 24.20477 -0.05697
C 6.07477 23.44966 0.01087
C 6.21001 21.96699 -0.01343
C 4.91107 21.34096 0.00988
C 4.86532 19.88735 0.0276
C 6.14882 19.1335 0.01305
C 6.08208 17.66133 -0.00077
C 6.15146 27.73911 -0.00094
C 3.63665 6.42269 0.01226
C 2.38593 7.17942 0.03828
C 2.39741 8.54347 0.0174
C 3.70318 30.53328 -0.00561
C 2.49183 29.77473 0.00208
C 2.47378 28.37717 0.01707
C 3.62125 27.7271 0.02769
C 3.63062 26.30954 -0.03291
C 2.358 25.58818 -0.04999
C 2.42705 24.21751 0.04505
C 3.61469 23.45672 0.03284
C 3.63475 22.04916 -0.04307
C 2.4552 21.31751 0.03189
C 2.45132 19.96068 0.00031
C 3.62925 19.1375 -0.003
C 3.65852 17.67067 0.01402
C 2.46959 16.94798 0.02379
C 2.47618 15.57785 0.00907
C 3.66238 14.87171 0.00643
C 3.64097 13.51896 -0.01509
C 2.45356 12.78283 0.03267
C 2.39549 11.38557 0.02374
C 3.63709 10.706 0.00402
C 3.6174 9.3063 0.0073
C 4.82857 16.9872 0.03368
C 4.89742 15.58944 -0.02929
C 6.11386 14.95623 -0.00966
C 6.22151 13.5216 -0.03337
C 7.35579 19.76968 0.02888
C 7.38935 17.18381 -0.00482
C 7.50729 15.76005 -0.01384
C 8.44063 14.7178 0.03693
C 8.82842 13.43152 0.01745
C 7.50477 12.79645 0.00488
C 7.367 11.40479 -0.01004
C 8.65972 10.70086 -0.02896
C 8.59954 9.33089 -0.00131
C 7.3486 8.5576 -0.01118
C 7.27295 7.17262 -0.014
C 8.55911 6.51802 0.02147
C 8.6092 5.02272 0.00373
C 7.35825 4.37454 -0.00191
C 7.4086 2.90034 0.00438
C 8.59899 2.24006 0.01291
C 8.66239 0.78918 0.00093
C 7.34517 0.1151 0.00057
C 9.80957 32.74771 -0.01634
C 11.03666 31.96295 -0.00334
C 10.93661 30.59224 0.02339
C 7.44045 21.1686 0.00685
C 20.86784 26.26096 -0.0054
C 8.34032 22.19002 0.00895
C 7.2971 24.19079 0.0288
C 4.91865 12.84147 0.01227
C 4.90629 11.42602 0.00873
C 6.11701 10.70673 -0.00049
C 6.06895 9.28748 0.00848
C 4.87746 8.58567 -0.01303
C 4.86416 7.20441 -0.01378
C 6.08779 6.48213 0.02635
C 6.12101 5.06578 0.0127
C 4.86305 4.33166 0.01396
C 4.88444 2.91921 0.01849
C 6.17581 2.1949 -0.01142
C 6.09729 0.80198 -0.00562
C 4.93981 0.03495 -0.00494
C 7.38088 32.76495 0.00054
C 8.55672 32.06075 0.03007
C 8.6042 30.63051 -0.00095
C 7.36603 29.91698 0.01572
C 7.33226 28.44169 -0.04848
C 8.6067 27.75683 -0.00892
C 8.53562 26.35263 -0.01362
C 7.35067 25.6163 -0.0008
C 8.5029 23.51752 0.00393
C 19.63525 25.55976 0.00667
C 19.70909 24.08613 0.00143
C 20.92094 23.34804 -0.017
C 30.70142 6.38853 0.01908
C 30.725 4.92336 0.07705
C 29.47026 4.26539 0.0103
C 29.46366 2.87114 0.02108
C 30.663 2.12142 0.00716
C 30.68418 0.69298 0.00307
C 29.40304 34.07375 0.00346
C 31.94691 32.66652 0.01713
C 33.22718 31.9284 -0.01694
C 29.49869 7.06639 0.01518
C 33.21994 30.54215 0.01428
C 31.95025 28.38934 0.0544
C 33.1837 27.71847 0.00026
C 33.11309 26.29116 0.00682
C 31.90991 25.5103 -0.01779
C 31.89271 24.15453 0.03794
C 33.14617 23.50286 0.01927
C 33.23637 22.08766 0.01574
C 32.14069 21.22958 -0.02383
C 32.04073 20.0125 -0.01429
C 31.95292 29.81306 -0.02142
C 29.51471 8.50222 -0.00971
C 30.75048 9.3025 -0.03735
C 30.72815 10.66149 -0.00944
C 28.27789 4.95768 0.01177
C 27.1027 4.29337 0.04266
C 26.96807 2.83217 0.01324
C 28.20442 2.16342 0.0014
C 28.19702 0.7137 0.00924
C 26.9762 34.06875 0.02326
C 29.46173 32.67505 0.00261
C 30.6757 31.98935 0.03265
C 30.7182 30.52093 -0.02049
C 29.49852 29.78586 -0.01854
C 29.43806 28.37804 -0.01415
C 30.7218 27.66013 -0.03039
C 30.68123 26.22843 0.01836
C 29.42079 25.55358 0.03531
C 29.57812 24.18974 -0.00669
C 30.65346 23.49807 0.0101
C 29.55016 15.74235 0.01705
C 30.74353 14.96346 -0.0405
C 30.73053 13.52517 -0.01303
C 29.48599 12.81849 -0.01461
C 29.51057 11.43531 -0.02155
C 33.23202 19.10021 -0.0136
C 33.18905 17.75397 0.00594
C 32.03246 17.03024 -0.02474
C 31.96257 15.59436 0.00369
C 1.22231 22.0172 0.02712
C 34.42234 21.34782 -0.02213
C 34.42802 19.90468 0.01951
C 1.28569 19.21333 -0.01678
C 1.28481 17.73653 0.01223
C 0.00241 17.00529 0.00648
C 34.41971 15.59777 0.02114
C 1.21519 14.86688 -0.02957
C 1.19749 13.49303 0.00343
C 34.40081 12.75045 -0.02656
C 34.41469 11.41879 -0.02442
C 1.18089 10.64978 -0.00027
C 1.16599 9.24716 -0.00583
C 34.38087 8.48456 -0.02302
C 34.36619 7.11384 -0.02849
C 1.16751 6.44857 0.02931
C 1.20838 5.01792 0.00628
C 0.00731 4.25484 -0.0345
C 34.36449 2.82153 -0.00931
C 1.18054 2.11843 -0.00939
C 1.21844 0.63583 -0.00468
C 1.16729 23.46821 0.00723
C 28.26382 6.39755 -0.00416
C 34.32317 24.17756 0.03076
C 1.18527 26.34949 -0.00598
C 33.14259 14.88262 0.00455
C 33.17833 13.50582 -0.00644
C 31.90274 12.80368 -0.01839
C 31.93301 11.36287 0.00137
C 33.18479 10.66638 0.00199
C 33.17048 9.24255 0.04381
C 32.0081 8.46848 0.02806
C 31.9422 7.09771 0.01504
C 33.18378 6.39931 -0.00069
C 33.18891 4.99185 0.04926
C 31.92571 4.21975 -0.03838
C 31.91925 2.81155 0.00349
C 33.14309 2.1124 -0.00323
C 33.15031 0.68699 -0.00841
C 31.95119 0.05348 0.0001
C 0.01267 32.63389 -0.02927
C 1.26901 31.91232 -0.01404
C 1.29128 30.49251 0.01027
C 0.03513 29.77884 0.01831
C 34.40596 28.42592 -0.01037
C 1.20504 27.71272 -0.00439
C 34.37595 25.61712 -0.05239
C 3.69205 31.96645 -0.01977
C 27.02913 7.06823 0.01699
C 28.2577 9.2146 0.01259
C 22.08036 29.86974 -0.01662
C 21.99455 28.43343 -0.01185
C 23.20966 27.68094 0.01126
C 23.25345 26.26623 0.01852
C 22.07381 25.59797 -0.00381
C 22.14007 24.12634 0.03046
C 23.53305 23.3344 0.0296
C 23.36641 21.91015 0.03374
C 22.19558 21.25899 -0.02845
C 23.31422 30.52838 -0.00478
C 22.24982 19.897 -0.03213
C 23.53621 17.72167 0.01153
C 22.34236 16.99137 0.02734
C 22.18265 15.60082 -0.0055
C 23.40291 14.87571 0.01515
C 23.47274 13.45716 -0.00225
C 22.1934 12.79981 0.00071
C 22.12144 11.31628 -0.01107
C 23.37452 10.67382 -0.01586
C 23.35834 9.22709 -0.01971
C 23.26572 19.04458 0.02239
C 23.27267 31.93366 0.01511
C 22.03204 32.65565 0.00199
C 19.62385 34.06509 0.01087
C 20.90596 21.91973 0.00364
C 19.6565 21.24859 -0.00831
C 19.80779 19.79276 -0.02957
C 20.94026 19.08525 -0.04422
C 21.10634 17.64836 0.00654
C 19.81151 17.00403 -0.00703
C 19.62336 15.6458 -0.04076
C 20.9899 14.88216 -0.00652
C 20.94414 13.43647 0.0058
C 19.61087 12.81193 -0.00865
C 19.71537 11.42819 0.00675
C 20.91175 10.61975 -0.00311
C 20.90241 9.22255 0.00742
C 19.69197 8.54688 -0.01594
C 19.70341 7.17113 0.0106
C 20.88662 6.46683 -0.01154
C 20.94033 4.99087 -0.01721
C 19.6822 4.23574 -0.02422
C 19.61441 2.81109 0.01277
C 20.84051 2.09046 0.00096
C 20.82693 0.73754 -0.01527
C 22.10029 8.50542 -0.02118
C 22.14526 7.13212 0.00733
C 23.37507 6.39068 -0.00178
C 23.32303 5.03157 0.00768
C 25.78246 5.01739 -0.00218
C 24.58169 4.27392 -0.01654
C 24.56232 2.82539 -0.00037
C 25.76746 2.15909 -0.0032
C 25.73605 0.74062 0.00622
C 24.52995 34.02179 -0.02815
C 27.05112 32.62407 -0.00942
C 28.29742 31.86788 0.00487
C 28.24772 30.43632 0.00826
C 26.99406 29.78436 -0.00294
C 26.98669 28.30581 0.00152
C 28.25639 27.59618 0.01257
C 28.10899 26.16484 0.02316
C 26.88551 25.4813 0.04185
C 26.6562 24.08119 0.00194
C 27.01258 15.63668 -0.00621
C 28.32476 15.16785 0.02611
C 28.33834 13.60071 0.02198
C 27.13833 12.81105 0.01094
C 27.09068 11.36183 0.00235
C 28.30266 10.64214 0.01495
C 25.85155 6.46341 -0.00802
C 27.07927 8.53171 0.01799
C 24.63725 7.09645 0.00195
C 25.79337 9.1829 0.04306
C 22.16108 4.31144 -0.0276
C 22.13195 2.91964 0.03005
C 23.32024 2.14638 -0.04078
C 23.32898 0.73828 0.02117
C 22.10979 0.06565 0.02737
C 24.54233 32.63347 -0.00498
C 25.78337 31.92911 0.00135
C 25.74751 30.44121 0.03102
C 24.52823 29.74081 0.02555
C 24.43995 28.34262 0.01423
C 25.72746 27.65453 -0.00285
C 25.62672 26.26959 -0.009
C 24.46593 25.4861 -0.01199
C 24.70226 24.13233 -0.00229
C 24.6847 16.95045 -0.00938
C 24.67053 15.50074 -0.0264
C 25.89092 14.81958 -0.01154
C 25.85743 13.46024 0.00684
C 24.64068 12.72717 -0.01052
C 24.67702 11.35361 -0.01679
C 25.81087 10.66459 0.00367
C 24.58679 8.50907 0.00996
C 2.46926 32.63858 0.02784
