409
Graphene
C 34.39939 34.0576 0.01295
C 12.2611 29.88168 -0.01536
C 12.2541 28.39507 -0.02689
C 13.44116 27.72046 -0.01046
C 13.52176 26.36781 -0.00891
C 12.28486 25.6358 0.02819
C 12.30433 24.20774 0.00165
C 13.48952 23.37916 -0.02971
C 13.44091 21.91195 0.02894
C 12.27336 21.2421 -0.01789
C 12.31855 19.76156 0.00444
C 13.52455 19.07663 -0.00925
C 13.60397 17.76403 0.01877
C 12.37147 17.0905 0.01363
C 12.25803 15.68399 -0.02162
C 13.57853 14.87084 0.00415
C 13.48719 13.48962 -0.0014
C 12.31131 12.71944 0.02162
C 12.39539 11.24868 0.0076
C 13.53489 10.6193 0.01241
C 13.52384 9.17274 -0.01454
C 12.2495 8.40473 0.01945
C 13.51531 30.63721 0.03101
C 13.4432 31.97464 -0.00428
C 12.20801 32.72603 -0.02245
C 9.72497 0.09331 0.00985
C 11.14073 23.41901 0.00438
C 11.0864 21.96818 0.01291
C 9.808 21.33038 0.00093
C 9.76998 19.8885 0.00057
C 11.04104 19.16165 -0.01634
C 11.14028 17.74372 -0.00334
C 9.8906 17.07154 0.02339
C 9.83757 15.71314 0.01641
C 11.0593 14.89362 -0.00719
C 11.09116 13.50719 0.01364
C 12.23828 7.0564 0.01416
C 9.85364 12.78935 -0.01062
C 11.00463 10.6075 0.03589
C 11.03292 9.23312 -0.02759
C 9.81467 8.49109 0.0402
C 9.80907 7.15148 0.00572
C 11.13994 6.36192 0.03592
C 11.1272 4.97493 0.00406
C 9.80627 4.34386 0.00943
C 9.8893 2.95615 0.02841
C 11.116 2.26546 -0.01111
C 11.0199 0.7959 -0.01275
C 9.89007 11.37604 -0.00033
C 9.90129 24.09987 -0.00191
C 12.29077 4.25251 0.03542
C 13.64671 2.02124 0.00244
C 15.88615 0.63206 0.01443
C 14.70551 34.045 0.03505
C 17.22569 32.74822 -0.02815
C 18.39015 32.0231 -0.04147
C 18.41065 30.51905 -0.05302
C 17.25127 29.85189 0.00213
C 17.24003 28.37276 -0.00066
C 18.4681 27.63308 -0.00289
C 18.36092 26.20818 0.00028
C 17.16805 25.51955 -0.02213
C 17.22789 24.09097 0.03698
C 18.45935 23.38763 -0.00109
C 18.4997 21.97153 -0.00491
C 17.21046 21.28207 0.03338
C 17.12099 19.92739 -0.0258
C 18.36996 19.274 -0.0331
C 18.39201 17.83485 -0.00316
C 17.21627 17.00685 0.02188
C 17.18029 15.60305 -0.01979
C 18.3349 14.90982 0.02691
C 18.45559 13.4621 -0.01581
C 14.71689 8.61105 0.00979
C 15.95527 9.18998 -0.00481
C 15.96311 10.70627 0.00889
C 14.7586 11.3224 -0.02162
C 13.45761 0.74691 -0.01717
C 12.193 0.13379 0.05265
C 14.72917 32.65796 -0.01952
C 15.95555 31.97631 -0.02813
C 16.02734 30.55655 0.00374
C 14.76979 29.8587 0.00052
C 14.71726 28.42277 -0.03682
C 15.93828 27.7352 0.01965
C 15.9622 26.27928 0.02058
C 14.71178 25.52888 -0.01957
C 12.45832 2.92264 0.02299
C 14.70119 24.09139 -0.0108
C 15.91653 22.05447 -0.02696
C 14.69572 21.28389 -0.00114
C 14.72644 19.86976 0.00228
C 15.96076 19.14108 0.00798
C 15.98024 17.77188 0.00422
C 14.78813 17.05332 0.0351
C 14.81397 15.62005 -0.03113
C 15.94824 14.97554 0.02098
C 15.97726 13.5074 0.01848
C 14.73195 12.76501 -0.00619
C 15.91925 23.36864 -0.00368
C 9.85317 25.5269 0.00373
C 11.07056 26.29239 0.02147
C 11.00899 27.7402 -0.014
C 2.3896 2.85603 -0.003
C 3.59921 2.17391 0.01402
C 3.59876 0.70928 0.02379
C 2.4146 34.03946 0.00907
C 4.84729 32.70533 0.00643
C 6.08924 32.02367 -0.01509
C 6.0409 30.61112 0.03267
C 4.85216 29.85829 0.02374
C 4.83754 28.48153 0.00402
C 6.11244 27.74814 0.0073
C 6.14424 26.30468 0.0174
C 4.93099 25.57216 0.03828
C 4.99195 24.20124 0.01226
C 6.24142 23.45147 -0.00279
C 6.18062 22.05488 0.01996
C 4.84773 21.32913 -0.03996
C 4.8064 19.91761 0.01465
C 6.05175 19.21638 -0.00074
C 6.14165 17.70942 -0.00518
C 4.93828 17.04258 0.0086
C 4.93492 15.63244 -0.00643
C 2.4352 4.27911 0.00031
C 3.67656 4.95736 0.03189
C 3.71291 6.39504 -0.04307
C 2.39213 7.06786 0.03284
C 3.58417 30.57878 -0.02375
C 2.24827 29.83911 0.00558
C 2.36968 28.47222 -0.0059
C 3.62705 27.82012 -0.01386
C 3.63838 26.33017 -0.02805
C 2.4923 25.60344 0.00081
C 2.45461 24.08708 0.00245
C 3.74778 23.39438 0.02728
C 3.73568 21.98633 -0.00039
C 2.46568 21.35239 0.0064
C 6.15603 14.8249 0.017
C 2.40435 19.94682 0.00211
C 3.6709 17.76584 -0.01979
C 2.48409 17.10059 0.02784
C 2.41881 15.63042 -0.01977
C 3.68601 14.96202 -0.00561
C 3.71112 13.57829 0.00208
C 2.46552 12.80558 0.01707
C 2.45593 11.38539 0.02769
C 3.6667 10.57567 -0.03291
C 3.61683 9.25627 -0.04999
C 2.36733 8.48179 0.04505
C 3.64434 19.18166 -0.00449
C 6.15098 13.40793 -0.03113
C 4.82979 12.74481 -0.02566
C 4.92038 11.30733 -0.00094
C 7.35245 17.03421 0.00054
C 7.28313 15.63806 0.03007
C 8.60916 14.97056 -0.00095
C 8.6526 13.5277 0.01572
C 7.36932 12.76258 -0.04848
C 7.40424 11.3853 -0.00892
C 8.63767 10.71402 -0.01362
C 8.59464 9.27645 -0.0008
C 7.38115 8.62471 0.0288
C 7.38065 7.18092 0.00393
C 8.56363 17.83633 -0.00494
C 8.56587 6.45021 0.00895
C 7.40566 4.37969 0.02888
C 7.32047 2.96283 -0.00482
C 8.6338 2.24719 -0.01384
C 8.57074 0.86776 0.03693
C 7.32559 0.08984 0.01745
C 9.78056 32.75049 0.00488
C 10.94486 31.9611 -0.01004
C 11.07853 30.56279 -0.02896
C 9.82725 29.8846 -0.00131
C 9.79254 28.43034 -0.01118
C 8.66205 5.0528 0.00685
C 17.20092 12.85666 0.01452
C 8.51807 19.24704 -0.00562
C 7.33889 21.2848 0.01849
C 6.14421 10.67849 0.02322
C 6.08809 9.26188 -0.00725
C 4.88559 8.46468 -0.05697
C 4.90971 7.08472 0.01087
C 6.07914 6.42071 -0.01343
C 6.14462 5.09304 0.00988
C 4.9626 4.24018 0.0276
C 4.92219 2.85846 0.01305
C 6.11591 2.19648 -0.00077
C 6.12407 0.76384 0.03368
C 7.27836 19.93326 -0.01142
C 4.88126 0.08889 -0.02929
C 8.55098 32.02701 -0.03337
C 8.56028 30.48796 0.01227
C 7.33193 29.8528 0.00873
C 7.34206 28.37055 -0.00049
C 8.58395 27.72654 0.00848
C 8.6192 26.23718 -0.01303
C 7.35183 25.58092 -0.01378
C 7.45353 24.18995 0.02635
C 8.62357 23.3928 0.0127
C 8.57254 22.03557 0.01396
C 7.36108 32.7384 -0.00966
C 3.66622 31.93648 0.00828
C 17.23521 11.4025 0.04892
C 18.44366 9.24257 -0.03557
C 29.45248 8.44532 -0.00971
C 29.51917 7.04777 0.01518
C 30.81859 6.32897 0.01908
C 30.79544 4.92461 0.07705
C 29.54093 4.25481 0.0103
C 29.51702 2.8738 0.02108
C 30.73565 2.15267 0.00716
C 30.79949 0.71736 0.00307
C 29.51214 0.06871 0.00346
C 32.03594 32.62421 0.01713
C 33.23516 31.93709 -0.01694
C 33.1539 30.44665 0.01428
C 31.88289 29.68953 -0.02142
C 31.94147 28.34594 0.0544
C 33.17092 27.55778 0.00026
C 33.16679 26.21666 0.00682
C 32.02821 25.61666 -0.01779
C 31.78055 24.21719 0.03794
C 33.10558 23.52099 0.01927
C 33.15518 22.0543 0.01574
C 31.94869 21.34401 -0.02383
C 30.67675 9.17181 -0.03735
C 30.67722 10.57642 -0.00944
C 29.49648 11.30056 -0.02155
C 29.48245 12.76053 -0.01461
C 26.99394 8.502 0.01799
C 27.05956 6.99549 0.01699
C 28.3061 6.35236 -0.00416
C 28.34517 4.93473 0.01177
C 27.06603 4.23712 0.04266
C 27.05098 2.84763 0.01324
C 28.29334 2.17555 0.0014
C 28.29639 0.72988 0.00924
C 27.11691 0.02356 0.02326
C 29.51494 32.69314 0.00261
C 31.93203 19.93263 -0.01429
C 30.74693 31.97589 0.03265
C 30.68733 23.39913 -0.01854
C 30.69433 21.99529 -0.01415
C 29.50291 21.32723 -0.03039
C 29.54571 19.9661 0.01836
C 30.72055 19.20022 0.03531
C 30.78607 17.78108 -0.00669
C 29.52752 17.01335 0.0101
C 29.46061 15.66812 0.01705
C 30.64445 14.86739 -0.0405
C 30.75188 13.42853 -0.01303
C 30.82056 30.64789 -0.02049
C 28.27898 9.17537 0.01259
C 33.15467 19.20393 -0.0136
C 31.98331 17.04442 -0.02474
C 1.21057 22.03295 0.02712
C 34.37562 21.39678 -0.02213
C 34.34807 19.85266 0.01951
C 1.15705 19.14971 -0.01678
C 1.24339 17.77074 0.01223
C 0.00066 17.08372 0.00648
C 34.36172 15.64894 0.02114
C 1.21429 14.90611 -0.02957
C 1.26721 13.4759 0.00343
C 0.00616 12.79908 -0.02656
C 0.02739 11.34425 -0.02442
C 1.32135 10.64094 -0.00027
C 1.20965 9.26277 -0.00583
C 34.42701 8.55669 -0.02302
C 34.43119 7.16806 -0.02849
C 1.2 6.45962 0.02931
C 1.19367 5.01278 0.00628
C 34.43191 4.25766 -0.0345
C 34.39131 2.81749 -0.00931
C 1.18542 2.09198 -0.00939
C 1.22943 0.64603 -0.00468
C 1.21867 23.41364 0.00723
C 34.39285 24.05363 0.03076
C 0.01475 25.55449 -0.05239
C 1.23539 26.24015 -0.00598
C 31.87321 15.57617 0.00369
C 33.07797 14.84928 0.00455
C 33.15992 13.4321 -0.00644
C 32.02692 12.76458 -0.01839
C 31.97082 11.30366 0.00137
C 33.1866 10.62014 0.00199
C 33.17413 9.26484 0.04381
C 31.98951 8.43255 0.02806
C 32.00314 7.07545 0.01504
C 33.23727 6.36355 -0.00069
C 33.16894 17.7495 0.00594
C 33.23316 4.94036 0.04926
C 31.96298 2.81603 0.00349
C 33.2182 2.08358 -0.00323
C 33.19863 0.66355 -0.00841
C 31.95983 33.98486 0.0001
C 34.39963 32.70488 -0.02927
C 1.15236 31.90847 -0.01404
C 1.05943 30.53417 0.01027
C 34.35503 29.72142 0.01831
C 34.34266 28.33916 -0.01037
C 1.23029 27.65091 -0.00439
C 31.95451 4.19388 -0.03838
C 28.21018 10.59855 0.01495
C 27.01965 11.26005 0.00235
C 27.08273 12.75878 0.01094
C 19.70394 8.4484 0.00096
C 19.73691 7.05305 -0.01527
C 20.7864 6.21948 0.01087
C 20.98151 4.80351 0.00199
C 19.7401 2.8338 0.01511
C 20.87912 2.0214 -0.00478
C 20.8965 0.65955 -0.01662
C 19.66709 0.01268 -0.01185
C 22.17714 32.61507 0.01126
C 23.3932 31.88203 0.01852
C 23.51276 30.4618 -0.00381
C 22.36271 29.75103 0.03046
C 22.13032 28.35178 0.0296
C 22.10112 25.58493 0.03374
C 22.34835 24.24573 -0.02845
C 23.47489 23.37474 -0.03213
C 23.3636 22.00045 0.02239
C 22.16253 21.27066 0.01153
C 22.19018 19.88669 0.02734
C 23.42277 19.17908 -0.0055
C 23.3706 17.73128 0.01515
C 20.9252 9.15372 0.01277
C 20.89152 10.68868 -0.02422
C 19.67471 11.30588 -0.01721
C 19.66681 12.7107 -0.01154
C 17.25719 8.74087 0.03754
C 18.49736 0.77055 0.01739
C 17.19056 0.21153 0.00755
C 19.65445 32.63934 -0.0054
C 20.91752 31.99319 0.00667
C 20.96941 30.53681 0.00143
C 19.74614 29.83382 -0.017
C 19.69314 28.45647 0.00364
C 20.86883 27.64879 -0.00831
C 20.88991 26.26271 -0.02957
C 22.10167 17.00241 -0.00225
C 19.72027 25.45361 -0.04422
C 21.03756 23.4372 -0.00703
C 21.01532 22.08694 -0.04076
C 19.66041 21.26937 -0.00652
C 19.69719 19.85893 0.0058
C 20.94062 19.15047 -0.00865
C 20.8387 17.71878 0.00675
C 19.5955 17.09111 -0.00311
C 19.54361 15.67447 0.00742
C 20.74842 14.95573 -0.01594
C 20.87562 13.50887 0.0106
C 19.70894 24.05399 0.00654
C 22.07847 15.59816 0.00071
C 23.25016 14.89122 -0.01107
C 23.35995 13.4799 -0.01586
C 25.74528 10.60042 0.04306
C 25.78421 9.14918 0.00996
C 24.55708 8.52086 0.00195
C 24.61533 7.10958 -0.00802
C 25.85697 6.28602 -0.00218
C 25.82438 4.96376 -0.01654
C 24.58458 4.25129 -0.00037
C 24.55628 2.85602 -0.0032
C 25.82629 2.17543 0.00622
C 25.81669 0.69034 -0.02815
C 24.5582 11.38688 0.00367
C 24.66572 0.0751 -0.00942
C 28.37689 31.99915 0.00826
C 28.36276 22.01703 -0.00294
C 27.08734 21.46922 0.00152
C 27.08981 19.89862 0.01257
C 28.27908 19.18378 0.02316
C 28.27402 17.76293 0.04185
C 27.02989 17.03305 0.00194
C 26.98389 15.65191 -0.00621
C 28.18866 14.83522 0.02611
C 28.27399 13.42641 0.02198
C 27.07155 32.47607 0.00487
C 18.40988 10.70395 -0.00111
C 24.57514 12.84507 -0.01679
C 25.75398 14.91815 0.00684
C 22.09724 12.77444 -0.01971
C 22.12598 11.3673 -0.02118
C 23.38223 10.65948 0.00733
C 23.31736 9.27061 -0.00178
C 22.17719 8.50087 0.00768
C 22.09667 7.05482 -0.0276
C 23.37253 6.39508 0.03005
C 23.44535 4.96158 -0.04078
C 22.2303 4.20418 0.02117
C 22.11124 2.78582 0.02737
C 25.76072 13.4976 -0.01052
C 23.34761 2.0513 -0.00498
C 22.15733 34.04789 0.03102
C 24.58709 32.62343 0.02555
C 25.76269 31.9361 0.01423
C 25.72676 21.81954 -0.00285
C 24.52658 21.26591 -0.009
C 24.64211 19.86391 -0.01199
C 25.87295 19.16342 -0.00229
C 25.84346 17.69666 -0.00938
C 24.56025 17.01054 -0.0264
C 24.51611 15.59749 -0.01154
C 23.38423 0.70344 0.00135
C 2.45111 32.6372 0.00088
