322
Graphene
C 0.01651 0.02682 0.01295
C 19.74895 29.78841 0.00028
C 19.66661 28.44753 -0.02213
C 20.90023 27.72452 0.03698
C 20.91994 26.21264 -0.00109
C 19.72196 25.57268 -0.00491
C 19.66377 24.15807 0.03338
C 20.87554 23.39429 -0.0258
C 20.8907 30.52186 -0.00289
C 20.87546 21.90492 -0.0331
C 19.66862 19.855 0.02188
C 20.9692 19.1854 -0.01979
C 20.95133 17.74947 0.02691
C 20.94702 14.89169 -0.01581
C 20.94506 13.48118 0.01452
C 19.64988 12.83544 0.04892
C 19.69226 11.33869 -0.00111
C 19.6482 21.25254 -0.00316
C 20.84925 10.6 -0.03557
C 20.94435 31.88824 -0.00066
C 17.16842 0.00441 -0.05302
C 18.42659 23.47056 0.00228
C 18.43168 21.98286 0.00798
C 17.15232 21.33662 0.00422
C 17.18483 19.92132 0.0351
C 18.42981 19.19619 -0.03113
C 18.47461 13.48937 0.02098
C 18.47921 10.64526 0.01848
C 19.6853 32.65443 0.00213
C 18.44643 9.2605 -0.00619
C 17.21939 7.10277 0.00889
C 18.44473 6.41929 -0.00481
C 18.44443 5.02969 0.00979
C 17.20591 4.28279 0.01443
C 17.19582 2.88055 0.03505
C 18.45668 2.07751 -0.02815
C 18.46953 0.71475 -0.04147
C 17.2227 8.565 -0.02162
C 18.52724 30.51705 -0.00114
C 20.89977 9.18073 0.03754
C 19.65747 7.12245 0.00755
C 23.3666 19.13583 -0.01721
C 23.28739 17.73707 -0.02422
C 22.14018 17.01327 0.01277
C 22.16899 15.59907 0.00096
C 23.35186 14.92421 -0.01527
C 23.39722 13.4812 0.01087
C 22.11552 12.8328 0.00199
C 22.12609 19.912 -0.01154
C 22.10436 11.29547 0.01511
C 23.35677 9.19989 -0.01662
C 22.13802 8.5487 -0.01185
C 22.15674 7.05838 0.01126
C 23.33092 6.37513 0.01852
C 23.35141 4.97812 -0.00381
C 22.15125 4.23269 0.03046
C 22.19502 2.89437 0.0296
C 23.36589 10.61742 -0.00478
C 19.70391 8.50919 0.01739
C 22.14981 21.28064 0.0106
C 23.40044 23.385 0.00742
C 20.87526 6.38658 -0.0054
C 20.88431 4.95658 0.00667
C 19.6976 4.21157 0.00143
C 19.69485 2.80686 -0.017
C 20.90856 2.19189 0.00364
C 20.88711 0.71706 -0.00831
C 19.65408 0.01697 -0.02957
C 23.32812 22.01568 -0.01594
C 22.12 32.69344 -0.04422
C 23.33904 30.52418 -0.00703
C 22.17574 29.78537 -0.04076
C 22.17669 28.40753 -0.00652
C 23.38525 27.7015 0.0058
C 23.36826 26.29294 -0.00865
C 22.18602 25.57136 0.00675
C 22.13249 24.14469 -0.00311
C 23.37241 31.94248 0.00654
C 18.42761 31.89501 -0.02696
C 17.21923 32.65601 -0.00368
C 14.79588 0.01862 -0.0108
C 4.90466 32.68677 -0.01634
C 6.13896 31.97218 -0.00334
C 6.11765 30.56926 0.02339
C 4.92291 29.8282 0.01641
C 4.88871 28.41752 -0.00719
C 6.15048 27.71945 0.01364
C 6.19386 26.29187 -0.01062
C 2.4534 34.0656 0.00057
C 4.91479 25.52368 -0.00033
C 6.09783 23.40241 -0.02759
C 4.95386 7.07127 0.0402
C 6.07204 6.37852 0.00572
C 6.16048 4.97668 0.03592
C 4.95418 4.28147 0.00406
C 4.88577 2.87891 0.00943
C 6.15757 2.11405 0.02841
C 4.88971 24.14189 0.03589
C 6.13337 0.7183 -0.01111
C 3.71366 0.75467 0.00093
C 2.49622 2.7969 0.00438
C 3.68046 30.56062 0.00895
C 2.43528 29.85216 0.00685
C 2.43609 28.38217 0.02888
C 3.68753 27.69899 -0.00482
C 3.67103 26.29583 -0.01384
C 2.48014 25.51337 0.03693
C 2.45622 24.14984 0.01745
C 3.69385 2.15031 0.01291
C 3.67505 23.43619 0.00488
C 2.39965 21.38317 -0.02896
C 2.47242 19.93928 -0.00131
C 2.46291 8.46665 -0.01118
C 2.41735 7.09299 -0.014
C 3.65025 6.4273 0.02147
C 3.72752 4.93996 0.00373
C 2.50934 4.29808 -0.00191
C 3.62788 22.02115 -0.01004
C 4.98139 0.01614 -0.01275
C 7.38884 32.65899 0.00985
C 8.55552 31.9356 -0.02245
C 13.51264 5.02646 -0.01454
C 12.29407 4.27183 0.01945
C 12.31048 2.85111 0.01416
C 13.50541 2.14867 0.03542
C 13.60343 0.70519 0.02299
C 12.29314 34.03023 0.00244
C 14.83634 32.63946 -0.01717
C 13.46017 6.35397 0.01241
C 15.96407 32.01936 0.05265
C 14.69328 7.11519 -0.02813
C 15.9686 6.39419 0.00374
C 16.00185 4.99831 0.00052
C 14.77793 4.2071 -0.03682
C 14.79724 2.85045 0.01965
C 16.01128 2.14605 0.02058
C 15.97738 0.73964 -0.01957
C 15.95785 9.1938 -0.01952
C 12.23998 32.58125 0.0076
C 9.83779 34.07338 0.02162
C 11.11212 0.72007 -0.0014
C 8.59225 30.52746 -0.00428
C 7.39128 29.84083 0.03101
C 7.36135 28.44635 -0.01536
C 8.56305 6.38539 -0.02689
C 8.68116 4.99263 -0.01046
C 7.4599 4.25237 -0.00891
C 7.41369 2.87375 0.02819
C 8.57934 2.05233 0.00165
C 8.5953 0.70532 -0.02971
C 7.33985 0.0099 0.02894
C 9.78443 32.62553 -0.01789
C 11.08172 31.95611 0.00444
C 11.04705 6.40746 -0.00925
C 11.05375 5.00448 0.01877
C 9.88345 4.20602 0.01363
C 9.82065 2.84884 -0.02162
C 11.04019 2.15619 0.00415
C 23.38713 2.13134 0.03374
C 23.35536 0.68887 -0.02845
C 22.13869 34.07279 -0.03213
C 24.63038 32.72732 0.02239
C 33.18517 26.2754 0.00682
C 31.93706 25.58477 -0.01779
C 32.01733 24.13968 0.03794
C 33.2293 23.4591 0.01927
C 33.21618 22.02177 0.01574
C 32.02463 21.3463 -0.02383
C 31.94397 19.95227 -0.01429
C 33.19407 27.73163 0.00026
C 33.21494 19.18883 -0.0136
C 31.92394 17.04204 -0.02474
C 32.00685 15.62896 0.00369
C 33.23026 14.87284 0.00455
C 33.23977 13.45788 -0.00644
C 31.93586 12.8155 -0.01839
C 31.94127 11.38 0.00137
C 33.19668 10.65423 0.00199
C 33.13499 17.75538 0.00594
C 33.15107 9.27145 0.04381
C 31.99038 28.37369 0.0544
C 33.22608 30.51069 0.01428
C 30.70392 13.53899 -0.01303
C 29.48484 12.80458 -0.01461
C 29.569 11.40949 -0.02155
C 30.76648 10.59841 -0.00944
C 30.73661 9.26021 -0.03735
C 29.46212 8.51598 -0.00971
C 29.52627 7.0975 0.01518
C 31.96502 29.83875 -0.02142
C 30.68473 6.40659 0.01908
C 29.46013 4.25189 0.0103
C 29.49794 2.80071 0.02108
C 30.7529 2.15701 0.00716
C 30.70698 0.69359 0.00307
C 29.51976 0.01297 0.00346
C 31.95654 32.62422 0.01713
C 33.2019 31.94388 -0.01694
C 30.73795 5.00222 0.07705
C 32.00796 8.51598 0.02806
C 31.97508 7.15482 0.01504
C 33.1807 6.38222 -0.00069
C 34.42528 17.02611 0.00648
C 34.41475 15.61287 0.02114
C 1.17011 14.91413 -0.02957
C 1.262 13.53921 0.00343
C 0.02201 12.719 -0.02656
C 0.03121 11.3362 -0.02442
C 1.20394 10.69676 -0.00027
C 1.20478 17.76114 0.01223
C 1.26415 9.23632 -0.00583
C 34.41256 7.09602 -0.02849
C 1.20167 6.35663 0.02931
C 1.20607 4.97598 0.00628
C 0.03653 4.26447 -0.0345
C 0.01363 2.76692 -0.00931
C 1.28646 2.10901 -0.00939
C 1.26625 0.72082 -0.00468
C 34.41214 8.5548 -0.02302
C 1.26651 19.13845 -0.01678
C 34.38738 19.89904 0.01951
C 0.03521 21.26287 -0.02213
C 33.17158 4.93352 0.04926
C 31.94613 4.28655 -0.03838
C 31.95195 2.84316 0.00349
C 33.16491 2.14452 -0.00323
C 33.18873 0.69767 -0.00841
C 31.98234 34.0317 0.0001
C 0.02247 32.65036 -0.02927
C 1.23471 31.99017 -0.01404
C 1.27758 30.51749 0.01027
C 34.42438 29.75842 0.01831
C 0.01573 28.41888 -0.01037
C 1.26608 27.64583 -0.00439
C 1.21532 26.25602 -0.00598
C 0.00481 25.56676 -0.05239
C 34.4221 24.16386 0.03076
C 1.20943 23.45595 0.00723
C 1.21955 22.08769 0.02712
C 30.76045 14.92291 -0.0405
C 3.73381 32.01443 0.00393
C 29.4861 15.63175 0.01705
C 30.75145 17.73589 -0.00669
C 25.82235 10.62783 0.03102
C 25.85096 9.24301 0.02555
C 24.62076 8.51548 0.01423
C 24.57632 7.04907 -0.00285
C 25.82608 6.41177 -0.009
C 25.83738 4.96635 -0.01199
C 24.60415 4.32906 -0.00229
C 24.56653 11.31428 0.00135
C 24.58175 2.84475 -0.00938
C 25.84294 0.72512 -0.01154
C 24.64515 0.01702 0.00684
C 27.00179 32.59831 -0.01052
C 28.25872 31.94463 -0.01679
C 28.26857 30.50537 0.00367
C 27.03763 29.83027 0.04306
C 27.03821 28.35782 0.00996
C 25.81483 2.1907 -0.0264
C 28.28961 27.72407 0.00195
C 24.62824 12.80181 -0.00498
C 25.81123 14.91599 0.02117
C 25.79891 31.91855 0.01153
C 25.7455 30.52354 0.02734
C 24.58068 29.82468 -0.0055
C 24.6219 28.37091 0.01515
C 25.81704 27.69218 -0.00225
C 25.77573 26.32871 0.00071
C 24.59514 25.5715 -0.01107
C 25.83359 13.55097 0.02737
C 24.57895 24.14759 -0.01586
C 25.78616 22.0045 -0.02118
C 24.58065 21.3314 0.00733
C 24.59981 19.85535 -0.00178
C 25.81381 19.17217 0.00768
C 25.79974 17.74367 -0.0276
C 24.56964 17.04439 0.03005
C 24.55533 15.62209 -0.04078
C 25.8074 23.50359 -0.01971
C 28.29709 26.23568 -0.00802
C 27.05637 25.56389 -0.00218
C 27.00385 24.14391 -0.01654
C 28.28057 0.71751 0.01699
C 27.08967 34.0688 -0.00416
C 29.43908 32.60913 0.01177
C 30.72841 31.92902 0.04266
C 30.75432 30.52942 0.01324
C 29.50389 29.77076 0.0014
C 29.49448 28.40264 0.00924
C 28.30988 2.09119 0.01799
C 30.77367 27.66508 0.02326
C 29.53378 25.54881 0.03265
C 29.49392 24.08275 -0.02049
C 30.76813 23.39452 -0.01854
C 30.73547 22.01326 -0.01415
C 29.51781 21.30173 -0.03039
C 29.52516 19.86066 0.01836
C 30.77683 19.13709 0.03531
C 30.71391 26.29077 0.00261
C 26.99673 2.84728 0.01259
C 26.99309 4.23526 0.01495
C 28.28612 4.91417 0.00235
C 28.24716 23.42544 -0.00037
C 28.33632 22.00583 -0.0032
C 27.06839 21.29003 0.00622
C 26.97768 19.87253 -0.02815
C 28.23349 19.11392 -0.00942
C 28.2842 17.72779 0.00487
C 27.04104 17.02216 0.00826
C 27.07252 15.59571 -0.00294
C 28.31678 14.86498 0.00152
C 28.31436 13.484 0.01257
C 27.03268 12.76933 0.02316
C 27.07689 11.29432 0.04185
C 28.26693 10.6307 0.00194
C 28.2677 9.26361 -0.00621
C 27.1028 8.48484 0.02611
C 27.12083 7.06869 0.02198
C 28.28345 6.34478 0.01094
C 29.49684 17.02656 0.0101
C 2.48146 32.66985 0.0288
