430
Graphene
C 0.03112 0.01768 0.01295
C 13.57767 23.48506 -0.00033
C 13.54299 22.11072 0.03589
C 12.26097 21.35529 -0.02759
C 12.30691 19.87674 0.0402
C 13.55121 19.20481 0.00572
C 13.56914 17.73226 0.03592
C 12.26973 17.0038 0.00406
C 12.24964 15.59234 0.00943
C 13.46646 14.79508 0.02841
C 13.53771 13.42188 -0.01111
C 12.4206 24.20408 -0.01062
C 12.30532 12.73459 -0.01275
C 13.52545 10.63059 -0.02245
C 13.55472 9.22788 -0.00428
C 12.2898 8.56709 0.03101
C 12.36518 7.10278 -0.01536
C 13.53852 6.31746 -0.02689
C 13.48888 4.86885 -0.01046
C 12.28186 4.14228 -0.00891
C 12.21891 2.78341 0.02819
C 13.47974 2.09615 0.00165
C 13.51101 0.67235 -0.02971
C 12.26026 11.38876 0.00985
C 12.32044 25.64655 0.01364
C 13.49268 26.32988 -0.00719
C 13.63582 27.66794 0.01641
C 11.05732 17.7701 0.00895
C 9.84878 17.04143 0.00685
C 9.7877 15.65729 0.02888
C 11.03118 14.89418 -0.00482
C 11.13166 13.53456 -0.01384
C 9.84776 12.86148 0.03693
C 9.82942 11.4593 0.01745
C 11.04388 10.72291 0.00488
C 11.08381 9.24982 -0.01004
C 9.84695 8.50374 -0.02896
C 9.90448 7.10866 -0.00131
C 11.12862 6.35438 -0.01118
C 11.11144 4.8721 -0.014
C 9.80483 4.29043 0.02147
C 9.81095 2.83672 0.00373
C 11.01603 2.0647 -0.00191
C 11.10101 0.71479 0.00438
C 9.94453 0.03558 0.01291
C 12.28681 32.67082 0.00093
C 13.55389 32.05301 0.00057
C 13.46769 30.61782 -0.01634
C 12.25143 29.85118 -0.00334
C 12.26491 28.34136 0.02339
C 12.33798 34.06473 0.02894
C 14.80186 32.68336 -0.01789
C 16.0169 31.96613 0.00444
C 15.97215 30.49482 -0.00925
C 18.36765 22.00538 -0.00114
C 17.34222 21.32231 0.00228
C 17.20982 19.96688 0.00798
C 18.43191 19.09882 0.00422
C 18.41473 17.72869 0.0351
C 17.2472 17.02167 -0.03113
C 17.19787 15.55373 0.02098
C 18.41686 14.893 0.01848
C 18.41697 13.43522 -0.00619
C 17.218 12.71362 -0.02162
C 17.23314 11.34464 0.00889
C 18.45313 10.62143 -0.00481
C 18.40887 9.24249 0.00979
C 17.16307 8.50044 0.01443
C 17.14168 7.15454 0.03505
C 18.42779 6.49719 -0.02815
C 18.41097 5.01549 -0.04147
C 17.24713 4.22622 -0.05302
C 17.24588 2.86037 0.00213
C 18.47054 2.18562 -0.00066
C 18.5047 0.76368 -0.00289
C 17.22526 0.05966 0.00028
C 19.66689 32.65139 -0.02213
C 17.20127 29.777 -0.02696
C 11.05476 19.16723 0.00393
C 18.40355 30.46871 -0.00368
C 17.27915 32.69312 -0.01957
C 14.68755 29.84259 0.01877
C 14.70922 28.52174 0.01363
C 14.67377 21.30463 -0.02162
C 14.77905 19.94713 0.00415
C 15.9472 19.18662 -0.0014
C 15.99731 17.76241 0.02162
C 14.77631 17.03098 0.0076
C 14.71637 15.54159 0.01241
C 15.94466 14.84748 -0.01454
C 15.96165 13.39938 0.01945
C 14.7417 12.69303 0.01416
C 14.7619 11.32728 0.03542
C 15.97664 10.64191 0.02299
C 15.99605 9.27898 0.00244
C 14.76786 8.53884 -0.01717
C 14.71321 7.0774 0.05265
C 15.96483 6.39088 -0.01952
C 15.99737 4.96556 -0.02813
C 14.74581 4.27075 0.00374
C 14.76252 2.82867 0.00052
C 15.95324 2.11599 -0.03682
C 15.97933 0.73804 0.01965
C 14.74509 0.06517 0.02058
C 18.44804 31.94847 -0.0108
C 9.83642 19.90497 0.0288
C 9.89748 21.27788 -0.0008
C 11.11169 22.09574 -0.01362
C 3.71133 2.14994 0.00245
C 3.67952 0.71886 0.02728
C 2.45756 0.04309 -0.00039
C 4.96023 32.66632 0.0064
C 6.12114 31.9224 0.00211
C 6.11338 30.51273 -0.00449
C 4.87563 29.82524 -0.01979
C 4.93455 28.32515 0.02784
C 6.21156 27.70297 -0.01977
C 6.14729 26.31067 -0.00561
C 4.96787 25.52802 0.00208
C 4.92403 24.14644 0.01707
C 6.11974 23.43902 0.02769
C 6.10133 22.10165 -0.03291
C 4.93311 21.32909 -0.04999
C 4.9647 19.88563 0.04505
C 6.18629 19.16324 0.03284
C 6.16666 17.73471 -0.04307
C 4.90731 17.01834 0.03189
C 4.85935 15.5917 0.00031
C 6.08606 14.90033 -0.003
C 6.11752 13.53343 0.01402
C 4.8919 12.8365 0.02379
C 2.47527 2.79839 0.00081
C 4.93584 11.41977 0.00907
C 2.47904 4.215 -0.02805
C 3.73875 6.40855 -0.0059
C 3.7178 30.57895 0.01913
C 2.52295 29.84742 0.00267
C 2.42768 28.3584 0.00787
C 3.65324 27.62833 0.02426
C 3.69634 26.19272 0.01218
C 2.49255 25.53562 -0.01471
C 2.46787 24.10804 -0.02827
C 3.69432 23.46929 0.01078
C 3.69775 22.06948 -0.00112
C 2.41768 21.32265 0.03345
C 2.5452 19.88685 0.00748
C 3.79298 19.16994 0.00662
C 3.69836 17.7101 -0.0154
C 2.4099 16.9597 -0.01299
C 2.41451 15.54647 -0.00407
C 3.63569 14.86703 0.01138
C 3.57755 13.47957 0.03278
C 2.43035 12.78209 -0.00177
C 2.43081 11.35941 0.04421
C 3.69734 10.69531 0.00088
C 3.72126 9.21648 0.00828
C 2.4749 8.52248 -0.02375
C 2.42049 7.14102 0.00558
C 3.67674 4.99812 -0.01386
C 20.93587 31.93349 0.03698
C 6.15612 10.69846 0.00643
C 4.95234 8.59306 0.03267
C 7.33898 12.80387 0.03368
C 7.33507 11.43387 -0.02929
C 8.61442 10.67951 -0.00966
C 8.63332 9.2935 -0.03337
C 7.37694 8.62127 0.01227
C 7.34807 7.18474 0.00873
C 8.6169 6.52983 -0.00049
C 8.5907 5.08356 0.00848
C 7.32996 4.30741 -0.01303
C 7.31551 2.83269 -0.01378
C 8.56505 2.17827 0.02635
C 8.6445 0.70924 0.0127
C 7.39132 0.01925 0.01396
C 9.81834 32.71871 0.01849
C 11.0139 32.00284 -0.01142
C 11.05631 30.58216 -0.00562
C 9.80991 29.84634 -0.00494
C 9.77635 28.40659 0.00054
C 11.04838 27.67932 0.03007
C 10.98317 26.29207 -0.00095
C 9.76168 25.59736 0.01572
C 9.8303 24.20067 -0.04848
C 11.12612 23.56455 -0.00892
C 8.60306 13.47011 -0.00077
C 6.17488 9.29482 -0.01509
C 8.52784 14.89609 0.01305
C 7.39749 17.02021 0.00988
C 4.9069 7.15133 0.02374
C 6.05395 6.42163 0.00402
C 6.08778 4.98532 0.0073
C 4.9013 4.24662 0.0174
C 4.90831 2.86215 0.03828
C 6.06736 2.1887 0.01226
C 6.19209 0.70487 -0.00279
C 4.90493 34.06882 0.01996
C 7.35992 32.63859 -0.03996
C 8.6062 32.00553 0.01465
C 8.6421 30.58512 -0.00074
C 7.39655 29.86667 -0.00518
C 7.36098 28.44032 0.0086
C 8.58667 27.72651 -0.00643
C 8.53548 26.30098 0.017
C 7.32639 25.60728 -0.03113
C 7.40171 24.15627 -0.02566
C 8.63451 23.35817 -0.00094
C 8.67517 21.96271 0.02322
C 7.35965 21.37347 -0.00725
C 7.37177 19.89323 -0.05697
C 8.61108 19.18595 0.01087
C 8.60823 17.77803 -0.01343
C 7.33081 15.58313 0.0276
C 20.90705 30.57857 -0.00109
C 19.69713 29.80784 -0.00491
C 19.60382 28.31129 0.03338
C 30.7585 13.48996 -0.01303
C 29.57204 12.77376 -0.01461
C 29.52324 11.3839 -0.02155
C 30.73885 10.66097 -0.00944
C 30.66813 9.14846 -0.03735
C 29.51624 8.45555 -0.00971
C 29.49031 7.056 0.01518
C 30.70695 6.35348 0.01908
C 30.70863 4.94744 0.07705
C 29.493 4.29067 0.0103
C 29.52865 2.82248 0.02108
C 30.77963 2.09432 0.00716
C 30.75443 0.67843 0.00307
C 29.48913 0.0139 0.00346
C 32.07268 32.60009 0.01713
C 33.23511 31.89497 -0.01694
C 33.21884 30.47514 0.01428
C 31.97532 29.77376 -0.02142
C 31.92697 28.36113 0.0544
C 33.18279 27.65463 0.00026
C 33.18882 26.29821 0.00682
C 31.95953 25.61178 -0.01779
C 32.01442 24.19741 0.03794
C 30.65922 14.88395 -0.0405
C 33.21448 23.54086 0.01927
C 29.46617 15.60747 0.01705
C 30.72997 17.78599 -0.00669
C 27.02553 8.53411 0.02611
C 27.09764 7.12271 0.02198
C 28.26301 6.35739 0.01094
C 28.22064 4.95235 0.00235
C 27.0275 4.28467 0.01495
C 27.06524 2.87372 0.01259
C 28.28744 2.17105 0.01799
C 28.23778 0.63838 0.01699
C 26.98304 34.00894 -0.00416
C 29.57612 32.6451 0.01177
C 30.77453 31.92481 0.04266
C 30.70069 30.46044 0.01324
C 29.43564 29.79258 0.0014
C 29.50105 28.38983 0.00924
C 30.68495 27.6552 0.02326
C 30.74169 26.23166 0.00261
C 29.49359 25.61107 0.03265
C 29.52769 24.23938 -0.02049
C 30.77135 23.44336 -0.01854
C 30.77392 21.96952 -0.01415
C 29.44997 21.29607 -0.03039
C 29.50354 19.92682 0.01836
C 30.74341 19.21403 0.03531
C 29.53353 17.01459 0.0101
C 28.31146 9.18452 -0.00621
C 33.17531 22.10307 0.01574
C 31.99202 19.86413 -0.01429
C 0.01129 24.22591 0.03076
C 1.1883 23.45749 0.00723
C 1.2041 22.02389 0.02712
C 34.40479 21.35528 -0.02213
C 0.04681 19.90009 0.01951
C 1.26993 19.12943 -0.01678
C 1.20252 17.68681 0.01223
C 34.39283 17.03128 0.00648
C 34.36904 15.60186 0.02114
C 1.17664 14.93731 -0.02957
C 1.20995 13.44103 0.00343
C 34.42968 12.74805 -0.02656
C 34.39943 11.30522 -0.02442
C 1.19452 10.65606 -0.00027
C 1.19071 9.28216 -0.00583
C 34.3089 8.48555 -0.02302
C 34.38799 7.0589 -0.02849
C 1.25515 6.37958 0.02931
C 1.2302 4.89892 0.00628
C 34.4257 4.22486 -0.0345
C 0.01626 2.7773 -0.00931
C 1.24175 2.11931 -0.00939
C 1.20805 0.77843 -0.00468
C 34.39194 25.5879 -0.05239
C 31.96802 21.28778 -0.02383
C 1.2199 26.23608 -0.00598
C 34.39692 28.3401 -0.01037
C 33.23851 19.16346 -0.0136
C 33.24586 17.73916 0.00594
C 31.97372 17.057 -0.02474
C 31.87768 15.65187 0.00369
C 33.10174 14.84737 0.00455
C 33.16013 13.41082 -0.00644
C 31.97957 12.71465 -0.01839
C 31.99187 11.34676 0.00137
C 33.18619 10.61915 0.00199
C 33.06654 9.18502 0.04381
C 31.83241 8.49147 0.02806
C 31.97519 7.03494 0.01504
C 33.18671 6.32946 -0.00069
C 33.21835 4.92121 0.04926
C 32.00169 4.21925 -0.03838
C 32.00383 2.75888 0.00349
C 33.2355 2.07565 -0.00323
C 33.20086 0.65347 -0.00841
C 31.97628 33.98308 0.0001
C 0.01112 32.66306 -0.02927
C 1.24682 31.86776 -0.01404
C 1.2714 30.47988 0.01027
C 0.02161 29.77711 0.01831
C 1.20827 27.70384 -0.00439
C 3.7004 32.03001 -0.03672
C 28.32184 10.64291 0.00194
C 27.13305 12.79159 0.02316
C 23.39599 30.54614 -0.00865
C 22.12597 29.81737 0.00675
C 22.25397 28.33764 -0.00311
C 23.38469 27.6489 0.00742
C 23.41198 22.10143 -0.01594
C 22.19464 21.43432 0.0106
C 22.1478 19.81776 -0.01154
C 23.39069 19.16868 -0.01721
C 23.39536 17.7603 -0.02422
C 22.07732 17.1171 0.01277
C 22.09335 15.67037 0.00096
C 23.31943 14.9281 -0.01527
C 23.33394 13.54833 0.01087
C 22.13259 12.79175 0.00199
C 22.17557 11.38679 0.01511
C 23.38633 10.72209 -0.00478
C 23.37916 9.24882 -0.01662
C 22.16126 8.55052 -0.01185
C 22.19301 7.12315 0.01126
C 23.40663 6.33637 0.01852
C 23.30423 4.9372 -0.00381
C 22.07437 4.23764 0.03046
C 22.0664 2.81947 0.0296
C 23.48506 31.97513 0.0058
C 23.32547 2.1433 0.03374
C 22.18422 32.61178 -0.00652
C 20.95295 0.71682 -0.00703
C 20.80021 27.66014 -0.0258
C 20.6726 26.37473 -0.0331
C 20.73979 23.35131 -0.00316
C 20.87514 22.06058 0.02188
C 19.61948 21.26277 -0.01979
C 19.5842 19.81197 0.02691
C 20.85379 19.17459 -0.01581
C 20.83715 17.78286 0.01452
C 19.62984 17.03535 0.04892
C 19.58688 15.5942 -0.00111
C 20.86711 14.9108 -0.03557
C 20.87386 13.4421 0.03754
C 19.65732 12.74591 0.01739
C 19.71283 11.27749 0.00755
C 20.92814 10.6173 -0.0054
C 20.91913 9.21413 0.00667
C 19.64345 8.58732 0.00143
C 19.76087 7.18365 -0.017
C 20.96504 6.36448 0.00364
C 20.86157 4.93545 -0.00831
C 19.63829 4.27583 -0.02957
C 19.64497 2.87845 -0.04422
C 20.84254 2.11291 0.00654
C 19.6804 34.0699 -0.04076
C 27.09542 11.37326 0.04185
C 23.38463 0.75063 -0.02845
C 24.67233 32.67769 0.02239
C 24.50842 2.78301 -0.00938
C 25.85375 2.16224 -0.0264
C 25.78661 0.729 -0.01154
C 24.61316 0.05222 0.00684
C 27.03847 32.61186 -0.01052
C 28.24071 31.92827 -0.01679
C 28.24449 30.49454 0.00367
C 26.98412 29.79967 0.04306
C 27.03281 28.40556 0.00996
C 28.27222 27.72814 0.00195
C 28.28198 26.33719 -0.00802
C 27.01445 25.56847 -0.00218
C 27.07181 24.1665 -0.01654
C 28.30966 23.49271 -0.00037
C 28.26815 22.03389 -0.0032
C 27.06358 21.27882 0.00622
C 27.05604 19.83275 -0.02815
C 28.31136 19.15887 -0.00942
C 28.29939 17.78331 0.00487
C 27.07261 17.08461 0.00826
C 27.06696 15.63128 -0.00294
C 28.25208 14.89508 0.00152
C 28.31493 13.43582 0.01257
C 24.53778 4.16071 -0.00229
C 22.20704 34.07269 -0.03213
C 25.7186 4.96913 -0.01199
C 24.54186 7.09572 -0.00285
C 25.77113 31.9234 0.01153
C 25.80647 30.53653 0.02734
C 24.55009 29.7727 -0.0055
C 24.5742 28.32477 0.01515
C 25.81884 27.72103 -0.00225
C 25.78957 26.27809 0.00071
C 24.57465 25.56338 -0.01107
C 24.52 24.05487 -0.01586
C 25.83519 23.4313 -0.01971
C 25.87285 22.03506 -0.02118
C 24.61485 21.33046 0.00733
C 24.57083 19.94941 -0.00178
C 25.83609 19.13326 0.00768
C 25.81178 17.68796 -0.0276
C 24.59335 17.01223 0.03005
C 24.59466 15.63805 -0.04078
C 25.84112 14.91775 0.02117
C 25.88111 13.51018 0.02737
C 24.59494 12.81555 -0.00498
C 24.61124 11.41192 0.00135
C 25.80426 10.68031 0.03102
C 25.77217 9.26873 0.02555
C 24.53002 8.48466 0.01423
C 25.76921 6.372 -0.009
C 2.39871 32.70769 -0.04306
