442
Graphene
C 0.0115 0.02619 0.01295
C 12.34765 17.01407 0.00057
C 12.26119 15.6932 -0.01634
C 13.5446 14.96446 -0.00334
C 13.56197 13.48772 0.02339
C 12.35157 12.83723 0.01641
C 12.33657 11.40086 -0.00719
C 13.48005 10.63417 0.01364
C 13.49897 9.24076 -0.01062
C 12.25978 8.42879 -0.00033
C 12.29128 7.07783 0.03589
C 13.56959 6.40329 -0.02759
C 13.5651 4.9377 0.0402
C 12.32409 4.24908 0.00572
C 12.31369 2.83462 0.03592
C 13.48722 2.20888 0.00406
C 13.52251 0.68164 0.00943
C 12.28668 34.01862 0.02841
C 14.70398 32.63054 -0.01111
C 16.035 31.91244 -0.01275
C 15.94438 30.51726 0.00985
C 14.72155 29.867 -0.02245
C 14.74927 28.37381 -0.00428
C 15.95714 27.73187 0.03101
C 12.23093 19.9472 0.00093
C 12.3101 21.34311 0.01291
C 13.58019 22.02575 0.00438
C 13.56456 23.47454 -0.00191
C 11.08084 14.90566 0.03007
C 11.05947 13.48995 -0.00095
C 9.82902 12.78057 0.01572
C 9.8396 11.37767 -0.04848
C 11.08946 10.72299 -0.00892
C 11.03031 9.24621 -0.01362
C 9.80799 8.59887 -0.0008
C 9.86412 7.05303 0.0288
C 11.08843 6.39223 0.00393
C 11.10195 5.00645 0.00895
C 9.91004 4.26586 0.00685
C 15.95106 26.21136 -0.01536
C 9.83736 2.86001 0.02888
C 11.06828 0.654 -0.01384
C 9.77698 34.05967 0.03693
C 12.30425 32.63565 0.01745
C 13.57746 31.95944 0.00488
C 13.50318 30.56565 -0.01004
C 12.29916 29.86568 -0.02896
C 12.26875 28.50221 -0.00131
C 13.51737 27.69894 -0.01118
C 13.49369 26.21436 -0.014
C 12.28675 25.53663 0.02147
C 12.31056 24.19282 0.00373
C 11.06534 2.0992 -0.00482
C 9.82168 15.62057 0.00054
C 14.73304 25.58204 -0.02689
C 16.03021 23.40308 -0.00891
C 18.50841 22.07001 0.01965
C 17.22612 21.24055 0.02058
C 17.23145 19.88222 -0.01957
C 18.44407 19.16321 -0.0108
C 18.47736 17.70428 -0.00368
C 17.18395 17.017 -0.02696
C 17.19572 15.60058 -0.00114
C 18.47115 14.883 0.00228
C 18.45923 13.45362 0.00798
C 17.18193 12.83091 0.00422
C 17.17619 11.34431 0.0351
C 18.40752 10.64607 -0.03113
C 18.38832 9.2571 0.02098
C 17.20704 8.53932 0.01848
C 17.20681 7.12083 -0.00619
C 18.46813 6.37245 -0.02162
C 18.45434 4.97392 0.00889
C 17.21127 4.29195 -0.00481
C 17.20779 2.869 0.00979
C 18.48723 2.15703 0.01443
C 18.4375 0.70982 0.03505
C 17.2132 34.04056 -0.02815
C 19.66196 32.6582 -0.04147
C 18.45234 23.43605 -0.03682
C 17.2544 24.15728 0.00052
C 17.18524 25.54436 0.00374
C 18.40735 26.26183 -0.02813
C 15.96356 22.00931 0.02819
C 14.76299 21.30817 0.00165
C 14.71116 15.63353 -0.02971
C 15.97273 14.93459 0.02894
C 16.00242 13.49222 -0.01789
C 14.73041 12.76272 0.00444
C 14.73957 11.3071 -0.00925
C 15.94887 10.62612 0.01877
C 16.00449 9.20208 0.01363
C 14.71858 8.4943 -0.02162
C 14.75898 7.08611 0.00415
C 14.82943 24.17013 -0.01046
C 15.96587 6.45109 -0.0014
C 14.78578 4.21071 0.0076
C 14.72793 2.83897 0.01241
C 15.97425 2.1254 -0.01454
C 15.98696 0.75228 0.01945
C 14.7566 34.04243 0.01416
C 17.19903 32.67527 0.03542
C 18.44518 31.97139 0.02299
C 18.42254 30.5286 0.00244
C 17.21642 29.82665 -0.01717
C 17.22324 28.43778 0.05265
C 18.45656 27.62594 -0.01952
C 15.99921 5.0119 0.02162
C 9.85779 17.02714 -0.00494
C 11.07824 17.74672 -0.00562
C 11.04139 19.24035 -0.01142
C 3.73088 0.72569 0.03278
C 2.45245 34.03971 -0.00177
C 4.89076 32.6664 0.04421
C 6.11115 31.985 0.00088
C 6.18215 30.49604 0.00828
C 4.95949 29.86214 -0.02375
C 4.91932 28.38871 0.00558
C 6.22001 27.67387 -0.0059
C 6.17113 26.24979 -0.01386
C 4.85536 25.54005 -0.02805
C 4.89995 24.21907 0.00081
C 6.1522 23.43102 0.00245
C 6.1805 21.99025 0.02728
C 4.89468 21.31435 -0.00039
C 4.94431 19.86008 0.0064
C 6.12523 19.11897 0.00211
C 6.20527 17.71096 -0.00449
C 4.84921 16.98991 -0.01979
C 4.87926 15.67837 0.02784
C 6.09358 14.95037 -0.01977
C 6.13633 13.49508 -0.00561
C 4.95687 12.82056 0.00208
C 4.92553 11.30059 0.01707
C 3.7503 2.12864 0.01138
C 2.5142 2.87287 -0.00407
C 2.44515 4.27919 -0.01299
C 3.66088 4.96215 -0.0154
C 3.64947 30.47398 -0.00374
C 2.44282 29.78843 -0.0213
C 2.50416 28.40631 0.01116
C 3.71304 27.66796 -0.0005
C 3.67653 26.29476 -0.00018
C 2.4668 25.60226 0.01073
C 2.43333 24.13652 0.01984
C 3.75172 23.42112 0.00535
C 3.74762 22.01753 -0.00198
C 2.48414 21.3716 -0.00012
C 2.42909 19.78331 -0.04306
C 6.15176 10.6565 0.02769
C 3.64269 19.16387 -0.03672
C 2.41114 16.99443 0.00267
C 2.45778 15.63134 0.00787
C 3.65713 14.93679 0.02426
C 3.68572 13.52584 0.01218
C 2.48719 12.72698 -0.01471
C 2.43329 11.38596 -0.02827
C 3.6831 10.66985 0.01078
C 3.72834 9.24015 -0.00112
C 2.46599 8.48639 0.03345
C 2.47586 7.06634 0.00748
C 3.72789 6.39984 0.00662
C 3.67927 17.74915 0.01913
C 6.14695 9.25962 -0.03291
C 4.97871 8.50484 -0.04999
C 4.93995 7.1311 0.04505
C 8.59634 10.67407 -0.00094
C 8.6219 9.26385 0.02322
C 7.35395 8.57102 -0.00725
C 7.34937 7.13786 -0.05697
C 8.62133 6.41733 0.01087
C 8.55521 4.969 -0.01343
C 7.37401 4.30147 0.00988
C 7.37261 2.85378 0.0276
C 8.61523 2.13298 0.01305
C 8.57748 0.76319 -0.00077
C 7.34931 0.06386 0.03368
C 7.4008 11.37315 -0.02566
C 9.79329 32.64526 -0.02929
C 11.009 30.57039 -0.03337
C 9.83 29.80372 0.01227
C 9.88653 28.40594 0.00873
C 11.04024 27.73799 -0.00049
C 11.04587 26.29328 0.00848
C 9.89982 25.61561 -0.01303
C 9.86717 24.11918 -0.01378
C 11.07433 23.4511 0.02635
C 11.02013 22.01548 0.0127
C 9.83882 21.30771 0.01396
C 9.82898 19.93757 0.01849
C 10.99483 31.95193 -0.00966
C 20.85538 31.9629 -0.05302
C 7.36825 12.73013 -0.03113
C 8.6178 14.95545 -0.00643
C 6.09381 6.37177 0.03284
C 6.13649 4.99053 -0.04307
C 4.89884 4.21585 0.03189
C 4.91549 2.83576 0.00031
C 6.13843 2.17366 -0.003
C 6.16942 0.7305 0.01402
C 4.94345 0.0554 0.02379
C 7.36356 32.67468 0.00907
C 8.59166 31.96011 0.00643
C 8.57631 30.53431 -0.01509
C 7.33469 29.85797 0.03267
C 8.63767 13.50833 0.017
C 7.40844 28.37303 0.02374
C 8.67194 26.25149 0.0073
C 7.37792 25.58058 0.0174
C 7.36349 24.15536 0.03828
C 8.63055 23.43559 0.01226
C 8.56518 22.02639 -0.00279
C 7.37339 21.29075 0.01996
C 7.36297 19.90252 -0.03996
C 8.65595 19.21194 0.01465
C 8.62022 17.68716 -0.00074
C 7.42787 17.00898 -0.00518
C 7.40972 15.63612 0.0086
C 8.63983 27.72555 0.00402
C 20.89972 30.4816 0.00213
C 19.62482 29.82105 -0.00066
C 19.71982 28.35255 -0.00289
C 29.48421 15.57276 0.01705
C 30.74216 14.93688 -0.0405
C 30.7163 13.47367 -0.01303
C 29.47056 12.8162 -0.01461
C 29.51206 11.36617 -0.02155
C 30.75965 10.59051 -0.00944
C 30.77301 9.22957 -0.03735
C 29.50759 8.5514 -0.00971
C 29.57588 7.08611 0.01518
C 30.75198 6.33884 0.01908
C 30.75846 4.98086 0.07705
C 29.53604 4.23419 0.0103
C 29.48942 2.83127 0.02108
C 30.75762 2.10252 0.00716
C 30.74355 0.70696 0.00307
C 29.49819 34.07663 0.00346
C 31.97871 32.71462 0.01713
C 33.19377 31.95518 -0.01694
C 33.24251 30.57461 0.01428
C 31.94533 29.83513 -0.02142
C 31.99657 28.4002 0.0544
C 33.20839 27.696 0.00026
C 33.23316 26.31742 0.00682
C 29.53078 17.02587 0.0101
C 30.72475 17.69373 -0.00669
C 30.73108 19.1832 0.03531
C 29.51949 19.88006 0.01836
C 27.08744 11.39272 0.04185
C 28.25643 10.58347 0.00194
C 28.25028 9.21405 -0.00621
C 27.04816 8.52342 0.02611
C 27.1118 7.10121 0.02198
C 28.25004 6.35015 0.01094
C 28.24019 4.97446 0.00235
C 27.03771 4.21509 0.01495
C 27.03079 2.83893 0.01259
C 28.27644 2.07781 0.01799
C 28.2791 0.74984 0.01699
C 31.97708 25.59323 -0.01779
C 27.05941 34.06737 -0.00416
C 30.75854 31.9253 0.04266
C 30.69846 30.49761 0.01324
C 29.45698 29.82437 0.0014
C 29.521 28.40362 0.00924
C 30.79709 27.63016 0.02326
C 30.73201 26.24569 0.00261
C 29.47509 25.57224 0.03265
C 29.51337 24.12774 -0.02049
C 30.74375 23.49591 -0.01854
C 30.72715 22.04812 -0.01415
C 29.51319 21.30863 -0.03039
C 29.50407 32.69063 0.01177
C 32.0015 24.15397 0.03794
C 33.23099 23.42228 0.01927
C 33.19851 21.97318 0.01574
C 34.41098 25.57324 -0.05239
C 34.4094 24.16889 0.03076
C 1.20703 23.51311 0.00723
C 1.22106 21.98091 0.02712
C 34.42656 21.26707 -0.02213
C 34.37526 19.87235 0.01951
C 1.22924 19.19575 -0.01678
C 1.25513 17.74199 0.01223
C 34.37065 16.96846 0.00648
C 34.39875 15.60173 0.02114
C 1.24312 14.9179 -0.02957
C 1.22493 26.2257 -0.00598
C 1.20469 13.51204 0.00343
C 0.00515 11.32515 -0.02442
C 1.23027 10.6637 -0.00027
C 1.26582 9.24013 -0.00583
C 34.40975 8.50613 -0.02302
C 0.01001 7.0483 -0.02849
C 1.20478 6.34698 0.02931
C 1.18565 4.9379 0.00628
C 0.00422 4.23348 -0.0345
C 0.05112 2.80269 -0.00931
C 1.25279 2.17205 -0.00939
C 1.18404 0.7106 -0.00468
C 34.38136 12.73937 -0.02656
C 27.05285 12.71321 0.02316
C 1.19931 27.68556 -0.00439
C 0.03452 29.81395 0.01831
C 32.01344 21.30178 -0.02383
C 31.8896 19.89823 -0.01429
C 33.14102 19.12549 -0.0136
C 33.20009 17.74429 0.00594
C 31.98064 17.0229 -0.02474
C 32.03278 15.55993 0.00369
C 33.25404 14.84298 0.00455
C 33.24699 13.45986 -0.00644
C 31.94909 12.78525 -0.01839
C 31.98341 11.28306 0.00137
C 33.15613 10.61255 0.00199
C 34.42074 28.43848 -0.01037
C 33.22754 9.1853 0.04381
C 32.03178 7.08267 0.01504
C 33.17638 6.35693 -0.00069
C 33.19972 4.95657 0.04926
C 31.98874 4.27365 -0.03838
C 31.98052 2.83619 0.00349
C 33.23975 2.13082 -0.00323
C 33.1747 0.68677 -0.00841
C 31.97482 0.01798 0.0001
C 0.03789 32.65037 -0.02927
C 1.28168 31.96998 -0.01404
C 1.26087 30.55938 0.01027
C 31.9825 8.5461 0.02806
C 3.7194 31.88274 -0.00141
C 28.26952 13.49858 0.01257
C 27.06533 15.65076 -0.00294
C 23.33978 32.03 0.00654
C 23.33114 30.52036 -0.00703
C 22.14616 29.83696 -0.04076
C 22.13917 28.43438 -0.00652
C 23.36917 27.67642 0.0058
C 23.39276 26.2819 -0.00865
C 22.13126 25.61799 0.00675
C 22.1284 24.09911 -0.00311
C 23.39527 23.47453 0.00742
C 23.41068 21.99127 -0.01594
C 22.19292 21.26432 0.0106
C 22.07241 19.86356 -0.01154
C 23.37249 19.18958 -0.01721
C 23.33988 17.72912 -0.02422
C 22.24695 17.06146 0.01277
C 22.08954 15.62927 0.00096
C 23.34606 14.89354 -0.01527
C 23.38895 13.45317 0.01087
C 22.06032 12.77661 0.00199
C 22.05924 11.36317 0.01511
C 23.32287 10.65154 -0.00478
C 23.32644 9.22778 -0.01662
C 22.15724 8.47806 -0.01185
C 22.04924 32.6335 -0.04422
C 19.67594 0.02003 -0.02957
C 20.88698 0.73941 -0.00831
C 20.88922 2.13133 0.00364
C 20.91144 27.71974 0.00028
C 20.91432 26.27704 -0.02213
C 19.67153 25.54675 0.03698
C 19.66932 24.12252 -0.00109
C 20.91276 23.33119 -0.00491
C 20.92346 21.98898 0.03338
C 19.67249 21.27859 -0.0258
C 19.66472 19.87257 -0.0331
C 20.95214 19.2516 -0.00316
C 20.92007 17.76771 0.02188
C 19.6634 16.99288 -0.01979
C 22.14815 7.05314 0.01126
C 19.67559 15.66493 0.02691
C 20.86514 13.51297 0.01452
C 19.68155 12.74985 0.04892
C 19.73523 11.38842 -0.00111
C 20.92318 10.64656 -0.03557
C 20.90622 9.23414 0.03754
C 19.66176 8.46646 0.01739
C 19.66611 7.1254 0.00755
C 20.92208 6.38783 -0.0054
C 20.86965 4.95761 0.00667
C 19.6515 4.23208 0.00143
C 19.68472 2.81831 -0.017
C 20.87566 14.90474 -0.01581
C 23.37721 6.36367 0.01852
C 23.37875 4.93911 -0.00381
C 22.12637 4.3024 0.03046
C 24.63886 7.1156 -0.00285
C 25.79634 6.38105 -0.009
C 25.8424 4.92857 -0.01199
C 24.59304 4.29064 -0.00229
C 24.61619 2.90477 -0.00938
C 25.83468 2.11635 -0.0264
C 25.83431 0.68496 -0.01154
C 24.6678 0.0159 0.00684
C 27.02448 32.67512 -0.01052
C 28.31393 31.9552 -0.01679
C 28.28516 30.56975 0.00367
C 24.58979 8.50769 0.01423
C 27.07332 29.76924 0.04306
C 28.24073 27.65794 0.00195
C 28.33529 26.26937 -0.00802
C 27.04233 25.56818 -0.00218
C 27.00144 24.1722 -0.01654
C 28.27307 23.41225 -0.00037
C 28.25967 22.02244 -0.0032
C 27.06499 21.28291 0.00622
C 27.00222 19.79745 -0.02815
C 28.26004 19.15405 -0.00942
C 28.27457 17.76943 0.00487
C 27.05625 17.09242 0.00826
C 27.02626 28.31732 0.00996
C 28.3073 14.89977 0.00152
C 25.80692 9.26354 0.02555
C 24.58798 11.3761 0.00135
C 22.14136 2.88766 0.0296
C 23.37606 2.09376 0.03374
C 23.37899 0.67115 -0.02845
C 22.14039 34.0607 -0.03213
C 24.59938 32.69716 0.02239
C 25.83838 31.91619 0.01153
C 25.83281 30.5302 0.02734
C 24.57408 29.80661 -0.0055
C 24.59774 28.43628 0.01515
C 25.78213 27.68946 -0.00225
C 25.76691 26.33034 0.00071
C 25.80543 10.6152 0.03102
C 24.53714 25.54203 -0.01107
C 25.77785 23.44331 -0.01971
C 25.80433 22.0115 -0.02118
C 24.61862 21.36031 0.00733
C 24.56504 19.84852 -0.00178
C 25.81345 19.19659 0.00768
C 25.80129 17.74263 -0.0276
C 24.60701 16.99624 0.03005
C 24.55731 15.62884 -0.04078
C 25.79726 14.96072 0.02117
C 25.89039 13.50948 0.02737
C 24.69023 12.80294 -0.00498
C 24.63588 24.16025 -0.01586
C 2.46094 32.62573 -0.03951
