356
Graphene
C 0.01861 0.03952 0.01295
C 11.12178 14.95673 -0.0108
C 11.05376 13.48013 -0.00368
C 9.80483 12.74542 -0.02696
C 9.81313 11.40215 -0.00114
C 11.015 10.6549 0.00228
C 10.97899 9.23337 0.00798
C 9.83278 8.50741 0.00422
C 9.82826 7.06605 0.0351
C 9.88674 15.69356 -0.01957
C 10.99817 6.3724 -0.03113
C 9.8225 4.21991 0.01848
C 9.86314 2.85787 -0.00619
C 11.0946 2.10677 -0.02162
C 11.13202 0.67308 0.00889
C 9.88313 0.02374 -0.00481
C 12.28865 32.65675 0.00979
C 13.47925 31.931 0.01443
C 13.47221 30.45192 0.03505
C 11.04428 4.99899 0.02098
C 12.24706 29.75955 -0.02815
C 9.87487 16.9935 0.02058
C 11.09503 19.1712 -0.03682
C 7.30947 4.39286 -0.02162
C 7.33884 2.9681 0.00415
C 8.53731 2.26169 -0.0014
C 8.60134 0.84251 0.02162
C 7.40496 0.05161 0.0076
C 9.84831 32.75876 0.01241
C 11.08139 32.00184 -0.01454
C 11.00576 30.60079 0.01945
C 11.0601 17.69212 0.01965
C 9.8029 29.83797 0.01416
C 11.00461 27.69222 0.02299
C 11.0317 26.24155 0.00244
C 9.82027 25.56195 -0.01717
C 9.81089 24.05588 0.05265
C 11.07034 23.40251 -0.01952
C 11.12208 21.98536 -0.02813
C 9.94562 21.34134 0.00374
C 9.87742 19.8452 0.00052
C 9.77699 28.5009 0.03542
C 12.28655 28.32992 -0.04147
C 13.55826 27.65326 -0.05302
C 13.57239 26.23153 0.00213
C 13.51106 0.72956 0.00667
C 12.36059 34.01398 0.00143
C 14.65192 32.62059 -0.017
C 15.81264 31.92834 0.00364
C 15.88 30.56197 -0.00831
C 14.69119 29.78644 -0.02957
C 14.78399 28.30716 -0.04422
C 16.14085 27.67736 0.00654
C 13.55521 2.11779 -0.0054
C 15.83788 26.30083 -0.00703
C 14.70018 23.9876 -0.00652
C 14.7802 21.4565 0.0058
C 14.94723 20.09735 -0.00865
C 15.90935 19.12127 0.00675
C 16.13413 17.80745 -0.00311
C 14.79165 17.06186 0.00742
C 14.7408 15.59611 -0.01594
C 15.88442 14.88605 0.0106
C 14.93482 25.3877 -0.04076
C 12.28112 2.82674 0.00755
C 12.29998 4.21821 0.01739
C 13.5464 4.97647 0.03754
C 12.35638 25.67467 -0.00066
C 12.30642 24.25021 -0.00289
C 13.43844 23.45917 0.00028
C 13.58062 22.0403 -0.02213
C 12.37781 21.29959 0.03698
C 12.34104 19.82476 -0.00109
C 13.64346 19.20179 -0.00491
C 13.63047 17.77689 0.03338
C 12.35249 17.05369 -0.0258
C 12.35453 15.6345 -0.0331
C 13.49908 14.91427 -0.00316
C 13.49173 13.48116 0.02188
C 12.2625 12.77701 -0.01979
C 12.25962 11.3776 0.02691
C 13.54663 10.66464 -0.01581
C 13.49644 9.20828 0.01452
C 12.21807 8.5176 0.04892
C 12.22789 7.13197 -0.00111
C 13.48376 6.39151 -0.03557
C 8.58397 4.96048 0.01363
C 15.90211 13.48647 -0.01154
C 8.597 6.37288 0.01877
C 7.31174 8.55733 0.00444
C 2.4266 7.14279 -0.00562
C 3.64581 6.47937 -0.00494
C 3.67706 5.08346 0.00054
C 2.4236 4.29215 0.03007
C 2.43853 2.84413 -0.00095
C 3.68754 2.1115 0.01572
C 3.72575 0.73858 -0.04848
C 2.52825 34.07126 -0.00892
C 2.40351 8.51394 -0.01142
C 4.97897 32.62523 -0.01362
C 6.10003 30.56971 0.0288
C 4.87745 29.80466 0.00393
C 4.91199 28.39299 0.00895
C 6.15881 27.76046 0.00685
C 6.18025 26.33541 0.02888
C 4.98501 25.57252 -0.00482
C 4.97338 24.21169 -0.01384
C 6.20788 23.47823 0.03693
C 6.20963 31.94738 -0.0008
C 6.15689 22.03716 0.01745
C 3.60816 9.26172 0.01849
C 2.38764 11.42165 0.0127
C 3.64273 30.54125 -0.05697
C 2.42334 29.83234 0.01087
C 2.45867 28.3997 -0.01343
C 3.6255 27.73514 0.00988
C 3.68376 26.27054 0.0276
C 2.48699 25.61469 0.01305
C 2.4618 24.20962 -0.00077
C 3.73616 23.54125 0.03368
C 3.63975 10.74342 0.01396
C 3.6775 21.97135 -0.02929
C 2.43163 19.91364 -0.03337
C 3.6783 19.24104 0.01227
C 3.62195 17.77619 0.00873
C 2.38394 17.00029 -0.00049
C 2.49128 15.61151 0.00848
C 3.73512 14.91759 -0.01303
C 3.74473 13.53398 -0.01378
C 2.44532 12.78045 0.02635
C 2.43741 21.31692 -0.00966
C 4.91598 21.37473 0.00488
C 4.93029 19.90776 -0.01004
C 6.18036 19.19506 -0.02896
C 8.60747 27.73603 0.00406
C 8.63977 26.27679 0.00943
C 7.41994 25.63009 0.02841
C 7.41277 24.16686 -0.01111
C 8.60713 23.41574 -0.01275
C 8.61446 21.93063 0.00985
C 7.33095 21.244 -0.02245
C 7.36865 19.866 -0.00428
C 7.39093 28.3948 0.03592
C 8.63662 19.136 0.03101
C 7.41468 17.02942 -0.02689
C 7.41311 15.64186 -0.01046
C 8.60034 14.86673 -0.00891
C 8.54318 13.42048 0.02819
C 7.3648 12.78994 0.00165
C 7.36268 11.30812 -0.02971
C 8.63189 10.57425 0.02894
C 8.62869 9.22039 -0.01789
C 8.59404 17.7696 -0.01536
C 7.35821 29.81615 0.00572
C 8.61839 30.54792 0.0402
C 8.62401 32.04645 -0.02759
C 6.16293 17.71662 -0.00131
C 4.87315 17.01004 -0.01118
C 4.9416 15.62675 -0.014
C 6.20961 14.89991 0.02147
C 6.15795 13.46812 0.00373
C 4.88813 12.773 -0.00191
C 4.86356 11.37753 0.00438
C 6.07147 10.63386 0.01291
C 6.04277 9.27385 0.00093
C 4.78722 8.58567 0.00057
C 4.81949 7.24178 -0.01634
C 6.03508 6.49621 -0.00334
C 6.06218 5.08783 0.02339
C 4.85768 4.34699 0.01641
C 4.88118 2.91585 -0.00719
C 6.14453 2.21514 0.01364
C 6.16766 0.74807 -0.01062
C 4.95339 34.07499 -0.00033
C 7.43306 32.73607 0.03589
C 7.33247 7.08683 -0.00925
C 14.72052 12.74001 -0.01721
C 14.70413 11.36571 -0.02422
C 15.94339 10.65949 0.01277
C 30.69804 4.94341 0.01713
C 29.448 4.31478 -0.01694
C 29.44741 2.90229 0.01428
C 30.73641 2.11052 -0.02142
C 30.75106 0.69518 0.0544
C 29.50503 34.03035 0.00026
C 31.91835 32.64012 0.00682
C 33.21001 31.94638 -0.01779
C 30.70107 6.39002 0.00346
C 33.17071 30.57046 0.03794
C 31.88527 28.51206 0.01574
C 32.9242 27.59189 -0.02383
C 33.24457 26.2972 -0.01429
C 33.21197 19.15656 -0.0136
C 33.00614 17.72189 0.00594
C 31.87644 17.05993 -0.02474
C 31.89572 15.6517 0.00369
C 33.16665 14.96436 0.00455
C 31.9331 29.87604 0.01927
C 33.20835 13.48348 -0.00644
C 29.42982 7.20094 0.00307
C 30.72944 9.25756 0.02108
C 27.07283 8.48295 -0.01415
C 27.01659 7.05003 -0.03039
C 28.25231 6.43807 0.01836
C 28.25925 4.98148 0.03531
C 27.03358 4.2041 -0.00669
C 27.05975 2.84265 0.0101
C 28.27696 2.11332 0.01705
C 28.33724 0.68381 -0.0405
C 29.49375 8.56679 0.00716
C 27.09824 0.04455 -0.01303
C 30.74291 31.88866 -0.02155
C 30.69101 30.4871 -0.00944
C 29.45585 29.96968 -0.03735
C 30.79132 14.78362 -0.00971
C 30.80445 13.52138 0.01518
C 29.57882 12.72806 0.01908
C 29.57914 11.28159 0.07705
C 30.78962 10.61605 0.0103
C 29.55279 32.69365 -0.01461
C 32.04737 12.73793 -0.01839
C 32.03851 11.35233 0.00137
C 33.3111 10.6076 0.00199
C 1.24015 19.1477 -0.01678
C 1.1884 17.75759 0.01223
C 34.38343 17.02835 0.00648
C 34.42136 15.64351 0.02114
C 1.2268 14.95508 -0.02957
C 1.14429 13.53972 0.00343
C 34.37536 12.73988 -0.02656
C 34.41978 11.36681 -0.02442
C 34.29085 19.99376 0.01951
C 1.22623 10.67443 -0.00027
C 34.43291 8.49366 -0.02302
C 0.02718 7.08356 -0.02849
C 1.2257 6.39152 0.02931
C 1.20465 5.0053 0.00628
C 34.39912 4.32506 -0.0345
C 34.3908 2.89881 -0.00931
C 1.22033 2.21609 -0.00939
C 1.24955 0.7166 -0.00468
C 1.22251 9.2384 -0.00583
C 0.07595 21.30967 -0.02213
C 1.19063 22.06953 0.02712
C 1.22158 23.4535 0.00723
C 33.1888 9.16008 0.04381
C 31.95359 8.53261 0.02806
C 31.90894 7.11108 0.01504
C 33.1494 6.38871 -0.00069
C 33.08985 4.97623 0.04926
C 31.94101 4.2824 -0.03838
C 31.9926 2.86197 0.00349
C 33.2018 2.14667 -0.00323
C 33.16918 0.71452 -0.00841
C 32.0093 0.01981 0.0001
C 0.05612 32.68739 -0.02927
C 1.21195 31.97419 -0.01404
C 1.18859 30.51143 0.01027
C 34.35014 29.80742 0.01831
C 34.27958 28.33014 -0.01037
C 1.13217 27.6444 -0.00439
C 1.18556 26.2805 -0.00598
C 34.25396 25.47183 -0.05239
C 0.05157 24.07815 0.03076
C 28.32185 9.24599 -0.01854
C 28.25781 10.61969 -0.02049
C 27.02047 11.4085 0.03265
C 27.06668 12.86889 0.00261
C 17.18896 8.51587 -0.01107
C 17.14046 7.10664 -0.01586
C 18.3781 6.41094 -0.01971
C 18.42434 5.01864 -0.02118
C 17.21651 4.3067 0.00733
C 17.21573 2.83013 -0.00178
C 18.36807 2.16375 0.00768
C 18.39526 0.7521 -0.0276
C 18.46253 9.20864 0.00071
C 17.19414 34.07557 0.03005
C 20.88092 32.02894 0.02117
C 20.63991 30.72948 0.02737
C 19.63999 29.80593 -0.00498
C 20.88351 13.3133 0.00135
C 19.68984 12.7548 0.03102
C 19.62236 11.27221 0.02555
C 20.83117 10.60013 0.01423
C 20.9617 9.19689 -0.00285
C 19.59371 32.68231 -0.04078
C 18.41992 10.58653 -0.00225
C 17.17683 11.30376 0.01515
C 17.1858 12.65714 -0.0055
C 15.87269 9.26112 0.00096
C 14.68209 8.52273 -0.01527
C 14.69164 7.05577 0.01087
C 15.9425 6.37901 0.00199
C 15.92091 4.97475 0.01511
C 14.70776 4.23327 -0.00478
C 14.7585 2.80255 -0.01662
C 15.97774 2.1633 -0.01185
C 15.99467 0.77025 0.01126
C 14.7482 0.04914 0.01852
C 17.15302 32.59485 -0.00381
C 18.39768 31.86272 0.03046
C 18.43675 30.42351 0.0296
C 17.18103 29.7222 0.03374
C 17.24728 28.39964 -0.02845
C 17.23616 16.9515 -0.03213
C 17.18631 15.60461 0.02239
C 18.18158 14.75786 0.01153
C 18.36181 13.40355 0.02734
C 19.66516 8.48912 -0.009
C 3.71898 31.96422 -0.00725
C 19.64854 7.0834 -0.01199
C 20.83614 5.00539 -0.00938
C 25.88573 13.39561 0.04185
C 24.65335 12.751 0.00194
C 24.62047 11.29222 -0.00621
C 25.85121 10.5727 0.02611
C 25.85348 9.17396 0.02198
C 24.64139 8.45577 0.01094
C 24.6165 7.01741 0.00235
C 25.79546 6.28739 0.01495
C 25.96034 32.06693 0.02316
C 25.81404 4.91022 0.01259
C 24.50864 2.83792 0.01699
C 25.87673 2.13736 -0.00416
C 25.85256 0.71492 0.01177
C 24.6038 0.03412 0.04266
C 27.10566 32.75896 0.01324
C 28.29836 32.05388 0.0014
C 28.37149 30.70715 0.00924
C 28.37688 13.25943 0.02326
C 24.56021 4.24354 0.01799
C 24.68028 32.50965 0.01257
C 22.12924 0.02443 0.00152
C 23.38013 0.75394 -0.00294
C 19.56968 4.31941 -0.0264
C 19.62748 2.91556 -0.01154
C 20.79531 2.22967 0.00684
C 20.82241 0.7473 -0.01052
C 19.65417 34.07453 -0.01679
C 22.10964 32.7562 0.00367
C 23.40414 32.19387 0.04306
C 23.40032 13.37361 0.00996
C 22.13499 12.89249 0.00195
C 22.15142 11.32971 -0.00802
C 23.36378 10.59915 -0.00218
C 23.49065 9.19993 -0.01654
C 22.1003 8.49422 -0.00037
C 22.19522 7.08738 -0.0032
C 23.33653 6.35678 0.00622
C 23.29218 4.946 -0.02815
C 22.1083 4.2604 -0.00942
C 22.10808 2.85052 0.00487
C 23.32117 2.17031 0.00826
C 20.90371 6.41888 -0.00229
C 2.42826 32.65586 0.02322
