290
Graphene
C 0.02187 0.04873 0.01295
C 11.14664 2.11775 0.00143
C 11.03936 0.76398 -0.017
C 9.80708 0.07897 0.00364
C 12.34053 32.63792 -0.00831
C 13.59962 31.98466 -0.02957
C 13.54979 30.5651 -0.04422
C 9.79949 2.79962 0.00667
C 12.26519 29.82492 0.00654
C 13.48103 27.60486 -0.04076
C 13.53703 26.17861 -0.00652
C 12.34286 25.62508 0.0058
C 12.34066 2.74382 -0.00865
C 13.58933 2.15225 0.00675
C 13.59222 0.64565 -0.00311
C 12.27353 28.48479 -0.00703
C 12.31046 34.05111 0.00742
C 9.71783 4.20083 -0.0054
C 9.77414 25.53318 0.01739
C 7.42373 16.9056 -0.00491
C 8.6344 4.84827 0.03338
C 7.3512 4.29866 -0.0258
C 7.35994 2.81943 -0.0331
C 8.55274 2.18467 -0.00316
C 8.52147 0.80837 0.02188
C 9.86294 24.21476 0.00755
C 7.38019 0.02797 -0.01979
C 11.09994 31.9827 -0.01581
C 11.07498 30.56317 0.01452
C 9.83459 29.83158 0.04892
C 9.85147 28.3859 -0.00111
C 11.10781 27.73893 -0.03557
C 11.09653 26.33575 0.03754
C 9.83529 32.71462 0.02691
C 7.32635 19.97322 -0.00109
C 14.81258 32.58329 -0.01594
C 15.99739 30.48945 -0.01154
C 17.36034 4.33947 -0.03213
C 17.29917 2.83663 0.02239
C 18.42023 2.08478 0.01153
C 18.43043 0.72718 0.02734
C 17.21601 34.02 -0.0055
C 19.60924 32.66732 0.01515
C 18.3882 4.87811 -0.02845
C 20.98784 31.99629 -0.00225
C 19.67626 29.86599 -0.01107
C 19.67313 28.42231 -0.01586
C 20.89993 27.78645 -0.01971
C 20.72929 26.28948 -0.02118
C 19.74874 25.55939 0.00733
C 20.9544 6.33425 -0.00178
C 20.91227 30.59316 0.00071
C 16.01054 31.8914 0.0106
C 17.17604 25.60044 0.03374
C 18.42582 27.73647 0.03046
C 14.76745 29.81664 -0.01721
C 14.81726 28.44039 -0.02422
C 15.97607 27.655 0.01277
C 15.988 26.20292 0.00096
C 14.76753 25.57432 -0.01527
C 14.83502 2.71768 0.01087
C 18.3419 26.22374 0.0296
C 15.99258 2.12175 0.00199
C 14.79068 33.99553 -0.00478
C 17.22871 32.60936 -0.01662
C 18.42528 31.97291 -0.01185
C 18.3803 30.51169 0.01126
C 17.16895 29.82641 0.01852
C 17.12966 28.42542 -0.00381
C 15.97013 0.71412 0.01511
C 7.39809 21.30313 0.03698
C 8.63714 21.96249 -0.02213
C 8.68237 23.38424 0.00028
C 2.46491 11.39246 -0.01789
C 3.71091 10.72049 0.00444
C 3.69933 9.27036 -0.00925
C 2.45505 8.52652 0.01877
C 2.44814 7.03468 0.01363
C 3.66098 6.35419 -0.02162
C 2.44482 12.79983 0.02894
C 3.75241 4.9827 0.00415
C 2.42848 2.84444 0.02162
C 3.63764 2.15385 0.0076
C 3.62941 0.73084 0.01241
C 2.44869 34.0773 -0.01454
C 4.83815 32.67302 0.01945
C 6.11444 31.98327 0.01416
C 2.49562 4.24713 -0.0014
C 6.1296 30.53537 0.03542
C 3.69042 13.42462 -0.02971
C 2.40952 15.60393 0.02819
C 3.70079 30.47368 0.03592
C 2.39201 29.79721 0.00406
C 2.4962 28.38228 0.00943
C 3.76049 27.72043 0.02841
C 3.65121 26.35048 -0.01111
C 2.47337 25.52135 -0.01275
C 3.64272 14.90752 0.00165
C 2.43259 24.17297 0.00985
C 3.69761 22.07716 -0.00428
C 2.46704 21.25674 0.03101
C 2.45246 19.90355 -0.01536
C 3.65035 19.21229 -0.02689
C 3.65703 17.75295 -0.01046
C 2.45162 17.04534 -0.00891
C 3.66112 23.50767 -0.02245
C 4.92715 29.76992 0.02299
C 4.96307 28.42282 0.00244
C 6.19982 27.69523 -0.01717
C 4.91904 4.29131 0.01848
C 4.83318 2.9023 -0.00619
C 6.13807 2.15376 -0.02162
C 6.12769 0.69215 0.00889
C 4.86772 0.00506 -0.00481
C 7.35005 32.7057 0.00979
C 6.18286 4.92123 0.02098
C 8.65973 31.97605 0.01443
C 7.35858 29.8197 -0.02815
C 7.46526 28.37974 -0.04147
C 8.65679 27.66683 -0.05302
C 8.53664 26.25682 0.00213
C 7.35196 25.63748 -0.00066
C 7.37315 24.14877 -0.00289
C 8.6448 30.51574 0.03505
C 6.10696 6.36981 -0.03113
C 4.99416 7.07371 0.0351
C 4.90546 8.4833 0.00422
C 6.14959 26.26838 0.05265
C 4.80655 25.54184 -0.01952
C 4.8841 24.21287 -0.02813
C 6.1037 23.49407 0.00374
C 6.13416 22.05727 0.00052
C 4.93129 21.33574 -0.03682
C 4.91788 19.80008 0.01965
C 6.22133 19.1942 0.02058
C 6.22731 17.75288 -0.01957
C 4.92173 17.09614 -0.0108
C 4.92707 15.59848 -0.00368
C 6.05138 14.79911 -0.02696
C 4.8886 12.71519 -0.00114
C 4.97675 11.40907 0.00228
C 6.11633 9.16479 0.00798
C 20.91529 5.01363 0.00768
C 19.66449 4.34915 -0.0276
C 19.62623 2.85408 0.03005
C 20.95046 2.12969 -0.04078
C 33.30744 22.01949 -0.01429
C 33.2797 19.24015 -0.0136
C 33.11101 17.64791 0.00594
C 31.96092 16.97739 -0.02474
C 31.87354 15.64899 0.00369
C 33.14376 14.82982 0.00455
C 33.17434 23.39986 -0.02383
C 33.19099 13.48482 -0.00644
C 31.93983 11.37664 0.00137
C 33.2174 10.60277 0.00199
C 33.17655 9.24618 0.04381
C 31.9536 8.55904 0.02806
C 31.99973 7.12682 0.01504
C 33.18189 6.38487 -0.00069
C 31.99925 12.76477 -0.01839
C 33.2331 4.99773 0.04926
C 32.00855 24.14855 0.01574
C 33.17318 26.33623 0.03794
C 29.55139 7.0816 0.07705
C 30.77548 6.46505 0.0103
C 30.73328 5.01638 0.02108
C 29.5421 4.33875 0.00716
C 29.46312 2.93842 0.00307
C 30.70061 2.1811 0.00346
C 31.95199 25.54852 0.01927
C 30.65474 0.70754 0.01713
C 31.9914 32.69348 0.01428
C 33.22678 31.92958 -0.02142
C 33.22721 30.50401 0.0544
C 31.96128 29.8675 0.00026
C 31.9477 28.47517 0.00682
C 33.21074 27.73698 -0.01779
C 29.4137 34.07938 -0.01694
C 31.93383 4.32671 -0.03838
C 31.96479 2.80636 0.00349
C 33.231 2.12227 -0.00323
C 1.16711 14.96921 -0.02957
C 1.19806 13.52703 0.00343
C 0.05437 12.84555 -0.02656
C 0.01143 11.30206 -0.02442
C 1.21784 10.67022 -0.00027
C 1.16082 9.23841 -0.00583
C 34.41332 15.60561 0.02114
C 34.38611 8.56271 -0.02302
C 1.12778 6.36795 0.02931
C 1.16706 4.94568 0.00628
C 34.39068 4.20969 -0.0345
C 0.00195 2.85082 -0.00931
C 1.17957 2.13971 -0.00939
C 1.247 0.75961 -0.00468
C 34.40062 7.0803 -0.02849
C 34.42083 17.02969 0.00648
C 1.23158 17.77217 0.01223
C 1.25692 19.15725 -0.01678
C 33.22629 0.76198 -0.00841
C 31.93701 34.0749 0.0001
C 34.42107 32.68376 -0.02927
C 1.20016 31.96905 -0.01404
C 1.15744 30.60559 0.01027
C 0.05654 29.80591 0.01831
C 0.03558 28.3325 -0.01037
C 1.29786 27.66436 -0.00439
C 1.22362 26.27873 -0.00598
C 34.41685 25.60824 -0.05239
C 0.03416 24.18505 0.03076
C 1.20687 23.43099 0.00723
C 1.22616 22.00465 0.02712
C 34.40716 21.34241 -0.02213
C 0.05408 19.93278 0.01951
C 29.52291 8.4404 0.01908
C 3.70241 31.90918 0.00572
C 30.74894 9.22908 0.01518
C 29.48118 11.37441 -0.03735
C 22.13006 34.05279 0.04306
C 24.57492 32.70382 0.00996
C 25.85979 31.89655 0.00195
C 25.77034 30.483 -0.00802
C 24.52327 29.85965 -0.00218
C 24.54836 28.32552 -0.01654
C 23.34138 0.73242 0.00367
C 25.79612 27.73625 -0.00037
C 24.76687 12.75777 0.00622
C 24.5728 11.33715 -0.02815
C 25.85099 10.67257 -0.00942
C 25.88596 9.20323 0.00487
C 24.61647 8.44025 0.00826
C 24.60519 7.09066 -0.00294
C 25.75405 13.36562 -0.0032
C 25.78152 6.37787 0.00152
C 23.35342 2.11034 -0.01679
C 22.12986 4.25004 0.00684
C 20.9058 0.71902 0.02117
C 19.66408 0.07573 0.02737
C 22.13711 32.67958 -0.00498
C 23.39474 32.01418 0.00135
C 23.30864 30.58481 0.03102
C 22.1317 29.86686 0.02555
C 22.13836 2.82233 -0.01052
C 22.19874 28.44412 0.01423
C 23.45733 10.60151 -0.009
C 23.29038 9.19435 -0.01199
C 22.12946 8.56389 -0.00229
C 22.08004 7.1589 -0.00938
C 23.40809 6.45321 -0.0264
C 23.31798 4.88482 -0.01154
C 23.29979 27.66407 -0.00285
C 25.81305 4.94721 0.01257
C 24.66217 4.24045 0.02316
C 24.5464 2.80221 0.04185
C 27.00308 2.85892 -0.02049
C 28.25364 2.09582 -0.01854
C 28.24454 0.70425 -0.01415
C 27.02988 34.01258 -0.03039
C 29.50628 32.7254 0.01836
C 30.76047 32.00317 0.03531
C 27.05 4.24797 0.03265
C 30.7301 30.53999 -0.00669
C 29.44338 28.35947 0.01705
C 30.66327 27.70475 -0.0405
C 30.7783 26.33138 -0.01303
C 30.8074 14.81745 -0.01461
C 30.73724 13.4858 -0.02155
C 29.45706 12.86921 -0.00944
C 29.51231 29.83644 0.0101
C 28.27258 5.02322 0.00261
C 28.2478 6.41833 0.02326
C 27.0166 7.07776 0.00924
C 25.80462 2.15565 0.00194
C 25.86228 0.71125 -0.00621
C 24.60653 0.02468 0.02611
C 27.04612 32.61249 0.02198
C 28.26503 31.94729 0.01094
C 28.25872 30.54892 0.00235
C 27.03492 29.91177 0.01495
C 27.05635 28.28029 0.01259
C 28.29611 27.6544 0.01799
C 28.23385 13.44966 0.01699
C 27.07065 12.85248 -0.00416
C 27.09635 11.34286 0.01177
C 28.20358 10.60118 0.04266
C 28.26176 9.19526 0.01324
C 27.06937 8.50375 0.0014
C 30.71638 10.61285 -0.00971
C 2.42085 32.66421 0.0402
