444
Graphene
C 0.0067 34.04507 0.01295
C 13.47369 14.88219 0.01291
C 13.53693 13.4646 0.00093
C 12.24817 12.80149 0.00057
C 12.22097 11.31573 -0.01634
C 13.40388 10.67284 -0.00334
C 13.44059 9.24424 0.02339
C 12.22273 8.64138 0.01641
C 12.18301 7.19719 -0.00719
C 13.4975 6.51714 0.01364
C 13.48288 5.13877 -0.01062
C 12.2153 4.46527 -0.00033
C 12.23842 3.00031 0.03589
C 13.47166 2.15244 -0.02759
C 13.46117 0.74271 0.0402
C 12.30263 0.03245 0.00572
C 14.74547 32.74077 0.03592
C 15.90777 31.96067 0.00406
C 15.96333 30.50907 0.00943
C 14.69449 29.86379 0.02841
C 14.69512 28.46484 -0.01111
C 15.90939 27.67968 -0.01275
C 15.94663 26.30076 0.00985
C 14.73908 25.59758 -0.02245
C 12.23686 15.58608 0.00438
C 12.2016 17.01899 -0.00191
C 13.45561 17.80555 0.00373
C 13.45923 19.24661 0.02147
C 9.82128 11.45059 -0.00494
C 10.96257 10.6842 0.00054
C 10.93215 9.3013 0.03007
C 9.78379 8.50015 -0.00095
C 11.02483 6.58082 0.01572
C 10.98324 5.19468 -0.04848
C 9.66699 4.4408 -0.00892
C 9.85683 2.97838 -0.01362
C 11.02105 2.185 -0.0008
C 11.04043 0.7767 0.0288
C 9.82635 0.05692 0.00393
C 14.78111 24.16615 -0.00428
C 12.2367 32.67247 0.00895
C 13.50908 30.56457 0.02888
C 12.30779 29.87981 -0.00482
C 12.30902 28.46543 -0.01384
C 13.42814 27.6771 0.03693
C 13.40943 26.24847 0.01745
C 12.18398 25.50463 0.00488
C 12.32957 24.16934 -0.01004
C 13.50296 23.46439 -0.02896
C 13.49702 22.04292 -0.00131
C 12.26361 21.32687 -0.01118
C 12.30615 19.93123 -0.014
C 13.5446 31.95361 0.00685
C 16.01414 23.39276 0.03101
C 15.94778 21.987 -0.01536
C 14.6982 21.27824 -0.02689
C 17.27814 24.06823 0.00052
C 18.44967 23.47595 -0.03682
C 18.38688 22.04358 0.01965
C 17.21173 21.30723 0.02058
C 17.26709 19.88339 -0.01957
C 18.4734 19.1606 -0.0108
C 18.40563 17.78914 -0.00368
C 17.19419 17.0934 -0.02696
C 17.13914 15.6312 -0.00114
C 18.38709 14.85678 0.00228
C 18.37543 13.49052 0.00798
C 17.22361 25.48613 0.00374
C 17.17525 12.69277 0.00422
C 18.41706 10.60425 -0.03113
C 18.38043 9.21758 0.02098
C 17.13137 8.57691 0.01848
C 17.16848 7.12567 -0.00619
C 18.36893 6.34983 -0.02162
C 18.43664 4.91966 0.00889
C 17.18359 4.19972 -0.00481
C 17.18576 2.77578 0.00979
C 18.41143 2.08714 0.01443
C 18.45168 0.7073 0.03505
C 17.22317 34.05946 -0.02815
C 17.14786 11.3428 0.0351
C 9.79972 12.86058 -0.00562
C 18.43517 26.21336 -0.02813
C 17.18704 28.35375 0.05265
C 14.71541 19.84012 -0.01046
C 15.95883 19.1742 -0.00891
C 15.90096 17.75602 0.02819
C 14.61705 17.05112 0.00165
C 14.66664 15.58248 -0.02971
C 15.88569 14.95766 0.02894
C 15.9494 13.50054 -0.01789
C 14.74598 12.826 0.00444
C 14.69346 11.46522 -0.00925
C 15.85774 10.65928 0.01877
C 15.86829 9.21736 0.01363
C 18.48732 27.61848 -0.01952
C 14.70276 8.55846 -0.02162
C 15.99669 6.42591 -0.0014
C 15.88825 5.0108 0.02162
C 14.66416 4.31986 0.0076
C 14.73162 2.82816 0.01241
C 15.94723 2.02354 -0.01454
C 15.99737 0.62579 0.01945
C 14.75137 0.04615 0.01416
C 17.22959 32.6305 0.03542
C 18.37513 31.87506 0.02299
C 18.31828 30.46613 0.00244
C 17.1255 29.70991 -0.01717
C 14.78465 7.07405 0.00415
C 19.57604 32.6449 -0.04147
C 10.98227 13.49071 -0.01142
C 9.7708 15.69554 0.01396
C 3.71544 0.72941 -0.00407
C 2.497 34.07398 0.01138
C 4.89321 32.74822 0.03278
C 6.22491 32.08714 -0.00177
C 6.19139 30.60558 0.04421
C 4.94996 29.88189 0.00088
C 4.8323 28.43099 0.00828
C 6.16254 27.68143 -0.02375
C 6.20492 26.328 0.00558
C 4.98447 25.49293 -0.0059
C 4.83036 24.0626 -0.01386
C 6.07841 23.35881 -0.02805
C 6.13876 21.98158 0.00081
C 4.87883 21.40156 0.00245
C 4.76892 19.90816 0.02728
C 6.02835 19.17604 -0.00039
C 6.08221 17.74562 0.0064
C 4.83501 16.99696 0.00211
C 4.87611 15.60389 -0.00449
C 6.09169 14.8998 -0.01979
C 6.06903 13.46903 0.02784
C 4.86895 12.79103 -0.01977
C 5.00415 11.39729 -0.00561
C 3.72065 2.18882 -0.01299
C 2.53708 2.92622 -0.0154
C 2.4963 4.33422 0.00662
C 3.66489 5.03742 0.00748
C 3.75 30.64095 -0.03951
C 2.53592 29.80928 -0.00141
C 2.46333 28.39282 -0.00374
C 3.67294 27.67525 -0.0213
C 3.7488 26.2535 0.01116
C 2.47265 25.57041 -0.0005
C 2.39027 24.12491 -0.00018
C 3.58133 23.40164 0.01073
C 3.64179 22.01009 0.01984
C 2.35988 21.32937 0.00535
C 2.38455 19.87718 -0.00198
C 6.23941 10.68821 0.00208
C 3.5584 19.15213 -0.00012
C 2.44113 17.03 -0.03672
C 2.35818 15.55387 0.01913
C 3.62979 14.91063 0.00267
C 3.57334 13.43626 0.00787
C 2.46734 12.69954 0.02426
C 2.5588 11.27218 0.01218
C 3.88683 10.59256 -0.01471
C 3.97156 9.19047 -0.02827
C 2.62518 8.52727 0.01078
C 2.57393 7.10701 -0.00112
C 3.78045 6.39621 0.03345
C 3.67288 17.74855 -0.04306
C 6.48171 9.31488 0.01707
C 5.23673 8.49834 0.02769
C 5.04667 7.14992 -0.03291
C 8.56167 10.61419 -0.03113
C 8.3577 9.18111 -0.02566
C 8.47316 5.04601 -0.00094
C 7.36877 4.25279 0.02322
C 7.33679 2.90623 -0.00725
C 8.59684 2.29245 -0.05697
C 8.61116 0.85531 0.01087
C 7.33485 0.13262 -0.01343
C 9.85212 32.69562 0.00988
C 11.07405 31.97042 0.0276
C 11.02618 30.57124 0.01305
C 7.42168 11.47421 0.017
C 9.84183 29.85842 -0.00077
C 11.04018 27.72673 -0.02929
C 11.05056 26.24151 -0.00966
C 9.866 25.64254 -0.03337
C 9.81387 24.1925 0.01227
C 11.01946 23.36903 0.00873
C 11.09374 22.00307 -0.00049
C 9.80482 21.34545 0.00848
C 9.75574 19.92073 -0.01303
C 11.0472 19.16011 -0.01378
C 10.98541 17.75101 0.02635
C 9.7742 17.09993 0.0127
C 9.78027 28.40597 0.03368
C 11.00484 14.98334 0.01849
C 7.35841 12.86172 -0.00643
C 8.54773 15.01448 -0.00518
C 6.19623 6.30145 -0.04999
C 6.11798 4.929 0.04505
C 4.83042 4.24612 0.03284
C 4.90743 2.88289 -0.04307
C 6.11003 2.21846 0.03189
C 6.11493 0.79474 0.00031
C 4.93692 0.01358 -0.003
C 7.49863 32.67098 0.01402
C 8.66209 31.98123 0.02379
C 8.65325 30.58219 0.00907
C 7.42179 29.92616 0.00643
C 8.55635 13.59786 0.0086
C 7.38271 28.48581 -0.01509
C 8.61912 26.34234 0.02374
C 7.40722 25.62869 0.00402
C 7.32206 24.16229 0.0073
C 8.56622 23.41673 0.0174
C 8.54278 22.05656 0.03828
C 7.30811 21.3752 0.01226
C 7.3561 19.91846 -0.00279
C 8.5567 19.26736 0.01996
C 8.52767 17.84399 -0.03996
C 7.32059 17.14081 0.01465
C 7.29105 15.72407 -0.00074
C 8.54086 27.76255 0.03267
C 20.88587 31.98737 -0.05302
C 20.88651 30.60842 0.00213
C 19.65934 29.8751 -0.00066
C 29.49883 15.5597 0.01705
C 30.65969 14.83512 -0.0405
C 30.71479 13.38267 -0.01303
C 29.48583 12.62953 -0.01461
C 29.58634 11.21642 -0.02155
C 30.73568 10.54263 -0.00944
C 30.66882 9.10867 -0.03735
C 29.43221 8.49239 -0.00971
C 29.57175 7.08849 0.01518
C 30.81839 6.3312 0.01908
C 30.67367 4.9947 0.07705
C 29.53461 4.25373 0.0103
C 29.45518 2.83517 0.02108
C 30.73637 2.10561 0.00716
C 30.71833 0.71887 0.00307
C 29.51379 34.05449 0.00346
C 32.00495 32.70796 0.01713
C 33.15551 31.98131 -0.01694
C 33.25439 30.56011 0.01428
C 31.99346 29.84543 -0.02142
C 31.97476 28.44194 0.0544
C 33.21226 27.68587 0.00026
C 33.26253 26.27411 0.00682
C 29.50917 16.97197 0.0101
C 30.66089 17.76613 -0.00669
C 30.67875 19.18303 0.03531
C 29.48367 19.936 0.01836
C 26.96909 11.31439 0.04185
C 28.23842 10.59147 0.00194
C 28.22395 9.16056 -0.00621
C 26.98267 8.40218 0.02611
C 26.99009 6.99597 0.02198
C 28.24699 6.36932 0.01094
C 28.24285 4.9759 0.00235
C 27.06364 4.22984 0.01495
C 27.03198 2.83042 0.01259
C 28.24513 2.11728 0.01799
C 28.30132 0.74189 0.01699
C 31.95961 25.65608 -0.01779
C 27.05041 0.03029 -0.00416
C 30.76433 31.98269 0.04266
C 30.81007 30.60565 0.01324
C 29.51581 29.97033 0.0014
C 29.49614 28.54005 0.00924
C 30.68624 27.80214 0.02326
C 30.71571 26.34644 0.00261
C 29.55092 25.62702 0.03265
C 29.51012 24.21613 -0.02049
C 30.72586 23.42039 -0.01854
C 30.75137 22.04214 -0.01415
C 29.50762 21.28862 -0.03039
C 29.59277 32.62735 0.01177
C 31.92635 24.10384 0.03794
C 33.1721 23.44096 0.01927
C 33.18221 22.01183 0.01574
C 0.04399 25.54426 -0.05239
C 34.35457 24.1574 0.03076
C 1.15117 23.43095 0.00723
C 1.14353 21.94412 0.02712
C 34.38226 21.29445 -0.02213
C 34.32944 19.86727 0.01951
C 1.1556 19.18147 -0.01678
C 1.16231 17.67032 0.01223
C 34.28141 16.94301 0.00648
C 34.32862 15.52251 0.02114
C 1.12029 14.8062 -0.02957
C 1.24464 26.31016 -0.00598
C 1.20358 13.3684 0.00343
C 34.42233 11.26488 -0.02442
C 1.29221 10.52935 -0.00027
C 1.34666 9.17853 -0.00583
C 0.10814 8.4825 -0.02302
C 0.04506 7.05539 -0.02849
C 1.30346 6.38043 0.02931
C 1.24828 4.937 0.00628
C 0.01001 4.24473 -0.0345
C 0.00681 2.79286 -0.00931
C 1.26988 2.13621 -0.00939
C 1.25377 0.73329 -0.00468
C 0.02594 12.7264 -0.02656
C 26.98905 12.72349 0.02316
C 1.20304 27.74114 -0.00439
C 0.08602 29.85046 0.01831
C 31.92222 21.34273 -0.02383
C 31.87821 19.91444 -0.01429
C 33.04951 19.09906 -0.0136
C 33.12722 17.66198 0.00594
C 31.90196 16.95115 -0.02474
C 31.88769 15.54916 0.00369
C 33.10502 14.85913 0.00455
C 33.14739 13.37493 -0.00644
C 31.99323 12.57292 -0.01839
C 31.96655 11.21354 0.00137
C 33.18668 10.57401 0.00199
C 0.00716 28.40569 -0.01037
C 33.22855 9.12949 0.04381
C 32.03822 7.02628 0.01504
C 33.24955 6.37567 -0.00069
C 33.20768 4.9597 0.04926
C 31.92904 4.25611 -0.03838
C 31.94926 2.77317 0.00349
C 33.26563 2.13025 -0.00323
C 33.25347 0.73719 -0.00841
C 31.9644 0.00933 0.0001
C 34.42173 32.67585 -0.02927
C 1.22537 31.9876 -0.01404
C 1.30237 30.6196 0.01027
C 31.902 8.44688 0.02806
C 28.20609 13.38481 0.01257
C 28.23621 14.88863 0.00152
C 27.03027 15.52931 -0.00294
C 22.1081 32.67951 -0.04422
C 23.31935 31.89421 0.00654
C 23.30455 30.51501 -0.00703
C 22.07848 29.82744 -0.04076
C 22.09655 28.43289 -0.00652
C 23.35964 27.73829 0.0058
C 23.35324 26.33728 -0.00865
C 22.06475 25.53295 0.00675
C 22.01 24.12487 -0.00311
C 23.31351 23.47214 0.00742
C 23.36223 22.0607 -0.01594
C 19.60561 34.03999 -0.02957
C 22.12041 21.34 0.0106
C 23.29203 19.12474 -0.01721
C 23.38354 17.70871 -0.02422
C 22.10747 16.96503 0.01277
C 22.03854 15.60831 0.00096
C 23.28845 14.8787 -0.01527
C 23.28101 13.47873 0.01087
C 22.10475 12.79199 0.00199
C 22.05655 11.39756 0.01511
C 23.26416 10.66454 -0.00478
C 23.32763 9.24258 -0.01662
C 22.09171 8.48655 -0.01185
C 22.14183 19.89591 -0.01154
C 22.06178 7.11245 0.01126
C 20.82045 0.6602 -0.00831
C 19.67689 2.81844 -0.017
C 19.65427 28.44978 -0.00289
C 20.87301 27.76435 0.00028
C 20.86831 26.37197 -0.02213
C 19.68926 25.50423 0.03698
C 19.64454 24.15331 -0.00109
C 20.80949 23.37844 -0.00491
C 20.92651 21.94469 0.03338
C 19.64133 21.28811 -0.0258
C 19.63 19.90506 -0.0331
C 20.94443 19.19164 -0.00316
C 20.94421 17.71671 0.02188
C 20.88991 2.02876 0.00364
C 19.61995 17.08601 -0.01979
C 20.86946 14.90071 -0.01581
C 20.94295 13.5449 0.01452
C 19.68242 12.77481 0.04892
C 19.60139 11.32583 -0.00111
C 20.82811 10.63102 -0.03557
C 20.88421 9.22052 0.03754
C 19.62564 8.50574 0.01739
C 19.61416 7.06992 0.00755
C 20.80156 6.37192 -0.0054
C 20.87083 4.95656 0.00667
C 19.65921 4.25709 0.00143
C 19.62964 15.56197 0.02691
C 3.70054 32.04809 -0.02419
C 23.28201 6.3553 0.01852
C 22.04082 4.22967 0.03046
C 24.51587 7.04434 -0.00285
C 25.71617 6.33084 -0.009
C 25.81469 4.97705 -0.01199
C 24.56406 4.23903 -0.00229
C 24.5229 2.83545 -0.00938
C 25.77585 2.12083 -0.0264
C 25.78431 0.73721 -0.01154
C 24.56078 0.08681 0.00684
C 27.08351 32.70088 -0.01052
C 28.28713 32.00487 -0.01679
C 28.2787 30.62238 0.00367
C 24.47639 8.44433 0.01423
C 27.03527 29.92915 0.04306
C 28.27224 27.75536 0.00195
C 28.33545 26.25093 -0.00802
C 27.029 25.62299 -0.00218
C 26.97618 24.2394 -0.01654
C 28.16509 23.55191 -0.00037
C 28.34087 22.04897 -0.0032
C 27.10424 21.38437 0.00622
C 26.98516 19.97283 -0.02815
C 28.23447 19.16035 -0.00942
C 28.2715 17.62142 0.00487
C 27.00918 16.95286 0.00826
C 27.00706 28.49389 0.00996
C 23.27928 4.97132 -0.00381
C 25.80264 9.23909 0.02555
C 24.54112 11.29813 0.00135
C 22.07391 2.80063 0.0296
C 23.29805 2.13482 0.03374
C 23.32806 0.72509 -0.02845
C 22.10432 0.05188 -0.03213
C 24.5568 32.63558 0.02239
C 25.77342 32.01203 0.01153
C 25.84105 30.59288 0.02734
C 24.55138 29.85732 -0.0055
C 24.54504 28.40483 0.01515
C 25.775 27.76076 -0.00225
C 25.84582 26.31055 0.00071
C 25.78437 10.6356 0.03102
C 24.57786 25.60128 -0.01107
C 25.74041 23.41289 -0.01971
C 25.88283 22.0451 -0.02118
C 24.58712 21.24144 0.00733
C 24.58128 19.88987 -0.00178
C 25.77047 19.22385 0.00768
C 25.9216 17.78785 -0.0276
C 24.66452 17.0689 0.03005
C 24.58332 15.63783 -0.04078
C 25.79408 14.8487 0.02117
C 25.76726 13.42871 0.02737
C 24.53283 12.71027 -0.00498
C 24.55428 24.2394 -0.01586
C 2.45116 32.68347 0.02438
