400
Graphene
C 0.01548 0.03065 0.01295
C 13.58098 31.9268 0.00165
C 13.49085 30.61507 -0.02971
C 12.31368 29.84235 0.02894
C 12.30551 28.40413 -0.01789
C 12.37829 19.88624 0.00444
C 13.49246 19.20614 -0.00925
C 13.48798 17.72195 0.01877
C 12.26472 17.02566 0.01363
C 12.26527 15.50274 -0.02162
C 13.50845 14.89143 0.00415
C 13.58462 13.51884 -0.0014
C 12.33695 12.75276 0.02162
C 12.33216 11.33013 0.0076
C 13.56614 10.6206 0.01241
C 13.49889 9.28457 -0.01454
C 12.29636 8.50326 0.01945
C 12.28531 7.06113 0.01416
C 13.46838 6.35283 0.03542
C 13.60607 4.9019 0.02299
C 12.26662 4.23797 0.00244
C 12.28265 2.87519 -0.01717
C 12.30665 32.61467 0.02819
C 13.50751 2.15584 0.05265
C 9.79645 0.05589 -0.00891
C 11.08351 2.17265 -0.02689
C 11.09178 26.31333 0.02339
C 9.88832 25.5854 0.01641
C 9.86915 24.15579 -0.00719
C 9.8037 21.335 0.01364
C 9.86076 19.91994 -0.01062
C 11.08993 19.20839 -0.00033
C 11.0734 17.82232 0.03589
C 9.81563 17.04619 -0.02759
C 9.8252 15.68345 0.0402
C 11.07156 14.85301 0.00572
C 11.06631 13.4888 0.03592
C 9.85349 12.80812 0.00406
C 9.89897 11.34667 0.00943
C 11.0422 10.60727 0.02841
C 11.05322 9.2586 -0.01111
C 9.85472 8.50736 -0.01275
C 9.78196 7.098 0.00985
C 11.07757 6.38994 -0.02245
C 11.1314 4.98777 -0.00428
C 9.84132 4.28709 0.03101
C 9.84938 2.84786 -0.01536
C 11.04899 0.80914 -0.01046
C 11.09045 27.72199 -0.00334
C 13.49193 0.64157 -0.01952
C 14.76384 32.63433 0.00374
C 18.45484 14.97254 -0.05302
C 18.44156 13.46149 0.00213
C 17.17809 12.7871 -0.00066
C 17.20375 11.38254 -0.00289
C 18.49189 10.63687 0.00028
C 18.51003 9.28942 -0.02213
C 17.22021 8.48768 0.03698
C 17.22779 7.06547 -0.00109
C 18.45519 6.36205 -0.00491
C 18.4591 4.92392 0.03338
C 17.17261 4.25639 -0.0258
C 17.18949 2.81962 -0.0331
C 18.4391 2.1003 -0.00316
C 18.46719 0.68036 0.02188
C 17.22037 0.02632 -0.01979
C 19.64425 32.67525 0.02691
C 20.87337 31.96115 -0.01581
C 20.88031 30.56208 0.01452
C 20.92935 19.20421 0.04892
C 20.8979 17.77057 -0.00111
C 19.69352 17.0037 -0.03557
C 17.23775 15.62951 -0.04147
C 12.29045 0.00509 -0.02813
C 17.20991 17.08988 -0.02815
C 18.49602 31.99915 0.01443
C 15.96909 31.93623 0.00052
C 16.01478 30.50848 -0.03682
C 15.95462 17.71519 0.01965
C 14.7591 17.02288 0.02058
C 14.78363 15.63882 -0.01957
C 15.96412 14.91721 -0.0108
C 15.9593 13.50158 -0.00368
C 14.72708 12.77779 -0.02696
C 14.74969 11.34324 -0.00114
C 15.9406 10.66221 0.00228
C 15.98221 9.24679 0.00798
C 14.77331 8.51431 0.00422
C 14.73178 7.07283 0.0351
C 15.96752 6.31117 -0.03113
C 15.95079 4.93464 0.02098
C 14.77847 4.21754 0.01848
C 14.72234 2.8186 -0.00619
C 16.00152 2.12359 -0.02162
C 16.02807 0.73662 0.00889
C 14.71754 0.05142 -0.00481
C 17.23818 32.60529 0.00979
C 18.42008 17.72817 0.03505
C 19.67923 15.62692 0.03754
C 9.84046 28.4476 -0.01634
C 11.08074 30.47797 0.00093
C 2.47253 4.28021 0.00402
C 2.4437 2.87208 0.0073
C 3.65777 2.13168 0.0174
C 3.67704 0.71149 0.03828
C 2.46608 0.03613 0.01226
C 4.90263 32.6361 -0.00279
C 6.16433 31.98947 0.01996
C 6.16913 30.55319 -0.03996
C 4.92866 29.83186 0.01465
C 4.8649 28.46113 -0.00074
C 6.16828 27.71155 -0.00518
C 6.16416 26.25085 0.0086
C 4.88628 25.56058 -0.00643
C 4.88022 24.18126 0.017
C 6.19063 23.37671 -0.03113
C 6.20376 22.02421 -0.02566
C 4.90214 21.28726 -0.00094
C 4.98041 19.84092 0.02322
C 6.16708 19.14219 -0.00725
C 6.09321 17.7402 -0.05697
C 4.89124 17.1286 0.01087
C 3.70705 4.98516 0.02374
C 4.94423 15.59731 -0.01343
C 3.67314 6.40458 0.03267
C 2.50728 8.52001 0.00643
C 3.64961 30.48858 0.0064
C 2.49994 29.77956 0.00211
C 2.38941 28.33348 -0.00449
C 3.67746 27.74062 -0.01979
C 3.63502 26.30642 0.02784
C 2.42585 25.5659 -0.01977
C 2.48869 24.16493 -0.00561
C 3.69883 23.37234 0.00208
C 3.73767 22.03038 0.01707
C 2.49352 21.37049 0.02769
C 2.48615 19.90485 -0.03291
C 3.6926 19.15357 -0.04999
C 3.65368 17.6912 0.04505
C 2.4332 16.99993 0.03284
C 2.4799 15.60313 -0.04307
C 3.68558 14.86566 0.03189
C 3.68628 13.51185 0.00031
C 2.45966 12.85488 -0.003
C 2.40649 11.38317 0.01402
C 3.72838 10.66303 0.02379
C 3.74717 9.25398 0.00907
C 2.46672 7.13956 -0.01509
C 9.80796 29.73317 0.00057
C 6.12944 14.90353 0.00988
C 4.87495 12.81325 0.01305
C 8.55009 19.1457 -0.0008
C 8.61674 17.75017 0.0288
C 7.37013 17.07947 0.00393
C 7.36718 15.65759 0.00895
C 8.63405 14.87496 0.00685
C 8.59252 13.5045 0.02888
C 7.35982 12.8043 -0.00482
C 7.3961 11.36748 -0.01384
C 8.60229 10.63127 0.03693
C 8.61093 9.22135 0.01745
C 7.39388 8.55492 0.00488
C 7.34338 7.11901 -0.01004
C 8.55936 6.45758 -0.02896
C 8.65257 4.9842 -0.00131
C 7.40529 4.29723 -0.01118
C 7.36864 2.87006 -0.014
C 8.63001 2.18018 0.02147
C 8.57597 0.79324 0.00373
C 7.36034 0.06339 -0.00191
C 9.86735 32.68167 0.00438
C 11.00968 31.9437 0.01291
C 7.37179 19.90913 -0.01362
C 6.14129 13.49715 0.0276
C 7.39689 21.27175 -0.00892
C 8.57699 23.47294 0.01572
C 4.88761 11.42378 -0.00077
C 6.15938 10.66977 0.03368
C 6.10868 9.22207 -0.02929
C 4.88676 8.55985 -0.00966
C 4.90099 7.07441 -0.03337
C 6.16009 6.38425 0.01227
C 6.1358 5.02977 0.00873
C 4.90709 4.2788 -0.00049
C 4.9599 2.88871 0.00848
C 6.1796 2.10017 -0.01303
C 6.14483 0.74809 -0.01378
C 4.87893 34.07624 0.02635
C 7.39391 32.6819 0.0127
C 8.59368 31.98613 0.01396
C 8.53948 30.54545 0.01849
C 7.35356 29.83015 -0.01142
C 7.35624 28.34014 -0.00562
C 8.6205 27.71075 -0.00494
C 8.56738 26.26473 0.00054
C 7.39111 25.57991 0.03007
C 7.37812 24.10532 -0.00095
C 8.58461 22.00947 -0.04848
C 20.91064 14.9202 0.01739
C 20.93459 13.48447 0.00755
C 19.70144 12.81843 -0.0054
C 29.50224 7.08085 0.01518
C 30.73937 6.40895 0.01908
C 30.72788 4.98049 0.07705
C 29.45057 4.30378 0.0103
C 29.56304 2.84311 0.02108
C 30.76114 2.08052 0.00716
C 30.79776 0.66542 0.00307
C 29.50701 0.00165 0.00346
C 31.95827 32.67428 0.01713
C 33.21972 31.95163 -0.01694
C 33.19373 30.51816 0.01428
C 31.974 29.79805 -0.02142
C 31.97611 28.42098 0.0544
C 33.24938 27.73954 0.00026
C 33.19951 26.20917 0.00682
C 31.99832 25.51961 -0.01779
C 31.99857 24.15832 0.03794
C 33.21031 23.4526 0.01927
C 33.21586 21.95825 0.01574
C 31.94792 21.32048 -0.02383
C 32.01813 19.85076 -0.01429
C 29.46792 8.47884 -0.00971
C 33.18394 19.20171 -0.0136
C 30.71045 9.2226 -0.03735
C 29.48884 11.38863 -0.02155
C 27.0447 34.07521 -0.00416
C 29.51493 32.60688 0.01177
C 30.78435 31.92622 0.04266
C 30.74532 30.55327 0.01324
C 29.57071 29.79597 0.0014
C 29.51911 28.31938 0.00924
C 30.77264 27.67359 0.02326
C 30.76216 26.2322 0.00261
C 29.4717 25.52769 0.03265
C 29.52024 24.08172 -0.02049
C 30.7515 23.45209 -0.01854
C 30.7409 22.04406 -0.01415
C 29.55967 21.37075 -0.03039
C 29.5081 19.87184 0.01836
C 30.77604 19.20648 0.03531
C 30.71455 17.76116 -0.00669
C 29.50251 17.0362 0.0101
C 29.51559 15.60154 0.01705
C 30.80465 14.95112 -0.0405
C 30.77285 13.4927 -0.01303
C 29.48233 12.75374 -0.01461
C 30.7443 10.66817 -0.00944
C 28.28564 0.71061 0.01699
C 33.21831 17.81316 0.00594
C 31.96686 15.53647 0.00369
C 1.18346 22.00688 0.02712
C 34.41932 21.29075 -0.02213
C 0.05655 19.88701 0.01951
C 1.19237 19.14838 -0.01678
C 1.17451 17.74808 0.01223
C 34.41579 16.98471 0.00648
C 34.39624 15.60358 0.02114
C 1.21212 14.86406 -0.02957
C 1.2283 13.55003 0.00343
C 0.01031 12.79912 -0.02656
C 34.41627 11.36294 -0.02442
C 1.21603 10.65854 -0.00027
C 1.1896 9.20094 -0.00583
C 34.37025 8.53701 -0.02302
C 34.43243 7.118 -0.02849
C 1.25114 6.33261 0.02931
C 1.23234 4.93975 0.00628
C 34.39559 4.27253 -0.0345
C 0.0105 2.85011 -0.00931
C 1.23948 2.19418 -0.00939
C 1.22895 0.72832 -0.00468
C 1.19911 23.44047 0.00723
C 31.97935 17.08081 -0.02474
C 0.00693 24.15594 0.03076
C 1.2441 26.27279 -0.00598
C 33.19375 14.85645 0.00455
C 33.20409 13.46424 -0.00644
C 31.94961 12.7957 -0.01839
C 31.95123 11.40967 0.00137
C 33.188 10.59929 0.00199
C 33.17918 9.20709 0.04381
C 31.92125 8.51101 0.02806
C 31.96149 7.13402 0.01504
C 33.23278 6.39758 -0.00069
C 33.14275 4.92038 0.04926
C 31.94019 4.26378 -0.03838
C 31.9945 2.85722 0.00349
C 33.18877 2.07844 -0.00323
C 33.17583 0.71016 -0.00841
C 32.00232 34.04054 0.0001
C 0.01158 32.65435 -0.02927
C 1.26157 31.97288 -0.01404
C 1.21489 30.51068 0.01027
C 0.01125 29.77047 0.01831
C 34.42664 28.39011 -0.01037
C 1.19884 27.65918 -0.00439
C 0.00379 25.58067 -0.05239
C 28.33272 2.10278 0.01799
C 27.04918 2.87609 0.01259
C 26.98307 4.25026 0.01495
C 22.08362 12.74356 0.00199
C 22.13039 11.29496 0.01511
C 23.33363 10.66193 -0.00478
C 23.38966 9.21941 -0.01662
C 22.15844 8.50357 -0.01185
C 22.07302 7.09573 0.01126
C 23.3016 6.31877 0.01852
C 23.37051 4.94744 -0.00381
C 22.13861 4.23128 0.03046
C 22.18369 2.79652 0.0296
C 23.40593 2.07717 0.03374
C 23.39892 0.68532 -0.02845
C 22.12445 34.07934 -0.03213
C 24.62612 32.6393 0.02239
C 25.80064 31.91909 0.01153
C 25.77971 30.53673 0.02734
C 24.62518 29.76666 -0.0055
C 24.64796 28.36322 0.01515
C 25.7979 27.66512 -0.00225
C 25.79064 26.2822 0.00071
C 24.60855 25.52912 -0.01107
C 23.37021 13.44799 0.01087
C 24.6391 24.1775 -0.01586
C 23.32602 14.89364 -0.01527
C 22.13872 17.04627 0.01277
C 19.72372 11.35822 0.00667
C 20.96256 10.65043 0.00143
C 20.94285 9.26108 -0.017
C 19.69498 8.57793 0.00364
C 19.71482 7.04378 -0.00831
C 20.90006 6.40517 -0.02957
C 20.92814 4.99606 -0.04422
C 19.65506 4.3309 0.00654
C 19.63741 2.82394 -0.00703
C 20.92404 2.14944 -0.04076
C 20.90431 0.74607 -0.00652
C 19.67808 34.0766 0.0058
C 22.16516 32.66968 -0.00865
C 23.36464 32.01726 0.00675
C 23.35551 30.48755 -0.00311
C 22.13571 29.89623 0.00742
C 23.44021 27.64948 -0.01594
C 23.42949 21.96569 0.0106
C 22.03637 19.84045 -0.01154
C 23.37119 19.20176 -0.01721
C 23.32318 17.72713 -0.02422
C 22.23422 15.63858 0.00096
C 25.79173 23.46665 -0.01971
C 25.81798 21.99737 -0.02118
C 24.58049 21.2891 0.00733
C 28.20945 26.28996 -0.00802
C 26.98756 25.59569 -0.00218
C 27.01096 24.14945 -0.01654
C 28.25113 23.41048 -0.00037
C 28.32677 21.98517 -0.0032
C 26.96597 21.25647 0.00622
C 27.04633 19.86462 -0.02815
C 28.25064 19.17504 -0.00942
C 28.241 17.71221 0.00487
C 27.00522 17.06183 0.00826
C 27.03288 15.63598 -0.00294
C 28.27898 14.8896 0.00152
C 28.27114 13.49897 0.01257
C 27.05745 12.69096 0.02316
C 27.08297 11.33785 0.04185
C 28.28821 10.63237 0.00194
C 28.29016 9.23819 -0.00621
C 27.13177 8.59695 0.02611
C 27.06276 7.1118 0.02198
C 28.25979 6.32817 0.01094
C 28.26745 4.94228 0.00235
C 28.27428 27.7232 0.00195
C 27.00368 28.42346 0.00996
C 27.06618 29.81718 0.04306
C 28.33127 30.56442 0.00367
C 24.61421 19.86542 -0.00178
C 25.79234 19.17757 0.00768
C 25.79219 17.72122 -0.0276
C 24.57902 17.08369 0.03005
C 24.57283 15.61783 -0.04078
C 25.77939 14.9054 0.02117
C 25.81525 13.47995 0.02737
C 24.6215 12.77909 -0.00498
C 24.57676 11.36624 0.00135
C 25.83354 10.63983 0.03102
C 3.68237 31.92697 -0.00039
C 25.80835 9.26635 0.02555
C 24.63459 7.11585 -0.00285
C 25.79256 6.38361 -0.009
C 25.83695 4.93147 -0.01199
C 24.59211 4.2918 -0.00229
C 24.61813 2.90545 -0.00938
C 25.83711 2.11845 -0.0264
C 25.83288 0.6852 -0.01154
C 24.66877 0.01007 0.00684
C 27.02048 32.67461 -0.01052
C 28.31382 31.95204 -0.01679
C 24.59873 8.55234 0.01423
C 2.46536 32.65062 0.02728
