264
Graphene
C 34.29879 34.07446 0.01295
C 16.12581 32.16504 0.01126
C 14.68689 32.40856 -0.01185
C 12.2207 33.95555 -0.01662
C 13.45381 0.62949 -0.00478
C 13.55077 2.07154 0.01511
C 12.2563 2.78297 0.00199
C 12.25021 4.20932 0.01087
C 13.49986 4.76985 -0.01527
C 13.58683 6.17648 0.00096
C 12.40708 6.9492 0.01277
C 12.64474 8.40863 -0.02422
C 14.18969 8.66054 -0.01721
C 13.49702 31.94019 -0.01154
C 12.22636 32.44594 0.0106
C 9.80619 0.0649 -0.01594
C 11.02857 0.68496 0.00742
C 11.0564 2.06911 -0.00311
C 9.85135 2.81852 0.00675
C 9.77659 4.24624 -0.00865
C 11.07632 4.91954 0.0058
C 11.11451 6.37853 -0.00652
C 9.92332 7.14283 -0.04076
C 10.0559 8.61882 -0.00703
C 11.29986 8.94576 0.00654
C 10.94123 31.77621 -0.04422
C 9.80588 32.65237 -0.02957
C 7.34466 34.05797 -0.00831
C 8.59494 0.81346 0.00364
C 8.59037 2.28413 -0.017
C 14.63603 7.15838 0.01852
C 7.41743 2.98418 0.00143
C 16.2521 6.41877 -0.00381
C 14.77779 4.22711 0.0296
C 25.95974 17.99047 -0.009
C 25.51979 32.74379 -0.00285
C 22.20424 33.84782 0.01423
C 23.40947 0.49131 0.02555
C 23.42598 1.97494 0.03102
C 22.13216 2.68045 0.00135
C 22.11896 4.21608 -0.00498
C 23.40896 4.97063 0.02737
C 23.43398 6.38862 0.02117
C 22.17516 6.98554 -0.04078
C 19.71183 0.02741 0.03005
C 20.97372 0.47776 -0.0276
C 20.92715 2.08003 0.00768
C 19.65626 2.96062 -0.00178
C 19.6675 4.31637 0.00733
C 20.94179 4.99559 -0.02118
C 21.03977 6.4216 -0.01971
C 17.22637 34.04536 -0.01586
C 18.48757 0.71673 -0.01107
C 18.48212 2.19771 0.00071
C 17.15193 2.88197 -0.00225
C 17.19399 4.21351 0.01515
C 18.29034 5.15688 -0.0055
C 17.77315 6.41246 0.02734
C 17.25008 32.69596 0.01153
C 14.69954 34.04072 0.02239
C 15.99656 0.6471 -0.03213
C 15.97828 2.04387 -0.02845
C 14.76784 2.80492 0.03374
C 16.01408 4.86158 0.03046
C 24.64985 17.5337 -0.01199
C 7.37932 4.3793 0.00667
C 8.65197 6.45139 0.00755
C 3.65208 0.73898 0.02098
C 3.63819 2.1407 -0.03113
C 2.45877 2.89818 0.0351
C 2.437 4.29055 0.00422
C 3.63524 5.08554 0.00798
C 3.54976 6.51427 0.00228
C 2.3184 7.18089 -0.00114
C 2.38584 8.63443 -0.02696
C 3.69556 9.32757 -0.00368
C 3.6298 10.73182 -0.0108
C 2.43635 11.47886 -0.01957
C 2.40847 12.92953 0.02058
C 3.76333 13.57922 0.01965
C 3.57779 14.93518 -0.03682
C 2.4548 15.73659 0.00052
C 2.53213 17.1548 0.00374
C 3.65229 17.84046 -0.02813
C 3.52847 19.06876 -0.01952
C 2.29257 19.887 0.05265
C 2.31776 21.34959 -0.01717
C 3.55512 22.04581 0.00244
C 3.72055 23.39399 0.02299
C 2.46127 24.19226 0.03542
C 2.42452 25.55971 0.01416
C 3.64262 26.29271 0.01945
C 3.62607 27.71688 -0.01454
C 2.43098 28.44526 0.01241
C 2.32191 29.87048 0.0076
C 3.55129 30.54798 0.02162
C 2.40851 34.03549 0.01848
C 8.57295 5.05602 -0.0054
C 4.81263 32.73234 -0.00619
C 6.18025 30.56775 0.00889
C 7.38594 7.28363 0.01739
C 7.50074 8.66656 0.03754
C 8.81432 9.30863 -0.03557
C 8.60453 10.74443 -0.00111
C 7.54434 11.29618 0.04892
C 7.43311 28.26124 0.01452
C 7.40071 29.81447 -0.01581
C 8.5492 30.57125 0.02691
C 8.52172 31.94189 -0.01979
C 7.31673 32.68629 0.02188
C 4.90624 0.06089 -0.00316
C 6.12688 0.80358 -0.0331
C 6.1969 2.20539 -0.0258
C 4.88092 2.83286 0.03338
C 4.93922 4.345 -0.00491
C 6.14775 5.1511 -0.00109
C 6.1101 6.48896 0.03698
C 4.81769 7.24833 -0.02213
C 4.89696 8.6361 0.00028
C 6.26178 9.29186 -0.00289
C 6.14172 10.72476 -0.00066
C 4.84622 11.46574 0.00213
C 4.89567 12.86252 -0.05302
C 4.80784 24.20978 -0.04147
C 4.98485 25.52969 -0.02815
C 6.10342 26.39936 0.03505
C 6.09012 27.80105 0.01443
C 4.87078 28.47395 0.00979
C 4.90411 29.88423 -0.00481
C 6.1384 31.9748 -0.02162
C 24.7971 16.22249 -0.00229
C 25.64995 15.11156 -0.00938
C 25.51769 13.60707 -0.0264
C 33.107 2.12282 -0.00323
C 31.92741 2.95627 0.00349
C 31.94201 4.41685 -0.03838
C 33.16787 5.07282 0.04926
C 33.13052 6.50791 -0.00069
C 31.88425 7.22965 0.01504
C 31.88536 8.73034 0.02806
C 33.11254 9.3468 0.04381
C 33.05503 10.76416 0.00199
C 31.81476 11.44068 0.00137
C 31.83853 12.81708 -0.01839
C 33.0087 13.59921 -0.00644
C 33.06441 14.97152 0.00455
C 31.85099 15.67942 0.00369
C 31.7827 17.02834 -0.02474
C 33.02549 17.82494 0.00594
C 33.00076 19.33364 -0.0136
C 31.74537 20.09142 -0.01429
C 31.754 21.52029 -0.02383
C 33.01707 22.089 0.01574
C 33.13483 23.53535 0.01927
C 31.95588 24.15962 0.03794
C 32.08024 25.58255 -0.01779
C 33.20838 26.31737 0.00682
C 33.05709 27.6622 0.00026
C 31.70771 28.29924 0.0544
C 31.78162 29.64144 -0.02142
C 33.04964 30.42984 0.01428
C 32.99651 31.89823 -0.01694
C 33.08871 0.67821 -0.00841
C 31.80293 32.59744 0.01713
C 31.81992 0.01668 0.0001
C 0.99806 31.84235 -0.01404
C 1.18536 0.66822 -0.00468
C 1.17019 2.13239 -0.00939
C 34.36314 2.77554 -0.00931
C 34.37233 4.29539 -0.0345
C 1.13468 4.98821 0.00628
C 1.14852 6.46955 0.02931
C 34.32482 7.20609 -0.02849
C 34.35099 8.61804 -0.02302
C 1.09121 9.39101 -0.00583
C 1.16663 10.76978 -0.00027
C 34.32207 11.53121 -0.02442
C 34.24917 12.97964 -0.02656
C 1.14401 13.66107 0.00343
C 1.12738 15.11067 -0.02957
C 34.30709 15.709 0.02114
C 34.23417 17.07407 0.00648
C 1.08238 17.8018 0.01223
C 1.04997 19.16352 -0.01678
C 34.25709 19.94066 0.01951
C 34.27308 21.41799 -0.02213
C 1.07382 22.04391 0.02712
C 1.15537 23.44307 0.00723
C 34.40934 24.21383 0.03076
C 0.02472 25.56949 -0.05239
C 1.18193 26.34965 -0.00598
C 1.14064 27.73005 -0.00439
C 34.34388 28.3471 -0.01037
C 34.30536 29.72887 0.01831
C 1.01676 30.47887 0.01027
C 34.3065 32.61289 -0.02927
C 29.46741 0.07386 0.00346
C 30.66571 0.77386 0.00307
C 30.70192 2.31445 0.00716
C 28.22435 6.48077 0.00235
C 27.01407 7.1672 0.01094
C 26.96026 8.53765 0.02198
C 28.13644 9.25883 0.02611
C 28.14733 10.69732 -0.00621
C 26.87324 11.45578 0.00194
C 26.82844 12.85318 0.04185
C 28.13303 13.49269 0.02316
C 28.15063 14.91677 0.01257
C 26.97295 15.67906 0.00152
C 27.01621 17.08222 -0.00294
C 28.25643 17.80204 0.00826
C 28.0819 19.26849 0.00487
C 27.93834 30.4963 -0.00942
C 28.1778 31.97196 -0.02815
C 26.93021 32.85968 0.00622
C 24.75772 33.99114 -0.0032
C 25.91547 0.79473 -0.00037
C 25.85961 2.14688 -0.01654
C 24.62467 2.77339 -0.00218
C 24.53791 4.24946 -0.00802
C 25.74431 4.94864 0.00195
C 25.83077 6.38976 0.00996
C 24.56053 7.09544 0.04306
C 24.5421 8.52656 0.00367
C 25.76665 9.22241 -0.01679
C 25.69322 10.62681 -0.01052
C 24.59 11.58379 0.00684
C 24.35036 12.72865 -0.01154
C 28.30759 5.02029 0.01495
C 26.97134 4.32107 0.01259
C 27.08135 2.94777 0.01799
C 28.3618 2.31671 0.01699
C 29.50529 2.9879 0.02108
C 29.50352 4.30897 0.0103
C 30.6813 5.0144 0.07705
C 30.65637 6.38776 0.01908
C 29.49245 7.23268 0.01518
C 29.45304 8.67389 -0.00971
C 30.66589 9.30614 -0.03735
C 30.67421 10.73034 -0.00944
C 29.40846 11.35406 -0.02155
C 29.3965 12.76872 -0.01461
C 30.56219 13.49309 -0.01303
C 30.56522 14.95953 -0.0405
C 29.35683 15.65692 0.01705
C 29.46695 17.14687 0.0101
C 3.5584 31.99277 -0.0014
C 30.64041 17.83118 -0.00669
C 29.29193 20.08722 0.01836
C 29.37433 21.4455 -0.03039
C 30.42921 22.37783 -0.01415
C 30.55947 23.77792 -0.01854
C 29.79703 24.91584 -0.02049
C 30.81184 26.07502 0.03265
C 30.54281 27.58733 0.00261
C 29.32253 28.339 0.02326
C 29.30636 29.65488 0.00924
C 30.61609 30.3986 0.0014
C 30.60351 31.80757 0.01324
C 29.48327 32.67281 0.04266
C 27.17864 0.2362 0.01177
C 28.36814 0.86492 -0.00416
C 30.5856 19.25266 0.03531
C 2.31967 32.59032 0.00415
