380
Graphene
C 34.29796 0.10578 0.01295
C 11.21152 6.48097 -0.01454
C 11.12155 5.05569 0.01945
C 9.82457 4.41879 0.01416
C 9.79691 2.97327 0.03542
C 10.96673 2.13784 0.02299
C 11.00551 0.75502 0.00244
C 9.76433 0.03786 -0.01717
C 12.30806 32.69715 0.05265
C 13.55924 32.01467 -0.01952
C 13.52624 30.61067 -0.02813
C 12.29307 29.87983 0.00374
C 12.37155 28.43873 0.00052
C 13.51999 27.6588 -0.03682
C 13.53183 26.26262 0.01965
C 12.30631 25.56914 0.02058
C 12.26827 24.08027 -0.01957
C 13.50549 23.41549 -0.0108
C 13.54151 22.02261 -0.00368
C 12.32171 21.3477 -0.02696
C 9.90402 7.15652 0.01241
C 9.80988 8.63741 0.0076
C 11.09789 9.26153 0.02162
C 10.97791 10.72409 -0.0014
C 11.10577 31.99094 -0.01275
C 11.0344 30.56905 0.00985
C 9.78926 29.89526 -0.02245
C 9.86934 28.45233 -0.00428
C 11.11645 27.72906 0.03101
C 11.1402 26.32175 -0.01536
C 9.91614 25.61035 -0.02689
C 9.86558 24.18872 -0.01046
C 10.96883 23.42353 -0.00891
C 12.27338 19.87458 -0.00114
C 11.03233 22.03882 0.02819
C 9.88908 19.8306 -0.02971
C 11.08367 19.1014 0.02894
C 11.19899 17.66735 -0.01789
C 9.89104 17.06445 0.00444
C 9.76072 15.66097 -0.00925
C 10.94956 14.92378 0.01877
C 11.05877 13.5221 0.01363
C 9.80955 12.79891 -0.02162
C 9.82045 11.38749 0.00415
C 9.79566 21.28606 0.00165
C 13.527 19.13751 0.00228
C 13.65875 17.79145 0.00798
C 12.50524 16.93948 0.00422
C 14.77439 19.85984 -0.0331
C 16.16679 19.1392 -0.00316
C 16.05589 4.82244 0.02188
C 14.76221 4.2718 -0.01979
C 14.77807 2.7642 0.02691
C 15.99765 2.09324 -0.01581
C 15.9287 0.71609 0.01452
C 14.73036 0.05225 0.04892
C 17.15567 32.65705 -0.00111
C 14.7676 21.23386 -0.0258
C 18.3682 31.89641 -0.03557
C 17.28087 29.75373 0.01739
C 17.29053 28.30747 0.00755
C 18.40034 27.59975 -0.0054
C 18.42534 26.16598 0.00667
C 17.24265 25.40004 0.00143
C 17.20468 23.99873 -0.017
C 18.39906 23.27759 0.00364
C 18.4336 21.98646 -0.00831
C 17.27087 21.23996 -0.02957
C 18.42411 30.46199 0.03754
C 9.8802 32.74037 -0.01111
C 16.02125 21.88231 0.03338
C 14.80385 24.12172 -0.00109
C 12.22599 15.63068 0.0351
C 12.1677 12.79374 -0.03113
C 12.10347 11.44077 0.02098
C 12.28741 8.61046 0.01848
C 12.4012 7.20844 -0.00619
C 13.57775 6.40402 -0.02162
C 13.53777 4.98766 0.00889
C 12.2831 4.24626 -0.00481
C 12.28427 2.88936 0.00979
C 16.00199 23.30373 -0.00491
C 13.47304 2.11029 0.01443
C 12.28339 0.05084 -0.02815
C 14.76296 32.64612 -0.04147
C 15.93041 31.90526 -0.05302
C 15.96867 30.43858 0.00213
C 14.69936 29.80708 -0.00066
C 14.77815 28.37432 -0.00289
C 15.96311 27.61597 0.00028
C 16.0235 26.19261 -0.02213
C 14.8072 25.49918 0.03698
C 13.48445 0.75738 0.03505
C 17.25896 19.72487 -0.04422
C 7.30568 0.03981 0.02841
C 8.56083 2.19872 0.00406
C 3.62722 4.97148 -0.05697
C 2.40108 4.26625 0.01087
C 2.38493 2.89627 -0.01343
C 3.6602 2.17078 0.00988
C 3.58132 0.72492 0.0276
C 2.33719 0.03602 0.01305
C 4.87735 32.72495 -0.00077
C 6.09722 32.03921 0.03368
C 6.08359 30.64076 -0.02929
C 4.90649 29.9266 -0.00966
C 4.95447 28.48581 -0.03337
C 6.17685 27.82993 0.01227
C 6.1608 26.37606 0.00873
C 4.94619 25.63781 -0.00049
C 4.94474 24.24598 0.00848
C 6.18531 23.46758 -0.01303
C 6.1852 22.03411 -0.01378
C 4.95497 21.42272 0.02635
C 4.94211 19.97071 0.0127
C 3.70135 6.40202 -0.00725
C 2.45377 7.0686 0.02322
C 2.4581 8.53237 -0.00094
C 3.66516 9.26289 -0.02566
C 3.66714 30.56306 0.00907
C 2.4173 29.89413 0.00643
C 2.43848 28.467 -0.01509
C 3.70759 27.7672 0.03267
C 3.67159 26.31025 0.02374
C 2.42696 25.70181 0.00402
C 2.43985 24.28885 0.0073
C 3.71872 23.53673 0.0174
C 3.72022 22.12203 0.03828
C 6.19352 19.25165 0.01396
C 2.43543 21.41266 0.01226
C 3.70039 19.30946 0.01996
C 3.65267 17.89619 -0.03996
C 2.36994 17.14531 0.01465
C 2.34587 15.68887 -0.00074
C 3.54098 14.96239 -0.00518
C 3.56277 13.5429 0.0086
C 2.40096 12.81936 -0.00643
C 2.41674 11.31673 0.017
C 3.66572 10.69913 -0.03113
C 2.52655 19.9451 -0.00279
C 6.16439 17.78635 0.01849
C 4.87725 17.11316 -0.01142
C 4.86686 15.70156 -0.00562
C 8.63615 23.52067 0.02147
C 8.53452 22.09837 0.00373
C 7.3662 21.31476 -0.00191
C 7.40267 20.00671 0.00438
C 8.62805 19.28287 0.01291
C 8.5884 17.79339 0.00093
C 7.37834 17.11481 0.00057
C 7.38033 15.6229 -0.01634
C 8.56779 14.91078 -0.00334
C 7.48003 24.19236 -0.014
C 8.65613 13.49331 0.02339
C 7.32117 11.37704 -0.00719
C 8.605 10.70674 0.01364
C 8.57335 9.3207 -0.01062
C 7.38846 8.57293 -0.00033
C 7.41474 7.12056 0.03589
C 8.66273 6.43993 -0.02759
C 8.59973 5.0432 0.0402
C 7.42959 4.32453 0.00572
C 7.35337 2.90637 0.03592
C 7.39184 12.81518 0.01641
C 8.53113 0.79446 0.00943
C 7.36534 25.66193 -0.01118
C 8.59466 27.81025 -0.02896
C 6.12596 14.96893 -0.00494
C 6.08291 13.47759 0.00054
C 4.84022 12.81288 0.03007
C 4.88567 11.39753 -0.00095
C 6.13138 10.64178 0.01572
C 6.10031 9.24194 -0.04848
C 4.86336 8.57456 -0.00892
C 4.87419 7.14934 -0.01362
C 6.1075 6.38119 -0.0008
C 8.62579 26.36818 -0.00131
C 6.08807 4.9612 0.0288
C 4.8598 2.88684 0.00895
C 6.09826 2.15601 0.00685
C 6.0156 0.78484 0.02888
C 4.78032 0.0539 -0.00482
C 7.38217 32.7671 -0.01384
C 8.63775 32.08099 0.03693
C 8.53817 30.64724 0.01745
C 7.33071 29.8824 0.00488
C 7.40819 28.52949 -0.01004
C 4.81581 4.23956 0.00393
C 17.13771 4.19278 0.00654
C 17.28717 2.8505 -0.00703
C 18.42406 2.11089 -0.04076
C 29.36935 2.8352 0.02108
C 30.62339 2.16784 0.00716
C 30.61135 0.78436 0.00307
C 29.37221 0.10677 0.00346
C 31.85899 32.72763 0.01713
C 33.06819 32.01642 -0.01694
C 33.20923 30.60116 0.01428
C 31.9734 29.94642 -0.02142
C 31.96608 28.50927 0.0544
C 33.15868 27.72442 0.00026
C 33.15225 26.2746 0.00682
C 31.90487 25.61301 -0.01779
C 31.9396 24.15357 0.03794
C 33.15002 23.48738 0.01927
C 33.14593 22.02595 0.01574
C 31.89197 21.32208 -0.02383
C 31.9392 19.93062 -0.01429
C 33.18749 19.20273 -0.0136
C 33.25418 17.80108 0.00594
C 29.41185 4.31309 0.0103
C 30.64485 5.00904 0.07705
C 30.64957 6.37302 0.01908
C 29.39739 7.12305 0.01518
C 29.50324 28.44093 0.00924
C 30.74137 27.76556 0.02326
C 30.71948 26.32211 0.00261
C 29.51534 25.52915 0.03265
C 29.51997 24.1206 -0.02049
C 30.73825 23.44514 -0.01854
C 30.6938 22.06271 -0.01415
C 29.40362 21.30542 -0.03039
C 29.43495 19.86768 0.01836
C 32.02663 17.03995 -0.02474
C 30.70829 19.16352 0.03531
C 29.4221 17.0091 0.0101
C 29.44251 15.59634 0.01705
C 30.72258 14.88001 -0.0405
C 30.81671 13.52481 -0.01303
C 29.61032 12.78121 -0.01461
C 29.5633 11.3435 -0.02155
C 30.79185 10.71626 -0.00944
C 30.68545 9.17364 -0.03735
C 29.50588 8.53806 -0.00971
C 30.68976 17.76749 -0.00669
C 32.00379 15.64338 0.00369
C 33.2164 14.93998 0.00455
C 33.20163 13.53221 -0.00644
C 34.38533 21.28513 -0.02213
C 34.36726 19.92049 0.01951
C 1.1573 19.25032 -0.01678
C 1.18828 17.8822 0.01223
C 34.41312 17.06052 0.00648
C 34.41573 15.63955 0.02114
C 1.15572 14.96289 -0.02957
C 1.19093 13.52128 0.00343
C 0.01142 12.7822 -0.02656
C 1.19559 22.03517 0.02712
C 0.02431 11.29807 -0.02442
C 1.23166 9.25591 -0.00583
C 0.02915 8.47335 -0.02302
C 34.41541 7.04029 -0.02849
C 1.24097 6.35113 0.02931
C 1.19826 4.96606 0.00628
C 34.35069 4.27742 -0.0345
C 34.33403 2.8426 -0.00931
C 1.14397 2.10988 -0.00939
C 1.09242 0.74112 -0.00468
C 1.26198 10.63273 -0.00027
C 29.45872 29.84347 0.0014
C 1.24164 23.46004 0.00723
C 34.42109 25.60844 -0.05239
C 32.05525 12.79967 -0.01839
C 32.06373 11.36352 0.00137
C 33.24967 10.64133 0.00199
C 33.22638 9.13468 0.04381
C 31.93477 8.55414 0.02806
C 32.00164 7.04897 0.01504
C 33.2267 6.3523 -0.00069
C 33.10618 4.96941 0.04926
C 31.88116 4.24718 -0.03838
C 0.00113 24.22565 0.03076
C 31.85597 2.76331 0.00349
C 33.05005 0.76648 -0.00841
C 31.80116 0.08377 0.0001
C 34.31583 32.74205 -0.02927
C 1.14815 31.97007 -0.01404
C 1.18127 30.54965 0.01027
C 0.00635 29.87831 0.01831
C 34.38203 28.42834 -0.01037
C 1.20004 27.79539 -0.00439
C 1.21224 26.35619 -0.00598
C 33.10037 2.16936 -0.00323
C 30.707 30.56367 0.01324
C 30.64491 31.96646 0.04266
C 29.49901 32.7158 0.01177
C 22.11373 28.30412 0.0296
C 23.39929 27.59397 0.03374
C 23.36586 26.23255 -0.02845
C 22.11851 25.5683 -0.03213
C 22.07547 24.02564 0.02239
C 23.3341 23.30329 0.01153
C 23.32214 21.90266 0.02734
C 21.98807 21.18424 -0.0055
C 22.10636 19.81208 0.01515
C 22.06268 29.74391 0.03046
C 23.25938 19.16927 -0.00225
C 22.04361 4.27347 -0.01107
C 21.97686 2.83798 -0.01586
C 23.17023 2.11488 -0.01971
C 23.31227 0.70625 -0.02118
C 22.08639 34.01659 0.00733
C 24.50849 32.59458 -0.00178
C 25.75221 31.90622 0.00768
C 25.77218 30.47362 -0.0276
C 24.53895 29.75432 0.03005
C 23.21009 4.9496 0.00071
C 24.6054 28.35143 -0.04078
C 23.28882 30.46255 -0.00381
C 22.07556 32.61349 0.01126
C 18.39738 0.68773 -0.00652
C 17.18619 0.03438 0.0058
C 19.53281 32.61951 -0.00865
C 20.82991 31.95884 0.00675
C 20.90229 30.46573 -0.00311
C 19.67954 29.69646 0.00742
C 19.61512 28.30458 -0.01594
C 20.92731 27.58916 0.0106
C 20.8614 26.16738 -0.01154
C 23.32954 31.83713 0.01852
C 19.65781 25.41224 -0.01721
C 20.86126 23.27673 0.01277
C 20.84485 21.89037 0.00096
C 19.63427 21.04246 -0.01527
C 19.31033 19.75774 0.01087
C 19.79702 4.3468 0.00199
C 19.73118 3.00325 0.01511
C 20.87057 2.06498 -0.00478
C 20.79773 0.65585 -0.01662
C 19.58586 34.04869 -0.01185
C 19.63789 23.99495 -0.02422
C 3.66217 32.03222 0.02379
C 25.86257 27.58933 0.02117
C 24.59127 25.42013 -0.00498
C 28.18294 21.99197 -0.02815
C 26.96502 21.22574 -0.00942
C 27.04362 19.82161 0.00487
C 28.21712 19.07244 0.00826
C 28.20992 17.68426 -0.00294
C 26.82347 16.97015 0.00152
C 27.10127 15.57754 0.01257
C 28.22503 14.76778 0.02316
C 28.36831 13.38252 0.04185
C 28.22184 23.40956 0.00622
C 28.23845 10.83141 0.00194
C 27.14124 8.56223 0.02611
C 26.92799 7.22356 0.02198
C 28.20896 6.34356 0.01094
C 28.11871 4.96691 0.00235
C 26.95166 4.2059 0.01495
C 26.93008 2.8278 0.01259
C 28.15067 2.12848 0.01799
C 28.11717 0.71648 0.01699
C 26.9364 34.04405 -0.00416
C 28.28282 9.39233 -0.00621
C 25.84462 26.23165 0.02737
C 27.0201 24.17327 -0.0032
C 28.32929 26.2397 -0.01654
C 24.63844 24.00893 0.00135
C 25.8662 23.37275 0.03102
C 25.84468 21.94888 0.02555
C 24.54831 21.23661 0.01423
C 24.49588 19.82287 -0.00285
C 25.781 19.12821 -0.009
C 25.67484 17.73327 -0.01199
C 25.77587 6.34741 -0.00229
C 25.71963 4.9336 -0.00938
C 27.08555 25.59021 -0.00037
C 24.55138 4.281 -0.0264
C 25.71337 2.17817 0.00684
C 25.80668 0.78047 -0.01052
C 24.54076 34.04385 -0.01679
C 26.98123 32.63822 0.00367
C 28.20503 31.95589 0.04306
C 28.25312 30.52878 0.00996
C 27.04723 29.77717 0.00195
C 27.06057 28.34962 -0.00802
C 28.3078 27.62275 -0.00218
C 24.4224 2.82187 -0.01154
C 2.40249 32.71187 0.01402
