324
Graphene
C 0.04681 0.02122 0.01295
C 9.76183 25.61613 -0.00066
C 9.87372 24.14108 -0.00289
C 11.09737 23.44161 0.00028
C 11.21047 22.08576 -0.02213
C 9.96847 21.31672 0.03698
C 9.89977 19.85081 -0.00109
C 11.12155 19.01896 -0.00491
C 11.12661 26.26752 0.00213
C 11.08168 17.63379 0.03338
C 9.91444 15.48361 -0.0331
C 11.21446 14.83199 -0.00316
C 11.17759 13.4506 0.02188
C 9.84845 12.80103 -0.01979
C 9.7587 11.3992 0.02691
C 11.03684 10.51526 -0.01581
C 11.04217 9.18177 0.01452
C 9.78689 16.96075 -0.0258
C 9.82913 8.57818 0.04892
C 11.07807 27.70767 -0.05302
C 9.85866 29.73114 -0.02815
C 7.3061 12.78377 -0.02696
C 7.30462 11.46934 -0.00114
C 8.56396 10.70101 0.00228
C 8.62325 9.27787 0.00798
C 7.31907 8.57386 0.00422
C 7.39747 7.18169 0.0351
C 8.64051 6.44281 -0.03113
C 9.802 28.26927 -0.04147
C 8.61476 5.04373 0.02098
C 7.37749 2.92742 -0.00619
C 8.60283 2.19335 -0.02162
C 8.57075 0.74011 0.00889
C 7.3773 0.05473 -0.00481
C 9.81646 32.69414 0.00979
C 10.95202 31.98128 0.01443
C 10.98039 30.48354 0.03505
C 7.36329 4.30861 0.01848
C 9.87388 7.12497 -0.00111
C 11.21856 6.40797 -0.03557
C 11.05415 4.95212 0.03754
C 12.49744 12.62749 -0.01154
C 12.20829 11.28954 -0.01721
C 12.24257 8.41586 -0.02422
C 12.40455 7.01452 0.01277
C 13.57285 5.05056 0.00096
C 12.33871 4.33667 -0.01527
C 12.33163 2.79726 0.01087
C 13.40913 13.52668 0.0106
C 13.51176 2.19826 0.00199
C 12.27803 34.02493 -0.00478
C 14.73444 32.66304 -0.01662
C 15.96763 32.03122 -0.01185
C 15.90082 30.56978 0.01126
C 14.64242 29.83996 0.01852
C 14.78387 28.44769 -0.00381
C 16.03659 27.68693 0.03046
C 13.46651 0.73514 0.01511
C 13.54562 14.85905 -0.01594
C 12.49935 15.66203 0.00742
C 12.30099 17.01089 -0.00311
C 9.83656 4.26694 0.01739
C 9.8768 2.86135 0.00755
C 11.08778 2.15043 -0.0054
C 11.05913 0.72434 0.00667
C 9.83518 0.05965 0.00143
C 12.22709 32.58627 -0.017
C 13.50496 31.99795 0.00364
C 13.47194 30.55516 -0.00831
C 12.2661 29.78728 -0.02957
C 12.36523 28.35166 -0.04422
C 13.58427 27.68709 0.00654
C 13.56293 26.23604 -0.00703
C 12.36355 25.56256 -0.04076
C 12.3916 24.11962 -0.00652
C 13.61455 23.58937 0.0058
C 12.29548 21.14371 -0.00865
C 12.12316 19.85356 0.00675
C 8.60845 13.46744 -0.00368
C 15.89196 26.41266 0.0296
C 8.59348 14.80663 -0.0108
C 7.41492 17.00241 0.02058
C 3.64875 9.12999 0.00093
C 2.37482 8.50562 0.00057
C 2.37159 7.15325 -0.01634
C 3.66839 6.39123 -0.00334
C 3.72841 4.96705 0.02339
C 2.47121 4.27999 0.01641
C 2.49303 2.85997 -0.00719
C 3.6436 10.58334 0.01291
C 3.71741 2.13229 0.01364
C 2.42556 0.02621 -0.00033
C 4.95018 32.68001 0.03589
C 6.13196 31.99046 -0.02759
C 6.13057 30.52546 0.0402
C 4.89968 29.85536 0.00572
C 4.89735 28.49792 0.03592
C 6.14298 27.71193 0.00406
C 3.68284 0.70902 -0.01062
C 6.11616 26.25365 0.00943
C 2.44009 11.29822 0.00438
C 3.64709 13.39138 0.00373
C 3.6164 30.50236 0.0288
C 2.40829 29.78484 0.00393
C 2.45721 28.3652 0.00895
C 3.70388 27.68499 0.00685
C 3.70685 26.36138 0.02888
C 2.46069 25.64005 -0.00482
C 2.39115 24.20598 -0.01384
C 2.43451 12.66879 -0.00191
C 3.65591 23.46937 0.03693
C 2.46476 21.34208 0.00488
C 2.41007 19.92644 -0.01004
C 3.6849 19.20516 -0.02896
C 3.73157 17.74183 -0.00131
C 2.44538 17.06596 -0.01118
C 2.45108 15.61012 -0.014
C 3.6806 14.8331 0.02147
C 3.65287 22.08693 0.01745
C 4.8959 25.62441 0.02841
C 4.87016 24.19332 -0.01111
C 6.08645 23.45984 -0.01275
C 4.88124 34.07493 0.0076
C 7.35815 32.75479 0.01241
C 8.62718 31.98248 -0.01454
C 8.57634 30.52684 0.01945
C 7.41933 29.81026 0.01416
C 7.32289 28.38324 0.03542
C 8.61918 27.65814 0.02299
C 6.1384 0.68352 0.02162
C 8.57671 26.20114 0.00244
C 7.32688 24.15044 0.05265
C 8.58107 23.42137 -0.01952
C 8.71527 22.10198 -0.02813
C 7.41645 21.40492 0.00374
C 7.38697 19.92072 0.00052
C 8.65859 19.1711 -0.03682
C 8.60497 17.7332 0.01965
C 7.33824 25.6093 -0.01717
C 6.17043 2.17709 -0.0014
C 4.89119 2.87354 0.00415
C 4.96339 4.32849 -0.02162
C 6.18656 22.08404 0.00985
C 4.97846 21.32383 -0.02245
C 4.9695 19.91232 -0.00428
C 6.15385 19.23681 0.03101
C 6.12884 17.79508 -0.01536
C 4.92137 17.01393 -0.02689
C 4.91549 15.67514 -0.01046
C 6.08659 14.8656 -0.00891
C 6.04249 13.42393 0.02819
C 4.84446 12.74725 0.00165
C 4.84698 11.29965 -0.02971
C 6.11745 10.64577 0.02894
C 6.1205 9.23695 -0.01789
C 4.85168 8.54155 0.00444
C 4.89569 7.0697 -0.00925
C 6.1835 6.43876 0.01877
C 6.158 5.02709 0.01363
C 7.37053 15.57037 -0.01957
C 14.77331 25.59437 0.03374
C 14.72492 2.81878 -0.02845
C 15.99014 2.20374 -0.03213
C 33.22306 26.30964 0.00682
C 31.94358 25.61396 -0.01779
C 31.94399 24.16587 0.03794
C 33.20394 23.51463 0.01927
C 33.19237 22.07138 0.01574
C 32.00336 21.35589 -0.02383
C 31.84121 19.97151 -0.01429
C 33.17575 27.73312 0.00026
C 33.07303 19.265 -0.0136
C 31.93434 17.0762 -0.02474
C 31.96659 15.70588 0.00369
C 33.21039 14.97523 0.00455
C 33.23468 13.49458 -0.00644
C 31.99123 12.83866 -0.01839
C 31.90167 11.43196 0.00137
C 33.21799 10.66074 0.00199
C 33.16358 17.81322 0.00594
C 33.16982 9.23201 0.04381
C 31.88378 28.40427 0.0544
C 33.14733 30.53639 0.01428
C 30.80529 13.5842 -0.01303
C 29.60577 12.73515 -0.01461
C 29.44502 11.39367 -0.02155
C 30.69035 10.66306 -0.00944
C 30.71476 9.26668 -0.03735
C 29.42186 8.54187 -0.00971
C 29.46013 7.10985 0.01518
C 31.95374 29.80727 -0.02142
C 30.70982 6.40078 0.01908
C 29.49262 4.29599 0.0103
C 29.45455 2.80914 0.02108
C 30.73368 2.1243 0.00716
C 30.7059 0.68645 0.00307
C 29.50927 0.00586 0.00346
C 31.93882 32.65783 0.01713
C 33.22284 31.98849 -0.01694
C 30.66993 4.998 0.07705
C 31.90338 8.47998 0.02806
C 31.90044 7.113 0.01504
C 33.1473 6.35159 -0.00069
C 34.39821 17.13374 0.00648
C 0.06125 15.64145 0.02114
C 1.24054 14.91908 -0.02957
C 1.25363 13.5065 0.00343
C 34.3844 12.80989 -0.02656
C 34.40636 11.33639 -0.02442
C 1.16922 10.60039 -0.00027
C 1.21052 17.73084 0.01223
C 1.16102 9.22221 -0.00583
C 34.37148 7.06236 -0.02849
C 1.19413 6.35979 0.02931
C 1.23543 4.95043 0.00628
C 0.0243 4.29686 -0.0345
C 34.37548 2.84342 -0.00931
C 1.20981 2.12867 -0.00939
C 1.27353 0.71343 -0.00468
C 34.38164 8.50836 -0.02302
C 1.229 19.11457 -0.01678
C 34.29196 19.87976 0.01951
C 0.01718 21.34219 -0.02213
C 33.20643 4.90977 0.04926
C 31.95953 4.24631 -0.03838
C 31.95917 2.81206 0.00349
C 33.16836 2.09221 -0.00323
C 33.19184 0.7415 -0.00841
C 31.92628 0.00471 0.0001
C 0.06187 32.67091 -0.02927
C 1.21629 31.95813 -0.01404
C 1.18163 30.5671 0.01027
C 34.33466 29.82971 0.01831
C 34.40819 28.44954 -0.01037
C 1.2593 27.68034 -0.00439
C 1.20805 26.30845 -0.00598
C 34.41223 25.62666 -0.05239
C 34.42393 24.22044 0.03076
C 1.17639 23.46757 0.00723
C 1.24404 22.04712 0.02712
C 30.68561 15.00929 -0.0405
C 29.50549 15.64527 0.01705
C 29.46579 17.05048 0.0101
C 30.69507 17.78961 -0.00669
C 22.05593 29.77751 0.03102
C 22.231 28.53026 0.02555
C 23.22194 27.63672 0.01423
C 23.39159 2.14359 -0.00285
C 23.32453 0.79556 -0.009
C 22.12181 0.02928 -0.01199
C 24.53008 32.66675 -0.00229
C 23.39446 30.46511 0.00135
C 25.82474 31.93508 -0.00938
C 24.56002 29.72573 -0.01154
C 24.45162 28.30757 0.00684
C 25.69391 27.57069 -0.01052
C 25.78227 26.2405 -0.01679
C 24.62419 2.74483 0.00367
C 25.8046 2.20804 0.04306
C 25.72005 0.66641 0.00996
C 25.86376 30.49128 -0.0264
C 23.30214 31.87208 -0.00498
C 22.0927 32.67955 0.02737
C 19.66305 0.01838 0.02117
C 16.00834 0.74113 0.02239
C 14.7476 0.01207 0.01153
C 17.19136 32.72712 0.02734
C 18.46144 31.9942 -0.0055
C 18.44163 30.57226 0.01515
C 17.12911 29.89241 -0.00225
C 17.25329 28.43048 0.00071
C 18.42316 27.87699 -0.01107
C 18.20136 2.17345 -0.01586
C 18.37196 0.75098 -0.01971
C 17.14646 34.07455 -0.02118
C 19.66479 32.64229 0.00733
C 20.92239 31.9723 -0.00178
C 20.91354 30.55606 0.00768
C 19.69532 29.90931 -0.0276
C 19.53764 28.6032 0.03005
C 20.84607 0.53937 -0.04078
C 24.52631 34.07631 0.00195
C 3.70725 31.96918 -0.0008
C 27.01556 32.64168 -0.00802
C 28.29855 30.48107 -0.01654
C 28.30303 0.71185 0.01699
C 27.0091 0.00388 -0.00416
C 29.48184 32.6401 0.01177
C 30.74541 31.93187 0.04266
C 30.6835 30.47424 0.01324
C 29.47524 29.73481 0.0014
C 29.40313 28.30259 0.00924
C 28.23534 2.04238 0.01799
C 30.68926 27.62113 0.02326
C 29.45237 25.52127 0.03265
C 29.50216 24.07622 -0.02049
C 30.76948 23.45753 -0.01854
C 30.73862 22.06332 -0.01415
C 29.57432 21.27333 -0.03039
C 29.39138 19.82929 0.01836
C 30.66903 19.22807 0.03531
C 30.75329 26.22064 0.00261
C 27.0307 2.8571 0.01259
C 27.07341 4.15391 0.01495
C 28.1124 5.02857 0.00235
C 27.06515 29.80682 -0.00037
C 26.96979 28.35429 -0.0032
C 28.17953 27.64713 0.00622
C 28.21245 26.1698 -0.02815
C 26.9018 25.38344 -0.00942
C 27.22478 24.08251 0.00487
C 28.23683 23.22368 0.00826
C 28.3742 21.88732 -0.00294
C 28.36834 19.04598 0.00152
C 28.2824 17.74945 0.01257
C 26.96521 15.55169 0.02316
C 28.19214 14.95069 0.04185
C 28.3202 13.46354 0.00194
C 27.33463 12.4777 -0.00621
C 28.29466 10.66919 0.02611
C 28.32313 9.28962 0.02198
C 28.31895 6.34178 0.01094
C 28.29596 31.92568 -0.00218
C 2.42344 32.66858 -0.01362
