429
Graphene
C 34.42323 33.99945 0.01295
C 13.46561 13.48803 0.03589
C 12.21687 12.80359 -0.02759
C 12.17914 11.33726 0.0402
C 13.44221 10.68341 0.00572
C 13.48819 9.35628 0.03592
C 13.63493 0.66244 0.00406
C 12.30705 0.12547 0.00943
C 14.71976 32.58889 0.02841
C 15.9794 31.92744 -0.01111
C 15.95213 30.4885 -0.01275
C 13.48574 14.87399 -0.00033
C 14.71758 29.88077 0.00985
C 15.95244 27.63902 -0.00428
C 15.96456 26.21791 0.03101
C 14.80086 25.51336 -0.01536
C 14.741 24.14047 -0.02689
C 16.00525 23.44577 -0.01046
C 16.04664 22.06491 -0.00891
C 14.74565 21.42278 0.02819
C 14.71086 20.00154 0.00165
C 15.88355 19.15618 -0.02971
C 15.83347 17.78329 0.02894
C 14.77839 28.39233 -0.02245
C 12.30524 15.68354 -0.01062
C 12.21541 17.14801 0.01364
C 13.50075 17.76344 -0.00719
C 9.84417 15.72624 0.00685
C 11.00303 14.96837 0.02888
C 10.98944 13.57607 -0.00482
C 9.77482 12.94454 -0.01384
C 9.74382 11.58837 0.03693
C 10.86262 10.76576 0.01745
C 10.25328 9.31755 0.00488
C 10.96211 0.85859 -0.01004
C 9.7376 0.07774 -0.02896
C 12.25235 32.77139 -0.00131
C 13.41862 31.97541 -0.01118
C 13.42696 30.56136 -0.014
C 12.22144 29.87171 0.02147
C 12.32068 28.31154 0.00373
C 13.54972 27.72289 -0.00191
C 13.60678 26.2918 0.00438
C 12.30396 25.6018 0.01291
C 12.1578 24.16883 0.00093
C 13.45555 23.4652 0.00057
C 13.52237 22.03933 -0.01634
C 12.25588 21.26431 -0.00334
C 12.29517 19.82996 0.02339
C 13.54091 19.20138 0.01641
C 14.646 17.05982 -0.01789
C 14.70645 15.64294 0.00444
C 15.87892 14.99577 -0.00925
C 15.92306 13.52501 0.01877
C 18.3851 14.84491 0.00228
C 18.42793 13.48876 0.00798
C 17.1247 12.69658 0.00422
C 17.17383 11.31603 0.0351
C 18.43678 10.59118 -0.03113
C 18.43152 9.21508 0.02098
C 17.14503 8.52269 0.01848
C 17.17744 7.08222 -0.00619
C 18.42341 6.32232 -0.02162
C 18.33853 4.88695 0.00889
C 17.07579 4.2168 -0.00481
C 17.06626 2.67261 0.00979
C 18.45373 2.0482 0.01443
C 18.38186 0.66684 0.03505
C 17.22795 34.02951 -0.02815
C 19.68222 32.61737 -0.04147
C 20.90969 31.8935 -0.05302
C 20.86228 30.57285 0.00213
C 19.63944 29.88553 -0.00066
C 19.67124 28.43662 -0.00289
C 20.86998 27.7103 0.00028
C 20.84159 26.29465 -0.02213
C 19.64687 25.50179 0.03698
C 17.14768 15.62722 -0.00114
C 9.83659 17.11736 0.00895
C 17.18347 17.06074 -0.02696
C 18.48404 19.15791 -0.0108
C 14.72971 12.80028 0.01363
C 14.65414 11.42035 -0.02162
C 15.85035 10.62168 0.00415
C 15.86158 9.15907 -0.0014
C 14.65868 8.61075 0.02162
C 16.06452 6.34223 0.0076
C 15.99893 4.99878 0.01241
C 15.79363 1.98014 -0.01454
C 15.94195 0.63921 0.01945
C 14.80261 33.96264 0.01416
C 17.21373 32.64595 0.03542
C 18.46865 31.89709 0.02299
C 18.34791 30.51735 0.00244
C 17.09055 29.79964 -0.01717
C 17.21269 28.35831 0.05265
C 18.4444 27.70123 -0.01952
C 18.43303 26.20488 -0.02813
C 17.23556 25.5672 0.00374
C 17.25167 24.14115 0.00052
C 18.41219 23.44834 -0.03682
C 18.41266 21.94801 0.01965
C 17.23752 21.34146 0.02058
C 17.27857 19.90796 -0.01957
C 18.46479 17.76949 -0.00368
C 10.99003 17.79359 0.00393
C 11.01605 19.23221 0.0288
C 9.85377 19.93948 -0.0008
C 3.70678 2.3104 0.02728
C 3.6718 0.79921 -0.00039
C 2.47986 33.97304 0.0064
C 4.90951 32.68082 0.00211
C 6.1064 32.04145 -0.00449
C 6.11741 30.63579 -0.01979
C 4.96195 29.8583 0.02784
C 4.98607 28.47326 -0.01977
C 6.12863 27.69865 -0.00561
C 6.09073 26.32368 0.00208
C 4.87872 25.53856 0.01707
C 4.91289 24.1432 0.02769
C 6.17315 23.47648 -0.03291
C 6.19166 21.95429 -0.04999
C 4.97518 21.23063 0.04505
C 4.87241 19.87116 0.03284
C 6.06999 19.17863 -0.04307
C 6.08501 17.84381 0.03189
C 4.88783 17.14684 0.00031
C 4.79282 15.65 -0.003
C 6.11389 14.97641 0.01402
C 6.06871 13.48893 0.02379
C 4.85449 12.79484 0.00907
C 2.44774 2.85001 0.00245
C 4.88647 11.35459 0.00643
C 2.39293 4.32528 0.00081
C 3.61822 6.46898 -0.01386
C 3.60854 30.49665 0.00267
C 2.45095 29.78341 0.00787
C 2.43757 28.40976 0.02426
C 3.734 27.77528 0.01218
C 3.73206 26.29548 -0.01471
C 2.41832 25.54947 -0.02827
C 2.47004 24.17213 0.01078
C 3.73515 23.43256 -0.00112
C 3.72262 21.98265 0.03345
C 2.4675 21.24517 0.00748
C 2.40549 19.83136 0.00662
C 3.6743 19.20629 -0.0154
C 3.60814 17.79152 -0.01299
C 2.3556 17.12502 -0.00407
C 2.35189 15.62117 0.01138
C 3.63111 14.92738 0.03278
C 3.59318 13.56975 -0.00177
C 2.31154 12.79531 0.04421
C 2.28736 11.32255 0.00088
C 3.64591 10.64949 0.00828
C 3.64194 9.24732 -0.02375
C 2.36415 8.56324 0.00558
C 2.39556 7.13172 -0.0059
C 3.63277 4.99158 -0.02805
C 19.66303 24.10937 -0.00109
C 6.16856 10.60128 -0.01509
C 4.94998 8.60372 0.02374
C 7.30179 12.88857 -0.02929
C 7.38551 11.34657 -0.00966
C 8.58405 10.79545 -0.03337
C 9.02676 9.37335 0.01227
C 7.69693 8.56533 0.00873
C 7.40593 7.21511 -0.00049
C 7.39133 4.50158 0.00848
C 7.445 3.05048 -0.01303
C 8.58726 2.20624 -0.01378
C 8.58488 0.81319 0.02635
C 7.2656 0.08792 0.0127
C 9.76059 32.73799 0.01396
C 10.98363 32.12087 0.01849
C 10.95091 30.67859 -0.01142
C 9.85926 29.84817 -0.00562
C 9.78465 28.46532 -0.00494
C 11.06965 27.78048 0.00054
C 11.15369 26.33159 0.03007
C 9.88663 25.66709 -0.00095
C 9.86724 24.16947 0.01572
C 11.06412 23.42751 -0.04848
C 10.99572 22.0721 -0.00892
C 9.74978 21.32333 -0.01362
C 8.57179 13.72234 0.03368
C 6.23844 9.22012 0.03267
C 8.57713 15.09095 -0.00077
C 7.30972 17.11366 0.0276
C 4.8561 7.25384 0.00402
C 6.10001 6.53708 0.0073
C 6.08811 5.07173 0.0174
C 4.88432 4.39265 0.03828
C 4.88436 2.98386 0.01226
C 6.17788 2.27817 -0.00279
C 6.12463 0.82924 0.01996
C 4.88478 0.12852 -0.03996
C 7.30219 32.73794 0.01465
C 8.52572 31.95105 -0.00074
C 8.60014 30.5714 -0.00518
C 7.3125 29.86997 0.0086
C 7.3241 28.49237 -0.00643
C 8.547 27.7738 0.017
C 8.60761 26.36191 -0.03113
C 7.37734 25.63015 -0.02566
C 7.32553 24.24122 -0.00094
C 8.6181 23.53171 0.02322
C 8.6071 22.11552 -0.00725
C 7.43526 21.3495 -0.05697
C 7.33502 19.87982 0.01087
C 8.56501 19.21974 -0.01343
C 8.58657 17.78666 0.00988
C 7.21126 15.7372 0.01305
C 3.72076 31.93214 0.01913
C 20.87701 23.41234 -0.00491
C 19.63157 21.29611 -0.0258
C 29.42358 12.69714 -0.01461
C 29.47631 11.28955 -0.02155
C 30.67841 10.59041 -0.00944
C 30.63165 9.16679 -0.03735
C 29.49474 8.38972 -0.00971
C 29.4679 7.05184 0.01518
C 30.72225 6.36917 0.01908
C 30.69313 4.94699 0.07705
C 29.51818 4.19164 0.0103
C 29.58074 2.71335 0.02108
C 30.64944 13.42483 -0.01303
C 30.74601 2.02684 0.00716
C 29.52052 33.9743 0.00346
C 31.97974 32.51792 0.01713
C 33.16443 31.84936 -0.01694
C 33.11592 30.46956 0.01428
C 31.854 29.7403 -0.02142
C 31.98931 28.36245 0.0544
C 33.30535 27.59224 0.00026
C 33.1769 26.18822 0.00682
C 31.93346 25.51546 -0.01779
C 31.94881 24.06981 0.03794
C 30.7271 0.53716 0.00307
C 30.67574 14.91753 -0.0405
C 29.48396 15.66942 0.01705
C 29.47885 17.08778 0.0101
C 27.03533 7.06696 0.02198
C 28.27837 6.34209 0.01094
C 28.28221 4.86692 0.00235
C 27.0467 4.21014 0.01495
C 27.15025 2.82105 0.01259
C 28.3056 2.01083 0.01799
C 28.25682 0.60535 0.01699
C 26.96633 33.94651 -0.00416
C 29.54747 32.57519 0.01177
C 30.73348 31.82989 0.04266
C 30.658 30.43326 0.01324
C 29.42781 29.734 0.0014
C 29.42328 28.36876 0.00924
C 30.74538 27.70184 0.02326
C 30.7083 26.29169 0.00261
C 29.49982 25.54131 0.03265
C 29.48304 24.19474 -0.02049
C 30.71084 23.41504 -0.01854
C 30.75941 22.0332 -0.01415
C 29.48203 21.33982 -0.03039
C 29.51433 19.91633 0.01836
C 30.80232 19.25314 0.03531
C 30.67793 17.78972 -0.00669
C 33.18419 23.36642 0.01927
C 33.17605 22.01319 0.01574
C 31.97549 21.34891 -0.02383
C 32.00688 19.88904 -0.01429
C 34.41139 24.10917 0.03076
C 1.23532 23.34912 0.00723
C 1.20411 21.94299 0.02712
C 0.004 21.30879 -0.02213
C 34.36892 19.91734 0.01951
C 1.16063 19.22811 -0.01678
C 1.1261 17.80663 0.01223
C 34.42269 17.09057 0.00648
C 34.34765 15.65103 0.02114
C 1.15799 14.93445 -0.02957
C 1.12135 13.4613 0.00343
C 34.32564 12.76312 -0.02656
C 34.31409 11.20725 -0.02442
C 1.11452 10.59969 -0.00027
C 1.11943 9.25726 -0.00583
C 34.37491 8.46008 -0.02302
C 34.37854 7.09155 -0.02849
C 1.1797 6.39622 0.02931
C 1.10339 4.98351 0.00628
C 34.40163 4.22775 -0.0345
C 34.41442 2.75169 -0.00931
C 1.18641 2.10844 -0.00939
C 1.17131 0.68379 -0.00468
C 34.36832 25.49958 -0.05239
C 27.00663 8.59242 0.02611
C 1.17427 26.2654 -0.00598
C 0.03458 28.39332 -0.01037
C 33.2076 19.21694 -0.0136
C 33.17731 17.73515 0.00594
C 31.86434 17.08732 -0.02474
C 31.86916 15.65187 0.00369
C 33.12676 14.93586 0.00455
C 33.10357 13.47109 -0.00644
C 31.84095 12.77682 -0.01839
C 31.89324 11.36138 0.00137
C 33.05664 10.59583 0.00199
C 33.16423 9.17536 0.04381
C 31.96539 8.39425 0.02806
C 31.98053 7.02054 0.01504
C 33.14063 6.31983 -0.00069
C 33.15991 4.95175 0.04926
C 31.88188 4.24997 -0.03838
C 31.93402 2.76933 0.00349
C 33.1841 2.00852 -0.00323
C 33.20369 0.60267 -0.00841
C 31.96687 34.01352 0.0001
C 0.08809 32.58948 -0.02927
C 1.24928 31.79566 -0.01404
C 1.19585 30.4873 0.01027
C 34.35167 29.82202 0.01831
C 1.20037 27.70379 -0.00439
C 28.27665 9.26255 -0.00621
C 28.20112 10.65793 0.00194
C 26.95665 11.36362 0.04185
C 22.11671 25.58369 0.00675
C 22.1383 24.16454 -0.00311
C 23.30646 23.41149 0.00742
C 23.32941 22.03692 -0.01594
C 22.09768 21.33769 0.0106
C 22.06611 19.85866 -0.01154
C 23.34872 19.23721 -0.01721
C 23.33975 17.81009 -0.02422
C 22.13078 17.04511 0.01277
C 22.12502 15.60473 0.00096
C 23.38167 14.88048 -0.01527
C 23.36229 13.52469 0.01087
C 22.0643 12.83414 0.00199
C 22.06346 11.34731 0.01511
C 23.31935 10.67287 -0.00478
C 23.29752 9.19992 -0.01662
C 22.08103 8.43445 -0.01185
C 22.12042 7.104 0.01126
C 23.34891 6.38965 0.01852
C 23.31737 4.99977 -0.00381
C 22.02464 4.22283 0.03046
C 22.17406 2.7763 0.0296
C 23.37869 2.1193 0.03374
C 23.36542 26.33707 -0.00865
C 23.26709 0.73526 -0.02845
C 23.31533 27.64827 0.0058
C 22.08158 29.86891 -0.04076
C 19.65107 19.87545 -0.0331
C 20.93219 19.14898 -0.00316
C 20.90917 17.75022 0.02188
C 19.67704 17.06927 -0.01979
C 19.633 15.60665 0.02691
C 20.83964 14.94019 -0.01581
C 20.87607 13.53107 0.01452
C 19.59842 12.76086 0.04892
C 19.64499 11.35058 -0.00111
C 20.82286 10.60875 -0.03557
C 20.79487 9.15862 0.03754
C 19.58467 8.51334 0.01739
C 19.63942 7.17183 0.00755
C 20.88288 6.38375 -0.0054
C 20.82487 4.99931 0.00667
C 19.62415 4.21522 0.00143
C 19.68222 2.83427 -0.017
C 20.88457 2.16244 0.00364
C 20.78291 0.69477 -0.00831
C 19.61398 34.07457 -0.02957
C 22.16493 32.64914 -0.04422
C 23.40763 31.9699 0.00654
C 23.32055 30.55528 -0.00703
C 22.09779 28.41681 -0.00652
C 20.90061 21.98763 0.03338
C 22.04552 0.01351 -0.03213
C 25.80418 31.86819 0.01153
C 25.88989 2.11082 -0.0264
C 25.7935 0.7564 -0.01154
C 24.58051 34.07956 0.00684
C 27.07173 32.60353 -0.01052
C 28.36147 31.87239 -0.01679
C 28.31589 30.51627 0.00367
C 27.04762 29.87677 0.04306
C 27.04797 28.45396 0.00996
C 28.19047 27.62121 0.00195
C 28.21944 26.24955 -0.00802
C 27.01964 25.57431 -0.00218
C 27.05704 24.18725 -0.01654
C 28.32756 23.48126 -0.00037
C 28.21486 22.07363 -0.0032
C 26.98845 21.38001 0.00622
C 27.06619 19.92972 -0.02815
C 28.26065 19.18271 -0.00942
C 28.26442 17.78971 0.00487
C 26.9866 17.04613 0.00826
C 27.02509 15.61769 -0.00294
C 28.24528 14.9651 0.00152
C 28.21907 13.40876 0.01257
C 26.95102 12.77723 0.02316
C 24.64915 2.87563 -0.00938
C 24.68429 32.67026 0.02239
C 24.48674 4.23334 -0.00229
C 25.75248 6.46652 -0.009
C 25.76875 30.45606 0.02734
C 24.48656 29.84703 -0.0055
C 24.54577 28.39717 0.01515
C 25.79873 27.68133 -0.00225
C 25.79576 26.29032 0.00071
C 24.53652 25.59623 -0.01107
C 24.51751 24.14567 -0.01586
C 25.79286 23.39775 -0.01971
C 25.74939 22.0175 -0.02118
C 24.49957 21.25873 0.00733
C 24.58718 19.87942 -0.00178
C 25.82535 19.23403 0.00768
C 25.83388 17.67897 -0.0276
C 24.5569 16.99783 0.03005
C 24.48881 15.66287 -0.04078
C 25.70348 15.00486 0.02117
C 25.77571 13.56948 0.02737
C 24.58814 12.81474 -0.00498
C 24.5026 11.36341 0.00135
C 25.74196 10.69725 0.03102
C 25.71923 9.26422 0.02555
C 24.55556 8.54304 0.01423
C 24.56887 7.1398 -0.00285
C 25.82257 5.00488 -0.01199
C 2.49783 32.55993 -0.03672
