323
Graphene
C 0.02878 0.03773 0.01295
C 9.84252 34.01837 -0.00289
C 12.24394 32.73666 0.00028
C 13.51133 31.99848 -0.02213
C 13.55367 30.54329 0.03698
C 12.35307 29.86731 -0.00109
C 12.3049 28.43445 -0.00491
C 13.46936 27.5999 0.03338
C 11.03206 0.68374 -0.00066
C 13.42437 26.13176 -0.0258
C 12.31611 24.06542 -0.00316
C 13.59345 23.46131 0.02188
C 13.58514 22.01322 -0.01979
C 12.37573 21.2851 0.02691
C 12.34468 19.88377 -0.01581
C 13.54343 19.31011 0.01452
C 13.50302 4.8426 0.04892
C 12.22486 25.49667 -0.0331
C 12.26562 4.1833 -0.00111
C 11.15055 2.06898 0.00213
C 9.79286 4.20936 -0.04147
C 9.78346 29.86645 -0.00114
C 9.80085 28.39385 0.00228
C 11.02716 27.77421 0.00798
C 11.00847 26.33231 0.00422
C 9.82348 25.6035 0.0351
C 9.88656 24.16967 -0.03113
C 11.07611 23.43643 0.02098
C 9.90599 2.80329 -0.05302
C 11.09823 22.04723 0.01848
C 9.85132 19.89156 -0.02162
C 11.13062 19.21941 0.00889
C 10.89226 17.84029 -0.00481
C 9.92584 17.13436 0.00979
C 9.93808 7.09204 0.01443
C 10.89705 6.35437 0.03505
C 11.09565 4.95595 -0.02815
C 9.85064 21.3457 -0.00619
C 12.3981 2.7916 -0.03557
C 13.54708 2.06546 0.03754
C 13.47347 0.71229 0.01739
C 17.20062 32.61089 -0.01721
C 18.42274 31.90675 -0.02422
C 18.45803 30.5448 0.01277
C 17.3343 29.81232 0.00096
C 17.21081 28.41352 -0.01527
C 18.51786 27.69568 0.01087
C 18.26683 26.37465 0.00199
C 14.74935 0.00147 -0.01154
C 17.24544 25.45729 0.01511
C 18.60315 17.56729 -0.01662
C 18.56747 6.49469 -0.01185
C 18.39016 4.98857 0.01126
C 17.18096 4.28612 0.01852
C 17.2018 2.84311 -0.00381
C 18.47185 2.16432 0.03046
C 18.47162 0.74788 0.0296
C 17.16852 24.08357 -0.00478
C 16.00348 0.6831 0.0106
C 16.02263 2.12014 -0.01594
C 14.81564 2.73047 0.00742
C 12.24711 0.03989 0.00755
C 14.74121 32.65672 -0.0054
C 16.0083 31.85715 0.00667
C 16.02097 30.48423 0.00143
C 14.75266 29.85602 -0.017
C 14.64674 28.36935 0.00364
C 15.91363 27.74603 -0.00831
C 15.88277 26.34663 -0.02957
C 14.73891 25.59169 -0.04422
C 14.75973 24.16565 0.00654
C 16.09769 23.35554 -0.00703
C 16.00217 21.95792 -0.04076
C 14.83738 21.35612 -0.00652
C 14.78184 19.86749 0.0058
C 16.03787 19.26359 -0.00865
C 15.98115 4.95316 0.00675
C 14.79172 4.24136 -0.00311
C 11.06327 30.52919 -0.02696
C 17.25124 34.06761 0.03374
C 11.10367 31.94827 -0.00368
C 7.33354 0.00656 -0.01957
C 2.43298 2.85373 0.00057
C 3.64568 2.11242 -0.01634
C 3.62171 0.70319 -0.00334
C 2.40206 0.00807 0.02339
C 4.94219 32.64194 0.01641
C 6.16643 31.92398 -0.00719
C 6.13772 30.49898 0.01364
C 2.44164 4.21296 0.00093
C 4.83519 29.80752 -0.01062
C 6.13947 27.6651 0.03589
C 6.1205 26.25635 -0.02759
C 4.92039 25.52329 0.0402
C 4.92664 24.17646 0.00572
C 6.17124 23.45664 0.03592
C 6.16318 21.98978 0.00406
C 4.92722 21.33892 0.00943
C 4.90344 28.42485 -0.00033
C 4.92549 19.90763 0.02841
C 3.75627 4.89017 0.01291
C 2.43893 7.11733 -0.00191
C 3.63072 30.56415 0.00393
C 2.42916 29.80755 0.00895
C 2.44366 28.39055 0.00685
C 3.66702 27.75027 0.02888
C 3.7151 26.22927 -0.00482
C 2.50942 25.6106 -0.01384
C 2.44901 24.198 0.03693
C 3.6554 6.41015 0.00438
C 3.66919 23.5008 0.01745
C 2.48604 21.34654 -0.01004
C 2.42991 19.88078 -0.02896
C 3.6391 19.18291 -0.00131
C 3.61935 17.8471 -0.01118
C 2.51287 16.96978 -0.014
C 2.56943 15.64235 0.02147
C 2.39221 8.48193 0.00373
C 3.72147 22.02884 0.00488
C 6.15653 19.20276 -0.01111
C 6.08853 17.70622 -0.01275
C 4.81003 17.15448 0.00985
C 7.38591 21.29797 0.01241
C 7.37752 19.88519 -0.01454
C 8.64199 19.18525 0.01945
C 8.63927 17.70853 0.01416
C 7.34025 17.04567 0.03542
C 7.42 15.57482 0.02299
C 8.48997 14.77855 0.00244
C 8.59329 22.08469 0.0076
C 8.3781 9.25751 -0.01717
C 7.35708 7.1283 -0.01952
C 8.69608 6.4503 -0.02813
C 8.62423 4.93087 0.00374
C 7.44766 4.26791 0.00052
C 7.39626 2.87071 -0.03682
C 8.63452 2.16091 0.01965
C 8.5851 0.72448 0.02058
C 7.46472 8.46817 0.05265
C 8.60721 23.43894 0.02162
C 7.39103 24.1479 -0.0014
C 7.41786 25.53639 0.00415
C 4.99876 15.68721 -0.02245
C 6.05708 15.12727 -0.00428
C 4.89368 7.07898 0.03101
C 6.17201 6.39194 -0.01536
C 6.23436 4.97314 -0.02689
C 4.95943 4.25167 -0.01046
C 4.86953 2.74887 -0.00891
C 6.14621 2.12058 0.02819
C 6.07574 0.69645 0.00165
C 4.84869 34.04322 -0.02971
C 7.38954 32.6904 0.02894
C 8.59936 31.96939 -0.01789
C 8.57131 30.58242 0.00444
C 7.38719 29.78565 -0.00925
C 7.35162 28.38731 0.01877
C 8.5784 27.70311 0.01363
C 8.6139 26.31168 -0.02162
C 9.85707 32.62396 -0.0108
C 3.7032 31.99562 0.0288
C 19.62845 32.70669 -0.02845
C 20.92549 30.56434 0.02239
C 31.93948 28.5039 0.00682
C 33.17261 27.69637 -0.01779
C 33.28707 26.34075 0.03794
C 33.23874 23.49632 0.01927
C 33.18409 22.11608 0.01574
C 31.94768 21.43379 -0.02383
C 31.84002 20.02617 -0.01429
C 31.9911 29.81774 0.00026
C 33.11666 19.19373 -0.0136
C 31.99029 17.05154 -0.02474
C 32.00815 15.65024 0.00369
C 33.2245 14.88822 0.00455
C 33.1857 13.5107 -0.00644
C 31.98671 12.81069 -0.01839
C 31.94664 11.40691 0.00137
C 33.13065 10.63058 0.00199
C 33.15671 17.81742 0.00594
C 33.22498 9.19039 0.04381
C 33.21914 30.52952 0.0544
C 31.92543 32.69423 0.01428
C 29.4701 15.67871 -0.01303
C 30.79932 14.97004 -0.01461
C 30.73136 13.48845 -0.02155
C 29.50707 12.81684 -0.00944
C 29.41852 11.32138 -0.03735
C 30.71832 10.68013 -0.00971
C 30.70955 9.28543 0.01518
C 33.1176 31.97105 -0.02142
C 29.48925 8.51085 0.01908
C 30.73061 6.38159 0.0103
C 30.70856 4.95171 0.02108
C 29.48601 4.26002 0.00716
C 29.51313 2.83105 0.00307
C 30.73277 2.1212 0.00346
C 30.76509 0.70265 0.01713
C 29.49958 0.01098 -0.01694
C 29.51953 7.08716 0.07705
C 31.9406 8.57023 0.02806
C 31.93938 7.07658 0.01504
C 33.14753 6.39491 -0.00069
C 34.39265 17.10244 0.00648
C 34.38616 15.67492 0.02114
C 1.38242 14.86215 -0.02957
C 1.22199 13.42354 0.00343
C 0.07019 12.78811 -0.02656
C 34.40704 11.33262 -0.02442
C 1.15255 10.69015 -0.00027
C 1.23111 17.74292 0.01223
C 1.26041 9.28894 -0.00583
C 34.40218 7.07011 -0.02849
C 1.20937 6.43749 0.02931
C 1.28059 4.99134 0.00628
C 0.0042 4.20393 -0.0345
C 0.01846 2.75669 -0.00931
C 1.24703 2.12882 -0.00939
C 1.21175 0.78085 -0.00468
C 34.42506 8.46169 -0.02302
C 1.19441 19.14141 -0.01678
C 34.41456 19.82616 0.01951
C 34.41837 21.23784 -0.02213
C 33.17006 4.96119 0.04926
C 31.92316 4.28678 -0.03838
C 31.92498 2.82316 0.00349
C 33.18024 2.12253 -0.00323
C 33.21802 0.67941 -0.00841
C 31.98002 34.06149 0.0001
C 0.00827 32.69597 -0.02927
C 1.27455 31.90206 -0.01404
C 1.22188 30.47864 0.01027
C 0.03468 29.80425 0.01831
C 0.04212 28.35569 -0.01037
C 1.22491 27.68858 -0.00439
C 1.23278 26.25222 -0.00598
C 34.40712 25.57833 -0.05239
C 34.40637 24.20724 0.03076
C 1.22339 23.50687 0.00723
C 1.19057 22.04504 0.02712
C 29.52018 17.11754 -0.0405
C 20.84073 31.99634 -0.03213
C 30.78835 17.82244 0.01705
C 29.41235 29.89815 -0.00669
C 23.42242 13.52839 0.03102
C 22.09363 12.72315 0.02555
C 22.09747 11.24723 0.01423
C 23.34268 10.71556 -0.00285
C 23.41316 9.25425 -0.009
C 22.09538 8.64732 -0.01199
C 22.09684 7.00794 -0.00229
C 23.3314 14.87719 0.00135
C 23.298 6.39088 -0.00938
C 22.18224 4.24018 -0.01154
C 22.09196 2.80254 0.00684
C 23.29388 2.13963 -0.01052
C 23.29343 0.67633 -0.01679
C 22.08186 34.06621 0.00367
C 24.57535 32.55751 0.04306
C 25.85918 32.10217 0.00996
C 23.43743 5.01079 -0.0264
C 24.61195 17.00227 0.00195
C 22.07916 15.66844 -0.00498
C 23.17468 30.53616 0.02117
C 19.68124 29.8171 0.01153
C 19.66384 28.49977 0.02734
C 19.6713 16.97996 -0.0055
C 20.94831 14.84647 0.01515
C 20.87447 13.683 -0.00225
C 20.98067 9.32396 0.00071
C 19.56833 7.12243 -0.01107
C 22.06763 17.04772 0.02737
C 20.81691 6.39566 -0.01586
C 19.70528 4.28909 -0.02118
C 19.70419 2.8316 0.00733
C 20.85832 2.13328 -0.00178
C 20.87986 0.68613 0.00768
C 19.64286 34.05458 -0.0276
C 22.07117 32.71663 0.03005
C 23.30542 32.00167 -0.04078
C 20.94169 4.90356 -0.01971
C 24.56927 15.65468 -0.00802
C 25.76072 14.86286 -0.00218
C 25.85639 13.51119 -0.01654
C 27.09328 12.76189 0.01699
C 26.91773 11.28723 -0.00416
C 28.22497 10.62941 0.01177
C 28.24192 9.23697 0.04266
C 27.03515 8.46239 0.01324
C 27.03872 7.07003 0.0014
C 28.33429 6.36733 0.00924
C 28.29573 13.47983 0.01799
C 28.25844 4.96415 0.02326
C 27.02032 2.77644 0.03265
C 28.30429 2.11241 -0.02049
C 28.24238 0.6253 -0.01854
C 27.01186 34.01194 -0.01415
C 29.55944 32.63343 -0.03039
C 30.76879 31.94948 0.01836
C 30.73973 30.52538 0.03531
C 27.0237 4.19799 0.00261
C 28.21717 14.87737 0.01259
C 27.00388 15.58415 0.01495
C 27.0963 17.08183 0.00235
C 24.66594 12.7929 -0.00037
C 24.55932 11.37219 -0.0032
C 25.72545 10.58032 0.00622
C 25.7599 9.16878 -0.02815
C 24.5665 8.4668 -0.00942
C 24.62369 7.06403 0.00487
C 25.85854 6.33439 0.00826
C 25.84428 4.89744 -0.00294
C 24.62566 4.25836 0.00152
C 24.5493 2.80132 0.01257
C 25.82666 2.05262 0.02316
C 25.76535 0.64796 0.04185
C 24.5569 34.07012 0.00194
C 27.12586 32.55985 -0.00621
C 28.39085 31.85996 0.02611
C 28.38894 30.40878 0.02198
C 28.16835 17.62224 0.01094
C 30.78412 19.1648 0.0101
C 2.4811 32.64419 -0.0008
