358
Graphene
C 34.40184 0.03678 0.01295
C 11.07032 13.41774 -0.01957
C 9.832 12.80756 -0.0108
C 9.79501 11.39246 -0.00368
C 11.06647 10.72229 -0.02696
C 11.0602 9.23944 -0.00114
C 9.82955 8.50528 0.00228
C 9.76118 7.12559 0.00798
C 11.03721 6.33348 0.00422
C 11.07932 14.9055 0.02058
C 11.02544 4.96812 0.0351
C 9.86855 2.76254 0.02098
C 11.07307 2.09127 0.01848
C 11.08172 0.6859 -0.00619
C 9.89043 0.00849 -0.02162
C 12.30161 32.67084 0.00889
C 13.51052 31.9111 -0.00481
C 13.46475 30.47532 0.00979
C 12.18644 29.73837 0.01443
C 9.91278 4.21588 -0.03113
C 12.21922 28.37266 0.03505
C 9.88654 15.6386 0.01965
C 11.10245 17.77678 0.00052
C 7.25413 2.94285 0.01363
C 8.56611 2.25326 -0.02162
C 8.68402 0.78789 0.00415
C 7.41865 0.06939 -0.0014
C 9.84141 32.66969 0.02162
C 11.07184 32.01363 0.0076
C 11.0521 30.56756 0.01241
C 9.80427 29.95705 -0.01454
C 9.78936 17.0605 -0.03682
C 9.85271 28.45219 0.01945
C 11.10147 26.26266 0.03542
C 9.78409 25.57034 0.02299
C 9.78569 24.10313 0.00244
C 11.04912 23.42262 -0.01717
C 11.11261 22.00163 0.05265
C 9.92874 21.27526 -0.01952
C 9.87085 19.86632 -0.02813
C 11.09378 19.14489 0.00374
C 11.00365 27.65248 0.01416
C 13.46336 27.68024 -0.02815
C 13.54294 26.25158 -0.04147
C 12.31761 25.56208 -0.05302
C 14.72282 32.62512 -0.0054
C 15.97524 32.01046 0.00667
C 15.93382 30.57659 0.00143
C 14.72929 29.81512 -0.017
C 14.68767 28.32137 0.00364
C 15.92062 27.69088 -0.00831
C 15.94077 26.25623 -0.02957
C 14.78672 25.55837 -0.04422
C 12.36215 0.03804 0.00755
C 14.71074 24.12404 0.00654
C 16.04953 21.94928 -0.04076
C 14.83316 21.24673 -0.00652
C 14.79974 19.79848 0.0058
C 15.97649 17.7574 -0.00865
C 14.7989 17.0482 0.00675
C 14.74734 15.6013 -0.00311
C 16.0102 14.85307 0.00742
C 16.03364 13.55206 -0.01594
C 16.04778 23.31832 -0.00703
C 13.5478 0.70875 0.01739
C 13.46573 2.08847 0.03754
C 12.29493 2.84768 -0.03557
C 12.25065 24.22181 0.00213
C 13.48251 23.50947 -0.00066
C 13.53801 22.07385 -0.00289
C 12.32956 21.28655 0.00028
C 12.30283 19.88265 -0.02213
C 13.60407 19.14206 0.03698
C 13.54198 17.76865 -0.00109
C 12.34229 17.05412 -0.00491
C 12.31924 15.58697 0.03338
C 13.54086 14.85999 -0.0258
C 13.53289 13.45571 -0.0331
C 12.36177 12.68231 -0.00316
C 12.33067 11.33086 0.02188
C 13.56439 10.70636 -0.01979
C 13.49446 9.26594 0.02691
C 12.28912 8.48133 -0.01581
C 12.10546 7.10149 0.01452
C 13.45786 4.86169 0.04892
C 12.25294 4.2529 -0.00111
C 7.34876 4.37185 0.01877
C 8.66879 4.89747 -0.00925
C 8.59342 6.30582 0.00444
C 7.40406 7.06357 -0.01789
C 3.62986 6.38128 -0.01142
C 3.6359 4.98002 -0.00562
C 2.42923 4.2668 -0.00494
C 2.46879 2.82281 0.00054
C 3.73927 2.19823 0.03007
C 3.71025 0.74807 -0.00095
C 2.49944 34.07521 0.01572
C 4.92924 32.68985 -0.04848
C 2.43152 7.09783 0.01849
C 6.12852 32.00943 -0.00892
C 4.93393 29.80765 -0.0008
C 4.88275 28.38888 0.0288
C 6.09708 27.70456 0.00393
C 6.12491 26.32373 0.00895
C 4.93298 25.56805 0.00685
C 4.93294 24.16797 0.02888
C 6.13397 23.45391 -0.00482
C 6.15432 21.98788 -0.01384
C 6.19067 30.55393 -0.01362
C 2.43758 8.57325 0.01396
C 3.64664 9.33548 0.0127
C 3.6003 10.79466 0.02635
C 3.68755 30.49832 0.02322
C 2.39184 29.84487 -0.00725
C 2.4481 28.34899 -0.05697
C 3.67838 27.68528 0.01087
C 3.67925 26.26893 -0.01343
C 2.4635 25.54451 0.00988
C 2.49751 24.10744 0.0276
C 3.74541 23.42614 0.01305
C 3.687 22.02249 -0.00077
C 2.43017 21.3155 0.03368
C 2.43027 19.96026 -0.02929
C 3.64278 19.16949 -0.00966
C 3.69804 17.74885 -0.03337
C 2.44571 17.01719 0.01227
C 2.49556 15.57595 0.00873
C 3.72874 14.9032 -0.00049
C 3.73903 13.52923 0.00848
C 2.39685 12.80046 -0.01303
C 2.38788 11.40066 -0.01378
C 4.85095 21.27022 0.03693
C 14.85405 12.76154 0.0106
C 4.90232 19.90213 0.01745
C 6.16656 17.80263 -0.01004
C 8.62979 26.36617 0.03592
C 7.37939 25.61766 0.00406
C 7.36834 24.17243 0.00943
C 8.59904 23.36556 0.02841
C 8.68261 21.94919 -0.01111
C 7.38183 21.23506 -0.01275
C 7.35113 19.90716 0.00985
C 8.56539 19.14678 -0.02245
C 8.62612 27.82068 0.00572
C 8.59183 17.76163 -0.00428
C 7.43278 15.64617 -0.01536
C 8.66005 14.96521 -0.02689
C 8.55599 13.48829 -0.01046
C 7.34449 12.76656 -0.00891
C 7.32477 11.31782 0.02819
C 8.59305 10.60923 0.00165
C 8.60679 9.20427 -0.02971
C 7.38 8.458 0.02894
C 7.36664 17.03333 0.03101
C 7.33735 28.39715 0.0402
C 7.38001 29.88073 -0.02759
C 8.60847 30.58198 0.03589
C 4.94229 17.07122 -0.02896
C 4.96321 15.63685 -0.00131
C 6.2053 14.94396 -0.01118
C 6.18757 13.46605 -0.014
C 4.9104 12.80209 0.02147
C 4.90873 11.42289 0.00373
C 6.11752 10.62934 -0.00191
C 6.12729 9.27872 0.00438
C 4.91806 8.61712 0.01291
C 4.85837 7.20152 0.00093
C 6.08677 6.4993 0.00057
C 6.11557 5.07637 -0.01634
C 4.9001 4.32706 -0.00334
C 4.92321 2.91904 0.02339
C 6.1174 2.17511 0.01641
C 6.13195 0.73719 -0.00719
C 4.92573 0.02509 0.01364
C 7.35857 32.69826 -0.01062
C 8.62946 31.99023 -0.00033
C 6.18594 19.17745 0.00488
C 14.78886 11.37744 -0.01154
C 14.49344 8.43245 -0.01721
C 14.98428 7.2464 -0.02422
C 31.93326 32.57233 0.01713
C 33.16576 31.9789 -0.01694
C 33.16241 30.56491 0.01428
C 31.94129 29.88267 -0.02142
C 32.01002 28.43879 0.0544
C 33.2448 27.70318 0.00026
C 33.13692 26.2701 0.00682
C 31.95272 25.56084 -0.01779
C 29.54394 0.05763 0.00346
C 31.95368 24.19102 0.03794
C 33.05466 22.04245 0.01574
C 31.86064 21.1026 -0.02383
C 31.96057 19.91983 -0.01429
C 33.17283 19.188 -0.0136
C 33.23222 17.78109 0.00594
C 31.86579 17.06234 -0.02474
C 32.00589 15.61605 0.00369
C 33.23051 14.84767 0.00455
C 33.08128 23.4781 0.01927
C 30.77178 0.74053 0.00307
C 30.79277 2.1799 0.00716
C 29.51957 2.84034 0.02108
C 30.66872 30.48357 -0.01854
C 29.46139 29.84362 -0.01415
C 29.45884 28.40686 -0.03039
C 30.78437 27.76016 0.01836
C 30.75322 26.2878 0.03531
C 29.64238 25.47628 -0.00669
C 30.72382 17.76913 0.0101
C 29.61503 15.69236 0.01705
C 30.69208 14.91398 -0.0405
C 30.73902 13.49531 -0.01303
C 29.52146 12.79667 -0.01461
C 29.50275 11.3819 -0.02155
C 30.72878 10.66678 -0.00944
C 30.75573 9.17527 -0.03735
C 29.54508 8.5182 -0.00971
C 29.54564 7.11582 0.01518
C 30.77799 6.39123 0.01908
C 30.70321 4.9695 0.07705
C 29.50509 4.28981 0.0103
C 33.20208 13.41718 -0.00644
C 30.66656 31.97785 -0.02049
C 31.99934 12.75051 -0.01839
C 33.23185 10.63399 0.00199
C 1.24571 19.15846 -0.01678
C 1.23569 17.74743 0.01223
C 34.39976 17.05134 0.00648
C 0.02797 15.58369 0.02114
C 1.25989 14.89765 -0.02957
C 1.17762 13.52537 0.00343
C 0.05398 12.75525 -0.02656
C 34.41649 11.26517 -0.02442
C 0.00036 19.95746 0.01951
C 1.22046 10.61128 -0.00027
C 34.41748 8.50713 -0.02302
C 34.36984 7.06075 -0.02849
C 1.21628 6.46938 0.02931
C 1.21365 5.01195 0.00628
C 34.42017 4.33532 -0.0345
C 34.41279 2.86718 -0.00931
C 1.23439 2.12723 -0.00939
C 1.20357 0.72914 -0.00468
C 1.20368 9.23606 -0.00583
C 34.41187 21.33792 -0.02213
C 1.20181 22.0674 0.02712
C 1.22439 23.46199 0.00723
C 33.23869 9.21741 0.04381
C 32.00076 8.57173 0.02806
C 32.00534 7.09962 0.01504
C 33.16057 6.35001 -0.00069
C 33.14897 4.92197 0.04926
C 31.94217 4.23376 -0.03838
C 31.98049 2.83085 0.00349
C 33.22442 2.11482 -0.00323
C 33.15253 0.6851 -0.00841
C 31.94035 33.9803 0.0001
C 34.4302 32.69532 -0.02927
C 1.19656 31.99402 -0.01404
C 1.19384 30.54292 0.01027
C 34.40676 29.88803 0.01831
C 0.01489 28.40073 -0.01037
C 1.20718 27.69433 -0.00439
C 1.15354 26.23748 -0.00598
C 34.34702 25.54658 -0.05239
C 34.40648 24.16549 0.03076
C 31.97813 11.39317 0.00137
C 3.67253 31.89726 -0.00094
C 29.47745 32.68825 0.03265
C 28.30888 0.74592 0.02326
C 20.85535 31.94785 0.00071
C 20.89091 30.60046 -0.01107
C 19.61429 29.88645 -0.01586
C 19.67773 28.39678 -0.01971
C 20.85989 27.66111 -0.02118
C 20.94698 26.08015 0.00733
C 19.63288 25.5275 -0.00178
C 19.59661 2.80693 0.00768
C 19.57666 32.59356 -0.00225
C 20.83089 2.35699 -0.0276
C 19.68047 34.05948 -0.04078
C 22.09216 32.65301 0.02117
C 23.32271 31.96641 0.02737
C 23.34453 30.52565 -0.00498
C 22.12291 29.80441 0.00135
C 22.11044 28.39535 0.03102
C 23.36951 27.73467 0.02555
C 23.37437 26.15468 0.01423
C 20.88422 0.66867 0.03005
C 17.22126 0.02467 0.01515
C 18.45562 0.65115 -0.0055
C 18.4808 2.06923 0.02734
C 15.80557 6.40252 0.01277
C 16.10848 5.0085 0.00096
C 14.69601 4.21965 -0.01527
C 14.7041 2.80892 0.01087
C 15.96557 2.12874 0.00199
C 15.99096 0.73065 0.01511
C 14.76798 34.05863 -0.00478
C 17.17828 32.72213 -0.01662
C 18.33607 31.93865 -0.01185
C 18.30798 30.5202 0.01126
C 17.13342 29.8011 0.01852
C 17.20844 28.34504 -0.00381
C 18.47483 27.68337 0.03046
C 18.41747 26.18578 0.0296
C 17.16476 25.53136 0.03374
C 17.08083 24.20261 -0.02845
C 17.18133 15.57714 -0.03213
C 17.18441 4.13854 0.02239
C 17.18309 2.80155 0.01153
C 22.16061 25.54388 -0.00285
C 27.09189 0.06487 0.00261
C 22.10458 2.82915 -0.009
C 23.37069 0.58568 -0.00229
C 27.08995 28.39538 0.02316
C 28.28786 27.71826 0.04185
C 28.40727 26.09448 0.00194
C 27.17698 25.54729 -0.00621
C 27.21343 15.5859 0.02611
C 28.3545 15.01096 0.02198
C 28.27455 13.48127 0.01094
C 26.92275 12.76073 0.00235
C 27.03334 29.79216 0.01257
C 26.99055 11.33853 0.01495
C 28.30916 9.31083 0.01799
C 27.24402 8.53118 0.01699
C 27.00537 7.17525 -0.00416
C 28.36271 6.41916 0.01177
C 28.22828 5.02742 0.04266
C 27.09496 4.2028 0.01324
C 27.02166 2.76187 0.0014
C 28.28685 2.12145 0.00924
C 28.23146 10.70994 0.01259
C 28.26655 30.59812 0.00152
C 28.2228 31.97882 -0.00294
C 27.04674 32.71629 0.00826
C 22.07916 34.03071 -0.00938
C 24.56822 32.64267 -0.0264
C 25.78567 31.95119 -0.01154
C 25.88756 30.56582 0.00684
C 24.64009 29.884 -0.01052
C 24.56998 28.40588 -0.01679
C 25.84253 27.60785 0.00367
C 25.88349 26.07262 0.04306
C 24.58734 25.67539 0.00996
C 24.63863 15.41622 0.00195
C 25.87524 15.05442 -0.00802
C 25.82851 13.60992 -0.00218
C 25.93616 6.30056 -0.01654
C 25.74091 4.97344 -0.00037
C 24.41707 4.21511 -0.0032
C 24.43772 2.848 0.00622
C 25.71275 2.15759 -0.02815
C 25.82428 0.72552 -0.00942
C 24.62289 34.06618 0.00487
C 23.2229 2.07607 -0.01199
C 2.44011 32.61298 -0.02566
