339
Graphene
C 34.38088 0.1309 0.01295
C 12.25216 25.65345 -0.02162
C 12.34293 24.19775 0.00889
C 13.50115 23.43301 -0.00481
C 13.41584 22.04564 0.00979
C 12.18188 21.25803 0.01443
C 12.35183 19.89779 0.03505
C 13.6477 19.23989 -0.02815
C 13.58188 17.78722 -0.04147
C 12.34674 17.09893 -0.05302
C 12.25704 15.67921 0.00213
C 13.39689 14.9098 -0.00066
C 13.53937 13.50317 -0.00289
C 12.37071 12.72704 0.00028
C 13.54273 10.64398 -0.02213
C 13.58829 9.34745 0.03698
C 13.44087 6.37769 -0.00109
C 13.54437 4.99933 -0.00491
C 13.53624 26.32652 -0.00619
C 12.30929 4.29793 0.03338
C 13.52684 27.72095 0.01848
C 12.26719 29.83878 -0.03113
C 9.746 21.35803 0.05265
C 9.83774 19.86933 -0.01952
C 11.14226 19.20151 -0.02813
C 11.06411 17.72891 0.00374
C 9.74843 17.09333 0.00052
C 9.78186 15.58238 -0.03682
C 11.04566 14.8676 0.01965
C 11.15064 13.52078 0.02058
C 11.139 4.93862 -0.01957
C 10.05131 4.20801 -0.0108
C 9.78977 2.8623 -0.00368
C 11.07504 2.2461 -0.02696
C 11.14107 0.76905 -0.00114
C 9.84806 0.12789 0.00228
C 12.33295 32.67409 0.00798
C 13.53964 31.86568 0.00422
C 13.44599 30.51917 0.0351
C 12.2992 28.44511 0.02098
C 12.31955 2.81929 -0.0258
C 13.51055 2.12499 -0.0331
C 13.64283 0.71693 -0.00316
C 15.94 10.60417 -0.00652
C 15.90556 9.16579 0.0058
C 14.70496 8.45753 -0.00865
C 14.65687 6.974 0.00675
C 15.98531 6.28908 -0.00311
C 16.02288 4.92999 0.00742
C 14.78619 4.26924 -0.01594
C 14.72467 2.81307 0.0106
C 15.92532 2.04462 -0.01154
C 15.99331 0.68403 -0.01721
C 14.74072 34.00708 -0.02422
C 17.27736 32.67079 0.01277
C 18.50748 32.10228 0.00096
C 18.74275 30.59909 -0.01527
C 17.43999 29.89422 0.01087
C 17.17489 28.50572 0.00199
C 17.04713 25.54978 0.01511
C 14.73149 11.41405 -0.04076
C 14.88 12.7595 -0.00703
C 16.08456 13.49182 0.00654
C 15.95163 14.91563 -0.04422
C 12.34839 0.06218 0.02188
C 14.78014 32.56099 -0.01979
C 16.02902 31.97801 0.02691
C 16.07222 30.56526 -0.01581
C 14.81678 29.91555 0.01452
C 14.70174 28.50113 0.04892
C 15.98428 27.76822 -0.00111
C 15.96061 26.37643 -0.03557
C 10.98054 22.0311 -0.01717
C 14.6697 25.57089 0.03754
C 16.01411 23.46907 0.00755
C 15.93393 22.06942 -0.0054
C 14.69634 21.32704 0.00667
C 14.83303 19.90513 0.00143
C 16.02806 19.16223 -0.017
C 15.89547 17.77215 0.00364
C 14.70785 17.05883 -0.00831
C 14.7299 15.60965 -0.02957
C 14.70749 24.20339 0.01739
C 17.05485 24.28493 -0.00478
C 11.08556 23.52522 0.00244
C 9.80856 25.6322 0.03542
C 3.63634 6.29064 -0.01384
C 3.94257 4.99334 0.03693
C 2.57295 4.31213 0.01745
C 2.41961 2.95023 0.00488
C 3.69887 2.22455 -0.01004
C 3.67452 0.76812 -0.02896
C 2.4319 0.12464 -0.00131
C 4.90464 32.7288 -0.01118
C 6.14867 32.04 -0.014
C 6.11705 30.55253 0.02147
C 4.84125 29.91278 0.00373
C 4.90219 28.45746 -0.00191
C 6.12253 27.74697 0.00438
C 6.02188 26.3127 0.01291
C 4.80398 25.64805 0.00093
C 4.86823 24.17384 0.00057
C 6.12661 23.48375 -0.01634
C 2.56733 7.19114 -0.00482
C 6.09669 22.05983 -0.00334
C 2.3798 8.65487 0.02888
C 2.51485 12.66507 0.00895
C 3.56375 30.50949 0.02635
C 2.3059 29.80873 0.0127
C 2.28745 28.4464 0.01396
C 3.65433 27.75496 0.01849
C 3.57593 26.34931 -0.01142
C 2.38989 25.63024 -0.00562
C 2.49346 24.20819 -0.00494
C 3.71071 23.48166 0.00054
C 3.61653 22.1564 0.03007
C 2.43733 21.31931 -0.00095
C 2.4504 19.90938 0.01572
C 3.60226 19.21111 -0.04848
C 3.66203 17.74782 -0.00892
C 2.55159 17.00274 -0.01362
C 2.43045 15.4867 -0.0008
C 3.62913 14.81957 0.0288
C 3.71477 13.42146 0.00393
C 2.4347 11.19398 0.00685
C 4.82199 21.31189 0.02339
C 4.9496 19.87757 0.01641
C 6.16673 19.1749 -0.00719
C 8.69483 19.1607 0.00165
C 8.58381 17.68021 -0.02971
C 7.42563 17.00479 0.02894
C 7.31948 15.4349 -0.01789
C 8.53071 14.83492 0.00444
C 6.58749 4.41771 -0.00925
C 7.25089 3.08329 0.01877
C 8.49617 2.34036 0.01363
C 8.53242 0.81687 -0.02162
C 7.36532 0.00637 0.00415
C 9.80903 32.739 -0.0014
C 11.02981 32.05751 0.02162
C 10.98335 30.56123 0.0076
C 9.78278 29.89193 0.01241
C 9.80535 28.35797 -0.01454
C 11.02904 27.67969 0.01945
C 11.08968 26.31124 0.01416
C 7.3856 19.88261 0.02819
C 7.31351 21.32956 -0.00891
C 8.56139 21.97695 -0.01046
C 8.60391 23.54631 -0.02689
C 6.1895 17.73994 0.01364
C 4.97847 17.00887 -0.01062
C 4.90088 15.64162 -0.00033
C 6.03912 14.79079 0.03589
C 5.2357 4.25449 -0.02759
C 4.9253 2.85122 0.0402
C 6.13939 2.16336 0.00572
C 6.17222 0.68276 0.03592
C 9.81621 24.19961 0.02299
C 4.88213 0.03661 0.00406
C 8.5904 32.02016 0.02841
C 8.59651 30.59377 -0.01111
C 7.34397 29.90738 -0.01275
C 7.34635 28.48211 0.00985
C 8.60585 27.66164 -0.02245
C 8.47666 26.30208 -0.00428
C 7.2471 25.61449 0.03101
C 7.35154 24.22052 -0.01536
C 7.38332 32.65089 0.00943
C 3.6562 31.98924 -0.01378
C 17.22582 21.34554 -0.01662
C 18.4113 19.10255 0.01126
C 29.37586 2.80986 -0.02142
C 30.5617 2.09781 0.0544
C 30.56934 0.68257 0.00026
C 29.35662 33.98632 0.00682
C 31.88026 32.69195 -0.01779
C 33.12837 32.06638 0.03794
C 33.06884 30.62005 0.01927
C 32.00215 29.80391 0.01574
C 32.98249 28.0676 -0.02383
C 33.37772 22.32323 -0.01429
C 33.29406 19.23091 -0.0136
C 33.22704 17.83907 0.00594
C 32.01582 17.12856 -0.02474
C 31.93076 15.66895 0.00369
C 33.1619 14.93621 0.00455
C 33.22073 13.50443 -0.00644
C 32.0918 12.79542 -0.01839
C 29.38815 4.17019 0.01428
C 31.94152 11.38186 0.00137
C 30.68003 4.95547 -0.01694
C 29.47167 7.0754 0.00346
C 26.98981 4.18168 -0.00669
C 26.93928 2.73036 0.0101
C 28.1745 2.05998 0.01705
C 28.15642 0.6041 -0.0405
C 26.87781 33.96847 -0.01303
C 29.5682 32.64157 -0.01461
C 30.76362 32.01651 -0.02155
C 30.71627 17.67446 -0.00944
C 29.56423 17.02606 -0.03735
C 29.48903 15.67462 -0.00971
C 30.76716 14.91322 0.01518
C 30.82389 13.42419 0.01908
C 29.58592 12.74669 0.07705
C 29.4595 11.38238 0.0103
C 30.68917 10.69318 0.02108
C 30.63046 9.25292 0.00716
C 29.47988 8.47632 0.00307
C 30.67066 6.34514 0.01713
C 33.08771 10.6285 0.00199
C 33.06623 9.16053 0.04381
C 31.8724 8.50904 0.02806
C 1.35734 17.73513 0.01223
C 0.02794 17.09977 0.00648
C 0.026 15.59138 0.02114
C 1.19828 14.84048 -0.02957
C 1.22668 13.43076 0.00343
C 34.42719 12.78583 -0.02656
C 34.34965 11.39548 -0.02442
C 1.204 10.6373 -0.00027
C 1.04037 9.29808 -0.00583
C 34.333 8.48534 -0.02302
C 34.39474 7.03134 -0.02849
C 1.27628 6.49742 0.02931
C 1.34109 5.0508 0.00628
C 0.01062 4.32368 -0.0345
C 34.393 2.94576 -0.00931
C 1.1511 2.22083 -0.00939
C 1.18307 0.82034 -0.00468
C 1.22496 19.13374 -0.01678
C 0.05029 19.93463 0.01951
C 0.05627 21.39752 -0.02213
C 1.30199 22.07505 0.02712
C 31.93067 7.11481 0.01504
C 33.13138 6.413 -0.00069
C 33.14602 5.00867 0.04926
C 31.893 4.2461 -0.03838
C 31.85922 2.80444 0.00349
C 33.1819 2.18164 -0.00323
C 33.08291 0.74936 -0.00841
C 31.9104 0.00785 0.0001
C 28.19352 4.87002 0.03531
C 0.00653 32.77351 -0.02927
C 1.15167 30.56621 0.01027
C 34.36829 29.94474 0.01831
C 34.30361 28.45332 -0.01037
C 1.0519 27.7302 -0.00439
C 1.04312 26.30426 -0.00598
C 34.33873 25.27203 -0.05239
C 0.00879 24.00107 0.03076
C 1.33845 23.45856 0.00723
C 1.19981 32.02924 -0.01404
C 17.24717 19.95131 -0.01185
C 28.23561 6.34193 0.01836
C 26.96496 8.52277 -0.01415
C 20.89235 17.55886 -0.0276
C 19.64624 16.98206 0.03005
C 19.68979 15.55837 -0.04078
C 20.85752 14.78026 0.02117
C 20.89527 13.42196 0.02737
C 19.71926 12.70963 -0.00498
C 19.67743 11.30073 0.00135
C 20.91404 10.67554 0.03102
C 20.92269 9.21216 0.02555
C 19.5941 8.48256 0.01423
C 19.56678 7.09463 -0.00285
C 20.75985 6.34746 -0.009
C 20.85883 4.95071 -0.01199
C 19.53356 2.87853 -0.00229
C 20.76501 2.26969 -0.00938
C 20.89894 0.78796 -0.0264
C 19.68245 0.05087 -0.01154
C 20.17112 30.53788 0.00768
C 22.06922 32.58523 0.00684
C 20.7992 31.90176 -0.00178
C 17.25956 0.04767 -0.02118
C 18.35625 17.77283 0.01852
C 17.11529 17.08659 -0.00381
C 17.16768 15.62015 0.03046
C 18.41418 14.88606 0.0296
C 18.44771 13.39234 0.03374
C 17.28407 12.76155 -0.02845
C 17.21807 11.3349 -0.03213
C 18.39618 10.57292 0.02239
C 18.381 9.1715 0.01153
C 17.19303 8.44301 0.02734
C 17.16913 7.07036 -0.0055
C 18.40572 6.31452 0.01515
C 18.4842 4.88779 -0.00225
C 17.314 4.18643 0.00071
C 17.17108 2.80785 -0.01107
C 18.38255 2.25863 -0.01586
C 18.42658 0.82291 -0.01971
C 19.6523 32.75309 0.00733
C 22.02085 16.89318 -0.01052
C 22.04341 15.54755 -0.01679
C 23.28656 14.88433 0.00367
C 24.53376 8.48208 0.01094
C 24.47978 7.03068 0.00235
C 25.78698 6.40113 0.01495
C 25.8069 4.91177 0.01259
C 24.48719 4.24756 0.01799
C 24.50824 2.83174 0.01699
C 25.67675 2.12163 -0.00416
C 25.60527 0.64055 0.01177
C 24.34755 33.97502 0.04266
C 26.72042 32.54788 0.01324
C 27.07197 15.60534 0.0014
C 28.22822 14.8944 0.00924
C 28.27042 13.50336 0.02326
C 27.05455 12.82471 0.00261
C 26.98523 11.41204 0.03265
C 28.21784 10.68181 -0.02049
C 28.20296 9.21667 -0.01854
C 25.75967 9.26555 0.02198
C 25.7925 10.6138 0.02611
C 24.58572 11.39196 -0.00621
C 24.5316 12.78614 0.00194
C 23.35869 13.43416 0.04306
C 22.07038 12.72575 0.00996
C 22.09052 11.28255 0.00195
C 23.41021 10.63899 -0.00802
C 23.39184 9.16339 -0.00218
C 22.16665 8.51635 -0.01654
C 22.02669 7.00506 -0.00037
C 23.23249 6.34859 -0.0032
C 26.92675 7.09294 -0.03039
C 23.27429 4.91791 0.00622
C 22.04281 2.78225 -0.00942
C 23.2965 2.15108 0.00487
C 23.29689 0.73366 0.00826
C 22.13837 0.0066 -0.00294
C 24.18433 32.59337 0.00152
C 24.56337 15.56533 0.01257
C 25.83246 14.95037 0.02316
C 25.81147 13.52214 0.04185
C 22.01992 4.24841 -0.02815
C 2.34123 32.72089 -0.01303
