393
Graphene
C 34.37336 6e-05 0.01295
C 12.26558 28.52496 0.01877
C 13.57866 27.69464 0.01363
C 13.40828 26.29791 -0.02162
C 12.16472 25.56817 0.00415
C 12.12856 24.09444 -0.0014
C 13.39538 23.54576 0.02162
C 13.44052 22.19198 0.0076
C 12.2153 21.39833 0.01241
C 12.27554 20.03725 -0.01454
C 12.24213 29.92176 -0.00925
C 13.41737 19.32155 0.01945
C 12.67533 17.11603 0.03542
C 12.59825 15.60991 0.02299
C 13.59103 14.4978 0.00244
C 13.65902 13.1334 -0.01717
C 12.30489 12.76738 0.05265
C 12.18545 11.39301 -0.01952
C 13.53475 10.73442 -0.02813
C 13.38181 9.34739 0.00374
C 12.32695 8.58571 0.00052
C 13.76987 17.94071 0.01416
C 13.49303 30.62338 0.00444
C 13.55041 32.04815 -0.01789
C 12.35559 32.80494 0.02894
C 10.87334 23.518 0.03589
C 10.95702 22.05699 -0.02759
C 9.79814 21.19292 0.0402
C 9.8295 19.79183 0.00572
C 11.11375 19.18427 0.03592
C 11.31182 17.79615 0.00406
C 11.3954 14.91826 0.00943
C 11.09394 13.54049 0.02841
C 9.79884 12.85247 -0.01111
C 9.83429 11.31004 -0.01275
C 10.97532 10.62127 0.00985
C 11.05725 9.19578 -0.02245
C 9.83394 8.51054 -0.00428
C 9.9345 7.14043 0.03101
C 11.3031 6.44663 -0.01536
C 11.12708 5.0078 -0.02689
C 9.82942 4.40155 -0.01046
C 9.91939 2.98337 -0.00891
C 11.08646 2.24255 0.02819
C 11.04678 0.81147 0.00165
C 9.82418 0.16246 -0.02971
C 12.64912 7.1688 -0.03682
C 9.70207 24.1984 -0.00033
C 12.26239 4.31955 0.01965
C 13.7501 2.44906 -0.01957
C 16.10459 2.21747 -0.02213
C 16.01121 0.73891 0.03698
C 14.76287 0.1463 -0.00109
C 17.35913 32.69638 -0.00491
C 18.51888 31.89063 0.03338
C 18.5005 30.50132 -0.0258
C 17.18188 29.82098 -0.0331
C 17.17796 28.45323 -0.00316
C 18.45096 27.716 0.02188
C 15.03835 3.20165 0.00028
C 18.44822 26.31316 -0.01979
C 17.14605 24.13772 -0.01581
C 18.37909 23.52155 0.01452
C 18.23225 10.51494 0.04892
C 18.26908 9.1301 -0.00111
C 16.99847 8.30875 -0.03557
C 16.83678 6.80075 0.03754
C 18.26826 6.22686 0.01739
C 18.30655 4.79733 0.00755
C 17.10856 4.13255 -0.0054
C 17.19009 25.58442 0.02691
C 15.65325 4.49773 -0.00289
C 15.43635 6.0526 -0.00066
C 14.10538 7.01071 0.00213
C 13.59108 0.86024 -0.0108
C 12.31843 0.14345 -0.00368
C 14.82209 32.73384 -0.02696
C 16.0752 32.02596 -0.00114
C 15.99163 30.55889 0.00228
C 14.75479 29.80332 0.00798
C 14.721 28.39318 0.00422
C 15.94466 27.69962 0.0351
C 15.91278 26.29068 -0.03113
C 14.71645 25.58359 0.02098
C 14.69152 24.20986 0.01848
C 15.90709 23.41871 -0.00619
C 15.94175 22.00434 -0.02162
C 14.78051 21.2898 0.00889
C 14.76166 19.8896 -0.00481
C 15.45985 18.65513 0.00979
C 15.49512 17.31811 0.01443
C 14.68436 11.42209 0.03505
C 15.97308 10.61179 -0.02815
C 15.77392 9.15714 -0.04147
C 14.50697 8.44619 -0.05302
C 12.39147 2.96642 0.02058
C 9.73769 25.65758 -0.01062
C 11.01326 26.32425 0.01364
C 11.06073 27.79523 -0.00719
C 2.41218 4.32018 -0.03996
C 2.40626 3.00998 0.01465
C 3.60637 2.23673 -0.00074
C 3.59835 0.80581 -0.00518
C 2.40309 0.0783 0.0086
C 4.86184 32.74079 -0.00643
C 6.08886 32.05876 0.017
C 6.0836 30.74042 -0.03113
C 4.89691 29.881 -0.02566
C 3.64781 5.02686 0.01996
C 4.93397 28.46766 -0.00094
C 6.15067 26.36736 -0.00725
C 4.84419 25.62558 -0.05697
C 4.91799 24.21885 0.01087
C 6.11294 23.47533 -0.01343
C 6.08631 22.03834 0.00988
C 4.87773 21.21 0.0276
C 4.84274 19.78732 0.01305
C 6.08406 19.21344 -0.00077
C 6.19186 17.85686 0.03368
C 6.09793 27.80277 0.02322
C 3.71621 6.45914 -0.00279
C 2.47617 7.10759 0.01226
C 2.35153 8.60399 0.03828
C 3.60361 30.63857 0.00208
C 2.38562 29.90525 0.01707
C 2.31125 28.53316 0.02769
C 3.65259 27.84823 -0.03291
C 3.57612 26.40637 -0.04999
C 2.43539 25.66399 0.04505
C 2.44612 24.1282 0.03284
C 3.69788 23.44212 -0.04307
C 3.72988 21.99728 0.03189
C 2.43722 21.25387 0.00031
C 2.52699 19.9004 -0.003
C 3.69808 19.11244 0.01402
C 3.73511 17.71499 0.02379
C 2.52762 16.96964 0.00907
C 2.44429 15.60116 0.00643
C 3.70308 14.92128 -0.01509
C 3.72777 13.48385 0.03267
C 2.44486 12.85646 0.02374
C 2.40779 11.44896 0.00402
C 3.61217 10.67084 0.0073
C 3.62158 9.20007 0.0174
C 5.06351 17.0715 -0.02929
C 4.90004 15.59238 -0.00966
C 6.15479 14.84839 -0.03337
C 6.16464 13.39061 0.01227
C 7.3664 19.92943 -0.00482
C 8.59618 19.195 -0.01384
C 8.5637 13.54596 0.03693
C 7.41858 12.82131 0.01745
C 7.35661 11.40068 0.00488
C 8.5734 10.70138 -0.01004
C 8.67515 9.25698 -0.02896
C 7.37991 8.62946 -0.00131
C 7.41554 7.09748 -0.01118
C 8.70631 6.46276 -0.014
C 8.51151 5.01064 0.02147
C 7.2935 4.31577 0.00373
C 7.3285 2.91294 -0.00191
C 8.5759 2.2817 0.00438
C 8.54012 0.91322 0.01291
C 7.35608 0.08945 0.00093
C 9.82583 32.81631 0.00057
C 11.09285 32.06697 -0.01634
C 11.02903 30.63735 -0.00334
C 9.75514 29.96426 0.02339
C 9.78982 28.50521 0.01641
C 7.34455 21.39013 0.02888
C 17.27596 2.80848 0.00667
C 8.65916 22.00959 0.00685
C 7.29111 24.16627 0.00393
C 4.90039 12.77904 0.00873
C 4.82863 11.37238 -0.00049
C 6.13425 10.70555 0.00848
C 6.16795 9.27477 -0.01303
C 4.87437 8.57037 -0.01378
C 4.96562 7.14356 0.02635
C 6.17144 6.44528 0.0127
C 6.06494 5.07127 0.01396
C 4.77526 4.35774 0.01849
C 4.8572 2.90881 -0.01142
C 6.11515 2.22823 -0.00562
C 6.03964 0.79655 -0.00494
C 4.80617 0.14561 0.00054
C 7.36595 32.72404 0.03007
C 8.66923 32.08593 -0.00095
C 8.54971 30.62867 0.01572
C 7.2961 29.94358 -0.04848
C 7.33944 28.53383 -0.00892
C 8.55437 27.75806 -0.01362
C 8.52188 26.33016 -0.0008
C 7.27323 25.57934 0.0288
C 8.61614 23.45438 0.00895
C 3.63907 32.0544 -0.00561
C 18.49745 2.08432 0.00143
C 17.30148 0.03576 0.00364
C 30.69924 5.00217 0.07705
C 29.47259 4.26027 0.0103
C 29.53963 2.83849 0.02108
C 30.77342 2.09333 0.00716
C 30.71797 0.70743 0.00307
C 29.51209 0.0181 0.00346
C 31.99684 32.63574 0.01713
C 33.13855 31.96589 -0.01694
C 33.17344 30.63951 0.01428
C 30.60333 6.42131 0.01908
C 31.99607 29.84722 -0.02142
C 33.16048 27.64767 0.00026
C 33.15182 26.26191 0.00682
C 31.98819 25.54641 -0.01779
C 31.96454 24.12493 0.03794
C 33.22675 23.3863 0.01927
C 33.16527 21.93463 0.01574
C 31.97247 21.31282 -0.02383
C 31.91462 19.8407 -0.01429
C 33.15286 19.12805 -0.0136
C 31.94343 28.43302 0.0544
C 29.42654 7.16295 0.01518
C 29.41187 8.5305 -0.00971
C 30.60885 9.27667 -0.03735
C 30.82791 31.94347 0.04266
C 30.73847 30.50847 0.01324
C 29.53242 29.82557 0.0014
C 29.52761 28.41453 0.00924
C 30.73134 27.70477 0.02326
C 30.69429 26.25122 0.00261
C 29.49736 25.45631 0.03265
C 29.49826 24.05297 -0.02049
C 30.72579 23.47433 -0.01854
C 30.80732 22.08152 -0.01415
C 29.60647 21.31784 -0.03039
C 29.51864 19.98489 0.01836
C 30.76749 19.21845 0.03531
C 30.68121 17.78689 -0.00669
C 29.41631 17.19088 0.0101
C 29.45016 15.72414 0.01705
C 30.63208 14.87435 -0.0405
C 30.66549 13.49671 -0.01303
C 29.33083 12.75356 -0.01461
C 29.38291 11.36613 -0.02155
C 30.61058 10.72797 -0.00944
C 33.15279 17.75533 0.00594
C 29.48161 32.6269 0.01177
C 31.90244 17.03013 -0.02474
C 33.17982 14.98272 0.00455
C 34.42752 21.22531 -0.02213
C 34.40239 19.79788 0.01951
C 1.25206 19.08247 -0.01678
C 1.29016 17.78607 0.01223
C 0.00728 17.10682 0.00648
C 34.42585 15.66275 0.02114
C 1.1803 14.9292 -0.02957
C 1.24594 13.56076 0.00343
C 34.33626 12.85699 -0.02656
C 1.1972 22.02184 0.02712
C 34.34851 11.40389 -0.02442
C 1.12434 9.28975 -0.00583
C 34.30357 8.50867 -0.02302
C 34.33097 7.14206 -0.02849
C 1.16831 6.47127 0.02931
C 1.16725 5.04011 0.00628
C 34.36765 4.30967 -0.0345
C 34.41502 2.81412 -0.00931
C 1.18008 2.10723 -0.00939
C 1.11508 0.7461 -0.00468
C 1.13254 10.67847 -0.00027
C 1.24959 23.42043 0.00723
C 34.4045 24.1045 0.03076
C 34.38143 25.48519 -0.05239
C 33.05518 13.56394 -0.00644
C 31.89694 12.8388 -0.01839
C 31.8562 11.42741 0.00137
C 33.06553 10.68876 0.00199
C 33.05929 9.26764 0.04381
C 31.91652 8.50117 0.02806
C 31.84848 7.11329 0.01504
C 33.12154 6.47518 -0.00069
C 33.08469 5.0222 0.04926
C 31.88967 4.29992 -0.03838
C 31.92991 2.87384 0.00349
C 33.21033 2.16196 -0.00323
C 33.18208 0.76221 -0.00841
C 31.92925 0.05327 0.0001
C 0.02543 32.70864 -0.02927
C 1.25004 32.00559 -0.01404
C 1.12696 30.58944 0.01027
C 34.37462 29.90685 0.01831
C 34.39991 28.45558 -0.01037
C 1.07336 27.74606 -0.00439
C 1.12214 26.29575 -0.00598
C 31.88842 15.59393 0.00369
C 27.06413 34.04818 -0.00416
C 28.22762 0.77463 0.01699
C 28.26079 2.1578 0.01799
C 22.21611 28.39356 -0.01185
C 23.42995 27.6013 0.01126
C 23.38655 26.14493 0.01852
C 22.19003 25.51705 -0.00381
C 23.13241 13.43338 0.03046
C 22.05778 12.79289 0.0296
C 21.93025 11.3804 0.03374
C 23.25907 10.59628 -0.02845
C 23.22257 9.15424 -0.03213
C 22.11224 29.84739 -0.01662
C 22.03308 8.45943 0.02239
C 23.28819 6.36898 0.02734
C 23.35801 4.87211 -0.0055
C 22.06355 4.22931 0.01515
C 22.07723 2.86106 -0.00225
C 23.30386 2.13403 0.00071
C 23.36264 0.68885 -0.01107
C 22.14881 34.05021 -0.01586
C 24.64913 32.64599 -0.01971
C 25.87628 31.86855 -0.02118
C 22.06576 7.0742 0.01153
C 23.3433 30.53225 -0.00478
C 23.37835 31.87932 0.01511
C 22.21216 32.65482 0.00199
C 19.67771 32.59277 -0.00831
C 20.88617 31.90895 -0.02957
C 20.89366 30.51015 -0.04422
C 19.71164 29.73279 0.00654
C 19.80918 28.365 -0.00703
C 20.99581 27.6533 -0.04076
C 20.91284 26.22163 -0.00652
C 19.68388 25.48893 0.0058
C 19.55278 24.15391 -0.00865
C 19.52506 11.29834 0.00675
C 20.738 10.6071 -0.00311
C 20.7373 9.1293 0.00742
C 19.4555 8.38919 -0.01594
C 19.56118 6.95277 0.0106
C 20.85288 6.40117 -0.01154
C 20.82836 4.92761 -0.01721
C 19.62813 4.13465 -0.02422
C 19.69588 2.76195 0.01277
C 20.89085 2.07887 0.00096
C 20.92265 0.62894 -0.01527
C 19.72114 34.02426 0.01087
C 25.83011 30.49304 0.00733
C 24.60023 29.85548 -0.00178
C 24.60049 28.4423 0.00768
C 25.93322 27.62761 -0.0276
C 28.34499 26.15145 -0.01654
C 27.14537 25.51381 -0.00037
C 26.98585 23.95198 -0.0032
C 28.34153 23.22242 0.00622
C 28.24391 21.79414 -0.02815
C 27.40393 20.67374 -0.00942
C 28.14392 19.41114 0.00487
C 28.14614 18.04068 0.00826
C 26.98342 15.67103 -0.00294
C 28.19236 15.02711 0.00152
C 28.08811 13.54513 0.01257
C 26.94592 12.8833 0.02316
C 26.90113 11.4112 0.04185
C 28.08507 10.65138 0.00194
C 28.09381 9.2541 -0.00621
C 26.90799 8.51539 0.02611
C 26.9894 7.08786 0.02198
C 28.21922 6.39458 0.01094
C 28.21687 4.92121 0.00235
C 26.92037 4.24538 0.01495
C 26.94872 2.82219 0.01259
C 28.39283 27.64336 -0.00218
C 18.52276 0.69646 -0.017
C 27.08105 28.2982 -0.00802
C 28.2631 30.48099 0.00996
C 25.89187 26.19226 0.03005
C 24.64573 25.50871 -0.04078
C 24.77587 24.18726 0.02117
C 25.84363 23.31215 0.02737
C 25.8448 15.00523 -0.00498
C 25.68081 13.62017 0.00135
C 24.4686 12.80556 0.03102
C 24.51258 11.29029 0.02555
C 25.77006 10.69838 0.01423
C 25.77186 9.24591 -0.00285
C 24.54192 8.56038 -0.009
C 24.52637 7.10986 -0.01199
C 25.75913 6.3955 -0.00229
C 25.77653 4.99745 -0.00938
C 24.55991 4.16166 -0.0264
C 24.53153 2.76973 -0.01154
C 25.73026 2.11743 0.00684
C 25.85207 0.66154 -0.01052
C 24.59993 34.02174 -0.01679
C 27.08302 32.57088 0.00367
C 28.29215 31.8849 0.04306
C 27.05904 29.80108 0.00195
C 2.41492 32.70413 -0.01977
