323
Graphene
C 34.41772 0.01366 0.01295
C 12.2273 15.5925 -0.00289
C 13.5104 14.81205 0.00028
C 13.46361 13.41669 -0.02213
C 12.21052 12.73294 0.03698
C 12.2772 11.33622 -0.00109
C 13.56968 10.72949 -0.00491
C 13.5888 9.32628 0.03338
C 12.17888 16.94414 -0.00066
C 12.38252 8.55274 -0.0258
C 13.52726 6.43888 -0.00316
C 13.4791 5.00457 0.02188
C 12.26186 4.25084 -0.01979
C 12.28428 2.80347 0.02691
C 13.57102 2.1477 -0.01581
C 13.56064 0.72453 0.01452
C 12.32812 0.04578 0.04892
C 12.30954 7.13038 -0.0331
C 14.84171 32.85226 -0.00111
C 13.38044 17.49967 0.00213
C 12.14735 19.682 -0.04147
C 11.09612 5.04963 -0.00114
C 9.79715 4.32659 0.00228
C 9.82178 2.86561 0.00798
C 11.02456 2.12142 0.00422
C 11.10091 0.73041 0.0351
C 9.81513 0.08364 -0.03113
C 12.24574 32.7233 0.02098
C 13.3852 18.92988 -0.05302
C 13.56893 32.10506 0.01848
C 12.23012 30.11902 -0.02162
C 12.27044 28.5921 0.00889
C 13.57103 27.96304 -0.00481
C 14.01548 26.59773 0.00979
C 14.11877 23.03032 0.01443
C 13.4542 21.75347 0.03505
C 12.15081 21.07045 -0.02815
C 13.57366 30.77126 -0.00619
C 15.9862 32.06015 -0.03557
C 16.2259 30.658 0.03754
C 14.91168 30.12941 0.01739
C 16.03984 2.17846 -0.01721
C 16.06635 0.75953 -0.02422
C 14.80164 0.1302 0.01277
C 17.16853 32.63501 0.00096
C 18.35336 31.79832 -0.01527
C 17.6637 30.51823 0.01087
C 18.14141 17.95659 0.00199
C 14.78666 2.87975 -0.01154
C 17.08492 17.07487 0.01511
C 18.62816 14.99608 -0.01662
C 18.54849 13.50835 -0.01185
C 17.47075 12.75671 0.01126
C 17.38768 11.3176 0.01852
C 18.53663 10.65602 -0.00381
C 18.36441 9.27748 0.03046
C 17.21195 8.46741 0.0296
C 17.24579 15.55351 -0.00478
C 14.72493 4.27083 0.0106
C 15.92619 4.93698 -0.01594
C 15.95293 6.3659 0.00742
C 14.55133 28.82409 0.00755
C 14.37263 25.33739 -0.0054
C 14.89697 24.0676 0.00667
C 14.42514 20.88945 0.00143
C 14.74343 19.5861 -0.017
C 15.92853 19.01468 0.00364
C 15.84247 17.61182 -0.00831
C 14.656 16.94666 -0.02957
C 14.71806 15.51293 -0.04422
C 16.03699 14.83025 0.00654
C 16.14123 13.46707 -0.00703
C 14.77791 12.80644 -0.04076
C 14.84969 11.39627 -0.00652
C 16.09286 10.6434 0.0058
C 15.97974 9.23108 -0.00865
C 14.78018 8.54145 0.00675
C 14.75622 7.0961 -0.00311
C 11.07227 6.50089 -0.02696
C 17.20475 7.03685 0.03374
C 9.86468 7.13921 -0.00368
C 11.15273 9.19397 -0.01957
C 3.69884 0.7763 0.00057
C 2.47583 0.08124 -0.01634
C 4.90548 32.66201 -0.00334
C 6.2112 31.96398 0.02339
C 6.3444 19.12264 0.01641
C 6.07696 17.76951 -0.00719
C 4.83265 17.05637 0.01364
C 3.70052 2.19486 0.00093
C 4.92571 15.63251 -0.01062
C 6.06937 13.51968 0.03589
C 4.87263 12.78907 -0.02759
C 4.86633 11.36003 0.0402
C 6.1351 10.65807 0.00572
C 6.13898 9.28794 0.03592
C 4.87072 8.59988 0.00406
C 4.83373 7.12788 0.00943
C 6.05164 14.89072 -0.00033
C 6.09295 6.4073 0.02841
C 2.39829 2.89045 0.01291
C 3.68316 5.0169 -0.00191
C 3.55596 30.54347 0.00393
C 2.47333 30.00075 0.00895
C 2.41755 19.97751 0.00685
C 3.61631 19.3125 0.02888
C 3.61516 17.84773 -0.00482
C 2.31313 17.08715 -0.01384
C 2.4693 15.68567 0.03693
C 2.44186 4.28921 0.00438
C 3.65448 14.86477 0.01745
C 2.37851 12.79612 -0.01004
C 2.40368 11.40125 -0.02896
C 3.60987 10.69544 -0.00131
C 3.67333 9.24673 -0.01118
C 2.38405 8.5688 -0.014
C 2.38457 7.10351 0.02147
C 3.63229 6.41189 0.00373
C 3.6029 13.53417 0.00488
C 6.10451 4.97723 -0.01111
C 4.92383 4.28983 -0.01275
C 4.93666 2.78403 0.00985
C 8.5861 2.1482 0.01241
C 8.60904 0.77261 -0.01454
C 7.43802 34.05 0.01945
C 9.85895 32.7851 0.01416
C 11.05903 32.14396 0.03542
C 10.96305 30.78688 0.02299
C 9.4638 19.66999 0.00244
C 7.41235 2.79249 0.0076
C 10.78319 19.09996 -0.01717
C 9.65423 17.02601 -0.01952
C 9.7441 15.56445 -0.02813
C 11.04094 14.94328 0.00374
C 11.03755 13.46785 0.00052
C 9.83649 12.75919 -0.03682
C 9.79604 11.33941 0.01965
C 11.09441 10.64651 0.02058
C 10.91833 17.73709 0.05265
C 7.35979 4.26099 0.02162
C 8.56685 4.94899 -0.0014
C 8.65114 6.40597 0.00415
C 6.18089 2.13918 -0.02245
C 6.18407 0.67448 -0.00428
C 4.94413 0.02085 0.03101
C 7.4373 32.5741 -0.01536
C 8.70756 31.99175 -0.02689
C 8.22677 19.05848 -0.01046
C 8.44094 17.78769 -0.00891
C 7.25365 16.91945 0.02819
C 7.34986 15.53524 0.00165
C 8.61082 14.84844 -0.02971
C 8.55022 13.41125 0.02894
C 7.34662 12.74839 -0.01789
C 7.41236 11.33593 0.00444
C 8.59193 10.61727 -0.00925
C 8.69127 9.19288 0.01877
C 7.3976 8.57137 0.01363
C 7.36444 7.15166 -0.02162
C 9.91331 8.5197 -0.0108
C 3.69988 31.92779 0.0288
C 18.48878 6.42436 -0.02845
C 17.21377 4.30948 0.02239
C 31.87349 29.77513 0.00682
C 32.02417 28.42145 -0.01779
C 33.27762 27.70361 0.03794
C 33.36014 26.30839 0.01927
C 32.00785 25.60714 0.01574
C 31.94101 24.18147 -0.02383
C 33.182 23.4103 -0.01429
C 33.04979 30.4571 0.00026
C 33.17592 22.03629 -0.0136
C 31.84444 19.86868 -0.02474
C 33.11651 19.26726 0.00369
C 33.11783 17.8866 0.00455
C 31.94204 17.05771 -0.00644
C 31.89837 15.63703 -0.01839
C 33.12403 14.9153 0.00137
C 33.18199 13.4944 0.00199
C 31.85994 21.29471 0.00594
C 31.94069 12.80393 0.04381
C 33.0451 31.91198 0.0544
C 29.45609 33.9554 0.01428
C 29.3855 17.01681 -0.01303
C 29.34206 15.56138 -0.01461
C 30.62942 14.99211 -0.02155
C 30.74684 13.49862 -0.00944
C 29.56317 12.75889 -0.03735
C 29.47268 11.32281 -0.00971
C 30.7338 10.61461 0.01518
C 31.9054 32.61902 -0.02142
C 30.71693 9.2044 0.01908
C 29.39906 7.02947 0.0103
C 30.66994 6.31433 0.02108
C 30.67984 4.90614 0.00716
C 29.40602 4.14237 0.00307
C 29.39013 2.78162 0.00346
C 30.64442 2.0702 0.01713
C 30.66952 0.60655 -0.01694
C 29.44839 8.4241 0.07705
C 31.89684 11.34363 0.02806
C 33.12242 10.66073 0.01504
C 33.13656 9.21471 -0.00069
C 34.38839 17.18368 0.00648
C 34.4247 15.68315 0.02114
C 1.18857 14.95981 -0.02957
C 1.16968 13.57168 0.00343
C 34.34582 12.81732 -0.02656
C 34.33616 11.36216 -0.02442
C 1.13142 10.66035 -0.00027
C 1.1148 17.92601 0.01223
C 1.20074 9.25742 -0.00583
C 34.38471 7.15719 -0.02849
C 1.18359 6.42532 0.02931
C 1.13834 4.99545 0.00628
C 34.39026 4.25277 -0.0345
C 34.34927 2.80353 -0.00931
C 1.16496 2.09148 -0.00939
C 1.1803 0.72192 -0.00468
C 34.33174 8.58454 -0.02302
C 1.23126 19.29382 -0.01678
C 34.37954 19.98854 0.01951
C 0.06674 21.42788 -0.02213
C 31.92918 8.46056 0.04926
C 31.93026 7.0535 -0.03838
C 33.19919 6.35981 0.00349
C 33.15774 4.91206 -0.00323
C 31.87418 4.27021 -0.00841
C 31.88527 2.80984 0.0001
C 33.13245 2.08069 -0.02927
C 33.15429 0.75457 -0.01404
C 31.95096 0.0405 0.01027
C 34.38502 32.65735 0.01831
C 1.24395 31.99795 -0.01037
C 1.16541 30.52494 -0.00439
C 34.33537 29.86819 -0.00598
C 34.34718 28.50377 -0.05239
C 34.41442 25.47417 0.03076
C 0.01218 24.1283 0.00723
C 1.25841 22.06769 0.02712
C 30.58421 17.71375 -0.0405
C 18.50551 4.96019 -0.03213
C 30.60879 19.2351 0.01705
C 30.83079 22.22788 -0.00669
C 23.37723 9.37122 0.03102
C 22.09135 8.92864 0.02555
C 22.06976 7.33463 0.01423
C 23.20759 6.46699 -0.00285
C 23.22034 5.06771 -0.009
C 22.05934 4.2422 -0.01199
C 22.03501 2.86843 -0.00229
C 22.00166 32.59966 0.00135
C 23.31504 2.17618 -0.00938
C 22.01419 34.05484 -0.01154
C 24.54026 32.69076 0.00684
C 25.71453 31.94472 -0.01052
C 25.10643 17.10601 -0.01679
C 24.75938 15.85599 0.00367
C 25.52389 14.66052 0.04306
C 25.76099 13.33843 0.00996
C 23.17765 0.73539 -0.0264
C 25.71119 10.59562 0.00195
C 19.6012 33.81066 -0.00498
C 20.87971 2.08192 0.02117
C 17.2817 2.89054 0.01153
C 18.45833 2.09302 0.02734
C 18.42876 0.61496 -0.0055
C 17.2376 34.04112 0.01515
C 19.5953 32.33226 -0.00225
C 20.89862 31.92956 0.00071
C 19.25168 17.34897 -0.01107
C 20.77192 0.57429 0.02737
C 19.5579 16.00106 -0.01586
C 20.63316 9.67557 -0.02118
C 19.55771 8.62785 0.00733
C 19.66857 7.23704 -0.00178
C 20.90116 6.57809 0.00768
C 20.90504 5.11728 -0.0276
C 19.74177 4.34256 0.03005
C 19.70526 2.842 -0.04078
C 20.01933 10.77839 -0.01971
C 25.75464 9.185 -0.00802
C 24.58464 8.47971 -0.00218
C 24.5269 7.07501 -0.01654
C 26.94428 7.0513 0.01699
C 28.25535 6.33626 -0.00416
C 28.22115 4.90292 0.01177
C 26.98536 4.17386 0.04266
C 27.02764 2.80989 0.01324
C 28.22619 2.04027 0.0014
C 28.14105 0.64568 0.00924
C 26.97841 8.45964 0.01799
C 26.89647 34.03976 0.02326
C 30.65882 31.89365 0.03265
C 30.61302 30.56633 -0.02049
C 29.31722 29.78727 -0.01854
C 29.52761 28.37394 -0.01415
C 30.67178 27.66524 -0.03039
C 30.78363 26.31398 0.01836
C 30.74552 23.57979 0.03531
C 29.49019 32.59573 0.00261
C 28.25806 9.14068 0.01259
C 28.22115 10.62302 0.01495
C 26.96755 11.30588 0.00235
C 25.7037 6.34908 -0.00037
C 25.69454 4.90346 -0.0032
C 24.54486 4.19178 0.00622
C 24.5579 2.81639 -0.02815
C 25.77177 2.11298 -0.00942
C 25.67237 0.67624 0.00487
C 24.38439 0.03751 0.00826
C 26.90084 32.62457 -0.00294
C 28.18192 31.89724 0.00152
C 28.08829 30.48026 0.01257
C 28.24328 19.17465 0.02316
C 28.08202 17.79981 0.04185
C 26.67706 16.97883 0.00194
C 26.87476 15.57179 -0.00621
C 28.1097 14.82863 0.02611
C 28.27708 13.41906 0.02198
C 27.00356 12.7129 0.01094
C 29.36999 19.84606 0.0101
C 2.49578 32.7258 -0.0008
