326
Graphene
C 0.02502 34.0422 0.01295
C 17.13705 28.40222 0.00213
C 18.42429 27.68916 -0.00066
C 18.52678 26.28079 -0.00289
C 17.20248 25.665 0.00028
C 17.16615 24.18567 -0.02213
C 18.39202 23.57172 0.03698
C 18.40709 10.84516 -0.00109
C 17.2345 29.74508 -0.05302
C 18.3121 9.28177 -0.00491
C 17.22799 7.04569 -0.0258
C 18.48555 6.29843 -0.0331
C 18.37941 4.88555 -0.00316
C 17.18865 4.13565 0.02188
C 17.18084 2.83939 -0.01979
C 18.4897 2.06936 0.02691
C 18.44532 0.7187 -0.01581
C 17.3339 8.40038 0.03338
C 17.21955 34.07364 0.01452
C 18.40636 30.5161 -0.04147
C 17.12569 32.72685 0.03505
C 14.70932 29.80668 -0.00368
C 14.70139 28.44942 -0.02696
C 15.94906 27.70541 -0.00114
C 15.95076 26.30586 0.00228
C 14.64547 25.66161 0.00798
C 14.70047 24.22691 0.00422
C 15.91277 23.50861 0.0351
C 18.3773 31.98586 -0.02815
C 15.96558 22.13505 -0.03113
C 16.07424 6.35242 0.01848
C 15.87841 4.91647 -0.00619
C 14.73669 4.0609 -0.02162
C 14.82986 2.71782 0.00889
C 16.09455 2.03437 -0.00481
C 16.01783 0.67718 0.00979
C 14.74027 34.03932 0.01443
C 14.77747 21.58153 0.02098
C 19.61267 32.62005 0.04892
C 20.87979 31.93132 -0.00111
C 20.89298 30.55319 -0.03557
C 23.33645 31.97197 0.0106
C 23.37819 30.48734 -0.01154
C 22.09222 29.88642 -0.01721
C 22.13375 28.3674 -0.02422
C 23.3883 27.57413 0.01277
C 23.36174 26.20115 0.00096
C 22.1485 25.62908 -0.01527
C 22.09683 32.63565 -0.01594
C 22.14579 24.20792 0.01087
C 23.26802 21.97091 0.01511
C 23.21679 14.85295 -0.00478
C 22.98878 13.53368 -0.01662
C 21.69073 12.70136 -0.01185
C 21.97015 11.37905 0.01126
C 23.23039 10.65841 0.01852
C 23.25305 9.23612 -0.00381
C 23.34925 23.37032 0.00199
C 19.67347 34.0491 0.00742
C 20.87429 0.7043 -0.00311
C 20.92014 2.09504 0.00675
C 19.71811 29.8205 0.03754
C 19.58683 28.42547 0.01739
C 20.861 27.68088 0.00755
C 20.82817 26.28076 -0.0054
C 19.69435 25.50768 0.00667
C 19.65816 24.00157 0.00143
C 21.00173 23.47511 -0.017
C 19.97989 12.89739 0.00364
C 19.6502 11.47147 -0.00831
C 20.84828 10.60671 -0.02957
C 20.77976 9.23646 -0.04422
C 19.59542 8.50491 0.00654
C 19.65347 7.15365 -0.00703
C 20.88643 6.40349 -0.04076
C 20.83799 4.92593 -0.00652
C 19.6441 4.18323 0.0058
C 19.71739 2.80978 -0.00865
C 15.93756 30.59081 -0.0108
C 15.91453 32.03076 -0.01957
C 14.71894 32.68395 0.02058
C 12.28295 0.09183 0.01965
C 6.08606 23.58148 0.01291
C 6.09538 22.16807 0.00093
C 4.83609 21.3821 0.00057
C 4.89491 19.98781 -0.01634
C 4.69077 2.84622 -0.00334
C 6.07436 2.24166 0.02339
C 6.13619 0.84043 0.01641
C 4.7866 24.27752 0.00438
C 4.99182 0.03314 -0.00719
C 8.63592 31.99741 -0.01062
C 8.60085 30.55884 -0.00033
C 7.31983 29.85048 0.03589
C 7.31962 28.45685 -0.02759
C 8.5877 27.67075 0.0402
C 8.45849 26.30228 0.00572
C 7.26435 25.50718 0.03592
C 7.44747 32.70297 0.01364
C 4.69127 25.7419 -0.00191
C 6.029 26.37956 0.00373
C 6.1062 27.79983 0.02147
C 2.18784 28.82436 -0.01362
C 3.56569 26.34535 -0.0008
C 2.34276 25.71219 0.0288
C 2.39808 24.2097 0.00393
C 3.62077 23.55583 0.00895
C 3.62813 22.08189 0.00685
C 2.41172 21.37961 0.02888
C 2.42721 19.85382 -0.00482
C 3.62985 19.31863 -0.01384
C 2.63447 4.09714 0.03693
C 2.48734 2.77571 0.01745
C 3.6884 1.98329 0.00488
C 3.76305 0.53588 -0.01004
C 2.49168 34.00622 -0.02896
C 4.98014 32.67434 -0.00131
C 6.2191 31.91548 -0.01118
C 6.12928 30.51095 -0.014
C 7.30274 24.16863 0.00406
C 22.08906 8.57444 0.03046
C 8.52053 23.44495 0.00943
C 7.26175 21.36113 -0.01111
C 13.46634 31.94366 0.02162
C 13.48428 30.46151 0.0076
C 12.20295 29.81252 0.01241
C 12.20858 28.41482 -0.01454
C 13.39724 27.70018 0.01945
C 13.51351 26.34837 0.01416
C 12.30136 25.53195 0.03542
C 12.28682 32.70829 -0.0014
C 12.24005 24.22237 0.02299
C 13.52675 22.0609 -0.01717
C 12.38865 21.22537 0.05265
C 12.7771 19.97883 -0.01952
C 13.79712 19.08595 -0.02813
C 12.43225 2.94797 0.00374
C 13.54808 2.08861 0.00052
C 13.5385 0.71202 -0.03682
C 13.49191 23.52337 0.00244
C 9.80506 0.07617 0.00415
C 11.02158 0.69987 -0.02162
C 11.13452 2.2266 0.01363
C 7.34503 2.87162 -0.01275
C 8.57484 2.17227 0.00985
C 8.55546 0.75045 -0.02245
C 7.37345 0.08727 -0.00428
C 9.82916 32.76291 0.03101
C 11.06917 32.12675 -0.01536
C 11.06997 30.5508 -0.02689
C 9.8178 29.77244 -0.01046
C 9.85718 28.38807 -0.00891
C 11.00276 27.61559 0.02819
C 11.07969 26.16643 0.00165
C 9.77663 25.45296 -0.02971
C 9.75908 24.09879 0.02894
C 11.10462 23.47796 -0.01789
C 11.109 22.01169 0.00444
C 9.86666 21.34303 -0.00925
C 9.8475 2.7966 0.01877
C 8.5781 21.9109 0.02841
C 22.11166 7.10961 0.0296
C 23.3854 6.42431 0.03374
C 23.41131 4.99716 -0.02845
C 33.09171 30.5916 0.00682
C 31.82217 29.84604 -0.01779
C 31.82244 28.4432 0.03794
C 33.04412 27.72896 0.01927
C 33.18155 26.29181 0.01574
C 31.96779 25.58271 -0.02383
C 31.94507 24.14695 -0.01429
C 33.19303 31.92822 0.00026
C 33.19113 23.54693 -0.0136
C 31.97048 21.27994 -0.02474
C 32.00313 19.92701 0.00369
C 33.15977 19.14389 0.00455
C 33.19408 17.73895 -0.00644
C 31.98768 17.04811 -0.01839
C 31.85656 15.73343 0.00137
C 33.04192 14.9581 0.00199
C 33.16715 22.1304 0.00594
C 31.91709 32.65995 0.0544
C 29.46957 0.02933 -0.02142
C 30.6678 0.73512 0.01428
C 30.8022 19.14386 -0.0405
C 30.75448 17.78457 -0.01303
C 29.48354 17.00179 -0.01461
C 29.46207 15.61688 -0.02155
C 30.65503 14.95551 -0.00944
C 30.62502 13.46701 -0.03735
C 29.39327 12.79375 -0.00971
C 29.41314 11.30511 0.01518
C 30.70526 10.61259 0.01908
C 30.63577 9.18731 0.07705
C 29.51063 8.49107 0.0103
C 29.52518 7.06483 0.02108
C 30.82792 6.41168 0.00716
C 30.83544 5.01806 0.00307
C 29.57968 4.23334 0.00346
C 29.5039 2.85259 0.01713
C 30.69854 2.11322 -0.01694
C 33.05357 13.54146 0.04381
C 29.59808 19.89447 0.01705
C 31.82618 12.77532 0.02806
C 33.10583 10.67548 -0.00069
C 34.34045 21.40805 0.00648
C 34.29873 19.96451 0.02114
C 1.12985 19.21339 -0.02957
C 1.25191 17.80003 0.00343
C 0.17052 17.01927 -0.02656
C 34.26887 15.59034 -0.02442
C 34.17493 12.83656 -0.00027
C 1.19324 22.12103 0.01223
C 34.11294 11.4455 -0.00583
C 0.11803 7.15516 -0.02849
C 1.27917 6.38003 0.02931
C 1.4237 4.99758 0.00628
C 0.11261 4.22167 -0.0345
C 0.05802 2.76854 -0.00931
C 1.21933 2.04432 -0.00939
C 1.25521 0.62369 -0.00468
C 0.07132 8.63602 -0.02302
C 1.16486 23.57255 -0.01678
C 34.41668 24.28462 0.01951
C 0.00263 25.6993 -0.02213
C 33.21911 9.24702 0.04926
C 31.92293 8.53306 -0.03838
C 32.04757 7.05361 0.00349
C 33.28054 6.41648 -0.00323
C 33.37969 4.99264 -0.00841
C 32.08077 4.28741 0.0001
C 31.98369 2.88046 -0.02927
C 33.17632 2.10273 -0.01404
C 33.19445 0.70369 0.01027
C 31.95852 34.06232 0.01831
C 0.0089 32.5544 -0.01037
C 1.25566 31.76926 -0.00439
C 1.27982 30.26978 -0.00598
C 34.33153 29.82034 -0.05239
C 34.27732 28.49251 0.03076
C 1.15392 27.84755 0.00723
C 1.18554 26.37525 0.02712
C 31.8972 11.33007 0.01504
C 3.78623 31.9706 -0.00892
C 29.46819 21.28182 0.0101
C 30.69967 23.43399 0.03531
C 24.40037 15.67735 0.00135
C 25.66614 14.95314 0.03102
C 25.62114 13.5441 0.02555
C 24.28214 12.78347 0.01423
C 24.43839 11.37974 -0.00285
C 25.70477 10.68753 -0.009
C 25.71545 9.26868 -0.01199
C 24.52161 17.10304 -0.00498
C 24.52988 8.52982 -0.00229
C 25.8267 6.41291 -0.0264
C 25.84664 5.02725 -0.01154
C 24.6613 4.23184 0.00684
C 24.58147 2.88134 -0.01052
C 25.79649 2.11383 -0.01679
C 25.8026 0.70306 0.00367
C 24.55322 34.06064 0.04306
C 24.54919 7.09945 -0.00938
C 25.84582 17.74971 0.02737
C 25.88016 19.14906 0.02117
C 24.61662 19.63421 -0.04078
C 22.14742 4.27134 -0.03213
C 22.14331 2.76901 0.02239
C 23.3462 2.09783 0.01153
C 23.32148 0.71876 0.02734
C 22.08477 34.04555 -0.0055
C 24.60181 32.60937 0.01515
C 25.80546 31.91398 -0.00225
C 25.78991 30.46578 0.00071
C 24.54492 29.75153 -0.01107
C 24.49806 28.33953 -0.01586
C 25.74326 27.63687 -0.01971
C 25.78602 26.18412 -0.02118
C 24.58954 25.45704 0.00733
C 24.59111 24.04731 -0.00178
C 25.77384 23.29085 0.00768
C 25.69433 21.80482 -0.0276
C 24.39029 21.12004 0.03005
C 26.90965 32.64634 0.00996
C 30.69403 21.99915 -0.00669
C 28.20699 32.00963 0.00195
C 27.04101 29.84003 -0.00218
C 28.31358 6.34767 0.01799
C 28.34345 4.97076 0.01699
C 27.13295 4.20591 -0.00416
C 27.03379 2.8622 0.01177
C 28.23637 2.12528 0.04266
C 28.18276 0.72921 0.01324
C 27.03093 0.01778 0.0014
C 27.05777 7.11732 0.01259
C 29.44749 32.70276 0.00924
C 30.59765 30.55528 0.00261
C 29.37538 29.80551 0.03265
C 29.36636 28.42818 -0.02049
C 30.65668 27.71443 -0.01854
C 30.77797 26.31272 -0.01415
C 29.52872 25.5595 -0.03039
C 29.44507 24.18565 0.01836
C 30.6922 31.98969 0.02326
C 27.03369 8.50994 0.01495
C 28.2327 9.14392 0.00235
C 28.25722 10.58866 0.01094
C 27.04267 28.396 -0.01654
C 28.20796 27.62543 -0.00037
C 28.24724 26.18446 -0.0032
C 27.01686 25.46757 0.00622
C 26.98601 24.02015 -0.02815
C 28.22205 23.38391 -0.00942
C 28.24248 21.97573 0.00487
C 27.01602 21.27259 0.00826
C 27.12254 19.88109 -0.00294
C 28.30836 19.1752 0.00152
C 28.24752 17.77138 0.01257
C 27.07524 16.95956 0.02316
C 26.99118 15.60898 0.04185
C 28.2037 14.91558 0.00194
C 28.08459 13.49247 -0.00621
C 26.88597 12.75494 0.02611
C 26.96603 11.34001 0.02198
C 28.22458 30.58438 -0.00802
C 2.53754 32.5832 -0.04848
