335
Graphene
C 34.42998 0.01379 0.01295
C 10.9898 9.21057 0.00979
C 9.76493 8.58685 0.01443
C 9.79527 7.16182 0.03505
C 10.95465 6.47049 -0.02815
C 10.98316 5.03527 -0.04147
C 9.77369 4.28876 -0.05302
C 9.86134 2.84646 0.00213
C 11.05744 2.08355 -0.00066
C 11.07462 0.70548 -0.00289
C 9.85678 34.03981 0.00028
C 12.40762 32.61992 -0.02213
C 13.63432 31.95728 0.03698
C 13.59925 30.49986 -0.00109
C 12.33934 29.89108 -0.00491
C 12.36264 28.37016 0.03338
C 13.58796 27.80996 -0.0258
C 12.0532 12.51617 -0.0331
C 11.07047 10.64557 -0.00481
C 12.29558 11.23035 -0.00316
C 9.83457 11.39952 0.00889
C 11.02143 13.28974 -0.00619
C 7.29651 8.64624 0.00374
C 7.36206 7.19533 0.00052
C 8.67032 6.47922 -0.03682
C 8.63132 5.06044 0.01965
C 7.41149 4.38569 0.02058
C 7.40007 2.96056 -0.01957
C 8.64179 2.18204 -0.0108
C 8.59141 0.73539 -0.00368
C 7.37921 0.01449 -0.02696
C 9.83469 32.61855 -0.00114
C 11.12019 31.94888 0.00228
C 11.14166 30.53577 0.00798
C 9.87473 29.82307 0.00422
C 9.85824 28.43131 0.0351
C 11.14129 27.7246 -0.03113
C 11.06936 26.32487 0.02098
C 9.89104 25.69741 0.01848
C 9.78564 12.83995 -0.02162
C 8.51937 9.32637 -0.02813
C 13.53508 10.55743 0.02188
C 12.31955 8.5412 0.02691
C 15.99906 0.69592 -0.00865
C 14.74001 0.03978 0.00675
C 17.25971 32.72025 -0.00311
C 18.46007 31.9221 0.00742
C 18.46952 30.42681 -0.01594
C 17.2249 29.77244 0.0106
C 17.20651 28.45005 -0.01154
C 18.41963 27.83521 -0.01721
C 18.30985 2.14824 -0.02422
C 18.44967 0.79994 0.01277
C 17.25376 0.0124 0.00096
C 19.63915 32.72762 -0.01527
C 20.8867 31.91991 0.01087
C 20.84083 30.51318 0.00199
C 19.65166 29.8058 0.01511
C 19.73572 28.1355 -0.00478
C 20.96672 27.48365 -0.01662
C 16.12962 2.17447 0.0058
C 13.64107 9.06522 -0.01979
C 14.91674 2.92484 -0.00652
C 14.75275 6.95136 -0.00703
C 12.28468 7.08212 -0.01581
C 13.53385 6.37987 0.01452
C 13.45093 4.97271 0.04892
C 12.23097 4.28018 -0.00111
C 12.26267 2.77069 -0.03557
C 13.53559 2.18085 0.03754
C 13.55897 0.77835 0.01739
C 12.34402 0.00541 0.00755
C 14.82042 32.69494 -0.0054
C 16.03044 32.01105 0.00667
C 16.03722 30.53227 0.00143
C 14.83066 29.79234 -0.017
C 14.74287 28.47085 0.00364
C 14.70012 11.36565 -0.00831
C 15.79566 10.46841 -0.02957
C 16.03674 9.12253 -0.04422
C 14.93457 8.31856 0.00654
C 14.6274 4.21739 -0.04076
C 20.85428 2.16363 -0.01185
C 8.5125 10.73223 -0.01952
C 7.38059 12.89609 -0.01717
C 2.41952 8.48028 -0.01004
C 2.44572 7.08014 -0.02896
C 3.65634 6.38305 -0.00131
C 3.65937 4.93649 -0.01118
C 2.41971 4.20371 -0.014
C 2.44073 2.76057 0.02147
C 3.6826 2.1036 0.00373
C 3.74793 0.72373 -0.00191
C 2.49722 0.02483 0.00438
C 4.91746 32.70521 0.01291
C 6.19341 32.02203 0.00093
C 6.06443 30.5761 0.00057
C 4.84623 29.86499 -0.01634
C 4.95372 28.39522 -0.00334
C 6.12693 27.61663 0.02339
C 6.15985 26.2785 0.01641
C 4.94047 25.5387 -0.00719
C 3.65105 9.20964 0.00488
C 4.97325 24.1154 0.01364
C 3.60992 10.62782 0.01745
C 2.47055 12.79276 -0.01384
C 3.70282 30.59775 -0.01142
C 2.42977 29.95091 -0.00562
C 2.43218 28.52139 -0.00494
C 3.6641 27.79728 0.00054
C 3.66778 26.28479 0.03007
C 2.40395 25.58542 -0.00095
C 2.46338 24.18683 0.01572
C 3.73293 23.41795 -0.04848
C 3.77152 21.96774 -0.00892
C 2.4778 21.25622 -0.01362
C 2.43052 19.80094 -0.0008
C 3.70147 19.05379 0.0288
C 3.63582 17.65409 0.00393
C 2.35706 17.00672 0.00895
C 2.40569 15.60863 0.00685
C 3.66188 14.89621 0.02888
C 3.6951 13.52755 -0.00482
C 2.43261 11.39342 0.03693
C 7.29254 11.47114 0.05265
C 6.17933 23.36167 -0.01062
C 4.96622 21.29111 0.03589
C 8.59622 32.00352 -0.01789
C 8.6653 30.50595 0.00444
C 7.33996 29.85901 -0.00925
C 7.36992 28.35403 0.01877
C 8.65015 27.70157 0.01363
C 8.67617 26.22609 -0.02162
C 7.43588 25.57951 0.00415
C 7.41692 24.12048 -0.0014
C 8.73913 23.47884 0.02162
C 8.40229 22.06348 0.0076
C 7.583 21.04483 0.01241
C 7.40132 19.64232 -0.01454
C 8.4317 17.99395 0.01945
C 7.34118 17.08657 0.01416
C 7.35931 15.69057 0.03542
C 8.58991 14.93292 0.02299
C 8.60303 13.54207 0.00244
C 7.41279 32.69478 0.02894
C 6.17543 21.86704 -0.00033
C 4.96991 0.05076 -0.02971
C 6.17236 2.2235 0.02819
C 4.89806 19.87167 -0.02759
C 6.08591 19.11201 0.0402
C 6.13793 17.65183 0.00572
C 4.87176 17.00289 0.03592
C 4.92335 15.58712 0.00406
C 6.1686 14.89722 0.00943
C 6.13287 13.5544 0.02841
C 4.88469 12.83039 -0.01111
C 4.85951 11.42085 -0.01275
C 6.09564 10.67103 0.00985
C 6.03413 9.29467 -0.02245
C 4.8768 8.53029 -0.00428
C 4.84336 7.12004 0.03101
C 6.10292 6.42954 -0.01536
C 6.13134 5.01744 -0.02689
C 4.90739 4.30469 -0.01046
C 4.88365 2.86517 -0.00891
C 6.18867 0.8143 0.00165
C 3.75348 32.00665 0.01849
C 20.82536 0.77125 0.01126
C 22.14012 32.70244 -0.00381
C 31.92372 28.373 0.0544
C 33.1382 27.72605 0.00026
C 33.1857 26.28335 0.00682
C 31.97214 25.52766 -0.01779
C 31.92172 24.16417 0.03794
C 33.21132 23.47251 0.01927
C 33.25128 21.98727 0.01574
C 32.01336 21.27558 -0.02383
C 31.98668 19.85606 -0.01429
C 33.23528 19.17783 -0.0136
C 33.14346 17.76755 0.00594
C 31.86377 17.08643 -0.02474
C 31.87792 15.64992 0.00369
C 33.17857 14.95842 0.00455
C 33.2236 13.5292 -0.00644
C 31.90821 12.80611 -0.01839
C 31.9595 11.41808 0.00137
C 31.95631 29.79183 -0.02142
C 33.21774 10.66989 0.00199
C 33.1932 30.55117 0.01428
C 31.95347 32.68007 0.01713
C 29.47543 17.08066 0.0101
C 29.46197 15.6486 0.01705
C 30.69483 14.95078 -0.0405
C 30.7117 13.48394 -0.01303
C 29.50401 12.8029 -0.01461
C 29.45465 11.38104 -0.02155
C 30.69595 10.70743 -0.00944
C 30.70574 9.30834 -0.03735
C 29.46468 8.5169 -0.00971
C 29.49145 7.06875 0.01518
C 30.78211 6.40142 0.01908
C 30.74491 5.00182 0.07705
C 29.45849 4.28366 0.0103
C 29.50342 2.88357 0.02108
C 30.7171 2.11111 0.00716
C 30.68891 0.71254 0.00307
C 29.48437 0.0061 0.00346
C 33.18506 31.99882 -0.01694
C 30.7136 17.786 -0.00669
C 33.16915 9.23671 0.04381
C 31.99795 7.09913 0.01504
C 1.1746 17.78735 0.01223
C 34.4183 17.09528 0.00648
C 34.37525 15.67939 0.02114
C 1.15317 14.90668 -0.02957
C 1.22661 13.54197 0.00343
C 34.40647 12.80146 -0.02656
C 0.00874 11.38382 -0.02442
C 1.19596 10.65783 -0.00027
C 1.21509 9.19728 -0.00583
C 34.37732 8.50242 -0.02302
C 0.01007 7.09045 -0.02849
C 1.22594 6.35545 0.02931
C 1.20843 4.93533 0.00628
C 34.38755 4.23734 -0.0345
C 34.41881 2.83863 -0.00931
C 1.21722 2.10366 -0.00939
C 1.19016 0.70422 -0.00468
C 1.20745 19.16332 -0.01678
C 31.95668 8.49734 0.02806
C 34.38616 19.88396 0.01951
C 1.25553 22.01456 0.02712
C 33.201 6.37359 -0.00069
C 33.11931 4.96504 0.04926
C 31.91175 4.25996 -0.03838
C 31.92487 2.8915 0.00349
C 33.14676 2.1746 -0.00323
C 33.18768 0.71997 -0.00841
C 31.96613 0.01419 0.0001
C 34.40801 32.68542 -0.02927
C 1.23497 31.9924 -0.01404
C 1.22546 30.56779 0.01027
C 0.00641 29.83655 0.01831
C 34.43084 28.44999 -0.01037
C 1.23107 27.71646 -0.00439
C 1.17402 26.34388 -0.00598
C 0.00562 25.63431 -0.05239
C 0.01499 24.13377 0.03076
C 1.27735 23.41241 0.00723
C 0.01558 21.27457 -0.02213
C 19.59964 0.05204 0.01852
C 30.7037 19.1889 0.03531
C 29.47298 21.28584 -0.03039
C 25.70198 23.37257 -0.04078
C 25.69094 22.02974 0.02117
C 24.53994 21.20702 0.02737
C 24.67392 19.88797 -0.00498
C 25.7943 19.12874 0.00135
C 25.77561 17.74348 0.03102
C 24.50641 17.09122 0.02555
C 24.94477 15.84632 0.01423
C 25.88821 14.82156 -0.00285
C 26.00653 6.27781 -0.009
C 25.68534 4.95037 -0.01199
C 24.40286 4.19787 -0.00229
C 24.53861 2.78015 -0.00938
C 25.70517 2.12887 -0.0264
C 25.79576 0.74587 -0.01154
C 24.50256 34.07414 0.00684
C 26.94717 32.63942 -0.01052
C 24.69327 24.26397 0.03005
C 28.24857 31.90241 -0.01679
C 24.59981 25.62485 -0.0276
C 25.86853 27.61594 -0.00178
C 23.32471 31.96604 0.03046
C 23.36211 30.57269 0.0296
C 22.09834 29.87215 0.03374
C 22.13439 28.45056 -0.02845
C 23.32964 27.71431 -0.03213
C 23.3214 26.30764 0.02239
C 22.03912 25.61111 0.01153
C 23.09629 4.75915 0.02734
C 22.08316 2.90952 -0.0055
C 23.24745 2.14561 0.01515
C 23.25631 0.77571 -0.00225
C 22.05124 0.13951 0.00071
C 24.53741 32.66977 -0.01107
C 25.74016 31.95181 -0.01586
C 25.80653 30.55633 -0.01971
C 24.56993 29.83947 -0.02118
C 24.57465 28.42163 0.00733
C 25.84199 26.24307 0.00768
C 29.50287 19.85869 0.01836
C 28.18974 30.51004 0.00367
C 27.05427 28.33197 0.00996
C 28.22103 4.99494 0.00235
C 26.99081 4.22994 0.01495
C 27.00401 2.8367 0.01259
C 28.26127 2.10462 0.01799
C 28.27451 0.67213 0.01699
C 27.04243 0.02423 -0.00416
C 29.44969 32.67447 0.01177
C 30.77093 31.97928 0.04266
C 30.71175 30.5792 0.01324
C 29.44438 29.83757 0.0014
C 29.44819 28.36521 0.00924
C 30.74215 27.68658 0.02326
C 30.74107 26.27656 0.00261
C 29.53332 25.51182 0.03265
C 29.55186 24.03237 -0.02049
C 30.73808 23.40157 -0.01854
C 30.69313 21.98646 -0.01415
C 28.23208 6.427 0.01094
C 27.0429 29.77822 0.04306
C 26.94611 7.22429 0.02198
C 28.24009 9.22385 -0.00621
C 28.28994 27.5894 0.00195
C 28.2746 26.18393 -0.00802
C 27.04801 25.50955 -0.00218
C 27.09271 24.08401 -0.01654
C 28.32657 23.3322 -0.00037
C 28.22509 21.9626 -0.0032
C 26.89703 21.31219 0.00622
C 26.92893 19.85268 -0.02815
C 28.21441 19.21463 -0.00942
C 28.22461 17.76439 0.00487
C 26.96752 17.05515 0.00826
C 26.97123 15.60899 -0.00294
C 28.21449 14.89387 0.00152
C 28.29731 13.54319 0.01257
C 27.18562 12.65282 0.02316
C 27.09331 11.40457 0.04185
C 28.21534 10.61503 0.00194
C 27.04663 8.51472 0.02611
C 2.48279 32.66137 0.01396
