384
Graphene
C 34.40927 0.06744 0.01295
C 15.91776 5.00927 0.02162
C 14.76984 4.29948 0.0076
C 14.79399 2.94612 0.01241
C 15.98597 2.25145 -0.01454
C 15.98104 0.74913 0.01945
C 14.78995 0.03015 0.01416
C 17.19313 32.65658 0.03542
C 18.39222 31.87598 0.02299
C 18.46612 30.51537 0.00244
C 15.96127 6.42035 -0.0014
C 17.16702 29.7645 -0.01717
C 18.41068 27.66577 -0.01952
C 18.52187 26.25897 -0.02813
C 17.28396 25.61452 0.00374
C 17.32791 24.05844 0.00052
C 18.44533 23.33144 -0.03682
C 18.40972 21.92885 0.01965
C 17.24341 21.14969 0.02058
C 17.12526 19.7621 -0.01957
C 18.48216 19.06345 -0.0108
C 17.22244 28.35053 0.05265
C 18.35236 17.69659 -0.00368
C 14.8214 7.17464 0.00415
C 15.74251 9.43365 0.01363
C 13.55418 2.21151 0.00943
C 13.56566 0.80732 0.02841
C 12.30051 0.05683 -0.01111
C 14.72521 32.69475 -0.01275
C 15.96135 31.96334 0.00985
C 16.03593 30.58011 -0.02245
C 14.81667 29.8793 -0.00428
C 14.77605 28.41148 0.03101
C 16.0069 27.6976 -0.01536
C 14.59425 8.56503 -0.02162
C 16.02537 26.3322 -0.02689
C 14.76071 24.154 -0.00891
C 16.03025 23.42725 0.02819
C 15.95103 21.99885 0.00165
C 14.74415 21.33155 -0.02971
C 14.81929 19.913 0.02894
C 15.77869 19.06996 -0.01789
C 15.86597 17.6856 0.00444
C 16.08391 13.61078 -0.00925
C 16.26448 10.63656 0.01877
C 14.78581 25.56583 -0.01046
C 12.26992 2.86429 0.00406
C 17.04694 16.96074 -0.02696
C 18.44925 14.99379 0.00228
C 20.88779 21.99976 0.03338
C 19.65352 21.24837 -0.0258
C 19.64872 19.76168 -0.0331
C 20.88424 19.19079 -0.00316
C 20.91466 17.74588 0.02188
C 19.66545 16.99601 -0.01979
C 19.72734 15.63616 0.02691
C 20.99643 14.88042 -0.01581
C 20.9835 13.51123 0.01452
C 20.90545 23.34347 -0.00491
C 19.69123 12.8452 0.04892
C 20.88246 10.60464 -0.03557
C 20.90622 9.13389 0.03754
C 19.64283 8.42839 0.01739
C 19.73838 7.04997 0.00755
C 20.98184 6.32773 -0.0054
C 20.87147 4.87267 0.00667
C 19.6157 4.29135 0.00143
C 19.59792 2.86264 -0.017
C 20.88611 2.12281 0.00364
C 19.71816 11.32574 -0.00111
C 17.16126 15.5906 -0.00114
C 19.67182 24.06272 -0.00109
C 20.95586 26.14291 -0.02213
C 18.51622 13.5851 0.00798
C 17.28937 12.8934 0.00422
C 17.31699 11.48674 0.0351
C 18.50476 10.59482 -0.03113
C 18.36376 9.21311 0.02098
C 17.10812 8.5671 0.01848
C 17.18978 7.09599 -0.00619
C 18.44127 6.3645 -0.02162
C 18.39304 5.00164 0.00889
C 19.78835 25.45184 0.03698
C 17.22467 4.24321 -0.00481
C 18.4041 2.12028 0.01443
C 18.42875 0.68563 0.03505
C 17.20208 34.03261 -0.02815
C 19.54637 32.59852 -0.04147
C 20.84375 31.81251 -0.05302
C 20.87909 30.41824 0.00213
C 19.69723 29.701 -0.00066
C 19.63742 28.31071 -0.00289
C 20.87415 27.54884 0.00028
C 17.20732 2.87662 0.00979
C 20.8022 0.70065 -0.00831
C 12.32081 4.27624 0.03592
C 13.60963 6.46368 0.0402
C 4.9141 29.86983 -0.02566
C 4.91773 28.44251 -0.00094
C 6.1406 27.76178 0.02322
C 6.11101 26.39438 -0.00725
C 4.90874 25.55111 -0.05697
C 4.86071 24.13201 0.01087
C 6.06126 23.48109 -0.01343
C 6.13908 22.11717 0.00988
C 4.85648 21.56849 0.0276
C 6.18401 30.54453 -0.03113
C 4.85248 7.33136 0.01305
C 6.08078 5.06061 0.03368
C 4.84581 4.36227 -0.02929
C 4.89623 2.86774 -0.00966
C 6.07139 2.19104 -0.03337
C 6.1087 0.75125 0.01227
C 4.88989 0.00952 0.00873
C 7.36899 32.58866 -0.00049
C 8.56862 31.98536 0.00848
C 8.70197 30.5092 -0.01303
C 6.12363 6.59365 -0.00077
C 7.43769 29.87699 -0.01378
C 6.10559 31.90725 0.017
C 2.42355 0.05662 0.0086
C 3.6735 30.53815 0.00031
C 2.45676 29.83197 -0.003
C 2.44319 28.43726 0.01402
C 3.71292 27.65525 0.02379
C 3.63069 26.24782 0.00907
C 2.44406 25.55469 0.00643
C 2.31451 24.11504 -0.01509
C 3.66389 23.45981 0.03267
C 3.58573 21.935 0.02374
C 4.91785 32.61897 -0.00643
C 2.37801 21.24295 0.00402
C 3.76949 9.11437 0.0174
C 2.55779 8.57287 0.03828
C 2.38416 7.03541 0.01226
C 3.73701 6.41057 -0.00279
C 3.65767 5.01814 0.01996
C 2.44237 4.26981 -0.03996
C 2.44392 2.89284 0.01465
C 3.65545 2.14582 -0.00074
C 3.58809 0.6866 -0.00518
C 2.49037 19.91278 0.0073
C 13.53326 4.98337 0.00572
C 7.40793 28.39536 0.02635
C 8.56743 26.34017 0.01396
C 11.09715 6.58288 -0.00131
C 11.02833 5.07243 -0.01118
C 9.81892 4.25619 -0.014
C 9.81277 2.89777 0.02147
C 11.03355 2.10035 0.00373
C 11.01508 0.65142 -0.00191
C 9.75063 0.05359 0.00438
C 12.30958 32.74621 0.01291
C 13.53353 31.98238 0.00093
C 9.92261 7.0778 -0.02896
C 13.56797 30.63423 0.00057
C 12.27246 28.47154 -0.00334
C 13.51908 27.79226 0.02339
C 13.50067 26.33225 0.01641
C 12.29252 25.60243 -0.00719
C 12.25098 24.15233 0.01364
C 13.4868 23.3871 -0.01062
C 13.50003 21.99549 -0.00033
C 12.27202 21.53059 0.03589
C 12.40338 7.04931 -0.02759
C 12.31866 29.89308 -0.01634
C 8.60685 27.74776 0.0127
C 11.07564 22.20855 -0.01004
C 9.73422 24.1728 0.01745
C 7.32272 25.56915 0.01849
C 7.22401 24.16881 -0.01142
C 8.52016 23.46092 -0.00562
C 8.62214 22.08388 -0.00494
C 7.3607 6.98674 0.00054
C 8.64196 6.5507 0.03007
C 8.64467 4.98782 -0.00095
C 7.38161 4.33869 0.01572
C 7.29489 2.94222 -0.04848
C 10.97882 23.55719 0.00488
C 8.53598 2.13722 -0.00892
C 7.32607 0.00452 -0.0008
C 9.75961 32.71662 0.0288
C 11.10913 32.02363 0.00393
C 11.16027 30.62028 0.00895
C 9.91743 29.80362 0.00685
C 9.86195 28.46558 0.02888
C 11.07847 27.71448 -0.00482
C 11.07896 26.31146 -0.01384
C 9.75055 25.66775 0.03693
C 8.50699 0.71518 -0.01362
C 19.67151 34.05925 -0.02957
C 22.07902 32.56243 -0.04422
C 23.29084 31.92031 0.00654
C 29.39056 4.26318 0.0103
C 29.46819 2.87106 0.02108
C 30.67494 2.15072 0.00716
C 30.66834 0.77831 0.00307
C 29.46381 0.02493 0.00346
C 31.97568 32.63038 0.01713
C 33.19981 32.01062 -0.01694
C 33.20113 30.53113 0.01428
C 31.97386 29.88966 -0.02142
C 30.69375 4.96005 0.07705
C 31.86074 28.4554 0.0544
C 33.16548 26.29 0.00682
C 31.92226 25.52628 -0.01779
C 31.95592 24.12493 0.03794
C 33.18623 23.48152 0.01927
C 33.14567 22.00735 0.01574
C 31.91419 21.30908 -0.02383
C 31.95869 19.89861 -0.01429
C 33.22926 19.16528 -0.0136
C 33.30363 17.75198 0.00594
C 33.09364 27.72497 0.00026
C 32.00705 17.00828 -0.02474
C 30.68378 6.4506 0.01908
C 29.4696 8.48959 -0.00971
C 29.53398 29.86958 0.0014
C 29.48875 28.43011 0.00924
C 30.65851 27.70671 0.02326
C 30.74344 26.18105 0.00261
C 29.40627 25.54309 0.03265
C 29.45098 24.11569 -0.02049
C 30.72549 23.37061 -0.01854
C 30.65854 21.99488 -0.01415
C 29.44468 21.25286 -0.03039
C 29.46712 7.04647 0.01518
C 29.49907 19.92383 0.01836
C 30.79019 17.77385 -0.00669
C 29.60838 17.01614 0.0101
C 29.55818 15.61315 0.01705
C 30.79814 14.89869 -0.0405
C 30.80847 13.38213 -0.01303
C 29.52929 12.74404 -0.01461
C 29.5972 11.3401 -0.02155
C 30.76068 10.66367 -0.00944
C 30.7137 9.2383 -0.03735
C 30.7869 19.19564 0.03531
C 30.73387 30.56654 0.01324
C 31.98216 15.62181 0.00369
C 33.25236 13.48766 -0.00644
C 34.37337 21.23793 -0.02213
C 34.4147 19.84332 0.01951
C 1.34231 19.15445 -0.01678
C 1.22437 17.75754 0.01223
C 0.09636 17.07398 0.00648
C 0.08117 15.71911 0.02114
C 1.14358 14.93317 -0.02957
C 1.18896 13.59178 0.00343
C 0.08912 12.78351 -0.02656
C 1.15772 21.98876 0.02712
C 0.10434 11.41615 -0.02442
C 1.31479 9.2483 -0.00583
C 34.39592 8.5041 -0.02302
C 34.38778 7.13166 -0.02849
C 1.18102 6.34071 0.02931
C 1.15793 4.92936 0.00628
C 34.33927 4.21121 -0.0345
C 34.28757 2.82247 -0.00931
C 1.13863 2.1247 -0.00939
C 1.18025 0.74413 -0.00468
C 1.15744 10.57136 -0.00027
C 33.22652 14.97338 0.00455
C 1.20024 23.36649 0.00723
C 34.41885 25.61532 -0.05239
C 32.07632 12.74158 -0.01839
C 31.98318 11.39845 0.00137
C 33.25156 10.66614 0.00199
C 33.26681 9.22245 0.04381
C 31.97127 8.54653 0.02806
C 31.88909 7.12027 0.01504
C 33.12306 6.41323 -0.00069
C 33.14085 5.00823 0.04926
C 31.92638 4.22389 -0.03838
C 34.42088 24.17437 0.03076
C 31.91616 2.84098 0.00349
C 33.13773 0.67081 -0.00841
C 31.91243 34.0619 0.0001
C 0.00775 32.74932 -0.02927
C 1.18673 31.90732 -0.01404
C 1.20021 30.57269 0.01027
C 34.41295 29.8249 0.01831
C 34.42206 28.40938 -0.01037
C 1.204 27.70435 -0.00439
C 1.16379 26.29643 -0.00598
C 33.14229 2.08592 -0.00323
C 30.80575 31.99032 0.04266
C 29.49678 32.69985 0.01177
C 26.94644 0.01411 -0.00416
C 23.39304 4.90559 -0.00381
C 22.07142 4.24542 0.03046
C 22.10247 2.81182 0.0296
C 23.29268 2.0674 0.03374
C 23.36365 0.67798 -0.02845
C 22.06444 0.00819 -0.03213
C 24.52359 32.57214 0.02239
C 25.8263 31.93953 0.01153
C 25.80125 30.54052 0.02734
C 23.42162 6.36326 0.01852
C 24.5761 29.83706 -0.0055
C 25.77412 27.66108 -0.00225
C 25.77829 26.25817 0.00071
C 24.58746 25.4832 -0.01107
C 24.5999 24.02049 -0.01586
C 25.73898 23.35328 -0.01971
C 25.76711 21.92595 -0.02118
C 24.60866 21.24304 0.00733
C 24.55779 19.87079 -0.00178
C 25.79561 19.13903 0.00768
C 24.49054 28.45462 0.01515
C 25.83047 17.75005 -0.0276
C 22.20434 7.06601 0.01126
C 23.36961 9.19064 -0.01662
C 23.3045 30.45542 -0.00703
C 22.07433 29.73299 -0.04076
C 22.06512 28.27577 -0.00652
C 23.32246 27.59076 0.0058
C 23.36282 26.23194 -0.00865
C 22.13667 25.48373 0.00675
C 22.14767 24.08404 -0.00311
C 23.35796 23.41401 0.00742
C 23.33224 21.99903 -0.01594
C 22.15603 8.46815 -0.01185
C 22.10206 21.30309 0.0106
C 23.28044 19.17727 -0.01721
C 23.34213 17.77346 -0.02422
C 22.1285 17.1142 0.01277
C 22.206 15.6748 0.00096
C 23.45245 14.94068 -0.01527
C 23.38348 13.47478 0.01087
C 22.16923 12.80586 0.00199
C 22.20199 11.28645 0.01511
C 23.42114 10.58033 -0.00478
C 22.08813 19.863 -0.01154
C 24.61069 17.10138 0.03005
C 24.65704 15.66948 -0.04078
C 25.91193 14.95535 0.02117
C 26.99348 21.28836 0.00622
C 26.9987 19.84993 -0.02815
C 28.29739 19.15252 -0.00942
C 28.36408 17.81598 0.00487
C 27.10993 16.99109 0.00826
C 27.14159 15.61119 -0.00294
C 28.34836 14.91154 0.00152
C 28.42101 13.51823 0.01257
C 27.02918 12.81029 0.02316
C 28.19948 22.00902 -0.0032
C 27.03369 11.3685 0.04185
C 28.34253 9.19741 -0.00621
C 27.08709 8.55391 0.02611
C 27.05444 7.15919 0.02198
C 28.28734 6.38861 0.01094
C 28.20232 4.98433 0.00235
C 26.9705 4.26028 0.01495
C 27.04398 2.81551 0.01259
C 28.19816 2.08499 0.01799
C 28.23659 0.67959 0.01699
C 28.34755 10.62776 0.00194
C 28.19437 23.39671 -0.00037
C 26.97501 24.1617 -0.01654
C 26.98119 25.53263 -0.00218
C 25.80507 13.53171 0.02737
C 24.59663 12.77891 -0.00498
C 24.68446 11.30578 0.00135
C 25.91897 10.69979 0.03102
C 25.84035 9.19341 0.02555
C 24.63597 8.5049 0.01423
C 24.67202 7.08148 -0.00285
C 25.80572 6.37653 -0.009
C 25.7444 4.99786 -0.01199
C 24.57618 4.26503 -0.00229
C 24.59464 2.81218 -0.00938
C 25.78035 2.07573 -0.0264
C 25.76211 0.67993 -0.01154
C 24.52405 34.01098 0.00684
C 26.98241 32.62665 -0.01052
C 28.28655 31.93814 -0.01679
C 28.26847 30.5097 0.00367
C 27.03713 29.83265 0.04306
C 26.97942 28.31328 0.00996
C 28.25846 27.68167 0.00195
C 28.23316 26.25321 -0.00802
C 3.64887 32.05941 0.03189
C 2.37212 32.72681 -0.04307
