344
Graphene
C 34.38951 0.00393 0.01295
C 12.32606 32.64978 0.02098
C 13.5247 32.03306 0.01848
C 13.54401 30.59538 -0.00619
C 12.36174 29.90286 -0.02162
C 12.54581 28.58957 0.00889
C 12.10694 7.10582 -0.00481
C 13.35748 6.37373 0.00979
C 13.47396 4.99147 0.01443
C 12.27566 4.17546 0.03505
C 12.24683 2.83956 -0.02815
C 13.51601 2.09733 -0.04147
C 13.53942 0.61838 -0.05302
C 12.26317 34.05543 0.00213
C 14.86909 32.56411 -0.00066
C 15.94859 31.76682 -0.00289
C 15.94753 30.36897 0.00028
C 14.70067 29.7977 -0.02213
C 9.71755 34.07495 -0.03113
C 11.01208 0.66644 0.0351
C 11.03559 2.08459 0.00422
C 9.84912 2.78915 0.00798
C 7.32451 4.2846 0.03542
C 7.34633 2.89461 0.02299
C 8.57002 2.10142 0.00244
C 8.56875 0.68951 -0.01717
C 7.36755 0.03159 0.05265
C 9.84195 32.72766 -0.01952
C 11.07837 32.00355 -0.02813
C 11.04064 30.58292 0.00374
C 14.70837 6.89173 0.03698
C 9.88112 29.83576 0.00052
C 11.32506 27.88263 0.01965
C 10.93912 26.427 0.02058
C 9.84615 25.83121 -0.01957
C 9.93135 8.35439 -0.0108
C 9.85147 7.0468 -0.00368
C 11.03198 6.26875 -0.02696
C 11.10542 4.82717 -0.00114
C 9.7987 4.12185 0.00228
C 9.94661 28.43252 -0.03682
C 8.60019 4.94454 0.01416
C 15.94078 6.55601 -0.00109
C 14.76226 4.23655 0.03338
C 21.03793 9.42607 0.00654
C 19.83333 8.67062 -0.00703
C 19.60691 7.22144 -0.04076
C 20.81321 6.50375 -0.00652
C 20.84317 5.02939 0.0058
C 19.5973 4.25529 -0.00865
C 19.63719 2.88925 0.00675
C 20.85953 2.21785 -0.00311
C 20.83502 0.65515 0.00742
C 19.60457 34.00901 -0.01594
C 22.0583 32.61369 0.0106
C 23.29692 31.79491 -0.01154
C 23.37703 30.42346 -0.01721
C 22.0936 29.71504 -0.02422
C 22.17378 28.37281 0.01277
C 23.4558 27.7095 0.00096
C 23.33673 26.27253 -0.01527
C 20.84007 27.82009 -0.04422
C 19.76497 28.32573 -0.02957
C 19.62571 29.81384 -0.00831
C 20.90821 30.48151 0.00364
C 14.68973 2.81281 -0.0258
C 15.96456 2.18808 -0.0331
C 15.99612 0.78626 -0.00316
C 14.77161 0.0414 0.02188
C 17.16033 32.53012 -0.01979
C 18.45546 31.99728 0.02691
C 18.37827 30.54492 -0.01581
C 17.21445 29.85356 0.01452
C 15.93536 5.07669 -0.00491
C 17.2672 7.19097 0.04892
C 18.39842 5.01921 -0.03557
C 17.13726 4.37762 0.03754
C 17.18514 2.90877 0.01739
C 18.39127 2.18348 0.00755
C 18.37003 0.69134 -0.0054
C 17.22291 33.99835 0.00667
C 19.70682 32.5873 0.00143
C 20.88555 31.88465 -0.017
C 18.35956 6.4678 -0.00111
C 23.36471 14.73072 0.01087
C 8.57343 6.40818 0.01945
C 7.53497 8.61797 0.01241
C 2.49332 7.11387 0.00895
C 3.67914 6.45269 0.00685
C 3.69742 5.01654 0.02888
C 2.46462 4.3046 -0.00482
C 2.42886 2.87179 -0.01384
C 3.62541 2.13253 0.03693
C 3.72319 0.7323 0.01745
C 2.4716 0.04844 0.00488
C 4.88223 32.7023 -0.01004
C 6.19513 31.98367 -0.02896
C 6.15837 30.53418 -0.00131
C 4.85882 29.84941 -0.01118
C 4.8239 28.40411 -0.014
C 6.06948 27.69329 0.02147
C 6.0777 26.32565 0.00373
C 4.85163 25.57472 -0.00191
C 4.84029 24.11567 0.00438
C 2.50405 8.51493 0.00393
C 3.71169 9.27046 0.0288
C 3.69474 10.59958 -0.0008
C 2.48902 11.41973 -0.01362
C 3.65679 30.56936 0.00873
C 2.3883 29.86242 -0.00049
C 2.42941 28.47305 0.00848
C 3.6491 27.67986 -0.01303
C 3.62551 26.23808 -0.01378
C 2.3902 25.59081 0.02635
C 2.36517 24.18185 0.0127
C 3.68357 23.40171 0.01396
C 6.11071 23.42025 0.01291
C 3.69601 22.00979 0.01849
C 2.40164 19.86292 -0.00562
C 3.60103 19.13742 -0.00494
C 3.67664 17.67695 0.00054
C 2.47466 17.09326 0.03007
C 2.44604 15.60939 -0.00095
C 3.66161 14.88835 0.01572
C 3.65371 13.50917 -0.04848
C 2.48343 12.79818 -0.00892
C 2.4103 21.30781 -0.01142
C 7.48421 7.15512 -0.01454
C 6.1321 21.94241 0.00093
C 4.91692 19.88039 -0.01634
C 7.35101 29.85634 -0.02689
C 7.33925 28.39374 -0.01046
C 8.68676 27.82146 -0.00891
C 8.54765 26.31876 0.02819
C 7.37181 25.60596 0.00165
C 7.30176 24.18766 -0.02971
C 8.53133 23.33806 0.02894
C 8.38075 22.15956 -0.01789
C 7.30877 21.1391 0.00444
C 7.40521 19.79953 -0.00925
C 8.55736 18.93667 0.01877
C 7.39782 17.06625 0.01363
C 7.30725 15.83221 -0.02162
C 7.44288 12.92006 0.00415
C 7.57561 11.51533 -0.0014
C 8.63426 10.60062 0.02162
C 8.83207 9.29187 0.0076
C 8.61507 30.62367 -0.01536
C 8.5539 31.96121 0.03101
C 7.37419 32.74572 -0.00428
C 4.88266 34.06582 -0.02245
C 6.13582 19.1129 -0.00334
C 6.11549 17.75196 0.02339
C 4.94365 17.00373 0.01641
C 4.86168 15.60336 -0.00719
C 6.1215 14.88406 0.01364
C 6.23 13.53437 -0.01062
C 4.94835 12.83695 -0.00033
C 4.97321 11.39175 0.03589
C 4.99799 21.27677 0.00057
C 6.26214 10.73421 -0.02759
C 4.95962 8.53812 0.00572
C 4.92748 7.14013 0.03592
C 6.15487 6.50745 0.00406
C 6.09858 5.05468 0.00943
C 4.90524 4.32628 0.02841
C 4.88779 2.91956 -0.01111
C 6.16009 2.1502 -0.01275
C 6.12344 0.75796 0.00985
C 6.25886 9.34637 0.0402
C 23.36499 13.52348 0.00199
C 21.85643 11.06447 0.01511
C 23.29565 10.68489 -0.00478
C 31.98617 29.85366 -0.02142
C 31.99405 28.38272 0.0544
C 33.14379 27.65793 0.00026
C 33.14362 26.22653 0.00682
C 31.92662 25.5228 -0.01779
C 31.9578 24.12651 0.03794
C 33.12447 23.3751 0.01927
C 33.1139 21.91106 0.01574
C 31.89728 21.24642 -0.02383
C 31.99891 19.87769 -0.01429
C 33.22577 19.14332 -0.0136
C 33.17374 17.76231 0.00594
C 31.9019 17.03908 -0.02474
C 31.97028 15.68661 0.00369
C 33.18812 14.97805 0.00455
C 33.1895 13.56726 -0.00644
C 31.95052 12.81717 -0.01839
C 33.12884 30.55375 0.01428
C 33.15099 31.98529 -0.01694
C 31.9341 32.65662 0.01713
C 29.4668 0.05286 0.00346
C 30.70582 19.18875 0.03531
C 30.70332 17.8389 -0.00669
C 29.45695 17.14502 0.0101
C 29.48647 15.74365 0.01705
C 30.73526 14.97418 -0.0405
C 30.72635 13.48576 -0.01303
C 29.49434 12.81191 -0.01461
C 29.4843 11.36495 -0.02155
C 31.97174 11.34969 0.00137
C 30.72875 10.67526 -0.00944
C 29.45139 8.53584 -0.00971
C 29.45616 7.0163 0.01518
C 30.74452 6.38836 0.01908
C 30.75678 4.95766 0.07705
C 29.45528 4.24861 0.0103
C 29.50029 2.8058 0.02108
C 30.77963 2.16114 0.00716
C 30.71174 0.73729 0.00307
C 30.7064 9.24348 -0.03735
C 29.45074 19.91118 0.01836
C 33.23003 10.66662 0.00199
C 31.94436 8.51586 0.02806
C 1.24605 17.71388 0.01223
C 34.38574 17.02972 0.00648
C 0.00406 15.66854 0.02114
C 1.22722 14.91642 -0.02957
C 1.18267 13.56186 0.00343
C 0.03025 12.81613 -0.02656
C 34.41614 11.34289 -0.02442
C 1.23548 10.69093 -0.00027
C 1.26328 9.20793 -0.00583
C 34.41747 8.56555 -0.02302
C 0.00037 7.11322 -0.02849
C 1.24957 6.36964 0.02931
C 1.28121 5.00924 0.00628
C 0.04991 4.27171 -0.0345
C 0.03547 2.83755 -0.00931
C 1.17578 2.08733 -0.00939
C 1.14248 0.74865 -0.00468
C 1.11293 19.17499 -0.01678
C 34.33706 19.93314 0.01951
C 34.3384 21.30804 -0.02213
C 1.16478 22.01638 0.02712
C 32.00283 7.13853 0.01504
C 33.25057 6.39287 -0.00069
C 33.2295 4.88308 0.04926
C 31.99084 4.30317 -0.03838
C 31.97731 2.84069 0.00349
C 33.2134 2.12144 -0.00323
C 33.17104 0.68765 -0.00841
C 31.9577 0.08701 0.0001
C 33.23929 9.20155 0.04381
C 34.41247 32.65748 -0.02927
C 1.13916 30.57571 0.01027
C 34.39003 29.82065 0.01831
C 34.37222 28.43703 -0.01037
C 1.1912 27.75846 -0.00439
C 1.2136 26.35959 -0.00598
C 0.02153 25.55651 -0.05239
C 0.00653 24.09166 0.03076
C 1.12661 23.38613 0.00723
C 1.19117 31.97974 -0.01404
C 29.37283 21.29489 -0.03039
C 30.60535 22.07365 -0.01415
C 30.72107 23.45319 -0.01854
C 24.6244 20.08011 -0.00178
C 25.74854 19.18775 0.00768
C 25.79803 17.73547 -0.0276
C 24.5537 17.09165 0.03005
C 24.42713 15.67796 -0.04078
C 25.71591 14.93484 0.02117
C 25.79257 13.53125 0.02737
C 24.64472 12.7022 -0.00498
C 24.58851 11.31842 0.00135
C 25.76729 10.65108 0.03102
C 25.82764 9.24974 0.02555
C 24.57729 8.60143 0.01423
C 24.54443 7.12503 -0.00285
C 25.79544 6.34992 -0.009
C 25.7984 4.93549 -0.01199
C 24.51395 4.26945 -0.00229
C 24.50408 2.83454 -0.00938
C 24.5509 21.27436 0.00733
C 25.76562 22.08004 -0.02118
C 25.85611 23.51923 -0.01971
C 24.59195 24.15576 -0.01586
C 23.44891 9.25222 -0.01662
C 22.21116 8.53275 -0.01185
C 22.03433 7.11387 0.01126
C 23.31925 6.42701 0.01852
C 23.32237 5.04661 -0.00381
C 22.05304 4.28139 0.03046
C 22.03627 2.89189 0.0296
C 23.30908 2.09279 0.03374
C 25.81616 2.12453 -0.0264
C 23.29954 0.65455 -0.02845
C 24.53422 32.55924 0.02239
C 25.83632 31.94107 0.01153
C 25.88146 30.51267 0.02734
C 24.62668 29.74817 -0.0055
C 24.67866 28.35208 0.01515
C 25.81205 27.64882 -0.00225
C 25.80322 26.24921 0.00071
C 24.53272 25.52989 -0.01107
C 22.13429 34.018 -0.03213
C 25.79755 0.73766 -0.01154
C 24.5281 34.03167 0.00684
C 27.06407 32.62408 -0.01052
C 27.08375 8.53908 0.02611
C 26.98693 7.19323 0.02198
C 28.23282 6.3333 0.01094
C 28.29639 4.95733 0.00235
C 27.01323 4.28233 0.01495
C 27.00774 2.83684 0.01259
C 28.27111 2.13018 0.01799
C 28.25009 0.70854 0.01699
C 28.3385 9.25915 -0.00621
C 27.07024 34.037 -0.00416
C 30.7096 31.99952 0.04266
C 30.71143 30.58225 0.01324
C 29.46992 29.7794 0.0014
C 29.50266 28.33696 0.00924
C 30.73474 27.71632 0.02326
C 30.72886 26.21439 0.00261
C 29.51195 25.52129 0.03265
C 29.47418 24.12804 -0.02049
C 29.50084 32.67162 0.01177
C 3.66006 31.99622 0.01227
C 28.303 10.70972 0.00194
C 27.05076 12.85863 0.02316
C 28.26784 31.9189 -0.01679
C 28.26784 30.52783 0.00367
C 27.05512 29.72627 0.04306
C 27.13703 28.3033 0.00996
C 28.31033 27.62569 0.00195
C 28.25988 26.24584 -0.00802
C 27.07141 25.47714 -0.00218
C 27.08607 24.14924 -0.01654
C 27.03844 11.42809 0.04185
C 28.26237 23.4558 -0.00037
C 26.89606 21.29207 0.00622
C 26.93234 19.90454 -0.02815
C 28.17163 19.23207 -0.00942
C 28.17971 17.77847 0.00487
C 27.03271 17.0511 0.00826
C 26.96013 15.67454 -0.00294
C 28.26911 14.94963 0.00152
C 28.26148 13.57517 0.01257
C 28.17523 22.00618 -0.0032
C 2.47128 32.69644 -0.03337
