419
Graphene
C 34.32044 34.07669 0.01295
C 13.37056 27.79305 0.00943
C 13.45708 26.32529 0.02841
C 12.2275 25.57044 -0.01111
C 12.18497 24.23198 -0.01275
C 13.43747 23.46442 0.00985
C 13.47812 22.06034 -0.02245
C 12.29691 21.35473 -0.00428
C 12.29678 19.92697 0.03101
C 13.56244 19.29717 -0.01536
C 13.55279 17.76868 -0.02689
C 12.14538 28.48964 0.00406
C 12.27505 17.11224 -0.01046
C 13.53746 14.85451 0.02819
C 13.57193 13.44744 0.00165
C 12.36226 12.68822 -0.02971
C 12.29347 11.33396 0.02894
C 13.51763 10.64219 -0.01789
C 13.6264 9.198 0.00444
C 12.29711 8.60241 -0.00925
C 12.30528 7.15176 0.01877
C 13.47041 6.33152 0.01363
C 13.51314 4.96334 -0.02162
C 12.39259 15.59256 -0.00891
C 12.30757 4.24384 0.00415
C 12.21922 29.93758 0.03592
C 13.41202 32.01352 0.0402
C 9.77913 21.35254 -0.01004
C 9.81586 19.90248 -0.02896
C 11.07087 19.16591 -0.00131
C 11.03785 17.78161 -0.01118
C 9.8241 17.04621 -0.014
C 9.86837 15.54035 0.02147
C 11.18687 14.87853 0.00373
C 11.09851 13.44902 -0.00191
C 9.85606 12.87855 0.00438
C 9.77728 11.35908 0.01291
C 13.48717 30.58225 0.00572
C 11.0106 10.67901 0.00093
C 9.78215 8.52643 -0.01634
C 9.84708 7.07118 -0.00334
C 11.06451 6.4304 0.02339
C 11.07603 4.98486 0.01641
C 9.77407 4.31581 -0.00719
C 9.74377 2.88001 0.01364
C 10.93528 2.20902 -0.01062
C 10.99224 0.75715 -0.00033
C 9.78543 0.05215 0.03589
C 12.24714 32.72543 -0.02759
C 11.00605 9.26482 0.00057
C 12.17894 2.81992 -0.0014
C 13.49078 2.14206 0.02162
C 13.53028 0.71817 0.0076
C 16.06474 4.90407 0.01848
C 14.81066 4.30139 -0.00619
C 14.75297 2.86461 -0.02162
C 15.95142 2.11215 0.00889
C 15.9819 0.75309 -0.00481
C 14.74812 0.01293 0.00979
C 17.16359 32.76918 0.01443
C 18.31821 31.95616 0.03505
C 18.4159 30.53242 -0.02815
C 17.15489 29.85165 -0.04147
C 15.93563 6.42199 0.02098
C 17.08427 28.42501 -0.05302
C 18.38488 26.2456 -0.00066
C 17.16756 25.50916 -0.00289
C 17.14774 24.10511 0.00028
C 18.35707 23.43173 -0.02213
C 18.35441 22.04553 0.03698
C 17.1235 21.28766 -0.00109
C 17.15722 19.91035 -0.00491
C 18.38943 19.1971 0.03338
C 18.47449 17.74264 -0.0258
C 17.26544 16.93528 -0.0331
C 18.36115 27.64766 0.00213
C 14.65467 7.06205 -0.03113
C 14.79693 8.51159 0.0351
C 15.98643 9.24179 0.00422
C 12.23783 0.08704 0.01241
C 14.64761 32.69257 -0.01454
C 15.9261 32.04272 0.01945
C 15.95529 30.61371 0.01416
C 14.72212 29.87711 0.03542
C 14.70074 28.51071 0.02299
C 15.89451 27.64922 0.00244
C 15.89257 26.2413 -0.01717
C 14.62329 25.57085 0.05265
C 14.68502 24.17607 -0.01952
C 15.90813 23.4888 -0.02813
C 16.0238 22.08477 0.00374
C 14.80129 21.3788 0.00052
C 14.88154 19.92682 -0.03682
C 15.98351 19.10182 0.01965
C 15.99528 17.64308 0.02058
C 14.80109 16.95857 -0.01957
C 14.75974 15.60065 -0.0108
C 16.06004 14.87469 -0.00368
C 16.08657 13.42066 -0.02696
C 14.80599 12.73107 -0.00114
C 14.71401 11.37915 0.00228
C 16.00096 10.61368 0.00798
C 11.1034 22.10139 0.00488
C 17.34051 15.51947 -0.00316
C 10.97031 23.45755 0.01745
C 9.77969 25.54885 -0.01384
C 2.39207 2.85197 0.00208
C 3.59644 2.18481 0.01707
C 3.56411 0.79011 0.02769
C 2.38177 0.03 -0.03291
C 4.90361 32.77829 -0.04999
C 6.03609 32.0271 0.04505
C 6.08787 30.57651 0.03284
C 4.87711 29.84163 -0.04307
C 4.88659 28.46131 0.03189
C 6.09383 27.81218 0.00031
C 2.40479 4.22268 -0.00561
C 6.19269 26.31715 -0.003
C 4.84682 24.16652 0.02379
C 6.10166 23.4788 0.00907
C 6.1445 22.0648 0.00643
C 4.88454 21.28528 -0.01509
C 4.87298 19.91402 0.03267
C 6.12955 19.25366 0.02374
C 6.16543 17.79344 0.00402
C 4.93499 17.04055 0.0073
C 4.947 15.6985 0.0174
C 6.08461 14.9642 0.03828
C 4.95591 25.64541 0.01402
C 6.1984 13.46257 0.01226
C 3.60255 4.96375 -0.01977
C 2.4828 7.11043 -0.01979
C 3.61154 30.50196 0.00662
C 2.41064 29.82284 -0.0154
C 2.34418 28.38236 -0.01299
C 3.61401 27.74201 -0.00407
C 3.69792 26.37579 0.01138
C 2.4382 25.55796 0.03278
C 2.41736 24.14077 -0.00177
C 3.66114 23.47883 0.04421
C 3.62122 22.00594 0.00088
C 2.43544 21.30612 0.00828
C 3.63693 6.37353 0.02784
C 2.33449 19.82858 -0.02375
C 3.70672 17.734 -0.0059
C 2.38159 17.04106 -0.01386
C 2.32351 15.6181 -0.02805
C 3.65925 14.90144 0.00081
C 3.71843 13.61275 0.00245
C 2.45707 12.8139 0.02728
C 2.49359 11.4169 -0.00039
C 3.70986 10.74126 0.0064
C 3.58157 9.2774 0.00211
C 2.36139 8.51862 -0.00449
C 3.64905 19.1405 0.00558
C 4.90366 12.91775 -0.00279
C 4.92439 11.41669 0.01996
C 6.11974 10.68893 -0.03996
C 8.5397 14.88666 -0.01378
C 8.56349 13.49397 0.02635
C 7.36641 12.79315 0.0127
C 7.34918 11.35654 0.01396
C 8.62858 10.65379 0.01849
C 8.60444 9.24388 -0.01142
C 7.28047 8.56041 -0.00562
C 7.31283 7.14387 -0.00494
C 8.5912 6.44789 0.00054
C 8.56895 5.06016 0.03007
C 7.34208 15.60697 -0.01303
C 7.32717 4.35898 -0.00095
C 8.5601 2.20789 -0.04848
C 8.608 0.7954 -0.00892
C 7.29627 0.12381 -0.01362
C 9.80567 32.78355 -0.0008
C 11.01607 32.06029 0.0288
C 11.0089 30.61175 0.00393
C 9.80361 29.86815 0.00895
C 9.76192 28.5218 0.00685
C 11.01437 27.76777 0.02888
C 11.04731 26.33371 -0.00482
C 7.26262 2.90182 0.01572
C 7.30637 17.06974 0.00848
C 8.60558 17.70518 -0.00049
C 8.65567 19.2009 0.00873
C 6.11339 9.28143 0.01465
C 4.81874 8.57823 -0.00074
C 4.78172 7.13951 -0.00518
C 6.03356 6.50089 0.0086
C 5.94745 5.08247 -0.00643
C 4.78336 4.36563 0.017
C 4.80483 2.90863 -0.03113
C 6.01308 2.15462 -0.02566
C 6.03834 0.75773 -0.00094
C 4.80547 0.11995 0.02322
C 7.34592 32.73495 -0.00725
C 8.55907 32.02886 -0.05697
C 8.57477 30.65297 0.01087
C 7.40543 29.90061 -0.01343
C 7.36125 28.51048 0.00988
C 8.53618 27.8198 0.0276
C 8.61291 26.36768 0.01305
C 7.42959 25.60902 -0.00077
C 7.3221 24.18673 0.03368
C 8.56752 23.5128 -0.02929
C 8.60842 22.07492 -0.00966
C 7.29577 21.40705 -0.03337
C 7.34805 19.99286 0.01227
C 9.74708 24.25176 0.03693
C 3.68419 31.98777 0.00748
C 18.59165 14.83117 0.02188
C 17.27978 12.73552 0.02691
C 29.52325 11.27923 -0.02155
C 30.77852 10.62676 -0.00944
C 30.76234 9.19289 -0.03735
C 29.42103 8.42473 -0.00971
C 29.49824 7.07084 0.01518
C 30.71205 6.33548 0.01908
C 30.65668 4.88703 0.07705
C 29.45007 4.14627 0.0103
C 29.47362 2.83096 0.02108
C 30.74948 2.01875 0.00716
C 29.32364 12.71402 -0.01461
C 30.68104 0.6522 0.00307
C 31.94486 32.57561 0.01713
C 33.13737 31.89736 -0.01694
C 33.17085 30.45353 0.01428
C 31.96924 29.69288 -0.02142
C 31.95227 28.34789 0.0544
C 33.14415 27.56796 0.00026
C 33.11907 26.15604 0.00682
C 31.81834 25.47568 -0.01779
C 31.91326 24.06998 0.03794
C 33.15315 23.3719 0.01927
C 29.44174 0.00643 0.00346
C 33.15099 21.9612 0.01574
C 30.51471 13.60459 -0.01303
C 30.96286 18.5664 0.01705
C 28.1984 9.22534 0.00235
C 26.97584 8.44202 0.01495
C 27.04711 7.05912 0.01259
C 28.25645 6.29085 0.01799
C 28.22584 4.88346 0.01699
C 27.02705 4.20644 -0.00416
C 26.95919 2.82202 0.01177
C 28.21781 2.10791 0.04266
C 28.21207 0.70432 0.01324
C 27.01579 0.05054 0.0014
C 30.74638 14.99428 -0.0405
C 29.51956 32.65941 0.00924
C 30.66692 30.42894 0.00261
C 29.45124 29.77461 0.03265
C 29.37491 28.28531 -0.02049
C 30.66764 27.66391 -0.01854
C 30.55204 26.21908 -0.01415
C 29.43416 25.49639 -0.03039
C 29.50288 23.98042 0.01836
C 30.71862 23.28187 0.03531
C 30.69624 21.78954 -0.00669
C 29.44184 21.36424 0.0101
C 30.77678 31.8576 0.02326
C 31.87971 21.08504 -0.02383
C 31.9135 19.66318 -0.01429
C 33.28505 19.15092 -0.0136
C 1.1448 23.39953 0.00723
C 1.25903 21.9286 0.02712
C 34.41487 21.29666 -0.02213
C 34.3998 19.93008 0.01951
C 1.20287 19.11684 -0.01678
C 1.17409 17.70188 0.01223
C 34.37981 17.01596 0.00648
C 34.41099 15.57972 0.02114
C 1.24376 14.86772 -0.02957
C 1.21814 13.49458 0.00343
C 34.30032 24.07532 0.03076
C 34.35179 12.85262 -0.02656
C 1.24017 10.67042 -0.00027
C 1.1447 9.27183 -0.00583
C 34.37747 8.55373 -0.02302
C 34.33905 7.09069 -0.02849
C 1.2109 6.35507 0.02931
C 1.16679 4.9926 0.00628
C 34.36359 4.22125 -0.0345
C 34.37038 2.80354 -0.00931
C 1.17569 2.15058 -0.00939
C 1.13093 0.72632 -0.00468
C 34.43168 11.43065 -0.02442
C 34.37416 25.50501 -0.05239
C 1.1151 26.24923 -0.00598
C 1.16799 27.66716 -0.00439
C 33.24634 17.76091 0.00594
C 31.85624 17.38389 -0.02474
C 31.80418 15.96269 0.00369
C 33.07329 15.04864 0.00455
C 33.10974 13.61088 -0.00644
C 31.92708 12.83697 -0.01839
C 31.96641 11.42637 0.00137
C 33.19002 10.63697 0.00199
C 33.13423 9.2394 0.04381
C 31.9597 8.42071 0.02806
C 31.90255 6.97809 0.01504
C 33.18899 6.33129 -0.00069
C 33.16525 4.94547 0.04926
C 31.8888 4.2809 -0.03838
C 31.91522 2.83802 0.00349
C 33.02391 2.12218 -0.00323
C 32.98076 0.65811 -0.00841
C 31.90943 34.01341 0.0001
C 34.35316 32.65533 -0.02927
C 1.14992 31.94527 -0.01404
C 1.22681 30.50352 0.01027
C 34.35304 29.7929 0.01831
C 34.35119 28.40073 -0.01037
C 28.28695 10.64623 0.01094
C 18.60469 13.38898 -0.01979
C 27.20001 11.46941 0.02198
C 28.22861 23.24704 -0.00621
C 20.91158 17.91742 0.0106
C 19.80109 17.07855 -0.01154
C 19.84376 15.62017 -0.01721
C 21.07178 14.94804 -0.02422
C 21.23016 13.51949 0.01277
C 19.89717 12.78639 0.00096
C 19.75541 11.37335 -0.01527
C 20.95502 10.6037 0.01087
C 20.98214 9.18847 0.00199
C 19.72695 8.47435 0.01511
C 20.79315 19.17124 -0.01594
C 19.6533 7.06002 -0.00478
C 20.89053 5.0429 -0.01185
C 19.66231 4.2744 0.01126
C 19.68124 2.85039 0.01852
C 20.93605 2.11691 -0.00381
C 20.87791 0.71123 0.03046
C 19.64536 0.00113 0.0296
C 22.05705 32.75098 0.03374
C 23.30711 31.94329 -0.02845
C 23.3082 30.46994 -0.03213
C 22.08941 29.79303 0.02239
C 20.91926 6.49538 -0.01662
C 22.0124 28.33763 0.01153
C 19.66171 19.97662 0.00742
C 20.82411 22.10844 0.00675
C 17.19585 11.27995 -0.01581
C 18.4897 10.66896 0.01452
C 18.53373 9.24913 0.04892
C 17.25041 8.50928 -0.00111
C 17.19725 7.13642 -0.03557
C 18.35454 6.35967 0.03754
C 18.41356 4.93395 0.01739
C 17.23212 4.21918 0.00755
C 17.18254 2.80774 -0.0054
C 18.46827 2.17704 0.00667
C 19.61533 21.34759 -0.00311
C 18.41143 0.73465 0.00143
C 19.5772 32.67648 0.00364
C 20.8144 31.94414 -0.00831
C 20.8842 30.50529 -0.02957
C 19.62925 29.76572 -0.04422
C 19.59327 28.42266 0.00654
C 20.81206 27.76249 -0.00703
C 20.77971 26.32269 -0.04076
C 19.58798 25.58092 -0.00652
C 19.56352 24.19982 0.0058
C 20.83265 23.59587 -0.00865
C 17.16191 0.1242 -0.017
C 23.22882 27.7439 0.02734
C 23.31741 26.31457 -0.0055
C 22.01897 25.62888 0.01515
C 23.96888 12.85166 -0.01052
C 24.54688 11.47063 -0.01679
C 26.00073 10.80358 0.00367
C 25.91974 9.28435 0.04306
C 24.67039 8.57713 0.00996
C 24.60902 7.12436 0.00195
C 25.78536 6.39069 -0.00802
C 25.76734 4.92256 -0.00218
C 24.57471 4.29622 -0.01654
C 24.5338 2.83514 -0.00037
C 25.66374 23.44767 0.00684
C 25.78725 2.09337 -0.0032
C 24.43824 34.07691 -0.02815
C 26.99201 32.70433 -0.00942
C 28.24269 31.97507 0.00487
C 28.21971 30.54313 0.00826
C 26.99055 29.82657 -0.00294
C 27.03012 28.3146 0.00152
C 28.16151 27.63396 0.01257
C 28.15596 26.16625 0.02316
C 26.98407 25.48198 0.04185
C 27.00247 24.02976 0.00194
C 25.66625 0.73306 0.00622
C 24.42874 24.12684 -0.01154
C 24.48535 25.51939 -0.0264
C 25.82144 26.23512 -0.00938
C 22.06101 24.21543 -0.00225
C 23.19443 23.45508 0.00071
C 23.18378 22.07358 -0.01107
C 22.06994 21.46815 -0.01586
C 22.48451 12.75011 -0.01971
C 22.20843 11.38848 -0.02118
C 23.39458 10.63244 0.00733
C 23.48671 9.16835 -0.00178
C 22.14038 8.50412 0.00768
C 22.14894 7.15564 -0.0276
C 23.32936 6.41003 0.03005
C 23.37329 4.97404 -0.04078
C 22.13213 4.26202 0.02117
C 22.09626 2.80722 0.02737
C 23.34407 2.18316 -0.00498
C 23.29514 0.74 0.00135
C 22.11192 0.01161 0.03102
C 24.46689 32.67542 0.02555
C 25.6915 32.00727 0.01423
C 25.78006 30.52814 -0.00285
C 24.5778 29.8336 -0.009
C 24.60976 28.41097 -0.01199
C 25.82656 27.60494 -0.00229
C 28.26212 21.85668 0.02611
C 2.43093 32.69924 0.03345
