428
Graphene
C 0.01353 0.01244 0.01295
C 12.30928 2.82773 0.03589
C 13.50244 2.14452 -0.02759
C 13.53044 0.73827 0.0402
C 12.29722 34.06196 0.00572
C 14.74982 32.71027 0.03592
C 15.98559 31.97155 0.00406
C 15.95286 30.50028 0.00943
C 14.72787 29.83431 0.02841
C 14.7338 28.34132 -0.01111
C 15.98957 27.72395 -0.01275
C 12.31226 4.2794 -0.00033
C 16.00834 26.25845 0.00985
C 14.75443 24.15217 -0.00428
C 16.00498 23.42213 0.03101
C 15.95632 22.02742 -0.01536
C 14.75337 21.28232 -0.02689
C 14.78325 19.87623 -0.01046
C 16.00205 19.14761 -0.00891
C 16.03372 17.70902 0.02819
C 14.73889 17.04734 0.00165
C 14.74874 15.65674 -0.02971
C 15.98467 14.88269 0.02894
C 14.74193 25.59377 -0.02245
C 13.51265 5.03998 -0.01062
C 13.5286 6.42667 0.01364
C 12.34078 7.11943 -0.00719
C 13.53441 31.97833 0.00685
C 13.54006 30.51277 0.02888
C 12.28986 29.83035 -0.00482
C 12.28678 28.36926 -0.01384
C 13.54947 27.69536 0.03693
C 13.52295 26.28405 0.01745
C 12.2639 25.57471 0.00488
C 12.24953 24.17791 -0.01004
C 13.52261 23.4395 -0.02896
C 13.53845 22.03318 -0.00131
C 12.33528 21.28406 -0.01118
C 12.31499 19.87948 -0.014
C 13.50975 19.14927 0.02147
C 13.52771 17.77741 0.00373
C 12.31125 17.05139 -0.00191
C 12.30567 15.60911 0.00438
C 13.51351 14.9179 0.01291
C 13.58589 13.49646 0.00093
C 12.30549 12.78436 0.00057
C 12.3107 11.38784 -0.01634
C 13.53435 10.70299 -0.00334
C 13.52992 9.26242 0.02339
C 12.30204 8.51299 0.01641
C 15.97735 13.49785 -0.01789
C 14.75329 12.7977 0.00444
C 14.74944 11.35027 -0.00925
C 15.97177 10.6559 0.01877
C 18.43975 14.94201 0.00228
C 18.45053 13.4701 0.00798
C 17.20336 12.84079 0.00422
C 17.22782 11.32041 0.0351
C 18.44229 10.62562 -0.03113
C 18.44738 9.21581 0.02098
C 17.23891 8.47781 0.01848
C 17.20366 7.11221 -0.00619
C 18.42999 6.40274 -0.02162
C 18.44779 4.96271 0.00889
C 17.20293 4.25868 -0.00481
C 17.18869 2.84811 0.00979
C 18.44265 2.1495 0.01443
C 18.41557 0.69535 0.03505
C 17.1802 0.0126 -0.02815
C 19.6897 32.70021 -0.04147
C 20.89284 31.98394 -0.05302
C 20.91022 30.50239 0.00213
C 19.67232 29.80728 -0.00066
C 19.68093 28.41121 -0.00289
C 20.95551 27.70757 0.00028
C 20.94647 26.27365 -0.02213
C 19.6726 25.57643 0.03698
C 17.22198 15.59263 -0.00114
C 12.29377 32.65744 0.00895
C 17.21935 17.00617 -0.02696
C 18.4654 19.18743 -0.0108
C 15.99324 9.22794 0.01363
C 14.74731 8.50275 -0.02162
C 14.70874 7.11662 0.00415
C 15.99855 6.39316 -0.0014
C 15.97186 4.98111 0.02162
C 14.75929 4.24696 0.0076
C 14.77094 2.82884 0.01241
C 15.98586 2.09592 -0.01454
C 15.97255 0.69418 0.01945
C 14.72695 0.0263 0.01416
C 17.20986 32.64844 0.03542
C 18.47381 31.93924 0.02299
C 18.47079 30.51175 0.00244
C 17.24915 29.82972 -0.01717
C 17.22149 28.40888 0.05265
C 18.44076 27.64591 -0.01952
C 18.42044 26.26108 -0.02813
C 17.21633 25.55011 0.00374
C 17.19785 24.14944 0.00052
C 18.48027 23.4192 -0.03682
C 18.44633 22.02239 0.01965
C 17.20775 21.281 0.02058
C 17.18872 19.88184 -0.01957
C 18.45807 17.75576 -0.00368
C 19.67031 24.11668 -0.00109
C 9.85849 0.00291 0.00393
C 11.05855 2.17698 -0.0008
C 6.13184 31.96716 -0.00039
C 6.13178 27.66987 0.0064
C 6.12521 26.29314 0.00211
C 4.94676 25.55 -0.00449
C 4.92805 24.09851 -0.01979
C 4.88261 21.29825 0.02784
C 4.87071 19.89424 -0.01977
C 6.16555 19.13348 -0.00561
C 6.1876 17.7652 0.00208
C 4.92076 17.04623 0.01707
C 4.96165 32.65055 0.02728
C 4.94347 15.65905 0.02769
C 6.13899 13.47384 -0.04999
C 4.92676 12.80667 0.04505
C 4.90801 11.33756 0.03284
C 6.14859 10.62047 -0.04307
C 6.11933 9.21238 0.03189
C 4.94272 8.51282 0.00031
C 4.89812 7.10911 -0.003
C 6.14803 6.39309 0.01402
C 6.10509 4.96679 0.02379
C 4.91822 4.32301 0.00907
C 6.17347 14.90431 -0.03291
C 2.45516 34.07709 0.00245
C 3.71529 0.7281 0.00081
C 3.67727 2.08196 -0.02805
C 3.70858 26.31572 0.00787
C 2.45531 25.5756 0.02426
C 2.48009 24.17553 0.01218
C 3.68267 23.41381 -0.01471
C 3.65474 21.98778 -0.02827
C 2.46072 21.29147 0.01078
C 2.48623 19.86921 -0.00112
C 3.71324 19.13026 0.03345
C 3.70499 17.72458 0.00748
C 2.46748 17.03819 0.00662
C 2.4188 15.62043 -0.0154
C 3.70343 14.88812 -0.01299
C 3.74604 13.48089 -0.00407
C 2.50272 12.79011 0.01138
C 2.48733 11.29863 0.03278
C 3.67342 10.61508 -0.00177
C 3.66637 9.25276 0.04421
C 2.43078 8.49185 0.00088
C 2.46397 7.10761 0.00828
C 3.66779 6.44045 -0.02375
C 3.70114 4.97305 0.00558
C 2.46199 4.24842 -0.0059
C 2.48268 2.83187 -0.01386
C 4.91146 2.85775 0.00643
C 6.13988 2.14563 -0.01509
C 6.1534 0.6851 0.03267
C 4.94273 0.02192 0.02374
C 11.11238 31.94441 -0.02929
C 11.07208 30.54202 -0.00966
C 9.8019 29.83448 -0.03337
C 9.85543 28.39604 0.01227
C 11.10915 27.74016 0.00873
C 11.07583 26.27647 -0.00049
C 9.84709 19.89194 0.00848
C 11.07786 19.21111 -0.01303
C 11.0619 17.80473 -0.01378
C 9.86539 17.03887 0.02635
C 9.81835 15.6352 0.0127
C 11.0744 14.9167 0.01396
C 11.08615 13.51022 0.01849
C 9.8781 12.78263 -0.01142
C 9.81522 11.35914 -0.00562
C 11.05782 10.63427 -0.00494
C 11.09087 9.22871 0.00054
C 9.81023 8.49696 0.03007
C 9.82534 7.10133 -0.00095
C 11.03838 6.39047 0.01572
C 11.04319 4.9543 -0.04848
C 9.82858 4.2715 -0.00892
C 9.79638 2.85173 -0.01362
C 9.86525 32.7059 0.03368
C 11.08856 0.68836 0.0288
C 7.36907 0.02807 -0.00077
C 8.55493 2.15407 0.0276
C 7.42491 32.65863 0.00402
C 8.61005 31.97154 0.0073
C 8.56259 30.53223 0.0174
C 7.3396 29.8131 0.03828
C 7.37998 28.35735 0.01226
C 8.56287 27.75615 -0.00279
C 7.36893 19.88277 0.01996
C 8.61169 19.19444 -0.03996
C 8.6223 17.73498 0.01465
C 7.37291 17.03814 -0.00074
C 7.39581 15.63581 -0.00518
C 8.66329 14.9168 0.0086
C 8.61326 13.50708 -0.00643
C 7.364 12.79962 0.017
C 7.39006 11.35456 -0.03113
C 8.6088 10.65137 -0.02566
C 8.57231 9.26054 -0.00094
C 7.37746 8.49469 0.02322
C 7.4026 7.04924 -0.00725
C 8.6268 6.38984 -0.05697
C 8.60317 5.00251 0.01087
C 7.37938 4.26345 -0.01343
C 7.37168 2.85058 0.00988
C 8.59696 0.72523 0.01305
C 20.89732 23.39485 -0.00491
C 20.87434 22.01576 0.03338
C 19.71 21.32144 -0.0258
C 29.50338 12.75947 -0.01461
C 29.54872 11.34523 -0.02155
C 30.76309 10.62961 -0.00944
C 30.74105 9.2858 -0.03735
C 29.50298 8.49551 -0.00971
C 29.50368 7.10247 0.01518
C 30.7751 6.38987 0.01908
C 30.73428 4.95984 0.07705
C 29.4747 4.25564 0.0103
C 29.51028 2.84625 0.02108
C 30.72946 13.50709 -0.01303
C 30.73898 2.11464 0.00716
C 29.52193 34.03263 0.00346
C 31.9612 32.64655 0.01713
C 33.21062 31.96453 -0.01694
C 33.23858 30.52021 0.01428
C 31.98283 29.77202 -0.02142
C 32.00509 28.39846 0.0544
C 33.22817 27.6941 0.00026
C 33.17284 26.26546 0.00682
C 31.97352 25.53794 -0.01779
C 31.9803 24.15994 0.03794
C 30.74338 0.69737 0.00307
C 30.79322 14.95192 -0.0405
C 29.51072 15.60899 0.01705
C 29.51723 17.05993 0.0101
C 27.03429 7.10873 0.02198
C 28.30913 6.38134 0.01094
C 28.29201 4.96486 0.00235
C 27.06059 4.27016 0.01495
C 27.0756 2.85222 0.01259
C 28.2774 2.09854 0.01799
C 28.27399 0.71194 0.01699
C 27.06081 34.07411 -0.00416
C 29.49514 32.68369 0.01177
C 30.75159 31.89237 0.04266
C 30.72108 30.51956 0.01324
C 29.51109 29.80746 0.0014
C 29.54452 28.38229 0.00924
C 30.74305 27.64757 0.02326
C 30.69352 26.26583 0.00261
C 29.50228 25.51713 0.03265
C 29.49943 24.08077 -0.02049
C 30.7478 23.41945 -0.01854
C 30.73761 22.06181 -0.01415
C 29.55631 21.33854 -0.03039
C 29.52315 19.85708 0.01836
C 30.73711 19.15119 0.03531
C 30.73856 17.71469 -0.00669
C 33.19789 23.42291 0.01927
C 33.21767 22.0027 0.01574
C 32.02446 21.28836 -0.02383
C 31.98079 19.8815 -0.01429
C 34.40432 24.16703 0.03076
C 1.23071 23.46188 0.00723
C 1.20261 22.05279 0.02712
C 34.41311 21.30401 -0.02213
C 34.41462 19.88438 0.01951
C 1.24858 19.2044 -0.01678
C 1.2304 17.73869 0.01223
C 0.01236 17.01018 0.00648
C 34.40996 15.59697 0.02114
C 1.21731 14.90085 -0.02957
C 1.2275 13.50859 0.00343
C 34.42974 12.77903 -0.02656
C 34.41523 11.35037 -0.02442
C 1.21905 10.6712 -0.00027
C 1.20977 9.21602 -0.00583
C 34.42173 8.5335 -0.02302
C 0.01304 7.10281 -0.02849
C 1.18219 6.33783 0.02931
C 1.20413 4.94898 0.00628
C 0.01123 4.22673 -0.0345
C 0.00483 2.80766 -0.00931
C 1.24598 2.15356 -0.00939
C 1.27104 0.68997 -0.00468
C 0.00315 25.58692 -0.05239
C 27.08374 8.54252 0.02611
C 1.23371 26.26698 -0.00598
C 0.01779 28.3997 -0.01037
C 33.20029 19.16738 -0.0136
C 33.16435 17.75488 0.00594
C 31.98209 17.05324 -0.02474
C 32.02009 15.57926 0.00369
C 33.21397 14.90281 0.00455
C 33.19676 13.47391 -0.00644
C 31.92478 12.77932 -0.01839
C 31.96481 11.30377 0.00137
C 33.1662 10.64608 0.00199
C 33.19592 9.23369 0.04381
C 31.9992 8.50348 0.02806
C 31.91119 7.12735 0.01504
C 33.17035 6.37093 -0.00069
C 33.20983 4.96717 0.04926
C 31.97856 4.25303 -0.03838
C 31.99774 2.85358 0.00349
C 33.21512 2.0955 -0.00323
C 33.21516 0.679 -0.00841
C 31.97135 0.00731 0.0001
C 0.0033 32.62455 -0.02927
C 1.21433 31.95286 -0.01404
C 1.22446 30.53639 0.01027
C 0.00848 29.78841 0.01831
C 1.26458 27.63702 -0.00439
C 28.27283 9.22568 -0.00621
C 28.28894 10.64365 0.00194
C 27.07165 11.34837 0.04185
C 22.15646 25.55434 0.00675
C 22.14442 24.14719 -0.00311
C 23.36082 23.42061 0.00742
C 23.3915 21.97451 -0.01594
C 22.16944 21.27548 0.0106
C 22.15236 19.90534 -0.01154
C 23.36515 19.1877 -0.01721
C 23.33562 17.766 -0.02422
C 22.15305 16.98887 0.01277
C 22.09617 15.5937 0.00096
C 23.36209 14.92546 -0.01527
C 23.36878 13.48815 0.01087
C 22.13115 12.76046 0.00199
C 22.12026 11.35895 0.01511
C 23.35485 10.66338 -0.00478
C 23.34645 9.22455 -0.01662
C 22.14039 8.51992 -0.01185
C 22.16146 7.1034 0.01126
C 23.34944 6.34465 0.01852
C 23.38351 4.97612 -0.00381
C 22.15461 4.24613 0.03046
C 22.17428 2.82903 0.0296
C 23.32349 2.09335 0.03374
C 23.37207 26.27295 -0.00865
C 23.35775 0.68248 -0.02845
C 23.43588 27.70196 0.0058
C 22.14228 29.82703 -0.04076
C 19.6691 19.85816 -0.0331
C 20.88049 19.1894 -0.00316
C 20.86599 17.75663 0.02188
C 19.67368 17.03935 -0.01979
C 19.66591 15.65205 0.02691
C 20.89815 14.91249 -0.01581
C 20.92207 13.47617 0.01452
C 19.64222 12.74111 0.04892
C 19.70055 11.37186 -0.00111
C 20.87512 10.63608 -0.03557
C 20.91419 9.22295 0.03754
C 19.67392 8.51538 0.01739
C 19.65642 7.09471 0.00755
C 20.92333 6.37331 -0.0054
C 20.8915 4.98316 0.00667
C 19.6958 4.20759 0.00143
C 19.69215 2.83144 -0.017
C 20.91434 2.1612 0.00364
C 20.92677 0.71678 -0.00831
C 19.71748 0.05093 -0.02957
C 22.13408 32.67961 -0.04422
C 23.34689 31.95509 0.00654
C 23.34215 30.48613 -0.00703
C 22.17338 28.43189 -0.00652
C 3.67059 31.95746 0.00267
C 22.13393 34.05417 -0.03213
C 25.87533 31.95977 0.01153
C 25.82426 2.14669 -0.0264
C 25.85178 0.7338 -0.01154
C 24.57231 34.06109 0.00684
C 27.0438 32.63818 -0.01052
C 28.32565 31.93775 -0.01679
C 28.25714 30.5377 0.00367
C 27.06402 29.82768 0.04306
C 27.04126 28.39068 0.00996
C 28.27585 27.68626 0.00195
C 28.29708 26.28178 -0.00802
C 27.07275 25.57897 -0.00218
C 27.04441 24.17257 -0.01654
C 28.30351 23.42596 -0.00037
C 28.29153 22.0238 -0.0032
C 27.04736 21.28249 0.00622
C 27.06018 19.86253 -0.02815
C 28.29204 19.18429 -0.00942
C 28.28029 17.72226 0.00487
C 27.03108 17.0167 0.00826
C 27.07657 15.63893 -0.00294
C 28.26763 14.91664 0.00152
C 28.3036 13.50585 0.01257
C 27.04046 12.7742 0.02316
C 24.62596 2.85454 -0.00938
C 24.60628 32.68721 0.02239
C 24.54336 4.26815 -0.00229
C 25.84967 6.3864 -0.009
C 25.77725 30.49288 0.02734
C 24.55985 29.81949 -0.0055
C 24.5885 28.40756 0.01515
C 25.79108 27.70091 -0.00225
C 25.81241 26.30168 0.00071
C 24.56699 25.50847 -0.01107
C 24.59054 24.12741 -0.01586
C 25.82211 23.46233 -0.01971
C 25.8143 22.02639 -0.02118
C 24.56346 21.26866 0.00733
C 24.60613 19.842 -0.00178
C 25.79249 19.19552 0.00768
C 25.81756 17.78013 -0.0276
C 24.58585 17.0771 0.03005
C 24.5678 15.58782 -0.04078
C 25.81283 14.91052 0.02117
C 25.84825 13.49816 0.02737
C 24.63182 12.81318 -0.00498
C 24.60039 11.36932 0.00135
C 25.84563 10.64655 0.03102
C 25.80256 9.19862 0.02555
C 24.60057 8.54358 0.01423
C 24.59324 7.07284 -0.00285
C 25.82799 4.96225 -0.01199
C 2.44868 32.65783 0.01913
