390
Graphene
C 34.29285 34.07177 0.01295
C 12.30883 12.98235 0.01363
C 12.36529 11.54604 -0.02162
C 13.57306 10.69114 0.00415
C 13.51513 9.22345 -0.0014
C 12.29346 8.56517 0.02162
C 12.36541 7.17615 0.0076
C 13.55608 6.41544 0.01241
C 13.54095 5.01117 -0.01454
C 12.36008 4.27693 0.01945
C 13.51257 13.67848 0.01877
C 12.33754 2.85082 0.01416
C 13.5127 0.63158 0.02299
C 12.32952 34.0235 0.00244
C 14.81364 32.58799 -0.01717
C 15.98629 31.91192 0.05265
C 15.88057 30.41398 -0.01952
C 14.57144 29.59292 -0.02813
C 14.4494 28.28855 0.00374
C 14.94539 15.67283 0.00052
C 15.97326 14.77073 -0.03682
C 13.5635 2.12252 0.03542
C 15.95528 13.34905 0.01965
C 13.50995 15.21821 -0.00925
C 11.48579 28.37799 -0.01789
C 9.83002 15.68422 0.0402
C 11.03361 15.01995 0.00572
C 11.07718 13.61035 0.03592
C 9.85896 12.82475 0.00406
C 9.92967 11.41176 0.00943
C 11.17884 10.6884 0.02841
C 11.10448 9.32555 -0.01111
C 9.83092 8.54244 -0.01275
C 9.7979 7.12887 0.00985
C 12.18152 15.81355 0.00444
C 11.10414 6.39749 -0.02245
C 9.86766 4.31567 0.03101
C 9.83326 2.90193 -0.01536
C 11.07157 2.1757 -0.02689
C 11.05317 0.68426 -0.01046
C 9.79216 0.01611 -0.00891
C 12.31133 32.66265 0.02819
C 13.48035 31.86829 0.00165
C 13.29418 30.39615 -0.02971
C 12.10726 29.7409 0.02894
C 11.13898 4.98118 -0.00428
C 14.70758 12.83719 0.02058
C 14.76314 11.38929 -0.01957
C 16.03347 10.64134 -0.0108
C 18.42462 9.15855 0.03698
C 17.22063 8.49273 -0.00109
C 17.16051 7.14399 -0.00491
C 18.38258 6.37609 0.03338
C 18.43793 4.96762 -0.0258
C 17.24088 4.32341 -0.0331
C 17.23652 2.85275 -0.00316
C 18.41625 2.17319 0.02188
C 18.49248 0.68795 -0.01979
C 18.47179 10.61194 -0.02213
C 17.25245 34.00799 0.02691
C 20.91551 31.81437 0.01452
C 20.91804 30.38105 0.04892
C 19.70119 29.67295 -0.00111
C 19.73232 28.20131 -0.03557
C 20.88168 27.58117 0.03754
C 19.51527 19.86347 0.01739
C 20.90189 19.36963 0.00755
C 20.70559 17.92563 -0.0054
C 19.48401 17.09551 0.00667
C 19.60448 32.5883 -0.01581
C 17.22851 11.33564 0.00028
C 17.22047 12.71476 -0.00289
C 18.46884 13.38131 -0.00066
C 15.9977 9.19429 -0.00368
C 14.75018 8.55259 -0.02696
C 14.77552 7.15316 -0.00114
C 15.96724 6.42636 0.00228
C 16.04041 4.99117 0.00798
C 14.85887 4.22309 0.00422
C 14.76746 2.8382 0.0351
C 16.05186 2.09057 -0.03113
C 16.00452 0.68826 0.02098
C 14.83161 34.00158 0.01848
C 17.18647 32.61018 -0.00619
C 18.39197 31.85357 -0.02162
C 18.47372 30.45768 0.00889
C 17.17998 29.79112 -0.00481
C 17.16088 28.40124 0.00979
C 18.34294 27.65042 0.01443
C 18.39313 19.09304 0.03505
C 18.1234 17.64932 -0.02815
C 16.82237 16.85388 -0.04147
C 17.2081 15.51634 -0.05302
C 18.50072 14.8189 0.00213
C 9.89688 16.99669 -0.02759
C 10.2712 28.54146 0.03589
C 9.84073 29.90764 -0.00033
C 10.91918 30.65562 -0.01062
C 2.37873 4.32056 -0.00518
C 2.35362 2.90172 0.0086
C 3.62647 2.21918 -0.00643
C 3.63394 0.75941 0.017
C 2.40033 0.0287 -0.03113
C 4.84405 32.69042 -0.02566
C 6.05941 31.93926 -0.00094
C 6.16539 30.54291 0.02322
C 4.87154 29.92253 -0.00725
C 3.66149 5.0566 -0.00074
C 4.86406 28.50237 -0.05697
C 6.16996 26.26825 -0.01343
C 4.86781 25.58719 0.00988
C 4.71755 24.19892 0.0276
C 5.96688 23.51099 0.01305
C 6.06517 22.12948 -0.00077
C 4.86959 21.35992 0.03368
C 4.93346 19.93155 -0.02929
C 6.21209 19.3067 -0.00966
C 6.22154 17.81175 -0.03337
C 6.20278 27.7364 0.01087
C 3.61535 6.40982 0.01465
C 2.3628 7.11385 -0.03996
C 2.40817 8.55849 0.01996
C 3.66652 30.60949 -0.03291
C 2.41907 29.85787 -0.04999
C 2.38787 28.4077 0.04505
C 3.66475 27.76308 0.03284
C 3.69372 26.29792 -0.04307
C 2.50692 25.60885 0.03189
C 2.43239 24.17413 0.00031
C 3.52096 23.37953 -0.003
C 3.5872 21.997 0.01402
C 2.36356 21.27636 0.02379
C 2.46518 19.86735 0.00907
C 3.72754 19.14283 0.00643
C 3.73571 17.76405 -0.01509
C 2.53403 17.0703 0.03267
C 2.46568 15.62741 0.02374
C 3.70111 14.89527 0.00402
C 3.61406 13.44987 0.0073
C 2.38432 12.82729 0.0174
C 2.39587 11.42365 0.03828
C 3.57684 10.65438 0.01226
C 3.68195 9.22521 -0.00279
C 4.96755 17.1426 0.01227
C 19.66043 15.63351 0.00143
C 4.91962 15.62053 0.00873
C 6.20757 13.53374 0.00848
C 8.75809 17.83445 0.01745
C 7.52023 17.09451 0.00488
C 7.43862 15.7426 -0.01004
C 8.55087 14.95136 -0.02896
C 8.57006 13.47079 -0.00131
C 7.38522 12.83162 -0.01118
C 7.39605 11.39854 -0.014
C 8.64907 10.68983 0.02147
C 8.6468 9.23246 0.00373
C 8.51133 19.23397 0.03693
C 7.41649 8.53986 -0.00191
C 8.62728 6.43805 0.01291
C 8.63634 4.99965 0.00093
C 7.40335 4.35585 0.00057
C 7.35785 2.92463 -0.01634
C 8.49842 2.17012 -0.00334
C 8.64167 0.73545 0.02339
C 7.38274 0.1088 0.01641
C 9.79631 32.71462 -0.00719
C 11.05467 32.05584 0.01364
C 7.35424 7.2128 0.00438
C 7.40823 20.13233 -0.01384
C 7.28261 21.58927 -0.00482
C 7.25484 23.98493 0.02888
C 4.86114 12.80064 -0.01303
C 4.82461 11.3257 -0.01378
C 6.12351 10.69002 0.02635
C 6.15403 9.22531 0.0127
C 4.87377 8.60049 0.01396
C 4.87245 7.15605 0.01849
C 6.14395 6.4407 -0.01142
C 6.13719 5.03807 -0.00562
C 4.84538 4.42683 -0.00494
C 4.82233 2.91744 0.00054
C 6.06902 2.2481 0.03007
C 6.05277 0.8159 -0.00095
C 4.87719 0.0797 0.01572
C 7.29894 32.79281 -0.04848
C 8.51639 32.11918 -0.00892
C 8.59274 30.64095 -0.01362
C 7.38554 29.88555 -0.0008
C 7.47646 28.47713 0.0288
C 8.84313 27.75391 0.00393
C 8.48614 26.4648 0.00895
C 7.44954 25.4366 0.00685
C 6.14583 14.93295 -0.00049
C 20.85107 14.91731 -0.017
C 20.83782 13.41868 0.00364
C 19.62987 12.72562 -0.00831
C 29.47883 7.10569 0.07705
C 30.69104 6.34818 0.0103
C 30.62168 4.84786 0.02108
C 29.37293 4.30565 0.00716
C 30.62069 0.83106 0.00307
C 29.24727 0.06801 0.00346
C 31.86898 32.69284 0.01713
C 33.06096 31.88092 -0.01694
C 33.1802 30.5031 0.01428
C 29.4841 8.55626 0.01908
C 31.97001 29.90021 -0.02142
C 33.19541 27.64203 0.00026
C 33.15791 26.24593 0.00682
C 32.00079 25.51855 -0.01779
C 31.94761 24.12618 0.03794
C 33.13902 23.33485 0.01927
C 33.16216 21.94794 0.01574
C 31.96493 21.17837 -0.02383
C 31.97342 19.81857 -0.01429
C 33.21515 19.17055 -0.0136
C 31.93126 28.40142 0.0544
C 30.64871 9.27799 0.01518
C 30.70372 10.69495 -0.00971
C 29.49073 11.36186 -0.03735
C 27.19748 33.97998 0.04266
C 29.46364 32.68894 0.01324
C 30.63978 32.01633 0.0014
C 30.65347 30.56941 0.00924
C 29.48034 29.81637 0.02326
C 29.53484 28.36175 0.00261
C 30.74651 27.67646 0.03265
C 30.80866 26.22812 -0.02049
C 29.56627 25.52426 -0.01854
C 29.54938 24.18973 -0.01415
C 30.71637 23.41578 -0.03039
C 30.79098 21.99711 0.01836
C 29.58018 21.32753 0.03531
C 29.51446 19.95442 -0.00669
C 30.71787 19.13347 0.0101
C 30.70943 17.73568 0.01705
C 29.48129 17.0429 -0.0405
C 29.44398 15.66124 -0.01303
C 30.66316 14.89744 -0.01461
C 30.62332 13.49488 -0.02155
C 29.42848 12.88694 -0.00944
C 33.23936 17.76126 0.00594
C 27.10068 2.8758 0.01177
C 31.93504 17.07586 -0.02474
C 33.18983 14.99393 0.00455
C 0.01247 21.33414 -0.02213
C 0.02766 19.86698 0.01951
C 1.20402 19.16224 -0.01678
C 1.2881 17.72272 0.01223
C 0.01059 17.06841 0.00648
C 0.01337 15.61086 0.02114
C 1.17848 14.93452 -0.02957
C 1.19418 13.54704 0.00343
C 34.40158 12.88175 -0.02656
C 1.23495 22.03796 0.02712
C 34.37989 11.40424 -0.02442
C 1.18071 9.28444 -0.00583
C 34.34472 8.59285 -0.02302
C 34.3736 7.14996 -0.02849
C 1.18292 6.42437 0.02931
C 1.14779 4.98859 0.00628
C 34.31885 4.32654 -0.0345
C 34.35009 2.83582 -0.00931
C 1.12285 2.11168 -0.00939
C 1.12087 0.67634 -0.00468
C 1.15027 10.67434 -0.00027
C 1.2659 23.40423 0.00723
C 0.01678 24.06384 0.03076
C 34.39935 25.55203 -0.05239
C 33.15113 13.61357 -0.00644
C 31.93363 12.78336 -0.01839
C 31.95074 11.36037 0.00137
C 33.15926 10.68448 0.00199
C 33.12529 9.30568 0.04381
C 31.85156 8.56339 0.02806
C 31.89877 7.10635 0.01504
C 33.13115 6.4231 -0.00069
C 33.08815 4.96207 0.04926
C 31.85337 4.12883 -0.03838
C 31.78511 2.64845 0.00349
C 33.09165 2.12335 -0.00323
C 33.15458 0.73758 -0.00841
C 31.80139 0.05902 0.0001
C 34.2873 32.6518 -0.02927
C 1.11311 31.97092 -0.01404
C 1.1539 30.54608 0.01027
C 34.41424 29.83189 0.01831
C 34.36873 28.35801 -0.01037
C 1.12562 27.73575 -0.00439
C 1.22565 26.29867 -0.00598
C 31.91184 15.69501 0.00369
C 3.64098 31.95568 0.02769
C 27.0093 4.24101 -0.00416
C 28.21625 6.45161 0.01799
C 22.08893 12.76753 0.01126
C 22.08926 11.36716 0.01852
C 23.26168 10.63166 -0.00381
C 23.33004 9.16881 0.03046
C 22.14025 8.4258 0.0296
C 22.16221 7.01935 0.03374
C 23.35079 6.35676 -0.02845
C 23.39706 4.94584 -0.03213
C 22.15271 4.18822 0.02239
C 23.30346 13.56367 -0.01185
C 22.06776 2.83138 0.01153
C 23.45976 0.67739 -0.0055
C 22.14432 33.99324 0.01515
C 24.59973 32.58291 -0.00225
C 25.83143 31.88122 0.00071
C 25.83694 30.49699 -0.01107
C 24.52661 29.82133 -0.01586
C 24.63867 28.35135 -0.01971
C 25.87797 27.74671 -0.02118
C 25.7297 26.28368 0.00733
C 23.39443 2.08192 0.02734
C 23.26732 14.99298 -0.01662
C 22.00576 15.68766 -0.00478
C 21.98871 17.10588 0.01511
C 19.68931 11.30518 -0.02957
C 20.85954 10.64655 -0.04422
C 20.9272 9.2174 0.00654
C 19.68985 8.54724 -0.00703
C 19.63018 7.02717 -0.04076
C 20.8575 6.3237 -0.00652
C 20.91569 4.94477 0.0058
C 19.70534 4.23324 -0.00865
C 19.6704 2.78084 0.00675
C 20.93008 2.03139 -0.00311
C 20.93057 0.6092 0.00742
C 19.66426 34.02869 -0.01594
C 22.12103 32.53662 0.0106
C 23.3412 31.8336 -0.01154
C 23.26913 30.44077 -0.01721
C 22.13133 29.61452 -0.02422
C 22.19784 28.07206 0.01277
C 23.62972 27.45038 0.00096
C 22.15695 19.96707 -0.01527
C 23.3298 19.20114 0.01087
C 23.20358 17.82196 0.00199
C 24.3793 25.90386 -0.00178
C 28.19637 5.01332 0.01699
C 25.87478 23.58892 0.00768
C 24.56429 21.34208 0.03005
C 28.34744 27.65757 -0.00037
C 28.38068 26.2419 -0.0032
C 27.11475 25.58868 0.00622
C 27.04811 24.17332 -0.02815
C 28.32007 23.40393 -0.00942
C 28.26093 22.03781 0.00487
C 26.98089 21.36295 0.00826
C 26.98478 19.92705 -0.00294
C 28.20639 19.293 0.00152
C 27.10752 28.37539 -0.01654
C 28.25326 17.80837 0.01257
C 26.95082 15.64413 0.04185
C 28.17604 14.96358 0.00194
C 28.23136 13.57585 -0.00621
C 27.01713 12.77302 0.02611
C 27.01905 11.35058 0.02198
C 28.20116 10.65331 0.01094
C 28.19649 9.24565 0.00235
C 27.01988 8.47825 0.01495
C 26.99613 7.04165 0.01259
C 27.01254 17.06816 0.02316
C 27.03069 29.76318 -0.00218
C 28.31612 30.47476 -0.00802
C 28.31075 31.88035 0.00195
C 24.62546 19.95922 -0.04078
C 25.85882 19.21246 0.02117
C 25.75903 17.77246 0.02737
C 24.42104 17.08191 -0.00498
C 24.51142 15.68581 0.00135
C 25.73139 14.92121 0.03102
C 25.78949 13.47722 0.02555
C 24.52764 12.75657 0.01423
C 24.54418 11.36446 -0.00285
C 25.79352 10.61514 -0.009
C 25.77699 9.17202 -0.01199
C 24.60881 8.46026 -0.00229
C 24.54908 7.08943 -0.00938
C 25.83729 6.37926 -0.0264
C 25.77301 4.92186 -0.01154
C 24.64995 4.17242 0.00684
C 24.62351 2.77623 -0.01052
C 25.89869 2.07743 -0.01679
C 26.0398 0.60633 0.00367
C 24.72429 33.99061 0.04306
C 27.10548 32.64737 0.00996
C 25.76109 22.14705 -0.0276
C 2.39995 32.66599 0.01707
