364
Graphene
C 34.39067 0.03929 0.01295
C 12.26162 29.82674 0.00052
C 12.2912 28.43569 -0.03682
C 13.58277 27.74966 0.01965
C 13.58597 26.29229 0.02058
C 12.32321 25.66883 -0.01957
C 12.3495 24.22087 -0.0108
C 13.5549 23.45816 -0.00368
C 13.47495 21.97562 -0.02696
C 13.51208 30.57901 0.00374
C 12.30328 21.23076 -0.00114
C 13.47842 19.06355 0.00798
C 13.69101 17.60165 0.00422
C 13.47404 9.24022 0.0351
C 12.35259 8.5093 -0.03113
C 12.19741 7.06843 0.02098
C 13.4462 6.40531 0.01848
C 13.48909 5.02245 -0.00619
C 12.26976 4.2167 -0.02162
C 12.25902 19.81686 0.00228
C 13.48916 31.96483 -0.02813
C 12.26639 32.61278 -0.01952
C 9.77086 34.04274 0.05265
C 9.72263 29.84399 0.02894
C 9.73291 28.43952 -0.01789
C 11.0338 27.7187 0.00444
C 11.04541 26.33376 -0.00925
C 9.86817 25.6316 0.01877
C 9.8957 24.22878 0.01363
C 11.10259 23.47583 -0.02162
C 11.09277 22.02448 0.00415
C 9.88883 21.34857 -0.0014
C 9.89389 19.94823 0.02162
C 11.01123 19.19794 0.0076
C 9.6953 8.49987 0.01241
C 9.81391 7.10101 -0.01454
C 10.96258 6.36534 0.01945
C 10.98796 4.93978 0.01416
C 9.77588 4.21825 0.03542
C 9.82017 2.79435 0.02299
C 11.02173 2.09981 0.00244
C 11.04511 0.64383 -0.01717
C 12.25784 2.7573 0.00889
C 13.50195 2.16259 -0.00481
C 13.48095 0.70744 0.00979
C 12.2925 34.06516 0.01443
C 15.87921 4.95811 -0.03557
C 14.68942 4.28999 0.03754
C 14.73162 2.86316 0.01739
C 15.90412 2.13691 0.00755
C 15.95725 0.70241 -0.0054
C 14.68251 34.03108 0.00667
C 17.16356 32.59558 0.00143
C 18.41685 31.88129 -0.017
C 18.43771 30.48365 0.00364
C 17.21793 29.74567 -0.00831
C 17.33158 28.3235 -0.02957
C 18.55793 27.54048 -0.04422
C 18.51384 26.10484 0.00654
C 17.25666 25.42438 -0.00703
C 17.19137 24.11721 -0.04076
C 17.00784 20.92276 -0.00652
C 17.05686 16.90699 0.0058
C 17.30522 15.64219 -0.00865
C 18.35455 14.83626 0.00675
C 15.9259 6.44727 -0.00111
C 10.97961 30.56774 -0.02971
C 14.67457 7.11475 0.04892
C 16.01493 9.19481 -0.01581
C 14.68903 32.58179 0.03505
C 15.88094 31.92735 -0.02815
C 15.98826 30.53688 -0.04147
C 14.73294 29.84424 -0.05302
C 14.82986 28.36384 0.00213
C 16.05188 27.58658 -0.00066
C 16.07368 26.1903 -0.00289
C 14.83884 25.58534 0.00028
C 14.79451 24.14636 -0.02213
C 15.99165 23.3989 0.03698
C 15.91338 21.90864 -0.00109
C 14.67779 21.28612 -0.00491
C 14.70052 19.82377 0.03338
C 16.05187 19.29772 -0.0258
C 16.08564 17.82709 -0.0331
C 14.86709 17.01576 -0.00316
C 15.80082 14.89564 0.02188
C 15.91022 13.60127 -0.01979
C 15.96818 10.62797 0.02691
C 14.79019 8.51414 0.01452
C 18.36701 13.46314 -0.00311
C 11.037 31.97541 0.00165
C 7.33285 0.02583 -0.00891
C 3.69903 6.49525 -0.01303
C 3.64426 5.01989 -0.01378
C 2.41595 4.27033 0.02635
C 2.4228 2.88239 0.0127
C 3.66879 2.12768 0.01396
C 3.61737 0.77032 0.01849
C 2.42473 0.01282 -0.01142
C 4.80152 32.74928 -0.00562
C 2.42936 7.16875 0.00848
C 6.03093 32.01012 -0.00494
C 4.8389 29.87237 0.03007
C 4.92419 28.43191 -0.00095
C 6.08171 27.73644 0.01572
C 6.17841 26.31203 -0.04848
C 4.93815 25.5894 -0.00892
C 4.93014 24.17997 -0.01362
C 6.16602 23.45172 -0.0008
C 6.18675 21.97639 0.0288
C 6.03587 30.64413 0.00054
C 2.4104 8.57674 -0.00049
C 3.67359 9.34467 0.00873
C 3.70452 10.74213 0.01227
C 3.6263 30.62496 0.0086
C 2.40489 29.79105 -0.00643
C 2.44976 28.4046 0.017
C 3.72766 27.69883 -0.03113
C 3.68445 26.32015 -0.02566
C 2.38261 25.64495 -0.00094
C 2.44041 24.15902 0.02322
C 3.73505 23.43874 -0.00725
C 3.68247 22.08245 -0.05697
C 2.48785 21.34047 0.01087
C 2.50428 19.88591 -0.01343
C 3.70319 19.15065 0.00988
C 3.72997 17.76444 0.0276
C 2.49435 17.06975 0.01305
C 2.47432 15.61847 -0.00077
C 3.77359 14.99579 0.03368
C 3.71866 13.54113 -0.02929
C 2.4609 12.84386 -0.00966
C 2.45138 11.44973 -0.03337
C 4.91668 21.32825 0.00393
C 4.94702 19.89417 0.00895
C 6.23818 19.20393 0.00685
C 6.29142 17.76041 0.02888
C 8.6484 26.36851 -0.01062
C 7.43881 25.56194 -0.00033
C 7.36636 24.16946 0.03589
C 8.64158 23.53612 -0.02759
C 8.65463 22.11565 0.0402
C 7.43386 21.29871 0.00572
C 7.47525 19.9192 0.03592
C 8.70853 19.23293 0.00406
C 8.59354 17.87975 0.00943
C 7.51235 17.24213 0.02841
C 8.62874 9.11442 -0.01111
C 7.36042 8.67098 -0.01275
C 7.36756 7.10205 0.00985
C 8.60739 6.3955 -0.02245
C 8.58562 4.98714 -0.00428
C 7.4231 4.29561 0.03101
C 7.35912 2.81983 -0.01536
C 8.58963 2.09765 -0.02689
C 8.56189 0.72072 -0.01046
C 8.5038 27.74187 0.01364
C 9.79918 32.65702 0.02819
C 7.31076 28.46737 -0.00719
C 8.46375 30.56813 0.02339
C 5.05113 17.16122 -0.00482
C 4.89414 15.7656 -0.01384
C 6.11517 14.97578 0.03693
C 6.00127 13.7338 0.01745
C 4.82991 12.82962 0.00488
C 4.93426 11.41708 -0.01004
C 6.20604 10.72078 -0.02896
C 6.12075 9.29498 -0.00131
C 4.88021 8.5895 -0.01118
C 4.85841 7.19593 -0.014
C 6.09129 6.45132 0.02147
C 6.11485 4.97581 0.00373
C 4.9184 4.26969 -0.00191
C 4.93975 2.81801 0.00438
C 6.12972 2.14837 0.01291
C 6.13632 0.7587 0.00093
C 4.88337 0.07107 0.00057
C 7.29725 32.74462 -0.01634
C 8.50021 31.99719 -0.00334
C 7.21569 29.91625 0.01641
C 17.13093 12.79162 0.00742
C 17.17053 11.33535 -0.01594
C 18.43871 10.62565 0.0106
C 29.46944 0.03909 0.00346
C 31.9704 32.754 0.01713
C 33.2211 31.96227 -0.01694
C 33.24903 30.53782 0.01428
C 31.97394 29.83544 -0.02142
C 31.97417 28.34976 0.0544
C 33.15535 27.66254 0.00026
C 33.14693 26.22149 0.00682
C 30.69682 0.73895 0.00307
C 31.95417 25.53366 -0.01779
C 33.12084 23.4201 0.01927
C 33.1698 21.95656 0.01574
C 31.90966 21.30292 -0.02383
C 31.95746 19.83248 -0.01429
C 33.25528 19.22629 -0.0136
C 33.26712 17.84026 0.00594
C 31.99407 17.16986 -0.02474
C 31.90115 15.68778 0.00369
C 31.81399 24.11759 0.03794
C 30.68533 2.16266 0.00716
C 29.45032 2.87191 0.02108
C 29.39229 4.26583 0.0103
C 30.76806 31.99428 -0.02049
C 30.74883 30.63283 -0.01854
C 29.4855 29.82811 -0.01415
C 29.50062 28.3638 -0.03039
C 30.70865 27.62061 0.01836
C 30.75067 26.24649 0.03531
C 29.51294 25.54823 -0.00669
C 30.65061 23.18061 0.0101
C 30.88896 18.07281 0.01705
C 30.83476 14.89913 -0.0405
C 30.77083 13.5086 -0.01303
C 29.53661 12.88582 -0.01461
C 29.51105 11.36963 -0.02155
C 30.72088 10.5955 -0.00944
C 30.71262 9.23124 -0.03735
C 29.46517 8.54745 -0.00971
C 29.43786 7.11209 0.01518
C 30.66899 6.38826 0.01908
C 30.67175 4.94707 0.07705
C 33.14122 14.94938 0.00455
C 33.17008 13.50849 -0.00644
C 31.93446 12.78289 -0.01839
C 31.94578 11.28221 0.00137
C 0.01327 19.94585 0.01951
C 1.27782 19.22374 -0.01678
C 1.24652 17.77924 0.01223
C 0.04127 17.0527 0.00648
C 34.39409 15.66434 0.02114
C 1.19871 14.87492 -0.02957
C 1.15875 13.46986 0.00343
C 34.36486 12.72282 -0.02656
C 34.42917 11.38442 -0.02442
C 1.24201 10.70788 -0.00027
C 1.22366 9.26136 -0.00583
C 34.41459 8.51374 -0.02302
C 34.39427 7.08974 -0.02849
C 1.17201 6.47023 0.02931
C 1.20237 5.05155 0.00628
C 34.40918 4.3289 -0.0345
C 0.00946 2.92681 -0.00931
C 1.24213 2.18043 -0.00939
C 1.18972 0.73239 -0.00468
C 34.40441 21.34124 -0.02213
C 29.51735 32.71943 0.03265
C 1.21222 22.01936 0.02712
C 34.32575 24.15762 0.03076
C 33.18871 10.62359 0.00199
C 33.16456 9.20268 0.04381
C 31.94899 8.45264 0.02806
C 31.92252 7.05803 0.01504
C 33.18749 6.3649 -0.00069
C 33.1633 4.96739 0.04926
C 31.91383 4.25848 -0.03838
C 31.95388 2.86266 0.00349
C 33.19626 2.18781 -0.00323
C 33.17423 0.74884 -0.00841
C 31.95788 0.09469 0.0001
C 0.01119 32.69025 -0.02927
C 1.23097 31.93731 -0.01404
C 1.18675 30.51304 0.01027
C 34.39858 29.78554 0.01831
C 34.36653 28.38969 -0.01037
C 1.18163 27.63887 -0.00439
C 1.17828 26.2935 -0.00598
C 34.40837 25.59986 -0.05239
C 1.22245 23.50756 0.00723
C 27.05388 34.06626 0.00261
C 28.2641 0.73247 0.02326
C 28.23517 2.19151 0.00924
C 19.7175 8.46222 -0.0055
C 19.65752 7.06169 0.01515
C 20.8397 6.32549 -0.00225
C 20.84129 4.9376 0.00071
C 19.6321 4.19488 -0.01107
C 19.60542 2.79049 -0.01586
C 20.85998 2.10366 -0.01971
C 20.82281 0.67605 -0.02118
C 19.65022 34.04739 0.00733
C 22.09317 32.5999 -0.00178
C 23.35397 31.95651 0.00768
C 23.33866 30.51427 -0.0276
C 22.09093 29.82396 0.03005
C 22.12865 28.32513 -0.04078
C 23.29562 27.55391 0.02117
C 22.05611 12.68323 0.02737
C 22.09957 11.32357 -0.00498
C 23.28296 10.64152 0.00135
C 23.35706 9.19861 0.03102
C 20.91951 9.17343 0.02734
C 22.11541 8.44914 0.02555
C 20.93361 10.58023 0.01153
C 19.57322 12.66714 -0.03213
C 18.4594 9.24074 -0.01154
C 17.1845 8.55705 -0.01721
C 17.13379 7.15792 -0.02422
C 18.39772 6.40981 0.01277
C 18.36932 4.97093 0.00096
C 17.13849 4.31964 -0.01527
C 17.14927 2.85138 0.01087
C 18.36181 2.04871 0.00199
C 18.47059 0.65832 0.01511
C 17.20388 0.02756 -0.00478
C 19.64187 32.60755 -0.01662
C 20.90448 31.93488 -0.01185
C 20.893 30.51067 0.01126
C 19.66486 29.74615 0.01852
C 19.72338 28.33519 -0.00381
C 20.95065 27.65479 0.03046
C 20.76637 26.23352 0.0296
C 19.80165 25.46701 0.03374
C 20.91448 13.29056 -0.02845
C 19.70469 11.32301 0.02239
C 3.64803 32.00867 -0.00518
C 22.07421 7.06889 0.01423
C 23.26961 4.88722 -0.009
C 24.6471 0.0149 0.00152
C 27.09211 32.68695 0.01257
C 28.29722 31.96331 0.02316
C 28.23558 30.52488 0.04185
C 26.98101 29.83165 0.00194
C 26.99306 28.4026 -0.00621
C 28.19779 27.68867 0.02611
C 28.5296 26.30064 0.02198
C 28.25074 13.35771 0.01094
C 27.168 12.7208 0.00235
C 27.005 11.39838 0.01495
C 28.23612 10.68516 0.01259
C 28.28391 9.22556 0.01799
C 27.00862 8.55502 0.01699
C 26.99171 7.15685 -0.00416
C 28.14357 6.47417 0.01177
C 28.24981 5.0486 0.04266
C 27.01309 4.37363 0.01324
C 27.01729 2.92072 0.0014
C 25.87173 0.74857 -0.00294
C 23.28554 6.30937 -0.00285
C 25.82896 2.14916 0.00826
C 24.59646 4.28367 -0.00942
C 22.09415 4.12703 -0.01199
C 22.05683 2.78014 -0.00229
C 23.44615 2.15542 -0.00938
C 23.30572 0.68424 -0.0264
C 22.1256 0.00357 -0.01154
C 24.58691 32.70808 0.00684
C 25.78697 31.92205 -0.01052
C 25.77963 30.49555 -0.01679
C 24.53991 29.71932 0.00367
C 24.5776 28.19782 0.04306
C 25.79997 27.84828 0.00996
C 24.48502 12.79963 0.00195
C 24.54063 11.37447 -0.00802
C 25.81141 10.69958 -0.00218
C 25.79324 9.22427 -0.01654
C 24.52965 8.45763 -0.00037
C 24.57896 7.04157 -0.0032
C 25.80395 6.4631 0.00622
C 25.77341 5.03812 -0.02815
C 24.60361 2.83767 0.00487
C 2.39184 32.67314 -0.00074
