349
Graphene
C 34.42985 0.08888 0.01295
C 9.96351 2.8687 0.00422
C 11.03789 2.0932 0.0351
C 11.12907 0.79156 -0.03113
C 9.89883 0.00742 0.02098
C 12.35888 32.7076 0.01848
C 13.54004 31.95619 -0.00619
C 13.4787 30.45563 -0.02162
C 12.25653 29.72663 0.00889
C 12.30754 28.23807 -0.00481
C 13.6363 27.73804 0.00979
C 13.55001 13.41596 0.01443
C 12.53744 12.85845 0.03505
C 13.52674 0.67606 -0.02815
C 12.34531 0.0201 -0.04147
C 14.7537 32.64637 -0.05302
C 15.93554 31.90908 0.00213
C 15.94974 30.46887 -0.00066
C 9.67639 4.14278 0.00798
C 9.90683 11.29577 0.00228
C 9.81344 12.61322 -0.00114
C 11.08875 13.4613 -0.02696
C 8.63663 4.98061 -0.01454
C 7.29419 4.3379 0.01945
C 7.28488 2.9261 0.01416
C 8.57958 2.19828 0.03542
C 8.62623 0.77124 0.02299
C 7.3842 0.08367 0.00244
C 9.84756 32.64278 -0.01717
C 11.0949 31.98561 0.05265
C 14.72351 29.70828 -0.00289
C 11.07615 30.59553 -0.01952
C 9.76867 28.50518 0.00374
C 10.9947 27.72546 0.00052
C 10.96529 26.36173 -0.03682
C 10.01661 25.42583 0.01965
C 9.814 24.11234 0.02058
C 9.8311 17.04619 -0.01957
C 10.06172 15.73133 -0.0108
C 10.98377 14.73252 -0.00368
C 9.84307 29.91349 -0.02813
C 14.66386 28.26182 0.00028
C 15.93481 13.37617 -0.02213
C 16.03109 0.65065 0.03698
C 21.10907 9.22563 -0.00831
C 20.93344 6.43722 -0.02957
C 20.89516 5.04103 -0.04422
C 19.64335 4.41488 0.00654
C 19.62372 3.01353 -0.00703
C 20.87738 2.07636 -0.04076
C 20.85933 0.65215 -0.00652
C 19.67522 0.00402 0.0058
C 20.77653 10.48424 0.00364
C 22.09688 32.64463 -0.00865
C 23.31858 30.56008 -0.00311
C 22.13773 29.81357 0.00742
C 22.14808 28.41785 -0.01594
C 23.32854 27.67426 0.0106
C 23.32043 26.1843 -0.01154
C 22.16568 25.57483 -0.01721
C 23.48272 23.31129 -0.02422
C 23.2537 17.76874 0.01277
C 23.32356 31.98863 0.00675
C 8.53864 6.34115 0.01241
C 19.70449 11.41452 -0.017
C 20.89252 13.60499 0.00667
C 14.77255 0.18177 -0.00109
C 17.10938 32.69579 -0.00491
C 18.3938 31.98763 0.03338
C 18.42428 30.58842 -0.0258
C 17.2304 29.74575 -0.0331
C 17.27881 28.36987 -0.00316
C 18.40186 13.31988 0.02188
C 17.13036 13.04111 -0.01979
C 19.69305 12.76816 0.00143
C 18.53065 2.05825 0.02691
C 17.19127 0.01689 0.01452
C 19.63558 32.6518 0.04892
C 20.83342 31.88395 -0.00111
C 20.94766 30.50275 -0.03557
C 19.64236 29.81958 0.03754
C 19.69999 28.38593 0.01739
C 20.81974 27.78675 0.00755
C 20.96956 15.04182 -0.0054
C 18.45104 0.73993 -0.01581
C 7.38363 7.14003 0.0076
C 7.38889 8.54889 0.02162
C 8.61169 9.15285 -0.0014
C 2.41328 7.03247 -0.00892
C 3.69424 6.35988 -0.01362
C 3.67466 4.91924 -0.0008
C 2.44426 4.20651 0.0288
C 2.44513 2.78175 0.00393
C 3.6831 2.16631 0.00895
C 3.69837 0.73983 0.00685
C 2.45091 0.10126 0.02888
C 2.48419 8.47748 -0.04848
C 4.89524 32.64829 -0.00482
C 6.14171 30.50264 0.03693
C 4.8779 29.88253 0.01745
C 4.86851 28.39731 0.00488
C 6.17068 27.74757 -0.01004
C 6.1126 26.29917 -0.02896
C 4.85482 25.57483 -0.00131
C 4.85727 24.20027 -0.01118
C 6.17239 23.5115 -0.014
C 6.15215 31.96666 -0.01384
C 6.15306 22.08513 0.02147
C 3.72348 9.20354 0.01572
C 2.53682 11.34315 0.03007
C 3.64716 30.58702 0.03368
C 2.43223 29.85825 -0.02929
C 2.38497 28.38684 -0.00966
C 3.64247 27.69685 -0.03337
C 3.65073 26.29303 0.01227
C 2.45813 25.52632 0.00873
C 2.53632 24.16164 -0.00049
C 3.71967 23.40711 0.00848
C 3.7643 10.66595 -0.00095
C 3.59444 21.98125 -0.01303
C 2.33241 19.88667 0.02635
C 3.60913 19.22293 0.0127
C 3.72292 17.79827 0.01396
C 2.486 17.02936 0.01849
C 2.43657 15.60445 -0.01142
C 3.70753 14.88641 -0.00562
C 3.71241 13.48689 -0.00494
C 2.43998 12.73128 0.00054
C 2.35047 21.25185 -0.01378
C 22.03696 15.6557 0.00096
C 4.90044 21.33495 0.00373
C 6.04477 19.19203 0.00438
C 7.4043 28.41729 -0.02245
C 8.65022 27.66877 -0.00428
C 8.68199 26.23232 0.03101
C 7.40954 25.65951 -0.01536
C 7.38212 24.23522 -0.02689
C 8.64565 23.33084 -0.01046
C 8.50091 21.92542 -0.00891
C 7.32835 21.28671 0.02819
C 7.41329 29.84066 0.00985
C 7.33228 19.85963 0.00165
C 8.7171 17.86954 0.02894
C 7.36894 17.11475 -0.01789
C 7.40024 15.69933 0.00444
C 8.68897 14.92329 -0.00925
C 8.66143 13.51288 0.01877
C 7.41681 12.80148 0.01363
C 7.42318 11.34669 -0.02162
C 8.7456 10.5185 0.00415
C 8.51695 19.20245 -0.02971
C 4.87233 19.89182 -0.00191
C 8.607 30.5505 -0.01275
C 7.36445 32.67104 0.02841
C 6.1568 17.78506 0.01291
C 4.90008 17.04197 0.00093
C 4.90285 15.61013 0.00057
C 6.14526 14.93606 -0.01634
C 6.18158 13.52586 -0.00334
C 4.94691 12.76775 0.02339
C 4.96625 11.37974 0.01641
C 6.11295 10.67445 -0.00719
C 8.60193 32.00761 -0.01111
C 6.15519 9.29841 0.01364
C 4.91709 7.13476 -0.00033
C 6.13751 6.44812 0.03589
C 6.1291 5.09893 -0.02759
C 4.89535 4.36299 0.0402
C 4.86721 2.98397 0.00572
C 6.07074 2.19834 0.03592
C 6.14731 0.75755 0.00406
C 4.92278 0.00949 0.00943
C 4.90721 8.52419 -0.01062
C 3.63393 32.01361 -0.00077
C 23.34301 14.92029 -0.01527
C 22.09068 12.82848 0.00199
C 33.21483 30.61037 0.01428
C 31.96291 29.83085 -0.02142
C 31.88732 28.41589 0.0544
C 33.09668 27.68275 0.00026
C 33.19689 26.28798 0.00682
C 31.98432 25.58785 -0.01779
C 31.93889 24.16226 0.03794
C 33.14136 23.49091 0.01927
C 33.23068 22.06087 0.01574
C 32.00299 21.32016 -0.02383
C 31.94704 19.89191 -0.01429
C 33.16647 19.14145 -0.0136
C 33.24608 17.71211 0.00594
C 31.97939 17.03377 -0.02474
C 31.88185 15.66822 0.00369
C 33.06651 14.87187 0.00455
C 33.12652 13.46584 -0.00644
C 33.19375 32.04415 -0.01694
C 31.99251 32.61422 0.01713
C 29.5163 34.07677 0.00346
C 30.73616 0.70505 0.00307
C 29.53387 19.95874 0.01836
C 30.74758 19.21363 0.03531
C 30.75215 17.82131 -0.00669
C 29.5748 17.0433 0.0101
C 29.48304 15.63296 0.01705
C 30.64157 14.88671 -0.0405
C 30.72417 13.48046 -0.01303
C 29.50635 12.78415 -0.01461
C 31.96251 12.69325 -0.01839
C 29.49906 11.29326 -0.02155
C 30.71997 9.13505 -0.03735
C 29.50064 8.53754 -0.00971
C 29.51756 7.13467 0.01518
C 30.74831 6.39011 0.01908
C 30.76052 4.95787 0.07705
C 29.57293 4.24116 0.0103
C 29.51789 2.79377 0.02108
C 30.74066 2.15393 0.00716
C 30.75908 10.60903 -0.00944
C 31.98506 11.33651 0.00137
C 33.2432 10.6735 0.00199
C 33.2058 9.25442 0.04381
C 1.16124 19.07824 -0.01678
C 1.22586 17.69332 0.01223
C 34.42077 16.98966 0.00648
C 34.36063 15.53704 0.02114
C 1.19463 14.8972 -0.02957
C 1.21402 13.4589 0.00343
C 34.40274 12.81239 -0.02656
C 0.03048 11.3626 -0.02442
C 34.41677 19.82107 0.01951
C 1.26354 10.63212 -0.00027
C 34.42335 8.5524 -0.02302
C 0.04249 7.09228 -0.02849
C 1.23433 6.3297 0.02931
C 1.26869 4.88875 0.00628
C 0.03955 4.2448 -0.0345
C 34.41588 2.8045 -0.00931
C 1.18633 2.11151 -0.00939
C 1.20886 0.76319 -0.00468
C 1.22157 9.25079 -0.00583
C 29.5062 21.38837 -0.03039
C 0.04175 21.31981 -0.02213
C 1.28669 23.51956 0.00723
C 31.98365 8.53904 0.02806
C 32.00988 7.102 0.01504
C 33.24476 6.42488 -0.00069
C 33.28387 4.9828 0.04926
C 32.01967 4.28591 -0.03838
C 31.9853 2.82457 0.00349
C 33.17757 2.12529 -0.00323
C 33.17575 0.7274 -0.00841
C 1.24947 22.09926 0.02712
C 31.91832 34.00985 0.0001
C 1.17349 31.95923 -0.01404
C 1.24424 30.54129 0.01027
C 0.02328 29.82927 0.01831
C 34.3441 28.36724 -0.01037
C 1.1488 27.68579 -0.00439
C 1.20233 26.20275 -0.00598
C 34.39858 25.50351 -0.05239
C 34.42624 24.12896 0.03076
C 34.42986 32.75722 -0.02927
C 30.836 22.03892 -0.01415
C 30.7776 23.46266 -0.01854
C 29.61615 24.22752 -0.02049
C 25.72342 21.98265 -0.02118
C 24.44887 21.24684 0.00733
C 24.58643 20.00008 -0.00178
C 25.87742 19.1751 0.00768
C 25.78509 17.72436 -0.0276
C 24.45128 17.14068 0.03005
C 24.57508 15.70377 -0.04078
C 25.80778 14.9778 0.02117
C 25.86797 23.41374 -0.01971
C 25.80871 13.52119 0.02737
C 24.60741 11.34237 0.00135
C 25.8451 10.6689 0.03102
C 25.83641 9.23304 0.02555
C 24.56686 8.47897 0.01423
C 24.55153 7.08371 -0.00285
C 25.8176 6.42462 -0.009
C 25.80377 5.02108 -0.01199
C 24.65444 4.19088 -0.00229
C 24.597 12.75692 -0.00498
C 24.52532 2.77699 -0.00938
C 24.52982 24.11753 -0.01586
C 25.81185 26.22964 0.00071
C 22.08634 11.3573 0.01511
C 23.31835 10.66182 -0.00478
C 23.38695 9.23147 -0.01662
C 22.17769 8.46876 -0.01185
C 22.10333 7.07384 0.01126
C 23.39229 6.3414 0.01852
C 23.38985 4.92566 -0.00381
C 22.16567 4.24172 0.03046
C 24.58602 25.56964 -0.01107
C 22.08212 2.7956 0.0296
C 23.26628 0.70625 -0.02845
C 22.10392 34.03977 -0.03213
C 24.59266 32.62048 0.02239
C 25.8383 31.96917 0.01153
C 25.81396 30.55597 0.02734
C 24.49446 29.83053 -0.0055
C 24.52604 28.35899 0.01515
C 25.79904 27.70916 -0.00225
C 23.3346 2.09998 0.03374
C 23.3584 13.50458 0.01087
C 25.85273 2.11684 -0.0264
C 24.56127 0.01849 0.00684
C 28.24243 9.17166 -0.00621
C 27.00627 8.43028 0.02611
C 27.09916 7.04293 0.02198
C 28.31775 6.3408 0.01094
C 28.32047 4.91201 0.00235
C 27.09349 4.27954 0.01495
C 27.07056 2.81889 0.01259
C 28.29262 2.12458 0.01799
C 28.28713 10.58573 0.00194
C 28.30201 0.69631 0.01699
C 29.64473 32.57745 0.01177
C 30.75389 31.84477 0.04266
C 30.74945 30.4367 0.01324
C 29.49738 29.77731 0.0014
C 29.5038 28.38165 0.00924
C 30.69576 27.67215 0.02326
C 30.77091 26.23532 0.00261
C 29.51277 25.57881 0.03265
C 27.06521 0.00505 -0.00416
C 25.79636 0.70488 -0.01154
C 27.08247 11.37497 0.04185
C 28.22552 13.5042 0.01257
C 27.14618 32.68278 -0.01052
C 28.31528 31.92067 -0.01679
C 28.30453 30.46353 0.00367
C 26.9855 29.86225 0.04306
C 27.00658 28.45155 0.00996
C 28.2436 27.74203 0.00195
C 28.25569 26.29569 -0.00802
C 27.05734 25.5748 -0.00218
C 27.07123 12.81607 0.02316
C 27.11754 24.18069 -0.01654
C 28.27227 22.07076 -0.0032
C 27.03875 21.33184 0.00622
C 27.10102 19.89562 -0.02815
C 28.33183 19.1614 -0.00942
C 28.30812 17.74856 0.00487
C 27.02905 17.04053 0.00826
C 27.04926 15.6162 -0.00294
C 28.25694 14.95766 0.00152
C 28.3562 23.49221 -0.00037
C 2.39687 32.71248 0.01305
