341
Graphene
C 0.02459 0.06206 0.01295
C 11.07234 0.67601 -0.00619
C 9.80414 0.05784 -0.02162
C 12.28819 32.66217 0.00889
C 13.54503 31.95593 -0.00481
C 13.5731 30.60664 0.00979
C 12.30248 29.83278 0.01443
C 12.2618 28.39077 0.03505
C 13.46338 27.65199 -0.02815
C 13.50984 26.13116 -0.04147
C 12.29337 25.5113 -0.05302
C 12.36701 24.1432 0.00213
C 13.59682 23.37561 -0.00066
C 13.5074 21.93004 -0.00289
C 12.44137 21.31063 0.00028
C 12.25531 7.21424 -0.02213
C 13.48496 4.89643 0.03698
C 12.31856 4.1621 -0.00109
C 10.99437 2.0666 0.01848
C 12.30615 2.71864 -0.00491
C 9.75276 2.7737 0.02098
C 11.02863 4.96089 0.0351
C 11.07549 31.91719 -0.01717
C 11.01701 30.56776 0.05265
C 9.75066 29.88903 -0.01952
C 9.87622 28.47688 -0.02813
C 11.05386 27.70895 0.00374
C 11.11588 26.30313 0.00052
C 9.82912 25.56033 -0.03682
C 9.81216 24.14351 0.01965
C 11.10173 23.44978 0.02058
C 11.16405 21.99824 -0.01957
C 9.88658 21.4236 -0.0108
C 9.83871 19.91925 -0.00368
C 11.01303 19.29202 -0.02696
C 9.82236 16.94096 -0.00114
C 9.83563 8.46915 0.00228
C 9.8848 7.1843 0.00798
C 11.22749 6.37459 0.00422
C 9.80464 4.207 -0.03113
C 13.57327 2.11702 0.03338
C 13.52619 0.65529 -0.0258
C 12.26431 34.06273 -0.0331
C 18.52453 26.23679 -0.04076
C 17.29815 25.57085 -0.00652
C 17.22502 24.11757 0.0058
C 18.44401 23.4775 -0.00865
C 17.10548 4.41492 0.00675
C 17.22807 2.8879 -0.00311
C 18.41879 2.03466 0.00742
C 18.45969 0.67735 -0.01594
C 17.22634 0.06637 0.0106
C 19.65972 32.60696 -0.01154
C 20.85258 31.95531 -0.01721
C 20.87691 30.55093 -0.02422
C 19.67971 29.80848 0.01277
C 19.74573 28.42711 0.00096
C 20.92394 27.64925 -0.01527
C 20.89683 26.27421 0.01087
C 19.7177 25.53363 0.00199
C 18.49022 27.66934 -0.00703
C 17.15907 28.37885 0.00654
C 17.19595 29.80856 -0.04422
C 18.45665 30.46957 -0.02957
C 14.77847 32.61167 -0.00316
C 15.98984 32.01071 0.02188
C 15.92317 30.56207 -0.01979
C 14.71186 29.8401 0.02691
C 14.64049 28.46289 -0.01581
C 15.92285 27.74771 0.01452
C 16.01777 26.30888 0.04892
C 14.79784 25.50789 -0.00111
C 9.85567 32.69963 0.00244
C 14.79766 24.13822 -0.03557
C 16.07822 4.95347 0.01739
C 14.79761 4.36354 0.00755
C 14.75396 2.84844 -0.0054
C 15.99065 2.07852 0.00667
C 15.96326 0.67357 0.00143
C 14.74358 34.05881 -0.017
C 17.25555 32.68349 0.00364
C 18.41335 31.93318 -0.00831
C 15.93302 23.48062 0.03754
C 7.28228 0.01091 0.02299
C 8.57025 0.72725 0.03542
C 8.53671 2.09489 0.01416
C 2.48648 2.8589 -0.00482
C 3.72289 2.12161 -0.01384
C 3.61195 0.69278 0.03693
C 2.47174 33.99112 0.01745
C 4.85479 32.69986 0.00488
C 6.12398 31.91549 -0.01004
C 6.02587 30.5562 -0.02896
C 4.99277 24.10155 -0.00131
C 6.15908 23.47289 -0.01118
C 6.1565 22.03834 -0.014
C 4.94174 21.28471 0.02147
C 4.86966 19.87159 0.00373
C 6.11913 19.20723 -0.00191
C 6.15837 17.81509 0.00438
C 4.98624 16.99039 0.01291
C 4.90419 15.62542 0.00093
C 6.12699 14.92661 0.00057
C 2.42597 4.29708 0.02888
C 3.68459 4.9777 0.00685
C 3.70016 6.44819 0.00895
C 2.44939 7.0536 0.00393
C 3.70042 30.56016 -0.01303
C 2.56756 29.88845 -0.01378
C 2.37577 24.16138 0.02635
C 3.65723 23.60369 0.0127
C 3.70182 22.0551 0.01396
C 2.43992 21.29085 0.01849
C 2.40192 19.86664 -0.01142
C 3.65447 19.20431 -0.00562
C 6.20885 13.45438 -0.01634
C 3.76474 17.78196 -0.00494
C 2.48032 15.60006 0.03007
C 3.7641 14.87176 -0.00095
C 3.7196 13.44089 0.01572
C 2.38513 12.81603 -0.04848
C 2.39773 11.44109 -0.00892
C 3.70511 10.70019 -0.01362
C 3.69723 9.21944 -0.0008
C 2.42517 8.53403 0.0288
C 2.53844 17.01108 0.00054
C 19.66438 24.00986 0.01511
C 4.96774 12.76668 -0.00334
C 6.04912 10.59057 0.01641
C 7.35639 19.991 0.02819
C 8.55743 19.2349 0.00165
C 8.6468 17.75008 -0.02971
C 7.40906 17.08714 0.02894
C 7.40275 15.53584 -0.01789
C 8.65598 14.86819 0.00444
C 8.63366 13.66402 -0.00925
C 7.43473 12.80698 0.01877
C 7.37204 11.34758 0.01363
C 8.47277 10.58027 -0.02162
C 8.67273 9.21949 0.00415
C 7.37811 8.50039 -0.0014
C 7.38571 7.06774 0.02162
C 8.61985 6.44149 0.0076
C 8.60126 5.01352 0.01241
C 7.32159 4.31157 -0.01454
C 7.38692 2.844 0.01945
C 7.44 21.35419 -0.00891
C 8.65989 22.01409 -0.01046
C 8.57087 23.39983 -0.02689
C 7.39484 24.15905 -0.01536
C 6.07468 9.22419 -0.00719
C 4.87405 8.48081 0.01364
C 4.9087 7.0953 -0.01062
C 6.14003 6.4267 -0.00033
C 6.11817 5.00056 0.03589
C 4.92727 4.23835 -0.02759
C 4.8887 2.8309 0.0402
C 6.13639 2.17092 0.00572
C 4.92556 11.38382 0.02339
C 6.1266 0.71967 0.03592
C 7.38314 32.68228 0.00943
C 8.65046 31.99108 0.02841
C 8.56454 30.59475 -0.01111
C 7.23393 29.82992 -0.01275
C 7.45671 28.43321 0.00985
C 8.62415 27.77207 -0.02245
C 8.60144 26.32607 -0.00428
C 7.44006 25.59797 0.03101
C 4.85859 0.06975 0.00406
C 3.68369 31.96692 0.00848
C 20.95519 23.47244 -0.00478
C 19.68359 4.30526 -0.01185
C 31.98644 29.85305 -0.02142
C 32.01294 28.39345 0.0544
C 33.24901 27.68092 0.00026
C 33.17234 26.31284 0.00682
C 31.92788 25.62906 -0.01779
C 31.96521 24.17407 0.03794
C 33.11527 23.43455 0.01927
C 33.14806 22.03445 0.01574
C 31.95261 21.26815 -0.02383
C 31.9594 19.86824 -0.01429
C 33.17009 19.23208 -0.0136
C 33.21554 17.78679 0.00594
C 32.01796 17.07955 -0.02474
C 32.01395 15.58703 0.00369
C 33.21305 14.88718 0.00455
C 33.14169 13.45285 -0.00644
C 31.96862 12.75791 -0.01839
C 33.17412 30.57892 0.01428
C 31.90789 11.38869 0.00137
C 33.16737 31.98506 -0.01694
C 29.47256 33.99892 0.00346
C 30.73172 17.79605 -0.00669
C 29.46935 17.05718 0.0101
C 29.51182 15.66776 0.01705
C 30.74676 14.87162 -0.0405
C 30.72682 13.49514 -0.01303
C 29.48731 12.81714 -0.01461
C 29.56149 11.38099 -0.02155
C 30.72234 10.70631 -0.00944
C 30.70762 9.1897 -0.03735
C 29.5034 8.52239 -0.00971
C 29.4451 7.12004 0.01518
C 30.67833 6.44815 0.01908
C 30.76591 5.00299 0.07705
C 29.54463 4.23269 0.0103
C 29.56538 2.78312 0.02108
C 30.77106 2.15422 0.00716
C 30.71822 0.71893 0.00307
C 31.99148 32.67092 0.01713
C 33.13431 10.64944 0.00199
C 33.17947 9.22004 0.04381
C 31.91235 8.56204 0.02806
C 1.30677 17.7433 0.01223
C 0.00674 16.96976 0.00648
C 0.04447 15.5561 0.02114
C 1.25774 14.92193 -0.02957
C 1.1832 13.51365 0.00343
C 34.41665 12.7634 -0.02656
C 34.37236 11.32034 -0.02442
C 1.26038 10.58178 -0.00027
C 1.17185 9.19288 -0.00583
C 34.36277 8.53289 -0.02302
C 34.37568 7.09379 -0.02849
C 1.17949 6.42209 0.02931
C 1.19181 4.96971 0.00628
C 0.00149 4.20813 -0.0345
C 0.05155 2.80044 -0.00931
C 1.2683 2.14382 -0.00939
C 1.30749 0.70649 -0.00468
C 1.21676 19.09992 -0.01678
C 0.01845 19.87206 0.01951
C 0.03102 21.27988 -0.02213
C 1.21028 22.00468 0.02712
C 31.97265 7.09622 0.01504
C 33.17749 6.39284 -0.00069
C 33.21998 4.98392 0.04926
C 31.99706 4.35963 -0.03838
C 31.97509 2.85607 0.00349
C 33.23538 2.19721 -0.00323
C 33.17006 0.77118 -0.00841
C 31.95672 0.00578 0.0001
C 30.73461 19.16345 0.03531
C 0.06219 32.72941 -0.02927
C 1.281 30.51243 0.01027
C 34.40321 29.81561 0.01831
C 0.02319 28.40622 -0.01037
C 1.23849 27.68135 -0.00439
C 1.27098 26.38007 -0.00598
C 34.37804 25.47697 -0.05239
C 34.35904 24.10896 0.03076
C 1.22521 23.45843 0.00723
C 1.29024 31.92028 -0.01404
C 29.42654 19.85799 0.01836
C 29.43585 21.29833 -0.03039
C 30.73746 21.9659 -0.01415
C 25.7795 31.93138 -0.0276
C 25.82235 30.48947 0.03005
C 24.60843 29.89705 -0.04078
C 24.59715 28.43712 0.02117
C 25.81203 27.70471 0.02737
C 25.81651 26.24672 -0.00498
C 24.54451 25.52676 0.00135
C 24.5377 24.15325 0.03102
C 25.84211 23.47825 0.02555
C 25.85028 21.93405 0.01423
C 24.53685 21.34039 -0.00285
C 25.77097 19.27856 -0.009
C 24.57124 7.12516 -0.01199
C 25.8076 6.46884 -0.00229
C 25.76697 4.98355 -0.00938
C 24.55724 4.29422 -0.0264
C 24.55729 2.86573 -0.01154
C 24.60104 32.67909 0.00768
C 22.14206 34.06525 -0.00178
C 23.36085 0.67137 0.00733
C 23.34586 2.12609 -0.02118
C 19.58653 2.86722 0.01126
C 20.89395 2.19351 0.01852
C 20.90452 0.64478 -0.00381
C 19.7017 34.01864 0.03046
C 22.05174 32.6207 0.0296
C 23.34372 31.97029 0.03374
C 23.35546 30.55086 -0.02845
C 22.04649 29.8106 -0.03213
C 25.79388 2.1166 0.00684
C 22.13493 28.34065 0.02239
C 23.34545 26.22886 0.02734
C 22.09655 25.55353 -0.0055
C 22.13826 24.08458 0.01515
C 23.3639 23.41301 -0.00225
C 23.54332 21.98103 0.00071
C 23.35183 4.94473 -0.01107
C 22.15363 4.26688 -0.01586
C 22.10174 2.78122 -0.01971
C 23.3221 27.67471 0.01153
C 20.7633 4.84637 -0.01662
C 25.83089 0.72657 -0.01052
C 27.02592 32.69418 0.00367
C 28.21025 6.35058 0.01094
C 28.20484 4.91476 0.00235
C 27.02036 4.21043 0.01495
C 27.00462 2.79096 0.01259
C 28.33797 2.10737 0.01799
C 28.30987 0.68625 0.01699
C 26.98523 0.01286 -0.00416
C 29.49621 32.57101 0.01177
C 30.72372 31.92725 0.04266
C 30.76407 30.48911 0.01324
C 29.55942 29.74589 0.0014
C 29.59962 28.34091 0.00924
C 30.79966 27.66376 0.02326
C 30.72011 26.24357 0.00261
C 29.52132 25.45739 0.03265
C 29.47279 24.08834 -0.02049
C 30.73067 23.44918 -0.01854
C 27.08763 7.09177 0.02198
C 27.19786 8.40521 0.02611
C 28.23847 9.19175 -0.00621
C 28.27982 10.6687 0.00194
C 28.22055 31.92261 0.04306
C 28.32433 30.50202 0.00996
C 27.08192 29.83636 0.00195
C 27.04101 28.40698 -0.00802
C 28.29904 27.69265 -0.00218
C 28.37099 26.26187 -0.01654
C 27.14597 25.60794 -0.00037
C 27.08649 24.15478 -0.0032
C 24.56217 0.03657 -0.01679
C 28.3021 23.35831 0.00622
C 27.05826 21.31915 -0.00942
C 27.00856 19.90526 0.00487
C 28.24201 19.23483 0.00826
C 28.19249 17.73876 -0.00294
C 27.07401 17.06607 0.00152
C 28.2403 14.88759 0.01257
C 28.23538 13.53511 0.02316
C 27.16625 11.41922 0.04185
C 28.24534 22.03663 -0.02815
C 2.45657 32.59982 -0.00049
