421
Graphene
C 0.00956 34.01601 0.01295
C 12.28346 24.2235 0.00406
C 13.51034 23.5274 0.00943
C 13.53722 22.1815 0.02841
C 12.40246 21.42565 -0.01111
C 12.63491 20.0631 -0.01275
C 13.36032 9.15614 0.00985
C 12.21096 8.46102 -0.02245
C 12.26248 7.04631 -0.00428
C 13.50862 6.35799 0.03101
C 13.53927 4.9132 -0.01536
C 12.27297 25.62813 0.03592
C 12.25289 4.25582 -0.02689
C 13.52645 2.01571 -0.00891
C 13.50227 0.62673 0.02819
C 12.28502 34.01599 0.00165
C 14.75057 32.68425 -0.02971
C 15.90773 32.00702 0.02894
C 15.96733 30.51555 -0.01789
C 14.72282 29.82194 0.00444
C 14.66595 28.42521 -0.00925
C 15.85038 27.72933 0.01877
C 15.97676 26.27018 0.01363
C 12.23104 2.76624 -0.01046
C 14.73273 25.61544 -0.02162
C 13.50184 26.33759 0.00572
C 12.27522 28.42324 -0.02759
C 10.01923 19.89072 0.00488
C 11.35383 19.27398 -0.01004
C 11.16657 17.87233 -0.02896
C 9.99166 17.04705 -0.00131
C 9.85642 15.59179 -0.01118
C 9.87211 13.00472 -0.014
C 10.07022 11.54071 0.02147
C 11.11966 10.65571 0.00373
C 10.99688 9.19242 -0.00191
C 9.74569 8.53595 0.00438
C 13.46649 27.70139 0.0402
C 9.78065 7.03692 0.01291
C 10.99216 4.98146 0.00057
C 9.78769 4.2612 -0.01634
C 9.81592 2.83637 -0.00334
C 10.98167 2.10088 0.02339
C 11.06451 0.70338 0.01641
C 9.76717 0.06102 -0.00719
C 12.25114 32.63285 0.01364
C 13.51575 31.9155 -0.01062
C 13.47991 30.53246 -0.00033
C 12.20176 29.89119 0.03589
C 10.98435 6.38166 0.00093
C 14.74717 24.18511 0.00415
C 15.95127 23.45263 -0.0014
C 15.98475 21.98332 0.02162
C 18.40655 9.12932 0.02098
C 17.08202 8.5517 0.01848
C 17.12955 7.0713 -0.00619
C 18.33759 6.40265 -0.02162
C 18.38928 4.95832 0.00889
C 17.18694 4.1906 -0.00481
C 17.15899 2.7952 0.00979
C 18.38458 2.0417 0.01443
C 18.43001 0.6695 0.03505
C 17.20826 34.01683 -0.02815
C 18.40313 10.57307 -0.03113
C 19.61879 32.56359 -0.04147
C 20.87988 30.57225 0.00213
C 19.65946 29.8094 -0.00066
C 19.70164 28.33418 -0.00289
C 20.90604 27.69257 0.00028
C 20.9049 26.24062 -0.02213
C 19.64063 25.53759 0.03698
C 19.6556 24.12057 -0.00109
C 20.86344 23.43888 -0.00491
C 20.84255 21.97024 0.03338
C 19.64338 21.27979 -0.0258
C 20.9114 31.91297 -0.05302
C 18.32462 19.22946 0.0351
C 17.33475 19.8831 0.00422
C 17.22602 21.38125 0.00798
C 14.69458 21.31459 0.0076
C 14.39776 19.96001 0.01241
C 15.963 9.24347 -0.01454
C 14.6353 8.61215 0.01945
C 14.71629 7.17992 0.01416
C 15.92679 6.37886 0.03542
C 15.84954 4.94347 0.02299
C 14.70481 4.21929 0.00244
C 14.71663 2.7765 -0.01717
C 15.89636 2.05152 0.05265
C 15.98904 0.65452 -0.01952
C 14.77462 34.05568 -0.02813
C 17.15317 32.64038 0.00374
C 18.39352 31.85724 0.00052
C 18.35623 30.41098 -0.03682
C 17.16995 29.76908 0.01965
C 17.1615 28.40298 0.02058
C 18.49026 27.63005 -0.01957
C 18.43523 26.26759 -0.0108
C 17.22485 25.53046 -0.00368
C 17.22078 24.16876 -0.02696
C 18.454 23.38327 -0.00114
C 18.51946 22.02498 0.00228
C 9.97558 21.34885 0.01745
C 11.0898 22.11286 0.03693
C 11.06026 23.56645 -0.01384
C 9.79609 24.23351 -0.00482
C 3.58888 2.20299 -0.00561
C 3.61678 0.80143 0.00208
C 2.39647 0.03367 0.01707
C 4.91958 32.68777 0.02769
C 6.11884 32.04191 -0.03291
C 6.11575 30.58896 -0.04999
C 4.91057 29.80559 0.04505
C 4.87256 28.38589 0.03284
C 6.13193 27.7867 -0.04307
C 6.13488 26.32026 0.03189
C 2.39405 2.89282 -0.01977
C 4.91022 25.57185 0.00031
C 6.14917 23.48455 0.01402
C 6.12924 22.03683 0.02379
C 4.82395 21.30274 0.00907
C 4.90536 19.88472 0.00643
C 6.24451 19.19799 -0.01509
C 6.23389 17.7727 0.03267
C 4.94336 17.0468 0.02374
C 4.87599 15.68078 0.00402
C 6.08993 14.93761 0.0073
C 6.09188 13.55012 0.0174
C 4.91791 24.20042 -0.003
C 2.35345 4.31353 0.02784
C 3.60712 5.00445 -0.01979
C 3.62698 6.38219 -0.00449
C 3.63173 30.53732 0.03345
C 2.39374 29.82229 0.00748
C 2.51048 28.39337 0.00662
C 3.75701 27.63648 -0.0154
C 3.73744 26.29091 -0.01299
C 2.44239 25.52096 -0.00407
C 2.48266 24.09242 0.01138
C 3.71396 23.45169 0.03278
C 3.67443 22.02858 -0.00177
C 2.41721 21.24296 0.04421
C 2.51549 19.79862 0.00088
C 3.74798 19.16916 0.00828
C 3.72868 17.71719 -0.02375
C 2.45568 17.03438 0.00558
C 2.47447 15.63006 -0.0059
C 3.6483 15.02172 -0.01386
C 3.63266 13.44413 -0.02805
C 2.4446 12.76508 0.00081
C 2.50823 11.37403 0.00245
C 3.70433 10.69568 0.02728
C 3.61435 9.24774 -0.00039
C 2.36222 8.55983 0.0064
C 2.42406 7.08248 0.00211
C 4.90452 12.80566 0.03828
C 19.63767 19.85031 -0.0331
C 4.91543 11.40585 0.01226
C 6.0884 9.21785 0.01996
C 8.55467 13.48167 -0.01303
C 7.30544 12.78901 -0.01378
C 7.46477 11.44078 0.02635
C 8.76412 10.74828 0.0127
C 8.63281 9.37159 0.01396
C 7.41577 8.59521 0.01849
C 7.32885 7.1458 -0.01142
C 8.55099 6.32887 -0.00562
C 8.49354 4.9716 -0.00494
C 7.28638 4.31221 0.00054
C 8.59241 14.97802 0.00848
C 7.35323 2.96108 0.03007
C 8.4871 0.82328 0.01572
C 7.25991 0.09066 -0.04848
C 9.74971 32.77637 -0.00892
C 11.01388 32.02018 -0.01362
C 10.9845 30.61868 -0.0008
C 9.80416 29.93426 0.0288
C 9.77438 28.50627 0.00393
C 10.93205 27.81978 0.00895
C 10.95895 26.40673 0.00685
C 9.77493 25.70462 0.02888
C 8.58258 2.22894 -0.00095
C 7.28657 15.71549 -0.00049
C 7.44088 17.06627 0.00873
C 8.73139 17.82638 0.01227
C 4.82606 8.58323 -0.03996
C 4.84063 7.13821 0.01465
C 6.09989 6.52344 -0.00074
C 6.13228 5.09176 -0.00518
C 4.88045 4.34703 0.0086
C 4.83622 2.9626 -0.00643
C 6.08277 2.19306 0.017
C 6.04097 0.81905 -0.03113
C 4.87463 0.09625 -0.02566
C 7.35458 32.78727 -0.00094
C 8.54431 32.01425 0.02322
C 8.58084 30.58832 -0.00725
C 7.36903 29.90223 -0.05697
C 7.3143 28.51614 0.01087
C 8.5848 27.78637 -0.01343
C 8.55195 26.30954 0.00988
C 7.3344 25.56627 0.0276
C 7.33584 24.1677 0.01305
C 8.55899 23.46418 -0.00077
C 8.71536 22.04658 0.03368
C 7.40769 21.41633 -0.02929
C 7.45393 19.87718 -0.00966
C 8.76517 19.17784 -0.03337
C 6.21339 10.65127 -0.00279
C 3.68491 31.99775 -0.00112
C 20.95024 19.14848 -0.00316
C 19.62083 16.95883 -0.01979
C 29.48223 11.33052 -0.02155
C 30.6891 10.71046 -0.00944
C 30.71273 9.20561 -0.03735
C 29.47256 8.49568 -0.00971
C 29.48391 7.05846 0.01518
C 30.69671 6.36539 0.01908
C 30.72072 4.99079 0.07705
C 29.50012 4.29243 0.0103
C 29.43863 2.79864 0.02108
C 30.70041 2.09296 0.00716
C 29.45064 12.70346 -0.01461
C 30.72476 0.64094 0.00307
C 32.01628 32.66311 0.01713
C 33.13485 31.89574 -0.01694
C 33.21355 30.45144 0.01428
C 32.00292 29.78121 -0.02142
C 32.00428 28.41348 0.0544
C 33.21341 27.63431 0.00026
C 33.22386 26.19551 0.00682
C 31.92207 25.46418 -0.01779
C 31.85212 24.0649 0.03794
C 33.0752 23.37401 0.01927
C 29.47845 34.06084 0.00346
C 33.09126 21.9508 0.01574
C 30.66295 13.47128 -0.01303
C 29.45182 15.57328 0.01705
C 28.1996 4.97097 0.00235
C 27.03526 4.20987 0.01495
C 27.02336 2.78175 0.01259
C 28.25833 2.16977 0.01799
C 28.30116 0.74141 0.01699
C 27.0135 0.07716 -0.00416
C 29.51128 32.65813 0.01177
C 30.69996 32.0255 0.04266
C 30.77727 30.4862 0.01324
C 29.55031 29.72549 0.0014
C 30.69468 14.88602 -0.0405
C 29.51735 28.3043 0.00924
C 30.7889 26.22146 0.00261
C 29.56539 25.52493 0.03265
C 29.47203 24.14757 -0.02049
C 30.66429 23.37638 -0.01854
C 30.74834 21.96188 -0.01415
C 29.48604 21.23311 -0.03039
C 29.46406 19.86818 0.01836
C 30.6702 19.15638 0.03531
C 30.63173 17.74361 -0.00669
C 29.44041 16.97236 0.0101
C 30.77612 27.73435 0.02326
C 31.88207 21.23995 -0.02383
C 31.92955 19.84568 -0.01429
C 33.19251 19.11284 -0.0136
C 1.22363 23.38723 0.00723
C 1.13034 21.94403 0.02712
C 34.35227 21.2686 -0.02213
C 34.43064 19.84782 0.01951
C 1.21069 19.11734 -0.01678
C 1.21576 17.73278 0.01223
C 34.41468 17.01827 0.00648
C 0.00279 15.57208 0.02114
C 1.21247 14.8267 -0.02957
C 1.23138 13.43422 0.00343
C 34.37498 24.04575 0.03076
C 34.41174 12.86343 -0.02656
C 1.22043 10.62849 -0.00027
C 1.09796 9.22394 -0.00583
C 34.30815 8.53806 -0.02302
C 34.33196 7.12523 -0.02849
C 1.18831 6.39844 0.02931
C 1.11718 4.97831 0.00628
C 34.37455 4.27155 -0.0345
C 34.27679 2.88808 -0.00931
C 1.04767 2.13103 -0.00939
C 1.13396 0.68022 -0.00468
C 34.36427 11.37277 -0.02442
C 0.01815 25.44084 -0.05239
C 1.18992 26.26422 -0.00598
C 1.25487 27.72223 -0.00439
C 33.19488 17.70348 0.00594
C 31.92153 17.01424 -0.02474
C 31.96375 15.69914 0.00369
C 33.20221 14.98738 0.00455
C 33.16051 13.56648 -0.00644
C 31.9466 12.81523 -0.01839
C 31.88952 11.43201 0.00137
C 33.12365 10.64968 0.00199
C 33.12148 9.18392 0.04381
C 31.89295 8.51909 0.02806
C 31.89364 7.04971 0.01504
C 33.11431 6.34899 -0.00069
C 33.20283 4.89932 0.04926
C 31.93815 4.27353 -0.03838
C 31.90484 2.75836 0.00349
C 33.12147 2.08931 -0.00323
C 33.244 0.68628 -0.00841
C 31.99248 34.04389 0.0001
C 34.37478 32.63806 -0.02927
C 1.14894 31.94774 -0.01404
C 1.16838 30.51827 0.01027
C 0.06393 29.76025 0.01831
C 0.0043 28.32474 -0.01037
C 28.22708 6.40254 0.01094
C 27.01249 7.14586 0.02198
C 26.9919 8.55468 0.02611
C 28.18962 9.28276 -0.00621
C 22.06873 21.3146 0.0106
C 22.13189 19.86964 -0.01154
C 23.32006 19.12468 -0.01721
C 23.3299 17.7376 -0.02422
C 22.10419 17.04539 0.01277
C 22.13793 15.66413 0.00096
C 23.31765 14.85524 -0.01527
C 23.40747 13.50908 0.01087
C 22.16564 12.79716 0.00199
C 22.11658 11.32918 0.01511
C 23.29229 22.01835 -0.01594
C 23.31342 10.57696 -0.00478
C 22.11777 8.57139 -0.01185
C 22.09697 7.13905 0.01126
C 23.32136 6.3683 0.01852
C 23.25779 5.03673 -0.00381
C 22.1389 4.25346 0.03046
C 22.08901 2.78353 0.0296
C 23.34654 2.12497 0.03374
C 23.26448 0.68037 -0.02845
C 22.0808 0.0111 -0.03213
C 24.58805 32.66451 0.02239
C 23.36768 9.15509 -0.01662
C 23.35951 23.41231 0.00742
C 22.14919 24.13021 -0.00311
C 22.18019 25.53633 0.00675
C 19.69571 15.74778 0.02691
C 20.80826 14.92798 -0.01581
C 20.87193 13.52823 0.01452
C 19.64957 12.88466 0.04892
C 19.62113 11.42445 -0.00111
C 20.80037 10.81179 -0.03557
C 20.84221 9.29505 0.03754
C 19.72463 8.45173 0.01739
C 19.61054 7.08213 0.00755
C 20.86533 6.39685 -0.0054
C 20.90399 4.9827 0.00667
C 19.60107 4.27263 0.00143
C 19.60199 2.84707 -0.017
C 20.83822 2.11536 0.00364
C 20.90021 0.77161 -0.00831
C 19.69897 34.05073 -0.02957
C 22.06976 32.66723 -0.04422
C 23.29015 31.97133 0.00654
C 23.31881 30.54238 -0.00703
C 22.04371 29.83338 -0.04076
C 22.13768 28.39801 -0.00652
C 23.38745 27.72959 0.0058
C 23.33851 26.3709 -0.00865
C 25.77914 31.9734 0.01153
C 20.8893 17.75099 0.02188
C 25.85482 30.59683 0.02734
C 24.61124 28.37883 0.01515
C 27.00142 32.69337 -0.01052
C 28.20519 31.94685 -0.01679
C 28.36161 30.48515 0.00367
C 27.02849 29.87179 0.04306
C 27.0001 28.39935 0.00996
C 28.265 27.6032 0.00195
C 28.37687 26.2236 -0.00802
C 27.09671 25.55567 -0.00218
C 27.12656 24.11993 -0.01654
C 28.28115 23.38278 -0.00037
C 24.55651 0.05724 0.00684
C 28.27285 21.92686 -0.0032
C 27.01907 19.8153 -0.02815
C 28.25613 19.06707 -0.00942
C 28.27685 17.72332 0.00487
C 27.06275 17.01667 0.00826
C 27.01157 15.59019 -0.00294
C 28.23221 14.91238 0.00152
C 28.224 13.46054 0.01257
C 27.05846 12.79429 0.02316
C 27.03315 11.3494 0.04185
C 28.31509 10.71543 0.00194
C 26.98939 21.2592 0.00622
C 25.67485 0.78766 -0.01154
C 25.74408 2.20377 -0.0264
C 24.49815 2.92806 -0.00938
C 25.81937 27.70697 -0.00225
C 25.81934 26.25543 0.00071
C 24.523 25.65978 -0.01107
C 24.62442 24.17796 -0.01586
C 25.87139 23.4271 -0.01971
C 25.79464 22.05077 -0.02118
C 24.57502 21.23607 0.00733
C 24.51376 19.85474 -0.00178
C 25.77781 19.06353 0.00768
C 25.76403 17.63462 -0.0276
C 24.53228 16.97369 0.03005
C 24.55849 15.57789 -0.04078
C 25.7996 14.87834 0.02117
C 25.82793 13.48861 0.02737
C 24.62234 12.79453 -0.00498
C 24.54795 11.34954 0.00135
C 25.80784 10.6902 0.03102
C 25.85272 9.29844 0.02555
C 24.61851 8.49222 0.01423
C 24.52484 7.1016 -0.00285
C 25.80432 6.35625 -0.009
C 25.7415 4.95409 -0.01199
C 24.53321 4.32668 -0.00229
C 24.57527 29.81073 -0.0055
C 2.38755 32.72368 0.01078
