358
Graphene
C 34.38651 34.05914 0.01295
C 11.1529 13.49688 -0.01957
C 9.84636 12.73106 -0.0108
C 9.84199 11.35757 -0.00368
C 11.01807 10.67316 -0.02696
C 10.99096 9.23417 -0.00114
C 9.72579 8.57611 0.00228
C 9.73389 7.12918 0.00798
C 10.95468 6.51314 0.00422
C 11.16135 14.91893 0.02058
C 10.93784 5.03059 0.0351
C 9.73406 2.93374 0.02098
C 10.95927 2.21453 0.01848
C 10.92161 0.84276 -0.00619
C 9.74257 0.01276 -0.02162
C 12.17617 32.69646 0.00889
C 13.44261 31.99448 -0.00481
C 13.48695 30.56584 0.00979
C 12.29281 29.87106 0.01443
C 9.68283 4.33358 -0.03113
C 12.26179 28.44138 0.03505
C 9.89472 15.65316 0.01965
C 11.11263 17.76398 0.00052
C 7.25518 2.92146 0.01363
C 8.52247 2.14562 -0.02162
C 8.55868 0.75397 0.00415
C 7.25861 0.0633 -0.0014
C 9.77159 32.62881 0.02162
C 10.96055 31.87228 0.0076
C 10.94133 30.50565 0.01241
C 9.73476 29.7665 -0.01454
C 9.91783 17.09404 -0.03682
C 9.80103 28.40591 0.01945
C 11.04444 26.24269 0.03542
C 9.88391 25.56965 0.02299
C 9.86771 24.21341 0.00244
C 11.08534 23.42724 -0.01717
C 11.05671 22.00474 0.05265
C 9.81156 21.31431 -0.01952
C 9.78754 19.9299 -0.02813
C 11.06416 19.23578 0.00374
C 11.07514 27.71989 0.01416
C 13.43865 27.6414 -0.02815
C 13.5472 26.25865 -0.04147
C 12.28747 25.60834 -0.05302
C 12.17131 0.02444 -0.0054
C 14.7264 32.64026 0.00667
C 15.96548 31.83818 0.00143
C 15.97707 30.4206 -0.017
C 14.68469 29.81434 0.00364
C 14.71477 28.31705 -0.00831
C 15.96385 27.67584 -0.02957
C 15.92893 26.24282 -0.04422
C 13.3948 0.64768 0.00755
C 14.73414 25.582 0.00654
C 16.03898 23.44045 -0.04076
C 16.03448 22.04202 -0.00652
C 14.72422 21.26048 0.0058
C 14.81932 19.87097 -0.00865
C 16.07019 19.15669 0.00675
C 16.04329 17.75946 -0.00311
C 14.87924 17.0834 0.00742
C 14.93305 15.58273 -0.01594
C 14.77512 24.13193 -0.00703
C 13.50472 2.03863 0.01739
C 12.26045 2.85315 0.03754
C 12.22768 4.23787 -0.03557
C 12.30261 24.11483 0.00213
C 13.54653 23.42428 -0.00066
C 13.51708 22.01375 -0.00289
C 12.28271 21.28455 0.00028
C 12.31787 19.87299 -0.02213
C 13.53214 19.24502 0.03698
C 13.65953 17.71947 -0.00109
C 12.3843 17.00211 -0.00491
C 12.36286 15.60326 0.03338
C 13.61521 14.90096 -0.0258
C 13.62336 13.47853 -0.0331
C 12.35275 12.82093 -0.00316
C 12.26073 11.4115 0.02188
C 13.47491 10.67724 -0.01979
C 13.42731 9.34252 0.02691
C 12.27376 8.44161 -0.01581
C 12.26622 7.03986 0.01452
C 13.49671 6.30786 0.04892
C 13.4762 4.97505 -0.00111
C 7.29246 4.3064 0.01877
C 8.48558 5.06643 -0.00925
C 8.54003 6.47702 0.00444
C 7.20784 7.17895 -0.01789
C 3.69537 6.42974 -0.01142
C 3.58426 4.96538 -0.00562
C 2.37246 4.26697 -0.00494
C 2.4201 2.88712 0.00054
C 3.62612 2.17104 0.03007
C 3.57392 0.79855 -0.00095
C 2.36832 0.06196 0.01572
C 4.80403 32.79539 -0.04848
C 2.41189 7.14819 0.01849
C 6.03556 31.99113 -0.00892
C 4.85785 29.91908 -0.0008
C 4.85463 28.49903 0.0288
C 6.04674 27.70671 0.00393
C 6.04339 26.31699 0.00895
C 4.86052 25.64683 0.00685
C 4.92014 24.20724 0.02888
C 6.11435 23.43305 -0.00482
C 6.07955 21.95903 -0.01384
C 6.05181 30.57675 -0.01362
C 2.33058 8.53944 0.01396
C 3.65066 9.19033 0.0127
C 3.70711 10.61843 0.02635
C 3.60768 30.60833 0.02322
C 2.42709 29.82426 -0.00725
C 2.44173 28.47422 -0.05697
C 3.64249 27.78324 0.01087
C 3.67392 26.35124 -0.01343
C 2.42651 25.62999 0.00988
C 2.36369 24.18132 0.0276
C 3.67765 23.49063 0.01305
C 3.6733 22.06019 -0.00077
C 2.49966 21.24679 0.03368
C 2.47087 19.83746 -0.02929
C 3.751 19.23395 -0.00966
C 3.63686 17.73476 -0.03337
C 2.35488 17.00058 0.01227
C 2.32835 15.61836 0.00873
C 3.57716 14.94116 -0.00049
C 3.64379 13.42889 0.00848
C 2.47428 12.78239 -0.01303
C 2.41989 11.37339 -0.01378
C 4.92891 21.30429 0.03693
C 16.04967 14.81691 0.0106
C 4.98062 19.89921 0.01745
C 6.22149 17.75814 -0.01004
C 8.48873 26.27564 0.03592
C 7.24693 25.63416 0.00406
C 7.34753 24.17277 0.00943
C 8.626 23.46283 0.02841
C 8.60439 22.02604 -0.01111
C 7.39388 21.34825 -0.01275
C 7.42272 19.87427 0.00985
C 8.61532 19.22469 -0.02245
C 8.52621 27.64215 0.00572
C 8.58102 17.72693 -0.00428
C 7.36356 15.62455 -0.01536
C 8.58016 14.87828 -0.02689
C 8.61999 13.49869 -0.01046
C 7.33318 12.80313 -0.00891
C 7.39815 11.38173 0.02819
C 8.58457 10.68365 0.00165
C 8.50134 9.29088 -0.02971
C 7.23898 8.67075 0.02894
C 7.38853 17.03792 0.03101
C 7.28725 28.44173 0.0402
C 7.31981 29.83531 -0.02759
C 8.52199 30.58304 0.03589
C 4.94087 17.05531 -0.02896
C 4.81581 15.62943 -0.00131
C 6.08223 14.8984 -0.01118
C 6.08603 13.53077 -0.014
C 4.90616 12.80495 0.02147
C 4.83588 11.38884 0.00373
C 6.10155 10.76431 -0.00191
C 6.06388 9.30946 0.00438
C 4.8859 8.5346 0.01291
C 4.92105 7.07751 0.00093
C 6.09045 6.32967 0.00057
C 6.09184 4.94451 -0.01634
C 4.8522 4.29096 -0.00334
C 4.8412 2.92272 0.02339
C 6.0147 2.1728 0.01641
C 6.01654 0.76403 -0.00719
C 4.78563 0.12219 0.01364
C 7.29344 32.70884 -0.01062
C 8.50676 31.97038 -0.00033
C 6.20521 19.20117 0.00488
C 16.08134 13.40818 -0.01154
C 14.81724 12.76929 -0.01721
C 14.69311 11.36108 -0.02422
C 29.51128 8.44252 0.01713
C 29.44994 7.12224 -0.01694
C 30.72648 6.41371 0.01428
C 30.74344 4.98111 -0.02142
C 29.4982 4.28249 0.0544
C 29.49082 2.80308 0.00026
C 30.73241 2.1644 0.00682
C 30.73419 0.79799 -0.01779
C 30.55164 9.40888 0.00346
C 29.49299 0.14123 0.03794
C 33.19028 31.95815 0.01574
C 33.20029 30.57372 -0.02383
C 31.85899 29.8988 -0.01429
C 31.75197 28.37542 -0.0136
C 32.98834 27.68175 0.00594
C 33.05821 26.20722 -0.02474
C 31.59054 15.11859 0.00369
C 32.94326 14.88475 0.00455
C 31.94025 32.70853 0.01927
C 30.50689 10.85743 0.00307
C 29.67998 11.90083 0.00716
C 29.96352 12.97289 0.02108
C 28.23873 32.04623 -0.01854
C 28.18056 30.63368 -0.01415
C 27.05056 29.84888 -0.03039
C 27.09048 28.38346 0.01836
C 26.94173 7.06271 0.03531
C 28.21748 6.46554 -0.00669
C 28.1913 4.98586 0.0101
C 26.97866 4.28891 0.01705
C 26.96953 2.84986 -0.0405
C 28.17318 2.1855 -0.01303
C 28.18283 0.74871 -0.01461
C 26.9408 0.09907 -0.02155
C 29.52722 32.80635 -0.00944
C 30.67235 32.05182 -0.03735
C 30.66557 30.63528 -0.00971
C 29.40882 29.87433 0.01518
C 29.30362 28.52971 0.01908
C 30.50322 27.87989 0.07705
C 31.01005 13.75854 0.0103
C 33.35619 13.51606 -0.00644
C 27.01586 32.70997 -0.02049
C 32.19297 12.79644 -0.01839
C 33.09852 10.63445 0.00199
C 1.20783 19.17008 -0.01678
C 1.13906 17.75801 0.01223
C 34.36693 17.02692 0.00648
C 34.14348 15.66677 0.02114
C 1.08394 14.96184 -0.02957
C 1.24695 13.53459 0.00343
C 0.03414 12.7812 -0.02656
C 0.02665 11.41286 -0.02442
C 0.04542 20.02946 0.01951
C 1.20905 10.76177 -0.00027
C 34.40777 8.59382 -0.02302
C 34.38455 7.21234 -0.02849
C 1.11442 6.40633 0.02931
C 1.20335 5.03458 0.00628
C 34.41836 4.28097 -0.0345
C 34.35354 2.91162 -0.00931
C 1.13634 2.24658 -0.00939
C 1.18815 0.82171 -0.00468
C 1.1448 9.36566 -0.00583
C 0.02011 21.16006 -0.02213
C 1.17736 21.9836 0.02712
C 1.21753 23.37458 0.00723
C 33.13258 9.19928 0.04381
C 31.87712 8.5154 0.02806
C 31.97998 7.14874 0.01504
C 33.21161 6.39174 -0.00069
C 33.2356 5.00372 0.04926
C 31.93988 4.26427 -0.03838
C 31.92643 2.85467 0.00349
C 33.12015 2.13735 -0.00323
C 33.17556 0.67832 -0.00841
C 31.93082 0.02445 0.0001
C 34.37403 32.71966 -0.02927
C 1.15443 31.98045 -0.01404
C 1.08596 30.54799 0.01027
C 34.30119 29.77563 0.01831
C 34.26824 28.44615 -0.01037
C 1.15654 27.71091 -0.00439
C 1.19836 26.35834 -0.00598
C 34.32757 25.49477 -0.05239
C 0.00954 24.10429 0.03076
C 31.90981 11.42186 0.00137
C 3.65496 32.03384 -0.00094
C 24.55617 0.02511 0.03265
C 25.67073 2.13266 0.02326
C 17.32097 19.88067 0.00071
C 18.55834 19.17462 -0.01107
C 18.56485 17.79473 -0.01586
C 17.28568 17.06362 -0.01971
C 17.25809 15.55075 -0.02118
C 18.4862 14.81415 0.00733
C 18.63866 13.33111 -0.00178
C 17.39138 12.63619 0.00768
C 17.29683 21.28012 -0.00225
C 17.29558 11.30651 -0.0276
C 18.25922 9.22384 -0.04078
C 17.12015 8.40088 0.02117
C 17.11986 6.9736 0.02737
C 18.243 6.25903 -0.00498
C 18.28921 4.86459 0.00135
C 17.04864 4.20803 0.03102
C 17.15501 2.79411 0.02555
C 18.31163 2.10045 0.01423
C 18.39286 10.40602 0.03005
C 18.56053 22.07348 0.01515
C 18.57669 23.39721 -0.0055
C 17.2539 24.1381 0.02734
C 15.9756 10.56482 0.01277
C 15.8839 9.19528 0.00096
C 14.66131 8.58245 -0.01527
C 14.63386 7.10277 0.01087
C 15.87365 6.31175 0.00199
C 15.86167 4.92888 0.01511
C 14.6642 4.2096 -0.00478
C 14.65562 2.79151 -0.01662
C 15.94778 2.08499 -0.01185
C 15.95077 0.66704 0.01126
C 14.67317 34.02551 0.01852
C 17.15015 32.60345 -0.00381
C 18.34507 31.85034 0.03046
C 18.37025 30.45865 0.0296
C 17.2218 29.77131 0.03374
C 17.28836 28.36209 -0.02845
C 18.58377 27.60609 -0.03213
C 18.51462 26.2369 0.02239
C 17.22743 25.59472 0.01153
C 18.30398 0.70488 -0.00285
C 25.74291 0.75761 0.00261
C 17.11601 0.02343 -0.009
C 20.81432 32.03122 -0.00229
C 22.14543 28.42901 0.02316
C 23.33899 27.64235 0.04185
C 23.2482 5.07112 0.00194
C 21.96819 4.29452 -0.00621
C 22.08203 2.84848 0.02611
C 23.29548 2.09267 0.02198
C 23.31084 0.67489 0.01094
C 22.05793 34.02207 0.00235
C 22.1098 29.85393 0.01257
C 24.53688 32.67426 0.01495
C 25.78616 30.51688 0.01799
C 24.50976 29.90396 0.01699
C 24.5099 28.28871 -0.00416
C 25.95728 27.88511 0.01177
C 25.9726 6.29585 0.04266
C 25.68207 5.07476 0.01324
C 24.47689 4.28702 0.0014
C 24.50873 2.82733 0.00924
C 25.78773 32.00303 0.01259
C 23.29142 30.50406 0.00152
C 23.31278 31.94123 -0.00294
C 22.02625 32.62526 0.00826
C 20.86397 30.59574 -0.00938
C 19.64775 29.82455 -0.0264
C 19.78602 28.4678 -0.01154
C 20.94612 27.79105 0.00684
C 21.02021 26.33985 -0.01052
C 19.83655 25.48523 -0.01679
C 19.65027 24.14718 0.00367
C 19.74569 21.2178 0.04306
C 19.59548 19.97617 0.00996
C 19.89515 16.91157 0.00195
C 19.63928 15.71798 -0.00802
C 19.50699 6.89453 -0.00218
C 20.60631 6.4134 -0.01654
C 20.77916 4.95174 -0.00037
C 19.57957 4.2115 -0.0032
C 19.61628 2.73714 0.00622
C 20.92432 2.05852 -0.02815
C 20.84885 0.72626 -0.00942
C 19.61032 0.0685 0.00487
C 19.55036 32.69161 -0.01199
C 2.39908 32.71635 -0.02566
