392
Graphene
C 0.01582 0.0263 0.01295
C 11.11863 2.11153 0.01877
C 11.04314 0.762 0.01363
C 9.84187 0.01648 -0.02162
C 12.2989 32.65038 0.00415
C 13.57011 31.99238 -0.0014
C 13.55217 30.55519 0.02162
C 12.25725 29.77973 0.0076
C 12.26268 28.38057 0.01241
C 13.5083 27.58805 -0.01454
C 9.83525 2.82326 -0.00925
C 13.56128 26.29453 0.01945
C 12.3172 24.11294 0.03542
C 13.59001 23.41252 0.02299
C 13.57467 21.98596 0.00244
C 12.2837 21.36485 -0.01717
C 12.31655 19.85436 0.05265
C 13.5253 19.07719 -0.01952
C 13.4565 17.713 -0.02813
C 12.36552 16.95755 0.00374
C 12.22137 15.59424 0.00052
C 12.26965 25.61452 0.01416
C 9.8375 4.22015 0.00444
C 11.03163 5.02469 -0.01789
C 10.99685 6.43689 0.02894
C 9.84239 28.43578 0.03589
C 11.08107 27.69706 -0.02759
C 11.08311 26.29437 0.0402
C 9.84279 25.57014 0.00572
C 9.80476 24.17584 0.03592
C 11.06713 23.43249 0.00406
C 11.08034 22.02324 0.00943
C 9.83714 21.37824 0.02841
C 9.80772 19.88842 -0.01111
C 11.05904 19.25585 -0.01275
C 11.08761 17.70836 0.00985
C 9.85112 17.04213 -0.02245
C 9.84185 15.66042 -0.00428
C 11.13771 14.89147 0.03101
C 11.0223 13.42366 -0.01536
C 9.82547 12.80974 -0.02689
C 9.88137 11.34499 -0.01046
C 11.03937 10.63361 -0.00891
C 11.12091 9.22018 0.02819
C 9.90483 8.54104 0.00165
C 9.83707 7.14124 -0.02971
C 12.34878 8.53731 -0.03682
C 9.79658 29.90373 -0.00033
C 12.28924 7.13473 0.01965
C 13.50586 4.91849 -0.01957
C 14.78076 34.04889 -0.02213
C 17.21947 32.7071 0.03698
C 18.44005 31.89008 -0.00109
C 18.4106 30.51503 -0.00491
C 17.18431 29.8303 0.03338
C 17.23831 28.37954 -0.0258
C 18.48719 27.73573 -0.0331
C 18.42564 26.26071 -0.00316
C 17.22748 25.56 0.02188
C 16.02854 0.70491 0.00028
C 17.26005 24.10211 -0.01979
C 18.41065 22.01912 -0.01581
C 17.19849 21.27326 0.01452
C 17.2358 19.82919 0.04892
C 18.48764 4.93832 -0.00111
C 17.20239 4.28294 -0.03557
C 17.20139 2.83912 0.03754
C 18.42773 2.12536 0.01739
C 18.38252 0.73997 0.00755
C 17.22023 0.02091 -0.0054
C 18.44158 23.46044 0.02691
C 16.01687 2.10365 -0.00289
C 14.76268 2.82502 -0.00066
C 14.75544 4.27053 0.00213
C 12.29253 4.2957 -0.0108
C 12.34441 2.85694 -0.00368
C 13.53418 2.11174 -0.02696
C 13.53976 0.66357 -0.00114
C 12.27292 34.07088 0.00228
C 14.74904 32.65565 0.00798
C 15.99854 31.99201 0.00422
C 15.96254 30.51599 0.0351
C 14.72038 29.80726 -0.03113
C 14.7169 28.39838 0.02098
C 15.98875 27.66609 0.01848
C 15.94699 26.2748 -0.00619
C 14.75081 25.59558 -0.02162
C 14.78893 24.14438 0.00889
C 15.95437 23.42336 -0.00481
C 15.96414 21.96186 0.00979
C 14.73514 21.28232 0.01443
C 14.75697 19.85036 0.03505
C 14.74346 7.04797 -0.02815
C 15.98985 6.41207 -0.04147
C 16.02873 5.00988 -0.05302
C 13.50283 6.41797 0.02058
C 19.68527 32.6262 0.00667
C 11.05877 30.57003 -0.01062
C 9.84312 32.67706 -0.00719
C 2.47585 4.29667 0.01465
C 2.4709 2.79385 -0.00074
C 3.68577 2.14546 -0.00518
C 3.6907 0.73442 0.0086
C 2.43528 34.07299 -0.00643
C 4.91281 32.68401 0.017
C 6.15555 31.98653 -0.03113
C 6.17213 30.49077 -0.02566
C 4.92479 29.84436 -0.00094
C 3.70774 4.98794 -0.03996
C 4.91421 28.38865 0.02322
C 6.09648 26.33017 -0.05697
C 4.93528 25.59272 0.01087
C 4.90685 24.11407 -0.01343
C 6.11403 23.43437 0.00988
C 6.09417 22.05799 0.0276
C 4.94415 21.27209 0.01305
C 4.95798 19.917 -0.00077
C 6.1281 19.1661 0.03368
C 6.22021 17.72084 -0.02929
C 6.16454 27.6663 -0.00725
C 3.64482 6.38502 0.01996
C 2.39451 7.1932 -0.00279
C 2.46894 8.52387 0.01226
C 3.7276 30.52654 0.01707
C 2.46053 29.86795 0.02769
C 2.5307 28.37568 -0.03291
C 3.68262 27.64488 -0.04999
C 3.73682 26.2399 0.04505
C 2.38428 25.5003 0.03284
C 2.4281 24.18192 -0.04307
C 3.63955 23.44572 0.03189
C 3.67305 22.01706 0.00031
C 2.47451 21.35417 -0.003
C 2.44543 19.83239 0.01402
C 3.71859 19.20194 0.02379
C 3.71858 17.81292 0.00907
C 2.45649 17.0777 0.00643
C 2.43309 15.62289 -0.01509
C 3.66122 14.85656 0.03267
C 3.70032 13.48274 0.02374
C 2.5264 12.78427 0.00402
C 2.47284 11.33788 0.0073
C 3.68737 10.67262 0.0174
C 3.68721 9.27132 0.03828
C 4.89448 17.05228 -0.00966
C 11.10743 31.96056 0.01364
C 4.94622 15.61463 -0.03337
C 6.20456 13.54672 0.00873
C 7.3331 19.77653 -0.01384
C 8.59936 19.14292 0.03693
C 8.5627 17.74601 0.01745
C 7.3248 16.99403 0.00488
C 7.34795 15.62547 -0.01004
C 8.58382 14.96403 -0.02896
C 8.59626 13.53977 -0.00131
C 7.42339 12.72232 -0.01118
C 7.35615 11.38243 -0.014
C 7.36009 21.32044 -0.00482
C 8.62844 10.67726 0.02147
C 7.37097 8.53564 -0.00191
C 7.4073 7.10435 0.00438
C 8.62773 6.42941 0.01291
C 8.6183 4.97507 0.00093
C 7.35642 4.29564 0.00057
C 7.41401 2.84625 -0.01634
C 8.63424 2.18207 -0.00334
C 8.61462 0.75087 0.02339
C 7.41953 0.05289 0.01641
C 8.58067 9.30778 0.00373
C 8.58844 22.03103 0.02888
C 8.6135 23.45892 0.00685
C 7.32858 24.14908 0.00895
C 4.94541 12.8067 -0.00049
C 4.92955 11.34801 0.00848
C 6.18035 10.64459 -0.01303
C 6.1319 9.28836 -0.01378
C 4.90737 8.56145 0.02635
C 4.93712 7.12076 0.0127
C 6.10445 6.38649 0.01396
C 6.12168 5.02067 0.01849
C 4.94154 4.24421 -0.01142
C 4.9327 2.81471 -0.00562
C 6.11408 2.145 -0.00494
C 6.14044 0.72112 0.00054
C 4.96108 0.03889 0.03007
C 7.39674 32.61662 -0.00095
C 8.58609 31.97272 0.01572
C 8.53992 30.52403 -0.04848
C 7.38856 29.8084 -0.00892
C 7.33886 28.43199 -0.01362
C 8.52584 27.71715 -0.0008
C 8.57558 26.27941 0.0288
C 7.35985 25.53405 0.00393
C 6.1551 14.95788 0.01227
C 20.86912 31.93665 0.00143
C 20.91689 30.56096 -0.017
C 19.68464 29.82082 0.00364
C 30.74132 4.97716 0.07705
C 29.49249 4.27206 0.0103
C 29.55275 2.84787 0.02108
C 30.76519 2.15703 0.00716
C 30.73373 0.68523 0.00307
C 29.50388 34.06437 0.00346
C 31.94332 32.65419 0.01713
C 33.15908 31.99644 -0.01694
C 33.2451 30.52911 0.01428
C 30.75735 6.37052 0.01908
C 32.02875 29.78439 -0.02142
C 33.20252 27.72151 0.00026
C 33.18563 26.29596 0.00682
C 31.98012 25.55604 -0.01779
C 31.97058 24.1443 0.03794
C 33.21155 23.40825 0.01927
C 33.20019 22.02199 0.01574
C 32.03454 21.34208 -0.02383
C 31.98318 19.82476 -0.01429
C 33.23436 19.14665 -0.0136
C 32.00705 28.40799 0.0544
C 29.51659 7.12601 0.01518
C 29.50768 8.48379 -0.00971
C 30.70111 9.26446 -0.03735
C 30.79702 31.89068 0.04266
C 30.71091 30.48607 0.01324
C 29.48446 29.82966 0.0014
C 29.49363 28.36449 0.00924
C 30.73075 27.69621 0.02326
C 30.71132 26.26535 0.00261
C 29.51574 25.48951 0.03265
C 29.53875 24.08534 -0.02049
C 30.75394 23.46823 -0.01854
C 30.79757 22.0194 -0.01415
C 29.54474 21.25385 -0.03039
C 29.53002 19.86826 0.01836
C 30.77434 19.13538 0.03531
C 30.72542 17.72289 -0.00669
C 29.5131 17.01546 0.0101
C 29.51361 15.61945 0.01705
C 30.76304 14.92957 -0.0405
C 30.76202 13.55102 -0.01303
C 29.49549 12.79414 -0.01461
C 29.55967 11.40765 -0.02155
C 30.71815 10.65654 -0.00944
C 33.1945 17.76019 0.00594
C 29.49482 32.64755 0.01177
C 32.01383 17.08187 -0.02474
C 33.2427 14.88344 0.00455
C 34.40075 21.26315 -0.02213
C 34.42733 19.90928 0.01951
C 1.23932 19.19404 -0.01678
C 1.24769 17.79113 0.01223
C 34.39794 16.95291 0.00648
C 34.39566 15.58873 0.02114
C 1.21465 14.90461 -0.02957
C 1.29155 13.49372 0.00343
C 34.38933 12.72734 -0.02656
C 1.16751 22.03704 0.02712
C 34.40534 11.33176 -0.02442
C 1.20821 9.22506 -0.00583
C 34.41557 8.48152 -0.02302
C 34.42302 7.14712 -0.02849
C 1.21479 6.40975 0.02931
C 1.22468 4.95103 0.00628
C 0.00191 4.22059 -0.0345
C 34.40211 2.80194 -0.00931
C 1.20481 2.15217 -0.00939
C 1.25213 0.72889 -0.00468
C 1.2507 10.63595 -0.00027
C 1.22344 23.43932 0.00723
C 34.39286 24.18701 0.03076
C 34.43275 25.60588 -0.05239
C 33.21394 13.52004 -0.00644
C 31.93928 12.79727 -0.01839
C 31.93906 11.33799 0.00137
C 33.18444 10.67438 0.00199
C 33.1974 9.23819 0.04381
C 31.99103 8.52003 0.02806
C 31.94122 7.09063 0.01504
C 33.18127 6.39015 -0.00069
C 33.19231 4.98426 0.04926
C 31.96273 4.32625 -0.03838
C 31.98495 2.82091 0.00349
C 33.19589 2.09288 -0.00323
C 33.15668 0.68151 -0.00841
C 31.96897 0.01697 0.0001
C 0.02674 32.66303 -0.02927
C 1.17564 31.91168 -0.01404
C 1.20617 30.52313 0.01027
C 0.00848 29.81775 0.01831
C 34.43018 28.37695 -0.01037
C 1.2142 27.68489 -0.00439
C 1.26143 26.2385 -0.00598
C 32.01151 15.59598 0.00369
C 27.08423 34.0791 -0.00416
C 28.2628 0.68579 0.01699
C 28.30716 2.07563 0.01799
C 23.34 23.40223 -0.01185
C 23.35914 21.97916 0.01126
C 22.13408 21.27227 0.01852
C 22.20121 19.82833 -0.00381
C 23.34216 19.20118 0.03046
C 23.30515 6.37581 0.0296
C 23.29788 4.94775 0.03374
C 22.13212 4.19152 -0.02845
C 22.10635 2.84032 -0.03213
C 22.15659 24.13083 -0.01662
C 23.39737 2.16571 0.02239
C 22.0232 34.07397 0.02734
C 24.53336 32.60619 -0.0055
C 25.82852 31.94702 0.01515
C 25.81418 30.52254 -0.00225
C 24.60521 29.80472 0.00071
C 24.63087 28.35156 -0.01107
C 25.8634 27.6788 -0.01586
C 25.81267 26.28669 -0.01971
C 24.59979 25.49835 -0.02118
C 23.34792 0.68826 0.01153
C 22.11895 25.58415 -0.00478
C 23.39127 26.21348 0.01511
C 23.43765 27.6426 0.00199
C 19.67122 28.38047 -0.00831
C 20.9066 27.69419 -0.02957
C 20.91333 26.29168 -0.04422
C 19.67251 25.56413 0.00654
C 19.70332 24.13547 -0.00703
C 20.89668 23.4158 -0.04076
C 20.94275 22.03923 -0.00652
C 19.72013 21.27865 0.0058
C 19.72092 19.89249 -0.00865
C 20.96279 6.42273 0.00675
C 20.90725 5.01195 -0.00311
C 19.70539 4.19454 0.00742
C 19.68551 2.80413 -0.01594
C 20.93726 2.12762 0.0106
C 20.87078 0.76941 -0.01154
C 19.63449 0.00152 -0.01721
C 22.1116 32.6759 -0.02422
C 23.33238 31.95808 0.01277
C 23.33505 30.49902 0.00096
C 22.15022 29.83563 -0.01527
C 22.13568 28.43201 0.01087
C 24.57182 24.10661 0.00733
C 25.83827 23.44979 -0.00178
C 25.84288 22.01183 0.00768
C 24.63754 21.2987 -0.0276
C 26.99428 24.11761 -0.01654
C 28.30389 23.43574 -0.00037
C 28.29355 21.99511 -0.0032
C 27.15814 21.32974 0.00622
C 27.02656 19.88328 -0.02815
C 28.29087 19.15016 -0.00942
C 28.27912 17.71897 0.00487
C 26.97466 17.04825 0.00826
C 26.98341 15.65081 -0.00294
C 28.24757 14.89737 0.00152
C 28.26146 13.49635 0.01257
C 27.05903 12.73351 0.02316
C 26.98821 11.31023 0.04185
C 28.29219 10.6547 0.00194
C 28.25226 9.25392 -0.00621
C 27.03985 8.50599 0.02611
C 27.02522 7.12092 0.02198
C 28.29643 6.38718 0.01094
C 28.28483 4.95506 0.00235
C 27.03695 4.25753 0.01495
C 27.07056 2.7774 0.01259
C 27.07751 25.58133 -0.00218
C 3.6933 31.94023 0.00208
C 28.29257 26.27183 -0.00802
C 27.11682 28.46654 0.00996
C 24.59234 19.89457 0.03005
C 25.76382 19.11666 -0.04078
C 25.78731 17.72973 0.02117
C 24.60644 17.08595 0.02737
C 25.8166 14.92976 -0.00498
C 25.83444 13.52517 0.00135
C 25.87841 10.66136 0.03102
C 25.81966 9.22575 0.02555
C 24.58765 8.52933 0.01423
C 24.56948 7.04705 -0.00285
C 25.82648 6.41361 -0.009
C 25.83865 4.95776 -0.01199
C 24.54754 4.26529 -0.00229
C 24.59118 2.84781 -0.00938
C 25.81931 2.11855 -0.0264
C 25.82703 0.71335 -0.01154
C 24.59581 34.07848 0.00684
C 27.0672 32.61104 -0.01052
C 28.29806 31.98248 -0.01679
C 28.31666 30.56854 0.00367
C 27.03619 29.8371 0.04306
C 28.29723 27.6678 0.00195
C 2.4609 32.66354 -0.00561
