392
Graphene
C 34.41932 0.03463 0.01295
C 11.0831 2.15348 0.01877
C 11.05136 0.7023 0.01363
C 9.80133 0.08229 -0.02162
C 12.36219 32.66756 0.00415
C 13.52186 31.9367 -0.0014
C 13.48837 30.52565 0.02162
C 12.2495 29.83433 0.0076
C 12.28757 28.37247 0.01241
C 13.47225 27.67849 -0.01454
C 9.91527 2.827 -0.00925
C 13.50635 26.16733 0.01945
C 12.36821 24.13751 0.03542
C 13.58105 23.39629 0.02299
C 13.58122 21.98768 0.00244
C 12.34272 21.3286 -0.01717
C 12.29611 19.9315 0.05265
C 13.53108 19.10168 -0.01952
C 13.54171 17.66106 -0.02813
C 12.25514 16.93973 0.00374
C 12.35007 15.52736 0.00052
C 12.32729 25.5127 0.01416
C 9.83969 4.2534 0.00444
C 11.01855 5.01454 -0.01789
C 11.01191 6.45363 0.02894
C 9.78622 28.50471 0.03589
C 10.99554 27.75542 -0.02759
C 11.0453 26.30737 0.0402
C 9.8143 25.63927 0.00572
C 9.8664 24.1698 0.03592
C 11.10183 23.48747 0.00406
C 11.08037 22.09639 0.00943
C 9.81528 21.37259 0.02841
C 9.7915 19.97827 -0.01111
C 11.04932 19.16054 -0.01275
C 11.10199 17.72552 0.00985
C 9.85138 17.05092 -0.02245
C 9.89712 15.60053 -0.00428
C 11.0421 14.83396 0.03101
C 11.04614 13.49033 -0.01536
C 9.79685 12.78626 -0.02689
C 9.81074 11.3743 -0.01046
C 11.03168 10.60025 -0.00891
C 11.1338 9.21929 0.02819
C 9.84543 8.59427 0.00165
C 9.79782 7.21919 -0.02971
C 13.5041 14.8777 -0.03682
C 9.76554 29.90855 -0.00033
C 13.49563 13.49178 0.01965
C 12.27769 11.33644 -0.01957
C 16.04567 17.72417 -0.02213
C 14.77227 17.01419 0.03698
C 14.77331 15.69633 -0.00109
C 16.0265 14.9412 -0.00491
C 16.04025 13.48297 0.03338
C 14.74997 12.851 -0.0258
C 14.81013 11.39285 -0.0331
C 16.03384 10.62425 -0.00316
C 15.98091 9.21215 0.02188
C 16.00043 19.09778 0.00028
C 14.76446 8.53177 -0.01979
C 15.91482 6.37248 -0.01581
C 15.95541 4.956 0.01452
C 14.74705 4.21134 0.04892
C 14.70175 2.78061 -0.00111
C 16.02343 2.15898 -0.03557
C 15.902 0.75154 0.03754
C 14.65633 0.05674 0.01739
C 17.17361 32.72981 0.00755
C 18.37796 31.96073 -0.0054
C 14.68333 7.0424 0.02691
C 14.79505 19.77647 -0.00289
C 14.82853 21.22687 -0.00066
C 16.05916 22.0276 0.00213
C 13.5776 10.68162 -0.0108
C 13.60023 9.24629 -0.00368
C 12.39931 8.52485 -0.02696
C 12.25204 7.08696 -0.00114
C 13.49526 6.32762 0.00228
C 13.56662 4.93963 0.00798
C 12.2865 4.29034 0.00422
C 12.29496 2.92731 0.0351
C 13.48776 2.15995 -0.03113
C 13.43753 0.73796 0.02098
C 12.22974 0.01319 0.01848
C 14.74965 32.71293 -0.00619
C 15.92999 31.94892 -0.02162
C 15.92832 30.53783 0.00889
C 14.75889 29.7555 -0.00481
C 14.69525 28.32979 0.00979
C 15.96341 27.61566 0.01443
C 15.96266 26.24575 0.03505
C 14.79458 25.5107 -0.02815
C 14.80375 24.10005 -0.04147
C 16.08765 23.42233 -0.05302
C 12.27203 12.77219 0.02058
C 18.42894 30.50913 0.00667
C 11.01174 30.52573 -0.01062
C 9.83082 32.6974 -0.00719
C 2.46634 4.26406 0.01465
C 2.42025 2.87147 -0.00074
C 3.66192 2.1231 -0.00518
C 3.64083 0.7255 0.0086
C 2.44739 0.01365 -0.00643
C 4.92767 32.69898 0.017
C 6.13487 31.97364 -0.03113
C 6.1391 30.55927 -0.02566
C 4.96133 29.79581 -0.00094
C 3.68716 4.99713 -0.03996
C 4.91407 28.42014 0.02322
C 6.12812 26.28181 -0.05697
C 4.91196 25.5238 0.01087
C 4.84677 24.17438 -0.01343
C 6.05799 23.43146 0.00988
C 6.14549 21.99021 0.0276
C 4.9163 21.31699 0.01305
C 4.97381 19.8691 -0.00077
C 6.13991 19.06946 0.03368
C 6.07294 17.71053 -0.02929
C 6.09005 27.78542 -0.00725
C 3.61794 6.44876 0.01996
C 2.44857 7.1405 -0.00279
C 2.42545 8.65847 0.01226
C 3.69527 30.52887 0.01707
C 2.47885 29.78098 0.02769
C 2.43004 28.42649 -0.03291
C 3.70456 27.62962 -0.04999
C 3.63707 26.20864 0.04505
C 2.44969 25.59147 0.03284
C 2.38206 24.12556 -0.04307
C 3.63576 23.50434 0.03189
C 3.66928 22.05031 0.00031
C 2.41705 21.29505 -0.003
C 2.51765 19.89459 0.01402
C 3.75905 19.22208 0.02379
C 3.71106 17.78863 0.00907
C 2.48687 17.12021 0.00643
C 2.45349 15.64544 -0.01509
C 3.6529 14.91429 0.03267
C 3.72821 13.44629 0.02374
C 2.46737 12.71962 0.00402
C 2.46221 11.34084 0.0073
C 3.73482 10.71729 0.0174
C 3.68144 9.33371 0.03828
C 4.92214 17.03131 -0.00966
C 11.10416 31.95449 0.01364
C 4.89082 15.63765 -0.03337
C 6.18219 13.51637 0.00873
C 7.34855 19.85631 -0.01384
C 8.54322 19.1352 0.03693
C 8.58255 17.70867 0.01745
C 7.39464 17.00628 0.00488
C 7.41671 15.60486 -0.01004
C 8.63928 14.93203 -0.02896
C 8.60425 13.52738 -0.00131
C 7.38041 12.85422 -0.01118
C 7.42567 11.37695 -0.014
C 7.31724 21.28518 -0.00482
C 8.60639 10.71829 0.02147
C 7.35448 8.55007 -0.00191
C 7.32862 7.13512 0.00438
C 8.6359 6.42138 0.01291
C 8.58736 5.00241 0.00093
C 7.33542 4.34572 0.00057
C 7.36184 2.9128 -0.01634
C 8.60889 2.1771 -0.00334
C 8.61614 0.78858 0.02339
C 7.39278 0.03372 0.01641
C 8.61252 9.29242 0.00373
C 8.54466 22.10298 0.02888
C 8.53797 23.49146 0.00685
C 7.28035 24.11872 0.00895
C 5.00661 12.82995 -0.00049
C 4.97562 11.43253 0.00848
C 6.13695 10.6891 -0.01303
C 6.12356 9.22118 -0.01378
C 4.87513 8.60814 0.02635
C 4.81661 7.16829 0.0127
C 6.10041 6.47005 0.01396
C 6.07329 4.98153 0.01849
C 4.87609 4.25805 -0.01142
C 4.90027 2.8789 -0.00562
C 6.18891 2.20965 -0.00494
C 6.18711 0.80366 0.00054
C 4.9068 0.08317 0.03007
C 7.37828 32.74671 -0.00095
C 8.63128 31.9561 0.01572
C 8.56927 30.60564 -0.04848
C 7.32845 29.8445 -0.00892
C 7.33632 28.42627 -0.01362
C 8.54741 27.70059 -0.0008
C 8.50313 26.28062 0.0288
C 7.2599 25.55115 0.00393
C 6.16832 14.94008 0.01227
C 17.21442 29.83032 0.00143
C 17.18199 28.39422 -0.017
C 18.5615 27.56682 0.00364
C 30.69253 4.96904 0.07705
C 29.50463 4.24943 0.0103
C 29.50059 2.85441 0.02108
C 30.75614 2.14519 0.00716
C 30.69285 0.74546 0.00307
C 29.48239 0.01289 0.00346
C 31.94772 32.71655 0.01713
C 33.19287 32.002 -0.01694
C 33.26192 30.5809 0.01428
C 30.70896 6.36735 0.01908
C 32.06525 29.82176 -0.02142
C 33.19386 27.68821 0.00026
C 33.15352 26.33867 0.00682
C 32.07533 25.47415 -0.01779
C 31.98921 24.2761 0.03794
C 33.1005 23.49446 0.01927
C 33.13244 22.05645 0.01574
C 32.06932 21.06476 -0.02383
C 32.06366 19.94626 -0.01429
C 33.21148 19.13547 -0.0136
C 31.96783 28.3677 0.0544
C 29.52456 7.03594 0.01518
C 29.50398 8.49217 -0.00971
C 30.70029 9.19653 -0.03735
C 28.2661 6.34522 0.04266
C 28.24433 4.90564 0.01324
C 26.96753 4.20221 0.0014
C 26.94555 2.83144 0.00924
C 28.23151 2.1523 0.02326
C 28.26001 0.69533 0.00261
C 27.02231 34.06089 0.03265
C 29.48949 32.70113 -0.02049
C 30.75258 31.89976 -0.01854
C 30.84151 30.45842 -0.01415
C 29.46895 29.71809 -0.03039
C 29.75151 28.34727 0.01836
C 30.76317 27.73873 0.03531
C 30.69214 17.6601 -0.00669
C 29.63938 17.00862 0.0101
C 29.46296 15.6619 0.01705
C 30.73068 15.00856 -0.0405
C 30.71988 13.55883 -0.01303
C 29.53618 12.85021 -0.01461
C 29.47752 11.40931 -0.02155
C 30.69206 10.70508 -0.00944
C 33.27051 17.71389 0.00594
C 27.1214 7.04455 0.01177
C 31.96628 17.08485 -0.02474
C 33.17026 14.91608 0.00455
C 34.37583 21.32706 -0.02213
C 34.4139 19.86864 0.01951
C 1.2061 19.18547 -0.01678
C 1.21148 17.77363 0.01223
C 34.42561 17.01597 0.00648
C 0.01593 15.55967 0.02114
C 1.2381 14.87866 -0.02957
C 1.25945 13.44075 0.00343
C 34.4259 12.77522 -0.02656
C 1.18149 22.01754 0.02712
C 0.01341 11.30251 -0.02442
C 1.19198 9.21397 -0.00583
C 34.40354 8.55271 -0.02302
C 34.38152 7.08858 -0.02849
C 1.19413 6.47902 0.02931
C 1.22957 5.0134 0.00628
C 34.39656 4.26312 -0.0345
C 34.35579 2.821 -0.00931
C 1.16701 2.13273 -0.00939
C 1.17816 0.75564 -0.00468
C 1.24025 10.58647 -0.00027
C 1.12713 23.45493 0.00723
C 34.37099 24.19881 0.03076
C 34.37263 25.60194 -0.05239
C 33.15312 13.46808 -0.00644
C 31.95144 12.81911 -0.01839
C 31.92708 11.42997 0.00137
C 33.16453 10.65601 0.00199
C 33.19925 9.23637 0.04381
C 31.91566 8.55571 0.02806
C 31.96522 7.07421 0.01504
C 33.18581 6.40899 -0.00069
C 33.19954 4.99516 0.04926
C 31.95625 4.28713 -0.03838
C 31.992 2.84029 0.00349
C 33.15496 2.07796 -0.00323
C 33.18088 0.69795 -0.00841
C 31.89113 0.00271 0.0001
C 34.39999 32.71241 -0.02927
C 1.18702 31.91704 -0.01404
C 1.22414 30.49294 0.01027
C 0.02361 29.7838 0.01831
C 0.00829 28.35833 -0.01037
C 1.26968 27.70622 -0.00439
C 1.17922 26.30228 -0.00598
C 31.98998 15.70709 0.00369
C 27.06742 8.47763 -0.00416
C 28.33241 9.18017 0.01699
C 28.34214 10.61025 0.01799
C 20.95732 31.93066 -0.01185
C 20.89555 30.51443 0.01126
C 19.68935 29.74307 0.01852
C 19.76079 28.38415 -0.00381
C 19.70578 17.02888 0.03046
C 19.6152 15.68814 0.0296
C 20.77524 14.8562 0.03374
C 20.82857 13.44869 -0.02845
C 19.63995 12.78963 -0.03213
C 19.68727 32.57806 -0.01662
C 19.66549 11.3444 0.02239
C 20.80376 9.20703 0.02734
C 19.53805 8.49418 -0.0055
C 19.61702 7.02582 0.01515
C 20.88139 6.3166 -0.00225
C 20.9083 4.88886 0.00071
C 19.69279 4.23219 -0.01107
C 19.71628 2.78612 -0.01586
C 20.92511 2.01274 -0.01971
C 20.92177 0.65992 -0.02118
C 20.86778 10.62786 0.01153
C 17.15417 0.05608 -0.00478
C 18.48978 0.66101 0.01511
C 18.50539 2.08387 0.00199
C 18.34632 26.2766 -0.00831
C 17.27823 25.4846 -0.02957
C 17.24238 24.12313 -0.04422
C 17.14564 21.30529 0.00654
C 17.40331 20.02327 -0.00703
C 18.35116 19.12426 -0.04076
C 18.54522 17.81217 -0.00652
C 17.28594 17.03017 0.0058
C 17.23931 15.64527 -0.00865
C 18.38459 14.90984 0.00675
C 18.43243 13.50495 -0.00311
C 17.21736 12.77807 0.00742
C 17.2221 11.34347 -0.01594
C 18.4587 10.7058 0.0106
C 18.37845 9.23908 -0.01154
C 17.20818 8.55597 -0.01721
C 17.1721 7.12274 -0.02422
C 18.4001 6.38255 0.01277
C 18.51457 4.9924 0.00096
C 17.23094 4.27887 -0.01527
C 17.25377 2.86674 0.01087
C 19.75326 33.96917 0.00733
C 22.16882 32.65776 -0.00178
C 23.40707 31.95429 0.00768
C 23.35942 30.38341 -0.0276
C 24.64574 11.39457 -0.01654
C 25.82027 10.65065 -0.00037
C 25.93811 9.26738 -0.0032
C 24.6457 8.52555 0.00622
C 24.61768 7.15731 -0.02815
C 25.79491 6.37159 -0.00942
C 25.73152 4.95414 0.00487
C 24.51541 4.27033 0.00826
C 24.49915 2.8269 -0.00294
C 25.70405 2.12525 0.00152
C 25.78511 0.65139 0.01257
C 24.58556 34.04847 0.02316
C 27.03579 32.6408 0.04185
C 28.25013 31.92962 0.00194
C 28.25832 30.45757 -0.00621
C 27.05155 29.80132 0.02611
C 27.05778 15.64508 0.02198
C 28.21354 14.95504 0.01094
C 28.23827 13.49228 0.00235
C 27.06989 12.7182 0.01495
C 27.1067 11.27728 0.01259
C 24.57474 12.76206 -0.00218
C 3.67955 31.96481 0.00208
C 25.83314 13.43318 -0.00802
C 24.72345 15.7476 0.00996
C 22.09638 29.89719 0.03005
C 22.00852 15.38656 -0.04078
C 23.35714 15.08806 0.02117
C 23.35148 13.52945 0.02737
C 22.11255 12.72873 -0.00498
C 22.12195 11.31895 0.00135
C 23.33214 10.63874 0.03102
C 23.43742 9.25592 0.02555
C 22.06415 8.50942 0.01423
C 22.07751 7.11835 -0.00285
C 23.34049 6.43116 -0.009
C 23.2592 5.04505 -0.01199
C 22.15038 4.20328 -0.00229
C 22.07796 2.78584 -0.00938
C 23.29202 2.07257 -0.0264
C 23.35915 0.65457 -0.01154
C 22.15447 34.07168 0.00684
C 24.59433 32.67141 -0.01052
C 25.76309 31.93304 -0.01679
C 25.84243 30.46025 0.00367
C 24.65506 29.89251 0.04306
C 25.83982 14.94428 0.00195
C 2.41389 32.6383 -0.00561
