413
Graphene
C 34.37827 33.99426 0.01295
C 12.20268 28.5687 -0.02245
C 13.46939 27.78851 -0.00428
C 13.52921 26.38414 0.03101
C 12.35172 25.65432 -0.01536
C 12.29425 24.1664 -0.02689
C 13.51959 23.63188 -0.01046
C 12.16284 21.3272 -0.00891
C 12.26347 19.98347 0.02819
C 12.14806 16.95407 0.00165
C 12.61126 15.64263 -0.02971
C 13.73599 14.86704 0.02894
C 13.57916 13.41803 -0.01789
C 12.36603 12.65166 0.00444
C 12.36279 11.28206 -0.00925
C 13.61453 10.57916 0.01877
C 13.57023 9.20548 0.01363
C 12.33196 8.60115 -0.02162
C 12.28722 7.09193 0.00415
C 13.45864 6.41685 -0.0014
C 13.51106 4.96733 0.02162
C 12.25144 4.26051 0.0076
C 12.1473 29.9585 0.00985
C 13.39787 30.51715 -0.01275
C 13.48237 32.00452 -0.01111
C 12.23652 32.71741 0.02841
C 11.06571 22.02058 0.02147
C 9.83806 21.31548 0.00373
C 9.93099 19.8777 -0.00191
C 11.11851 19.14811 0.00438
C 11.04101 17.61303 0.01291
C 9.7413 16.9647 0.00093
C 9.93851 15.57383 0.00057
C 11.257 14.93926 -0.01634
C 11.16367 13.47333 -0.00334
C 9.92768 12.79677 0.02339
C 12.17587 2.83077 0.01241
C 9.86078 11.39327 0.01641
C 11.0834 9.28716 0.01364
C 9.81787 8.45559 -0.01062
C 9.81213 7.06605 -0.00033
C 11.03434 6.37221 0.03589
C 11.08256 4.98901 -0.02759
C 9.74583 4.35977 0.0402
C 9.6916 2.98468 0.00572
C 10.93633 2.12257 0.03592
C 10.93058 0.7704 0.00406
C 9.77236 0.1138 0.00943
C 11.07164 10.68036 -0.00719
C 13.43106 2.2176 -0.01454
C 13.36928 0.76147 0.01945
C 12.18005 0.01694 0.01416
C 17.13742 29.90689 0.00889
C 17.22795 28.52107 -0.00481
C 18.38883 27.75967 0.00979
C 18.3379 26.21312 0.01443
C 17.1189 25.61073 0.03505
C 17.30997 12.60268 -0.02815
C 17.27199 11.19098 -0.04147
C 18.50188 10.48893 -0.05302
C 18.45898 9.11251 0.00213
C 17.25472 8.43166 -0.00066
C 18.35538 30.55034 -0.02162
C 17.0994 7.02998 -0.00289
C 18.35649 4.97994 -0.02213
C 17.15567 4.18553 0.03698
C 17.162 2.80845 -0.00109
C 18.40584 2.07297 -0.00491
C 18.45483 0.65239 0.03338
C 17.16819 34.07679 -0.0258
C 19.59302 32.72892 -0.0331
C 20.8043 31.95646 -0.00316
C 20.80499 30.59997 0.02188
C 19.56542 29.89446 -0.01979
C 18.35285 6.37161 0.00028
C 11.0494 23.47804 -0.014
C 18.34707 31.98064 -0.00619
C 14.61636 0.06761 0.02098
C 14.65562 32.72752 0.03542
C 15.86145 32.00203 0.02299
C 15.87247 30.57375 0.00244
C 14.65481 29.80577 -0.01717
C 14.67508 28.43774 0.05265
C 16.02045 27.86391 -0.01952
C 16.05918 26.42214 -0.02813
C 14.79331 25.6873 0.00374
C 14.65004 24.29883 0.00052
C 16.13501 13.15697 -0.03682
C 17.13873 32.69814 0.01848
C 14.87155 12.61879 0.01965
C 16.06219 10.54547 -0.01957
C 16.02395 9.17097 -0.0108
C 14.78608 8.43644 -0.00368
C 14.75076 7.07046 -0.02696
C 15.91068 6.34874 -0.00114
C 15.93634 4.95539 0.00228
C 14.71803 4.28429 0.00798
C 14.74887 2.81387 0.00422
C 15.92368 2.12571 0.0351
C 15.91954 0.72278 -0.03113
C 14.79334 11.26941 0.02058
C 9.80028 24.25281 -0.01118
C 9.80123 25.67545 -0.00131
C 11.07631 26.36422 -0.02896
C 2.32449 2.90725 0.03284
C 3.5544 2.18886 -0.04307
C 3.56617 0.83198 0.03189
C 2.3955 34.07797 0.00031
C 4.83805 32.78219 -0.003
C 6.01791 32.07763 0.01402
C 6.16169 30.64147 0.02379
C 4.8646 29.87264 0.00907
C 4.86208 28.44845 0.00643
C 6.17904 27.75534 -0.01509
C 2.38145 4.23053 0.04505
C 6.11998 26.30392 0.03267
C 4.90822 24.1989 0.00402
C 6.20931 23.44601 0.0073
C 6.13979 21.98529 0.0174
C 4.92273 21.24758 0.03828
C 4.87154 19.90647 0.01226
C 6.18312 19.15134 -0.00279
C 6.16367 17.73684 0.01996
C 4.82539 17.08394 -0.03996
C 4.88509 15.65305 0.01465
C 6.17362 14.97396 -0.00074
C 4.88754 25.61286 0.02374
C 6.12846 13.54829 -0.00518
C 3.58986 4.9996 -0.04999
C 2.31098 7.10132 0.02769
C 3.6214 30.54011 -0.00177
C 2.38007 29.79987 0.04421
C 2.45005 28.36386 0.00088
C 3.67883 27.70296 0.00828
C 3.63609 26.25476 -0.02375
C 2.43017 25.5531 0.00558
C 2.42286 24.10588 -0.0059
C 3.68244 23.48719 -0.01386
C 3.71165 22.0329 -0.02805
C 2.4003 21.30942 0.00081
C 3.47407 6.45211 -0.03291
C 2.4898 19.91425 0.00245
C 3.65663 17.82589 -0.00039
C 2.42106 17.04871 0.0064
C 2.42149 15.55057 0.00211
C 3.67808 14.89569 -0.00449
C 3.71338 13.54525 -0.01979
C 2.46198 12.87076 0.02784
C 2.48318 11.40259 -0.01977
C 3.69613 10.6922 -0.00561
C 3.70997 9.25069 0.00208
C 2.41353 8.61263 0.01707
C 3.66552 19.23959 0.02728
C 19.66457 28.36365 0.02691
C 4.88795 12.80817 0.0086
C 6.18127 10.67875 0.017
C 7.40205 15.63836 -0.01142
C 8.71071 14.90452 -0.00562
C 8.65954 13.4776 -0.00494
C 7.33933 12.84462 0.00054
C 7.40638 11.42054 0.03007
C 8.62372 10.76756 -0.00095
C 8.61647 9.25705 0.01572
C 7.39375 8.55736 -0.04848
C 7.24166 7.15872 -0.00892
C 8.54492 6.45845 -0.01362
C 7.40248 17.04669 0.01849
C 8.51925 5.00382 -0.0008
C 7.21026 2.919 0.00393
C 8.49461 2.25552 0.00895
C 8.54387 0.82369 0.00685
C 7.31218 0.09351 0.02888
C 9.65626 32.80355 -0.00482
C 10.98106 32.10197 -0.01384
C 10.91049 30.65941 0.03693
C 9.72895 29.93335 0.01745
C 9.73702 28.49658 0.00488
C 11.02465 27.83432 -0.01004
C 7.26918 4.3959 0.0288
C 4.9081 11.44135 -0.00643
C 8.62119 17.80898 0.01396
C 7.3351 19.98345 0.02635
C 6.17249 9.28121 -0.03113
C 4.91568 8.66037 -0.02566
C 4.78721 7.18494 -0.00094
C 6.04554 6.51454 0.02322
C 6.05501 5.12469 -0.00725
C 4.87684 4.3924 -0.05697
C 4.77393 2.98935 0.01087
C 5.98984 2.28105 -0.01343
C 6.06983 0.84632 0.00988
C 4.82906 0.08827 0.0276
C 8.61882 19.21215 0.0127
C 7.23102 32.73135 0.01305
C 8.58622 30.65235 0.03368
C 7.38848 29.9505 -0.02929
C 7.38822 28.48733 -0.00966
C 8.57581 27.70758 -0.03337
C 8.62477 26.3382 0.01227
C 7.39678 25.55211 0.00873
C 7.40448 24.13485 -0.00049
C 8.64739 23.45046 0.00848
C 8.58104 22.01871 -0.01303
C 7.39635 21.35236 -0.01378
C 8.47881 32.04884 -0.00077
C 3.57662 31.97866 0.03278
C 20.93154 27.70032 -0.01581
C 19.56435 25.59003 0.04892
C 30.65286 9.10813 -0.03735
C 29.5066 8.41141 -0.00971
C 29.46061 7.03447 0.01518
C 30.68093 6.30625 0.01908
C 30.69712 4.96106 0.07705
C 29.51049 4.30201 0.0103
C 29.41841 2.82111 0.02108
C 30.74457 2.11221 0.00716
C 30.70355 0.6746 0.00307
C 29.52284 0.01744 0.00346
C 31.97736 32.67228 0.01713
C 33.12153 31.968 -0.01694
C 33.15538 30.54841 0.01428
C 31.88045 29.84949 -0.02142
C 31.99337 28.464 0.0544
C 33.12568 27.67705 0.00026
C 33.22109 26.31829 0.00682
C 31.96901 25.59634 -0.01779
C 31.94077 24.09988 0.03794
C 33.18253 23.4657 0.01927
C 33.14121 22.03139 0.01574
C 30.70084 10.56578 -0.00944
C 29.47493 11.25472 -0.02155
C 29.49488 12.68145 -0.01461
C 30.67712 13.41981 -0.01303
C 26.95112 2.84081 0.01259
C 28.21282 2.12741 0.01799
C 28.23722 0.69602 0.01699
C 27.01574 34.02079 -0.00416
C 29.51398 32.70074 0.01177
C 30.67161 31.98453 0.04266
C 30.70083 30.53506 0.01324
C 29.41168 29.77879 0.0014
C 29.47372 28.32451 0.00924
C 30.77541 27.72297 0.02326
C 31.90358 21.34819 -0.02383
C 30.72241 26.29377 0.00261
C 29.53092 24.15435 -0.02049
C 30.7811 23.38605 -0.01854
C 30.726 21.94685 -0.01415
C 29.49083 21.268 -0.03039
C 29.47432 19.83061 0.01836
C 30.74141 19.15118 0.03531
C 30.66325 17.72138 -0.00669
C 29.4801 17.01433 0.0101
C 29.4906 15.57603 0.01705
C 30.69259 14.86814 -0.0405
C 29.51123 25.55997 0.03265
C 31.91475 19.89356 -0.01429
C 33.1731 19.14352 -0.0136
C 33.22221 17.69389 0.00594
C 1.14175 23.33428 0.00723
C 1.11423 21.9227 0.02712
C 34.34717 21.24221 -0.02213
C 34.36342 19.84532 0.01951
C 1.18819 19.14887 -0.01678
C 1.16376 17.76578 0.01223
C 34.4109 16.9891 0.00648
C 34.40346 15.58284 0.02114
C 1.13495 14.9085 -0.02957
C 1.18357 13.54756 0.00343
C 34.42348 24.12829 0.03076
C 0.02953 12.76879 -0.02656
C 1.19463 10.60798 -0.00027
C 1.19364 9.26514 -0.00583
C 34.40199 8.54292 -0.02302
C 34.29181 7.09982 -0.02849
C 1.11999 6.3904 0.02931
C 1.1907 4.93514 0.00628
C 34.37181 4.21637 -0.0345
C 34.31774 2.83093 -0.00931
C 1.07281 2.12625 -0.00939
C 1.15082 0.77599 -0.00468
C 34.41248 11.34322 -0.02442
C 27.09466 4.2475 0.01495
C 34.40356 25.5104 -0.05239
C 1.2284 27.66124 -0.00439
C 31.93385 16.99777 -0.02474
C 31.89481 15.61044 0.00369
C 33.17007 14.85752 0.00455
C 33.20406 13.4332 -0.00644
C 31.99753 12.67873 -0.01839
C 31.88744 11.31612 0.00137
C 33.17313 10.59708 0.00199
C 33.15526 9.22257 0.04381
C 31.90409 8.52406 0.02806
C 31.87502 7.07773 0.01504
C 1.25074 26.2202 -0.00598
C 33.0962 6.32656 -0.00069
C 31.92472 4.26408 -0.03838
C 31.92319 2.83411 0.00349
C 33.15073 2.0879 -0.00323
C 33.14583 0.706 -0.00841
C 31.94344 34.03397 0.0001
C 34.39763 32.60014 -0.02927
C 1.19819 31.91766 -0.01404
C 1.18546 30.54063 0.01027
C 34.41177 29.85894 0.01831
C 34.40722 28.37227 -0.01037
C 33.17733 4.97155 0.04926
C 28.20281 4.9498 0.00235
C 28.23386 6.33974 0.01094
C 27.03124 7.07763 0.02198
C 23.39158 22.02766 -0.02422
C 23.54945 19.18556 0.01277
C 23.5413 17.79623 0.00096
C 23.33559 14.84583 -0.01527
C 23.42316 13.49523 0.01087
C 22.1433 12.81169 0.00199
C 22.10388 11.39238 0.01511
C 23.26824 10.63818 -0.00478
C 23.3608 9.24969 -0.01662
C 22.17542 8.4916 -0.01185
C 23.50194 23.43659 -0.01721
C 22.07267 7.08535 0.01126
C 23.30074 4.89593 -0.00381
C 22.06339 4.21128 0.03046
C 22.07491 2.73191 0.0296
C 23.34196 2.12437 0.03374
C 23.28838 0.72069 -0.02845
C 22.07073 34.06252 -0.03213
C 24.53767 32.65004 0.02239
C 25.79264 32.01166 0.01153
C 25.7987 30.59541 0.02734
C 24.56091 29.84519 -0.0055
C 23.31331 6.32245 0.01852
C 24.58108 28.38452 0.01515
C 22.25176 24.10905 -0.01154
C 23.37365 26.30122 -0.01594
C 19.76097 24.19097 -0.00111
C 21.01753 23.61756 -0.03557
C 20.83388 13.29809 0.03754
C 19.78069 12.66789 0.01739
C 19.62846 11.34427 0.00755
C 20.85449 10.63056 -0.0054
C 20.92317 9.17012 0.00667
C 19.75351 8.42525 0.00143
C 19.62516 7.04652 -0.017
C 20.89708 6.34919 0.00364
C 22.11049 25.55706 0.0106
C 20.84016 4.94224 -0.00831
C 19.57492 2.83965 -0.04422
C 20.77744 2.11291 0.00654
C 20.87582 0.75367 -0.00703
C 19.60377 0.03119 -0.04076
C 21.99918 32.57949 -0.00652
C 23.32802 31.95602 0.0058
C 23.35838 30.538 -0.00865
C 22.04685 29.87065 0.00675
C 22.18265 28.43375 -0.00311
C 23.36321 27.6703 0.00742
C 19.64423 4.27041 -0.02957
C 20.87344 26.27308 0.01452
C 25.85086 27.75373 -0.00225
C 24.59215 25.56387 -0.01107
C 28.21354 30.54014 0.00367
C 26.97124 29.90946 0.04306
C 27.05988 28.4869 0.00996
C 28.23576 27.678 0.00195
C 28.2375 26.27772 -0.00802
C 27.03047 25.56078 -0.00218
C 27.11759 24.15791 -0.01654
C 28.33453 23.4562 -0.00037
C 28.31071 22.00786 -0.0032
C 27.12161 21.36619 0.00622
C 28.25839 31.96814 -0.01679
C 27.06659 19.91136 -0.02815
C 28.15628 17.60621 0.00487
C 26.9424 16.99424 0.00826
C 26.99264 15.55559 -0.00294
C 28.25677 14.9086 0.00152
C 28.16634 13.3583 0.01257
C 26.98144 12.69876 0.02316
C 27.03164 11.31505 0.04185
C 28.26379 10.57024 0.00194
C 28.29608 9.16651 -0.00621
C 27.0825 8.45579 0.02611
C 28.23458 19.06504 -0.00942
C 25.84166 26.27999 0.00071
C 27.08245 32.63318 -0.01052
C 25.69335 0.67388 -0.01154
C 24.72679 24.15831 -0.01586
C 25.90829 23.42429 -0.01971
C 25.89463 22.06287 -0.02118
C 24.61094 21.31722 0.00733
C 24.61917 19.93187 -0.00178
C 25.89287 19.17261 0.00768
C 25.80848 17.74888 -0.0276
C 24.5985 16.99783 0.03005
C 24.60553 15.5589 -0.04078
C 25.85271 14.79002 0.02117
C 24.47489 0.04872 0.00684
C 25.83816 13.40971 0.02737
C 24.56125 11.32823 0.00135
C 25.75958 10.58202 0.03102
C 25.85392 9.18781 0.02555
C 24.53116 8.44872 0.01423
C 24.49166 7.05323 -0.00285
C 25.82062 6.35157 -0.009
C 25.79945 4.9486 -0.01199
C 24.60304 4.24096 -0.00229
C 24.48087 2.82844 -0.00938
C 25.7915 2.12611 -0.0264
C 24.60956 12.71465 -0.00498
C 2.35634 32.70036 0.01138
