385
Graphene
C 34.40409 33.99394 0.01295
C 12.33072 7.22897 0.02162
C 13.52065 6.55843 0.0076
C 13.55694 5.03924 0.01241
C 12.36351 4.25972 -0.01454
C 12.39784 2.89262 0.01945
C 13.57138 2.19133 0.01416
C 13.53856 0.76994 0.03542
C 12.26128 34.05219 0.02299
C 14.64063 32.58463 0.00244
C 12.26025 8.64578 -0.0014
C 15.9438 31.92522 -0.01717
C 14.67035 29.82864 -0.01952
C 14.84644 28.37709 -0.02813
C 15.999 27.58365 0.00374
C 16.00457 26.24353 0.00052
C 14.76397 25.48872 -0.03682
C 14.78287 24.09263 0.01965
C 15.99138 23.45932 0.02058
C 16.01257 21.98967 -0.01957
C 14.70344 21.29763 -0.0108
C 15.95983 30.52151 0.05265
C 14.71612 19.81731 -0.00368
C 13.56563 9.30756 0.00415
C 12.2664 11.42442 0.01363
C 12.24161 32.70271 0.00943
C 13.41469 31.89614 0.02841
C 13.35857 30.49053 -0.01111
C 12.17551 29.69084 -0.01275
C 12.40584 28.2979 0.00985
C 13.63193 27.67331 -0.02245
C 13.59286 26.26772 -0.00428
C 12.3473 25.65533 0.03101
C 12.20752 24.1434 -0.01536
C 13.51915 10.69561 -0.02162
C 13.54243 23.42832 -0.02689
C 12.26728 21.23535 -0.00891
C 12.18592 19.82471 0.02819
C 13.49991 19.09388 0.00165
C 13.51627 17.70574 -0.02971
C 12.31549 17.01782 0.02894
C 12.32775 15.55375 -0.01789
C 13.56837 14.97324 0.00444
C 13.47579 13.55584 -0.00925
C 12.28756 12.81976 0.01877
C 13.47986 22.007 -0.01046
C 9.85066 0.049 0.00406
C 15.97237 19.14749 -0.02696
C 14.75873 16.98904 0.00228
C 17.28735 24.00478 0.03338
C 18.52421 23.31753 -0.0258
C 18.48986 21.935 -0.0331
C 17.20987 21.18999 -0.00316
C 17.23746 19.79173 0.02188
C 18.49259 19.1144 -0.01979
C 18.3761 17.6893 0.02691
C 17.15696 17.07341 -0.01581
C 17.25218 15.70033 0.01452
C 17.27745 25.45973 -0.00491
C 17.23544 8.48307 0.04892
C 18.4368 6.35146 -0.03557
C 18.42615 4.98931 0.03754
C 17.1929 4.32136 0.01739
C 17.20243 2.85875 0.00755
C 18.37666 2.12268 -0.0054
C 18.41316 0.74965 0.00667
C 17.17575 0.00775 0.00143
C 19.6084 32.60416 -0.017
C 20.86294 31.87459 0.00364
C 17.17652 7.11985 -0.00111
C 15.91563 17.7408 -0.00114
C 18.49791 26.15152 -0.00109
C 17.20723 28.25315 -0.02213
C 14.97926 15.61833 0.00798
C 16.17297 14.8749 0.00422
C 16.03635 13.42928 0.0351
C 14.72498 12.89966 -0.03113
C 14.7157 11.38261 0.02098
C 15.84395 10.69169 0.01848
C 16.11014 9.34458 -0.00619
C 14.86604 8.60368 -0.02162
C 14.80062 7.17294 0.00889
C 18.45243 27.58126 0.03698
C 15.95083 6.40682 -0.00481
C 14.7513 4.22784 0.01443
C 14.77077 2.83928 0.03505
C 16.00153 2.12126 -0.02815
C 16.04332 0.69262 -0.04147
C 14.72339 34.0778 -0.05302
C 17.15273 32.649 0.00213
C 18.35755 31.93899 -0.00066
C 18.47317 30.52274 -0.00289
C 17.19832 29.72829 0.00028
C 16.01828 4.98352 0.00979
C 11.14269 0.75158 0.03592
C 11.0742 2.26686 0.00572
C 9.88075 2.98262 0.0402
C 4.79762 32.70433 -0.03113
C 6.12147 22.06475 -0.02566
C 4.93501 21.48063 -0.00094
C 4.90986 19.96577 0.02322
C 6.11965 19.35379 -0.00725
C 6.07392 17.86823 -0.05697
C 4.85172 17.0987 0.01087
C 4.86142 15.64141 -0.01343
C 6.12322 14.97489 0.00988
C 2.39397 34.07227 0.017
C 6.15036 13.55423 0.0276
C 4.85634 11.4511 -0.00077
C 6.13998 10.69399 0.03368
C 6.15127 9.26981 -0.02929
C 4.8902 8.55658 -0.00966
C 4.92273 7.12234 -0.03337
C 6.10891 6.44655 0.01227
C 6.13456 5.02047 0.00873
C 4.87589 4.31099 -0.00049
C 4.87758 2.89973 0.00848
C 4.85648 12.88384 0.01305
C 6.14224 2.21685 -0.01303
C 3.63101 0.71059 -0.00643
C 2.41159 2.81264 -0.00518
C 2.41512 24.26056 0.03189
C 3.3738 23.53987 0.00031
C 3.67725 22.0741 -0.003
C 2.42717 21.34264 0.01402
C 2.37988 19.94475 0.02379
C 3.62757 19.26602 0.00907
C 3.694 17.88115 0.00643
C 2.39749 17.02406 -0.01509
C 2.35024 15.65579 0.03267
C 3.56567 2.11554 0.0086
C 3.62748 14.94648 0.02374
C 2.43442 12.86632 0.0073
C 2.3867 11.34831 0.0174
C 3.63421 10.65444 0.03828
C 3.57443 9.24921 0.01226
C 2.39095 8.47355 -0.00279
C 2.44598 7.07258 0.01996
C 3.67243 6.42455 -0.03996
C 3.5914 5.01907 0.01465
C 2.40887 4.30241 -0.00074
C 3.58249 13.53937 0.00402
C 6.21854 0.82395 -0.01378
C 4.9273 0.16382 0.02635
C 7.52583 32.66583 0.0127
C 9.59964 23.76052 -0.00131
C 10.98977 23.40675 -0.01118
C 11.21154 22.01197 -0.014
C 9.83019 21.30842 0.02147
C 9.80657 19.94664 0.00373
C 10.90202 19.10448 -0.00191
C 10.98419 17.70356 0.00438
C 9.78662 17.09065 0.01291
C 9.74033 15.74666 0.00093
C 11.1006 30.63633 -0.02896
C 11.01759 14.96127 0.00057
C 9.76989 12.854 -0.00334
C 9.77703 11.4283 0.02339
C 11.04036 10.7609 0.01641
C 10.97085 9.31428 -0.00719
C 9.76423 8.61367 0.01364
C 9.73393 7.16477 -0.01062
C 11.03838 6.49441 -0.00033
C 11.06259 5.07022 0.03589
C 9.85228 4.44243 -0.02759
C 11.01533 13.54951 -0.01634
C 10.87066 32.01093 -0.01004
C 9.64195 32.79621 0.00488
C 7.42105 0.06556 0.01745
C 8.76727 22.21215 0.01396
C 7.4911 21.54316 0.01849
C 7.39281 20.0349 -0.01142
C 8.60179 19.2974 -0.00562
C 8.52996 17.82587 -0.00494
C 7.27161 17.04554 0.00054
C 7.29318 15.66299 0.03007
C 8.54913 15.00937 -0.00095
C 8.62527 13.51302 0.01572
C 7.34778 12.85073 -0.04848
C 7.31028 11.4722 -0.00892
C 8.57744 10.73847 -0.01362
C 8.57279 9.30059 -0.0008
C 7.39193 8.54463 0.0288
C 7.32473 7.13174 0.00393
C 8.53953 6.50226 0.00895
C 8.6015 5.03056 0.00685
C 7.38236 4.34697 0.02888
C 7.33492 2.89294 -0.00482
C 8.6697 2.28066 -0.01384
C 8.61096 0.89639 0.03693
C 20.80847 30.46624 -0.00831
C 3.75739 32.05481 -0.04307
C 19.66435 29.76633 -0.02957
C 20.90019 27.64636 0.00654
C 29.42535 4.26749 0.0103
C 29.43565 2.84258 0.02108
C 30.675 2.13445 0.00716
C 30.68377 0.7288 0.00307
C 29.4341 0.01226 0.00346
C 31.92552 32.71604 0.01713
C 33.12242 31.95811 -0.01694
C 33.19417 30.48465 0.01428
C 31.97462 29.81371 -0.02142
C 30.58158 5.03028 0.07705
C 31.99702 28.45715 0.0544
C 33.15967 26.24716 0.00682
C 31.87982 25.63715 -0.01779
C 31.99916 24.207 0.03794
C 33.16544 23.44359 0.01927
C 33.20849 22.00232 0.01574
C 31.98506 21.26949 -0.02383
C 31.95118 19.86881 -0.01429
C 33.20894 19.24467 -0.0136
C 33.2306 17.81101 0.00594
C 33.22147 27.64741 0.00026
C 31.97667 16.97026 -0.02474
C 30.56129 6.41308 0.01908
C 29.32928 8.64372 -0.00971
C 29.4408 29.84246 0.0014
C 29.54042 28.38527 0.00924
C 30.74349 27.83857 0.02326
C 30.77994 26.39926 0.00261
C 29.57338 25.56764 0.03265
C 29.46733 24.18142 -0.02049
C 30.73429 23.48155 -0.01854
C 30.80313 22.08505 -0.01415
C 29.56175 21.297 -0.03039
C 29.33961 7.17021 0.01518
C 29.5828 19.84573 0.01836
C 30.71964 17.72372 -0.00669
C 29.54477 17.02452 0.0101
C 29.43195 15.53683 0.01705
C 30.6489 14.91541 -0.0405
C 30.74154 13.48355 -0.01303
C 29.46493 12.72388 -0.01461
C 29.50838 11.31171 -0.02155
C 30.7056 10.60923 -0.00944
C 30.62006 9.15756 -0.03735
C 30.77429 19.16319 0.03531
C 30.70631 30.54351 0.01324
C 31.95077 15.62518 0.00369
C 33.17499 13.52923 -0.00644
C 0.07825 21.39449 -0.02213
C 0.01392 20.00144 0.01951
C 1.20413 19.24415 -0.01678
C 1.24266 17.77244 0.01223
C 34.41643 17.06246 0.00648
C 34.41358 15.63698 0.02114
C 1.16747 14.91155 -0.02957
C 1.20731 13.50212 0.00343
C 34.38809 12.72568 -0.02656
C 1.27157 22.04758 0.02712
C 0.01588 11.33734 -0.02442
C 1.2061 9.2689 -0.00583
C 34.38 8.48186 -0.02302
C 34.36134 7.11258 -0.02849
C 1.24106 6.4162 0.02931
C 1.12112 5.00433 0.00628
C 34.33586 4.27295 -0.0345
C 34.4241 2.91244 -0.00931
C 1.19701 2.14616 -0.00939
C 1.12565 0.70836 -0.00468
C 1.2502 10.63932 -0.00027
C 33.14682 14.94032 0.00455
C 1.16042 23.47763 0.00723
C 34.37518 25.52874 -0.05239
C 32.01256 12.75061 -0.01839
C 31.97025 11.33514 0.00137
C 33.18705 10.65544 0.00199
C 33.17618 9.17518 0.04381
C 31.85998 8.48437 0.02806
C 31.83023 7.03024 0.01504
C 33.09183 6.37078 -0.00069
C 33.11096 4.96976 0.04926
C 31.83485 4.33706 -0.03838
C 34.38467 24.11159 0.03076
C 31.86335 2.79758 0.00349
C 33.19315 0.70416 -0.00841
C 31.92678 0.05046 0.0001
C 34.3527 32.65675 -0.02927
C 1.24347 31.94369 -0.01404
C 1.1817 30.59197 0.01027
C 34.41804 29.83847 0.01831
C 34.33758 28.41009 -0.01037
C 1.17442 27.58313 -0.00439
C 1.18296 26.37722 -0.00598
C 33.13779 2.16456 -0.00323
C 30.61404 31.98633 0.04266
C 29.40295 32.62064 0.01177
C 26.98731 0.01211 -0.00416
C 23.35665 26.19211 -0.00381
C 22.16742 25.44721 0.03046
C 22.16164 24.04664 0.0296
C 23.39051 23.36461 0.03374
C 23.38194 21.89242 -0.02845
C 22.14983 21.24341 -0.03213
C 22.17362 19.8284 0.02239
C 23.452 19.16074 0.01153
C 23.54472 17.66234 0.02734
C 23.31559 27.67481 0.01852
C 23.12618 6.29821 -0.0055
C 22.01632 4.17938 -0.00225
C 22.10548 2.80381 0.00071
C 23.32704 2.08466 -0.01107
C 23.27802 0.65482 -0.01586
C 22.01078 33.99994 -0.01971
C 24.50843 32.65475 -0.02118
C 25.80573 31.93221 0.00733
C 25.74127 30.57563 -0.00178
C 24.51328 29.82856 0.00768
C 23.22436 4.84692 0.01515
C 24.51289 28.3746 -0.0276
C 22.08483 28.35756 0.01126
C 23.23216 30.5095 -0.01662
C 20.9506 26.14768 -0.00703
C 19.68304 25.46849 -0.04076
C 19.67665 24.10034 -0.00652
C 20.95559 23.33122 0.0058
C 20.99524 21.89994 -0.00865
C 19.69506 21.18817 0.00675
C 19.73677 19.81199 -0.00311
C 20.97102 19.17067 0.00742
C 20.73931 17.61633 -0.01594
C 22.0901 29.7441 -0.01185
C 19.65172 17.12368 0.0106
C 20.83859 6.37872 -0.01721
C 20.85561 4.82983 -0.02422
C 19.62571 4.18372 0.01277
C 19.65822 2.84959 0.00096
C 20.87242 2.18997 -0.01527
C 20.78671 0.70497 0.01087
C 19.60284 34.0192 0.00199
C 22.11922 32.64401 0.01511
C 23.29779 31.95938 -0.00478
C 19.79594 6.9068 -0.01154
C 25.77866 27.66445 0.03005
C 25.83575 26.23673 -0.04078
C 24.61741 25.50416 0.02117
C 28.25449 23.47319 0.00622
C 28.32326 22.09181 -0.02815
C 27.12166 21.21901 -0.00942
C 27.10386 19.8824 0.00487
C 28.35224 19.18883 0.00826
C 28.42626 17.78321 -0.00294
C 27.20377 16.97507 0.00152
C 27.0815 15.65073 0.01257
C 28.20779 14.78829 0.02316
C 27.07765 24.11519 -0.0032
C 28.28392 13.42377 0.04185
C 28.09995 9.33746 -0.00621
C 26.92182 8.48206 0.02611
C 26.8842 7.13273 0.02198
C 28.16451 6.37807 0.01094
C 28.19233 4.9343 0.00235
C 26.9765 4.3146 0.01495
C 26.95656 2.81628 0.01259
C 28.12282 2.1106 0.01799
C 28.22504 0.72787 0.01699
C 28.25924 10.76821 0.00194
C 27.07371 25.47873 -0.00037
C 28.3308 26.27969 -0.01654
C 28.27188 27.70397 -0.00218
C 24.58063 24.09683 0.02737
C 25.77818 23.38434 -0.00498
C 25.86525 21.88371 0.00135
C 24.65672 21.25618 0.03102
C 24.68074 19.81971 0.02555
C 25.89954 19.08071 0.01423
C 26.06973 17.7773 -0.00285
C 24.7237 17.0957 -0.009
C 24.17693 6.89732 -0.01199
C 25.65787 6.38265 -0.00229
C 25.65451 5.00877 -0.00938
C 24.49533 4.2713 -0.0264
C 24.50627 2.81224 -0.01154
C 25.79869 2.10168 0.00684
C 25.76954 0.68988 -0.01052
C 24.47075 34.03008 -0.01679
C 27.05923 32.65138 0.00367
C 28.20658 31.93298 0.04306
C 28.21614 30.51621 0.00996
C 26.93674 29.78653 0.00195
C 26.95987 28.39065 -0.00802
C 19.66476 28.37858 -0.04422
C 2.46912 32.73678 0.03284
