246
Graphene
C 34.43042 0.12475 0.01295
C 19.56203 4.22318 -0.0055
C 20.77871 4.97267 0.02734
C 20.78219 6.36168 0.01153
C 20.94614 30.45303 0.02239
C 20.7259 31.8787 -0.03213
C 19.56081 32.72655 -0.02845
C 17.42445 33.66758 0.03374
C 18.48133 0.62615 0.0296
C 18.36617 2.11006 0.03046
C 17.29165 2.89076 -0.00381
C 19.06168 18.10637 0.01852
C 14.86546 33.62421 0.01126
C 19.70691 2.85214 0.01515
C 16.1113 33.25352 -0.01185
C 14.79503 2.68969 -0.00478
C 12.19878 33.76527 0.01511
C 13.50202 0.18287 0.00199
C 13.64879 2.15456 0.01087
C 12.44538 2.83402 -0.01527
C 12.27787 4.27671 0.00096
C 13.20433 18.17408 0.01277
C 9.70605 0.02448 -0.02422
C 11.05331 0.5672 -0.01721
C 11.06305 2.08657 -0.01154
C 9.80737 2.79592 0.0106
C 9.80885 4.24171 -0.01594
C 15.96884 3.17499 -0.01662
C 20.93995 2.13926 -0.00225
C 20.93601 0.74854 0.00071
C 19.82087 34.06397 -0.01107
C 25.71791 26.18247 0.00367
C 25.791 27.68847 -0.01679
C 24.55002 28.33133 -0.01052
C 24.61331 29.84857 0.00684
C 25.85016 30.52722 -0.01154
C 25.82261 31.98237 -0.0264
C 24.63503 32.75745 -0.00938
C 22.18219 0.02412 -0.00229
C 23.32559 0.71762 -0.01199
C 23.33914 2.23807 -0.009
C 22.17042 2.87044 -0.00285
C 22.1345 4.32885 0.01423
C 23.27609 5.08643 0.02555
C 23.17781 6.52058 0.03102
C 21.79433 7.26568 0.00135
C 22.0456 8.59615 -0.00498
C 23.30158 9.1165 0.02737
C 21.83515 21.26168 0.02117
C 22.59615 22.18145 -0.04078
C 23.66212 22.87944 0.03005
C 23.49384 26.13596 -0.0276
C 23.26521 27.54759 0.00768
C 22.23075 28.41791 -0.00178
C 22.17805 29.82667 0.00733
C 23.41574 30.55467 -0.02118
C 23.45684 32.06081 -0.01971
C 22.12772 32.64705 -0.01586
C 11.00612 4.69524 0.00742
C 10.08369 16.08821 -0.00311
C 9.66158 32.72565 0.00675
C 7.28719 34.02423 -0.00865
C 5.07256 26.26529 -0.02213
C 5.8767 27.48026 0.00028
C 4.79788 28.47593 -0.00289
C 4.89424 29.89538 -0.00066
C 6.13785 30.49655 0.00213
C 6.13358 31.96844 -0.05302
C 4.95847 32.65046 -0.04147
C 2.44145 0.04354 -0.02815
C 3.74284 0.67914 0.03505
C 3.74472 2.13362 0.01443
C 2.44718 2.86465 0.00979
C 2.42357 4.26047 -0.00481
C 3.65907 4.98452 0.00889
C 3.65869 6.46958 -0.02162
C 2.37215 7.17044 -0.00619
C 2.36511 8.51958 0.01848
C 3.49797 9.19365 0.02098
C 3.50567 10.65182 -0.03113
C 2.28453 11.37756 0.0351
C 2.40296 12.79953 0.00422
C 3.61797 13.47363 0.00798
C 2.55357 25.5172 0.00228
C 3.74588 26.35639 -0.00114
C 3.5849 27.75662 -0.02696
C 2.39013 28.43904 -0.00368
C 2.44052 29.90298 -0.0108
C 3.65915 30.62152 -0.01957
C 6.14236 13.07908 0.03698
C 24.60296 25.29382 0.04306
C 4.87818 12.84686 -0.00109
C 6.04584 10.82949 0.03338
C 8.50736 0.72525 0.0058
C 8.57752 2.15393 -0.00652
C 7.31095 2.96191 -0.04076
C 7.38711 4.35425 -0.00703
C 8.64228 5.04896 0.00654
C 8.56805 6.3831 -0.04422
C 7.51043 7.20543 -0.02957
C 7.28166 8.58147 -0.00831
C 7.2419 11.61301 0.00364
C 7.47721 13.0769 -0.017
C 8.44367 13.9575 0.00143
C 9.33196 14.96258 0.00667
C 7.06756 28.13305 -0.0054
C 7.38398 29.5602 0.00755
C 8.45721 30.42429 0.01739
C 8.65395 31.77803 0.03754
C 7.39289 32.59278 -0.03557
C 4.91337 34.00617 -0.00111
C 6.13008 0.70903 0.04892
C 6.11877 2.09513 0.01452
C 4.94823 2.89264 -0.01581
C 4.89916 4.30907 0.02691
C 6.13093 5.04558 -0.01979
C 6.11984 6.50981 0.02188
C 4.8173 7.17177 -0.00316
C 4.77562 8.5751 -0.0331
C 6.00826 9.29387 -0.0258
C 4.69648 11.39238 -0.00491
C 24.76408 23.67555 0.00996
C 26.15087 23.22938 0.00195
C 26.66956 21.99155 -0.00802
C 31.89637 3.00442 0.0001
C 31.95757 4.36346 -0.00841
C 33.10996 5.0864 -0.00323
C 33.17778 6.52378 0.00349
C 31.89594 7.16852 -0.03838
C 31.93992 8.59347 0.04926
C 33.15867 9.29015 -0.00069
C 33.10041 10.72891 0.01504
C 31.93199 11.55314 0.02806
C 31.91266 12.92816 0.04381
C 33.24809 13.39802 0.00199
C 33.22599 14.82456 0.00137
C 31.69208 15.34736 -0.01839
C 31.0861 16.51706 -0.00644
C 33.7533 18.11562 0.00455
C 33.30678 19.39581 0.00369
C 31.78978 20.00715 -0.02474
C 31.77733 21.38239 0.00594
C 33.08485 22.11349 -0.0136
C 33.13085 23.55283 -0.01429
C 31.88807 24.25086 -0.02383
C 31.92645 25.6362 0.01574
C 33.20788 26.27704 0.01927
C 33.21292 27.78039 0.03794
C 31.92737 28.36507 -0.01779
C 31.94293 29.88701 0.00682
C 33.19189 30.59249 0.00026
C 33.0841 2.24439 -0.02927
C 33.22768 32.01736 0.0544
C 33.16007 0.85452 -0.01404
C 0.03139 32.76342 0.01831
C 1.26045 0.78149 -0.00468
C 1.22841 2.24261 -0.00939
C 34.39322 2.93337 -0.00931
C 34.38251 4.34814 -0.0345
C 1.21448 5.00623 0.00628
C 1.15079 6.4456 0.02931
C 34.35898 7.19425 -0.02849
C 34.41538 8.56243 -0.02302
C 1.16059 9.22932 -0.00583
C 1.14589 10.5871 -0.00027
C 34.3545 11.39545 -0.02442
C 34.40013 12.69881 -0.02656
C 1.20508 13.45533 0.00343
C 1.22137 14.86046 -0.02957
C 0.07169 15.5842 0.02114
C 34.24273 16.99508 0.00648
C 0.00361 20.28518 0.01223
C 34.31801 21.44502 -0.01678
C 1.29368 23.723 0.01951
C 34.40128 24.22744 -0.02213
C 0.01494 25.64752 0.02712
C 1.41007 26.23451 0.00723
C 1.24464 27.64619 0.03076
C 34.41842 28.38631 -0.05239
C 0.02765 29.87031 -0.00598
C 1.20758 30.6168 -0.00439
C 1.25726 32.03082 -0.01037
C 31.93416 0.06594 0.01027
C 3.71162 32.01617 0.02058
C 31.98347 32.73329 -0.02142
C 30.74428 0.7428 -0.01694
C 28.18042 5.12177 0.04266
C 28.13283 6.49772 0.01177
C 26.98275 7.25009 -0.00416
C 27.03196 8.69087 0.01699
C 28.2536 9.29586 0.01799
C 28.35425 10.70365 0.01259
C 28.30121 22.24081 0.01495
C 28.47295 23.57079 0.00235
C 27.23159 24.24474 0.01094
C 27.06421 25.6787 0.02198
C 28.27478 26.40589 0.02611
C 28.22741 27.75743 -0.00621
C 26.9989 28.40464 0.00194
C 27.02948 29.79038 0.04185
C 28.26372 30.54332 0.02316
C 28.22868 31.96648 0.01257
C 27.0119 32.75074 0.00152
C 24.62989 0.06567 -0.00294
C 25.8167 0.84846 0.00826
C 25.80203 2.26885 0.00487
C 24.52837 2.94735 -0.00942
C 24.53462 4.36636 -0.02815
C 25.72746 5.08344 0.00622
C 25.74726 6.56037 -0.0032
C 24.41803 7.26471 -0.00037
C 24.51974 8.76804 -0.01654
C 25.79879 9.33752 -0.00218
C 26.95515 4.41237 0.01324
C 29.52549 0.10037 0.01428
C 26.96795 2.95744 0.0014
C 28.29966 0.81277 0.02326
C 30.73832 2.26615 0.01713
C 29.46667 2.98181 0.00346
C 29.46236 4.3782 0.00307
C 30.64349 5.12196 0.00716
C 30.73969 6.49421 0.02108
C 29.4007 7.21044 0.0103
C 29.51649 8.70692 0.07705
C 30.71153 9.359 0.01908
C 30.66478 10.79698 0.01518
C 29.40573 11.28065 -0.00971
C 31.16609 14.24097 -0.03735
C 30.81803 17.74356 -0.00944
C 30.50845 19.16305 -0.02155
C 29.31966 19.87818 -0.01461
C 29.3761 21.30168 -0.01303
C 30.57331 22.12016 -0.0405
C 30.63337 23.54853 0.01705
C 29.48845 24.39352 0.0101
C 29.49692 25.76736 -0.00669
C 30.67784 26.38679 0.03531
C 30.71496 27.72369 0.01836
C 29.51091 28.41984 -0.03039
C 29.50508 29.81433 -0.01415
C 30.77387 30.616 -0.01854
C 30.67845 31.9477 -0.02049
C 29.4799 32.67139 0.03265
C 27.08468 0.05682 0.00261
C 28.29466 2.3089 0.00924
C 2.49237 32.6786 0.01965
