256
Graphene
C 34.35216 0.01913 0.01295
C 19.58772 25.52335 0.03374
C 20.72116 26.39032 0.0296
C 20.783 27.77538 0.03046
C 19.50456 28.55378 -0.00381
C 19.42705 29.88859 0.01852
C 20.71352 30.51892 0.01126
C 20.8106 31.95558 -0.01185
C 19.61107 32.68446 -0.01662
C 17.22148 0.07711 -0.00478
C 18.43633 0.72996 0.01511
C 18.43211 2.0833 0.00199
C 17.2552 2.77473 0.01087
C 17.32059 4.19247 -0.01527
C 19.71107 24.0954 -0.02845
C 18.64333 4.92075 0.00096
C 17.55908 7.04148 -0.02422
C 17.43405 8.51073 -0.01721
C 17.32006 19.99046 -0.01154
C 17.40653 21.29741 0.0106
C 18.69587 22.05586 -0.01594
C 18.55451 23.38446 0.00742
C 18.46637 26.31858 -0.00311
C 18.46245 27.57645 0.00675
C 16.88483 30.52366 -0.00865
C 18.25348 30.72341 0.0058
C 18.40698 32.03911 -0.00652
C 17.25928 32.74249 -0.04076
C 14.73928 34.03429 -0.00703
C 18.75885 6.29323 0.01277
C 15.92198 0.66579 0.00654
C 20.92259 23.5344 -0.03213
C 20.14746 21.20177 0.01153
C 25.77245 30.60251 -0.0264
C 25.7771 31.98072 -0.00938
C 24.51985 32.65872 -0.00229
C 22.1532 0.00823 -0.01199
C 23.42571 0.70913 -0.009
C 23.42622 2.14244 -0.00285
C 22.25531 2.78974 0.01423
C 22.17616 4.11084 0.02555
C 23.1598 5.11012 0.03102
C 22.55606 6.44926 0.00135
C 23.11322 22.16759 -0.00498
C 23.32143 23.51223 0.02737
C 22.12984 24.30541 0.02117
C 21.1375 22.16006 0.02239
C 22.04156 25.70934 -0.04078
C 23.36292 27.73532 -0.0276
C 22.09855 28.42511 0.00768
C 22.06484 29.8241 -0.00178
C 23.31071 30.47703 0.00733
C 23.35986 31.89385 -0.02118
C 22.09458 32.55702 -0.01971
C 19.65063 34.04144 -0.01586
C 20.89947 0.71366 -0.01107
C 20.9348 2.0356 0.00071
C 19.66022 2.73518 -0.00225
C 19.69468 4.10715 0.01515
C 20.87546 4.76608 -0.0055
C 20.9688 6.15781 0.02734
C 23.36739 26.38425 0.03005
C 24.55876 29.82486 -0.01154
C 15.99533 2.14041 -0.04422
C 14.86594 4.23493 -0.00831
C 9.92898 4.52022 0.01443
C 11.24034 5.2288 0.00979
C 11.58153 6.69139 -0.00481
C 7.22972 0.00717 0.00889
C 8.4675 0.74419 -0.02162
C 8.52573 2.20747 -0.00619
C 7.26459 2.8872 0.01848
C 7.3496 4.29292 0.02098
C 8.58878 4.81054 -0.03113
C 4.88391 0.07 0.0351
C 6.06274 0.76161 0.00422
C 6.09412 2.14825 0.00798
C 4.9157 2.91124 0.00228
C 9.84225 2.88579 0.03505
C 4.84747 4.27519 -0.00114
C 4.72829 32.76093 -0.00368
C 2.40218 0.02828 -0.0108
C 3.66973 0.73819 -0.01957
C 3.67848 2.19925 0.02058
C 2.43504 2.98492 0.01965
C 2.4505 4.41814 -0.03682
C 3.69703 4.95878 0.00052
C 2.04244 16.05677 0.00374
C 3.48554 16.85358 -0.02813
C 3.83517 19.12923 -0.01952
C 2.56822 19.90463 0.05265
C 2.56457 21.2816 -0.01717
C 1.97525 29.32801 0.00244
C 4.23545 17.94648 -0.02696
C 14.77576 2.80491 -0.02957
C 11.00946 2.14401 -0.02815
C 9.76601 0.30616 -0.05302
C 16.14941 4.90503 0.00364
C 16.30011 6.29002 -0.017
C 15.09772 6.87231 0.00143
C 14.83534 8.20236 0.00667
C 16.23891 8.74322 -0.0054
C 13.42642 11.13411 0.00755
C 13.74403 12.50677 0.01739
C 14.17626 15.9646 0.03754
C 14.4185 17.26761 -0.03557
C 15.62195 17.98302 -0.00111
C 16.28719 18.96954 0.04892
C 16.12843 31.88363 0.01452
C 14.96544 32.65263 -0.01581
C 11.13307 0.59241 -0.04147
C 12.29117 34.00507 0.02691
C 13.52901 2.04683 0.02188
C 12.28945 2.7869 -0.00316
C 12.31201 4.31511 -0.0331
C 13.65664 4.96644 -0.0258
C 13.84223 6.30528 0.03338
C 12.72605 7.3667 -0.00491
C 13.50803 8.67716 -0.00109
C 13.12693 9.92506 0.03698
C 13.19016 13.6444 -0.02213
C 13.37457 14.96257 0.00028
C 12.09609 16.43718 -0.00289
C 11.76386 17.79071 -0.00066
C 13.04924 17.60623 0.00213
C 13.5121 0.56699 -0.01979
C 24.63571 28.4445 0.00684
C 25.79501 27.688 -0.01052
C 25.81748 26.28196 -0.01679
C 32.01243 4.36326 -0.00841
C 33.26038 5.08521 -0.00323
C 33.2234 6.58285 0.00349
C 31.99673 7.37552 -0.03838
C 31.87097 8.7823 0.04926
C 33.18539 9.53776 -0.00069
C 33.13651 10.98469 0.01504
C 31.87894 11.62397 0.02806
C 31.82683 13.03802 0.04381
C 33.10865 13.64291 0.00199
C 33.1968 14.98156 0.00137
C 31.99804 15.70454 -0.01839
C 32.0464 17.09404 -0.00644
C 31.94114 2.90074 0.0001
C 33.1751 17.7725 0.00455
C 31.94778 19.74934 -0.02474
C 32.06077 21.27872 0.00594
C 33.39422 22.08107 -0.0136
C 33.31487 23.47868 -0.01429
C 32.03302 24.13316 -0.02383
C 32.04481 25.58559 0.01574
C 33.22633 26.34183 0.01927
C 33.09786 27.80531 0.03794
C 31.88594 28.5051 -0.01779
C 31.90057 29.89701 0.00682
C 33.06837 30.59557 0.00026
C 33.09499 32.02764 0.0544
C 31.93231 32.69648 -0.02142
C 33.2431 19.20905 0.00369
C 29.42536 0.12211 0.01428
C 33.17911 2.2125 -0.02927
C 31.88437 0.07482 0.01027
C 1.10244 0.77228 -0.00468
C 1.15773 2.20818 -0.00939
C 34.38914 2.96203 -0.00931
C 34.39856 4.39563 -0.0345
C 1.21061 5.08339 0.00628
C 1.15811 6.46596 0.02931
C 0.06762 7.26888 -0.02849
C 34.20968 8.64208 -0.02302
C 34.33621 11.66866 -0.00583
C 34.34588 13.03048 -0.00027
C 1.23615 15.02777 -0.02442
C 34.372 15.6332 -0.02656
C 34.27096 17.01783 0.00343
C 33.12518 0.75541 -0.01404
C 1.11999 17.69113 -0.02957
C 0.17349 19.82536 0.00648
C 0.18395 21.25061 0.01223
C 1.52872 22.02944 -0.01678
C 1.20245 23.32269 0.01951
C 0.14264 24.20615 -0.02213
C 0.14834 25.68906 0.02712
C 1.26917 26.59863 0.00723
C 1.31253 28.12798 0.03076
C 34.30986 28.47746 -0.05239
C 34.24799 29.92092 -0.00598
C 1.1436 30.45774 -0.00439
C 1.15016 31.91013 -0.01037
C 34.33104 32.64231 0.01831
C 1.39777 19.10171 0.02114
C 30.7206 0.80242 -0.01694
C 30.72867 2.17875 0.01713
C 29.54343 2.98128 0.00346
C 27.23938 7.34817 0.01799
C 27.87104 8.51489 0.01259
C 28.2083 19.17715 0.01495
C 27.23057 19.90284 0.00235
C 26.86275 21.31221 0.01094
C 28.19106 21.94406 0.02198
C 28.27101 23.36766 0.02611
C 27.02081 24.09782 -0.00621
C 27.00685 25.55924 0.00194
C 28.2431 26.28864 0.04185
C 28.20081 27.72746 0.02316
C 27.00135 28.43217 0.01257
C 26.92958 29.84619 0.00152
C 28.389 6.44423 0.01699
C 28.16725 30.57679 -0.00294
C 27.02289 32.77034 0.00487
C 24.6205 0.03039 -0.00942
C 25.76449 0.83794 -0.02815
C 25.75857 2.2961 0.00622
C 24.49873 3.04375 -0.0032
C 24.50059 4.53658 -0.00037
C 25.8673 5.2835 -0.01654
C 26.14666 6.66323 -0.00218
C 24.33314 21.38527 -0.00802
C 25.6019 22.00824 0.00195
C 25.7595 23.43067 0.00996
C 24.57008 24.22285 0.04306
C 24.59955 25.59265 0.00367
C 28.19772 31.99223 0.00826
C 28.27261 5.08187 -0.00416
C 27.02691 4.37731 0.01177
C 26.99679 2.99645 0.04266
C 29.48708 4.35636 0.00307
C 30.7103 5.07314 0.00716
C 30.79097 6.54092 0.02108
C 29.56047 7.20081 0.0103
C 29.30023 8.68195 0.07705
C 30.5413 9.51227 0.01908
C 30.5048 11.04718 0.01518
C 29.58633 12.09526 -0.00971
C 30.57801 13.73123 -0.03735
C 30.66858 15.12235 -0.00944
C 29.85479 16.41221 -0.02155
C 30.76938 17.53929 -0.01461
C 30.69836 19.05723 -0.01303
C 29.47345 19.81248 -0.0405
C 29.45703 21.26283 0.01705
C 30.75801 21.91906 0.0101
C 30.7891 23.33533 -0.00669
C 29.58087 24.09659 0.03531
C 29.54597 25.58521 0.01836
C 30.81754 26.29656 -0.03039
C 30.70091 27.70789 -0.01415
C 29.43744 28.38578 -0.01854
C 29.36092 29.85862 -0.02049
C 30.62728 30.62364 0.03265
C 30.6344 31.99933 0.00261
C 29.44421 32.79469 0.02326
C 27.04061 0.12318 0.00924
C 28.29237 0.83971 0.0014
C 28.25008 2.21731 0.01324
C 3.5665 32.07294 0.02299
C 2.31255 32.70511 0.03542
