294
Graphene
C 0.01138 0.03867 0.01295
C 11.11938 2.1117 0.00755
C 10.99907 0.76487 -0.0054
C 9.80273 0.05304 0.00667
C 12.33482 32.59816 0.00143
C 13.69666 32.09812 -0.017
C 12.34262 4.28423 0.00364
C 9.7904 2.75337 0.01739
C 12.25031 2.89716 -0.00831
C 13.51072 0.58057 -0.04422
C 12.27781 34.01542 0.00654
C 14.76176 32.6579 -0.00703
C 14.92258 2.65234 -0.04076
C 15.95045 2.11495 -0.00652
C 16.07897 0.69725 0.0058
C 13.52056 2.26504 -0.02957
C 14.8091 34.03239 -0.00865
C 9.83499 4.11117 0.03754
C 10.92085 6.31736 -0.00111
C 8.68275 4.87131 -0.02213
C 7.35909 4.21218 0.03698
C 7.3424 2.87748 -0.00109
C 8.58171 2.10373 -0.00491
C 8.54908 0.72738 0.03338
C 7.26568 0.03514 -0.0258
C 11.16188 5.04251 -0.03557
C 9.84725 32.73321 -0.0331
C 11.09316 30.62236 0.02188
C 9.95239 29.80977 -0.01979
C 9.7446 28.43876 0.02691
C 9.82498 11.31246 -0.01581
C 9.83647 8.60055 0.01452
C 9.94407 7.26572 0.04892
C 11.07746 31.93409 -0.00316
C 17.35108 32.65159 0.00675
C 18.39884 31.92914 -0.00311
C 18.50342 0.61591 0.00742
C 23.41553 23.46025 0.03374
C 23.45783 22.01317 -0.02845
C 22.07693 21.33631 -0.03213
C 22.09784 19.83433 0.02239
C 23.38234 19.14729 0.01153
C 23.31518 17.7436 0.02734
C 22.18257 24.17863 0.0296
C 22.10872 17.05858 -0.0055
C 23.37823 0.82926 -0.00225
C 22.19905 34.07347 0.00071
C 24.53781 32.79283 -0.01107
C 25.75315 31.97805 -0.01586
C 25.76974 30.46553 -0.01971
C 24.56281 29.78475 -0.02118
C 23.36778 2.19771 0.01515
C 22.1713 25.39118 0.03046
C 23.28334 26.30421 -0.00381
C 23.32137 27.73514 0.01852
C 17.25357 0.00896 -0.01594
C 19.71536 32.67602 0.0106
C 20.91538 31.88719 -0.01154
C 20.90667 30.59941 -0.01721
C 20.95193 22.00166 -0.02422
C 21.06337 18.94164 0.01277
C 20.86558 17.78547 0.00096
C 20.88521 2.05019 -0.01527
C 20.93164 0.71485 0.01087
C 19.68112 34.06826 0.00199
C 22.12321 32.72505 0.01511
C 23.28657 31.965 -0.00478
C 23.30626 30.54585 -0.01662
C 21.97758 29.8197 -0.01185
C 22.1389 28.46183 0.01126
C 8.59551 6.36632 0.00028
C 7.41078 7.03199 -0.00289
C 7.4107 8.48844 -0.00066
C 8.65318 9.25665 0.00213
C 3.70446 10.66343 0.00165
C 3.72401 9.26372 -0.02971
C 2.45443 8.55615 0.02894
C 2.46086 7.04835 -0.01789
C 3.66184 6.36481 0.00444
C 3.65527 4.94642 -0.00925
C 2.49302 11.38066 0.02819
C 2.39638 4.25479 0.01877
C 3.62272 2.15454 -0.02162
C 3.64747 0.72601 0.00415
C 2.42616 34.07149 -0.0014
C 4.83478 32.63425 0.02162
C 6.1359 31.97948 0.0076
C 6.22544 30.50347 0.01241
C 2.41789 2.84396 0.01363
C 2.43782 12.74497 -0.00891
C 3.65592 13.43453 -0.01046
C 3.70028 14.88118 -0.02689
C 3.6664 30.49682 0.03589
C 2.4894 29.79045 -0.02759
C 2.48657 28.39966 0.0402
C 3.68174 27.74913 0.00572
C 3.6941 26.24771 0.03592
C 2.42774 25.5716 0.00406
C 2.45451 24.18562 0.00943
C 3.682 23.46582 0.02841
C 3.75617 21.96475 -0.01111
C 2.43312 21.29896 -0.01275
C 2.40413 19.94742 0.00985
C 3.63266 19.16799 -0.02245
C 3.69348 17.74861 -0.00428
C 2.43998 17.06847 0.03101
C 2.49306 15.56867 -0.01536
C 4.92592 29.87961 -0.01454
C 24.62768 28.37838 0.00733
C 4.8976 28.43558 0.01945
C 6.07305 26.37762 0.03542
C 6.12034 2.14593 0.0351
C 6.08168 0.7033 -0.03113
C 4.83518 34.07182 0.02098
C 7.33089 32.70932 0.01848
C 8.64803 31.92337 -0.00619
C 8.70651 30.53904 -0.02162
C 4.89612 2.78874 0.00422
C 7.51301 29.79432 0.00889
C 8.70453 27.66146 0.00979
C 8.38728 26.19649 0.01443
C 7.33959 25.79627 0.03505
C 7.36072 12.75696 -0.02815
C 7.39466 11.38774 -0.04147
C 8.65533 10.68822 -0.05302
C 7.43508 28.39177 -0.00481
C 4.86972 4.22429 0.00798
C 6.15409 4.91492 0.00228
C 6.05044 6.33486 -0.00114
C 4.84974 25.67493 0.02299
C 4.91227 24.20372 0.00244
C 6.07902 23.46823 -0.01717
C 4.97854 21.23963 0.05265
C 4.90677 19.87265 -0.01952
C 4.92837 17.10548 -0.02813
C 4.99307 15.7203 0.00374
C 6.10153 14.9308 0.00052
C 6.18139 13.52214 -0.03682
C 4.86911 12.70206 0.01965
C 4.93371 11.35077 0.02058
C 6.21704 10.6368 -0.01957
C 6.17742 9.19522 -0.0108
C 4.92715 8.55968 -0.00368
C 4.89224 7.1689 -0.02696
C 6.10931 27.73073 0.01416
C 25.86454 27.68859 -0.00178
C 25.9298 26.26628 0.00768
C 24.61395 25.62561 -0.0276
C 31.93818 19.76609 -0.01429
C 33.1721 19.14192 -0.0136
C 33.14831 17.7428 0.00594
C 31.90807 16.95702 -0.02474
C 31.98296 15.60975 0.00369
C 33.1954 14.89574 0.00455
C 31.92637 21.3068 -0.02383
C 33.19307 13.41758 -0.00644
C 31.94708 11.40715 0.00137
C 33.18465 10.69133 0.00199
C 33.21836 9.24514 0.04381
C 31.94631 8.53265 0.02806
C 32.01092 7.10293 0.01504
C 33.24653 6.41655 -0.00069
C 31.96127 12.78478 -0.01839
C 33.17867 22.04716 0.01574
C 33.23903 23.44242 0.01927
C 32.00931 24.15354 0.03794
C 30.7186 6.45352 0.01908
C 30.75359 5.06752 0.07705
C 29.50176 4.39098 0.0103
C 29.46843 2.89205 0.02108
C 30.74455 2.18571 0.00716
C 30.66024 0.74537 0.00307
C 29.48465 0.03554 0.00346
C 32.01124 32.65729 0.01713
C 33.23053 31.96065 -0.01694
C 33.16301 30.57895 0.01428
C 31.94486 29.876 -0.02142
C 31.96862 28.44156 0.0544
C 33.15371 27.70194 0.00026
C 33.1424 26.31968 0.00682
C 31.95208 25.56601 -0.01779
C 33.22729 4.97165 0.04926
C 29.41561 7.17777 0.01518
C 31.94558 4.32805 -0.03838
C 33.24457 2.20082 -0.00323
C 1.22867 14.85172 -0.02957
C 1.22427 13.44587 0.00343
C 34.40817 12.7741 -0.02656
C 34.42402 11.34812 -0.02442
C 1.21022 10.67989 -0.00027
C 1.1141 9.25378 -0.00583
C 34.39419 15.62867 0.02114
C 34.38038 8.47116 -0.02302
C 1.24428 6.43606 0.02931
C 1.17481 4.98752 0.00628
C 34.41823 4.28569 -0.0345
C 0.02669 2.81451 -0.00931
C 1.22105 2.11648 -0.00939
C 1.21673 0.75168 -0.00468
C 0.03671 7.09154 -0.02849
C 34.40156 17.10032 0.00648
C 1.21248 17.76076 0.01223
C 1.19872 19.17272 -0.01678
C 33.17467 0.74274 -0.00841
C 31.88405 0.04731 0.0001
C 0.07219 32.66299 -0.02927
C 1.26925 31.88457 -0.01404
C 1.28706 30.48922 0.01027
C 0.00509 29.8727 0.01831
C 34.42502 28.41341 -0.01037
C 1.24965 27.73879 -0.00439
C 1.1888 26.26965 -0.00598
C 34.37747 25.56862 -0.05239
C 0.00535 24.19234 0.03076
C 1.23891 23.46609 0.00723
C 1.22993 21.97057 0.02712
C 0.02447 21.2661 -0.02213
C 0.01299 19.87394 0.01951
C 31.96851 2.87783 0.00349
C 3.6684 31.89129 -0.00033
C 29.42071 8.57034 -0.00971
C 30.77543 10.60829 -0.00944
C 28.26128 30.45896 0.00367
C 26.96563 29.82034 0.04306
C 27.02677 28.3999 0.00996
C 28.23448 27.73283 0.00195
C 28.25984 26.29742 -0.00802
C 27.07463 25.50556 -0.00218
C 28.28066 31.91953 -0.01679
C 27.0401 24.14725 -0.01654
C 28.32197 21.97396 -0.0032
C 27.07449 21.23687 0.00622
C 27.09766 19.86498 -0.02815
C 28.31889 19.1198 -0.00942
C 28.25367 17.72244 0.00487
C 27.03423 17.01797 0.00826
C 28.28047 23.45178 -0.00037
C 27.05251 32.6447 -0.01052
C 24.61129 0.10937 0.00684
C 25.79917 0.68893 -0.01154
C 24.61834 24.24252 0.03005
C 25.79822 23.49095 -0.04078
C 25.85368 22.018 0.02117
C 24.61869 21.30717 0.02737
C 24.66943 19.89144 -0.00498
C 25.87895 19.13927 0.00135
C 25.7714 17.708 0.03102
C 24.55196 17.06164 0.02555
C 24.61614 15.66372 0.01423
C 25.77933 14.93623 -0.00285
C 25.77387 13.38984 -0.009
C 25.70708 4.83663 -0.01199
C 24.68455 4.33159 -0.00229
C 24.56224 2.89431 -0.00938
C 25.78227 2.07981 -0.0264
C 27.0168 15.62786 -0.00294
C 30.7162 9.13021 -0.03735
C 28.22765 14.93778 0.00152
C 26.97686 12.66971 0.02316
C 29.49736 25.64166 0.03265
C 29.51866 24.22789 -0.02049
C 30.75886 23.44109 -0.01854
C 30.76571 21.99581 -0.01415
C 29.47931 21.24627 -0.03039
C 29.47081 19.87893 0.01836
C 30.75746 26.28516 0.00261
C 30.75805 19.11025 0.03531
C 29.50031 17.0422 0.0101
C 29.46686 15.66613 0.01705
C 30.72076 14.95671 -0.0405
C 30.72607 13.58236 -0.01303
C 29.50861 12.80287 -0.01461
C 29.49637 11.36186 -0.02155
C 30.71525 17.74884 -0.00669
C 30.76935 27.70439 0.02326
C 29.54092 28.39053 0.00924
C 29.47496 29.77224 0.0014
C 27.04497 11.32036 0.04185
C 28.25106 10.71449 0.00194
C 28.2102 9.32128 -0.00621
C 27.11 8.32007 0.02611
C 27.05098 7.15747 0.02198
C 28.17947 6.39373 0.01094
C 28.25381 5.00508 0.00235
C 27.08898 4.27439 0.01495
C 26.95395 2.7563 0.01259
C 28.22896 2.13565 0.01799
C 28.29279 0.70396 0.01699
C 27.04308 34.01738 -0.00416
C 29.53108 32.67359 0.01177
C 30.75055 31.91795 0.04266
C 30.73709 30.49362 0.01324
C 28.29072 13.50989 0.01257
C 2.43384 32.61262 -0.01062
