349
Graphene
C 0.01317 0.05162 0.01295
C 9.87514 2.80193 0.00422
C 11.00103 2.18985 0.0351
C 11.05193 0.74543 -0.03113
C 9.84651 34.0567 0.02098
C 12.36951 32.71706 0.01848
C 13.56599 31.97156 -0.00619
C 13.46773 30.49696 -0.02162
C 12.25193 29.7882 0.00889
C 12.25545 28.27801 -0.00481
C 13.51488 27.67844 0.00979
C 13.58224 26.28389 0.01443
C 12.33927 25.53306 0.03505
C 12.35651 24.06453 -0.02815
C 13.63886 23.43488 -0.04147
C 12.24217 12.87867 -0.05302
C 12.3109 11.37179 0.00213
C 13.53202 10.56671 -0.00066
C 9.77096 4.22598 0.00798
C 11.10409 4.89169 0.00228
C 11.00883 6.34897 -0.00114
C 9.8132 7.12712 -0.02696
C 8.61473 2.08721 -0.01454
C 8.56536 0.7392 0.01945
C 7.27625 0.08248 0.01416
C 9.87502 32.68514 0.03542
C 11.11644 31.97347 0.02299
C 11.09264 30.55806 0.00244
C 9.86459 29.83464 -0.01717
C 9.81545 28.41543 0.05265
C 13.57718 9.20164 -0.00289
C 11.07537 27.69844 -0.01952
C 9.8505 25.64912 0.00374
C 9.8308 24.1571 0.00052
C 11.0297 23.5611 -0.03682
C 9.82343 12.7304 0.01965
C 9.86854 11.3496 0.02058
C 11.104 10.65549 -0.01957
C 11.17372 9.21301 -0.0108
C 9.83076 8.46463 -0.00368
C 11.06953 26.2886 -0.02813
C 12.33792 8.46145 0.00028
C 12.22914 7.06758 -0.02213
C 13.54474 6.36308 0.03698
C 14.85576 8.53658 -0.00831
C 14.76232 7.13942 -0.02957
C 15.99969 6.42693 -0.04422
C 15.9417 5.06574 0.00654
C 14.73508 4.2763 -0.00703
C 14.74668 2.76231 -0.04076
C 15.98059 2.08428 -0.00652
C 15.99217 0.75065 0.0058
C 16.00745 9.20209 0.00364
C 14.71419 0.02029 -0.00865
C 18.43633 31.98357 -0.00311
C 18.47041 30.51714 0.00742
C 17.28702 29.87103 -0.01594
C 17.21089 28.35414 0.0106
C 18.49518 27.65713 -0.01154
C 18.41354 26.24862 -0.01721
C 17.26933 25.51637 -0.02422
C 17.16937 24.13905 0.01277
C 17.20275 32.63918 0.00675
C 7.39012 2.78341 0.01241
C 16.01832 10.62957 -0.017
C 14.7733 12.84949 0.00667
C 13.47273 4.94399 -0.00109
C 12.24641 4.25443 -0.00491
C 12.21644 2.87776 0.03338
C 13.49379 2.1659 -0.0258
C 13.49225 0.73525 -0.0331
C 12.3194 34.05127 -0.00316
C 14.7897 32.66091 0.02188
C 16.00789 31.98137 -0.01979
C 14.7535 11.40495 0.00143
C 16.05769 30.54916 0.02691
C 14.75733 28.40642 0.01452
C 15.99719 27.63331 0.04892
C 15.94859 26.22352 -0.00111
C 14.76028 25.56938 -0.03557
C 14.79931 24.16 0.03754
C 15.95935 23.3865 0.01739
C 15.95821 22.02576 0.00755
C 15.9065 13.48874 -0.0054
C 14.75796 29.81759 -0.01581
C 7.31973 4.25265 0.0076
C 8.59728 4.98901 0.02162
C 8.6447 6.3699 -0.0014
C 2.41416 7.06112 -0.00892
C 3.67514 6.33799 -0.01362
C 3.6474 4.94956 -0.0008
C 2.46879 4.23591 0.0288
C 2.4299 2.81862 0.00393
C 3.71168 2.128 0.00895
C 3.736 0.73598 0.00685
C 2.43525 0.07471 0.02888
C 2.4717 8.46494 -0.04848
C 4.8826 32.65854 -0.00482
C 6.13178 30.515 0.03693
C 4.91314 29.87673 0.01745
C 4.89491 28.34455 0.00488
C 6.12031 27.73642 -0.01004
C 6.10021 26.31394 -0.02896
C 4.87706 25.57049 -0.00131
C 4.89567 24.16015 -0.01118
C 6.14957 23.48978 -0.014
C 6.16154 31.90526 -0.01384
C 6.15301 22.06157 0.02147
C 3.6996 9.23903 0.01572
C 2.48674 11.35646 0.03007
C 3.62724 30.61149 0.03368
C 2.48035 29.85257 -0.02929
C 2.43105 28.36553 -0.00966
C 3.64588 27.68432 -0.03337
C 3.65279 26.31551 0.01227
C 2.50882 25.49707 0.00873
C 2.53234 24.18002 -0.00049
C 3.68388 23.40647 0.00848
C 3.78123 10.62978 -0.00095
C 3.67936 22.00638 -0.01303
C 2.37832 19.8774 0.02635
C 3.6559 19.27007 0.0127
C 3.70948 17.77247 0.01396
C 2.49945 17.03094 0.01849
C 2.44785 15.63865 -0.01142
C 3.74045 14.87923 -0.00562
C 3.67028 13.44365 -0.00494
C 2.49813 12.74029 0.00054
C 2.35095 21.2523 -0.01378
C 18.37915 23.41139 0.00096
C 4.89338 21.34929 0.00373
C 6.13797 19.20014 0.00438
C 7.40743 28.45048 -0.02245
C 8.60378 27.61895 -0.00428
C 8.64402 26.27759 0.03101
C 7.39803 25.62412 -0.01536
C 7.36825 24.191 -0.02689
C 8.5813 23.40969 -0.01046
C 8.57895 21.96443 -0.00891
C 7.40302 21.2577 0.02819
C 7.4345 29.84067 0.00985
C 7.3715 19.83127 0.00165
C 7.37127 15.71918 0.02894
C 8.66034 13.56009 -0.01789
C 7.35592 12.80139 0.00444
C 7.46684 11.35817 -0.00925
C 8.67992 10.6433 0.01877
C 8.64172 9.25455 0.01363
C 7.32784 8.4173 -0.02162
C 7.36538 7.05634 0.00415
C 7.31194 17.01213 -0.02971
C 4.86684 19.84577 -0.00191
C 8.62512 30.53056 -0.01275
C 7.33963 32.7014 0.02841
C 6.13472 17.78992 0.01291
C 4.949 16.98055 0.00093
C 4.90346 15.64065 0.00057
C 6.1605 14.95159 -0.01634
C 6.16994 13.52988 -0.00334
C 4.9262 12.77618 0.02339
C 4.96032 11.37087 0.01641
C 6.2027 10.70923 -0.00719
C 8.59252 31.98536 -0.01111
C 6.12747 9.2932 0.01364
C 4.95435 7.10509 -0.00033
C 6.14213 6.43666 0.03589
C 6.14445 5.0071 -0.02759
C 4.93829 4.33429 0.0402
C 4.86335 2.9584 0.00572
C 6.10248 2.18977 0.03592
C 6.11518 0.7597 0.00406
C 4.85029 34.07919 0.00943
C 4.91847 8.58066 -0.01062
C 3.68366 31.97036 -0.00077
C 18.43543 22.10233 -0.01527
C 17.27784 19.90733 0.00199
C 30.72855 5.03015 0.01428
C 29.54733 4.26785 -0.02142
C 29.4599 2.84409 0.0544
C 30.69415 2.16882 0.00026
C 30.73012 0.68543 0.00682
C 29.52957 34.04336 -0.01779
C 31.92186 32.68365 0.03794
C 33.16865 31.99118 0.01927
C 33.28332 30.5911 0.01574
C 32.00888 29.76519 -0.02383
C 32.03879 28.39334 -0.01429
C 33.08677 27.72364 -0.0136
C 33.15988 17.70496 0.00594
C 32.02127 17.12458 -0.02474
C 31.88725 15.63582 0.00369
C 33.13708 14.88921 0.00455
C 33.16583 13.41771 -0.00644
C 30.73385 6.45687 -0.01694
C 29.44703 7.1064 0.01713
C 29.51283 8.56053 0.00346
C 30.73962 9.19228 0.00307
C 27.05247 7.10793 0.01836
C 28.2632 6.39621 0.03531
C 28.33287 4.9604 -0.00669
C 27.08373 4.31168 0.0101
C 27.0408 2.82771 0.01705
C 28.27273 2.13031 -0.0405
C 28.26629 0.71124 -0.01303
C 26.99974 0.05034 -0.01461
C 32.01182 12.76227 -0.01839
C 29.53486 32.58355 -0.02155
C 30.81938 30.45443 -0.03735
C 29.43949 29.90493 -0.00971
C 29.43932 15.59652 0.01518
C 30.74541 14.92701 0.01908
C 30.7194 13.48211 0.07705
C 29.50627 12.77924 0.0103
C 29.49906 11.38626 0.02108
C 30.78803 10.68528 0.00716
C 30.75343 31.8762 -0.00944
C 32.0054 11.32208 0.00137
C 33.21679 10.66741 0.00199
C 33.18344 9.27157 0.04381
C 1.21203 19.10329 -0.01678
C 1.18505 17.74902 0.01223
C 0.03961 16.98414 0.00648
C 34.37157 15.54967 0.02114
C 1.1964 14.93477 -0.02957
C 1.20396 13.46023 0.00343
C 34.39612 12.80657 -0.02656
C 34.41275 11.36719 -0.02442
C 0.02114 19.88613 0.01951
C 1.25848 10.64752 -0.00027
C 34.42092 8.56603 -0.02302
C 0.05933 7.08529 -0.02849
C 1.21992 6.29804 0.02931
C 1.24498 4.9374 0.00628
C 0.04705 4.22044 -0.0345
C 34.40335 2.80625 -0.00931
C 1.24872 2.11 -0.00939
C 1.23744 0.73547 -0.00468
C 1.20513 9.24664 -0.00583
C 27.09012 8.59866 -0.03039
C 34.42065 21.21442 -0.02213
C 1.26449 23.51921 0.00723
C 31.93132 8.55199 0.02806
C 31.97707 7.11344 0.01504
C 33.20123 6.39446 -0.00069
C 33.26818 5.01142 0.04926
C 32.01975 4.27338 -0.03838
C 31.94081 2.80539 0.00349
C 33.18594 2.14964 -0.00323
C 33.2011 0.71904 -0.00841
C 1.23543 22.10521 0.02712
C 31.9168 34.01081 0.0001
C 1.18277 31.93436 -0.01404
C 1.23682 30.52358 0.01027
C 0.07451 29.81982 0.01831
C 34.35222 28.33791 -0.01037
C 1.16887 27.70226 -0.00439
C 1.20883 26.21458 -0.00598
C 34.39686 25.50616 -0.05239
C 34.41659 24.16445 0.03076
C 34.42631 32.73461 -0.02927
C 28.31923 9.29976 -0.01415
C 28.30431 10.66367 -0.01854
C 27.06143 11.33744 -0.02049
C 19.60971 28.40694 -0.02118
C 19.51408 17.03574 0.00733
C 19.67379 15.65075 -0.00178
C 20.95185 14.87818 0.00768
C 20.92292 13.47453 -0.0276
C 19.63476 12.82727 0.03005
C 19.66671 11.40644 -0.04078
C 20.87912 10.73588 0.02117
C 19.65671 29.81786 -0.01971
C 20.88479 9.26481 0.02737
C 19.68649 7.14249 0.00135
C 20.93161 6.39581 0.03102
C 20.91733 4.95801 0.02555
C 19.64692 4.2231 0.01423
C 19.63068 2.8219 -0.00285
C 20.89605 2.14937 -0.009
C 20.86749 0.7924 -0.01199
C 19.66835 34.04952 -0.00229
C 19.69218 8.50144 -0.00498
C 22.05796 32.63277 -0.00938
C 20.88363 30.54646 -0.01586
C 19.70511 32.66817 0.00071
C 18.20378 19.04 0.01511
C 18.48692 17.76283 -0.00478
C 17.23378 15.60037 -0.01662
C 18.39228 14.86066 -0.01185
C 18.4028 13.48592 0.01126
C 17.24065 12.72494 0.01852
C 17.23697 11.32917 -0.00381
C 18.48652 10.64452 0.03046
C 20.88433 31.94858 -0.01107
C 18.46969 9.16062 0.0296
C 17.19733 7.0827 -0.02845
C 18.4147 6.41061 -0.03213
C 18.46418 4.96482 0.02239
C 17.26254 4.2563 0.01153
C 17.20864 2.89284 0.02734
C 18.34223 2.12239 -0.0055
C 18.35002 0.68662 0.01515
C 17.20318 34.01116 -0.00225
C 17.18873 8.52182 0.03374
C 17.24502 21.26421 0.01087
C 23.40467 31.94334 -0.0264
C 22.08803 29.88613 0.00684
C 24.5259 11.30931 -0.00621
C 25.82327 10.62099 0.02611
C 25.84635 9.21619 0.02198
C 24.64614 8.46395 0.01094
C 24.67696 7.05787 0.00235
C 25.87577 6.37508 0.01495
C 25.81406 4.96889 0.01259
C 24.61778 4.20202 0.01799
C 24.54487 12.72703 0.00194
C 24.58263 2.85729 0.01699
C 25.8681 0.67714 0.01177
C 24.67712 34.0298 0.04266
C 27.02629 32.63014 0.01324
C 28.26006 31.92386 0.0014
C 28.36881 30.50738 0.00924
C 28.37993 14.89552 0.02326
C 28.29742 13.4949 0.00261
C 27.03432 12.72911 0.03265
C 25.82161 2.13939 -0.00416
C 23.38918 30.50117 -0.01154
C 25.87624 13.51298 0.04185
C 25.87476 30.58622 0.01257
C 22.21307 15.58676 -0.01052
C 23.38139 14.85287 -0.01679
C 23.37618 13.50059 0.00367
C 22.14797 12.81881 0.04306
C 22.10073 11.4457 0.00996
C 23.3073 10.65297 0.00195
C 23.38459 9.25673 -0.00802
C 22.11005 8.57067 -0.00218
C 25.78939 14.85644 0.02316
C 22.1923 7.13499 -0.01654
C 23.35898 5.0337 -0.0032
C 22.13912 4.22481 0.00622
C 22.1709 2.885 -0.02815
C 23.406 2.10759 -0.00942
C 23.42509 0.66127 0.00487
C 22.05991 34.04461 0.00826
C 24.62479 32.68174 -0.00294
C 25.78984 31.89446 0.00152
C 23.52259 6.44656 -0.00037
C 2.41415 32.70502 0.01305
