298
Graphene
C 34.37976 0.05521 0.01295
C 11.59752 10.64431 0.03754
C 11.25896 9.19467 0.01739
C 9.90936 8.61313 0.00755
C 9.76183 7.15678 -0.0054
C 11.04089 6.39282 0.00667
C 10.99616 5.01569 0.00143
C 10.1627 11.34493 -0.03557
C 9.83317 4.29773 -0.017
C 11.07986 2.15586 -0.00831
C 11.1421 0.72389 -0.02957
C 9.87584 34.07566 -0.04422
C 12.37143 32.62076 0.00654
C 13.56462 31.96917 -0.00703
C 12.89749 10.8146 -0.04076
C 9.8904 2.76987 0.00364
C 9.80391 12.65249 -0.00111
C 9.83726 28.24147 0.04892
C 9.92323 29.61831 0.01452
C 7.46101 11.35792 -0.00066
C 8.75849 10.72738 -0.00289
C 8.65045 9.30426 0.00028
C 7.39133 8.63822 -0.02213
C 7.42159 7.13297 0.03698
C 8.59364 6.36639 -0.00109
C 8.57716 4.95828 -0.00491
C 7.36924 4.29918 0.03338
C 7.40899 2.88322 -0.0258
C 8.62656 2.21772 -0.0331
C 8.69687 0.70664 -0.00316
C 7.39176 0.02199 0.02188
C 9.76177 32.74423 -0.01979
C 11.039 31.94545 0.02691
C 11.0012 30.54967 -0.01581
C 13.52185 9.4027 -0.00652
C 7.39201 12.80908 0.00213
C 12.41604 8.48216 0.0058
C 13.53911 6.37699 0.00675
C 17.21425 8.67252 0.03046
C 17.23734 7.09237 0.0296
C 18.51729 6.32591 0.03374
C 18.36465 4.91197 -0.02845
C 17.14677 4.23776 -0.03213
C 17.17509 2.77546 0.02239
C 18.57627 9.25979 -0.00381
C 18.39946 2.12905 0.01153
C 17.27459 34.01937 -0.0055
C 19.70152 32.54826 0.01515
C 20.5032 10.60383 -0.00225
C 20.77968 9.14209 0.00071
C 19.66409 8.34847 -0.01107
C 19.69661 6.96919 -0.01586
C 18.42026 0.71257 0.02734
C 19.27002 10.62515 0.01852
C 14.79943 34.03576 0.01126
C 16.06946 0.65813 -0.01185
C 13.54356 5.01218 -0.00311
C 12.29373 4.35869 0.00742
C 12.2577 2.87605 -0.01594
C 13.52271 2.09606 0.0106
C 13.53072 0.64616 -0.01154
C 12.35711 34.04635 -0.01721
C 14.74059 32.69793 -0.02422
C 16.02574 9.24246 0.01277
C 14.77904 8.61726 0.00096
C 14.72237 7.08672 -0.01527
C 15.92798 6.41735 0.01087
C 15.90611 4.97065 0.00199
C 14.7672 4.24631 0.01511
C 14.71626 2.80893 -0.00478
C 16.01358 2.07874 -0.01662
C 12.35815 7.13852 -0.00865
C 8.63303 13.44476 -0.05302
C 7.23566 15.65705 -0.04147
C 7.27295 17.00442 -0.02815
C 3.66214 10.68992 -0.02689
C 3.64002 9.26016 -0.01046
C 2.37364 8.59558 -0.00891
C 2.4322 7.13261 0.02819
C 3.6679 6.39457 0.00165
C 3.63918 4.96332 -0.02971
C 2.46089 11.42188 -0.01536
C 2.4466 4.27465 0.02894
C 3.7056 2.17458 0.00444
C 3.71152 0.76276 -0.00925
C 2.46632 0.07025 0.01877
C 4.88966 32.6442 0.01363
C 6.14588 31.95356 -0.02162
C 6.21298 30.56391 0.00415
C 2.46685 2.87496 -0.01789
C 2.51223 12.82807 0.03101
C 3.69847 13.5568 -0.00428
C 3.70201 14.96281 -0.02245
C 3.68884 30.56942 -0.00719
C 2.4317 29.90351 0.01364
C 2.46226 28.445 -0.01062
C 3.74477 27.68991 -0.00033
C 3.77587 26.2728 0.03589
C 2.50357 25.63041 -0.02759
C 2.44305 24.22212 0.0402
C 3.68309 23.52256 0.00572
C 3.68063 22.03402 0.03592
C 2.4432 21.291 0.00406
C 2.34728 19.91233 0.00943
C 3.50101 19.09464 0.02841
C 3.67983 17.63853 -0.01111
C 2.43037 17.06546 -0.01275
C 2.41085 15.61327 0.00985
C 4.95486 29.85745 -0.0014
C 4.92109 28.45982 0.02162
C 6.19849 27.68479 0.0076
C 6.15316 26.19423 0.01241
C 6.16498 5.02248 -0.00114
C 4.90675 4.28837 0.00228
C 4.8947 2.8885 0.00798
C 6.20667 2.21102 0.00422
C 6.15118 0.77253 0.0351
C 4.9619 0.08442 -0.03113
C 7.33229 32.68248 0.02098
C 8.60211 31.96897 0.01848
C 8.62665 30.5266 -0.00619
C 7.40382 29.79608 -0.02162
C 7.31253 28.4784 0.00889
C 8.58531 27.665 -0.00481
C 8.62375 26.30801 0.00979
C 7.46443 25.47775 0.01443
C 7.37571 24.07805 0.03505
C 6.1112 6.4842 -0.02696
C 20.95003 6.39293 -0.01971
C 4.87743 7.12022 -0.00368
C 6.15742 9.18709 -0.01957
C 4.95136 25.50806 -0.01454
C 4.93898 24.04206 0.01945
C 6.2299 23.24698 0.01416
C 6.04443 21.87564 0.03542
C 4.79057 21.27939 0.02299
C 4.7504 19.82599 0.00244
C 6.12147 19.35629 -0.01717
C 6.17642 17.9238 0.05265
C 4.98277 17.13208 -0.01952
C 4.88702 15.68804 -0.02813
C 6.10852 14.96484 0.00374
C 6.06768 13.46279 0.00052
C 4.81915 12.71144 -0.03682
C 4.94903 11.36067 0.01965
C 6.14555 10.63292 0.02058
C 4.80281 8.54944 -0.0108
C 20.85784 4.90522 -0.02118
C 19.65568 4.2668 0.00733
C 19.63068 2.86733 -0.00178
C 31.93442 21.59945 -0.02383
C 31.79389 20.12195 -0.01429
C 33.09023 19.29506 -0.0136
C 33.05432 17.86276 0.00594
C 31.76281 17.14425 -0.02474
C 31.78569 15.76458 0.00369
C 33.20525 22.09702 0.01574
C 33.02048 14.97549 0.00455
C 31.97529 12.84042 -0.01839
C 31.98407 11.443 0.00137
C 33.19397 10.68462 0.00199
C 33.12161 9.26825 0.04381
C 31.91238 8.54461 0.02806
C 31.95384 7.08604 0.01504
C 33.09945 13.60356 -0.00644
C 33.28672 23.47844 0.01927
C 32.0244 24.02582 0.03794
C 31.8921 25.56752 -0.01779
C 29.48954 7.10902 0.01518
C 30.68111 6.3842 0.01908
C 30.64118 4.97298 0.07705
C 29.47661 4.29809 0.0103
C 29.45304 2.85333 0.02108
C 30.68085 2.17099 0.00716
C 30.68998 0.76789 0.00307
C 29.47344 34.05811 0.00346
C 31.86967 32.65831 0.01713
C 33.1065 32.00263 -0.01694
C 33.11626 30.57719 0.01428
C 31.90457 29.86455 -0.02142
C 31.94729 28.51211 0.0544
C 33.09978 27.767 0.00026
C 33.13744 26.34427 0.00682
C 33.18341 6.39236 -0.00069
C 33.1566 4.97863 0.04926
C 31.93588 4.34521 -0.03838
C 31.8792 2.8684 0.00349
C 34.32303 15.65952 0.02114
C 1.16104 14.95878 -0.02957
C 1.21699 13.48411 0.00343
C 34.40786 12.86768 -0.02656
C 34.39778 11.40713 -0.02442
C 1.18622 10.73812 -0.00027
C 1.14761 9.26554 -0.00583
C 34.38269 8.56659 -0.02302
C 34.3645 7.10815 -0.02849
C 1.19471 6.45861 0.02931
C 1.1879 5.04188 0.00628
C 34.40499 4.3366 -0.0345
C 34.39575 2.8889 -0.00931
C 1.21215 2.08554 -0.00939
C 1.17037 0.76321 -0.00468
C 34.30826 17.16144 0.00648
C 29.46747 8.49962 -0.00971
C 1.17728 17.79086 0.01223
C 34.30794 19.93036 0.01951
C 33.12983 2.21744 -0.00323
C 33.11939 0.80615 -0.00841
C 31.92194 0.0086 0.0001
C 0.00039 32.71553 -0.02927
C 1.19911 32.01122 -0.01404
C 1.18619 30.59857 0.01027
C 34.30988 29.86724 0.01831
C 34.34516 28.42818 -0.01037
C 1.09494 27.76511 -0.00439
C 1.22228 26.2915 -0.00598
C 34.36918 25.62114 -0.05239
C 0.00185 24.24403 0.03076
C 1.24171 23.50779 0.00723
C 1.21386 22.05873 0.02712
C 0.02104 21.30768 -0.02213
C 1.0924 19.29183 -0.01678
C 3.64819 31.9819 0.01641
C 30.67827 9.15986 -0.03735
C 29.48509 11.32461 -0.02155
C 24.49805 32.67385 -0.01052
C 25.71721 31.9078 -0.01679
C 25.52285 30.46038 0.00367
C 25.92336 13.57094 0.04306
C 24.66743 12.91542 0.00996
C 24.50392 11.41301 0.00195
C 22.01129 0.09326 0.00684
C 25.67699 10.66997 -0.00802
C 24.47272 8.61398 -0.01654
C 24.5339 7.16237 -0.00037
C 25.68819 6.39384 -0.0032
C 25.74408 4.92608 0.00622
C 24.5296 4.21797 -0.02815
C 24.54304 2.79075 -0.00942
C 25.69692 9.26693 -0.00218
C 23.30608 0.66843 -0.01154
C 23.3535 2.09487 -0.0264
C 22.07047 2.78232 -0.00938
C 20.83258 2.1963 0.00768
C 20.8094 0.73002 -0.0276
C 19.62681 33.9987 0.03005
C 22.02618 32.75512 -0.04078
C 23.21762 32.15256 0.02117
C 23.33666 13.40898 0.02737
C 22.18773 12.65442 -0.00498
C 21.82951 11.28048 0.00135
C 23.15565 10.68142 0.03102
C 23.29538 9.34508 0.02555
C 21.97274 8.57252 0.01423
C 22.14299 7.13001 -0.00285
C 23.32143 6.36601 -0.009
C 23.27941 4.94971 -0.01199
C 22.0738 4.19796 -0.00229
C 25.81319 2.215 0.00487
C 25.79548 0.74129 0.00826
C 24.61306 0.01387 -0.00294
C 27.0009 32.70755 0.00152
C 26.92833 0.03643 0.02326
C 29.45764 32.63251 0.00261
C 30.63154 31.92616 0.03265
C 30.64141 30.55538 -0.02049
C 29.32788 29.8643 -0.01854
C 29.47672 28.42617 -0.01415
C 30.75347 27.73749 -0.03039
C 30.70695 26.34304 0.01836
C 30.63841 19.26438 0.03531
C 30.49329 17.88519 -0.00669
C 29.3928 17.01888 0.0101
C 29.24623 15.6165 0.01705
C 30.58359 14.98007 -0.0405
C 30.68596 13.54172 -0.01303
C 29.539 12.76312 -0.01461
C 28.16938 0.7257 0.00924
C 30.70773 10.62225 -0.00944
C 28.24849 2.12366 0.0014
C 26.98082 4.34344 0.04266
C 28.18811 31.97526 0.01257
C 28.03096 30.60154 0.02316
C 26.7582 29.7875 0.04185
C 27.08976 28.44112 0.00194
C 28.24201 27.65903 -0.00621
C 28.06205 14.75535 0.02611
C 28.23233 13.36943 0.02198
C 27.00803 12.73819 0.01094
C 26.98907 11.28702 0.00235
C 28.21909 10.59761 0.01495
C 28.24859 9.21276 0.01259
C 26.91073 8.561 0.01799
C 27.00378 7.09922 0.01699
C 28.26458 6.45903 -0.00416
C 28.23843 5.0175 0.01177
C 27.00973 2.90757 0.01324
C 2.42604 32.70705 0.02339
