379
Graphene
C 34.34398 34.07297 0.01295
C 13.48786 5.05058 0.01945
C 12.32024 4.28973 0.01416
C 12.30054 2.85073 0.03542
C 13.56954 2.25289 0.02299
C 13.66092 0.68167 0.00244
C 12.39066 0.16914 -0.01717
C 15.79842 21.87033 0.05265
C 14.56426 21.11206 -0.01952
C 14.77282 19.80705 -0.02813
C 16.06146 19.10554 0.00374
C 16.01805 17.638 0.00052
C 14.86724 16.96897 -0.03682
C 14.7883 15.57668 0.01965
C 16.02666 14.81796 0.02058
C 16.00503 13.39723 -0.01957
C 14.73503 12.67886 -0.0108
C 14.72574 11.31082 -0.00368
C 15.94984 10.54306 -0.02696
C 15.92449 9.16964 -0.00114
C 13.52483 6.42151 -0.01454
C 12.29046 7.15365 0.01241
C 12.26674 8.55029 0.0076
C 13.49112 9.20305 0.02162
C 9.80941 8.51248 0.00985
C 9.76511 7.12662 -0.02245
C 11.01598 6.45717 -0.00428
C 11.07368 5.04334 0.03101
C 9.82383 4.29413 -0.01536
C 9.85876 2.87344 -0.02689
C 11.08664 2.18528 -0.01046
C 11.09852 0.64339 -0.00891
C 9.78473 0.33817 0.02819
C 14.68693 8.50333 0.00228
C 12.36676 21.32358 0.00165
C 13.56504 19.10216 0.02894
C 13.6226 17.66516 -0.01789
C 12.33112 17.01373 0.00444
C 12.34475 15.62302 -0.00925
C 13.60762 14.86725 0.01877
C 13.54209 13.40982 0.01363
C 12.27251 12.8013 -0.02162
C 12.27991 11.41186 0.00415
C 13.51249 10.61679 -0.0014
C 12.32531 19.97065 -0.02971
C 14.71425 7.09816 0.00798
C 15.89212 6.45679 0.00422
C 16.00537 4.99023 0.0351
C 18.42303 9.1739 -0.00316
C 17.2119 8.45783 0.02188
C 17.24343 7.03489 -0.01979
C 18.45513 6.32624 0.02691
C 18.40281 4.976 -0.01581
C 17.19267 4.3481 0.01452
C 17.22132 2.95037 0.04892
C 18.42424 2.22455 -0.00111
C 18.49055 0.71554 -0.03557
C 18.32402 10.57777 -0.0331
C 17.34104 0.05463 0.03754
C 20.87162 31.95107 0.00755
C 20.84238 30.56031 -0.0054
C 19.66777 29.79949 0.00667
C 19.65374 28.38549 0.00143
C 20.80692 27.62399 -0.017
C 20.76809 26.20993 0.00364
C 19.53465 25.48444 -0.00831
C 19.51378 24.12656 -0.02957
C 20.84786 23.38961 -0.04422
C 19.67562 32.56862 0.01739
C 11.03436 9.27074 -0.01275
C 17.14698 11.29598 -0.0258
C 18.45403 13.42568 -0.00491
C 14.74103 4.32444 -0.03113
C 14.78751 2.91654 0.02098
C 16.05159 2.1847 0.01848
C 16.12778 0.80465 -0.00619
C 14.95526 0.05932 -0.02162
C 17.18749 32.77459 0.00889
C 18.26341 31.83315 -0.00481
C 18.42089 30.4383 0.00979
C 18.52121 27.66579 0.01443
C 17.22058 12.70694 0.03338
C 18.41485 26.26346 0.03505
C 18.24562 23.43688 -0.04147
C 18.28535 22.05697 -0.05302
C 17.08776 21.2938 0.00213
C 17.22238 19.86043 -0.00066
C 18.41408 19.14894 -0.00289
C 18.57415 17.65955 0.00028
C 17.34331 16.94651 -0.02213
C 17.33869 15.53282 0.03698
C 18.53445 14.78823 -0.00109
C 16.95323 24.05728 -0.02815
C 20.91937 21.96596 0.00654
C 11.02112 10.66368 -0.01111
C 9.8601 12.85433 0.00943
C 3.64083 2.11531 0.01087
C 3.62375 0.63828 -0.01343
C 2.36147 34.0372 0.00988
C 4.92494 32.55429 0.0276
C 6.26715 31.91263 0.01305
C 5.97524 30.54735 -0.00077
C 4.75602 29.90441 0.03368
C 5.02304 28.63121 -0.02929
C 5.84509 27.74959 -0.00966
C 5.79778 26.47716 -0.03337
C 5.25261 25.34416 0.01227
C 4.96468 24.10769 0.00873
C 6.19356 23.44669 -0.00049
C 6.13982 22.06111 0.00848
C 4.95141 21.34168 -0.01303
C 4.90138 19.97374 -0.01378
C 6.14372 19.23833 0.02635
C 6.09486 17.80178 0.0127
C 4.88043 16.98667 0.01396
C 2.3988 2.8298 -0.05697
C 2.46944 4.16003 -0.00725
C 3.72031 4.93505 0.02322
C 3.66324 6.43361 -0.00094
C 3.56557 30.54247 0.00643
C 2.40534 29.85814 -0.01509
C 2.31558 28.36828 0.03267
C 2.50467 24.21251 0.02374
C 3.70016 23.49733 0.00402
C 3.69407 22.06425 0.0073
C 2.46601 21.39487 0.0174
C 2.45259 19.97872 0.03828
C 3.68461 19.23644 0.01226
C 4.87194 15.66111 0.01849
C 3.60474 17.80729 -0.00279
C 2.40523 15.69018 -0.03996
C 3.62821 14.95837 0.01465
C 3.61724 13.53066 -0.00074
C 2.46369 12.80112 -0.00518
C 2.46128 11.34586 0.0086
C 3.68268 10.65537 -0.00643
C 3.70905 9.24197 0.017
C 2.48339 8.48662 -0.03113
C 2.46887 7.11282 -0.02566
C 2.42316 17.17531 0.01996
C 6.05596 14.99665 -0.01142
C 6.18216 13.61766 -0.00562
C 4.94962 12.91374 -0.00494
C 7.41903 11.44454 0.00373
C 8.61998 10.77999 -0.00191
C 8.60528 9.32388 0.00438
C 7.29182 8.59736 0.01291
C 7.38115 7.12374 0.00093
C 8.5923 6.4233 0.00057
C 8.57624 4.94053 -0.01634
C 7.349 4.23689 -0.00334
C 7.29672 2.84455 0.02339
C 7.41829 12.89604 0.02147
C 8.57512 2.2423 0.01641
C 7.26299 0.13365 0.01364
C 9.82444 21.31931 -0.01062
C 9.93997 19.88022 -0.00033
C 11.16729 19.24201 0.03589
C 11.12962 17.80574 -0.02759
C 9.92829 17.14114 0.0402
C 9.91102 15.66469 0.00572
C 11.12265 14.93321 0.03592
C 11.08689 13.54665 0.00406
C 8.5372 0.81796 -0.00719
C 9.80987 11.48349 0.02841
C 8.62515 13.62143 -0.014
C 7.2869 15.68584 -0.00131
C 4.91842 11.5173 0.00054
C 6.17768 10.73271 0.03007
C 6.19529 9.33253 -0.00095
C 4.94831 8.60338 0.01572
C 4.93809 7.18037 -0.04848
C 6.1591 6.43596 -0.00892
C 6.10843 5.05168 -0.01362
C 4.98298 4.30492 -0.0008
C 4.88891 2.79278 0.0288
C 8.63232 15.01624 -0.01118
C 6.05112 2.11626 0.00393
C 4.8697 34.03126 0.00685
C 7.21221 32.82827 0.02888
C 7.59303 23.99623 -0.00482
C 8.5988 22.01526 -0.01384
C 7.4282 21.3544 0.03693
C 7.39849 19.93683 0.01745
C 8.61327 19.20418 0.00488
C 8.5902 17.84801 -0.01004
C 7.33256 17.11145 -0.02896
C 6.03823 0.74145 0.00895
C 3.65766 31.94155 0.00907
C 19.62829 21.30614 -0.00703
C 20.65883 19.12149 -0.00652
C 29.46271 4.21678 0.02108
C 29.33352 2.81327 0.00716
C 30.60069 2.14449 0.00307
C 30.73861 0.73915 0.00346
C 29.45728 0.00194 0.01713
C 31.9519 32.74268 -0.01694
C 33.19374 32.01186 0.01428
C 33.21483 30.53643 -0.02142
C 31.98533 29.87634 0.0544
C 32.01733 28.44269 0.00026
C 33.23364 27.72962 0.00682
C 33.15968 26.29651 -0.01779
C 31.94336 25.57629 0.03794
C 31.93966 24.07786 0.01927
C 33.1895 23.51971 0.01574
C 33.23271 22.11352 -0.02383
C 31.91032 21.29129 -0.01429
C 31.8957 19.79047 -0.0136
C 33.18436 19.20522 0.00594
C 30.62961 4.94006 0.0103
C 30.7119 6.39303 0.07705
C 29.54697 7.15547 0.01908
C 29.53535 8.50241 0.01518
C 30.73847 30.5523 0.00924
C 29.60281 29.82173 0.02326
C 29.50872 28.41791 0.00261
C 30.78639 27.70942 0.03265
C 30.72452 26.26707 -0.02049
C 29.50093 25.61938 -0.01854
C 29.51444 24.10531 -0.01415
C 30.70793 23.36753 -0.03039
C 30.71368 21.96148 0.01836
C 33.18785 17.8071 -0.02474
C 29.43008 21.30361 0.03531
C 30.52794 19.05796 0.0101
C 30.68056 17.70419 0.01705
C 29.5122 15.55594 -0.0405
C 30.74785 14.90238 -0.01303
C 30.73335 13.44127 -0.01461
C 29.4962 12.76719 -0.02155
C 29.44961 11.37263 -0.00944
C 30.68861 10.6486 -0.03735
C 30.73741 9.16802 -0.00971
C 29.35102 19.87534 -0.00669
C 31.95238 17.09588 0.00369
C 31.99362 15.66306 0.00455
C 33.23072 14.89609 -0.00644
C 0.05925 21.3936 -0.02213
C 0.01765 19.97986 0.01951
C 1.21464 19.23615 -0.01678
C 1.14385 17.8299 0.01223
C 34.38364 17.07137 0.00648
C 34.41124 15.65768 0.02114
C 1.19179 14.88933 -0.02957
C 1.21683 13.50898 0.00343
C 0.03746 12.75622 -0.02656
C 1.29578 22.12304 0.02712
C 0.02618 11.33978 -0.02442
C 1.21928 9.1092 -0.00583
C 0.01412 8.5119 -0.02302
C 34.42681 7.05368 -0.02849
C 1.22229 6.30974 0.02931
C 1.18325 4.90988 0.00628
C 34.41385 4.31504 -0.0345
C 34.3981 2.89569 -0.00931
C 1.17581 2.15511 -0.00939
C 1.16929 0.67161 -0.00468
C 1.22738 10.63044 -0.00027
C 30.739 31.95979 0.0014
C 1.32258 23.54588 0.00723
C 34.42371 25.68277 -0.05239
C 33.20221 13.5039 -0.01839
C 32.00788 12.73522 0.00137
C 31.97611 11.29143 0.00199
C 33.1897 10.60853 0.04381
C 33.21462 9.21962 0.02806
C 31.98322 8.51686 0.01504
C 31.92989 7.07629 -0.00069
C 33.11496 6.35418 0.04926
C 33.12067 4.95769 -0.03838
C 0.08991 24.28926 0.03076
C 31.91933 4.30887 0.00349
C 33.11064 2.13656 -0.00841
C 33.12007 0.74654 0.0001
C 31.9256 0.07443 -0.02927
C 34.39154 32.71848 -0.01404
C 1.18502 31.97153 0.01027
C 1.16077 30.52097 0.01831
C 34.42349 29.74298 -0.01037
C 34.42131 28.41456 -0.00439
C 1.18051 27.69604 -0.00598
C 31.88184 2.86493 -0.00323
C 19.61121 19.95273 -0.04076
C 29.46571 32.68056 0.01324
C 28.19083 0.68226 0.01177
C 23.30695 26.26781 0.03374
C 22.08655 25.50364 -0.02845
C 22.10292 24.05892 -0.03213
C 23.37887 23.31007 0.02239
C 23.35245 21.96963 0.01153
C 22.14586 21.36084 0.02734
C 22.339 12.66427 -0.0055
C 22.14317 11.28067 0.01515
C 23.28696 10.54592 -0.00225
C 23.37013 9.1691 0.00071
C 22.17766 8.47224 -0.01107
C 22.17817 7.09456 -0.01586
C 23.38426 6.45583 -0.01971
C 23.30133 4.95155 -0.02118
C 22.11125 4.28249 0.00733
C 22.13018 2.83103 -0.00178
C 23.28295 2.12889 0.00768
C 23.42942 0.67405 -0.0276
C 22.19176 34.03615 0.03005
C 23.29046 27.68484 0.0296
C 22.09976 28.36336 0.03046
C 22.13732 29.86385 -0.00381
C 23.33535 30.54273 0.01852
C 20.83857 17.78206 0.0058
C 19.7608 16.94458 -0.00865
C 19.78156 15.5354 0.00675
C 20.98538 14.81616 -0.00311
C 21.14596 13.41667 0.00742
C 19.73096 12.73094 -0.01594
C 19.65958 11.28948 0.0106
C 20.89163 10.57482 -0.01154
C 20.89672 9.20771 -0.01721
C 24.61777 32.62684 -0.04078
C 19.67055 8.52161 -0.02422
C 20.87679 6.3889 0.00096
C 20.85829 5.00285 -0.01527
C 19.62551 4.28982 0.01087
C 19.63238 2.85472 0.00199
C 20.88642 2.0988 0.01511
C 20.97855 0.66229 -0.00478
C 19.68626 34.05276 -0.01662
C 22.13831 32.60876 -0.01185
C 23.44722 31.94053 0.01126
C 19.68176 7.0591 0.01277
C 25.85005 31.88611 0.02117
C 25.83628 30.41648 0.02737
C 24.56547 29.75387 -0.00498
C 27.05199 28.36025 -0.02815
C 28.273 27.69979 -0.00942
C 28.20654 26.23682 0.00487
C 26.97623 25.55925 0.00826
C 26.96058 24.16162 -0.00294
C 28.2005 23.38447 0.00152
C 28.18519 21.94411 0.01257
C 26.97764 21.39634 0.02316
C 28.40946 13.54505 0.04185
C 27.08524 29.77555 0.00622
C 27.28998 12.76726 0.00194
C 28.27005 10.69453 0.02611
C 28.28678 9.22576 0.02198
C 27.07872 8.53777 0.01094
C 27.00154 7.06947 0.00235
C 28.29019 6.34122 0.01495
C 28.26366 4.95918 0.01259
C 26.97769 4.28023 0.01799
C 26.9555 2.82578 0.01699
C 28.15102 2.06573 -0.00416
C 27.066 11.45511 -0.00621
C 27.02374 33.99729 0.04266
C 28.37404 30.5261 -0.0032
C 27.13921 32.5795 -0.01654
C 24.48875 28.38211 0.00135
C 25.79325 27.72792 0.03102
C 25.77571 26.31534 0.02555
C 24.5468 25.58001 0.01423
C 24.50507 24.05068 -0.00285
C 25.73014 23.43466 -0.009
C 25.85096 22.04425 -0.01199
C 24.45479 12.69814 -0.00229
C 24.51186 11.24652 -0.00938
C 28.35035 31.89434 -0.00037
C 25.79719 10.68375 -0.0264
C 24.60603 8.48459 0.00684
C 24.63329 7.11485 -0.01052
C 25.89669 6.42755 -0.01679
C 25.72266 4.99713 0.00367
C 24.53143 4.22983 0.04306
C 24.47067 2.83878 0.00996
C 25.70382 2.17814 0.00195
C 25.7228 0.71458 -0.00802
C 24.60696 34.02992 -0.00218
C 25.89767 9.27639 -0.01154
C 2.43114 32.67233 0.02379
