378
Graphene
C 34.35372 0.02372 0.01295
C 12.32991 32.71971 0.01416
C 13.49384 31.90985 0.03542
C 13.58615 30.4488 0.02299
C 12.17651 29.83097 0.00244
C 12.1017 28.42126 -0.01717
C 13.36513 27.47691 0.05265
C 12.80768 26.26392 -0.01952
C 11.67236 25.91696 -0.02813
C 13.04086 22.2757 0.00374
C 13.06126 20.96418 0.00052
C 12.38788 19.46264 -0.03682
C 13.73696 19.02321 0.01965
C 13.74887 17.68081 0.02058
C 12.42976 17.15542 -0.01957
C 12.39022 15.76015 -0.0108
C 13.61649 14.9775 -0.00368
C 13.58738 13.55345 -0.02696
C 12.32424 12.85348 -0.00114
C 12.2614 11.37526 0.00228
C 9.7597 0.0943 0.01945
C 11.06517 0.79213 -0.01454
C 11.09298 2.19189 0.01241
C 9.8121 2.88089 0.0076
C 9.76645 30.01909 -0.02245
C 9.78939 28.61667 -0.00428
C 10.82854 27.79861 0.03101
C 10.37963 26.28348 -0.01536
C 9.92605 20.22492 -0.02689
C 11.02604 19.17907 -0.01046
C 11.13231 17.85554 -0.00891
C 9.89923 17.16136 0.02819
C 9.87841 15.81094 0.00165
C 13.427 10.70206 0.00798
C 11.13413 15.03769 -0.02971
C 9.84086 12.92914 -0.01789
C 9.84639 11.43823 0.00444
C 10.99284 10.69956 -0.00925
C 10.97659 9.30768 0.01877
C 9.79729 8.5788 0.01363
C 9.81687 7.14904 -0.02162
C 11.02854 6.37099 0.00415
C 11.00137 4.97964 -0.0014
C 9.81408 4.30133 0.02162
C 11.16227 13.6502 0.02894
C 11.0732 30.66245 0.00985
C 13.47334 9.23166 0.00422
C 12.27793 7.1441 -0.03113
C 16.25796 6.85816 0.02188
C 14.89475 4.27317 -0.01979
C 14.92107 2.91155 0.02691
C 15.98059 2.09779 -0.01581
C 16.02565 0.71141 0.01452
C 14.80345 0.04392 0.04892
C 17.22984 32.80257 -0.00111
C 18.53059 32.1839 -0.03557
C 18.45024 30.77641 0.03754
C 17.40168 30.11358 0.01739
C 17.32699 16.9436 0.00755
C 17.30289 15.53639 -0.0054
C 18.5321 14.74903 0.00667
C 18.4906 13.29154 0.00143
C 17.29433 12.60107 -0.017
C 17.14545 11.19892 0.00364
C 18.31269 10.32928 -0.00831
C 18.3244 8.69983 -0.02957
C 17.04358 8.13084 -0.04422
C 14.7644 7.15982 -0.00316
C 14.58996 8.44786 -0.0331
C 15.8518 9.13453 -0.0258
C 15.86051 10.49625 0.03338
C 13.64386 6.42032 0.02098
C 13.63531 4.99519 0.01848
C 12.40066 4.3026 -0.00619
C 12.33714 2.91292 -0.02162
C 13.62908 2.21946 0.00889
C 13.63038 0.8148 -0.00481
C 12.32665 0.09066 0.00979
C 14.75392 32.68508 0.01443
C 15.99441 31.95081 0.03505
C 12.21158 8.55574 0.0351
C 16.00389 30.42308 -0.02815
C 14.63536 28.22121 -0.05302
C 14.61969 20.42054 0.00213
C 16.27882 17.45881 -0.00066
C 14.94177 17.1009 -0.00289
C 14.83585 15.66253 0.00028
C 15.99914 14.84484 -0.02213
C 16.01432 13.41396 0.03698
C 14.76916 12.71061 -0.00109
C 14.72641 11.25454 -0.00491
C 14.82167 29.68563 -0.04147
C 11.06119 32.07097 -0.01275
C 9.93574 32.76997 -0.01111
C 7.32725 0.00319 0.02841
C 3.6117 5.06181 -0.01343
C 2.39848 4.28311 0.00988
C 2.37512 2.8747 0.0276
C 3.6054 2.18526 0.01305
C 3.57434 0.84262 -0.00077
C 2.33571 0.05402 0.03368
C 4.8876 32.77146 -0.02929
C 6.11381 32.03104 -0.00966
C 6.18801 30.49889 -0.03337
C 4.88845 29.89711 0.01227
C 4.94475 28.42592 0.00873
C 6.221 27.71599 -0.00049
C 6.332 26.26268 0.00848
C 5.10255 25.69018 -0.01303
C 5.03443 24.25228 -0.01378
C 6.25233 23.55626 0.02635
C 6.12167 22.10134 0.0127
C 4.88896 21.49868 0.01396
C 4.9051 20.13611 0.01849
C 3.59752 6.44348 0.01087
C 2.40105 7.09221 -0.05697
C 2.43862 8.54353 -0.00725
C 3.66451 9.27655 0.02322
C 3.65647 30.64888 -0.01509
C 2.44643 29.92842 0.03267
C 2.46902 28.43626 0.02374
C 3.72454 27.70708 0.00402
C 3.73033 26.30644 0.0073
C 2.45588 25.705 0.0174
C 2.41469 24.20999 0.03828
C 3.72767 23.53861 0.01226
C 3.63387 22.17094 -0.00279
C 6.21456 19.38631 -0.01142
C 2.46697 21.42535 0.01996
C 3.73179 19.30488 0.01465
C 3.67589 17.8231 -0.00074
C 2.42262 17.10499 -0.00518
C 2.50577 15.71142 0.0086
C 3.70904 14.96962 -0.00643
C 3.76522 13.56548 0.017
C 2.47176 12.85848 -0.03113
C 2.50022 11.47539 -0.02566
C 3.72155 10.79342 -0.00094
C 2.45776 19.93317 -0.03996
C 6.1798 17.93708 -0.00562
C 4.98037 17.11006 -0.00494
C 5.00517 15.72649 0.00054
C 7.36928 21.45843 -0.00191
C 7.5191 20.0522 0.00438
C 8.75162 19.39575 0.01291
C 8.81611 17.97889 0.00093
C 7.48763 17.27447 0.00057
C 7.4574 15.87293 -0.01634
C 8.6515 15.11804 -0.00334
C 8.60049 13.68604 0.02339
C 7.35622 12.93267 0.01641
C 7.47434 24.15811 0.00373
C 7.3792 11.48888 -0.00719
C 8.56081 9.22424 -0.01062
C 7.28169 8.53134 -0.00033
C 7.24933 7.10475 0.03589
C 8.53742 6.40962 -0.02759
C 8.51081 4.9976 0.0402
C 7.27175 4.3249 0.00572
C 7.30038 2.98306 0.03592
C 8.56502 2.22174 0.00406
C 8.49888 0.84865 0.00943
C 8.60847 10.67031 0.01364
C 18.46503 0.95112 0.00654
C 7.7158 25.49213 0.02147
C 8.66362 27.77504 -0.01118
C 6.23994 15.02248 0.03007
C 6.1637 13.59972 -0.00095
C 4.94684 12.87594 0.01572
C 4.93272 11.45466 -0.04848
C 6.16775 10.74634 -0.00892
C 6.09376 9.31706 -0.01362
C 4.94314 8.6091 -0.0008
C 4.86172 7.10326 0.0288
C 6.06298 6.4428 0.00393
C 8.79441 26.31788 -0.014
C 6.04955 5.01136 0.00895
C 4.8438 2.89981 0.02888
C 6.09189 2.1701 -0.00482
C 6.09975 0.704 -0.01384
C 4.82892 0.04049 0.03693
C 7.3463 32.70885 0.01745
C 8.5626 32.07212 0.00488
C 8.52905 30.61455 -0.01004
C 7.41627 29.78466 -0.02896
C 7.434 28.41386 -0.00131
C 4.81113 4.32636 0.00685
C 17.23722 0.1074 -0.00703
C 19.7317 32.98121 -0.04076
C 20.81961 32.14572 -0.00652
C 29.44135 2.79193 0.02108
C 30.72227 2.19661 0.00716
C 30.68891 0.72615 0.00307
C 29.433 0.04619 0.00346
C 31.87276 32.62798 0.01713
C 33.11814 32.0369 -0.01694
C 33.11986 30.60254 0.01428
C 31.9004 29.82144 -0.02142
C 31.9173 28.40908 0.0544
C 33.16924 27.77667 0.00026
C 33.13161 26.31954 0.00682
C 31.92006 25.6085 -0.01779
C 31.98667 24.23464 0.03794
C 33.22082 23.43839 0.01927
C 33.19323 21.98694 0.01574
C 31.93759 21.35992 -0.02383
C 31.86812 19.9411 -0.01429
C 33.13663 19.26214 -0.0136
C 33.13556 17.89574 0.00594
C 29.39529 4.24149 0.0103
C 30.6738 5.01911 0.07705
C 30.62889 6.4669 0.01908
C 29.42001 7.04158 0.01518
C 29.42139 28.37352 0.00924
C 30.65142 27.67004 0.02326
C 30.6769 26.30813 0.00261
C 29.47014 25.59025 0.03265
C 29.52926 24.1044 -0.02049
C 30.7331 23.46796 -0.01854
C 30.71156 22.05724 -0.01415
C 29.50518 21.40568 -0.03039
C 29.3488 19.89071 0.01836
C 31.89395 17.14225 -0.02474
C 30.5569 19.22514 0.03531
C 29.38395 17.04878 0.0101
C 29.41279 15.60274 0.01705
C 30.68756 14.91257 -0.0405
C 30.66568 13.52735 -0.01303
C 29.47338 12.83271 -0.01461
C 29.46198 11.36502 -0.02155
C 30.74446 10.63854 -0.00944
C 30.68675 9.27264 -0.03735
C 29.49504 8.48134 -0.00971
C 30.63274 17.8033 -0.00669
C 31.91471 15.65329 0.00369
C 33.20166 14.95395 0.00455
C 33.16112 13.49258 -0.00644
C 0.0092 21.26416 -0.02213
C 34.39684 19.89839 0.01951
C 1.19002 19.2146 -0.01678
C 1.24209 17.81814 0.01223
C 34.40865 17.12403 0.00648
C 0.03238 15.73263 0.02114
C 1.21557 14.94155 -0.02957
C 1.20476 13.5389 0.00343
C 34.35891 12.76163 -0.02656
C 1.20753 22.02324 0.02712
C 34.41937 11.44534 -0.02442
C 1.22047 9.29736 -0.00583
C 34.42796 8.59387 -0.02302
C 34.35131 7.16452 -0.02849
C 1.13897 6.44228 0.02931
C 1.13867 5.03685 0.00628
C 34.39619 4.31653 -0.0345
C 34.39613 2.93231 -0.00931
C 1.19569 2.20969 -0.00939
C 1.11644 0.74787 -0.00468
C 1.24934 10.75147 -0.00027
C 29.43816 29.79764 0.0014
C 1.2189 23.4228 0.00723
C 34.34108 25.63392 -0.05239
C 31.85731 12.82655 -0.01839
C 31.90435 11.37189 0.00137
C 33.14156 10.70078 0.00199
C 33.16886 9.23712 0.04381
C 31.95235 8.58697 0.02806
C 31.89751 7.12117 0.01504
C 33.15288 6.46418 -0.00069
C 33.06004 4.99156 0.04926
C 31.85962 4.23474 -0.03838
C 34.42835 24.18948 0.03076
C 31.94417 2.88171 0.00349
C 33.1103 0.70482 -0.00841
C 31.89338 0.01933 0.0001
C 34.29098 32.68223 -0.02927
C 1.14733 31.99272 -0.01404
C 1.18923 30.55881 0.01027
C 34.3886 29.90823 0.01831
C 34.4029 28.46251 -0.01037
C 1.25294 27.74995 -0.00439
C 1.17458 26.31121 -0.00598
C 33.20012 2.20622 -0.00323
C 3.61021 32.03712 0.00643
C 30.66582 30.57084 0.01324
C 29.37587 32.64496 0.01177
C 23.16953 9.09566 0.03374
C 22.02632 8.32261 -0.02845
C 21.91414 6.96581 -0.03213
C 22.99312 6.22803 0.02239
C 23.12402 4.7418 0.01153
C 21.79204 2.21863 0.02734
C 23.3271 2.0142 -0.0055
C 23.4755 0.67997 0.01515
C 22.20569 0.12707 -0.00225
C 24.55384 32.59399 0.00071
C 25.80245 31.88722 -0.01107
C 25.7321 30.46313 -0.01586
C 24.443 29.77643 -0.01971
C 24.50335 28.35351 -0.02118
C 25.64991 27.5639 0.00733
C 25.90611 26.16842 -0.00178
C 25.71175 19.22691 0.00768
C 25.67418 17.83022 -0.0276
C 24.44844 17.01473 0.03005
C 23.26777 10.50154 0.0296
C 22.08743 11.13981 0.03046
C 22.06554 12.60975 -0.00381
C 23.29583 13.38587 0.01852
C 20.86422 30.77003 0.0058
C 20.11795 16.93838 -0.00865
C 19.70541 15.60412 0.00675
C 20.74223 14.71484 -0.00311
C 20.8544 13.29968 0.00742
C 19.60766 12.44448 -0.01594
C 19.60455 11.02451 0.0106
C 20.8559 10.44955 -0.01154
C 20.81863 9.03931 -0.01721
C 24.42785 15.54363 -0.04078
C 19.56964 8.27355 -0.02422
C 19.74999 0.44452 0.00096
C 22.06998 32.83453 -0.01527
C 23.27544 31.93237 0.01087
C 23.19643 30.47101 0.00199
C 21.88934 30.12606 0.01511
C 23.03688 17.4312 -0.00478
C 21.88557 16.81624 -0.01662
C 21.99671 15.40446 -0.01185
C 23.26615 14.85677 0.01126
C 21.05764 1.16393 0.01277
C 25.75259 14.93433 0.02117
C 25.82641 13.41788 0.02737
C 24.58824 12.80693 -0.00498
C 26.80471 20.0213 -0.02815
C 28.11738 19.20278 -0.00942
C 28.18721 17.73407 0.00487
C 26.96524 17.02919 0.00826
C 27.00345 15.61132 -0.00294
C 28.23883 14.88231 0.00152
C 28.21214 13.46202 0.01257
C 26.99096 12.681 0.02316
C 26.95471 11.25154 0.04185
C 27.03685 21.43227 0.00622
C 28.27165 10.61372 0.00194
C 27.0415 8.40002 0.02611
C 26.84606 7.01296 0.02198
C 28.22884 6.37019 0.01094
C 28.09958 4.93444 0.00235
C 26.87317 4.23625 0.01495
C 26.94733 2.75562 0.01259
C 28.27207 2.08079 0.01799
C 28.25751 0.69358 0.01699
C 26.98622 34.04453 -0.00416
C 28.21166 9.19035 -0.00621
C 30.63734 31.95642 0.04266
C 28.31111 22.01319 -0.0032
C 27.02662 23.94046 -0.01654
C 24.48984 11.25401 0.00135
C 25.75155 10.52691 0.03102
C 25.66869 9.06073 0.02555
C 24.44234 8.41261 0.01423
C 24.34307 6.95065 -0.00285
C 25.64901 6.26709 -0.009
C 25.53317 4.80769 -0.01199
C 24.30428 4.10553 -0.00229
C 24.51005 2.72122 -0.00938
C 28.27516 23.41728 -0.00037
C 25.73652 2.07349 -0.0264
C 24.56384 33.96623 0.00684
C 27.02166 32.59609 -0.01052
C 28.16899 31.90353 -0.01679
C 28.2501 30.55395 0.00367
C 27.0087 29.77402 0.04306
C 26.91312 28.29349 0.00996
C 28.20518 27.63665 0.00195
C 28.21132 26.24657 -0.00802
C 26.89537 25.35399 -0.00218
C 25.82776 0.661 -0.01154
C 2.38814 32.76694 0.00907
