393
Graphene
C 34.30835 0.07099 0.01295
C 15.85638 14.97178 0.01877
C 15.91887 13.50435 0.01363
C 14.71071 12.80912 -0.02162
C 14.73291 11.40356 0.00415
C 15.87553 10.67392 -0.0014
C 15.80903 9.29272 0.02162
C 14.68214 8.51834 0.0076
C 14.73255 7.07103 0.01241
C 15.93046 6.46789 -0.01454
C 14.72334 15.72739 -0.00925
C 15.90046 4.98843 0.01945
C 14.6295 2.9001 0.03542
C 15.88995 2.1238 0.02299
C 15.89763 0.66405 0.00244
C 14.71826 34.01608 -0.01717
C 17.20205 32.68124 0.05265
C 18.47178 31.93945 -0.01952
C 18.48534 30.5208 -0.02813
C 17.24379 29.88378 0.00374
C 17.2604 28.45959 0.00052
C 14.75461 4.26095 0.01416
C 14.65639 17.19689 0.00444
C 15.93621 17.82123 -0.01789
C 15.97502 19.25361 0.02894
C 12.27464 7.15167 0.03589
C 13.45967 6.36423 -0.02759
C 13.48327 4.97699 0.0402
C 12.26448 4.26248 0.00572
C 12.21275 2.81164 0.03592
C 13.41992 2.07627 0.00406
C 13.4821 0.62532 0.00943
C 12.24392 33.98348 0.02841
C 14.72149 32.67297 -0.01111
C 16.00669 31.92927 -0.01275
C 16.07206 30.60581 0.00985
C 14.79493 29.91578 -0.02245
C 14.71545 28.45022 -0.00428
C 15.94633 27.78348 0.03101
C 16.00065 26.40963 -0.01536
C 14.72288 25.63884 -0.02689
C 14.73997 24.26094 -0.01046
C 15.94283 23.4973 -0.00891
C 15.8935 22.12065 0.02819
C 14.7566 21.30912 0.00165
C 14.70465 19.96234 -0.02971
C 18.38068 27.7334 -0.03682
C 12.26091 8.49752 -0.00033
C 18.44711 26.28687 0.01965
C 17.18683 24.18913 -0.01957
C 20.89616 30.54576 -0.02213
C 19.66022 29.76287 0.03698
C 19.67631 28.41 -0.00109
C 20.99374 27.61074 -0.00491
C 20.98018 26.18631 0.03338
C 19.69893 25.60636 -0.0258
C 19.67871 24.10192 -0.0331
C 20.88154 23.41008 -0.00316
C 20.84206 22.00522 0.02188
C 20.97163 31.89743 0.00028
C 19.63893 21.33925 -0.01979
C 20.8753 19.15696 -0.01581
C 20.86248 17.7511 0.01452
C 19.60686 17.08347 0.04892
C 19.53091 15.67354 -0.00111
C 20.75873 14.84266 -0.03557
C 20.86633 13.48411 0.03754
C 19.66111 12.7209 0.01739
C 19.60603 11.30901 0.00755
C 20.77663 10.57656 -0.0054
C 19.67474 19.88545 0.02691
C 19.69398 32.60863 -0.00289
C 17.17372 34.06161 -0.00066
C 18.41151 0.58329 0.00213
C 18.49123 23.39095 -0.0108
C 18.36398 21.95175 -0.00368
C 17.10761 21.34528 -0.02696
C 17.16136 19.95986 -0.00114
C 18.48333 19.20809 0.00228
C 18.50247 17.79621 0.00798
C 17.17189 17.04245 0.00422
C 17.18392 15.61583 0.0351
C 18.41173 14.85292 -0.03113
C 18.46464 13.43639 0.02098
C 17.11815 12.84423 0.01848
C 17.12125 11.42764 -0.00619
C 18.29716 10.67187 -0.02162
C 18.33183 9.25856 0.00889
C 17.15617 8.53778 -0.00481
C 17.14194 7.10412 0.00979
C 18.44165 6.35838 0.01443
C 18.37475 4.94253 0.03505
C 17.16578 4.27172 -0.02815
C 17.18453 2.80118 -0.04147
C 18.399 1.99592 -0.05302
C 17.25455 25.56722 0.02058
C 13.41795 9.2695 -0.01062
C 13.524 10.65136 0.01364
C 12.23068 11.46167 -0.00719
C 4.8078 11.42149 -0.03996
C 6.05316 10.89982 0.01465
C 6.04351 9.31363 -0.00074
C 4.83996 8.46409 -0.00518
C 4.83031 7.10749 0.0086
C 6.06037 6.40736 -0.00643
C 6.0895 4.95865 0.017
C 4.77505 4.42851 -0.03113
C 4.78931 2.88721 -0.02566
C 4.87671 12.8701 0.01996
C 6.11722 2.22229 -0.00094
C 4.87201 0.1053 -0.00725
C 7.25275 32.69075 -0.05697
C 8.49992 31.96103 0.01087
C 8.71069 17.93794 -0.01343
C 7.32885 17.33949 0.00988
C 7.36454 15.76911 0.0276
C 8.58403 15.02319 0.01305
C 8.55754 13.71113 -0.00077
C 7.27325 12.96698 0.03368
C 6.13041 0.7897 0.02322
C 6.11645 13.66251 -0.00279
C 6.06981 15.08724 0.01226
C 4.78288 15.7831 0.03828
C 3.52699 17.79526 0.00208
C 2.4891 16.99119 0.01707
C 2.34776 15.5959 0.02769
C 3.63882 14.99356 -0.03291
C 3.6295 13.64488 -0.04999
C 2.51377 12.90582 0.04505
C 2.43748 11.36553 0.03284
C 3.68568 10.67319 -0.04307
C 3.66914 9.26112 0.03189
C 2.37987 8.55355 0.00031
C 2.40871 7.22545 -0.003
C 3.57056 6.47639 0.01402
C 3.58546 5.0947 0.02379
C 2.40329 4.25613 0.00907
C 2.40349 2.85579 0.00643
C 3.63744 2.21514 -0.01509
C 3.58634 0.81845 0.03267
C 2.41213 0.1054 0.02374
C 4.93551 32.75126 0.00402
C 6.02064 17.83491 0.0073
C 4.8457 17.24215 0.0174
C 7.38268 11.47064 -0.02929
C 8.55093 10.76483 -0.00966
C 8.55414 9.35816 -0.03337
C 7.3061 8.62113 0.01227
C 9.7744 2.95291 -0.00482
C 10.94987 2.15453 -0.01384
C 11.02078 0.66338 0.03693
C 9.86754 34.02005 0.01745
C 12.28628 32.57218 0.00488
C 13.54526 31.91744 -0.01004
C 13.48836 30.53258 -0.02896
C 12.32677 29.83098 -0.00131
C 13.47424 27.84246 -0.01118
C 13.52446 26.43078 -0.014
C 13.46356 23.59781 0.02147
C 13.4057 22.18024 0.00373
C 12.32926 21.32474 -0.00191
C 12.09878 19.90136 0.00438
C 13.49206 19.30162 0.01291
C 13.50944 17.90908 0.00093
C 12.28175 17.15403 0.00057
C 12.25143 15.67001 -0.01634
C 13.48606 14.99225 -0.00334
C 13.49587 13.59099 0.02339
C 12.29782 12.86517 0.01641
C 9.74238 4.27355 0.02888
C 20.78061 9.18101 0.00667
C 11.03132 5.01906 0.00685
C 9.70233 7.20507 0.00393
C 7.27787 7.16454 0.00873
C 8.53796 6.46822 -0.00049
C 8.53288 5.02869 0.00848
C 7.31881 4.22497 -0.01303
C 7.34781 2.8611 -0.01378
C 8.62302 2.13801 0.02635
C 8.63573 0.67058 0.0127
C 7.39001 0.02223 0.01396
C 9.85292 32.47779 0.01849
C 11.13306 31.73186 -0.01142
C 10.83611 19.19132 -0.00562
C 11.0375 17.75669 -0.00494
C 9.80711 17.06511 0.00054
C 9.82166 15.63006 0.03007
C 11.06882 14.95906 -0.00095
C 11.00681 13.57883 0.01572
C 9.75088 12.8865 -0.04848
C 9.84043 11.45273 -0.00892
C 11.01415 10.64515 -0.01362
C 11.01226 9.24944 -0.0008
C 9.74473 8.57443 0.0288
C 11.00829 6.48724 0.00895
C 3.67237 32.13683 -0.00561
C 19.62145 8.53812 0.00143
C 20.85641 6.35839 0.00364
C 30.66505 9.23185 0.07705
C 29.43381 8.50316 0.0103
C 29.43535 7.0438 0.02108
C 30.7175 6.35907 0.00716
C 30.73377 4.96423 0.00307
C 29.46896 4.30521 0.00346
C 29.44744 2.82877 0.01713
C 30.63703 2.13188 -0.01694
C 30.68531 0.71761 0.01428
C 30.62568 10.66475 0.01908
C 29.47228 34.05447 -0.02142
C 33.20805 31.87581 0.00026
C 33.29349 30.52666 0.00682
C 32.09239 29.85762 -0.01779
C 32.03043 28.47782 0.03794
C 33.26398 27.74291 0.01927
C 33.30051 26.24183 0.01574
C 31.96826 25.5792 -0.02383
C 31.99915 24.12149 -0.01429
C 33.27945 23.37249 -0.0136
C 32.03806 32.66025 0.0544
C 29.43667 11.39401 0.01518
C 29.48161 12.7733 -0.00971
C 30.66903 13.5196 -0.03735
C 28.24896 2.13789 0.04266
C 28.28152 0.7103 0.01324
C 27.12863 34.07755 0.0014
C 29.5386 32.6472 0.00924
C 30.80548 31.97292 0.02326
C 30.8287 30.5484 0.00261
C 29.58722 29.7826 0.03265
C 29.59 28.367 -0.02049
C 30.80581 27.74016 -0.01854
C 30.80654 26.33105 -0.01415
C 29.61097 25.51332 -0.03039
C 29.50202 24.14975 0.01836
C 30.79899 23.46563 0.03531
C 30.7681 22.03949 -0.00669
C 29.5629 21.31913 0.0101
C 29.52942 19.88195 0.01705
C 30.69355 19.09586 -0.0405
C 30.73594 17.73637 -0.01303
C 29.41463 17.02196 -0.01461
C 29.41494 15.65283 -0.02155
C 30.62768 15.01962 -0.00944
C 33.23977 21.92518 0.00594
C 27.00031 2.81426 0.01177
C 31.93926 21.23708 -0.02474
C 33.21247 19.23121 0.00455
C 0.06452 21.28574 -0.02213
C 0.14766 19.8696 0.01951
C 1.36851 18.96137 -0.01678
C 1.17988 17.69162 0.01223
C 34.26973 17.06988 0.00648
C 34.26381 15.62237 0.02114
C 1.07934 14.87719 -0.02957
C 1.17759 13.4935 0.00343
C 34.35395 12.7497 -0.02656
C 34.42427 24.09339 0.02712
C 34.32055 11.35309 -0.02442
C 1.19252 9.31299 -0.00583
C 34.3918 8.44736 -0.02302
C 34.40199 7.01241 -0.02849
C 1.22377 6.36238 0.02931
C 1.14901 4.99218 0.00628
C 34.39309 4.33377 -0.0345
C 34.43315 2.85485 -0.00931
C 1.15357 2.10352 -0.00939
C 1.14237 0.73001 -0.00468
C 1.14684 10.6977 -0.00027
C 0.04839 25.5539 0.00723
C 34.39882 28.42055 0.03076
C 0.15383 29.73008 -0.05239
C 33.12054 17.81797 -0.00644
C 31.95534 17.11947 -0.01839
C 31.88341 15.72021 0.00137
C 33.04944 14.90443 0.00199
C 33.08668 13.52771 0.04381
C 31.97458 12.73396 0.02806
C 31.88263 11.34095 0.01504
C 33.10887 10.66946 -0.00069
C 33.13577 9.19918 0.04926
C 31.87642 8.55874 -0.03838
C 31.90537 7.0849 0.00349
C 33.19482 6.3407 -0.00323
C 33.16127 4.96575 -0.00841
C 31.93924 4.24296 0.0001
C 32.04997 2.88645 -0.02927
C 33.21835 2.17403 -0.01404
C 33.0995 0.81471 0.01027
C 31.97433 0.07553 0.01831
C 34.41069 32.71786 -0.01037
C 1.27409 32.06343 -0.00439
C 1.34909 30.61153 -0.00598
C 31.94219 19.81862 0.00369
C 26.96338 4.21119 -0.00416
C 28.1151 4.95946 0.01699
C 28.22147 6.30628 0.01799
C 22.09704 12.6957 -0.01185
C 22.05301 11.26404 0.01126
C 23.26575 10.60309 0.01852
C 23.2815 9.17996 -0.00381
C 22.06025 8.51209 0.03046
C 22.10649 7.08739 0.0296
C 23.27761 6.41294 0.03374
C 23.32037 4.93176 -0.02845
C 22.044 4.23808 -0.03213
C 23.31168 13.42557 -0.01662
C 22.10175 2.75502 0.02239
C 23.43482 0.64265 0.02734
C 22.19756 33.96807 -0.0055
C 24.58765 32.61329 0.01515
C 25.81194 32.00246 -0.00225
C 25.85783 30.57036 0.00071
C 24.67404 29.80584 -0.01107
C 24.74592 28.35783 -0.01586
C 25.93694 27.67955 -0.01971
C 25.88495 26.23424 -0.02118
C 23.31336 2.02865 0.01153
C 23.25439 14.88399 -0.00478
C 21.97941 15.60273 0.01511
C 22.08257 17.02875 0.00199
C 20.84829 4.93275 -0.00831
C 19.62781 4.15437 -0.02957
C 19.68567 2.69953 -0.04422
C 20.88698 2.01992 0.00654
C 20.9855 0.67203 -0.00703
C 19.69135 34.01591 -0.04076
C 22.14814 32.56437 -0.00652
C 23.38388 31.92578 0.0058
C 23.46164 30.54618 -0.00865
C 22.2052 29.7623 0.00675
C 22.17906 28.37948 -0.00311
C 23.51016 27.69414 0.00742
C 23.41451 26.32132 -0.01594
C 22.23479 25.58735 0.0106
C 22.07301 24.1423 -0.01154
C 23.29512 23.41036 -0.01721
C 23.35799 21.90583 -0.02422
C 22.0722 21.29627 0.01277
C 22.01994 19.87909 0.00096
C 23.34969 19.131 -0.01527
C 23.30982 17.72542 0.01087
C 24.59641 25.57469 0.00733
C 24.58731 24.1971 -0.00178
C 25.79324 23.44236 0.00768
C 25.84286 22.01936 -0.0276
C 27.16089 28.3234 -0.01654
C 28.43401 27.66169 -0.00037
C 28.27659 26.15589 -0.0032
C 27.08653 25.53289 0.00622
C 27.06434 24.14033 -0.02815
C 28.2874 23.40816 -0.00942
C 28.33804 21.95192 0.00487
C 27.01617 21.29651 0.00826
C 26.92892 19.91191 -0.00294
C 28.16684 19.20493 0.00152
C 28.15343 17.7614 0.01257
C 27.02006 17.03224 0.02316
C 26.96574 15.58011 0.04185
C 28.18153 14.87805 0.00194
C 28.20371 13.52108 -0.00621
C 27.02304 12.69463 0.02611
C 26.98694 11.27845 0.02198
C 28.20673 10.59939 0.01094
C 28.24571 9.15318 0.00235
C 26.99272 8.52873 0.01495
C 26.98598 7.05953 0.01259
C 27.15999 29.8354 -0.00218
C 19.61682 7.08961 -0.017
C 28.32966 30.44733 -0.00802
C 27.05222 32.63343 0.00996
C 24.61138 21.30681 0.03005
C 24.5611 19.92942 -0.04078
C 25.70659 19.14957 0.02117
C 25.75781 17.7208 0.02737
C 24.5476 16.96952 -0.00498
C 24.47427 15.50844 0.00135
C 25.75935 14.86156 0.03102
C 25.79879 13.44848 0.02555
C 24.55816 12.76307 0.01423
C 24.49613 11.28375 -0.00285
C 25.68414 10.64436 -0.009
C 25.79173 9.24659 -0.01199
C 24.49252 8.49331 -0.00229
C 24.50893 7.09949 -0.00938
C 25.74754 6.38934 -0.0264
C 25.71536 4.9788 -0.01154
C 24.49762 4.29234 0.00684
C 24.56073 2.81 -0.01052
C 25.80382 2.11605 -0.01679
C 25.86539 0.64982 0.00367
C 24.61878 33.97823 0.04306
C 28.31057 31.90055 0.00195
C 2.52832 32.80469 -0.01977
