324
Graphene
C 34.42843 34.07936 0.01295
C 9.8091 11.32666 -0.00066
C 11.06174 10.61164 -0.00289
C 11.03551 9.22489 0.00028
C 9.79313 8.51958 -0.02213
C 9.78933 7.08414 0.03698
C 11.09253 6.31585 -0.00109
C 11.14755 4.9273 -0.00491
C 9.81315 12.83124 0.00213
C 9.92285 4.26825 0.03338
C 11.11691 2.08829 -0.0331
C 10.9972 0.7343 -0.00316
C 9.84131 0.00667 0.02188
C 13.48061 21.70529 -0.01979
C 12.13939 21.31813 0.02691
C 12.15447 19.77973 -0.01581
C 13.50813 19.23446 0.01452
C 9.89168 2.90228 -0.0258
C 13.58946 17.748 0.04892
C 11.05759 13.57315 -0.05302
C 9.86415 15.58757 -0.02815
C 7.3087 8.50513 -0.02696
C 7.31446 7.04018 -0.00114
C 8.5767 6.33015 0.00228
C 8.64146 4.85008 0.00798
C 7.36563 4.25975 0.00422
C 7.35514 2.86381 0.0351
C 8.63727 2.13779 -0.03113
C 11.13204 14.98518 -0.04147
C 8.60752 0.69128 0.02098
C 9.73356 32.64075 -0.00619
C 10.98767 21.95403 -0.02162
C 9.74252 21.27624 0.00889
C 9.7317 19.8447 -0.00481
C 10.95457 19.06544 0.00979
C 11.00055 17.65185 0.01443
C 9.78175 17.03345 0.03505
C 7.41019 34.01019 0.01848
C 12.40549 17.02026 -0.00111
C 12.31796 15.57374 -0.03557
C 12.04848 12.52501 0.03754
C 16.05374 0.71762 -0.01154
C 14.85221 0.00185 -0.01721
C 17.10404 32.68028 -0.02422
C 18.29004 31.96391 0.01277
C 18.41186 30.61765 0.00096
C 18.35779 27.53592 -0.01527
C 18.43861 26.23874 0.01087
C 15.94778 2.08531 0.0106
C 17.26658 24.41505 0.00199
C 18.53995 21.95243 -0.00478
C 17.3302 21.42356 -0.01662
C 17.15918 4.22906 -0.01185
C 17.13668 2.83747 0.01126
C 18.37407 2.12106 0.01852
C 18.39959 0.71578 -0.00381
C 17.16494 34.06568 0.03046
C 18.54156 23.50716 0.01511
C 14.77864 2.81512 -0.01594
C 14.81733 4.29432 0.00742
C 15.96999 5.07994 -0.00311
C 12.29906 11.30634 0.01739
C 13.58884 9.21017 0.00755
C 12.28539 8.62332 -0.0054
C 12.27209 7.12747 0.00667
C 13.51338 6.32374 0.00143
C 13.63423 4.90685 -0.017
C 12.4146 4.25157 0.00364
C 12.43437 2.78747 -0.00831
C 13.60067 1.99344 -0.02957
C 13.55984 0.44322 -0.04422
C 12.25164 0.07604 0.00654
C 16.3736 23.46063 -0.00703
C 16.06203 22.10429 -0.04076
C 14.80711 21.43103 -0.00652
C 14.55718 20.16168 0.0058
C 14.7725 6.97105 -0.00865
C 15.77793 6.46563 0.00675
C 8.52565 9.11673 -0.00368
C 19.63118 32.65565 0.0296
C 8.54497 10.6121 -0.0108
C 7.32756 12.74828 0.02058
C 3.59525 9.21866 0.00093
C 2.35192 8.53859 0.00057
C 2.36638 7.12115 -0.01634
C 3.63249 6.34537 -0.00334
C 3.64409 4.94242 0.02339
C 2.35017 4.27341 0.01641
C 2.40305 2.83191 -0.00719
C 3.54214 10.64734 0.01291
C 3.66453 2.10372 0.01364
C 2.43884 0.0237 -0.00033
C 4.95982 32.65274 0.03589
C 6.1618 31.81557 -0.02759
C 6.07609 30.41191 0.0402
C 4.77224 29.89961 0.00572
C 4.68109 28.54187 0.03592
C 6.22239 27.91317 0.00406
C 3.66055 0.71434 -0.01062
C 6.49825 26.56589 0.00943
C 2.36074 11.37668 0.00438
C 3.628 13.48845 0.00373
C 3.6604 30.65935 0.0288
C 2.42175 29.93472 0.00393
C 2.44067 28.45904 0.00895
C 3.59648 27.87194 0.00685
C 3.72091 26.35554 0.02888
C 2.4395 25.71279 -0.00482
C 2.45642 24.23283 -0.01384
C 2.4117 12.84351 -0.00191
C 3.69395 23.56899 0.03693
C 2.46355 21.49303 0.00488
C 2.44673 20.01255 -0.01004
C 3.65735 19.21403 -0.02896
C 3.6166 17.74847 -0.00131
C 2.37502 17.08006 -0.01118
C 2.35931 15.70339 -0.014
C 3.62281 14.95575 0.02147
C 3.74601 22.06155 0.01745
C 4.96516 25.76135 0.02841
C 4.94973 24.25256 -0.01111
C 6.16618 23.57858 -0.01275
C 4.88123 34.01945 0.0076
C 7.33178 32.62731 0.01241
C 8.76767 31.94512 -0.01454
C 6.86696 29.13093 0.01945
C 7.43124 25.63957 0.01416
C 7.6051 24.36225 0.03542
C 8.66806 23.48984 0.02299
C 6.12558 0.68117 0.02162
C 8.56045 22.06217 0.00244
C 7.39051 19.8989 0.05265
C 8.56644 19.1297 -0.01952
C 8.54682 17.6752 -0.02813
C 7.29231 17.06014 0.00374
C 7.35018 15.57881 0.00052
C 8.64022 14.91974 -0.03682
C 8.62293 13.52521 0.01965
C 7.40093 21.37655 -0.01717
C 6.1436 2.10233 -0.0014
C 4.87449 2.85693 0.00415
C 4.87182 4.17674 -0.02162
C 6.13961 22.11546 0.00985
C 4.922 21.333 -0.02245
C 4.89448 19.89519 -0.00428
C 6.16204 19.20471 0.03101
C 6.07389 17.73374 -0.01536
C 4.89003 16.99973 -0.02689
C 4.95031 15.6738 -0.01046
C 6.16222 14.9235 -0.00891
C 6.09539 13.51594 0.02819
C 4.86056 12.82925 0.00165
C 4.83085 11.42666 -0.02971
C 6.0953 10.6506 0.02894
C 6.08284 9.21532 -0.01789
C 4.83862 8.48616 0.00444
C 4.83079 7.05728 -0.00925
C 6.07048 6.3518 0.01877
C 6.165 4.92019 0.01363
C 7.32654 11.33154 -0.01957
C 20.86771 31.93489 0.03374
C 20.8486 30.52137 -0.02845
C 19.61226 29.81342 -0.03213
C 33.11027 26.23616 0.00682
C 31.89311 25.55948 -0.01779
C 31.89506 24.17082 0.03794
C 33.17822 23.47648 0.01927
C 33.17023 22.04503 0.01574
C 31.96665 21.28926 -0.02383
C 32.06163 19.8744 -0.01429
C 33.1478 27.70419 0.00026
C 33.2525 19.21246 -0.0136
C 31.93872 17.13709 -0.02474
C 31.84682 15.71865 0.00369
C 33.12911 15.00957 0.00455
C 33.14287 13.54741 -0.00644
C 31.8337 12.87124 -0.01839
C 31.78786 11.44977 0.00137
C 33.02185 10.6563 0.00199
C 33.2138 17.81661 0.00594
C 33.04276 9.24703 0.04381
C 31.91816 28.39225 0.0544
C 33.18298 30.51165 0.01428
C 29.26685 17.37792 -0.01303
C 30.68039 15.0254 -0.01461
C 30.81254 13.77514 -0.02155
C 30.65166 10.70238 -0.00944
C 30.48187 9.39313 -0.03735
C 29.42915 8.4692 -0.00971
C 29.32527 7.09324 0.01518
C 31.89868 29.83166 -0.02142
C 30.64085 6.37359 0.01908
C 29.35463 4.1959 0.0103
C 29.55224 2.82629 0.02108
C 30.7734 2.0135 0.00716
C 30.64841 0.62076 0.00307
C 29.42652 34.01333 0.00346
C 31.87241 32.65334 0.01713
C 33.20129 31.92844 -0.01694
C 30.66023 4.99763 0.07705
C 31.77529 8.58615 0.02806
C 31.74284 7.17016 0.01504
C 33.04059 6.44188 -0.00069
C 0.03882 17.11745 0.00648
C 34.32497 15.74239 0.02114
C 1.1529 14.96711 -0.02957
C 1.16108 13.55654 0.00343
C 34.38287 12.76706 -0.02656
C 34.29401 11.36864 -0.02442
C 1.09238 10.69784 -0.00027
C 1.22272 17.85664 0.01223
C 1.13194 9.2461 -0.00583
C 34.3071 7.1092 -0.02849
C 1.08624 6.39692 0.02931
C 1.08675 4.9973 0.00628
C 34.30843 4.25394 -0.0345
C 34.33696 2.83025 -0.00931
C 1.17186 2.09599 -0.00939
C 1.23661 0.65416 -0.00468
C 34.3245 8.55576 -0.02302
C 1.27682 19.23179 -0.01678
C 0.10611 19.96283 0.01951
C 34.41622 21.3971 -0.02213
C 33.07865 5.01938 0.04926
C 31.86509 4.22366 -0.03838
C 31.96975 2.8662 0.00349
C 33.11967 2.13274 -0.00323
C 33.15536 0.67538 -0.00841
C 31.9008 0.00601 0.0001
C 34.39459 32.69541 -0.02927
C 1.22656 32.02829 -0.01404
C 1.23294 30.63102 0.01027
C 0.01593 29.85798 0.01831
C 0.0198 28.41989 -0.01037
C 1.21943 27.71631 -0.00439
C 1.18824 26.31237 -0.00598
C 34.39121 25.6072 -0.05239
C 34.4239 24.20385 0.03076
C 1.24926 23.53932 0.00723
C 1.26589 22.1307 0.02712
C 30.71395 17.81725 -0.0405
C 30.82059 19.21127 0.01705
C 29.58097 19.89649 0.0101
C 29.48219 21.28523 -0.00669
C 22.04761 24.22564 0.03102
C 23.20113 23.46386 0.02555
C 23.26115 22.04145 0.01423
C 22.11075 2.81175 -0.00285
C 23.33394 2.13675 -0.009
C 23.31194 0.73358 -0.01199
C 22.04375 0.07882 -0.00229
C 22.05966 25.56755 0.00135
C 24.52891 32.6425 -0.00938
C 25.83839 30.4363 -0.01154
C 24.5613 29.77371 0.00684
C 24.56684 28.33794 -0.01052
C 25.81284 27.59729 -0.01679
C 25.70161 26.23132 0.00367
C 24.50475 25.53693 0.04306
C 24.47799 24.20144 0.00996
C 25.70121 31.85533 -0.0264
C 23.35829 26.30884 -0.00498
C 23.36812 27.66944 0.02737
C 22.09297 28.42663 0.02117
C 19.61936 28.45644 0.02239
C 20.87736 27.77381 0.01153
C 20.84684 26.30709 0.02734
C 19.72486 25.52536 -0.0055
C 19.75342 24.12239 0.01515
C 20.87701 23.39055 -0.00225
C 21.0686 21.87543 0.00071
C 19.93948 21.48392 -0.01107
C 18.74662 4.31481 -0.01586
C 19.47249 3.01333 -0.01971
C 20.75813 2.47153 -0.02118
C 20.85413 0.79005 0.00733
C 19.62561 34.07813 -0.00178
C 22.07416 32.75929 0.00768
C 23.27876 31.96491 -0.0276
C 23.38902 30.58867 0.03005
C 22.12845 29.81279 -0.04078
C 25.65658 23.29884 0.00195
C 3.65094 32.06349 -0.0008
C 25.69851 21.77258 -0.00802
C 25.72177 4.77139 -0.01654
C 27.04822 4.21461 0.01699
C 27.07423 2.78292 -0.00416
C 28.22579 2.02632 0.01177
C 28.25366 0.61111 0.04266
C 26.99199 34.05029 0.01324
C 29.40123 32.6488 0.0014
C 30.60904 31.89989 0.00924
C 28.26272 5.05032 0.01799
C 30.7146 30.49749 0.02326
C 29.47063 28.43965 0.03265
C 30.63364 27.69095 -0.02049
C 30.59061 26.31804 -0.01854
C 29.39569 25.53877 -0.01415
C 29.41316 24.09435 -0.03039
C 30.63666 23.40061 0.01836
C 30.69836 21.9511 0.03531
C 29.46228 29.8944 0.00261
C 28.14369 6.40481 0.01259
C 28.39342 18.96014 0.01495
C 27.32314 19.59498 0.00235
C 24.60085 4.27694 -0.00037
C 24.52814 2.80177 -0.0032
C 25.79996 2.12788 0.00622
C 25.7402 0.6868 -0.02815
C 24.47168 34.0489 -0.00942
C 26.91347 32.56193 0.00487
C 28.18438 31.95348 0.00826
C 28.25883 30.53065 -0.00294
C 27.00988 29.77867 0.00152
C 27.02592 28.37173 0.01257
C 28.24896 27.716 0.02316
C 28.20031 26.2527 0.04185
C 26.93681 25.45799 0.00194
C 26.93062 24.08877 -0.00621
C 28.15423 23.4302 0.02611
C 28.21001 21.96927 0.02198
C 26.99706 21.10102 0.01094
C 24.24511 21.3041 -0.00218
C 2.38411 32.75729 -0.01362
