286
Graphene
C 34.34123 0.09728 0.01295
C 14.84736 0.17958 -0.01594
C 16.15204 0.59153 0.00742
C 14.62765 23.9947 -0.00311
C 14.93781 25.54365 0.00675
C 16.0578 26.22998 -0.00865
C 15.94808 27.6525 0.0058
C 14.79386 28.40724 -0.00652
C 14.78317 29.83739 -0.04076
C 16.0145 30.65927 -0.00703
C 15.99694 32.02896 0.00654
C 14.73583 32.77848 -0.04422
C 12.30301 0.18098 -0.02957
C 13.57472 0.66929 -0.00831
C 13.61013 23.47989 0.00364
C 12.27226 23.96611 -0.017
C 12.34862 25.49236 0.00143
C 13.57681 26.25835 0.00667
C 9.80394 28.43691 -0.0331
C 11.07466 27.71645 -0.00316
C 11.17141 26.21473 0.02188
C 9.89137 25.54979 -0.01979
C 9.86371 24.14541 0.02691
C 10.99666 23.19882 -0.01581
C 17.31264 32.53514 0.0106
C 11.00042 0.90897 0.01452
C 12.21681 32.73279 -0.00111
C 13.50258 32.06493 -0.03557
C 13.52446 30.60049 0.03754
C 12.28112 29.91549 0.01739
C 12.27313 28.43469 0.00755
C 13.50921 27.64994 -0.0054
C 9.69812 0.18717 0.04892
C 18.4751 31.83125 -0.01154
C 18.45281 30.35653 -0.01721
C 17.18502 29.90175 -0.02422
C 20.87677 0.67395 0.01153
C 19.68957 33.9811 0.02734
C 22.08521 32.61016 -0.0055
C 23.34295 31.94286 0.01515
C 23.31439 30.48428 -0.00225
C 22.08432 29.7238 0.00071
C 20.82718 2.21519 0.02239
C 22.07473 28.23089 -0.01107
C 21.99918 11.62242 -0.01971
C 23.20429 10.86816 -0.02118
C 23.32171 9.39097 0.00733
C 22.05701 8.65939 -0.00178
C 22.01924 7.2537 0.00768
C 23.2494 6.56313 -0.0276
C 23.35865 27.62994 -0.01586
C 9.86773 29.92316 -0.0258
C 19.52115 2.97193 -0.03213
C 20.79097 5.11828 0.03374
C 17.11921 28.41297 0.01277
C 18.23012 27.69814 0.00096
C 18.42559 2.03788 -0.01527
C 18.53857 0.6997 0.01087
C 17.32168 34.07407 0.00199
C 19.72818 32.54288 0.01511
C 19.72678 4.2731 -0.02845
C 20.99905 31.79369 -0.00478
C 19.62374 29.68634 -0.01185
C 19.52491 28.18831 0.01126
C 20.74955 27.67031 0.01852
C 21.13748 10.59871 -0.00381
C 20.86458 9.43783 0.03046
C 20.8505 6.51103 0.0296
C 20.91316 30.32844 -0.01662
C 11.06864 30.66547 0.03338
C 10.99868 32.06454 -0.00491
C 9.72559 32.77361 -0.00109
C 2.34656 11.2153 0.01363
C 2.41285 8.72946 -0.02162
C 2.56115 7.29276 0.00415
C 3.66176 6.51007 -0.0014
C 3.76104 5.1799 0.02162
C 2.45899 4.36147 0.0076
C 2.52509 12.58336 0.01877
C 2.44522 2.96939 0.01241
C 3.6263 0.78389 0.01945
C 2.4169 0.10348 0.01416
C 4.83605 32.72887 0.03542
C 6.11221 31.99051 0.02299
C 6.15861 30.52845 0.00244
C 4.89118 29.84215 -0.01717
C 3.6801 2.22346 -0.01454
C 4.86177 28.40978 0.05265
C 3.58751 13.44667 -0.00925
C 2.50212 15.59897 -0.01789
C 3.64231 30.60519 -0.01111
C 2.4184 29.94247 -0.01275
C 2.40362 28.50059 0.00985
C 3.57663 27.79135 -0.02245
C 3.58815 26.31659 -0.00428
C 2.4398 25.5516 0.03101
C 3.82453 14.76363 0.00444
C 2.4167 24.08829 -0.01536
C 3.72101 21.96282 -0.01046
C 2.47557 21.26452 -0.00891
C 2.42392 19.92759 0.02819
C 3.65077 19.13709 0.00165
C 3.71093 17.66937 -0.02971
C 2.46084 17.00276 0.02894
C 3.68834 23.36025 -0.02689
C 23.30386 5.06024 0.03005
C 6.12105 27.76775 -0.01952
C 4.92127 25.59558 0.00374
C 7.3713 28.44618 0.00889
C 8.53934 27.71425 -0.00481
C 8.66783 26.28823 0.00979
C 7.40732 25.62178 0.01443
C 7.33499 24.22138 0.03505
C 8.61113 23.47692 -0.02815
C 7.46728 29.84928 -0.02162
C 8.59096 22.09515 -0.04147
C 7.3747 19.74938 0.00213
C 8.26649 18.80775 -0.00066
C 8.77666 17.43947 -0.00289
C 7.49653 17.46137 0.00028
C 8.47877 0.90857 -0.02213
C 7.29099 0.02053 0.03698
C 7.50182 21.26444 -0.05302
C 6.13464 26.34939 -0.02813
C 8.62115 30.60584 -0.00619
C 7.33035 32.77897 0.02098
C 4.8914 24.1196 0.00052
C 6.11719 23.38889 -0.03682
C 6.21259 21.93171 0.01965
C 4.92995 21.24971 0.02058
C 4.78436 19.89728 -0.01957
C 6.05986 19.17415 -0.0108
C 8.57362 32.02571 0.01848
C 6.17748 17.78495 -0.00368
C 4.97348 15.5901 -0.00114
C 4.84178 4.28195 0.00228
C 4.95529 2.91304 0.00798
C 6.20932 2.09044 0.00422
C 6.1055 0.72867 0.0351
C 4.81862 0.07742 -0.03113
C 4.92758 16.94435 -0.02696
C 22.07025 4.38876 -0.04078
C 22.01999 2.89964 0.02117
C 23.25489 2.14902 0.02737
C 33.14155 19.12059 -0.0136
C 33.15556 17.74996 0.00594
C 31.95464 17.00226 -0.02474
C 31.97802 15.56766 0.00369
C 33.22722 14.95977 0.00455
C 33.18562 13.53246 -0.00644
C 31.82332 19.80565 -0.01429
C 31.96952 12.8687 -0.01839
C 33.06226 10.65232 0.00199
C 33.07514 9.19078 0.04381
C 31.88184 8.44972 0.02806
C 31.95175 7.15568 0.01504
C 33.2071 6.46195 -0.00069
C 33.19235 5.08275 0.04926
C 31.90822 11.42379 0.00137
C 31.99821 4.37013 -0.03838
C 31.80518 21.23959 -0.02383
C 33.08443 23.46252 0.01927
C 29.49129 4.30114 0.0103
C 29.47827 2.86535 0.02108
C 30.65926 2.17713 0.00716
C 30.66573 0.79046 0.00307
C 29.45909 0.10185 0.00346
C 31.85238 32.72261 0.01713
C 33.0467 21.99449 0.01574
C 33.16108 31.9963 -0.01694
C 31.83334 29.89991 -0.02142
C 31.90268 28.5018 0.0544
C 33.08389 27.7382 0.00026
C 33.09172 26.32309 0.00682
C 31.9335 25.54338 -0.01779
C 31.83738 24.03011 0.03794
C 33.16109 30.5644 0.01428
C 30.73939 5.06213 0.07705
C 32.0019 2.98499 0.00349
C 33.13675 0.80855 -0.00841
C 1.25976 14.82709 -0.02957
C 1.25498 13.42863 0.00343
C 0.01003 12.76988 -0.02656
C 34.32633 11.40488 -0.02442
C 1.04323 10.66376 -0.00027
C 1.09603 9.25316 -0.00583
C 0.01254 15.60487 0.02114
C 34.32535 8.57574 -0.02302
C 1.18596 6.57805 0.02931
C 1.24837 5.12945 0.00628
C 0.06101 4.40805 -0.0345
C 0.04238 3.02164 -0.00931
C 1.23653 2.27412 -0.00939
C 1.15568 0.76604 -0.00468
C 34.42172 7.16331 -0.02849
C 33.2343 2.20471 -0.00323
C 0.01359 17.07861 0.00648
C 1.27941 19.13371 -0.01678
C 31.92564 0.07778 0.0001
C 34.31539 32.69035 -0.02927
C 1.12799 31.97557 -0.01404
C 1.17099 30.55904 0.01027
C 34.37163 29.86848 0.01831
C 34.37997 28.45369 -0.01037
C 1.28193 17.71057 0.01223
C 1.12539 27.67983 -0.00439
C 34.34342 25.6378 -0.05239
C 34.27198 24.19083 0.03076
C 1.13918 23.47864 0.00723
C 1.16378 22.03278 0.02712
C 34.31304 21.27826 -0.02213
C 34.41154 19.77502 0.01951
C 1.13113 26.27745 -0.00598
C 3.57606 32.07289 0.02841
C 30.66815 6.46192 0.01908
C 29.4048 8.63637 -0.00971
C 24.49123 2.96409 0.00195
C 25.75071 2.20593 -0.00802
C 25.79254 0.75351 -0.00218
C 24.51517 0.05583 -0.01654
C 26.98143 32.719 -0.00037
C 28.18405 31.99191 -0.0032
C 24.42503 4.34485 0.00996
C 28.19899 30.56136 0.00622
C 27.07063 28.46823 -0.00942
C 28.35247 27.76092 0.00487
C 28.28944 26.32088 0.00826
C 27.05379 25.66389 -0.00294
C 28.27499 23.27692 0.00152
C 28.25101 22.05678 0.01257
C 26.98342 29.83093 -0.02815
C 28.56244 18.39102 0.02316
C 25.63112 5.02976 0.04306
C 24.48211 7.23277 -0.01679
C 23.33248 0.71595 -0.00498
C 22.04854 34.07541 0.00135
C 24.51954 32.65124 0.03102
C 25.76095 31.93927 0.02555
C 25.75976 30.5448 0.01423
C 24.58179 29.83428 -0.00285
C 25.67234 6.4202 0.00367
C 24.51314 28.39139 -0.009
C 25.85644 26.30931 -0.00229
C 24.77677 12.87048 -0.00938
C 24.58513 11.44614 -0.0264
C 25.86389 10.77722 -0.01154
C 25.7895 9.36737 0.00684
C 24.55606 8.62095 -0.01052
C 25.78742 27.66281 -0.01199
C 29.34906 7.07075 0.01518
C 27.06884 11.53858 0.04185
C 28.17638 9.29977 -0.00621
C 30.63239 23.28586 -0.01854
C 30.48518 21.91507 -0.01415
C 29.18035 21.02712 -0.03039
C 29.36567 19.56386 0.01836
C 30.65664 19.07563 0.03531
C 30.75608 17.6193 -0.00669
C 29.41782 24.16488 -0.02049
C 29.30804 16.98843 0.0101
C 30.65848 14.89171 -0.0405
C 30.63252 13.4932 -0.01303
C 29.40635 12.78722 -0.01461
C 29.45011 11.43748 -0.02155
C 30.72467 10.73358 -0.00944
C 30.69624 9.32531 -0.03735
C 29.37526 15.70187 0.01705
C 28.21371 10.68807 0.00194
C 29.48943 25.55663 0.03265
C 30.65504 27.76498 0.02326
C 26.97899 8.55791 0.02611
C 26.93773 7.13586 0.02198
C 28.17301 6.41064 0.01094
C 28.18855 4.97357 0.00235
C 26.85429 4.28798 0.01495
C 26.96597 2.93794 0.01259
C 30.71872 26.2986 0.00261
C 28.17661 2.1906 0.01799
C 27.02548 0.0548 -0.00416
C 29.41756 32.73252 0.01177
C 30.67313 32.00179 0.04266
C 30.58558 30.56774 0.01324
C 29.47218 29.88281 0.0014
C 29.47952 28.50509 0.00924
C 28.14671 0.83377 0.01699
C 2.36422 32.77144 0.00943
