345
Graphene
C 0.02904 34.05761 0.01295
C 9.76859 2.87208 0.02098
C 11.07312 2.14923 0.01848
C 11.04825 0.74555 -0.00619
C 9.72109 0.0575 -0.02162
C 12.2051 32.61314 0.00889
C 13.48165 32.1079 -0.00481
C 13.46938 17.47065 0.00979
C 12.29019 16.93771 0.01443
C 12.273 15.58305 0.03505
C 13.55747 14.8699 -0.02815
C 13.56591 13.44279 -0.04147
C 12.33288 12.81486 -0.05302
C 12.36682 11.3925 0.00213
C 13.57755 10.67993 -0.00066
C 13.55729 9.14999 -0.00289
C 12.33906 8.41709 0.00028
C 12.30148 7.00243 -0.02213
C 9.73752 4.28903 -0.03113
C 10.97023 4.89901 0.0351
C 11.05086 6.29178 0.00422
C 9.89895 6.99185 0.00798
C 8.55307 2.12563 0.03542
C 8.55541 0.67807 0.02299
C 7.26959 0.02708 0.00244
C 9.79959 32.67543 -0.01717
C 10.97556 31.94246 0.05265
C 9.89225 30.06461 -0.01952
C 9.82005 19.83902 -0.02813
C 11.0297 19.17708 0.00374
C 13.53726 6.36667 0.03698
C 11.09234 17.76354 0.00052
C 9.79866 15.68574 0.01965
C 11.02917 14.88061 0.02058
C 11.10315 13.41385 -0.01957
C 9.89083 12.73797 -0.0108
C 9.93895 11.29858 -0.00368
C 11.17169 10.58666 -0.02696
C 11.10894 9.21602 -0.00114
C 9.92559 8.54242 0.00228
C 9.82765 17.19186 -0.03682
C 7.35651 2.87776 0.01416
C 13.59044 4.89329 -0.00109
C 12.29612 2.8706 0.03338
C 14.66518 0.02179 0.00654
C 17.184 32.79986 -0.00703
C 18.44531 32.08942 -0.04076
C 18.30494 30.65858 -0.00652
C 18.42162 19.04373 0.0058
C 18.45326 17.70712 -0.00865
C 17.22176 17.0543 0.00675
C 17.1941 15.59681 -0.00311
C 18.45757 14.9941 0.00742
C 18.30352 13.58204 -0.01594
C 17.28944 12.65665 0.0106
C 17.17284 11.34736 -0.01154
C 17.23537 8.53334 -0.01721
C 17.07813 7.14422 -0.02422
C 17.17492 4.23188 0.01277
C 17.21703 2.85105 0.00096
C 18.36569 2.1252 -0.01527
C 15.97202 0.72323 -0.04422
C 16.02711 2.1634 -0.02957
C 14.7184 2.78318 -0.00831
C 14.7424 4.23212 0.00364
C 13.52099 2.11025 -0.0258
C 13.51809 0.70727 -0.0331
C 12.272 0.05233 -0.00316
C 14.80806 32.60466 0.02188
C 16.07451 32.13306 -0.01979
C 16.01831 17.67225 0.02691
C 14.717 17.21285 -0.01581
C 14.71819 15.68393 0.01452
C 12.26539 4.2687 -0.00491
C 15.98183 14.92408 0.04892
C 14.80421 12.75251 -0.03557
C 14.85804 11.37868 0.03754
C 16.0337 10.62546 0.01739
C 16.09508 9.2287 0.00755
C 14.83935 8.49759 -0.0054
C 14.72629 7.05942 0.00667
C 16.05361 6.36069 0.00143
C 16.01334 4.90448 -0.017
C 16.09078 13.53442 -0.00111
C 7.34376 4.26652 0.01945
C 8.57691 4.96613 -0.01454
C 8.5715 6.39383 0.01241
C 2.44536 7.15232 0.00393
C 3.70062 6.39229 0.00895
C 3.66428 5.0221 0.00685
C 2.4625 4.19864 0.02888
C 2.43317 2.80288 -0.00482
C 3.71433 2.17377 -0.01384
C 3.67396 0.74411 0.03693
C 2.40957 34.02548 0.01745
C 4.88188 32.61884 0.00488
C 6.0601 31.98435 -0.01004
C 6.12177 30.56149 -0.02896
C 4.86155 29.86949 -0.00131
C 4.88258 28.37949 -0.01118
C 6.12177 27.70819 -0.014
C 6.21325 26.23145 0.02147
C 4.94265 25.53373 0.00373
C 4.96271 24.08415 -0.00191
C 2.41561 8.52801 0.0288
C 3.67551 9.2369 -0.0008
C 3.68318 10.68948 -0.01362
C 2.45982 11.33527 -0.00892
C 3.58047 30.54617 0.01227
C 2.39878 29.87082 0.00873
C 2.42496 28.40097 -0.00049
C 3.5946 27.74407 0.00848
C 3.66499 26.34456 -0.01303
C 2.42418 25.58526 -0.01378
C 2.42608 24.07115 0.02635
C 3.59252 23.45153 0.0127
C 6.18524 23.38899 0.00438
C 3.61635 21.99157 0.01396
C 2.42166 19.8598 -0.01142
C 3.67258 19.18475 -0.00562
C 3.68583 17.76074 -0.00494
C 2.41451 17.04272 0.00054
C 2.40882 15.62325 0.03007
C 3.63757 14.97587 -0.00095
C 3.73603 13.51771 0.01572
C 2.45158 12.76098 -0.04848
C 2.40906 21.26534 0.01849
C 6.13734 22.04472 0.01291
C 4.96566 21.35097 0.00093
C 4.95998 19.86968 0.00057
C 7.36151 29.82171 -0.01536
C 7.26946 28.48592 -0.02689
C 7.30715 25.54145 -0.01046
C 7.33159 24.1309 -0.00891
C 7.46788 21.37819 0.02819
C 7.39331 19.99477 0.00165
C 8.58873 19.26225 -0.02971
C 8.5579 17.84577 0.02894
C 8.61935 30.60137 0.03101
C 7.34976 17.05576 -0.01789
C 8.64679 14.90467 -0.00925
C 8.69656 13.52185 0.01877
C 7.43534 12.85732 0.01363
C 7.42824 11.41135 -0.02162
C 8.66142 10.67275 0.00415
C 8.67207 9.26925 -0.0014
C 7.39878 8.6133 0.02162
C 7.37789 7.15288 0.0076
C 7.42768 15.63574 0.00444
C 18.50189 0.69932 0.01087
C 8.58343 31.99113 -0.00428
C 4.8762 0.0186 0.00985
C 6.19106 19.23195 -0.01634
C 6.12407 17.72176 -0.00334
C 4.87749 17.06011 0.02339
C 4.84517 15.67396 0.01641
C 6.16761 14.89674 -0.00719
C 6.11332 13.46566 0.01364
C 4.95746 12.75992 -0.01062
C 4.95139 11.37895 -0.00033
C 7.32117 32.7472 -0.02245
C 6.19319 10.71095 0.03589
C 4.97141 8.56653 0.0402
C 4.95863 7.09051 0.00572
C 6.14557 6.49949 0.03592
C 6.14186 5.00531 0.00406
C 4.89089 4.32605 0.00943
C 4.89488 2.94405 0.02841
C 6.10507 2.14115 -0.01111
C 6.04013 0.81101 -0.01275
C 6.19446 9.31164 -0.02759
C 3.63556 31.94177 -0.03337
C 17.24597 0.06961 0.00199
C 20.89352 31.87596 -0.00478
C 31.93864 29.85685 -0.02142
C 31.91948 28.38248 0.0544
C 33.13248 27.6698 0.00026
C 33.17365 26.26601 0.00682
C 32.01143 25.61379 -0.01779
C 31.95448 24.19658 0.03794
C 33.11349 23.45071 0.01927
C 33.11464 22.03497 0.01574
C 31.94689 21.3071 -0.02383
C 31.98965 19.89657 -0.01429
C 33.17368 19.17463 -0.0136
C 33.14259 17.81522 0.00594
C 31.95867 17.08961 -0.02474
C 31.95373 15.65265 0.00369
C 33.12321 14.95335 0.00455
C 33.15501 13.48798 -0.00644
C 31.96965 12.74553 -0.01839
C 33.22716 30.54039 0.01428
C 33.21413 31.98742 -0.01694
C 31.98301 32.66425 0.01713
C 29.54878 0.0165 0.00346
C 29.54223 25.56535 0.03531
C 29.49303 24.19071 -0.00669
C 30.68962 23.48806 0.0101
C 30.64055 22.03708 0.01705
C 29.43686 21.33565 -0.0405
C 29.49745 19.88903 -0.01303
C 30.75175 19.24192 -0.01461
C 30.75592 17.77807 -0.02155
C 31.89432 11.29128 0.00137
C 29.53809 16.96568 -0.00944
C 30.65965 14.86544 -0.00971
C 30.75375 13.46755 0.01518
C 29.60858 12.61283 0.01908
C 30.59406 10.74961 0.07705
C 30.71006 5.05621 0.0103
C 29.52047 2.75118 0.02108
C 30.71435 2.15908 0.00716
C 30.77233 0.76023 0.00307
C 29.48255 15.55393 -0.03735
C 30.75255 26.27024 0.01836
C 33.11478 10.59853 0.00199
C 31.92485 8.47748 0.02806
C 1.16886 17.7395 0.01223
C 34.41612 17.024 0.00648
C 34.41853 15.63283 0.02114
C 1.26576 14.84631 -0.02957
C 1.18384 13.46495 0.00343
C 34.37024 12.76638 -0.02656
C 34.36546 11.31201 -0.02442
C 1.18947 10.65482 -0.00027
C 1.2044 9.19476 -0.00583
C 34.42924 8.45424 -0.02302
C 0.01548 7.10227 -0.02849
C 1.22488 6.38739 0.02931
C 1.25097 4.95996 0.00628
C 34.42011 4.2722 -0.0345
C 0.02546 2.89993 -0.00931
C 1.23456 2.07951 -0.00939
C 1.24784 0.64988 -0.00468
C 1.24006 19.19056 -0.01678
C 34.43263 19.92082 0.01951
C 34.40467 21.31926 -0.02213
C 1.21417 21.99726 0.02712
C 32.02109 7.05704 0.01504
C 33.2734 6.35386 -0.00069
C 33.17319 4.92161 0.04926
C 31.93789 4.30545 -0.03838
C 31.91077 2.88444 0.00349
C 33.19105 2.18196 -0.00323
C 33.20939 0.70445 -0.00841
C 31.97167 0.04113 0.0001
C 33.1899 9.18551 0.04381
C 34.35136 32.68109 -0.02927
C 1.14934 30.53344 0.01027
C 34.36603 29.76378 0.01831
C 34.35542 28.47273 -0.01037
C 1.19124 27.71675 -0.00439
C 1.18867 26.27224 -0.00598
C 34.35779 25.55137 -0.05239
C 34.36719 24.14346 0.03076
C 1.19196 23.40751 0.00723
C 1.12268 31.99171 -0.01404
C 30.71069 27.74075 -0.03039
C 29.45582 28.45458 -0.01415
C 29.4856 29.79716 -0.01854
C 22.14214 28.30154 -0.00178
C 23.33561 27.62005 0.00768
C 23.30351 26.22066 -0.0276
C 22.04409 25.55628 0.03005
C 22.12634 24.0647 -0.04078
C 23.40349 23.46549 0.02117
C 23.32751 22.076 0.02737
C 22.08699 21.4076 -0.00498
C 22.13888 19.95019 0.00135
C 23.36646 19.24307 0.03102
C 23.38491 17.79894 0.02555
C 22.19933 17.0525 0.01423
C 22.03788 15.52027 -0.00285
C 23.31683 15.20558 -0.009
C 23.3942 0.71593 -0.01199
C 22.1596 34.04383 -0.00229
C 24.59735 32.8194 -0.00938
C 22.05855 29.82885 0.00733
C 23.28233 30.52346 -0.02118
C 23.31023 31.95548 -0.01971
C 22.10477 32.64974 -0.01586
C 20.76662 30.45037 -0.01662
C 19.38606 29.79945 -0.01185
C 19.80402 28.48594 0.01126
C 20.78356 27.60487 0.01852
C 20.79499 26.19203 -0.00381
C 20.89118 23.45921 0.03046
C 20.73659 22.07004 0.0296
C 19.79229 21.15986 0.03374
C 25.73523 31.92484 -0.0264
C 19.50328 19.8728 -0.02845
C 20.89006 17.76963 0.02239
C 19.68755 16.98888 0.01153
C 19.69325 15.6079 0.02734
C 20.81779 14.8067 -0.0055
C 19.63407 2.68315 0.01515
C 20.78096 2.00728 -0.00225
C 20.99532 0.6997 0.00071
C 19.74675 0.02959 -0.01107
C 20.89866 19.13322 -0.03213
C 25.71752 30.51588 -0.01154
C 24.47233 29.80764 0.00684
C 24.53372 28.41105 -0.01052
C 27.17707 25.55814 0.02611
C 27.05594 24.11671 0.02198
C 28.25731 23.43023 0.01094
C 28.26464 21.98023 0.00235
C 27.0465 21.23987 0.01495
C 27.05169 19.83145 0.01259
C 28.3104 19.19382 0.01799
C 28.27603 17.79923 0.01699
C 28.31825 26.30589 -0.00621
C 27.06188 17.01397 -0.00416
C 28.30678 14.74001 0.04266
C 28.4211 13.4564 0.01324
C 28.31557 2.08221 0.0014
C 28.28337 0.69349 0.00924
C 27.07572 34.02978 0.02326
C 29.5097 32.70753 0.00261
C 30.80169 32.01822 0.03265
C 30.7164 30.54705 -0.02049
C 27.04134 15.54716 0.01177
C 19.72323 32.69903 0.01511
C 28.21311 27.70207 0.00194
C 26.96572 29.92936 0.02316
C 25.85747 27.73505 -0.01679
C 25.84902 26.31861 0.00367
C 24.59934 25.59664 0.04306
C 24.63792 24.1307 0.00996
C 25.8518 23.40447 0.00195
C 25.8241 22.04269 -0.00802
C 24.59359 21.29773 -0.00218
C 24.60787 19.85919 -0.01654
C 27.06714 28.45054 0.04185
C 25.83865 19.08242 -0.00037
C 24.58209 17.0845 0.00622
C 24.62338 15.59476 -0.02815
C 25.823 14.95738 -0.00942
C 25.90485 0.6957 0.00487
C 24.66643 0.28146 0.00826
C 27.05303 32.61065 -0.00294
C 28.3208 31.90796 0.00152
C 28.23059 30.53977 0.01257
C 25.83372 17.73311 -0.0032
C 2.41042 32.67477 -0.00966
