401
Graphene
C 0.0246 0.02496 0.01295
C 13.57142 9.19369 0.00165
C 12.29743 8.59126 -0.02971
C 12.29388 7.18328 0.02894
C 13.53327 6.38004 -0.01789
C 13.59213 5.00612 0.00444
C 12.34512 4.29244 -0.00925
C 12.25273 2.8249 0.01877
C 13.4354 2.04043 0.01363
C 13.47003 0.58696 -0.02162
C 12.2739 34.06753 0.00415
C 14.8281 32.65617 -0.0014
C 16.0541 31.89119 0.02162
C 16.03511 30.49825 0.0076
C 14.80864 29.84308 0.01241
C 14.72185 28.48954 -0.01454
C 16.00832 27.65309 0.01945
C 15.96399 26.1879 0.01416
C 14.73605 25.47797 0.03542
C 14.76217 24.05894 0.02299
C 16.00097 23.42522 0.00244
C 15.92864 22.02408 -0.01717
C 13.51743 10.62828 0.02819
C 14.70054 21.34692 0.05265
C 12.07553 11.34933 -0.00891
C 13.59624 14.92372 -0.02689
C 11.11241 5.02293 0.02339
C 9.85827 4.30394 0.01641
C 9.8268 2.89518 -0.00719
C 11.05323 2.14251 0.01364
C 11.06114 0.71338 -0.01062
C 9.88976 0.03409 -0.00033
C 12.28952 32.7197 0.03589
C 13.51523 32.01993 -0.02759
C 13.50751 30.58518 0.0402
C 12.32648 29.77933 0.00572
C 12.31503 28.34742 0.03592
C 13.55772 27.7124 0.00406
C 13.57964 26.27269 0.00943
C 12.25828 25.53555 0.02841
C 12.29272 24.18632 -0.01111
C 13.5584 23.37266 -0.01275
C 13.46436 22.01375 0.00985
C 12.29152 21.30118 -0.02245
C 12.38342 19.89008 -0.00428
C 13.52667 19.14632 0.03101
C 13.5705 17.78846 -0.01536
C 13.50037 13.71229 -0.01046
C 11.04323 6.45843 -0.00334
C 14.7668 19.81911 -0.01952
C 15.98723 17.7058 0.00374
C 17.21996 24.17818 -0.05302
C 18.4736 23.44607 0.00213
C 18.40407 22.00683 -0.00066
C 17.19901 21.31982 -0.00289
C 17.23026 19.86213 0.00028
C 18.53265 19.24748 -0.02213
C 18.4907 17.67537 0.03698
C 17.25236 17.00834 -0.00109
C 17.20311 15.60436 -0.00491
C 18.42174 9.11549 0.03338
C 17.14767 8.52231 -0.0258
C 17.18425 7.07942 -0.0331
C 18.46942 6.31567 -0.00316
C 18.48901 4.93749 0.02188
C 17.18976 4.31093 -0.01979
C 17.13005 2.83153 0.02691
C 18.37262 2.18188 -0.01581
C 18.38396 0.77132 0.01452
C 17.19708 0.03556 0.04892
C 19.69488 32.69027 -0.00111
C 20.97141 31.92163 -0.03557
C 17.24496 25.58543 -0.04147
C 16.03295 19.15758 -0.02813
C 18.43142 26.29362 -0.02815
C 17.24009 28.38103 0.01443
C 14.74186 17.05513 0.00052
C 14.71522 15.58319 -0.03682
C 16.02363 14.80514 0.01965
C 15.9358 13.47516 0.02058
C 14.80136 12.82157 -0.01957
C 14.74947 11.35344 -0.0108
C 15.89299 10.6497 -0.00368
C 15.93829 9.28454 -0.02696
C 14.74683 8.50314 -0.00114
C 14.69795 7.09013 0.00228
C 15.94189 6.41652 0.00798
C 16.02489 4.93917 0.00422
C 14.73492 4.22355 0.0351
C 14.71572 2.75371 -0.03113
C 15.94493 2.07663 0.02098
C 15.97095 0.68999 0.01848
C 14.72315 34.02665 -0.00619
C 17.27246 32.63861 -0.02162
C 18.50718 31.99602 0.00889
C 18.42241 30.60439 -0.00481
C 17.27749 29.80045 0.00979
C 18.50524 27.67791 0.03505
C 9.8043 7.13564 -0.01634
C 9.79253 8.62069 0.00057
C 11.03117 9.22399 0.00093
C 2.42047 4.29077 0.02374
C 2.40097 2.89807 0.00402
C 3.65622 2.13958 0.0073
C 3.67185 0.72603 0.0174
C 2.46193 0.03893 0.03828
C 4.91912 32.66087 0.01226
C 6.24136 31.97948 -0.00279
C 6.15034 30.59326 0.01996
C 4.92046 29.87194 -0.03996
C 4.85409 28.49342 0.01465
C 6.16124 27.73409 -0.00074
C 6.11406 26.27044 -0.00518
C 4.84949 25.55665 0.0086
C 4.87274 24.15302 -0.00643
C 6.18783 23.37196 0.017
C 6.20277 22.02179 -0.03113
C 4.95262 21.28498 -0.02566
C 5.0245 19.82606 -0.00094
C 6.15234 19.13367 0.02322
C 4.79449 16.96451 -0.00725
C 4.8778 12.88821 -0.05697
C 3.6699 5.01471 0.03267
C 5.04016 11.39617 0.01087
C 3.6793 6.42863 -0.01509
C 2.50222 8.53613 0.00907
C 3.6804 30.4818 -0.00039
C 2.48649 29.7509 0.0064
C 2.36532 28.33817 0.00211
C 3.63384 27.77648 -0.00449
C 3.6411 26.34889 -0.01979
C 2.46302 25.57945 0.02784
C 2.51515 24.17517 -0.01977
C 3.68749 23.39349 -0.00561
C 3.75247 21.99046 0.00208
C 2.49366 21.39008 0.01707
C 2.47202 19.91602 0.02769
C 3.66058 19.1863 -0.03291
C 3.66844 17.64307 -0.04999
C 2.40508 16.99761 0.04505
C 2.54114 15.60744 0.03284
C 3.65392 14.90475 -0.04307
C 3.73102 13.55766 0.03189
C 2.42076 12.85711 0.00031
C 2.40072 11.3808 -0.003
C 3.74871 10.67668 0.01402
C 3.72544 9.27725 0.02379
C 2.46931 7.16563 0.00643
C 6.04307 10.46721 -0.01343
C 6.11739 9.15737 0.00988
C 4.87651 8.53551 0.0276
C 8.57186 4.91787 -0.0008
C 7.32956 4.27533 0.0288
C 7.36198 2.85716 0.00393
C 8.60115 2.17533 0.00895
C 8.63612 0.67148 0.00685
C 7.36488 0.06948 0.02888
C 9.83571 32.67837 -0.00482
C 11.10332 31.9942 -0.01384
C 11.05471 30.50569 0.03693
C 9.84477 29.85643 0.01745
C 9.85918 28.44135 0.00488
C 11.06233 27.73729 -0.01004
C 11.02275 26.31838 -0.02896
C 9.84688 25.56712 -0.00131
C 9.83583 24.22257 -0.01118
C 11.08289 23.48016 -0.014
C 11.09709 22.08162 0.02147
C 9.80453 21.43118 0.00373
C 9.82288 19.88435 -0.00191
C 11.12145 19.25526 0.00438
C 11.07753 10.71143 0.01291
C 8.63293 6.42171 -0.01362
C 7.3834 7.09799 -0.00892
C 7.40652 8.50691 -0.04848
C 8.5471 9.28234 0.01572
C 4.85804 7.16754 0.01305
C 6.13873 6.41336 -0.00077
C 6.07362 4.98853 0.03368
C 4.85317 4.3042 -0.02929
C 4.90599 2.80264 -0.00966
C 6.17825 2.15072 -0.03337
C 6.09975 0.76765 0.01227
C 4.85387 0.0058 0.00873
C 7.43011 32.73851 -0.00049
C 8.64285 31.92145 0.00848
C 20.90238 30.54092 0.03754
C 8.55346 30.51527 -0.01303
C 7.36643 28.4503 0.02635
C 8.58251 27.72621 0.0127
C 8.51554 26.30142 0.01396
C 7.30907 25.53363 0.01849
C 7.33916 24.08681 -0.01142
C 8.62822 23.49326 -0.00562
C 8.55215 22.06309 -0.00494
C 7.37283 21.31037 0.00054
C 7.38061 19.742 0.03007
C 8.62694 19.20699 -0.00095
C 7.3629 29.84521 -0.01378
C 3.71779 31.91105 0.02728
C 19.67331 29.87719 0.01739
C 19.61779 24.08013 -0.0054
C 30.70085 9.2682 0.01518
C 29.45015 8.5428 0.01908
C 29.46222 7.17631 0.07705
C 30.78935 6.40975 0.0103
C 30.77411 4.91797 0.02108
C 29.57869 4.2251 0.00716
C 29.52583 2.84182 0.00307
C 30.73369 2.15006 0.00346
C 30.77512 0.71739 0.01713
C 29.51628 34.02863 -0.01694
C 31.93846 32.63026 0.01428
C 33.19548 32.00328 -0.02142
C 33.23743 30.58051 0.0544
C 32.01134 29.73803 0.00026
C 32.03055 28.37366 0.00682
C 33.22278 27.70788 -0.01779
C 33.21604 26.28676 0.03794
C 31.98537 25.52991 0.01927
C 31.94693 24.12515 0.01574
C 33.23774 23.35288 -0.02383
C 33.17923 21.93534 -0.01429
C 30.69155 10.66289 -0.00971
C 31.91028 21.21629 -0.0136
C 29.47082 11.41989 -0.03735
C 29.54084 17.05657 -0.02155
C 28.32005 4.9104 -0.00416
C 27.09609 4.26039 0.01177
C 27.07845 2.88211 0.04266
C 28.3596 2.07848 0.01324
C 28.2999 0.62279 0.0014
C 27.06136 0.02428 0.00924
C 29.50659 32.63929 0.02326
C 30.74761 31.88457 0.00261
C 30.75883 30.47056 0.03265
C 29.48561 29.87341 -0.02049
C 29.46542 28.38652 -0.01854
C 30.7682 27.75905 -0.01415
C 30.74721 26.29158 -0.03039
C 29.55711 25.63796 0.01836
C 29.47191 24.179 0.03531
C 30.70871 23.44545 -0.00669
C 30.75887 22.01025 0.0101
C 29.54372 21.35042 0.01705
C 29.52587 19.86612 -0.0405
C 30.71065 19.09496 -0.01303
C 30.69444 17.72136 -0.01461
C 29.54355 12.81401 -0.00944
C 28.3162 6.45837 0.01699
C 31.93362 19.78982 0.00594
C 33.13057 17.74286 0.00369
C 1.24873 22.0446 0.02712
C 0.04614 21.29044 -0.02213
C 34.38479 19.84451 0.01951
C 1.1573 19.17739 -0.01678
C 1.21302 17.70911 0.01223
C 34.32471 17.00664 0.00648
C 34.38197 15.52864 0.02114
C 1.22808 14.97505 -0.02957
C 1.22357 13.55357 0.00343
C 0.01239 12.78534 -0.02656
C 34.40506 11.33036 -0.02442
C 1.16453 10.61621 -0.00027
C 1.16126 9.25838 -0.00583
C 34.40818 8.51882 -0.02302
C 0.01344 7.0398 -0.02849
C 1.24734 6.41205 0.02931
C 1.19556 5.01285 0.00628
C 34.41449 4.32206 -0.0345
C 34.40801 2.901 -0.00931
C 1.19384 2.16495 -0.00939
C 1.19477 0.74659 -0.00468
C 1.23398 23.4904 0.00723
C 33.15413 19.09563 -0.02474
C 0.03558 24.15838 0.03076
C 1.19548 26.23324 -0.00598
C 33.19743 14.88429 0.00455
C 33.11361 13.52293 -0.00644
C 31.90528 12.82129 -0.01839
C 31.93828 11.35217 0.00137
C 33.18259 10.61561 0.00199
C 33.15357 9.20704 0.04381
C 31.93024 8.55368 0.02806
C 32.00281 7.08893 0.01504
C 33.13505 6.32159 -0.00069
C 33.16505 4.94879 0.04926
C 31.98895 4.24754 -0.03838
C 31.95081 2.77085 0.00349
C 33.18012 2.14069 -0.00323
C 33.23505 0.68814 -0.00841
C 31.98114 34.04408 0.0001
C 0.04173 32.70125 -0.02927
C 1.21775 31.88393 -0.01404
C 1.24268 30.45114 0.01027
C 0.01105 29.79745 0.01831
C 34.39566 28.35728 -0.01037
C 1.17959 27.67539 -0.00439
C 0.02497 25.53708 -0.05239
C 27.07502 7.17734 0.01799
C 26.93831 8.53852 0.01259
C 28.19864 9.23525 0.01495
C 22.11919 19.81573 0.00199
C 23.34618 19.1444 0.01511
C 23.42142 17.72029 -0.00478
C 22.18174 17.00227 -0.01662
C 21.98983 15.65653 -0.01185
C 23.18017 14.78959 0.01126
C 23.40996 13.44397 0.01852
C 23.40374 10.5787 -0.00381
C 23.42025 9.18078 0.03046
C 22.15375 8.46997 0.0296
C 22.17045 7.08132 0.03374
C 23.36584 6.34713 -0.02845
C 23.38403 4.89625 -0.03213
C 22.11326 4.20005 0.02239
C 22.10743 2.85506 0.01153
C 23.45821 2.0786 0.02734
C 23.4335 0.6366 -0.0055
C 22.13323 34.00223 0.01515
C 24.57403 32.63767 -0.00225
C 25.81823 31.93287 0.00071
C 25.80337 30.52208 -0.01107
C 22.1661 21.32689 0.01087
C 24.54877 29.81222 -0.01586
C 23.36392 22.04645 -0.01527
C 23.40341 27.66354 0.01277
C 20.99028 22.02799 0.00667
C 19.74178 21.40436 0.00143
C 19.7528 19.94702 -0.017
C 20.92502 19.08438 0.00364
C 20.89394 17.73013 -0.00831
C 19.71717 17.09945 -0.02957
C 20.92732 9.30318 -0.04422
C 19.65497 8.58226 0.00654
C 19.67286 7.13741 -0.00703
C 20.85845 6.43093 -0.04076
C 20.88762 4.98387 -0.00652
C 19.72878 4.29694 0.0058
C 19.66673 2.91102 -0.00865
C 20.89221 2.13922 0.00675
C 20.95957 0.74809 -0.00311
C 19.70316 0.03767 0.00742
C 22.14708 32.63638 -0.01594
C 23.32157 31.90966 0.0106
C 23.38066 30.50218 -0.01154
C 22.12868 29.7777 -0.01721
C 22.4035 28.42879 -0.02422
C 23.28109 23.44456 0.00096
C 24.59663 28.35762 -0.01971
C 25.84201 27.68969 -0.02118
C 25.67482 26.2541 0.00733
C 28.19457 31.966 -0.00802
C 28.20705 30.52398 -0.00218
C 27.01651 29.79609 -0.01654
C 27.04278 28.36035 -0.00037
C 28.1957 27.61362 -0.0032
C 28.26526 26.25524 0.00622
C 26.97524 25.58307 -0.02815
C 26.98494 24.14521 -0.00942
C 28.22998 23.45427 0.00487
C 28.28127 22.02121 0.00826
C 27.04063 21.27914 -0.00294
C 27.05324 19.8825 0.00152
C 28.31899 19.08132 0.01257
C 28.33283 17.70565 0.02316
C 27.02508 17.0321 0.04185
C 27.12284 15.60545 0.00194
C 28.40837 15.08282 -0.00621
C 28.3798 13.57706 0.02611
C 27.00986 12.71341 0.02198
C 27.04754 11.33056 0.01094
C 28.25873 10.682 0.00235
C 26.97849 32.69798 0.00195
C 24.65795 34.04698 0.00996
C 25.88083 0.75153 0.04306
C 25.90493 2.15559 0.00367
C 24.54869 25.58815 -0.00178
C 24.46035 24.10468 0.00768
C 25.77697 23.44801 -0.0276
C 25.79462 22.0225 0.03005
C 24.56689 21.2975 -0.04078
C 24.54555 19.83744 0.02117
C 25.80686 19.15858 0.02737
C 25.81473 17.7179 -0.00498
C 24.62412 17.01061 0.00135
C 24.62168 15.58981 0.03102
C 19.65787 28.5455 0.00755
C 25.89019 14.92277 0.02555
C 24.52124 12.75847 -0.00285
C 24.58621 11.30508 -0.009
C 25.82054 10.69488 -0.01199
C 25.83071 9.28523 -0.00229
C 24.61528 8.46625 -0.00938
C 24.6206 7.04406 -0.0264
C 25.87946 6.39034 -0.01154
C 25.80675 5.02942 0.00684
C 24.62049 4.28441 -0.01052
C 24.5923 2.85112 -0.01679
C 25.81951 13.45445 0.01423
C 2.47957 32.59829 0.00245
