424
Graphene
C 34.35712 34.05816 0.01295
C 12.28588 24.22833 0.00572
C 13.45016 23.49771 0.03592
C 13.58183 22.01558 0.00406
C 12.34895 21.3947 0.00943
C 12.35104 20.03537 0.02841
C 13.44822 19.19705 -0.01111
C 12.38131 11.14741 -0.01275
C 13.40915 10.56658 0.00985
C 13.52482 9.05192 -0.02245
C 12.29214 8.50512 -0.00428
C 12.30177 25.62972 0.0402
C 12.34965 7.04288 0.03101
C 13.46617 4.84118 -0.02689
C 12.24985 4.082 -0.01046
C 12.20952 2.78884 -0.00891
C 13.52747 2.13031 0.02819
C 13.50709 0.72653 0.00165
C 12.2558 0.01663 -0.02971
C 14.75405 32.59229 0.02894
C 15.9256 31.94595 -0.01789
C 15.9723 30.57049 0.00444
C 14.7576 29.83539 -0.00925
C 13.53572 6.35885 -0.01536
C 13.4491 26.34205 -0.02759
C 13.4651 27.73021 0.03589
C 12.28344 28.49262 -0.00033
C 9.86079 19.96061 -0.01384
C 11.09491 19.27793 0.03693
C 11.22008 17.88423 0.01745
C 10.16098 16.8847 0.00488
C 10.09646 15.31705 -0.01004
C 10.74024 14.29725 -0.02896
C 9.8039 13.00248 -0.00131
C 9.85467 11.60984 -0.01118
C 11.1049 10.67719 -0.014
C 11.05343 9.26496 0.02147
C 9.7924 8.58329 0.00373
C 9.7937 7.06111 -0.00191
C 10.98468 6.36753 0.00438
C 10.99047 4.9838 0.01291
C 9.76159 4.333 0.00093
C 9.75164 2.93741 0.00057
C 10.99974 2.1405 -0.01634
C 11.00583 0.75611 -0.00334
C 9.72399 0.09259 0.02339
C 12.32223 32.65161 0.01641
C 13.50257 31.92896 -0.00719
C 13.5191 30.48778 0.01364
C 12.25241 29.81661 -0.01062
C 14.65727 28.42644 0.01877
C 9.84981 21.37826 -0.00482
C 15.94978 27.74544 0.01363
C 14.76911 25.55249 0.00415
C 18.50508 22.02575 0.0351
C 17.27694 21.36486 -0.03113
C 17.2885 20.03911 0.02098
C 18.47206 19.24113 0.01848
C 18.27175 17.83934 -0.00619
C 18.49334 13.82787 -0.02162
C 17.04019 11.19336 0.00889
C 18.33705 10.66735 -0.00481
C 18.36588 9.16097 0.00979
C 17.12087 8.44173 0.01443
C 18.44777 23.39073 0.00422
C 17.18198 7.13677 0.03505
C 18.39427 4.94464 -0.04147
C 17.21405 4.2004 -0.05302
C 17.15175 2.78227 0.00213
C 18.41772 2.06333 -0.00066
C 18.42887 0.63487 -0.00289
C 17.19311 34.01087 0.00028
C 19.65482 32.65765 -0.02213
C 20.86784 31.9723 0.03698
C 20.84548 30.55123 -0.00109
C 19.63322 29.79928 -0.00491
C 18.41837 6.37187 -0.02815
C 17.16593 24.1915 0.00798
C 17.22978 25.5788 0.00228
C 18.43316 26.26237 -0.00114
C 14.74921 24.18569 -0.0014
C 15.94065 23.47318 0.02162
C 15.99106 22.06709 0.0076
C 14.81356 21.25963 0.01241
C 14.79381 19.75043 -0.01454
C 16.0638 19.19918 0.01945
C 15.99413 10.60369 0.01416
C 15.92831 9.20311 0.03542
C 14.69713 8.42002 0.02299
C 14.73975 7.06514 0.00244
C 15.96633 6.36905 -0.01717
C 16.00242 4.94302 0.05265
C 14.69457 4.21078 -0.01952
C 14.72945 2.8203 -0.02813
C 15.93594 2.10051 0.00374
C 15.92483 0.71299 0.00052
C 14.67958 34.04417 -0.03682
C 17.23916 32.64153 0.01965
C 18.43013 31.90062 0.02058
C 18.41381 30.50504 -0.01957
C 17.22215 29.73975 -0.0108
C 17.2342 28.36027 -0.00368
C 18.41973 27.64629 -0.02696
C 15.97398 26.33511 -0.02162
C 19.60454 28.38822 0.03338
C 11.03097 22.14399 0.02888
C 9.84794 24.18671 0.00895
C 3.54314 2.21273 -0.01979
C 3.60007 0.73412 0.02784
C 2.39626 34.07328 -0.01977
C 4.91487 32.7043 -0.00561
C 6.1718 31.97131 0.00208
C 6.14734 30.56698 0.01707
C 4.89928 29.84966 0.02769
C 4.89099 28.4858 -0.03291
C 6.17294 27.67433 -0.04999
C 6.13915 26.31319 0.04505
C 2.28895 2.83525 -0.00449
C 4.96735 25.54984 0.03284
C 6.23853 23.43568 0.03189
C 6.14685 22.03327 0.00031
C 4.98437 21.36366 -0.003
C 4.96611 19.88745 0.01402
C 6.20407 19.11356 0.02379
C 6.17586 17.72027 0.00907
C 4.89317 17.10308 0.00643
C 4.91546 15.68143 -0.01509
C 6.17549 14.96298 0.03267
C 6.05628 13.48988 0.02374
C 4.90445 24.20008 -0.04307
C 2.32216 4.29584 0.00211
C 3.61808 5.03542 0.0064
C 3.64057 6.50531 -0.00039
C 3.71187 30.49416 -0.02827
C 2.51069 29.77078 0.01078
C 2.48695 28.32537 -0.00112
C 3.7411 27.67028 0.03345
C 3.70467 26.23033 0.00748
C 2.48596 25.5817 0.00662
C 2.4645 24.2074 -0.0154
C 3.68662 23.45082 -0.01299
C 3.73915 21.96897 -0.00407
C 2.45112 21.28193 0.01138
C 2.51203 19.89372 0.03278
C 3.69701 19.15868 -0.00177
C 3.67052 17.75867 0.04421
C 2.4924 17.04736 0.00088
C 2.41967 15.67139 0.00828
C 3.66339 14.91563 -0.02375
C 3.64854 13.54428 0.00558
C 2.3718 12.82519 -0.0059
C 2.3103 11.30472 -0.01386
C 3.60693 10.58829 -0.02805
C 3.61815 9.23942 0.00081
C 2.40745 8.55403 0.00245
C 2.4098 7.09196 0.02728
C 4.87412 12.80322 0.00402
C 11.04007 23.51562 0.00685
C 4.86268 11.36473 0.0073
C 6.14974 9.30031 0.03828
C 8.52772 13.51689 0.00873
C 7.36838 12.85004 -0.00049
C 7.40458 11.39832 0.00848
C 8.64297 10.7747 -0.01303
C 8.63808 9.31022 -0.01378
C 7.36986 8.64111 0.02635
C 7.36242 7.1611 0.0127
C 8.53909 6.38252 0.01396
C 8.48213 5.02373 0.01849
C 7.30035 4.36501 -0.01142
C 8.64571 14.92079 0.01227
C 7.31885 2.9411 -0.00562
C 8.51122 0.77497 0.00054
C 7.27318 0.06779 0.03007
C 9.77574 32.74106 -0.00095
C 10.99237 32.00468 0.01572
C 10.98698 30.59934 -0.04848
C 9.80396 29.83215 -0.00892
C 9.81848 28.41446 -0.01362
C 11.00472 27.76882 -0.0008
C 11.02931 26.33014 0.0288
C 9.79772 25.60715 0.00393
C 8.54685 2.25291 -0.00494
C 7.40619 15.60587 -0.03337
C 7.54115 17.0691 -0.00966
C 8.84613 17.64612 -0.02929
C 4.88964 8.64424 0.01226
C 4.82843 7.19244 -0.00279
C 6.10931 6.51619 0.01996
C 6.15115 5.12917 -0.03996
C 4.80433 4.35537 0.01465
C 4.75173 2.93299 -0.00074
C 6.05652 2.24679 -0.00518
C 6.12443 0.88346 0.0086
C 4.85466 0.05319 -0.00643
C 7.28414 32.74784 0.017
C 8.54732 32.06735 -0.03113
C 8.59935 30.66058 -0.02566
C 7.36032 29.913 -0.00094
C 7.43116 28.46328 0.02322
C 8.62729 27.78069 -0.00725
C 8.56278 26.34626 -0.05697
C 7.35105 25.62112 0.01087
C 7.44492 24.13633 -0.01343
C 8.65814 23.43311 0.00988
C 8.65083 21.98333 0.0276
C 7.38169 21.28357 0.01305
C 7.4559 19.89285 -0.00077
C 8.65195 19.20621 0.03368
C 6.09855 10.73029 0.0174
C 20.87131 27.73384 -0.0258
C 20.81971 26.30409 -0.0331
C 19.63958 25.51848 -0.00316
C 29.45483 11.34101 -0.02155
C 30.72978 10.6367 -0.00944
C 30.75936 9.13881 -0.03735
C 29.52151 8.53224 -0.00971
C 29.54292 7.08589 0.01518
C 30.76657 6.32296 0.01908
C 30.70433 4.8418 0.07705
C 29.47878 4.26752 0.0103
C 29.45673 2.78053 0.02108
C 30.67867 2.1283 0.00716
C 29.50962 12.75267 -0.01461
C 30.7033 0.6674 0.00307
C 32.00928 32.5441 0.01713
C 33.22573 31.84036 -0.01694
C 33.23737 30.39791 0.01428
C 32.00254 29.73979 -0.02142
C 31.98692 28.3741 0.0544
C 33.23252 27.62707 0.00026
C 33.2095 26.13983 0.00682
C 31.92259 25.52625 -0.01779
C 31.9307 24.10073 0.03794
C 33.11698 23.41347 0.01927
C 29.48193 34.07593 0.00346
C 30.71942 13.56278 -0.01303
C 30.72065 15.0199 -0.0405
C 29.45475 15.71317 0.01705
C 28.31976 6.29532 0.01094
C 28.31834 4.9587 0.00235
C 27.0421 4.30657 0.01495
C 27.04881 2.87576 0.01259
C 28.24435 2.11382 0.01799
C 28.23725 0.72429 0.01699
C 26.99936 34.05283 -0.00416
C 29.59192 32.60629 0.01177
C 30.75699 31.8346 0.04266
C 30.70951 30.40494 0.01324
C 29.44444 29.79649 0.0014
C 29.51092 28.28412 0.00924
C 30.69835 27.62429 0.02326
C 30.65135 26.23401 0.00261
C 29.46646 25.51476 0.03265
C 29.40526 24.03994 -0.02049
C 30.64708 23.38514 -0.01854
C 30.72733 22.01116 -0.01415
C 29.41455 21.30269 -0.03039
C 29.45158 19.84363 0.01836
C 30.73489 19.18518 0.03531
C 30.73404 17.80134 -0.00669
C 29.48046 17.08192 0.0101
C 33.1552 22.02001 0.01574
C 27.07263 7.07569 0.02198
C 31.9052 21.33328 -0.02383
C 33.15508 19.16974 -0.0136
C 1.24207 23.44831 0.00723
C 1.17637 22.0176 0.02712
C 34.31146 21.28669 -0.02213
C 34.40122 19.8545 0.01951
C 1.24543 19.21196 -0.01678
C 1.25198 17.77136 0.01223
C 0.03696 17.08812 0.00648
C 0.01188 15.71236 0.02114
C 1.18943 14.9088 -0.02957
C 1.13503 13.49625 0.00343
C 34.36209 24.10528 0.03076
C 34.35045 12.7836 -0.02656
C 1.16278 10.57063 -0.00027
C 1.14424 9.21824 -0.00583
C 34.39362 8.41425 -0.02302
C 34.37409 7.02217 -0.02849
C 1.14681 6.38956 0.02931
C 1.09763 4.98835 0.00628
C 34.30057 4.27097 -0.0345
C 34.36952 2.80239 -0.00931
C 1.12579 2.09956 -0.00939
C 1.11589 0.66878 -0.00468
C 34.36447 11.31331 -0.02442
C 0.02816 25.5132 -0.05239
C 1.29226 26.18192 -0.00598
C 1.19068 27.59986 -0.00439
C 33.28901 17.79543 0.00594
C 31.98951 17.10908 -0.02474
C 31.98883 15.68585 0.00369
C 33.1713 15.03635 0.00455
C 33.15171 13.58606 -0.00644
C 31.97475 12.82199 -0.01839
C 31.92672 11.32096 0.00137
C 33.12869 10.6814 0.00199
C 33.14001 9.22262 0.04381
C 31.9414 8.50793 0.02806
C 31.9836 7.01571 0.01504
C 33.09699 6.31183 -0.00069
C 33.06104 4.86515 0.04926
C 31.89599 4.10893 -0.03838
C 31.92121 2.72388 0.00349
C 33.20874 2.04663 -0.00323
C 33.19179 0.64008 -0.00841
C 31.95108 33.95929 0.0001
C 34.40704 32.61126 -0.02927
C 1.24461 31.92956 -0.01404
C 1.24465 30.51734 0.01027
C 0.00351 29.77108 0.01831
C 34.38793 28.28819 -0.01037
C 31.90107 19.89896 -0.01429
C 27.06789 8.57017 0.02611
C 28.30783 9.29828 -0.00621
C 28.2984 10.70731 0.00194
C 22.10027 29.81285 0.00742
C 22.09688 28.44806 -0.01594
C 23.28362 27.70754 0.0106
C 23.31607 26.30793 -0.01154
C 22.11254 25.596 -0.01721
C 22.12461 24.12996 -0.02422
C 23.37122 23.46871 0.01277
C 23.56279 22.02881 0.00096
C 22.30272 21.32654 -0.01527
C 22.23005 19.89099 0.01087
C 23.43908 30.52886 -0.00311
C 23.46971 19.08097 0.00199
C 22.01308 17.02408 -0.00478
C 22.02082 15.59286 -0.01662
C 23.24369 14.91897 -0.01185
C 23.25576 13.47198 0.01126
C 22.05958 12.81176 0.01852
C 22.07426 11.41759 -0.00381
C 23.33923 10.70837 0.03046
C 23.33167 9.31488 0.0296
C 22.07879 8.56011 0.03374
C 22.07292 7.04661 -0.02845
C 23.28106 17.77057 0.01511
C 23.34028 31.91878 0.00675
C 22.13171 32.6457 -0.00865
C 19.63531 34.04358 0.0058
C 19.70865 24.15464 0.02188
C 20.91572 23.37924 -0.01979
C 21.10611 22.03316 0.02691
C 19.74351 21.32014 -0.01581
C 19.74758 19.86629 0.01452
C 20.93626 19.118 0.04892
C 20.78193 17.72087 -0.00111
C 19.31899 16.85773 -0.03557
C 19.40659 15.32006 0.03754
C 20.76094 14.90348 0.01739
C 20.91814 13.49419 0.00755
C 19.55401 12.91865 -0.0054
C 19.65265 11.45583 0.00667
C 20.8562 10.70566 0.00143
C 20.86108 9.20793 -0.017
C 19.64083 8.46934 0.00364
C 19.65388 7.04709 -0.00831
C 20.89315 6.3605 -0.02957
C 20.94434 4.98774 -0.04422
C 19.69557 4.21782 0.00654
C 19.67697 2.8252 -0.00703
C 20.89309 2.11787 -0.04076
C 20.9619 0.70635 -0.00652
C 23.32587 6.42774 -0.03213
C 23.30034 4.9554 0.02239
C 22.08709 4.20538 0.01153
C 22.1219 2.81322 0.02734
C 24.60548 2.83224 -0.01154
C 25.85093 2.15998 0.00684
C 25.80354 0.70505 -0.01052
C 24.61393 0.06145 -0.01679
C 27.11385 32.6729 0.00367
C 28.28703 31.94813 0.04306
C 28.23229 30.41682 0.00996
C 27.07399 29.71358 0.00195
C 27.03483 28.32874 -0.00802
C 28.25471 27.66973 -0.00218
C 28.21401 26.25561 -0.01654
C 27.00713 25.48783 -0.00037
C 26.88744 24.04198 -0.0032
C 28.21356 23.36306 0.00622
C 28.15597 21.92108 -0.02815
C 28.20375 19.28037 -0.00942
C 28.28349 17.83847 0.00487
C 26.97873 17.09871 0.00826
C 27.04645 15.63181 -0.00294
C 28.24091 14.93331 0.00152
C 28.31116 13.51096 0.01257
C 27.09682 12.79653 0.02316
C 27.04944 11.44882 0.04185
C 24.59368 4.22947 -0.0264
C 3.69473 32.00642 -0.01471
C 25.77124 4.94095 -0.00938
C 24.48468 7.11979 -0.01199
C 23.34929 2.12822 -0.0055
C 23.41265 0.7289 0.01515
C 22.16489 34.07665 -0.00225
C 24.61252 32.62927 0.00071
C 25.79679 31.92982 -0.01107
C 25.8695 30.48656 -0.01586
C 24.65603 29.78019 -0.01971
C 24.47799 28.41439 -0.02118
C 25.77649 27.66227 0.00733
C 25.78874 26.22536 -0.00178
C 24.56189 25.67332 0.00768
C 24.56352 24.27193 -0.0276
C 25.6806 23.34162 0.03005
C 25.76321 17.74863 -0.04078
C 24.60167 16.99524 0.02117
C 24.58694 15.56575 0.02737
C 25.85726 14.86576 -0.00498
C 25.84852 13.4989 0.00135
C 24.57301 12.80726 0.03102
C 24.57712 11.41679 0.02555
C 25.84998 10.76393 0.01423
C 25.85636 9.3357 -0.00285
C 24.55484 8.5213 -0.009
C 25.84552 6.42692 -0.00229
C 2.46361 32.64362 0.01218
