357
Graphene
C 34.38616 34.03966 0.01295
C 14.7157 7.08753 -0.0108
C 15.93483 6.38658 -0.00368
C 15.92378 5.01642 -0.02696
C 14.77106 4.26593 -0.00114
C 14.71166 2.85405 0.00228
C 15.88129 2.11288 0.00798
C 15.91909 0.65992 0.00422
C 14.5867 0.01999 0.0351
C 14.69057 8.59663 -0.01957
C 17.84828 21.27931 -0.03113
C 18.40857 18.96467 0.01848
C 18.41765 17.6394 -0.00619
C 17.22071 16.8841 -0.02162
C 17.16414 15.56052 0.00889
C 18.4231 14.83094 -0.00481
C 18.43731 13.46851 0.00979
C 17.15334 12.75808 0.01443
C 17.12173 11.43676 0.03505
C 17.30374 19.91401 0.02098
C 18.25853 10.71585 -0.02815
C 15.9229 9.30927 0.02058
C 14.6865 11.29191 -0.03682
C 13.4377 10.5646 -0.02162
C 13.37819 9.08387 0.00415
C 13.50907 6.48099 -0.0014
C 13.41285 5.1096 0.02162
C 12.19158 4.30895 0.0076
C 12.27011 2.90278 0.01241
C 13.552 2.23321 -0.01454
C 13.49591 0.80248 0.01945
C 15.90697 10.7115 0.01965
C 12.22059 0.13143 0.01416
C 14.77438 19.68696 0.02299
C 16.02067 19.02705 0.00244
C 15.99083 17.61411 -0.01717
C 14.6363 16.9937 0.05265
C 14.69518 15.56702 -0.01952
C 15.92957 14.89353 -0.02813
C 15.95911 13.47596 0.00374
C 14.70591 12.72431 0.00052
C 14.7769 20.95874 0.03542
C 18.41295 9.22334 -0.04147
C 17.16255 8.5283 -0.05302
C 17.0658 7.11719 0.00213
C 19.61158 8.43425 0.00667
C 19.5812 7.07132 0.00143
C 20.88821 6.38707 -0.017
C 20.90361 4.93456 0.00364
C 19.63045 4.28062 -0.00831
C 19.67841 2.84141 -0.02957
C 20.84562 2.14596 -0.04422
C 20.85096 0.75146 0.00654
C 20.81425 9.17348 -0.0054
C 19.68185 34.05221 -0.00703
C 23.46081 32.0097 -0.00652
C 23.42381 30.52047 0.0058
C 22.20712 29.88448 -0.00865
C 22.21638 28.49379 0.00675
C 23.39863 27.70015 -0.00311
C 23.25525 26.27896 0.00742
C 22.04539 25.67933 -0.01594
C 21.9168 24.28013 0.0106
C 22.19395 32.66444 -0.04076
C 20.86445 10.63204 0.00755
C 19.54445 11.31974 0.01739
C 19.66317 12.77273 0.03754
C 18.37333 6.38491 -0.00066
C 18.39508 4.92989 -0.00289
C 17.11378 4.22494 0.00028
C 17.14613 2.77213 -0.02213
C 18.42617 2.14505 0.03698
C 18.38114 0.77587 -0.00109
C 17.13922 34.05978 -0.00491
C 19.80755 32.66661 0.03338
C 21.02494 31.97334 -0.0258
C 20.84685 23.28344 -0.0331
C 20.58982 21.98801 -0.00316
C 19.28251 21.12496 0.02188
C 19.61211 19.75057 -0.01979
C 20.82653 19.1074 0.02691
C 20.87094 17.69788 -0.01581
C 19.65635 16.90391 0.01452
C 19.6485 15.53076 0.04892
C 20.88677 14.81838 -0.00111
C 20.90615 13.43606 -0.03557
C 12.12312 11.36862 0.01363
C 12.29323 12.81336 0.01877
C 13.5576 13.44614 -0.00925
C 13.39557 14.87672 0.00444
C 4.91446 32.77489 -0.00562
C 6.14306 32.05977 -0.00494
C 6.1433 30.63417 0.00054
C 4.9043 29.9731 0.03007
C 4.85104 28.52442 -0.00095
C 6.10497 27.75781 0.01572
C 6.12062 26.32578 -0.04848
C 4.89862 25.54211 -0.00892
C 2.37363 0.08806 -0.01142
C 4.89905 24.13326 -0.01362
C 6.13725 21.89323 0.0288
C 4.87712 21.26824 0.00393
C 4.95653 8.46133 0.00895
C 4.84532 7.12727 0.00685
C 4.95343 4.26502 0.02888
C 4.80508 2.83913 -0.00482
C 6.07223 2.20438 -0.01384
C 6.06502 0.76089 0.03693
C 6.19992 23.47625 -0.0008
C 3.62118 0.78755 0.01849
C 3.59646 2.19564 0.01396
C 2.34137 2.8662 0.0127
C 3.66731 30.61629 -0.00725
C 2.42342 29.87314 -0.05697
C 2.44554 28.37104 0.01087
C 3.73033 27.72526 -0.01343
C 3.66338 26.22243 0.00988
C 2.42541 25.59395 0.0276
C 2.35622 24.1991 0.01305
C 3.66878 23.47063 -0.00077
C 3.75327 22.06622 0.03368
C 2.43925 21.35188 -0.02929
C 2.34645 19.98867 -0.00966
C 2.43202 11.23689 -0.03337
C 3.71775 10.74432 0.01227
C 3.84619 9.39611 0.00873
C 2.47418 8.57219 -0.00049
C 2.42055 7.14056 0.00848
C 3.70372 6.488 -0.01303
C 3.69945 4.93421 -0.01378
C 2.42422 4.2349 0.02635
C 4.8625 0.09187 0.01745
C 23.12002 23.47751 -0.01154
C 7.42152 32.77197 0.00488
C 8.65731 30.58243 -0.02896
C 9.98134 20.1158 0.00406
C 11.09862 19.14046 0.00943
C 11.08475 17.67934 0.02841
C 11.22266 13.69137 -0.01111
C 9.55027 10.90874 -0.01275
C 10.85422 10.90311 0.00985
C 9.87706 3.03672 -0.02245
C 10.98001 2.29745 -0.00428
C 9.91064 21.40659 0.03592
C 10.95538 0.88571 0.03101
C 12.36864 32.93015 -0.02689
C 13.75779 21.79706 -0.01046
C 12.43614 21.38558 -0.00891
C 12.31683 19.76342 0.02819
C 13.54258 18.98037 0.00165
C 13.43134 17.62905 -0.02971
C 12.16249 16.83714 0.02894
C 12.18132 15.32719 -0.01789
C 9.80692 0.08934 -0.01536
C 11.23982 22.15178 0.00572
C 11.0967 23.64596 0.0402
C 9.96613 24.46153 -0.02759
C 7.40093 29.88336 -0.00131
C 7.29819 28.48879 -0.01118
C 8.6363 27.72244 -0.014
C 8.58783 26.32672 0.02147
C 7.37406 25.57114 0.00373
C 7.42058 24.19456 -0.00191
C 8.67695 23.61401 0.00438
C 8.69552 22.16541 0.01291
C 7.51822 21.55073 0.00093
C 7.2315 2.97532 0.00057
C 8.5709 2.36919 -0.01634
C 8.53868 0.92338 -0.00334
C 7.33477 0.17429 0.02339
C 9.81971 32.75607 0.01641
C 11.06513 32.0983 -0.00719
C 10.99508 30.715 0.01364
C 9.94999 29.82113 -0.01062
C 9.88255 28.31299 -0.00033
C 9.88991 25.85037 0.03589
C 8.67327 32.03682 -0.01004
C 3.6151 32.02781 0.02322
C 23.14953 22.04977 -0.01721
C 22.11249 19.86455 0.01277
C 30.73698 2.138 0.01713
C 30.73707 0.76694 -0.01694
C 29.50199 0.05287 0.01428
C 31.97007 32.77409 -0.02142
C 33.12774 32.01584 0.0544
C 33.18884 30.54845 0.00026
C 31.96158 29.76947 0.00682
C 31.94388 28.40531 -0.01779
C 29.48495 2.81637 0.00346
C 33.19991 27.69082 0.03794
C 31.89385 25.58472 0.01574
C 31.89459 24.13028 -0.02383
C 33.11347 23.40349 -0.01429
C 33.09982 22.00467 -0.0136
C 31.94685 21.28407 0.00594
C 31.85187 19.87252 -0.02474
C 33.06084 19.20993 0.00369
C 33.14635 17.78411 0.00455
C 33.1343 26.32338 0.01927
C 31.93695 17.04407 -0.00644
C 29.53156 4.25004 0.00307
C 30.76138 6.36244 0.02108
C 29.50236 25.59896 -0.01415
C 29.46609 24.19359 -0.03039
C 30.75356 23.42639 0.01836
C 30.68661 22.00266 0.03531
C 29.43189 21.30032 -0.00669
C 29.44233 19.8553 0.0101
C 30.68558 19.20238 0.01705
C 30.71056 17.76729 -0.0405
C 30.74881 4.98195 0.00716
C 29.52191 17.01475 -0.01303
C 30.71856 14.85437 -0.02155
C 30.80031 13.4427 -0.00944
C 29.49065 12.76781 -0.03735
C 29.51586 11.36443 -0.00971
C 30.71935 10.67398 0.01518
C 30.76368 9.20477 0.01908
C 29.50281 8.47513 0.07705
C 29.55786 7.08423 0.0103
C 29.52344 15.52714 -0.01461
C 31.97121 15.57194 -0.01839
C 33.18647 15.00211 0.00137
C 33.25177 13.44116 0.00199
C 1.22772 22.06188 -0.01678
C 34.36994 21.38355 0.01223
C 34.29408 19.95856 0.00648
C 1.12602 19.26286 0.02114
C 34.30011 17.03576 -0.02957
C 34.35441 15.7148 0.00343
C 0.05163 12.80006 -0.02656
C 34.40028 11.31872 -0.02442
C 1.15052 23.4561 0.01951
C 1.20069 10.68693 -0.00027
C 0.04842 8.56968 -0.02302
C 0.00489 7.10657 -0.02849
C 1.2519 6.4006 0.02931
C 1.1955 5.02579 0.00628
C 34.41132 4.33747 -0.0345
C 0.01293 2.93123 -0.00931
C 1.1511 2.09529 -0.00939
C 1.12229 0.73433 -0.00468
C 1.25359 9.27805 -0.00583
C 34.36404 24.1195 -0.02213
C 34.38669 25.53237 0.02712
C 1.1699 26.29049 0.00723
C 32.04376 12.66447 0.04381
C 31.94919 11.28186 0.02806
C 33.17751 10.62053 0.01504
C 33.25371 9.21867 -0.00069
C 32.04402 8.55961 0.04926
C 31.95194 7.08666 -0.03838
C 33.18877 6.42044 0.00349
C 33.14913 5.04345 -0.00323
C 31.96247 4.3267 -0.00841
C 31.94112 2.85137 0.0001
C 33.20748 2.21317 -0.02927
C 33.2425 0.73164 -0.01404
C 31.97503 0.15256 0.01027
C 0.00908 32.6521 0.01831
C 1.17442 31.93938 -0.01037
C 1.16568 30.61597 -0.00439
C 34.43231 29.80569 -0.00598
C 0.03676 28.41063 -0.05239
C 1.22744 27.71428 0.03076
C 30.673 26.29249 -0.01854
C 30.64721 27.76087 -0.02049
C 29.48214 28.45154 0.03265
C 29.50969 29.82647 0.00261
C 24.57373 28.43635 -0.01107
C 25.77111 27.68468 -0.01586
C 25.73577 26.20849 -0.01971
C 24.52095 25.55552 -0.02118
C 24.39658 24.15776 0.00733
C 25.64582 23.5123 -0.00178
C 25.76671 22.06962 0.00768
C 24.46857 21.31144 -0.0276
C 24.69356 29.80947 0.00071
C 24.56425 19.84272 0.03005
C 25.8145 17.69858 0.02117
C 24.59468 16.97777 0.02737
C 24.53818 15.53447 -0.00498
C 25.76152 14.80045 0.00135
C 25.77263 13.43126 0.03102
C 24.56062 12.71495 0.02555
C 24.53899 11.31051 0.01423
C 25.75385 10.55832 -0.00285
C 25.79661 19.14964 -0.04078
C 25.9004 30.5557 -0.00225
C 25.83353 31.96714 0.01515
C 24.65022 32.75489 -0.0055
C 23.34296 19.23307 0.00096
C 23.37468 17.69926 -0.01527
C 22.12158 16.9876 0.01087
C 22.16394 15.54831 0.00199
C 23.40475 14.8705 0.01511
C 23.30962 13.44739 -0.00478
C 22.06058 12.68167 -0.01662
C 22.10004 11.28548 -0.01185
C 23.25948 10.62559 0.01126
C 23.30594 9.25527 0.01852
C 22.05983 8.52005 -0.00381
C 22.05273 7.16149 0.03046
C 23.27933 6.33643 0.0296
C 23.26389 4.96128 0.03374
C 22.09477 4.18821 -0.02845
C 22.1329 2.79181 -0.03213
C 23.39312 2.11673 0.02239
C 23.36995 0.77237 0.01153
C 22.17945 0.05319 0.02734
C 25.82282 9.16941 -0.009
C 21.96869 21.27118 -0.02422
C 24.5894 8.47801 -0.01199
C 25.75763 6.35287 -0.00938
C 28.26165 14.87563 0.04185
C 28.28834 13.49493 0.00194
C 27.0459 12.73732 -0.00621
C 26.99469 11.32606 0.02611
C 28.23743 10.52415 0.02198
C 28.22506 9.16192 0.01094
C 27.03223 8.46275 0.00235
C 27.00454 7.0891 0.01495
C 27.02972 15.52688 0.02316
C 28.23251 6.35699 0.01259
C 27.02392 4.27064 0.01699
C 27.05029 2.79173 -0.00416
C 28.27979 2.04449 0.01177
C 28.25178 0.722 0.04266
C 27.06687 0.01343 0.01324
C 29.50271 32.69996 0.0014
C 30.72569 32.05978 0.00924
C 30.74133 30.55638 0.02326
C 28.28948 4.93209 0.01799
C 27.0145 16.98668 0.01257
C 28.27229 17.78198 0.00152
C 28.20998 19.14564 -0.00294
C 25.74871 4.96306 -0.0264
C 24.52421 4.30688 -0.01154
C 24.63476 2.88713 0.00684
C 25.83832 2.1485 -0.01052
C 25.79379 0.74918 -0.01679
C 24.63335 34.06116 0.00367
C 27.03332 32.71086 0.04306
C 28.24992 31.9791 0.00996
C 28.35119 30.5936 0.00195
C 27.06839 29.8515 -0.00802
C 26.99437 28.47058 -0.00218
C 28.10422 27.68541 -0.01654
C 28.23615 26.2864 -0.00037
C 26.94114 25.49451 -0.0032
C 26.89526 24.14968 0.00622
C 28.22913 23.51256 -0.02815
C 28.17912 22.07189 -0.00942
C 26.99897 21.3007 0.00487
C 26.985 19.84714 0.00826
C 24.52187 7.02321 -0.00229
C 2.41959 32.79175 -0.00094
