318
Graphene
C 34.40285 0.02358 0.01295
C 12.34347 15.67582 -0.00109
C 13.5029 14.90234 -0.00491
C 13.62762 13.53009 0.03338
C 13.66029 10.58569 -0.0258
C 13.75526 9.3475 -0.0331
C 12.1571 7.03358 -0.00316
C 13.38118 6.38802 0.02188
C 13.40421 4.92145 -0.01979
C 12.24441 4.13411 0.02691
C 12.27902 2.70183 -0.01581
C 13.5429 2.05538 0.01452
C 13.64747 0.69412 0.04892
C 12.3088 0.02087 -0.00111
C 14.78248 32.71442 -0.03557
C 16.0293 31.9696 0.03754
C 12.16326 16.91034 0.03698
C 13.48379 17.66877 -0.02213
C 13.49524 18.9978 0.00028
C 12.34068 19.80363 -0.00289
C 9.79577 2.82547 0.0351
C 11.03288 2.09957 -0.03113
C 11.07251 0.72467 0.02098
C 9.81401 0.02748 0.01848
C 12.2878 32.66935 -0.00619
C 13.52571 31.99335 -0.02162
C 13.57028 30.57482 0.00889
C 16.03072 30.61897 0.01739
C 12.34829 29.81087 -0.00481
C 13.55198 27.704 0.01443
C 13.54335 26.35162 0.03505
C 12.30252 25.67221 -0.02815
C 12.25275 24.2234 -0.04147
C 13.50373 23.49484 -0.05302
C 13.50282 22.07796 0.00213
C 12.35058 21.26223 -0.00066
C 12.27884 28.41302 0.00979
C 14.85643 29.85591 0.00755
C 14.79206 28.42616 -0.0054
C 16.12851 27.49213 0.00667
C 14.71427 4.29906 0.01277
C 14.78287 2.89677 0.00096
C 15.989 2.09412 -0.01527
C 16.01474 0.74647 0.01087
C 14.83968 34.05637 0.00199
C 17.24994 32.73831 0.01511
C 18.44237 31.995 -0.00478
C 16.04873 5.08972 -0.02422
C 18.4392 30.57047 -0.01662
C 17.17133 28.39505 0.01126
C 18.49144 17.57835 0.01852
C 17.21553 17.13428 -0.00381
C 17.2141 15.64948 0.03046
C 18.45969 14.89578 0.0296
C 18.29631 13.52434 0.03374
C 17.31426 12.72419 -0.02845
C 17.2304 29.7889 -0.01185
C 9.81833 4.19684 0.00422
C 15.90711 6.49534 -0.01721
C 14.61943 8.4994 0.0106
C 15.97732 26.11133 0.00143
C 14.77505 25.55016 -0.017
C 14.78651 24.08527 0.00364
C 15.90351 23.2801 -0.00831
C 15.96475 22.02971 -0.02957
C 14.74169 21.35716 -0.04422
C 14.66856 19.89243 0.00654
C 14.78751 7.13233 -0.01154
C 15.82177 19.22359 -0.00703
C 14.73697 17.00102 -0.00652
C 14.801 15.64349 0.0058
C 16.01062 14.88643 -0.00865
C 16.04445 13.43312 0.00675
C 14.73593 12.83921 -0.00311
C 14.83884 11.37094 0.00742
C 16.04185 10.76792 -0.01594
C 15.99416 17.87854 -0.04076
C 11.02437 4.91515 0.00798
C 11.2169 6.32094 0.00228
C 11.10599 17.81579 -0.00114
C 3.72375 0.69188 -0.00719
C 2.54837 34.01637 0.01364
C 4.8677 32.61789 -0.01062
C 6.13668 31.96007 -0.00033
C 6.14143 30.52464 0.03589
C 4.91353 29.80455 -0.02759
C 4.86122 28.36975 0.0402
C 3.71574 2.13346 0.01641
C 6.13918 27.68231 0.00572
C 4.88914 25.51159 0.00406
C 4.91892 24.1171 0.00943
C 6.09921 23.39424 0.02841
C 6.15031 22.02468 -0.01111
C 4.92052 21.2914 -0.01275
C 4.90696 19.905 0.00985
C 6.1708 19.32243 -0.02245
C 6.1212 26.18915 0.03592
C 6.14858 4.96553 -0.00428
C 2.52226 2.88149 0.02339
C 3.78111 4.98451 -0.01634
C 3.65779 30.53387 -0.01384
C 2.40628 29.8498 0.03693
C 2.40929 28.46313 0.01745
C 3.65084 27.71923 0.00488
C 3.71064 26.28387 -0.01004
C 2.47578 25.51676 -0.02896
C 2.44711 24.10028 -0.00131
C 2.46991 4.32606 -0.00334
C 3.66748 23.43901 -0.01118
C 2.52069 21.35888 0.02147
C 2.47787 19.92384 0.00373
C 3.70145 19.15322 -0.00191
C 3.51497 17.73447 0.00438
C 2.49398 17.11436 0.01291
C 2.51875 7.03249 0.00093
C 3.54877 6.47714 0.00057
C 3.74972 22.02027 -0.014
C 17.14073 4.26872 -0.03213
C 4.96779 4.2536 0.03101
C 6.13741 2.13487 -0.02689
C 8.61417 0.73309 0.03542
C 7.33547 0.03602 0.02299
C 9.8491 32.71074 0.00244
C 11.03857 31.96049 -0.01717
C 11.07179 30.52475 0.05265
C 9.83135 29.80546 -0.01952
C 9.74249 28.3394 -0.02813
C 8.55277 2.07294 0.01416
C 10.98043 27.70131 0.00374
C 9.76266 25.58659 -0.03682
C 9.73781 24.18811 0.01965
C 11.03381 23.55998 0.02058
C 11.11366 21.97903 -0.01957
C 9.85389 21.27058 -0.0108
C 9.86315 19.79942 -0.00368
C 11.12962 19.1439 -0.02696
C 11.05922 26.28739 0.00052
C 4.976 2.84204 -0.01536
C 7.38661 2.79884 0.01945
C 8.65462 4.87553 0.01241
C 6.10486 0.72125 -0.01046
C 4.93821 0.02749 -0.00891
C 7.32238 32.7578 0.02819
C 8.59201 32.00537 0.00165
C 8.64215 30.56522 -0.02971
C 7.39411 29.82025 0.02894
C 7.36204 28.34123 -0.01789
C 7.34301 4.45048 -0.01454
C 8.54501 27.64806 0.00444
C 7.3371 25.51619 0.01877
C 7.29546 24.09534 0.01363
C 8.53912 23.44145 -0.02162
C 8.62874 21.93463 0.00415
C 7.33649 21.30368 -0.0014
C 7.40457 19.77623 0.02162
C 8.71349 19.11644 0.0076
C 8.53262 26.19132 -0.00925
C 17.15883 2.82567 0.02239
C 18.38161 2.1688 0.01153
C 18.48483 0.8073 0.02734
C 33.21747 27.72371 -0.01779
C 33.20093 26.27391 0.03794
C 31.92492 25.61412 0.01927
C 31.89354 24.16772 0.01574
C 33.17428 23.48092 -0.02383
C 33.20462 22.04516 -0.01429
C 31.92752 21.37794 -0.0136
C 32.04009 28.44365 0.00682
C 31.88717 19.96011 0.00594
C 33.15466 17.8669 0.00369
C 31.95141 17.07568 0.00455
C 31.91709 15.62874 -0.00644
C 33.14363 14.88455 -0.01839
C 33.28416 13.5207 0.00137
C 32.0269 12.81682 0.00199
C 32.0291 11.38493 0.04381
C 33.1498 19.25517 -0.02474
C 33.22012 10.70481 0.02806
C 31.92196 29.84466 0.00026
C 33.16752 31.98926 -0.02142
C 30.72417 14.86605 -0.01461
C 30.7262 13.47251 -0.02155
C 29.47517 12.85411 -0.00944
C 29.4705 11.37953 -0.03735
C 30.72747 10.68592 -0.00971
C 30.74366 9.27537 0.01518
C 29.48451 8.49748 0.01908
C 33.15184 30.53782 0.0544
C 29.49717 7.07638 0.07705
C 30.64767 4.91647 0.02108
C 29.448 4.23725 0.00716
C 29.45472 2.82268 0.00307
C 30.65827 2.15803 0.00346
C 30.67652 0.66786 0.01713
C 29.419 34.00038 -0.01694
C 31.90604 32.7039 0.01428
C 30.77275 6.42094 0.0103
C 29.5379 15.66988 -0.01303
C 33.24055 9.26366 0.01504
C 31.96207 7.10875 0.04926
C 1.24032 19.20502 0.00648
C 1.2268 17.73307 0.02114
C 34.3866 17.11275 -0.02957
C 34.37343 15.6321 0.00343
C 1.11353 15.00561 -0.02656
C 0.09078 12.6661 -0.02442
C 0.03751 11.41532 -0.00027
C 34.42241 19.92416 0.01223
C 1.18308 9.28171 -0.00583
C 34.42138 7.07198 -0.02849
C 1.24813 6.44913 0.02931
C 1.25095 4.99948 0.00628
C 0.00444 4.25918 -0.0345
C 34.41701 2.81005 -0.00931
C 1.2354 2.13573 -0.00939
C 1.247 0.71384 -0.00468
C 0.07844 8.56135 -0.02302
C 32.0125 8.53066 -0.00069
C 34.42276 21.27464 -0.01678
C 1.27498 23.38357 -0.02213
C 33.21639 6.3564 -0.03838
C 33.15443 4.88453 0.00349
C 31.91733 4.2532 -0.00323
C 31.88432 2.8195 -0.00841
C 33.13878 2.15649 0.0001
C 33.17186 0.73 -0.02927
C 31.92322 0.02553 -0.01404
C 1.24662 21.98336 0.01951
C 34.41954 32.70738 0.01027
C 1.21303 30.5387 -0.01037
C 0.00071 29.81771 -0.00439
C 0.02671 28.366 -0.00598
C 1.22964 27.62777 -0.05239
C 1.23003 26.26773 0.03076
C 0.0215 25.54453 0.00723
C 0.07038 24.12152 0.02712
C 1.26131 31.984 0.01831
C 3.70668 31.87153 -0.00482
C 29.48701 17.11516 -0.0405
C 30.74823 19.20363 0.0101
C 23.22391 5.04769 0.01423
C 22.19816 4.38509 -0.00285
C 22.08276 2.91833 -0.009
C 23.29594 2.18683 -0.01199
C 23.43111 0.6749 -0.00229
C 22.14091 0.02386 -0.00938
C 24.58567 32.59764 -0.0264
C 22.01968 12.96251 0.02555
C 25.74154 31.86116 -0.01154
C 24.65647 15.62801 -0.01052
C 25.77356 14.85377 -0.01679
C 25.83222 13.36356 0.00367
C 24.52623 12.67756 0.04306
C 24.69311 11.41388 0.00996
C 25.74193 10.56977 0.00195
C 25.70491 9.15227 -0.00802
C 25.86792 30.50754 0.00684
C 24.51328 8.40723 -0.00218
C 23.27395 13.32998 0.03102
C 22.09386 15.65284 -0.00498
C 17.24344 0.03409 -0.0055
C 19.70686 32.67427 0.01515
C 20.95497 31.89915 -0.00225
C 20.68956 30.50922 0.00071
C 19.58193 29.95947 -0.01107
C 19.61641 17.00135 -0.01586
C 19.68576 15.66011 -0.01971
C 23.35584 15.03805 0.00135
C 20.98243 14.96858 -0.02118
C 19.66963 4.37321 -0.00178
C 19.68276 2.97795 0.00768
C 20.88217 2.15306 -0.0276
C 20.9054 0.75223 0.03005
C 19.68868 0.04726 -0.04078
C 22.1966 32.63952 0.02117
C 23.33853 31.96565 0.02737
C 20.9061 13.44453 0.00733
C 30.79025 17.84998 0.01705
C 24.61779 7.19233 -0.01654
C 25.70441 4.9837 -0.0032
C 28.29629 6.34173 -0.00416
C 28.19851 4.92122 0.01177
C 26.91332 4.28019 0.04266
C 27.01432 2.78927 0.01324
C 28.22214 2.08122 0.0014
C 28.19424 0.67485 0.00924
C 26.93515 34.06564 0.02326
C 27.08531 7.06066 0.01699
C 29.43801 32.60635 0.00261
C 30.70187 30.5889 -0.02049
C 29.48113 29.74865 -0.01854
C 29.62679 28.38832 -0.01415
C 30.68374 27.62041 -0.03039
C 30.77783 26.2958 0.01836
C 30.90975 23.2948 0.03531
C 30.724 22.03829 -0.00669
C 30.7033 31.97471 0.03265
C 25.7715 6.467 -0.00037
C 26.99411 8.47964 0.01799
C 28.24367 10.64079 0.01495
C 24.50241 4.3018 0.00622
C 24.54655 2.86553 -0.02815
C 25.78421 2.11995 -0.00942
C 25.79729 0.67638 0.00487
C 24.59451 34.04191 0.00826
C 26.95915 32.63325 -0.00294
C 28.2355 31.87916 0.00152
C 28.26803 9.22434 0.01259
C 28.22681 30.42605 0.01257
C 28.26253 17.61478 0.04185
C 27.25647 16.87013 0.00194
C 27.05379 15.53396 -0.00621
C 28.30723 14.90538 0.02611
C 28.24704 13.49682 0.02198
C 27.00544 12.71564 0.01094
C 26.98592 11.29037 0.00235
C 27.01677 30.0051 0.02316
C 2.47688 32.65851 0.02888
