249
Graphene
C 0.01624 0.04053 0.01295
C 12.35571 25.50984 0.02734
C 13.48375 26.3506 0.01153
C 13.51199 27.73803 0.02239
C 12.3074 28.36638 -0.03213
C 12.34668 29.84384 -0.02845
C 13.54855 30.53846 0.03374
C 13.47674 31.90856 0.0296
C 12.26178 32.64273 0.03046
C 9.8078 33.96423 -0.00381
C 11.04865 0.66871 0.01852
C 11.13554 2.12958 0.01126
C 9.87072 2.7927 -0.01185
C 9.85598 4.24476 -0.01662
C 11.11487 4.94191 -0.00478
C 11.0469 6.48324 0.01511
C 9.85643 19.87726 0.00199
C 9.83841 21.155 0.01087
C 11.03956 23.42598 -0.01527
C 9.87273 24.03963 0.00096
C 9.78551 25.51844 0.01277
C 11.0107 26.29662 -0.02422
C 11.05884 27.64969 -0.01721
C 9.79862 28.45563 -0.01154
C 9.77291 29.86456 0.0106
C 11.10672 30.5398 -0.01594
C 11.10054 31.95171 0.00742
C 9.85904 32.6583 -0.00311
C 12.24128 24.1056 -0.0055
C 7.37467 0.01568 0.00675
C 12.31201 7.05181 0.01515
C 13.56507 5.01589 0.00071
C 20.9397 30.59648 -0.01679
C 20.87533 31.95578 -0.01052
C 19.64856 32.71814 0.00684
C 17.26186 34.02764 -0.01154
C 18.45336 0.69694 -0.0264
C 18.50241 27.7582 -0.00938
C 17.27785 28.36585 -0.00229
C 17.20025 29.76786 -0.01199
C 18.43982 30.54907 -0.009
C 18.46184 31.91385 -0.00285
C 17.15608 32.6384 0.01423
C 14.76491 34.04641 0.02555
C 16.07155 0.7145 0.03102
C 15.99242 2.14818 0.00135
C 14.83038 2.90498 -0.00498
C 14.71756 4.37366 0.02737
C 15.94246 27.74385 0.02117
C 14.73872 28.33583 -0.04078
C 14.76317 29.79539 0.03005
C 15.99476 30.57855 -0.0276
C 15.96976 31.93219 0.00768
C 14.71027 32.64504 -0.00178
C 12.26488 0.02457 0.00733
C 13.53268 0.68892 -0.02118
C 13.5922 2.20081 -0.01971
C 12.32185 2.79739 -0.01586
C 12.31055 4.25762 -0.01107
C 13.46197 6.42082 -0.00225
C 8.64385 0.65274 -0.00865
C 8.568 2.12052 0.0058
C 7.38044 2.82767 -0.00652
C 4.92959 28.34708 -0.00066
C 4.9419 29.77892 0.00213
C 6.13371 30.58054 -0.05302
C 6.10804 31.96471 -0.04147
C 4.8745 32.67167 -0.02815
C 2.39991 0.03056 0.03505
C 3.67679 0.7555 0.01443
C 3.6632 2.14731 0.00979
C 2.48447 2.8248 -0.00481
C 2.46958 4.27287 0.00889
C 3.70642 5.01197 -0.02162
C 3.65802 6.45412 -0.00619
C 2.53606 7.07308 0.01848
C 2.48147 17.06962 0.02098
C 3.63547 17.66143 -0.03113
C 3.6716 19.11713 0.0351
C 2.43188 19.88252 0.00422
C 2.49268 21.33357 0.00798
C 3.65977 22.01935 0.00228
C 3.65588 23.4393 -0.00114
C 2.41672 24.14381 -0.02696
C 2.45009 25.54643 -0.00368
C 3.63741 26.27209 -0.0108
C 3.68414 27.70343 -0.01957
C 2.49798 28.37389 0.02058
C 2.44125 29.81014 0.01965
C 3.69598 30.47074 -0.03682
C 6.11644 27.66557 -0.00289
C 6.17474 26.25043 0.00028
C 4.89022 25.5414 -0.02213
C 4.93698 24.12642 0.03698
C 7.4375 4.29454 -0.04076
C 8.58361 4.99434 -0.00703
C 8.63472 17.7513 0.00654
C 8.58325 19.1697 -0.04422
C 7.33931 19.90473 -0.02957
C 7.39801 21.35197 -0.00831
C 8.64612 21.9709 0.00364
C 8.58057 23.44093 -0.017
C 7.34596 24.15107 0.00143
C 7.35724 25.55524 0.00667
C 8.60925 26.26819 -0.0054
C 8.60236 27.73332 0.00755
C 7.39315 28.34693 0.01739
C 19.6894 29.87947 0.00367
C 7.39915 29.83745 0.03754
C 8.62051 31.96176 -0.00111
C 7.3297 32.71766 0.04892
C 4.93608 0.02971 0.01452
C 6.1492 0.69717 -0.01581
C 6.13439 2.14169 0.02691
C 4.89028 2.8636 -0.01979
C 4.96352 4.22085 0.02188
C 6.17653 5.00733 -0.00316
C 6.13712 19.1483 -0.0331
C 5.00084 19.84195 -0.0258
C 4.91244 21.28309 0.03338
C 6.08177 21.97056 -0.00491
C 6.11756 23.48494 -0.00109
C 8.60838 30.53367 -0.03557
C 3.71239 31.91939 0.00052
C 19.6732 28.42833 0.04306
C 20.96672 0.68644 0.00195
C 33.17917 2.08904 0.0001
C 32.00819 2.80065 -0.00841
C 31.8913 4.19508 -0.00323
C 33.18329 5.05383 0.00349
C 33.1716 6.44085 -0.03838
C 31.92111 7.13038 0.04926
C 32.01885 8.56568 -0.00069
C 33.16517 9.17161 0.01504
C 33.29914 10.66024 0.02806
C 31.98583 12.83936 0.04381
C 33.18012 13.51087 0.00199
C 33.15569 14.90801 0.00137
C 31.93301 15.55686 -0.01839
C 31.94761 16.99485 -0.00644
C 33.25903 17.73529 0.00455
C 33.22253 19.12033 0.00369
C 31.98524 19.91513 -0.02474
C 31.97345 21.36667 0.00594
C 33.17152 22.01907 -0.0136
C 33.26611 23.42098 -0.01429
C 32.05241 24.14556 -0.02383
C 32.00414 25.59097 0.01574
C 33.17173 26.17117 0.01927
C 33.19443 27.66978 0.03794
C 31.93221 28.40653 -0.01779
C 31.90734 29.76484 0.00682
C 33.20124 30.52428 0.00026
C 33.18905 0.72608 -0.02927
C 33.20811 31.97347 0.0544
C 32.00301 34.02149 -0.01404
C 1.20992 31.98109 0.01831
C 1.23023 0.74023 -0.00468
C 1.27336 2.15765 -0.00939
C 34.42677 2.81672 -0.00931
C 0.00435 4.24535 -0.0345
C 1.25681 4.98574 0.00628
C 1.21254 6.38622 0.02931
C 34.39052 7.13605 -0.02849
C 0.06527 8.5185 -0.02302
C 1.23243 9.26374 -0.00583
C 34.38563 11.43476 -0.00027
C 0.02359 12.83291 -0.02442
C 1.16549 14.96733 -0.02656
C 34.42539 15.64692 0.00343
C 0.00756 17.05317 -0.02957
C 1.16683 17.73093 0.02114
C 1.23679 19.18794 0.00648
C 0.01618 19.85605 0.01223
C 0.01859 21.28677 -0.01678
C 1.20382 22.05739 0.01951
C 1.18681 23.48006 -0.02213
C 0.00747 24.16513 0.02712
C 34.37686 25.56224 0.00723
C 1.17843 26.31673 0.03076
C 1.23218 27.67341 -0.05239
C 0.02282 28.38463 -0.00598
C 34.38673 29.85625 -0.00439
C 1.19831 30.55684 -0.01037
C 0.0511 32.72464 0.01027
C 32.00112 32.60007 -0.02142
C 29.51568 0.01837 0.01428
C 30.70376 0.69376 -0.01694
C 27.06115 28.39183 0.01177
C 27.02327 29.84551 -0.00416
C 28.19974 30.51892 0.01699
C 28.23917 31.94568 0.01799
C 27.02489 32.60519 0.01259
C 24.58459 0.05675 0.01495
C 25.77506 0.71612 0.00235
C 25.91573 2.18467 0.01094
C 25.83422 23.39575 0.02198
C 24.5712 25.5939 0.02611
C 25.82402 26.29186 -0.00621
C 25.86057 27.69091 0.00194
C 24.6222 28.42949 0.04185
C 24.57087 29.79446 0.02316
C 25.81017 30.53803 0.01257
C 25.7985 31.94755 0.00152
C 24.52374 32.72099 -0.00294
C 22.17239 0.02276 0.00826
C 23.37478 0.6408 0.00487
C 23.47416 26.21315 -0.00942
C 23.34994 27.69163 -0.02815
C 22.11671 28.41629 0.00622
C 22.16661 29.83133 -0.0032
C 23.35529 30.51638 -0.00037
C 23.34676 31.94499 -0.01654
C 22.11289 32.68563 -0.00218
C 19.72846 0.08994 -0.00802
C 28.30437 27.60915 0.04266
C 28.32017 26.22028 0.01324
C 27.07241 25.57693 0.0014
C 27.03446 24.15354 0.00924
C 30.73547 2.07071 0.01713
C 29.46188 2.85122 0.00346
C 29.58289 4.17472 0.00307
C 30.67385 4.92703 0.00716
C 30.73114 6.4225 0.02108
C 30.69959 17.72433 0.0103
C 30.71457 19.19602 0.07705
C 29.49209 19.88506 0.01908
C 29.53291 21.25004 0.01518
C 30.75851 22.01077 -0.00971
C 30.76948 23.48393 -0.03735
C 29.57453 24.1098 -0.00944
C 29.52652 25.48277 -0.02155
C 20.91651 27.71303 0.00996
C 30.77971 26.25022 -0.01461
C 29.5005 28.39013 -0.0405
C 29.5175 29.79612 0.01705
C 30.72654 30.53445 0.0101
C 30.73514 31.94965 -0.00669
C 29.5311 32.71574 0.03531
C 27.05285 0.00026 0.01836
C 28.33626 0.77635 -0.03039
C 28.23653 2.18467 -0.01415
C 27.01184 2.82553 -0.01854
C 28.29163 19.11277 -0.02049
C 27.10606 21.33241 0.03265
C 28.29596 21.98364 0.00261
C 28.27431 23.36995 0.02326
C 30.74079 27.71596 -0.01303
C 2.45984 32.66463 0.00374
