364
Graphene
C 34.41256 0.04205 0.01295
C 9.87167 11.38707 0.00052
C 11.01817 10.65694 -0.03682
C 11.10277 9.19927 0.01965
C 9.85014 8.4557 0.02058
C 9.79877 7.11335 -0.01957
C 11.05142 6.47125 -0.0108
C 11.03258 4.99773 -0.00368
C 9.8146 4.3097 -0.02696
C 9.82016 12.75509 0.00374
C 9.79361 2.87557 -0.00114
C 11.04015 0.80075 0.00798
C 9.83969 34.03452 0.00422
C 12.26593 32.68908 0.0351
C 13.5613 31.94658 -0.03113
C 13.39971 30.58498 0.02098
C 12.21454 29.80526 0.01848
C 12.31213 28.30099 -0.00619
C 13.3521 27.31101 -0.02162
C 11.04228 2.1239 0.00228
C 11.01854 13.4906 -0.02813
C 11.02375 14.92061 -0.01952
C 9.85336 15.60165 0.05265
C 8.61101 2.12863 0.02894
C 8.57502 0.70363 -0.01789
C 7.39621 0.08915 0.00444
C 9.82806 32.70138 -0.00925
C 11.02548 31.99063 0.01877
C 11.01064 30.54159 0.01363
C 9.72796 29.88462 -0.02162
C 9.73679 28.43894 0.00415
C 10.99943 27.71801 -0.0014
C 10.99611 26.24542 0.02162
C 9.71551 25.52738 0.0076
C 9.8152 24.16403 0.01241
C 11.14934 23.43353 -0.01454
C 11.20869 22.09926 0.01945
C 9.94679 21.44074 0.01416
C 9.96652 19.92962 0.03542
C 11.13397 19.1426 0.02299
C 11.16367 17.77368 0.00244
C 9.8994 17.03742 -0.01717
C 12.16799 25.55973 0.00889
C 12.38192 19.82364 -0.00481
C 13.66479 17.64227 0.00979
C 12.39025 17.00864 0.01443
C 14.64289 12.8039 -0.03557
C 14.74312 11.40907 0.03754
C 15.95218 10.62789 0.01739
C 15.95374 9.16897 0.00755
C 14.73807 8.54021 -0.0054
C 14.76907 7.18439 0.00667
C 15.97612 6.32378 0.00143
C 15.92135 4.95422 -0.017
C 14.73 4.2587 0.00364
C 14.74998 2.81748 -0.00831
C 15.91529 2.09387 -0.02957
C 15.96134 0.68482 -0.04422
C 14.82068 34.00998 0.00654
C 17.21578 32.60572 -0.00703
C 18.36576 31.81887 -0.04076
C 18.30755 13.39608 -0.00652
C 17.12359 12.72292 0.0058
C 17.18365 11.28436 -0.00865
C 18.4134 10.67602 0.00675
C 15.87532 13.52461 -0.00111
C 7.35666 2.87539 -0.02971
C 15.74122 15.02275 0.04892
C 14.7883 29.95509 -0.01581
C 12.17418 15.61158 0.03505
C 13.40987 14.97154 -0.02815
C 13.42907 13.50515 -0.04147
C 12.26283 12.79165 -0.05302
C 12.31857 11.37635 0.00213
C 13.55055 10.65921 -0.00066
C 13.54827 9.24861 -0.00289
C 12.33376 8.52743 0.00028
C 12.3006 7.0995 -0.02213
C 13.47055 6.37437 0.03698
C 13.49546 4.94074 -0.00109
C 12.30261 4.23898 -0.00491
C 12.2316 2.80979 0.03338
C 13.48685 2.09692 -0.0258
C 13.55292 0.7061 -0.0331
C 12.28525 0.03368 -0.00316
C 14.76132 32.5983 0.02188
C 16.02755 31.86612 -0.01979
C 15.85144 30.44589 0.02691
C 14.71957 15.68384 0.01452
C 18.42128 9.21363 -0.00311
C 7.38763 4.3091 0.00165
C 8.54428 6.42047 -0.00891
C 3.63995 6.48311 -0.01303
C 3.62504 5.05554 -0.01378
C 2.4115 4.30906 0.02635
C 2.35654 2.90603 0.0127
C 3.63266 2.13156 0.01396
C 3.6103 0.76735 0.01849
C 2.38881 0.0657 -0.01142
C 4.82205 32.71253 -0.00562
C 2.48835 7.16848 0.00848
C 6.06571 32.02138 -0.00494
C 4.89621 29.90894 0.03007
C 4.91905 28.44876 -0.00095
C 6.14439 27.70287 0.01572
C 6.10796 26.31291 -0.04848
C 4.8549 25.56473 -0.00892
C 4.94419 24.20169 -0.01362
C 6.18179 23.47235 -0.0008
C 6.24815 21.99647 0.0288
C 6.09024 30.6273 0.00054
C 2.47398 8.65281 -0.00049
C 3.6868 9.3003 0.00873
C 3.64974 10.74731 0.01227
C 3.63501 30.61362 0.0086
C 2.44063 29.80326 -0.00643
C 2.42275 28.40801 0.017
C 3.67661 27.79417 -0.03113
C 3.68037 26.35996 -0.02566
C 2.40782 25.60085 -0.00094
C 2.47611 24.13782 0.02322
C 3.71978 23.4919 -0.00725
C 3.6771 22.05208 -0.05697
C 2.46842 21.2984 0.01087
C 2.48181 19.91674 -0.01343
C 3.72733 19.19986 0.00988
C 3.71028 17.79889 0.0276
C 2.50676 17.11247 0.01305
C 2.43951 15.63625 -0.00077
C 3.70095 14.98742 0.03368
C 3.64126 13.55925 -0.02929
C 2.39991 12.83626 -0.00966
C 2.43733 11.44926 -0.03337
C 4.9208 21.30315 0.00393
C 4.95637 19.95542 0.00895
C 6.22806 19.23966 0.00685
C 6.27019 17.79578 0.02888
C 8.62008 26.34446 -0.01062
C 7.38717 25.58332 -0.00033
C 7.38357 24.1607 0.03589
C 8.65888 23.46908 -0.02759
C 8.70083 22.06627 0.0402
C 7.51387 21.2912 0.00572
C 7.4726 19.91567 0.03592
C 8.65783 19.17686 0.00406
C 8.67498 17.76099 0.00943
C 7.50048 17.02094 0.02841
C 7.39545 15.69238 -0.01111
C 8.57979 14.87799 -0.01275
C 8.57335 13.53484 0.00985
C 7.2973 12.7999 -0.02245
C 7.29541 11.30091 -0.00428
C 8.57301 10.63186 0.03101
C 8.60948 9.23402 -0.01536
C 7.35038 8.57908 -0.02689
C 7.35032 7.10888 -0.01046
C 8.52065 27.80066 0.01364
C 8.63993 5.05256 0.02819
C 7.34252 28.46161 -0.00719
C 8.54927 30.62392 0.02339
C 5.00313 17.11314 -0.00482
C 4.96666 15.73202 -0.01384
C 6.1269 14.92665 0.03693
C 6.07134 13.55659 0.01745
C 4.90956 12.81478 0.00488
C 4.89814 11.47703 -0.01004
C 6.07631 10.64502 -0.02896
C 6.13306 9.21358 -0.00131
C 4.83145 8.56187 -0.01118
C 4.89322 7.11838 -0.014
C 6.13805 6.46075 0.02147
C 6.073 5.03511 0.00373
C 4.85192 4.37503 -0.00191
C 4.83043 2.87394 0.00438
C 6.13551 2.1885 0.01291
C 6.09536 0.78877 0.00093
C 4.84155 0.08697 0.00057
C 7.36257 32.73169 -0.01634
C 8.55513 32.03884 -0.00334
C 7.34715 29.9127 0.01641
C 17.19148 8.46207 0.00742
C 17.24722 7.01552 -0.01594
C 18.42406 6.39016 0.0106
C 29.46343 0.0191 0.00346
C 31.93598 32.78616 0.01713
C 33.15125 31.98522 -0.01694
C 33.16179 30.59741 0.01428
C 31.87738 29.87054 -0.02142
C 31.90278 28.40149 0.0544
C 33.07488 27.72926 0.00026
C 33.12981 26.28978 0.00682
C 30.67296 0.77082 0.00307
C 31.8974 25.59112 -0.01779
C 33.20797 23.47239 0.01927
C 33.23711 21.96488 0.01574
C 32.05844 21.29739 -0.02383
C 32.0324 19.82719 -0.01429
C 33.27639 19.15728 -0.0136
C 33.22886 17.77584 0.00594
C 32.00124 17.05796 -0.02474
C 31.92227 15.64276 0.00369
C 31.98012 24.21413 0.03794
C 30.67753 2.19124 0.00716
C 29.36291 2.75489 0.02108
C 29.47165 4.26164 0.0103
C 29.54866 24.05355 -0.02049
C 30.76367 23.44043 -0.01854
C 30.82687 22.00163 -0.01415
C 29.46668 21.49513 -0.03039
C 29.54641 20.03544 0.01836
C 30.73977 19.27798 0.03531
C 30.74224 17.84813 -0.00669
C 29.52118 17.08143 0.0101
C 29.53241 15.69003 0.01705
C 30.74595 14.943 -0.0405
C 30.70058 13.46769 -0.01303
C 29.51855 12.7956 -0.01461
C 29.54586 11.38795 -0.02155
C 30.75151 10.67259 -0.00944
C 30.76854 9.17573 -0.03735
C 29.50742 8.55146 -0.00971
C 29.53278 7.05056 0.01518
C 30.73795 6.3758 0.01908
C 30.72753 5.00108 0.07705
C 33.13492 14.91944 0.00455
C 33.15139 13.52652 -0.00644
C 31.92185 12.82591 -0.01839
C 31.97777 11.29669 0.00137
C 0.10304 19.89306 0.01951
C 1.26649 19.2498 -0.01678
C 1.29975 17.80047 0.01223
C 0.00265 17.013 0.00648
C 34.41396 15.68698 0.02114
C 1.23615 14.95803 -0.02957
C 1.14728 13.50404 0.00343
C 34.42122 12.74816 -0.02656
C 34.43111 11.35487 -0.02442
C 1.19637 10.67182 -0.00027
C 1.1678 9.2817 -0.00583
C 34.34106 8.45884 -0.02302
C 0.02251 7.10729 -0.02849
C 1.22649 6.47729 0.02931
C 1.18422 5.03019 0.00628
C 34.38899 4.31625 -0.0345
C 34.40889 2.93265 -0.00931
C 1.18473 2.19804 -0.00939
C 1.17167 0.73359 -0.00468
C 0.0286 21.27907 -0.02213
C 29.34818 25.44992 0.03265
C 1.26053 22.06935 0.02712
C 34.39617 24.13367 0.03076
C 33.1604 10.63233 0.00199
C 33.15775 9.19962 0.04381
C 32.01484 8.51718 0.02806
C 31.9831 7.06871 0.01504
C 33.1796 6.38171 -0.00069
C 33.20449 4.96269 0.04926
C 31.98573 4.33044 -0.03838
C 31.94596 2.83075 0.00349
C 33.15059 2.17409 -0.00323
C 33.15009 0.72266 -0.00841
C 31.90102 0.05639 0.0001
C 34.40982 32.67672 -0.02927
C 1.15662 31.92471 -0.01404
C 1.12172 30.5258 0.01027
C 34.38437 29.85024 0.01831
C 34.32779 28.34098 -0.01037
C 1.11038 27.68506 -0.00439
C 1.13185 26.3088 -0.00598
C 34.41909 25.62005 -0.05239
C 1.23922 23.50451 0.00723
C 30.57837 26.27218 0.00261
C 30.59701 27.65332 0.02326
C 29.4071 28.40846 0.00924
C 23.44922 31.8501 -0.0055
C 23.47246 14.79867 0.01515
C 23.27649 13.38029 -0.00225
C 22.00657 12.72951 0.00071
C 22.06386 11.2653 -0.01107
C 23.34192 10.64228 -0.01586
C 23.3729 9.13774 -0.01971
C 22.16864 8.48273 -0.02118
C 22.12947 7.05904 0.00733
C 23.34866 6.31881 -0.00178
C 23.3633 4.92357 0.00768
C 22.09674 4.17618 -0.0276
C 22.01591 2.77338 0.03005
C 23.25123 2.10893 -0.04078
C 23.21087 0.60163 0.02117
C 22.05015 33.96101 0.02737
C 24.52511 32.72298 -0.00498
C 25.83125 32.00157 0.00135
C 25.72906 30.63199 0.03102
C 22.11809 32.48383 0.02734
C 24.63677 15.33776 0.02555
C 19.5669 33.88163 0.01153
C 20.79809 1.99017 -0.03213
C 18.36076 4.90625 -0.01154
C 17.16623 4.15531 -0.01721
C 17.11009 2.7638 -0.02422
C 18.35574 2.1086 0.01277
C 18.37012 0.63025 0.00096
C 17.11385 34.02532 -0.01527
C 19.59395 32.45267 0.01087
C 20.90315 32.06225 0.00199
C 20.85943 13.33139 0.01511
C 19.50782 12.8059 -0.00478
C 19.53331 11.37229 -0.01662
C 20.83357 10.6232 -0.01185
C 20.90272 9.17215 0.01126
C 19.69303 8.43915 0.01852
C 19.72547 7.00049 -0.00381
C 20.96875 6.30299 0.03046
C 20.90668 4.8847 0.0296
C 19.6474 4.19204 0.03374
C 19.62786 2.77632 -0.02845
C 20.79903 0.54832 0.02239
C 3.61878 31.96852 -0.00518
C 25.98731 14.88701 0.01423
C 24.58241 12.73631 -0.009
C 28.38659 14.8938 0.00152
C 28.28655 13.52768 0.01257
C 27.07242 12.75294 0.02316
C 27.0917 11.38438 0.04185
C 28.29612 10.61868 0.00194
C 28.32503 9.2158 -0.00621
C 27.12147 8.53065 0.02611
C 27.04772 7.11121 0.02198
C 28.27734 6.36922 0.01094
C 28.25061 4.92923 0.00235
C 26.98036 4.26371 0.01495
C 26.9275 2.9165 0.01259
C 28.14608 2.13533 0.01799
C 28.19479 0.74702 0.01699
C 26.95903 0.02686 -0.00416
C 29.51667 32.70985 0.01177
C 30.67708 32.03063 0.04266
C 30.66743 30.57074 0.01324
C 29.39691 29.84159 0.0014
C 27.15743 15.64014 -0.00294
C 25.84909 13.48089 -0.00285
C 26.99393 17.01088 0.00826
C 28.49841 19.12591 -0.00942
C 24.58933 11.33989 -0.01199
C 25.73471 10.66483 -0.00229
C 25.83373 9.30269 -0.00938
C 24.58131 8.45128 -0.0264
C 24.68416 7.08803 -0.01154
C 25.76183 6.4361 0.00684
C 25.73879 5.00746 -0.01052
C 24.56447 4.26329 -0.01679
C 24.49894 2.84311 0.00367
C 25.73444 2.14202 0.04306
C 25.72725 0.69185 0.00996
C 24.46334 0.06897 0.00195
C 27.08014 32.72777 -0.00802
C 28.18199 31.99744 -0.00218
C 28.14503 30.56614 -0.01654
C 26.88156 29.76463 -0.00037
C 26.94036 28.29776 -0.0032
C 28.17892 27.71507 0.00622
C 28.29109 26.30216 -0.02815
C 28.22084 17.76877 0.00487
C 2.3761 32.73805 -0.00074
