326
Graphene
C 34.35145 34.06086 0.01295
C 13.35571 31.93419 0.00213
C 13.51771 30.43992 -0.00066
C 12.26054 29.80717 -0.00289
C 12.25687 28.45281 0.00028
C 13.5165 27.74101 -0.02213
C 13.48081 26.30204 0.03698
C 12.29571 25.59385 -0.00109
C 12.21686 32.72326 -0.05302
C 12.30246 24.1792 -0.00491
C 13.33973 22.0098 -0.0258
C 11.97009 21.24085 -0.0331
C 12.17083 19.88802 -0.00316
C 13.44535 19.04106 0.02188
C 13.46474 17.53077 -0.01979
C 13.38698 15.00423 0.02691
C 13.24596 13.57601 -0.01581
C 13.51368 23.41698 0.03338
C 12.19736 12.71275 0.01452
C 9.73834 0.05109 -0.04147
C 11.01233 2.24232 0.03505
C 11.03639 27.7002 -0.00368
C 11.03343 26.38162 -0.02696
C 9.91976 25.60306 -0.00114
C 9.96272 24.2278 0.00228
C 11.00582 23.46876 0.00798
C 10.72251 22.02415 0.00422
C 10.6286 12.8398 0.0351
C 10.99754 0.82572 -0.02815
C 9.97684 11.59077 -0.03113
C 11.00112 9.19829 0.01848
C 9.72029 8.54275 -0.00619
C 9.76906 7.06082 -0.02162
C 11.04226 6.41362 0.00889
C 10.9966 4.94395 -0.00481
C 9.74523 4.23999 0.00979
C 9.7422 2.86678 0.01443
C 11.03425 10.58483 0.02098
C 12.16397 11.26521 0.04892
C 13.41739 10.74744 -0.00111
C 13.49741 9.28172 -0.03557
C 14.73733 19.86177 0.0106
C 16.09844 19.13958 -0.01154
C 16.01073 17.67016 -0.01721
C 14.68265 16.97965 -0.02422
C 14.79712 15.5617 0.01277
C 15.9828 14.85025 0.00096
C 15.88119 13.40977 -0.01527
C 14.5936 21.2531 -0.01594
C 14.54963 12.85886 0.01087
C 15.79727 10.69546 0.01511
C 15.94261 9.22847 -0.00478
C 14.69484 8.5889 -0.01662
C 14.74421 7.10436 -0.01185
C 15.93936 6.28404 0.01126
C 15.91094 4.90755 0.01852
C 14.58079 4.21033 -0.00381
C 14.61391 11.4202 0.00199
C 15.87107 21.94587 0.00742
C 15.86439 23.35374 -0.00311
C 14.66564 24.12332 0.00675
C 12.36781 8.5542 0.03754
C 12.27255 7.14246 0.01739
C 13.46144 6.4658 0.00755
C 13.40087 5.01757 -0.0054
C 12.21285 4.23845 0.00667
C 12.3009 2.85566 0.00143
C 13.52476 2.10837 -0.017
C 13.47901 0.69633 0.00364
C 12.21487 0.02143 -0.00831
C 14.68956 32.665 -0.02957
C 15.91193 31.9164 -0.04422
C 15.94125 30.47475 0.00654
C 14.71595 29.78852 -0.00703
C 14.74819 28.4237 -0.04076
C 15.90201 27.67511 -0.00652
C 15.93441 26.21305 0.0058
C 14.68911 25.60056 -0.00865
C 9.82346 28.41369 -0.0108
C 9.86417 29.82618 -0.01957
C 11.04345 30.55743 0.02058
C 11.01962 31.97968 0.01965
C 2.38944 7.1131 0.01291
C 3.57814 6.28054 0.00093
C 3.63246 4.92659 0.00057
C 2.46105 4.31186 -0.01634
C 2.43044 2.90638 -0.00334
C 3.59893 2.1475 0.02339
C 3.6545 0.7053 0.01641
C 2.40447 8.56801 0.00438
C 2.42906 34.05055 -0.00719
C 6.0971 31.92821 -0.01062
C 6.10568 30.57224 -0.00033
C 4.87952 29.88419 0.03589
C 4.88025 28.43948 -0.02759
C 6.16995 27.6767 0.0402
C 6.12924 26.28889 0.00572
C 4.87525 25.57493 0.03592
C 4.87396 32.67086 0.01364
C 3.60709 9.19392 -0.00191
C 3.57613 10.71431 0.00373
C 2.43956 11.437 0.02147
C 3.68742 30.53158 -0.01362
C 2.46159 29.89658 -0.0008
C 2.40433 28.4964 0.0288
C 3.64218 27.74336 0.00393
C 3.60054 26.34558 0.00895
C 2.36764 25.61502 0.00685
C 2.37207 24.18721 0.02888
C 3.58315 23.49955 -0.00482
C 3.59852 22.05608 -0.01384
C 2.37156 21.23076 0.03693
C 2.36402 19.78982 0.01745
C 3.1968 18.53598 0.00488
C 2.58756 17.48167 -0.01004
C 2.62097 15.87614 -0.02896
C 3.70254 15.00509 -0.00131
C 3.88233 13.62434 -0.01118
C 2.59508 12.92565 -0.014
C 4.86111 24.1473 0.00406
C 14.77211 2.89061 0.03046
C 6.16817 23.41864 0.00943
C 4.84075 21.45312 -0.01111
C 7.50487 24.1043 0.02162
C 8.85584 23.33865 0.0076
C 9.42531 22.0209 0.01241
C 7.28354 11.4738 -0.01454
C 8.54318 10.99083 0.01945
C 8.60809 9.34018 0.01416
C 7.38516 8.53906 0.03542
C 7.49796 25.52147 -0.0014
C 7.3784 7.23654 0.02299
C 8.48916 4.90439 -0.01717
C 7.25438 4.25113 0.05265
C 7.2383 2.82905 -0.01952
C 8.47892 2.15805 -0.02813
C 8.54441 0.73078 0.00374
C 7.31954 34.06317 0.00052
C 9.84117 32.68778 -0.03682
C 8.55617 6.42802 0.00244
C 8.65008 26.21197 0.00415
C 8.58723 27.66235 -0.02162
C 7.39734 28.37839 0.01363
C 5.06924 12.6031 -0.01275
C 4.96728 11.25357 0.00985
C 6.13644 10.53789 -0.02245
C 6.10976 9.18297 -0.00428
C 4.86667 8.45042 0.03101
C 4.82874 7.13771 -0.01536
C 6.12198 6.42377 -0.02689
C 6.07883 4.92771 -0.01046
C 4.87463 4.2452 -0.00891
C 4.88169 2.79882 0.02819
C 6.12107 2.05466 0.00165
C 6.08815 0.68923 -0.02971
C 4.85897 0.0213 0.02894
C 7.38425 32.59176 -0.01789
C 8.61514 31.90505 0.00444
C 8.60386 30.53001 -0.00925
C 7.3464 29.89813 0.01877
C 6.05882 22.00685 0.02841
C 15.98193 2.19808 0.0296
C 15.94669 0.78981 0.03374
C 14.72249 0.00814 -0.02845
C 31.88031 29.8589 0.00682
C 31.88297 28.47578 -0.01779
C 33.14971 27.86821 0.03794
C 33.13903 26.42098 0.01927
C 32.00174 25.71889 0.01574
C 32.00661 24.39703 -0.02383
C 33.09745 23.54173 -0.01429
C 33.17318 30.62445 0.00026
C 33.13202 22.06939 -0.0136
C 31.7229 19.99466 -0.02474
C 33.0459 19.29209 0.00369
C 33.23599 17.84804 0.00455
C 32.04221 17.03763 -0.00644
C 32.0305 15.65642 -0.01839
C 33.38377 14.90552 0.00137
C 33.33668 13.47159 0.00199
C 31.90618 21.41012 0.00594
C 33.02193 32.04369 0.0544
C 31.87489 32.65695 -0.02142
C 29.44852 0.00284 0.01428
C 28.30569 13.38923 -0.0405
C 27.07735 12.75388 -0.01303
C 28.16494 0.59305 -0.01461
C 26.94102 0.0334 -0.02155
C 29.43535 32.61064 -0.00944
C 30.69481 31.93001 -0.03735
C 30.78329 30.54514 -0.00971
C 29.37972 29.99604 0.01518
C 30.57638 19.14576 0.01908
C 30.75351 17.67596 0.07705
C 29.51133 17.06351 0.0103
C 29.49224 15.62883 0.02108
C 30.74286 14.98527 0.00716
C 30.87237 13.56465 0.00307
C 29.67352 12.82802 0.00346
C 30.8704 2.11032 0.01713
C 30.62853 0.71156 -0.01694
C 32.04858 12.90034 0.04381
C 28.28681 14.90797 0.01705
C 31.86142 11.54473 0.02806
C 33.14687 9.24192 -0.00069
C 0.03892 17.16977 0.00648
C 0.06479 15.76376 0.02114
C 1.32136 15.11333 -0.02957
C 1.38207 13.59546 0.00343
C 0.10392 12.82679 -0.02656
C 34.37886 11.33876 -0.02442
C 1.19844 10.68769 -0.00027
C 1.1191 17.98263 0.01223
C 1.22348 9.28935 -0.00583
C 34.37162 7.07701 -0.02849
C 1.20301 6.44234 0.02931
C 1.19363 5.03453 0.00628
C 34.40593 4.21788 -0.0345
C 34.39813 2.69293 -0.00931
C 1.24138 2.08351 -0.00939
C 1.22299 0.61465 -0.00468
C 34.33129 8.68157 -0.02302
C 1.0152 19.29644 -0.01678
C 34.25541 19.95822 0.01951
C 34.36518 21.36172 -0.02213
C 33.19783 6.36437 0.04926
C 33.21241 4.93194 -0.03838
C 31.95411 2.83684 0.00349
C 33.09519 2.11178 -0.00323
C 33.09697 0.64944 -0.00841
C 31.85485 0.02522 0.0001
C 34.30883 32.7367 -0.02927
C 1.16487 32.01363 -0.01404
C 1.16678 30.63383 0.01027
C 34.41989 29.95521 0.01831
C 34.38857 28.57401 -0.01037
C 1.17086 27.7979 -0.00439
C 1.2134 26.36566 -0.00598
C 34.38533 25.65279 -0.05239
C 34.39229 24.23439 0.03076
C 1.15 23.47987 0.00723
C 1.14367 22.01678 0.02712
C 32.99006 10.70982 0.01504
C 3.64941 31.98662 -0.00892
C 27.08116 15.7472 0.0101
C 28.39684 17.9265 0.03531
C 18.38235 10.55742 0.00135
C 18.44958 9.10605 0.03102
C 17.16685 8.43843 0.02555
C 17.19684 6.89286 0.01423
C 17.12975 4.27987 -0.00285
C 17.30376 2.90299 -0.009
C 18.38748 2.10818 -0.01199
C 17.05017 11.2529 -0.00498
C 18.44979 0.78365 -0.00229
C 19.52355 32.5563 -0.0264
C 20.76205 31.8828 -0.01154
C 20.96079 30.44623 0.00684
C 19.80026 29.72409 -0.01052
C 19.59727 28.36033 -0.01679
C 19.6677 21.24285 0.00367
C 19.80573 19.89724 0.04306
C 17.16058 0.01974 -0.00938
C 17.06151 12.69111 0.02737
C 18.3875 13.40838 0.02117
C 18.44022 14.83628 -0.04078
C 17.10506 32.66107 -0.03213
C 18.30045 31.94868 0.02239
C 18.36948 30.52327 0.01153
C 17.14722 29.75402 0.02734
C 17.15078 28.36484 -0.0055
C 18.48258 27.55239 0.01515
C 18.39377 26.11411 -0.00225
C 17.1795 25.54084 0.00071
C 17.11028 24.11635 -0.01107
C 18.3772 23.62789 -0.01586
C 18.56699 22.1623 -0.01971
C 17.26203 21.34993 -0.02118
C 17.30448 19.91372 0.00733
C 18.55315 19.13059 -0.00178
C 18.45807 17.66962 0.00768
C 17.22178 16.91198 -0.0276
C 17.27435 15.54396 0.03005
C 21.02786 18.98548 0.00996
C 27.03659 17.19939 -0.00669
C 20.93398 17.63971 0.00195
C 19.68474 15.47317 -0.00218
C 24.50224 32.43199 0.01799
C 25.78051 32.02594 0.01699
C 25.83153 17.76931 -0.00416
C 24.576 17.10063 0.01177
C 24.54536 15.67501 0.04266
C 25.8289 15.06551 0.01324
C 25.84657 13.54059 0.0014
C 22.14053 0.43015 0.01259
C 24.57731 12.86879 0.00924
C 24.18286 2.64768 0.00261
C 25.31245 1.94624 0.03265
C 25.64105 0.71661 -0.02049
C 24.54092 33.94244 -0.01854
C 26.99495 32.63541 -0.01415
C 28.15106 31.87565 -0.03039
C 28.27995 30.53405 0.01836
C 24.49607 11.34502 0.02326
C 23.39718 0.78351 0.01495
C 23.50594 10.67064 0.00235
C 22.24573 11.22956 0.01094
C 20.89954 14.78874 -0.01654
C 20.92015 13.36968 -0.00037
C 19.65535 12.69414 -0.0032
C 19.56737 11.23599 0.00622
C 20.86202 10.5626 -0.02815
C 20.79708 9.16598 -0.00942
C 19.63242 8.58878 0.00487
C 20.86741 0.68158 0.00826
C 19.67322 0.02069 -0.00294
C 22.0642 32.54133 0.00152
C 23.23129 31.83795 0.01257
C 23.20421 17.65896 0.02316
C 22.12434 16.88764 0.04185
C 22.09998 15.44034 0.00194
C 23.36323 14.82709 -0.00621
C 23.33835 13.45714 0.02611
C 22.15981 12.69394 0.02198
C 19.70532 16.85533 -0.00802
C 2.37781 32.64992 -0.04848
