372
Graphene
C 34.32661 0.03227 0.01295
C 13.43078 10.59396 0.00244
C 13.51702 9.17812 -0.01717
C 12.11916 8.70481 0.05265
C 12.08289 7.37785 -0.01952
C 13.295 6.44529 -0.02813
C 13.37574 5.09406 0.00374
C 12.21127 4.36737 0.00052
C 12.23895 2.93178 -0.03682
C 13.3986 2.25276 0.01965
C 13.50853 0.81181 0.02058
C 12.21137 0.1078 -0.01957
C 14.75352 32.7123 -0.0108
C 15.9699 31.9504 -0.00368
C 15.96789 30.52067 -0.02696
C 14.78596 29.74866 -0.00114
C 14.78265 28.35074 0.00228
C 16.10372 27.66846 0.00798
C 16.0666 26.2589 0.00422
C 14.72203 25.6005 0.0351
C 12.20812 11.18424 0.02299
C 14.78287 24.04013 -0.03113
C 12.11434 12.68759 0.03542
C 13.43783 14.82351 0.01945
C 11.048 0.84096 -0.02689
C 9.77098 0.14949 -0.01046
C 12.23816 32.70374 -0.00891
C 13.51979 31.99211 0.02819
C 13.50305 30.51919 0.00165
C 12.26593 29.85433 -0.02971
C 12.25559 28.39798 0.02894
C 13.47606 27.67565 -0.01789
C 13.48931 26.22418 0.00444
C 12.30799 25.58008 -0.00925
C 12.29765 24.13398 0.01877
C 13.48286 23.43891 0.01363
C 13.52668 22.00006 -0.02162
C 12.26511 21.31158 0.00415
C 12.25019 19.89282 -0.0014
C 13.51119 19.18076 0.02162
C 13.49374 17.66108 0.0076
C 12.26192 17.01057 0.01241
C 12.25774 15.62714 -0.01454
C 13.37473 13.4069 0.01416
C 16.04314 23.38551 0.02098
C 16.03579 21.95828 0.01848
C 14.7685 21.27432 -0.00619
C 17.3024 28.28508 -0.01581
C 18.51366 27.55088 0.01452
C 18.40596 26.25149 0.04892
C 17.25269 25.46096 -0.00111
C 17.24609 24.06063 -0.03557
C 18.4963 23.47803 0.03754
C 18.58335 21.99469 0.01739
C 17.32929 21.28146 0.00755
C 17.27391 19.8591 -0.0054
C 18.55671 19.14215 0.00667
C 18.44703 17.76663 0.00143
C 17.16358 17.00606 -0.017
C 17.21462 15.62713 0.00364
C 18.46572 14.95978 -0.00831
C 18.41962 13.498 -0.02957
C 17.18198 12.72364 -0.04422
C 17.09708 11.34021 0.00654
C 18.29209 10.56596 -0.00703
C 18.33104 9.1247 -0.04076
C 17.27865 29.79853 0.02691
C 18.52952 30.41854 -0.01979
C 18.44049 31.82169 0.02188
C 17.2013 32.57688 -0.00316
C 14.75307 19.80399 -0.02162
C 15.96158 19.15916 0.00889
C 15.934 17.71535 -0.00481
C 14.68688 16.98178 0.00979
C 14.70819 15.57143 0.01443
C 15.92076 14.81115 0.03505
C 15.86798 13.39651 -0.02815
C 14.66375 12.7209 -0.04147
C 14.68985 11.33317 -0.05302
C 11.03363 2.2727 -0.01536
C 15.85502 10.56557 0.00213
C 14.6328 8.44939 -0.00289
C 14.66229 7.03295 0.00028
C 15.92939 6.31798 -0.02213
C 15.92253 4.95719 0.03698
C 14.67266 4.26909 -0.00109
C 14.6775 2.81907 -0.00491
C 15.93399 2.12833 0.03338
C 15.98018 0.70262 -0.0258
C 14.68631 0.08094 -0.0331
C 15.8483 9.18943 -0.00066
C 17.10377 8.48955 -0.00652
C 10.01514 3.18023 0.03101
C 11.24235 10.11864 -0.02245
C 4.85065 32.78857 0.03368
C 6.17238 32.03653 -0.02929
C 6.12399 30.64289 -0.00966
C 4.87259 29.9097 -0.03337
C 4.79199 28.47108 0.01227
C 6.08261 27.76379 0.00873
C 6.06063 26.37016 -0.00049
C 4.80749 25.66508 0.00848
C 4.87638 24.20645 -0.01303
C 6.10726 23.52489 -0.01378
C 6.21338 22.06962 0.02635
C 4.91035 21.42143 0.0127
C 4.82818 20.01564 0.01396
C 6.08213 19.11113 0.01849
C 6.08975 17.78371 -0.01142
C 4.84643 17.12678 -0.00562
C 4.90228 15.71716 -0.00494
C 5.98739 14.79051 0.00054
C 5.5793 13.45639 0.03007
C 2.38602 0.01525 -0.00077
C 4.73279 2.96101 -0.00095
C 3.59115 0.72128 0.01305
C 2.26709 2.86491 0.00988
C 3.65328 30.6754 0.03828
C 2.40323 29.85605 0.01226
C 2.32825 28.44137 -0.00279
C 3.62871 27.74795 0.01996
C 3.59893 26.30652 -0.03996
C 2.38309 25.64907 0.01465
C 2.39138 24.25593 -0.00074
C 3.61347 23.59171 -0.00518
C 3.60318 22.18081 0.0086
C 2.41596 21.40385 -0.00643
C 2.33453 19.982 0.017
C 3.62817 19.2673 -0.03113
C 3.63586 17.76467 -0.02566
C 2.40152 17.09801 -0.00094
C 2.37674 15.67909 0.02322
C 3.61497 15.04173 -0.00725
C 3.96339 13.60111 -0.05697
C 2.62894 12.95063 0.01087
C 2.45396 4.27213 -0.01343
C 3.5257 2.0806 0.0276
C 6.04404 2.4317 0.01572
C 6.0766 0.91656 -0.04848
C 4.86138 0.09344 -0.00892
C 10.96066 32.05433 -0.01634
C 11.00448 30.58927 -0.00334
C 9.79228 29.8499 0.02339
C 9.84395 28.39641 0.01641
C 11.04596 27.73429 -0.00719
C 11.00838 26.3246 0.01364
C 9.74059 25.64295 -0.01062
C 9.79824 24.1823 -0.00033
C 11.06037 23.55515 0.03589
C 11.06114 22.05981 -0.02759
C 9.79303 21.37923 0.0402
C 9.81259 19.94906 0.00572
C 11.05934 19.17547 0.03592
C 11.09136 17.64779 0.00406
C 9.8054 16.9501 0.00943
C 9.77417 15.59885 0.02841
C 11.02486 14.83945 -0.01111
C 10.99096 13.39311 -0.01275
C 9.71361 12.84376 0.00985
C 9.70794 32.76022 0.00057
C 7.34998 0.29292 0.00093
C 8.53806 0.96371 0.01291
C 8.67147 2.45467 0.00438
C 7.35293 32.87436 -0.01362
C 8.4861 32.08171 -0.0008
C 8.59819 30.55402 0.0288
C 7.40608 29.89228 0.00393
C 7.40753 28.45631 0.00895
C 8.66942 27.75475 0.00685
C 8.56965 26.33943 0.02888
C 7.30504 25.6216 -0.00482
C 7.38895 24.18073 -0.01384
C 10.84481 4.74704 -0.00428
C 8.59827 23.53719 0.03693
C 7.38971 21.37383 0.00488
C 7.30724 19.84754 -0.01004
C 8.55888 19.17539 -0.02896
C 8.5129 17.75744 -0.00131
C 7.34505 17.05867 -0.01118
C 7.36416 15.59699 -0.014
C 8.51766 14.90932 0.02147
C 8.63549 13.54257 0.00373
C 7.35081 2.94511 -0.00191
C 8.54549 22.05908 0.01745
C 17.11111 6.9509 0.0058
C 18.33928 6.31073 -0.00865
C 18.35453 4.88203 0.00675
C 29.46542 11.38313 0.00716
C 30.67944 10.75471 0.00307
C 30.65483 9.32754 0.00346
C 29.49089 8.54199 0.01713
C 29.44816 7.10499 -0.01694
C 30.67944 6.48971 0.01428
C 30.74526 5.0052 -0.02142
C 29.52207 4.37935 0.0544
C 29.45821 2.89576 0.00026
C 30.6836 2.2692 0.00682
C 30.74898 0.75124 -0.01779
C 29.50538 33.99627 0.03794
C 31.92113 32.66981 0.01927
C 33.19205 31.97064 0.01574
C 33.27242 30.60812 -0.02383
C 32.15919 29.497 -0.01429
C 32.70598 28.36797 -0.0136
C 33.12767 19.07781 0.00594
C 33.12377 17.73361 -0.02474
C 29.47352 12.77336 0.02108
C 31.93455 17.01815 0.00369
C 30.7483 13.51624 0.0103
C 29.49892 15.64171 0.01908
C 26.95318 12.78512 0.00261
C 26.99886 11.4208 0.03265
C 28.2054 10.72273 -0.02049
C 28.2249 9.29937 -0.01854
C 26.90998 8.5448 -0.01415
C 26.98212 7.20718 -0.03039
C 28.17277 6.44708 0.01836
C 28.19817 5.02412 0.03531
C 26.99221 4.21665 -0.00669
C 27.00054 2.86804 0.0101
C 28.28102 2.05482 0.01705
C 28.20539 0.61832 -0.0405
C 27.04069 34.00453 -0.01303
C 29.47724 32.55298 -0.01461
C 30.72424 31.88555 -0.02155
C 30.85045 30.27692 -0.00944
C 29.62441 29.77086 -0.03735
C 30.65289 17.67373 -0.00971
C 29.58889 17.06263 0.01518
C 30.80325 14.90862 0.07705
C 32.02281 15.57864 0.00455
C 33.29863 14.90444 -0.00644
C 33.25235 13.44668 -0.01839
C 34.39688 21.32383 0.01951
C 34.21302 19.95328 -0.01678
C 1.1678 19.22389 0.01223
C 1.19318 17.85352 0.00648
C 0.01538 17.05445 0.02114
C 0.05388 15.55067 -0.02957
C 1.25052 14.86282 0.00343
C 1.31724 13.39334 -0.02656
C 0.13019 12.63561 -0.02442
C 34.42169 11.18642 -0.00027
C 0.74726 9.89017 -0.00583
C 0.02688 8.84468 -0.02302
C 0.14326 7.36919 -0.02849
C 1.18786 6.51304 0.02931
C 1.38148 5.12636 0.00628
C 0.0902 4.45675 -0.0345
C 34.34283 2.94529 -0.00931
C 1.09771 2.18009 -0.00939
C 1.15509 0.68791 -0.00468
C 1.15383 22.02048 -0.02213
C 1.12579 23.51441 0.02712
C 34.32629 24.20346 0.00723
C 0.0606 25.54291 0.03076
C 32.01217 12.8517 0.00137
C 31.94019 11.47168 0.00199
C 33.12093 10.78229 0.04381
C 33.1042 9.30166 0.02806
C 31.91793 8.58753 0.01504
C 31.963 7.14963 -0.00069
C 33.2803 6.5873 0.04926
C 33.34358 5.18702 -0.03838
C 32.0638 4.38661 0.00349
C 28.22466 13.4456 0.02326
C 31.95191 3.00397 -0.00323
C 33.17032 0.79088 0.0001
C 31.98525 0.00296 -0.02927
C 34.4056 32.76336 -0.01404
C 1.17949 32.01128 0.01027
C 1.21682 30.556 0.01831
C 0.03107 29.9198 -0.01037
C 34.19049 28.50747 -0.00439
C 1.02903 27.80908 -0.00598
C 1.09893 26.42029 -0.05239
C 33.19175 2.25081 -0.00841
C 28.23507 14.96152 0.00924
C 27.0965 15.72398 0.0014
C 26.95281 17.00077 0.01324
C 19.58117 12.74013 0.02239
C 19.56844 11.2621 0.01153
C 20.83119 10.62307 0.02734
C 20.88666 9.17818 -0.0055
C 19.5542 8.43742 0.01515
C 19.59849 7.02026 -0.00225
C 20.81634 6.3773 0.00071
C 20.79636 4.93353 -0.01107
C 19.59238 4.23006 -0.01586
C 19.57601 2.78164 -0.01971
C 20.80717 2.09524 -0.02118
C 20.9266 0.70309 0.00733
C 19.69942 33.97305 -0.00178
C 22.12791 32.6449 0.00768
C 23.2706 31.92614 -0.0276
C 23.31753 30.4039 0.03005
C 22.11288 29.74175 -0.04078
C 22.17724 28.44665 0.02117
C 21.74963 24.76613 0.02737
C 20.8849 13.42759 -0.03213
C 20.94058 14.88864 -0.02845
C 19.71829 15.62564 0.03374
C 19.66031 17.01341 0.0296
C 17.1703 4.1871 -0.00311
C 17.18916 2.87185 0.00742
C 18.32981 2.0686 -0.01594
C 18.48581 0.66663 0.0106
C 17.21354 34.03094 -0.01154
C 19.67316 32.52087 -0.01721
C 20.92966 31.86324 -0.02422
C 20.94911 30.48203 0.01277
C 19.72141 29.70527 0.00096
C 22.09717 21.32133 -0.00498
C 19.87285 28.21385 -0.01527
C 21.10108 26.01396 0.00199
C 19.73173 25.54511 0.01511
C 19.65983 24.09264 -0.00478
C 20.9463 23.55728 -0.01662
C 21.20308 22.27524 -0.01185
C 19.81305 21.37293 0.01126
C 19.85215 19.95259 0.01852
C 21.01339 19.18335 -0.00381
C 20.88381 17.71463 0.03046
C 21.11691 27.45713 0.01087
C 3.68769 32.0885 0.0174
C 22.29195 19.97475 0.00135
C 23.32937 17.79238 0.02555
C 25.84083 14.99243 0.00826
C 25.78762 13.53145 -0.00294
C 24.54654 12.82076 0.00152
C 24.51751 11.44631 0.01257
C 25.78148 10.70903 0.02316
C 25.69686 9.31571 0.04185
C 24.47219 8.54296 0.00194
C 24.5135 7.10831 -0.00621
C 25.75982 6.33502 0.02611
C 25.73498 4.91626 0.02198
C 24.54103 4.18673 0.01094
C 24.47346 2.80361 0.00235
C 25.75391 2.04954 0.01495
C 25.82925 0.71129 0.01259
C 24.56667 34.03722 0.01799
C 27.03821 32.56785 0.01699
C 28.21969 31.88386 -0.00416
C 28.40546 30.35543 0.01177
C 27.1265 29.83016 0.04266
C 24.64583 15.70225 0.00487
C 24.46824 17.04718 -0.00942
C 25.77932 17.60607 -0.02815
C 24.46849 29.70229 0.00622
C 22.07418 16.95888 0.01423
C 22.15449 15.51931 -0.00285
C 23.37927 14.92523 -0.009
C 23.37405 13.53384 -0.01199
C 22.08357 12.76602 -0.00229
C 22.07444 11.35627 -0.00938
C 23.30396 10.65022 -0.0264
C 23.26613 9.24086 -0.01154
C 22.06773 8.51108 0.00684
C 23.40521 19.17103 0.03102
C 22.0511 7.03677 -0.01052
C 23.26568 4.85134 0.00367
C 22.08247 4.17886 0.04306
C 22.05656 2.77612 0.00996
C 23.31281 2.11346 0.00195
C 23.34989 0.65348 -0.00802
C 22.17789 0.03119 -0.00218
C 24.55811 32.63133 -0.01654
C 25.76403 31.91014 -0.00037
C 25.75218 30.21941 -0.0032
C 23.27774 6.34395 -0.01679
C 2.40671 32.72629 0.0073
