291
Graphene
C 34.32401 0.00741 0.01295
C 16.03636 30.60609 0.00667
C 14.84487 29.76439 0.00143
C 14.95837 28.27907 -0.017
C 16.12293 27.56448 0.00364
C 16.02991 26.14236 -0.00831
C 14.43095 16.12886 -0.02957
C 16.00309 32.01652 -0.0054
C 14.57605 12.84694 -0.04422
C 15.95117 10.74318 -0.00703
C 16.09352 9.45685 -0.04076
C 14.77363 8.6157 -0.00652
C 14.75754 7.16333 0.0058
C 16.02722 6.53533 -0.00865
C 15.92846 5.10746 0.00675
C 14.69254 11.46724 0.00654
C 14.76716 4.32298 -0.00311
C 14.79096 32.65998 0.00755
C 13.56511 0.73145 0.03754
C 13.58387 27.79732 -0.00109
C 13.75684 15.00304 -0.00491
C 13.44019 13.69034 0.03338
C 12.13597 13.02044 -0.0258
C 12.1828 11.48601 -0.0331
C 13.41473 10.76712 -0.00316
C 12.32949 33.99644 0.01739
C 13.45006 9.33616 0.02188
C 12.19356 7.15719 0.02691
C 13.48548 6.43134 -0.01581
C 13.55408 5.0314 0.01452
C 12.27829 4.27825 0.04892
C 12.26155 2.89111 -0.00111
C 13.55186 2.09423 -0.03557
C 12.2592 8.58526 -0.01979
C 14.81576 2.91863 0.00742
C 16.06367 2.19852 -0.01594
C 16.02505 0.7262 0.0106
C 17.22643 2.91403 -0.03213
C 18.3935 2.19876 0.02239
C 18.54692 0.80495 0.01153
C 17.25919 0.02588 0.02734
C 19.73676 32.6959 -0.0055
C 20.95696 31.9213 0.01515
C 17.17821 4.34286 -0.02845
C 20.8581 30.43046 -0.00225
C 19.68607 28.28658 -0.01107
C 20.86605 27.62302 -0.01586
C 20.86546 26.20219 -0.01971
C 19.60942 25.46335 -0.02118
C 19.62281 24.13131 0.00733
C 20.8992 23.49621 -0.00178
C 19.66101 29.74156 0.00071
C 18.47345 5.04681 0.03374
C 18.56375 6.46166 0.0296
C 17.35347 7.15238 0.03046
C 14.75387 0.02728 -0.01154
C 17.16378 32.66662 -0.01721
C 18.41883 31.95927 -0.02422
C 18.57925 30.50583 0.01277
C 17.27023 29.84247 0.00096
C 17.28782 28.38551 -0.01527
C 18.50897 27.57608 0.01087
C 18.45791 26.18609 0.00199
C 17.17894 25.42719 0.01511
C 17.32088 24.08029 -0.00478
C 18.34755 23.27099 -0.01662
C 18.46577 21.7496 -0.01185
C 17.24663 20.87102 0.01126
C 16.1059 20.39522 0.01852
C 17.20829 8.61277 -0.00381
C 12.54657 28.33654 0.03698
C 20.87982 22.05982 0.00768
C 12.40122 29.70013 -0.02213
C 13.61181 31.94339 -0.00289
C 6.05645 31.86551 0.02894
C 5.95545 13.43603 -0.01789
C 4.72769 12.88301 0.00444
C 4.75394 11.48973 -0.00925
C 6.01835 10.73302 0.01877
C 6.00866 9.26213 0.01363
C 4.74594 32.38746 -0.02971
C 4.7848 8.53635 -0.02162
C 6.06988 6.45603 -0.0014
C 6.06182 4.98396 0.02162
C 4.82609 4.26938 0.0076
C 4.83869 2.84977 0.01241
C 6.09032 2.0264 -0.01454
C 6.00165 0.64006 0.01945
C 4.80543 7.1692 0.00415
C 4.78162 33.98682 0.01416
C 2.37157 33.9981 0.00165
C 3.64612 2.07146 -0.00891
C 2.63679 30.39972 0.00572
C 2.39446 15.83644 0.03592
C 3.41937 14.90424 0.00406
C 3.55704 13.52511 0.00943
C 2.31508 12.83374 0.02841
C 2.29018 11.30095 -0.01111
C 3.60648 0.61639 0.02819
C 3.55855 10.71068 -0.01275
C 2.26869 8.54377 -0.02245
C 2.44015 7.05683 -0.00428
C 3.6787 6.35654 0.03101
C 3.58766 4.93945 -0.01536
C 2.40857 4.20678 -0.02689
C 2.38932 2.77469 -0.01046
C 3.52764 9.28931 0.00985
C 7.23845 32.61426 0.03542
C 8.48934 31.95909 0.02299
C 8.76031 30.54745 0.00244
C 9.73097 12.96698 0.02098
C 9.74773 11.39285 0.01848
C 10.94743 10.71474 -0.00619
C 11.03696 9.295 -0.02162
C 9.73842 8.61203 0.00889
C 9.76195 7.23514 -0.00481
C 10.89286 13.57377 -0.03113
C 10.98445 6.41479 0.00979
C 9.78507 4.29513 0.03505
C 9.83595 2.87283 -0.02815
C 11.13271 2.12597 -0.04147
C 11.13235 0.68556 -0.05302
C 9.79898 0.07778 0.00213
C 12.34175 32.65004 -0.00066
C 11.09291 5.01884 0.01443
C 9.74735 29.9852 0.0351
C 11.12134 30.46678 0.00422
C 11.0852 31.95891 0.00798
C 8.44918 13.54654 -0.01717
C 7.19435 12.98796 0.05265
C 7.28065 11.44771 -0.01952
C 8.51324 10.77086 -0.02813
C 8.46574 9.30519 0.00374
C 7.21276 8.64727 0.00052
C 7.28794 7.20788 -0.03682
C 8.52646 6.49357 0.01965
C 8.60398 4.99272 0.02058
C 7.32404 4.25747 -0.01957
C 7.3617 2.81645 -0.0108
C 8.6159 2.14992 -0.00368
C 8.5518 0.73734 -0.02696
C 7.31669 0.01272 -0.00114
C 9.78804 32.76564 0.00228
C 13.62757 30.4596 0.00028
C 3.46761 31.70433 0.0402
C 19.89231 21.39182 -0.0276
C 20.98366 6.30153 -0.04078
C 31.88322 29.8369 -0.01429
C 31.95607 28.46893 -0.0136
C 33.19826 27.71207 0.00594
C 33.20662 26.23018 -0.02474
C 31.94472 25.57827 0.00369
C 31.83767 24.19946 0.00455
C 33.12535 30.55873 -0.02383
C 33.17416 23.54347 -0.00644
C 32.01052 21.42601 0.00137
C 32.20862 20.01574 0.00199
C 33.56927 19.53318 0.04381
C 33.52537 18.15084 0.02806
C 32.71667 8.51925 0.01504
C 31.98122 7.12535 -0.00069
C 33.07824 22.2042 -0.01839
C 33.23458 6.41141 0.04926
C 33.0949 31.97061 0.01574
C 29.38993 0.08502 0.03794
C 29.47597 25.48918 0.07705
C 29.40833 24.00692 0.0103
C 30.67901 23.42972 0.02108
C 30.74055 21.99577 0.00716
C 29.59102 21.14291 0.00307
C 29.73197 19.61472 0.00346
C 31.8554 32.69205 0.01927
C 31.134 19.14232 0.01713
C 30.73225 6.68978 0.01428
C 30.6739 5.18762 -0.02142
C 29.45513 4.48267 0.0544
C 29.39631 3.04563 0.00026
C 30.56005 2.23276 0.00682
C 30.61477 0.78519 -0.01779
C 29.48692 7.28686 -0.01694
C 33.07774 5.03462 -0.03838
C 31.86029 4.42016 0.00349
C 31.80264 2.90456 -0.00323
C 1.16922 15.07733 -0.02957
C 1.06154 13.63925 0.00343
C 34.33536 12.83374 -0.02656
C 0.04266 11.58491 -0.02442
C 1.04533 10.69883 -0.00027
C 0.95036 9.20382 -0.00583
C 34.40414 15.81779 0.02114
C 34.19893 8.4732 -0.02302
C 1.19985 6.33441 0.02931
C 1.16002 4.91658 0.00628
C 34.29769 4.29414 -0.0345
C 34.31625 2.86012 -0.00931
C 1.14934 2.08404 -0.00939
C 1.12874 0.68734 -0.00468
C 0.00247 7.0828 -0.02849
C 34.39581 17.18576 0.00648
C 1.25583 17.88671 0.01223
C 1.39068 19.29709 -0.01678
C 33.06467 2.16691 -0.00841
C 33.0395 0.75669 0.0001
C 31.83661 0.0469 -0.02927
C 34.32401 32.64734 -0.01404
C 1.11451 31.9819 0.01027
C 1.1696 30.63899 0.01831
C 34.40395 29.91881 -0.01037
C 34.41275 28.45919 -0.00439
C 1.12231 27.6332 -0.00598
C 1.11542 26.4692 -0.05239
C 0.1213 25.47025 0.03076
C 0.05297 24.1163 0.00723
C 0.95521 22.77112 0.02712
C 0.07296 21.58038 -0.02213
C 0.32067 20.21211 0.01951
C 30.66195 26.2268 0.01908
C 19.84882 7.08829 0.03005
C 30.68817 27.60747 0.01518
C 29.44577 29.91755 -0.03735
C 23.32782 4.95618 0.04306
C 22.17093 4.16649 0.00996
C 22.14128 2.84336 0.00195
C 23.38925 2.19673 -0.00802
C 23.36532 0.76578 -0.00218
C 22.0922 34.07817 -0.01654
C 23.22339 6.391 0.00367
C 24.55286 32.66348 -0.00037
C 25.76465 30.53853 0.00622
C 24.54914 29.8045 -0.02815
C 24.60857 28.41167 -0.00942
C 25.80318 27.65406 0.00487
C 25.76358 26.21884 0.00826
C 24.54649 25.58301 -0.00294
C 25.80215 31.9904 -0.0032
C 24.47573 24.13349 0.00152
C 23.25284 21.93819 -0.01679
C 22.13262 24.13953 0.00684
C 20.93918 4.87236 0.02117
C 19.705 4.20108 0.02737
C 19.66338 2.77144 -0.00498
C 20.90736 2.12806 0.00135
C 20.91081 0.68686 0.03102
C 19.67184 0.05291 0.02555
C 23.3093 23.40369 -0.01052
C 22.2292 32.60959 0.01423
C 23.34377 30.45616 -0.009
C 22.09008 29.75265 -0.01199
C 22.06286 28.36216 -0.00229
C 23.41866 27.72009 -0.00938
C 23.32926 26.30849 -0.0264
C 22.17845 25.50699 -0.01154
C 23.37076 31.84298 -0.00285
C 25.64975 23.36452 0.01257
C 25.63489 21.9641 0.02316
C 24.33591 21.38362 0.04185
C 26.92585 21.16345 -0.02049
C 27.29385 19.76756 -0.01854
C 28.31028 19.28685 -0.01415
C 26.91671 7.27752 -0.03039
C 28.16653 6.70976 0.01836
C 28.17266 5.22308 0.03531
C 28.20078 21.82664 0.03265
C 27.0056 4.44483 -0.00669
C 28.20815 2.29667 0.01705
C 28.1741 0.80983 -0.0405
C 26.95214 0.07278 -0.01303
C 29.43354 32.71742 -0.01461
C 30.69489 31.99814 -0.02155
C 30.68678 30.5689 -0.00944
C 27.0233 3.01599 0.0101
C 28.16668 23.31424 0.00261
C 26.92825 24.01844 0.02326
C 27.02405 25.46415 0.00924
C 24.26115 7.1413 0.00194
C 25.59914 6.64457 -0.00621
C 25.76231 5.08579 0.02611
C 24.55558 4.3293 0.02198
C 24.59038 2.88453 0.01094
C 25.82267 2.22514 0.00235
C 25.77963 0.8105 0.01495
C 24.57877 0.11584 0.01259
C 27.04551 32.6785 0.01799
C 28.23216 32.00101 0.01699
C 28.19376 30.59587 -0.00416
C 26.9741 29.8327 0.01177
C 27.05001 28.35225 0.04266
C 28.20055 27.58077 0.01324
C 28.2644 26.17963 0.0014
C 29.41555 28.33052 -0.00971
C 2.32665 32.60034 -0.02759
