383
Graphene
C 34.36408 0.04172 0.01295
C 11.04838 5.04263 0.0076
C 9.81478 4.30396 0.01241
C 9.84987 2.87361 -0.01454
C 11.02758 2.19323 0.01945
C 11.0785 0.77644 0.01416
C 9.84833 0.05305 0.03542
C 12.3129 32.63616 0.02299
C 13.4829 31.926 0.00244
C 13.5342 30.51879 -0.01717
C 11.00056 6.50492 0.02162
C 12.329 29.80874 0.05265
C 13.46996 27.6517 -0.02813
C 13.5411 26.25806 0.00374
C 12.28993 25.54863 0.00052
C 12.3565 24.13119 -0.03682
C 13.52956 23.4102 0.01965
C 13.54547 21.96061 0.02058
C 12.30775 21.28763 -0.01957
C 12.27926 19.87866 -0.0108
C 13.57906 19.14246 -0.00368
C 12.26937 28.36044 -0.01952
C 13.58315 17.67418 -0.02696
C 9.79827 7.17789 -0.0014
C 11.14142 9.2886 -0.02162
C 11.02873 30.56241 0.02841
C 9.83302 29.86275 -0.01111
C 9.84231 28.49325 -0.01275
C 11.10783 27.69975 0.00985
C 11.0804 26.32923 -0.02245
C 9.82463 25.6749 -0.00428
C 9.83381 24.24389 0.03101
C 11.05807 23.40092 -0.01536
C 11.07464 21.98913 -0.02689
C 9.81656 8.58072 0.00415
C 9.84104 21.35944 -0.01046
C 11.02165 19.10963 0.02819
C 11.04282 17.69694 0.00165
C 9.82516 16.98217 -0.02971
C 9.82439 15.54901 0.02894
C 11.04353 14.92202 -0.01789
C 11.08118 13.50323 0.00444
C 9.86661 12.82434 -0.00925
C 9.85443 11.43221 0.01877
C 11.11931 10.77705 0.01363
C 9.84329 19.86753 -0.00891
C 11.04689 31.97363 0.00943
C 12.28642 17.0136 -0.00114
C 13.50643 14.91444 0.00798
C 16.00631 21.8713 -0.0258
C 14.7347 21.17976 -0.0331
C 14.81457 19.81885 -0.00316
C 16.05235 19.065 0.02188
C 16.02333 17.66749 -0.01979
C 14.78098 17.00996 0.02691
C 14.69534 15.58161 -0.01581
C 16.10165 15.22033 0.01452
C 14.7291 8.39391 0.04892
C 15.93861 23.28265 0.03338
C 14.73469 7.01831 -0.00111
C 15.98403 4.96157 0.03754
C 14.82183 4.21125 0.01739
C 14.80552 2.82208 0.00755
C 16.00411 2.09925 -0.0054
C 15.93405 0.70044 0.00667
C 14.75544 33.96619 0.00143
C 17.16715 32.5974 -0.017
C 18.41262 31.89375 0.00364
C 18.41931 30.41381 -0.00831
C 15.94659 6.30309 -0.03557
C 12.29646 15.58668 0.00228
C 14.76463 24.00307 -0.00491
C 16.00245 26.19728 0.03698
C 13.52594 13.57439 0.00422
C 12.3597 12.83589 0.0351
C 12.37117 11.41923 -0.03113
C 13.55405 10.65217 0.02098
C 13.63349 9.27358 0.01848
C 12.33947 8.54444 -0.00619
C 12.23813 7.13041 -0.02162
C 13.44513 6.33379 0.00889
C 13.55393 4.92593 -0.00481
C 14.77312 25.42722 -0.00109
C 12.2836 4.30819 0.00979
C 13.56438 2.11259 0.03505
C 13.56154 0.67668 -0.02815
C 12.34184 0.00697 -0.04147
C 14.66458 32.61213 -0.05302
C 15.89815 31.89505 0.00213
C 15.94589 30.45393 -0.00066
C 14.75246 29.75715 -0.00289
C 14.77595 28.31888 0.00028
C 15.99182 27.6018 -0.02213
C 12.33058 2.90767 0.01443
C 17.17103 29.70807 -0.02957
C 9.81486 32.71608 0.00406
C 8.61955 0.81517 0.00572
C 3.66675 5.04464 -0.00094
C 2.36064 4.31811 0.02322
C 2.37142 2.88202 -0.00725
C 3.61158 2.21889 -0.05697
C 3.62956 0.79749 0.01087
C 2.34182 0.12662 -0.01343
C 4.85069 32.71492 0.00988
C 6.06445 32.04115 0.0276
C 6.10771 30.62877 0.01305
C 3.59076 6.47762 -0.02566
C 4.86988 29.90499 -0.00077
C 6.08115 27.81205 -0.02929
C 6.13522 26.36747 -0.00966
C 4.86124 25.54974 -0.03337
C 4.8772 24.15871 0.01227
C 6.13352 23.47436 0.00873
C 6.18983 22.04041 -0.00049
C 4.92059 21.29779 0.00848
C 5.0107 19.94428 -0.01303
C 6.20488 19.26185 -0.01378
C 4.83604 28.5132 0.03368
C 6.20465 17.74599 0.02635
C 2.32132 7.07147 -0.03113
C 3.63673 9.21331 -0.00643
C 3.65214 30.6015 -0.003
C 2.38938 29.87057 0.01402
C 2.43628 28.44656 0.02379
C 3.64589 27.75151 0.00907
C 3.67497 26.25576 0.00643
C 2.36398 25.59439 -0.01509
C 2.41187 24.14054 0.03267
C 3.6319 23.45794 0.02374
C 3.69515 21.96379 0.00402
C 2.40787 8.49555 0.017
C 2.41136 21.25929 0.0073
C 3.74476 19.25157 0.03828
C 3.81069 17.81958 0.01226
C 2.49458 17.12572 -0.00279
C 2.48495 15.62077 0.01996
C 3.65603 14.93421 -0.03996
C 3.67465 13.55147 0.01465
C 2.48136 12.80476 -0.00074
C 2.40195 11.36136 -0.00518
C 3.64974 10.66703 0.0086
C 2.48948 19.86254 0.0174
C 7.37402 0.09018 0.03592
C 4.977 17.11187 0.0127
C 6.09865 14.91822 0.01849
C 8.6523 22.06881 -0.01118
C 7.37952 21.34334 -0.014
C 7.48012 19.87148 0.02147
C 8.67432 19.06715 0.00373
C 8.61268 17.65305 -0.00191
C 7.41903 16.98834 0.00438
C 7.29628 15.57611 0.01291
C 8.61469 14.88917 0.00093
C 8.60194 13.47441 0.00057
C 8.64343 23.50219 -0.00131
C 7.28957 12.8207 -0.01634
C 8.60194 10.71623 0.02339
C 8.56682 9.26522 0.01641
C 7.30146 8.60973 -0.00719
C 7.35021 7.20099 0.01364
C 8.58894 6.50063 -0.01062
C 8.55282 5.02476 -0.00033
C 7.31388 4.35014 0.03589
C 7.37229 2.90605 -0.02759
C 8.58931 2.24985 0.0402
C 7.36002 11.41286 -0.00334
C 4.89766 15.61612 0.01396
C 7.3373 24.15801 -0.02896
C 8.61791 26.38141 0.00488
C 6.0672 13.51307 -0.01142
C 4.82452 12.7809 -0.00562
C 4.85745 11.37828 -0.00494
C 6.12127 10.7033 0.00054
C 6.05269 9.29008 0.03007
C 4.9111 8.55433 -0.00095
C 4.86496 7.16194 0.01572
C 6.12165 6.43783 -0.04848
C 6.12027 5.03439 -0.00892
C 7.37211 25.60824 -0.01004
C 4.89293 4.2735 -0.01362
C 6.16341 2.17518 0.0288
C 6.12031 0.77637 0.00393
C 4.86457 0.05273 0.00895
C 7.34736 32.70799 0.00685
C 8.59859 31.9986 0.02888
C 8.63763 30.67604 -0.00482
C 7.38439 29.95584 -0.01384
C 7.35159 28.55306 0.03693
C 8.55691 27.78516 0.01745
C 4.89421 2.90078 -0.0008
C 3.5979 32.05389 0.00031
C 17.21569 28.28463 -0.04422
C 18.41389 26.1541 -0.00703
C 30.67088 6.39801 0.0103
C 30.72844 5.02203 0.02108
C 29.49769 4.27673 0.00716
C 29.50299 2.85693 0.00307
C 30.68084 2.13069 0.00346
C 30.67692 0.70597 0.01713
C 29.49498 34.05679 -0.01694
C 31.94252 32.64406 0.01428
C 33.17813 31.99886 -0.02142
C 29.45617 7.10175 0.07705
C 33.17229 30.56409 0.0544
C 31.91735 28.3491 0.00682
C 33.19253 27.65154 -0.01779
C 33.2308 26.28728 0.03794
C 32.00567 25.54112 0.01927
C 31.95064 24.12944 0.01574
C 33.17311 23.41447 -0.02383
C 33.04802 21.98056 -0.01429
C 31.75525 21.28162 -0.0136
C 32.06098 19.94579 0.00594
C 31.91793 29.82254 0.00026
C 33.06589 19.06254 -0.02474
C 29.47922 8.506 0.01908
C 30.79447 10.5537 -0.00971
C 27.1428 8.83882 0.0014
C 27.03995 7.23467 0.00924
C 28.25459 6.42666 0.02326
C 28.2372 5.0164 0.00261
C 27.0534 4.31561 0.03265
C 27.08543 2.78764 -0.02049
C 28.35393 2.07229 -0.01854
C 28.26372 0.61901 -0.01415
C 27.08139 34.0577 -0.03039
C 30.74292 9.19067 0.01518
C 29.46621 32.65714 0.01836
C 30.67995 30.50052 -0.00669
C 29.40613 29.78 0.0101
C 29.39458 28.3521 0.01705
C 30.71934 27.69322 -0.0405
C 30.6899 26.25386 -0.01303
C 29.44862 25.52554 -0.01461
C 29.55574 24.14756 -0.02155
C 30.75253 23.40403 -0.00944
C 30.48315 22.05915 -0.03735
C 30.66381 31.95705 0.03531
C 28.37072 9.32132 0.01324
C 33.34109 17.72817 0.00369
C 33.10559 13.60763 -0.00644
C 34.33532 21.29229 -0.02213
C 34.38195 19.84165 0.01951
C 1.28985 19.20665 -0.01678
C 1.30654 17.75086 0.01223
C 0.07427 17.09728 0.00648
C 0.0718 15.71316 0.02114
C 1.26222 14.9128 -0.02957
C 1.24762 13.52146 0.00343
C 34.40116 12.83585 -0.02656
C 1.17378 21.99096 0.02712
C 34.42876 11.47893 -0.02442
C 1.18968 9.1527 -0.00583
C 34.38242 8.49145 -0.02302
C 34.38387 7.10174 -0.02849
C 1.10771 6.36155 0.02931
C 1.09825 4.97996 0.00628
C 34.29645 4.27516 -0.0345
C 34.34185 2.89902 -0.00931
C 1.13295 2.18953 -0.00939
C 1.11968 0.78735 -0.00468
C 1.18869 10.64856 -0.00027
C 33.25862 15.08577 0.00455
C 1.18569 23.40117 0.00723
C 0.04103 25.54729 -0.05239
C 32.09659 12.73246 -0.01839
C 31.82996 11.42249 0.00137
C 33.23115 10.72646 0.00199
C 33.16951 9.29858 0.04381
C 32.00044 8.51576 0.02806
C 31.92157 7.16547 0.01504
C 33.16821 6.42353 -0.00069
C 33.07614 4.96956 0.04926
C 31.87871 4.24393 -0.03838
C 34.41214 24.07481 0.03076
C 31.89946 2.86206 0.00349
C 33.14408 0.731 -0.00841
C 31.93647 34.06499 0.0001
C 34.37226 32.69962 -0.02927
C 1.13767 31.97596 -0.01404
C 1.18299 30.55379 0.01027
C 34.38074 29.82701 0.01831
C 34.43061 28.43007 -0.01037
C 1.21804 27.66748 -0.00439
C 1.25829 26.29554 -0.00598
C 33.13264 2.16297 -0.00323
C 18.46114 27.63149 0.00654
C 28.71016 21.90841 0.04266
C 27.08434 24.01986 -0.00416
C 20.87605 26.19546 0.03046
C 19.6683 25.52465 0.0296
C 19.69287 24.05778 0.03374
C 20.95119 23.29903 -0.02845
C 20.81286 21.89543 -0.03213
C 19.70278 21.20395 0.02239
C 19.75028 19.76411 0.01153
C 19.59377 16.91323 0.02734
C 20.81459 9.11953 -0.0055
C 20.84314 27.68923 -0.00381
C 19.76171 8.5443 0.01515
C 20.86069 6.51254 0.00071
C 20.8179 5.0355 -0.01107
C 19.62965 4.30573 -0.01586
C 19.6945 2.83964 -0.01971
C 20.96515 2.0873 -0.02118
C 20.90613 0.69433 0.00733
C 19.71218 34.07902 -0.00178
C 22.13705 32.64476 0.00768
C 23.36923 31.96545 -0.0276
C 19.54778 7.20649 -0.00225
C 23.33273 30.54288 0.03005
C 19.57134 28.38719 0.01852
C 20.84701 30.53637 -0.01185
C 17.2177 25.45763 -0.04076
C 17.24136 24.03611 -0.00652
C 18.50169 23.32083 0.0058
C 18.49412 21.84189 -0.00865
C 17.25115 21.19062 0.00675
C 17.2237 19.81217 -0.00311
C 18.48599 19.10817 0.00742
C 18.49162 17.67648 -0.01594
C 17.23479 17.08007 0.0106
C 19.66767 29.79663 0.01126
C 17.28697 15.62953 -0.01154
C 18.31673 6.53466 -0.02422
C 18.37566 5.0462 0.01277
C 17.12952 4.2468 0.00096
C 17.17192 2.85345 -0.01527
C 18.44461 2.06318 0.01087
C 18.44536 0.66073 0.00199
C 17.14562 34.05499 0.01511
C 19.61074 32.68358 -0.00478
C 20.83404 31.98357 -0.01662
C 17.1072 7.16363 -0.01721
C 28.33339 23.34069 0.01177
C 22.09733 29.82864 -0.04078
C 23.32939 27.61233 0.02737
C 24.54392 24.06302 0.00622
C 25.81131 23.38245 -0.02815
C 25.92272 9.29779 -0.00942
C 24.70171 8.62428 0.00487
C 24.61363 7.033 0.00826
C 25.8346 6.42284 -0.00294
C 25.78745 4.99257 0.00152
C 24.62611 4.31175 0.01257
C 24.57254 2.8785 0.02316
C 24.48846 25.49157 -0.0032
C 25.8283 2.14815 0.04185
C 24.51459 0.02902 -0.00621
C 27.01466 32.65547 0.02611
C 28.22014 31.91955 0.02198
C 28.25945 30.46297 0.01094
C 26.9887 29.74695 0.00235
C 26.96715 28.30604 0.01495
C 28.19697 27.62727 0.01259
C 28.23405 26.20992 0.01799
C 27.03276 25.48889 0.01699
C 25.8106 0.6835 0.00194
C 22.10195 28.42196 0.02117
C 25.71428 26.15937 -0.00037
C 24.5296 28.34717 -0.00218
C 23.28012 26.23961 -0.00498
C 22.10228 25.45909 0.00135
C 22.20556 23.98701 0.03102
C 23.37268 23.28515 0.02555
C 23.31461 21.91866 0.01423
C 22.14066 21.35557 -0.00285
C 23.43218 9.28485 -0.009
C 22.23362 8.72391 -0.01199
C 22.05176 7.15737 -0.00229
C 25.73738 27.62552 -0.01654
C 23.37415 6.43485 -0.00938
C 22.06608 4.28091 -0.01154
C 22.13637 2.87525 0.00684
C 23.35925 2.19235 -0.01052
C 23.34233 0.76247 -0.01679
C 22.12684 34.06915 0.00367
C 24.56943 32.68477 0.04306
C 25.73182 31.99151 0.00996
C 25.75245 30.53948 0.00195
C 24.52035 29.77441 -0.00802
C 23.27737 4.97303 -0.0264
C 2.30867 32.73786 0.03189
