404
Graphene
C 34.40689 34.06192 0.01295
C 12.06732 20.1296 -0.01046
C 13.43853 17.72308 -0.00891
C 12.16342 17.0843 0.02819
C 12.19519 15.65316 0.00165
C 13.42266 14.95384 -0.02971
C 13.46866 13.57901 0.02894
C 12.28623 12.92099 -0.01789
C 12.261 11.44784 0.00444
C 13.50055 10.70001 -0.00925
C 13.48636 9.27634 0.01877
C 12.29549 8.55646 0.01363
C 12.24194 7.1515 -0.02162
C 13.45232 6.39824 0.00415
C 13.51353 4.9415 -0.0014
C 12.26706 4.15551 0.02162
C 12.23105 2.79107 0.0076
C 13.46863 2.1324 0.01241
C 13.49743 0.64619 -0.01454
C 12.18885 0.08503 0.01945
C 14.74801 32.71469 0.01416
C 15.99088 31.90936 0.03542
C 12.15726 21.37384 -0.02689
C 16.02932 30.44548 0.02299
C 14.06213 24.25325 -0.01536
C 12.16688 25.61817 -0.00428
C 11.00535 13.54696 0.00057
C 9.78474 12.83592 -0.01634
C 9.78712 11.38203 -0.00334
C 11.0287 10.72001 0.02339
C 11.00189 9.29663 0.01641
C 9.77671 8.5407 -0.00719
C 9.84709 7.06121 0.01364
C 11.10162 6.36648 -0.01062
C 11.03084 4.8569 -0.00033
C 9.76216 4.27996 0.03589
C 9.75488 2.83527 -0.02759
C 10.95254 2.15266 0.0402
C 10.89299 0.73125 0.00572
C 9.72127 0.02922 0.03592
C 12.26283 32.74957 0.00406
C 13.5261 31.98776 0.00943
C 13.51962 30.60806 0.02841
C 12.26188 29.89116 -0.01111
C 12.21418 28.51466 -0.01275
C 13.45389 27.68157 0.00985
C 13.28016 26.38877 -0.02245
C 12.53174 24.238 0.03101
C 14.75998 29.75795 0.00244
C 14.69944 28.37828 -0.01717
C 15.90325 27.53055 0.05265
C 17.1489 25.65218 -0.02815
C 17.15365 15.69912 -0.04147
C 18.46655 14.9971 -0.05302
C 18.51762 13.48777 0.00213
C 17.26664 12.84263 -0.00066
C 17.21974 11.36395 -0.00289
C 18.49495 10.66467 0.00028
C 18.41385 9.22476 -0.02213
C 17.17089 8.45957 0.03698
C 17.19734 7.02728 -0.00109
C 18.48288 6.32145 -0.00491
C 18.48861 4.8724 0.03338
C 17.23035 4.22498 -0.0258
C 17.20305 2.79136 -0.0331
C 18.38227 2.05327 -0.00316
C 18.38565 0.66686 0.02188
C 17.17156 34.01528 -0.01979
C 19.68914 32.61129 0.02691
C 20.93186 31.85395 -0.01581
C 20.82774 30.52751 0.01452
C 19.61316 29.84411 0.04892
C 18.41086 26.15993 0.03505
C 18.47678 27.62211 0.01443
C 17.18972 28.25972 0.00979
C 17.23398 29.75626 -0.00481
C 15.84687 26.05968 -0.01952
C 14.45555 25.49125 -0.02813
C 14.66404 17.15445 0.00374
C 14.69681 15.83246 0.00052
C 15.86873 15.06335 -0.03682
C 15.99395 13.64718 0.01965
C 14.75328 12.87858 0.02058
C 14.73985 11.42336 -0.01957
C 16.04284 10.61342 -0.0108
C 16.00193 9.17595 -0.00368
C 10.97256 14.98265 0.00093
C 14.68755 8.52303 -0.02696
C 15.95539 6.48524 0.00228
C 16.07374 5.02192 0.00798
C 14.79382 4.3177 0.00422
C 14.68813 2.83848 0.0351
C 15.92467 2.17589 -0.03113
C 15.90065 0.73876 0.02098
C 14.71918 34.01777 0.01848
C 17.27228 32.57751 -0.00619
C 18.45861 31.88755 -0.02162
C 18.43898 30.53739 0.00889
C 14.69524 7.08235 -0.00114
C 19.59977 28.43484 -0.00111
C 9.72464 15.72894 0.01291
C 10.93411 17.81945 -0.00191
C 6.12717 32.00615 0.00643
C 6.06645 30.53968 -0.01509
C 4.78432 29.80863 0.03267
C 4.91904 28.49154 0.02374
C 6.1317 27.76291 0.00402
C 6.05473 26.35858 0.0073
C 4.85981 25.55794 0.0174
C 4.81623 24.13564 0.03828
C 6.18609 23.43081 0.01226
C 6.03608 22.06877 -0.00279
C 4.88451 21.33014 0.01996
C 4.92764 19.89866 -0.03996
C 6.17341 19.1584 0.01465
C 6.04627 17.77703 -0.00074
C 4.75976 17.00561 -0.00518
C 6.02083 10.79917 0.0086
C 6.01163 9.32281 -0.00643
C 4.84964 8.58231 0.017
C 4.95603 7.15138 -0.03113
C 6.15066 6.37208 -0.02566
C 6.1495 5.02218 -0.00094
C 4.84557 32.7624 0.00907
C 4.88564 4.32788 0.02322
C 2.40385 0.05443 0.02379
C 3.67286 2.22369 -0.003
C 3.58472 30.57147 0.00081
C 2.38105 29.77441 0.00245
C 2.4422 28.29587 0.02728
C 3.68861 27.63756 -0.00039
C 3.64528 26.27802 0.0064
C 2.30562 25.52222 0.00211
C 2.37025 24.17209 -0.00449
C 3.61145 23.45641 -0.01979
C 3.58862 22.0309 0.02784
C 2.3988 21.24949 -0.01977
C 2.43278 19.82203 -0.00561
C 3.73342 19.1289 0.00208
C 3.56628 17.60951 0.01707
C 2.31132 16.99498 0.02769
C 3.6573 9.32352 -0.03291
C 2.46459 8.60828 -0.04999
C 2.5852 7.097 0.04505
C 3.74584 6.34964 0.03284
C 3.62901 4.98466 -0.04307
C 2.35137 4.34132 0.03189
C 2.39726 2.87758 0.00031
C 3.67317 0.80808 0.01402
C 4.91139 2.90129 -0.00725
C 6.15998 2.13205 -0.05697
C 6.1175 0.79068 0.01087
C 8.6215 6.39611 -0.04848
C 8.62739 4.95184 -0.00892
C 7.35269 4.22162 -0.01362
C 7.32832 2.85856 -0.0008
C 8.58226 2.09249 0.0288
C 8.5248 0.70771 0.00393
C 7.25845 0.03425 0.00895
C 9.84638 32.67834 0.00685
C 11.08839 31.99267 0.02888
C 11.03237 30.63566 -0.00482
C 9.79461 29.88049 -0.01384
C 9.84321 28.47862 0.03693
C 11.00884 27.74568 0.01745
C 10.99898 26.37004 0.00488
C 9.72376 25.6221 -0.01004
C 9.85081 24.22853 -0.02896
C 11.26876 23.56204 -0.00131
C 11.04787 22.15263 -0.01118
C 9.72634 21.49783 -0.014
C 9.81425 20.02046 0.02147
C 10.91989 19.21059 0.00373
C 7.38811 7.14347 0.01572
C 7.27138 8.54136 -0.00095
C 8.52655 9.21438 0.03007
C 8.5568 10.66146 0.00054
C 4.85504 0.11496 -0.01343
C 7.34442 32.67514 0.00988
C 8.57479 31.99453 0.0276
C 8.52175 30.61127 0.01305
C 7.35647 29.91537 -0.00077
C 7.3353 28.5371 0.03368
C 8.55718 27.6948 -0.02929
C 8.47871 26.34881 -0.00966
C 7.24932 25.68134 -0.03337
C 7.33444 24.23489 0.01227
C 9.76249 17.14192 0.00438
C 8.57766 23.58156 0.00873
C 7.36145 21.3878 0.00848
C 7.41424 19.96514 -0.01303
C 8.55362 19.25251 -0.01378
C 8.52781 17.84659 0.02635
C 7.27434 17.09542 0.0127
C 7.42461 15.77831 0.01396
C 8.51193 14.95924 0.01849
C 8.54209 13.59269 -0.01142
C 7.28111 12.91372 -0.00562
C 7.25052 11.49799 -0.00494
C 8.52809 22.16703 -0.00049
C 20.84045 27.72782 -0.03557
C 20.84932 26.33783 0.03754
C 19.63066 25.57812 0.01739
C 30.73717 10.6376 -0.00971
C 30.70212 9.19414 0.01518
C 29.45151 8.52163 0.01908
C 29.46269 7.09683 0.07705
C 30.72605 6.35813 0.0103
C 30.73497 4.94796 0.02108
C 29.53891 4.13388 0.00716
C 29.56807 2.76486 0.00307
C 30.78213 2.12509 0.00346
C 30.75457 0.66621 0.01713
C 29.5633 33.98116 -0.01694
C 31.94003 32.67098 0.01428
C 33.12747 31.9517 -0.02142
C 33.11308 30.50703 0.0544
C 31.90965 29.72597 0.00026
C 31.94164 28.33156 0.00682
C 33.14529 27.67926 -0.01779
C 33.12075 26.21741 0.03794
C 31.83523 25.50505 0.01927
C 31.83769 24.12237 0.01574
C 33.14151 23.46017 -0.02383
C 29.49211 11.32291 -0.03735
C 33.11269 21.99669 -0.01429
C 29.49533 12.69889 -0.00944
C 30.61074 15.01795 -0.01461
C 27.05089 2.78966 0.01699
C 28.33717 2.04049 -0.00416
C 28.28187 0.64559 0.01177
C 27.11262 34.07292 0.04266
C 29.58684 32.58956 0.01324
C 30.79158 31.93586 0.0014
C 30.74511 30.50002 0.00924
C 29.46672 29.79335 0.02326
C 29.52017 28.33948 0.00261
C 30.80384 27.60765 0.03265
C 30.64447 26.15714 -0.02049
C 29.46486 25.5003 -0.01854
C 29.4132 24.08893 -0.01415
C 30.66208 23.4056 -0.03039
C 30.68184 22.03421 0.01836
C 29.43708 21.34813 0.03531
C 29.38111 19.84501 -0.00669
C 30.60625 19.2378 0.0101
C 30.66496 17.82136 0.01705
C 29.46022 17.10113 -0.0405
C 29.45939 15.70587 -0.01303
C 30.70125 13.46869 -0.02155
C 31.90191 21.33458 -0.0136
C 31.87594 19.91114 0.00594
C 33.13646 19.25334 -0.02474
C 34.30681 24.16252 0.02712
C 1.20078 23.46518 -0.02213
C 1.20795 22.01766 0.01951
C 34.37237 21.32667 -0.01678
C 34.39084 19.89267 0.01223
C 1.17173 19.16611 0.00648
C 1.13452 17.65067 0.02114
C 34.34469 17.00012 -0.02957
C 0.02695 15.56717 0.00343
C 34.3311 12.85445 -0.02656
C 0.0866 11.52463 -0.02442
C 1.18119 10.64825 -0.00027
C 1.22223 9.24134 -0.00583
C 34.3585 8.56929 -0.02302
C 34.38733 7.12101 -0.02849
C 1.30012 6.4534 0.02931
C 1.19378 5.04616 0.00628
C 34.37968 4.20054 -0.0345
C 34.4227 2.81455 -0.00931
C 1.25865 2.2056 -0.00939
C 1.19942 0.69754 -0.00468
C 34.32249 25.56213 0.00723
C 1.07947 26.23809 0.03076
C 1.13054 27.65421 -0.05239
C 34.39108 28.43178 -0.00598
C 33.16491 17.79421 0.00369
C 31.94256 17.05247 0.00455
C 31.94688 15.63475 -0.00644
C 33.2121 14.90689 -0.01839
C 33.09836 13.47794 0.00137
C 31.87127 12.75602 0.00199
C 31.8751 11.42947 0.04381
C 33.22106 10.69818 0.02806
C 33.14312 9.25672 0.01504
C 31.89209 8.49278 -0.00069
C 27.1045 4.19344 0.01799
C 31.97407 7.10829 0.04926
C 33.1595 4.97234 0.00349
C 31.90896 4.28747 -0.00323
C 31.96172 2.84661 -0.00841
C 33.16125 2.17034 0.0001
C 33.13944 0.77389 -0.02927
C 31.98224 0.03421 -0.01404
C 34.38901 32.65002 0.01027
C 1.12003 31.93506 0.01831
C 1.20675 30.57068 -0.01037
C 34.40419 29.7729 -0.00439
C 33.21601 6.34253 -0.03838
C 28.33026 4.93332 0.01259
C 28.26147 6.34977 0.01495
C 27.00573 6.99491 0.00235
C 22.23719 15.70222 0.01087
C 23.36071 14.86165 0.00199
C 23.41475 13.43049 0.01511
C 22.18543 12.81471 -0.00478
C 22.04443 11.37867 -0.01662
C 23.29771 10.63448 -0.01185
C 23.32057 9.20681 0.01126
C 22.03411 8.47768 0.01852
C 22.15409 7.00959 -0.00381
C 23.33157 6.33265 0.03046
C 23.40196 4.94665 0.0296
C 22.17612 4.25146 0.03374
C 22.15216 2.77756 -0.02845
C 23.26324 2.04701 -0.03213
C 23.35004 0.69679 0.02239
C 22.20507 34.01685 0.01153
C 24.58771 32.68395 0.02734
C 25.78969 31.94931 -0.0055
C 25.82229 30.55054 0.01515
C 24.5645 29.77682 -0.00225
C 24.61654 28.4177 0.00071
C 23.2241 23.51086 -0.01527
C 22.21758 24.21 0.00096
C 22.07864 25.66636 0.01277
C 23.40466 26.29026 -0.02422
C 19.74428 15.66956 0.00755
C 20.97134 15.03768 -0.0054
C 20.93438 13.55427 0.00667
C 19.72181 12.82363 0.00143
C 19.65385 11.40367 -0.017
C 20.8422 10.69035 0.00364
C 20.90207 9.22228 -0.00831
C 19.66341 8.5117 -0.02957
C 19.71916 7.04202 -0.04422
C 20.90913 6.3358 0.00654
C 25.81844 27.61652 -0.01107
C 20.9048 4.92106 -0.00703
C 19.6276 2.77781 -0.00652
C 20.79821 2.09586 0.0058
C 20.85175 0.73645 -0.00865
C 19.66597 34.0516 0.00675
C 22.17127 32.64914 -0.00311
C 23.3941 32.03071 0.00742
C 23.27568 30.48414 -0.01594
C 22.06709 29.80476 0.0106
C 22.18611 28.43906 -0.01154
C 23.39041 27.74317 -0.01721
C 19.73951 4.21292 -0.04076
C 3.66737 32.01491 -0.02805
C 25.78793 26.30638 -0.01586
C 24.48793 24.16744 -0.02118
C 27.04705 29.81521 0.00195
C 27.08954 28.38598 -0.00802
C 28.30154 27.64199 -0.00218
C 28.24599 26.23913 -0.01654
C 27.02699 25.57011 -0.00037
C 27.04061 24.11224 -0.0032
C 28.23618 23.38622 0.00622
C 28.25225 21.97942 -0.02815
C 26.95625 21.27709 -0.00942
C 26.94515 19.82512 0.00487
C 28.21112 19.09754 0.00826
C 28.17998 17.71166 -0.00294
C 26.93599 17.00644 0.00152
C 26.96789 15.56218 0.01257
C 28.2497 14.8608 0.02316
C 28.34799 13.51861 0.04185
C 27.10327 12.7606 0.00194
C 26.99731 11.2757 -0.00621
C 28.24382 10.61931 0.02611
C 28.1385 9.19927 0.02198
C 26.93641 8.44506 0.01094
C 28.18441 30.50784 0.00996
C 28.36522 31.90325 0.04306
C 27.04546 32.62916 0.00367
C 24.67351 34.05237 -0.01679
C 25.71971 23.50083 0.00733
C 25.70569 22.07935 -0.00178
C 24.6669 21.20592 0.00768
C 24.60871 19.95401 -0.0276
C 25.68521 19.09844 0.03005
C 25.69541 17.699 -0.04078
C 24.58795 16.9593 0.02117
C 24.61753 15.54103 0.02737
C 25.79814 14.80566 -0.00498
C 25.88267 13.4372 0.00135
C 24.60059 25.59054 -0.01971
C 24.6103 12.6988 0.03102
C 25.84138 10.56796 0.01423
C 25.79433 9.18857 -0.00285
C 24.50281 8.54707 -0.009
C 24.57072 7.01544 -0.01199
C 25.73172 6.26101 -0.00229
C 25.91877 4.89658 -0.00938
C 24.59944 4.17915 -0.0264
C 24.58167 2.82472 -0.01154
C 25.82245 2.14465 0.00684
C 25.87547 0.67769 -0.01052
C 24.57061 11.25886 0.02555
C 2.46552 32.65671 -0.01386
