438
Graphene
C 0.01926 0.02727 0.01295
C 13.57397 10.66067 -0.00334
C 13.49363 9.29502 0.02339
C 12.30827 8.56715 0.01641
C 12.31185 7.09968 -0.00719
C 13.56568 6.43003 0.01364
C 13.55491 4.98544 -0.01062
C 12.25158 4.23816 -0.00033
C 12.26812 2.8294 0.03589
C 13.47604 2.02152 -0.02759
C 13.51705 0.66396 0.0402
C 12.34217 0.06387 0.00572
C 14.79382 32.6188 0.03592
C 16.02683 31.92331 0.00406
C 16.02888 30.52225 0.00943
C 14.74943 29.87875 0.02841
C 14.76377 28.37805 -0.01111
C 15.96632 27.6033 -0.01275
C 15.92944 26.2301 0.00985
C 14.79516 25.4802 -0.02245
C 14.69513 24.1144 -0.00428
C 15.93039 23.44822 0.03101
C 15.99662 21.96826 -0.01536
C 14.75595 21.35849 -0.02689
C 12.19942 11.41456 -0.01634
C 14.78351 19.92435 -0.01046
C 12.34001 12.84537 0.00057
C 13.57105 14.93916 0.01291
C 11.0829 4.98478 -0.04848
C 9.80663 4.25993 -0.00892
C 9.84071 2.83775 -0.01362
C 11.07025 2.16507 -0.0008
C 11.09033 0.82272 0.0288
C 9.82119 0.02732 0.00393
C 12.28878 32.74361 0.00895
C 13.54653 31.88935 0.00685
C 13.51851 30.54585 0.02888
C 12.30075 29.84297 -0.00482
C 12.37172 28.41088 -0.01384
C 13.50686 27.60533 0.03693
C 13.53104 26.26651 0.01745
C 12.31227 25.51525 0.00488
C 12.22273 24.12814 -0.01004
C 13.49749 23.4232 -0.02896
C 13.59568 22.04506 -0.00131
C 12.3149 21.37746 -0.01118
C 12.30458 19.9331 -0.014
C 13.51244 19.29699 0.02147
C 13.49139 17.81851 0.00373
C 12.28619 16.97184 -0.00191
C 12.27336 15.59298 0.00438
C 13.53178 13.5623 0.00093
C 15.98681 19.13982 -0.00891
C 15.96099 17.75479 0.02819
C 14.72611 17.09629 0.00165
C 17.26212 19.83358 -0.01957
C 18.49518 19.21582 -0.0108
C 18.47274 17.71455 -0.00368
C 17.24712 17.03898 -0.02696
C 17.22651 15.59411 -0.00114
C 18.48825 14.85107 0.00228
C 18.37173 13.47952 0.00798
C 17.17762 12.73812 0.00422
C 17.23828 11.30637 0.0351
C 18.47125 10.6055 -0.03113
C 18.41356 9.23392 0.02098
C 17.1559 8.52986 0.01848
C 17.14051 7.11757 -0.00619
C 18.37082 6.44717 -0.02162
C 18.4098 5.02547 0.00889
C 17.19966 4.26814 -0.00481
C 17.25487 2.81997 0.00979
C 18.44725 2.10372 0.01443
C 18.44312 0.74581 0.03505
C 17.21139 0.03571 -0.02815
C 19.72592 32.68594 -0.04147
C 20.93288 31.93205 -0.05302
C 20.92423 30.47966 0.00213
C 17.17853 21.26667 0.02058
C 18.43347 22.00306 0.01965
C 18.4448 23.4363 -0.03682
C 17.18676 24.15888 0.00052
C 14.71206 15.66489 -0.02971
C 15.92576 14.94885 0.02894
C 15.93933 13.47526 -0.01789
C 14.69311 12.79718 0.00444
C 14.78415 11.38853 -0.00925
C 16.03599 10.61791 0.01877
C 15.93851 9.18992 0.01363
C 14.73039 8.4734 -0.02162
C 14.75999 7.07933 0.00415
C 15.96922 6.36372 -0.0014
C 15.94388 4.95544 0.02162
C 11.12865 6.36935 0.01572
C 14.79088 4.26766 0.0076
C 15.96018 2.1738 -0.01454
C 15.99536 0.66837 0.01945
C 14.74137 34.0739 0.01416
C 17.22292 32.67716 0.03542
C 18.46635 31.99902 0.02299
C 18.45857 30.48415 0.00244
C 17.20646 29.82084 -0.01717
C 17.16656 28.42759 0.05265
C 18.41292 27.69658 -0.01952
C 18.44111 26.27486 -0.02813
C 17.1833 25.60932 0.00374
C 14.7518 2.76104 0.01241
C 9.86741 7.14464 -0.00095
C 9.87099 8.54609 0.03007
C 11.07263 9.2302 0.00054
C 3.61746 0.75399 0.00828
C 2.48753 0.0419 -0.02375
C 4.96468 32.67703 0.00558
C 4.91221 25.48389 -0.0059
C 4.86263 24.19384 -0.01386
C 6.19397 23.3653 -0.02805
C 6.23186 22.01488 0.00081
C 4.9366 21.27997 0.00245
C 4.97979 19.85836 0.02728
C 6.18475 19.13328 -0.00039
C 6.10072 17.72976 0.0064
C 4.87406 17.12519 0.00211
C 4.92576 15.62743 -0.00449
C 6.177 14.90512 -0.01979
C 6.13762 13.49211 0.02784
C 4.96598 12.74303 -0.01977
C 4.90612 11.31049 -0.00561
C 6.19276 10.62193 0.00208
C 6.08053 9.2025 0.01707
C 4.85212 8.59612 0.02769
C 4.8806 7.18696 -0.03291
C 6.1279 6.41475 -0.04999
C 6.16106 5.01212 0.04505
C 3.67027 2.08398 0.00088
C 2.50686 2.85103 0.04421
C 2.50501 4.32745 -0.00177
C 3.68931 4.99621 0.03278
C 3.603 30.52066 -0.00018
C 2.41755 29.74852 0.01073
C 2.45233 28.325 0.01984
C 3.72124 27.71211 0.00535
C 3.75487 26.28352 -0.00198
C 2.46275 25.59504 -0.00012
C 2.45255 24.23439 -0.04306
C 3.64461 23.45013 -0.03672
C 3.75855 21.99243 0.01913
C 2.52256 21.34061 0.00267
C 2.48845 19.9145 0.00787
C 4.88385 4.15589 0.03284
C 3.6953 19.18224 0.02426
C 2.41479 17.0462 -0.01471
C 2.4181 15.55669 -0.02827
C 3.69102 14.90249 0.01078
C 3.67154 13.51131 -0.00112
C 2.4223 12.78231 0.03345
C 2.47145 11.29928 0.00748
C 3.67248 10.66154 0.00662
C 3.66693 9.26281 -0.0154
C 2.48132 8.53751 -0.01299
C 2.45654 7.07131 -0.00407
C 3.7267 6.39586 0.01138
C 3.68497 17.79058 0.01218
C 19.68482 29.80196 -0.00066
C 4.85342 2.8188 -0.04307
C 6.16957 0.70353 0.00031
C 7.39466 0.05671 0.01087
C 9.80134 32.70976 -0.01343
C 11.10487 32.06274 0.00988
C 10.99772 30.63851 0.0276
C 9.78081 29.86051 0.01305
C 9.84509 28.49641 -0.00077
C 10.97314 27.6985 0.03368
C 11.07581 26.32075 -0.02929
C 9.844 25.57006 -0.00966
C 9.82892 24.14459 -0.03337
C 11.00676 23.48114 0.01227
C 11.05197 22.05652 0.00873
C 9.88454 21.32294 -0.00049
C 9.77343 19.88785 0.00848
C 10.99322 19.22571 -0.01303
C 11.07258 17.72244 -0.01378
C 9.83922 17.06836 0.02635
C 9.78063 15.66971 0.0127
C 11.0355 14.97305 0.01396
C 11.13698 13.56005 0.01849
C 9.89364 12.7331 -0.01142
C 9.84372 11.37531 -0.00562
C 11.00381 10.65761 -0.00494
C 8.6301 0.72711 -0.05697
C 8.54328 2.19236 -0.00725
C 7.26194 2.83597 0.02322
C 7.32518 4.24397 -0.00094
C 4.89141 33.97833 -0.003
C 7.40214 32.73051 0.01402
C 8.48257 31.98687 0.02379
C 8.59117 26.33411 0.00907
C 7.41546 25.55666 0.00643
C 7.36609 24.14813 -0.01509
C 8.59494 23.48173 0.03267
C 8.6828 22.01486 0.02374
C 7.43571 21.35408 0.00402
C 7.35557 19.88337 0.0073
C 8.55808 19.1792 0.0174
C 6.09167 2.10906 0.03189
C 8.55498 17.81006 0.03828
C 7.46278 15.57245 -0.00279
C 8.61844 14.86654 0.01996
C 8.6995 13.4466 -0.03996
C 7.36753 12.8171 0.01465
C 7.39249 11.40304 -0.00074
C 8.61396 10.65758 -0.00518
C 8.59038 9.2203 0.0086
C 7.36248 8.52407 -0.00643
C 7.37728 7.12235 0.017
C 8.65131 6.43608 -0.03113
C 8.60207 4.8913 -0.02566
C 7.37913 17.0175 0.01226
C 19.69232 28.3912 -0.00289
C 20.90348 27.72776 0.00028
C 20.9026 26.23133 -0.02213
C 30.66826 14.90161 -0.0405
C 30.78159 13.43645 -0.01303
C 29.47648 12.73719 -0.01461
C 29.46747 11.38509 -0.02155
C 30.70462 10.65319 -0.00944
C 30.69185 9.21015 -0.03735
C 29.49939 8.52215 -0.00971
C 29.52342 7.04022 0.01518
C 30.78787 6.37725 0.01908
C 30.76394 4.99117 0.07705
C 29.60201 4.24307 0.0103
C 29.50539 2.73115 0.02108
C 30.78119 2.12314 0.00716
C 30.78519 0.68001 0.00307
C 29.47584 0.00973 0.00346
C 31.99643 32.63863 0.01713
C 33.19401 31.9625 -0.01694
C 33.1934 30.55867 0.01428
C 31.98539 29.90116 -0.02142
C 31.947 28.41584 0.0544
C 33.21263 27.74837 0.00026
C 33.16538 26.31269 0.00682
C 31.95266 25.56489 -0.01779
C 29.50278 15.62591 0.01705
C 29.56711 17.07506 0.0101
C 30.78642 17.73737 -0.00669
C 30.70529 19.11551 0.03531
C 28.2775 10.70338 0.00194
C 28.29697 9.2643 -0.00621
C 27.07723 8.57265 0.02611
C 26.99658 7.00849 0.02198
C 28.23294 6.35067 0.01094
C 28.29396 4.94162 0.00235
C 27.13651 4.2501 0.01495
C 27.0083 2.80846 0.01259
C 28.21049 2.1206 0.01799
C 28.25295 0.6618 0.01699
C 26.99839 34.06729 -0.00416
C 31.9824 24.08156 0.03794
C 29.53251 32.72237 0.01177
C 30.7545 30.57604 0.01324
C 29.52544 29.81088 0.0014
C 29.52348 28.38913 0.00924
C 30.68915 27.6588 0.02326
C 30.6749 26.25703 0.00261
C 29.49138 25.54523 0.03265
C 29.54512 24.08125 -0.02049
C 30.76691 23.41682 -0.01854
C 30.74237 22.05619 -0.01415
C 29.51589 21.3341 -0.03039
C 29.49729 19.95474 0.01836
C 30.69226 31.98893 0.04266
C 27.0199 11.35544 0.04185
C 33.20357 23.47737 0.01927
C 31.97105 21.29664 -0.02383
C 0.02594 24.16387 0.03076
C 1.20318 23.40464 0.00723
C 1.22131 22.00564 0.02712
C 34.41415 21.3374 -0.02213
C 34.417 19.95539 0.01951
C 1.22724 19.12899 -0.01678
C 1.21375 17.71252 0.01223
C 34.35925 17.02087 0.00648
C 34.41091 15.61306 0.02114
C 1.22887 14.88083 -0.02957
C 1.15831 13.39994 0.00343
C 34.39295 12.76649 -0.02656
C 0.01626 11.33621 -0.02442
C 1.21528 10.58568 -0.00027
C 1.18858 9.24281 -0.00583
C 0.03287 8.46853 -0.02302
C 0.01384 7.0723 -0.02849
C 1.26894 6.39452 0.02931
C 1.20614 4.93257 0.00628
C 0.00589 4.18955 -0.0345
C 34.40557 2.76929 -0.00931
C 1.20496 2.12296 -0.00939
C 1.2242 0.73947 -0.00468
C 0.03433 25.53977 -0.05239
C 1.21116 26.31748 -0.00598
C 1.12254 27.70858 -0.00439
C 34.37182 28.39914 -0.01037
C 31.94843 19.80979 -0.01429
C 33.16965 19.18558 -0.0136
C 33.24974 17.74219 0.00594
C 32.02357 17.0136 -0.02474
C 31.87289 15.63423 0.00369
C 33.11811 14.83363 0.00455
C 33.19348 13.45037 -0.00644
C 32.0006 12.7148 -0.01839
C 32.0131 11.28971 0.00137
C 33.25602 10.58906 0.00199
C 33.25577 9.17507 0.04381
C 33.18798 22.04213 0.01574
C 31.99054 8.47787 0.02806
C 33.17185 6.35879 -0.00069
C 33.19318 4.97809 0.04926
C 32.0362 4.21621 -0.03838
C 32.05977 2.77574 0.00349
C 33.19309 2.05613 -0.00323
C 33.2065 0.68715 -0.00841
C 31.99229 34.05099 0.0001
C 0.01475 32.65354 -0.02927
C 1.29551 31.96805 -0.01404
C 1.19108 30.53125 0.01027
C 34.42598 29.85679 0.01831
C 32.03044 7.07464 0.01504
C 3.80592 31.91977 -0.0005
C 27.07608 12.81706 0.02316
C 28.28432 14.95675 0.00152
C 22.15248 29.74024 -0.04076
C 22.14438 28.37317 -0.00652
C 23.40203 27.71278 0.0058
C 23.34578 26.33237 -0.00865
C 22.10389 25.5562 0.00675
C 22.13225 24.14956 -0.00311
C 23.33207 23.4573 0.00742
C 23.34141 22.02402 -0.01594
C 22.15505 21.35075 0.0106
C 22.09461 19.94456 -0.01154
C 23.32637 19.16009 -0.01721
C 23.37623 17.80509 -0.02422
C 22.18176 17.02295 0.01277
C 22.17698 15.59941 0.00096
C 23.28795 14.83261 -0.01527
C 23.39192 13.51386 0.01087
C 22.13223 12.75888 0.00199
C 22.2674 11.40621 0.01511
C 23.36836 10.67745 -0.00478
C 23.36167 9.21822 -0.01662
C 22.15074 8.50033 -0.01185
C 22.03747 7.13132 0.01126
C 23.28987 6.42145 0.01852
C 23.33559 30.5354 -0.00703
C 23.34446 31.94236 0.00654
C 22.16222 32.61579 -0.04422
C 19.59134 34.06447 -0.02957
C 19.67379 25.5568 0.03698
C 19.65723 24.18827 -0.00109
C 20.85344 23.40785 -0.00491
C 20.87752 22.02413 0.03338
C 19.64535 21.30006 -0.0258
C 19.6816 19.89049 -0.0331
C 20.90046 19.16774 -0.00316
C 20.95359 17.66276 0.02188
C 19.70003 17.02979 -0.01979
C 19.67757 15.57706 0.02691
C 20.89195 14.89556 -0.01581
C 23.43794 5.05389 -0.00381
C 20.89902 13.479 0.01452
C 19.62632 11.26754 -0.00111
C 20.91951 10.63852 -0.03557
C 20.8889 9.24317 0.03754
C 19.6231 8.54483 0.01739
C 19.67627 7.08796 0.00755
C 20.92341 6.41528 -0.0054
C 20.95684 4.97334 0.00667
C 19.64399 4.29079 0.00143
C 19.65607 2.80794 -0.017
C 20.90381 2.15493 0.00364
C 20.90465 0.73775 -0.00831
C 19.62172 12.75023 0.04892
C 28.23915 13.47274 0.01257
C 22.16893 4.25125 0.03046
C 23.35302 2.0965 0.03374
C 25.84593 4.94085 -0.01199
C 24.65526 4.24864 -0.00229
C 24.55486 2.88919 -0.00938
C 25.85118 2.17126 -0.0264
C 25.76848 0.72568 -0.01154
C 24.62201 0.01144 0.00684
C 27.07168 32.6754 -0.01052
C 28.27808 32.00867 -0.01679
C 28.31668 30.49847 0.00367
C 27.0196 29.78611 0.04306
C 27.12523 28.41772 0.00996
C 28.27281 27.74163 0.00195
C 28.29887 26.29848 -0.00802
C 27.06038 25.61497 -0.00218
C 27.07967 24.14445 -0.01654
C 28.29229 23.34515 -0.00037
C 28.23571 21.937 -0.0032
C 27.08754 21.2678 0.00622
C 27.00441 19.84977 -0.02815
C 28.22365 19.18837 -0.00942
C 28.26549 17.74613 0.00487
C 26.98474 17.06566 0.00826
C 27.07787 15.63448 -0.00294
C 25.74283 6.28233 -0.009
C 24.525 7.09651 -0.00285
C 24.58217 8.54111 0.01423
C 25.8594 9.27334 0.02555
C 23.34424 0.60978 -0.02845
C 22.15323 34.064 -0.03213
C 24.59407 32.69642 0.02239
C 25.78332 31.96302 0.01153
C 25.81561 30.58194 0.02734
C 24.58506 29.78926 -0.0055
C 24.62611 28.3615 0.01515
C 25.84931 27.69338 -0.00225
C 25.81825 26.26916 0.00071
C 24.58671 25.55348 -0.01107
C 24.61883 24.16859 -0.01586
C 22.13799 2.83285 0.0296
C 25.85025 23.46384 -0.01971
C 24.58033 21.26566 0.00733
C 24.51824 19.92329 -0.00178
C 25.77509 19.14027 0.00768
C 25.70866 17.72011 -0.0276
C 24.49899 17.04018 0.03005
C 24.54957 15.64197 -0.04078
C 25.84501 15.00536 0.02117
C 25.83031 13.52108 0.02737
C 24.61965 12.81309 -0.00498
C 24.59826 11.33373 0.00135
C 25.83489 10.60329 0.03102
C 25.81427 22.03856 -0.02118
C 2.45742 32.74405 0.01116
