391
Graphene
C 34.25123 0.03758 0.01295
C 15.96812 13.60562 0.01363
C 14.58787 13.06208 -0.02162
C 14.57938 11.66936 0.00415
C 15.85306 10.79776 -0.0014
C 15.81541 9.30913 0.02162
C 14.55752 8.56196 0.0076
C 14.73047 7.0603 0.01241
C 15.94366 6.38042 -0.01454
C 15.91309 5.05735 0.01945
C 16.00066 14.9719 0.01877
C 14.63972 4.31414 0.01416
C 15.89359 2.16753 0.02299
C 15.88585 0.67983 0.00244
C 14.695 34.0776 -0.01717
C 17.16214 32.59359 0.05265
C 18.44352 31.93859 -0.01952
C 18.46595 30.50557 -0.02813
C 17.23661 29.81887 0.00374
C 17.20274 28.42042 0.00052
C 18.49361 27.68135 -0.03682
C 14.71224 2.90742 0.03542
C 14.60833 15.4416 -0.00925
C 14.70265 16.94762 0.00444
C 16.02204 17.66626 -0.01789
C 13.43495 6.41299 -0.02759
C 13.47108 5.03729 0.0402
C 12.27696 4.33958 0.00572
C 12.22462 2.8354 0.03592
C 13.51635 2.13623 0.00406
C 13.47359 0.70058 0.00943
C 12.17034 0.04536 0.02841
C 14.76154 32.62182 -0.01111
C 15.93707 31.91641 -0.01275
C 15.99653 30.49554 0.00985
C 14.78517 29.91182 -0.02245
C 14.76157 28.45559 -0.00428
C 16.00315 27.77021 0.03101
C 15.94702 26.38397 -0.01536
C 14.79672 25.61225 -0.02689
C 14.78113 24.08583 -0.01046
C 15.94277 23.44576 -0.00891
C 15.96381 22.06296 0.02819
C 14.68385 21.30886 0.00165
C 14.66521 19.92071 -0.02971
C 15.88529 19.13733 0.02894
C 18.43189 26.28745 0.01965
C 12.48624 7.31613 0.03589
C 17.30924 25.62036 0.02058
C 18.47409 23.46965 -0.0108
C 19.74158 29.82135 0.03698
C 19.66536 28.3163 -0.00109
C 20.93824 27.6697 -0.00491
C 21.01015 26.17359 0.03338
C 19.71005 25.56468 -0.0258
C 19.71349 24.19065 -0.0331
C 20.97534 23.37284 -0.00316
C 20.92769 22.04829 0.02188
C 19.67499 21.26901 -0.01979
C 20.93076 30.52032 -0.02213
C 19.6108 19.89672 0.02691
C 20.94383 17.80614 0.01452
C 19.67758 17.11655 0.04892
C 19.55065 15.71927 -0.00111
C 20.76773 14.94349 -0.03557
C 20.79644 13.47547 0.03754
C 19.62631 12.76266 0.01739
C 19.63674 11.36216 0.00755
C 20.88903 10.5801 -0.0054
C 20.82071 9.13604 0.00667
C 20.88066 19.19481 -0.01581
C 20.96131 31.88914 0.00028
C 19.77166 32.60301 -0.00289
C 17.10429 34.04633 -0.00066
C 18.47114 21.94953 -0.00368
C 17.13063 21.33273 -0.02696
C 17.15061 19.89675 -0.00114
C 18.40927 19.22273 0.00228
C 18.53091 17.81997 0.00798
C 17.27392 17.08731 0.00422
C 17.1926 15.6568 0.0351
C 18.39347 14.87539 -0.03113
C 18.43824 13.46582 0.02098
C 17.21315 12.81664 0.01848
C 17.15746 11.42999 -0.00619
C 18.41617 10.67876 -0.02162
C 18.30025 9.29135 0.00889
C 17.07874 8.60246 -0.00481
C 17.13252 7.16829 0.00979
C 18.34081 6.44206 0.01443
C 18.36742 4.98418 0.03505
C 17.09376 4.35931 -0.02815
C 17.18017 2.89006 -0.04147
C 18.35716 2.07523 -0.05302
C 18.31178 0.59587 0.00213
C 17.22508 24.14882 -0.01957
C 19.49963 8.57681 0.00143
C 13.36402 9.12853 -0.00033
C 12.25377 17.21441 0.01364
C 4.84916 25.58049 -0.00074
C 4.83364 24.24435 -0.00518
C 6.10472 23.5071 0.0086
C 6.10369 22.03709 -0.00643
C 4.87621 21.31126 0.017
C 4.84015 19.85375 -0.03113
C 6.08292 19.46846 -0.02566
C 6.01565 4.99536 -0.00094
C 4.74684 4.49695 0.02322
C 6.13046 26.32021 0.01465
C 4.77625 2.94277 -0.00725
C 6.06239 0.77979 0.01087
C 4.773 0.07879 -0.01343
C 7.33594 32.70163 0.00988
C 8.60347 32.07235 0.0276
C 8.58977 30.61722 0.01305
C 7.29455 29.93888 -0.00077
C 7.32425 28.44937 0.03368
C 8.65333 27.72665 -0.02929
C 8.52053 26.35124 -0.00966
C 6.02762 2.25891 -0.05697
C 6.13534 27.77449 -0.03996
C 4.90788 28.396 0.01996
C 4.84095 29.84144 -0.00279
C 3.628 30.57002 0.02769
C 2.41828 29.8949 -0.03291
C 2.41085 28.54842 -0.04999
C 3.6656 27.79166 0.04505
C 3.5805 26.35766 0.03284
C 2.50325 25.60468 -0.04307
C 2.48413 24.11243 0.03189
C 3.69214 23.44828 0.00031
C 3.72773 22.07033 -0.003
C 2.47232 21.32272 0.01402
C 2.47351 19.90172 0.02379
C 3.60512 19.11786 0.00907
C 3.39609 5.05365 0.00643
C 2.33832 4.2305 -0.01509
C 2.36494 2.83214 0.03267
C 3.58226 2.2104 0.02374
C 3.61156 0.76438 0.00402
C 2.36382 0.03743 0.0073
C 4.84002 32.75671 0.0174
C 6.03482 31.95699 0.03828
C 6.07268 30.50372 0.01226
C 7.43126 25.60275 -0.03337
C 13.81416 14.18778 -0.01062
C 7.33835 24.18406 0.01227
C 8.56704 22.08459 -0.00049
C 9.801 4.46264 0.03693
C 9.79501 3.05751 0.01745
C 10.99501 2.22515 0.00488
C 11.03391 0.84944 -0.01004
C 9.79084 0.05404 -0.02896
C 12.2353 32.69781 -0.00131
C 13.55367 32.02967 -0.01118
C 13.5354 30.60898 -0.014
C 12.32171 29.84022 0.02147
C 11.14645 5.16951 -0.01384
C 12.26319 28.45557 0.00373
C 13.51266 26.36648 0.00438
C 12.22057 25.64061 0.01291
C 12.25737 24.21925 0.00093
C 13.53515 23.46415 0.00057
C 13.56987 22.06658 -0.01634
C 12.27384 21.37318 -0.00334
C 12.2593 19.89111 0.02339
C 13.53601 19.18714 0.01641
C 13.4717 17.75378 -0.00719
C 13.52823 27.75423 -0.00191
C 11.14735 17.92131 -0.00482
C 10.95961 19.29232 0.02888
C 9.76394 20.01115 0.00685
C 7.35135 21.3781 0.00848
C 7.38047 19.73274 -0.01303
C 8.64239 19.20696 -0.01378
C 8.57427 5.09647 0.02635
C 7.27111 4.42221 0.0127
C 7.286 2.90835 0.01396
C 8.59804 2.35027 0.01849
C 8.58074 0.85852 -0.01142
C 7.285 0.169 -0.00562
C 9.82609 32.70529 -0.00494
C 11.10418 31.93602 0.00054
C 11.07869 30.59675 0.03007
C 9.75698 29.8881 -0.00095
C 9.86144 28.52488 0.01572
C 11.10564 27.72816 -0.04848
C 11.05936 26.34415 -0.00892
C 9.76503 25.6536 -0.01362
C 9.73178 24.22304 -0.0008
C 11.01385 23.55661 0.0288
C 11.03797 22.07064 0.00393
C 9.79699 21.43367 0.00895
C 8.55001 23.46532 0.00873
C 3.66507 31.93808 0.01707
C 19.59089 7.05499 -0.017
C 20.82674 4.98495 -0.00831
C 30.61094 9.22888 0.07705
C 29.43415 8.45285 0.0103
C 29.405 7.07504 0.02108
C 30.64403 6.29153 0.00716
C 30.68791 4.97945 0.00307
C 29.46733 4.24508 0.00346
C 29.41591 2.85801 0.01713
C 30.75379 2.12714 -0.01694
C 30.63757 0.67495 0.01428
C 30.60524 10.65037 0.01908
C 29.35691 34.0619 -0.02142
C 33.1803 31.88876 0.00026
C 33.1492 30.50252 0.00682
C 31.94894 29.79292 -0.01779
C 31.99633 28.3619 0.03794
C 33.18564 27.63617 0.01927
C 33.26087 26.24518 0.01574
C 32.0174 25.5574 -0.02383
C 31.97184 24.18287 -0.01429
C 33.24861 23.46194 -0.0136
C 31.97418 32.66073 0.0544
C 29.4552 11.34326 0.01518
C 29.42853 12.83173 -0.00971
C 30.65553 13.47781 -0.03735
C 28.12819 2.12548 0.04266
C 28.20171 0.70704 0.01324
C 27.071 34.05684 0.0014
C 29.46324 32.65728 0.00924
C 30.75394 31.99694 0.02326
C 30.75403 30.53879 0.00261
C 29.52928 29.8214 0.03265
C 29.52537 28.37154 -0.02049
C 30.80285 27.68648 -0.01854
C 30.74001 26.33172 -0.01415
C 29.58783 25.54383 -0.03039
C 29.52122 24.05266 0.01836
C 30.69807 23.41577 0.03531
C 30.80177 21.98437 -0.00669
C 29.56185 21.31328 0.0101
C 29.55122 19.87173 0.01705
C 30.75788 19.08112 -0.0405
C 30.69212 17.59439 -0.01303
C 29.49422 16.96782 -0.01461
C 29.48703 15.52586 -0.02155
C 30.72863 14.86176 -0.00944
C 33.17689 21.98064 0.00594
C 26.93932 2.83082 0.01177
C 31.9441 21.17333 -0.02474
C 33.20575 19.11058 0.00455
C 0.02641 25.5655 -0.02213
C 0.01112 24.14872 0.01951
C 1.25886 23.52356 -0.01678
C 1.20079 22.02512 0.01223
C 34.41447 21.32313 0.00648
C 34.3747 19.86423 0.02114
C 1.17631 19.2616 -0.02957
C 1.32203 17.84567 0.00343
C 0.09785 17.03247 -0.02656
C 1.22351 26.23061 0.02712
C 34.34554 15.63376 -0.02442
C 34.22953 11.42106 -0.00583
C 34.41458 8.5968 -0.02302
C 0.15653 7.14824 -0.02849
C 1.22898 6.32672 0.02931
C 1.11014 4.98782 0.00628
C 34.29524 4.28474 -0.0345
C 34.36182 2.85248 -0.00931
C 1.1728 2.14051 -0.00939
C 1.12882 0.70844 -0.00468
C 34.20515 12.75019 -0.00027
C 1.22945 27.75501 0.00723
C 34.3691 28.37661 0.03076
C 34.36108 29.82348 -0.05239
C 33.206 17.6731 -0.00644
C 31.9894 17.03214 -0.01839
C 31.90531 15.67246 0.00137
C 33.09677 14.93289 0.00199
C 33.13588 13.58261 0.04381
C 31.83688 12.79952 0.02806
C 31.89663 11.36395 0.01504
C 33.17794 10.64349 -0.00069
C 33.19967 9.22152 0.04926
C 31.88416 8.45724 -0.03838
C 31.89591 7.13407 0.00349
C 33.16568 6.41091 -0.00323
C 33.18716 5.02342 -0.00841
C 31.92221 4.2761 0.0001
C 31.95574 2.89168 -0.02927
C 33.20215 2.18995 -0.01404
C 33.09802 0.78255 0.01027
C 31.91646 34.07518 0.01831
C 34.37922 32.71349 -0.01037
C 1.2163 31.95663 -0.00439
C 1.14665 30.60102 -0.00598
C 32.02092 19.78047 0.00369
C 20.845 6.38298 0.00364
C 26.99198 4.24102 -0.00416
C 28.20329 6.37007 0.01799
C 22.0854 11.36066 0.01126
C 23.31645 10.55769 0.01852
C 23.25704 9.13008 -0.00381
C 21.97728 8.45034 0.03046
C 22.08403 7.03884 0.0296
C 23.30446 6.37466 0.03374
C 23.3614 4.95804 -0.02845
C 22.05987 4.25115 -0.03213
C 22.08529 2.7111 0.02239
C 22.01728 12.80364 -0.01185
C 23.25245 2.08423 0.01153
C 22.21635 33.96445 -0.0055
C 24.62954 32.59663 0.01515
C 25.89042 31.8456 -0.00225
C 25.83875 30.40745 0.00071
C 24.57859 29.75443 -0.01107
C 24.67381 28.3792 -0.01586
C 25.92353 27.68947 -0.01971
C 25.93831 26.26316 -0.02118
C 24.67104 25.60746 0.00733
C 23.38406 0.6499 0.02734
C 23.30306 13.49635 -0.01662
C 23.3151 14.92973 -0.00478
C 22.02822 15.61097 0.01511
C 19.60174 4.22788 -0.02957
C 19.64245 2.68156 -0.04422
C 20.88322 2.00859 0.00654
C 20.86765 0.65898 -0.00703
C 19.61963 34.05199 -0.04076
C 22.1645 32.53398 -0.00652
C 23.35239 31.80649 0.0058
C 23.33007 30.45077 -0.00865
C 22.07343 29.80164 0.00675
C 22.11913 28.37612 -0.00311
C 23.44642 27.63492 0.00742
C 23.40767 26.30253 -0.01594
C 22.23537 25.48013 0.0106
C 22.17252 24.07829 -0.01154
C 23.37719 23.37646 -0.01721
C 23.4358 22.01193 -0.02422
C 22.16039 21.29456 0.01277
C 22.12261 19.84795 0.00096
C 23.3381 19.13841 -0.01527
C 23.29396 17.6529 0.01087
C 22.10189 16.96304 0.00199
C 24.60348 24.12349 -0.00178
C 28.19231 4.89473 0.01699
C 25.8339 23.39932 0.00768
C 24.55911 21.29016 0.03005
C 28.3864 27.67694 -0.00037
C 28.29896 26.12715 -0.0032
C 27.08487 25.58438 0.00622
C 27.00588 24.09031 -0.02815
C 28.3357 23.33245 -0.00942
C 28.3378 21.96257 0.00487
C 27.06296 21.29431 0.00826
C 27.09939 19.90369 -0.00294
C 28.30093 19.18005 0.00152
C 27.19285 28.40536 -0.01654
C 28.27844 17.73502 0.01257
C 26.90353 15.65697 0.04185
C 28.26812 14.97212 0.00194
C 28.25352 13.51535 -0.00621
C 27.05995 12.71886 0.02611
C 27.03467 11.29664 0.02198
C 28.25996 10.62198 0.01094
C 28.20197 9.19381 0.00235
C 26.93768 8.50222 0.01495
C 26.99475 7.05138 0.01259
C 26.94116 17.12085 0.02316
C 27.07133 29.76513 -0.00218
C 28.29427 30.46828 -0.00802
C 28.2797 31.89497 0.00195
C 24.50478 19.80655 -0.04078
C 25.80139 19.20666 0.02117
C 25.78507 17.85206 0.02737
C 24.59121 17.0142 -0.00498
C 24.50539 15.59256 0.00135
C 25.74888 14.90926 0.03102
C 25.77036 13.50639 0.02555
C 24.44563 12.77726 0.01423
C 24.50061 11.30716 -0.00285
C 25.77217 10.61611 -0.009
C 25.75323 9.25417 -0.01199
C 24.45005 8.46279 -0.00229
C 24.47934 7.10377 -0.00938
C 25.72874 6.37992 -0.0264
C 25.75115 4.96966 -0.01154
C 24.53566 4.21678 0.00684
C 24.54051 2.80475 -0.01052
C 25.74668 2.06451 -0.01679
C 25.79186 0.67166 0.00367
C 24.66192 33.95582 0.04306
C 27.03045 32.64093 0.00996
C 25.88414 21.94957 -0.0276
C 2.41199 32.74823 0.00208
