329
Graphene
C 34.40273 0.01372 0.01295
C 10.96279 22.00435 -0.05302
C 9.80354 21.23904 0.00213
C 9.81107 19.82021 -0.00066
C 10.7037 18.53859 -0.00289
C 10.14369 17.64973 0.00028
C 9.75645 11.37606 -0.02213
C 11.20803 9.04119 0.03698
C 10.97712 23.39784 -0.04147
C 9.92323 8.59774 -0.00109
C 11.02215 6.48275 0.03338
C 11.00063 5.02964 -0.0258
C 9.8417 4.25535 -0.0331
C 9.86443 2.85518 -0.00316
C 11.08778 2.14471 0.02188
C 11.10979 0.63977 -0.01979
C 9.89263 0.02349 0.02691
C 9.83427 7.14722 -0.00491
C 9.801 24.10429 -0.02815
C 9.74521 25.57511 0.03505
C 11.02395 26.35364 0.01443
C 8.59709 10.68236 -0.01957
C 8.61963 9.2403 -0.0108
C 7.37379 8.45317 -0.00368
C 7.36125 7.05502 -0.02696
C 8.52266 6.38822 -0.00114
C 8.57684 4.96368 0.00228
C 7.34339 4.25296 0.00798
C 7.39773 2.87894 0.00422
C 8.69668 2.07332 0.0351
C 8.68841 0.68711 -0.03113
C 7.45873 0.02821 0.02098
C 9.89694 32.62919 0.01848
C 11.13442 31.98296 -0.00619
C 11.00166 30.44584 -0.02162
C 9.78077 29.83516 0.00889
C 9.78994 28.39529 -0.00481
C 11.04821 27.71969 0.00979
C 12.28146 32.6504 -0.01581
C 7.27035 11.37201 0.02058
C 13.56955 31.93299 0.01452
C 12.23303 29.83788 -0.00111
C 15.92452 27.62247 -0.01594
C 15.91942 26.20319 0.0106
C 14.63793 25.59706 -0.01154
C 14.74835 24.09636 -0.01721
C 15.91752 23.36436 -0.02422
C 15.92464 5.18183 0.01277
C 14.73232 4.39771 0.00096
C 14.67931 28.40488 0.00742
C 14.76824 3.00828 -0.01527
C 16.01879 0.80331 0.00199
C 14.83977 0.06453 0.01511
C 17.21883 32.67458 -0.00478
C 18.42783 31.92503 -0.01662
C 18.41481 30.53988 -0.01185
C 17.11757 29.75617 0.01126
C 17.10669 28.37947 0.01852
C 15.96008 2.24567 0.01087
C 14.70741 29.84344 -0.00311
C 15.92833 30.61248 0.00675
C 15.96712 32.01696 -0.00865
C 12.32107 28.36234 -0.03557
C 13.4691 27.68896 0.03754
C 13.4681 26.29562 0.01739
C 12.2264 25.60637 0.00755
C 12.19366 24.15801 -0.0054
C 13.56793 23.33734 0.00667
C 13.3512 21.91579 0.00143
C 12.19564 21.40729 -0.017
C 12.12736 7.166 0.00364
C 13.30633 6.57109 -0.00831
C 13.42192 5.12839 -0.02957
C 12.24497 4.28918 -0.04422
C 12.33501 2.88526 0.00654
C 13.54588 2.18352 -0.00703
C 13.58144 0.74123 -0.04076
C 12.30818 0.02698 -0.00652
C 14.79323 32.72142 0.0058
C 13.49752 30.55982 0.04892
C 7.35209 12.6906 0.01965
C 8.63334 13.3387 -0.03682
C 8.62439 14.68308 0.00052
C 2.41419 8.46465 0.00373
C 2.44047 7.11178 -0.00191
C 3.76261 6.37223 0.00438
C 3.72902 4.93328 0.01291
C 2.47519 4.24568 0.00093
C 2.55845 2.82737 0.00057
C 3.79199 2.18502 -0.01634
C 3.66888 9.19384 0.02147
C 3.73606 0.74294 -0.00334
C 4.94037 32.74931 0.01641
C 6.17059 32.06213 -0.00719
C 6.17987 30.59038 0.01364
C 4.95897 29.82705 -0.01062
C 4.87462 28.46288 -0.00033
C 6.16441 27.74668 0.03589
C 6.05307 26.35258 -0.02759
C 2.50709 0.03754 0.02339
C 3.60995 10.71578 -0.014
C 2.36183 11.38623 -0.01118
C 2.35391 12.82901 -0.00131
C 3.65326 30.57138 0.01572
C 2.34959 29.90548 -0.04848
C 2.35674 28.46519 -0.00892
C 3.59128 27.76849 -0.01362
C 3.59624 26.33357 -0.0008
C 2.36416 25.62869 0.0288
C 2.47146 24.30497 0.00393
C 3.72167 23.51334 0.00895
C 3.66863 22.07979 0.00685
C 2.44053 21.37097 0.02888
C 2.44268 19.92328 -0.00482
C 3.69015 19.11095 -0.01384
C 3.61425 17.79401 0.03693
C 2.32611 17.11268 0.01745
C 2.35952 15.69875 0.00488
C 3.55495 14.96036 -0.01004
C 3.56929 13.54286 -0.02896
C 4.82287 25.70908 0.0402
C 4.90177 24.22755 0.00572
C 6.09465 23.38181 0.03592
C 6.09607 21.99406 0.00406
C 7.42496 32.72965 -0.02162
C 8.6047 32.00926 0.00415
C 8.66008 30.57157 -0.0014
C 7.39108 29.89682 0.02162
C 7.39149 28.48251 0.0076
C 8.55656 27.74426 0.01241
C 8.57936 26.31843 -0.01454
C 7.30722 25.603 0.01945
C 7.35292 24.06606 0.01416
C 8.53485 23.40926 0.03542
C 8.4744 22.03044 0.02299
C 7.29654 21.30418 0.00244
C 7.2924 19.95743 -0.01717
C 8.45838 19.17409 0.05265
C 8.71003 17.73388 -0.01952
C 7.48151 17.01684 -0.02813
C 7.54087 15.60635 0.00374
C 4.9616 0.09569 0.01363
C 18.39427 27.59599 -0.00381
C 6.20956 0.69085 0.01877
C 5.0317 2.8192 0.00444
C 4.83584 21.28413 0.00943
C 4.83925 19.86032 0.02841
C 6.09152 19.13491 -0.01111
C 6.14726 17.75374 -0.01275
C 4.86436 16.99945 0.00985
C 4.92677 15.61494 -0.02245
C 6.18474 14.94417 -0.00428
C 6.10552 13.45634 0.03101
C 4.82819 12.76448 -0.01536
C 4.91492 11.29983 -0.02689
C 6.06505 10.59313 -0.01046
C 6.13354 9.12094 -0.00891
C 4.92793 8.52327 0.02819
C 4.87841 7.11572 0.00165
C 6.13629 6.38146 -0.02971
C 6.13869 4.96239 0.02894
C 4.93537 4.19586 -0.01789
C 6.24116 2.13439 -0.00925
C 3.74683 31.97243 -0.00095
C 18.32489 26.16524 0.03046
C 17.18118 23.9181 0.03374
C 31.95922 32.68732 0.00682
C 33.15167 31.97783 -0.01779
C 33.12155 30.56934 0.03794
C 31.84981 29.85664 0.01927
C 31.78235 28.44634 0.01574
C 33.1351 27.809 -0.02383
C 33.08359 26.41661 -0.01429
C 29.47554 0.08296 0.00026
C 33.26757 19.2638 -0.0136
C 31.79334 17.04385 -0.02474
C 31.87263 15.64458 0.00369
C 33.09615 14.96145 0.00455
C 33.21153 13.55812 -0.00644
C 31.9682 12.73969 -0.01839
C 31.91973 11.39598 0.00137
C 33.08998 10.64442 0.00199
C 32.92268 17.92685 0.00594
C 30.74235 0.73105 0.0544
C 30.73594 2.1411 -0.02142
C 29.462 2.88109 0.01428
C 30.72023 32.00487 -0.0405
C 30.665 30.60441 -0.01303
C 29.40095 29.93073 -0.01461
C 29.41969 28.5406 -0.02155
C 30.59771 27.90388 -0.00944
C 29.48747 15.63926 -0.03735
C 30.67547 14.93852 -0.00971
C 30.70459 13.4063 0.01518
C 29.51913 12.79157 0.01908
C 29.53952 11.33926 0.07705
C 30.72315 10.65018 0.0103
C 30.73162 9.22106 0.02108
C 29.52491 8.41678 0.00716
C 29.47995 7.07502 0.00307
C 30.74286 6.31731 0.00346
C 30.77653 4.95264 0.01713
C 29.51904 4.25918 -0.01694
C 33.17146 9.24181 0.04381
C 29.478 32.6697 0.01705
C 31.92599 8.52544 0.02806
C 33.16336 6.38968 -0.00069
C 34.3398 17.16024 0.00648
C 34.3568 15.66423 0.02114
C 1.13201 14.93892 -0.02957
C 1.12861 13.58282 0.00343
C 34.40061 12.83939 -0.02656
C 34.29875 11.3952 -0.02442
C 1.09571 10.66696 -0.00027
C 1.1017 17.86222 0.01223
C 1.16464 9.30789 -0.00583
C 34.37537 7.1161 -0.02849
C 1.22971 6.38231 0.02931
C 1.24202 4.97756 0.00628
C 0.0255 4.28868 -0.0345
C 0.05762 2.81742 -0.00931
C 1.24623 2.13019 -0.00939
C 1.28003 0.69111 -0.00468
C 34.40022 8.50295 -0.02302
C 1.18803 19.29277 -0.01678
C 34.37548 20.04477 0.01951
C 0.00107 21.4648 -0.02213
C 33.19258 5.01554 0.04926
C 31.99746 4.25918 -0.03838
C 32.00214 2.85183 0.00349
C 33.17382 2.14866 -0.00323
C 33.17862 0.80763 -0.00841
C 31.97712 0.03409 0.0001
C 34.32138 32.71145 -0.02927
C 1.18229 32.06707 -0.01404
C 1.14709 30.65045 0.01027
C 34.31988 29.93848 0.01831
C 34.35086 28.54119 -0.01037
C 1.05581 27.70223 -0.00439
C 1.08258 26.28118 -0.00598
C 34.13945 25.57825 -0.05239
C 0.02317 24.12141 0.03076
C 1.2626 23.56237 0.00723
C 1.22248 22.12501 0.02712
C 31.91645 7.08863 0.01504
C 26.99363 0.01993 0.0101
C 28.26379 0.75362 -0.00669
C 28.23465 2.12139 0.03531
C 19.60808 2.85064 -0.00498
C 20.83221 2.08239 0.00135
C 20.87342 0.78532 0.03102
C 19.58865 0.05423 0.02555
C 22.06792 32.56091 0.01423
C 23.27831 31.90497 -0.00285
C 23.30063 30.53076 -0.009
C 19.72316 4.28112 0.02737
C 22.05081 29.80395 -0.01199
C 23.39315 27.59106 -0.00938
C 23.42356 26.21738 -0.0264
C 22.17321 25.48537 -0.01154
C 22.31223 24.07611 0.00684
C 22.13702 6.97232 -0.01052
C 23.3519 6.34906 -0.01679
C 23.33047 4.84639 0.00367
C 22.15259 28.32278 -0.00229
C 20.91346 4.8825 0.02117
C 21.02181 6.27833 -0.04078
C 20.56718 22.05668 0.03005
C 18.54245 23.3985 -0.02845
C 18.53059 5.03318 -0.03213
C 17.2031 4.48934 0.02239
C 17.20419 2.96818 0.01153
C 18.37462 2.17545 0.02734
C 18.42451 0.77144 -0.0055
C 17.1709 0.08699 0.01515
C 19.6359 32.62697 -0.00225
C 20.86201 31.88286 0.00071
C 20.81115 30.48129 -0.01107
C 19.61485 29.81225 -0.01586
C 19.6637 28.34079 -0.01971
C 20.90579 27.6809 -0.02118
C 20.92299 26.25732 0.00733
C 19.72289 25.56968 -0.00178
C 19.71306 24.13496 0.00768
C 20.97384 23.35087 -0.0276
C 22.12772 4.21251 0.04306
C 22.10708 2.78988 0.00996
C 23.29472 2.07384 0.00195
C 23.32238 0.64079 -0.00802
C 28.19514 32.01387 0.01259
C 28.1997 30.6346 0.01799
C 26.9797 29.83094 0.01699
C 27.0724 28.44206 -0.00416
C 26.65623 15.47943 0.01177
C 28.1421 14.99183 0.04266
C 28.22987 13.49248 0.01324
C 26.96955 12.7446 0.0014
C 27.05532 11.35539 0.00924
C 28.26964 10.58734 0.02326
C 28.24845 9.1012 0.00261
C 26.93631 8.47107 0.03265
C 27.00897 7.06409 -0.02049
C 28.26827 6.48839 -0.01854
C 28.30449 4.95986 -0.01415
C 27.06098 4.27884 -0.03039
C 26.97385 2.83596 0.01836
C 27.02153 32.72199 0.01495
C 17.17437 25.39508 0.0296
C 24.56683 33.95865 0.00235
C 25.75587 2.06584 0.02198
C 22.02253 34.04922 -0.00218
C 24.5304 32.61144 -0.01654
C 25.78188 31.97099 -0.00037
C 25.78313 30.56726 -0.0032
C 24.54793 29.81348 0.00622
C 24.67449 28.33568 -0.02815
C 25.83515 27.69719 -0.00942
C 25.88331 14.43867 0.00487
C 25.61416 13.18895 0.00826
C 25.87282 10.66727 -0.00294
C 25.71298 9.23969 0.00152
C 24.50587 8.46267 0.01257
C 24.59672 7.03904 0.02316
C 25.82686 6.29913 0.04185
C 25.90553 4.9138 0.00194
C 24.63652 4.14574 -0.00621
C 24.5127 2.75648 0.02611
C 25.75559 0.58174 0.01094
C 2.48659 32.68834 0.03007
