404
Graphene
C 0.01991 0.00565 0.01295
C 13.42402 26.33217 -0.01046
C 12.26173 25.60385 -0.00891
C 12.17393 24.20217 0.02819
C 13.36957 23.50264 0.00165
C 13.39756 22.0109 -0.02971
C 12.18344 21.28287 0.02894
C 12.27863 19.89308 -0.01789
C 13.49219 19.18768 0.00444
C 13.55899 17.83114 -0.00925
C 12.30245 17.09018 0.01877
C 12.29803 15.60335 0.01363
C 13.55192 14.88963 -0.02162
C 13.52432 13.45685 0.00415
C 12.28928 12.79616 -0.0014
C 12.37825 11.34336 0.02162
C 13.63482 10.71096 0.0076
C 13.59008 9.29729 0.01241
C 12.35369 8.53901 -0.01454
C 12.22408 7.18055 0.01945
C 13.47482 6.41729 0.01416
C 13.50151 4.98697 0.03542
C 13.53913 27.77187 -0.02689
C 12.27213 4.32354 0.02299
C 12.24057 28.485 -0.01536
C 13.58419 30.54509 -0.00428
C 10.99147 19.17377 0.00057
C 11.0541 17.77231 -0.01634
C 9.82011 17.08059 -0.00334
C 9.84526 15.61656 0.02339
C 11.08586 14.89906 0.01641
C 11.10132 13.43911 -0.00719
C 9.83745 12.67778 0.01364
C 9.84933 11.33344 -0.01062
C 11.11043 10.58379 -0.00033
C 11.0255 9.24549 0.03589
C 9.75357 8.52836 -0.02759
C 9.81166 7.06179 0.0402
C 11.04752 6.41209 0.00572
C 11.0774 5.03365 0.03592
C 9.8368 4.22689 0.00406
C 9.81189 2.87083 0.00943
C 11.10134 2.15675 0.02841
C 11.06089 0.73223 -0.01111
C 9.77534 0.0708 -0.01275
C 12.24661 32.72722 0.00985
C 13.53945 32.02837 -0.02245
C 12.27706 29.93016 0.03101
C 12.28145 2.88548 0.00244
C 13.60426 2.20513 -0.01717
C 13.53646 0.72755 0.05265
C 15.9765 6.40145 -0.02815
C 16.06461 4.99145 -0.04147
C 14.79348 4.32149 -0.05302
C 14.91275 2.82531 0.00213
C 16.14504 2.17407 -0.00066
C 15.99436 0.69617 -0.00289
C 14.80776 0.01789 0.00028
C 17.22685 32.63168 -0.02213
C 18.56253 31.92858 0.03698
C 18.47161 30.52876 -0.00109
C 17.23703 29.87244 -0.00491
C 17.19747 28.41636 0.03338
C 18.43398 27.73244 -0.0258
C 18.33161 26.2163 -0.0331
C 17.10033 25.45963 -0.00316
C 17.14261 24.0991 0.02188
C 18.41606 23.42316 -0.01979
C 18.40548 21.96704 0.02691
C 17.11982 21.32581 -0.01581
C 17.1783 19.89849 0.01452
C 18.29939 19.18765 0.04892
C 14.66459 7.08485 0.03505
C 14.80687 8.49293 0.01443
C 16.08894 9.16585 0.00979
C 16.04935 10.59526 -0.00481
C 12.25587 0.07517 -0.01952
C 14.76271 32.72496 -0.02813
C 16.022 31.98918 0.00374
C 15.97721 30.57151 0.00052
C 14.80972 29.81182 -0.03682
C 14.78597 28.44309 0.01965
C 15.97654 27.6916 0.02058
C 15.89908 26.2523 -0.01957
C 14.63505 25.59463 -0.0108
C 14.64164 24.20429 -0.00368
C 9.83908 19.91077 0.00093
C 15.82277 23.49111 -0.02696
C 14.71216 21.39808 0.00228
C 14.65402 20.01851 0.00798
C 15.93965 19.19744 0.00422
C 16.00758 17.72079 0.0351
C 14.78673 17.03066 -0.03113
C 14.78111 15.60139 0.02098
C 15.99581 14.86004 0.01848
C 16.05029 13.43441 -0.00619
C 14.78428 12.79879 -0.02162
C 14.90418 11.38822 0.00889
C 15.932 22.0973 -0.00114
C 18.35257 17.70645 -0.00111
C 9.69469 21.38434 0.01291
C 10.96135 23.48323 -0.00191
C 2.36828 33.91322 0.00643
C 5.90013 32.13702 -0.01509
C 5.83937 30.67851 0.03267
C 4.96469 28.89926 0.02374
C 6.02608 27.98857 0.00402
C 6.0102 26.48697 0.0073
C 4.86769 25.75308 0.0174
C 4.78518 24.29257 0.03828
C 6.08492 23.56925 0.01226
C 6.01275 22.11916 -0.00279
C 4.83773 21.31444 0.01996
C 4.82134 19.89355 -0.03996
C 6.11871 19.16972 0.01465
C 6.07431 17.83389 -0.00074
C 4.78271 17.12743 -0.00518
C 4.88805 15.71004 0.0086
C 6.1252 14.99688 -0.00643
C 6.06126 13.52106 0.017
C 4.86167 12.8784 -0.03113
C 4.88079 11.35377 -0.02566
C 6.14501 10.74357 -0.00094
C 3.65677 0.33932 0.00907
C 6.13928 9.25999 0.02322
C 3.63127 1.96686 0.02379
C 2.46364 4.26097 -0.003
C 3.61096 26.49885 0.00081
C 2.43864 25.67072 0.00245
C 2.40325 24.14627 0.02728
C 3.62531 23.47135 -0.00039
C 3.62974 22.07552 0.0064
C 2.38813 21.3007 0.00211
C 2.42717 19.96017 -0.00449
C 3.602 19.19134 -0.01979
C 3.56388 17.78876 0.02784
C 2.38746 17.00492 -0.01977
C 2.37711 15.60182 -0.00561
C 3.66717 14.90984 0.00208
C 3.66092 13.48199 0.01707
C 2.41454 12.79025 0.02769
C 2.44078 11.43607 -0.03291
C 3.66398 10.69137 -0.04999
C 3.58865 9.19929 0.04505
C 2.35855 8.456 0.03284
C 2.43392 7.03057 -0.04307
C 3.70497 6.40847 0.03189
C 3.64544 5.00375 0.00031
C 2.49168 2.80014 0.01402
C 4.85284 8.57213 -0.00725
C 4.91514 7.14934 -0.05697
C 6.06535 6.47212 0.01087
C 7.37869 11.44941 -0.04848
C 8.56872 10.6955 -0.00892
C 8.5869 9.29972 -0.01362
C 7.37826 8.59611 -0.0008
C 7.27665 7.09971 0.0288
C 8.5413 6.41806 0.00393
C 8.54698 4.97039 0.00895
C 7.32431 4.31082 0.00685
C 7.26702 2.80406 0.02888
C 8.55279 2.18747 -0.00482
C 8.57142 0.7531 -0.01384
C 7.36688 0.03273 0.03693
C 9.83807 32.70678 0.01745
C 11.04608 32.02479 0.00488
C 10.94106 30.63027 -0.01004
C 9.7465 29.88515 -0.02896
C 9.76701 28.5154 -0.00131
C 10.92072 27.76134 -0.01118
C 10.93206 26.35116 -0.014
C 9.74371 25.68502 0.02147
C 9.73529 24.2477 0.00373
C 7.33518 12.82067 0.01572
C 8.58959 13.5253 -0.00095
C 8.60026 14.88809 0.03007
C 7.43785 15.65786 0.00054
C 6.04623 4.99493 -0.01343
C 4.8922 4.29433 0.00988
C 4.87938 2.73394 0.0276
C 6.02533 2.02226 0.01305
C 6.00928 0.58636 -0.00077
C 5.00876 33.77267 0.03368
C 7.27198 32.69864 -0.02929
C 8.55352 32.04449 -0.00966
C 8.51982 30.6584 -0.03337
C 7.18443 29.99425 0.01227
C 10.98739 22.06891 0.00438
C 7.33045 28.56361 0.00873
C 8.44318 26.45169 0.00848
C 7.25574 25.74733 -0.01303
C 7.31745 24.32356 -0.01378
C 8.54659 23.6072 0.02635
C 8.52692 22.09416 0.0127
C 7.34663 21.40439 0.01396
C 7.30279 19.88034 0.01849
C 8.59141 19.22842 -0.01142
C 8.57137 17.78266 -0.00562
C 7.34901 17.05444 -0.00494
C 8.54512 27.89204 -0.00049
C 17.1917 16.95376 -0.03557
C 17.30518 15.63258 0.03754
C 18.61066 14.97711 0.01739
C 30.68961 10.75978 -0.00971
C 30.55303 9.31392 0.01518
C 29.39846 8.48411 0.01908
C 29.32724 7.12784 0.07705
C 30.67395 6.39956 0.0103
C 30.76848 4.95638 0.02108
C 29.56242 4.14527 0.00716
C 29.53211 2.77969 0.00307
C 30.80659 2.07735 0.00346
C 30.7182 0.675 0.01713
C 29.49604 0.00626 -0.01694
C 32.07599 32.65608 0.01428
C 33.38832 32.00694 -0.02142
C 33.29749 30.53102 0.0544
C 32.10075 29.76719 0.00026
C 31.96185 28.37504 0.00682
C 33.18136 27.70325 -0.01779
C 33.13895 26.18623 0.03794
C 31.90683 25.4747 0.01927
C 31.90363 24.09878 0.01574
C 33.11791 23.42854 -0.02383
C 30.71939 13.37484 -0.03735
C 33.04407 21.98624 -0.01429
C 30.46975 14.76469 -0.00944
C 29.4074 16.99011 -0.01461
C 26.40212 6.59597 0.01699
C 27.89701 6.12722 -0.00416
C 28.20372 4.87697 0.01177
C 28.32569 2.25345 0.04266
C 28.3 0.8057 0.01324
C 26.95857 0.24059 0.0014
C 29.54117 32.68691 0.00924
C 30.84901 31.95233 0.02326
C 30.85346 30.43279 0.00261
C 29.56105 29.82615 0.03265
C 29.41293 28.39897 -0.02049
C 30.7023 27.74233 -0.01854
C 30.7127 26.19408 -0.01415
C 29.4444 25.50457 -0.03039
C 29.39253 24.09535 0.01836
C 30.65873 23.43903 0.03531
C 30.59219 21.99806 -0.00669
C 29.36745 21.30355 0.0101
C 29.44154 19.89856 0.01705
C 30.6487 19.14475 -0.0405
C 30.61837 17.74754 -0.01303
C 29.29572 15.52419 -0.02155
C 31.85879 21.34028 -0.0136
C 31.90089 19.84329 0.00594
C 33.09828 19.07844 -0.02474
C 1.10382 22.06278 0.02712
C 34.36043 21.29622 -0.02213
C 34.37049 19.76229 0.01951
C 1.2072 19.19224 -0.01678
C 1.16614 17.75465 0.01223
C 34.35407 17.14409 0.00648
C 34.32146 15.63371 0.02114
C 1.088 14.93208 -0.02957
C 1.18305 13.53457 0.00343
C 34.34288 12.84245 -0.02656
C 34.33833 11.39168 -0.02442
C 1.20094 10.70628 -0.00027
C 1.11054 9.26018 -0.00583
C 34.28261 8.59093 -0.02302
C 34.29812 7.13363 -0.02849
C 1.18792 6.35638 0.02931
C 1.17503 4.96968 0.00628
C 0.01273 4.20052 -0.0345
C 0.00577 2.81529 -0.00931
C 1.21043 2.11628 -0.00939
C 1.21101 0.69838 -0.00468
C 1.18805 23.52326 0.00723
C 34.33968 24.13231 0.03076
C 34.34296 25.55628 -0.05239
C 1.14375 26.26124 -0.00598
C 33.12894 17.70544 0.00369
C 31.87911 16.96864 0.00455
C 31.77119 15.53609 -0.00644
C 33.11535 14.89203 -0.01839
C 33.13888 13.50356 0.00137
C 31.89932 12.72306 0.00199
C 31.85176 11.39337 0.04381
C 33.09711 10.67584 0.02806
C 33.12137 9.24628 0.01504
C 31.86455 8.5744 -0.00069
C 27.07646 16.91444 0.01799
C 31.90854 7.15068 0.04926
C 33.19293 4.98979 0.00349
C 31.99861 4.27965 -0.00323
C 31.977 2.84923 -0.00841
C 33.21281 2.11847 0.0001
C 33.16036 0.72881 -0.02927
C 31.97541 0.02619 -0.01404
C 0.09682 32.76311 0.01027
C 0.05376 29.73194 0.01831
C 34.40044 28.37112 -0.01037
C 1.18857 27.64227 -0.00439
C 33.13657 6.38715 -0.03838
C 28.24849 17.66236 0.01259
C 28.19255 19.19104 0.01495
C 26.95992 19.78572 0.00235
C 19.56024 19.8491 0.01087
C 20.83988 19.2486 0.00199
C 20.82019 17.83357 0.01511
C 19.60401 17.19078 -0.00478
C 19.76996 15.82819 -0.01662
C 19.74223 12.70955 -0.01185
C 19.62442 11.40071 0.01126
C 19.75174 8.6212 0.01852
C 19.80266 7.14196 -0.00381
C 21.13936 6.33588 0.03046
C 20.89553 4.95828 0.0296
C 19.6872 4.29624 0.03374
C 19.69415 2.84813 -0.02845
C 20.97431 2.18084 -0.03213
C 20.87484 0.69641 0.02239
C 19.74216 0.02342 0.01153
C 22.19555 32.67346 0.02734
C 23.39395 31.96671 -0.0055
C 23.42212 30.52203 0.01515
C 22.12065 29.70509 -0.00225
C 22.08137 28.33913 0.00071
C 19.60682 21.23611 -0.01527
C 20.83045 21.97261 0.00096
C 20.83034 23.4026 0.01277
C 19.63671 24.10216 -0.02422
C 18.66801 13.479 0.00755
C 17.24912 12.75029 -0.0054
C 17.30393 11.25208 0.00667
C 18.50922 10.58343 0.00143
C 18.54589 9.11689 -0.017
C 17.27736 8.41988 0.00364
C 17.27779 6.98081 -0.00831
C 18.58384 6.36148 -0.02957
C 18.50529 4.986 -0.04422
C 17.28812 4.16696 0.00654
C 23.31897 27.59474 -0.01107
C 17.34383 2.85815 -0.00703
C 18.4877 0.69791 -0.00652
C 17.23817 0.00117 0.0058
C 19.77822 32.67998 -0.00865
C 21.05204 31.94064 0.00675
C 20.93686 30.42566 -0.00311
C 19.74065 29.85374 0.00742
C 19.63233 28.37191 -0.01594
C 20.92127 27.63091 0.0106
C 20.87018 26.25641 -0.01154
C 19.6504 25.56061 -0.01721
C 18.52998 2.12903 -0.04076
C 3.56786 28.21892 -0.02805
C 23.40801 26.21075 -0.01586
C 22.10079 24.11226 -0.02118
C 24.46848 21.12902 0.00195
C 24.50162 19.62045 -0.00802
C 25.73886 18.96104 -0.00218
C 25.77823 17.4718 -0.01654
C 24.51372 16.96299 -0.00037
C 25.16536 7.17369 -0.0032
C 24.90499 2.4188 0.00622
C 25.7135 0.93316 -0.02815
C 24.63953 34.0396 -0.00942
C 27.0599 32.80612 0.00487
C 28.27631 31.97948 0.00826
C 28.35193 30.58274 -0.00294
C 27.12946 29.88182 0.00152
C 27.06101 28.3764 0.01257
C 28.27146 27.64663 0.02316
C 28.20614 26.27597 0.04185
C 27.02887 25.55051 0.00194
C 26.97425 24.15525 -0.00621
C 28.15156 23.37094 0.02611
C 28.07793 21.92364 0.02198
C 26.85016 21.18512 0.01094
C 25.67566 21.94966 0.00996
C 25.84927 23.3931 0.04306
C 24.5985 24.07767 0.00367
C 24.6794 25.46231 -0.01679
C 23.3039 23.39823 0.00733
C 23.30869 21.93992 -0.00178
C 22.09287 21.26069 0.00768
C 22.07572 19.87019 -0.0276
C 23.19349 19.02511 0.03005
C 23.21489 17.53055 -0.04078
C 21.77787 16.91972 0.02117
C 22.64115 6.49766 0.02737
C 24.04304 6.44651 -0.00498
C 23.30098 5.28494 0.00135
C 22.09749 25.52289 -0.01971
C 22.19966 4.27472 0.03102
C 23.5323 2.08575 0.01423
C 23.3908 0.70104 -0.00285
C 22.19993 0.01456 -0.009
C 24.65764 32.59727 -0.01199
C 25.93183 31.87956 -0.00229
C 25.94111 30.54006 -0.00938
C 24.65542 29.78136 -0.0264
C 24.57767 28.3854 -0.01154
C 25.85436 27.67977 0.00684
C 25.9111 26.24288 -0.01052
C 22.25538 2.92588 0.02555
C 2.18583 28.67706 -0.01386
