284
Graphene
C 34.37774 0.01728 0.01295
C 14.67422 7.20159 0.0106
C 14.74006 8.54572 -0.01594
C 15.93732 9.22481 0.00742
C 16.03802 10.66021 -0.00311
C 14.81156 11.35883 0.00675
C 14.76086 12.90167 -0.00865
C 16.06642 13.51862 0.0058
C 12.20837 34.0651 -0.00652
C 13.53873 0.32902 -0.04076
C 13.58144 2.00829 -0.00703
C 12.38596 2.78543 0.00654
C 12.36291 4.2842 -0.04422
C 13.54857 4.9955 -0.02957
C 13.48147 6.44012 -0.00831
C 12.28002 7.03721 0.00364
C 12.25698 8.5763 -0.017
C 13.4914 9.31567 0.00143
C 11.09555 9.24766 -0.00316
C 9.77996 8.52716 0.02188
C 9.78752 7.09106 -0.01979
C 11.04357 6.34084 0.02691
C 11.12601 5.00405 -0.01581
C 9.90706 4.32269 0.01452
C 16.0045 6.3706 -0.01154
C 9.89354 2.92161 0.04892
C 11.0571 0.8105 -0.03557
C 9.86743 0.07438 0.03754
C 13.55355 13.44711 0.01739
C 12.36062 12.92106 0.00755
C 12.32996 11.36602 -0.0054
C 13.6078 10.64769 0.00667
C 11.14619 2.22506 -0.00111
C 16.00183 4.96636 -0.01721
C 14.78751 4.20669 -0.02422
C 14.72812 2.82459 0.01277
C 18.41862 2.16099 0.02734
C 18.47766 0.66099 -0.0055
C 17.2574 33.9545 0.01515
C 19.71855 32.55336 -0.00225
C 21.10183 31.81113 0.00071
C 20.83762 30.59567 -0.01107
C 17.19119 2.83579 0.01153
C 19.83213 29.72636 -0.01586
C 20.85639 17.78544 -0.02118
C 19.76268 17.07731 0.00733
C 19.54776 15.78516 -0.00178
C 20.93025 14.97026 0.00768
C 20.89412 13.53667 -0.0276
C 19.60895 12.84788 0.03005
C 21.12352 19.04068 -0.01971
C 11.02801 10.67532 -0.0331
C 17.17371 4.22552 0.02239
C 18.43894 6.39572 -0.02845
C 15.97579 2.08878 0.00096
C 16.12538 0.66985 -0.01527
C 14.81541 0.16755 0.01087
C 17.30287 32.6413 0.00199
C 18.46599 31.99722 0.01511
C 17.07621 15.54704 -0.00478
C 18.41538 4.96319 -0.03213
C 18.36054 14.94266 -0.01662
C 17.13625 12.70633 0.01126
C 17.25404 11.32311 0.01852
C 18.48133 10.64959 -0.00381
C 18.42125 9.17276 0.03046
C 17.16733 8.53799 0.0296
C 17.18499 7.115 0.03374
C 18.36916 13.44185 -0.01185
C 19.72011 11.32263 -0.04078
C 9.78514 11.40921 -0.0258
C 11.0545 13.35799 -0.00491
C 4.81834 32.65399 0.05265
C 2.43565 0.11384 -0.01717
C 3.6682 0.78567 0.00244
C 3.67019 2.21269 0.02299
C 2.41714 2.77166 0.03542
C 2.41412 4.21755 0.01416
C 3.68807 4.94852 0.01945
C 3.66023 6.39005 -0.01454
C 2.40337 7.12841 0.01241
C 2.40421 8.56363 0.0076
C 3.61926 9.22305 0.02162
C 3.54657 10.61653 -0.0014
C 2.3336 11.41823 0.00415
C 2.38486 12.83688 -0.02162
C 3.64026 13.45945 0.01363
C 3.68522 14.90698 0.01877
C 2.4538 15.61281 -0.00925
C 3.69405 30.48727 0.00985
C 2.45196 29.75588 -0.02245
C 2.45222 28.39567 -0.00428
C 3.51303 27.60378 0.03101
C 3.75086 26.33079 -0.01536
C 2.56594 25.50968 -0.02689
C 6.06101 32.07473 -0.01952
C 2.50698 24.15549 -0.01046
C 3.57701 22.04108 0.02819
C 2.56169 21.27864 0.00165
C 2.5243 19.86809 -0.02971
C 3.56513 19.17206 0.02894
C 3.75144 17.73229 -0.01789
C 2.38858 17.02614 0.00444
C 3.56933 23.37189 -0.00891
C 4.87884 29.83338 -0.02813
C 4.86625 16.96973 0.00374
C 5.0052 15.6947 0.00052
C 8.69744 13.5444 -0.00481
C 7.43558 12.85606 0.00979
C 7.29014 11.45772 0.01443
C 8.59761 10.68129 0.03505
C 8.60053 9.25179 -0.02815
C 7.32007 8.62071 -0.04147
C 8.55932 14.84392 0.00889
C 7.28893 7.11931 -0.05302
C 8.60776 5.08591 -0.00066
C 7.43635 4.1998 -0.00289
C 7.43526 2.7762 0.00028
C 8.65477 2.1237 -0.02213
C 8.61575 0.63317 0.03698
C 7.38074 34.05503 -0.00109
C 8.50482 6.4037 0.00213
C 9.85888 12.82966 0.03338
C 7.37636 15.53382 -0.02162
C 4.83782 34.06267 0.01848
C 6.17192 14.91296 -0.03682
C 6.19449 13.50716 0.01965
C 4.8293 12.75879 0.02058
C 4.82701 11.39016 -0.01957
C 6.0625 10.7183 -0.0108
C 6.13485 9.34215 -0.00368
C 7.27019 32.64338 -0.00619
C 4.8693 8.56971 -0.02696
C 6.12654 6.40252 0.00228
C 6.24061 4.92159 0.00798
C 4.98195 4.28758 0.00422
C 4.97411 2.90935 0.0351
C 6.15897 2.12669 -0.03113
C 6.12574 0.7038 0.02098
C 4.91994 7.10363 -0.00114
C 20.92328 10.64112 0.02117
C 20.94353 9.22404 0.02737
C 19.66246 8.48276 -0.00498
C 33.1828 4.98272 0.04926
C 33.23412 6.38551 -0.00069
C 31.98035 7.15908 0.01504
C 31.981 8.53161 0.02806
C 33.2604 9.10567 0.04381
C 33.19505 10.66234 0.00199
C 31.95281 11.35619 0.00137
C 31.90607 12.71479 -0.01839
C 33.12334 13.47921 -0.00644
C 33.15305 14.90969 0.00455
C 31.94082 15.63232 0.00369
C 31.92542 17.04516 -0.02474
C 33.12479 17.8372 0.00594
C 33.17824 19.22882 -0.0136
C 31.93615 19.8874 -0.01429
C 33.30596 22.16686 -0.02383
C 33.25737 30.54583 0.01574
C 29.46538 11.32453 0.02108
C 30.6842 10.63329 0.00716
C 30.75353 9.24533 0.00307
C 29.51558 8.49719 0.00346
C 29.49372 7.13626 0.01713
C 30.78664 6.46225 -0.01694
C 31.96714 4.35786 -0.03838
C 30.72921 5.07787 0.01428
C 29.43296 2.89911 0.0544
C 30.65816 2.19482 0.00026
C 30.67474 0.74757 0.00682
C 29.54584 0.06546 -0.01779
C 32.06414 32.74188 0.03794
C 33.05293 31.88164 0.01927
C 29.48698 4.40631 -0.02142
C 31.88848 2.92568 0.00349
C 33.12366 2.20145 -0.00323
C 33.18248 0.81214 -0.00841
C 1.2076 14.93414 -0.02957
C 1.11324 13.47538 0.00343
C 34.3079 12.75541 -0.02656
C 34.32525 11.32327 -0.02442
C 1.18079 10.59352 -0.00027
C 1.18188 9.23058 -0.00583
C 34.35941 15.62881 0.02114
C 0.01406 8.45199 -0.02302
C 1.24523 6.37782 0.02931
C 1.24527 4.98648 0.00628
C 34.37013 4.34686 -0.0345
C 34.32754 2.90323 -0.00931
C 1.14554 2.15461 -0.00939
C 1.18977 0.76716 -0.00468
C 0.01155 7.0695 -0.02849
C 29.50369 12.74614 0.0103
C 34.43314 17.11424 0.00648
C 1.18739 19.22251 -0.01678
C 31.95173 0.06008 0.0001
C 34.42933 32.69221 -0.02927
C 1.23448 31.99422 -0.01404
C 1.23627 30.58251 0.01027
C 34.392 29.79143 0.01831
C 0.03864 28.41947 -0.01037
C 1.17174 17.84674 0.01223
C 1.20481 27.68938 -0.00439
C 34.39455 25.4876 -0.05239
C 0.21617 24.28945 0.03076
C 1.27442 23.41489 0.00723
C 1.29299 22.00988 0.02712
C 34.4331 21.39207 -0.02213
C 34.40415 19.92394 0.01951
C 1.1924 26.24517 -0.00598
C 30.7205 13.51282 0.07705
C 30.70174 14.94569 0.01908
C 29.47619 15.60667 0.01518
C 23.35626 10.69494 -0.00802
C 23.38302 9.30354 -0.00218
C 22.16661 8.51659 -0.01654
C 22.14283 7.0549 -0.00037
C 23.3744 6.34433 -0.0032
C 23.39828 4.96597 0.00622
C 22.2042 11.41602 0.00195
C 22.14706 4.22759 -0.02815
C 23.32585 2.1295 0.00487
C 23.29453 0.67884 0.00826
C 22.07719 0.03428 -0.00294
C 25.76195 17.69889 0.00152
C 24.58124 17.01756 0.01257
C 24.60216 15.63716 0.02316
C 22.07361 2.7798 -0.00942
C 25.85907 14.88383 0.04185
C 22.10158 12.85471 0.00996
C 23.39296 14.95196 0.00367
C 19.67306 7.06314 0.00135
C 20.90208 6.37238 0.03102
C 20.9892 4.92302 0.02555
C 19.68649 4.23731 0.01423
C 19.64762 2.80826 -0.00285
C 20.85593 2.07749 -0.009
C 23.38846 13.44677 0.04306
C 20.79583 0.69003 -0.01199
C 22.10107 32.68057 -0.00938
C 22.18269 19.82888 -0.0264
C 23.22712 19.2256 -0.01154
C 23.42797 17.87007 0.00684
C 22.1794 17.0972 -0.01052
C 22.13618 15.69946 -0.01679
C 19.67031 33.97259 -0.00229
C 3.6556 31.90589 -0.01275
C 25.91578 13.49989 0.00194
C 24.57711 11.45551 0.02611
C 28.28243 10.58458 -0.01415
C 28.24042 9.15757 -0.03039
C 26.97706 8.52115 0.01836
C 26.98935 7.10826 0.03531
C 28.30317 6.38797 -0.00669
C 28.2492 4.92978 0.0101
C 27.06974 11.30527 -0.01854
C 26.95854 4.26097 0.01705
C 28.18396 2.27936 -0.01303
C 28.27441 0.68917 -0.01461
C 27.01608 0.17533 -0.02155
C 30.85224 19.14864 -0.00944
C 30.64181 17.75059 -0.03735
C 29.41646 17.12111 -0.00971
C 26.92003 2.80081 -0.0405
C 24.66189 12.86475 -0.00621
C 27.07733 12.77111 -0.02049
C 28.28141 14.88857 0.00261
C 25.80155 10.68084 0.02198
C 25.78866 9.29852 0.01094
C 24.62192 8.5508 0.00235
C 24.60089 7.16503 0.01495
C 25.80513 6.45711 0.01259
C 25.76852 4.99685 0.01799
C 28.30346 13.47325 0.03265
C 24.58927 4.23149 0.01699
C 25.71929 2.0787 0.01177
C 25.73154 0.54311 0.04266
C 24.45945 0.05791 0.01324
C 28.22127 17.82633 0.0014
C 27.01774 17.16513 0.00924
C 27.05764 15.63375 0.02326
C 24.54715 2.80465 -0.00416
C 2.48281 32.74885 -0.01111
