326
Graphene
C 34.40809 34.01656 0.01295
C 17.15062 28.45518 0.00213
C 18.47666 27.71068 -0.00066
C 18.4125 26.32579 -0.00289
C 17.14248 25.67745 0.00028
C 17.24288 24.18579 -0.02213
C 18.40518 23.50494 0.03698
C 18.44638 10.57966 -0.00109
C 17.20197 29.80371 -0.05302
C 18.33197 9.17264 -0.00491
C 17.17994 7.00035 -0.0258
C 18.53021 6.3481 -0.0331
C 18.56329 4.95918 -0.00316
C 17.29798 4.26418 0.02188
C 17.17244 2.88524 -0.01979
C 18.50039 2.02998 0.02691
C 18.41975 0.6735 -0.01581
C 17.26201 8.34254 0.03338
C 17.21762 34.02349 0.01452
C 18.3723 30.5129 -0.04147
C 17.258 32.58972 0.03505
C 14.68409 29.79841 -0.00368
C 14.70763 28.45854 -0.02696
C 15.98811 27.7439 -0.00114
C 15.97252 26.32388 0.00228
C 14.69627 25.57445 0.00798
C 14.83242 24.13921 0.00422
C 16.08291 23.47363 0.0351
C 18.4922 31.91386 -0.02815
C 15.92333 22.16909 -0.03113
C 16.03317 6.30693 0.01848
C 15.99352 4.96755 -0.00619
C 14.74874 4.30653 -0.02162
C 14.72436 2.96242 0.00889
C 15.97364 2.15289 -0.00481
C 15.96599 0.77286 0.00979
C 14.72285 34.0764 0.01443
C 14.78779 21.46283 0.02098
C 19.67933 32.65339 0.04892
C 20.94523 31.94392 -0.00111
C 20.89426 30.43331 -0.03557
C 23.29124 31.97208 0.0106
C 23.37108 30.49229 -0.01154
C 22.09794 29.77197 -0.01721
C 22.13653 28.37178 -0.02422
C 23.43305 27.73028 0.01277
C 23.34672 26.33689 0.00096
C 22.17254 25.51322 -0.01527
C 22.12585 32.68587 -0.01594
C 22.09928 24.11401 0.01087
C 23.3015 22.03658 0.01511
C 23.34668 14.83561 -0.00478
C 23.24116 13.54579 -0.01662
C 21.97412 12.8005 -0.01185
C 22.0632 11.41024 0.01126
C 23.31159 10.69968 0.01852
C 23.31429 9.19682 -0.00381
C 23.32603 23.39378 0.00199
C 19.6868 34.06442 0.00742
C 20.92071 0.69088 -0.00311
C 20.90281 2.10482 0.00675
C 19.69321 29.74701 0.03754
C 19.71151 28.38459 0.01739
C 20.9516 27.70029 0.00755
C 20.85915 26.27999 -0.0054
C 19.62716 25.56759 0.00667
C 19.6702 24.08574 0.00143
C 20.88141 23.50965 -0.017
C 19.59603 12.86408 0.00364
C 19.48887 11.42561 -0.00831
C 20.88177 10.63862 -0.02957
C 20.86313 9.27018 -0.04422
C 19.69141 8.50168 0.00654
C 19.75756 7.11922 -0.00703
C 20.97846 6.40876 -0.04076
C 20.93568 4.98866 -0.00652
C 19.80692 4.22841 0.0058
C 19.74932 2.84567 -0.00865
C 15.94049 30.48003 -0.0108
C 15.97804 31.87472 -0.01957
C 14.74806 32.63833 0.02058
C 12.24789 34.02543 0.01965
C 6.12473 23.43608 0.01291
C 6.13794 21.99628 0.00093
C 4.91342 21.25777 0.00057
C 4.77618 19.97739 -0.01634
C 4.8571 2.77913 -0.00334
C 6.15769 2.30257 0.02339
C 6.15536 0.70544 0.01641
C 4.84469 24.21215 0.00438
C 4.88573 0.03494 -0.00719
C 8.58634 31.94468 -0.01062
C 8.61557 30.54894 -0.00033
C 7.41691 29.79302 0.03589
C 7.34245 28.38265 -0.02759
C 8.56702 27.59971 0.0402
C 8.56595 26.28407 0.00572
C 7.39337 25.56001 0.03592
C 7.41079 32.62682 0.01364
C 4.79263 25.62519 -0.00191
C 6.11065 26.38062 0.00373
C 6.21002 27.70682 0.02147
C 2.4111 28.56052 -0.01362
C 3.61412 26.29409 -0.0008
C 2.36755 25.65366 0.0288
C 2.40538 24.11333 0.00393
C 3.62441 23.45776 0.00895
C 3.7161 21.95316 0.00685
C 2.4673 21.32856 0.02888
C 2.40078 19.91912 -0.00482
C 3.56578 19.35105 -0.01384
C 2.57511 4.14878 0.03693
C 2.45721 2.8605 0.01745
C 3.71237 2.16354 0.00488
C 3.68341 0.68651 -0.01004
C 2.45009 34.07248 -0.02896
C 4.87701 32.60288 -0.00131
C 6.17539 31.91269 -0.01118
C 6.26869 30.55119 -0.014
C 7.32279 24.16544 0.00406
C 22.18495 8.57528 0.03046
C 8.61163 23.50021 0.00943
C 7.33241 21.45723 -0.01111
C 13.4895 32.00361 0.02162
C 13.51393 30.56058 0.0076
C 12.2755 29.77001 0.01241
C 12.33231 28.372 -0.01454
C 13.49559 27.62449 0.01945
C 13.53015 26.25448 0.01416
C 12.18162 25.55219 0.03542
C 12.25446 32.55493 -0.0014
C 12.22994 24.21185 0.02299
C 13.51982 21.95586 -0.01717
C 12.27801 21.24106 0.05265
C 12.48279 19.89759 -0.01952
C 13.64347 19.23057 -0.02813
C 12.33355 2.86244 0.00374
C 13.49939 2.14232 0.00052
C 13.48901 0.66223 -0.03682
C 13.54845 23.47604 0.00244
C 9.9162 0.00958 0.00415
C 11.10338 0.80673 -0.02162
C 11.05203 2.29293 0.01363
C 7.36668 2.93465 -0.01275
C 8.57616 2.26193 0.00985
C 8.65731 0.71381 -0.02245
C 7.42526 0.00947 -0.00428
C 9.84358 32.59673 0.03101
C 11.06421 31.92345 -0.01536
C 11.03784 30.38526 -0.02689
C 9.75764 29.73355 -0.01046
C 9.76721 28.40835 -0.00891
C 10.98134 27.72851 0.02819
C 10.9802 26.28467 0.00165
C 9.81671 25.53321 -0.02971
C 9.82145 24.20502 0.02894
C 11.09896 23.43155 -0.01789
C 11.12085 22.00404 0.00444
C 9.87002 21.49982 -0.00925
C 9.80476 2.69457 0.01877
C 8.59498 21.86054 0.02841
C 22.13383 7.12918 0.0296
C 23.34076 6.41178 0.03374
C 23.37509 4.97775 -0.02845
C 33.20431 30.59267 0.00682
C 31.96663 29.88982 -0.01779
C 31.96903 28.49666 0.03794
C 33.17888 27.8502 0.01927
C 33.11721 26.39023 0.01574
C 31.8732 25.65605 -0.02383
C 31.99248 24.22461 -0.01429
C 33.21082 31.95115 0.00026
C 33.19358 23.41828 -0.0136
C 32.05003 21.29802 -0.02474
C 31.97645 19.92195 0.00369
C 33.25024 19.18089 0.00455
C 33.17783 17.77649 -0.00644
C 31.9829 17.05279 -0.01839
C 31.90874 15.6817 0.00137
C 33.16693 14.96257 0.00199
C 33.28428 22.00215 0.00594
C 31.84391 32.67445 0.0544
C 29.48612 34.0582 -0.02142
C 30.70042 0.72763 0.01428
C 30.70541 19.14847 -0.0405
C 30.77612 17.79478 -0.01303
C 29.58602 17.00349 -0.01461
C 29.45628 15.62899 -0.02155
C 30.61031 14.94467 -0.00944
C 30.63696 13.45743 -0.03735
C 29.47937 12.76509 -0.00971
C 29.39381 11.34615 0.01518
C 30.64175 10.70246 0.01908
C 30.70207 9.18784 0.07705
C 29.54444 8.55061 0.0103
C 29.52686 7.07259 0.02108
C 30.76444 6.36447 0.00716
C 30.78147 4.93081 0.00307
C 29.52828 4.24464 0.00346
C 29.55005 2.88079 0.01713
C 30.75899 2.10934 -0.01694
C 33.18159 13.56691 0.04381
C 29.53024 19.93829 0.01705
C 31.8947 12.83406 0.02806
C 33.20251 10.67556 -0.00069
C 0.02789 21.2519 0.00648
C 0.05997 19.85839 0.02114
C 1.2561 19.15577 -0.02957
C 1.1706 17.77885 0.00343
C 0.08249 17.03502 -0.02656
C 34.31642 15.62986 -0.02442
C 34.26224 12.81188 -0.00027
C 1.25212 22.01638 0.01223
C 34.23832 11.4421 -0.00583
C 0.25209 7.15635 -0.02849
C 1.13811 6.22809 0.02931
C 1.3881 4.92416 0.00628
C 0.02652 4.27369 -0.0345
C 0.0008 2.83301 -0.00931
C 1.17278 2.146 -0.00939
C 1.22953 0.6596 -0.00468
C 34.36803 8.59618 -0.02302
C 1.19475 23.44382 -0.01678
C 34.41452 24.1451 0.01951
C 34.35657 25.66922 -0.02213
C 33.21989 9.24316 0.04926
C 31.9533 8.49587 -0.03838
C 32.01547 7.06127 0.00349
C 33.29266 6.43211 -0.00323
C 33.28882 4.98936 -0.00841
C 32.00407 4.20929 0.0001
C 32.0602 2.83348 -0.02927
C 33.24576 2.06285 -0.01404
C 33.17424 0.69319 0.01027
C 31.95291 0.00967 0.01831
C 34.40986 32.62636 -0.01037
C 1.28091 31.92205 -0.00439
C 1.25176 30.53982 -0.00598
C 0.02063 29.84603 -0.05239
C 0.0291 28.53347 0.03076
C 1.21411 27.77928 0.00723
C 1.16252 26.3255 0.02712
C 31.87621 11.38972 0.01504
C 3.76296 32.0257 -0.00892
C 29.5706 21.32343 0.0101
C 30.84539 23.44303 0.03531
C 24.47082 15.68526 0.00135
C 25.76676 14.9275 0.03102
C 25.81717 13.53359 0.02555
C 24.5586 12.73575 0.01423
C 24.60333 11.396 -0.00285
C 25.79714 10.60302 -0.009
C 25.80482 9.15958 -0.01199
C 24.72789 16.94805 -0.00498
C 24.60805 8.4861 -0.00229
C 25.82285 6.31293 -0.0264
C 25.72177 4.93948 -0.01154
C 24.53313 4.23121 0.00684
C 24.55162 2.90793 -0.01052
C 25.82393 2.15515 -0.01679
C 25.80996 0.74462 0.00367
C 24.56155 0.0541 0.04306
C 24.55828 7.06675 -0.00938
C 25.90064 17.73575 0.02737
C 25.74811 19.11304 0.02117
C 24.59502 19.8594 -0.04078
C 22.13969 4.2817 -0.03213
C 22.11046 2.7898 0.02239
C 23.37102 2.1165 0.01153
C 23.38099 0.76127 0.02734
C 22.18146 0.00348 -0.0055
C 24.53555 32.68551 0.01515
C 25.78764 32.01293 -0.00225
C 25.77787 30.53752 0.00071
C 24.57086 29.8426 -0.01107
C 24.60421 28.42274 -0.01586
C 25.78596 27.59687 -0.01971
C 25.84617 26.16771 -0.02118
C 24.58635 25.57368 0.00733
C 24.58321 24.10625 -0.00178
C 25.83617 23.3789 0.00768
C 25.77618 21.88062 -0.0276
C 24.40958 21.17216 0.03005
C 26.98038 32.66933 0.00996
C 30.83327 22.02804 -0.00669
C 28.2013 31.91255 0.00195
C 26.94966 29.72307 -0.00218
C 28.31786 6.32895 0.01799
C 28.27143 4.97414 0.01699
C 27.03339 4.22594 -0.00416
C 27.09811 2.88167 0.01177
C 28.3429 2.15187 0.04266
C 28.22174 0.73159 0.01324
C 27.04875 0.0598 0.0014
C 27.05844 7.03236 0.01259
C 29.38305 32.67154 0.00924
C 30.72241 30.56011 0.00261
C 29.45584 29.81342 0.03265
C 29.47563 28.44476 -0.02049
C 30.75732 27.68985 -0.01854
C 30.6439 26.27132 -0.01415
C 29.44774 25.44975 -0.03039
C 29.56878 24.08899 0.01836
C 30.63552 31.95895 0.02326
C 27.0515 8.44146 0.01495
C 28.22226 9.23446 0.00235
C 28.2201 10.63721 0.01094
C 27.02194 28.33682 -0.01654
C 28.24943 27.66467 -0.00037
C 28.20713 26.19765 -0.0032
C 27.02345 25.46323 0.00622
C 27.08136 24.0552 -0.02815
C 28.31773 23.33994 -0.00942
C 28.32978 21.94008 0.00487
C 27.03376 21.2338 0.00826
C 27.011 19.80181 -0.00294
C 28.27282 19.15875 0.00152
C 28.33144 17.75841 0.01257
C 27.12775 16.99395 0.02316
C 27.04519 15.61226 0.04185
C 28.21773 14.88145 0.00194
C 28.20816 13.47568 -0.00621
C 27.0189 12.80011 0.02611
C 26.92165 11.35189 0.02198
C 28.184 30.42423 -0.00802
C 2.55379 32.60313 -0.04848
