358
Graphene
C 34.43161 0.04059 0.01295
C 12.32539 4.22014 -0.01957
C 12.22246 2.84888 -0.0108
C 13.49364 2.1568 -0.00368
C 13.58891 0.73999 -0.02696
C 12.34668 0.07535 -0.00114
C 14.76091 32.63031 0.00228
C 15.91163 31.91546 0.00798
C 15.9357 30.46829 0.00422
C 13.5469 4.89427 0.02058
C 14.71494 29.74877 0.0351
C 16.08036 27.62822 0.02098
C 16.06219 26.22669 0.01848
C 14.84483 25.5858 -0.00619
C 14.77158 24.12649 -0.02162
C 15.97733 23.59463 0.00889
C 14.66511 21.2375 -0.00481
C 15.94194 18.99549 0.00979
C 16.00707 17.73045 0.01443
C 14.83422 28.30461 -0.03113
C 15.93525 14.899 0.03505
C 13.5348 6.38025 0.01965
C 12.29685 8.51008 0.00052
C 9.74164 2.93191 0.01363
C 10.96154 2.24416 -0.02162
C 11.12145 0.78614 0.00415
C 9.84138 0.0233 -0.0014
C 12.34704 32.70455 0.02162
C 13.55521 31.98438 0.0076
C 13.5399 30.52667 0.01241
C 12.30087 29.88291 -0.01454
C 12.28821 7.06969 -0.03682
C 12.31224 28.43246 0.01945
C 13.5517 26.28692 0.03542
C 12.27873 25.57273 0.02299
C 12.30083 24.01117 0.00244
C 13.55546 23.36923 -0.01717
C 13.75726 22.00576 0.05265
C 12.41877 11.30282 -0.01952
C 13.55837 10.61844 -0.02813
C 13.46391 9.20784 0.00374
C 13.55647 27.64083 0.01416
C 15.86135 13.50732 -0.02815
C 14.75437 12.67892 -0.04147
C 14.78136 11.35592 -0.05302
C 18.3809 10.67891 -0.0054
C 18.45286 9.25308 0.00667
C 17.12766 8.66026 0.00143
C 17.21138 7.16519 -0.017
C 18.42002 6.2997 0.00364
C 18.43872 4.93219 -0.00831
C 17.2223 4.28422 -0.02957
C 17.23387 2.85205 -0.04422
C 17.18116 11.35568 0.00755
C 18.44551 2.09671 0.00654
C 17.19448 34.03396 -0.04076
C 19.69995 32.65568 -0.00652
C 20.90028 31.88561 0.0058
C 20.94312 30.50298 -0.00865
C 19.72295 29.75231 0.00675
C 19.63198 28.28733 -0.00311
C 19.69002 15.50269 0.00742
C 20.73801 14.95838 -0.01594
C 18.43595 0.70544 -0.00703
C 17.22224 12.75803 0.01739
C 18.42476 13.50501 0.03754
C 18.4138 14.96666 -0.03557
C 15.96056 10.69286 0.00213
C 15.90349 9.30846 -0.00066
C 14.70676 8.5432 -0.00289
C 14.72609 7.11537 0.00028
C 16.00905 6.38512 -0.02213
C 16.0146 4.95707 0.03698
C 14.78517 4.28878 -0.00109
C 14.776 2.87426 -0.00491
C 16.04178 2.13525 0.03338
C 16.0001 0.7068 -0.0258
C 14.80994 34.07493 -0.0331
C 17.18772 32.56435 -0.00316
C 18.47581 31.98221 0.02188
C 18.48119 30.56068 -0.01979
C 17.19273 29.84026 0.02691
C 17.20217 28.44293 -0.01581
C 18.5055 27.84232 0.01452
C 17.01996 17.01481 0.04892
C 17.04959 15.56262 -0.00111
C 9.84331 4.32201 0.01877
C 11.12048 4.95886 -0.00925
C 11.07863 6.36594 0.00444
C 9.83086 6.99539 -0.01789
C 2.4106 4.23835 -0.01142
C 2.46665 2.83112 -0.00562
C 3.66197 2.11198 -0.00494
C 3.71946 0.67954 0.00054
C 2.52115 0.00985 0.03007
C 4.88083 32.70902 -0.00095
C 6.16187 31.93939 0.01572
C 6.15591 30.56296 -0.04848
C 3.66281 4.97038 0.01849
C 4.88131 29.85436 -0.00892
C 6.18363 27.66861 -0.0008
C 6.13391 26.2818 0.0288
C 4.91322 25.5598 0.00393
C 4.88321 24.13292 0.00895
C 6.18483 23.54877 0.00685
C 4.92749 12.78525 0.02888
C 4.94986 11.37983 -0.00482
C 6.21631 10.71141 -0.01384
C 4.96991 28.41545 -0.01362
C 3.61965 6.44952 0.01396
C 2.38721 7.16637 0.0127
C 2.44357 8.61583 0.02635
C 3.67824 30.51542 0.02322
C 2.39042 29.83912 -0.00725
C 2.42672 28.36979 -0.05697
C 3.71856 27.67463 0.01087
C 3.69833 26.29884 -0.01343
C 2.45154 25.54222 0.00988
C 2.51376 24.10949 0.0276
C 3.71741 23.39074 0.01305
C 3.59455 22.0632 -0.00077
C 2.46766 21.33978 0.03368
C 2.41513 19.92055 -0.02929
C 2.43417 17.04691 -0.00966
C 2.55262 15.68085 -0.03337
C 3.72545 14.8946 0.01227
C 3.73187 13.473 0.00873
C 2.48947 12.72795 -0.00049
C 2.36639 11.33713 0.00848
C 3.60825 10.74163 -0.01303
C 3.67225 9.28566 -0.01378
C 6.09985 9.23661 0.03693
C 20.96097 13.5406 0.0106
C 4.87833 8.5506 0.01745
C 6.1754 6.46485 -0.01004
C 7.39817 2.9284 0.03592
C 8.57413 2.18238 0.00406
C 8.59263 0.74131 0.00943
C 7.33972 34.06168 0.02841
C 9.89959 32.68051 -0.01111
C 11.13222 31.92615 -0.01275
C 11.08944 30.53066 0.00985
C 9.8349 29.8729 -0.02245
C 7.36487 4.38033 0.00572
C 9.81401 28.45702 -0.00428
C 11.14765 26.32269 -0.01536
C 9.88741 25.58527 -0.02689
C 10.08576 24.15424 -0.01046
C 10.88948 23.32331 -0.00891
C 9.81672 11.28089 0.02819
C 11.03981 10.73827 0.00165
C 11.01798 9.13474 -0.02971
C 9.80179 8.48364 0.02894
C 11.03939 27.75314 0.03101
C 8.5967 4.97888 0.0402
C 8.60035 6.38356 -0.02759
C 7.37782 7.15359 0.03589
C 6.15072 5.03087 -0.02896
C 4.92167 4.26649 -0.00131
C 4.86541 2.85898 -0.01118
C 6.1833 2.17517 -0.014
C 6.17352 0.75466 0.02147
C 4.95207 0.01888 0.00373
C 7.33768 32.63229 -0.00191
C 8.59492 32.00276 0.00438
C 8.63747 30.59081 0.01291
C 7.33847 29.90126 0.00093
C 7.35548 28.51082 0.00057
C 8.56328 27.78174 -0.01634
C 8.59396 26.36487 -0.00334
C 7.42688 25.57149 0.02339
C 7.183 24.16785 0.01641
C 7.33798 11.40049 -0.00719
C 8.62262 10.72106 0.01364
C 8.59247 9.17889 -0.01062
C 7.3667 8.58411 -0.00033
C 4.87968 7.09186 0.00488
C 19.69842 12.81488 -0.01154
C 19.60881 11.41187 -0.01721
C 20.86557 10.69381 -0.02422
C 31.99578 32.60873 0.01713
C 33.19203 31.95828 -0.01694
C 33.15342 30.58056 0.01428
C 31.97463 29.85202 -0.02142
C 32.03235 28.44197 0.0544
C 33.2445 27.67292 0.00026
C 33.14139 26.28374 0.00682
C 31.92188 25.57986 -0.01779
C 29.57422 0.0399 0.00346
C 31.92988 24.16682 0.03794
C 33.11343 22.03889 0.01574
C 31.84874 21.26113 -0.02383
C 31.94002 19.83099 -0.01429
C 33.21316 19.21588 -0.0136
C 33.21402 17.76984 0.00594
C 32.00304 17.00508 -0.02474
C 32.00908 15.60018 0.00369
C 33.2291 14.84278 0.00455
C 33.14582 23.4835 0.01927
C 30.78655 0.73421 0.00307
C 30.79676 2.19734 0.00716
C 29.49702 2.81604 0.02108
C 30.70003 23.43333 -0.01854
C 30.707 22.03821 -0.01415
C 29.39124 21.32945 -0.03039
C 29.52483 19.89301 0.01836
C 30.7763 19.08043 0.03531
C 30.75852 17.70658 -0.00669
C 29.55024 17.03441 0.0101
C 29.51019 15.65424 0.01705
C 30.73007 14.90686 -0.0405
C 30.72292 13.49645 -0.01303
C 29.51246 12.77309 -0.01461
C 29.51899 11.37042 -0.02155
C 30.76583 10.6881 -0.00944
C 30.76559 9.14275 -0.03735
C 29.59427 8.46982 -0.00971
C 29.5318 7.09289 0.01518
C 30.7649 6.41351 0.01908
C 30.70904 4.94315 0.07705
C 29.49027 4.27322 0.0103
C 33.22393 13.41705 -0.00644
C 29.3805 24.12457 -0.02049
C 31.98218 12.76487 -0.01839
C 33.20631 10.62715 0.00199
C 1.2385 19.18266 -0.01678
C 1.24099 17.75427 0.01223
C 34.41885 17.0081 0.00648
C 0.03073 15.56877 0.02114
C 1.24945 14.90826 -0.02957
C 1.32554 13.44617 0.00343
C 0.06024 12.73094 -0.02656
C 34.40518 11.2827 -0.02442
C 0.03519 19.93523 0.01951
C 1.14104 10.56965 -0.00027
C 34.43189 8.50482 -0.02302
C 34.37331 7.07294 -0.02849
C 1.20186 6.46984 0.02931
C 1.24292 5.02847 0.00628
C 34.4175 4.31812 -0.0345
C 34.4306 2.87343 -0.00931
C 1.19305 2.13721 -0.00939
C 1.23946 0.73337 -0.00468
C 1.19911 9.2295 -0.00583
C 0.02153 21.34917 -0.02213
C 1.22424 22.04647 0.02712
C 1.20832 23.42911 0.00723
C 33.22633 9.23401 0.04381
C 31.98559 8.58242 0.02806
C 32.0206 7.12981 0.01504
C 33.14448 6.32659 -0.00069
C 33.15152 4.91928 0.04926
C 31.94521 4.25129 -0.03838
C 32.00985 2.8273 0.00349
C 33.18442 2.09948 -0.00323
C 33.14603 0.7069 -0.00841
C 31.95032 33.99513 0.0001
C 34.42464 32.68343 -0.02927
C 1.20807 31.9526 -0.01404
C 1.21125 30.56516 0.01027
C 34.42673 29.90085 0.01831
C 0.01712 28.38906 -0.01037
C 1.21247 27.69867 -0.00439
C 1.14478 26.22899 -0.00598
C 34.3371 25.56254 -0.05239
C 34.41893 24.17374 0.03076
C 31.99851 11.36624 0.00137
C 3.6813 31.92302 -0.00094
C 29.48521 25.54369 0.03265
C 30.79544 27.74759 0.02326
C 23.32889 6.42499 0.00071
C 23.31304 5.05898 -0.01107
C 22.09012 4.28269 -0.01586
C 22.13161 2.85885 -0.01971
C 23.36817 2.13935 -0.02118
C 23.38439 0.67528 0.00733
C 22.07093 34.0349 -0.00178
C 24.55951 32.68269 0.00768
C 22.07454 7.14497 -0.00225
C 25.73832 31.97212 -0.0276
C 24.63575 29.7292 -0.04078
C 24.63172 28.26801 0.02117
C 25.70555 27.73487 0.02737
C 24.45358 15.54228 -0.00498
C 25.82794 14.90364 0.00135
C 25.72556 13.43699 0.03102
C 24.55134 12.75117 0.02555
C 24.61338 11.2925 0.01423
C 25.83869 30.49302 0.03005
C 22.09045 8.53709 0.01515
C 23.35314 9.17547 -0.0055
C 23.45294 10.60691 0.02734
C 20.85591 9.29468 0.01277
C 19.68484 8.50098 0.00096
C 19.67856 7.00049 -0.01527
C 20.87557 6.35999 0.01087
C 20.85523 4.94771 0.00199
C 19.69182 4.22972 0.01511
C 19.67811 2.83357 -0.00478
C 20.92809 2.13925 -0.01662
C 20.83342 0.71704 -0.01185
C 19.60141 0.01269 0.01126
C 22.12559 32.5814 0.01852
C 23.3391 31.90751 -0.00381
C 23.43641 30.50581 0.03046
C 22.16467 29.73367 0.0296
C 21.90739 28.44452 0.03374
C 23.39892 14.91385 -0.02845
C 23.33917 13.49643 -0.03213
C 22.16758 12.67523 0.02239
C 22.11458 11.32915 0.01153
C 25.85391 10.61389 -0.00285
C 30.73317 26.27021 0.00261
C 25.78905 9.16713 -0.009
C 24.61671 7.0071 -0.00229
C 27.01659 12.76539 0.02316
C 27.07039 11.33112 0.04185
C 28.35876 10.59062 0.00194
C 28.37248 9.15161 -0.00621
C 27.0384 8.47047 0.02611
C 27.08022 7.0861 0.02198
C 28.29294 6.39298 0.01094
C 28.23351 4.96682 0.00235
C 28.26409 13.48358 0.01257
C 27.03334 4.30427 0.01495
C 28.27246 2.16299 0.01799
C 28.37583 0.72849 0.01699
C 27.14711 0.00485 -0.00416
C 29.57436 32.68878 0.01177
C 30.71877 31.94721 0.04266
C 30.73869 30.46581 0.01324
C 29.52237 29.81063 0.0014
C 29.54019 28.40857 0.00924
C 27.03252 2.88771 0.01259
C 28.27561 14.94619 0.00152
C 27.05733 15.67133 -0.00294
C 27.00243 17.07287 0.00826
C 25.81417 6.3659 -0.00938
C 25.85171 5.01199 -0.0264
C 24.53457 4.32921 -0.01154
C 24.60484 2.83387 0.00684
C 25.85685 2.205 -0.01052
C 25.88941 0.73359 -0.01679
C 24.66444 34.07013 0.00367
C 27.00229 32.64519 0.04306
C 28.30857 31.97925 0.00996
C 28.37923 30.58498 0.00195
C 27.11074 29.85133 -0.00802
C 27.02777 28.40412 -0.00218
C 28.27989 27.69657 -0.01654
C 28.18527 26.23289 -0.00037
C 26.91387 25.62508 -0.0032
C 28.12995 23.32544 0.00622
C 28.19359 22.13531 -0.02815
C 28.30833 19.17486 -0.00942
C 28.22874 17.76799 0.00487
C 24.51837 8.44863 -0.01199
C 2.44889 32.64764 -0.02566
