329
Graphene
C 0.0141 0.01684 0.01295
C 18.48039 10.65565 -0.05302
C 18.4071 9.25793 0.00213
C 17.20526 8.53281 -0.00066
C 17.23433 7.08589 -0.00289
C 18.51961 6.41796 0.00028
C 18.47772 4.97965 -0.02213
C 17.18102 4.24802 0.03698
C 17.20236 11.37678 -0.04147
C 17.19309 2.72476 -0.00109
C 18.42621 0.68571 0.03338
C 17.25806 0.01672 -0.0258
C 19.68941 32.62041 -0.0331
C 20.90267 31.96146 -0.00316
C 20.93308 30.51931 0.02188
C 19.67519 29.86025 -0.01979
C 19.69797 28.41886 0.02691
C 18.44342 2.05885 -0.00491
C 17.17799 12.75097 -0.02815
C 18.46219 13.43172 0.03505
C 18.43449 14.91612 0.01443
C 15.95917 10.67329 -0.01957
C 15.98864 9.21151 -0.0108
C 14.74684 8.55237 -0.00368
C 14.71309 7.10744 -0.02696
C 16.00432 6.40719 -0.00114
C 16.00368 4.99767 0.00228
C 14.76686 4.26468 0.00798
C 14.73528 2.87116 0.00422
C 15.98186 2.11411 0.0351
C 15.98379 0.6782 -0.03113
C 14.7657 0.00058 0.02098
C 17.22824 32.68644 0.01848
C 18.43978 31.96104 -0.00619
C 18.43161 30.59798 -0.02162
C 17.2255 19.85239 0.00889
C 18.42854 19.17137 -0.00481
C 18.44352 17.75788 0.00979
C 20.9562 27.68425 -0.01581
C 15.96636 31.8915 0.02058
C 20.90721 26.28712 0.01452
C 20.93964 23.41702 -0.00111
C 19.65829 34.02742 -0.01594
C 22.15806 32.63396 0.0106
C 23.40781 31.9684 -0.01154
C 23.35282 30.54659 -0.01721
C 22.12365 29.82757 -0.02422
C 22.11634 28.44213 0.01277
C 23.3238 27.68162 0.00096
C 20.90144 0.66346 0.00742
C 23.35517 26.25525 -0.01527
C 22.15264 24.15319 0.00199
C 23.35564 23.40475 0.01511
C 23.3447 22.01556 -0.00478
C 22.11116 21.31312 -0.01662
C 22.136 19.85629 -0.01185
C 23.42933 19.18506 0.01126
C 23.35667 17.70183 0.01852
C 22.15594 25.53825 0.01087
C 20.9032 2.12483 -0.00311
C 19.71481 2.81393 0.00675
C 19.6389 4.25224 -0.00865
C 20.87579 21.97767 -0.03557
C 19.71386 21.27092 0.03754
C 19.70182 19.85234 0.01739
C 20.88257 19.18257 0.00755
C 20.89501 17.73754 -0.0054
C 19.64264 17.05459 0.00667
C 19.64659 15.63517 0.00143
C 20.90128 14.92664 -0.017
C 20.90528 13.53651 0.00364
C 19.71889 12.76594 -0.00831
C 19.68919 11.3729 -0.02957
C 20.90889 10.6794 -0.04422
C 20.90356 9.2781 0.00654
C 19.68553 8.50303 -0.00703
C 19.70305 7.09929 -0.04076
C 20.94481 6.37445 -0.00652
C 20.8918 4.94786 0.0058
C 19.68146 24.11615 0.04892
C 14.80901 32.67463 0.01965
C 12.30379 0.01207 -0.03682
C 13.49247 0.71016 0.00052
C 3.66435 6.41545 0.00373
C 3.69191 4.98955 -0.00191
C 2.45934 4.25862 0.00438
C 2.44216 2.86644 0.01291
C 3.73478 2.12074 0.00093
C 3.67908 0.69841 0.00057
C 2.45907 34.06035 -0.01634
C 2.42429 7.08878 0.02147
C 4.94782 32.65892 -0.00334
C 6.13087 30.54415 0.01641
C 4.97109 29.81641 -0.00719
C 4.9376 28.42804 0.01364
C 4.91496 25.62318 -0.01062
C 4.92207 24.14276 -0.00033
C 4.88171 21.30548 0.03589
C 4.90098 11.34778 -0.02759
C 6.16071 31.99457 0.02339
C 2.45357 8.48226 -0.014
C 3.68939 9.2173 -0.01118
C 3.67948 10.69364 -0.00131
C 3.63854 30.54174 0.01572
C 2.42567 29.81595 -0.04848
C 2.46672 28.42285 -0.00892
C 3.681 27.66804 -0.01362
C 3.68752 26.32121 -0.0008
C 2.48343 25.57045 0.0288
C 2.47417 24.17133 0.00393
C 3.66217 23.48381 0.00895
C 3.70051 22.04329 0.00685
C 2.45789 21.2665 0.02888
C 2.44474 19.87351 -0.00482
C 3.63786 19.16226 -0.01384
C 2.49443 16.99364 0.03693
C 2.48407 15.62029 0.01745
C 3.6488 13.49646 0.00488
C 2.47369 12.7796 -0.01004
C 2.4513 11.38631 -0.02896
C 6.10799 9.22653 0.0402
C 4.89581 8.57443 0.00572
C 4.89464 7.12909 0.03592
C 6.16158 6.38873 0.00406
C 9.83167 7.09087 -0.02162
C 11.07587 6.3903 0.00415
C 11.06071 4.954 -0.0014
C 9.87899 4.25546 0.02162
C 9.78542 2.78816 0.0076
C 11.04956 2.16993 0.01241
C 11.05002 0.71347 -0.01454
C 9.81818 0.01571 0.01945
C 12.30815 32.72376 0.01416
C 13.52199 9.17364 0.03542
C 12.36427 8.5318 0.02299
C 12.32647 7.11532 0.00244
C 13.53191 6.41087 -0.01717
C 13.53392 4.95112 0.05265
C 12.25856 4.20185 -0.01952
C 12.27483 2.81504 -0.02813
C 13.55669 2.12017 0.00374
C 9.86066 8.50408 0.01363
C 22.14436 17.03647 -0.00381
C 11.07464 9.26442 0.01877
C 7.34657 34.07953 0.00444
C 6.17284 4.95216 0.00943
C 4.94352 4.27751 0.02841
C 4.92575 2.86211 -0.01111
C 6.12962 2.10578 -0.01275
C 6.14353 0.7035 0.00985
C 4.89219 0.02137 -0.02245
C 7.32981 32.63893 -0.00428
C 8.62149 31.96177 0.03101
C 8.58492 9.22232 -0.01536
C 7.35852 8.54137 -0.02689
C 7.42199 7.08462 -0.01046
C 8.63565 6.40217 -0.00891
C 8.62173 4.97761 0.02819
C 7.40292 4.28898 0.00165
C 7.3727 2.85207 -0.02971
C 8.60787 2.12573 0.02894
C 8.61852 0.75082 -0.01789
C 9.80884 32.65829 -0.00925
C 3.67434 31.95986 -0.00095
C 22.16409 15.59534 0.03046
C 23.36294 13.50033 0.03374
C 33.18849 27.70718 0.00682
C 33.22125 26.29005 -0.01779
C 31.95641 25.61856 0.03794
C 31.97834 24.1501 0.01927
C 33.22542 23.42392 0.01574
C 33.19261 22.01539 -0.02383
C 31.98497 21.32931 -0.01429
C 31.99068 28.40752 0.00026
C 31.9839 19.87812 -0.0136
C 33.19178 17.78625 -0.02474
C 31.97802 17.04287 0.00369
C 31.99716 15.6025 0.00455
C 33.18944 14.89222 -0.00644
C 33.15833 13.5178 -0.01839
C 31.96149 12.73751 0.00137
C 31.96285 11.33279 0.00199
C 33.15132 19.21089 0.00594
C 31.97984 29.82727 0.0544
C 33.2437 30.55331 -0.02142
C 33.22255 31.91545 0.01428
C 29.54306 21.32085 -0.0405
C 29.48552 19.87799 -0.01303
C 30.73863 19.18096 -0.01461
C 30.74846 17.77333 -0.02155
C 29.47738 17.01888 -0.00944
C 29.48401 15.65674 -0.03735
C 30.71475 14.8724 -0.00971
C 30.75971 13.51505 0.01518
C 29.49298 12.79927 0.01908
C 29.52537 11.3858 0.07705
C 30.72402 10.61441 0.0103
C 29.51917 4.27303 0.02108
C 29.51057 2.84147 0.00716
C 30.77477 2.11195 0.00307
C 30.75929 0.72075 0.00346
C 29.47898 34.06127 0.01713
C 31.97245 32.6602 -0.01694
C 33.17091 10.65956 0.04381
C 30.71374 22.0365 0.01705
C 33.23553 9.21436 0.02806
C 33.2127 6.37147 -0.00069
C 0.03913 16.99432 0.00648
C 34.41633 15.62538 0.02114
C 1.22449 14.92208 -0.02957
C 1.2358 13.50391 0.00343
C 34.42448 12.74982 -0.02656
C 34.40478 11.36086 -0.02442
C 1.20766 10.70022 -0.00027
C 1.25651 17.76575 0.01223
C 1.23278 9.1766 -0.00583
C 0.00983 7.07642 -0.02849
C 1.22348 6.37433 0.02931
C 1.21516 4.97334 0.00628
C 0.00907 4.19641 -0.0345
C 34.4114 2.83729 -0.00931
C 1.28595 2.11289 -0.00939
C 1.23085 0.68044 -0.00468
C 34.40975 8.5374 -0.02302
C 1.22086 19.16945 -0.01678
C 34.40257 19.90565 0.01951
C 34.41596 21.30437 -0.02213
C 33.20177 4.94061 0.04926
C 31.99892 4.24824 -0.03838
C 31.98014 2.89678 0.00349
C 33.23597 2.10614 -0.00323
C 33.19793 0.64203 -0.00841
C 31.98416 0.00603 0.0001
C 0.02029 32.6402 -0.02927
C 1.21113 31.95771 -0.01404
C 1.23892 30.51073 0.01027
C 34.41996 29.8209 0.01831
C 34.42759 28.42732 -0.01037
C 1.24547 27.70214 -0.00439
C 1.23448 26.27295 -0.00598
C 0.024 25.61932 -0.05239
C 34.39821 24.16701 0.03076
C 1.22973 23.4534 0.00723
C 1.20757 22.01709 0.02712
C 31.98474 8.57487 0.01504
C 30.75503 23.42497 0.0101
C 29.50955 24.09383 -0.00669
C 29.5045 25.56561 0.03531
C 24.63 24.18037 -0.00498
C 25.84533 23.48573 0.00135
C 25.79995 21.9494 0.03102
C 24.55253 21.26182 0.02555
C 24.59254 19.88252 0.01423
C 25.87749 19.1548 -0.00285
C 25.79015 17.72678 -0.009
C 24.57786 25.58304 0.02737
C 24.60395 16.99049 -0.01199
C 25.82846 14.9292 -0.00938
C 25.80903 13.46796 -0.0264
C 24.6214 12.83463 -0.01154
C 24.58864 11.39337 0.00684
C 25.81685 10.60846 -0.01052
C 25.86325 9.20711 -0.01679
C 24.55943 8.51702 0.00367
C 24.53207 15.64867 -0.00229
C 25.81208 26.29375 0.02117
C 25.81655 27.64516 -0.04078
C 24.59188 28.40574 0.03005
C 22.11451 12.79462 -0.02845
C 22.13491 11.36491 -0.03213
C 23.36412 10.73872 0.02239
C 23.37222 9.24071 0.01153
C 22.07781 8.49597 0.02734
C 22.12866 7.11517 -0.0055
C 23.3723 6.40112 0.01515
C 23.3636 4.97998 -0.00225
C 22.10127 4.27085 0.00071
C 22.12092 2.81938 -0.01107
C 23.36344 2.13458 -0.01586
C 23.35421 0.77207 -0.01971
C 22.12545 34.03779 -0.02118
C 24.57562 32.65573 0.00733
C 25.78513 31.91182 -0.00178
C 25.79764 30.54203 0.00768
C 24.6165 29.84891 -0.0276
C 24.57822 7.07959 0.04306
C 25.7842 6.38948 0.00996
C 25.85042 4.97926 0.00195
C 24.59256 4.24166 -0.00802
C 28.26817 14.93854 0.01259
C 28.30669 13.4573 0.01799
C 27.05469 12.76691 0.01699
C 27.07899 11.35833 -0.00416
C 28.23345 10.64308 0.01177
C 27.09571 4.19828 0.04266
C 27.03984 2.83046 0.01324
C 28.26509 2.10951 0.0014
C 28.28896 0.69511 0.00924
C 27.10537 34.0349 0.02326
C 29.48118 32.67411 0.00261
C 30.69059 31.92553 0.03265
C 30.70513 30.46526 -0.02049
C 29.51904 29.7911 -0.01854
C 29.48222 28.42858 -0.01415
C 30.80194 27.6986 -0.03039
C 30.76737 26.2488 0.01836
C 26.98595 15.62263 0.01495
C 23.33773 14.8735 0.0296
C 27.07408 17.03566 0.00235
C 28.284 19.15634 0.02198
C 24.62805 2.83881 -0.00218
C 25.84318 2.10682 -0.01654
C 25.85099 0.68619 -0.00037
C 24.60823 0.02102 -0.0032
C 27.05569 32.6107 0.00622
C 28.26044 31.90691 -0.02815
C 28.2741 30.53811 -0.00942
C 27.07166 29.77279 0.00487
C 27.08571 28.371 0.00826
C 28.25668 27.68175 -0.00294
C 28.2804 26.25009 0.00152
C 27.07366 25.57371 0.01257
C 27.04205 24.10904 0.02316
C 28.31968 23.42313 0.04185
C 28.27249 22.00272 0.00194
C 27.05702 21.32443 -0.00621
C 27.09501 19.88625 0.02611
C 28.33931 17.74859 0.01094
C 2.47742 32.66642 0.03007
