390
Graphene
C 34.36662 0.03035 0.01295
C 9.85457 0.0983 0.01363
C 12.31829 32.56916 -0.02162
C 13.52265 31.96272 0.00415
C 13.41898 30.59013 -0.0014
C 12.24881 29.89679 0.02162
C 12.23445 28.44687 0.0076
C 13.40897 27.7171 0.01241
C 13.51339 26.31754 -0.01454
C 12.26122 25.5741 0.01945
C 11.08175 0.74008 0.01877
C 12.21571 24.27506 0.01416
C 13.4827 22.12034 0.02299
C 12.28572 21.36425 0.00244
C 12.43822 19.85148 -0.01717
C 13.69808 19.29084 0.05265
C 12.36435 6.94772 -0.01952
C 13.47229 6.52668 -0.02813
C 13.49147 5.01175 0.00374
C 12.21914 4.22716 0.00052
C 12.29253 2.89584 -0.03682
C 13.37246 23.53844 0.03542
C 13.52885 2.16173 0.01965
C 11.01474 2.17237 -0.00925
C 9.86748 4.27408 -0.01789
C 9.75097 28.52123 0.0402
C 11.01237 27.74203 0.00572
C 11.01573 26.35798 0.03592
C 9.80275 25.58486 0.00406
C 9.71742 24.17271 0.00943
C 10.96692 23.53022 0.02841
C 11.02367 22.04715 -0.01111
C 9.84665 21.36444 -0.01275
C 9.9261 19.95159 0.00985
C 9.75505 2.83662 0.00444
C 11.14962 19.14572 -0.02245
C 9.99969 17.02198 0.03101
C 9.89178 15.59219 -0.01536
C 9.80278 12.46386 -0.02689
C 10.02349 10.95906 -0.01046
C 10.73873 9.8527 -0.00891
C 9.80984 8.73976 0.02819
C 9.93895 7.32921 0.00165
C 11.08394 6.51922 -0.02971
C 11.06499 5.01669 0.02894
C 11.20097 17.78388 -0.00428
C 13.54675 0.70219 0.02058
C 12.32371 34.02871 -0.01957
C 14.7502 32.69687 -0.0108
C 17.20293 25.63903 0.03698
C 17.13657 24.18281 -0.00109
C 18.30365 23.38394 -0.00491
C 18.29145 21.90301 0.03338
C 17.07345 21.18837 -0.0258
C 16.3569 19.76118 -0.0331
C 18.47422 5.03919 -0.00316
C 17.22335 4.38401 0.02188
C 17.20889 2.76945 -0.01979
C 18.49063 26.21394 -0.02213
C 18.41971 2.06942 0.02691
C 17.22979 34.05102 0.01452
C 19.65553 32.66585 0.04892
C 20.81661 31.89524 -0.00111
C 20.79386 30.48833 -0.03557
C 19.57749 29.82648 0.03754
C 19.73279 28.38339 0.01739
C 20.86824 27.57779 0.00755
C 20.89289 26.18176 -0.0054
C 19.61245 25.50485 0.00667
C 18.42256 0.66931 -0.01581
C 18.49705 27.6492 0.00028
C 17.18845 28.39642 -0.00289
C 17.12122 29.80783 -0.00066
C 16.00702 31.98207 -0.00368
C 15.95301 30.54147 -0.02696
C 14.70829 29.87186 -0.00114
C 14.65762 28.4229 0.00228
C 15.91931 27.69108 0.00798
C 15.95879 26.33778 0.00422
C 14.73508 25.58996 0.0351
C 14.66637 24.22129 -0.03113
C 15.86546 23.46676 0.02098
C 15.89856 22.0051 0.01848
C 14.59319 21.39695 -0.00619
C 14.99655 19.97169 -0.02162
C 15.97474 4.92683 0.00889
C 14.74204 4.32482 -0.00481
C 14.69455 2.911 0.00979
C 15.92811 2.14729 0.01443
C 15.97348 0.66586 0.03505
C 14.7337 34.05487 -0.02815
C 17.21462 32.73761 -0.04147
C 18.39374 31.95977 -0.05302
C 18.31515 30.50463 0.00213
C 9.77901 29.90249 -0.02759
C 10.95989 30.64263 0.03589
C 11.06367 32.00172 -0.00033
C 9.79591 32.81507 -0.01062
C 2.33084 4.29419 -0.00518
C 2.36054 2.85994 0.0086
C 3.55798 2.19325 -0.00643
C 3.59417 0.84234 0.017
C 2.41031 0.09384 -0.03113
C 4.87478 32.74711 -0.02566
C 6.10117 32.03467 -0.00094
C 6.11272 30.63277 0.02322
C 4.88573 29.81436 -0.00725
C 3.59265 5.00602 -0.00074
C 4.80354 28.47229 -0.05697
C 6.16385 26.31675 -0.01343
C 4.92864 25.65828 0.00988
C 4.97704 24.20794 0.0276
C 6.15787 23.48851 0.01305
C 6.09632 22.04856 -0.00077
C 4.93951 21.26088 0.03368
C 4.97526 19.87455 -0.02929
C 6.13313 19.15466 -0.00966
C 6.20948 17.71264 -0.03337
C 6.0608 27.77275 0.01087
C 3.67419 6.46416 0.01465
C 2.38802 7.0891 -0.03996
C 2.34923 8.60624 0.01996
C 3.59095 30.65101 -0.03291
C 2.40468 29.91867 -0.04999
C 2.30311 28.53081 0.04505
C 3.55705 27.79339 0.03284
C 3.66726 26.38801 -0.04307
C 2.50443 25.62076 0.03189
C 2.44115 24.18076 0.00031
C 3.76886 23.47606 -0.003
C 3.74391 21.96995 0.01402
C 2.52498 21.28294 0.02379
C 2.46473 19.87288 0.00907
C 3.68577 19.20862 0.00643
C 3.73776 17.77854 -0.01509
C 2.46976 17.0069 0.03267
C 2.54301 15.60708 0.02374
C 3.7506 14.92909 0.00402
C 3.75316 13.54698 0.0073
C 2.4773 12.84068 0.0174
C 2.43513 11.41653 0.03828
C 3.66596 10.73487 0.01226
C 3.56123 9.32242 -0.00279
C 5.00753 17.0255 0.01227
C 19.57244 24.05896 0.00143
C 5.04489 15.61854 0.00873
C 6.13786 13.52827 0.00848
C 7.34096 19.81958 0.01745
C 8.60838 19.18666 0.00488
C 8.60743 17.66498 -0.01004
C 7.42571 17.07261 -0.02896
C 7.53827 15.69282 -0.00131
C 8.74941 14.9042 -0.01118
C 8.74663 13.35789 -0.014
C 7.36713 12.72027 0.02147
C 7.32067 11.27186 0.00373
C 7.29159 21.23382 0.03693
C 8.56501 10.72326 -0.00191
C 7.33211 8.59927 0.01291
C 7.3414 7.1475 0.00093
C 8.64465 6.42432 0.00057
C 8.58837 4.99182 -0.01634
C 7.30186 4.34481 -0.00334
C 7.26007 2.9839 0.02339
C 8.47668 2.15946 0.01641
C 8.49006 0.75271 -0.00719
C 7.21398 0.05826 0.01364
C 8.53423 9.26143 0.00438
C 8.54378 21.96792 -0.01384
C 8.51992 23.43891 -0.00482
C 7.38143 24.26107 0.02888
C 4.91591 12.81791 -0.01303
C 4.971 11.42291 -0.01378
C 6.07819 10.61269 0.02635
C 6.10962 9.21045 0.0127
C 4.83778 8.5332 0.01396
C 4.88623 7.16262 0.01849
C 6.13658 6.46487 -0.01142
C 6.03229 5.04502 -0.00562
C 4.85131 4.30655 -0.00494
C 4.80196 2.94682 0.00054
C 6.05784 2.25014 0.03007
C 6.01654 0.84993 -0.00095
C 4.797 0.04814 0.01572
C 7.26057 32.75779 -0.04848
C 8.55202 32.01586 -0.00892
C 8.52734 30.69426 -0.01362
C 7.33744 29.92365 -0.0008
C 7.33461 28.49196 0.0288
C 8.55402 27.7965 0.00393
C 8.61476 26.35344 0.00895
C 7.36052 25.71396 0.00685
C 6.28085 15.01047 -0.00049
C 20.84407 23.35079 -0.017
C 20.84294 21.92238 0.00364
C 19.59041 21.20607 -0.00831
C 30.6242 5.07704 0.07705
C 29.39583 4.1957 0.0103
C 29.409 2.79798 0.02108
C 30.62101 2.06846 0.00716
C 30.74495 0.68779 0.00307
C 29.45017 34.05454 0.00346
C 31.90306 32.63746 0.01713
C 33.17288 31.98887 -0.01694
C 33.08952 30.53373 0.01428
C 30.59728 6.54745 0.01908
C 31.82884 29.77516 -0.02142
C 33.09762 27.66294 0.00026
C 33.1339 26.23596 0.00682
C 31.92875 25.50163 -0.01779
C 32.0305 24.07444 0.03794
C 33.26015 23.39245 0.01927
C 33.2906 21.98155 0.01574
C 32.01808 21.29317 -0.02383
C 32.03185 19.93338 -0.01429
C 33.23705 19.25074 -0.0136
C 31.90617 28.37791 0.0544
C 29.38559 7.13995 0.01518
C 29.38296 8.51763 -0.00971
C 30.60084 9.29271 -0.03735
C 30.62009 31.91788 0.04266
C 30.67203 30.56494 0.01324
C 29.47142 29.81243 0.0014
C 29.53247 28.41261 0.00924
C 30.72904 27.60053 0.02326
C 30.69309 26.23816 0.00261
C 29.51076 25.50188 0.03265
C 29.42959 24.01417 -0.02049
C 30.72794 23.32608 -0.01854
C 30.69787 21.92413 -0.01415
C 29.44665 21.32392 -0.03039
C 29.44415 19.83598 0.01836
C 30.72949 19.1853 0.03531
C 30.7392 17.78308 -0.00669
C 29.45446 17.0365 0.0101
C 29.53167 15.61152 0.01705
C 30.74319 14.97851 -0.0405
C 30.73853 13.54009 -0.01303
C 29.45028 12.85324 -0.01461
C 29.36419 11.41278 -0.02155
C 30.6174 10.7046 -0.00944
C 33.226 17.85569 0.00594
C 29.37589 32.60874 0.01177
C 31.97681 17.16236 -0.02474
C 33.12491 14.88947 0.00455
C 0.10645 21.31967 -0.02213
C 0.01431 19.93911 0.01951
C 1.22755 19.13732 -0.01678
C 1.24902 17.68751 0.01223
C 0.06186 17.03999 0.00648
C 34.37083 15.55671 0.02114
C 1.27223 14.95732 -0.02957
C 1.18048 13.53232 0.00343
C 34.34713 12.79176 -0.02656
C 1.24013 22.10154 0.02712
C 34.32005 11.47556 -0.02442
C 1.17409 9.27451 -0.00583
C 34.39377 8.61157 -0.02302
C 34.31992 7.16527 -0.02849
C 1.07915 6.48411 0.02931
C 1.0798 5.0443 0.00628
C 34.27571 4.29926 -0.0345
C 34.27959 2.89948 -0.00931
C 1.09713 2.16368 -0.00939
C 1.15248 0.75881 -0.00468
C 1.17943 10.82106 -0.00027
C 1.19929 23.57306 0.00723
C 34.33568 24.21503 0.03076
C 34.3698 25.5917 -0.05239
C 33.10885 13.42563 -0.00644
C 31.89218 12.81188 -0.01839
C 31.84092 11.34672 0.00137
C 33.10821 10.70577 0.00199
C 33.15724 9.254 0.04381
C 31.92324 8.59152 0.02806
C 31.81875 7.20075 0.01504
C 33.0523 6.51791 -0.00069
C 33.08557 5.07592 0.04926
C 31.8842 4.32254 -0.03838
C 31.84762 2.91314 0.00349
C 33.063 2.14494 -0.00323
C 33.10559 0.70092 -0.00841
C 31.91081 34.0545 0.0001
C 34.38896 32.68921 -0.02927
C 1.22676 31.99691 -0.01404
C 1.1506 30.56781 0.01027
C 34.35285 29.7928 0.01831
C 34.31979 28.39733 -0.01037
C 1.19367 27.64962 -0.00439
C 1.17865 26.26771 -0.00598
C 31.93811 15.64221 0.00369
C 3.61258 32.118 0.02769
C 26.99221 34.06081 -0.00416
C 28.18041 2.12437 0.01799
C 22.05166 7.21141 0.01126
C 23.23698 6.38782 0.01852
C 23.26202 4.94188 -0.00381
C 22.06457 4.16365 0.03046
C 22.10053 2.77636 0.0296
C 23.31372 2.10329 0.03374
C 23.35856 0.65116 -0.02845
C 22.11479 33.98292 -0.03213
C 24.58195 32.64033 0.02239
C 23.2291 9.08163 -0.01185
C 25.82559 31.86488 0.01153
C 24.49262 29.73782 -0.0055
C 24.56944 28.34312 0.01515
C 25.84032 27.60602 -0.00225
C 25.78143 26.25443 0.00071
C 24.53052 25.5139 -0.01107
C 24.52903 24.12928 -0.01586
C 25.74219 23.41897 -0.01971
C 25.83403 22.02076 -0.02118
C 24.60263 21.34496 0.00733
C 25.67473 30.43041 0.02734
C 23.36137 17.82041 -0.01662
C 23.3798 19.19897 -0.00478
C 22.11467 19.92363 0.01511
C 19.74811 19.78492 -0.02957
C 20.86129 19.41407 -0.04422
C 21.06827 6.4183 0.00654
C 20.89857 4.90721 -0.00703
C 19.70359 4.27003 -0.04076
C 19.7279 2.83906 -0.00652
C 20.85208 2.05714 0.0058
C 20.91664 0.6755 -0.00865
C 19.67715 34.06965 0.00675
C 22.08143 32.5528 -0.00311
C 23.36763 31.85646 0.00742
C 23.28498 30.42129 -0.01594
C 22.05179 29.70019 0.0106
C 22.04861 28.3673 -0.01154
C 23.33409 27.59418 -0.01721
C 23.30562 26.19794 -0.02422
C 22.12776 25.46327 0.01277
C 22.08198 24.00196 0.00096
C 23.32388 23.33281 -0.01527
C 23.41273 21.9116 0.01087
C 22.12545 21.31645 0.00199
C 24.65584 19.87863 -0.00178
C 28.24465 0.69181 0.01699
C 25.81507 19.13157 0.00768
C 24.46271 17.01853 0.03005
C 28.21718 23.37332 -0.00037
C 28.1422 22.03967 -0.0032
C 27.09012 21.29943 0.00622
C 26.95705 19.87558 -0.02815
C 28.22398 19.1489 -0.00942
C 28.23194 17.68988 0.00487
C 27.0552 16.96139 0.00826
C 27.06842 15.55244 -0.00294
C 28.31493 14.9047 0.00152
C 26.9267 24.12776 -0.01654
C 28.18267 13.48076 0.01257
C 26.9241 11.38753 0.04185
C 28.2037 10.70949 0.00194
C 28.13581 9.24197 -0.00621
C 26.93683 8.53946 0.02611
C 26.944 7.11029 0.02198
C 28.27497 6.38922 0.01094
C 28.2511 4.98236 0.00235
C 26.9806 4.27165 0.01495
C 26.97246 2.86011 0.01259
C 26.90711 12.78862 0.02316
C 27.06306 25.52483 -0.00218
C 28.3252 26.28747 -0.00802
C 28.23816 27.65618 0.00195
C 24.51621 15.63416 -0.04078
C 25.68223 14.9323 0.02117
C 25.67621 13.48861 0.02737
C 24.54016 12.68378 -0.00498
C 24.44998 11.48567 0.00135
C 25.74101 10.65636 0.03102
C 25.64516 9.21781 0.02555
C 24.49629 8.51079 0.01423
C 24.52432 7.06824 -0.00285
C 25.76308 6.36128 -0.009
C 25.79275 4.99673 -0.01199
C 24.56522 4.28124 -0.00229
C 24.55631 2.81818 -0.00938
C 25.79197 2.0921 -0.0264
C 25.77973 0.66454 -0.01154
C 24.57653 34.04035 0.00684
C 26.93373 32.52993 -0.01052
C 28.15771 31.86535 -0.01679
C 28.25945 30.4639 0.00367
C 26.95064 29.77681 0.04306
C 27.03652 28.39024 0.00996
C 25.80716 17.74568 -0.0276
C 2.3354 32.80103 0.01707
