345
Graphene
C 34.39092 0.02855 0.01295
C 10.85554 0.77549 0.02098
C 9.78661 0.01465 0.01848
C 12.21098 32.72888 -0.00619
C 13.44661 32.01287 -0.02162
C 13.4133 30.54955 0.00889
C 12.24656 29.85062 -0.00481
C 12.26824 28.49382 0.00979
C 13.527 27.82667 0.01443
C 13.65831 26.33738 0.03505
C 12.30644 25.63802 -0.02815
C 12.2888 24.08004 -0.04147
C 13.55881 23.34755 -0.05302
C 14.37421 22.31738 0.00213
C 12.12377 11.37369 -0.00066
C 13.43082 10.659 -0.00289
C 13.45518 9.23762 0.00028
C 12.18613 8.62521 -0.02213
C 10.97208 2.12498 -0.03113
C 9.75221 2.94662 0.0351
C 9.81899 4.39454 0.00422
C 11.06663 5.03708 0.00798
C 7.25239 0.06152 0.03542
C 9.75442 32.73413 0.02299
C 11.05585 31.95957 0.00244
C 11.02767 30.53787 -0.01717
C 9.78862 29.86013 0.05265
C 9.91256 28.43512 -0.01952
C 11.06424 27.73184 -0.02813
C 11.13735 26.36764 0.00374
C 12.18254 7.18153 0.03698
C 9.92054 25.66046 0.00052
C 10.79763 23.32829 0.01965
C 10.21447 21.83463 0.02058
C 8.92959 11.74821 -0.01957
C 10.84181 11.04348 -0.0108
C 10.93029 9.51583 -0.00368
C 9.79568 8.61714 -0.02696
C 9.79775 7.13002 -0.00114
C 11.03641 6.47738 0.00228
C 9.74382 24.29088 -0.03682
C 8.53876 0.74179 0.01416
C 13.44223 6.45971 -0.00109
C 12.24787 4.30737 0.03338
C 14.64693 2.84791 0.00654
C 15.92724 2.05516 -0.00703
C 15.95046 0.67784 -0.04076
C 14.74675 33.97794 -0.00652
C 17.15993 32.66754 0.0058
C 18.34562 32.00971 -0.00865
C 18.33594 30.54968 0.00675
C 17.07396 29.78666 -0.00311
C 17.05428 28.36014 0.00742
C 17.8111 18.24856 -0.01594
C 17.0718 17.02225 0.0106
C 18.28089 16.14852 -0.01154
C 18.50165 14.89376 -0.01721
C 18.58188 13.40435 -0.02422
C 17.30601 12.65366 0.01277
C 17.22878 11.20351 0.00096
C 18.41061 10.59116 -0.01527
C 14.78409 4.25923 -0.04422
C 15.96644 4.97436 -0.02957
C 15.97307 6.34232 -0.00831
C 14.69682 7.0292 0.00364
C 12.15589 2.77258 -0.0258
C 13.46692 2.10059 -0.0331
C 13.47246 0.65105 -0.00316
C 12.18554 0.03907 0.02188
C 14.70516 32.62256 -0.01979
C 15.94971 31.92824 0.02691
C 15.86822 30.57321 -0.01581
C 14.6492 29.91515 0.01452
C 13.52785 5.00074 -0.00491
C 14.74916 28.48119 0.04892
C 14.92603 25.82748 -0.03557
C 14.75242 21.07461 0.03754
C 16.10218 13.27795 0.01739
C 14.91237 12.58053 0.00755
C 14.71091 11.29489 -0.0054
C 15.92632 10.50325 0.00667
C 15.96679 9.16292 0.00143
C 14.74557 8.45532 -0.017
C 15.99706 27.48684 -0.00111
C 8.55257 2.15043 0.01945
C 7.34677 2.9002 -0.01454
C 7.32143 4.29328 0.01241
C 2.48974 7.14631 0.00393
C 3.74935 6.42562 0.00895
C 3.74333 5.03647 0.00685
C 2.52177 4.35964 0.02888
C 2.47207 2.94526 -0.00482
C 3.70745 2.15397 -0.01384
C 3.57943 0.74729 0.03693
C 2.34299 0.03493 0.01745
C 4.87403 32.64221 0.00488
C 6.06569 31.95535 -0.01004
C 6.07495 30.50358 -0.02896
C 4.83398 29.81719 -0.00131
C 4.82418 28.3629 -0.01118
C 6.08725 27.74231 -0.014
C 6.12877 26.27446 0.02147
C 4.872 25.55489 0.00373
C 4.93487 24.1445 -0.00191
C 2.56388 8.58482 0.0288
C 3.84211 9.2376 -0.0008
C 3.88145 10.76033 -0.01362
C 2.5254 11.37528 -0.00892
C 3.61964 30.49882 0.01227
C 2.35431 29.79527 0.00873
C 2.37867 28.34945 -0.00049
C 3.61289 27.65278 0.00848
C 3.62633 26.20022 -0.01303
C 2.36361 25.556 -0.01378
C 2.41262 24.14659 0.02635
C 3.70525 23.43603 0.0127
C 6.10703 23.41015 0.00438
C 3.82252 21.94202 0.01396
C 2.35879 19.92032 -0.01142
C 3.6813 19.17758 -0.00562
C 3.6484 17.77698 -0.00494
C 2.3521 16.95579 0.00054
C 2.43351 15.58714 0.03007
C 3.71025 14.83069 -0.00095
C 3.77495 13.39541 0.01572
C 2.51898 12.81097 -0.04848
C 2.484 21.3589 0.01849
C 6.37133 21.93313 0.01291
C 5.03291 21.18508 0.00093
C 4.93715 19.7312 0.00057
C 7.2959 29.88704 -0.01536
C 7.32935 28.44012 -0.02689
C 8.53787 27.6667 -0.01046
C 8.59559 26.31476 -0.00891
C 7.31912 25.58843 0.02819
C 7.35004 24.14137 0.00165
C 8.55981 23.52325 -0.02971
C 8.89292 22.11274 0.02894
C 8.56961 30.62022 0.03101
C 7.61404 21.2546 -0.01789
C 7.02306 16.33774 -0.00925
C 8.29183 12.89913 0.01877
C 8.03562 10.64398 0.01363
C 8.50266 9.30503 -0.02162
C 7.43596 8.45316 0.00415
C 7.34669 7.07121 -0.0014
C 8.55953 6.44884 0.02162
C 8.49919 5.02996 0.0076
C 7.40954 19.94848 0.00444
C 18.37792 9.23484 0.01087
C 8.58059 31.9838 -0.00428
C 4.83343 0.05611 0.00985
C 6.40844 18.97068 -0.01634
C 6.3062 17.4952 -0.00334
C 4.93163 17.00123 0.02339
C 4.95869 15.54168 0.01641
C 6.32443 15.02929 -0.00719
C 6.67705 13.58273 0.01364
C 5.25305 12.80266 -0.01062
C 5.28768 11.3987 -0.00033
C 7.30572 32.68528 -0.02245
C 6.51799 10.57647 0.03589
C 5.02798 8.6239 0.0402
C 4.96335 7.19418 0.00572
C 6.12748 6.42508 0.03592
C 6.16524 4.97354 0.00406
C 4.95846 4.2964 0.00943
C 4.84275 2.87216 0.02841
C 6.08517 2.14458 -0.01111
C 6.03862 0.72022 -0.01275
C 6.23634 9.24944 -0.02759
C 3.66409 31.96624 -0.03337
C 17.13311 8.45377 0.00199
C 18.42742 6.37394 -0.00478
C 31.83926 29.84314 -0.02142
C 31.90514 28.42746 0.0544
C 33.1461 27.7006 0.00026
C 33.12989 26.27847 0.00682
C 31.91563 25.60207 -0.01779
C 31.9341 24.09642 0.03794
C 33.15233 23.4539 0.01927
C 33.10086 22.04025 0.01574
C 31.91107 21.32094 -0.02383
C 31.86063 19.93459 -0.01429
C 33.00739 19.08777 -0.0136
C 33.10716 17.69658 0.00594
C 31.78069 16.93945 -0.02474
C 31.93928 15.50373 0.00369
C 33.15626 14.89083 0.00455
C 33.21461 13.47173 -0.00644
C 32.01855 12.89771 -0.01839
C 33.0885 30.54368 0.01428
C 33.15478 32.02857 -0.01694
C 31.91619 32.66378 0.01713
C 29.47082 0.04161 0.00346
C 29.41931 25.57393 0.03531
C 29.50905 24.18177 -0.00669
C 30.72092 23.44962 0.0101
C 30.76377 22.08227 0.01705
C 29.49465 21.32823 -0.0405
C 29.38439 19.8991 -0.01303
C 30.5779 19.15841 -0.01461
C 30.663 17.77595 -0.02155
C 31.76469 11.51938 0.00137
C 30.66331 10.60856 -0.00944
C 29.50247 8.45537 -0.00971
C 29.58053 7.00942 0.01518
C 30.77406 6.34101 0.01908
C 30.72819 4.91524 0.07705
C 29.52572 4.21461 0.0103
C 29.51368 2.81691 0.02108
C 30.79812 2.11642 0.00716
C 30.71379 0.7013 0.00307
C 30.8308 9.15429 -0.03735
C 30.60797 26.31052 0.01836
C 33.09537 10.81911 0.00199
C 32.00934 8.53672 0.02806
C 1.07212 17.75623 0.01223
C 34.35313 17.01974 0.00648
C 34.3417 15.69454 0.02114
C 1.19504 14.92299 -0.02957
C 1.25245 13.53692 0.00343
C 0.07519 12.82635 -0.02656
C 34.38585 11.35377 -0.02442
C 1.25724 10.71969 -0.00027
C 1.27452 9.27822 -0.00583
C 34.3643 8.60922 -0.02302
C 34.37904 7.14747 -0.02849
C 1.23758 6.43497 0.02931
C 1.27611 5.01151 0.00628
C 0.01248 4.25134 -0.0345
C 34.3917 2.84474 -0.00931
C 1.19398 2.16505 -0.00939
C 1.13769 0.822 -0.00468
C 1.10793 19.16711 -0.01678
C 34.24831 19.84864 0.01951
C 34.32582 21.26144 -0.02213
C 1.15015 22.0187 0.02712
C 31.9642 7.0605 0.01504
C 33.17847 6.42328 -0.00069
C 33.21168 4.96977 0.04926
C 32.01862 4.24248 -0.03838
C 32.03377 2.83308 0.00349
C 33.222 2.12849 -0.00323
C 33.15406 0.7436 -0.00841
C 31.95293 0.04155 0.0001
C 33.18632 9.37278 0.04381
C 0.01068 32.61963 -0.02927
C 1.17037 30.54944 0.01027
C 34.32996 29.85835 0.01831
C 34.41757 28.45548 -0.01037
C 1.17034 27.67679 -0.00439
C 1.18701 26.27453 -0.00598
C 34.38738 25.56607 -0.05239
C 34.42179 24.17426 0.03076
C 1.17615 23.45406 0.00723
C 1.25556 31.95413 -0.01404
C 30.73526 27.72456 -0.03039
C 29.55401 28.49323 -0.01415
C 29.50068 29.84917 -0.01854
C 22.05329 32.62039 -0.00178
C 23.29382 31.9073 0.00768
C 23.30651 30.48881 -0.0276
C 22.10462 29.7558 0.03005
C 22.0658 28.38403 -0.04078
C 23.31357 27.60915 0.02117
C 23.34209 26.20778 0.02737
C 21.97122 8.46764 -0.00498
C 22.19088 7.14569 0.00135
C 23.43739 6.41599 0.03102
C 23.39871 4.92073 0.02555
C 22.11066 4.23022 0.01423
C 22.12918 2.85095 -0.00285
C 23.32952 2.1218 -0.009
C 23.30669 0.69056 -0.01199
C 22.05194 34.05203 -0.00229
C 24.53364 32.66323 -0.00938
C 19.63935 0.05188 0.00733
C 20.90081 0.77468 -0.02118
C 20.91645 2.13948 -0.01971
C 19.66633 2.89188 -0.01586
C 18.45256 4.97384 -0.01662
C 17.175 4.23509 -0.01185
C 17.11578 2.80383 0.01126
C 18.37715 2.11937 0.01852
C 18.44855 0.76524 -0.00381
C 17.18372 0.03082 0.03046
C 19.58373 32.6127 0.0296
C 20.8348 31.93773 0.03374
C 25.79297 31.95513 -0.0264
C 20.79608 30.47409 -0.02845
C 19.56324 28.40554 0.02239
C 20.80159 27.67191 0.01153
C 20.74677 9.121 0.02734
C 19.57979 8.54779 -0.0055
C 19.63631 7.1137 0.01515
C 20.91686 6.4486 -0.00225
C 20.88743 5.00879 0.00071
C 19.6893 4.29575 -0.01107
C 19.59579 29.75644 -0.03213
C 25.83415 30.58823 -0.01154
C 24.61333 29.86003 0.00684
C 24.60861 28.47467 -0.01052
C 26.98823 25.52969 0.02611
C 27.04355 24.14694 0.02198
C 28.24617 23.46217 0.01094
C 28.28644 21.95512 0.00235
C 27.13265 21.23586 0.01495
C 28.31339 9.13291 0.01259
C 27.12747 8.42913 0.01799
C 27.07913 7.07536 0.01699
C 28.15919 26.33164 -0.00621
C 28.32164 6.32947 -0.00416
C 27.1059 4.24513 0.04266
C 27.03168 2.8713 0.01324
C 28.3025 2.15906 0.0014
C 28.21427 0.74277 0.00924
C 26.99394 0.088 0.02326
C 29.39182 32.70593 0.00261
C 30.72072 31.96975 0.03265
C 30.7042 30.56791 -0.02049
C 28.32466 4.95364 0.01177
C 17.2126 7.11119 0.01511
C 28.23319 27.73314 0.00194
C 27.0207 29.80873 0.02316
C 25.72576 27.6388 -0.01679
C 25.72528 26.25799 0.00367
C 24.57827 25.3828 0.04306
C 24.76948 23.97604 0.00996
C 25.89234 23.2786 0.00195
C 25.78906 21.76612 -0.00802
C 24.46961 21.76059 -0.00218
C 24.65704 7.16817 -0.01654
C 26.97657 28.31973 0.04185
C 25.85753 6.40242 -0.00037
C 24.62446 4.26271 0.00622
C 24.60272 2.86401 -0.02815
C 25.81153 2.18047 -0.00942
C 25.78481 0.71227 0.00487
C 24.55352 34.04615 0.00826
C 26.99718 32.75879 -0.00294
C 28.18144 31.99224 0.00152
C 28.18735 30.59714 0.01257
C 25.82334 4.95897 -0.0032
C 2.4542 32.71691 -0.00966
