310
Graphene
C 0.05624 0.03048 0.01295
C 11.17214 2.14353 -0.00316
C 11.03974 0.77774 0.02188
C 9.7738 0.13081 -0.01979
C 12.27781 32.5341 0.02691
C 13.64054 32.13988 -0.01581
C 12.3142 15.63295 0.01452
C 13.4606 14.9183 0.04892
C 13.45245 13.38446 -0.00111
C 12.27205 12.68754 -0.03557
C 12.3468 11.27119 0.03754
C 13.57191 10.63729 0.01739
C 13.55805 9.21551 0.00755
C 12.31642 8.5077 -0.0054
C 12.3248 7.05421 0.00667
C 13.53438 6.44081 0.00143
C 9.82525 2.78944 -0.0331
C 13.5383 4.94513 -0.017
C 9.77365 4.16354 -0.0258
C 11.12927 6.29884 -0.00491
C 8.52816 2.1229 0.00889
C 8.55226 0.72699 -0.00481
C 7.38691 33.98784 0.00979
C 9.78594 32.74469 0.01443
C 10.97122 32.09222 0.03505
C 9.69293 17.18074 -0.02815
C 9.88968 15.69466 -0.04147
C 11.14051 14.93778 -0.05302
C 11.09544 13.49133 0.00213
C 9.86196 12.76797 -0.00066
C 9.84605 11.32551 -0.00289
C 11.07261 10.68113 0.00028
C 11.09261 9.29632 -0.02213
C 9.80864 8.57967 0.03698
C 9.83364 7.17606 -0.00109
C 11.08267 4.85852 0.03338
C 12.32159 4.19857 0.00364
C 12.37261 2.85078 -0.00831
C 13.63013 2.12346 -0.02957
C 17.33894 17.02613 0.01511
C 17.17134 15.63334 -0.00478
C 18.48311 14.87124 -0.01662
C 18.3827 13.4859 -0.01185
C 17.20544 12.72199 0.01126
C 17.29862 11.35014 0.01852
C 18.53747 10.60142 -0.00381
C 18.43399 9.24695 0.03046
C 17.20453 8.60999 0.0296
C 17.16207 7.13344 0.03374
C 18.40013 4.86757 -0.02845
C 17.22464 4.30471 -0.03213
C 17.27455 2.78019 0.02239
C 18.3261 2.07106 0.01153
C 18.40087 0.69278 0.02734
C 18.2833 17.65648 0.00199
C 14.82232 34.01301 0.01087
C 16.03077 0.73237 -0.01527
C 16.02779 2.18705 0.00096
C 13.59098 0.66659 -0.04422
C 12.31144 0.00687 0.00654
C 14.76505 32.57509 -0.00703
C 14.69681 15.55133 -0.04076
C 15.91321 14.86321 -0.00652
C 16.01232 13.41196 0.0058
C 14.77286 12.75834 -0.00865
C 7.3624 2.89098 -0.02162
C 14.74319 11.35918 0.00675
C 15.89955 9.29271 0.00742
C 14.71175 8.5709 -0.01594
C 14.70891 7.16532 0.0106
C 15.98618 6.40484 -0.01154
C 15.99363 4.94994 -0.01721
C 14.81213 4.2517 -0.02422
C 14.80762 2.86006 0.01277
C 16.01647 10.68082 -0.00311
C 7.3847 4.30468 -0.00619
C 8.62862 4.97573 0.01848
C 8.60614 6.36916 0.02098
C 3.67685 9.18808 0.03592
C 2.42169 8.50939 0.00406
C 2.43719 7.1447 0.00943
C 3.63171 6.35248 0.02841
C 3.63431 4.9852 -0.01111
C 2.42418 4.25542 -0.01275
C 2.44276 2.88044 0.00985
C 3.64754 2.15471 -0.02245
C 3.70807 0.74172 -0.00428
C 2.51097 34.0614 0.03101
C 4.89094 32.62835 -0.01536
C 6.12304 31.89464 -0.02689
C 6.10185 30.43159 -0.01046
C 4.86892 29.79027 -0.00891
C 4.92969 28.34127 0.02819
C 3.72875 10.63655 0.00572
C 2.51839 11.40897 0.0402
C 2.44469 12.84405 -0.02759
C 3.6854 13.46374 0.03589
C 3.68822 30.46299 -0.014
C 2.40086 29.84615 0.02147
C 2.46245 28.41987 0.00373
C 3.66908 27.62238 -0.00191
C 3.67275 26.271 0.00438
C 2.44067 25.5766 0.01291
C 2.40715 24.17226 0.00093
C 6.13272 27.73696 0.00165
C 3.7007 23.51211 0.00057
C 2.46841 21.27462 -0.00334
C 2.47859 19.87266 0.02339
C 3.71385 19.19528 0.01641
C 3.66906 17.79378 -0.00719
C 2.43332 17.14062 0.01364
C 2.45673 15.6507 -0.01062
C 3.70388 14.89018 -0.00033
C 3.71372 22.02214 -0.01634
C 17.15409 0.10751 -0.0055
C 4.96269 25.47465 -0.02971
C 4.96637 21.38775 -0.01789
C 7.35097 32.5745 0.00374
C 8.70733 31.90707 0.00052
C 8.48464 30.43798 -0.03682
C 7.40621 29.85034 0.01965
C 8.67946 17.79173 0.02058
C 7.39892 17.07466 -0.01957
C 7.41966 15.60527 -0.0108
C 8.63319 14.93181 -0.00368
C 8.62606 13.50602 -0.02696
C 7.36767 12.75997 -0.00114
C 7.38649 11.34211 0.00228
C 8.56473 10.65944 0.00798
C 8.57728 9.2348 0.00422
C 7.36151 8.52806 0.0351
C 7.3535 7.10492 -0.03113
C 4.90745 0.0112 -0.02813
C 6.1845 0.6266 -0.01952
C 6.17692 2.13053 0.05265
C 4.94773 2.81965 -0.01717
C 5.01566 20.00911 0.00444
C 6.0802 19.0988 -0.00925
C 6.09808 17.71969 0.01877
C 4.8645 16.98948 0.01363
C 4.9365 15.60297 -0.02162
C 6.20851 14.88146 0.00415
C 6.12429 13.47559 -0.0014
C 4.89982 24.28949 0.02894
C 4.89183 12.74943 0.02162
C 6.22829 10.63003 0.01241
C 6.17161 9.2594 -0.01454
C 4.9279 8.54102 0.01945
C 4.86514 7.00148 0.01416
C 6.1006 6.35982 0.03542
C 6.06678 4.95878 0.02299
C 4.84663 4.24503 0.00244
C 4.95762 11.34565 0.0076
C 20.88741 19.16291 0.01515
C 20.86998 17.84292 -0.00225
C 19.70558 16.98142 0.00071
C 33.1549 23.49985 0.01927
C 33.20589 22.08783 0.01574
C 31.97246 21.32496 -0.02383
C 31.96578 19.89788 -0.01429
C 33.20257 19.19706 -0.0136
C 33.25793 17.7781 0.00594
C 31.96005 17.08222 -0.02474
C 31.93182 15.69013 0.00369
C 33.23894 14.94882 0.00455
C 33.19523 13.54001 -0.00644
C 31.99401 12.86274 -0.01839
C 31.91372 11.464 0.00137
C 33.19376 10.75679 0.00199
C 33.14534 9.33276 0.04381
C 32.02088 8.48443 0.02806
C 31.9486 24.164 0.03794
C 31.94482 25.59373 -0.01779
C 33.19295 26.30239 0.00682
C 33.21646 27.67701 0.00026
C 30.69853 19.25995 -0.00944
C 30.71425 17.77719 -0.03735
C 29.52869 17.05315 -0.00971
C 29.44467 15.63078 0.01518
C 30.67549 14.94006 0.01908
C 30.70406 13.47111 0.07705
C 29.48959 12.76392 0.0103
C 31.91556 7.2798 0.01504
C 30.69859 10.75125 0.02108
C 30.7922 0.78961 0.00307
C 29.53441 0.01415 0.00346
C 31.95718 32.67723 0.01713
C 33.14371 31.96004 -0.01694
C 33.17095 30.52306 0.01428
C 31.935 29.85507 -0.02142
C 31.90671 28.41161 0.0544
C 30.70259 2.14991 0.00716
C 29.44176 19.85077 -0.02155
C 33.13904 6.43058 -0.00069
C 31.96405 4.30312 -0.03838
C 0.04493 15.6466 0.02114
C 1.25582 14.93122 -0.02957
C 1.19977 13.49063 0.00343
C 34.43051 12.83757 -0.02656
C 0.03188 11.37587 -0.02442
C 1.28827 10.68834 -0.00027
C 1.17937 9.26784 -0.00583
C 34.37974 8.56953 -0.02302
C 34.36068 7.15326 -0.02849
C 1.17934 6.45847 0.02931
C 1.22101 5.01053 0.00628
C 0.03454 4.19248 -0.0345
C 0.02906 2.75573 -0.00931
C 1.25587 2.12482 -0.00939
C 1.25096 0.74828 -0.00468
C 34.42258 17.08008 0.00648
C 1.18148 17.80013 0.01223
C 1.19645 19.18196 -0.01678
C 34.42848 19.93675 0.01951
C 31.96178 2.8876 0.00349
C 33.24621 2.03934 -0.00323
C 33.24601 0.66402 -0.00841
C 32.00738 0.00106 0.0001
C 34.42386 32.70157 -0.02927
C 1.21132 31.92296 -0.01404
C 1.13149 30.52947 0.01027
C 33.23229 4.91602 0.04926
C 34.39534 29.78433 0.01831
C 1.24901 27.73353 -0.00439
C 1.15463 26.27899 -0.00598
C 34.38406 25.56302 -0.05239
C 34.41991 24.16503 0.03076
C 1.22854 23.37626 0.00723
C 1.29177 21.97166 0.02712
C 0.01528 21.3631 -0.02213
C 0.02467 28.35058 -0.01037
C 3.65259 31.89416 -0.01118
C 29.51817 21.2962 -0.01461
C 30.73389 23.43169 -0.0405
C 22.09258 15.61281 -0.00229
C 23.29674 14.852 -0.00938
C 23.32223 13.53846 -0.0264
C 22.05815 33.99861 -0.01154
C 24.64668 32.7892 0.00684
C 25.8387 31.99281 -0.01052
C 25.83011 30.59959 -0.01679
C 24.53991 29.85604 0.00367
C 24.51582 28.42774 0.04306
C 25.80017 27.70097 0.00996
C 25.89074 26.29842 0.00195
C 24.61415 25.57392 -0.00802
C 24.59844 24.11318 -0.00218
C 25.8196 23.46649 -0.01654
C 25.84824 22.05602 -0.00037
C 22.07826 17.07923 -0.01199
C 23.36445 17.67828 -0.009
C 23.30723 19.1235 -0.00285
C 22.02789 19.92708 0.01423
C 19.67829 15.62303 -0.01107
C 20.84779 14.84626 -0.01586
C 20.80944 13.51446 -0.01971
C 19.70756 12.70264 -0.02118
C 19.57895 11.39978 0.00733
C 20.85088 0.41637 -0.00178
C 19.69335 0.29433 0.00768
C 24.58514 21.32153 -0.0032
C 22.26041 32.81068 -0.0276
C 23.35349 30.57526 -0.04078
C 23.32857 27.56448 0.02117
C 23.29499 26.35273 0.02737
C 22.24405 24.22154 -0.00498
C 23.35565 23.39758 0.00135
C 23.31736 21.98436 0.03102
C 22.12553 21.38285 0.02555
C 23.31382 31.9162 0.03005
C 30.75782 22.04819 -0.01303
C 24.55378 19.90721 0.00622
C 25.79404 17.77959 -0.00942
C 27.04944 17.03801 0.01324
C 27.08242 15.62829 0.0014
C 28.26595 14.8606 0.00924
C 28.33124 13.38347 0.02326
C 28.17444 0.56786 0.00261
C 27.09853 0.03405 0.03265
C 29.5061 32.71015 -0.02049
C 30.73266 31.89436 -0.01854
C 30.72516 30.48218 -0.01415
C 29.40499 29.78389 -0.03039
C 29.50035 28.41856 0.01836
C 30.74607 27.64992 0.03531
C 30.6622 26.21941 -0.00669
C 29.45941 25.51112 0.0101
C 29.50237 24.12308 0.01705
C 28.25233 17.72525 0.04266
C 28.28873 19.12455 0.01177
C 27.03279 19.84377 -0.00416
C 27.03518 21.24399 0.01699
C 24.61709 17.01526 0.00487
C 24.61441 15.60845 0.00826
C 25.85765 14.76899 -0.00294
C 25.80127 13.46115 0.00152
C 24.54582 0.00049 0.01257
C 27.06495 32.65856 0.02316
C 28.29429 31.93359 0.04185
C 25.77845 19.21015 -0.02815
C 28.22867 30.5135 0.00194
C 26.9981 28.36404 0.02611
C 28.26378 27.65436 0.02198
C 28.23454 26.25997 0.01094
C 27.08581 25.54786 0.00235
C 27.05277 24.17163 0.01495
C 28.20732 23.38602 0.01259
C 28.21434 21.96737 0.01799
C 27.0467 29.77846 -0.00621
C 2.47146 32.58795 -0.00131
