337
Graphene
C 0.02258 0.04771 0.01295
C 16.01791 2.11366 -0.00481
C 15.93254 0.77498 0.00979
C 14.74387 0.0463 0.01443
C 17.25829 32.61305 0.03505
C 18.49036 32.00309 -0.02815
C 18.46856 22.04178 -0.04147
C 17.18349 21.27219 -0.05302
C 17.15955 19.83601 0.00213
C 18.39276 19.03803 -0.00066
C 18.44691 17.73174 -0.00289
C 18.57137 6.40662 0.00028
C 18.46964 4.94901 -0.02213
C 17.27311 4.21707 0.03698
C 17.25476 2.80555 -0.00109
C 18.42597 2.19492 -0.00491
C 18.44281 0.66232 0.03338
C 17.21216 33.9998 -0.0258
C 14.70556 2.79612 0.00889
C 19.71772 32.56861 -0.0331
C 15.85816 19.20527 -0.02162
C 14.73062 21.32525 0.01848
C 12.30604 25.52006 -0.02813
C 12.23973 24.17948 0.00374
C 13.44153 23.50628 0.00052
C 13.55779 22.05638 -0.03682
C 12.35644 21.3524 0.01965
C 12.30709 2.81636 0.02058
C 13.53438 2.16679 -0.01957
C 13.51917 0.72239 -0.0108
C 12.31646 34.07169 -0.00368
C 14.78068 32.68617 -0.02696
C 15.9979 32.01838 -0.00114
C 15.94855 30.57893 0.00228
C 14.7725 29.87437 0.00798
C 14.73369 28.35925 0.00422
C 14.80154 24.07285 0.0351
C 15.95978 23.46451 -0.03113
C 16.071 22.001 0.02098
C 14.79054 19.79968 -0.00619
C 13.48464 26.2752 -0.01952
C 20.92761 31.89247 -0.00316
C 20.87417 21.96198 -0.01979
C 23.39519 30.49935 0.0058
C 22.17924 29.85748 -0.00865
C 23.37053 27.6584 0.00675
C 23.4007 26.34809 -0.00311
C 23.32639 23.51551 0.00742
C 23.34498 22.03485 -0.01594
C 22.11664 21.23275 0.0106
C 22.12607 19.8324 -0.01154
C 23.36625 19.21592 -0.01721
C 23.34307 17.725 -0.02422
C 22.08144 17.0387 0.01277
C 22.11452 15.64067 0.00096
C 23.35411 14.87768 -0.01527
C 23.43578 13.54923 0.01087
C 22.14859 12.72932 0.00199
C 22.13908 11.34159 0.01511
C 23.37646 10.65052 -0.00478
C 23.42349 31.90845 -0.00652
C 20.90516 30.50467 0.02188
C 22.13466 32.61669 -0.04076
C 20.92185 0.66677 0.00654
C 19.70045 21.31715 0.02691
C 19.6578 19.90886 -0.01581
C 20.85177 19.16259 0.01452
C 20.87143 17.76058 0.04892
C 19.58908 17.07008 -0.00111
C 19.66294 15.66123 -0.03557
C 20.84793 14.90035 0.03754
C 20.982 13.43632 0.01739
C 20.92845 10.64597 0.00755
C 20.88865 9.26845 -0.0054
C 19.68376 8.56107 0.00667
C 19.72646 7.13958 0.00143
C 20.94012 6.3937 -0.017
C 20.92291 4.93502 0.00364
C 19.67401 4.22639 -0.00831
C 19.66725 2.84197 -0.02957
C 20.95014 2.16006 -0.04422
C 19.63462 34.06177 -0.00703
C 13.51866 27.67341 0.05265
C 12.24026 28.41855 -0.01717
C 12.31183 29.80762 0.00244
C 2.38022 4.25338 0.01745
C 2.45101 2.8653 0.00488
C 3.71199 2.13415 -0.01004
C 3.65479 0.71082 -0.02896
C 2.46278 34.02576 -0.00131
C 4.88587 32.64038 -0.01118
C 6.15129 31.91708 -0.014
C 6.10156 30.51497 0.02147
C 4.94011 29.80096 0.00373
C 4.98226 28.42266 -0.00191
C 6.12345 27.74326 0.00438
C 6.16838 26.24353 0.01291
C 4.88967 25.56598 0.00093
C 4.90023 24.15294 0.00057
C 6.16549 23.49009 -0.01634
C 6.16632 21.9588 -0.00334
C 4.89974 21.33811 0.02339
C 3.67465 5.00078 0.03693
C 4.8839 19.88191 0.01641
C 3.64609 6.36432 -0.01384
C 2.43437 8.57351 0.02888
C 3.72132 30.48776 0.01396
C 2.47804 29.86448 0.01849
C 2.49277 28.42385 -0.01142
C 3.70738 27.70204 -0.00562
C 3.63035 26.32821 -0.00494
C 2.47988 25.56824 0.00054
C 2.4622 24.11446 0.03007
C 3.65698 23.41807 -0.00095
C 3.62405 22.04005 0.01572
C 2.47351 21.25128 -0.04848
C 2.50727 19.90174 -0.00892
C 3.67195 19.14838 -0.01362
C 3.76407 17.75757 -0.0008
C 2.51137 17.01453 0.0288
C 2.36364 15.60409 0.00393
C 2.43418 12.81908 0.00895
C 2.43833 11.46791 0.00685
C 2.51322 7.09049 -0.00482
C 6.18886 19.2606 -0.00719
C 4.9735 4.24764 0.01364
C 4.88907 2.8277 -0.01062
C 11.11021 30.50791 0.02894
C 9.73203 29.79382 -0.01789
C 9.79822 28.48818 0.00444
C 11.01433 27.74636 -0.00925
C 11.04746 26.29225 0.01877
C 9.87475 25.59277 0.01363
C 9.83839 24.05707 -0.02162
C 11.10707 23.45253 0.00415
C 11.11331 22.02984 -0.0014
C 9.83639 21.38081 0.02162
C 9.84694 2.80446 0.0076
C 11.02404 2.08622 0.01241
C 11.0665 0.66195 -0.01454
C 9.89035 0.00611 0.01945
C 12.29777 32.63715 0.01416
C 13.53015 31.9866 0.03542
C 13.5423 30.60911 0.02299
C 11.03476 31.95774 -0.02971
C 9.8841 32.65755 0.00165
C 7.45825 34.07607 0.02819
C 8.6543 0.76166 -0.00891
C 6.1057 2.02281 -0.00033
C 6.13129 0.66463 0.03589
C 4.8614 0.00659 -0.02759
C 7.3239 32.59784 0.0402
C 8.60609 31.95728 0.00572
C 8.56409 30.56805 0.03592
C 7.33901 29.8525 0.00406
C 7.40654 28.34929 0.00943
C 23.33661 9.26369 -0.01662
C 8.59595 27.71899 0.02841
C 7.40563 25.60073 -0.01275
C 7.37044 24.15504 0.00985
C 8.61062 23.44251 -0.02245
C 8.64611 22.05064 -0.00428
C 7.39415 21.29633 0.03101
C 7.2515 19.90182 -0.01536
C 7.39781 2.7958 -0.02689
C 8.629 2.23417 -0.01046
C 8.61511 26.315 -0.01111
C 3.72302 31.98761 0.0127
C 22.10341 8.59195 -0.01185
C 23.34174 6.40288 0.01852
C 31.98538 28.40503 0.0544
C 33.15199 27.70218 0.00026
C 33.20135 26.31961 0.00682
C 31.98772 25.5427 -0.01779
C 32.00269 24.12382 0.03794
C 33.19036 23.46998 0.01927
C 33.18491 22.05302 0.01574
C 32.00056 21.31424 -0.02383
C 31.903 19.88291 -0.01429
C 33.14373 19.20759 -0.0136
C 33.19198 17.73122 0.00594
C 31.99539 17.02213 -0.02474
C 31.94708 15.66897 0.00369
C 33.18464 14.92471 0.00455
C 33.26719 13.54056 -0.00644
C 31.98773 12.72942 -0.01839
C 31.96274 11.36743 0.00137
C 31.92888 29.80799 -0.02142
C 33.20003 10.6492 0.00199
C 33.17443 30.57327 0.01428
C 31.87745 32.65891 0.01713
C 29.46286 17.02675 0.0101
C 29.48953 15.55012 0.01705
C 30.76426 14.96519 -0.0405
C 30.69762 13.49928 -0.01303
C 29.52034 12.82397 -0.01461
C 29.51877 11.33079 -0.02155
C 30.73718 10.65095 -0.00944
C 30.74347 9.25041 -0.03735
C 29.55125 8.53563 -0.00971
C 29.54096 7.15575 0.01518
C 30.72757 6.38372 0.01908
C 30.72978 4.97921 0.07705
C 29.48819 4.27153 0.0103
C 29.46049 2.89199 0.02108
C 30.78891 2.12847 0.00716
C 30.75923 0.65588 0.00307
C 29.55874 34.02643 0.00346
C 33.18446 31.98402 -0.01694
C 30.73319 17.75712 -0.00669
C 33.22421 9.23143 0.04381
C 31.95822 7.09615 0.01504
C 1.21574 17.73793 0.01223
C 34.40756 17.06335 0.00648
C 0.04433 15.65648 0.02114
C 1.24076 14.8399 -0.02957
C 1.2754 13.45436 0.00343
C 0.02836 12.78964 -0.02656
C 34.41138 11.39989 -0.02442
C 1.24021 10.6185 -0.00027
C 1.18658 9.23927 -0.00583
C 0.03858 8.46827 -0.02302
C 34.38925 7.04991 -0.02849
C 1.17453 6.39344 0.02931
C 1.17916 4.9323 0.00628
C 34.37809 4.27335 -0.0345
C 34.4239 2.83007 -0.00931
C 1.2489 2.07383 -0.00939
C 1.27859 0.69816 -0.00468
C 1.24069 19.20512 -0.01678
C 32.0328 8.5123 0.02806
C 34.42366 19.80062 0.01951
C 1.21875 22.02244 0.02712
C 33.22481 6.35943 -0.00069
C 33.16728 4.95967 0.04926
C 31.97822 4.2565 -0.03838
C 31.97093 2.85364 0.00349
C 33.18539 2.14162 -0.00323
C 33.22597 0.77188 -0.00841
C 31.96021 34.07289 0.0001
C 0.0331 32.7278 -0.02927
C 1.19229 31.98291 -0.01404
C 1.22969 30.5464 0.01027
C 34.42908 29.82298 0.01831
C 0.05569 28.44231 -0.01037
C 1.28095 27.68322 -0.00439
C 1.21282 26.22224 -0.00598
C 34.41745 25.60866 -0.05239
C 34.43068 24.17957 0.03076
C 1.25041 23.50472 0.00723
C 34.3807 21.21601 -0.02213
C 30.69905 19.13338 0.03531
C 29.50756 19.87559 0.01836
C 29.60851 21.30401 -0.03039
C 24.51557 17.00894 0.03005
C 24.5192 15.63209 -0.04078
C 25.79387 14.88665 0.02117
C 25.80988 13.49868 0.02737
C 24.60743 12.74882 -0.00498
C 24.60412 11.42944 0.00135
C 25.82756 10.69494 0.03102
C 25.81802 9.21993 0.02555
C 24.58218 8.49629 0.01423
C 24.5386 7.06392 -0.00285
C 25.76621 6.3937 -0.009
C 25.82701 4.98524 -0.01199
C 24.63952 4.22105 -0.00229
C 24.59447 2.84298 -0.00938
C 25.80167 2.18647 -0.0264
C 25.83025 0.75593 -0.01154
C 24.5881 0.09092 0.00684
C 25.7811 17.77781 -0.0276
C 27.0218 32.62567 -0.01052
C 25.82477 19.20958 0.00768
C 24.61127 21.29631 0.00733
C 23.37317 4.96138 -0.00381
C 22.1193 4.22518 0.03046
C 22.12231 2.82858 0.0296
C 23.35132 2.1479 0.03374
C 23.33779 0.78478 -0.02845
C 22.13786 34.01811 -0.03213
C 24.6081 32.66416 0.02239
C 25.76207 31.93425 0.01153
C 25.80887 30.53968 0.02734
C 24.63347 29.81094 -0.0055
C 24.50867 28.35078 0.01515
C 25.77727 27.69502 -0.00225
C 25.82381 26.29026 0.00071
C 24.56627 25.51282 -0.01107
C 24.552 24.14545 -0.01586
C 25.85982 23.39153 -0.01971
C 25.82977 22.00229 -0.02118
C 24.61466 19.89732 -0.00178
C 28.25613 31.9165 -0.01679
C 28.31178 30.46673 0.00367
C 27.03941 29.79206 0.04306
C 28.24404 4.95924 0.00235
C 27.06431 4.25536 0.01495
C 27.09812 2.81794 0.01259
C 28.27348 2.16269 0.01799
C 28.20394 0.694 0.01699
C 26.97951 34.04432 -0.00416
C 29.51142 32.58079 0.01177
C 30.69245 31.94218 0.04266
C 30.78532 30.50318 0.01324
C 29.54397 29.80353 0.0014
C 29.43505 28.40437 0.00924
C 30.68207 27.61917 0.02326
C 30.74494 26.23387 0.00261
C 29.50617 25.50407 0.03265
C 29.55794 24.0624 -0.02049
C 30.80269 23.38587 -0.01854
C 30.81257 22.00987 -0.01415
C 28.28455 6.39242 0.01094
C 27.07565 7.03016 0.02198
C 27.01608 8.48493 0.02611
C 28.25751 9.26483 -0.00621
C 27.10169 28.34344 0.00996
C 28.35339 27.64113 0.00195
C 28.26817 26.22175 -0.00802
C 27.04215 25.56802 -0.00218
C 27.0696 24.15666 -0.01654
C 28.28534 23.39756 -0.00037
C 28.34582 22.01356 -0.0032
C 27.0284 21.27929 0.00622
C 22.14052 7.12163 0.01126
C 27.09416 19.8639 -0.02815
C 28.33256 17.76602 0.00487
C 27.07321 17.09396 0.00826
C 27.04554 15.66453 -0.00294
C 28.31215 14.8323 0.00152
C 28.26354 13.48362 0.01257
C 27.07687 12.79872 0.02316
C 27.02957 11.41936 0.04185
C 28.26087 10.65889 0.00194
C 28.29745 19.18549 -0.00942
C 2.43574 32.69308 0.02635
