402
Graphene
C 0.00355 34.04153 0.01295
C 12.19875 32.76553 0.02819
C 13.53466 31.98975 0.00165
C 13.49799 30.58662 -0.02971
C 12.28163 29.91033 0.02894
C 12.39151 28.40047 -0.01789
C 13.71969 27.57836 0.00444
C 13.35304 26.25434 -0.00925
C 12.21263 25.4696 0.01877
C 12.26788 24.10462 0.01363
C 13.50152 23.46405 -0.02162
C 13.76316 22.05224 0.00415
C 12.34845 21.3169 -0.0014
C 12.37203 19.9067 0.02162
C 13.51035 19.1526 0.0076
C 13.47773 17.67214 0.01241
C 12.217 17.03902 -0.01454
C 12.31415 15.58274 0.01945
C 13.61302 14.75354 0.01416
C 13.55977 13.38501 0.03542
C 12.33139 12.77717 0.02299
C 12.24008 11.34291 0.00244
C 9.75255 0.08407 -0.00891
C 13.48576 10.65065 -0.01717
C 10.98916 0.80028 -0.01046
C 9.80585 3.02488 -0.01536
C 9.78324 25.61406 -0.00334
C 9.84697 24.15725 0.02339
C 11.01005 23.35468 0.01641
C 11.0951 21.96488 -0.00719
C 9.82325 21.3399 0.01364
C 9.85078 19.90552 -0.01062
C 11.11742 19.19499 -0.00033
C 11.06182 17.82799 0.03589
C 9.80009 17.04503 -0.02759
C 9.80437 15.6545 0.0402
C 11.06246 14.88816 0.00572
C 11.09291 13.45995 0.03592
C 9.8781 12.7221 0.00406
C 9.875 11.35698 0.00943
C 11.06074 10.56017 0.02841
C 11.0284 9.20557 -0.01111
C 9.82563 8.47694 -0.01275
C 9.87638 7.07042 0.00985
C 11.09998 6.38654 -0.02245
C 11.08173 4.97827 -0.00428
C 9.8057 4.40315 0.03101
C 11.0514 2.2021 -0.02689
C 11.03372 26.317 -0.01634
C 13.50851 9.30354 0.05265
C 12.37454 7.12266 -0.02813
C 14.7643 7.08187 -0.04147
C 15.97501 6.42393 -0.05302
C 15.99151 4.99692 0.00213
C 14.77286 4.23637 -0.00066
C 14.84083 2.86384 -0.00289
C 16.05252 2.11141 0.00028
C 16.01585 0.76032 -0.02213
C 14.7474 0.04119 0.03698
C 17.24773 32.65706 -0.00109
C 18.46216 31.91573 -0.00491
C 18.40959 30.30203 0.03338
C 17.04649 29.80857 -0.0258
C 17.18833 19.68736 -0.0331
C 18.49284 19.22259 -0.00316
C 18.25763 17.77352 0.02188
C 17.24948 17.06433 -0.01979
C 18.38471 9.15523 0.02691
C 17.17926 8.63657 -0.01581
C 17.19138 7.1744 0.01452
C 18.45117 6.45392 0.04892
C 18.4302 5.00391 -0.00111
C 14.739 8.5809 -0.02815
C 12.286 8.4836 -0.01952
C 15.94225 9.33935 0.03505
C 14.78867 11.35152 0.00979
C 13.57979 6.36377 0.00374
C 13.49754 4.97491 0.00052
C 12.27151 4.25173 -0.03682
C 12.3153 2.85262 0.01965
C 13.54831 2.15025 0.02058
C 13.53 0.75013 -0.01957
C 12.20312 0.0921 -0.0108
C 14.77445 32.70312 -0.00368
C 15.96619 32.00723 -0.02696
C 15.92964 30.54749 -0.00114
C 14.68028 29.79943 0.00228
C 14.82508 28.4711 0.00798
C 14.75092 21.11269 0.00422
C 14.78204 19.82256 0.0351
C 16.00603 19.06776 -0.03113
C 15.93838 17.62383 0.02098
C 14.69773 16.99598 0.01848
C 14.74233 15.57742 -0.00619
C 16.06197 14.97859 -0.02162
C 15.84029 13.67766 0.00889
C 14.90761 12.78051 -0.00481
C 15.95771 10.68268 0.01443
C 11.13296 27.77274 0.00057
C 9.8203 28.40534 0.00093
C 9.73144 29.89733 0.01291
C 2.39284 4.32419 0.03267
C 2.41375 2.88161 0.02374
C 3.68156 2.21856 0.00402
C 3.64151 0.76016 0.0073
C 2.40545 0.01795 0.0174
C 4.82951 32.66767 0.03828
C 6.15346 32.00364 0.01226
C 6.11336 30.59158 -0.00279
C 4.87768 29.91351 0.01996
C 4.89165 28.46613 -0.03996
C 6.04012 27.68054 0.01465
C 6.08793 26.28559 -0.00074
C 4.81966 25.59042 -0.00518
C 4.90635 24.11466 0.0086
C 6.14325 23.44335 -0.00643
C 6.19088 21.93094 0.017
C 5.00841 21.26679 -0.03113
C 4.9207 19.8408 -0.02566
C 6.22258 19.15148 -0.00094
C 6.11794 17.75103 0.02322
C 4.81983 17.01004 -0.00725
C 3.62156 5.03477 -0.01509
C 4.91661 15.59776 -0.05697
C 3.68972 6.41959 0.00643
C 2.45056 8.60123 0.02379
C 3.6144 30.52475 0.02728
C 2.37671 29.73426 -0.00039
C 2.43995 28.40395 0.0064
C 3.63528 27.75871 0.00211
C 3.64507 26.38679 -0.00449
C 2.46604 25.60496 -0.01979
C 2.50461 24.1382 0.02784
C 3.72706 23.44558 -0.01977
C 3.74388 21.97645 -0.00561
C 2.4917 21.33751 0.00208
C 2.42141 19.89863 0.01707
C 3.65685 19.15884 0.02769
C 3.56616 17.79785 -0.03291
C 2.37432 17.01733 -0.04999
C 2.47236 15.62332 0.04505
C 3.72683 14.96261 0.03284
C 3.65744 13.5339 -0.04307
C 2.41182 12.82127 0.03189
C 2.40951 11.39477 0.00031
C 3.63868 10.70907 -0.003
C 3.68098 9.28455 0.01402
C 2.46604 7.14039 0.00907
C 6.14316 14.87521 0.01087
C 6.10101 13.42352 -0.01343
C 4.87316 12.79201 0.00988
C 8.57502 17.79322 -0.01362
C 7.26946 16.98234 -0.0008
C 7.30711 15.53058 0.0288
C 8.59913 14.85082 0.00393
C 8.64851 13.47687 0.00895
C 7.39948 12.7664 0.00685
C 7.36537 11.39023 0.02888
C 8.5512 10.65891 -0.00482
C 8.55599 9.26426 -0.01384
C 7.29005 8.59908 0.03693
C 7.39065 7.15422 0.01745
C 8.65206 6.44814 0.00488
C 8.62136 5.01679 -0.01004
C 7.329 4.31754 -0.02896
C 7.38342 2.85136 -0.00131
C 8.65267 2.25701 -0.01118
C 8.57752 0.81884 -0.014
C 7.39283 0.08615 0.02147
C 9.83862 32.6463 0.00373
C 11.02679 31.94169 -0.00191
C 11.02651 30.55734 0.00438
C 8.63828 19.15965 -0.00892
C 7.448 19.87119 -0.04848
C 7.44315 21.27048 0.01572
C 8.64637 22.03624 -0.00095
C 4.92239 11.37649 0.0276
C 6.10186 10.70153 0.01305
C 6.11871 9.26831 -0.00077
C 4.93316 8.48005 0.03368
C 4.89576 7.14707 -0.02929
C 6.15565 6.48126 -0.00966
C 6.16014 5.00254 -0.03337
C 4.88971 4.33371 0.01227
C 4.88944 2.8666 0.00873
C 6.14452 2.21596 -0.00049
C 17.22863 4.30866 -0.03557
C 6.10455 0.7606 0.00848
C 7.34238 32.79882 -0.01378
C 8.56309 31.98027 0.02635
C 8.53154 30.55582 0.0127
C 7.3238 29.7862 0.01396
C 7.32158 28.40822 0.01849
C 8.57236 27.70352 -0.01142
C 8.62885 26.3511 -0.00562
C 7.34605 25.57761 -0.00494
C 7.38792 24.18304 0.00054
C 8.64661 23.48793 0.03007
C 4.82137 34.02876 -0.01303
C 17.28757 2.91997 0.03754
C 18.54952 2.17794 0.01739
C 18.4764 0.77547 0.00755
C 29.44856 8.53161 -0.00971
C 29.37337 7.13504 0.01518
C 30.62933 6.36809 0.01908
C 30.68945 5.00394 0.07705
C 29.5892 4.22499 0.0103
C 29.48875 2.797 0.02108
C 30.79523 2.11949 0.00716
C 30.80476 0.73891 0.00307
C 29.59838 0.01806 0.00346
C 31.99802 32.67872 0.01713
C 33.19812 31.98599 -0.01694
C 33.20829 30.52456 0.01428
C 31.9839 29.70484 -0.02142
C 31.99312 28.35183 0.0544
C 33.22501 27.64995 0.00026
C 33.24011 26.23277 0.00682
C 32.02319 25.552 -0.01779
C 31.97503 24.19494 0.03794
C 33.23545 23.36722 0.01927
C 33.2025 21.97685 0.01574
C 31.96632 21.28101 -0.02383
C 30.71022 9.22415 -0.03735
C 31.91907 19.84435 -0.01429
C 30.68583 10.67943 -0.00944
C 29.51602 12.78954 -0.01461
C 28.31447 0.69253 0.01699
C 27.0529 34.0475 -0.00416
C 29.59759 32.63873 0.01177
C 30.7317 31.89661 0.04266
C 30.81054 30.48355 0.01324
C 29.57234 29.7511 0.0014
C 29.46817 28.37585 0.00924
C 30.75995 27.63729 0.02326
C 30.74326 26.24464 0.00261
C 29.48303 25.59 0.03265
C 29.4519 24.20623 -0.02049
C 30.70973 23.4516 -0.01854
C 30.77751 22.06811 -0.01415
C 29.42568 21.34372 -0.03039
C 29.48128 19.95115 0.01836
C 30.66742 19.18694 0.03531
C 30.72199 17.78774 -0.00669
C 29.49559 17.02317 0.0101
C 29.53546 15.64573 0.01705
C 30.72159 14.87942 -0.0405
C 30.74841 13.40814 -0.01303
C 29.46596 11.40699 -0.02155
C 33.09433 19.07084 -0.0136
C 33.14301 17.71994 0.00594
C 31.90394 16.99001 -0.02474
C 1.31461 22.09034 0.02712
C 0.05291 21.28387 -0.02213
C 0.00536 19.87435 0.01951
C 1.20417 19.10874 -0.01678
C 1.15579 17.72535 0.01223
C 34.37313 16.99641 0.00648
C 34.40914 15.64845 0.02114
C 1.25726 14.93704 -0.02957
C 1.20328 13.56161 0.00343
C 34.40157 12.86601 -0.02656
C 34.35091 11.38014 -0.02442
C 1.16602 10.65484 -0.00027
C 1.23364 9.20906 -0.00583
C 34.40163 8.46644 -0.02302
C 34.38185 7.10035 -0.02849
C 1.25606 6.48041 0.02931
C 1.22086 5.04447 0.00628
C 34.40225 4.33062 -0.0345
C 34.40351 2.89222 -0.00931
C 1.16794 2.17513 -0.00939
C 1.20113 0.77882 -0.00468
C 1.26204 23.4714 0.00723
C 34.40146 24.12898 0.03076
C 34.4034 25.50174 -0.05239
C 1.19636 26.23291 -0.00598
C 31.88982 15.58229 0.00369
C 33.14339 14.92476 0.00455
C 33.15442 13.46543 -0.00644
C 31.96984 12.78318 -0.01839
C 31.90563 11.37685 0.00137
C 33.18574 10.64578 0.00199
C 33.19388 9.20107 0.04381
C 31.88615 8.5232 0.02806
C 31.93306 7.10604 0.01504
C 33.16238 6.34901 -0.00069
C 28.27144 2.07218 0.01799
C 33.16764 5.00073 0.04926
C 32.00968 2.84232 0.00349
C 33.19977 2.19272 -0.00323
C 33.2332 0.73908 -0.00841
C 31.97757 0.0053 0.0001
C 0.00707 32.63763 -0.02927
C 1.13965 31.88688 -0.01404
C 1.21317 30.43594 0.01027
C 34.42282 29.79655 0.01831
C 0.00423 28.34363 -0.01037
C 1.145 27.62785 -0.00439
C 31.95778 4.25136 -0.03838
C 3.61431 31.91419 0.00245
C 27.12533 2.84061 0.01259
C 28.35319 4.96191 0.00235
C 23.15608 22.14126 0.01087
C 22.2048 21.18492 0.00199
C 22.04159 19.87724 0.01511
C 23.32124 19.04805 -0.00478
C 23.07791 17.72397 -0.01662
C 23.3526 9.08951 -0.01185
C 22.27904 8.45903 0.01126
C 22.22175 7.09726 0.01852
C 23.4329 6.34339 -0.00381
C 23.39348 4.88879 0.03046
C 22.13958 4.23999 0.0296
C 22.15604 2.8702 0.03374
C 23.41598 2.13752 -0.02845
C 23.43379 0.66484 -0.03213
C 22.17984 34.03605 0.02239
C 24.61915 32.70211 0.01153
C 25.90287 31.90675 0.02734
C 25.93095 30.47594 -0.0055
C 24.68897 29.72507 0.01515
C 24.61116 28.33858 -0.00225
C 25.84624 27.6716 0.00071
C 23.23593 23.46111 -0.01527
C 25.87857 26.2698 -0.01107
C 23.4845 26.29059 0.00096
C 22.30698 28.54189 -0.02422
C 17.21131 34.05632 -0.0054
C 19.7166 32.55921 0.00667
C 20.94114 32.01302 0.00143
C 20.92806 30.52129 -0.017
C 19.65765 29.85845 0.00364
C 19.64428 20.00224 -0.00831
C 20.81862 19.19072 -0.02957
C 20.94954 17.80232 -0.04422
C 19.47043 8.49999 0.00654
C 19.72459 7.23848 -0.00703
C 20.92607 6.45514 -0.04076
C 20.9037 4.97978 -0.00652
C 19.72108 4.32226 0.0058
C 19.79516 2.81845 -0.00865
C 20.96048 2.04414 0.00675
C 20.91763 0.62476 -0.00311
C 19.70777 34.07054 0.00742
C 22.17997 32.58356 -0.01594
C 23.48242 32.00084 0.0106
C 23.44114 30.52826 -0.01154
C 22.2554 29.85503 -0.01721
C 23.24888 27.59251 0.01277
C 24.6109 25.56426 -0.01586
C 24.45905 24.11929 -0.01971
C 25.64569 23.36092 -0.02118
C 28.29398 27.66475 0.00195
C 28.24011 26.21994 -0.00802
C 26.97702 25.48532 -0.00218
C 26.92574 24.07998 -0.01654
C 28.15418 23.44155 -0.00037
C 28.20855 22.00257 -0.0032
C 26.99645 21.29577 0.00622
C 26.96773 19.8398 -0.02815
C 28.21296 19.20316 -0.00942
C 28.26646 17.76434 0.00487
C 27.01964 16.96504 0.00826
C 27.07464 15.57629 -0.00294
C 28.34033 14.89575 0.00152
C 28.33655 13.52499 0.01257
C 27.11509 12.82873 0.02316
C 27.06887 11.35363 0.04185
C 28.27316 10.63965 0.00194
C 28.25416 9.24313 -0.00621
C 27.01444 8.50711 0.02611
C 27.02983 7.05048 0.02198
C 28.24099 6.34715 0.01094
C 27.10601 28.45912 0.00996
C 27.12074 29.80922 0.04306
C 28.36034 30.55008 0.00367
C 28.32571 31.97352 -0.01679
C 25.73918 22.01967 0.00733
C 24.46968 21.29564 -0.00178
C 24.48206 19.85277 0.00768
C 25.72835 19.11716 -0.0276
C 25.72198 17.67622 0.03005
C 24.37421 16.95034 -0.04078
C 24.6045 15.57016 0.02117
C 25.692 14.74719 0.02737
C 25.80046 13.34924 -0.00498
C 24.6924 11.56833 0.00135
C 27.05819 4.22507 0.01495
C 25.76827 10.72273 0.03102
C 24.58467 8.52857 0.01423
C 24.61972 7.07282 -0.00285
C 25.82874 6.37549 -0.009
C 25.85296 5.02243 -0.01199
C 24.68495 4.22949 -0.00229
C 24.54923 2.78267 -0.00938
C 25.86345 2.0864 -0.0264
C 25.86999 0.71475 -0.01154
C 24.65653 0.00304 0.00684
C 27.05463 32.64969 -0.01052
C 25.77515 9.26089 0.02555
C 2.38136 32.68591 0.00081
