290
Graphene
C 0.02302 0.04284 0.01295
C 9.88337 19.79858 0.00143
C 11.09776 19.30075 -0.017
C 11.079 5.04068 0.00364
C 9.88782 4.27504 -0.00831
C 9.89183 2.87764 -0.02957
C 11.0919 2.16422 -0.04422
C 9.79342 21.26948 0.00667
C 11.02196 0.6982 0.00654
C 12.28829 32.53148 -0.04076
C 13.5357 31.91136 -0.00652
C 13.58925 30.55483 0.0058
C 12.34664 29.78394 -0.00865
C 12.3444 28.38454 0.00675
C 13.61429 27.62788 -0.00311
C 9.78631 0.09206 -0.00703
C 13.52745 26.2351 0.00742
C 11.04661 21.90022 -0.0054
C 9.7638 24.11139 0.01739
C 8.65875 4.83278 -0.00491
C 7.33351 4.23052 0.03338
C 7.35722 2.86511 -0.0258
C 8.61692 2.11347 -0.0331
C 8.5425 0.75111 -0.00316
C 7.27177 0.07272 0.02188
C 11.11699 23.43278 0.00755
C 9.85491 32.68808 -0.01979
C 11.0911 30.54971 -0.01581
C 9.86 29.83335 0.01452
C 9.82979 28.41327 0.04892
C 11.10154 27.67598 -0.00111
C 11.11551 26.2901 -0.03557
C 9.877 25.63877 0.03754
C 11.05493 31.9568 0.02691
C 7.34508 17.10756 -0.00109
C 12.38062 25.43626 -0.01594
C 12.25098 19.84971 -0.01154
C 17.24044 32.6639 -0.03213
C 18.53226 31.93067 0.02239
C 18.39006 30.44441 0.01153
C 17.24578 29.87037 0.02734
C 18.53001 10.57362 -0.0055
C 18.3599 9.23339 0.01515
C 14.76968 34.0552 -0.02845
C 17.25701 7.09374 -0.00225
C 18.45093 5.0112 -0.01107
C 17.24212 4.29835 -0.01586
C 17.16557 2.93466 -0.01971
C 18.40181 2.15835 -0.02118
C 18.39366 0.6529 0.00733
C 17.20294 34.02833 -0.00178
C 18.45544 6.48083 0.00071
C 12.2876 24.07817 0.0106
C 15.94844 0.70917 0.03374
C 14.72407 2.85368 0.03046
C 13.54577 4.92799 -0.01721
C 12.33911 4.37072 -0.02422
C 12.30455 2.79319 0.01277
C 13.53466 2.12198 0.00096
C 13.53401 0.67892 -0.01527
C 12.33602 34.00841 0.01087
C 15.92732 2.13897 0.0296
C 14.74222 32.63897 0.00199
C 15.99526 30.47324 -0.00478
C 14.78239 29.77582 -0.01662
C 14.72136 28.4547 -0.01185
C 16.01282 6.38337 0.01126
C 15.93379 4.97566 0.01852
C 14.6734 4.29861 -0.00381
C 15.98005 31.97121 0.01511
C 8.58471 19.1903 0.03698
C 7.44358 19.83871 -0.02213
C 7.40366 21.29832 0.00028
C 2.46349 11.39936 -0.01789
C 3.69649 10.68496 0.00444
C 3.74676 9.24587 -0.00925
C 2.45733 8.51939 0.01877
C 2.45886 7.04326 0.01363
C 3.65028 6.35134 -0.02162
C 2.44887 12.78767 0.02894
C 3.73418 4.98627 0.00415
C 2.43757 2.84797 0.02162
C 3.64945 2.13185 0.0076
C 3.63948 0.72461 0.01241
C 2.45765 34.06388 -0.01454
C 4.85105 32.68397 0.01945
C 6.12173 31.98855 0.01416
C 2.49764 4.2469 -0.0014
C 6.1352 30.53433 0.03542
C 3.70015 13.43307 -0.02971
C 2.41642 15.60798 0.02819
C 3.69449 30.49607 0.03592
C 2.39461 29.801 0.00406
C 2.48699 28.37964 0.00943
C 3.7509 27.72143 0.02841
C 3.65176 26.34012 -0.01111
C 2.48062 25.52727 -0.01275
C 3.68289 14.92151 0.00165
C 2.43618 24.1686 0.00985
C 3.69715 22.0761 -0.00428
C 2.46361 21.24799 0.03101
C 2.44199 19.89811 -0.01536
C 3.64957 19.20097 -0.02689
C 3.65803 17.76382 -0.01046
C 2.46652 17.04349 -0.00891
C 3.66746 23.50201 -0.02245
C 4.94698 29.76606 0.02299
C 4.94916 28.42589 0.00244
C 6.17581 27.69458 -0.01717
C 6.16372 2.14917 0.01848
C 6.07424 0.78299 -0.00619
C 4.91643 0.04641 -0.02162
C 7.35254 32.65814 0.00889
C 8.57456 31.95295 -0.00481
C 8.57253 30.58069 0.00979
C 4.95028 2.76655 0.02098
C 7.42251 29.84087 0.01443
C 8.59282 27.67096 -0.02815
C 8.69998 26.25655 -0.04147
C 7.40763 25.54933 -0.05302
C 7.29413 24.12451 0.00213
C 8.56243 23.52721 -0.00066
C 8.60799 22.03155 -0.00289
C 7.4162 28.3797 0.03505
C 4.89345 4.2653 -0.03113
C 6.18425 4.96447 0.0351
C 6.07973 6.3201 0.00422
C 6.197 26.24435 0.05265
C 4.81152 25.51732 -0.01952
C 4.88628 24.20855 -0.02813
C 6.08631 23.46984 0.00374
C 6.15187 22.02758 0.00052
C 4.94635 21.34439 -0.03682
C 4.93187 19.7972 0.01965
C 6.19482 19.18485 0.02058
C 6.1944 17.7859 -0.01957
C 4.92006 17.06772 -0.0108
C 4.89526 15.64297 -0.00368
C 4.84299 12.60739 -0.02696
C 4.88328 11.3977 -0.00114
C 4.94974 8.54074 0.00228
C 4.9381 7.08062 0.00798
C 19.67561 32.73151 0.00768
C 20.91591 32.01991 -0.0276
C 20.84282 30.58252 0.03005
C 19.6341 11.27088 -0.04078
C 32.03675 19.87532 -0.01429
C 33.24507 19.21315 -0.0136
C 33.15818 17.63927 0.00594
C 31.9606 17.00356 -0.02474
C 31.93284 15.62697 0.00369
C 33.14624 14.83155 0.00455
C 31.98099 21.29121 -0.02383
C 33.19589 13.49004 -0.00644
C 31.95816 11.38403 0.00137
C 33.21945 10.59408 0.00199
C 33.16945 9.25424 0.04381
C 31.94754 8.55204 0.02806
C 31.99487 7.13018 0.01504
C 33.18205 6.38333 -0.00069
C 31.97713 12.77775 -0.01839
C 33.23441 5.00194 0.04926
C 33.19323 22.02188 0.01574
C 31.89476 24.16082 0.03794
C 30.78748 10.63301 0.07705
C 30.75497 9.28045 0.0103
C 29.50389 8.55591 0.02108
C 29.53851 7.1472 0.00716
C 30.7037 6.47088 0.00307
C 30.69519 5.00873 0.00346
C 33.216 23.45259 0.01927
C 29.43023 4.24598 0.01713
C 30.75967 2.17216 0.01428
C 30.76893 0.69756 -0.02142
C 29.54777 34.05475 0.0544
C 31.92822 32.70085 0.00026
C 33.1546 31.99017 0.00682
C 33.2231 30.5652 -0.01779
C 29.45814 2.83126 -0.01694
C 31.92864 4.31714 -0.03838
C 31.97593 2.821 0.00349
C 33.22871 2.11073 -0.00323
C 1.17319 14.96636 -0.02957
C 1.19815 13.52167 0.00343
C 0.05524 12.8338 -0.02656
C 0.00597 11.30752 -0.02442
C 1.21613 10.68067 -0.00027
C 1.16863 9.22913 -0.00583
C 34.42564 15.60585 0.02114
C 34.39218 8.56112 -0.02302
C 1.12946 6.36837 0.02931
C 1.16937 4.94922 0.00628
C 34.3966 4.19535 -0.0345
C 0.00918 2.85977 -0.00931
C 1.18996 2.13884 -0.00939
C 1.25554 0.75535 -0.00468
C 34.41219 7.07598 -0.02849
C 34.41588 17.02292 0.00648
C 1.22739 17.77032 0.01223
C 1.26189 19.16776 -0.01678
C 33.22989 0.75479 -0.00841
C 31.96202 34.07547 0.0001
C 34.41386 32.67514 -0.02927
C 1.20252 31.96361 -0.01404
C 1.16831 30.60267 0.01027
C 0.00774 29.7967 0.01831
C 0.05346 28.34815 -0.01037
C 1.28321 27.65891 -0.00439
C 1.21152 26.28049 -0.00598
C 3e-05 25.60428 -0.05239
C 0.00979 24.18657 0.03076
C 1.21232 23.43732 0.00723
C 1.216 22.00053 0.02712
C 34.41204 21.33191 -0.02213
C 0.06095 19.93783 0.01951
C 29.52822 11.28128 0.01908
C 3.70657 31.91443 0.00572
C 29.52605 12.78675 0.01518
C 30.73999 14.95449 -0.03735
C 22.12592 7.06729 0.04306
C 23.32421 6.40129 0.00996
C 23.40834 4.92075 0.00195
C 22.09553 4.22702 -0.00802
C 22.10116 2.8727 -0.00218
C 23.3314 2.10746 -0.01654
C 22.10662 8.56363 0.00367
C 23.3677 0.72259 -0.00037
C 24.61577 32.58865 0.00622
C 25.86895 31.91175 -0.02815
C 25.76403 30.54135 -0.00942
C 24.66844 29.85327 0.00487
C 25.74719 13.33054 0.00826
C 24.66534 12.81511 -0.00294
C 22.19052 34.05091 -0.0032
C 24.53482 11.35224 0.00152
C 23.37655 9.1895 -0.01679
C 22.13488 11.3578 0.00684
C 20.89357 10.72781 0.02117
C 20.92726 9.32438 0.02737
C 19.66486 8.56359 -0.00498
C 19.73216 7.18111 0.00135
C 20.86236 6.4187 0.03102
C 20.9082 4.97762 0.02555
C 23.33797 10.6233 -0.01052
C 19.7117 4.29818 0.01423
C 20.9412 2.10933 -0.009
C 20.88624 0.65843 -0.01199
C 19.65028 0.04369 -0.00229
C 22.15702 32.70154 -0.00938
C 23.3953 32.00029 -0.0264
C 23.37831 30.43078 -0.01154
C 19.63759 2.80631 -0.00285
C 25.80582 10.64175 0.01257
C 25.88866 9.22193 0.02316
C 24.54994 8.47141 0.04185
C 28.21548 4.97091 -0.02049
C 27.02407 4.21673 -0.01854
C 27.02542 2.84047 -0.01415
C 28.27227 2.07717 -0.03039
C 28.29435 0.75669 0.01836
C 27.05795 0.0511 0.03531
C 28.27834 6.37509 0.03265
C 29.5116 32.58978 -0.00669
C 30.74563 23.35607 0.01705
C 30.72102 22.09171 -0.0405
C 30.77369 19.20668 -0.01303
C 30.75602 17.7258 -0.01461
C 29.56119 17.01836 -0.02155
C 29.43532 15.6812 -0.00944
C 30.76471 32.00084 0.0101
C 27.04472 7.15227 0.00261
C 27.0301 8.52874 0.02326
C 28.25635 9.22276 0.00924
C 24.58703 7.12534 0.00194
C 25.83489 6.40063 -0.00621
C 25.84325 4.98348 0.02611
C 24.58486 4.22334 0.02198
C 24.56957 2.82 0.01094
C 25.80877 2.15432 0.00235
C 25.80395 0.78852 0.01495
C 24.60046 34.02246 0.01259
C 27.06608 32.62171 0.01799
C 28.20338 31.9378 0.01699
C 28.28941 14.90544 -0.00416
C 28.31602 13.50127 0.01177
C 26.98302 12.7214 0.04266
C 27.01883 11.34222 0.01324
C 28.30339 10.64738 0.0014
C 30.72939 13.45484 -0.00971
C 2.42542 32.67352 0.0402
