409
Graphene
C 0.01453 0.02786 0.01295
C 13.56956 17.70999 -0.01536
C 12.25251 17.10639 -0.02689
C 12.31061 15.66583 -0.01046
C 13.5732 14.88864 -0.00891
C 13.60036 13.51785 0.02819
C 12.32938 12.81363 0.00165
C 12.2509 11.34586 -0.02971
C 13.47327 10.62719 0.02894
C 13.48588 9.13737 -0.01789
C 12.28571 8.49385 0.00444
C 12.35768 7.1278 -0.00925
C 13.56631 6.35211 0.01877
C 13.5747 4.94767 0.01363
C 12.34573 4.24061 -0.02162
C 12.25545 2.9138 0.00415
C 13.5378 2.10842 -0.0014
C 13.52249 0.64888 0.02162
C 12.24537 34.03897 0.0076
C 14.80414 32.59091 0.01241
C 15.94131 31.91971 -0.01454
C 15.95312 30.56163 0.01945
C 13.51908 19.12309 0.03101
C 12.25505 19.94319 -0.00428
C 12.22392 21.36851 -0.02245
C 13.54926 22.0638 0.00985
C 9.87337 11.37858 0.00438
C 11.08477 10.67141 0.01291
C 11.093 9.24133 0.00093
C 9.82966 8.54125 0.00057
C 9.8545 7.10056 -0.01634
C 11.11179 6.4313 -0.00334
C 11.09519 5.06346 0.02339
C 9.83386 4.29273 0.01641
C 9.83157 2.91648 -0.00719
C 11.0802 2.09997 0.01364
C 14.76102 29.82484 0.01416
C 11.1017 0.75293 -0.01062
C 12.36427 32.64716 0.03589
C 13.50614 31.89222 -0.02759
C 13.51475 30.55649 0.0402
C 12.30795 29.78595 0.00572
C 12.2193 28.39852 0.03592
C 13.53362 27.68375 0.00406
C 13.60163 26.26885 0.00943
C 12.29474 25.59223 0.02841
C 12.30365 24.16622 -0.01111
C 13.49485 23.54059 -0.01275
C 9.81593 0.04303 -0.00033
C 9.82632 12.73866 -0.00191
C 14.76055 28.36951 0.03542
C 16.00659 26.31273 0.00244
C 18.44954 31.93404 0.01443
C 18.40197 30.53872 0.03505
C 17.1881 29.84857 -0.02815
C 17.25213 28.39779 -0.04147
C 18.50653 27.7708 -0.05302
C 18.43938 26.23756 0.00213
C 17.22775 25.55191 -0.00066
C 17.23012 24.1234 -0.00289
C 18.50606 23.38651 0.00028
C 18.42141 22.00757 -0.02213
C 17.20067 21.27833 0.03698
C 17.23821 19.81091 -0.00109
C 18.46401 19.12608 -0.00491
C 18.41163 17.77304 0.03338
C 17.17088 17.03443 -0.0258
C 17.15923 15.62691 -0.0331
C 18.36185 14.97598 -0.00316
C 18.42935 13.50193 0.02188
C 17.19458 12.79436 -0.01979
C 17.26653 8.48654 0.02691
C 17.23777 7.11872 -0.01581
C 17.2159 32.67355 0.00979
C 14.75697 0.03334 -0.00481
C 16.01674 0.74431 0.00889
C 15.98619 2.1523 -0.02162
C 14.77885 25.51658 -0.01717
C 14.74206 24.1105 0.05265
C 15.97407 23.40743 -0.01952
C 16.02101 22.01946 -0.02813
C 14.72563 21.2935 0.00374
C 14.71081 19.88223 0.00052
C 15.94969 19.18886 -0.03682
C 15.9823 17.73867 0.01965
C 14.70735 17.02715 0.02058
C 14.7556 15.636 -0.01957
C 16.05747 27.67319 0.02299
C 15.95437 14.90539 -0.0108
C 14.75362 12.71104 -0.02696
C 14.73085 11.31957 -0.00114
C 15.9853 10.65193 0.00228
C 15.96922 9.22571 0.00798
C 14.75234 8.50907 0.00422
C 14.80801 7.10783 0.0351
C 15.95655 6.42121 -0.03113
C 16.00822 4.91963 0.02098
C 14.74146 4.2567 0.01848
C 14.74164 2.85142 -0.00619
C 16.01345 13.5179 -0.00368
C 11.08496 13.44252 0.00373
C 11.04634 14.9384 0.02147
C 9.80426 15.64846 -0.014
C 4.87737 32.63836 -0.003
C 6.13346 31.97979 0.01402
C 4.87576 25.64645 0.02379
C 4.94931 24.12573 0.00907
C 6.15549 23.46287 0.00643
C 6.15801 22.03964 -0.01509
C 4.92955 21.31041 0.03267
C 4.88169 19.95012 0.02374
C 6.17539 19.18727 0.00402
C 6.14796 17.72617 0.0073
C 4.87966 17.0372 0.0174
C 4.87122 15.64562 0.03828
C 6.18685 14.86185 0.01226
C 6.18262 13.51637 -0.00279
C 4.90992 12.76927 0.01996
C 4.99771 11.33667 -0.03996
C 6.17279 10.6439 0.01465
C 6.09685 9.21658 -0.00074
C 4.89624 8.61136 -0.00518
C 4.9487 7.11603 0.0086
C 6.17684 6.35966 -0.00643
C 2.44419 0.00975 0.00031
C 3.73301 0.67349 0.03189
C 3.65501 2.06819 -0.04307
C 2.5031 2.80485 0.03284
C 3.62807 26.24007 -0.02375
C 2.44942 25.63163 0.00558
C 2.42218 24.18912 -0.0059
C 3.6822 23.43618 -0.01386
C 3.71955 22.0376 -0.02805
C 2.4557 21.23073 0.00081
C 2.5096 19.88894 0.00245
C 3.72539 19.21938 0.02728
C 3.66478 17.79294 -0.00039
C 2.42725 17.02931 0.0064
C 6.10696 4.91493 0.017
C 2.4428 15.58383 0.00211
C 3.73245 13.47045 -0.01979
C 2.45802 12.75416 0.02784
C 2.43924 11.39031 -0.01977
C 3.69576 10.70765 -0.00561
C 3.66391 9.25004 0.00208
C 2.51835 8.5229 0.01707
C 2.53574 7.11005 0.02769
C 3.74781 6.42068 -0.03291
C 3.66294 4.85548 -0.04999
C 2.45326 4.22495 0.04505
C 3.65271 14.90644 -0.00449
C 4.875 4.19202 -0.03113
C 4.91863 2.81973 -0.02566
C 6.12509 2.14531 -0.00094
C 8.59574 4.98194 0.00054
C 7.40395 4.19615 0.03007
C 7.35401 2.85552 -0.00095
C 8.58788 2.16332 0.01572
C 8.61587 0.73781 -0.04848
C 7.36101 34.07092 -0.00892
C 9.83312 32.67525 -0.01362
C 11.09256 32.00176 -0.0008
C 11.07249 30.55075 0.0288
C 9.80314 29.88302 0.00393
C 8.64958 6.36232 -0.00494
C 9.83706 28.46069 0.00895
C 11.05995 26.30039 0.02888
C 9.86651 25.60703 -0.00482
C 9.78698 24.21346 -0.01384
C 11.0434 23.46148 0.03693
C 11.06107 22.02374 0.01745
C 9.76415 21.30462 0.00488
C 9.82129 19.93006 -0.01004
C 11.06514 19.18999 -0.02896
C 11.08021 17.75758 -0.00131
C 9.82538 17.07658 -0.01118
C 11.026 27.74688 0.00685
C 18.45441 6.38363 0.01452
C 7.32491 7.08331 -0.00562
C 8.56961 9.27814 0.01849
C 6.13859 0.66902 0.02322
C 4.94624 34.05261 -0.00725
C 7.31063 32.70993 -0.05697
C 8.56121 31.97648 0.01087
C 8.6671 30.60543 -0.01343
C 8.63503 27.66349 0.00988
C 8.55763 26.32117 0.0276
C 7.30742 25.55484 0.01305
C 7.3798 24.17493 -0.00077
C 8.5822 23.47648 0.03368
C 7.30714 8.52093 -0.01142
C 8.5631 22.01892 -0.02929
C 7.35459 19.83479 -0.03337
C 8.61198 19.22489 0.01227
C 8.58471 17.76781 0.00873
C 7.39656 17.07466 -0.00049
C 7.38521 15.58565 0.00848
C 8.60713 14.9201 -0.01303
C 8.61047 13.53444 -0.01378
C 7.42424 12.79496 0.02635
C 7.41118 11.41561 0.0127
C 8.60009 10.64686 0.01396
C 7.36388 21.31089 -0.00966
C 3.65785 31.97273 0.00828
C 18.40164 5.01737 0.04892
C 17.25652 2.83418 -0.03557
C 29.5215 12.72467 -0.00971
C 29.56782 11.33374 0.01518
C 30.74133 10.67328 0.01908
C 30.73798 9.26173 0.07705
C 29.52094 8.52212 0.0103
C 29.50228 7.09751 0.02108
C 30.73519 6.36541 0.00716
C 30.7326 4.98239 0.00307
C 29.55849 4.28381 0.00346
C 29.51859 2.76806 0.01713
C 30.78168 2.09357 -0.01694
C 30.77261 0.72086 0.01428
C 29.5204 0.02964 -0.02142
C 31.98896 32.61558 0.0544
C 33.16805 31.96293 0.00026
C 33.22712 30.48855 0.00682
C 31.92711 29.77858 -0.01779
C 31.94584 28.4216 0.03794
C 33.18397 27.65868 0.01927
C 33.1819 26.29513 0.01574
C 31.9755 25.56707 -0.02383
C 30.74217 13.45541 -0.03735
C 30.8256 14.89907 -0.00944
C 29.52992 25.61417 -0.02155
C 30.79577 26.25994 -0.01461
C 27.09138 15.4985 0.01799
C 28.25135 14.91709 0.01699
C 28.32381 13.46067 -0.00416
C 27.00651 12.76137 0.01177
C 27.07586 11.3308 0.04266
C 28.29226 10.65552 0.01324
C 28.2678 9.23486 0.0014
C 27.079 8.5686 0.00924
C 27.04572 7.08571 0.02326
C 28.31426 6.42853 0.00261
C 31.93559 24.19317 -0.01429
C 28.29119 4.95715 0.03265
C 27.04776 2.82129 -0.01854
C 28.31905 2.17971 -0.01415
C 28.33788 0.71855 -0.03039
C 27.04436 34.02898 0.01836
C 29.50999 32.68233 0.03531
C 30.75586 31.95619 -0.00669
C 30.76074 30.57887 0.0101
C 29.47162 29.74242 0.01705
C 29.49613 28.37006 -0.0405
C 30.73791 27.69429 -0.01303
C 27.11393 4.23331 -0.02049
C 26.94705 24.09043 0.01259
C 33.1265 23.43985 -0.0136
C 33.20729 17.71201 -0.02474
C 1.19303 22.02232 0.02712
C 34.38373 21.24444 -0.02213
C 0.01213 19.92731 0.01951
C 1.23418 19.22723 -0.01678
C 1.22688 17.74465 0.01223
C 34.41815 17.01749 0.00648
C 34.38472 15.57603 0.02114
C 1.1628 14.92378 -0.02957
C 1.23315 13.51161 0.00343
C 0.04578 12.72455 -0.02656
C 34.41785 11.34706 -0.02442
C 1.18012 10.70586 -0.00027
C 1.23684 9.26143 -0.00583
C 34.41736 8.58387 -0.02302
C 34.40323 7.11993 -0.02849
C 1.19429 6.38033 0.02931
C 1.22813 4.98773 0.00628
C 0.01542 4.24072 -0.0345
C 0.02244 2.82637 -0.00931
C 1.22466 2.10095 -0.00939
C 1.22636 0.70449 -0.00468
C 1.19924 23.4615 0.00723
C 34.4107 24.22872 0.03076
C 0.00121 25.53081 -0.05239
C 1.24169 26.25054 -0.00598
C 31.90484 15.55777 0.00369
C 33.20284 14.91507 0.00455
C 33.25561 13.47066 -0.00644
C 31.90455 12.72558 -0.01839
C 31.93758 11.34683 0.00137
C 33.19978 10.64645 0.00199
C 33.17558 9.19194 0.04381
C 31.93764 8.53545 0.02806
C 31.98706 7.06673 0.01504
C 33.20831 6.38751 -0.00069
C 33.23052 22.04822 0.00594
C 33.18711 4.9545 0.04926
C 32.00045 2.7999 0.00349
C 33.18823 2.09714 -0.00323
C 33.17197 0.68379 -0.00841
C 31.98203 34.07111 0.0001
C 0.0344 32.63843 -0.02927
C 1.214 31.97652 -0.01404
C 1.13726 30.53131 0.01027
C 34.36841 29.79822 0.01831
C 0.01301 28.33802 -0.01037
C 1.17874 27.67229 -0.00439
C 32.01618 4.24881 -0.03838
C 27.07569 25.54218 0.01495
C 28.20758 26.26738 0.00235
C 28.23587 27.63567 0.01094
C 19.66908 7.09088 0.00096
C 20.89462 6.36686 -0.01527
C 20.94695 4.91598 0.01087
C 19.72306 4.20193 0.00199
C 19.70709 2.82319 0.01511
C 20.89974 2.13345 -0.00478
C 20.91418 0.64561 -0.01662
C 19.63017 34.04583 -0.01185
C 22.1347 32.67007 0.01126
C 23.40736 31.87202 0.01852
C 23.4291 30.48101 -0.00381
C 22.12027 29.77097 0.03046
C 22.14489 28.3855 0.0296
C 23.38188 27.68529 0.03374
C 23.36648 26.24043 -0.02845
C 22.17172 25.579 -0.03213
C 22.11228 24.14811 0.02239
C 23.37893 23.45104 0.01153
C 23.39982 21.97956 0.02734
C 22.17633 21.30589 -0.0055
C 22.17033 19.91382 0.01515
C 19.66595 8.51681 0.01277
C 20.88805 9.17309 -0.02422
C 20.89121 10.67411 -0.01721
C 19.71105 12.81595 -0.01154
C 18.43226 2.18249 0.03754
C 18.41846 0.70349 0.01739
C 17.20687 0.01879 0.00755
C 19.65301 32.67968 -0.0054
C 20.90672 31.93863 0.00667
C 20.94791 30.5434 0.00143
C 19.66066 29.88793 -0.017
C 19.68919 28.39178 0.00364
C 20.94347 27.74992 -0.00831
C 20.94417 26.28912 -0.02957
C 23.39443 19.16611 -0.00225
C 19.6096 25.54108 -0.04422
C 20.93104 23.44904 -0.00703
C 20.92596 21.98605 -0.04076
C 19.82211 21.33702 -0.00652
C 19.65539 19.90691 0.0058
C 20.90619 19.15655 -0.00865
C 20.91917 17.72893 0.00675
C 19.5856 17.05164 -0.00311
C 19.60552 15.63064 0.00742
C 20.87167 14.88579 -0.01594
C 20.86781 13.46344 0.0106
C 19.71874 24.11992 0.00654
C 23.28316 17.73938 0.00071
C 22.11646 17.029 -0.01107
C 22.09864 15.62405 -0.01586
C 24.56624 17.02293 0.04306
C 24.55251 15.66001 0.00996
C 25.8189 14.92991 0.00195
C 25.82194 13.48502 -0.00802
C 24.58366 12.79949 -0.00218
C 24.59997 11.28367 -0.01654
C 25.8529 10.63465 -0.00037
C 25.82733 9.21106 -0.0032
C 24.59543 8.51837 0.00622
C 24.67143 7.16014 -0.02815
C 24.57939 21.32569 0.00367
C 25.79327 6.31676 -0.00942
C 24.57415 4.23563 0.00826
C 24.58048 2.87463 -0.00294
C 25.78044 2.14987 0.00152
C 25.83157 0.68902 0.01257
C 24.63476 0.01247 0.02316
C 27.08405 32.65808 0.04185
C 28.27943 31.957 0.00194
C 28.26958 30.48364 -0.00621
C 27.06418 29.85556 0.02611
C 27.06165 28.40452 0.02198
C 25.78639 4.92928 0.00487
C 17.19865 4.23739 -0.00111
C 25.89235 23.4205 -0.01679
C 24.57336 25.54452 0.00684
C 23.36746 14.91775 -0.01971
C 23.36676 13.46682 -0.02118
C 22.1255 12.83343 0.00733
C 22.1436 11.37741 -0.00178
C 23.31682 10.64488 0.00768
C 23.36966 9.21571 -0.0276
C 22.14164 8.54306 0.03005
C 22.11951 7.14866 -0.04078
C 23.37462 6.37312 0.02117
C 23.36112 4.94976 0.02737
C 24.68226 24.10474 -0.01052
C 22.13093 4.32013 -0.00498
C 23.37873 2.1364 0.03102
C 23.36468 0.7292 0.02555
C 22.13377 34.05992 0.01423
C 24.60693 32.58066 -0.00285
C 25.78836 31.90025 -0.009
C 25.88062 30.51124 -0.01199
C 24.59012 29.80465 -0.00229
C 24.55178 28.43458 -0.00938
C 25.81497 27.69882 -0.0264
C 25.78876 26.28584 -0.01154
C 22.16314 2.84925 0.00135
C 2.41365 32.5825 0.00088
