441
Graphene
C 0.06947 34.04748 0.01295
C 13.56779 19.18636 -0.01634
C 13.60515 17.8207 -0.00334
C 12.51258 17.00593 0.02339
C 12.54167 15.36172 0.01641
C 13.25831 13.80094 -0.00719
C 12.23207 12.90686 0.01364
C 12.24755 11.43383 -0.01062
C 13.51431 10.80838 -0.00033
C 13.56752 9.32278 0.03589
C 12.25797 8.5506 -0.02759
C 12.22042 7.07613 0.0402
C 13.48011 6.35114 0.00572
C 13.49385 4.85706 0.03592
C 12.27098 4.24438 0.00406
C 12.2885 2.81555 0.00943
C 13.56875 2.12831 0.02841
C 13.53602 0.73339 -0.01111
C 12.26985 0.06645 -0.01275
C 14.61138 32.68447 0.00985
C 15.8877 31.97935 -0.02245
C 15.90772 30.57394 -0.00428
C 14.67617 29.93704 0.03101
C 14.79095 28.44458 -0.01536
C 12.23113 19.95038 0.00057
C 12.29671 21.37941 0.00093
C 13.58572 22.0559 0.01291
C 13.52183 23.47276 0.00438
C 11.15692 14.96433 -0.00095
C 11.01823 13.48715 0.01572
C 9.79565 12.76933 -0.04848
C 9.77894 11.35261 -0.00892
C 10.99745 10.6496 -0.01362
C 11.08039 9.30194 -0.0008
C 9.82577 8.59285 0.0288
C 9.88295 7.17484 0.00393
C 11.03202 6.40566 0.00895
C 11.07012 4.96123 0.00685
C 9.81117 4.29439 0.02888
C 15.95454 27.67042 -0.02689
C 9.84914 2.81302 -0.00482
C 11.00316 0.74696 0.03693
C 9.82861 0.05266 0.01745
C 12.17161 32.79532 0.00488
C 13.41466 32.00373 -0.01004
C 13.44087 30.50159 -0.02896
C 12.19508 29.78797 -0.00131
C 12.21086 28.35864 -0.01118
C 13.53905 27.76746 -0.014
C 13.54478 26.33329 0.02147
C 12.23365 25.66066 0.00373
C 12.3307 24.18975 -0.00191
C 11.05164 2.19275 -0.01384
C 9.93292 15.73 0.03007
C 15.94507 26.22084 -0.01046
C 14.71717 24.20507 0.02819
C 18.38926 23.37483 0.02058
C 18.49024 21.94284 -0.01957
C 17.18892 21.26157 -0.0108
C 17.16531 19.76893 -0.00368
C 18.43744 19.15719 -0.02696
C 18.48362 17.68935 -0.00114
C 18.36388 14.86898 0.00228
C 18.34022 13.51461 0.00798
C 17.08559 12.79241 0.00422
C 17.10925 11.39203 0.0351
C 18.36942 10.67528 -0.03113
C 18.32316 9.21921 0.02098
C 17.07407 8.54574 0.01848
C 17.14234 7.14389 -0.00619
C 18.42146 6.3567 -0.02162
C 18.38741 4.95005 0.00889
C 17.22832 4.18723 -0.00481
C 17.25013 2.84554 0.00979
C 18.37473 2.08105 0.01443
C 18.35512 0.69378 0.03505
C 17.1662 34.01129 -0.02815
C 19.65445 32.58698 -0.04147
C 20.89897 31.91662 -0.05302
C 17.19185 24.15317 0.01965
C 17.15588 25.54036 -0.03682
C 18.43265 26.22935 0.00052
C 18.3846 27.59864 0.00374
C 15.97026 23.41324 0.00165
C 15.98514 22.03537 -0.02971
C 14.78706 21.37299 0.02894
C 14.7362 19.93453 -0.01789
C 15.90028 19.18282 0.00444
C 15.94587 13.57845 -0.00925
C 14.62019 13.13465 0.01877
C 14.70996 11.65235 0.01363
C 15.91339 10.7351 -0.02162
C 15.91918 9.26909 0.00415
C 14.67308 8.53005 -0.0014
C 14.69266 25.5849 -0.00891
C 14.69224 7.0977 0.02162
C 15.93124 4.92793 0.01241
C 14.7122 4.24395 -0.01454
C 14.77831 2.82556 0.01945
C 16.02634 2.10443 0.01416
C 15.90735 0.70595 0.03542
C 14.66777 33.99246 0.02299
C 17.1306 32.59053 0.00244
C 18.42427 31.927 -0.01717
C 18.35823 30.54809 0.05265
C 17.13301 29.80142 -0.01952
C 17.124 28.34614 -0.02813
C 15.9296 6.39054 0.0076
C 9.84385 17.03024 0.00054
C 11.19831 17.68762 -0.00494
C 11.1302 19.11477 -0.00562
C 3.70893 0.75683 -0.00177
C 2.49136 0.04717 0.04421
C 4.88253 32.68337 0.00088
C 6.14775 31.92151 0.00828
C 6.0781 30.5534 -0.02375
C 4.80929 29.84548 0.00558
C 4.81122 28.39576 -0.0059
C 6.04863 27.67576 -0.01386
C 6.10489 26.23793 -0.02805
C 4.92134 25.53291 0.00081
C 4.92023 24.09667 0.00245
C 6.12559 23.39807 0.02728
C 6.04736 21.98653 -0.00039
C 4.82534 21.34188 0.0064
C 4.78145 20.00819 0.00211
C 6.07512 19.24235 -0.00449
C 6.05049 17.75852 -0.01979
C 4.86152 17.0631 0.02784
C 4.90649 15.54699 -0.01977
C 6.16538 14.99208 -0.00561
C 6.11568 13.56254 0.00208
C 4.84816 12.80806 0.01707
C 4.94012 11.39249 0.02769
C 3.71281 2.18733 0.03278
C 2.54024 2.82951 0.01138
C 2.51142 4.24082 -0.00407
C 3.79396 5.02616 -0.01299
C 3.65715 30.61529 -0.0213
C 2.43412 29.88353 0.01116
C 2.41217 28.48757 -0.0005
C 3.6048 27.66148 -0.00018
C 3.73237 26.19696 0.01073
C 2.50194 25.53831 0.01984
C 2.42433 24.08959 0.00535
C 3.65806 23.46141 -0.00198
C 3.58074 22.03675 -0.00012
C 2.36946 21.29211 -0.04306
C 2.34377 19.8174 -0.03672
C 6.15201 10.75267 -0.03291
C 3.69227 19.12577 0.01913
C 2.39977 17.03636 0.00787
C 2.41717 15.5901 0.02426
C 3.64804 14.90236 0.01218
C 3.59523 13.51308 -0.01471
C 2.35412 12.76433 -0.02827
C 2.43515 11.31984 0.01078
C 3.71235 10.70514 -0.00112
C 3.71504 9.27496 0.03345
C 2.48349 8.54902 0.00748
C 2.52262 7.0818 0.00662
C 3.80423 6.42378 -0.0154
C 3.58316 17.71378 0.00267
C 6.1568 9.33612 -0.04999
C 4.97367 8.5783 0.04505
C 4.98993 7.13661 0.03284
C 8.61589 10.74592 0.02322
C 8.56411 9.37473 -0.00725
C 7.3845 8.61013 -0.05697
C 7.40527 7.17389 0.01087
C 8.62588 6.44573 -0.01343
C 8.69354 5.05818 0.00988
C 7.41418 4.35151 0.0276
C 7.34805 2.92839 0.01305
C 8.56511 2.17127 -0.00077
C 8.5815 0.73611 0.03368
C 7.33731 0.0476 -0.02929
C 7.37974 11.4349 -0.00094
C 9.788 32.71314 -0.00966
C 11.0321 30.50406 0.01227
C 9.73253 29.86108 0.00873
C 9.82703 28.44792 -0.00049
C 11.03309 27.71353 0.00848
C 11.01247 26.35655 -0.01303
C 9.78024 25.59806 -0.01378
C 9.81227 24.27002 0.02635
C 11.04285 23.52361 0.0127
C 11.09006 22.10887 0.01396
C 9.82462 21.27284 0.01849
C 9.90787 19.86483 -0.01142
C 10.98831 32.0093 -0.03337
C 20.91648 30.5711 0.00213
C 7.43193 12.90606 -0.02566
C 8.65191 15.05012 0.017
C 6.20542 6.50025 -0.04307
C 6.23275 5.1085 0.03189
C 5.02548 4.38611 0.00031
C 4.9331 2.94245 -0.003
C 6.13336 2.23028 0.01402
C 6.09874 0.80069 0.02379
C 4.92107 34.06886 0.00907
C 7.32827 32.69709 0.00643
C 8.59902 31.99698 -0.01509
C 8.51086 30.62956 0.03267
C 7.34889 29.81752 0.02374
C 8.60172 13.65932 -0.03113
C 7.32819 28.47719 0.00402
C 8.59289 26.35047 0.0174
C 7.35357 25.60178 0.03828
C 7.29354 24.16447 0.01226
C 8.62183 23.44622 -0.00279
C 8.62932 22.03352 0.01996
C 7.31661 21.39379 -0.03996
C 7.34868 19.97568 0.01465
C 8.60858 19.23748 -0.00074
C 8.60793 17.79149 -0.00518
C 7.30739 17.07882 0.0086
C 7.32738 15.68075 -0.00643
C 8.62961 27.70873 0.0073
C 3.69315 31.97828 -0.00374
C 19.67159 29.85114 -0.00066
C 20.75402 27.71331 0.00028
C 30.69556 14.89234 -0.0405
C 30.63843 13.40159 -0.01303
C 29.47413 12.67626 -0.01461
C 29.55974 11.28513 -0.02155
C 30.74308 10.48529 -0.00944
C 30.79007 9.04492 -0.03735
C 29.53472 8.45698 -0.00971
C 29.47752 7.08278 0.01518
C 30.67089 6.31125 0.01908
C 30.74839 4.92795 0.07705
C 29.51791 4.24956 0.0103
C 29.49716 2.88363 0.02108
C 30.78433 2.12537 0.00716
C 30.72771 0.70786 0.00307
C 29.48969 34.07688 0.00346
C 32.0561 32.70869 0.01713
C 33.1961 31.93496 -0.01694
C 33.22966 30.60808 0.01428
C 31.98214 29.88264 -0.02142
C 31.99909 28.47284 0.0544
C 33.14908 27.66574 0.00026
C 33.12917 26.29963 0.00682
C 31.85779 25.59242 -0.01779
C 29.46582 15.6137 0.01705
C 29.49432 17.04973 0.0101
C 30.62711 17.69829 -0.00669
C 30.66143 19.11595 0.03531
C 28.22091 10.61719 0.00194
C 28.35292 9.19416 -0.00621
C 27.00691 8.47712 0.02611
C 26.97482 7.08075 0.02198
C 28.16698 6.4025 0.01094
C 28.27564 4.97455 0.00235
C 27.05891 4.22838 0.01495
C 26.98066 2.8393 0.01259
C 28.27236 2.18153 0.01799
C 28.26217 0.80631 0.01699
C 27.02229 34.05948 -0.00416
C 31.87019 24.14776 0.03794
C 29.51397 32.69797 0.01177
C 30.74618 30.59473 0.01324
C 29.52106 29.89419 0.0014
C 29.53049 28.51607 0.00924
C 30.72795 27.78278 0.02326
C 30.7031 26.34256 0.00261
C 29.48495 25.55797 0.03265
C 29.41245 24.15498 -0.02049
C 30.6332 23.42522 -0.01854
C 30.74627 21.94526 -0.01415
C 29.48972 21.28215 -0.03039
C 29.41885 19.88286 0.01836
C 30.71333 32.01314 0.04266
C 26.95258 11.32876 0.04185
C 33.15171 23.52425 0.01927
C 31.88036 21.24049 -0.02383
C 34.42174 24.21229 0.03076
C 1.11485 23.39256 0.00723
C 1.14129 21.9294 0.02712
C 34.32316 21.23963 -0.02213
C 34.29915 19.86719 0.01951
C 1.06924 19.15006 -0.01678
C 1.14901 17.77439 0.01223
C 34.3451 17.03363 0.00648
C 34.35929 15.51061 0.02114
C 1.17461 14.83745 -0.02957
C 1.15098 13.41992 0.00343
C 34.38385 12.7803 -0.02656
C 0.00522 11.25019 -0.02442
C 1.22614 10.58538 -0.00027
C 1.22252 9.21348 -0.00583
C 34.41796 8.43087 -0.02302
C 0.02162 7.01474 -0.02849
C 1.27523 6.38815 0.02931
C 1.31655 4.97066 0.00628
C 0.12581 4.28547 -0.0345
C 0.02959 2.85533 -0.00931
C 1.27724 2.16515 -0.00939
C 1.24367 0.70606 -0.00468
C 34.3817 25.56453 -0.05239
C 1.24631 26.32715 -0.00598
C 1.21694 27.84059 -0.00439
C 34.41711 28.41203 -0.01037
C 31.84414 19.83023 -0.01429
C 33.07344 19.18788 -0.0136
C 33.12945 17.71494 0.00594
C 31.871 16.97739 -0.02474
C 31.91205 15.55058 0.00369
C 33.05569 14.78381 0.00455
C 33.12003 13.40596 -0.00644
C 31.98055 12.68344 -0.01839
C 31.98776 11.24908 0.00137
C 33.26314 10.47943 0.00199
C 33.20118 9.12197 0.04381
C 33.10962 22.00381 0.01574
C 31.98376 8.38377 0.02806
C 33.20707 6.32267 -0.00069
C 33.25602 4.9279 0.04926
C 32.05512 4.24424 -0.03838
C 31.98316 2.8469 0.00349
C 33.23549 2.09253 -0.00323
C 33.32437 0.69576 -0.00841
C 32.02679 34.05358 0.0001
C 0.10616 32.64968 -0.02927
C 1.30498 31.92809 -0.01404
C 1.21153 30.57788 0.01027
C 34.38807 29.87822 0.01831
C 31.95434 6.96373 0.01504
C 27.01531 12.69214 0.02316
C 28.22524 13.37948 0.01257
C 28.23133 14.89308 0.00152
C 23.31932 30.49194 -0.00703
C 22.05183 29.78032 -0.04076
C 22.09939 28.36385 -0.00652
C 23.33933 27.64791 0.0058
C 23.40234 26.27456 -0.00865
C 22.08716 25.63846 0.00675
C 22.05283 24.18994 -0.00311
C 23.27315 23.40109 0.00742
C 23.36547 22.07204 -0.01594
C 22.13436 21.31589 0.0106
C 22.04837 19.802 -0.01154
C 23.33412 19.21512 -0.01721
C 23.43092 17.8166 -0.02422
C 22.08779 17.04596 0.01277
C 22.16903 15.67827 0.00096
C 23.24408 14.8568 -0.01527
C 23.2981 13.45817 0.01087
C 22.04636 12.79247 0.00199
C 21.98658 11.40746 0.01511
C 23.27633 10.69323 -0.00478
C 23.25054 9.28049 -0.01662
C 22.03982 8.59851 -0.01185
C 22.06223 7.19902 0.01126
C 23.27079 31.88355 0.00654
C 22.10501 32.59351 -0.04422
C 19.60731 34.04708 -0.02957
C 20.83157 0.68165 -0.00831
C 20.82809 26.30943 -0.02213
C 19.63292 25.51411 0.03698
C 19.6572 24.12851 -0.00109
C 20.90607 23.42425 -0.00491
C 20.93028 21.99322 0.03338
C 19.69171 21.30767 -0.0258
C 19.64428 19.89442 -0.0331
C 20.80197 19.09222 -0.00316
C 20.86702 17.70234 0.02188
C 19.64257 17.00738 -0.01979
C 19.58621 15.56128 0.02691
C 23.29378 6.49106 0.01852
C 20.88325 14.90255 -0.01581
C 19.64473 12.86366 0.04892
C 19.59431 11.38276 -0.00111
C 20.82011 10.68089 -0.03557
C 20.78759 9.27591 0.03754
C 19.59406 8.55988 0.01739
C 19.6671 7.12078 0.00755
C 20.87046 6.48573 -0.0054
C 20.86515 4.99721 0.00667
C 19.63336 4.26572 0.00143
C 19.62765 2.81222 -0.017
C 20.88024 2.09558 0.00364
C 20.88624 13.51408 0.01452
C 23.27256 5.02941 -0.00381
C 22.04615 4.30113 0.03046
C 22.12143 2.83676 0.0296
C 25.79156 6.38365 -0.009
C 25.79183 4.99762 -0.01199
C 24.57706 4.21307 -0.00229
C 24.48786 2.79899 -0.00938
C 25.77184 2.13055 -0.0264
C 25.76494 0.72278 -0.01154
C 24.54607 0.01983 0.00684
C 27.06335 32.68617 -0.01052
C 28.24496 31.94184 -0.01679
C 28.30701 30.51625 0.00367
C 26.99661 29.83825 0.04306
C 24.54841 7.07243 -0.00285
C 26.97902 28.43567 0.00996
C 28.2413 26.30676 -0.00802
C 27.03777 25.59107 -0.00218
C 27.02486 24.17946 -0.01654
C 28.23389 23.49811 -0.00037
C 28.29825 21.9828 -0.0032
C 27.03013 21.36147 0.00622
C 27.00333 19.94815 -0.02815
C 28.13026 19.1731 -0.00942
C 28.33153 17.79524 0.00487
C 27.09141 17.0612 0.00826
C 26.98566 15.62093 -0.00294
C 28.27041 27.72294 0.00195
C 19.57829 28.46969 -0.00289
C 24.53803 8.52061 0.01423
C 25.76506 10.56712 0.03102
C 23.31643 2.11378 0.03374
C 23.30564 0.66368 -0.02845
C 22.03258 0.00149 -0.03213
C 24.49378 32.58518 0.02239
C 25.73081 31.93925 0.01153
C 25.80039 30.54108 0.02734
C 24.54131 29.81143 -0.0055
C 24.48266 28.38136 0.01515
C 25.7511 27.73295 -0.00225
C 25.7927 26.28949 0.00071
C 24.60376 25.60184 -0.01107
C 25.82063 9.19396 0.02555
C 24.49984 24.18567 -0.01586
C 25.84803 22.06873 -0.02118
C 24.6162 21.26263 0.00733
C 24.62089 19.89578 -0.00178
C 25.77896 19.12352 0.00768
C 25.87552 17.72331 -0.0276
C 24.54825 16.98301 0.03005
C 24.56726 15.62754 -0.04078
C 25.73226 14.94845 0.02117
C 25.83525 13.49084 0.02737
C 24.5901 12.76738 -0.00498
C 24.52808 11.36846 0.00135
C 25.77119 23.47528 -0.01971
C 2.50531 32.64626 -0.00141
