309
Graphene
C 0.01896 0.02999 0.01295
C 12.34141 2.82248 0.02188
C 13.5016 2.19554 -0.01979
C 13.53089 0.76606 0.02691
C 12.33116 34.06438 -0.01581
C 14.80289 32.70852 0.01452
C 16.0195 31.96686 0.04892
C 15.95623 30.4881 -0.00111
C 14.72078 29.78493 -0.03557
C 14.7099 28.27278 0.03754
C 16.03789 13.42033 0.01739
C 14.8024 4.2639 0.00755
C 14.80629 2.81685 -0.0054
C 16.03362 2.10203 0.00667
C 16.04615 0.68078 0.00143
C 14.7353 0.08176 -0.017
C 12.27304 4.23536 -0.00316
C 17.23145 32.60751 0.00364
C 13.47775 4.93371 -0.0331
C 12.37156 7.02269 0.03338
C 10.98707 6.38174 -0.00481
C 11.02605 5.00766 0.00979
C 9.83756 4.22104 0.01443
C 9.79202 2.87473 0.03505
C 10.98773 2.18897 -0.02815
C 11.10183 0.76095 -0.04147
C 9.86583 0.03794 -0.05302
C 12.31318 32.66801 0.00213
C 13.54464 31.9616 -0.00066
C 13.51885 30.54349 -0.00289
C 12.33811 29.80742 0.00028
C 12.33031 28.41134 -0.02213
C 13.56569 27.80541 0.03698
C 12.24651 25.52734 -0.00109
C 12.20323 8.58872 -0.00491
C 13.54392 6.31305 -0.0258
C 18.46939 31.95209 -0.00831
C 18.47946 30.54522 -0.02957
C 17.28892 29.837 -0.04422
C 20.88635 0.65267 -0.00478
C 19.65777 0.02659 -0.01662
C 22.15293 32.61694 -0.01185
C 23.30723 31.9031 0.01126
C 23.37718 30.5084 0.01852
C 22.22248 29.78948 -0.00381
C 22.15083 28.41223 0.03046
C 23.3548 13.46566 0.0296
C 22.13758 12.87952 0.03374
C 22.11535 11.39103 -0.02845
C 23.34505 10.60266 -0.03213
C 23.37891 9.21556 0.02239
C 22.15273 8.56221 0.01153
C 22.09648 7.05704 0.02734
C 23.31509 6.39611 -0.0055
C 20.88837 2.14374 0.01511
C 19.68739 2.80294 0.00199
C 19.72827 4.30368 0.01087
C 20.89469 4.94687 -0.01527
C 17.21836 12.8419 0.00654
C 18.41847 4.90677 -0.00703
C 17.30702 4.21679 -0.04076
C 17.18319 2.85227 -0.00652
C 18.43276 2.10443 0.0058
C 18.46122 0.66632 -0.00865
C 17.25238 34.04259 0.00675
C 9.81683 7.15156 0.00889
C 19.63595 32.65844 -0.00311
C 20.87829 30.49868 -0.01594
C 19.63202 29.86673 0.0106
C 19.6253 12.78902 -0.01154
C 19.65679 11.43743 -0.01721
C 20.88677 10.58826 -0.02422
C 20.94383 9.21524 0.01277
C 20.88977 6.39082 0.00096
C 20.90576 31.97547 0.00742
C 9.87446 8.58942 -0.02162
C 11.13966 9.20681 -0.00619
C 11.07389 23.3702 0.01848
C 2.42764 4.25217 0.00406
C 2.45688 2.83691 0.00943
C 3.72358 2.16301 0.02841
C 3.66131 0.71498 -0.01111
C 2.43607 0.02535 -0.01275
C 4.88014 32.68183 0.00985
C 6.13964 31.95126 -0.02245
C 6.08899 30.54036 -0.00428
C 4.90442 29.84229 0.03101
C 4.95882 28.37244 -0.01536
C 6.12468 27.67395 -0.02689
C 6.16164 26.22267 -0.01046
C 4.90916 25.53926 -0.00891
C 4.93629 24.11801 0.02819
C 6.12291 23.40968 0.00165
C 3.67361 4.96829 0.03592
C 2.48393 7.09498 0.00572
C 2.45383 8.55664 0.0402
C 3.71691 9.24049 -0.02759
C 3.65881 30.54592 0.02147
C 2.44376 29.83949 0.00373
C 2.47411 28.44988 -0.00191
C 3.71609 27.63555 0.00438
C 3.66577 26.28544 0.01291
C 2.43189 25.58528 0.00093
C 2.42716 24.14458 0.00057
C 6.08749 22.00983 -0.02971
C 3.69271 23.49631 -0.01634
C 2.48881 21.26174 0.02339
C 2.46667 19.93235 0.01641
C 2.4966 17.01186 -0.00719
C 2.44514 15.70758 0.01364
C 2.40067 12.88448 -0.01062
C 2.49711 11.42849 -0.00033
C 3.64659 10.5531 0.03589
C 3.68631 22.00873 -0.00334
C 23.3126 5.01106 0.01515
C 5.00498 21.27304 0.02894
C 6.2109 6.4015 0.00444
C 8.59611 4.96315 0.00052
C 7.45742 4.24029 -0.03682
C 7.3926 2.82815 0.01965
C 8.54371 2.10619 0.02058
C 8.57303 0.78868 -0.01957
C 7.37607 0.01506 -0.0108
C 9.87471 32.64188 -0.00368
C 11.05515 31.94966 -0.02696
C 11.12387 30.50572 -0.00114
C 9.81601 29.79559 0.00228
C 9.86717 28.39295 0.00798
C 10.97083 27.65732 0.00422
C 11.06388 26.32276 0.0351
C 9.78467 25.58836 -0.03113
C 9.81253 24.12332 0.02098
C 8.64261 6.41889 0.00374
C 7.3607 6.99052 -0.02813
C 7.41317 8.52861 -0.01952
C 8.63115 9.24884 0.05265
C 6.14218 5.01868 -0.00925
C 4.8945 4.27324 0.01877
C 4.88848 2.78754 0.01363
C 6.13943 2.10373 -0.02162
C 6.17273 0.71242 0.00415
C 4.92372 34.05137 -0.0014
C 7.38591 32.69355 0.02162
C 6.1677 9.31973 -0.01789
C 8.57356 31.94628 0.0076
C 7.42756 29.80106 -0.01454
C 7.42715 28.39935 0.01945
C 8.62307 27.74674 0.01416
C 8.57472 26.17586 0.03542
C 7.38125 25.52847 0.02299
C 7.34986 24.14369 0.00244
C 8.55257 23.36961 -0.01717
C 8.60948 30.51674 0.01241
C 3.67113 31.97119 -0.014
C 22.10754 4.29913 -0.00225
C 23.39694 2.07326 -0.01107
C 33.1878 23.45416 0.01927
C 33.20924 22.02881 0.01574
C 32.01588 21.3299 -0.02383
C 31.95878 19.87439 -0.01429
C 33.20914 19.17871 -0.0136
C 33.22784 17.78996 0.00594
C 31.97703 17.04642 -0.02474
C 31.96207 15.64558 0.00369
C 33.24916 14.87695 0.00455
C 33.22899 13.51752 -0.00644
C 31.96393 12.81112 -0.01839
C 31.99137 11.39873 0.00137
C 33.14765 10.72605 0.00199
C 33.16614 9.27609 0.04381
C 31.9866 8.54267 0.02806
C 31.91948 24.14288 0.03794
C 31.96987 7.14813 0.01504
C 31.972 25.53993 -0.01779
C 33.22289 27.68524 0.00026
C 30.71313 9.27643 -0.03735
C 29.47673 8.5731 -0.00971
C 29.52502 7.11381 0.01518
C 30.68969 6.40092 0.01908
C 30.69908 5.0189 0.07705
C 29.50301 4.22739 0.0103
C 29.53822 2.82167 0.02108
C 30.70417 2.17338 0.00716
C 30.72413 0.72059 0.00307
C 29.55332 0.04692 0.00346
C 31.97894 32.60205 0.01713
C 33.1989 31.96306 -0.01694
C 33.16129 30.51968 0.01428
C 31.98914 29.81249 -0.02142
C 31.97343 28.42867 0.0544
C 33.11291 26.27389 0.00682
C 33.14756 6.39775 -0.00069
C 33.1815 4.91548 0.04926
C 31.97708 4.32206 -0.03838
C 34.38231 15.61686 0.02114
C 1.24366 14.94995 -0.02957
C 1.23555 13.46866 0.00343
C 34.42794 12.76183 -0.02656
C 34.40933 11.3887 -0.02442
C 1.25384 10.67016 -0.00027
C 1.24143 9.28786 -0.00583
C 34.40716 8.5148 -0.02302
C 34.4075 7.10919 -0.02849
C 1.21384 6.38292 0.02931
C 1.1543 5.00487 0.00628
C 0.04035 4.23335 -0.0345
C 0.02619 2.78025 -0.00931
C 1.29755 2.10092 -0.00939
C 1.2347 0.74014 -0.00468
C 34.42471 17.04526 0.00648
C 1.25664 17.75051 0.01223
C 1.23841 19.17865 -0.01678
C 34.42708 19.87128 0.01951
C 31.95616 2.88558 0.00349
C 33.24281 2.1625 -0.00323
C 33.20934 0.62395 -0.00841
C 32.00192 34.03344 0.0001
C 0.0138 32.67988 -0.02927
C 1.22589 31.98843 -0.01404
C 1.23275 30.48689 0.01027
C 30.70936 10.66311 -0.00944
C 0.04207 29.78101 0.01831
C 1.19622 27.64692 -0.00439
C 1.20094 26.28507 -0.00598
C 34.38961 25.55774 -0.05239
C 34.38559 24.18688 0.03076
C 1.20693 23.45086 0.00723
C 1.22759 21.969 0.02712
C 0.02817 21.28417 -0.02213
C 0.00388 28.43283 -0.01037
C 29.57877 11.34526 -0.02155
C 29.51189 12.71521 -0.01461
C 30.75146 13.50456 -0.01303
C 24.63904 2.83605 -0.00938
C 25.80307 2.12658 -0.0264
C 25.85085 0.69501 -0.01154
C 24.5929 0.00911 0.00684
C 27.02802 32.64061 -0.01052
C 28.31046 32.0048 -0.01679
C 28.28072 30.5487 0.00367
C 27.0968 29.87847 0.04306
C 27.01968 28.44029 0.00996
C 28.28546 27.70008 0.00195
C 28.29741 26.27239 -0.00802
C 27.07959 25.61628 -0.00218
C 27.10006 24.15132 -0.01654
C 28.24439 23.38233 -0.00037
C 28.29013 22.03563 -0.0032
C 24.58475 4.2932 -0.00229
C 25.8533 5.01082 -0.01199
C 25.77832 6.31297 -0.009
C 24.55518 7.06457 -0.00285
C 23.3612 0.70391 -0.01586
C 22.19275 34.07942 -0.01971
C 24.5174 32.62544 -0.02118
C 25.75254 31.95592 0.00733
C 25.80397 30.47385 -0.00178
C 24.55374 29.79878 0.00768
C 24.56927 28.37647 -0.0276
C 27.05634 21.30471 0.00622
C 25.80189 27.73474 0.03005
C 25.81923 14.90975 0.02117
C 25.84271 13.49775 0.02737
C 24.57262 12.78543 -0.00498
C 24.53563 11.38479 0.00135
C 25.82262 10.65879 0.03102
C 25.84963 9.16919 0.02555
C 24.59895 8.50622 0.01423
C 25.76766 26.3065 -0.04078
C 22.12891 2.87937 0.00071
C 27.05946 19.98723 -0.02815
C 28.24546 17.74944 0.00487
C 29.4821 29.81159 0.0014
C 29.52281 28.42408 0.00924
C 30.77506 27.67652 0.02326
C 30.74254 26.25848 0.00261
C 29.48209 25.50556 0.03265
C 29.4877 24.0977 -0.02049
C 30.72971 23.45857 -0.01854
C 30.73752 22.10055 -0.01415
C 29.54489 21.25504 -0.03039
C 29.51741 19.84465 0.01836
C 30.69098 19.14574 0.03531
C 30.74573 17.75845 -0.00669
C 29.54381 17.02982 0.0101
C 29.45045 15.55429 0.01705
C 30.73189 14.91179 -0.0405
C 30.75827 30.52207 0.01324
C 30.73569 31.88761 0.04266
C 29.48348 32.68586 0.01177
C 27.08001 34.02384 -0.00416
C 27.06934 17.03297 0.00826
C 27.05574 15.65915 -0.00294
C 28.2614 14.87834 0.00152
C 28.30006 13.43003 0.01257
C 27.03632 12.7433 0.02316
C 27.0257 11.3345 0.04185
C 28.30405 10.65746 0.00194
C 28.31921 19.13022 -0.00942
C 28.26647 9.27452 -0.00621
C 26.97614 7.0911 0.02198
C 28.23109 6.36292 0.01094
C 28.28294 4.90323 0.00235
C 27.01732 4.26148 0.01495
C 27.09584 2.83054 0.01259
C 28.31519 2.11872 0.01799
C 28.19742 0.7152 0.01699
C 26.99977 8.46695 0.02611
C 2.47457 32.65294 -0.01118
