419
Graphene
C 0.00098 34.01562 0.01295
C 13.47118 27.72239 0.00943
C 13.51435 26.28827 0.02841
C 12.2658 25.59575 -0.01111
C 12.30532 24.23959 -0.01275
C 13.53281 23.39854 0.00985
C 13.47959 21.95471 -0.02245
C 12.29605 21.29358 -0.00428
C 12.26782 19.87105 0.03101
C 13.46097 19.13807 -0.01536
C 13.53817 17.68198 -0.02689
C 12.292 28.48088 0.00406
C 12.27561 17.04477 -0.01046
C 13.50627 14.9385 0.02819
C 13.50684 13.52184 0.00165
C 12.31023 12.74623 -0.02971
C 12.33071 11.34566 0.02894
C 13.51263 10.60655 -0.01789
C 13.52431 9.10921 0.00444
C 12.24374 8.39267 -0.00925
C 12.25637 6.98777 0.01877
C 13.54677 6.32924 0.01363
C 13.46001 4.95362 -0.02162
C 12.31008 15.56637 -0.00891
C 12.26922 4.25596 0.00415
C 12.29459 29.9008 0.03592
C 13.53621 32.06419 0.0402
C 9.76698 21.33905 -0.01004
C 9.78108 19.92705 -0.02896
C 11.04763 19.20978 -0.00131
C 11.07411 17.79251 -0.01118
C 9.81342 17.15602 -0.014
C 9.80264 15.72864 0.02147
C 11.02835 14.95895 0.00373
C 11.0364 13.51524 -0.00191
C 9.86204 12.81954 0.00438
C 9.89634 11.31087 0.01291
C 13.5132 30.61369 0.00572
C 11.13455 10.56865 0.00093
C 9.85007 8.54414 -0.01634
C 9.78076 7.10561 -0.00334
C 10.9746 6.35326 0.02339
C 11.01906 4.92595 0.01641
C 9.75702 4.26856 -0.00719
C 9.79832 2.83946 0.01364
C 11.10916 2.17439 -0.01062
C 11.04797 0.70879 -0.00033
C 9.79341 0.04647 0.03589
C 12.3188 32.72598 -0.02759
C 11.08082 9.16657 0.00057
C 12.34437 2.86095 -0.0014
C 13.58068 2.15734 0.02162
C 13.54945 0.77504 0.0076
C 15.98494 4.95788 0.01848
C 14.72971 4.23756 -0.00619
C 14.8279 2.8313 -0.02162
C 16.0735 2.11951 0.00889
C 16.10335 0.77364 -0.00481
C 14.80843 0.12466 0.00979
C 17.18359 32.64613 0.01443
C 18.38611 31.89898 0.03505
C 18.38501 30.44338 -0.02815
C 17.16502 29.76923 -0.04147
C 15.95931 6.40383 0.02098
C 17.15406 28.39309 -0.05302
C 18.40065 26.20798 -0.00066
C 17.14047 25.57199 -0.00289
C 17.07376 24.13163 0.00028
C 18.25826 23.61748 -0.02213
C 17.13534 21.39766 0.03698
C 17.05865 19.94859 -0.00109
C 17.2821 17.04869 -0.00491
C 17.22388 15.65504 0.03338
C 18.46098 14.98796 -0.0258
C 18.44011 13.56541 -0.0331
C 18.3642 27.63469 0.00213
C 14.73372 7.03586 -0.03113
C 14.79988 8.45002 0.0351
C 16.03894 9.20226 0.00422
C 12.31288 0.07419 0.01241
C 14.78965 32.73 -0.01454
C 15.9615 31.91251 0.01945
C 15.96616 30.51114 0.01416
C 14.71657 29.87037 0.03542
C 14.76424 28.47547 0.02299
C 15.97845 27.69042 0.00244
C 15.92284 26.3022 -0.01717
C 14.70128 25.58174 0.05265
C 14.72438 24.15606 -0.01952
C 15.87052 23.40077 -0.02813
C 15.91615 21.98357 0.00374
C 14.68004 21.19087 0.00052
C 14.77873 19.79767 -0.03682
C 16.01869 19.15174 0.01965
C 16.10265 17.70968 0.02058
C 14.87443 17.0061 -0.01957
C 14.76413 15.6585 -0.0108
C 16.02311 14.94339 -0.00368
C 15.99534 13.45467 -0.02696
C 14.72116 12.68351 -0.00114
C 14.73985 11.29733 0.00228
C 16.01249 10.5547 0.00798
C 11.10243 22.051 0.00488
C 17.21987 12.85961 -0.00316
C 11.06499 23.46626 0.01745
C 9.7954 25.60565 -0.01384
C 2.38344 2.89295 0.00208
C 3.62488 2.15065 0.01707
C 3.65065 0.72153 0.02769
C 2.41969 0.00464 -0.03291
C 4.89303 32.6833 -0.04999
C 6.06101 32.01309 0.04505
C 6.10553 30.62815 0.03284
C 4.94406 29.87187 -0.04307
C 4.96595 28.39355 0.03189
C 6.13427 27.67225 0.00031
C 2.40914 4.30753 -0.00561
C 6.11083 26.2446 -0.003
C 4.85991 24.08484 0.02379
C 6.15189 23.43494 0.00907
C 6.18265 22.01597 0.00643
C 4.9067 21.29553 -0.01509
C 4.91441 19.9226 0.03267
C 6.08999 19.24517 0.02374
C 6.13704 17.7704 0.00402
C 4.87146 17.02567 0.0073
C 4.93647 15.63677 0.0174
C 6.15646 14.9671 0.03828
C 4.88851 25.52112 0.01402
C 6.16555 13.46292 0.01226
C 3.66857 5.03597 -0.01977
C 2.3689 7.14326 -0.01979
C 3.68168 30.54548 0.00662
C 2.48691 29.85261 -0.0154
C 2.49016 28.38683 -0.01299
C 3.72236 27.6192 -0.00407
C 3.63154 26.18996 0.01138
C 2.40084 25.49618 0.03278
C 2.42848 24.13579 -0.00177
C 3.64424 23.44531 0.04421
C 3.62445 22.00235 0.00088
C 2.40214 21.34728 0.00828
C 3.60074 6.49331 0.02784
C 2.44476 19.90248 -0.02375
C 3.7196 17.80544 -0.0059
C 2.47434 17.07282 -0.01386
C 2.44518 15.61926 -0.02805
C 3.71462 14.8027 0.00081
C 3.70196 13.45554 0.00245
C 2.37477 12.71946 0.02728
C 2.35139 11.26147 -0.00039
C 3.64458 10.63352 0.0064
C 3.67766 9.22758 0.00211
C 2.42119 8.55053 -0.00449
C 3.74656 19.18678 0.00558
C 4.88011 12.76555 -0.00279
C 4.91547 11.28779 0.01996
C 6.16026 10.67682 -0.03996
C 8.63541 14.97497 -0.01378
C 8.64508 13.55825 0.02635
C 7.40056 12.88811 0.0127
C 7.37717 11.42533 0.01396
C 8.67498 10.69772 0.01849
C 8.682 9.26358 -0.01142
C 7.33068 8.58488 -0.00562
C 7.33052 7.15141 -0.00494
C 8.53681 6.42011 0.00054
C 8.50995 4.99168 0.03007
C 7.47188 15.66227 -0.01303
C 7.35325 4.2772 -0.00095
C 8.56887 2.20128 -0.04848
C 8.62549 0.79071 -0.00892
C 7.31172 0.06982 -0.01362
C 9.79126 32.7876 -0.0008
C 11.06053 32.04485 0.0288
C 11.08901 30.58337 0.00393
C 9.81408 29.88903 0.00895
C 9.84179 28.51554 0.00685
C 11.14024 27.82931 0.02888
C 11.09392 26.40342 -0.00482
C 7.34491 2.93381 0.01572
C 7.37738 17.12811 0.00848
C 8.65135 17.81966 -0.00049
C 8.62409 19.25909 0.00873
C 6.15843 9.28867 0.01465
C 4.92643 8.60289 -0.00074
C 4.90723 7.17324 -0.00518
C 6.16415 6.44972 0.0086
C 6.11437 5.01657 -0.00643
C 4.90864 4.35187 0.017
C 4.89016 2.87958 -0.03113
C 6.13188 2.23128 -0.02566
C 6.09163 0.82233 -0.00094
C 4.88791 0.01375 0.02322
C 7.34486 32.67806 -0.00725
C 8.55282 32.01466 -0.05697
C 8.54213 30.6283 0.01087
C 7.34284 29.84785 -0.01343
C 7.38257 28.39337 0.00988
C 8.5974 27.73972 0.0276
C 8.55961 26.29586 0.01305
C 7.35066 25.59218 -0.00077
C 7.35872 24.18745 0.03368
C 8.62567 23.49527 -0.02929
C 8.61458 22.05427 -0.00966
C 7.33116 21.32224 -0.03337
C 7.30791 19.93848 0.01227
C 9.80752 24.2633 0.03693
C 3.62132 31.98374 0.00748
C 17.17414 11.37178 0.02188
C 18.43449 9.26409 0.02691
C 29.45575 11.31916 -0.02155
C 30.69454 10.58662 -0.00944
C 30.73121 9.23539 -0.03735
C 29.50546 8.4361 -0.00971
C 29.5419 7.11663 0.01518
C 30.74245 6.37911 0.01908
C 30.75505 4.91574 0.07705
C 29.52146 4.23141 0.0103
C 29.4528 2.90915 0.02108
C 30.67357 2.08104 0.00716
C 29.50975 12.75877 -0.01461
C 30.67119 0.70942 0.00307
C 31.9175 32.65188 0.01713
C 33.19183 31.95424 -0.01694
C 33.23158 30.45987 0.01428
C 31.97653 29.78775 -0.02142
C 32.01085 28.42185 0.0544
C 33.22958 27.67183 0.00026
C 33.22343 26.22338 0.00682
C 31.96664 25.54395 -0.01779
C 31.92226 24.19009 0.03794
C 33.16304 23.43247 0.01927
C 29.43408 34.07018 0.00346
C 33.20561 21.98692 0.01574
C 30.77816 13.4282 -0.01303
C 29.49477 15.56378 0.01705
C 28.33841 4.96401 0.00235
C 27.04187 4.28815 0.01495
C 27.0591 2.93327 0.01259
C 28.22699 2.13147 0.01799
C 28.25248 0.70731 0.01699
C 27.06448 34.03099 -0.00416
C 29.40824 32.63769 0.01177
C 30.71033 31.90945 0.04266
C 30.70595 30.55841 0.01324
C 29.52125 29.90309 0.0014
C 30.77109 14.82518 -0.0405
C 29.51501 28.42892 0.00924
C 30.74736 26.22073 0.00261
C 29.57644 25.59771 0.03265
C 29.45322 24.09301 -0.02049
C 30.68743 23.37626 -0.01854
C 30.62948 21.91937 -0.01415
C 29.50526 21.24444 -0.03039
C 29.47382 19.77198 0.01836
C 30.68586 19.14886 0.03531
C 30.70988 17.7116 -0.00669
C 29.41465 17.05847 0.0101
C 30.78788 27.63984 0.02326
C 31.96962 21.24339 -0.02383
C 31.92414 19.84211 -0.01429
C 33.17283 19.18003 -0.0136
C 1.20617 23.44893 0.00723
C 1.18663 21.99357 0.02712
C 34.4013 21.25412 -0.02213
C 34.38035 19.88393 0.01951
C 1.27286 19.2005 -0.01678
C 1.27603 17.77772 0.01223
C 0.02949 17.09564 0.00648
C 0.02385 15.67892 0.02114
C 1.26829 14.94023 -0.02957
C 1.16286 13.50304 0.00343
C 34.37427 24.11301 0.03076
C 34.36435 12.71424 -0.02656
C 1.11569 10.58771 -0.00027
C 1.15937 9.18574 -0.00583
C 34.39855 8.46172 -0.02302
C 34.35721 7.0435 -0.02849
C 1.14816 6.34574 0.02931
C 1.16796 5.03285 0.00628
C 34.38702 4.26485 -0.0345
C 34.42376 2.84212 -0.00931
C 1.19259 2.11785 -0.00939
C 1.18617 0.68267 -0.00468
C 34.38338 11.35445 -0.02442
C 0.01133 25.54341 -0.05239
C 1.20617 26.2455 -0.00598
C 1.30411 27.62389 -0.00439
C 33.15848 17.7756 0.00594
C 31.92286 17.0466 -0.02474
C 31.95461 15.57447 0.00369
C 33.22124 14.91485 0.00455
C 33.21488 13.49176 -0.00644
C 31.9818 12.79378 -0.01839
C 31.91895 11.32124 0.00137
C 33.16545 10.59644 0.00199
C 33.16178 9.20125 0.04381
C 31.94929 8.49416 0.02806
C 31.93456 7.06789 0.01504
C 33.18743 6.32962 -0.00069
C 33.15221 4.91607 0.04926
C 31.92783 4.15602 -0.03838
C 31.94035 2.73866 0.00349
C 33.14396 2.08294 -0.00323
C 33.17262 0.65918 -0.00841
C 31.99121 0.0439 0.0001
C 0.01753 32.64091 -0.02927
C 1.19033 31.89429 -0.01404
C 1.26949 30.46152 0.01027
C 34.41779 29.76012 0.01831
C 0.04888 28.38639 -0.01037
C 28.34059 6.38377 0.01094
C 18.41882 10.66951 -0.01979
C 27.07837 7.05682 0.02198
C 28.31211 9.19127 -0.00621
C 19.75772 7.0289 0.0106
C 20.92259 6.3814 -0.01154
C 20.93533 4.92416 -0.01721
C 19.70687 4.23532 -0.02422
C 19.79693 2.8147 0.01277
C 20.94776 2.08466 0.00096
C 20.94782 0.73096 -0.01527
C 19.69937 34.04792 0.01087
C 22.10799 32.64493 0.00199
C 23.34147 32.00084 0.01511
C 19.64748 8.50861 -0.01594
C 23.36986 30.55135 -0.00478
C 22.09131 28.36075 -0.01185
C 23.32619 27.54605 0.01126
C 23.30032 26.08652 0.01852
C 22.04617 25.58986 -0.00381
C 23.36444 14.93372 0.03046
C 23.27883 13.56999 0.0296
C 22.06269 12.88348 0.03374
C 22.08992 11.44382 -0.02845
C 23.35075 10.70274 -0.03213
C 23.343 9.3471 0.02239
C 22.12755 29.8357 -0.01662
C 22.14739 8.52258 0.01153
C 20.87623 9.29868 0.00742
C 19.60393 11.42224 0.00675
C 17.23837 8.47268 -0.01581
C 17.20735 7.10673 0.01452
C 18.50949 6.36652 0.04892
C 18.52537 4.97369 -0.00111
C 17.20023 4.29643 -0.03557
C 17.23261 2.85753 0.03754
C 18.54381 2.1193 0.01739
C 18.44793 0.68708 0.00755
C 17.26035 34.05414 -0.0054
C 19.66534 32.64923 0.00667
C 20.87311 10.70893 -0.00311
C 20.87584 31.90764 0.00143
C 19.65454 29.7951 0.00364
C 19.66249 28.34826 -0.00831
C 20.93622 27.70219 -0.02957
C 20.7963 26.215 -0.04422
C 19.6239 25.49675 0.00654
C 19.41185 24.17982 -0.00703
C 19.64196 15.60938 -0.04076
C 20.78735 14.8891 -0.00652
C 20.90345 13.59129 0.0058
C 19.65854 12.88319 -0.00865
C 20.87569 30.53495 -0.017
C 22.11097 7.0986 0.02734
C 23.39274 6.44904 -0.0055
C 23.42548 4.98979 0.01515
C 25.80322 0.69926 -0.01052
C 24.6467 0.03894 -0.01679
C 27.03627 32.65468 0.00367
C 28.26663 31.89823 0.04306
C 28.23333 30.46847 0.00996
C 27.0736 29.73747 0.00195
C 27.04148 28.36444 -0.00802
C 28.27778 27.68941 -0.00218
C 28.29626 26.27726 -0.01654
C 27.0893 25.615 -0.00037
C 25.84877 2.26418 0.00684
C 27.04404 24.25947 -0.0032
C 28.28087 21.95638 -0.02815
C 28.22879 19.12593 -0.00942
C 28.07493 17.75746 0.00487
C 27.02005 16.84785 0.00826
C 27.0399 15.48635 -0.00294
C 28.28197 14.82762 0.00152
C 28.34836 13.47948 0.01257
C 27.05337 12.75557 0.02316
C 27.00487 11.37495 0.04185
C 28.22799 10.60439 0.00194
C 28.0319 23.3531 0.00622
C 24.674 2.90524 -0.01154
C 24.5804 4.2708 -0.0264
C 25.83816 5.03248 -0.00938
C 22.20594 4.20622 -0.00225
C 22.18534 2.82018 0.00071
C 23.43908 2.08854 -0.01107
C 23.42364 0.72488 -0.01586
C 22.16606 34.07245 -0.01971
C 24.58835 32.71045 -0.02118
C 25.77459 31.96826 0.00733
C 25.83873 30.453 -0.00178
C 24.54583 29.76464 0.00768
C 24.54874 28.33344 -0.0276
C 25.84148 27.69507 0.03005
C 25.83338 26.31407 -0.04078
C 24.67404 25.52118 0.02117
C 24.60206 15.56849 0.02737
C 25.83969 14.92461 -0.00498
C 25.78485 13.49689 0.00135
C 24.48229 12.81957 0.03102
C 24.54913 11.39245 0.02555
C 25.82014 10.75077 0.01423
C 25.83352 9.19225 -0.00285
C 24.56845 8.54235 -0.009
C 24.62734 7.11888 -0.01199
C 25.80981 6.43173 -0.00229
C 27.07429 8.4923 0.02611
C 2.38117 32.69474 0.03345
