259
Graphene
C 34.42263 0.07077 0.01295
C 16.04274 30.514 0.03046
C 15.93215 32.01462 -0.00381
C 14.72563 32.70373 0.01852
C 12.29796 34.04203 0.01126
C 13.58624 0.77104 -0.01185
C 13.56045 2.20697 -0.01662
C 12.26689 2.84731 -0.00478
C 12.00201 4.28027 0.01511
C 13.56045 23.24447 0.00199
C 12.33727 24.03918 0.01087
C 12.34857 25.55958 -0.01527
C 13.56685 26.27256 0.00096
C 13.5295 27.69603 0.01277
C 14.81314 29.75738 0.0296
C 12.28693 28.46927 -0.02422
C 13.58164 30.41792 -0.01154
C 13.5143 31.85966 0.0106
C 12.25775 32.60945 -0.01594
C 9.85589 34.04919 0.00742
C 11.08827 0.66369 -0.00311
C 11.0013 2.12416 0.00675
C 9.82232 2.83561 -0.00865
C 9.81359 4.36401 0.0058
C 11.05522 4.9395 -0.00652
C 11.09011 23.55662 -0.04076
C 9.89578 24.10848 -0.00703
C 9.85294 25.59818 0.00654
C 11.11753 26.26214 -0.04422
C 12.2814 29.87557 -0.01721
C 14.78324 28.37703 0.03374
C 15.98263 27.7114 -0.02845
C 15.98418 26.34547 -0.03213
C 19.60712 29.82401 -0.00938
C 20.8915 30.48409 -0.00229
C 20.91704 31.94369 -0.01199
C 19.72051 32.61358 -0.009
C 17.25804 0.03742 -0.00285
C 18.52736 0.65128 0.01423
C 18.52627 2.08695 0.02555
C 18.43331 19.34643 0.03102
C 17.35582 19.80508 0.00135
C 17.03909 21.17306 -0.00498
C 18.54303 22.00608 0.02737
C 18.55178 23.44157 0.02117
C 17.25376 24.18088 -0.04078
C 17.22012 25.59854 0.03005
C 18.37423 26.35493 -0.0276
C 18.46075 27.75367 0.00768
C 17.19461 28.39539 -0.00178
C 17.26395 29.74096 0.00733
C 18.44384 30.55733 -0.02118
C 18.44102 31.94703 -0.01971
C 17.16595 32.70349 -0.01586
C 14.76729 0.06544 -0.01107
C 16.06545 0.71543 0.00071
C 15.98454 2.27284 -0.00225
C 14.88416 2.67996 0.01515
C 16.03149 22.02809 -0.0055
C 16.03981 23.40478 0.02734
C 14.70754 24.07105 0.01153
C 14.74976 25.49378 0.02239
C 11.06195 27.68739 -0.02957
C 19.66829 28.42178 -0.0264
C 9.84867 28.39819 -0.00831
C 11.04686 30.59105 -0.017
C 6.05959 27.70127 0.00889
C 4.83462 28.42313 -0.02162
C 4.84441 29.86699 -0.00619
C 6.09753 30.57823 0.01848
C 6.16464 31.96199 0.02098
C 4.89312 32.61369 -0.03113
C 2.45628 34.07519 0.0351
C 3.71943 0.69292 0.00422
C 3.70539 2.18304 0.00798
C 2.51393 2.86959 0.00228
C 2.45354 4.29276 -0.00114
C 3.66783 4.97786 -0.02696
C 3.67292 6.36614 -0.00368
C 6.11633 26.28496 -0.00481
C 2.47904 7.10549 -0.0108
C 3.66649 9.20684 0.02058
C 2.39242 11.39246 0.01965
C 2.32786 19.9228 -0.03682
C 2.42027 21.26943 0.00052
C 3.63761 21.96914 0.00374
C 3.73601 23.40806 -0.02813
C 2.54226 24.15998 -0.01952
C 2.39928 25.52445 0.05265
C 3.62624 26.20441 -0.01717
C 3.65305 27.6418 0.00244
C 2.41773 28.36091 0.02299
C 2.38988 29.78344 0.03542
C 3.61475 30.47525 0.01416
C 2.52756 8.55427 -0.01957
C 4.91357 25.58598 0.00979
C 4.92307 24.08101 0.01443
C 6.18729 23.41418 0.03505
C 11.00886 31.98192 0.00143
C 9.85839 32.63127 0.00667
C 7.41856 34.00693 -0.0054
C 8.62478 0.7083 0.00755
C 8.5582 2.13782 0.01739
C 7.32501 2.85612 0.03754
C 7.36058 4.27176 -0.03557
C 8.54323 5.00441 -0.00111
C 8.6021 6.35981 0.04892
C 8.59836 23.54803 0.01452
C 7.40555 24.16585 -0.01581
C 7.35383 25.59376 0.02691
C 8.5428 26.37735 -0.01979
C 8.60915 27.76799 0.02188
C 7.35552 28.35936 -0.00316
C 7.32438 29.82825 -0.0331
C 8.56743 30.50072 -0.0258
C 8.67501 31.917 0.03338
C 7.44681 32.62715 -0.00491
C 4.91601 0.0016 -0.00109
C 6.22116 0.62545 0.03698
C 6.13955 2.09333 -0.02213
C 4.8737 2.84544 0.00028
C 4.91221 4.31006 -0.00289
C 6.15648 5.01372 -0.00066
C 6.12615 6.44252 0.00213
C 4.95556 7.07413 -0.05302
C 4.97497 21.36133 -0.04147
C 6.03633 21.97764 -0.02815
C 9.86867 29.78099 0.00364
C 3.61713 31.85521 0.01945
C 20.91851 27.74547 -0.01154
C 19.69354 25.65147 -0.01052
C 33.2239 2.15425 -0.00323
C 32.00661 2.81047 0.00349
C 32.00639 4.25267 -0.03838
C 33.23709 5.00225 0.04926
C 33.19896 6.4511 -0.00069
C 31.93345 7.08052 0.01504
C 31.92808 8.51404 0.02806
C 33.16854 9.16755 0.04381
C 33.20242 10.60022 0.00199
C 32.01525 11.38455 0.00137
C 32.03885 12.7467 -0.01839
C 33.20778 13.51572 -0.00644
C 33.25563 14.94288 0.00455
C 33.17696 0.74753 -0.00841
C 31.96558 15.66496 0.00369
C 33.14102 17.67279 0.00594
C 33.31986 26.28609 -0.0136
C 33.04943 27.58944 -0.01429
C 31.94947 28.41929 -0.02383
C 31.88311 29.78193 0.01574
C 33.07856 30.50509 0.01927
C 33.20159 31.92778 0.03794
C 31.98033 32.67658 -0.01779
C 29.50939 0.02937 0.00682
C 30.75311 0.67376 0.00026
C 30.74722 2.15373 0.0544
C 29.54945 2.89485 -0.02142
C 29.51823 4.26597 0.01428
C 32.13196 17.07481 -0.02474
C 31.97296 34.05362 0.0001
C 0.03262 32.72203 -0.02927
C 1.1934 31.91424 -0.01404
C 1.21628 0.75558 -0.00468
C 1.2871 2.1532 -0.00939
C 0.03027 2.86996 -0.00931
C 0.02802 4.33631 -0.0345
C 1.2652 5.06613 0.00628
C 1.22027 6.5206 0.02931
C 34.39799 7.17441 -0.02849
C 34.41056 8.56342 -0.02302
C 1.16851 9.27895 -0.00583
C 1.2669 10.68797 -0.00027
C 34.41061 11.32139 -0.02442
C 0.04647 12.78494 -0.02656
C 1.14069 13.67122 0.00343
C 1.15762 14.84575 -0.02957
C 0.04877 15.65943 0.02114
C 34.39023 17.09371 0.00648
C 1.08368 17.79806 0.01223
C 1.27086 19.09341 -0.01678
C 0.02345 20.02163 0.01951
C 34.35234 21.25107 -0.02213
C 1.11017 22.05758 0.02712
C 1.25673 23.50182 0.00723
C 0.07026 24.09387 0.03076
C 34.33237 25.50262 -0.05239
C 1.18662 26.24547 -0.00598
C 1.21693 27.71729 -0.00439
C 34.40635 28.39158 -0.01037
C 34.32012 29.81564 0.01831
C 1.11953 30.5262 0.01027
C 30.74096 4.91647 -0.01694
C 20.82286 26.39574 0.00684
C 30.70712 6.36703 0.01713
C 29.52381 8.59054 0.00307
C 24.61076 4.18892 0.01259
C 25.73062 5.03638 0.01495
C 25.86578 6.43454 0.00235
C 25.96832 9.41153 0.01094
C 25.9002 10.53722 0.02198
C 25.85203 13.60959 0.02611
C 25.77144 14.78778 -0.00621
C 24.51039 29.87795 0.00194
C 25.7578 30.48236 0.04185
C 25.88039 31.95501 0.02316
C 24.65542 32.61536 0.01257
C 22.18097 34.03831 0.00152
C 23.37428 0.68767 -0.00294
C 24.54279 2.88354 0.01799
C 23.35562 2.16383 0.00826
C 22.1315 28.46519 -0.00942
C 22.11091 29.82636 -0.02815
C 23.35349 30.55463 0.00622
C 23.40962 31.95209 -0.0032
C 22.18739 32.58408 -0.00037
C 19.78859 34.0398 -0.01654
C 20.95846 0.68599 -0.00218
C 20.88166 2.26471 -0.00802
C 19.50264 2.62622 0.00195
C 20.69781 17.91507 0.00996
C 19.78583 19.75487 0.04306
C 19.57627 21.08792 0.00367
C 19.59737 24.22778 -0.01679
C 22.1507 2.78125 0.00487
C 25.78506 2.17146 0.01699
C 25.77667 0.7328 -0.00416
C 24.62921 34.02928 0.01177
C 30.75984 9.26814 0.00716
C 30.78666 10.63622 0.02108
C 29.60346 11.35494 0.0103
C 29.50515 12.69907 0.07705
C 30.75012 13.47311 0.01908
C 30.82919 14.8425 0.01518
C 29.51286 29.8389 -0.00971
C 30.6807 30.46019 -0.03735
C 30.71362 32.00274 -0.00944
C 29.45384 32.67111 -0.02155
C 27.06117 0.06305 -0.01461
C 28.28216 0.7842 -0.01303
C 28.27648 2.19759 -0.0405
C 27.01049 2.87831 0.01705
C 27.0594 4.27157 0.0101
C 28.28243 4.98283 -0.00669
C 28.32862 6.38505 0.03531
C 27.07643 7.07613 0.01836
C 26.9915 8.44943 -0.03039
C 28.29468 9.27102 -0.01415
C 28.29785 10.65969 -0.01854
C 27.05325 11.40001 -0.02049
C 26.91425 12.74315 0.03265
C 28.25236 13.44215 0.00261
C 28.30517 14.83311 0.02326
C 27.04506 29.82934 0.00924
C 28.23722 30.44144 0.0014
C 28.25497 31.95858 0.01324
C 27.02426 32.67794 0.04266
C 29.48449 7.15394 0.00346
C 2.40788 32.62433 -0.01454
