348
Graphene
C 34.39326 0.01154 0.01295
C 11.04546 0.70971 0.00422
C 9.81326 0.05102 0.0351
C 12.30047 32.69071 -0.03113
C 13.36384 31.85855 0.02098
C 13.36799 30.26753 0.01848
C 12.10956 29.67969 -0.00619
C 12.23561 12.73724 -0.02162
C 12.2455 11.31143 0.00889
C 13.54428 10.78926 -0.00481
C 13.53788 9.23486 0.00979
C 12.30358 8.53087 0.01443
C 12.30126 7.12666 0.03505
C 13.52517 6.43039 -0.02815
C 13.61085 4.98819 -0.04147
C 12.32722 4.17479 -0.05302
C 12.30149 2.81489 0.00213
C 13.4945 2.10336 -0.00066
C 11.11665 2.08958 0.00798
C 9.84319 2.88782 0.00228
C 9.8073 4.29106 -0.00114
C 11.13619 4.87544 -0.02696
C 7.46382 2.82445 -0.01454
C 8.65238 2.14111 0.01945
C 8.6661 0.76341 0.01416
C 7.34025 0.02437 0.03542
C 9.792 32.74429 0.02299
C 11.08723 31.98228 0.00244
C 11.00298 30.56699 -0.01717
C 9.72883 29.92739 0.05265
C 13.46596 0.69332 -0.00289
C 9.95003 28.58248 -0.01952
C 11.07138 13.38427 0.00374
C 9.80768 12.89068 0.00052
C 9.875 11.34043 -0.03682
C 11.01311 10.64853 0.01965
C 11.084 9.19017 0.02058
C 9.875 8.46732 -0.01957
C 9.8741 7.08365 -0.0108
C 11.13563 6.40605 -0.00368
C 9.45176 16.26476 -0.02813
C 12.32263 0.01446 0.00028
C 14.68044 32.56909 -0.02213
C 15.92614 31.92096 0.03698
C 18.36835 6.39096 -0.00831
C 18.37044 5.0252 -0.02957
C 17.23678 4.21145 -0.04422
C 17.27293 2.7658 0.00654
C 18.55593 2.05062 -0.00703
C 18.52092 0.72044 -0.04076
C 17.1672 0.04548 -0.00652
C 19.66423 32.51424 0.0058
C 17.18245 7.1472 0.00364
C 20.88187 31.97149 -0.00865
C 19.55289 29.82594 -0.00311
C 19.6957 11.53949 0.00742
C 20.84416 10.76091 -0.01594
C 20.86697 9.33399 0.0106
C 19.63804 8.55493 -0.01154
C 19.60642 7.09365 -0.01721
C 20.8192 6.49022 -0.02422
C 20.89645 5.03085 0.01277
C 20.86492 30.40152 0.00675
C 7.41077 4.28281 0.01241
C 17.16847 8.63381 -0.017
C 18.54968 10.83249 0.00667
C 15.90756 30.51011 -0.00109
C 14.78654 29.89675 -0.00491
C 14.73334 11.43292 0.03338
C 15.95429 10.82379 -0.0258
C 15.95948 9.25521 -0.0331
C 14.71151 8.56518 -0.00316
C 14.72364 7.11865 0.02188
C 15.9644 6.40769 -0.01979
C 18.40758 9.32059 0.00143
C 16.03416 5.00318 0.02691
C 14.73798 2.81471 0.01452
C 15.96599 2.11237 0.04892
C 15.90237 0.77589 -0.00111
C 14.69844 33.97323 -0.03557
C 17.13224 32.64287 0.03754
C 18.40994 31.93929 0.01739
C 18.40896 30.51513 0.00755
C 17.30196 11.37354 -0.0054
C 14.87082 4.25021 -0.01581
C 19.65273 4.27629 0.00096
C 8.6368 5.00976 0.0076
C 7.37796 7.10733 -0.0014
C 2.54033 7.12257 -0.01362
C 3.78002 6.47955 -0.0008
C 3.70771 4.96462 0.0288
C 2.46096 4.34035 0.00393
C 2.49353 2.92318 0.00895
C 3.61264 2.15476 0.00685
C 3.62702 0.65406 0.02888
C 2.37494 0.00321 -0.00482
C 4.86671 32.65195 -0.01384
C 6.08702 31.96821 0.03693
C 6.1748 30.54115 0.01745
C 4.96045 29.77044 0.00488
C 4.94312 28.41424 -0.01004
C 6.24151 27.68684 -0.02896
C 6.19162 26.29017 -0.00131
C 4.96206 25.58177 -0.01118
C 4.84094 24.18176 -0.014
C 2.53903 8.54616 -0.00892
C 3.77301 9.26372 -0.04848
C 3.64378 10.62532 0.01572
C 2.41237 11.34919 -0.00095
C 3.73674 30.48814 -0.02929
C 2.46942 29.87384 -0.00966
C 2.45315 28.48042 -0.03337
C 3.68658 27.73066 0.01227
C 3.79536 26.36774 0.00873
C 2.54933 25.61631 -0.00049
C 2.37539 24.26713 0.00848
C 3.59844 23.43893 -0.01303
C 6.11918 23.4701 0.02147
C 3.55892 22.02111 -0.01378
C 2.43635 19.94061 0.0127
C 3.65798 19.22253 0.01396
C 3.65276 17.70305 0.01849
C 2.38444 17.06655 -0.01142
C 2.38504 15.68922 -0.00562
C 3.64513 14.87794 -0.00494
C 3.68275 13.56897 0.00054
C 2.49177 12.83625 0.03007
C 2.38257 21.33184 0.02635
C 6.12008 21.98521 0.00373
C 4.79965 21.26962 -0.00191
C 4.86246 19.90544 0.00438
C 7.3545 29.87953 -0.02245
C 7.40966 28.44216 -0.00428
C 8.82119 27.79867 0.03101
C 8.60098 26.37116 -0.01536
C 7.51854 25.51365 -0.02689
C 7.39279 24.12095 -0.01046
C 7.29233 21.26713 -0.00891
C 7.30716 19.87337 0.02819
C 8.53438 30.59178 0.00985
C 8.63319 17.51803 0.00165
C 7.31571 15.61428 0.02894
C 8.65525 15.05076 -0.01789
C 8.58206 13.58897 0.00444
C 7.39402 12.88325 -0.00925
C 7.37226 11.47391 0.01877
C 8.58058 10.67845 0.01363
C 8.63541 9.18315 -0.02162
C 7.4012 8.58036 0.00415
C 7.35454 17.01441 -0.02971
C 8.65384 6.39897 0.02162
C 8.5752 32.01142 -0.01275
C 4.90861 0.00077 0.02841
C 6.04364 19.13062 0.01291
C 6.08937 17.7104 0.00093
C 4.76153 16.97455 0.00057
C 4.81451 15.57534 -0.01634
C 6.07052 14.9333 -0.00334
C 6.13088 13.5331 0.02339
C 4.92579 12.84598 0.01641
C 4.93681 11.42566 -0.00719
C 7.27255 32.61616 -0.01111
C 6.11981 10.73146 0.01364
C 5.01937 8.5497 -0.00033
C 4.93698 7.17836 0.03589
C 6.15513 6.37434 -0.02759
C 6.20301 4.97507 0.0402
C 4.93158 4.23016 0.00572
C 4.9019 2.77153 0.03592
C 6.20503 2.15693 0.00406
C 6.13758 0.70375 0.00943
C 6.27282 9.31332 -0.01062
C 19.71419 2.86068 -0.01527
C 20.90159 2.07432 0.01087
C 20.86995 0.64204 0.00199
C 33.22566 30.52762 0.01428
C 31.93523 29.84032 -0.02142
C 31.85266 28.49973 0.0544
C 33.12729 27.78396 0.00026
C 33.14269 26.30377 0.00682
C 31.90319 25.55164 -0.01779
C 31.90584 24.19117 0.03794
C 33.14671 23.50478 0.01927
C 33.14337 22.10583 0.01574
C 31.90178 21.34537 -0.02383
C 31.86385 19.94174 -0.01429
C 33.13491 19.22423 -0.0136
C 33.08479 17.8218 0.00594
C 31.86371 17.08717 -0.02474
C 31.86772 15.65598 0.00369
C 33.14846 14.95333 0.00455
C 33.23581 13.50875 -0.00644
C 33.17026 31.95361 -0.01694
C 31.90375 32.6039 0.01713
C 29.51281 0.03563 0.00346
C 30.76486 0.62721 0.00307
C 29.53904 19.9753 0.01836
C 30.70245 19.1931 0.03531
C 30.70718 17.74605 -0.00669
C 29.48928 17.0229 0.0101
C 29.40195 15.61801 0.01705
C 30.62583 14.99417 -0.0405
C 30.69473 13.53659 -0.01303
C 29.46187 12.81228 -0.01461
C 31.95118 12.75143 -0.01839
C 29.4168 11.23412 -0.02155
C 30.61779 9.08331 -0.03735
C 29.34352 8.31073 -0.00971
C 29.38776 6.85526 0.01518
C 30.6821 6.29062 0.01908
C 30.68937 4.85127 0.07705
C 29.51385 4.12611 0.0103
C 29.67508 2.78963 0.02108
C 30.83356 2.04245 0.00716
C 30.62742 10.4872 -0.00944
C 31.91606 11.38023 0.00137
C 33.14995 10.62824 0.00199
C 33.12559 9.21057 0.04381
C 1.20532 19.1859 -0.01678
C 1.14437 17.81616 0.01223
C 34.34462 17.13735 0.00648
C 34.32328 15.74612 0.02114
C 1.21879 14.98714 -0.02957
C 1.25717 13.56934 0.00343
C 34.42277 12.76237 -0.02656
C 34.40567 11.30334 -0.02442
C 34.35999 19.89079 0.01951
C 1.18232 10.68848 -0.00027
C 34.42038 8.58134 -0.02302
C 34.38502 7.13706 -0.02849
C 1.18006 6.45846 0.02931
C 1.22521 5.0188 0.00628
C 0.04905 4.17842 -0.0345
C 0.01973 2.81893 -0.00931
C 1.29139 2.23033 -0.00939
C 1.18539 0.83819 -0.00468
C 1.22666 9.22962 -0.00583
C 29.52946 21.40311 -0.03039
C 34.33727 21.33526 -0.02213
C 1.14809 23.4922 0.00723
C 31.95427 8.38842 0.02806
C 31.91828 7.05051 0.01504
C 33.19963 6.40917 -0.00069
C 33.24056 4.9245 0.04926
C 31.95229 4.14293 -0.03838
C 32.03901 2.80164 0.00349
C 33.29711 2.14667 -0.00323
C 33.24076 0.72226 -0.00841
C 1.194 21.99974 0.02712
C 32.0441 33.99247 0.0001
C 1.20814 32.00633 -0.01404
C 1.21842 30.50887 0.01027
C 34.34507 29.85322 0.01831
C 34.31646 28.50349 -0.01037
C 1.2297 27.78213 -0.00439
C 1.28852 26.33982 -0.00598
C 34.3469 25.63539 -0.05239
C 34.32115 24.17076 0.03076
C 34.3631 32.70943 -0.02927
C 30.69531 22.06379 -0.01415
C 30.74666 23.51285 -0.01854
C 29.46114 24.15112 -0.02049
C 24.54387 29.91945 -0.02118
C 24.45186 28.57059 0.00733
C 25.56238 27.67748 -0.00178
C 25.62009 26.26266 0.00768
C 25.892 23.32589 -0.0276
C 25.80462 22.19461 0.03005
C 25.94187 19.03376 -0.04078
C 25.85401 17.78894 0.02117
C 25.78241 30.56194 -0.01971
C 24.3568 15.43985 0.02737
C 25.8304 13.472 0.00135
C 24.64873 12.77469 0.03102
C 24.59285 11.30653 0.02555
C 25.81834 10.53709 0.01423
C 25.83656 9.08707 -0.00285
C 24.63029 8.40665 -0.009
C 24.51606 6.91576 -0.01199
C 25.49831 5.87975 -0.00229
C 25.66933 14.9318 -0.00498
C 24.7281 4.65763 -0.00938
C 25.85464 31.99248 -0.01586
C 22.07195 0.05116 0.00071
C 19.66081 33.96932 0.01511
C 22.09863 32.80816 -0.00478
C 23.31996 32.09296 -0.01662
C 23.27058 30.60088 -0.01185
C 22.13415 29.774 0.01126
C 23.47853 13.49373 0.01852
C 22.34399 12.78368 -0.00381
C 22.07847 11.46382 0.03046
C 24.58382 32.74764 -0.01107
C 23.40491 10.64571 0.0296
C 22.11091 8.61039 -0.02845
C 22.03667 7.18045 -0.03213
C 23.23082 6.47796 0.02239
C 23.32147 5.08117 0.01153
C 22.08393 4.30964 0.02734
C 22.12222 2.84047 -0.0055
C 23.47099 2.23532 0.01515
C 23.44498 0.77876 -0.00225
C 23.40904 9.17613 0.03374
C 3.69452 31.95869 0.03368
C 24.78005 3.21647 -0.0264
C 25.89632 0.9209 0.00684
C 28.26001 10.5152 -0.00621
C 28.21212 9.03994 0.02611
C 26.87265 8.24712 0.02198
C 26.8553 6.61832 0.01094
C 28.09206 6.00955 0.00235
C 28.08463 4.5427 0.01495
C 27.35144 3.20907 0.01259
C 28.3991 2.19978 0.01799
C 26.97648 11.26444 0.00194
C 28.29484 0.86364 0.01699
C 29.43085 32.63669 0.01177
C 30.66573 31.92476 0.04266
C 30.56018 30.59272 0.01324
C 29.34893 29.96528 0.0014
C 29.35438 28.54889 0.00924
C 30.57266 27.76111 0.02326
C 30.6317 26.2928 0.00261
C 29.402 25.57612 0.03265
C 27.07184 0.16977 -0.00416
C 26.08234 2.42617 -0.01154
C 27.01351 12.70891 0.04185
C 28.22755 14.86059 0.01257
C 24.64223 0.11866 -0.01052
C 27.00221 32.81321 -0.01679
C 28.10452 32.0099 0.00367
C 28.08261 30.61943 0.04306
C 26.89439 29.8546 0.00996
C 26.89294 28.475 0.00195
C 28.16858 27.7894 -0.00802
C 28.15761 26.31013 -0.00218
C 28.25973 13.42025 0.02316
C 26.93228 25.64868 -0.01654
C 28.24552 23.47862 -0.0032
C 28.20497 22.04027 0.00622
C 26.97422 21.35871 -0.02815
C 26.97041 19.95505 -0.00942
C 28.23671 19.18289 0.00487
C 28.26687 17.74175 0.00826
C 27.06808 17.03984 -0.00294
C 26.95337 15.57181 0.00152
C 26.9904 24.2363 -0.00037
C 2.36589 32.61648 -0.00077
