436
Graphene
C 0.04955 34.01504 0.01295
C 13.48553 22.0984 0.02339
C 12.29053 21.31745 0.01641
C 12.30808 19.91972 -0.00719
C 13.44574 19.19758 0.01364
C 13.48909 17.73929 -0.01062
C 12.20181 17.06018 -0.00033
C 12.26667 15.70094 0.03589
C 13.49839 14.93533 -0.02759
C 13.56313 13.58574 0.0402
C 12.28239 12.91979 0.00572
C 12.28494 11.42871 0.03592
C 13.52293 10.68306 0.00406
C 13.47134 9.2207 0.00943
C 12.24724 8.51907 0.02841
C 12.28987 7.01316 -0.01111
C 13.45242 6.45557 -0.01275
C 13.51314 5.06172 0.00985
C 12.32085 4.37961 -0.02245
C 12.16752 2.95998 -0.00428
C 13.52971 2.17626 0.03101
C 13.43072 0.7154 -0.01536
C 12.17851 0.01995 -0.02689
C 14.73238 32.67309 -0.01046
C 13.52912 23.47548 -0.00334
C 15.91957 31.94664 -0.00891
C 12.20664 24.25791 -0.01634
C 13.53368 26.3557 0.00093
C 9.73546 17.08984 -0.00892
C 9.84708 15.65045 -0.01362
C 11.04409 14.93307 -0.0008
C 11.05999 13.48651 0.0288
C 9.87398 12.76056 0.00393
C 9.80238 11.39433 0.00895
C 11.11126 10.62546 0.00685
C 10.99259 9.28463 0.02888
C 9.76059 8.59613 -0.00482
C 9.78879 7.13302 -0.01384
C 10.9942 6.47119 0.03693
C 11.06034 5.0623 0.01745
C 9.82281 4.28117 0.00488
C 9.74876 2.8921 -0.01004
C 11.04361 2.21287 -0.02896
C 10.95131 0.80159 -0.00131
C 9.69402 0.04785 -0.01118
C 12.22489 32.6871 -0.014
C 13.47641 31.94102 0.02147
C 13.54528 30.48595 0.00373
C 12.27521 29.88361 -0.00191
C 12.30243 28.48494 0.00438
C 13.52074 27.75196 0.01291
C 12.30759 25.62772 0.00057
C 15.95 30.56861 0.02819
C 14.72781 29.78186 0.00165
C 14.72948 28.36874 -0.02971
C 18.40245 31.99755 -0.0108
C 18.33115 30.5384 -0.00368
C 17.21002 29.85344 -0.02696
C 17.17196 28.40563 -0.00114
C 18.37779 27.6783 0.00228
C 18.39664 26.32928 0.00798
C 17.18588 25.60373 0.00422
C 17.25506 24.16172 0.0351
C 18.43126 23.45953 -0.03113
C 18.34575 22.02096 0.02098
C 17.1238 21.26461 0.01848
C 17.21743 19.88741 -0.00619
C 18.46967 19.18757 -0.02162
C 18.46742 17.74066 0.00889
C 17.14922 17.08761 -0.00481
C 17.16217 15.68723 0.00979
C 18.35658 14.89523 0.01443
C 18.39911 13.4684 0.03505
C 17.20715 12.72716 -0.02815
C 17.19914 11.28851 -0.04147
C 18.46687 10.58821 -0.05302
C 18.53582 9.19631 0.00213
C 17.26755 8.55219 -0.00066
C 17.2559 32.75405 -0.01957
C 14.65857 34.07604 0.02058
C 15.8773 0.68954 0.01965
C 16.00134 2.1297 -0.03682
C 15.93821 27.688 0.02894
C 15.95999 26.28591 -0.01789
C 14.71063 25.64404 0.00444
C 14.75631 24.21168 -0.00925
C 15.90893 23.45831 0.01877
C 15.88047 22.02543 0.01363
C 14.75243 21.28695 -0.02162
C 14.75445 19.90349 0.00415
C 15.97501 19.20967 -0.0014
C 15.93329 17.87113 0.02162
C 14.7743 17.08289 0.0076
C 10.96848 17.77623 -0.04848
C 14.69035 15.6602 0.01241
C 15.94368 13.43981 0.01945
C 14.71185 12.76915 0.01416
C 14.70101 11.393 0.03542
C 15.93745 10.67167 0.02299
C 15.95972 9.20134 0.00244
C 14.72422 8.54855 -0.01717
C 14.67703 7.10656 0.05265
C 15.92604 6.37418 -0.01952
C 15.97982 4.98027 -0.02813
C 14.74152 4.29996 0.00374
C 14.73159 2.76874 0.00052
C 15.91938 14.92936 -0.01454
C 17.22854 7.03725 -0.00289
C 11.02912 19.15403 0.01572
C 9.77888 21.32361 0.03007
C 3.76197 2.08875 -0.02375
C 3.6808 0.64834 0.00558
C 2.46452 34.05636 -0.0059
C 4.95844 32.6643 -0.01386
C 6.15315 31.92087 -0.02805
C 6.19786 30.55073 0.00081
C 4.88098 29.8624 0.00245
C 4.91008 28.40419 0.02728
C 6.08563 27.7764 -0.00039
C 6.13636 26.29099 0.0064
C 4.95172 25.5928 0.00211
C 4.88968 24.05572 -0.00449
C 6.09405 23.36798 -0.01979
C 6.12465 21.99465 0.02784
C 4.82693 21.34013 -0.01977
C 4.80212 19.99132 -0.00561
C 6.11234 19.24774 0.00208
C 6.04402 17.8192 0.01707
C 4.88131 17.17486 0.02769
C 4.84313 15.63497 -0.03291
C 6.08712 14.99412 -0.04999
C 6.05725 13.56608 0.04505
C 4.7272 12.81059 0.03284
C 2.46431 2.86056 0.00828
C 4.88704 11.42039 -0.04307
C 2.42231 4.20279 0.00088
C 3.69486 6.40644 -0.00177
C 3.70802 30.57017 0.01984
C 2.53804 29.87135 0.00535
C 2.49626 28.37155 -0.00198
C 3.65027 27.60991 -0.00012
C 3.67041 26.23889 -0.04306
C 2.46788 25.49115 -0.03672
C 2.48002 24.11229 0.01913
C 3.66336 23.35446 0.00267
C 3.53834 22.02339 0.00787
C 2.29987 21.30059 0.02426
C 2.38738 19.87013 0.01218
C 3.63973 19.308 -0.01471
C 3.57785 17.79497 -0.02827
C 2.3358 17.02303 0.01078
C 2.34437 15.65128 -0.00112
C 3.58007 14.97374 0.03345
C 3.57946 13.51101 0.00748
C 2.34783 12.75008 0.00662
C 2.27138 11.36961 -0.0154
C 3.66066 10.71657 -0.01299
C 3.66045 9.23233 -0.00407
C 2.35283 8.50939 0.01138
C 2.45126 7.11177 0.03278
C 3.69445 5.04725 0.04421
C 6.11544 10.78592 0.03189
C 6.1804 9.37241 0.00031
C 4.93827 8.58685 -0.003
C 7.31487 11.45964 -0.01343
C 8.5174 10.73369 0.00988
C 8.58259 9.32653 0.0276
C 7.35422 8.62031 0.01305
C 7.37757 7.14013 -0.00077
C 8.62188 6.42814 0.03368
C 8.5586 5.03319 -0.02929
C 7.37959 4.38786 -0.00966
C 7.30334 2.91862 -0.03337
C 8.49931 2.18657 0.01227
C 8.55547 0.77816 0.00873
C 7.34263 0.007 -0.00049
C 9.75896 32.71617 0.00848
C 10.99575 32.04457 -0.01303
C 11.03172 30.63293 -0.01378
C 9.8668 29.83182 0.02635
C 9.79987 28.47905 0.0127
C 10.98772 27.71395 0.01396
C 11.08386 26.24857 0.01849
C 9.83466 25.55182 -0.01142
C 9.82497 24.10178 -0.00562
C 11.0661 23.44335 -0.00494
C 11.0692 22.00661 0.00054
C 7.40068 12.8982 0.01087
C 8.62264 13.5673 -0.05697
C 8.64086 14.99474 -0.00725
C 7.40727 15.73233 0.02322
C 4.99018 7.2076 0.01402
C 6.14427 6.50616 0.02379
C 6.0808 5.00709 0.00907
C 4.92158 4.32277 0.00643
C 4.89874 2.88622 -0.01509
C 6.08302 2.22865 0.03267
C 6.12096 0.75989 0.02374
C 4.90839 34.05678 0.00402
C 7.27529 32.69504 0.0073
C 8.50976 31.95466 0.0174
C 8.56655 30.55791 0.03828
C 9.82869 19.91223 -0.00095
C 7.42165 29.81623 0.01226
C 8.61867 27.76401 0.01996
C 8.52551 26.39985 -0.03996
C 7.37561 25.62971 0.01465
C 7.32258 24.17894 -0.00074
C 8.63594 23.42676 -0.00518
C 8.58069 22.04499 0.0086
C 7.37674 21.27766 -0.00643
C 7.35311 19.90687 0.017
C 8.58164 19.25017 -0.03113
C 8.49734 17.82071 -0.02566
C 7.29354 17.08313 -0.00094
C 7.33097 28.51287 -0.00279
C 18.42065 6.41975 0.00028
C 18.3497 5.00979 -0.02213
C 17.17731 4.27379 0.03698
C 30.68595 14.87226 -0.0405
C 30.66241 13.3235 -0.01303
C 29.38987 12.59299 -0.01461
C 29.5158 11.18914 -0.02155
C 30.82058 10.54287 -0.00944
C 30.68762 9.20114 -0.03735
C 29.34295 8.57953 -0.00971
C 29.29423 7.18426 0.01518
C 30.55775 6.3179 0.01908
C 30.56741 4.89181 0.07705
C 29.46876 4.05102 0.0103
C 29.53839 2.79143 0.02108
C 30.7873 2.03997 0.00716
C 30.78381 0.61866 0.00307
C 29.53194 34.03025 0.00346
C 31.93311 32.5914 0.01713
C 33.1786 31.94166 -0.01694
C 33.21144 30.44943 0.01428
C 31.93448 29.79751 -0.02142
C 31.89717 28.3705 0.0544
C 33.13406 27.66002 0.00026
C 33.1224 26.24408 0.00682
C 31.97999 25.52678 -0.01779
C 29.39112 15.47875 0.01705
C 31.89938 24.18012 0.03794
C 29.35267 16.93245 0.0101
C 30.66105 19.14733 0.03531
C 26.95558 15.55994 -0.00621
C 28.1578 14.70612 0.02611
C 28.21277 13.24613 0.02198
C 26.96343 12.54305 0.01094
C 27.01059 10.86549 0.00235
C 28.34937 10.30237 0.01495
C 27.13408 2.90062 0.01259
C 28.25869 2.10376 0.01799
C 28.26622 0.65764 0.01699
C 27.05427 34.05021 -0.00416
C 29.5079 32.62318 0.01177
C 30.74752 31.89844 0.04266
C 30.68183 30.5786 0.01324
C 29.47391 29.86867 0.0014
C 29.48895 28.49 0.00924
C 30.69243 27.69902 0.02326
C 30.71048 26.27371 0.00261
C 29.484 25.62924 0.03265
C 29.44598 24.21662 -0.02049
C 30.63803 23.49091 -0.01854
C 30.66712 22.09625 -0.01415
C 29.51782 21.29789 -0.03039
C 29.54711 19.82184 0.01836
C 30.61374 17.68829 -0.00669
C 33.18217 23.43968 0.01927
C 33.16939 22.04347 0.01574
C 31.96797 21.3248 -0.02383
C 34.42157 24.16035 0.03076
C 1.18889 23.47064 0.00723
C 1.14725 22.06443 0.02712
C 34.39553 21.33072 -0.02213
C 34.40539 19.90444 0.01951
C 1.19853 19.14062 -0.01678
C 1.09942 17.69195 0.01223
C 34.31244 17.03475 0.00648
C 34.20774 15.58182 0.02114
C 1.09437 14.92554 -0.02957
C 1.105 13.53775 0.00343
C 34.29461 12.72009 -0.02656
C 34.36217 11.30432 -0.02442
C 1.11269 10.57089 -0.00027
C 1.14185 9.16605 -0.00583
C 34.37945 8.53356 -0.02302
C 34.35123 7.05796 -0.02849
C 1.11924 6.37441 0.02931
C 1.16946 4.94275 0.00628
C 34.39199 4.14351 -0.0345
C 0.02239 2.77028 -0.00931
C 1.22495 2.11818 -0.00939
C 1.2615 0.65463 -0.00468
C 34.43203 25.58619 -0.05239
C 1.24524 26.24588 -0.00598
C 1.15833 27.66056 -0.00439
C 34.4186 28.35192 -0.01037
C 31.92843 19.91097 -0.01429
C 33.17754 19.26792 -0.0136
C 33.10117 17.80642 0.00594
C 31.90573 17.01329 -0.02474
C 31.8685 15.58754 0.00369
C 33.02783 14.79608 0.00455
C 33.12686 13.37578 -0.00644
C 31.90299 12.75299 -0.01839
C 31.97089 11.32229 0.00137
C 33.13165 10.53355 0.00199
C 33.05903 9.1617 0.04381
C 26.97557 16.98868 0.00194
C 31.83025 8.40424 0.02806
C 33.13997 6.29403 -0.00069
C 33.0575 4.94123 0.04926
C 31.86135 4.2157 -0.03838
C 31.99143 2.79696 0.00349
C 33.18877 2.09811 -0.00323
C 33.19598 0.69261 -0.00841
C 32.04279 34.05389 0.0001
C 0.06562 32.59927 -0.02927
C 1.28211 31.92728 -0.01404
C 1.21159 30.51314 0.01027
C 34.40001 29.74363 0.01831
C 31.84694 6.97376 0.01504
C 28.21709 17.6787 0.04185
C 28.29487 19.1051 0.02316
C 27.0283 19.85639 0.01257
C 19.60649 7.12864 -0.00652
C 20.85693 6.40762 0.0058
C 20.74788 5.07073 -0.00865
C 19.53025 4.334 0.00675
C 19.65273 2.87228 -0.00311
C 20.90672 2.17296 0.00742
C 20.90244 0.77922 -0.01594
C 19.61299 34.07564 0.0106
C 22.12608 32.63985 -0.01154
C 23.36106 31.99211 -0.01721
C 23.30192 30.57018 -0.02422
C 22.13791 29.8008 0.01277
C 22.09893 28.44217 0.00096
C 23.33926 27.62489 -0.01527
C 23.29615 26.27338 0.01087
C 22.12493 25.57506 0.00199
C 22.15021 24.18516 0.01511
C 23.28563 23.40051 -0.00478
C 23.36525 22.06158 -0.01662
C 22.01533 21.21887 -0.01185
C 22.15062 19.7933 0.01126
C 23.32038 19.08741 0.01852
C 23.35947 17.74823 -0.00381
C 19.78417 8.49196 -0.04076
C 20.98349 9.12198 -0.00703
C 20.89184 10.55412 0.00654
C 19.72121 11.33768 -0.04422
C 17.17404 2.86139 -0.00109
C 18.56128 2.22045 -0.00491
C 18.45523 0.75309 0.03338
C 17.2871 0.0339 -0.0258
C 19.63119 32.68574 -0.0331
C 20.8432 31.95166 -0.00316
C 20.79401 30.58089 0.02188
C 19.56308 29.93949 -0.01979
C 19.58362 28.47535 0.02691
C 20.80858 27.77734 -0.01581
C 20.84734 26.22984 0.01452
C 22.13017 17.09009 0.03046
C 19.63286 25.61642 0.04892
C 20.78083 23.37284 -0.03557
C 20.816 21.97153 0.03754
C 19.60586 21.33569 0.01739
C 19.63813 19.92947 0.00755
C 20.89665 19.16739 -0.0054
C 20.88222 17.78872 0.00667
C 19.66673 17.00932 0.00143
C 19.56216 15.52081 -0.017
C 20.8583 14.92484 0.00364
C 20.82326 13.54852 -0.00831
C 19.6668 12.78641 -0.02957
C 19.64333 24.16046 -0.00111
C 3.74245 31.97455 0.01073
C 22.16088 15.65256 0.0296
C 23.34243 13.53561 -0.02845
C 24.5727 15.55653 -0.00229
C 25.81655 14.84216 -0.00938
C 25.78119 13.42389 -0.0264
C 24.57905 12.81513 -0.01154
C 24.53847 11.32341 0.00684
C 25.64316 10.47622 -0.01052
C 24.45318 4.55092 -0.01679
C 24.53345 3.02379 0.00367
C 25.85373 2.30688 0.04306
C 25.78795 0.84433 0.00996
C 24.59851 0.15254 0.00195
C 27.04698 32.65921 -0.00802
C 28.25154 31.93006 -0.00218
C 28.24168 30.53829 -0.01654
C 26.96022 29.91076 -0.00037
C 26.97906 28.4714 -0.0032
C 28.24151 27.69559 0.00622
C 28.23715 26.32458 -0.02815
C 27.07239 25.604 -0.00942
C 27.04861 24.16941 0.00487
C 28.29374 23.54895 0.00826
C 28.31964 22.03928 -0.00294
C 27.02291 21.32728 0.00152
C 24.6396 16.96423 -0.01199
C 25.78416 17.74572 -0.009
C 25.84083 19.206 -0.00285
C 24.5183 19.85038 0.01423
C 21.99634 12.8315 -0.03213
C 22.04454 11.3353 0.02239
C 23.33642 10.76042 0.01153
C 23.41613 9.19873 0.02734
C 22.37634 8.25177 -0.0055
C 22.26267 6.86034 0.01515
C 23.10644 5.15998 -0.00225
C 21.97246 4.37589 0.00071
C 22.06305 3.00116 -0.01107
C 23.3458 2.33735 -0.01586
C 23.39236 0.85424 -0.01971
C 23.34785 14.95616 0.03374
C 22.11214 0.02995 -0.02118
C 25.79935 32.01585 -0.00178
C 25.72803 30.62415 0.00768
C 24.57421 29.87425 -0.0276
C 24.53957 28.43743 0.03005
C 25.71782 27.76097 -0.04078
C 25.86161 26.29614 0.02117
C 24.61598 25.551 0.02737
C 24.55691 24.10531 -0.00498
C 25.81433 23.41851 0.00135
C 25.78738 22.02842 0.03102
C 24.48726 21.25073 0.02555
C 24.57203 32.79898 0.00733
C 2.4827 32.61735 -0.00018
