292
Graphene
C 34.32696 0.10643 0.01295
C 13.49915 30.56645 -0.0054
C 12.31333 29.78974 0.00667
C 12.29382 28.34186 0.00143
C 13.55705 27.59147 -0.017
C 13.64446 26.20412 0.00364
C 12.39038 25.48471 -0.00831
C 13.32942 32.09973 0.00755
C 12.3507 24.06542 -0.02957
C 14.54791 32.75819 0.00654
C 15.86122 32.14636 -0.00703
C 15.93588 30.72769 -0.04076
C 14.77836 29.84889 -0.00652
C 14.72609 28.36485 0.0058
C 15.98049 27.67923 -0.00865
C 11.44475 33.9829 -0.04422
C 16.02517 26.29251 0.00675
C 12.05856 32.73439 0.01739
C 11.0475 23.60895 -0.03557
C 7.05312 4.11803 0.03698
C 7.58278 2.92641 -0.00109
C 8.7202 2.08356 -0.00491
C 8.73361 0.60845 0.03338
C 7.38803 0.0205 -0.0258
C 9.8514 32.5471 -0.0331
C 9.91566 33.84835 0.03754
C 11.09572 31.79274 -0.00316
C 9.7901 29.76036 -0.01979
C 9.82608 28.35246 0.02691
C 11.07451 27.62994 -0.01581
C 11.13338 26.20176 0.01452
C 9.85963 25.57743 0.04892
C 9.80646 24.1704 -0.00111
C 11.05876 30.46516 0.02188
C 14.8418 25.53154 -0.00311
C 15.386 23.99868 0.00742
C 15.96785 0.71953 -0.01594
C 20.90661 27.80902 -0.02845
C 20.90923 26.37377 -0.03213
C 19.659 25.5822 0.02239
C 19.5071 24.26241 0.01153
C 20.79609 23.40732 0.02734
C 20.87762 22.01831 -0.0055
C 19.64438 28.54215 0.03374
C 20.37423 2.23101 0.01515
C 19.69025 34.0096 0.00071
C 22.15833 32.67225 -0.01107
C 23.34223 32.1858 -0.01586
C 23.35685 30.72012 -0.01971
C 22.11 29.95323 -0.02118
C 22.16053 28.53823 0.00733
C 20.88166 0.53907 -0.00225
C 19.68969 29.9104 0.0296
C 20.86934 30.66641 0.03046
C 20.83141 32.05798 -0.00381
C 14.79489 0.21061 0.0106
C 17.17666 32.78616 -0.01154
C 18.37088 31.9969 -0.01721
C 18.39559 30.56987 -0.02422
C 17.11459 29.98736 0.01277
C 17.15377 28.48042 0.00096
C 18.44149 27.79804 -0.01527
C 18.41978 26.4145 0.01087
C 17.2995 25.65508 0.00199
C 17.11764 24.21072 0.01511
C 18.21693 23.4483 -0.00478
C 19.15969 2.14621 -0.01662
C 18.52628 0.91676 -0.01185
C 17.32281 0.20893 0.01126
C 19.58768 32.6778 0.01852
C 7.42849 7.04985 -0.02213
C 23.37648 27.78996 -0.00178
C 7.3035 8.27644 0.00028
C 8.30222 22.00757 -0.00066
C 2.49393 11.52281 -0.02971
C 3.74331 10.79458 0.02894
C 3.78113 9.3285 -0.01789
C 2.57948 8.57018 0.00444
C 2.47085 7.14731 -0.00925
C 3.72083 6.38067 0.01877
C 2.51282 12.94884 0.00165
C 3.59924 4.96083 0.01363
C 2.35712 2.84937 0.00415
C 3.59993 2.13959 -0.0014
C 3.66515 0.73241 0.02162
C 2.40555 0.04226 0.0076
C 4.93342 32.7162 0.01241
C 6.17836 32.02005 -0.01454
C 2.34542 4.2458 -0.02162
C 6.06839 30.53812 0.01945
C 3.75771 13.57465 0.02819
C 2.38801 15.65415 -0.01046
C 3.58717 30.60661 0.0402
C 2.42865 29.86972 0.00572
C 2.37412 28.44583 0.03592
C 3.64655 27.7763 0.00406
C 3.63341 26.37249 0.00943
C 2.43219 25.6253 0.02841
C 3.6523 15.00805 -0.00891
C 2.40764 24.2882 -0.01111
C 3.63972 22.08674 0.00985
C 2.38427 21.42712 -0.02245
C 2.41377 20.03879 -0.00428
C 3.56596 19.17557 0.03101
C 3.69458 17.85128 -0.01536
C 2.46233 17.1385 -0.02689
C 3.69701 23.58473 -0.01275
C 4.83517 29.93074 0.01416
C 4.89503 28.61799 0.03542
C 6.08829 27.77876 0.02299
C 4.90629 2.87601 -0.03113
C 6.22689 2.16411 0.02098
C 6.23215 0.7806 0.01848
C 4.94806 0.08148 -0.00619
C 7.44384 32.64289 -0.02162
C 8.57924 31.82613 0.00889
C 4.81533 4.26483 0.0351
C 8.5701 30.45135 -0.00481
C 7.3451 28.56294 0.01443
C 8.52953 27.7334 0.03505
C 8.58299 26.34141 -0.02815
C 7.3349 25.6733 -0.04147
C 7.42741 24.17323 -0.05302
C 8.64003 23.33827 0.00213
C 7.27206 29.95355 0.00979
C 6.00255 4.88833 0.00422
C 6.14141 6.40939 0.00798
C 5.0376 7.11927 0.00228
C 6.09081 26.43948 0.00244
C 4.87268 25.64389 -0.01717
C 4.85476 24.26613 0.05265
C 6.17046 23.52442 -0.01952
C 6.09165 22.0322 -0.02813
C 4.84378 21.40756 0.00374
C 4.88125 19.99596 0.00052
C 6.03906 19.39012 -0.03682
C 4.86617 17.09988 0.01965
C 4.86444 15.75734 0.02058
C 4.9851 12.9628 -0.01957
C 5.13849 11.58591 -0.0108
C 6.07404 10.6113 -0.00368
C 6.29283 9.37968 -0.02696
C 4.99409 8.61287 -0.00114
C 7.18141 21.15903 -0.00289
C 23.34871 26.26099 0.00768
C 22.00599 25.58044 -0.0276
C 22.00133 24.15718 0.03005
C 31.88067 19.88028 -0.01429
C 33.10697 19.2024 -0.0136
C 33.16975 17.79379 0.00594
C 31.88636 17.07863 -0.02474
C 31.87412 15.59955 0.00369
C 33.15304 14.8993 0.00455
C 31.89127 21.28363 -0.02383
C 33.11296 13.51463 -0.00644
C 31.88477 11.25974 0.00137
C 33.16277 10.67283 0.00199
C 33.29989 9.28564 0.04381
C 32.05755 8.56595 0.02806
C 31.98345 7.10537 0.01504
C 33.20695 6.45442 -0.00069
C 31.92066 12.78292 -0.01839
C 33.05069 5.12005 0.04926
C 33.09764 22.00063 0.01574
C 31.92428 24.11811 0.03794
C 30.38357 5.20995 0.07705
C 29.23728 4.36582 0.0103
C 29.12323 2.97754 0.02108
C 30.56094 2.2982 0.00716
C 30.52393 0.80197 0.00307
C 29.34782 0.08103 0.00346
C 33.11065 23.39357 0.01927
C 31.86059 32.75369 0.01713
C 33.04696 30.59118 0.01428
C 31.92898 29.85349 -0.02142
C 31.86347 28.46095 0.0544
C 33.12009 27.70726 0.00026
C 33.13136 26.28474 0.00682
C 31.98413 25.53954 -0.01779
C 33.06403 32.00885 -0.01694
C 31.71834 4.51185 -0.03838
C 31.79242 3.00219 0.00349
C 33.01748 2.25957 -0.00323
C 1.11708 14.98443 -0.02957
C 1.1944 13.54321 0.00343
C 34.40956 12.79116 -0.02656
C 0.00871 11.35718 -0.02442
C 1.30387 10.69155 -0.00027
C 1.323 9.2668 -0.00583
C 34.33975 15.63111 0.02114
C 0.05575 8.57452 -0.02302
C 1.24355 6.4852 0.02931
C 1.12827 5.01707 0.00628
C 34.27855 4.34454 -0.0345
C 34.28359 2.94659 -0.00931
C 1.08169 2.19655 -0.00939
C 1.13179 0.82395 -0.00468
C 0.03905 7.1988 -0.02849
C 34.41678 17.06428 0.00648
C 1.2388 17.84184 0.01223
C 1.18198 19.2474 -0.01678
C 33.06313 0.84334 -0.00841
C 31.85267 0.04685 0.0001
C 34.2925 32.79574 -0.02927
C 1.09878 32.05713 -0.01404
C 1.09402 30.64095 0.01027
C 34.32167 29.89412 0.01831
C 34.30426 28.41694 -0.01037
C 1.13911 27.73053 -0.00439
C 1.15793 26.31265 -0.00598
C 34.42441 25.60108 -0.05239
C 34.35334 24.17765 0.03076
C 1.14338 23.56548 0.00723
C 1.16283 22.07132 0.02712
C 34.35545 21.34382 -0.02213
C 34.38059 19.85942 0.01951
C 30.63751 6.63611 0.01908
C 30.85886 9.12336 0.01518
C 30.601 10.53998 -0.00971
C 29.56193 11.38917 -0.03735
C 24.37815 21.23963 0.04306
C 24.32974 19.71195 0.00996
C 25.56384 19.00323 0.00195
C 25.60955 17.64632 -0.00802
C 24.23262 16.8546 -0.00218
C 24.48525 15.52125 -0.01654
C 25.69078 22.0601 0.00367
C 25.79219 15.03738 -0.00037
C 24.46368 0.29916 0.00622
C 27.01468 32.749 -0.02815
C 28.22079 31.96468 -0.00942
C 28.19615 30.59187 0.00487
C 26.9433 29.80135 0.00826
C 26.98478 28.42799 -0.00294
C 25.75097 0.84199 -0.0032
C 25.72119 23.41219 -0.01679
C 24.52471 24.12141 -0.01052
C 24.56597 25.56044 0.00684
C 23.20556 23.46448 -0.04078
C 23.13359 21.92952 0.02117
C 21.90364 21.09072 0.02737
C 21.93329 19.73024 -0.00498
C 23.1156 18.94489 0.00135
C 23.06894 17.57122 0.03102
C 23.30617 0.98199 0.02555
C 22.24132 0.05977 0.01423
C 24.52239 32.89955 -0.00285
C 25.69353 32.09493 -0.009
C 25.75179 30.71563 -0.01199
C 24.56393 29.96424 -0.00229
C 24.60302 28.46619 -0.00938
C 25.76139 27.70039 -0.0264
C 25.78313 26.31242 -0.01154
C 28.193 27.77447 0.00152
C 3.6231 32.00985 -0.02759
C 28.21647 26.27342 0.01257
C 26.98556 24.0636 0.04185
C 30.7125 26.2563 -0.02049
C 29.43866 25.5759 -0.01854
C 29.42854 24.15472 -0.01415
C 30.67241 23.44272 -0.03039
C 30.63991 21.99698 0.01836
C 29.36029 21.25656 0.03531
C 30.70273 27.69002 0.03265
C 29.38588 19.87792 -0.00669
C 30.65553 17.81108 0.01705
C 29.3947 16.98143 -0.0405
C 29.4431 15.61602 -0.01303
C 30.62486 14.82699 -0.01461
C 30.61441 13.43413 -0.02155
C 29.32351 12.71483 -0.00944
C 30.63265 19.20613 0.0101
C 29.48323 28.42877 0.00261
C 29.45239 29.86223 0.02326
C 30.71006 30.60158 0.00924
C 28.16218 23.44003 0.00194
C 28.14317 22.03595 -0.00621
C 26.87749 21.31152 0.02611
C 26.9513 19.89915 0.02198
C 28.16634 19.19857 0.01094
C 28.18149 17.61881 0.00235
C 26.915 16.99048 0.01495
C 26.97308 15.58274 0.01259
C 28.15284 14.81702 0.01799
C 28.11127 13.37819 0.01699
C 28.11493 2.09485 -0.00416
C 28.16819 0.78911 0.01177
C 26.87453 0.1305 0.04266
C 29.36845 32.7036 0.01324
C 30.62547 32.00615 0.0014
C 27.00504 25.54011 0.02316
C 2.36989 32.71709 0.03589
