377
Graphene
C 34.34907 0.0202 0.01295
C 13.12927 10.70236 0.03542
C 13.53426 5.04889 0.02299
C 12.35431 4.34302 0.00244
C 12.33984 2.86013 -0.01717
C 13.5505 2.17514 0.05265
C 13.59788 0.76764 -0.01952
C 12.34887 34.07505 -0.02813
C 14.78343 32.68602 0.00374
C 15.99141 31.88419 0.00052
C 15.94602 30.4902 -0.03682
C 14.78119 29.82367 0.01965
C 14.76183 28.40084 0.02058
C 15.94504 27.55724 -0.01957
C 15.95977 26.19146 -0.0108
C 14.71493 25.47215 -0.00368
C 14.65048 23.97285 -0.02696
C 15.87356 23.31678 -0.00114
C 15.8947 21.90715 0.00228
C 14.80115 21.16653 0.00798
C 12.14826 21.2329 0.01416
C 13.47419 21.73283 0.01945
C 13.44178 23.1615 -0.01454
C 12.28877 24.10056 0.01241
C 9.75299 21.46328 -0.00428
C 9.69116 19.97627 0.03101
C 12.005 10.77902 -0.01536
C 9.86673 8.63283 -0.02689
C 10.06682 7.20625 -0.01046
C 11.15767 6.39083 -0.00891
C 11.02912 4.95512 0.02819
C 9.79876 4.25092 0.00165
C 9.85929 2.81638 -0.02971
C 15.78731 13.57257 0.00422
C 11.13577 2.19849 0.02894
C 9.86127 0.08812 0.00444
C 12.30061 32.69746 -0.00925
C 13.56384 32.01606 0.01877
C 13.5617 30.53453 0.01363
C 12.2732 29.80435 -0.02162
C 12.33118 28.28673 0.00415
C 13.54754 27.62581 -0.0014
C 13.52667 26.20478 0.02162
C 12.31404 25.51615 0.0076
C 11.14031 0.71861 -0.01789
C 11.01132 22.13307 -0.02245
C 14.73919 12.74453 0.0351
C 15.83146 11.00467 0.02098
C 18.47073 13.61675 -0.01979
C 17.13151 13.05958 0.02691
C 17.23949 11.6611 -0.01581
C 18.6771 11.4902 0.01452
C 17.0111 8.54405 0.04892
C 16.91861 7.27309 -0.00111
C 18.57984 4.7749 -0.03557
C 17.32876 4.10816 0.03754
C 17.31983 2.78033 0.01739
C 18.48963 2.01315 0.00755
C 18.46708 0.63535 -0.0054
C 17.28082 0.02337 0.00667
C 19.67779 32.61447 0.00143
C 20.88952 31.93029 -0.017
C 20.85638 30.47868 0.00364
C 19.65489 29.77615 -0.00831
C 19.609 28.3604 -0.02957
C 20.81754 27.65093 -0.04422
C 20.80557 26.21664 0.00654
C 18.46907 14.92664 0.02188
C 18.44005 17.51516 -0.00316
C 18.14919 18.97879 -0.0331
C 17.0394 19.87086 -0.0258
C 16.30948 9.74421 0.01848
C 16.30243 6.13606 -0.00619
C 16.07986 4.8592 -0.02162
C 14.77149 4.26634 0.00889
C 14.78893 2.85916 -0.00481
C 16.02598 2.22255 0.00979
C 16.02435 0.76033 0.01443
C 14.81127 0.0574 0.03505
C 17.21603 32.65323 -0.02815
C 14.20465 11.4157 -0.03113
C 18.44322 31.89512 -0.04147
C 17.12895 29.74307 0.00213
C 17.15037 28.2854 -0.00066
C 18.4004 27.54205 -0.00289
C 18.3666 26.13404 0.00028
C 17.15497 25.50084 -0.02213
C 17.07414 24.10018 0.03698
C 18.33823 23.43728 -0.00109
C 18.3672 21.95414 -0.00491
C 17.13148 21.21213 0.03338
C 18.38814 30.42705 -0.05302
C 11.03033 23.55299 0.00985
C 9.81015 24.19727 -0.01275
C 9.81416 25.6481 -0.01111
C 3.64166 5.0249 0.00988
C 2.40266 4.30623 0.0276
C 2.398 2.87186 0.01305
C 3.61598 2.20022 -0.00077
C 3.60668 0.72124 0.03368
C 2.34881 0.06101 -0.02929
C 4.87559 32.71122 -0.00966
C 6.18802 31.98118 -0.03337
C 6.13646 30.57116 0.01227
C 4.86425 29.88941 0.00873
C 4.89628 28.51549 -0.00049
C 6.15388 27.75614 0.00848
C 6.10226 26.34646 -0.01303
C 4.92952 25.56342 -0.01378
C 4.85569 24.20748 0.02635
C 6.05791 23.43032 0.0127
C 6.14633 22.05008 0.01396
C 4.86081 21.34953 0.01849
C 4.73994 19.93889 -0.01142
C 3.69757 6.48428 -0.01343
C 2.53139 7.17809 0.01087
C 2.53602 8.67485 -0.05697
C 3.71648 9.38089 -0.00725
C 3.63061 30.70915 0.03267
C 2.38783 29.86445 0.02374
C 2.42485 28.4711 0.00402
C 3.68577 27.7539 0.0073
C 3.68303 26.24637 0.0174
C 2.39101 25.57602 0.03828
C 2.37623 24.23167 0.01226
C 3.68909 23.53565 -0.00279
C 3.5825 22.12643 0.01996
C 6.02089 19.17505 -0.00562
C 2.3937 21.31868 -0.03996
C 3.70221 19.11572 -0.00074
C 3.79679 17.71906 -0.00518
C 2.49018 17.09345 0.0086
C 2.41654 15.68186 -0.00643
C 3.66271 15.00028 0.017
C 3.64337 13.61666 -0.03113
C 2.44068 12.85947 -0.02566
C 2.5556 11.42952 -0.00094
C 3.80115 10.75706 0.02322
C 2.49288 19.87039 0.01465
C 6.17773 17.84313 -0.00494
C 5.04429 16.98238 0.00054
C 4.86195 15.55181 0.03007
C 7.30046 21.37352 0.00438
C 7.24708 19.9797 0.01291
C 8.51696 19.39198 0.00093
C 8.63859 9.16981 0.00057
C 7.45664 8.59321 -0.01634
C 7.43976 7.22478 -0.00334
C 8.70972 6.54022 0.02339
C 8.63789 5.15916 0.01641
C 7.39717 4.42445 -0.00719
C 8.52685 22.09052 -0.00191
C 7.40109 2.94723 0.01364
C 8.54466 0.79567 -0.00033
C 7.32353 0.09446 0.03589
C 9.86274 32.75146 -0.02759
C 11.07594 32.01978 0.0402
C 11.02401 30.60037 0.00572
C 9.84772 29.88659 0.03592
C 9.90943 28.47063 0.00406
C 11.06952 27.67866 0.00943
C 11.10377 26.25085 0.02841
C 8.56864 2.16771 -0.01062
C 19.66081 25.4545 -0.00703
C 8.58168 23.53627 0.00373
C 7.31469 25.6385 -0.014
C 4.85407 13.0437 -0.00095
C 5.09462 11.58167 0.01572
C 6.19361 10.74119 -0.04848
C 6.12898 9.3638 -0.00892
C 4.93491 8.60242 -0.01362
C 4.91895 7.17962 -0.0008
C 6.16008 6.51454 0.0288
C 6.16803 4.99489 0.00393
C 4.85811 4.3012 0.00895
C 7.30595 24.24538 0.02147
C 4.86641 2.86624 0.00685
C 6.11997 0.75286 -0.00482
C 4.90143 0.08097 -0.01384
C 7.35798 32.74866 0.03693
C 8.63686 32.07426 0.01745
C 8.63568 30.64579 0.00488
C 7.38157 29.93506 -0.01004
C 7.38402 28.47891 -0.02896
C 8.61511 27.7544 -0.00131
C 8.53792 26.34122 -0.01118
C 6.15415 2.2173 0.02888
C 3.65662 32.08098 -0.01509
C 19.57855 24.03331 -0.04076
C 20.81822 21.94709 0.0058
C 30.69239 2.2121 0.00716
C 30.73279 0.78476 0.00307
C 29.52899 0.03466 0.00346
C 31.92741 32.63956 0.01713
C 33.12103 31.98251 -0.01694
C 33.08773 30.58713 0.01428
C 31.89218 29.85696 -0.02142
C 31.89676 28.42788 0.0544
C 33.17549 27.72242 0.00026
C 33.16494 26.31535 0.00682
C 31.91902 25.60903 -0.01779
C 31.8813 24.12536 0.03794
C 33.13619 23.44545 0.01927
C 33.15626 22.01053 0.01574
C 31.90499 21.34158 -0.02383
C 31.88637 19.86025 -0.01429
C 33.1393 19.17027 -0.0136
C 33.16763 17.75975 0.00594
C 31.92267 17.03683 -0.02474
C 29.49229 2.85362 0.02108
C 29.42405 4.2746 0.0103
C 30.6447 5.00007 0.07705
C 30.79893 6.435 0.01908
C 30.67104 27.72126 0.02326
C 30.70027 26.3079 0.00261
C 29.45542 25.49891 0.03265
C 29.4826 24.15197 -0.02049
C 30.73004 23.41985 -0.01854
C 30.75546 22.03492 -0.01415
C 29.47415 21.26357 -0.03039
C 29.4464 19.86235 0.01836
C 30.70345 19.16991 0.03531
C 32.00118 15.65626 0.00369
C 30.68668 17.78335 -0.00669
C 29.52687 15.64641 0.01705
C 30.72114 14.91147 -0.0405
C 30.63314 13.48482 -0.01303
C 29.34273 12.79618 -0.01461
C 29.42612 11.40628 -0.02155
C 30.67146 10.7174 -0.00944
C 30.81938 9.22884 -0.03735
C 29.53394 8.56354 -0.00971
C 29.56091 7.14292 0.01518
C 29.49341 17.02591 0.0101
C 29.47583 28.36103 0.00924
C 33.22038 14.92361 0.00455
C 31.94319 12.76269 -0.01839
C 34.36561 19.95415 0.01951
C 1.18582 19.20142 -0.01678
C 1.22902 17.78018 0.01223
C 34.38582 17.07613 0.00648
C 34.42342 15.64303 0.02114
C 1.17657 14.95082 -0.02957
C 1.17662 13.50785 0.00343
C 34.38953 12.89491 -0.02656
C 0.02386 11.43187 -0.02442
C 1.21347 10.65717 -0.00027
C 1.16346 9.28484 -0.00583
C 34.41177 8.53063 -0.02302
C 34.40851 7.08201 -0.02849
C 1.25849 6.44256 0.02931
C 1.10224 5.02757 0.00628
C 34.38322 4.29977 -0.0345
C 34.39524 2.88802 -0.00931
C 1.13869 2.17088 -0.00939
C 1.09286 0.78836 -0.00468
C 34.40998 21.37224 -0.02213
C 1.23202 22.04082 0.02712
C 1.20791 23.48184 0.00723
C 34.41255 24.16692 0.03076
C 31.90951 11.37559 0.00137
C 33.23971 10.69616 0.00199
C 33.26851 9.2509 0.04381
C 32.05126 8.61616 0.02806
C 32.02882 7.16372 0.01504
C 33.18237 6.36355 -0.00069
C 33.15559 4.89259 0.04926
C 31.89926 4.29917 -0.03838
C 31.89885 2.87522 0.00349
C 33.17011 13.5355 -0.00644
C 33.19121 2.11723 -0.00323
C 31.91233 33.98531 0.0001
C 34.37273 32.7008 -0.02927
C 1.13264 32.00408 -0.01404
C 1.08707 30.60732 0.01027
C 34.30046 29.89828 0.01831
C 34.38004 28.44837 -0.01037
C 1.22132 27.7711 -0.00439
C 1.17995 26.34385 -0.00598
C 34.39902 25.59504 -0.05239
C 33.12026 0.64484 -0.00841
C 29.46539 29.75924 0.0014
C 30.65578 30.5279 0.01324
C 30.64591 31.99944 0.04266
C 23.24946 21.93248 -0.02845
C 22.0387 21.28408 -0.03213
C 21.94225 19.81608 0.02239
C 23.20333 19.11763 0.01153
C 23.25429 17.69733 0.02734
C 22.07501 16.82372 -0.0055
C 22.13676 15.34336 0.01515
C 23.44288 14.71787 -0.00225
C 24.20851 13.41537 0.00071
C 22.18709 2.74484 -0.01107
C 23.45429 2.16295 -0.01586
C 23.43667 0.74429 -0.01971
C 22.20254 34.0058 -0.02118
C 24.52924 32.63827 0.00733
C 25.72807 31.92816 -0.00178
C 25.86284 30.48584 0.00768
C 24.57888 29.81785 -0.0276
C 24.52938 28.36683 0.03005
C 25.76305 27.57808 -0.04078
C 23.19631 23.36436 0.03374
C 22.00022 24.09697 0.0296
C 22.08785 25.5288 0.03046
C 23.33332 26.21981 -0.00381
C 19.57859 21.20066 -0.00865
C 19.44214 19.75742 0.00675
C 20.72385 19.14527 -0.00311
C 20.85581 17.66164 0.00742
C 19.70081 16.88671 -0.01594
C 19.72728 15.47017 0.0106
C 20.82171 14.70393 -0.01154
C 20.55853 13.18534 -0.01721
C 19.41328 12.49478 -0.02422
C 25.78582 26.13007 0.02117
C 19.67385 4.16126 0.01277
C 20.98295 1.98122 -0.01527
C 20.90623 0.58271 0.01087
C 19.68925 33.9964 0.00199
C 22.12471 32.58798 0.01511
C 23.33464 31.89283 -0.00478
C 23.36525 30.48682 -0.01662
C 22.09834 29.74589 -0.01185
C 22.05292 28.3424 0.01126
C 23.3457 27.62442 0.01852
C 19.762 2.72383 0.00096
C 24.49274 25.46034 0.02737
C 24.40024 24.07734 -0.00498
C 25.7816 23.36647 0.00135
C 26.99166 21.25176 -0.00942
C 27.01131 19.8531 0.00487
C 28.21731 19.15961 0.00826
C 28.28241 17.73132 -0.00294
C 27.03502 17.07815 0.00152
C 27.00208 15.65254 0.01257
C 28.24995 14.99353 0.02316
C 28.08691 13.56448 0.04185
C 26.77334 12.77941 0.00194
C 28.21346 22.02122 -0.02815
C 27.03031 11.4592 -0.00621
C 28.24609 9.11288 0.02198
C 28.30064 6.546 0.01094
C 28.11784 5.02615 0.00235
C 26.91192 4.22601 0.01495
C 27.03197 2.86791 0.01259
C 28.25347 2.09053 0.01799
C 28.29046 0.64544 0.01699
C 27.0486 33.97426 -0.00416
C 29.50781 32.71199 0.01177
C 28.20726 10.62834 0.02611
C 20.7941 23.33894 -0.00652
C 28.24347 23.4258 0.00622
C 26.98702 25.533 -0.00037
C 25.72231 21.99511 0.03102
C 24.48477 21.30947 0.02555
C 24.4653 19.8371 0.01423
C 25.77573 19.15038 -0.00285
C 25.78804 17.77353 -0.009
C 24.51118 17.08316 -0.01199
C 24.55593 15.69132 -0.00229
C 25.71103 14.99264 -0.00938
C 25.42151 13.58289 -0.0264
C 26.97715 24.10801 -0.0032
C 24.70588 2.80679 -0.01154
C 25.90749 0.60796 -0.01052
C 24.59192 0.03878 -0.01679
C 26.97962 32.59746 0.00367
C 28.17733 32.01048 0.04306
C 28.26432 30.52154 0.00996
C 27.0503 29.76467 0.00195
C 26.96302 28.29656 -0.00802
C 28.22349 27.67655 -0.00218
C 28.17399 26.22233 -0.01654
C 25.87315 1.97459 0.00684
C 2.37037 32.71009 0.00643
