378
Graphene
C 0.01388 0.01665 0.01295
C 9.85527 4.27601 0.01416
C 9.80192 2.87741 0.03542
C 11.10959 2.14821 0.02299
C 11.09262 0.68841 0.00244
C 9.87225 0.02802 -0.01717
C 12.32657 32.6573 0.05265
C 13.48133 31.90497 -0.01952
C 13.4906 30.50871 -0.02813
C 12.28689 29.74622 0.00374
C 12.2754 28.37255 0.00052
C 13.58715 27.72997 -0.03682
C 13.5562 17.72832 0.01965
C 12.32644 17.00537 0.02058
C 12.31114 15.60616 -0.01957
C 13.51131 14.96047 -0.0108
C 13.54426 13.47641 -0.00368
C 12.30391 12.71216 -0.02696
C 12.26682 11.33259 -0.00114
C 13.55756 10.62817 0.00228
C 11.02925 4.9668 0.01945
C 11.06511 6.38492 -0.01454
C 9.83705 7.07105 0.01241
C 9.82331 8.52263 0.0076
C 11.02277 31.99289 -0.02245
C 11.06246 30.56741 -0.00428
C 9.84807 29.83399 0.03101
C 9.83327 28.3933 -0.01536
C 11.06879 27.68734 -0.02689
C 11.08447 26.31085 -0.01046
C 9.89373 25.54509 -0.00891
C 9.8691 24.14319 0.02819
C 9.84643 21.36309 0.00165
C 13.50733 9.2283 0.00798
C 9.84008 19.94076 -0.02971
C 11.07155 17.73804 -0.01789
C 9.83804 17.02939 0.00444
C 9.84465 15.63784 -0.00925
C 11.11195 14.90273 0.01877
C 11.07341 13.45458 0.01363
C 9.83797 12.77783 -0.02162
C 9.82007 11.34313 0.00415
C 11.04268 10.64911 -0.0014
C 11.08504 9.23405 0.02162
C 11.10726 19.16166 0.02894
C 9.84192 32.67813 0.00985
C 12.27676 8.55471 0.00422
C 13.49491 6.41484 -0.03113
C 14.74445 7.11556 0.02188
C 16.00228 6.34987 -0.01979
C 15.99581 4.98062 0.02691
C 14.77083 4.29369 -0.01581
C 14.76093 2.82721 0.01452
C 15.97155 2.11924 0.04892
C 16.00197 0.73303 -0.00111
C 14.7519 34.04536 -0.03557
C 17.27105 32.70371 0.03754
C 18.46195 31.91236 0.01739
C 18.4434 30.52201 0.00755
C 17.23766 29.80679 -0.0054
C 17.22981 28.38151 0.00667
C 18.42808 27.67511 0.00143
C 18.44379 26.25322 -0.017
C 17.23091 25.57194 0.00364
C 17.2541 24.13167 -0.00831
C 18.43854 23.46509 -0.02957
C 18.39905 22.02172 -0.04422
C 14.7062 8.54954 -0.00316
C 15.94158 9.24058 -0.0331
C 15.99121 10.67046 -0.0258
C 14.72475 11.36106 0.03338
C 13.54147 4.93973 0.02098
C 12.30981 4.23846 0.01848
C 12.31474 2.86269 -0.00619
C 13.52441 2.16997 -0.02162
C 13.54388 0.73359 0.00889
C 12.28038 0.01593 -0.00481
C 14.74045 32.6245 0.00979
C 15.98768 31.95543 0.01443
C 15.96875 30.50932 0.03505
C 12.32973 7.09405 0.0351
C 14.73278 29.81603 -0.02815
C 15.96617 27.71933 -0.05302
C 15.95356 26.27456 0.00213
C 15.97496 19.14852 -0.00066
C 15.96081 17.75073 -0.00289
C 14.79725 17.05444 0.00028
C 14.79996 15.60511 -0.02213
C 15.96785 14.9104 0.03698
C 15.97733 13.40901 -0.00109
C 14.72892 12.74196 -0.00491
C 14.78125 28.40834 -0.04147
C 7.35683 0.02861 -0.01275
C 8.6142 0.69145 -0.01111
C 8.62551 2.15832 0.02841
C 3.67418 4.99397 -0.01343
C 2.46131 4.24517 0.00988
C 2.41756 2.87206 0.0276
C 3.67444 2.15294 0.01305
C 3.68681 0.75672 -0.00077
C 2.47259 34.06572 0.03368
C 4.93274 32.64997 -0.02929
C 6.13637 31.9719 -0.00966
C 6.11129 30.52777 -0.03337
C 4.91665 29.82878 0.01227
C 4.95564 28.46001 0.00873
C 6.17196 27.65471 -0.00049
C 6.14866 26.28241 0.00848
C 4.95703 25.57516 -0.01303
C 4.92887 24.17919 -0.01378
C 6.13078 23.46116 0.02635
C 6.16298 22.03994 0.0127
C 4.91275 21.27838 0.01396
C 4.91682 19.89945 0.01849
C 3.6669 6.4288 0.01087
C 2.47176 7.07911 -0.05697
C 2.50657 8.5017 -0.00725
C 3.65737 9.20299 0.02322
C 3.71122 30.52258 -0.01509
C 2.47561 29.79637 0.03267
C 2.44482 28.40231 0.02374
C 3.7182 27.74321 0.00402
C 3.70101 26.27718 0.0073
C 2.47733 25.55027 0.0174
C 2.43194 24.14226 0.03828
C 3.73593 23.41079 0.01226
C 3.62197 22.02264 -0.00279
C 6.20845 19.17034 -0.01142
C 2.41978 21.27949 0.01996
C 3.69176 19.21329 0.01465
C 3.66548 17.77283 -0.00074
C 2.46699 17.0512 -0.00518
C 2.51451 15.64938 0.0086
C 3.68412 14.86237 -0.00643
C 3.70253 13.52196 0.017
C 2.49202 12.79813 -0.03113
C 2.46391 11.38281 -0.02566
C 3.6704 10.65266 -0.00094
C 2.4376 19.85187 -0.03996
C 6.13031 17.72098 -0.00562
C 4.94301 17.00684 -0.00494
C 4.93805 15.59261 0.00054
C 8.61725 23.47427 -0.00191
C 8.65181 22.04204 0.00438
C 7.33523 21.31498 0.01291
C 7.43203 19.87896 0.00093
C 8.64865 19.16345 0.00057
C 8.6257 17.79578 -0.01634
C 7.37947 16.99368 -0.00334
C 7.37889 15.62679 0.02339
C 8.5953 14.93927 0.01641
C 7.35231 24.11918 0.00373
C 8.64193 13.49825 -0.00719
C 7.38989 11.41778 -0.01062
C 8.58655 10.66993 -0.00033
C 8.61154 9.19529 0.03589
C 7.36258 8.52436 -0.02759
C 7.37811 7.1262 0.0402
C 8.61264 6.39822 0.00572
C 8.57273 4.99013 0.03592
C 7.37167 4.27212 0.00406
C 7.38656 2.84672 0.00943
C 7.37034 12.80252 0.01364
C 17.2135 21.35428 0.00654
C 7.39369 25.55575 0.02147
C 8.63315 27.69154 -0.01118
C 6.14752 14.90544 0.03007
C 6.17238 13.49861 -0.00095
C 4.86785 12.83707 0.01572
C 4.87275 11.37449 -0.04848
C 6.17156 10.6499 -0.00892
C 6.08804 9.23315 -0.01362
C 4.90962 8.57088 -0.0008
C 4.93936 7.095 0.0288
C 6.16984 6.40363 0.00393
C 8.57579 26.29206 -0.014
C 6.13873 5.00867 0.00895
C 4.93359 2.82684 0.02888
C 6.11316 2.12884 -0.00482
C 6.106 0.70847 -0.01384
C 4.92558 34.06048 0.03693
C 7.37963 32.63263 0.01745
C 8.56272 31.9914 0.00488
C 8.55437 30.55223 -0.01004
C 7.39176 29.88621 -0.02896
C 7.39613 28.39982 -0.00131
C 4.91395 4.29047 0.00685
C 17.16434 19.84464 -0.00703
C 18.47014 19.15949 -0.04076
C 17.23871 17.08376 -0.00652
C 29.47754 2.85542 0.02108
C 30.71847 2.11495 0.00716
C 30.73386 0.66221 0.00307
C 29.52164 0.00198 0.00346
C 31.91986 32.65332 0.01713
C 33.2149 31.97156 -0.01694
C 33.21079 30.50887 0.01428
C 31.98013 29.80446 -0.02142
C 31.99322 28.41051 0.0544
C 33.23039 27.70426 0.00026
C 33.20144 26.29922 0.00682
C 31.96132 25.53869 -0.01779
C 31.97851 24.15771 0.03794
C 33.21428 23.41662 0.01927
C 33.18539 22.02748 0.01574
C 32.02637 21.30369 -0.02383
C 31.98871 19.8621 -0.01429
C 33.23663 19.16224 -0.0136
C 33.17256 17.77239 0.00594
C 29.48713 4.26123 0.0103
C 30.75997 4.98216 0.07705
C 30.74457 6.40556 0.01908
C 29.52079 7.08572 0.01518
C 27.04418 2.83667 0.00924
C 28.33315 2.12943 0.02326
C 28.26407 0.65882 0.00261
C 27.06782 34.03639 0.03265
C 29.52236 32.61476 -0.02049
C 30.74481 31.98227 -0.01854
C 30.74204 30.52557 -0.01415
C 29.5214 29.84778 -0.03039
C 29.55045 28.35462 0.01836
C 31.95578 17.01323 -0.02474
C 30.72079 27.69073 0.03531
C 29.48392 25.54011 0.0101
C 29.49803 24.15005 0.01705
C 30.76855 23.44373 -0.0405
C 30.75984 21.98185 -0.01303
C 30.75145 13.49462 -0.01461
C 29.5377 11.37936 -0.02155
C 30.78627 10.61745 -0.00944
C 30.74187 9.22397 -0.03735
C 29.50684 8.52221 -0.00971
C 30.78007 26.23445 -0.00669
C 31.9804 15.59721 0.00369
C 33.22284 14.87455 0.00455
C 33.23049 13.47991 -0.00644
C 34.41479 21.30373 -0.02213
C 0.00821 19.92452 0.01951
C 1.23655 19.18646 -0.01678
C 1.24541 17.76801 0.01223
C 34.41431 17.02398 0.00648
C 34.42367 15.61403 0.02114
C 1.2266 14.90112 -0.02957
C 1.26038 13.52633 0.00343
C 0.02322 12.74736 -0.02656
C 1.19143 22.00138 0.02712
C 34.41058 11.38815 -0.02442
C 1.2381 9.22888 -0.00583
C 0.00737 8.55773 -0.02302
C 34.40399 7.05771 -0.02849
C 1.19182 6.35261 0.02931
C 1.2122 4.94954 0.00628
C 0.0382 4.22682 -0.0345
C 34.4078 2.80865 -0.00931
C 1.22611 2.15013 -0.00939
C 1.24901 0.68565 -0.00468
C 1.20084 10.68312 -0.00027
C 27.05016 4.2169 0.0014
C 1.22413 23.48268 0.00723
C 0.0013 25.61308 -0.05239
C 31.9519 12.78836 -0.01839
C 31.96716 11.32546 0.00137
C 33.15768 10.6253 0.00199
C 33.14658 9.248 0.04381
C 31.98594 8.51865 0.02806
C 31.97613 7.09433 0.01504
C 33.20155 6.38999 -0.00069
C 33.18349 4.99409 0.04926
C 31.98104 4.27704 -0.03838
C 34.41539 24.18347 0.03076
C 31.96539 2.87865 0.00349
C 33.18338 0.68312 -0.00841
C 31.97804 0.02334 0.0001
C 0.00393 32.656 -0.02927
C 1.24184 31.96883 -0.01404
C 1.22254 30.50469 0.01027
C 34.4101 29.8089 0.01831
C 34.43098 28.43158 -0.01037
C 1.22344 27.70066 -0.00439
C 1.24711 26.24256 -0.00598
C 33.19624 2.10026 -0.00323
C 3.65684 31.95067 0.00643
C 28.27528 4.98337 0.01324
C 27.04528 7.09833 0.01177
C 19.63151 24.08684 0.03374
C 20.90427 23.42704 -0.02845
C 19.68186 12.76489 -0.03213
C 19.67676 11.38541 0.02239
C 20.9152 10.66053 0.01153
C 20.88505 9.18231 0.02734
C 19.67304 8.50385 -0.0055
C 19.68851 7.11958 0.01515
C 20.87939 6.38815 -0.00225
C 20.89596 4.97181 0.00071
C 19.66503 4.23131 -0.01107
C 19.66434 2.82295 -0.01586
C 20.90911 2.14572 -0.01971
C 20.91491 0.68606 -0.02118
C 19.64836 0.0314 0.00733
C 22.08947 32.62387 -0.00178
C 23.3011 31.9386 0.00768
C 23.36482 30.52264 -0.0276
C 22.10851 29.83881 0.03005
C 19.71455 25.54947 0.0296
C 20.92426 26.25061 0.03046
C 20.85959 27.6769 -0.00381
C 19.62749 28.3433 0.01852
C 17.23847 15.61057 0.0058
C 18.43375 14.88901 -0.00865
C 18.49408 13.47353 0.00675
C 17.2291 12.75458 -0.00311
C 17.24855 11.34791 0.00742
C 18.46408 10.6119 -0.01594
C 18.4713 9.17297 0.0106
C 17.18617 8.52075 -0.01154
C 17.19367 7.11964 -0.01721
C 22.12866 28.35239 -0.04078
C 18.46129 6.36975 -0.02422
C 17.17003 4.21209 0.00096
C 17.20069 2.83958 -0.01527
C 18.46652 2.10551 0.01087
C 18.45142 0.68143 0.00199
C 17.22711 34.07957 0.01511
C 19.66124 32.65411 -0.00478
C 20.88997 31.96087 -0.01662
C 20.91863 30.51671 -0.01185
C 19.73758 29.80107 0.01126
C 18.46438 4.97331 0.01277
C 23.35035 27.72411 0.02117
C 23.40682 26.24059 0.02737
C 22.16684 25.59252 -0.00498
C 24.61316 7.08591 -0.02815
C 25.81468 6.41358 -0.00942
C 25.79781 4.95338 0.00487
C 24.58059 4.27027 0.00826
C 24.56721 2.87476 -0.00294
C 25.82088 2.10765 0.00152
C 25.85647 0.72973 0.01257
C 24.56863 0.01605 0.02316
C 27.06209 32.62095 0.04185
C 24.59783 8.54547 0.00622
C 28.30993 31.94735 0.00194
C 27.09676 29.81978 0.02611
C 27.01395 28.37721 0.02198
C 28.32076 27.69475 0.01094
C 28.28129 26.25216 0.00235
C 27.12003 25.57935 0.01495
C 27.02819 11.38294 0.01259
C 28.29505 10.63997 0.01799
C 28.28139 9.20627 0.01699
C 27.01171 8.51492 -0.00416
C 28.24878 30.55006 -0.00621
C 28.28683 6.36727 0.04266
C 25.82881 9.24536 -0.0032
C 24.6084 25.55063 -0.01654
C 22.06876 24.13431 0.00135
C 22.15166 11.33922 0.03102
C 23.31013 10.63737 0.02555
C 23.34934 9.22303 0.01423
C 22.12275 8.51635 -0.00285
C 22.13392 7.10233 -0.009
C 23.38324 6.35574 -0.01199
C 23.32947 4.99882 -0.00229
C 22.16914 4.23477 -0.00938
C 25.85277 10.63792 -0.00037
C 22.11764 2.83805 -0.0264
C 23.35134 0.71021 0.00684
C 22.16912 0.00559 -0.01052
C 24.63055 32.65397 -0.01679
C 25.79234 31.93089 0.00367
C 25.84307 30.5315 0.04306
C 24.58063 29.8426 0.00996
C 24.57186 28.41579 0.00195
C 25.83186 27.69432 -0.00802
C 25.86288 26.3104 -0.00218
C 23.41097 2.15423 -0.01154
C 2.45849 32.69671 0.00907
