404
Graphene
C 0.05488 0.0553 0.01295
C 13.48531 26.3262 -0.01046
C 12.24396 25.61737 -0.00891
C 12.20734 24.22337 0.02819
C 13.38582 23.50819 0.00165
C 13.40279 22.09295 -0.02971
C 12.19745 21.33802 0.02894
C 12.23192 19.96054 -0.01789
C 13.47699 19.23427 0.00444
C 13.56701 17.77948 -0.00925
C 12.28724 17.11467 0.01877
C 12.31043 15.62731 0.01363
C 13.52447 14.88041 -0.02162
C 13.51543 13.53562 0.00415
C 12.30909 12.77465 -0.0014
C 12.3856 11.31573 0.02162
C 13.63802 10.66731 0.0076
C 13.61023 9.27251 0.01241
C 12.35981 8.54718 -0.01454
C 12.28583 7.14405 0.01945
C 13.48493 6.49703 0.01416
C 13.50505 4.99372 0.03542
C 13.43967 27.7887 -0.02689
C 12.27326 4.3291 0.02299
C 12.2416 28.48042 -0.01536
C 13.50899 30.55508 -0.00428
C 11.05889 19.22727 0.00057
C 10.98306 17.8026 -0.01634
C 9.80911 17.00547 -0.00334
C 9.84716 15.61784 0.02339
C 11.05287 14.92587 0.01641
C 11.08866 13.49036 -0.00719
C 9.81373 12.73083 0.01364
C 9.85857 11.31716 -0.01062
C 11.11415 10.55974 -0.00033
C 11.03717 9.24562 0.03589
C 9.82775 8.52321 -0.02759
C 9.80697 7.09083 0.0402
C 11.01464 6.40591 0.00572
C 11.04423 5.05988 0.03592
C 9.8375 4.32835 0.00406
C 9.83715 2.86118 0.00943
C 11.11125 2.18528 0.02841
C 10.9925 0.75317 -0.01111
C 9.79138 0.09617 -0.01275
C 12.25458 32.69732 0.00985
C 13.45981 32.00597 -0.02245
C 12.28523 29.9252 0.03101
C 12.33753 2.91699 0.00244
C 13.56923 2.17344 -0.01717
C 13.52711 0.76148 0.05265
C 15.97436 6.32213 -0.02815
C 16.11973 4.96276 -0.04147
C 14.82661 4.35507 -0.05302
C 14.87451 2.90015 0.00213
C 16.11865 2.15887 -0.00066
C 16.03552 0.73823 -0.00289
C 14.79577 0.00805 0.00028
C 17.34056 32.6698 -0.02213
C 18.47955 31.95431 0.03698
C 18.5234 30.55736 -0.00109
C 17.25263 29.84779 -0.00491
C 17.23685 28.45377 0.03338
C 18.41112 27.7186 -0.0258
C 18.35904 26.20565 -0.0331
C 17.06503 25.50812 -0.00316
C 17.0667 24.11288 0.02188
C 18.42801 23.40552 -0.01979
C 18.38857 22.00063 0.02691
C 17.10232 21.35186 -0.01581
C 17.13091 19.91404 0.01452
C 18.36552 19.16556 0.04892
C 14.73534 7.067 0.03505
C 14.8157 8.5183 0.01443
C 16.03549 9.10896 0.00979
C 16.04653 10.58113 -0.00481
C 12.20866 34.07091 -0.01952
C 14.68783 32.71063 -0.02813
C 16.00053 32.06745 0.00374
C 15.96211 30.59174 0.00052
C 14.78433 29.85427 -0.03682
C 14.75469 28.42245 0.01965
C 16.03072 27.66821 0.02058
C 15.87123 26.22759 -0.01957
C 14.70593 25.51992 -0.0108
C 14.64953 24.14112 -0.00368
C 9.74407 19.88996 0.00093
C 15.82081 23.5131 -0.02696
C 14.70204 21.43246 0.00228
C 14.69008 19.95083 0.00798
C 15.87012 19.2492 0.00422
C 15.96954 17.71145 0.0351
C 14.79926 17.04648 -0.03113
C 14.75984 15.6094 0.02098
C 16.01609 14.88825 0.01848
C 16.0184 13.50583 -0.00619
C 14.79688 12.76408 -0.02162
C 14.88198 11.39677 0.00889
C 15.89663 22.17069 -0.00114
C 18.34122 17.78551 -0.00111
C 9.69535 21.33503 0.01291
C 10.9707 23.50612 -0.00191
C 2.41768 33.8989 0.00643
C 5.83038 32.20668 -0.01509
C 5.80221 30.70815 0.03267
C 4.86759 28.98054 0.02374
C 6.01281 28.03752 0.00402
C 6.01674 26.58359 0.0073
C 4.8331 25.72462 0.0174
C 4.83103 24.35507 0.03828
C 6.00229 23.53314 0.01226
C 5.98377 22.18373 -0.00279
C 4.84573 21.35738 0.01996
C 4.86117 19.86686 -0.03996
C 6.13366 19.19173 0.01465
C 6.0263 17.80431 -0.00074
C 4.77484 17.14544 -0.00518
C 4.86109 15.68974 0.0086
C 6.05413 14.9549 -0.00643
C 6.08009 13.56866 0.017
C 4.91776 12.8261 -0.03113
C 4.94309 11.39781 -0.02566
C 6.14556 10.70091 -0.00094
C 3.64692 0.26608 0.00907
C 6.11275 9.2917 0.02322
C 3.67684 1.92278 0.02379
C 2.4699 4.23644 -0.003
C 3.60637 26.45492 0.00081
C 2.43506 25.70926 0.00245
C 2.44218 24.18157 0.02728
C 3.63777 23.54624 -0.00039
C 3.64662 22.06628 0.0064
C 2.40644 21.33854 0.00211
C 2.33897 19.94833 -0.00449
C 3.5982 19.21206 -0.01979
C 3.51898 17.77052 0.02784
C 2.37675 17.00341 -0.01977
C 2.40359 15.65198 -0.00561
C 3.62328 14.95705 0.00208
C 3.60931 13.53947 0.01707
C 2.41001 12.82279 0.02769
C 2.49761 11.39283 -0.03291
C 3.65205 10.6484 -0.04999
C 3.52997 9.19962 0.04505
C 2.32878 8.42116 0.03284
C 2.44276 7.06849 -0.04307
C 3.66134 6.37049 0.03189
C 3.61302 4.9619 0.00031
C 2.47907 2.78114 0.01402
C 4.86741 8.56507 -0.00725
C 4.92511 7.21883 -0.05697
C 6.06846 6.38703 0.01087
C 7.30806 11.40401 -0.04848
C 8.58927 10.70675 -0.00892
C 8.56007 9.30988 -0.01362
C 7.31728 8.56988 -0.0008
C 7.26152 7.09394 0.0288
C 8.5377 6.41342 0.00393
C 8.58932 4.98261 0.00895
C 7.28364 4.27768 0.00685
C 7.23018 2.75044 0.02888
C 8.52267 2.2063 -0.00482
C 8.56336 0.72725 -0.01384
C 7.36122 0.01454 0.03693
C 9.80881 32.67497 0.01745
C 11.0337 32.0416 0.00488
C 10.94842 30.59974 -0.01004
C 9.75089 29.92218 -0.02896
C 9.77564 28.47757 -0.00131
C 10.99776 27.72673 -0.01118
C 10.9127 26.36902 -0.014
C 9.67659 25.69272 0.02147
C 9.74692 24.2461 0.00373
C 7.30914 12.82085 0.01572
C 8.55679 13.44454 -0.00095
C 8.6186 14.89305 0.03007
C 7.3772 15.64636 0.00054
C 6.08446 4.99739 -0.01343
C 4.89863 4.28878 0.00988
C 4.88793 2.7777 0.0276
C 6.00699 1.98792 0.01305
C 5.9834 0.59334 -0.00077
C 4.94014 33.67314 0.03368
C 7.29121 32.68152 -0.02929
C 8.54022 32.07351 -0.00966
C 8.46433 30.60149 -0.03337
C 7.16825 29.99325 0.01227
C 10.98242 22.09416 0.00438
C 7.28685 28.64172 0.00873
C 8.46474 26.4802 0.00848
C 7.25517 25.79514 -0.01303
C 7.29966 24.36562 -0.01378
C 8.50058 23.60697 0.02635
C 8.52512 22.16126 0.0127
C 7.26404 21.35996 0.01396
C 7.35358 19.95706 0.01849
C 8.52397 19.20564 -0.01142
C 8.59597 17.78643 -0.00562
C 7.3748 17.09206 -0.00494
C 8.50405 27.85981 -0.00049
C 17.12608 16.9782 -0.03557
C 17.30371 15.62187 0.03754
C 18.65993 14.91012 0.01739
C 30.70055 10.65797 -0.00971
C 30.51114 9.28821 0.01518
C 29.33288 8.51333 0.01908
C 29.29114 7.13767 0.07705
C 30.55165 6.46462 0.0103
C 30.69985 4.99801 0.02108
C 29.53047 4.21634 0.00716
C 29.59429 2.84266 0.00307
C 30.82235 2.13742 0.00346
C 30.73258 0.73428 0.01713
C 29.45074 34.07763 -0.01694
C 32.07078 32.63096 0.01428
C 33.39059 31.99851 -0.02142
C 33.32622 30.5357 0.0544
C 32.0421 29.7784 0.00026
C 31.97359 28.36894 0.00682
C 33.1736 27.63512 -0.01779
C 33.13134 26.25467 0.03794
C 31.93289 25.44344 0.01927
C 31.90192 24.08046 0.01574
C 33.1664 23.41787 -0.02383
C 30.66845 13.42767 -0.03735
C 33.05201 22.03985 -0.01429
C 30.42942 14.75421 -0.00944
C 29.49203 16.95557 -0.01461
C 26.31423 6.61274 0.01699
C 27.65509 6.07275 -0.00416
C 28.12088 4.77892 0.01177
C 28.31303 2.24027 0.04266
C 28.21715 0.86733 0.01324
C 26.93259 0.2776 0.0014
C 29.54639 32.6441 0.00924
C 30.84119 31.95264 0.02326
C 30.80861 30.51194 0.00261
C 29.56424 29.84964 0.03265
C 29.46123 28.37995 -0.02049
C 30.69116 27.70398 -0.01854
C 30.66605 26.20353 -0.01415
C 29.4825 25.49993 -0.03039
C 29.35464 24.05018 0.01836
C 30.57811 23.41266 0.03531
C 30.56588 21.99303 -0.00669
C 29.34852 21.3134 0.0101
C 29.42338 19.93648 0.01705
C 30.68226 19.15079 -0.0405
C 30.61722 17.68402 -0.01303
C 29.18459 15.52209 -0.02155
C 31.79393 21.25803 -0.0136
C 31.8744 19.81099 0.00594
C 33.11989 19.10005 -0.02474
C 1.07054 22.05571 0.02712
C 34.30953 21.33539 -0.02213
C 34.37129 19.83194 0.01951
C 1.15942 19.16755 -0.01678
C 1.15697 17.72676 0.01223
C 34.28838 17.10447 0.00648
C 34.25399 15.66795 0.02114
C 1.13741 14.91186 -0.02957
C 1.1971 13.5175 0.00343
C 34.39821 12.83239 -0.02656
C 34.28075 11.43249 -0.02442
C 1.18444 10.76324 -0.00027
C 1.21002 9.27607 -0.00583
C 34.32008 8.58352 -0.02302
C 34.26119 7.13606 -0.02849
C 1.12022 6.39929 0.02931
C 1.25326 4.93016 0.00628
C 34.42199 4.21177 -0.0345
C 34.43144 2.7894 -0.00931
C 1.26933 2.10639 -0.00939
C 1.26864 0.66849 -0.00468
C 1.16375 23.49817 0.00723
C 34.34484 24.15964 0.03076
C 34.34825 25.58763 -0.05239
C 1.17667 26.34369 -0.00598
C 33.06322 17.69947 0.00369
C 31.86665 16.93304 0.00455
C 31.80695 15.61687 -0.00644
C 33.05171 14.91204 -0.01839
C 33.13433 13.44482 0.00137
C 31.89454 12.77455 0.00199
C 31.8522 11.40552 0.04381
C 33.09691 10.62714 0.02806
C 33.12786 9.29109 0.01504
C 31.86569 8.56625 -0.00069
C 27.03765 16.97083 0.01799
C 31.86023 7.1545 0.04926
C 33.21698 4.9736 0.00349
C 31.96465 4.29106 -0.00323
C 32.01194 2.8369 -0.00841
C 33.20629 2.12172 0.0001
C 33.23695 0.71628 -0.02927
C 31.97812 0.0063 -0.01404
C 0.10808 32.81506 0.01027
C 0.06619 29.69914 0.01831
C 34.37033 28.34617 -0.01037
C 1.07611 27.63099 -0.00439
C 33.09919 6.35377 -0.03838
C 28.24318 17.63129 0.01259
C 28.2454 19.13686 0.01495
C 26.90468 19.73035 0.00235
C 19.61472 19.79761 0.01087
C 20.85249 19.19017 0.00199
C 20.82018 17.85327 0.01511
C 19.61866 17.23615 -0.00478
C 19.73167 15.8319 -0.01662
C 19.84135 12.6158 -0.01185
C 19.5939 11.47605 0.01126
C 19.78395 8.62685 0.01852
C 19.90139 7.14774 -0.00381
C 21.2169 6.28145 0.03046
C 21.00445 4.92107 0.0296
C 19.69574 4.25546 0.03374
C 19.73397 2.80931 -0.02845
C 20.92122 2.18889 -0.03213
C 20.96989 0.78738 0.02239
C 19.68878 0.03094 0.01153
C 22.19095 32.65556 0.02734
C 23.38123 31.96397 -0.0055
C 23.41464 30.54321 0.01515
C 22.15411 29.71375 -0.00225
C 22.07802 28.32342 0.00071
C 19.57564 21.24168 -0.01527
C 20.76475 21.9439 0.00096
C 20.84819 23.36712 0.01277
C 19.59694 24.11829 -0.02422
C 18.62439 13.50804 0.00755
C 17.29142 12.73151 -0.0054
C 17.28564 11.35187 0.00667
C 18.52331 10.50891 0.00143
C 18.53512 9.14468 -0.017
C 17.34733 8.45459 0.00364
C 17.22759 7.01079 -0.00831
C 18.57938 6.36752 -0.02957
C 18.53241 4.93656 -0.04422
C 17.33889 4.26159 0.00654
C 23.33756 27.60522 -0.01107
C 17.37202 2.83687 -0.00703
C 18.54119 0.76039 -0.00652
C 17.25088 34.03063 0.0058
C 19.77188 32.66803 -0.00865
C 21.03665 31.94772 0.00675
C 20.9812 30.46008 -0.00311
C 19.6772 29.8833 0.00742
C 19.67611 28.3681 -0.01594
C 20.82635 27.58934 0.0106
C 20.88474 26.21291 -0.01154
C 19.58083 25.534 -0.01721
C 18.56939 2.07601 -0.04076
C 3.57477 28.29768 -0.02805
C 23.33611 26.19723 -0.01586
C 22.09731 24.07389 -0.02118
C 24.44007 21.19205 0.00195
C 24.46461 19.66197 -0.00802
C 25.7175 18.92398 -0.00218
C 25.80787 17.40923 -0.01654
C 24.46517 16.91104 -0.00037
C 25.21814 7.07927 -0.0032
C 25.02973 2.17206 0.00622
C 25.66386 0.94157 -0.02815
C 24.58868 0.00589 -0.00942
C 27.10108 32.80075 0.00487
C 28.31603 32.02323 0.00826
C 28.32501 30.63019 -0.00294
C 27.12977 29.83046 0.00152
C 27.07532 28.43139 0.01257
C 28.19742 27.5954 0.02316
C 28.32672 26.23196 0.04185
C 27.05801 25.51002 0.00194
C 26.97314 24.06099 -0.00621
C 28.14906 23.34568 0.02611
C 28.11331 21.94697 0.02198
C 26.8858 21.19324 0.01094
C 25.59956 21.90648 0.00996
C 25.82541 23.36218 0.04306
C 24.55383 24.05539 0.00367
C 24.67577 25.44834 -0.01679
C 23.32837 23.37933 0.00733
C 23.29717 21.93045 -0.00178
C 22.0614 21.34439 0.00768
C 22.06467 19.91329 -0.0276
C 23.18558 18.94697 0.03005
C 23.19867 17.52885 -0.04078
C 21.82057 16.94969 0.02117
C 22.72235 6.41518 0.02737
C 24.08421 6.49852 -0.00498
C 23.23959 5.29022 0.00135
C 22.13041 25.53838 -0.01971
C 22.30631 4.32701 0.03102
C 23.58441 2.05659 0.01423
C 23.38219 0.69903 -0.00285
C 22.16824 34.07148 -0.009
C 24.65912 32.61494 -0.01199
C 25.89646 32.02365 -0.00229
C 25.96019 30.52544 -0.00938
C 24.60398 29.7614 -0.0264
C 24.60465 28.34216 -0.01154
C 25.85863 27.73921 0.00684
C 25.82612 26.23368 -0.01052
C 22.33671 2.96286 0.02555
C 2.21699 28.76467 -0.01386
