445
Graphene
C 34.42562 34.04066 0.01295
C 12.1835 15.73961 0.01291
C 13.53175 14.90886 0.00093
C 13.51837 13.50227 0.00057
C 12.41228 12.63394 -0.01634
C 13.48009 10.7323 -0.00334
C 13.47579 9.29056 0.02339
C 12.33148 8.50034 0.01641
C 12.28358 7.06574 -0.00719
C 13.50347 6.38529 0.01364
C 13.55636 4.93108 -0.01062
C 12.24855 4.22072 -0.00033
C 12.36573 2.8766 0.03589
C 13.57615 2.12701 -0.02759
C 13.55107 0.67469 0.0402
C 12.31877 33.98548 0.00572
C 14.74269 32.55667 0.03592
C 15.9863 31.88338 0.00406
C 15.95917 30.47203 0.00943
C 14.68524 29.79503 0.02841
C 14.75809 28.33853 -0.01111
C 15.9456 27.64384 -0.01275
C 15.8953 26.27286 0.00985
C 14.71424 25.47866 -0.02245
C 12.31491 17.11471 0.00438
C 13.51163 17.7429 -0.00191
C 13.46494 19.17415 0.00373
C 12.24958 19.91424 0.02147
C 11.10894 13.25996 -0.00494
C 9.7944 12.67659 0.00054
C 11.09757 9.20928 0.03007
C 9.78188 8.7234 -0.00095
C 9.78464 7.20812 0.01572
C 10.97395 6.43659 -0.04848
C 11.0889 4.96456 -0.00892
C 9.85919 4.31502 -0.01362
C 9.89747 2.86018 -0.0008
C 11.1483 2.12236 0.0288
C 11.02815 0.75291 0.00393
C 14.68408 24.14342 -0.00428
C 9.83091 0.05644 0.00895
C 13.49041 31.9017 0.02888
C 13.56749 30.49076 -0.00482
C 12.2653 29.79994 -0.01384
C 12.23478 28.43308 0.03693
C 13.48841 27.69374 0.01745
C 13.52177 26.30496 0.00488
C 12.29077 25.58245 -0.01004
C 12.26936 24.17387 -0.02896
C 13.44321 23.45663 -0.00131
C 13.5435 21.99935 -0.01118
C 12.24552 21.29684 -0.014
C 12.26888 32.63447 0.00685
C 16.01006 23.46533 0.03101
C 16.01981 22.03391 -0.01536
C 14.78634 21.32382 -0.02689
C 17.19266 24.11755 0.00052
C 18.48449 23.43826 -0.03682
C 18.43381 21.96 0.01965
C 17.1897 21.28486 0.02058
C 17.12115 19.8959 -0.01957
C 18.40961 19.10484 -0.0108
C 18.41872 17.70761 -0.00368
C 17.17032 16.99315 -0.02696
C 17.15263 15.5916 -0.00114
C 18.4238 14.8972 0.00228
C 18.42165 13.54103 0.00798
C 17.22661 25.62244 0.00374
C 17.19024 12.79975 0.00422
C 18.42709 10.67314 -0.03113
C 18.44701 9.27832 0.02098
C 17.24152 8.51489 0.01848
C 17.21472 7.08552 -0.00619
C 18.4495 6.35356 -0.02162
C 18.50426 4.94263 0.00889
C 17.244 4.27871 -0.00481
C 17.24977 2.85515 0.00979
C 18.42768 2.11303 0.01443
C 18.39237 0.67 0.03505
C 17.14663 34.04073 -0.02815
C 17.19568 11.397 0.0351
C 11.08602 14.86706 -0.00562
C 18.43117 26.35201 -0.02813
C 17.14979 28.42174 0.05265
C 14.74267 19.89936 -0.01046
C 16.01002 19.13256 -0.00891
C 16.00565 17.70039 0.02819
C 14.74336 17.04315 0.00165
C 14.75318 15.63425 -0.02971
C 15.93103 14.89257 0.02894
C 15.95287 13.47466 -0.01789
C 14.70306 12.78487 0.00444
C 14.833 11.36109 -0.00925
C 16.03374 10.67535 0.01877
C 16.01506 9.21784 0.01363
C 18.39033 27.74683 -0.01952
C 14.75616 8.60891 -0.02162
C 15.98744 6.37539 -0.0014
C 16.04397 4.97107 0.02162
C 14.79875 4.20613 0.0076
C 14.79821 2.90353 0.01241
C 16.03965 2.14789 -0.01454
C 15.95757 0.68808 0.01945
C 14.79175 33.95944 0.01416
C 17.12773 32.63358 0.03542
C 18.40729 31.9431 0.02299
C 18.43696 30.61719 0.00244
C 17.17606 29.85639 -0.01717
C 14.67783 7.09158 0.00415
C 9.84869 15.62981 -0.01142
C 9.84686 17.01793 0.01849
C 10.96999 17.86283 0.01396
C 3.7185 0.69049 -0.01299
C 2.50457 34.07059 -0.00407
C 4.98139 32.63541 0.01138
C 6.14265 32.00225 0.03278
C 6.18625 30.50089 -0.00177
C 5.06426 29.81942 0.04421
C 4.96735 28.42655 0.00088
C 6.18718 27.67163 0.00828
C 6.13993 26.28409 -0.02375
C 4.86265 25.59121 0.00558
C 4.87501 24.23842 -0.0059
C 3.67174 2.11307 -0.0154
C 6.13412 23.51613 -0.01386
C 4.90439 21.25155 0.00081
C 4.94458 19.84092 0.00245
C 6.15037 19.16755 0.02728
C 6.20922 17.78163 -0.00039
C 4.89075 17.03041 0.0064
C 4.89201 15.64637 0.00211
C 6.12289 14.99192 -0.00449
C 6.11837 13.55521 -0.01979
C 4.98168 12.84439 0.02784
C 4.88761 11.35498 -0.01977
C 6.15078 10.67732 -0.00561
C 6.11581 22.06752 -0.02805
C 6.14124 9.31254 0.00208
C 2.39683 2.71106 0.00662
C 3.62402 4.97245 0.03345
C 3.74241 30.46989 -0.02419
C 2.49417 29.85629 -0.03951
C 2.55173 28.42638 -0.00141
C 3.76738 27.75844 -0.00374
C 3.67356 26.38367 -0.0213
C 2.44956 25.54667 0.01116
C 2.49257 24.04268 -0.0005
C 3.75248 23.30767 -0.00018
C 3.69807 21.98594 0.01073
C 2.38166 21.23608 0.01984
C 2.36663 19.79498 0.00535
C 2.4578 4.17103 0.00748
C 3.61369 19.17034 -0.00198
C 2.41488 17.03257 -0.04306
C 2.45884 15.62697 -0.03672
C 3.62583 14.97778 0.01913
C 3.7295 13.42844 0.00267
C 2.45845 12.76051 0.00787
C 2.43449 11.33621 0.02426
C 3.70926 10.71779 0.01218
C 3.68129 9.26543 -0.01471
C 2.43734 8.50593 -0.02827
C 2.47066 7.12523 0.01078
C 3.67786 6.36091 -0.00112
C 3.58221 17.80124 -0.00012
C 19.63727 32.63749 -0.04147
C 4.91512 8.55626 0.01707
C 6.11627 6.42794 -0.03291
C 8.63883 9.45019 -0.03113
C 7.40528 8.66522 -0.02566
C 7.35323 7.24337 -0.00094
C 8.65237 6.48638 0.02322
C 8.63607 4.98475 -0.00725
C 7.37605 4.3058 -0.05697
C 7.38855 2.90609 0.01087
C 8.66644 2.15204 -0.01343
C 8.62834 0.75677 0.00988
C 7.37401 0.05575 0.0276
C 9.85907 32.72031 0.01305
C 8.60517 10.89529 0.017
C 11.01705 31.91942 -0.00077
C 9.74355 29.87913 -0.02929
C 9.81395 28.47111 -0.00966
C 11.02209 27.81473 -0.03337
C 10.98731 26.34457 0.01227
C 9.76587 25.67674 0.00873
C 9.78076 24.15512 -0.00049
C 11.03556 23.4884 0.00848
C 11.00548 22.03151 -0.01303
C 9.76566 21.30959 -0.01378
C 9.83743 19.91323 0.02635
C 11.02494 19.31726 0.0127
C 11.0457 30.53989 0.03368
C 4.86566 7.11427 0.02769
C 7.36574 11.49849 -0.00643
C 8.59928 13.48768 -0.00518
C 6.14118 5.04177 -0.04999
C 4.88179 4.30277 0.04505
C 4.92652 2.84207 0.03284
C 6.13722 2.19441 -0.04307
C 6.15015 0.7187 0.03189
C 4.98416 0.01311 0.00031
C 7.34666 32.71714 -0.003
C 8.58468 32.01947 0.01402
C 8.59611 30.56988 0.02379
C 7.38956 29.7962 0.00907
C 7.39336 28.39974 0.00643
C 7.31708 12.91032 0.0086
C 8.62294 27.68145 -0.01509
C 7.34013 25.56794 0.02374
C 7.32192 24.19361 0.00402
C 8.55361 23.49017 0.0073
C 8.59359 22.08326 0.0174
C 7.36378 21.35297 0.03828
C 7.34741 19.85464 0.01226
C 8.54163 19.21458 -0.00279
C 8.54882 17.72379 0.01996
C 7.32695 17.00501 -0.03996
C 7.34902 15.60699 0.01465
C 8.5843 14.98336 -0.00074
C 8.58473 26.27441 0.03267
C 3.74592 31.92483 0.02438
C 20.9089 32.0371 -0.05302
C 19.72593 29.82126 -0.00066
C 29.49626 15.68627 0.01705
C 30.69172 14.89231 -0.0405
C 30.73131 13.47608 -0.01303
C 29.50602 12.81152 -0.01461
C 29.48886 11.3338 -0.02155
C 30.76052 10.58656 -0.00944
C 30.7113 9.22168 -0.03735
C 29.55637 8.47337 -0.00971
C 29.49836 6.9894 0.01518
C 30.71991 6.33338 0.01908
C 30.78282 4.92743 0.07705
C 29.47911 4.26255 0.0103
C 29.4761 2.87953 0.02108
C 30.71268 2.16719 0.00716
C 30.7538 0.73659 0.00307
C 29.54057 0.05611 0.00346
C 31.95331 32.73178 0.01713
C 33.26171 32.01319 -0.01694
C 33.19107 30.60721 0.01428
C 31.95936 29.89017 -0.02142
C 31.99282 28.41094 0.0544
C 33.22265 27.6632 0.00026
C 33.22009 26.25487 0.00682
C 29.57555 17.05881 0.0101
C 30.82693 17.73191 -0.00669
C 30.73372 19.10559 0.03531
C 29.51306 19.86759 0.01836
C 27.09666 11.33321 0.04185
C 28.27743 10.57 0.00194
C 28.28327 9.14524 -0.00621
C 27.13192 8.51748 0.02611
C 27.04682 7.04604 0.02198
C 28.24625 6.38284 0.01094
C 28.28599 4.96268 0.00235
C 27.0175 4.31763 0.01495
C 27.08554 2.8449 0.01259
C 28.26389 2.09945 0.01799
C 28.25897 0.74458 0.01699
C 31.93238 25.55891 -0.01779
C 27.09455 0.01836 -0.00416
C 30.81383 31.98455 0.04266
C 30.71282 30.56039 0.01324
C 29.48755 29.81606 0.0014
C 29.45887 28.3885 0.00924
C 30.80733 27.7179 0.02326
C 30.73139 26.31018 0.00261
C 29.45343 25.62996 0.03265
C 29.4272 24.21605 -0.02049
C 30.63573 23.42972 -0.01854
C 30.61571 21.93281 -0.01415
C 29.43581 21.19765 -0.03039
C 29.44086 32.68419 0.01177
C 31.89137 24.13673 0.03794
C 33.15556 23.42291 0.01927
C 33.11792 21.98995 0.01574
C 0.02875 25.46652 -0.05239
C 34.42696 24.14395 0.03076
C 1.25517 23.43088 0.00723
C 1.21464 21.99846 0.02712
C 34.34708 21.27855 -0.02213
C 34.35585 19.86842 0.01951
C 1.1851 19.13435 -0.01678
C 1.20334 17.68941 0.01223
C 0.00626 16.93536 0.00648
C 34.39974 15.5743 0.02114
C 1.25404 14.90351 -0.02957
C 1.25524 26.24333 -0.00598
C 1.19663 13.50854 0.00343
C 0.03377 11.2956 -0.02442
C 1.29537 10.59942 -0.00027
C 1.23277 9.20702 -0.00583
C 0.02667 8.44698 -0.02302
C 0.04105 7.03122 -0.02849
C 1.23601 6.35705 0.02931
C 1.20595 4.96377 0.00628
C 0.00616 4.25815 -0.0345
C 34.38528 2.87978 -0.00931
C 1.11515 2.09194 -0.00939
C 1.20305 0.69879 -0.00468
C 0.00172 12.72647 -0.02656
C 27.10624 12.75285 0.02316
C 1.33003 27.6438 -0.00439
C 0.06539 29.78316 0.01831
C 31.95162 21.30292 -0.02383
C 31.98614 19.83656 -0.01429
C 33.22413 19.11696 -0.0136
C 33.22465 17.71436 0.00594
C 32.00337 17.04194 -0.02474
C 31.89945 15.55274 0.00369
C 33.15726 14.82328 0.00455
C 33.14267 13.47232 -0.00644
C 31.94145 12.77915 -0.01839
C 32.02075 11.2965 0.00137
C 33.21832 10.63375 0.00199
C 0.03874 28.37643 -0.01037
C 33.24115 9.19612 0.04381
C 31.96254 7.05659 0.01504
C 33.20564 6.35114 -0.00069
C 33.18146 4.98538 0.04926
C 31.94563 4.22104 -0.03838
C 31.94353 2.87642 0.00349
C 33.13637 2.16223 -0.00323
C 33.22548 0.77887 -0.00841
C 31.99409 0.10554 0.0001
C 0.04603 32.63874 -0.02927
C 1.30791 31.91598 -0.01404
C 1.21401 30.59236 0.01027
C 32.01883 8.43563 0.02806
C 28.32166 13.51281 0.01257
C 28.2612 14.9321 0.00152
C 27.05172 15.69476 -0.00294
C 22.10187 32.70388 -0.04422
C 23.358 32.02947 0.00654
C 23.33888 30.61914 -0.00703
C 22.11297 29.86406 -0.04076
C 22.05457 28.38311 -0.00652
C 23.27908 27.75871 0.0058
C 23.37072 26.27853 -0.00865
C 22.19728 25.5611 0.00675
C 22.21195 24.17462 -0.00311
C 23.51006 23.45183 0.00742
C 23.46882 21.95678 -0.01594
C 19.65509 0.01202 -0.02957
C 22.12233 21.30181 0.0106
C 23.35778 19.11027 -0.01721
C 23.36651 17.72095 -0.02422
C 22.12481 17.11252 0.01277
C 22.10848 15.6397 0.00096
C 23.38343 14.93864 -0.01527
C 23.3483 13.46613 0.01087
C 22.0874 12.77243 0.00199
C 22.06899 11.36536 0.01511
C 23.39222 10.59665 -0.00478
C 23.33413 9.15803 -0.01662
C 22.05345 8.5244 -0.01185
C 22.15379 19.92767 -0.01154
C 22.05374 7.11973 0.01126
C 20.8887 0.67505 -0.00831
C 19.6573 2.78785 -0.017
C 19.67227 28.40402 -0.00289
C 20.84638 27.69079 0.00028
C 20.91171 26.20251 -0.02213
C 19.67685 25.60349 0.03698
C 19.70603 24.13287 -0.00109
C 20.95326 23.4283 -0.00491
C 20.97914 22.04723 0.03338
C 19.73096 21.31964 -0.0258
C 19.61626 19.84402 -0.0331
C 20.89043 19.22304 -0.00316
C 20.92507 17.81376 0.02188
C 20.91056 2.12882 0.00364
C 19.6456 17.0753 -0.01979
C 20.81192 14.9138 -0.01581
C 20.7988 13.47285 0.01452
C 19.58388 12.83623 0.04892
C 19.65821 11.36887 -0.00111
C 20.82937 10.61512 -0.03557
C 20.84482 9.25024 0.03754
C 19.63247 8.52072 0.01739
C 19.63174 7.10144 0.00755
C 20.87648 6.34302 -0.0054
C 20.90352 4.92079 0.00667
C 19.69526 4.22217 0.00143
C 19.62739 15.65119 0.02691
C 20.8822 30.53222 0.00213
C 23.29442 6.47108 0.01852
C 22.15291 4.24013 0.03046
C 24.5435 7.09119 -0.00285
C 25.75003 6.35445 -0.009
C 25.79809 5.01478 -0.01199
C 24.57221 4.29911 -0.00229
C 24.59572 2.84895 -0.00938
C 25.86025 2.09881 -0.0264
C 25.8515 0.73011 -0.01154
C 24.59612 34.06566 0.00684
C 27.02757 32.63654 -0.01052
C 28.26053 31.88345 -0.01679
C 28.25355 30.41692 0.00367
C 24.55579 8.52245 0.01423
C 26.96487 29.7871 0.04306
C 28.22446 27.68845 0.00195
C 28.17175 26.3071 -0.00802
C 27.01775 25.53905 -0.00218
C 26.98746 24.11805 -0.01654
C 28.27796 23.48258 -0.00037
C 28.28683 21.98708 -0.0032
C 27.04634 21.27789 0.00622
C 27.04787 19.8737 -0.02815
C 28.26304 19.22098 -0.00942
C 28.27587 17.74055 0.00487
C 27.04247 17.0539 0.00826
C 26.91908 28.37364 0.00996
C 23.38292 4.98716 -0.00381
C 25.82119 9.21316 0.02555
C 24.52766 11.27799 0.00135
C 22.15726 2.81045 0.0296
C 23.39012 2.14062 0.03374
C 23.41696 0.76216 -0.02845
C 22.10836 0.02414 -0.03213
C 24.57816 32.69868 0.02239
C 25.78748 31.93811 0.01153
C 25.76266 30.55543 0.02734
C 24.57378 29.84866 -0.0055
C 24.50615 28.49086 0.01515
C 25.7581 27.68681 -0.00225
C 25.82766 26.2775 0.00071
C 25.83726 10.60414 0.03102
C 24.56349 25.49798 -0.01107
C 25.81462 23.41944 -0.01971
C 25.85892 21.95031 -0.02118
C 24.65336 21.30298 0.00733
C 24.55693 19.8913 -0.00178
C 25.81749 19.21666 0.00768
C 25.85854 17.80987 -0.0276
C 24.59923 17.04773 0.03005
C 24.56975 15.60218 -0.04078
C 25.82787 14.86891 0.02117
C 25.89962 13.44905 0.02737
C 24.51638 12.72235 -0.00498
C 24.59396 24.2014 -0.01586
C 2.49634 32.57591 0.00297
