390
Graphene
C 34.34191 34.06243 0.01295
C 12.28419 12.97914 0.01363
C 12.38501 11.49518 -0.02162
C 13.52308 10.6844 0.00415
C 13.49765 9.27542 -0.0014
C 12.26322 8.54652 0.02162
C 12.26483 7.13659 0.0076
C 13.57654 6.43699 0.01241
C 13.59909 4.95309 -0.01454
C 12.3785 4.35902 0.01945
C 13.56858 13.64665 0.01877
C 12.31329 2.88471 0.01416
C 13.55375 0.73691 0.02299
C 12.31318 0.0221 0.00244
C 14.69027 32.53618 -0.01717
C 15.99631 31.79548 0.05265
C 15.91457 30.42137 -0.01952
C 14.48434 29.65176 -0.02813
C 14.48718 28.28084 0.00374
C 14.89549 15.80752 0.00052
C 16.0177 14.76979 -0.03682
C 13.49713 2.11183 0.03542
C 15.95266 13.4461 0.01965
C 13.58802 15.24224 -0.00925
C 11.48092 28.33171 -0.01789
C 9.78017 15.63102 0.0402
C 11.08398 14.99343 0.00572
C 11.09746 13.59285 0.03592
C 9.83512 12.83125 0.00406
C 9.92956 11.38367 0.00943
C 11.19474 10.75543 0.02841
C 11.11553 9.28915 -0.01111
C 9.83515 8.52994 -0.01275
C 9.84188 7.13237 0.00985
C 12.25139 15.79673 0.00444
C 11.08004 6.45641 -0.02245
C 9.89101 4.33602 0.03101
C 9.76428 2.92748 -0.01536
C 11.05784 2.1986 -0.02689
C 11.12785 0.77342 -0.01046
C 9.80088 0.0727 -0.00891
C 12.29713 32.69412 0.02819
C 13.46019 31.85652 0.00165
C 13.22583 30.42607 -0.02971
C 11.99851 29.7209 0.02894
C 11.17048 4.95051 -0.00428
C 14.66344 12.83403 0.02058
C 14.81107 11.33287 -0.01957
C 15.98662 10.59624 -0.0108
C 18.43566 9.20589 0.03698
C 17.1442 8.48728 -0.00109
C 17.20542 7.06019 -0.00491
C 18.418 6.40063 0.03338
C 18.49506 4.9463 -0.0258
C 17.25817 4.27871 -0.0331
C 17.19795 2.89684 -0.00316
C 18.39223 2.03118 0.02188
C 18.44879 0.66764 -0.01979
C 18.46399 10.56764 -0.02213
C 17.23916 33.96264 0.02691
C 20.95866 31.77008 0.01452
C 20.96419 30.35154 0.04892
C 19.66666 29.6933 -0.00111
C 19.68658 28.19645 -0.03557
C 20.91404 27.51853 0.03754
C 19.4966 19.79684 0.01739
C 20.86007 19.39969 0.00755
C 20.68144 17.82937 -0.0054
C 19.42701 17.05215 0.00667
C 19.72652 32.42572 -0.01581
C 17.24099 11.3043 0.00028
C 17.14264 12.74187 -0.00289
C 18.39419 13.4229 -0.00066
C 15.99825 9.21412 -0.00368
C 14.77259 8.55625 -0.02696
C 14.75271 7.1352 -0.00114
C 15.99222 6.43685 0.00228
C 16.05724 5.0468 0.00798
C 14.88062 4.25385 0.00422
C 14.7623 2.82674 0.0351
C 15.92956 2.08328 -0.03113
C 16.05846 0.62912 0.02098
C 14.80458 33.95475 0.01848
C 17.19936 32.5695 -0.00619
C 18.39729 31.83371 -0.02162
C 18.49187 30.38524 0.00889
C 17.13468 29.69115 -0.00481
C 17.15583 28.34704 0.00979
C 18.34521 27.68678 0.01443
C 18.29084 19.07519 0.03505
C 18.13048 17.78907 -0.02815
C 16.87299 16.87996 -0.04147
C 17.19927 15.48962 -0.05302
C 18.44159 14.84852 0.00213
C 9.91301 17.06463 -0.02759
C 10.07699 28.54015 0.03589
C 9.74899 30.00087 -0.00033
C 11.02998 30.64346 -0.01062
C 2.37438 4.32243 -0.00518
C 2.32833 2.85825 0.0086
C 3.61732 2.22989 -0.00643
C 3.63288 0.76561 0.017
C 2.38279 0.09067 -0.03113
C 4.82554 32.71227 -0.02566
C 6.05033 32.01055 -0.00094
C 6.10343 30.51841 0.02322
C 4.88057 29.93985 -0.00725
C 3.60531 5.02157 -0.00074
C 4.92517 28.4175 -0.05697
C 6.1315 26.31087 -0.01343
C 4.91605 25.59043 0.00988
C 4.73733 24.17709 0.0276
C 6.00299 23.53797 0.01305
C 6.10219 22.09728 -0.00077
C 4.86345 21.29872 0.03368
C 4.90781 19.91225 -0.02929
C 6.2216 19.24713 -0.00966
C 6.23723 17.89602 -0.03337
C 6.2339 27.73415 0.01087
C 3.62021 6.44391 0.01465
C 2.40337 7.11942 -0.03996
C 2.41482 8.44114 0.01996
C 3.67696 30.61291 -0.03291
C 2.42072 29.89617 -0.04999
C 2.3536 28.45259 0.04505
C 3.58866 27.77245 0.03284
C 3.72534 26.41237 -0.04307
C 2.48468 25.59652 0.03189
C 2.43639 24.21291 0.00031
C 3.52027 23.39128 -0.003
C 3.56466 21.98243 0.01402
C 2.38364 21.26014 0.02379
C 2.42395 19.79829 0.00907
C 3.72973 19.20671 0.00643
C 3.75105 17.77931 -0.01509
C 2.54088 17.03214 0.03267
C 2.47871 15.61118 0.02374
C 3.74409 14.89781 0.00402
C 3.62147 13.49847 0.0073
C 2.35263 12.80957 0.0174
C 2.38837 11.43999 0.03828
C 3.62701 10.69476 0.01226
C 3.6202 9.24061 -0.00279
C 5.0072 17.17809 0.01227
C 19.64557 15.63582 0.00143
C 4.97429 15.71964 0.00873
C 6.17514 13.57036 0.00848
C 8.76596 17.91044 0.01745
C 7.35072 17.15973 0.00488
C 7.38468 15.75057 -0.01004
C 8.5543 14.95116 -0.02896
C 8.57554 13.59884 -0.00131
C 7.39268 12.80701 -0.01118
C 7.39418 11.40654 -0.014
C 8.64888 10.67553 0.02147
C 8.58088 9.31111 0.00373
C 8.57887 19.32437 0.03693
C 7.3914 8.57721 -0.00191
C 8.58155 6.43379 0.01291
C 8.65303 5.02929 0.00093
C 7.38252 4.30694 0.00057
C 7.29136 2.88678 -0.01634
C 8.5109 2.16962 -0.00334
C 8.56743 0.74847 0.02339
C 7.28766 0.13196 0.01641
C 9.75332 32.74708 -0.00719
C 11.01094 32.00836 0.01364
C 7.39879 7.16566 0.00438
C 7.38009 20.05737 -0.01384
C 7.37281 21.54697 -0.00482
C 7.26673 24.07479 0.02888
C 4.95026 12.81247 -0.01303
C 4.84247 11.35043 -0.01378
C 6.12407 10.65516 0.02635
C 6.11535 9.28228 0.0127
C 4.91509 8.56749 0.01396
C 4.87953 7.12165 0.01849
C 6.13331 6.49067 -0.01142
C 6.16732 5.03686 -0.00562
C 4.84646 4.32787 -0.00494
C 4.81464 2.95625 0.00054
C 6.03634 2.29582 0.03007
C 6.0949 0.84348 -0.00095
C 4.84977 0.08014 0.01572
C 7.27108 32.74358 -0.04848
C 8.53865 32.10613 -0.00892
C 8.57242 30.55972 -0.01362
C 7.39895 29.85546 -0.0008
C 7.47506 28.46961 0.0288
C 8.85565 27.71971 0.00393
C 8.61607 26.41809 0.00895
C 7.48687 25.47312 0.00685
C 6.27264 15.01288 -0.00049
C 20.84137 14.88034 -0.017
C 20.90072 13.44154 0.00364
C 19.63968 12.70571 -0.00831
C 29.4488 7.09744 0.07705
C 30.65909 6.30938 0.0103
C 30.54364 4.81353 0.02108
C 29.30677 4.33799 0.00716
C 30.54158 0.83259 0.00307
C 29.1498 0.1359 0.00346
C 31.84267 32.67351 0.01713
C 33.06587 31.99292 -0.01694
C 33.1718 30.52367 0.01428
C 29.43099 8.53109 0.01908
C 31.87857 29.86643 -0.02142
C 33.14538 27.67448 0.00026
C 33.18369 26.29878 0.00682
C 32.01981 25.50805 -0.01779
C 31.91961 24.06784 0.03794
C 33.18878 23.3705 0.01927
C 33.20427 21.92389 0.01574
C 31.99003 21.21304 -0.02383
C 31.95057 19.79399 -0.01429
C 33.22227 19.23705 -0.0136
C 31.95533 28.39735 0.0544
C 30.66808 9.30487 0.01518
C 30.69016 10.67933 -0.00971
C 29.42885 11.38323 -0.03735
C 27.30199 33.98004 0.04266
C 29.39994 32.74925 0.01324
C 30.68256 32.03724 0.0014
C 30.71975 30.61151 0.00924
C 29.58334 29.86017 0.02326
C 29.56599 28.40511 0.00261
C 30.77108 27.6151 0.03265
C 30.78616 26.25437 -0.02049
C 29.56521 25.57273 -0.01854
C 29.56048 24.10429 -0.01415
C 30.67797 23.42254 -0.03039
C 30.7648 22.05011 0.01836
C 29.50443 21.35208 0.03531
C 29.39509 19.95278 -0.00669
C 30.77141 19.1746 0.0101
C 30.71693 17.75257 0.01705
C 29.43052 17.09535 -0.0405
C 29.46788 15.6501 -0.01303
C 30.68737 14.92306 -0.01461
C 30.70527 13.54497 -0.02155
C 29.37197 12.80201 -0.00944
C 33.20728 17.73724 0.00594
C 27.11438 2.85198 0.01177
C 31.9546 17.04259 -0.02474
C 33.04811 14.94591 0.00455
C 0.0294 21.32623 -0.02213
C 0.02705 19.92612 0.01951
C 1.23372 19.10898 -0.01678
C 1.26824 17.75383 0.01223
C 34.39633 17.00395 0.00648
C 34.3562 15.68413 0.02114
C 1.22097 14.94879 -0.02957
C 1.18556 13.54863 0.00343
C 34.34251 12.90821 -0.02656
C 1.26185 22.06384 0.02712
C 34.35434 11.41613 -0.02442
C 1.1375 9.34836 -0.00583
C 34.37426 8.55406 -0.02302
C 34.33043 7.16962 -0.02849
C 1.12154 6.3875 0.02931
C 1.12906 5.0213 0.00628
C 34.31396 4.28503 -0.0345
C 34.28582 2.82556 -0.00931
C 1.13707 2.08365 -0.00939
C 1.14563 0.67367 -0.00468
C 1.16707 10.72356 -0.00027
C 1.19456 23.47726 0.00723
C 34.41883 24.10129 0.03076
C 34.40982 25.54554 -0.05239
C 33.13616 13.55776 -0.00644
C 31.9399 12.73129 -0.01839
C 31.91577 11.39508 0.00137
C 33.11798 10.68204 0.00199
C 33.12032 9.22288 0.04381
C 31.85726 8.5862 0.02806
C 31.84932 7.11259 0.01504
C 33.11617 6.42362 -0.00069
C 33.03575 4.98699 0.04926
C 31.75765 4.12563 -0.03838
C 31.76279 2.60007 0.00349
C 33.01646 2.13616 -0.00323
C 33.12174 0.715 -0.00841
C 31.87792 0.02356 0.0001
C 34.2702 32.65929 -0.02927
C 1.07961 31.9912 -0.01404
C 1.20411 30.57535 0.01027
C 34.35536 29.7824 0.01831
C 34.34699 28.37569 -0.01037
C 1.13809 27.71986 -0.00439
C 1.26596 26.23809 -0.00598
C 31.89056 15.69592 0.00369
C 3.5906 32.03056 0.02769
C 27.02823 4.26143 -0.00416
C 28.22633 6.40254 0.01799
C 22.08556 12.82286 0.01126
C 22.05956 11.35498 0.01852
C 23.2767 10.60217 -0.00381
C 23.29921 9.14524 0.03046
C 22.09495 8.45538 0.0296
C 22.12311 7.02941 0.03374
C 23.4129 6.3701 -0.02845
C 23.43644 4.87412 -0.03213
C 22.13848 4.22194 0.02239
C 23.32596 13.60296 -0.01185
C 22.08193 2.76638 0.01153
C 23.43604 0.66337 -0.0055
C 22.21056 33.95032 0.01515
C 24.57599 32.60811 -0.00225
C 25.7998 31.94587 0.00071
C 25.82427 30.47385 -0.01107
C 24.50565 29.74924 -0.01586
C 24.62538 28.3658 -0.01971
C 25.87571 27.74948 -0.02118
C 25.77999 26.35066 0.00733
C 23.3415 2.16771 0.02734
C 23.26492 15.0757 -0.01662
C 22.0412 15.70385 -0.00478
C 21.94027 17.14845 0.01511
C 19.6266 11.36281 -0.02957
C 20.9391 10.61113 -0.04422
C 20.93155 9.20662 0.00654
C 19.68197 8.5112 -0.00703
C 19.6472 7.10418 -0.04076
C 20.85605 6.33882 -0.00652
C 20.9432 4.91168 0.0058
C 19.68351 4.17726 -0.00865
C 19.67265 2.76459 0.00675
C 20.87059 2.02583 -0.00311
C 20.9205 0.61928 0.00742
C 19.69976 33.97691 -0.01594
C 22.13623 32.57244 0.0106
C 23.32298 31.83642 -0.01154
C 23.30041 30.41849 -0.01721
C 22.17063 29.6006 -0.02422
C 22.25221 27.94688 0.01277
C 23.63776 27.24895 0.00096
C 22.16211 20.0419 -0.01527
C 23.28531 19.25523 0.01087
C 23.16548 17.75893 0.00199
C 24.37274 26.05765 -0.00178
C 28.21406 5.05153 0.01699
C 25.76779 23.49741 0.00768
C 24.48352 21.35161 0.03005
C 28.29186 27.70376 -0.00037
C 28.36104 26.2779 -0.0032
C 26.99535 25.59246 0.00622
C 27.07858 24.23521 -0.02815
C 28.1931 23.41792 -0.00942
C 28.24209 21.9934 0.00487
C 26.94576 21.28518 0.00826
C 27.0103 19.93243 -0.00294
C 28.24071 19.24626 0.00152
C 27.14486 28.38475 -0.01654
C 28.24005 17.85245 0.01257
C 26.94665 15.6566 0.04185
C 28.14133 14.95934 0.00194
C 28.22483 13.55101 -0.00621
C 26.95653 12.77475 0.02611
C 27.03566 11.36538 0.02198
C 28.2192 10.67262 0.01094
C 28.20959 9.2001 0.00235
C 26.96498 8.52457 0.01495
C 27.02738 7.14785 0.01259
C 26.99672 17.10126 0.02316
C 27.10005 29.8311 -0.00218
C 28.26483 30.45315 -0.00802
C 28.31493 31.87757 0.00195
C 24.592 19.97778 -0.04078
C 25.79837 19.22707 0.02117
C 25.73696 17.85474 0.02737
C 24.47442 17.10939 -0.00498
C 24.45715 15.68865 0.00135
C 25.70511 14.93462 0.03102
C 25.80187 13.49877 0.02555
C 24.52913 12.81356 0.01423
C 24.49766 11.26119 -0.00285
C 25.80493 10.61884 -0.009
C 25.7804 9.20633 -0.01199
C 24.54684 8.50551 -0.00229
C 24.58925 7.04524 -0.00938
C 25.78398 6.40339 -0.0264
C 25.8257 4.96826 -0.01154
C 24.63894 4.15172 0.00684
C 24.64056 2.70288 -0.01052
C 25.97119 2.05759 -0.01679
C 26.12416 0.61844 0.00367
C 24.73567 34.00072 0.04306
C 27.10983 32.56608 0.00996
C 25.71497 22.06751 -0.0276
C 2.41593 32.73964 0.01707
