324
Graphene
C 34.36726 0.01316 0.01295
C 9.82783 25.55302 -0.00066
C 10.01428 24.10325 -0.00289
C 11.15553 23.35024 0.00028
C 11.07833 21.982 -0.02213
C 9.80735 21.26841 0.03698
C 9.75581 19.91906 -0.00109
C 11.08374 19.19354 -0.00491
C 11.08876 26.28522 0.00213
C 11.16622 17.71881 0.03338
C 9.92065 15.5758 -0.0331
C 11.14567 14.82074 -0.00316
C 11.12426 13.40538 0.02188
C 9.84802 12.68751 -0.01979
C 9.82075 11.27112 0.02691
C 11.16555 10.54907 -0.01581
C 11.09449 9.19748 0.01452
C 9.84981 16.99533 -0.0258
C 9.83396 8.53573 0.04892
C 11.01119 27.69804 -0.05302
C 9.85049 29.927 -0.02815
C 7.38911 12.6777 -0.02696
C 7.33319 11.31358 -0.00114
C 8.63194 10.58844 0.00228
C 8.61888 9.2052 0.00798
C 7.31885 8.48867 0.00422
C 7.37885 7.11312 0.0351
C 8.58316 6.37523 -0.03113
C 9.8048 28.43907 -0.04147
C 8.66629 5.03826 0.02098
C 7.40174 2.89364 -0.00619
C 8.62185 2.2005 -0.02162
C 8.57409 0.73931 0.00889
C 7.38669 0.01463 -0.00481
C 9.86565 32.60765 0.00979
C 11.07959 31.99277 0.01443
C 11.05369 30.56081 0.03505
C 7.39968 4.26303 0.01848
C 9.79039 7.06358 -0.00111
C 11.126 6.39977 -0.03557
C 11.06292 5.02222 0.03754
C 12.42842 12.53215 -0.01154
C 12.44781 11.16108 -0.01721
C 12.33504 8.4083 -0.02422
C 12.3052 7.00417 0.01277
C 13.54386 5.17658 0.00096
C 12.35856 4.41731 -0.01527
C 12.36753 2.87338 0.01087
C 13.53876 13.46691 0.0106
C 13.60742 2.23762 0.00199
C 12.28116 0.08164 -0.00478
C 14.64698 32.67473 -0.01662
C 15.88765 32.03061 -0.01185
C 16.00236 30.56981 0.01126
C 14.76894 29.86113 0.01852
C 14.65986 28.46059 -0.00381
C 15.90312 27.6326 0.03046
C 13.44925 0.80634 0.01511
C 13.5748 14.67184 -0.01594
C 12.44289 15.58531 0.00742
C 12.39796 17.02233 -0.00311
C 9.86986 4.3494 0.01739
C 9.85097 2.96564 0.00755
C 11.04479 2.24396 -0.0054
C 11.0167 0.78062 0.00667
C 9.81952 0.01933 0.00143
C 12.23664 32.72798 -0.017
C 13.44024 32.00987 0.00364
C 13.53023 30.54261 -0.00831
C 12.27388 29.81766 -0.02957
C 12.21075 28.39483 -0.04422
C 13.4183 27.7342 0.00654
C 13.46951 26.32564 -0.00703
C 12.31491 25.6465 -0.04076
C 12.51403 24.1827 -0.00652
C 13.87193 23.85842 0.0058
C 12.33642 21.25103 -0.00865
C 12.27651 19.88321 0.00675
C 8.66577 13.47705 -0.00368
C 15.85368 26.28367 0.0296
C 8.6323 14.89408 -0.0108
C 7.45715 17.02439 0.02058
C 3.62451 9.1751 0.00093
C 2.37154 8.43144 0.00057
C 2.40241 7.08092 -0.01634
C 3.67544 6.35502 -0.00334
C 3.65539 4.95014 0.02339
C 2.36686 4.27414 0.01641
C 2.43794 2.86567 -0.00719
C 3.56915 10.68369 0.01291
C 3.67447 2.16271 0.01364
C 2.4249 0.05881 -0.00033
C 4.90695 32.7174 0.03589
C 6.04828 31.98379 -0.02759
C 6.11969 30.53864 0.0402
C 4.91266 29.85547 0.00572
C 4.90016 28.43577 0.03592
C 6.21553 27.72788 0.00406
C 3.69342 0.76161 -0.01062
C 6.15366 26.2741 0.00943
C 2.36056 11.4181 0.00438
C 3.65367 13.51276 0.00373
C 3.69609 30.56062 0.0288
C 2.50701 29.95842 0.00393
C 2.32376 28.56833 0.00895
C 3.54246 27.69456 0.00685
C 3.62322 26.31697 0.02888
C 2.39496 25.60821 -0.00482
C 2.48016 24.20062 -0.01384
C 2.41822 12.79422 -0.00191
C 3.70533 23.45345 0.03693
C 2.47716 21.34475 0.00488
C 2.45757 19.96607 -0.01004
C 3.63486 19.19084 -0.02896
C 3.66397 17.77276 -0.00131
C 2.37734 17.12712 -0.01118
C 2.39483 15.66293 -0.014
C 3.63997 14.87728 0.02147
C 3.63631 22.08986 0.01745
C 4.89911 25.60844 0.02841
C 4.92799 24.11243 -0.01111
C 6.20151 23.41004 -0.01275
C 4.91836 0.0665 0.0076
C 7.35284 32.70425 0.01241
C 8.60845 31.94313 -0.01454
C 8.48655 30.54582 0.01945
C 7.34504 29.8161 0.01416
C 7.34789 28.46361 0.03542
C 8.62717 27.78438 0.02299
C 6.19606 0.77338 0.02162
C 8.66302 26.21756 0.00244
C 7.45525 24.13559 0.05265
C 8.71535 23.37539 -0.01952
C 8.61157 22.01601 -0.02813
C 7.36882 21.27013 0.00374
C 7.42223 19.77334 0.00052
C 8.64614 19.05229 -0.03682
C 8.62298 17.65263 0.01965
C 7.39431 25.63631 -0.01717
C 6.1686 2.22633 -0.0014
C 4.8709 2.88653 0.00415
C 4.89471 4.31265 -0.02162
C 6.17879 22.02271 0.00985
C 4.9466 21.31542 -0.02245
C 4.93822 19.85298 -0.00428
C 6.18667 19.18694 0.03101
C 6.14958 17.80215 -0.01536
C 4.87639 17.02302 -0.02689
C 4.87877 15.62894 -0.01046
C 6.14554 14.90455 -0.00891
C 6.15126 13.44693 0.02819
C 4.85405 12.85327 0.00165
C 4.81994 11.34774 -0.02971
C 6.07391 10.56965 0.02894
C 6.14919 9.17788 -0.01789
C 4.8615 8.58704 0.00444
C 4.86209 7.12069 -0.00925
C 6.12588 6.4174 0.01877
C 6.11934 4.98364 0.01363
C 7.42294 15.65198 -0.01957
C 14.58227 25.44849 0.03374
C 14.94035 2.85674 -0.02845
C 16.23237 2.13906 -0.03213
C 33.13979 26.27278 0.00682
C 31.80424 25.60725 -0.01779
C 31.89052 24.10356 0.03794
C 33.18856 23.46385 0.01927
C 33.12409 22.04475 0.01574
C 31.96397 21.2814 -0.02383
C 32.08213 19.85315 -0.01429
C 33.14291 27.68568 0.00026
C 33.34654 19.2174 -0.0136
C 31.91713 17.0369 -0.02474
C 31.91677 15.69394 0.00369
C 33.08776 14.96274 0.00455
C 33.1354 13.49698 -0.00644
C 31.95317 12.80554 -0.01839
C 31.94876 11.42701 0.00137
C 33.20214 10.62315 0.00199
C 33.22389 17.78288 0.00594
C 33.1492 9.22577 0.04381
C 31.88264 28.40754 0.0544
C 33.14469 30.50001 0.01428
C 30.77626 13.55397 -0.01303
C 29.53312 12.82093 -0.01461
C 29.64752 11.51267 -0.02155
C 30.77957 10.66234 -0.00944
C 30.66722 9.23362 -0.03735
C 29.32 8.69658 -0.00971
C 29.40777 7.21255 0.01518
C 31.90456 29.81137 -0.02142
C 30.69728 6.32145 0.01908
C 29.42687 4.3093 0.0103
C 29.462 2.87059 0.02108
C 30.67904 2.17188 0.00716
C 30.67943 0.6948 0.00307
C 29.45522 34.04544 0.00346
C 31.85888 32.63119 0.01713
C 33.10627 31.93333 -0.01694
C 30.56904 4.92255 0.07705
C 31.86717 8.5031 0.02806
C 31.89597 7.13002 0.01504
C 33.16333 6.41379 -0.00069
C 34.40783 17.16189 0.00648
C 34.37294 15.65692 0.02114
C 1.14719 14.94924 -0.02957
C 1.19455 13.54174 0.00343
C 34.30767 12.8344 -0.02656
C 34.31074 11.32319 -0.02442
C 1.07822 10.59433 -0.00027
C 1.19393 17.86765 0.01223
C 1.12686 9.1678 -0.00583
C 34.38542 7.09012 -0.02849
C 1.19513 6.38355 0.02931
C 1.12373 4.9835 0.00628
C 34.34209 4.27458 -0.0345
C 34.40938 2.81186 -0.00931
C 1.21238 2.07211 -0.00939
C 1.1865 0.69654 -0.00468
C 34.33225 8.48642 -0.02302
C 1.30207 19.24667 -0.01678
C 0.01814 19.96335 0.01951
C 34.39906 21.40937 -0.02213
C 33.07511 4.96859 0.04926
C 31.84317 4.25946 -0.03838
C 31.90853 2.83774 0.00349
C 33.16044 2.11742 -0.00323
C 33.13984 0.78846 -0.00841
C 31.92589 34.05494 0.0001
C 34.37233 32.62925 -0.02927
C 1.18576 31.98361 -0.01404
C 1.27022 30.60015 0.01027
C 34.38439 29.82098 0.01831
C 34.32276 28.44 -0.01037
C 1.16027 27.79071 -0.00439
C 1.13384 26.33878 -0.00598
C 34.34782 25.58837 -0.05239
C 0.00697 24.16498 0.03076
C 1.24796 23.51524 0.00723
C 1.22106 22.05867 0.02712
C 30.6975 14.94966 -0.0405
C 29.50086 15.54565 0.01705
C 29.37414 16.97778 0.0101
C 30.64559 17.68421 -0.00669
C 21.9989 29.82289 0.03102
C 22.02913 28.43963 0.02555
C 23.22362 27.8115 0.01423
C 23.41945 2.06773 -0.00285
C 23.27548 0.6803 -0.009
C 21.99617 0.04569 -0.01199
C 24.60229 32.67647 -0.00229
C 23.32706 30.53335 0.00135
C 25.74325 31.83887 -0.00938
C 24.41073 29.68356 -0.01154
C 24.54217 28.2556 0.00684
C 25.75823 27.49861 -0.01052
C 25.59682 26.14732 -0.01679
C 24.52235 2.68324 0.00367
C 25.76749 2.1097 0.04306
C 25.7516 0.60892 0.00996
C 25.6601 30.42479 -0.0264
C 23.35162 31.92009 -0.00498
C 22.06228 32.70108 0.02737
C 19.59034 0.26659 0.02117
C 15.88808 0.67919 0.02239
C 14.67462 0.00815 0.01153
C 17.09218 32.75338 0.02734
C 18.37988 32.07698 -0.0055
C 18.40468 30.63786 0.01515
C 17.21182 29.91246 -0.00225
C 17.25606 28.41372 0.00071
C 18.44308 27.92049 -0.01107
C 17.54093 2.22536 -0.01586
C 18.23715 0.96894 -0.01971
C 17.04761 0.00962 -0.02118
C 19.52184 32.85405 0.00733
C 20.79817 32.11237 -0.00178
C 20.80415 30.66143 0.00768
C 19.60222 29.89466 -0.0276
C 19.67207 28.54929 0.03005
C 20.80362 0.82366 -0.04078
C 24.60958 34.06402 0.00195
C 3.68803 31.98363 -0.0008
C 26.90605 32.53092 -0.00802
C 28.12764 30.43002 -0.01654
C 28.23909 0.66979 0.01699
C 26.96185 33.99026 -0.00416
C 29.44338 32.5682 0.01177
C 30.70293 31.94082 0.04266
C 30.61561 30.52484 0.01324
C 29.40418 29.83473 0.0014
C 29.3956 28.41196 0.00924
C 28.28071 2.03711 0.01799
C 30.66068 27.6897 0.02326
C 29.37354 25.49328 0.03265
C 29.47526 24.10958 -0.02049
C 30.72532 23.40086 -0.01854
C 30.6434 22.01532 -0.01415
C 29.39781 21.32815 -0.03039
C 29.47598 19.85238 0.01836
C 30.7916 19.18552 0.03531
C 30.61219 26.24212 0.00261
C 27.00032 2.7938 0.01259
C 26.94236 4.16489 0.01495
C 28.14011 5.07882 0.00235
C 26.8736 29.74369 -0.00037
C 26.9506 28.24768 -0.0032
C 28.20676 27.60986 0.00622
C 28.17306 26.11823 -0.02815
C 26.81438 25.42814 -0.00942
C 27.08811 24.05934 0.00487
C 28.20456 23.33386 0.00826
C 28.1044 21.85001 -0.00294
C 28.34504 19.06886 0.00152
C 28.09128 17.72759 0.01257
C 27.08696 15.73855 0.02316
C 28.0778 14.80115 0.04185
C 28.10266 13.21401 0.00194
C 27.50334 12.05042 -0.00621
C 28.19032 10.90337 0.02611
C 28.28982 9.62513 0.02198
C 28.18085 6.4954 0.01094
C 28.2055 31.83626 -0.00218
C 2.42125 32.70665 -0.01362
