307
Graphene
C 34.3569 0.01118 0.01295
C 11.09021 0.69069 -0.01979
C 9.90398 33.97834 0.02691
C 12.3383 32.56863 -0.01581
C 13.56237 31.89563 0.01452
C 13.60564 30.44453 0.04892
C 12.35322 29.78989 -0.00111
C 12.27524 28.42692 -0.03557
C 13.51036 27.6929 0.03754
C 13.41023 26.31667 0.01739
C 12.15911 25.56314 0.00755
C 12.16064 24.10602 -0.0054
C 13.41473 23.51668 0.00667
C 13.36868 22.07951 0.00143
C 12.26253 21.24905 -0.017
C 13.54062 4.9267 0.00364
C 11.06756 2.12193 0.02188
C 12.26948 4.32847 -0.00831
C 9.87118 2.80195 -0.00316
C 10.98085 4.93691 -0.0258
C 8.64584 2.06511 0.00979
C 8.62081 0.60361 0.01443
C 7.33986 0.13417 0.03505
C 9.89698 32.59073 -0.02815
C 11.14961 31.85787 -0.04147
C 11.10175 30.46528 -0.05302
C 9.85059 29.86717 0.00213
C 9.81196 28.46617 -0.00066
C 10.97865 27.72651 -0.00289
C 11.0417 26.33065 0.00028
C 9.86243 25.59226 -0.02213
C 9.77597 24.19046 0.03698
C 10.91629 23.46935 -0.00109
C 10.98005 21.72213 -0.00491
C 9.6801 21.23354 0.03338
C 9.7632 4.36871 -0.0331
C 12.29311 2.88023 -0.02957
C 13.51143 2.19792 -0.04422
C 13.53879 0.83865 0.00654
C 17.29924 19.85593 -0.01662
C 18.55937 19.35071 -0.01185
C 18.25623 6.36065 0.01126
C 18.4823 5.01484 0.01852
C 17.30019 4.27779 -0.00381
C 17.22025 2.8648 0.03046
C 18.44398 2.06728 0.0296
C 18.432 0.69109 0.03374
C 17.2167 34.02502 -0.02845
C 19.65261 32.77248 -0.03213
C 19.68867 18.78836 0.02239
C 21.13943 19.19779 0.01153
C 21.09819 17.58308 0.02734
C 19.83449 17.06458 -0.0055
C 21.04073 15.09183 0.01515
C 16.12614 20.692 -0.00478
C 18.49403 32.02197 0.01511
C 17.18209 32.52905 0.00199
C 14.73292 0.05264 0.01087
C 12.43309 34.0674 -0.00703
C 14.73408 32.6604 -0.04076
C 15.93163 31.81615 -0.00652
C 16.02872 30.42527 0.0058
C 14.84537 29.74156 -0.00865
C 14.7524 28.26802 0.00675
C 14.63672 25.74293 -0.00311
C 7.39135 2.76551 -0.00481
C 14.697 24.34947 0.00742
C 15.9571 22.24542 0.0106
C 14.87233 21.46151 -0.01154
C 16.21632 5.03041 -0.01721
C 14.86733 4.38768 -0.02422
C 14.82264 2.87182 0.01277
C 16.08297 2.12799 0.00096
C 15.96002 0.7065 -0.01527
C 15.95643 23.67819 -0.01594
C 20.88683 13.74018 -0.00225
C 7.26695 4.18745 0.00889
C 8.30774 6.5044 -0.00619
C 3.71434 10.63074 0.00943
C 3.67423 9.18183 0.02841
C 2.35927 8.52548 -0.01111
C 2.36439 7.17277 -0.01275
C 3.528 6.41853 0.00985
C 3.66965 5.05607 -0.02245
C 2.40764 4.36202 -0.00428
C 2.39324 2.94752 0.03101
C 3.60072 2.20326 -0.01536
C 3.54411 0.7545 -0.02689
C 2.36192 0.06727 -0.01046
C 4.85422 32.65636 -0.00891
C 6.19172 31.94788 0.02819
C 6.13216 30.56398 0.00165
C 5.02679 29.76668 -0.02971
C 2.3957 11.41488 0.00406
C 4.87964 28.36899 0.02894
C 2.41021 12.82253 0.03592
C 3.58755 14.89871 0.0402
C 3.71703 30.50313 -0.00191
C 2.42563 29.84322 0.00438
C 2.36314 28.40175 0.01291
C 3.61937 27.75635 0.00093
C 3.66851 26.2749 0.00057
C 2.46219 25.5922 -0.01634
C 2.45665 24.21644 -0.00334
C 3.6599 23.43836 0.02339
C 3.68719 21.98579 0.01641
C 2.45673 21.30714 -0.00719
C 2.48858 19.79487 0.01364
C 3.70925 19.15994 -0.01062
C 3.66874 17.78901 -0.00033
C 2.47166 17.0636 0.03589
C 2.33837 15.6496 -0.02759
C 3.6309 13.50535 0.00572
C 6.14766 27.72074 -0.01789
C 6.09016 26.30057 0.00444
C 4.84272 25.61802 -0.00925
C 4.82146 34.04664 -0.03682
C 7.40918 32.71916 0.01965
C 8.5898 32.00127 0.02058
C 8.57489 30.56117 -0.01957
C 7.3657 29.88154 -0.0108
C 7.37171 28.38184 -0.00368
C 8.61323 27.7119 -0.02696
C 8.65711 26.2637 -0.00114
C 7.31319 25.64659 0.00228
C 7.22939 24.27743 0.00798
C 8.55808 23.5401 0.00422
C 8.51178 22.12001 0.0351
C 7.39151 21.41958 -0.03113
C 7.44454 19.93407 0.02098
C 7.15832 7.25424 0.01848
C 6.09522 0.76681 0.00052
C 6.13555 2.10089 0.00374
C 4.89523 2.89033 -0.02813
C 4.81358 4.27174 -0.01952
C 4.84559 24.12166 0.01877
C 6.07082 23.48183 0.01363
C 6.11254 22.08446 -0.02162
C 4.94744 21.33399 0.00415
C 4.89127 19.92616 -0.0014
C 6.18542 19.25053 0.02162
C 6.09949 17.89846 0.0076
C 8.43271 5.00033 -0.02162
C 4.96258 16.97608 0.01241
C 4.72269 12.7462 0.01945
C 4.91969 11.42806 0.01416
C 6.37792 8.65429 0.03542
C 4.97932 8.49415 0.02299
C 4.81591 7.08287 0.00244
C 6.03916 6.36909 -0.01717
C 6.05909 4.95795 0.05265
C 4.92213 15.56373 -0.01454
C 3.60562 31.96736 0.00373
C 20.87222 10.71848 0.00071
C 19.63593 8.4674 -0.01586
C 31.82911 29.78755 0.01927
C 31.95462 28.33166 0.01574
C 33.16764 27.70923 -0.02383
C 33.22441 26.28791 -0.01429
C 32.08314 25.54811 -0.0136
C 32.05853 24.21958 0.00594
C 33.20724 23.39485 -0.02474
C 31.68827 15.72931 0.00369
C 32.96517 15.15032 0.00455
C 33.07535 13.69234 -0.00644
C 31.87967 12.8973 -0.01839
C 31.95591 11.50474 0.00137
C 33.15657 10.81919 0.00199
C 33.12892 9.36998 0.04381
C 31.90246 8.5964 0.02806
C 33.03501 30.53341 0.03794
C 31.89761 7.19347 0.01504
C 33.10475 31.94778 -0.01779
C 29.46209 34.04735 0.00026
C 29.47637 23.78987 -0.03735
C 30.5759 14.9565 -0.00971
C 30.56822 13.60288 0.01518
C 29.34116 12.90684 0.01908
C 29.4531 11.46338 0.07705
C 30.71279 10.78322 0.0103
C 30.65838 9.36533 0.02108
C 29.43947 8.60332 0.00716
C 29.49649 7.18394 0.00307
C 30.65806 6.46213 0.00346
C 30.66246 4.98627 0.01713
C 29.46596 4.2482 -0.01694
C 29.39794 2.75252 0.01428
C 30.71096 2.17197 -0.02142
C 30.65517 0.70181 0.0544
C 31.86137 32.51899 0.00682
C 33.15887 6.47126 -0.00069
C 33.09262 5.08386 0.04926
C 31.91909 4.37891 -0.03838
C 34.28191 15.78752 0.02114
C 1.12564 15.0096 -0.02957
C 1.08968 13.57579 0.00343
C 34.32553 12.94632 -0.02656
C 34.38205 11.5195 -0.02442
C 1.12459 10.73501 -0.00027
C 1.16123 9.36905 -0.00583
C 34.33033 8.61951 -0.02302
C 34.40883 7.19131 -0.02849
C 1.22269 6.40402 0.02931
C 1.15503 4.9981 0.00628
C 34.34296 4.29939 -0.0345
C 34.3638 2.85219 -0.00931
C 1.17236 2.15904 -0.00939
C 1.1032 0.73935 -0.00468
C 34.4048 17.17224 0.00648
C 1.14303 17.80479 0.01223
C 1.17709 19.21752 -0.01678
C 0.05739 20.01821 0.01951
C 31.88821 2.93871 0.00349
C 33.12803 2.17646 -0.00323
C 33.0577 0.69591 -0.00841
C 31.82844 34.05687 0.0001
C 34.42809 32.65866 -0.02927
C 1.22254 31.90612 -0.01404
C 1.17055 30.53404 0.01027
C 29.77004 25.07022 -0.00944
C 34.37147 29.84458 0.01831
C 1.14219 27.66276 -0.00439
C 1.23425 26.26356 -0.00598
C 0.01594 25.51354 -0.05239
C 34.35992 24.15349 0.03076
C 1.21363 23.46626 0.00723
C 1.21 22.02305 0.02712
C 34.38634 21.33761 -0.02213
C 34.37004 28.43815 -0.01037
C 20.76314 9.32132 -0.01107
C 30.68528 26.10742 -0.02155
C 29.5022 28.32174 -0.01303
C 22.0313 8.50167 -0.00938
C 21.97928 7.1245 -0.0264
C 23.2426 6.41516 -0.01154
C 23.32603 5.06261 0.00684
C 22.17199 4.37083 -0.01052
C 22.1327 3.00633 -0.01679
C 23.30839 2.15629 0.00367
C 23.32329 0.7187 0.04306
C 22.09343 33.9908 0.00996
C 24.51369 32.77469 0.00195
C 25.67175 32.0647 -0.00802
C 24.80151 19.62239 -0.00218
C 25.93373 18.78499 -0.01654
C 26.03235 17.46189 -0.00037
C 24.64283 17.06246 -0.0032
C 23.2367 9.22289 -0.00229
C 24.5596 15.63273 0.00622
C 23.25528 10.64886 -0.01199
C 22.07954 12.94743 -0.00285
C 19.43962 7.11305 -0.01971
C 20.84643 6.3916 -0.02118
C 20.87104 5.03316 0.00733
C 19.71787 4.35641 -0.00178
C 19.64645 2.84298 0.00768
C 20.89203 2.22573 -0.0276
C 21.02485 0.6778 0.03005
C 19.78578 0.05433 -0.04078
C 22.20136 20.0086 0.02117
C 23.50542 19.28173 0.02737
C 23.46491 17.85713 -0.00498
C 22.34969 17.08548 0.00135
C 22.24294 15.7676 0.03102
C 23.40771 14.96583 0.02555
C 23.36899 13.56995 0.01423
C 22.01566 11.41665 -0.009
C 25.73414 14.98381 -0.02815
C 25.73405 13.53737 -0.00942
C 24.55948 12.74582 0.00487
C 28.2182 10.69531 0.0014
C 28.23088 9.3025 0.00924
C 26.95273 8.62151 0.02326
C 26.98308 7.12001 0.00261
C 28.2564 6.49001 0.03265
C 28.18044 4.98021 -0.02049
C 26.98612 4.20869 -0.01854
C 27.01727 2.80184 -0.01415
C 28.18703 2.05478 -0.03039
C 28.22461 0.61138 0.01836
C 26.97348 34.06344 0.03531
C 29.46377 32.59467 -0.00669
C 30.69475 31.82146 0.0101
C 30.63762 30.40898 0.01705
C 29.32852 29.73095 -0.0405
C 27.00505 11.46541 0.01324
C 26.97972 12.88754 0.04266
C 28.15559 13.72827 0.01177
C 28.12042 15.21495 -0.00416
C 24.54793 11.35122 0.00826
C 25.7366 10.70234 -0.00294
C 25.67918 9.33911 0.00152
C 24.48763 8.58659 0.01257
C 24.49245 7.1452 0.02316
C 25.77989 6.40722 0.04185
C 25.72606 4.91506 0.00194
C 30.74807 27.61175 -0.01461
C 24.49403 4.30866 -0.00621
C 25.78944 2.22449 0.02198
C 25.77399 0.73229 0.01094
C 24.55445 0.02084 0.00235
C 26.96438 32.52677 0.01495
C 28.19064 31.91463 0.01259
C 28.20323 30.46736 0.01799
C 26.86351 15.86923 0.01699
C 24.59039 2.93329 0.02611
C 2.44151 32.69131 0.02147
