401
Graphene
C 0.00837 0.03428 0.01295
C 13.45371 6.4121 0.00165
C 13.57222 5.03046 -0.02971
C 12.34083 4.36205 0.02894
C 12.36179 2.88414 -0.01789
C 13.59935 2.12549 0.00444
C 13.51493 0.75735 -0.00925
C 12.29799 0.03865 0.01877
C 14.7623 32.64229 0.01363
C 15.95842 31.96833 -0.02162
C 15.99709 30.46595 0.00415
C 14.67808 29.8277 -0.0014
C 14.7059 28.34604 0.02162
C 15.94477 27.52576 0.0076
C 15.92622 26.15 0.01241
C 14.76653 25.46654 -0.01454
C 14.75304 23.89071 0.01945
C 16.13229 23.31151 0.01416
C 15.96099 10.62668 0.03542
C 15.85989 9.24367 0.02299
C 14.70789 8.50207 0.00244
C 14.71008 7.03351 -0.01717
C 12.25782 7.12283 0.02819
C 15.95887 6.42319 0.05265
C 12.32126 8.59371 -0.00891
C 13.41088 23.59227 -0.02689
C 9.77158 11.35947 0.02339
C 10.9049 10.72301 0.01641
C 11.03033 9.4159 -0.00719
C 9.87568 8.62252 0.01364
C 9.7965 7.25539 -0.01062
C 10.98594 6.47449 -0.00033
C 11.11938 5.06588 0.03589
C 9.88176 4.39008 -0.02759
C 9.79191 2.95224 0.0402
C 11.04915 2.23894 0.00572
C 11.08051 0.76211 0.03592
C 9.83362 0.0972 0.00406
C 12.23843 32.66242 0.00943
C 13.52563 32.0706 0.02841
C 13.51693 30.59693 -0.01111
C 12.28729 29.86809 -0.01275
C 12.2982 28.41853 0.00985
C 13.49848 27.56672 -0.02245
C 13.46194 26.09032 -0.00428
C 12.17894 25.46412 0.03101
C 12.14328 23.94307 -0.01536
C 13.51372 9.30106 -0.01046
C 10.45548 22.12656 -0.00334
C 16.02297 5.01114 -0.01952
C 14.83729 2.92298 0.00374
C 17.21652 34.05883 -0.05302
C 19.75151 32.70153 0.00213
C 20.96577 31.9255 -0.00066
C 20.91683 30.52137 -0.00289
C 19.66125 29.85169 0.00028
C 19.65043 28.33287 -0.02213
C 20.93642 27.70141 0.03698
C 20.87506 26.32667 -0.00109
C 19.72763 25.53761 -0.00491
C 19.67686 24.13686 0.03338
C 20.89467 23.28083 -0.0258
C 20.74653 21.88439 -0.0331
C 19.51452 21.12903 -0.00316
C 19.59925 19.78331 0.02188
C 20.75457 18.99511 -0.01979
C 20.89542 17.45065 0.02691
C 20.95691 15.07569 -0.01581
C 20.73485 13.7231 0.01452
C 19.62393 12.90629 0.04892
C 19.65908 11.48234 -0.00111
C 20.79939 10.67987 -0.03557
C 18.45735 0.68112 -0.04147
C 14.72961 4.26658 -0.02813
C 18.36686 2.11472 -0.02815
C 17.19236 4.19485 0.01443
C 16.02216 2.19573 0.00052
C 16.01689 0.81503 -0.03682
C 14.79497 0.06992 0.01965
C 17.18597 32.69621 0.02058
C 18.45154 31.93509 -0.01957
C 18.44866 30.48604 -0.0108
C 17.21653 29.76793 -0.00368
C 17.164 28.35165 -0.02696
C 18.41855 27.67654 -0.00114
C 18.48547 26.17729 0.00228
C 17.19478 25.48563 0.00798
C 17.17411 24.15884 0.00422
C 18.45683 23.42039 0.0351
C 18.31619 22.08464 -0.03113
C 17.15687 11.36007 0.02098
C 18.36183 10.62942 0.01848
C 18.43089 9.18075 -0.00619
C 17.18357 8.54501 -0.02162
C 17.11596 7.15857 0.00889
C 18.45162 6.37374 -0.00481
C 18.42788 5.00113 0.00979
C 17.21167 2.87285 0.03505
C 10.772 23.30061 -0.01634
C 9.71734 24.2511 0.00057
C 9.72128 25.65995 0.00093
C 2.42677 4.34943 0.02374
C 2.421 2.89767 0.00402
C 3.6582 2.17631 0.0073
C 3.64816 0.74767 0.0174
C 2.4268 0.02734 0.03828
C 4.85607 32.84899 0.01226
C 6.07854 32.02277 -0.00279
C 6.08898 30.60239 0.01996
C 4.81759 29.88986 -0.03996
C 4.84894 28.4077 0.01465
C 6.09342 27.81528 -0.00074
C 6.17233 26.39512 -0.00518
C 4.91229 25.55986 0.0086
C 4.89719 24.04216 -0.00643
C 6.13677 23.44771 0.017
C 6.16466 22.05963 -0.03113
C 4.96299 21.3246 -0.02566
C 4.92496 19.92198 -0.00094
C 6.19404 19.22599 0.02322
C 6.13698 17.83054 -0.00725
C 4.89549 17.02535 -0.05697
C 3.6709 5.09579 0.03267
C 4.71742 15.62365 0.01087
C 3.68175 6.4721 -0.01509
C 2.36633 8.56438 0.00907
C 3.67841 30.58639 -0.00039
C 2.42572 29.8156 0.0064
C 2.50215 28.42848 0.00211
C 3.62052 27.58822 -0.00449
C 3.65834 26.17218 -0.01979
C 2.42394 25.44517 0.02784
C 2.44635 23.9871 -0.01977
C 3.67854 23.39756 -0.00561
C 3.65429 21.93457 0.00208
C 2.46588 21.21916 0.01707
C 2.5005 19.81958 0.02769
C 3.7163 19.09024 -0.03291
C 3.67343 17.71989 -0.04999
C 2.44548 17.00577 0.04505
C 2.3065 15.60069 0.03284
C 3.51145 14.90223 -0.04307
C 3.61583 13.47281 0.03189
C 2.39109 12.7463 0.00031
C 2.40178 11.34369 -0.003
C 3.59623 10.6575 0.01402
C 3.63309 9.23792 0.02379
C 2.34166 7.08902 0.00643
C 6.02603 14.9597 -0.01343
C 6.03867 13.43751 0.00988
C 4.8221 12.74517 0.0276
C 7.2944 15.52517 -0.0008
C 7.28332 12.86972 0.0288
C 7.2817 11.44726 0.00393
C 8.56287 10.78033 0.00895
C 8.58535 9.33906 0.00685
C 7.33339 8.57536 0.02888
C 7.39238 7.18264 -0.00482
C 8.5864 6.4969 -0.01384
C 8.65575 5.07571 0.03693
C 7.37304 4.40018 0.01745
C 7.33247 2.94985 0.00488
C 8.54728 2.2636 -0.01004
C 8.67322 0.76526 -0.02896
C 7.33565 0.11647 -0.00131
C 9.79745 32.7435 -0.01118
C 11.09427 31.96962 -0.014
C 11.01837 30.46998 0.02147
C 9.81636 29.77805 0.00373
C 9.78524 28.37432 -0.00191
C 10.9662 27.7286 0.00438
C 11.04356 26.30008 0.01291
C 7.2936 16.93408 -0.01362
C 7.35855 19.894 -0.00892
C 7.61545 21.28599 -0.04848
C 8.88344 22.13824 0.01572
C 4.85571 11.34872 0.01305
C 6.05099 10.68418 -0.00077
C 6.12767 9.31295 0.03368
C 4.89662 8.58738 -0.02929
C 4.8384 7.25081 -0.00966
C 6.09675 6.51849 -0.03337
C 6.17752 5.06337 0.01227
C 4.90015 4.36927 0.00873
C 4.81029 2.9138 -0.00049
C 6.09498 2.32116 0.00848
C 20.81752 9.25363 0.03754
C 6.1373 0.85454 -0.01303
C 7.29264 32.73146 0.02635
C 8.54483 32.05307 0.0127
C 8.6205 30.61676 0.01396
C 7.3329 29.93296 0.01849
C 7.35672 28.58792 -0.01142
C 8.50446 27.72442 -0.00562
C 8.5394 26.3721 -0.00494
C 7.32443 25.59768 0.00054
C 7.3355 24.23038 0.03007
C 8.58041 23.60904 -0.00095
C 4.88103 0.09578 -0.01378
C 3.63215 32.02211 0.02728
C 19.61606 8.52321 0.01739
C 20.91167 6.41512 -0.0054
C 29.49675 7.10575 0.01518
C 30.69581 6.38245 0.01908
C 30.7297 4.95295 0.07705
C 29.42269 4.26458 0.0103
C 29.51844 2.86382 0.02108
C 30.71953 2.17277 0.00716
C 30.72004 0.74025 0.00307
C 29.55772 34.02456 0.00346
C 32.02571 32.68087 0.01713
C 33.21653 31.90103 -0.01694
C 33.1998 30.47775 0.01428
C 31.97851 29.79213 -0.02142
C 31.92829 28.3761 0.0544
C 33.18225 27.66454 0.00026
C 33.14458 26.22251 0.00682
C 31.91079 25.48053 -0.01779
C 31.90606 24.00462 0.03794
C 33.16256 23.3998 0.01927
C 33.18619 21.92907 0.01574
C 31.82629 21.30272 -0.02383
C 31.89611 19.89225 -0.01429
C 29.51668 8.44171 -0.00971
C 33.11243 19.22553 -0.0136
C 30.68735 9.16074 -0.03735
C 29.47744 11.3522 -0.02155
C 27.11899 34.08 -0.00416
C 29.59257 32.60435 0.01177
C 30.8475 31.91521 0.04266
C 30.72926 30.53807 0.01324
C 29.5427 29.88958 0.0014
C 29.50712 28.39348 0.00924
C 30.71056 27.70001 0.02326
C 30.74032 26.20011 0.00261
C 29.48828 25.46922 0.03265
C 29.49304 24.08438 -0.02049
C 30.70436 23.37471 -0.01854
C 30.6428 21.92276 -0.01415
C 29.4083 21.26031 -0.03039
C 29.43814 19.81445 0.01836
C 30.74118 19.14801 0.03531
C 30.64357 17.74566 -0.00669
C 29.45321 17.04443 0.0101
C 29.46552 15.58707 0.01705
C 30.6564 14.93787 -0.0405
C 30.64335 13.52821 -0.01303
C 29.43054 12.69406 -0.01461
C 30.68057 10.6249 -0.00944
C 28.27701 0.62922 0.01699
C 33.15628 17.86879 0.00594
C 31.91788 15.68166 0.00369
C 1.20122 21.91064 0.02712
C 34.34714 21.25014 -0.02213
C 34.37191 19.89536 0.01951
C 1.21528 19.16438 -0.01678
C 1.18243 17.77526 0.01223
C 34.35708 17.04303 0.00648
C 34.28157 15.63681 0.02114
C 1.10928 14.90198 -0.02957
C 1.1634 13.50015 0.00343
C 34.39362 12.77679 -0.02656
C 34.34708 11.3455 -0.02442
C 1.14422 10.71864 -0.00027
C 1.22135 9.33354 -0.00583
C 34.3759 8.6209 -0.02302
C 34.32042 7.22003 -0.02849
C 1.12244 6.41954 0.02931
C 1.18569 4.96479 0.00628
C 34.36814 4.3036 -0.0345
C 34.40527 2.84732 -0.00931
C 1.19258 2.13932 -0.00939
C 1.23453 0.76767 -0.00468
C 1.2079 23.31271 0.00723
C 31.87304 17.06645 -0.02474
C 0.00609 24.09821 0.03076
C 1.19043 26.27431 -0.00598
C 33.0864 14.94174 0.00455
C 33.13686 13.52002 -0.00644
C 31.90676 12.77708 -0.01839
C 31.95336 11.44173 0.00137
C 33.19186 10.66603 0.00199
C 33.15989 9.31159 0.04381
C 31.90689 8.54328 0.02806
C 31.86465 7.12862 0.01504
C 33.17867 6.46012 -0.00069
C 33.17058 5.03681 0.04926
C 31.93611 4.32877 -0.03838
C 31.97344 2.95602 0.00349
C 33.21262 2.1262 -0.00323
C 33.21218 0.76019 -0.00841
C 31.99939 0.0476 0.0001
C 34.36834 32.69465 -0.02927
C 1.20433 32.03814 -0.01404
C 1.2126 30.60958 0.01027
C 0.01664 29.82561 0.01831
C 0.03445 28.36012 -0.01037
C 1.19342 27.67256 -0.00439
C 34.38134 25.53677 -0.05239
C 28.29515 2.06901 0.01799
C 27.0982 2.8122 0.01259
C 27.07985 4.24465 0.01495
C 21.99871 12.90048 0.00199
C 21.98218 11.47892 0.01511
C 23.23895 10.81191 -0.00478
C 23.25515 9.3433 -0.01662
C 22.11588 8.52282 -0.01185
C 22.21102 7.14098 0.01126
C 23.4178 6.3866 0.01852
C 23.36571 4.99523 -0.00381
C 22.0677 4.30464 0.03046
C 22.18666 2.85538 0.0296
C 23.3621 2.09492 0.03374
C 23.33849 0.66712 -0.02845
C 22.07804 34.06442 -0.03213
C 24.72209 32.63661 0.02239
C 25.9574 31.8703 0.01153
C 25.85999 30.51634 0.02734
C 24.56725 29.79407 -0.0055
C 24.6133 28.38435 0.01515
C 25.83024 27.69431 -0.00225
C 25.80453 26.30145 0.00071
C 24.55752 25.58231 -0.01107
C 23.2556 13.41909 0.01087
C 24.48138 24.11629 -0.01586
C 23.45294 14.82627 -0.01527
C 22.20574 16.99375 0.01277
C 20.84768 4.98118 0.00667
C 19.65483 4.26712 0.00143
C 19.63593 2.79058 -0.017
C 20.93766 2.15809 0.00364
C 20.93286 0.66353 -0.00831
C 19.69366 34.05445 -0.02957
C 22.14389 32.56039 -0.04422
C 23.41744 31.95537 0.00654
C 23.37062 30.51418 -0.00703
C 22.11927 29.77123 -0.04076
C 22.14657 28.33759 -0.00652
C 23.36153 27.67126 0.0058
C 23.37113 26.25223 -0.00865
C 22.07885 25.59218 0.00675
C 22.0317 24.05011 -0.00311
C 23.20728 23.37292 0.00742
C 23.16673 21.96136 -0.01594
C 22.01286 21.2179 0.0106
C 22.03325 19.73697 -0.01154
C 23.32675 19.13469 -0.01721
C 23.3736 17.72301 -0.02422
C 22.22433 15.45629 0.00096
C 25.70788 23.45404 -0.01971
C 25.77662 22.01347 -0.02118
C 24.59333 21.23606 0.00733
C 28.36368 26.22709 -0.00802
C 27.08503 25.62094 -0.00218
C 27.04098 24.18488 -0.01654
C 28.21413 23.47329 -0.00037
C 28.23466 22.01319 -0.0032
C 26.98285 21.37053 0.00622
C 27.03378 19.91378 -0.02815
C 28.24044 19.15821 -0.00942
C 28.19205 17.67442 0.00487
C 26.92453 17.03459 0.00826
C 26.97939 15.63757 -0.00294
C 28.23259 14.89446 0.00152
C 28.20897 13.47361 0.01257
C 26.96288 12.70792 0.02316
C 26.99675 11.32544 0.04185
C 28.22058 10.66584 0.00194
C 28.21485 9.17621 -0.00621
C 26.98718 8.4858 0.02611
C 26.98991 7.07729 0.02198
C 28.22925 6.49846 0.01094
C 28.22549 4.98982 0.00235
C 28.32406 27.65529 0.00195
C 27.01269 28.41542 0.00996
C 27.05867 29.75448 0.04306
C 28.23663 30.55174 0.00367
C 24.49593 19.81855 -0.00178
C 25.7836 19.20192 0.00768
C 25.78074 17.70448 -0.0276
C 24.6068 17.00736 0.03005
C 24.60564 15.65388 -0.04078
C 25.7714 14.90998 0.02117
C 25.7288 13.47011 0.02737
C 24.49753 12.76018 -0.00498
C 24.50209 11.38681 0.00135
C 25.7299 10.70678 0.03102
C 19.69212 7.12076 0.00755
C 25.72798 9.25109 0.02555
C 24.67248 7.06654 -0.00285
C 25.7875 6.33649 -0.009
C 25.83688 4.9292 -0.01199
C 24.56272 4.24066 -0.00229
C 24.60882 2.86568 -0.00938
C 25.84046 2.14123 -0.0264
C 25.84102 0.71419 -0.01154
C 24.66375 34.07985 0.00684
C 27.13111 32.68122 -0.01052
C 28.34451 31.94953 -0.01679
C 24.51469 8.53964 0.01423
C 2.42485 32.74301 0.00245
