358
Graphene
C 0.01215 0.02509 0.01295
C 11.0929 4.97266 -0.01957
C 9.79574 4.25079 -0.0108
C 9.79578 2.79507 -0.00368
C 11.09444 2.06374 -0.02696
C 11.05646 0.68639 -0.00114
C 9.77017 0.03588 0.00228
C 12.35812 32.59996 0.00798
C 13.59219 31.83841 0.00422
C 11.07648 6.29834 0.02058
C 13.47639 30.3795 0.0351
C 12.29292 28.44157 0.02098
C 13.59722 27.80299 0.01848
C 13.7492 26.33645 -0.00619
C 12.42761 25.56451 -0.02162
C 12.26748 24.16209 0.00889
C 13.51122 23.36714 -0.00481
C 13.50489 21.91567 0.00979
C 12.24103 21.26219 0.01443
C 12.26609 29.79509 -0.03113
C 12.24344 19.86921 0.03505
C 9.88189 7.11657 0.01965
C 11.11269 9.17142 0.00052
C 11.08287 30.59959 0.01363
C 9.85122 29.83819 -0.02162
C 9.86769 28.41371 0.00415
C 11.09765 27.71065 -0.0014
C 11.17844 26.31554 0.02162
C 9.88264 25.65312 0.0076
C 9.842 24.22131 0.01241
C 11.02664 23.4077 -0.01454
C 9.88123 8.52548 -0.03682
C 11.04743 22.05859 0.01945
C 9.77686 19.87707 0.03542
C 10.97591 19.20146 0.02299
C 11.0013 17.68103 0.00244
C 9.81729 16.94143 -0.01717
C 9.67568 15.63185 0.05265
C 10.89694 14.79083 -0.01952
C 11.03686 13.40632 -0.02813
C 11.08451 10.62906 0.00374
C 9.76216 21.29184 0.01416
C 13.41339 19.12906 -0.02815
C 13.44424 17.70353 -0.04147
C 12.23413 16.98715 -0.05302
C 14.7699 16.94635 -0.0054
C 14.80083 15.55951 0.00667
C 15.60764 14.08523 0.00143
C 14.72366 12.96874 -0.017
C 14.71135 11.52809 0.00364
C 15.89191 10.68123 -0.00831
C 15.98983 9.26828 -0.02957
C 14.79597 8.43972 -0.04422
C 14.63139 19.81461 0.00755
C 14.7964 7.08079 0.00654
C 16.01341 4.96029 -0.04076
C 14.80092 4.263 -0.00652
C 14.73782 2.72718 0.0058
C 15.95595 2.06813 -0.00865
C 16.01941 0.62265 0.00675
C 14.74617 0.00882 -0.00311
C 18.13771 26.06612 0.00742
C 16.84174 25.47296 -0.01594
C 16.03969 6.36678 -0.00703
C 14.70728 21.16217 0.01739
C 15.84117 21.91778 0.03754
C 15.76046 23.23629 -0.03557
C 12.21456 15.56963 0.00213
C 13.39773 14.84568 -0.00066
C 13.47822 13.4479 -0.00289
C 12.25876 12.8199 0.00028
C 12.30035 11.34889 -0.02213
C 13.57226 10.71055 0.03698
C 13.57904 9.21099 -0.00109
C 12.33354 8.50342 -0.00491
C 12.35773 7.08506 0.03338
C 13.55668 6.40891 -0.0258
C 13.56625 4.94279 -0.0331
C 12.25323 4.27237 -0.00316
C 12.30773 2.84774 0.02188
C 13.55647 2.11923 -0.01979
C 13.44431 0.69864 0.02691
C 12.27149 0.00776 -0.01581
C 14.69753 32.77328 0.01452
C 14.89525 25.42862 0.04892
C 14.6855 24.0525 -0.00111
C 11.10872 31.97988 0.01877
C 9.81733 32.66191 -0.00925
C 7.34004 0.08162 0.00444
C 8.56608 0.73186 -0.01789
C 3.63797 6.53728 -0.01142
C 3.69982 5.09441 -0.00562
C 2.40079 4.39175 -0.00494
C 2.38257 2.96976 0.00054
C 3.61714 2.21401 0.03007
C 3.60186 0.8096 -0.00095
C 2.42591 0.03818 0.01572
C 4.88519 32.63245 -0.04848
C 2.44795 7.18597 0.01849
C 6.08037 31.98081 -0.00892
C 4.83821 29.8156 -0.0008
C 4.89295 28.44134 0.0288
C 6.18172 27.72997 0.00393
C 6.16742 26.27843 0.00895
C 4.91348 25.57919 0.00685
C 4.89467 24.19468 0.02888
C 6.19249 23.41289 -0.00482
C 6.19895 22.07977 -0.01384
C 6.0909 30.57275 -0.01362
C 2.4955 8.63852 0.01396
C 3.70994 9.39277 0.0127
C 3.84659 10.77321 0.02635
C 3.63433 30.56116 0.02322
C 2.42665 29.83046 -0.00725
C 2.35858 28.433 -0.05697
C 3.66789 27.64817 0.01087
C 3.66171 26.29035 -0.01343
C 2.38684 25.57554 0.00988
C 2.45298 24.17453 0.0276
C 3.63195 23.45733 0.01305
C 3.64965 22.01413 -0.00077
C 2.40819 21.36169 0.03368
C 2.42668 19.85576 -0.02929
C 3.70022 19.14632 -0.00966
C 3.69508 17.7712 -0.03337
C 2.4992 17.08695 0.01227
C 2.40855 15.64968 0.00873
C 3.6791 14.98706 -0.00049
C 3.69688 13.54155 0.00848
C 2.48033 12.85095 -0.01303
C 2.53487 11.38721 -0.01378
C 4.96406 21.36246 0.03693
C 16.95072 24.14267 0.0106
C 4.89664 19.85318 0.01745
C 6.20791 17.64477 -0.01004
C 7.45261 25.57268 0.03592
C 7.39736 24.16929 0.00406
C 8.62209 23.54243 0.00943
C 8.56223 22.08085 0.02841
C 7.37369 21.35649 -0.01111
C 7.32352 19.90772 -0.01275
C 8.54493 19.10821 0.00985
C 8.64146 17.74245 -0.02245
C 8.61833 26.38694 0.00572
C 7.40848 16.94573 -0.00428
C 8.71477 9.2907 -0.01536
C 7.45873 8.62678 -0.02689
C 7.37185 7.2211 -0.01046
C 8.60085 6.38429 -0.00891
C 8.61439 4.99012 0.02819
C 7.33502 4.32127 0.00165
C 7.30947 2.8441 -0.02971
C 8.54845 2.16252 0.02894
C 7.45106 15.52032 0.03101
C 8.57291 27.78618 0.0402
C 7.41313 28.46567 -0.02759
C 7.33111 29.93572 0.03589
C 4.9146 16.99302 -0.02896
C 4.95547 15.61441 -0.00131
C 6.12142 14.80867 -0.01118
C 5.10679 13.08269 -0.014
C 5.06484 11.54259 0.02147
C 6.23613 10.72157 0.00373
C 6.15674 9.35405 -0.00191
C 4.97084 8.63755 0.00438
C 4.88011 7.27055 0.01291
C 6.05699 6.47427 0.00093
C 6.13876 5.03555 0.00057
C 4.81537 4.33468 -0.01634
C 4.83676 2.87794 -0.00334
C 6.13898 2.15654 0.02339
C 6.11893 0.72642 0.01641
C 4.91577 0.02187 -0.00719
C 7.29081 32.74461 0.01364
C 8.52496 31.98547 -0.01062
C 8.63369 30.59242 -0.00033
C 6.04611 19.14373 0.00488
C 17.24781 11.35557 -0.01154
C 18.17779 10.62113 -0.01721
C 18.4311 9.17465 -0.02422
C 31.93469 32.75927 0.01713
C 33.18688 31.95999 -0.01694
C 33.17365 30.56387 0.01428
C 31.95975 29.8712 -0.02142
C 31.91879 28.49032 0.0544
C 33.10389 27.72638 0.00026
C 33.18084 26.32605 0.00682
C 31.88223 25.61763 -0.01779
C 29.46367 0.01082 0.00346
C 31.9172 24.15999 0.03794
C 33.15378 22.05076 0.01574
C 31.96856 21.4173 -0.02383
C 31.98965 19.94754 -0.01429
C 33.16132 19.17126 -0.0136
C 33.13868 17.75073 0.00594
C 31.99611 17.0812 -0.02474
C 31.98231 15.62159 0.00369
C 33.1954 14.99502 0.00455
C 33.15642 23.4439 0.01927
C 30.69704 0.70149 0.00307
C 30.68458 2.13753 0.00716
C 29.45204 2.84755 0.02108
C 30.69479 26.33468 -0.01854
C 29.49153 25.56066 -0.01415
C 29.47342 24.11895 -0.03039
C 30.79659 23.3577 0.01836
C 30.69873 21.90211 0.03531
C 29.62772 21.01773 -0.00669
C 30.71277 19.25503 0.0101
C 30.75535 17.93523 0.01705
C 30.8202 14.95129 -0.0405
C 30.64663 13.55666 -0.01303
C 29.50495 12.72446 -0.01461
C 29.55762 11.39508 -0.02155
C 30.80168 10.68994 -0.00944
C 30.74365 9.18828 -0.03735
C 29.5448 8.57958 -0.00971
C 29.55102 7.18202 0.01518
C 30.73233 6.4216 0.01908
C 30.76004 4.96173 0.07705
C 29.53481 4.29436 0.0103
C 33.14317 13.54675 -0.00644
C 30.64005 27.70657 -0.02049
C 31.85649 12.8472 -0.01839
C 33.17292 10.66484 0.00199
C 1.11567 19.1911 -0.01678
C 1.20367 17.79078 0.01223
C 0.01403 17.04416 0.00648
C 0.01892 15.68115 0.02114
C 1.20529 14.95619 -0.02957
C 1.25583 13.44192 0.00343
C 34.3271 12.76915 -0.02656
C 0.01522 11.41361 -0.02442
C 34.37512 19.85554 0.01951
C 1.25213 10.65838 -0.00027
C 0.01227 8.52051 -0.02302
C 0.01698 7.1292 -0.02849
C 1.21029 6.41061 0.02931
C 1.18262 5.01765 0.00628
C 34.38116 4.23475 -0.0345
C 0.04543 2.86717 -0.00931
C 1.19194 2.17306 -0.00939
C 1.17805 0.74152 -0.00468
C 1.21201 9.20453 -0.00583
C 34.41886 21.3056 -0.02213
C 1.20403 22.02895 0.02712
C 1.1568 23.42442 0.00723
C 33.17138 9.22744 0.04381
C 31.93922 8.48138 0.02806
C 31.96697 7.09016 0.01504
C 33.17546 6.3975 -0.00069
C 33.18625 5.00664 0.04926
C 31.9638 4.31114 -0.03838
C 31.97024 2.82283 0.00349
C 33.15149 2.14944 -0.00323
C 33.21294 0.79607 -0.00841
C 31.95872 0.10324 0.0001
C 34.39974 32.6697 -0.02927
C 1.25135 31.9337 -0.01404
C 1.21585 30.5641 0.01027
C 34.42256 29.821 0.01831
C 34.34911 28.34514 -0.01037
C 1.17423 27.70275 -0.00439
C 1.19974 26.25978 -0.00598
C 34.39332 25.59487 -0.05239
C 34.37256 24.14645 0.03076
C 31.96493 11.33299 0.00137
C 3.63597 31.99491 -0.00094
C 29.42257 28.41703 0.03265
C 30.72848 30.54007 0.02326
C 20.82637 0.67456 0.00071
C 19.58109 34.0721 -0.01107
C 21.91223 32.55231 -0.01586
C 23.25837 31.967 -0.01971
C 23.26425 30.53659 -0.02118
C 22.02871 29.80038 0.00733
C 22.22028 28.28775 -0.00178
C 23.45489 27.59616 0.00768
C 20.88727 2.0578 -0.00225
C 23.29755 26.26468 -0.0276
C 23.3522 9.07095 -0.04078
C 22.06077 8.53749 0.02117
C 22.09308 7.06128 0.02737
C 23.32007 6.35913 -0.00498
C 23.41412 4.9513 0.00135
C 22.07276 4.19807 0.03102
C 22.09231 2.82101 0.02555
C 23.34755 2.11262 0.01423
C 22.04576 25.7654 0.03005
C 19.674 2.76743 0.01515
C 19.68466 4.15532 -0.0055
C 20.91489 4.91884 0.02734
C 17.23156 8.54289 0.01277
C 17.18338 7.09333 0.00096
C 18.39138 6.33229 -0.01527
C 18.41971 4.92889 0.01087
C 17.17286 4.23052 0.00199
C 17.15182 2.80777 0.01511
C 18.44186 2.09282 -0.00478
C 18.40808 0.71077 -0.01662
C 17.15996 33.97154 -0.01185
C 19.50221 32.71164 0.01126
C 20.58414 31.81655 0.01852
C 20.81914 30.5464 -0.00381
C 21.32211 27.39157 0.03046
C 20.73155 26.18444 0.0296
C 19.40051 26.35381 0.03374
C 20.75782 9.0836 -0.02845
C 19.69112 8.38493 -0.03213
C 19.6115 7.03134 0.02239
C 20.90862 6.34401 0.01153
C 23.2976 0.63905 -0.00285
C 29.50631 29.80781 0.00261
C 21.99259 33.96056 -0.009
C 25.81298 31.95028 -0.00229
C 28.24598 26.20096 0.02316
C 26.99835 25.56281 0.04185
C 27.32816 24.11474 0.00194
C 28.24424 23.36847 -0.00621
C 27.06039 11.21456 0.02611
C 28.36396 10.66993 0.02198
C 28.3027 9.28246 0.01094
C 27.06974 8.49426 0.00235
C 28.2982 27.67899 0.01257
C 27.00556 7.07987 0.01495
C 28.29558 4.94527 0.01799
C 27.06608 4.21991 0.01699
C 27.05787 2.84934 -0.00416
C 28.2572 2.16204 0.01177
C 28.23798 0.75456 0.04266
C 27.07162 34.03483 0.01324
C 29.45651 32.70676 0.0014
C 30.72548 32.0114 0.00924
C 28.28409 6.42744 0.01259
C 27.06328 28.41802 0.00152
C 27.05047 29.87298 -0.00294
C 28.24624 30.60711 0.00826
C 25.76808 30.56329 -0.00938
C 24.5634 29.82426 -0.0264
C 24.60751 28.40861 -0.01154
C 25.8507 27.64397 0.00684
C 25.81071 26.23847 -0.01052
C 24.58985 25.57542 -0.01679
C 25.90903 10.63377 0.00367
C 25.75982 9.11003 0.04306
C 24.5228 8.39616 0.00996
C 24.50992 6.94239 0.00195
C 25.8703 6.38669 -0.00802
C 25.77469 4.98292 -0.00218
C 24.57967 4.20019 -0.01654
C 24.62035 2.77303 -0.00037
C 25.79302 2.11889 -0.0032
C 25.75993 0.75221 0.00622
C 24.52541 0.02089 -0.02815
C 26.99949 32.71602 -0.00942
C 28.29235 31.98661 0.00487
C 24.45368 32.66339 -0.01199
C 2.46004 32.77082 -0.02566
