345
Graphene
C 0.01006 34.06847 0.01295
C 16.00825 0.68487 0.02098
C 14.77186 0.0516 0.01848
C 17.24816 32.71043 -0.00619
C 18.43139 31.98685 -0.02162
C 18.39324 30.56575 0.00889
C 17.15416 29.87078 -0.00481
C 17.18836 28.41799 0.00979
C 18.38085 27.71117 0.01443
C 18.45303 26.281 0.03505
C 17.25877 25.47397 -0.02815
C 17.26365 23.97645 -0.04147
C 18.51985 23.33501 -0.05302
C 18.51247 21.88014 0.00213
C 17.28338 21.40817 -0.00066
C 18.44834 6.36458 -0.00289
C 18.28734 5.05789 0.00028
C 17.0858 4.27896 -0.02213
C 15.98955 2.09022 -0.03113
C 14.72119 2.92436 0.0351
C 14.69562 4.3654 0.00422
C 15.9258 4.84861 0.00798
C 13.69862 21.87079 0.03542
C 13.48368 4.92161 0.02299
C 12.18999 4.50076 0.00244
C 12.22001 2.93154 -0.01717
C 13.4508 2.24623 0.05265
C 13.52474 0.79762 -0.01952
C 12.29395 0.02757 -0.02813
C 14.75889 32.74529 0.00374
C 17.21307 2.84588 0.03698
C 15.95133 32.01937 0.00052
C 14.77151 29.93884 0.01965
C 14.76163 28.48328 0.02058
C 15.97242 27.73602 -0.01957
C 15.96014 26.29777 -0.0108
C 14.76346 25.51472 -0.00368
C 14.83382 24.01323 -0.02696
C 15.98962 23.28059 -0.00114
C 16.00638 21.93562 0.00228
C 16.00398 30.63357 -0.03682
C 13.64678 23.29222 0.01416
C 18.44646 2.1288 -0.00109
C 17.20281 0.00689 0.03338
C 22.11553 32.6789 0.00654
C 23.34786 31.90857 -0.00703
C 23.34781 30.53535 -0.04076
C 22.11246 29.83012 -0.00652
C 22.05787 28.42601 0.0058
C 23.28378 27.69376 -0.00865
C 23.36389 26.25788 0.00675
C 22.10823 25.54711 -0.00311
C 22.08003 24.14589 0.00742
C 23.3369 23.46048 -0.01594
C 23.37762 22.03114 0.0106
C 22.10872 21.28723 -0.01154
C 22.15751 19.7722 -0.01721
C 23.37788 19.19019 -0.02422
C 23.33124 17.79194 0.01277
C 22.19364 16.99018 0.00096
C 22.2071 15.6701 -0.01527
C 19.64529 0.03273 -0.04422
C 20.88783 0.68284 -0.02957
C 20.83605 2.07167 -0.00831
C 19.65558 2.89148 0.00364
C 19.68137 32.70987 -0.0258
C 20.893 32.01968 -0.0331
C 20.87058 30.63696 -0.00316
C 19.63634 29.83385 0.02188
C 19.5737 28.3565 -0.01979
C 20.80499 27.76615 0.02691
C 20.90316 26.32454 -0.01581
C 19.70139 25.58744 0.01452
C 18.4398 0.75065 -0.00491
C 19.71758 24.08099 0.04892
C 20.87567 21.93507 -0.03557
C 19.70267 21.19573 0.03754
C 19.8679 19.84601 0.01739
C 20.96872 19.24809 0.00755
C 19.65132 6.90835 -0.0054
C 20.89789 6.42261 0.00667
C 20.83861 4.96251 0.00143
C 19.56063 4.2678 -0.017
C 20.92777 23.40261 -0.00111
C 12.34213 24.15966 0.01945
C 12.33126 25.57695 -0.01454
C 13.54366 26.27472 0.01241
C 3.65042 2.08454 0.00393
C 3.67516 0.63323 0.00895
C 2.46224 34.02907 0.00685
C 4.88209 32.60301 0.02888
C 6.04404 31.88319 -0.00482
C 6.1341 30.35628 -0.01384
C 4.84624 29.75452 0.03693
C 4.81942 19.88473 0.01745
C 6.12743 19.32585 0.00488
C 6.23137 17.89473 -0.01004
C 5.07651 17.01719 -0.02896
C 4.88305 15.57193 -0.00131
C 4.93376 12.79837 -0.01118
C 4.92513 11.49968 -0.014
C 6.02952 10.64302 0.02147
C 6.23412 9.29266 0.00373
C 4.9379 8.57696 -0.00191
C 2.50399 2.77899 0.0288
C 2.49927 4.27725 -0.0008
C 3.66481 5.05954 -0.01362
C 3.73766 6.45098 -0.00892
C 3.62641 30.50276 0.01227
C 2.40205 29.9107 0.00873
C 2.26852 28.50368 -0.00049
C 2.42207 25.41158 0.00848
C 2.34868 21.23517 -0.01303
C 2.41098 19.89542 -0.01378
C 3.66135 19.1326 0.02635
C 3.64274 17.74567 0.0127
C 4.98477 7.10906 0.00438
C 2.44779 16.96936 0.01396
C 3.62286 14.91436 -0.01142
C 3.65009 13.49017 -0.00562
C 2.44919 12.75475 -0.00494
C 2.41089 11.34485 0.00054
C 3.61943 10.68914 0.03007
C 3.66657 9.29547 -0.00095
C 2.43145 8.56565 0.01572
C 2.49952 7.16385 -0.04848
C 2.46614 15.55763 0.01849
C 6.16512 6.47457 0.01291
C 6.19446 5.02545 0.00093
C 4.88684 4.27034 0.00057
C 9.72385 28.48899 -0.01536
C 10.89712 27.75265 -0.02689
C 11.17255 26.39015 -0.01046
C 11.38012 23.21115 -0.00891
C 11.22969 21.92148 0.02819
C 9.88662 21.41121 0.00165
C 10.87935 5.12109 -0.02971
C 9.77554 4.23178 0.02894
C 9.8234 29.92332 0.03101
C 9.87448 2.87677 -0.01789
C 11.03235 0.6869 -0.00925
C 9.79192 0.04535 0.01877
C 12.25408 32.6724 0.01363
C 13.50931 32.02226 -0.02162
C 13.50417 30.65333 0.00415
C 12.29256 29.86552 -0.0014
C 12.1901 28.42667 0.02162
C 13.50856 27.72366 0.0076
C 11.1174 2.16735 0.00444
C 23.23386 14.70689 0.01087
C 11.04866 30.52469 -0.00428
C 9.7897 32.68279 0.00985
C 4.8437 2.84323 -0.01634
C 6.15718 2.19861 -0.00334
C 6.09568 0.76322 0.02339
C 4.89095 34.06934 0.01641
C 7.27805 32.6709 -0.00719
C 8.48083 31.98568 0.01364
C 8.56879 30.60052 -0.01062
C 7.36936 29.82225 -0.00033
C 11.02318 31.95284 -0.02245
C 7.45336 19.86356 0.03589
C 7.50476 7.20476 0.0402
C 8.67081 6.35193 0.00572
C 8.53779 4.98904 0.03592
C 7.35026 4.34468 0.00406
C 7.34448 2.90721 0.00943
C 8.60234 2.2005 0.02841
C 8.57692 0.71877 -0.01111
C 7.33543 0.07539 -0.01275
C 7.35045 8.49304 -0.02759
C 3.66524 31.90356 -0.03337
C 23.2671 13.29994 0.00199
C 23.34274 10.65039 -0.00478
C 31.96512 29.80111 -0.02142
C 31.94847 28.33189 0.0544
C 33.18627 27.66226 0.00026
C 33.20512 26.24868 0.00682
C 32.02952 25.51899 -0.01779
C 31.91124 24.11171 0.03794
C 33.11774 23.41813 0.01927
C 33.15431 22.02255 0.01574
C 31.99435 21.29782 -0.02383
C 31.99256 19.88245 -0.01429
C 33.17602 19.1856 -0.0136
C 33.17022 17.81713 0.00594
C 31.99052 17.12419 -0.02474
C 31.94608 15.65124 0.00369
C 33.14934 14.94389 0.00455
C 33.1425 13.50363 -0.00644
C 31.92675 12.78534 -0.01839
C 33.21192 30.53068 0.01428
C 33.20065 31.98588 -0.01694
C 31.93186 32.64917 0.01713
C 29.57542 34.05738 0.00346
C 30.74652 19.20517 0.03531
C 30.7906 17.83203 -0.00669
C 29.51214 17.15677 0.0101
C 29.486 15.68158 0.01705
C 30.71084 14.95633 -0.0405
C 30.72023 13.49895 -0.01303
C 29.46142 12.8643 -0.01461
C 29.45759 11.41793 -0.02155
C 31.91581 11.35633 0.00137
C 30.69987 10.64568 -0.00944
C 29.48635 8.48159 -0.00971
C 29.53331 7.08926 0.01518
C 30.77639 6.37258 0.01908
C 30.74351 4.94882 0.07705
C 29.45064 4.22644 0.0103
C 29.48451 2.86675 0.02108
C 30.72091 2.14949 0.00716
C 30.80083 0.74672 0.00307
C 30.7109 9.27883 -0.03735
C 29.51118 19.86869 0.01836
C 33.10797 10.63095 0.00199
C 31.96498 8.50801 0.02806
C 1.21489 17.69776 0.01223
C 0.00669 17.02316 0.00648
C 34.40898 15.64135 0.02114
C 1.21505 14.84624 -0.02957
C 1.09702 13.47805 0.00343
C 34.28942 12.73571 -0.02656
C 34.32578 11.3511 -0.02442
C 1.13124 10.63406 -0.00027
C 1.22262 9.16814 -0.00583
C 0.00579 8.48459 -0.02302
C 0.08187 7.11024 -0.02849
C 1.31699 6.43125 0.02931
C 1.28408 4.96395 0.00628
C 0.00336 4.28007 -0.0345
C 0.06579 2.91177 -0.00931
C 1.27854 2.12452 -0.00939
C 1.27399 0.67473 -0.00468
C 1.21727 19.15817 -0.01678
C 34.41017 19.93839 0.01951
C 0.04022 21.37745 -0.02213
C 1.34051 22.182 0.02712
C 32.00341 7.07139 0.01504
C 33.30415 6.35809 -0.00069
C 33.19596 4.91914 0.04926
C 31.98654 4.22639 -0.03838
C 31.97242 2.87381 0.00349
C 33.22686 2.18662 -0.00323
C 33.21358 0.71899 -0.00841
C 31.98143 0.03157 0.0001
C 33.16491 9.2266 0.04381
C 34.35363 32.68613 -0.02927
C 1.14666 30.5221 0.01027
C 34.368 29.76047 0.01831
C 34.38357 28.44841 -0.01037
C 1.18442 27.65542 -0.00439
C 1.25205 26.20826 -0.00598
C 34.36618 25.53939 -0.05239
C 34.32295 24.14537 0.03076
C 1.20485 23.54534 0.00723
C 1.11915 31.956 -0.01404
C 29.48552 21.34303 -0.03039
C 30.67266 22.03526 -0.01415
C 30.65182 23.41711 -0.01854
C 24.61573 19.90127 -0.00178
C 25.79068 19.17615 0.00768
C 25.7601 17.76905 -0.0276
C 24.52099 17.02697 0.03005
C 24.54615 15.51431 -0.04078
C 25.79257 14.92822 0.02117
C 25.81024 13.53366 0.02737
C 24.5983 12.78587 -0.00498
C 24.57635 11.3642 0.00135
C 25.81898 10.71956 0.03102
C 25.77419 9.25777 0.02555
C 24.56778 8.56328 0.01423
C 24.63853 7.11331 -0.00285
C 25.82493 6.40513 -0.009
C 25.74978 4.94151 -0.01199
C 24.4802 4.23384 -0.00229
C 24.61967 2.80557 -0.00938
C 24.60809 21.40312 0.00733
C 25.83382 22.02318 -0.02118
C 25.81315 23.42754 -0.01971
C 24.57659 24.15623 -0.01586
C 23.2655 9.28018 -0.01662
C 22.08978 8.56125 -0.01185
C 22.13016 7.11665 0.01126
C 23.3142 6.40954 0.01852
C 23.34333 4.97005 -0.00381
C 22.07183 4.22721 0.03046
C 22.04141 2.79252 0.0296
C 23.30321 2.12632 0.03374
C 25.76858 2.0123 -0.0264
C 23.32984 0.68582 -0.02845
C 24.64298 32.63831 0.02239
C 25.90097 31.89068 0.01153
C 25.83655 30.47329 0.02734
C 24.56322 29.81525 -0.0055
C 24.58113 28.37305 0.01515
C 25.87836 27.64105 -0.00225
C 25.87211 26.25655 0.00071
C 24.59677 25.57474 -0.01107
C 22.08235 34.01397 -0.03213
C 25.8305 0.62934 -0.01154
C 24.57825 34.02217 0.00684
C 27.03111 32.65885 -0.01052
C 27.06818 8.59083 0.02611
C 27.03624 7.14874 0.02198
C 28.26617 6.39022 0.01094
C 28.27153 4.9578 0.00235
C 26.96883 4.23767 0.01495
C 26.98884 2.77596 0.01259
C 28.26188 2.0866 0.01799
C 28.24475 0.68397 0.01699
C 28.27534 9.23449 -0.00621
C 26.99041 34.07856 -0.00416
C 30.80192 31.91894 0.04266
C 30.73777 30.58771 0.01324
C 29.58574 29.77409 0.0014
C 29.51301 28.32927 0.00924
C 30.67722 27.64221 0.02326
C 30.73989 26.26171 0.00261
C 29.5277 25.59321 0.03265
C 29.48421 24.1127 -0.02049
C 29.53851 32.62814 0.01177
C 22.20504 11.50316 0.01511
C 28.21264 10.63164 0.00194
C 27.08689 12.84857 0.02316
C 28.34873 31.92807 -0.01679
C 28.30234 30.49803 0.00367
C 27.10365 29.79991 0.04306
C 27.05445 28.35995 0.00996
C 28.28563 27.63348 0.00195
C 28.29102 26.3085 -0.00802
C 27.09659 25.53837 -0.00218
C 27.03511 24.09867 -0.01654
C 27.08204 11.40635 0.04185
C 28.25951 23.43504 -0.00037
C 26.98857 21.30821 0.00622
C 27.06154 19.90979 -0.02815
C 28.26684 19.26599 -0.00942
C 28.26409 17.8229 0.00487
C 27.04122 17.05029 0.00826
C 27.06056 15.69906 -0.00294
C 28.25267 14.95805 0.00152
C 28.299 13.61827 0.01257
C 28.22553 22.04736 -0.0032
C 2.42952 32.60891 -0.00966
