334
Graphene
C 0.01632 0.0288 0.01295
C 12.35108 24.13326 0.01443
C 13.48547 23.46561 0.03505
C 13.52326 22.03412 -0.02815
C 12.32762 21.30569 -0.04147
C 12.33404 19.92787 -0.05302
C 13.54088 19.1838 0.00213
C 12.22351 4.2242 -0.00066
C 12.25383 25.5429 0.00979
C 12.28507 2.75714 -0.00289
C 13.54328 0.68818 -0.02213
C 12.33031 0.03538 0.03698
C 14.77934 32.58777 -0.00109
C 16.01477 31.91492 -0.00491
C 16.0048 30.5033 0.03338
C 14.74343 29.8768 -0.0258
C 14.75799 28.36665 -0.0331
C 13.56647 2.07073 0.00028
C 13.4615 26.25378 -0.00481
C 13.56015 27.64501 0.00889
C 12.24747 28.40057 -0.02162
C 9.80407 25.57924 0.00052
C 9.86508 24.1192 -0.03682
C 11.05667 23.46929 0.01965
C 11.01314 22.03198 0.02058
C 9.84285 21.33319 -0.01957
C 9.85935 19.89505 -0.0108
C 11.09126 19.19805 -0.00368
C 11.10851 4.93018 -0.02696
C 9.83225 4.26823 -0.00114
C 9.84743 2.84753 0.00228
C 11.08035 2.14759 0.00798
C 11.04711 0.79273 0.00422
C 9.82632 34.07226 0.0351
C 12.27713 32.69376 -0.03113
C 13.53721 31.88779 0.02098
C 13.54624 30.50218 0.01848
C 12.32487 29.84856 -0.00619
C 16.02334 27.70299 -0.00316
C 15.97215 26.23067 0.02188
C 14.7666 25.58143 -0.01979
C 14.78095 24.13217 0.02691
C 18.39477 23.41078 -0.00865
C 18.4784 22.00213 0.00675
C 17.27259 21.30366 -0.00311
C 17.22936 19.8875 0.00742
C 18.48654 19.14986 -0.01594
C 18.42419 17.79449 0.0106
C 17.1693 17.10345 -0.01154
C 18.42 6.33205 -0.01721
C 18.42142 4.94492 -0.02422
C 17.21988 4.28474 0.01277
C 17.1893 2.7951 0.00096
C 18.40817 2.14561 -0.01527
C 18.4441 0.71073 0.01087
C 17.23908 34.05255 0.00199
C 19.70988 32.70401 0.01511
C 20.91072 31.92001 -0.00478
C 20.90722 30.53086 -0.01662
C 17.22906 24.13192 0.0058
C 11.09395 26.22381 0.00374
C 17.20754 25.57423 -0.00652
C 18.4188 27.65392 -0.00703
C 16.00798 23.39985 -0.01581
C 16.00572 21.98462 0.01452
C 14.74902 21.31699 0.04892
C 14.73933 19.88125 -0.00111
C 15.94362 19.15958 -0.03557
C 15.99008 17.78021 0.03754
C 15.96289 4.96427 0.01739
C 14.74577 4.27421 0.00755
C 14.79423 2.81093 -0.0054
C 15.99196 2.12593 0.00667
C 16.00561 0.7119 0.00143
C 14.76947 0.01061 -0.017
C 17.2605 32.69715 0.00364
C 18.46503 31.96561 -0.00831
C 18.45446 30.50771 -0.02957
C 17.19319 29.81329 -0.04422
C 17.20814 28.42014 0.00654
C 18.49879 26.28118 -0.04076
C 11.03454 27.67763 -0.02813
C 9.80598 28.38937 -0.01952
C 9.8183 29.81895 0.05265
C 3.67026 2.15061 -0.02896
C 3.65233 0.73896 -0.00131
C 2.47743 0.00318 -0.01118
C 4.94076 32.65404 -0.014
C 6.12237 31.94335 0.02147
C 6.14362 30.49576 0.00373
C 4.89237 29.82783 -0.00191
C 4.95175 28.38249 0.00438
C 6.10869 27.6834 0.01291
C 6.18857 26.26048 0.00093
C 4.9684 25.56998 0.00057
C 4.899 24.19655 -0.01634
C 6.18959 23.41507 -0.00334
C 6.13474 22.03356 0.02339
C 4.91201 21.32846 0.01641
C 4.95305 19.93387 -0.00719
C 6.15644 19.14379 0.01364
C 2.41297 2.86886 -0.01004
C 6.13438 17.80607 -0.01062
C 2.41432 4.26795 0.00488
C 3.68797 6.40488 0.03693
C 3.67562 30.56054 -0.00562
C 2.4781 29.75736 -0.00494
C 2.483 28.41285 0.00054
C 3.70924 27.68294 0.03007
C 3.69839 26.26231 -0.00095
C 2.38632 25.61926 0.01572
C 2.44538 24.1566 -0.04848
C 3.69045 23.40654 -0.00892
C 3.64712 22.00637 -0.01362
C 2.41485 21.34982 -0.0008
C 2.49763 19.8376 0.0288
C 3.74826 19.21199 0.00393
C 3.67871 17.75532 0.00895
C 2.51785 17.035 0.00685
C 2.47673 15.59101 0.02888
C 3.64193 14.9013 -0.00482
C 2.41355 7.13894 -0.01384
C 3.67753 4.95531 0.01745
C 19.69355 29.79287 -0.01185
C 4.89687 17.06449 -0.00033
C 6.19051 14.8887 -0.02759
C 7.34695 21.2696 0.00444
C 7.40508 19.86797 -0.00925
C 8.54354 19.13058 0.01877
C 8.60618 17.81364 0.01363
C 7.36197 17.04926 -0.02162
C 7.32881 15.63672 0.00415
C 7.43719 7.13117 -0.0014
C 8.5914 6.34239 0.02162
C 8.64451 4.96289 0.0076
C 7.39276 4.29101 0.01241
C 7.38267 2.85136 -0.01454
C 8.59125 2.13739 0.01945
C 8.56589 0.69131 0.01416
C 7.35515 34.06794 0.03542
C 9.9063 32.65993 0.02299
C 11.0874 31.91367 0.00244
C 11.07703 30.54939 -0.01717
C 8.60398 22.07303 -0.01789
C 4.85757 15.61925 0.03589
C 8.65141 23.42245 0.02894
C 7.43074 25.57162 0.00165
C 6.17561 13.54564 0.0402
C 6.09983 9.11364 0.00572
C 4.89247 7.11346 0.03592
C 6.09833 6.42154 0.00406
C 6.0986 4.91393 0.00943
C 4.90519 4.26761 0.02841
C 4.89708 2.85687 -0.01111
C 6.13601 2.18454 -0.01275
C 6.17387 0.67321 0.00985
C 4.90277 0.03849 -0.02245
C 7.35431 32.69056 -0.00428
C 8.63153 31.97143 0.03101
C 8.58681 30.50904 -0.01536
C 7.37819 29.81875 -0.02689
C 7.42798 28.4457 -0.01046
C 8.63137 27.68552 -0.00891
C 8.59594 26.29703 0.02819
C 7.41972 24.14593 -0.02971
C 19.7042 28.41235 0.01126
C 20.89106 27.6843 0.01852
C 20.93994 26.28453 -0.00381
C 29.49996 2.89345 0.0544
C 30.72752 2.16757 0.00026
C 30.74013 0.72191 0.00682
C 29.45724 34.06592 -0.01779
C 31.99 32.70157 0.03794
C 33.2341 31.92837 0.01927
C 33.23219 30.49953 0.01574
C 31.97821 29.85869 -0.02383
C 31.95362 28.44248 -0.01429
C 33.21878 27.70615 -0.0136
C 33.13695 26.27999 0.00594
C 31.94155 25.59657 -0.02474
C 31.99031 24.09044 0.00369
C 33.23264 23.3978 0.00455
C 33.18706 22.02724 -0.00644
C 31.91326 21.34126 -0.01839
C 33.2414 19.19323 0.00137
C 29.53579 4.21095 -0.02142
C 33.18153 13.49385 0.00199
C 30.71341 4.9581 0.01428
C 29.50828 7.08779 0.01713
C 28.26264 2.15421 0.0101
C 28.22309 0.70224 0.01705
C 27.04312 0.0101 -0.0405
C 29.4926 32.6164 -0.01303
C 30.74488 32.00061 -0.01461
C 30.72062 30.53329 -0.02155
C 29.52864 29.83741 -0.00944
C 29.51327 28.40349 -0.03735
C 30.72756 27.68952 -0.00971
C 30.74677 26.29169 0.01518
C 29.55479 25.57591 0.01908
C 29.52881 24.18612 0.07705
C 30.70709 23.40505 0.0103
C 30.76873 22.02017 0.02108
C 30.7548 10.64134 0.00716
C 30.69975 9.26096 0.00307
C 29.54632 8.50008 0.00346
C 30.75693 6.35382 -0.01694
C 27.10198 2.79682 -0.00669
C 31.92426 11.37843 0.04381
C 33.18553 9.2583 0.01504
C 34.43278 19.86644 0.01223
C 1.22778 19.13619 0.00648
C 1.21071 17.72691 0.02114
C 34.41123 17.0406 -0.02957
C 0.04498 15.68793 0.00343
C 1.2327 14.8227 -0.02656
C 1.23462 13.47942 -0.02442
C 0.00374 12.81823 -0.00027
C 34.42047 11.38134 -0.00583
C 34.41924 8.48203 -0.02302
C 34.39454 7.11888 -0.02849
C 1.25337 6.33354 0.02931
C 1.18453 4.9163 0.00628
C 34.40478 4.24951 -0.0345
C 34.41587 2.8125 -0.00931
C 1.21728 2.16216 -0.00939
C 1.24431 0.71624 -0.00468
C 0.02481 21.27138 -0.01678
C 33.24216 10.6399 0.02806
C 1.21945 22.0467 0.01951
C 0.03035 24.14545 0.02712
C 31.96591 8.46945 -0.00069
C 31.98224 7.10453 0.04926
C 33.23361 6.37539 -0.03838
C 33.181 4.9834 0.00349
C 31.97899 4.23401 -0.00323
C 31.96925 2.83066 -0.00841
C 33.19498 2.13874 0.0001
C 33.21765 0.76044 -0.02927
C 31.96142 0.01971 -0.01404
C 0.03393 32.69494 0.01027
C 1.19203 31.96849 0.01831
C 1.23776 30.54826 -0.01037
C 0.00264 29.78839 -0.00439
C 0.04924 28.4321 -0.00598
C 1.25913 27.7094 -0.05239
C 1.19129 26.25286 0.03076
C 34.41894 25.59956 0.00723
C 1.22005 23.44369 -0.02213
C 3.73303 32.00815 -0.01142
C 27.01597 4.1869 0.03531
C 28.28187 6.38219 -0.03039
C 20.87331 0.69612 -0.04078
C 19.70901 0.00829 0.02117
C 22.10397 32.63926 0.02737
C 23.35607 31.98866 -0.00498
C 23.35875 30.51859 0.00135
C 22.11423 29.8067 0.03102
C 22.10938 28.33356 0.02555
C 23.36096 27.73995 0.01423
C 23.38034 26.29002 -0.00285
C 22.14291 25.55697 -0.009
C 22.14293 24.10774 -0.01199
C 23.31659 23.42587 -0.00229
C 23.32289 22.03358 -0.00938
C 22.14411 21.34056 -0.0264
C 22.19596 11.3251 -0.01154
C 23.33683 10.6487 0.00684
C 23.33436 9.23533 -0.01052
C 20.90449 2.16133 0.03005
C 22.15849 8.55303 -0.01679
C 19.65167 2.87334 -0.0276
C 20.87576 4.93929 -0.00178
C 19.68654 25.57624 0.03046
C 19.69811 24.13854 0.0296
C 20.91277 23.41479 0.03374
C 20.89079 21.9688 -0.02845
C 19.6571 21.29069 -0.03213
C 19.67724 19.92706 0.02239
C 20.91432 19.20768 0.01153
C 20.8672 17.71237 0.02734
C 19.66581 17.0094 -0.0055
C 19.64904 15.61634 0.01515
C 20.86437 14.91824 -0.00225
C 20.92545 13.54716 0.00071
C 20.8725 10.5907 -0.01107
C 20.87958 9.21674 -0.01586
C 19.69387 8.53578 -0.01971
C 19.63374 7.06195 -0.02118
C 20.86512 6.41236 0.00733
C 19.67112 4.23389 0.00768
C 28.29983 4.94294 0.01836
C 22.15135 7.12551 0.00367
C 23.3404 4.95949 0.00996
C 24.62176 2.79667 0.00235
C 25.80494 2.10261 0.01495
C 25.80368 0.71115 0.01259
C 24.60937 34.07427 0.01799
C 27.08285 32.63201 0.01699
C 28.27467 31.96661 -0.00416
C 28.19969 30.52569 0.01177
C 27.02116 29.78321 0.04266
C 27.04996 28.34639 0.01324
C 28.25491 27.69106 0.0014
C 28.31993 26.24426 0.00924
C 27.09621 25.53777 0.02326
C 26.95824 24.12725 0.00261
C 28.232 23.36987 0.03265
C 28.30635 9.15887 -0.02049
C 27.06267 8.52918 -0.01854
C 27.08102 7.08193 -0.01415
C 24.64134 4.21792 0.01094
C 23.40953 6.39338 0.04306
C 25.81342 4.97402 0.02198
C 24.61968 7.06115 -0.00621
C 22.1064 4.24093 0.00195
C 22.12694 2.87211 -0.00802
C 23.40792 2.11068 -0.00218
C 23.42116 0.68705 -0.01654
C 22.11094 34.03868 -0.00037
C 24.61326 32.66546 -0.0032
C 25.82952 31.94791 0.00622
C 25.82867 30.49029 -0.02815
C 24.62945 29.82181 -0.00942
C 24.56072 28.38422 0.00487
C 25.81222 27.70039 0.00826
C 25.8536 26.27419 -0.00294
C 24.64244 25.56419 0.00152
C 24.62895 24.17448 0.01257
C 25.79964 23.44511 0.02316
C 25.85328 9.14745 0.04185
C 24.5948 8.52578 0.00194
C 25.8591 6.41577 0.02611
C 2.45143 32.72385 0.01849
