407
Graphene
C 34.37637 0.02383 0.01295
C 12.27406 28.49127 -0.02689
C 13.5342 27.72641 -0.01046
C 13.47593 26.33099 -0.00891
C 12.29609 25.59624 0.02819
C 12.27575 24.06344 0.00165
C 13.55844 23.45797 -0.02971
C 13.5886 22.06884 0.02894
C 12.36813 21.27848 -0.01789
C 12.33285 19.90214 0.00444
C 13.55409 19.14967 -0.00925
C 13.55268 17.6729 0.01877
C 12.31006 17.10826 0.01363
C 12.26529 15.63562 -0.02162
C 13.42359 14.79787 0.00415
C 12.19857 7.1076 -0.0014
C 13.49714 6.62121 0.02162
C 13.52109 5.10855 0.0076
C 12.30928 4.34539 0.01241
C 12.18288 2.9955 -0.01454
C 13.45507 2.13568 0.01945
C 13.46506 0.69515 0.01416
C 12.22053 29.90704 -0.01536
C 13.43466 30.5719 0.03101
C 13.4908 31.99283 -0.00428
C 12.26081 32.68674 -0.02245
C 9.77665 24.18884 0.01291
C 10.98185 23.44719 0.00093
C 11.07124 22.01379 0.00057
C 9.90303 21.24414 -0.01634
C 9.81221 19.85492 -0.00334
C 11.01103 19.1973 0.02339
C 11.06851 17.78702 0.01641
C 9.83321 17.09978 -0.00719
C 9.74112 15.61948 0.01364
C 11.01106 15.03375 -0.01062
C 12.25573 0.00788 0.03542
C 11.19281 13.60576 -0.00033
C 9.87087 11.37314 -0.02759
C 9.87477 8.64563 0.0402
C 9.84364 7.22222 0.00572
C 10.99464 6.50025 0.03592
C 11.09988 5.02801 0.00406
C 9.7706 4.35745 0.00943
C 9.73053 2.94493 0.02841
C 11.01297 2.22275 -0.01111
C 11.0375 0.75742 -0.01275
C 9.79583 0.05062 0.00985
C 10.06091 12.78777 0.03589
C 9.86053 25.65722 0.00438
C 14.66938 32.73873 0.02299
C 15.96414 30.51325 -0.01717
C 17.23 29.93579 0.03505
C 17.23974 28.43381 -0.02815
C 18.48831 27.65402 -0.04147
C 18.47443 26.26643 -0.05302
C 17.20378 25.56869 0.00213
C 17.24081 24.16419 -0.00066
C 18.47747 23.36244 -0.00289
C 18.40427 21.97485 0.00028
C 17.20008 21.26659 -0.02213
C 17.22903 19.81768 0.03698
C 18.49527 19.23857 -0.00109
C 18.43564 17.8035 -0.00491
C 17.27703 17.07444 0.03338
C 17.20785 15.6285 -0.0258
C 18.49005 14.95374 -0.0331
C 18.19549 13.50706 -0.00316
C 18.37475 10.70211 0.02188
C 18.24466 9.30928 -0.01979
C 17.07946 8.40122 0.02691
C 17.08797 7.03768 -0.01581
C 18.45578 6.38733 0.01452
C 18.46533 30.5571 0.01443
C 18.42907 31.97674 0.00979
C 17.20064 32.64595 -0.00481
C 14.65311 0.03655 0.00889
C 14.68413 29.87661 0.05265
C 14.77505 28.43731 -0.01952
C 15.98469 27.72159 -0.02813
C 15.97291 26.31524 0.00374
C 14.78752 25.61248 0.00052
C 14.8078 24.17666 -0.03682
C 16.00365 23.38688 0.01965
C 16.01999 21.99614 0.02058
C 14.80573 21.2548 -0.01957
C 14.778 19.77296 -0.0108
C 15.92172 31.97069 0.00244
C 15.99849 19.04503 -0.00368
C 14.75616 16.84609 -0.00114
C 14.72218 15.34611 0.00228
C 16.17978 14.80833 0.00798
C 14.8656 7.11906 0.00422
C 15.91066 6.24354 0.0351
C 15.97539 4.83144 -0.03113
C 14.77365 4.24288 0.02098
C 14.64413 2.85458 0.01848
C 16.00764 2.14584 -0.00619
C 15.95031 0.72287 -0.02162
C 16.02289 17.60275 -0.02696
C 18.35296 4.97725 0.04892
C 11.06844 26.33105 -0.00191
C 9.77662 28.48688 0.02147
C 2.47026 2.83912 0.02379
C 3.65506 2.17157 0.00907
C 3.59519 0.74651 0.00643
C 2.38382 0.08894 -0.01509
C 4.8431 32.72436 0.03267
C 6.09622 31.97011 0.02374
C 6.05239 30.60114 0.00402
C 4.84524 29.82633 0.0073
C 4.83079 28.38828 0.0174
C 6.0741 27.76565 0.03828
C 6.10373 26.31769 0.01226
C 4.89036 25.58189 -0.00279
C 4.83722 24.23624 0.01996
C 6.01974 23.48922 -0.03996
C 6.12605 22.10938 0.01465
C 4.8618 21.35109 -0.00074
C 4.88142 19.89259 -0.00518
C 6.11268 19.21922 0.0086
C 6.08639 17.77243 -0.00643
C 4.84975 17.11086 0.017
C 4.85025 15.72308 -0.03113
C 2.42864 4.22569 0.01402
C 3.5645 5.04395 -0.003
C 3.7303 6.51348 0.00031
C 2.45678 7.18032 0.03189
C 3.62322 30.63772 -0.0059
C 2.43015 29.75048 -0.01386
C 2.39554 28.36773 -0.02805
C 3.61291 27.64678 0.00081
C 3.57714 26.22391 0.00245
C 2.3989 25.60347 0.02728
C 2.39694 24.20673 -0.00039
C 3.58292 23.52606 0.0064
C 3.61108 22.04919 0.00211
C 2.37868 21.23916 -0.00449
C 6.1488 14.97941 -0.02566
C 2.36392 19.87658 -0.01979
C 3.59228 17.81901 -0.01977
C 2.33381 17.09503 -0.00561
C 2.38626 15.59763 0.00208
C 3.67492 14.87267 0.01707
C 3.71773 13.44189 0.02769
C 2.32197 12.82906 -0.03291
C 2.38451 11.40475 -0.04999
C 3.67563 10.71906 0.04505
C 3.7344 9.34942 0.03284
C 2.44918 8.5944 -0.04307
C 3.67613 19.24858 0.02784
C 11.06373 27.84553 0.00373
C 6.19425 13.59543 -0.00094
C 4.96278 11.46804 -0.00725
C 7.38432 17.13041 -0.00095
C 7.40399 15.62459 0.01572
C 8.63876 14.85634 -0.04848
C 8.72789 13.47298 -0.00892
C 7.4825 12.87648 -0.01362
C 7.3931 11.42051 -0.0008
C 8.59126 10.6507 0.0288
C 8.64786 9.19732 0.00393
C 7.37346 8.56513 0.00895
C 7.36397 7.14342 0.00685
C 8.53833 6.50395 0.02888
C 8.55733 5.00409 -0.00482
C 7.36774 4.30244 -0.01384
C 7.33566 2.87895 0.03693
C 8.61331 2.0987 0.01745
C 8.53746 0.73226 0.00488
C 7.29721 0.05438 -0.01004
C 9.77362 32.70862 -0.02896
C 10.99591 31.93805 -0.00131
C 10.86844 30.5328 -0.01118
C 9.64493 29.9161 -0.014
C 8.63923 17.81108 0.03007
C 8.64194 19.18655 0.00054
C 7.34684 19.91038 -0.00494
C 7.3779 21.36856 -0.00562
C 6.18258 10.65939 -0.05697
C 6.17447 9.30602 0.01087
C 4.91824 8.62284 -0.01343
C 4.9265 7.20523 0.00988
C 6.11587 6.4638 0.0276
C 6.06416 5.00383 0.01305
C 4.81168 4.36107 -0.00077
C 4.8095 2.92379 0.03368
C 6.08664 2.29316 -0.02929
C 6.06293 0.85835 -0.00966
C 5.00957 12.82195 0.02322
C 4.91949 0.12135 -0.03337
C 8.43092 32.00839 0.00873
C 8.4857 30.6661 -0.00049
C 7.27441 29.90509 0.00848
C 7.29834 28.52524 -0.01303
C 8.50242 27.73835 -0.01378
C 8.60087 26.33151 0.02635
C 7.32745 25.60538 0.0127
C 7.33209 24.20609 0.01396
C 8.558 23.53047 0.01849
C 8.58034 22.01428 -0.01142
C 7.2798 32.76692 0.01227
C 3.5498 32.04192 0.00558
C 17.23267 4.20426 -0.00111
C 18.4741 2.1057 0.03754
C 29.51436 8.52273 -0.00971
C 29.53301 7.09806 0.01518
C 30.69782 6.33548 0.01908
C 30.69419 4.92159 0.07705
C 29.52987 4.16425 0.0103
C 29.47538 2.77844 0.02108
C 30.70084 2.04642 0.00716
C 30.72405 0.68499 0.00307
C 29.56078 0.01475 0.00346
C 31.89751 32.64042 0.01713
C 33.08969 31.9375 -0.01694
C 33.04428 30.51646 0.01428
C 31.91427 29.74052 -0.02142
C 31.974 28.34879 0.0544
C 33.1333 27.6274 0.00026
C 33.24896 26.23164 0.00682
C 31.97159 25.55839 -0.01779
C 31.94122 24.12512 0.03794
C 33.12551 23.3828 0.01927
C 33.07348 22.02123 0.01574
C 31.89822 21.27806 -0.02383
C 30.72631 9.2502 -0.03735
C 30.67431 10.64853 -0.00944
C 29.51374 11.27394 -0.02155
C 29.44097 12.66231 -0.01461
C 28.21348 2.10646 0.01799
C 28.32265 0.74802 0.01699
C 27.09284 34.02096 -0.00416
C 29.46105 32.73096 0.01177
C 30.70865 31.96913 0.04266
C 30.68167 30.50289 0.01324
C 29.48555 29.79514 0.0014
C 29.48565 28.438 0.00924
C 30.69274 27.70966 0.02326
C 30.73382 26.21871 0.00261
C 31.89958 19.86635 -0.01429
C 29.46272 25.47221 0.03265
C 30.7209 23.37278 -0.01854
C 30.73223 22.00616 -0.01415
C 29.44236 21.22213 -0.03039
C 29.32618 19.81547 0.01836
C 30.6699 19.19369 0.03531
C 30.62383 17.68984 -0.00669
C 29.51308 16.96217 0.0101
C 29.43003 15.63447 0.01705
C 30.6497 14.99441 -0.0405
C 30.70104 13.45953 -0.01303
C 29.51034 24.1103 -0.02049
C 26.98294 2.81618 0.01259
C 33.23133 19.22381 -0.0136
C 31.96027 17.03054 -0.02474
C 1.21403 21.99289 0.02712
C 34.39561 21.31443 -0.02213
C 34.40359 19.92376 0.01951
C 1.15308 19.13522 -0.01678
C 1.08306 17.75403 0.01223
C 34.31427 17.04044 0.00648
C 34.3309 15.58966 0.02114
C 1.15345 14.97019 -0.02957
C 1.17874 13.57483 0.00343
C 34.38366 12.85719 -0.02656
C 34.34955 11.40367 -0.02442
C 1.18441 10.63408 -0.00027
C 1.20192 9.23539 -0.00583
C 0.02453 8.45352 -0.02302
C 34.40493 6.98096 -0.02849
C 1.2582 6.36722 0.02931
C 1.2099 4.98088 0.00628
C 0.0003 4.24764 -0.0345
C 34.39375 2.86241 -0.00931
C 1.16295 2.15663 -0.00939
C 1.19232 0.79539 -0.00468
C 1.24763 23.43334 0.00723
C 34.38484 24.13473 0.03076
C 34.39849 25.49951 -0.05239
C 1.16368 26.21749 -0.00598
C 31.95786 15.65977 0.00369
C 33.20101 14.86558 0.00455
C 33.13349 13.48855 -0.00644
C 31.92823 12.7529 -0.01839
C 31.89009 11.40783 0.00137
C 33.16109 10.62029 0.00199
C 33.21871 9.1801 0.04381
C 31.89095 8.59691 0.02806
C 31.91727 7.06659 0.01504
C 33.11595 6.38381 -0.00069
C 33.12345 17.77204 0.00594
C 33.19018 4.95409 0.04926
C 31.9281 2.80662 0.00349
C 33.1861 2.14019 -0.00323
C 33.17618 0.72537 -0.00841
C 31.98125 0.0029 0.0001
C 34.34603 32.62614 -0.02927
C 1.10509 31.92696 -0.01404
C 1.20644 30.51154 0.01027
C 34.41227 29.88235 0.01831
C 34.35071 28.42697 -0.01037
C 1.12271 27.72759 -0.00439
C 31.95557 4.284 -0.03838
C 17.20823 2.83859 -0.03557
C 27.0377 4.22352 0.01495
C 28.33019 6.25352 0.01094
C 19.67188 4.26265 -0.01527
C 19.64687 2.80323 0.01087
C 20.90537 2.1278 0.00199
C 20.89541 0.75723 0.01511
C 19.70712 0.00469 -0.00478
C 22.11342 32.6862 -0.01662
C 23.46598 31.91679 -0.01185
C 23.38492 30.51289 0.01126
C 22.16261 29.83153 0.01852
C 22.12891 28.41248 -0.00381
C 23.35549 27.75682 0.03046
C 23.359 26.27772 0.0296
C 22.14235 25.48837 0.03374
C 22.18205 24.0714 -0.02845
C 23.41233 23.4348 -0.03213
C 23.43943 22.007 0.02239
C 22.15058 21.41098 0.01153
C 21.77346 12.65864 0.02734
C 22.0891 11.36902 -0.0055
C 23.31192 10.6624 0.01515
C 23.30789 9.20185 -0.00225
C 20.85138 5.00743 0.00096
C 20.76126 6.41689 0.01277
C 19.60546 7.2196 -0.02422
C 19.4429 8.6022 -0.01721
C 18.4079 0.69928 0.01739
C 17.20161 34.0251 0.00755
C 19.65692 32.66049 -0.0054
C 20.86401 31.91269 0.00667
C 20.90995 30.53088 0.00143
C 19.68815 29.81652 -0.017
C 19.71206 28.35421 0.00364
C 20.91499 27.64608 -0.00831
C 20.87287 26.25334 -0.02957
C 19.66441 25.4327 -0.04422
C 21.95408 8.49213 0.00071
C 19.71813 24.06649 0.00654
C 20.96697 22.00956 -0.04076
C 19.62346 21.26135 -0.00652
C 19.73653 19.91766 0.0058
C 19.61261 17.03358 -0.00865
C 19.69672 15.64424 0.00675
C 20.68582 13.47946 -0.00311
C 19.38534 12.76578 0.00742
C 19.56315 11.34843 -0.01594
C 20.81754 10.68813 0.0106
C 20.67908 9.26903 -0.01154
C 20.9854 23.39589 -0.00703
C 28.27427 4.87573 0.00235
C 22.07228 7.12131 -0.01107
C 23.39043 4.89055 -0.01971
C 25.87534 0.63726 0.00996
C 24.64423 34.05121 0.00195
C 27.04294 32.53972 -0.00802
C 28.30421 31.91222 -0.00218
C 28.26763 30.56947 -0.01654
C 27.01145 29.87586 -0.00037
C 27.00818 28.44752 -0.0032
C 28.27419 27.6662 0.00622
C 28.2266 26.29521 -0.02815
C 27.06466 25.62999 -0.00942
C 27.03617 24.18821 0.00487
C 28.2938 23.45031 0.00826
C 28.26325 22.00558 -0.00294
C 27.02954 21.37126 0.00152
C 28.26077 13.39687 0.01257
C 27.09936 12.63254 0.02316
C 26.98197 11.29619 0.04185
C 28.23125 10.55861 0.00194
C 28.20608 9.14928 -0.00621
C 26.92218 8.4315 0.02611
C 27.05897 7.0525 0.02198
C 25.77926 2.0398 0.04306
C 24.55628 2.78601 0.00367
C 24.58925 4.20781 -0.01679
C 25.7953 4.98915 -0.01052
C 22.12628 4.29739 -0.02118
C 22.16489 2.78974 0.00733
C 23.39157 2.06533 -0.00178
C 23.36602 0.67651 0.00768
C 22.1433 34.06402 -0.0276
C 24.62356 32.6155 0.03005
C 25.84534 31.92045 -0.04078
C 25.78326 30.56361 0.02117
C 24.61626 29.76931 0.02737
C 24.59822 28.3687 -0.00498
C 23.36009 6.39913 -0.01586
C 25.82039 27.64714 0.00135
C 24.62358 25.67594 0.02555
C 24.64887 24.23356 0.01423
C 25.78568 23.43738 -0.00285
C 25.77733 22.05721 -0.009
C 24.49655 11.35223 -0.01199
C 25.65501 10.59618 -0.00229
C 25.71168 9.181 -0.00938
C 24.50776 8.51124 -0.0264
C 24.62427 7.1187 -0.01154
C 25.8708 6.31993 0.00684
C 25.89194 26.25893 0.03102
C 2.33504 32.66906 -0.02375
