337
Graphene
C 34.30681 34.06771 0.01295
C 11.10169 5.03921 -0.00481
C 9.87229 4.32252 0.00979
C 9.83605 2.89284 0.01443
C 11.05222 2.1673 0.03505
C 11.05513 0.77503 -0.02815
C 9.79095 0.04692 -0.04147
C 12.21333 32.62837 -0.05302
C 13.40776 31.86716 0.00213
C 13.30953 30.35019 -0.00066
C 12.10257 29.92507 -0.00289
C 13.50254 13.68555 0.00028
C 12.35739 12.92722 -0.02213
C 12.33137 11.55453 0.03698
C 13.47424 10.62398 -0.00109
C 13.55883 9.35868 -0.00491
C 12.34206 8.58615 0.03338
C 12.33491 7.22907 -0.0258
C 11.08844 6.52528 0.00889
C 13.51833 6.48995 -0.0331
C 9.82038 7.21708 -0.02162
C 11.13014 9.41414 0.01848
C 8.62775 4.99095 -0.02813
C 7.40626 4.35569 0.00374
C 7.32173 2.86853 0.00052
C 8.61103 2.19367 -0.03682
C 8.55557 0.8239 0.01965
C 7.23372 0.0843 0.02058
C 9.78625 32.68027 -0.01957
C 10.9737 32.03399 -0.0108
C 10.88714 30.60828 -0.00368
C 9.72045 29.84059 -0.02696
C 9.80136 28.54292 -0.00114
C 9.98222 15.71196 0.00228
C 10.90408 15.0296 0.00798
C 11.02991 13.60819 0.00422
C 9.76983 12.82397 0.0351
C 9.78502 11.39289 -0.03113
C 11.07325 10.82906 0.02098
C 9.93656 8.60845 -0.00619
C 8.57398 6.45705 -0.01952
C 13.46899 5.02968 -0.00316
C 12.32881 2.86143 -0.01979
C 18.39213 13.42781 0.0058
C 17.18628 12.62835 -0.00865
C 17.25471 11.21449 0.00675
C 18.54108 10.63186 -0.00311
C 18.53044 9.21612 0.00742
C 17.28058 8.52781 -0.01594
C 17.23627 7.12368 0.0106
C 18.41175 6.40073 -0.01154
C 18.39152 4.95001 -0.01721
C 17.19316 4.2636 -0.02422
C 17.15823 2.80656 0.01277
C 18.39849 2.14083 0.00096
C 18.37443 0.61959 -0.01527
C 17.13274 33.97069 0.01087
C 19.53048 32.63612 0.00199
C 21.0742 15.02041 0.01511
C 20.90533 13.59039 -0.00478
C 18.44837 32.05991 -0.00652
C 12.25632 4.29954 0.02188
C 17.14463 32.43489 -0.04076
C 15.87081 0.68306 0.00654
C 13.55828 2.16876 0.02691
C 13.53566 0.67295 -0.01581
C 12.28879 34.02656 0.01452
C 14.72986 32.44886 0.04892
C 15.94998 31.6372 -0.00111
C 15.71608 30.1998 -0.03557
C 14.49204 29.76591 0.03754
C 15.8025 12.97199 0.01739
C 14.71238 13.56277 0.00755
C 16.10321 9.305 -0.0054
C 14.86309 8.70888 0.00667
C 14.84487 7.16968 0.00143
C 16.01176 6.40496 -0.017
C 16.00793 5.01076 0.00364
C 14.75136 4.29823 -0.00831
C 14.69334 2.90867 -0.02957
C 15.90538 2.15145 -0.04422
C 14.67784 33.93484 -0.00703
C 7.38116 7.11157 0.05265
C 7.45505 8.55659 -0.01717
C 8.6873 9.26321 0.00244
C 2.51059 8.50836 0.01745
C 2.42382 7.13894 0.00488
C 3.68713 6.45094 -0.01004
C 3.68519 5.0468 -0.02896
C 2.43476 4.31596 -0.00131
C 2.3733 2.8645 -0.01118
C 3.63733 2.22849 -0.014
C 3.53346 0.84252 0.02147
C 2.40275 0.05517 0.00373
C 4.84154 32.75969 -0.00191
C 6.02103 32.01375 0.00438
C 6.08329 30.55486 0.01291
C 4.84101 29.87874 0.00093
C 4.94435 28.45261 0.00057
C 6.17647 27.74816 -0.01634
C 6.08695 26.37346 -0.00334
C 4.92705 25.62961 0.02339
C 3.71487 9.26531 0.03693
C 4.95087 24.155 0.01641
C 3.65552 10.68905 -0.01384
C 2.39502 12.81465 0.02888
C 3.66341 30.58681 0.01396
C 2.50899 29.87838 0.01849
C 2.50596 28.40402 -0.01142
C 3.7367 27.73265 -0.00562
C 3.71453 26.27353 -0.00494
C 2.52133 25.65407 0.00054
C 2.44966 24.16493 0.03007
C 3.69351 23.42407 -0.00095
C 3.63219 22.0429 0.01572
C 2.41286 21.30057 -0.04848
C 2.44058 19.86303 -0.00892
C 3.64151 19.1964 -0.01362
C 3.57453 17.76633 -0.0008
C 2.34212 17.03499 0.0288
C 2.40004 15.66175 0.00393
C 3.59463 14.92587 0.00895
C 3.61915 13.47792 0.00685
C 2.39229 11.38668 -0.00482
C 6.22348 23.43637 -0.00719
C 6.07345 21.95533 0.01364
C 4.89831 21.35939 -0.01062
C 8.60005 30.63731 0.02894
C 7.30325 29.91434 -0.01789
C 7.45549 28.46971 0.00444
C 8.75502 27.64783 -0.00925
C 8.65936 26.1787 0.01877
C 7.45058 25.60839 0.01363
C 7.4443 24.12846 -0.02162
C 7.24198 20.93944 0.00415
C 7.36783 19.61604 -0.0014
C 8.49346 17.96046 0.02162
C 7.31949 17.11846 0.0076
C 7.38808 15.73016 0.01241
C 8.6346 14.92761 -0.01454
C 8.55268 13.54972 0.01945
C 7.30095 12.80253 0.01416
C 7.41709 11.39863 0.03542
C 8.62121 10.69404 0.02299
C 8.54161 32.06069 -0.02971
C 7.36478 32.70343 0.00165
C 4.76802 0.05682 0.02819
C 5.98463 0.7875 -0.00891
C 4.90304 19.92375 -0.00033
C 6.03069 19.15506 0.03589
C 6.08753 17.76534 -0.02759
C 4.82651 17.05993 0.0402
C 4.86679 15.55642 0.00572
C 6.17265 14.92299 0.03592
C 6.09693 13.46815 0.00406
C 4.87225 12.77615 0.00943
C 19.7039 12.94981 -0.01662
C 4.92159 11.40062 0.02841
C 6.23091 9.20832 -0.01275
C 4.969 8.57054 0.00985
C 4.94863 7.16655 -0.02245
C 6.18395 6.45874 -0.00428
C 6.18377 4.99809 0.03101
C 4.9301 4.31372 -0.01536
C 4.88375 2.95076 -0.02689
C 6.08399 2.24059 -0.01046
C 6.21881 10.63552 -0.01111
C 3.64896 32.08116 0.0127
C 19.71343 11.50106 -0.01185
C 20.86269 9.24167 0.01852
C 31.85444 28.35944 0.0544
C 33.13434 27.69947 0.00026
C 33.26897 26.26771 0.00682
C 31.97668 25.5383 -0.01779
C 31.9038 24.14796 0.03794
C 33.2212 23.48508 0.01927
C 33.31139 22.03455 0.01574
C 31.99638 21.36697 -0.02383
C 31.93625 19.88636 -0.01429
C 33.157 19.15238 -0.0136
C 33.08768 17.65545 0.00594
C 31.80881 16.9851 -0.02474
C 31.7771 15.44527 0.00369
C 32.98934 14.6746 0.00455
C 32.94363 13.19063 -0.00644
C 31.66287 12.36498 -0.01839
C 31.72564 10.80596 0.00137
C 31.88507 29.77783 -0.02142
C 33.16803 10.52652 0.00199
C 33.14214 30.56063 0.01428
C 31.84261 32.61851 0.01713
C 30.67382 19.13606 0.0101
C 30.58375 17.64201 0.01705
C 29.39737 17.03643 -0.0405
C 29.33632 15.59129 -0.01303
C 30.48637 14.69324 -0.01461
C 30.40258 13.05288 -0.02155
C 29.09112 12.47497 -0.00944
C 30.98347 9.5607 -0.03735
C 29.65984 8.9332 -0.00971
C 29.5347 7.28892 0.01518
C 30.72317 6.51602 0.01908
C 30.67814 5.0754 0.07705
C 29.44123 4.3144 0.0103
C 29.45034 2.90303 0.02108
C 30.70461 2.15505 0.00716
C 30.63952 0.65937 0.00307
C 29.41402 33.98722 0.00346
C 33.14421 31.95391 -0.01694
C 29.45032 19.98673 -0.00669
C 33.2546 9.19801 0.04381
C 31.92046 7.24039 0.01504
C 1.12807 17.619 0.01223
C 34.31164 16.90526 0.00648
C 34.23236 15.48239 0.02114
C 1.1186 14.8842 -0.02957
C 1.11722 13.41264 0.00343
C 34.23616 12.5984 -0.02656
C 34.35362 11.24908 -0.02442
C 1.19299 10.68184 -0.00027
C 1.26831 9.22147 -0.00583
C 0.03556 8.51011 -0.02302
C 34.42942 7.05997 -0.02849
C 1.19835 6.39806 0.02931
C 1.14162 4.96582 0.00628
C 34.36797 4.22907 -0.0345
C 34.38626 2.83354 -0.00931
C 1.18628 2.17589 -0.00939
C 1.10409 0.79611 -0.00468
C 1.18065 19.08773 -0.01678
C 32.08547 8.5296 0.02806
C 0.00833 19.80574 0.01951
C 1.2306 22.10731 0.02712
C 33.15953 6.44919 -0.00069
C 33.16475 4.96718 0.04926
C 31.9316 4.31504 -0.03838
C 31.95506 2.88887 0.00349
C 33.14769 2.0354 -0.00323
C 33.09285 0.60989 -0.00841
C 31.87339 34.04043 0.0001
C 34.347 32.71194 -0.02927
C 1.17642 32.01377 -0.01404
C 1.26708 30.56688 0.01027
C 34.38156 29.85532 0.01831
C 0.00842 28.44583 -0.01037
C 1.25384 27.60788 -0.00439
C 1.23469 26.27271 -0.00598
C 0.07832 25.5815 -0.05239
C 0.09155 24.15236 0.03076
C 1.30325 23.47357 0.00723
C 0.05914 21.2483 -0.02213
C 29.56257 21.49697 0.03531
C 30.76162 22.03624 0.01836
C 30.73351 23.45135 -0.03039
C 23.39339 5.02383 0.03005
C 22.06504 4.33149 -0.04078
C 22.09123 2.87751 0.02117
C 23.44185 2.12341 0.02737
C 23.37178 0.69124 -0.00498
C 22.20028 33.89931 0.00135
C 24.22626 32.61976 0.03102
C 25.4711 32.07682 0.02555
C 25.72114 19.30739 0.01423
C 25.46711 17.91775 -0.00285
C 24.35557 17.05984 -0.009
C 24.50408 15.65236 -0.01199
C 25.73313 14.90565 -0.00229
C 25.73537 13.49925 -0.00938
C 24.54507 12.75209 -0.0264
C 24.63203 11.32676 -0.01154
C 25.85806 10.76197 0.00684
C 23.3866 6.42135 -0.0276
C 25.83074 9.25389 -0.01052
C 22.11371 7.07004 0.00768
C 23.37535 9.24739 0.00733
C 19.74767 8.43599 -0.00381
C 19.66008 7.06502 0.03046
C 20.84974 6.38267 0.0296
C 20.7783 4.90297 0.03374
C 19.5638 4.15003 -0.02845
C 19.64154 2.79971 -0.03213
C 20.89328 2.15559 0.02239
C 20.9963 0.44612 0.01153
C 19.7316 34.01811 0.02734
C 22.77098 32.53108 -0.0055
C 22.83734 17.28956 0.01515
C 22.23215 15.81433 -0.00225
C 23.34045 14.92565 0.00071
C 23.33908 13.42683 -0.01107
C 22.13225 12.84427 -0.01586
C 22.08551 11.38174 -0.01971
C 23.3269 10.65933 -0.02118
C 22.12025 8.50443 -0.00178
C 24.6358 8.57284 -0.01679
C 24.57128 7.16999 0.00367
C 25.86037 6.56659 0.04306
C 27.12053 7.26864 0.00235
C 28.29722 6.50715 0.01495
C 28.27707 5.08537 0.01259
C 26.97861 4.37847 0.01799
C 26.99872 2.9025 0.01699
C 28.21483 2.21181 -0.00416
C 28.18242 0.72979 0.01177
C 26.95495 34.04476 0.04266
C 29.3286 32.51412 0.01324
C 30.6614 31.86135 0.0014
C 30.68425 30.50204 0.00924
C 29.43461 29.75394 0.02326
C 29.39476 28.42181 0.00261
C 30.60392 27.5702 0.03265
C 30.73288 26.14217 -0.02049
C 29.53803 25.30482 -0.01854
C 29.38685 23.93248 -0.01415
C 27.15082 8.7389 0.01094
C 28.51147 9.74817 0.02198
C 28.38939 11.18109 0.02611
C 27.00973 11.49201 -0.00621
C 25.76849 5.101 0.00996
C 24.58487 4.37226 0.00195
C 24.59563 2.93475 -0.00802
C 25.77591 2.19874 -0.00218
C 25.75788 0.70489 -0.01654
C 24.51118 34.02079 -0.00037
C 26.85065 32.59821 -0.0032
C 28.01186 31.89943 0.00622
C 20.89559 10.65634 0.01126
C 28.18486 30.42428 -0.02815
C 26.83566 19.72391 0.00487
C 28.13531 19.29911 0.00826
C 28.05123 17.81506 -0.00294
C 26.83747 17.14495 0.00152
C 26.95399 15.67395 0.01257
C 28.17946 14.85395 0.02316
C 28.08813 13.50083 0.04185
C 26.89325 12.83929 0.00194
C 28.61672 22.67424 -0.00942
C 2.4149 32.71912 0.02635
