348
Graphene
C 0.00215 0.00407 0.01295
C 14.64705 19.97573 0.00422
C 15.90251 19.17599 0.0351
C 15.89494 17.7557 -0.03113
C 14.68922 17.08932 0.02098
C 14.54691 15.76864 0.01848
C 15.7098 14.93017 -0.00619
C 15.97736 13.60997 -0.02162
C 15.91713 6.28326 0.00889
C 15.84608 4.90447 -0.00481
C 14.77495 3.98395 0.00979
C 14.96709 2.65685 0.01443
C 16.09546 1.8178 0.03505
C 16.11528 0.4414 -0.02815
C 14.80583 33.83369 -0.04147
C 16.58588 21.48407 -0.05302
C 17.0093 20.12411 0.00213
C 18.33577 19.42585 -0.00066
C 14.72676 21.25755 0.00798
C 14.46074 32.43408 0.00228
C 12.35119 34.03348 -0.00114
C 13.641 0.61831 -0.02696
C 11.18718 2.27066 -0.01454
C 11.19875 0.76904 0.01945
C 9.89299 0.20026 0.01416
C 12.26335 32.65014 0.03542
C 13.44569 31.72013 0.02299
C 12.27397 29.88152 0.00244
C 12.19333 28.66489 -0.01717
C 12.30496 25.61236 0.05265
C 18.32945 17.87617 -0.00289
C 12.608 24.30726 -0.01952
C 13.59308 22.07888 0.00374
C 12.39971 21.39122 0.00052
C 12.27717 19.99419 -0.03682
C 13.40718 19.25289 0.01965
C 13.44929 17.87739 0.02058
C 12.31597 17.10501 -0.01957
C 12.46258 2.77374 -0.0108
C 13.62805 2.0009 -0.00368
C 13.46533 23.4086 -0.02813
C 17.17038 17.0959 0.00028
C 17.08352 15.69921 -0.02213
C 18.26818 14.95422 0.03698
C 19.61522 11.26692 -0.00831
C 20.82862 10.59775 -0.02957
C 20.89652 9.11637 -0.04422
C 19.59722 8.43855 0.00654
C 19.60736 6.94278 -0.00703
C 20.84372 6.30178 -0.04076
C 20.83787 4.92342 -0.00652
C 19.61845 4.12029 0.0058
C 19.54422 12.75991 0.00364
C 19.67253 2.77533 -0.00865
C 20.98279 0.52104 -0.00311
C 19.83157 33.94568 0.00742
C 22.20478 32.3617 -0.01594
C 23.45246 31.79248 0.0106
C 23.41162 22.22587 -0.01154
C 22.27661 21.39872 -0.01721
C 22.13048 20.01024 -0.02422
C 23.36999 19.15266 0.01277
C 20.90297 2.04561 0.00675
C 9.96761 2.91446 0.01241
C 20.7967 13.56339 -0.017
C 19.50401 15.66601 0.00667
C 18.30603 13.4287 -0.00109
C 16.93865 12.60571 -0.00491
C 17.21639 11.15499 0.03338
C 18.47559 10.51223 -0.0258
C 18.38774 9.11645 -0.0331
C 17.09669 8.59293 -0.00316
C 16.98351 7.03826 0.02188
C 18.33172 6.25278 -0.01979
C 20.75195 14.95906 0.00143
C 18.30249 4.78303 0.02691
C 17.2601 2.61322 0.01452
C 18.5344 2.03704 0.04892
C 18.67044 0.4418 -0.00111
C 17.40029 33.84105 -0.03557
C 19.70011 19.94011 0.03754
C 20.97078 19.3 0.01739
C 20.89891 17.83163 0.00755
C 19.58801 17.06445 -0.0054
C 17.14629 4.01939 -0.01581
C 23.27066 17.72166 0.00096
C 9.72102 17.16995 0.0076
C 11.10208 19.14492 -0.0014
C 3.94534 5.02027 -0.01362
C 2.57079 4.34739 -0.0008
C 2.48573 2.88417 0.0288
C 3.69464 2.12624 0.00393
C 3.6462 0.71692 0.00895
C 2.35314 0.03603 0.00685
C 4.92821 32.60958 0.02888
C 6.12389 31.99582 -0.00482
C 6.18361 30.56635 -0.01384
C 4.93102 29.8962 0.03693
C 4.95036 28.43682 0.01745
C 6.09205 27.72397 0.00488
C 6.1764 26.28159 -0.01004
C 4.96138 25.67848 -0.02896
C 4.93862 24.17399 -0.00131
C 6.15971 23.44442 -0.01118
C 6.07542 22.10482 -0.014
C 3.77762 6.40011 -0.00892
C 2.76223 7.29335 -0.04848
C 2.45393 8.6337 0.01572
C 2.43315 11.31786 -0.00095
C 3.70689 30.52695 -0.02929
C 2.39698 29.87192 -0.00966
C 2.45955 28.47389 -0.03337
C 3.69653 27.76326 0.01227
C 3.735 26.34925 0.00873
C 2.44532 25.64064 -0.00049
C 2.41047 24.22187 0.00848
C 3.6428 23.56621 -0.01303
C 4.81448 21.4128 0.02147
C 3.58153 22.12228 -0.01378
C 2.4151 20.00901 0.0127
C 3.6249 19.30852 0.01396
C 3.6703 17.85537 0.01849
C 2.40857 17.18826 -0.01142
C 2.47658 15.77819 -0.00562
C 3.69134 14.92611 -0.00494
C 3.63025 13.62543 0.00054
C 2.59771 12.68449 0.03007
C 2.3533 21.43864 0.02635
C 4.90269 19.97468 0.00373
C 6.07244 19.22612 -0.00191
C 6.0658 17.79834 0.00438
C 7.20744 17.10524 -0.02245
C 7.33221 2.8286 -0.00428
C 8.66497 2.3581 0.03101
C 8.6983 0.88571 -0.01536
C 7.44127 0.03775 -0.02689
C 9.85331 32.86488 -0.01046
C 10.98899 32.07456 -0.00891
C 10.99152 30.63196 0.02819
C 8.48017 17.71675 0.00985
C 9.79221 29.87917 0.00165
C 11.0401 27.76692 0.02894
C 11.11632 26.38707 -0.01789
C 9.89643 25.62593 0.00444
C 9.9326 24.18045 -0.00925
C 11.18513 23.58978 0.01877
C 11.16053 22.11207 0.01363
C 9.88938 21.29841 -0.02162
C 9.8379 19.94142 0.00415
C 9.71882 28.43976 -0.02971
C 11.02892 17.58472 0.02162
C 8.55758 19.18955 -0.01275
C 7.32903 21.451 0.02841
C 4.90047 17.08241 0.01291
C 4.8457 15.68814 0.00093
C 5.04787 4.09716 0.00057
C 4.91539 2.83947 -0.01634
C 6.19073 2.03596 -0.00334
C 6.17491 0.61994 0.02339
C 4.8914 34.05064 0.01641
C 7.37377 32.72209 -0.00719
C 7.27826 19.87303 -0.01111
C 8.60916 32.11861 0.01364
C 7.37976 29.87947 -0.00033
C 7.26794 28.40709 0.03589
C 8.51681 27.78768 -0.02759
C 8.60835 26.32337 0.0402
C 7.39849 25.63225 0.00572
C 7.38524 24.19621 0.03592
C 8.67251 23.48061 0.00406
C 8.66246 22.07626 0.00943
C 8.57798 30.67322 -0.01062
C 22.08732 17.04209 -0.01527
C 22.10033 15.60919 0.01087
C 23.32085 14.8783 0.00199
C 33.16029 30.55208 0.01428
C 31.87411 29.88234 -0.02142
C 31.87916 28.45564 0.0544
C 33.06735 27.77381 0.00026
C 33.12806 26.37671 0.00682
C 31.92949 25.60577 -0.01779
C 31.8567 24.22122 0.03794
C 33.09734 23.52119 0.01927
C 33.02953 22.03459 0.01574
C 31.8344 21.36973 -0.02383
C 31.83184 19.92911 -0.01429
C 33.1177 19.22738 -0.0136
C 33.06213 17.75777 0.00594
C 31.83793 17.06338 -0.02474
C 31.99345 15.64952 0.00369
C 33.22026 14.92783 0.00455
C 33.25195 13.4798 -0.00644
C 33.17749 31.93203 -0.01694
C 31.87277 32.63808 0.01713
C 29.47913 0.00265 0.00346
C 30.72079 0.70441 0.00307
C 29.4371 19.96058 0.01836
C 30.5933 19.2311 0.03531
C 30.59657 17.78947 -0.00669
C 29.4128 17.04045 0.0101
C 29.42654 15.6644 0.01705
C 30.77589 14.98895 -0.0405
C 30.81433 13.54439 -0.01303
C 29.50233 12.90271 -0.01461
C 31.9583 12.81387 -0.01839
C 29.45494 11.34996 -0.02155
C 30.71266 9.23819 -0.03735
C 29.53555 8.48392 -0.00971
C 29.51869 7.09194 0.01518
C 30.77879 6.37645 0.01908
C 30.7967 4.89756 0.07705
C 29.45999 4.23496 0.0103
C 29.53686 2.79 0.02108
C 30.70202 2.11639 0.00716
C 30.72522 10.63729 -0.00944
C 31.89269 11.34376 0.00137
C 33.13638 10.67795 0.00199
C 33.14087 9.21888 0.04381
C 1.18927 19.20699 -0.01678
C 1.17848 17.76999 0.01223
C 34.33877 17.06844 0.00648
C 0.02638 15.69717 0.02114
C 1.30509 14.95936 -0.02957
C 1.30237 13.53368 0.00343
C 34.40169 12.68088 -0.02656
C 34.378 11.33643 -0.02442
C 34.37591 19.84847 0.01951
C 1.2008 10.6384 -0.00027
C 0.03883 8.52341 -0.02302
C 0.0377 7.1573 -0.02849
C 1.29181 6.49202 0.02931
C 1.34761 5.02108 0.00628
C 0.09665 4.23671 -0.0345
C 0.09003 2.86997 -0.00931
C 1.26324 2.24408 -0.00939
C 1.22341 0.8289 -0.00468
C 1.22114 9.26822 -0.00583
C 29.4526 21.45503 -0.03039
C 34.30075 21.35183 -0.02213
C 1.19779 23.50416 0.00723
C 32.0041 8.4287 0.02806
C 32.01265 7.02957 0.01504
C 33.3074 6.37293 -0.00069
C 33.28762 4.91217 0.04926
C 32.02614 4.19182 -0.03838
C 32.00483 2.79119 0.00349
C 33.25871 2.18352 -0.00323
C 33.25629 0.71628 -0.00841
C 1.09821 22.08175 0.02712
C 31.97168 34.07806 0.0001
C 1.12377 31.96152 -0.01404
C 1.2169 30.54346 0.01027
C 34.3506 29.81113 0.01831
C 34.3766 28.43859 -0.01037
C 1.22572 27.752 -0.00439
C 1.20435 26.36516 -0.00598
C 34.32989 25.63486 -0.05239
C 34.38167 24.18587 0.03076
C 34.34762 32.71781 -0.02927
C 30.62644 22.10167 -0.01415
C 30.5886 23.48511 -0.01854
C 29.3868 24.15073 -0.02049
C 25.81172 22.04443 -0.02118
C 24.57664 21.38883 0.00733
C 24.56386 19.88209 -0.00178
C 25.7534 19.25122 0.00768
C 25.75844 17.84047 -0.0276
C 24.55959 17.09968 0.03005
C 24.4924 15.64144 -0.04078
C 25.78778 14.93924 0.02117
C 25.65689 23.4148 -0.01971
C 25.79329 13.48505 0.02737
C 24.4877 11.40739 0.00135
C 25.66902 10.6332 0.03102
C 25.76436 9.18819 0.02555
C 24.57517 8.51869 0.01423
C 24.59689 7.04493 -0.00285
C 25.88271 6.37362 -0.009
C 25.75504 4.96272 -0.01199
C 24.53861 4.30607 -0.00229
C 24.55845 12.77699 -0.00498
C 24.64534 2.81252 -0.00938
C 24.2384 23.70728 -0.01586
C 25.6891 27.69452 0.00071
C 23.30104 13.49106 0.01511
C 22.04426 12.79549 -0.00478
C 22.06619 11.36207 -0.01662
C 23.31182 10.65385 -0.01185
C 23.3963 9.22231 0.01126
C 22.14635 8.51984 0.01852
C 22.03263 7.08932 -0.00381
C 23.30099 6.37056 0.03046
C 25.62242 26.45964 -0.01107
C 23.29192 4.94595 0.0296
C 22.05906 2.81468 -0.02845
C 23.37049 2.08484 -0.03213
C 23.43866 0.69145 0.02239
C 22.24289 33.87862 0.01153
C 24.57457 32.63009 0.02734
C 25.83345 32.01989 -0.0055
C 25.8168 30.60104 0.01515
C 24.47713 30.07445 -0.00225
C 22.04044 4.27378 0.03374
C 3.54824 31.91789 0.03368
C 25.86066 2.08555 -0.0264
C 24.66963 34.05043 0.00684
C 28.30183 9.17468 -0.00621
C 27.06082 8.47298 0.02611
C 27.06463 7.10794 0.02198
C 28.31622 6.35189 0.01094
C 28.28552 4.97619 0.00235
C 26.96712 4.26281 0.01495
C 27.04069 2.7982 0.01259
C 28.27089 2.10528 0.01799
C 28.24825 10.58593 0.00194
C 28.31208 0.70549 0.01699
C 29.47747 32.6915 0.01177
C 30.65195 31.93229 0.04266
C 30.70943 30.57932 0.01324
C 29.40147 29.90927 0.0014
C 29.391 28.4156 0.00924
C 30.61131 27.74469 0.02326
C 30.63635 26.31933 0.00261
C 29.39455 25.63685 0.03265
C 27.09359 0.07094 -0.00416
C 25.86997 0.70319 -0.01154
C 26.97608 11.28926 0.04185
C 28.23446 13.5083 0.01257
C 27.06778 32.70286 -0.01052
C 28.27839 31.99286 -0.01679
C 28.20563 30.55511 0.00367
C 26.97766 29.85348 0.04306
C 26.8949 28.39998 0.00996
C 28.13839 27.70428 0.00195
C 28.1385 26.33127 -0.00802
C 26.83461 25.70073 -0.00218
C 26.98335 12.71418 0.02316
C 26.85913 24.25122 -0.01654
C 28.22827 22.11757 -0.0032
C 26.9623 21.38795 0.00622
C 26.99367 19.92564 -0.02815
C 28.21164 19.27616 -0.00942
C 28.19947 17.75797 0.00487
C 27.01708 17.06844 0.00826
C 26.99628 15.66873 -0.00294
C 28.23552 14.89878 0.00152
C 28.12308 23.49008 -0.00037
C 2.38092 32.68994 -0.00077
