399
Graphene
C 34.41184 0.07498 0.01295
C 9.70665 0.07822 -0.02971
C 12.2019 32.71358 0.02894
C 13.44399 31.88758 -0.01789
C 13.35799 30.47639 0.00444
C 12.12718 29.69425 -0.00925
C 12.15394 28.30882 0.01877
C 13.47378 27.68683 0.01363
C 13.57227 26.26819 -0.02162
C 12.36221 25.63642 0.00415
C 12.35324 24.15223 -0.0014
C 13.53562 23.40123 0.02162
C 13.54313 22.02109 0.0076
C 12.32828 21.2249 0.01241
C 12.35387 19.86204 -0.01454
C 13.67203 19.16868 0.01945
C 13.61631 17.80885 0.01416
C 12.35624 17.09527 0.03542
C 12.27008 15.65456 0.02299
C 13.45968 14.9421 0.00244
C 13.5207 13.53712 -0.01717
C 12.33325 12.76367 0.05265
C 10.95913 0.7248 0.00165
C 12.37483 11.36042 -0.01952
C 11.03613 2.20016 0.02819
C 9.80964 4.29337 -0.01046
C 10.99456 26.26519 0.01641
C 9.74864 25.55169 -0.00719
C 9.77918 24.11529 0.01364
C 11.0921 23.44683 -0.01062
C 11.13312 22.01745 -0.00033
C 9.90195 21.24899 0.03589
C 9.89922 19.76046 -0.02759
C 11.17341 19.16361 0.0402
C 11.10601 17.73513 0.00572
C 9.86892 17.079 0.03592
C 9.83547 15.60946 0.00406
C 11.02 14.9292 0.00943
C 11.06479 13.51602 0.02841
C 9.88298 12.79012 -0.01111
C 9.79194 11.29814 -0.01275
C 11.03145 10.6868 0.00985
C 11.15253 9.27504 -0.02245
C 9.84199 8.59155 -0.00428
C 9.81075 7.22953 0.03101
C 11.08852 6.48282 -0.01536
C 11.05079 5.01633 -0.02689
C 9.74198 2.87023 -0.00891
C 10.94156 27.69713 0.02339
C 13.62776 10.70783 -0.02813
C 12.34417 8.56682 0.00052
C 15.95875 14.84194 0.00213
C 15.9817 13.49345 -0.00066
C 14.73296 12.79015 -0.00289
C 14.80624 11.34833 0.00028
C 15.97817 10.62903 -0.02213
C 15.98295 9.14123 0.03698
C 14.79046 8.53787 -0.00109
C 14.81859 7.09692 -0.00491
C 16.08625 6.35891 0.03338
C 15.97531 4.99209 -0.0258
C 14.7793 4.28998 -0.0331
C 14.79024 2.81458 -0.00316
C 15.9425 2.12044 0.02188
C 15.91601 0.71641 -0.01979
C 14.67697 34.05259 0.02691
C 17.11736 32.59512 -0.01581
C 18.37766 31.86641 0.01452
C 18.39538 30.46575 0.04892
C 17.10793 29.76038 -0.00111
C 17.21769 28.37301 -0.03557
C 18.4707 27.75703 0.03754
C 14.75514 15.67512 -0.05302
C 13.59883 9.21025 0.00374
C 14.79537 17.08195 -0.04147
C 16.07543 19.09178 0.03505
C 12.36543 7.08285 -0.03682
C 13.58084 6.38627 0.01965
C 13.54861 5.03022 0.02058
C 12.32876 4.38317 -0.01957
C 12.2572 2.92477 -0.0108
C 13.51846 2.10924 -0.00368
C 13.39159 0.72542 -0.02696
C 12.19576 0.04531 -0.00114
C 14.72292 32.6237 0.00228
C 15.96332 31.90185 0.00798
C 15.93524 30.51293 0.00422
C 14.65282 29.87081 0.0351
C 14.69991 28.45077 -0.03113
C 15.95035 27.71169 0.02098
C 16.03812 26.22162 0.01848
C 14.7692 25.54653 -0.00619
C 14.87543 24.11226 -0.02162
C 16.06045 23.3721 0.00889
C 16.09212 21.95545 -0.00481
C 14.87168 21.22232 0.00979
C 14.81842 19.86393 0.01443
C 16.09362 17.7092 -0.02815
C 18.44785 26.33777 0.01739
C 9.72698 28.38968 -0.00334
C 10.95401 30.58893 0.00057
C 2.46686 4.36197 0.0073
C 2.40129 2.96671 0.0174
C 3.57645 2.26714 0.03828
C 3.64851 0.79495 0.01226
C 2.46894 0.01858 -0.00279
C 4.82434 32.89451 0.01996
C 6.01767 32.00186 -0.03996
C 6.03236 30.62199 0.01465
C 4.84121 29.88668 -0.00074
C 4.8327 28.40029 -0.00518
C 6.03804 27.74236 0.0086
C 6.10008 26.35599 -0.00643
C 4.87301 25.55067 0.017
C 4.9179 24.11308 -0.03113
C 6.14009 23.42795 -0.02566
C 6.10299 22.01678 -0.00094
C 4.89786 21.37679 0.02322
C 4.88881 19.95008 -0.00725
C 6.19418 19.16066 -0.05697
C 6.21773 17.78304 0.01087
C 4.92731 17.01056 -0.01343
C 3.6305 5.12156 0.00402
C 4.78068 15.65743 0.00988
C 3.66895 6.50644 0.02374
C 2.40799 8.5924 -0.01509
C 3.68257 30.66005 0.00211
C 2.36612 29.8698 -0.00449
C 2.44186 28.46563 -0.01979
C 3.60124 27.65509 0.02784
C 3.66759 26.22771 -0.01977
C 2.39549 25.54877 -0.00561
C 2.42887 24.04862 0.00208
C 3.70251 23.46008 0.01707
C 3.61403 21.99668 0.02769
C 2.40998 21.30899 -0.03291
C 2.41684 19.86091 -0.04999
C 3.69287 19.13449 0.04505
C 3.73623 17.75152 0.03284
C 2.46841 17.09708 -0.04307
C 2.36819 15.63762 0.03189
C 3.59661 14.91242 0.00031
C 3.63072 13.47601 -0.003
C 2.41094 12.80099 0.01402
C 2.40923 11.41817 0.02379
C 3.58889 10.69487 0.00907
C 3.63079 9.27441 0.00643
C 2.34469 7.14064 0.03267
C 9.7898 29.87375 -0.01634
C 6.10244 14.91558 0.0276
C 4.88456 12.8158 -0.00077
C 8.57009 19.22868 0.0288
C 8.6009 17.74001 0.00393
C 7.38636 17.06099 0.00895
C 7.38785 15.6328 0.00685
C 8.57287 14.93386 0.02888
C 8.60117 13.45018 -0.00482
C 7.33784 12.81134 -0.01384
C 7.36856 11.41797 0.03693
C 8.57386 10.67371 0.01745
C 8.6566 9.30672 0.00488
C 7.37548 8.62122 -0.01004
C 7.34139 7.20215 -0.02896
C 8.60519 6.47693 -0.00131
C 8.54311 5.06658 -0.01118
C 7.30317 4.36995 -0.014
C 7.33121 2.94305 0.02147
C 8.46317 2.23827 0.00373
C 8.50082 0.75904 -0.00191
C 7.25106 0.07763 0.00438
C 9.75012 32.77983 0.01291
C 10.96159 32.05625 0.00093
C 7.34342 19.8685 -0.0008
C 6.09043 13.51942 0.01305
C 7.3419 21.33988 -0.01362
C 8.58633 23.40324 -0.04848
C 4.9129 11.39873 0.03368
C 6.10996 10.70372 -0.02929
C 6.09972 9.29636 -0.00966
C 4.89648 8.58979 -0.03337
C 4.90514 7.2524 0.01227
C 6.06623 6.53826 0.00873
C 6.10717 5.08016 -0.00049
C 4.87182 4.43506 0.00848
C 4.7951 2.91107 -0.01303
C 6.09774 2.29359 -0.01378
C 6.11586 0.87903 0.02635
C 4.931 0.20373 0.0127
C 7.25967 32.71387 0.01396
C 8.55441 32.02049 0.01849
C 8.53844 30.60283 -0.01142
C 7.29962 29.92052 -0.00562
C 7.35655 28.52309 -0.00494
C 8.52474 27.72198 0.00054
C 8.56097 26.34812 0.03007
C 7.30005 25.5959 -0.00095
C 7.35471 24.16543 0.01572
C 8.56663 21.98782 -0.00892
C 3.63364 32.09916 0.0064
C 17.30248 25.5405 0.00755
C 18.63308 23.36992 0.00667
C 29.38219 7.06342 0.01518
C 30.5967 6.36751 0.01908
C 30.66286 4.9731 0.07705
C 29.47608 4.22789 0.0103
C 29.3769 2.80122 0.02108
C 30.69665 2.17462 0.00716
C 30.73375 0.72043 0.00307
C 29.51654 0.00996 0.00346
C 32.01984 32.71452 0.01713
C 33.1844 32.03093 -0.01694
C 33.20059 30.58932 0.01428
C 31.98975 29.82129 -0.02142
C 32.00174 28.42422 0.0544
C 33.19271 27.68558 0.00026
C 33.2292 26.2685 0.00682
C 31.98471 25.50413 -0.01779
C 31.83464 24.00551 0.03794
C 33.17655 23.43003 0.01927
C 33.18827 22.08654 0.01574
C 31.90895 21.3819 -0.02383
C 32.01035 20.12854 -0.01429
C 29.38551 8.4989 -0.00971
C 33.10011 19.27358 -0.0136
C 30.64586 9.16156 -0.03735
C 29.35222 11.2945 -0.02155
C 26.9624 7.03738 -0.00416
C 28.2056 6.35718 0.01177
C 28.23769 4.99051 0.04266
C 27.05661 4.22304 0.01324
C 27.01835 2.7981 0.0014
C 28.21905 2.08339 0.00924
C 28.26215 0.65753 0.02326
C 27.04562 34.06293 0.00261
C 29.62529 32.68653 0.03265
C 30.82256 31.95735 -0.02049
C 30.79157 30.4646 -0.01854
C 29.54887 29.83315 -0.01415
C 29.50431 28.42286 -0.03039
C 30.76736 27.75729 0.01836
C 30.84248 26.25885 0.03531
C 29.63143 25.58797 -0.00669
C 30.77972 23.29468 0.0101
C 28.93867 15.00221 0.01705
C 30.39064 14.83246 -0.0405
C 30.63065 13.42394 -0.01303
C 29.39578 12.77937 -0.01461
C 30.59331 10.66197 -0.00944
C 26.88315 8.5344 0.01699
C 33.1026 17.73884 0.00594
C 31.72506 15.67143 0.00369
C 1.21204 21.97471 0.02712
C 0.01283 21.25922 -0.02213
C 34.30117 19.91266 0.01951
C 1.15312 19.23488 -0.01678
C 1.222 17.80675 0.01223
C 0.0062 17.12406 0.00648
C 34.36585 15.60748 0.02114
C 1.13652 14.93909 -0.02957
C 1.14966 13.47502 0.00343
C 34.31246 12.85821 -0.02656
C 34.25865 11.37984 -0.02442
C 1.06073 10.66184 -0.00027
C 1.16037 9.28668 -0.00583
C 34.35996 8.61189 -0.02302
C 34.29161 7.20024 -0.02849
C 1.06665 6.49915 0.02931
C 1.20105 5.04344 0.00628
C 0.00642 4.28287 -0.0345
C 34.40954 2.86894 -0.00931
C 1.18527 2.12258 -0.00939
C 1.22054 0.74392 -0.00468
C 1.21343 23.34804 0.00723
C 31.72694 17.05765 -0.02474
C 34.40977 24.16571 0.03076
C 1.14991 26.29224 -0.00598
C 33.02515 14.91591 0.00455
C 33.08416 13.50762 -0.00644
C 31.9025 12.76046 -0.01839
C 31.84321 11.31947 0.00137
C 33.07725 10.60804 0.00199
C 33.09183 9.22871 0.04381
C 31.90099 8.55034 0.02806
C 31.81029 7.11424 0.01504
C 33.05176 6.44462 -0.00069
C 33.16778 5.04144 0.04926
C 31.91577 4.26244 -0.03838
C 31.9072 2.84777 0.00349
C 33.20451 2.18601 -0.00323
C 33.20284 0.74028 -0.00841
C 31.99554 0.05478 0.0001
C 34.40725 32.74359 -0.02927
C 1.16243 31.99509 -0.01404
C 1.20733 30.57406 0.01027
C 34.4182 29.86463 0.01831
C 0.07388 28.41706 -0.01037
C 1.23504 27.70541 -0.00439
C 0.01512 25.5545 -0.05239
C 17.29316 24.11017 -0.0054
C 28.14228 9.22973 0.01799
C 27.06724 11.47646 0.01495
C 19.7173 29.8257 0.01511
C 19.71877 28.43908 -0.00478
C 20.91312 27.7365 -0.01662
C 21.05082 26.43665 -0.01185
C 19.80776 25.67061 0.01126
C 19.64385 24.31703 0.01852
C 19.64048 15.58787 -0.00381
C 20.78995 14.87707 0.03046
C 20.79167 13.48498 0.0296
C 19.5756 12.74637 0.03374
C 19.5441 11.36466 -0.02845
C 20.77219 10.73418 -0.03213
C 20.79193 9.23439 0.02239
C 19.62588 8.47872 0.01153
C 19.65602 7.09325 0.02734
C 20.86999 6.3251 -0.0055
C 20.81094 4.93505 0.01515
C 19.62946 4.19898 -0.00225
C 19.78576 2.81205 0.00071
C 20.92774 2.05578 -0.01107
C 20.87134 0.63043 -0.01586
C 20.8818 30.56925 0.00199
C 19.60544 33.98672 -0.01971
C 20.87699 31.95678 0.01087
C 17.15878 34.04196 0.00096
C 18.70238 21.91931 0.00143
C 17.41355 21.32905 -0.017
C 17.28818 19.77901 0.00364
C 18.47521 19.01418 -0.00831
C 18.4872 17.70233 -0.02957
C 17.26176 16.91749 -0.04422
C 17.16298 15.53915 0.00654
C 18.46578 14.92771 -0.00703
C 18.41893 13.49216 -0.04076
C 17.15769 12.70946 -0.00652
C 17.16116 11.315 0.0058
C 18.36509 10.66085 -0.00865
C 18.38206 9.18874 0.00675
C 17.24629 8.44081 -0.00311
C 17.27662 7.03726 0.00742
C 18.40793 6.30397 -0.01594
C 18.40554 4.92858 0.0106
C 17.16458 4.19071 -0.01154
C 17.2662 2.81287 -0.01721
C 18.46827 2.12232 -0.02422
C 18.38897 0.72646 0.01277
C 19.595 32.59405 -0.01527
C 28.13047 10.62684 0.01259
C 22.14249 32.6118 -0.02118
C 23.41863 30.44746 -0.00178
C 24.53802 11.4674 -0.00802
C 25.77714 10.74644 -0.00218
C 25.68659 9.33447 -0.01654
C 24.48531 8.52809 -0.00037
C 24.51092 7.09104 -0.0032
C 25.76861 6.39482 0.00622
C 25.78833 4.95013 -0.02815
C 24.61811 4.19736 -0.00942
C 24.6934 2.79804 0.00487
C 25.87043 2.05912 0.00826
C 25.86083 0.65826 -0.00294
C 24.56804 34.076 0.00152
C 27.10006 32.61356 0.01257
C 28.32964 31.98417 0.02316
C 28.32045 30.55219 0.04185
C 27.0544 29.94268 0.00194
C 27.01177 28.4654 -0.00621
C 28.24385 27.70934 0.02611
C 28.40406 26.30366 0.02198
C 28.38613 13.81407 0.01094
C 27.04832 13.05851 0.00235
C 24.46396 12.89334 0.00195
C 23.43204 31.81584 0.00733
C 25.75009 13.43043 0.00996
C 24.59226 28.18916 0.00367
C 22.15474 29.89699 0.00768
C 22.08484 28.47596 -0.0276
C 23.19948 27.72113 0.03005
C 23.16851 13.5299 -0.04078
C 22.02388 12.74314 0.02117
C 22.07969 11.36679 0.02737
C 23.29259 10.68218 -0.00498
C 23.26953 9.30639 0.00135
C 22.06676 8.53596 0.03102
C 22.13567 7.04943 0.02555
C 23.40207 6.30306 0.01423
C 23.39658 4.83355 -0.00285
C 22.0795 4.19302 -0.009
C 22.20234 2.78467 -0.01199
C 23.45248 2.08922 -0.00229
C 23.39738 0.6956 -0.00938
C 22.16096 34.01923 -0.0264
C 24.56284 32.61434 -0.01154
C 25.86356 31.91385 0.00684
C 25.74478 30.50721 -0.01052
C 24.54625 29.63907 -0.01679
C 25.89032 27.60886 0.04306
C 2.4312 32.7581 -0.00039
