372
Graphene
C 0.01017 0.04292 0.01295
C 13.60585 10.6274 0.00244
C 13.46686 9.28651 -0.01717
C 12.30339 8.49552 0.05265
C 12.31895 7.10283 -0.01952
C 13.57504 6.42792 -0.02813
C 13.54884 4.9837 0.00374
C 12.19897 4.24393 0.00052
C 12.2596 2.79827 -0.03682
C 13.49041 2.00207 0.01965
C 13.52453 0.65438 0.02058
C 12.34453 0.02807 -0.01957
C 14.81141 32.60033 -0.0108
C 16.03006 31.91777 -0.00368
C 16.02841 30.51226 -0.02696
C 14.73434 29.90431 -0.00114
C 14.77187 28.38581 0.00228
C 15.97371 27.62926 0.00798
C 15.92629 26.21965 0.00422
C 14.79646 25.48023 0.0351
C 12.23622 11.31189 0.02299
C 14.74421 24.14319 -0.03113
C 12.30852 12.75044 0.03542
C 13.49329 14.97429 0.01945
C 10.99529 0.7737 -0.02689
C 9.84535 0.04345 -0.01046
C 12.34965 32.69018 -0.00891
C 13.57111 31.96907 0.02819
C 13.54567 30.55315 0.00165
C 12.29723 29.83791 -0.02971
C 12.31057 28.40791 0.02894
C 13.55934 27.7249 -0.01789
C 13.54465 26.35286 0.00444
C 12.28221 25.5827 -0.00925
C 12.27239 24.19163 0.01877
C 13.54124 23.35867 0.01363
C 13.54552 21.98847 -0.02162
C 12.33195 21.32083 0.00415
C 12.37687 19.87985 -0.0014
C 13.51251 19.11138 0.02162
C 13.50575 17.76748 0.0076
C 12.30493 16.99257 0.01241
C 12.21864 15.60393 -0.01454
C 13.53945 13.48713 0.01416
C 16.07003 23.4288 0.02098
C 15.99567 22.03652 0.01848
C 14.78446 21.31323 -0.00619
C 17.17457 28.48982 -0.01581
C 18.41384 27.72036 0.01452
C 18.42384 26.20048 0.04892
C 17.20177 25.52235 -0.00111
C 17.23753 24.18405 -0.03557
C 18.45253 23.39482 0.03754
C 18.42112 22.00785 0.01739
C 17.20112 21.31397 0.00755
C 17.23724 19.85702 -0.0054
C 18.50062 19.21818 0.00667
C 18.46858 17.70782 0.00143
C 17.2359 17.05487 -0.017
C 17.23659 15.61217 0.00364
C 18.46584 14.86363 -0.00831
C 18.38928 13.49087 -0.02957
C 17.19319 12.76531 -0.04422
C 17.24128 11.31245 0.00654
C 18.46867 10.62075 -0.00703
C 18.44653 9.26019 -0.04076
C 17.18865 29.82358 0.02691
C 18.40693 30.55176 -0.01979
C 18.36376 32.00569 0.02188
C 17.18307 32.69915 -0.00316
C 14.74323 19.90186 -0.02162
C 16.01803 19.14042 0.00889
C 15.99546 17.751 -0.00481
C 14.76705 17.07571 0.00979
C 14.76165 15.66361 0.01443
C 16.03687 14.94251 0.03505
C 15.98512 13.50042 -0.02815
C 14.76011 12.75106 -0.04147
C 14.74109 11.33423 -0.05302
C 11.03272 2.14783 -0.01536
C 16.02891 10.6736 0.00213
C 14.7172 8.51966 -0.00289
C 14.73353 7.12161 0.00028
C 15.96069 6.41489 -0.02213
C 15.9631 4.95357 0.03698
C 14.68736 4.24467 -0.00109
C 14.74872 2.82461 -0.00491
C 16.0348 2.10563 0.03338
C 15.94005 0.68815 -0.0258
C 14.75356 33.99761 -0.0331
C 15.95004 9.20912 -0.00066
C 17.23889 8.50196 -0.00652
C 9.81689 2.81077 0.03101
C 11.11899 10.6417 -0.02245
C 4.96658 32.65919 0.03368
C 6.11662 32.00528 -0.02929
C 6.16597 30.49058 -0.00966
C 4.88652 29.82997 -0.03337
C 4.90081 28.41475 0.01227
C 6.17216 27.75313 0.00873
C 6.16518 26.21838 -0.00049
C 4.89397 25.59462 0.00848
C 4.8758 24.18461 -0.01303
C 6.10176 23.42943 -0.01378
C 6.14648 22.0354 0.02635
C 4.94028 21.34686 0.0127
C 4.92856 19.82825 0.01396
C 6.15191 19.20507 0.01849
C 6.17359 17.77483 -0.01142
C 4.92736 17.05676 -0.00562
C 4.85898 15.68998 -0.00494
C 6.15741 14.89703 0.00054
C 6.14113 13.45986 0.03007
C 2.44292 34.06925 -0.00077
C 4.84468 2.85824 -0.00095
C 3.71854 0.66162 0.01305
C 2.50372 2.89317 0.00988
C 3.66519 30.52236 0.03828
C 2.52294 29.79777 0.01226
C 2.46443 28.39044 -0.00279
C 3.61438 27.68919 0.01996
C 3.65432 26.37309 -0.03996
C 2.45946 25.57073 0.01465
C 2.4974 24.12793 -0.00074
C 3.688 23.45032 -0.00518
C 3.74541 22.01487 0.0086
C 2.43702 21.26453 -0.00643
C 2.49573 19.85643 0.017
C 3.60689 19.12979 -0.03113
C 3.65924 17.81143 -0.02566
C 2.41981 17.07762 -0.00094
C 2.44265 15.62877 0.02322
C 3.72134 14.92186 -0.00725
C 3.6518 13.37895 -0.05697
C 2.54675 12.83886 0.01087
C 2.49135 4.29502 -0.01343
C 3.69035 2.17977 0.0276
C 6.11519 2.16628 0.01572
C 6.10185 0.64623 -0.04848
C 4.89404 34.05318 -0.00892
C 11.13035 31.9649 -0.01634
C 11.08875 30.52034 -0.00334
C 9.85437 29.87807 0.02339
C 9.85267 28.49028 0.01641
C 11.03283 27.71238 -0.00719
C 11.13005 26.28813 0.01364
C 9.90681 25.58204 -0.01062
C 9.86452 24.19563 -0.00033
C 11.01638 23.32237 0.03589
C 11.03263 21.97202 -0.02759
C 9.77302 21.30497 0.0402
C 9.76384 19.83767 0.00572
C 11.0665 19.17377 0.03592
C 11.04629 17.78333 0.00406
C 9.80803 17.08059 0.00943
C 9.84842 15.55997 0.02841
C 11.0319 14.95022 -0.01111
C 11.05396 13.51198 -0.01275
C 9.8407 12.84646 0.00985
C 9.8404 32.66539 0.00057
C 7.37709 0.02035 0.00093
C 8.65351 0.74864 0.01291
C 8.59312 2.18425 0.00438
C 7.34234 32.7162 -0.01362
C 8.64486 31.9593 -0.0008
C 8.62944 30.60811 0.0288
C 7.39114 29.87717 0.00393
C 7.42017 28.49001 0.00895
C 8.58169 27.79264 0.00685
C 8.59536 26.33161 0.02888
C 7.40169 25.55857 -0.00482
C 7.31523 24.13633 -0.01384
C 11.08002 5.02885 -0.00428
C 8.61217 23.42126 0.03693
C 7.37851 21.29165 0.00488
C 7.33766 19.95115 -0.01004
C 8.53946 19.23462 -0.02896
C 8.61832 17.78063 -0.00131
C 7.32811 17.04459 -0.01118
C 7.33555 15.66455 -0.014
C 8.58867 14.87151 0.02147
C 8.68612 13.4492 0.00373
C 7.31465 2.91198 -0.00191
C 8.57496 22.0305 0.01745
C 17.28021 7.1592 0.0058
C 18.45315 6.33031 -0.00865
C 18.4371 4.97118 0.00675
C 29.45869 11.32939 0.00716
C 30.72728 10.63542 0.00307
C 30.69421 9.25783 0.00346
C 29.41093 8.51 0.01713
C 29.46168 7.09549 -0.01694
C 30.71347 6.344 0.01428
C 30.74492 5.01841 -0.02142
C 29.46817 4.26496 0.0544
C 29.51771 2.88568 0.00026
C 30.74107 2.09408 0.00682
C 30.73371 0.70778 -0.01779
C 29.51636 0.02618 0.03794
C 32.01716 32.65382 0.01927
C 33.24811 32.00787 0.01574
C 33.17192 30.51833 -0.02383
C 31.99762 29.83451 -0.01429
C 33.19878 27.709 -0.0136
C 33.11177 19.23838 0.00594
C 33.24936 17.78143 -0.02474
C 29.52147 12.71789 0.02108
C 32.05751 17.00289 0.00369
C 30.73358 13.51372 0.0103
C 29.49861 15.65845 0.01908
C 27.06521 12.7732 0.00261
C 27.02582 11.33531 0.03265
C 28.26544 10.63814 -0.02049
C 28.25319 9.24789 -0.01854
C 27.10609 8.56718 -0.01415
C 27.08502 7.03273 -0.03039
C 28.32683 6.33966 0.01836
C 28.3027 4.96453 0.03531
C 27.04052 4.29227 -0.00669
C 27.05005 2.789 0.0101
C 28.23957 2.14507 0.01705
C 28.3333 0.67055 -0.0405
C 27.02955 34.03294 -0.01303
C 29.48399 32.68754 -0.01461
C 30.72275 31.94065 -0.02155
C 30.69939 30.52754 -0.00944
C 29.48686 29.88701 -0.03735
C 30.71784 17.61383 -0.00971
C 29.62638 17.05498 0.01518
C 30.75039 14.95845 0.07705
C 32.0561 15.58196 0.00455
C 33.22297 14.83427 -0.00644
C 33.19469 13.47827 -0.01839
C 0.069 21.27193 0.01951
C 34.36323 19.89031 -0.01678
C 1.24943 19.13924 0.01223
C 1.21133 17.75991 0.00648
C 34.4183 17.05374 0.02114
C 0.01782 15.6835 -0.02957
C 1.21323 14.91347 0.00343
C 1.2708 13.53086 -0.02656
C 34.38368 12.83055 -0.02442
C 0.01096 11.36144 -0.00027
C 1.1959 10.63558 -0.00583
C 0.04137 8.60116 -0.02302
C 0.07199 7.12032 -0.02849
C 1.15072 6.31025 0.02931
C 1.25158 4.99999 0.00628
C 34.42388 4.25871 -0.0345
C 0.04038 2.88362 -0.00931
C 1.19241 2.05482 -0.00939
C 1.19459 0.68886 -0.00468
C 1.20334 22.01055 -0.02213
C 1.27819 23.43721 0.02712
C 34.35676 24.18991 0.00723
C 34.3714 25.5262 0.03076
C 31.93476 12.73485 0.00137
C 31.93237 11.33815 0.00199
C 33.17393 10.60871 0.04381
C 33.21612 9.28468 0.02806
C 31.96946 8.57048 0.01504
C 31.97188 7.10669 -0.00069
C 33.19481 6.37503 0.04926
C 33.15593 4.93931 -0.03838
C 31.91441 4.27017 0.00349
C 28.28989 13.50087 0.02326
C 32.00311 2.78227 -0.00323
C 33.20426 0.69053 0.0001
C 31.93934 0.03725 -0.02927
C 0.01596 32.70719 -0.01404
C 1.21482 32.01629 0.01027
C 1.20142 30.54977 0.01831
C 34.41402 29.8208 -0.01037
C 34.40366 28.42333 -0.00439
C 1.2491 27.701 -0.00598
C 1.23345 26.28213 -0.05239
C 33.18601 2.09279 -0.00841
C 28.26877 14.8917 0.00924
C 27.05293 15.65773 0.0014
C 26.97146 17.15339 0.01324
C 19.67114 12.73102 0.02239
C 19.65969 11.33398 0.01153
C 20.84926 10.63269 0.02734
C 20.89124 9.24638 -0.0055
C 19.71023 8.51212 0.01515
C 19.59043 7.05054 -0.00225
C 20.84591 6.38458 0.00071
C 20.92462 4.97374 -0.01107
C 19.66704 4.21482 -0.01586
C 19.64993 2.84281 -0.01971
C 20.9228 2.10266 -0.02118
C 20.91563 0.69749 0.00733
C 19.70074 0.00729 -0.00178
C 22.09253 32.65193 0.00768
C 23.37672 31.90183 -0.0276
C 23.34077 30.49899 0.03005
C 22.10203 29.79066 -0.04078
C 22.11877 28.40624 0.02117
C 22.19509 25.51765 0.02737
C 20.8743 13.53637 -0.03213
C 20.80678 14.90554 -0.02845
C 19.61137 15.58631 0.03374
C 19.6768 16.95503 0.0296
C 17.17742 4.27396 -0.00311
C 17.27002 2.81333 0.00742
C 18.48327 2.10731 -0.01594
C 18.34967 0.69441 0.0106
C 17.13099 34.04209 -0.01154
C 19.67286 32.64131 -0.01721
C 20.88936 31.9111 -0.02422
C 20.91393 30.46736 0.01277
C 19.7127 29.77023 0.00096
C 22.19991 21.30462 -0.00498
C 19.65737 28.38652 -0.01527
C 20.95371 26.15299 0.00199
C 19.628 25.51886 0.01511
C 19.66972 24.14347 -0.00478
C 20.94284 23.38616 -0.01662
C 21.02651 21.97728 -0.01185
C 19.64848 21.23552 0.01126
C 19.69082 19.85681 0.01852
C 20.91992 19.15882 -0.00381
C 20.91536 17.71741 0.03046
C 20.98369 27.6851 0.01087
C 3.66029 31.94295 0.0174
C 22.18331 19.9288 0.00135
C 23.42476 17.73045 0.02555
C 25.87064 14.93915 0.00826
C 25.8569 13.53196 -0.00294
C 24.60576 12.80999 0.00152
C 24.61616 11.2799 0.01257
C 25.81064 10.64073 0.02316
C 25.85444 9.23958 0.04185
C 24.57761 8.58958 0.00194
C 24.56487 7.11006 -0.00621
C 25.83646 6.43387 0.02611
C 25.7967 5.00792 0.02198
C 24.58969 4.2516 0.01094
C 24.62644 2.85888 0.00235
C 25.80595 2.19162 0.01495
C 25.82762 0.67262 0.01259
C 24.62878 0.05631 0.01799
C 27.1168 32.65825 0.01699
C 28.33739 31.92908 -0.00416
C 28.2152 30.45867 0.01177
C 27.06318 29.84822 0.04266
C 24.57432 15.58295 0.00487
C 24.73981 17.07856 -0.00942
C 25.87096 17.7451 -0.02815
C 24.58129 29.8284 0.00622
C 22.14499 17.00495 0.01423
C 22.01977 15.6209 -0.00285
C 23.27295 14.91276 -0.009
C 23.30775 13.47916 -0.01199
C 22.10076 12.77563 -0.00229
C 22.1354 11.33717 -0.00938
C 23.28551 10.60933 -0.0264
C 23.34708 9.23818 -0.01154
C 22.09924 8.53407 0.00684
C 23.30712 19.09603 0.03102
C 22.08383 7.12511 -0.01052
C 23.37353 4.9613 0.00367
C 22.13077 4.24612 0.04306
C 22.12246 2.84128 0.00996
C 23.38028 2.05345 0.00195
C 23.3991 0.70184 -0.00802
C 22.12076 34.06184 -0.00218
C 24.60477 32.66343 -0.01654
C 25.91172 32.0413 -0.00037
C 25.84833 30.50838 -0.0032
C 23.31955 6.33369 -0.01679
C 2.44595 32.64039 0.0073
