356
Graphene
C 34.41302 0.0388 0.01295
C 11.12314 10.67373 -0.0108
C 11.01447 9.17403 -0.00368
C 9.75966 8.51943 -0.02696
C 9.71996 7.10376 -0.00114
C 11.06866 6.44473 0.00228
C 11.04903 5.01759 0.00798
C 9.70372 4.32714 0.00422
C 9.79163 2.89947 0.0351
C 9.85466 11.37598 -0.01957
C 11.06352 2.19847 -0.03113
C 9.82758 0.02117 0.01848
C 12.28837 32.69906 -0.00619
C 13.49523 31.9773 -0.02162
C 13.56592 30.48037 0.00889
C 12.29081 29.89242 -0.00481
C 12.33482 28.40083 0.00979
C 13.66266 27.84086 0.01443
C 12.02597 15.79218 0.03505
C 11.02809 0.75911 0.02098
C 13.25069 15.00681 -0.02815
C 9.83941 12.7881 0.02058
C 11.01778 14.81824 -0.03682
C 7.35468 4.1912 -0.02162
C 7.33532 2.85572 0.00415
C 8.64927 2.12693 -0.0014
C 8.58375 0.66119 0.02162
C 7.35151 0.03675 0.0076
C 9.8157 32.68892 0.01241
C 11.05919 32.00192 -0.01454
C 11.098 30.56099 0.01945
C 11.1454 13.47192 0.01965
C 9.90556 29.88776 0.01416
C 11.14304 27.65017 0.02299
C 11.24939 26.28229 0.00244
C 9.94478 25.51232 -0.01717
C 9.963 24.20874 0.05265
C 9.84434 21.22446 -0.01952
C 9.66762 19.99115 -0.02813
C 9.91102 16.93052 0.00374
C 9.72068 15.56017 0.00052
C 9.89344 28.3479 0.03542
C 13.32718 13.80359 -0.04147
C 12.37032 12.85187 -0.05302
C 12.36241 11.45009 0.00213
C 17.19657 32.73037 0.00667
C 18.44714 31.86391 0.00143
C 18.37832 30.52997 -0.017
C 17.26221 29.69975 0.00364
C 17.57905 28.2105 -0.00831
C 18.37408 5.09394 -0.02957
C 17.10233 4.65127 -0.04422
C 17.13638 3.03772 0.00654
C 14.7512 0.02228 -0.0054
C 18.39833 2.21737 -0.00703
C 17.18045 0.08125 -0.00652
C 19.61265 32.71611 0.0058
C 20.80295 31.86874 -0.00865
C 20.82336 30.50829 0.00675
C 19.61058 29.76095 -0.00311
C 19.49511 28.27873 0.00742
C 20.68326 27.86921 -0.01594
C 20.84887 4.98894 0.0106
C 18.38218 0.79531 -0.04076
C 15.96763 0.6943 0.00755
C 15.96075 2.17567 0.01739
C 14.7207 2.86957 0.03754
C 13.33445 10.49182 -0.00066
C 13.56006 9.22054 -0.00289
C 12.35385 8.43444 0.00028
C 12.42969 7.015 -0.02213
C 13.60753 6.34853 0.03698
C 13.4125 4.91073 -0.00109
C 12.24515 4.20205 -0.00491
C 12.31987 2.88441 0.03338
C 13.54587 2.18113 -0.0258
C 13.52614 0.74531 -0.0331
C 12.24199 0.08965 -0.00316
C 14.72654 32.69421 0.02188
C 15.91577 31.89536 -0.01979
C 16.03169 30.43732 0.02691
C 14.7614 29.76575 -0.01581
C 14.78055 28.33052 0.01452
C 15.12276 6.29009 0.04892
C 15.79795 5.22799 -0.00111
C 14.57076 4.26552 -0.03557
C 8.54603 5.0363 0.01363
C 19.59915 4.44902 -0.01154
C 8.49672 6.39999 0.01877
C 7.34832 8.5652 0.00444
C 2.35027 7.07504 -0.00562
C 3.64797 6.37978 -0.00494
C 3.68853 4.95167 0.00054
C 2.47353 4.26945 0.03007
C 2.49543 2.8692 -0.00095
C 3.66563 2.27183 0.01572
C 3.62349 0.82169 -0.04848
C 2.45508 0.03347 -0.00892
C 2.42089 8.57278 -0.01142
C 4.92994 32.78011 -0.01362
C 6.2345 30.58336 0.0288
C 4.99542 29.87531 0.00393
C 5.01199 28.44927 0.00895
C 6.20203 27.73407 0.00685
C 6.1488 26.29945 0.02888
C 4.93839 25.55826 -0.00482
C 4.94151 24.07601 -0.01384
C 6.1791 23.41223 0.03693
C 6.18432 32.11842 -0.0008
C 6.14999 22.01067 0.01745
C 3.68886 9.30325 0.01849
C 2.43877 11.34364 0.0127
C 3.79086 30.59711 -0.05697
C 2.53774 29.92209 0.01087
C 2.53295 28.47327 -0.01343
C 3.77455 27.70674 0.00988
C 3.72983 26.29273 0.0276
C 2.47352 25.5847 0.01305
C 2.51378 24.14545 -0.00077
C 3.68294 23.38906 0.03368
C 3.66583 10.66321 0.01396
C 3.74875 21.97292 -0.02929
C 2.49356 19.8768 -0.03337
C 3.75122 19.19475 0.01227
C 3.67235 17.81647 0.00873
C 2.41351 17.11138 -0.00049
C 2.31986 15.71013 0.00848
C 3.61801 15.03764 -0.01303
C 3.59875 13.54619 -0.01378
C 2.40061 12.86056 0.02635
C 2.44746 21.28621 -0.00966
C 4.93678 21.25455 0.00488
C 4.93118 19.93643 -0.01004
C 6.19157 19.14869 -0.02896
C 8.65046 27.71556 0.00406
C 8.63481 26.29408 0.00943
C 7.33418 25.57092 0.02841
C 7.38944 24.0972 -0.01111
C 8.69326 23.49231 -0.01275
C 8.70092 22.12786 0.00985
C 7.4395 21.32713 -0.02245
C 7.41857 19.91227 -0.00428
C 7.40881 28.473 0.03592
C 8.70691 19.12652 0.03101
C 7.49007 17.02815 -0.02689
C 7.32588 15.61752 -0.01046
C 8.51825 14.87375 -0.00891
C 8.58766 13.51283 0.02819
C 7.2645 12.79849 0.00165
C 7.32647 11.40732 -0.02971
C 8.58371 10.72638 0.02894
C 8.5729 9.20081 -0.01789
C 8.71858 17.69095 -0.01536
C 7.43703 29.86426 0.00572
C 8.68525 30.57362 0.0402
C 8.60673 31.9887 -0.02759
C 6.32711 17.75045 -0.00131
C 4.97821 17.05179 -0.01118
C 4.82358 15.63394 -0.014
C 5.98109 14.93323 0.02147
C 5.99027 13.56407 0.00373
C 4.85417 12.85997 -0.00191
C 4.87339 11.44596 0.00438
C 6.03045 10.75883 0.01291
C 6.13347 9.2621 0.00093
C 4.95201 8.50946 0.00057
C 4.86364 7.0751 -0.01634
C 6.1314 6.37031 -0.00334
C 6.14352 4.97007 0.02339
C 4.95407 4.31396 0.01641
C 4.98422 2.89595 -0.00719
C 6.13119 2.18691 0.01364
C 6.12491 0.81029 -0.01062
C 4.82963 0.13508 -0.00033
C 7.37271 32.74332 0.03589
C 7.27815 7.13882 -0.00925
C 19.60663 2.92628 -0.01721
C 20.80307 2.12608 -0.02422
C 20.83494 0.68025 0.01277
C 31.9805 32.66045 0.01713
C 33.26964 31.96394 -0.01694
C 33.25344 30.57958 0.01428
C 31.99332 29.86891 -0.02142
C 31.92308 28.42533 0.0544
C 33.1811 27.83349 0.00026
C 33.14897 26.29834 0.00682
C 31.90049 25.61016 -0.01779
C 29.443 34.04681 0.00346
C 31.9057 24.22176 0.03794
C 33.17332 22.06843 0.01574
C 31.93556 21.35187 -0.02383
C 31.86939 19.96518 -0.01429
C 33.06284 19.17517 -0.0136
C 33.10706 17.79094 0.00594
C 31.80762 17.06149 -0.02474
C 31.86142 15.64217 0.00369
C 33.07176 14.91186 0.00455
C 33.07783 23.44578 0.01927
C 33.09948 13.53553 -0.00644
C 30.78914 0.71648 0.00307
C 29.41677 2.88733 0.02108
C 30.68627 22.04658 -0.01415
C 29.47387 21.3625 -0.03039
C 29.46451 19.8767 0.01836
C 30.63489 19.16198 0.03531
C 30.64192 17.76117 -0.00669
C 29.36271 17.03096 0.0101
C 29.41101 15.64323 0.01705
C 30.6262 14.96371 -0.0405
C 30.63615 2.23892 0.00716
C 30.65456 13.56041 -0.01303
C 29.39687 11.37467 -0.02155
C 30.65883 10.61372 -0.00944
C 30.63689 9.21688 -0.03735
C 29.37572 8.59824 -0.00971
C 29.29352 7.10743 0.01518
C 30.57317 6.43342 0.01908
C 30.66443 5.02354 0.07705
C 29.3873 4.32054 0.0103
C 29.47506 12.76171 -0.01461
C 31.80852 12.89154 -0.01839
C 31.90405 11.39547 0.00137
C 33.05413 10.72594 0.00199
C 1.26396 19.26728 -0.01678
C 1.18983 17.76999 0.01223
C 34.37035 17.06371 0.00648
C 34.27937 15.70364 0.02114
C 1.11295 15.02137 -0.02957
C 1.18412 13.56363 0.00343
C 34.30507 12.83783 -0.02656
C 34.38438 11.43838 -0.02442
C 34.38358 19.91923 0.01951
C 1.11401 10.793 -0.00027
C 34.33601 8.61324 -0.02302
C 34.32579 7.16662 -0.02849
C 1.15551 6.47066 0.02931
C 1.19315 5.03409 0.00628
C 34.40137 4.2673 -0.0345
C 0.05995 2.9073 -0.00931
C 1.25729 2.17987 -0.00939
C 1.3042 0.79304 -0.00468
C 1.10894 9.36367 -0.00583
C 34.41489 21.34599 -0.02213
C 1.25376 21.99267 0.02712
C 1.27116 23.39908 0.00723
C 33.0621 9.28674 0.04381
C 31.84676 8.45761 0.02806
C 31.82207 7.09415 0.01504
C 33.10859 6.39151 -0.00069
C 33.22184 4.99167 0.04926
C 31.93456 4.27642 -0.03838
C 31.97518 2.87977 0.00349
C 33.1853 2.1424 -0.00323
C 33.21 0.71447 -0.00841
C 31.95615 34.03602 0.0001
C 34.41691 32.7395 -0.02927
C 1.23317 32.00119 -0.01404
C 1.30266 30.60195 0.01027
C 0.04598 29.89099 0.01831
C 0.00883 28.50505 -0.01037
C 1.34376 27.68738 -0.00439
C 1.26889 26.26749 -0.00598
C 34.40892 25.62591 -0.05239
C 34.33187 24.08977 0.03076
C 30.63393 23.44714 -0.01854
C 29.46023 24.14275 -0.02049
C 29.45898 25.59041 0.03265
C 30.70117 26.32666 0.00261
C 25.7319 26.31909 -0.01107
C 24.45637 25.55872 -0.01586
C 24.53123 24.15974 -0.01971
C 25.76656 23.54922 -0.02118
C 25.71285 22.12428 0.00733
C 24.48627 21.35091 -0.00178
C 24.45929 20.09208 0.00768
C 25.5151 19.18129 -0.0276
C 25.70479 27.73512 0.00071
C 25.5689 17.81347 0.03005
C 24.36066 15.45705 0.02117
C 25.60035 14.59273 0.02737
C 25.72003 13.19273 -0.00498
C 25.0326 11.95642 0.00135
C 25.80402 10.66753 0.03102
C 25.56137 9.33489 0.02555
C 24.41661 8.69616 0.01423
C 24.37993 7.24514 -0.00285
C 24.7133 16.72262 -0.04078
C 24.42931 28.38957 -0.00225
C 24.54485 29.73464 0.01515
C 25.74886 30.49174 -0.0055
C 19.61206 0.02213 0.00096
C 22.0291 32.60803 -0.01527
C 23.34459 31.9592 0.01087
C 23.33015 30.54085 0.00199
C 22.07801 29.87381 0.01511
C 22.0636 28.49915 -0.00478
C 23.19176 27.69289 -0.01662
C 23.30727 26.36312 -0.01185
C 21.77658 14.80117 0.01126
C 23.0267 14.99991 0.01852
C 23.35696 6.31815 -0.00381
C 23.28186 4.86516 0.03046
C 22.05694 4.17859 0.0296
C 22.01035 2.77338 0.03374
C 23.30722 2.00568 -0.02845
C 23.33162 0.61085 -0.03213
C 22.06497 34.07425 0.02239
C 24.53548 32.65338 0.01153
C 25.80997 31.91648 0.02734
C 25.74388 6.43081 -0.009
C 3.74667 31.96453 -0.00725
C 25.70813 4.96132 -0.01199
C 24.58654 2.77776 -0.00938
C 27.07113 11.36837 0.04185
C 28.26312 10.6516 0.00194
C 28.09696 9.2578 -0.00621
C 26.90388 8.65612 0.02611
C 26.85079 7.19613 0.02198
C 28.12307 6.48242 0.01094
C 28.13466 5.03045 0.00235
C 26.90657 4.28226 0.01495
C 27.04499 12.72699 0.02316
C 27.01676 2.79595 0.01259
C 28.32676 0.69949 0.01699
C 27.04984 34.02437 -0.00416
C 29.5207 32.69277 0.01177
C 30.7482 31.99632 0.04266
C 30.8036 30.57957 0.01324
C 29.49997 29.90852 0.0014
C 29.48547 28.47064 0.00924
C 30.71326 27.672 0.02326
C 28.24405 2.12404 0.01799
C 28.24974 13.40421 0.01257
C 28.18287 14.87388 0.00152
C 26.81644 15.48101 -0.00294
C 25.83908 2.07213 -0.0264
C 25.80568 0.67081 -0.01154
C 24.57626 34.04439 0.00684
C 27.08435 32.6335 -0.01052
C 28.29804 31.98005 -0.01679
C 28.24378 30.47786 0.00367
C 27.00241 29.84591 0.04306
C 27.00359 28.43854 0.00996
C 28.25203 27.76068 0.00195
C 28.14936 26.40668 -0.00802
C 27.0035 25.66517 -0.00218
C 26.97083 24.18559 -0.01654
C 28.30641 23.49613 -0.00037
C 28.2209 22.11144 -0.0032
C 26.95736 21.3852 0.00622
C 26.84703 19.87363 -0.02815
C 28.14852 19.16247 -0.00942
C 28.1883 17.71643 0.00487
C 26.85613 17.01446 0.00826
C 24.50728 4.24644 -0.00229
C 2.45335 32.67674 0.02322
