330
Graphene
C 0.01596 0.01939 0.01295
C 11.12372 22.01483 -0.04147
C 9.80413 21.36825 -0.05302
C 9.82668 19.89579 0.00213
C 11.07135 19.14716 -0.00066
C 11.1041 17.78517 -0.00289
C 9.89549 17.05358 0.00028
C 9.82256 15.59131 -0.02213
C 11.03011 23.41274 -0.02815
C 11.04601 14.84173 0.03698
C 9.82563 12.73585 -0.00491
C 9.85402 11.36953 0.03338
C 11.10015 10.62266 -0.0258
C 11.08477 9.20203 -0.0331
C 9.84039 8.52521 -0.00316
C 9.8153 7.15534 0.02188
C 11.09879 6.36645 -0.01979
C 11.06124 13.39901 -0.00109
C 9.78753 24.09836 0.03505
C 9.89294 25.52818 0.01443
C 11.00755 26.27616 0.00979
C 8.59585 10.64871 0.02058
C 8.59719 9.2015 -0.01957
C 7.35853 8.55777 -0.0108
C 7.33717 7.14062 -0.00368
C 8.62866 6.39047 -0.02696
C 8.62974 4.97412 -0.00114
C 7.39034 4.28995 0.00228
C 7.38231 2.84215 0.00798
C 8.56824 2.16442 0.00422
C 8.6229 0.68192 0.0351
C 7.38622 34.07334 -0.03113
C 9.84256 32.69922 0.02098
C 11.05991 31.93413 0.01848
C 11.05979 30.58604 -0.00619
C 9.84805 29.80145 -0.02162
C 9.84527 28.40592 0.00889
C 11.0586 27.6953 -0.00481
C 11.12986 4.99021 0.02691
C 7.37029 11.3252 0.01965
C 9.84277 4.28753 -0.01581
C 11.08691 2.08317 0.04892
C 12.26331 4.24114 0.00742
C 12.33518 2.78867 -0.01594
C 13.59941 2.11917 0.0106
C 13.5206 0.73759 -0.01154
C 12.30789 0.01125 -0.01721
C 14.67978 32.71475 -0.02422
C 14.73283 21.30747 0.01277
C 13.5049 4.92875 -0.00311
C 14.73101 19.83245 0.00096
C 15.99979 17.76287 0.01087
C 14.76713 17.00348 0.00199
C 14.71707 15.6218 0.01511
C 15.986 14.9211 -0.00478
C 15.97509 13.4733 -0.01662
C 14.78604 12.81619 -0.01185
C 14.7929 11.31236 0.01126
C 15.98512 19.17644 -0.01527
C 13.55243 6.38837 0.00675
C 12.32099 7.06157 -0.00865
C 12.26979 8.51454 0.0058
C 11.07446 0.70386 -0.00111
C 9.84019 34.03175 -0.03557
C 12.33426 32.64029 0.03754
C 13.5462 31.97278 0.01739
C 13.49971 21.98354 0.00755
C 12.28757 21.30161 -0.0054
C 12.24785 19.91436 0.00667
C 13.52224 19.17865 0.00143
C 13.52207 17.75357 -0.017
C 12.33128 17.05232 0.00364
C 12.32207 15.62611 -0.00831
C 13.53688 14.93785 -0.02957
C 13.52576 13.53057 -0.04422
C 12.32766 12.81443 0.00654
C 12.28713 11.33774 -0.00703
C 13.55255 10.61147 -0.04076
C 13.54243 9.22103 -0.00652
C 9.83258 2.84009 0.01452
C 7.42796 12.81109 -0.03682
C 8.57451 13.48155 0.00052
C 8.59368 14.90509 0.00374
C 2.42249 8.53431 0.02147
C 2.45647 7.09953 0.00373
C 3.6585 6.41628 -0.00191
C 3.72007 4.98451 0.00438
C 2.47115 4.25872 0.01291
C 2.46348 2.83544 0.00093
C 3.69128 2.08764 0.00057
C 3.64891 9.21412 -0.014
C 3.70311 0.7127 -0.01634
C 4.89673 32.66021 0.02339
C 6.17759 31.95673 0.01641
C 6.21405 30.55341 -0.00719
C 4.89479 29.87777 0.01364
C 4.95216 28.41446 -0.01062
C 6.12233 27.70077 -0.00033
C 6.12207 26.27407 0.03589
C 2.48958 0.04299 -0.00334
C 3.71379 10.58465 -0.01118
C 2.45107 11.39972 -0.00131
C 2.42519 12.82747 -0.02896
C 3.66845 30.5133 -0.00095
C 2.42947 29.83401 0.01572
C 2.42667 28.42917 -0.04848
C 3.71597 27.65085 -0.00892
C 3.67297 26.29356 -0.01362
C 2.4586 25.6004 -0.0008
C 2.47426 24.15118 0.0288
C 3.65881 23.49803 0.00393
C 3.70814 22.04103 0.00895
C 2.4511 21.30116 0.00685
C 2.44733 19.85837 0.02888
C 3.66026 19.1909 -0.00482
C 3.69885 17.69315 -0.01384
C 2.50238 17.04809 0.03693
C 2.43452 15.59366 0.01745
C 3.7236 14.90539 0.00488
C 3.66224 13.49463 -0.01004
C 4.87227 25.5369 -0.02759
C 4.90523 24.21217 0.0402
C 6.138 23.43267 0.00572
C 6.1506 22.01823 0.03592
C 7.38339 32.6729 0.01363
C 8.6482 31.92353 -0.02162
C 8.56496 30.5119 0.00415
C 7.42177 29.81227 -0.0014
C 7.32836 28.3748 0.02162
C 8.59623 27.71833 0.0076
C 8.57812 26.29749 0.01241
C 7.3724 25.54613 -0.01454
C 7.39019 24.17511 0.01945
C 8.59234 23.40402 0.01416
C 8.62673 22.02337 0.03542
C 7.43466 21.32708 0.02299
C 7.38789 19.89736 0.00244
C 8.60688 19.16693 -0.01717
C 8.59938 17.6948 0.05265
C 7.35343 17.00146 -0.01952
C 7.39224 15.6097 -0.02813
C 4.92383 34.05928 0.01877
C 15.96802 10.64336 0.01852
C 6.14579 0.75068 -0.00925
C 4.88346 2.86078 -0.01789
C 4.94612 21.30334 0.00406
C 4.94693 19.86636 0.00943
C 6.15632 19.21789 0.02841
C 6.11423 17.67302 -0.01111
C 4.91019 17.06205 -0.01275
C 4.89392 15.63772 0.00985
C 6.10686 14.88156 -0.02245
C 6.13466 13.50057 -0.00428
C 4.90348 12.80009 0.03101
C 4.892 11.36103 -0.01536
C 6.16271 10.61147 -0.02689
C 6.15915 9.27412 -0.01046
C 4.94858 8.53243 -0.00891
C 4.95624 7.11094 0.02819
C 6.14582 6.39628 0.00165
C 6.15922 4.98938 -0.02971
C 4.94261 4.27921 0.02894
C 6.1345 2.12932 0.00444
C 15.97767 9.24323 -0.00381
C 14.78595 8.49567 0.03046
C 14.77989 7.13079 0.0296
C 29.51816 0.03308 0.00026
C 31.98211 32.68885 0.00682
C 33.1692 31.99351 -0.01779
C 33.19338 30.56883 0.03794
C 32.004 29.81401 0.01927
C 31.94375 28.38223 0.01574
C 33.23965 27.72371 -0.02383
C 30.77749 0.69923 0.0544
C 33.21986 26.26534 -0.01429
C 31.93519 24.17825 0.00594
C 33.18392 23.47292 -0.02474
C 33.23652 21.99544 0.00369
C 31.93884 21.26984 0.00455
C 31.97737 19.89777 -0.00644
C 33.17486 19.14948 -0.01839
C 33.21466 17.71158 0.00137
C 31.94414 25.60534 -0.0136
C 30.73594 2.12961 -0.02142
C 29.5555 2.87373 0.01428
C 29.53112 4.22521 -0.01694
C 28.28314 2.13588 0.01705
C 28.2829 0.71687 -0.0405
C 27.06904 34.0773 -0.01303
C 29.48703 32.69875 -0.01461
C 30.70157 31.94947 -0.02155
C 30.7259 30.50955 -0.00944
C 29.49714 29.81411 -0.03735
C 29.50443 28.43097 -0.00971
C 30.71516 27.68734 0.01518
C 30.75973 26.31715 0.01908
C 29.52144 25.54688 0.07705
C 29.48599 24.12209 0.0103
C 30.74275 23.46139 0.02108
C 30.77445 21.99709 0.00716
C 29.53753 7.11208 0.00307
C 30.73175 6.3611 0.00346
C 30.71282 4.96418 0.01713
C 33.17667 10.63935 0.00199
C 33.13148 9.28501 0.04381
C 32.01881 8.49543 0.02806
C 31.96091 7.0904 0.01504
C 1.26573 17.72035 0.01223
C 34.42511 17.02226 0.00648
C 34.42097 15.62591 0.02114
C 1.23235 14.90889 -0.02957
C 1.21324 13.49685 0.00343
C 0.00704 12.74034 -0.02656
C 34.38769 11.3942 -0.02442
C 1.25503 10.71303 -0.00027
C 1.23276 9.17554 -0.00583
C 0.01424 8.49772 -0.02302
C 0.00533 7.1119 -0.02849
C 1.20944 6.39172 0.02931
C 1.22146 4.91955 0.00628
C 34.40104 4.23858 -0.0345
C 0.04123 2.7976 -0.00931
C 1.23144 2.11154 -0.00939
C 1.23427 0.7252 -0.00468
C 1.22165 19.16424 -0.01678
C 27.01458 2.85708 0.0101
C 34.42162 19.89208 0.01951
C 1.21974 21.98927 0.02712
C 33.22202 6.38946 -0.00069
C 33.20303 4.99499 0.04926
C 32.01709 4.25208 -0.03838
C 31.97807 2.81961 0.00349
C 33.20647 2.12104 -0.00323
C 33.2283 0.67152 -0.00841
C 31.95679 34.07517 0.0001
C 0.00326 32.64225 -0.02927
C 1.23001 31.97454 -0.01404
C 1.22054 30.53303 0.01027
C 0.00231 29.86247 0.01831
C 34.43038 28.42575 -0.01037
C 1.2564 27.69791 -0.00439
C 1.21332 26.28997 -0.00598
C 0.00179 25.58847 -0.05239
C 34.41961 24.14459 0.03076
C 1.25769 23.47791 0.00723
C 0.01551 21.29213 -0.02213
C 3.66984 31.90212 0.03007
C 27.06577 4.26257 -0.00669
C 28.29803 6.38863 0.01836
C 18.48483 0.76968 0.02737
C 17.21953 34.04962 -0.00498
C 19.66132 32.66077 0.00135
C 20.89099 31.93919 0.03102
C 20.94457 23.38403 0.02555
C 20.84059 22.01311 0.01423
C 19.66766 21.27196 -0.00285
C 18.42542 2.11577 0.02117
C 19.64258 19.89601 -0.009
C 19.64395 4.25063 -0.00229
C 19.70047 2.90497 -0.00938
C 20.90026 2.16972 -0.0264
C 20.93446 0.72454 -0.01154
C 19.66983 34.07306 0.00684
C 22.09293 32.60015 -0.01052
C 23.36137 31.95151 -0.01679
C 20.9222 4.9512 -0.01199
C 17.21729 2.79255 -0.04078
C 17.21353 4.26474 0.03005
C 18.41938 5.02767 -0.0276
C 15.9791 6.38714 0.03374
C 15.98157 4.99803 -0.02845
C 14.73522 4.26097 -0.03213
C 14.7454 2.88336 0.02239
C 16.00619 2.14975 0.01153
C 15.96339 0.69032 0.02734
C 14.75721 34.07098 -0.0055
C 17.19799 32.65703 0.01515
C 17.18518 21.29635 -0.00225
C 17.17938 19.93237 0.00071
C 18.438 19.19705 -0.01107
C 18.45453 17.71138 -0.01586
C 17.22772 17.02806 -0.01971
C 17.15243 15.61108 -0.02118
C 17.18751 8.54217 0.00733
C 17.24765 7.07626 -0.00178
C 18.3653 6.34361 0.00768
C 23.33061 30.54245 0.00367
C 22.1725 29.82516 0.04306
C 22.11475 28.38492 0.00996
C 23.34432 27.70733 0.00195
C 25.82999 4.93897 0.01495
C 24.60343 4.26848 0.01259
C 24.62329 2.84022 0.01799
C 25.80075 2.10781 0.01699
C 25.83909 0.66027 -0.00416
C 24.55278 34.06411 0.01177
C 27.05418 32.63291 0.04266
C 28.28548 31.95058 0.01324
C 28.31547 30.50391 0.0014
C 27.05044 29.82884 0.00924
C 27.02289 28.37787 0.02326
C 28.21905 27.66596 0.00261
C 28.27952 26.20246 0.03265
C 27.02755 25.52308 -0.02049
C 27.0891 24.12799 -0.01854
C 28.29915 23.45332 -0.01415
C 27.00255 7.11117 -0.03039
C 25.81949 6.35805 0.00235
C 28.28689 4.94835 0.03531
C 25.84562 23.41295 0.01094
C 24.63671 25.54833 0.02611
C 23.39901 26.25243 -0.00802
C 22.17876 25.57662 -0.00218
C 22.11203 24.15595 -0.01654
C 23.3806 23.37656 -0.00037
C 23.36713 4.96151 -0.0032
C 22.11392 4.28432 0.00622
C 22.17149 2.77793 -0.02815
C 23.42374 2.09542 -0.00942
C 23.33481 0.66906 0.00487
C 22.11505 34.06358 0.00826
C 24.59293 32.67823 -0.00294
C 25.82536 31.92329 0.00152
C 25.86358 30.54659 0.01257
C 24.55702 29.7936 0.02316
C 24.60601 28.40178 0.04185
C 25.86007 27.6802 0.00194
C 25.865 26.28866 -0.00621
C 24.61538 24.15389 0.02198
C 2.47678 32.68418 0.00054
