362
Graphene
C 34.34094 0.10949 0.01295
C 13.48238 31.94811 0.01965
C 13.48481 30.46284 0.02058
C 12.17144 29.85391 -0.01957
C 12.18976 28.41587 -0.0108
C 13.47309 27.65366 -0.00368
C 13.39656 26.26484 -0.02696
C 12.23722 25.61437 -0.00114
C 12.29489 24.19914 0.00228
C 12.27701 32.64931 -0.03682
C 13.49103 23.50121 0.00798
C 12.24973 21.34398 0.0351
C 12.29031 19.89336 -0.03113
C 13.56812 19.1416 0.02098
C 13.52546 17.74685 0.01848
C 12.3929 16.92557 -0.00619
C 12.26947 15.53859 -0.02162
C 13.45028 14.82293 0.00889
C 13.40415 13.38126 -0.00481
C 13.43942 22.12543 0.00422
C 9.77336 0.00289 0.00052
C 10.9612 0.70157 0.00374
C 11.02646 2.19989 -0.02813
C 9.82614 28.42077 0.00444
C 11.06427 27.637 -0.00925
C 10.96892 26.26622 0.01877
C 9.73976 25.58925 0.01363
C 9.78941 24.23037 -0.02162
C 11.00778 23.54141 0.00415
C 11.06977 22.13971 -0.0014
C 9.82343 21.35652 0.02162
C 9.79651 19.87313 0.0076
C 11.05248 19.15566 0.01241
C 11.20083 17.81175 -0.01454
C 9.94725 17.1202 0.01945
C 9.90946 15.76497 0.01416
C 11.03009 14.87333 0.03542
C 10.8068 13.49079 0.02299
C 10.97063 6.36764 0.00244
C 10.99785 5.04287 -0.01717
C 9.73376 4.32485 0.05265
C 9.79668 2.91022 -0.01952
C 12.11951 12.7065 0.00979
C 9.77641 29.89504 -0.01789
C 12.23333 11.30112 0.01443
C 13.49977 9.22264 -0.02815
C 16.01047 17.5506 0.01739
C 14.73851 16.91899 0.00755
C 14.73694 15.51061 -0.0054
C 16.08923 14.89094 0.00667
C 15.8618 13.51625 0.00143
C 14.67763 12.69086 -0.017
C 14.73751 11.37704 0.00364
C 16.09331 10.61947 -0.00831
C 16.08597 19.09737 0.03754
C 15.92708 9.15609 -0.02957
C 14.62997 7.01201 0.00654
C 15.86351 6.36052 -0.00703
C 15.92425 4.88925 -0.04076
C 14.68221 4.17155 -0.00652
C 14.69043 2.81186 0.0058
C 15.99179 2.05044 -0.00865
C 15.9622 0.63654 0.00675
C 14.74902 33.99975 -0.00311
C 14.65992 8.46483 -0.04422
C 14.7237 19.86285 -0.03557
C 14.66535 21.28893 -0.00111
C 15.84345 22.01837 0.04892
C 12.32644 8.55069 -0.04147
C 12.16022 7.14679 -0.05302
C 13.43086 6.39002 0.00213
C 13.41835 4.92571 -0.00066
C 12.21511 4.19758 -0.00289
C 12.23188 2.76039 0.00028
C 13.50774 2.11257 -0.02213
C 13.53667 0.70086 0.03698
C 12.23463 0.00141 -0.00109
C 14.74202 32.6438 -0.00491
C 15.92589 31.90649 0.03338
C 15.91837 30.48876 -0.0258
C 14.64059 29.76989 -0.0331
C 14.76798 28.38298 -0.00316
C 15.9774 27.69476 0.02188
C 15.97023 26.26593 -0.01979
C 14.67344 25.6274 0.02691
C 14.73412 24.21327 -0.01581
C 15.92285 23.43637 0.01452
C 13.49098 10.61305 0.03505
C 10.97674 30.58318 0.02894
C 10.95532 32.00253 -0.02971
C 9.76934 32.71263 0.00165
C 3.90785 6.62506 0.02635
C 3.75168 5.15454 0.0127
C 2.49511 4.45101 0.01396
C 2.39876 3.04835 0.01849
C 3.57745 2.25204 -0.01142
C 3.54199 0.85908 -0.00562
C 2.35478 0.0295 -0.00494
C 4.81647 32.77484 0.00054
C 2.57864 7.21954 -0.01378
C 5.99546 32.03746 0.03007
C 4.86903 29.80761 0.01572
C 4.88778 28.4134 -0.04848
C 6.11976 27.75785 -0.00892
C 6.12258 26.28053 -0.01362
C 4.8631 25.54073 -0.0008
C 4.86408 24.16977 0.0288
C 6.17203 23.46142 0.00393
C 6.20369 22.04878 0.00895
C 6.043 30.57043 -0.00095
C 2.40553 8.56987 -0.01303
C 3.63749 9.29228 0.00848
C 3.56525 10.73183 -0.00049
C 3.64543 30.59426 0.017
C 2.41484 29.84871 -0.03113
C 2.38063 28.48268 -0.02566
C 3.61238 27.72753 -0.00094
C 3.63075 26.36465 0.02322
C 2.37502 25.59191 -0.00725
C 2.4474 24.17104 -0.05697
C 3.69028 23.49867 0.01087
C 3.70058 21.9925 -0.01343
C 2.47867 21.26927 0.00988
C 2.36652 19.86961 0.0276
C 3.6405 19.14246 0.01305
C 3.66987 17.74409 -0.00077
C 2.51785 17.035 0.03368
C 2.43967 15.58189 -0.02929
C 3.77423 14.90822 -0.00966
C 3.73018 13.42114 -0.03337
C 2.45064 12.84662 0.01227
C 2.29842 11.47087 0.00873
C 4.94121 21.27103 0.00685
C 4.93827 19.9015 0.02888
C 6.25133 19.19015 -0.00482
C 6.26368 17.76333 -0.01384
C 7.37526 24.16912 0.03589
C 8.58813 23.50139 -0.02759
C 8.60755 22.08773 0.0402
C 7.42675 21.35102 0.00572
C 7.41371 19.9465 0.03592
C 8.60066 19.26291 0.00406
C 8.65746 17.78738 0.00943
C 7.46092 17.08826 0.02841
C 7.46278 15.71674 -0.01111
C 8.67013 15.04464 -0.01275
C 8.84243 13.66971 0.00985
C 7.72765 12.89825 -0.02245
C 7.83565 6.42223 -0.00428
C 8.54715 5.13042 0.03101
C 7.40754 4.1936 -0.01536
C 7.3475 2.77959 -0.02689
C 8.55465 2.09296 -0.01046
C 8.55068 0.67849 -0.00891
C 7.34747 0.02493 0.02819
C 7.33422 25.63197 -0.00033
C 17.17129 32.52617 0.00742
C 8.58338 26.25754 -0.01062
C 7.30639 28.46292 -0.00719
C 4.99319 17.09846 0.03693
C 4.90182 15.57941 0.01745
C 6.19013 14.9324 0.00488
C 6.386 13.4946 -0.01004
C 4.99142 12.73792 -0.02896
C 4.85764 11.30228 -0.00131
C 5.01999 8.76179 -0.01118
C 5.27717 7.34468 -0.014
C 6.54264 6.37942 0.02147
C 6.20329 4.92832 0.00373
C 4.89341 4.36643 -0.00191
C 4.76578 2.96077 0.00438
C 6.02462 2.1444 0.01291
C 6.07399 0.68662 0.00093
C 4.77215 0.1128 0.00057
C 7.27438 32.72513 -0.01634
C 8.53556 31.92542 -0.00334
C 8.57743 30.51692 0.02339
C 7.28133 29.89339 0.01641
C 8.59647 27.7291 0.01364
C 18.48973 31.82759 -0.01594
C 18.45543 30.46262 0.0106
C 17.14732 29.76232 -0.01154
C 29.46555 2.8851 0.00346
C 30.7165 2.22134 0.01713
C 30.66138 0.73774 -0.01694
C 29.38693 0.12169 0.01428
C 31.937 32.73427 -0.02142
C 33.21391 31.96466 0.0544
C 33.19011 30.57902 0.00026
C 32.02382 29.86855 0.00682
C 29.4393 4.28992 0.00307
C 31.98519 28.4778 -0.01779
C 33.15101 26.24169 0.01927
C 31.90435 25.53357 0.01574
C 31.96708 24.18568 -0.02383
C 33.14913 23.43958 -0.01429
C 33.15841 22.00142 -0.0136
C 31.91589 21.26452 0.00594
C 32.00671 19.88546 -0.02474
C 33.12772 19.17641 0.00369
C 33.10035 27.60647 0.03794
C 30.67738 5.00907 0.00716
C 30.68498 6.45058 0.02108
C 29.36218 7.26079 0.0103
C 26.95116 4.33078 -0.02049
C 26.91522 2.90747 -0.01854
C 28.16417 2.21551 -0.01415
C 28.12396 0.80622 -0.03039
C 26.98354 0.08156 0.01836
C 29.46111 32.75063 0.03531
C 30.66288 32.05213 -0.00669
C 30.76352 30.62725 0.0101
C 29.52955 29.89786 0.01705
C 29.46107 28.47373 -0.0405
C 30.65624 27.67815 -0.01303
C 30.76581 26.32636 -0.01461
C 29.50579 25.67169 -0.02155
C 29.53522 24.21917 -0.00944
C 30.72304 23.43333 -0.03735
C 30.68169 22.04336 -0.00971
C 29.424 21.4584 0.01518
C 30.82483 9.29011 0.01908
C 29.59 8.5979 0.07705
C 33.18482 17.67101 0.00455
C 33.21143 14.82557 -0.00644
C 33.06933 13.41549 -0.01839
C 31.81816 11.28392 0.00137
C 34.36824 19.87296 0.01951
C 1.14463 19.19361 -0.01678
C 1.25945 17.7531 0.01223
C 34.36416 17.03171 0.00648
C 34.38225 15.60244 0.02114
C 1.22721 14.91831 -0.02957
C 1.16732 13.58631 0.00343
C 34.32208 12.79685 -0.02656
C 34.33427 11.35367 -0.02442
C 1.14123 10.63486 -0.00027
C 1.16344 9.26506 -0.00583
C 34.37696 8.52149 -0.02302
C 34.39126 7.16502 -0.02849
C 1.26019 6.47029 0.02931
C 1.26287 5.0778 0.00628
C 34.37003 4.33579 -0.0345
C 34.35306 2.91187 -0.00931
C 1.21023 2.21519 -0.00939
C 1.13596 0.8254 -0.00468
C 0.0048 21.25614 -0.02213
C 28.16807 4.97799 0.03265
C 1.22104 21.97594 0.02712
C 34.43221 24.09856 0.03076
C 33.0141 10.6686 0.00199
C 33.17495 9.21215 0.04381
C 31.97289 8.58542 0.02806
C 31.87702 7.16677 0.01504
C 33.18757 6.46778 -0.00069
C 33.1715 5.03108 0.04926
C 31.96555 4.34729 -0.03838
C 31.95021 2.93725 0.00349
C 33.11287 2.25234 -0.00323
C 33.14667 0.81776 -0.00841
C 31.991 0.06308 0.0001
C 0.0102 32.72159 -0.02927
C 1.22029 32.00645 -0.01404
C 1.23991 30.66399 0.01027
C 0.01787 29.96132 0.01831
C 34.35001 28.50808 -0.01037
C 1.11915 27.79197 -0.00439
C 1.18941 26.26049 -0.00598
C 34.4204 25.49921 -0.05239
C 1.27623 23.43512 0.00723
C 3.59994 31.97192 -0.00643
C 28.12479 6.42232 0.00261
C 28.34265 22.15794 0.00924
C 20.90616 30.5005 0.01515
C 19.69165 29.72822 -0.00225
C 19.61852 28.27089 0.00071
C 20.87907 27.556 -0.01107
C 20.84016 26.17508 -0.01586
C 19.63556 25.50709 -0.01971
C 19.55072 24.1106 -0.02118
C 20.84428 23.35663 0.00733
C 20.97966 31.90006 -0.0055
C 20.6826 21.90612 -0.00178
C 19.37994 8.57452 -0.0276
C 19.53786 7.1303 0.03005
C 20.93496 6.33346 -0.04078
C 20.82543 4.94656 0.02117
C 19.62465 4.25702 0.02737
C 19.71181 2.92091 -0.00498
C 20.88276 2.0279 0.00135
C 20.83858 0.67014 0.03102
C 19.51549 21.33851 0.00768
C 19.74512 32.51889 0.02734
C 17.16709 33.95673 0.01153
C 18.42054 0.66372 0.02239
C 17.20997 28.37168 -0.01721
C 18.38905 27.59794 -0.02422
C 18.40281 26.17557 0.01277
C 17.15809 25.54904 0.00096
C 17.19841 24.09752 -0.01527
C 18.39888 23.45348 0.01087
C 18.3585 21.99838 0.00199
C 17.06944 21.29149 0.01511
C 17.21304 19.84755 -0.00478
C 17.12166 16.72775 -0.01662
C 17.29899 11.24908 -0.01185
C 18.26102 9.41676 0.01126
C 17.17796 8.516 0.01852
C 17.09058 7.09649 -0.00381
C 18.31191 6.36033 0.03046
C 18.41869 4.93712 0.0296
C 17.18219 4.2312 0.03374
C 17.18316 2.80615 -0.02845
C 18.4812 2.12898 -0.03213
C 19.65603 33.98542 0.02555
C 22.14651 32.62637 0.01423
C 23.35138 31.89457 -0.00285
C 23.28851 30.56012 -0.009
C 24.58783 23.95177 0.00152
C 25.8821 23.4902 0.01257
C 25.67926 6.29179 0.02316
C 25.68305 5.01073 0.04185
C 24.56257 4.18331 0.00194
C 24.53802 2.74407 -0.00621
C 25.80675 2.1152 0.02611
C 25.75797 0.73251 0.02198
C 24.56477 34.0664 0.01094
C 27.05205 32.72433 0.00235
C 28.29483 31.96292 0.01495
C 28.26445 30.54208 0.01259
C 26.9984 29.88607 0.01799
C 27.00191 28.40244 0.01699
C 28.23842 27.79136 -0.00416
C 28.33247 26.34411 0.01177
C 27.05836 25.65579 0.04266
C 27.04978 24.12482 0.01324
C 28.34929 23.51217 0.0014
C 24.63047 25.50218 -0.00294
C 26.84973 7.14986 0.02326
C 25.77262 26.26799 0.00826
C 24.57768 28.41051 -0.00942
C 22.09796 29.7417 -0.01199
C 22.09973 28.26291 -0.00229
C 23.40707 27.6359 -0.00938
C 23.50307 26.26654 -0.0264
C 22.10377 25.58884 -0.01154
C 22.13368 24.12655 0.00684
C 23.25776 23.44803 -0.01052
C 22.12376 6.98586 -0.01679
C 23.2806 6.32962 0.00367
C 23.24841 4.86645 0.04306
C 22.05439 4.21641 0.00996
C 22.10895 2.7846 0.00195
C 23.35601 2.09946 -0.00802
C 23.35808 0.62474 -0.00218
C 22.06997 34.01895 -0.01654
C 24.60008 32.69186 -0.00037
C 25.80981 31.98282 -0.0032
C 25.79484 30.49579 0.00622
C 24.59116 29.76291 -0.02815
C 25.81661 27.70103 0.00487
C 2.39541 32.69446 0.0086
