365
Graphene
C 34.38687 0.01553 0.01295
C 11.0083 10.61862 0.00052
C 10.96851 9.18006 -0.03682
C 9.7988 8.46031 0.01965
C 9.75254 7.07228 0.02058
C 10.97479 6.32402 -0.01957
C 11.06885 4.97723 -0.0108
C 9.80176 4.25164 -0.00368
C 9.77154 2.88408 -0.02696
C 9.79979 11.36789 0.00374
C 11.03368 2.16244 -0.00114
C 9.83582 34.06152 0.00798
C 12.26019 32.70345 0.00422
C 13.48861 31.98827 0.0351
C 13.52759 30.53874 -0.03113
C 12.29186 29.83404 0.02098
C 12.31813 28.30196 0.01848
C 13.56719 27.59393 -0.00619
C 13.4783 26.12274 -0.02162
C 11.02386 0.72027 0.00228
C 9.8649 12.83274 -0.02813
C 11.027 13.54155 -0.01952
C 11.02255 14.9052 0.05265
C 8.54935 0.79326 0.02894
C 7.32818 0.02258 -0.01789
C 9.83034 32.63862 0.00444
C 11.02943 31.92977 -0.00925
C 11.08614 30.50215 0.01877
C 9.84121 29.83898 0.01363
C 9.82684 28.48281 -0.02162
C 11.06749 27.70365 0.00415
C 10.97816 26.34082 -0.0014
C 9.81128 25.588 0.02162
C 9.82572 24.13836 0.0076
C 11.07151 23.38411 0.01241
C 11.19015 21.97551 -0.01454
C 9.91658 21.34751 0.01945
C 9.89595 19.95325 0.01416
C 11.21728 19.1908 0.03542
C 11.24057 17.65667 0.02299
C 9.94595 17.10708 0.00244
C 9.82434 15.61128 -0.01717
C 12.20686 25.65274 0.00889
C 12.21713 24.24365 -0.00481
C 13.51159 23.61399 0.00979
C 13.76838 22.26106 0.01443
C 14.94932 21.38911 -0.03557
C 14.69888 20.0982 0.03754
C 15.99973 19.31595 0.01739
C 14.62789 8.4518 0.00755
C 14.7004 7.06465 -0.0054
C 16.01534 6.39177 0.00667
C 15.99556 4.92084 0.00143
C 14.73362 4.29461 -0.017
C 14.71552 2.86119 0.00364
C 15.95592 2.12079 -0.00831
C 16.07838 0.72537 -0.02957
C 14.81909 34.0748 -0.04422
C 17.17975 32.64966 0.00654
C 18.41432 31.99086 -0.00703
C 18.31078 30.54999 -0.04076
C 17.15651 29.69599 -0.00652
C 18.24005 21.97695 0.0058
C 17.4914 20.92817 -0.00865
C 17.23317 19.49467 0.00675
C 14.78643 28.39558 -0.00111
C 8.54952 2.15759 -0.02971
C 14.72451 29.75331 0.04892
C 16.00483 31.95575 -0.01581
C 12.41788 21.43715 0.03505
C 12.30006 20.00982 -0.02815
C 13.51474 19.21273 -0.04147
C 13.64231 17.88347 -0.05302
C 12.51364 16.94613 0.00213
C 12.21955 15.59804 -0.00066
C 12.26178 12.65149 -0.00289
C 12.11694 11.42796 0.00028
C 13.56193 9.17737 -0.02213
C 12.26168 8.4285 0.03698
C 12.21012 7.05299 -0.00109
C 13.50528 6.35557 -0.00491
C 13.52731 4.94369 0.03338
C 12.24629 4.25884 -0.0258
C 12.27792 2.86268 -0.0331
C 13.54788 2.14499 -0.00316
C 13.48987 0.74208 0.02188
C 12.16529 0.13466 -0.01979
C 14.77128 32.64725 0.02691
C 15.97279 30.4082 0.01452
C 7.31116 2.8374 0.00165
C 7.32695 4.33272 0.02819
C 8.57472 5.0597 -0.00891
C 3.62681 6.43901 0.00848
C 3.59778 5.08611 -0.01303
C 2.40886 4.37134 -0.01378
C 2.33011 2.96925 0.02635
C 3.60612 2.08851 0.0127
C 3.65798 0.68564 0.01396
C 2.38508 0.07822 0.01849
C 4.7822 32.66963 -0.01142
C 6.13053 31.97104 -0.00562
C 6.08599 30.63393 -0.00494
C 4.88046 29.84581 0.00054
C 4.94624 28.42322 0.03007
C 6.15807 27.66743 -0.00095
C 6.13021 26.22445 0.01572
C 4.86211 25.60028 -0.04848
C 4.83123 24.16341 -0.00892
C 6.14308 23.44743 -0.01362
C 6.15473 22.0045 -0.0008
C 4.9101 21.34643 0.0288
C 2.44679 7.23625 -0.00049
C 4.93236 19.90825 0.00393
C 2.47478 8.57404 0.00873
C 3.69863 10.74784 -0.03337
C 3.68781 30.5383 -0.00518
C 2.44006 29.84344 0.0086
C 2.3783 28.45919 -0.00643
C 3.69764 27.72318 0.017
C 3.62141 26.33563 -0.03113
C 2.40092 25.61192 -0.02566
C 2.44313 24.19993 -0.00094
C 3.69764 23.42472 0.02322
C 3.66332 21.99774 -0.00725
C 2.40229 21.33249 -0.05697
C 2.38843 19.94176 0.01087
C 3.67529 19.25697 -0.01343
C 3.73541 17.83719 0.00988
C 2.4865 17.01479 0.0276
C 2.45403 15.67181 0.01305
C 3.72483 14.98438 -0.00077
C 3.60659 13.52686 0.03368
C 2.34113 12.91062 -0.02929
C 2.46591 11.43549 -0.00966
C 3.71389 9.34593 0.01227
C 17.16276 7.18141 -0.00311
C 6.20957 19.22099 0.00895
C 4.93066 17.1387 0.02888
C 7.32106 25.56376 -0.01062
C 7.35228 24.17661 -0.00033
C 8.60472 23.42856 0.03589
C 8.63166 22.04845 -0.02759
C 7.42813 21.27658 0.0402
C 7.48743 19.90429 0.00572
C 8.66448 19.1378 0.03592
C 8.67613 17.71343 0.00406
C 7.4156 17.06731 0.00943
C 7.36852 15.62189 0.02841
C 8.58911 14.9483 -0.01111
C 8.66795 13.50685 -0.01275
C 7.42193 12.83963 0.00985
C 7.35316 11.33211 -0.02245
C 8.64217 10.65772 -0.00428
C 8.60352 9.2719 0.03101
C 7.30465 8.56987 -0.01536
C 7.33111 7.07326 -0.02689
C 8.51432 6.43452 -0.01046
C 8.6377 26.35258 0.01364
C 6.15396 17.78582 0.00685
C 8.59006 27.78011 -0.00719
C 7.38269 29.93049 0.02339
C 4.98043 15.66311 -0.00482
C 6.16749 14.98481 -0.01384
C 6.12503 13.52811 0.03693
C 4.91475 12.81735 0.01745
C 4.90749 11.44505 0.00488
C 6.12495 10.66223 -0.01004
C 6.06839 9.23699 -0.02896
C 4.85144 8.52849 -0.00131
C 4.85417 7.13032 -0.01118
C 6.15273 6.37787 -0.014
C 6.07415 5.03273 0.02147
C 4.82443 4.38786 0.00373
C 4.83609 2.87144 -0.00191
C 6.03295 2.13985 0.00438
C 6.10435 0.69974 0.01291
C 4.86226 34.07087 0.00093
C 7.37731 32.66467 0.00057
C 8.57198 31.95857 -0.01634
C 8.59292 30.60402 -0.00334
C 7.39865 28.43534 0.01641
C 3.58818 31.96494 -0.00074
C 18.43982 6.52505 0.00742
C 17.21909 4.28481 0.0106
C 30.68287 4.92408 0.00346
C 29.43569 4.24704 0.01713
C 29.52074 2.80312 -0.01694
C 30.75383 2.16708 0.01428
C 30.7226 0.75594 -0.02142
C 29.50812 34.0217 0.0544
C 31.9554 32.71815 0.00026
C 33.21976 32.0163 0.00682
C 30.74986 6.30987 0.00307
C 33.11878 30.62413 -0.01779
C 31.91995 28.40959 0.01927
C 33.22801 27.75979 0.01574
C 33.14678 26.27741 -0.02383
C 31.91369 25.54453 -0.01429
C 31.89338 24.12912 -0.0136
C 33.18899 23.40126 0.00594
C 33.22309 22.01458 -0.02474
C 31.92243 21.28719 0.00369
C 31.88336 29.83427 0.03794
C 29.64148 17.06227 0.00716
C 30.78433 17.82719 0.02108
C 30.73226 19.23271 0.0103
C 28.22505 5.03487 -0.02049
C 27.06427 4.28181 -0.01854
C 27.1086 2.84747 -0.01415
C 28.28819 2.10947 -0.03039
C 28.26674 0.69666 0.01836
C 27.00778 34.03913 0.03531
C 29.49495 32.62467 -0.00669
C 30.78435 31.98427 0.0101
C 30.73219 30.61606 0.01705
C 29.39657 29.8337 -0.0405
C 29.42347 28.44437 -0.01303
C 30.67405 27.72593 -0.01461
C 30.6953 26.30565 -0.02155
C 29.4444 25.61975 -0.00944
C 29.36093 24.16397 -0.03735
C 30.66564 23.50975 -0.00971
C 30.66831 22.05537 0.01518
C 29.40608 21.37765 0.01908
C 29.4499 19.90889 0.07705
C 31.92356 19.88449 0.00455
C 33.12784 19.21785 -0.00644
C 33.27826 17.75046 -0.01839
C 32.03872 17.13552 0.00137
C 34.38156 19.92266 0.01951
C 1.20454 19.13928 -0.01678
C 1.20694 17.66622 0.01223
C 34.3897 17.04858 0.00648
C 34.30489 15.59893 0.02114
C 1.0647 14.90268 -0.02957
C 1.06511 13.45615 0.00343
C 34.2666 12.66802 -0.02656
C 0.04393 11.2306 -0.02442
C 1.29418 10.70631 -0.00027
C 1.20218 9.30074 -0.00583
C 34.38611 8.72708 -0.02302
C 0.00325 7.29533 -0.02849
C 1.2192 6.52517 0.02931
C 1.13439 5.0949 0.00628
C 34.36614 4.40365 -0.0345
C 34.41777 2.88818 -0.00931
C 1.11815 2.14146 -0.00939
C 1.1287 0.79471 -0.00468
C 34.39929 21.32419 -0.02213
C 27.04748 17.24416 0.03265
C 1.19028 21.97022 0.02712
C 34.36705 24.14735 0.03076
C 31.89056 15.75232 0.00199
C 33.02324 14.82385 0.04381
C 33.14351 13.4668 0.02806
C 31.85131 7.00196 0.01504
C 33.20343 6.51528 -0.00069
C 33.1826 5.13314 0.04926
C 32.02196 4.3321 -0.03838
C 31.99864 2.89781 0.00349
C 33.20516 2.21544 -0.00323
C 33.15701 0.7387 -0.00841
C 31.9339 34.07977 0.0001
C 0.05279 32.66027 -0.02927
C 1.20612 31.95197 -0.01404
C 1.17602 30.5788 0.01027
C 34.37771 29.87939 0.01831
C 34.42716 28.4209 -0.01037
C 1.1817 27.74845 -0.00439
C 1.18445 26.28447 -0.00598
C 34.39278 25.62442 -0.05239
C 1.15977 23.48298 0.00723
C 28.36911 17.72499 0.00261
C 28.26139 19.18567 0.02326
C 27.05012 19.86685 0.00924
C 19.67713 33.98821 -0.0055
C 22.14611 32.61257 0.01515
C 23.38332 31.85311 -0.00225
C 23.34126 30.40849 0.00071
C 21.94052 29.7663 -0.01107
C 21.87084 28.25624 -0.01586
C 23.15011 27.67509 -0.01971
C 23.17116 26.302 -0.02118
C 21.98558 25.45743 0.00733
C 22.05081 24.00136 -0.00178
C 23.29615 23.32372 0.00768
C 23.23295 21.88801 -0.0276
C 22.08449 21.18311 0.03005
C 22.10638 19.6104 -0.04078
C 23.35333 18.9816 0.02117
C 23.35628 17.37028 0.02737
C 23.65643 10.51481 -0.00498
C 23.31998 9.27121 0.00135
C 22.10114 8.4243 0.03102
C 20.89164 0.75058 0.02734
C 22.27486 7.10929 0.02555
C 20.85958 2.15347 0.01153
C 19.60332 4.31072 -0.03213
C 17.16894 2.81527 -0.01154
C 18.39871 2.1165 -0.01721
C 18.41705 0.65366 -0.02422
C 17.23135 34.05461 0.01277
C 19.6823 32.57356 0.00096
C 20.86254 31.86862 -0.01527
C 20.74183 30.47594 0.01087
C 19.49446 29.78473 0.00199
C 19.4603 28.45127 0.01511
C 20.6606 27.54817 -0.00478
C 20.79624 26.14013 -0.01662
C 20.74222 23.27322 -0.01185
C 20.80093 21.85327 0.01126
C 19.55877 21.19237 0.01852
C 19.72612 19.84539 -0.00381
C 20.82431 19.13357 0.03046
C 19.80329 6.97037 0.0296
C 21.01567 6.26699 0.03374
C 20.87709 4.85687 -0.02845
C 19.6477 2.81597 0.02239
C 18.44439 5.04117 -0.01594
C 23.47606 6.3476 0.01423
C 22.13878 4.15589 -0.009
C 25.929 6.39821 0.00152
C 25.82414 4.95337 0.01257
C 24.63312 4.26322 0.02316
C 24.62259 2.81386 0.04185
C 25.86019 2.12674 0.00194
C 25.83133 0.68339 -0.00621
C 24.56578 0.00155 0.02611
C 27.00736 32.68915 0.02198
C 28.23558 32.00286 0.01094
C 28.16362 30.5119 0.00235
C 26.98888 29.8056 0.01495
C 26.97387 28.38589 0.01259
C 28.18227 27.71493 0.01799
C 28.16531 26.22308 0.01699
C 26.91677 25.56079 -0.00416
C 26.98484 24.14802 0.01177
C 28.17014 23.47833 0.04266
C 28.24055 22.06611 0.01324
C 26.97057 21.31562 0.0014
C 24.73806 7.12933 -0.00294
C 23.418 4.99404 -0.00285
C 24.47673 8.49924 0.00826
C 24.74797 17.05066 -0.00942
C 22.21452 2.77656 -0.01199
C 23.49156 2.05332 -0.00229
C 23.29599 0.68134 -0.00938
C 22.14288 0.01119 -0.0264
C 24.5821 32.67768 -0.01154
C 25.84576 31.91176 0.00684
C 25.8249 30.54011 -0.01052
C 24.51663 29.79401 -0.01679
C 24.46864 28.3963 0.00367
C 25.66569 27.65266 0.04306
C 25.73465 26.2729 0.00996
C 24.49326 25.55169 0.00195
C 24.49809 24.10887 -0.00802
C 25.73908 23.42014 -0.00218
C 25.71966 21.96346 -0.01654
C 24.46043 21.22354 -0.00037
C 24.48899 19.82469 -0.0032
C 25.83841 19.21317 0.00622
C 25.88815 17.82096 -0.02815
C 24.25414 15.81111 0.00487
C 2.3921 32.72129 0.01465
