290
Graphene
C 34.41665 0.06823 0.01295
C 14.6932 32.68364 0.00143
C 16.06302 31.96247 -0.017
C 15.95972 30.56428 0.00364
C 14.7342 29.92196 -0.00831
C 14.65752 28.43799 -0.02957
C 16.05039 27.65344 -0.04422
C 12.27376 33.96819 0.00667
C 15.82317 26.36829 0.00654
C 15.81251 13.56603 -0.04076
C 14.73794 12.65796 -0.00652
C 14.78328 11.27083 0.0058
C 16.05527 10.60348 -0.00865
C 16.1166 9.14087 0.00675
C 14.8521 8.46338 -0.00311
C 15.85167 14.92437 -0.00703
C 14.7994 7.04566 0.00742
C 13.47023 0.66162 -0.0054
C 12.33326 2.92526 0.01739
C 12.2424 32.60327 -0.00491
C 13.58113 31.91363 0.03338
C 13.49816 30.47033 -0.0258
C 12.2434 29.88886 -0.0331
C 12.26332 28.31254 -0.00316
C 13.58332 27.94755 0.02188
C 13.52262 2.06414 0.00755
C 12.31277 11.35485 -0.01979
C 13.62777 9.18349 -0.01581
C 12.34223 8.52508 0.01452
C 12.29038 7.11859 0.04892
C 13.51364 6.40993 -0.00111
C 13.55155 4.98328 -0.03557
C 12.25086 4.3172 0.03754
C 13.5477 10.62362 0.02691
C 9.80748 0.02698 -0.00109
C 15.95924 6.32797 -0.01594
C 14.74759 4.19652 -0.01154
C 18.50726 9.26472 -0.03213
C 17.28759 8.40579 0.02239
C 17.25141 7.04354 0.01153
C 18.52641 6.38663 0.02734
C 18.46098 4.99906 -0.0055
C 17.2713 4.25862 0.01515
C 18.48721 10.72806 -0.02845
C 17.25766 2.84684 -0.00225
C 18.42374 0.814 -0.01107
C 17.24557 0.01209 -0.01586
C 19.48989 32.81875 -0.01971
C 20.91453 17.63721 -0.02118
C 19.7382 17.03131 0.00733
C 19.61129 15.63041 -0.00178
C 18.5106 2.15614 0.00071
C 15.96441 4.89281 0.0106
C 17.26206 11.34673 0.03374
C 18.32872 13.54344 0.03046
C 14.82226 2.79284 -0.01721
C 16.07132 2.09611 -0.02422
C 16.03118 0.74941 0.01277
C 14.76796 34.06671 0.00096
C 17.32316 32.6594 -0.01527
C 18.63037 31.86401 0.01087
C 17.1465 12.76733 0.0296
C 18.37924 30.52356 0.00199
C 17.30492 28.35666 -0.00478
C 18.53304 19.07717 -0.01662
C 18.33353 17.71689 -0.01185
C 17.08442 17.11073 0.01126
C 17.03511 15.71453 0.01852
C 18.33256 14.92489 -0.00381
C 17.22688 29.76526 0.01511
C 11.07007 0.65782 0.03698
C 11.05412 2.12786 -0.02213
C 9.84423 2.81306 0.00028
C 2.38056 2.84931 -0.01789
C 3.60766 2.12791 0.00444
C 3.66641 0.72228 -0.00925
C 2.46835 0.05731 0.01877
C 4.89321 32.65305 0.01363
C 6.20928 32.00856 -0.02162
C 2.40436 4.27698 0.02894
C 6.2195 30.5507 0.00415
C 4.94388 28.44027 0.02162
C 6.14021 27.75725 0.0076
C 6.01777 26.42302 0.01241
C 4.99414 25.55324 -0.01454
C 4.75639 24.22556 0.01945
C 6.06265 9.21937 0.01416
C 4.96061 29.83393 -0.0014
C 4.92121 8.52508 0.03542
C 3.69475 4.92804 -0.02971
C 2.36422 7.07485 0.02819
C 3.73255 30.44946 0.03592
C 2.50536 29.80184 0.00406
C 2.47545 28.40825 0.00943
C 3.69716 27.71356 0.02841
C 3.69958 26.28641 -0.01111
C 2.43723 25.58744 -0.01275
C 3.6506 6.2991 0.00165
C 2.38859 24.1675 0.00985
C 3.4708 22.10188 -0.00428
C 2.50144 21.2846 0.03101
C 2.39757 11.36877 -0.01536
C 3.49793 10.63304 -0.02689
C 3.64304 9.25066 -0.01046
C 2.34477 8.52606 -0.00891
C 3.65422 23.39425 -0.02245
C 4.85559 7.07614 0.02299
C 6.18965 6.37104 0.00244
C 6.19545 4.95027 -0.01717
C 8.53259 0.7473 0.01848
C 7.31398 0.05958 -0.00619
C 9.84609 32.65711 -0.02162
C 11.05778 31.9154 0.00889
C 11.05852 30.49617 -0.00481
C 9.86566 29.79204 0.00979
C 8.61242 2.18341 0.02098
C 9.82651 28.24701 0.01443
C 11.22062 9.29722 -0.02815
C 9.85077 8.5739 -0.04147
C 9.79874 7.07662 -0.05302
C 11.09282 6.48747 0.00213
C 11.04881 4.9901 -0.00066
C 9.86499 4.23176 -0.00289
C 11.06286 27.70986 0.03505
C 7.40821 2.82692 -0.03113
C 7.37175 4.23777 0.0351
C 8.68238 4.91687 0.00422
C 4.9117 4.26507 0.05265
C 4.90913 2.92492 -0.01952
C 6.09231 2.1903 -0.02813
C 6.05803 0.80932 0.00374
C 4.91846 34.07339 0.00052
C 7.3457 32.70612 -0.03682
C 8.63189 32.05473 0.01965
C 8.61528 30.56379 0.02058
C 7.42822 29.84893 -0.01957
C 7.3857 28.43519 -0.0108
C 8.55492 27.81506 -0.00368
C 8.64081 8.97439 -0.02696
C 7.31066 8.6414 -0.00114
C 7.41038 7.059 0.00228
C 8.63843 6.34854 0.00798
C 20.97238 14.99478 0.00768
C 20.88223 13.51796 -0.0276
C 19.66298 12.84375 0.03005
C 19.67742 11.45608 -0.04078
C 33.39684 22.06023 -0.01429
C 31.99194 19.88019 -0.0136
C 33.21914 19.16519 0.00594
C 33.12573 17.6369 -0.02474
C 31.90965 16.97075 0.00369
C 31.89287 15.62285 0.00455
C 33.24986 23.33507 -0.02383
C 33.15236 14.91626 -0.00644
C 32.00372 12.77023 0.00137
C 31.98886 11.43179 0.00199
C 33.2546 10.66827 0.04381
C 33.18372 9.27546 0.02806
C 31.97013 8.53728 0.01504
C 31.97249 7.16589 -0.00069
C 33.23951 13.5092 -0.01839
C 33.12455 6.4143 0.04926
C 33.26721 26.38078 0.01574
C 31.92197 30.03314 0.03794
C 30.76329 10.6564 0.07705
C 30.78199 9.2184 0.0103
C 29.48607 8.62974 0.02108
C 29.42417 7.20327 0.00716
C 30.71584 6.46793 0.00307
C 30.63677 5.03532 0.00346
C 33.32954 27.67339 0.01927
C 29.47272 4.30415 0.01713
C 30.70285 2.14712 0.01428
C 30.70016 0.746 -0.02142
C 29.47069 34.01531 0.0544
C 31.86599 32.65089 0.00026
C 33.13784 32.01983 0.00682
C 33.13024 30.54522 -0.01779
C 29.49716 2.87581 -0.01694
C 33.11978 4.98651 -0.03838
C 31.87624 4.2941 0.00349
C 31.96459 2.87652 -0.00323
C 1.09399 14.91698 -0.02957
C 1.1356 13.61886 0.00343
C 0.03403 12.78293 -0.02656
C 0.02783 11.42065 -0.02442
C 1.21262 10.65914 -0.00027
C 1.19019 9.28126 -0.00583
C 0.06261 15.79073 0.02114
C 34.37869 8.55045 -0.02302
C 1.1806 6.37765 0.02931
C 1.14516 4.96423 0.00628
C 34.32532 4.34974 -0.0345
C 34.38609 2.85054 -0.00931
C 1.21268 2.1884 -0.00939
C 1.21058 0.76458 -0.00468
C 34.36056 7.18189 -0.02849
C 34.40792 17.14515 0.00648
C 1.23908 19.1622 0.01223
C 34.4254 19.82764 -0.01678
C 33.20716 2.13528 -0.00841
C 33.22178 0.77349 0.0001
C 31.9688 0.03493 -0.02927
C 34.34586 32.76446 -0.01404
C 1.18693 31.99002 0.01027
C 1.19691 30.56186 0.01831
C 0.03243 29.81968 -0.01037
C 34.41946 28.4313 -0.00439
C 1.28358 27.67408 -0.00598
C 1.23044 26.24573 -0.05239
C 34.38643 25.5651 0.03076
C 34.35853 24.15486 0.00723
C 1.20584 23.44659 0.02712
C 1.29669 21.9838 -0.02213
C 0.04723 21.25711 0.01951
C 29.50505 11.33371 0.01908
C 3.65208 31.89989 0.00572
C 29.4732 12.68523 0.01518
C 30.61392 14.84039 -0.03735
C 23.29606 9.23543 0.04306
C 22.1295 8.50716 0.00996
C 22.08838 7.12996 0.00195
C 23.36586 6.37813 -0.00802
C 23.29646 4.90661 -0.00218
C 22.10493 4.25679 -0.01654
C 23.36411 10.59586 0.00367
C 22.17121 2.77508 -0.00037
C 23.38967 0.50185 0.00622
C 22.07782 34.04665 -0.02815
C 24.60136 17.00541 -0.00942
C 24.61697 15.68155 0.00487
C 25.87999 14.8863 0.00826
C 25.80253 13.39793 -0.00294
C 23.33587 2.03888 -0.0032
C 24.58159 12.75235 0.00152
C 22.10355 11.43127 -0.01679
C 23.31647 13.44372 0.00684
C 20.93518 10.70631 0.02117
C 20.90076 9.24479 0.02737
C 19.73595 8.59933 -0.00498
C 19.66809 7.14559 0.00135
C 20.92507 6.43434 0.03102
C 20.91567 5.03544 0.02555
C 22.07767 12.81939 -0.01052
C 19.67639 4.23812 0.01423
C 20.92093 2.09287 -0.009
C 20.968 0.71518 -0.01199
C 19.64805 0.0907 -0.00229
C 22.03907 17.14232 -0.00938
C 22.19141 15.71935 -0.0264
C 23.3224 14.93088 -0.01154
C 19.77662 2.87507 -0.00285
C 24.59119 11.3279 0.01257
C 25.7984 10.62983 0.02316
C 25.82935 9.25094 0.04185
C 27.05307 7.12481 -0.02049
C 28.24514 6.43629 -0.01854
C 28.19653 4.94974 -0.01415
C 26.95899 4.30724 -0.03039
C 27.03437 2.82083 0.01836
C 28.24376 2.12746 0.03531
C 27.02375 8.55787 0.03265
C 28.31279 0.73142 -0.00669
C 29.44406 32.61142 0.01705
C 30.65371 32.02389 -0.0405
C 30.95092 19.17345 -0.01303
C 30.67317 17.80728 -0.01461
C 29.42234 17.13536 -0.02155
C 29.39327 15.63383 -0.00944
C 27.12039 0.09361 0.0101
C 28.2424 9.26266 0.00261
C 28.25411 10.68596 0.02326
C 27.05345 11.38973 0.00924
C 24.53365 8.47279 0.00194
C 24.5638 7.06418 -0.00621
C 25.7784 6.34309 0.02611
C 25.75384 4.95653 0.02198
C 24.4991 4.28721 0.01094
C 24.55842 2.83579 0.00235
C 25.82962 2.18847 0.01495
C 25.83879 0.54979 0.01259
C 24.64299 34.05223 0.01799
C 28.19154 17.64187 0.01699
C 27.0164 16.9807 -0.00416
C 26.98229 15.60378 0.01177
C 28.23424 14.92377 0.04266
C 28.26906 13.42217 0.01324
C 27.01635 12.73508 0.0014
C 30.71122 13.4965 -0.00971
C 2.43035 32.67698 0.0402
