361
Graphene
C 34.31822 0.0647 0.01295
C 9.87954 11.39773 0.02058
C 11.10491 10.6045 -0.01957
C 11.0418 9.09214 -0.0108
C 9.80115 8.46897 -0.00368
C 9.82207 7.08704 -0.02696
C 11.14618 6.37378 -0.00114
C 11.06562 4.99032 0.00228
C 9.77559 4.37814 0.00798
C 9.89888 12.80058 0.01965
C 9.72851 2.89072 0.00422
C 11.05177 0.70302 -0.03113
C 9.86076 34.01698 0.02098
C 12.23993 32.65313 0.01848
C 13.50102 31.98928 -0.00619
C 13.48955 30.53518 -0.02162
C 12.26382 29.81991 0.00889
C 12.28816 28.35574 -0.00481
C 13.50495 27.70837 0.00979
C 10.96591 2.17827 0.0351
C 11.12593 13.49923 -0.03682
C 11.1811 14.92405 0.00052
C 9.93402 15.62879 0.00374
C 8.50523 2.15366 -0.00925
C 8.5819 0.69011 0.01877
C 7.33311 0.03617 0.01363
C 9.77165 32.6552 -0.02162
C 11.02958 31.98302 0.00415
C 11.02761 30.58421 -0.0014
C 9.82068 29.84518 0.02162
C 9.81865 28.43986 0.0076
C 11.01932 27.67038 0.01241
C 11.0476 26.29343 -0.01454
C 9.82495 25.62266 0.01945
C 9.80423 24.13658 0.01416
C 11.07572 23.41429 0.03542
C 11.0056 22.01626 0.02299
C 9.85029 21.35634 0.00244
C 9.8766 19.87155 -0.01717
C 11.11721 19.17906 0.05265
C 11.17846 17.75074 -0.01952
C 9.9897 16.98145 -0.02813
C 13.55262 26.30165 0.01443
C 7.33859 2.91288 0.00444
C 12.41131 25.59348 0.03505
C 13.51515 23.29414 -0.04147
C 15.93335 31.95861 0.00755
C 15.95077 30.55379 -0.0054
C 14.70076 29.85221 0.00667
C 14.69554 28.39195 0.00143
C 15.97421 27.71348 -0.017
C 16.06072 26.29662 0.00364
C 14.90124 25.45952 -0.00831
C 14.63938 24.11987 -0.02957
C 14.74719 32.64367 0.01739
C 14.51564 20.51108 -0.04422
C 14.88693 15.73321 -0.00703
C 16.0635 14.82761 -0.04076
C 16.03609 13.40141 -0.00652
C 14.72063 12.70127 0.0058
C 14.69285 11.38121 -0.00865
C 15.88379 10.61455 0.00675
C 15.82779 9.26002 -0.00311
C 14.72493 8.36987 0.00742
C 14.7879 17.13904 0.00654
C 12.24475 0.00646 0.03754
C 13.51675 0.76722 -0.03557
C 13.50347 2.19116 -0.00111
C 13.52811 21.82477 -0.05302
C 12.25692 21.35393 0.00213
C 12.30037 19.95582 -0.00066
C 13.67748 19.55932 -0.00289
C 13.70124 18.00573 0.00028
C 12.40539 17.13382 -0.02213
C 12.41419 15.64847 0.03698
C 13.66415 14.96952 -0.00109
C 13.59129 13.5192 -0.00491
C 12.36951 12.78015 0.03338
C 12.2354 11.35602 -0.0258
C 13.47785 10.66021 -0.0331
C 13.49164 9.11946 -0.00316
C 12.31492 8.31665 0.02188
C 12.47237 6.86795 -0.01979
C 13.84732 6.18783 0.02691
C 13.68057 4.70842 -0.01581
C 12.32263 4.21257 0.01452
C 12.22447 2.79031 0.04892
C 12.32586 24.12031 -0.02815
C 7.39347 4.27996 -0.01789
C 8.55144 5.04801 0.02894
C 8.52495 6.37725 -0.02971
C 3.66616 6.4929 0.0127
C 3.64143 5.08964 0.01396
C 2.41765 4.41042 0.01849
C 2.37831 3.02243 -0.01142
C 3.60249 2.26633 -0.00562
C 3.56705 0.80863 -0.00494
C 2.36307 0.06299 0.00054
C 4.84453 32.74215 0.03007
C 2.38704 7.22981 0.02635
C 6.12328 32.04695 -0.00095
C 4.94165 29.83705 -0.04848
C 4.8453 28.4394 -0.00892
C 6.11028 27.74049 -0.01362
C 6.18473 26.29684 -0.0008
C 4.86745 25.62326 0.0288
C 4.95459 24.12244 0.00393
C 6.20566 23.46197 0.00895
C 6.17585 22.02401 0.00685
C 6.11289 30.57992 0.01572
C 2.4167 8.65133 -0.01378
C 3.63304 9.29335 -0.01303
C 3.68566 10.71654 0.00848
C 3.6524 30.58929 -0.03113
C 2.37877 29.92472 -0.02566
C 2.44671 28.477 -0.00094
C 3.6331 27.76793 0.02322
C 3.59624 26.35729 -0.00725
C 2.41818 25.53356 -0.05697
C 2.43789 24.10008 0.01087
C 3.66446 23.41151 -0.01343
C 3.67776 21.97402 0.00988
C 2.49635 21.22969 0.0276
C 2.45658 19.82912 0.01305
C 3.73889 19.15191 -0.00077
C 3.74184 17.798 0.03368
C 2.5361 17.103 -0.02929
C 2.47357 15.63236 -0.00966
C 3.76439 14.94772 -0.03337
C 3.66952 13.55156 0.01227
C 2.39818 12.89844 0.00873
C 2.36929 11.49167 -0.00049
C 4.95565 21.30723 0.02888
C 4.96199 19.8042 -0.00482
C 6.21883 19.17769 -0.01384
C 6.24949 17.79739 0.03693
C 8.60528 26.29736 -0.02759
C 7.40336 25.59576 0.0402
C 7.40936 24.21356 0.00572
C 8.59392 23.48265 0.03592
C 8.60595 22.05432 0.00406
C 7.36713 21.30507 0.00943
C 7.41438 19.8703 0.02841
C 8.65676 19.18924 -0.01111
C 8.67974 17.61858 -0.01275
C 7.39021 17.0028 0.00985
C 7.39909 15.65482 -0.02245
C 8.65217 15.00073 -0.00428
C 8.64675 13.51181 0.03101
C 7.38421 12.80331 -0.01536
C 7.28862 11.35311 -0.02689
C 8.54439 10.67938 -0.01046
C 8.49737 9.22826 -0.00891
C 7.26115 8.57056 0.02819
C 7.30525 7.11361 0.00165
C 8.6388 27.72465 0.03589
C 15.19312 7.02751 -0.01594
C 7.29431 28.48206 -0.00033
C 8.6166 30.59396 0.01364
C 5.01724 17.09206 0.01745
C 4.94639 15.59334 0.00488
C 6.2095 14.90723 -0.01004
C 6.17588 13.47659 -0.02896
C 4.90744 12.80676 -0.00131
C 4.86554 11.4144 -0.01118
C 6.08085 10.62365 -0.014
C 6.06448 9.2281 0.02147
C 4.82361 8.58363 0.00373
C 4.88974 7.17149 -0.00191
C 6.05814 6.47587 0.00438
C 6.13202 5.00554 0.01291
C 4.81195 4.36532 0.00093
C 4.805 2.9702 0.00057
C 6.14297 2.17298 -0.01634
C 6.12271 0.76637 -0.00334
C 4.88479 0.06073 0.02339
C 7.3716 32.66483 0.01641
C 8.54625 31.9934 -0.00719
C 7.29047 29.91524 -0.01062
C 3.62849 32.00365 0.017
C 14.59689 3.07196 0.0106
C 15.93161 0.72489 -0.01721
C 31.94716 32.74493 0.01713
C 33.10549 32.01811 -0.01694
C 33.09002 30.56708 0.01428
C 31.85678 29.88712 -0.02142
C 31.9763 28.47367 0.0544
C 33.2536 27.76118 0.00026
C 33.12921 26.32232 0.00682
C 31.87113 25.57563 -0.01779
C 29.49743 33.9953 0.00346
C 31.84597 24.05024 0.03794
C 33.15433 22.03275 0.01574
C 31.94517 21.27752 -0.02383
C 32.05005 20.07742 -0.01429
C 33.22505 19.23743 -0.0136
C 33.24578 17.77124 0.00594
C 31.96084 17.15391 -0.02474
C 31.83495 15.77518 0.00369
C 33.10749 15.01305 0.00455
C 33.16943 23.44018 0.01927
C 30.70493 0.74215 0.00307
C 30.73418 2.22953 0.00716
C 29.41585 2.79574 0.02108
C 30.73614 32.0318 -0.01854
C 30.6404 30.55648 -0.01415
C 29.33835 29.79043 -0.03039
C 29.45325 28.37407 0.01836
C 30.83321 27.79526 0.03531
C 30.63151 26.34722 -0.00669
C 29.27453 26.05341 0.0101
C 30.70238 23.36421 0.01705
C 30.71358 14.99191 -0.0405
C 30.62266 13.57794 -0.01303
C 29.36028 12.71098 -0.01461
C 29.51794 11.33643 -0.02155
C 30.75001 10.69127 -0.00944
C 30.71619 9.16928 -0.03735
C 29.51433 8.4935 -0.00971
C 29.51282 7.02808 0.01518
C 30.77723 6.40885 0.01908
C 30.72438 5.02412 0.07705
C 29.51165 4.30011 0.0103
C 33.02494 13.59991 -0.00644
C 29.45501 32.6111 -0.02049
C 31.87754 12.80322 -0.01839
C 33.17394 10.69756 0.00199
C 1.17438 19.21089 -0.01678
C 1.21688 17.8279 0.01223
C 0.00549 17.08822 0.00648
C 34.38667 15.65728 0.02114
C 1.19834 14.98694 -0.02957
C 1.15156 13.56729 0.00343
C 34.34195 12.91419 -0.02656
C 34.35344 11.42303 -0.02442
C 34.39406 19.9658 0.01951
C 1.12586 10.67481 -0.00027
C 34.39836 8.54953 -0.02302
C 34.32601 7.11574 -0.02849
C 1.17739 6.4755 0.02931
C 1.15896 5.0477 0.00628
C 34.37396 4.377 -0.0345
C 34.38098 2.91022 -0.00931
C 1.1911 2.23054 -0.00939
C 1.11752 0.78625 -0.00468
C 1.11663 9.3186 -0.00583
C 34.36267 21.33374 -0.02213
C 1.22274 21.98263 0.02712
C 1.20509 23.40157 0.00723
C 33.20425 9.24408 0.04381
C 31.91459 8.58213 0.02806
C 31.94263 7.13894 0.01504
C 33.15499 6.39375 -0.00069
C 33.10929 4.99683 0.04926
C 31.90745 4.29318 -0.03838
C 31.9093 2.90747 0.00349
C 33.15692 2.23637 -0.00323
C 33.12745 0.79179 -0.00841
C 31.92715 0.05708 0.0001
C 34.39601 32.68933 -0.02927
C 1.21085 32.03297 -0.01404
C 1.11964 30.6548 0.01027
C 34.38888 29.88762 0.01831
C 34.42517 28.43711 -0.01037
C 1.20175 27.76503 -0.00439
C 1.10405 26.27709 -0.00598
C 34.33471 25.53339 -0.05239
C 34.3879 24.12611 0.03076
C 31.95735 11.42255 0.00137
C 26.95799 34.03613 0.03265
C 28.24475 0.63113 0.00261
C 28.19642 2.10235 0.02326
C 19.59413 29.8563 -0.00225
C 19.55527 28.33114 0.00071
C 19.40459 11.35126 -0.01107
C 20.74429 10.66097 -0.01586
C 20.71143 9.14745 -0.01971
C 19.57981 8.40077 -0.02118
C 19.45631 6.9852 0.00733
C 20.68417 6.38755 -0.00178
C 20.82328 30.50239 0.01515
C 20.84864 4.8416 0.00768
C 19.63084 2.822 0.03005
C 20.95489 2.1316 -0.04078
C 20.9378 0.66433 0.02117
C 19.66578 34.0576 0.02737
C 22.07993 32.59163 -0.00498
C 23.36097 31.88366 0.00135
C 23.32304 30.4924 0.03102
C 22.06093 29.68099 0.02555
C 19.58496 4.17901 -0.0276
C 20.91464 31.91472 -0.0055
C 19.67541 32.67593 0.02734
C 17.21208 0.0128 0.01153
C 14.7351 34.06134 -0.02422
C 17.15936 32.6176 0.01277
C 18.42705 31.95778 0.00096
C 18.38127 30.4974 -0.01527
C 17.17796 29.81873 0.01087
C 17.1237 28.45646 0.00199
C 18.45161 27.91972 0.01511
C 17.29678 12.55929 -0.00478
C 17.14682 11.29581 -0.01662
C 18.35626 10.46278 -0.01185
C 18.29065 9.04707 0.01126
C 17.03262 8.40964 0.01852
C 16.76027 7.02709 -0.00381
C 18.13092 6.33464 0.03046
C 18.30812 4.91655 0.0296
C 17.26279 4.09219 0.03374
C 17.19929 2.75541 -0.02845
C 18.48664 2.12324 -0.03213
C 18.49156 0.66064 0.02239
C 21.9109 28.31872 0.01423
C 22.01284 11.28949 -0.00285
C 23.35715 10.72553 -0.009
C 23.34595 9.20488 -0.01199
C 24.49399 2.83371 0.01257
C 25.78302 2.1409 0.02316
C 25.74873 0.69948 0.04185
C 24.5624 0.00023 0.00194
C 26.97001 32.53907 -0.00621
C 28.18497 31.86917 0.02611
C 28.15604 30.49037 0.02198
C 27.05294 29.52961 0.01094
C 27.09494 28.06801 0.00235
C 28.47877 27.32142 0.01495
C 27.29309 11.45528 0.01259
C 28.28941 10.58357 0.01799
C 28.27571 9.15796 0.01699
C 27.01848 8.57128 -0.00416
C 27.01404 7.11674 0.01177
C 28.21034 6.42321 0.04266
C 28.18657 4.97672 0.01324
C 27.00041 4.25588 0.0014
C 27.01302 2.84676 0.00924
C 24.60604 4.34943 0.00152
C 15.82089 2.23819 -0.01154
C 25.82621 5.00758 -0.00294
C 24.50005 7.0986 0.00487
C 22.05591 8.52057 -0.00229
C 21.92292 7.07672 -0.00938
C 23.2935 6.42865 -0.0264
C 23.28773 5.01573 -0.01154
C 22.14797 4.20055 0.00684
C 22.14678 2.83695 -0.01052
C 23.33862 2.06135 -0.01679
C 23.38556 0.65195 0.00367
C 22.15291 33.99338 0.04306
C 24.57425 32.62905 0.00996
C 25.75892 31.81653 0.00195
C 25.83845 30.35316 -0.00802
C 24.55292 29.79005 -0.00218
C 24.47805 28.34264 -0.01654
C 25.71533 27.87156 -0.00037
C 24.57049 11.37 -0.0032
C 25.88196 10.75401 0.00622
C 25.82819 9.29876 -0.02815
C 24.62175 8.53123 -0.00942
C 25.76485 6.43023 0.00826
C 2.39404 32.77292 -0.00643
