338
Graphene
C 0.00349 0.02568 0.01295
C 14.78215 8.64613 0.00889
C 14.7557 7.10994 -0.00481
C 15.9244 6.41182 0.00979
C 16.02259 5.05904 0.01443
C 14.80082 4.39094 0.03505
C 14.59429 3.01078 -0.02815
C 15.8473 2.11678 -0.04147
C 15.86429 0.64309 -0.05302
C 14.6941 0.00122 0.00213
C 17.27845 32.7143 -0.00066
C 18.46383 31.91676 -0.00289
C 18.49166 30.54 0.00028
C 17.29183 29.77116 -0.02213
C 17.16529 28.35283 0.03698
C 18.51842 27.67048 -0.00109
C 18.51365 26.34011 -0.00491
C 18.62376 10.39282 0.03338
C 16.09805 9.17411 -0.02162
C 18.44577 9.08187 -0.0258
C 16.03739 27.67455 -0.00619
C 14.86593 29.83296 0.02098
C 11.04663 0.62132 -0.01952
C 9.81796 0.03563 -0.02813
C 12.31404 32.64998 0.00374
C 13.50189 31.96943 0.00052
C 13.53645 30.55955 -0.03682
C 12.33555 29.83652 0.01965
C 12.22044 28.37506 0.02058
C 13.45146 27.76512 -0.01957
C 13.5556 9.01473 -0.0108
C 12.28188 9.0091 -0.00368
C 13.48347 6.50619 -0.02696
C 13.5024 2.18277 -0.00114
C 13.49098 0.69756 0.00228
C 12.2513 0.08465 0.00798
C 14.79717 32.5797 0.00422
C 16.06696 31.9098 0.0351
C 16.07016 30.52495 -0.03113
C 14.74419 28.24165 0.01848
C 9.80057 8.86539 0.05265
C 17.21731 8.5094 -0.0331
C 18.42068 6.35866 0.02188
C 19.63727 6.95867 -0.00652
C 20.87701 6.35182 0.0058
C 20.94464 4.95269 -0.00865
C 19.65592 4.34178 0.00675
C 19.61005 2.867 -0.00311
C 20.76217 2.11382 0.00742
C 20.78118 0.77071 -0.01594
C 19.5559 0.03831 0.0106
C 22.16224 32.62619 -0.01154
C 23.37403 31.94993 -0.01721
C 23.38171 30.5168 -0.02422
C 22.16124 29.80546 0.01277
C 22.20066 28.44379 0.00096
C 23.39622 27.6641 -0.01527
C 23.31529 26.32461 0.01087
C 22.08262 25.55592 0.00199
C 22.09422 24.13149 0.01511
C 19.71907 8.4001 -0.04076
C 17.1917 7.05965 -0.00316
C 20.94092 9.2149 -0.00703
C 19.58197 11.19067 -0.04422
C 18.39724 4.99446 -0.01979
C 17.22345 4.21074 0.02691
C 17.07851 2.84753 -0.01581
C 18.35981 2.22454 0.01452
C 18.37026 0.76197 0.04892
C 17.13523 34.07657 -0.00111
C 19.74654 32.62868 -0.03557
C 20.93306 31.9866 0.03754
C 20.93442 30.5566 0.01739
C 19.74502 29.83668 0.00755
C 19.72328 28.41173 -0.0054
C 20.92137 27.67413 0.00667
C 20.87462 26.25063 0.00143
C 19.55008 25.44545 -0.017
C 19.6864 23.98198 0.00364
C 20.94429 23.4759 -0.00831
C 21.01955 13.616 -0.02957
C 20.8628 10.60488 0.00654
C 11.06663 8.79928 -0.01717
C 10.99296 27.78352 0.00244
C 9.77014 28.45607 0.02299
C 2.39139 8.53596 0.03693
C 2.4066 7.09255 0.01745
C 3.63853 6.3789 0.00488
C 3.65858 4.90484 -0.01004
C 2.38492 4.19059 -0.02896
C 2.44667 2.73476 -0.00131
C 3.66577 2.13739 -0.01118
C 3.68087 0.73042 -0.014
C 2.44471 33.99203 0.02147
C 4.8859 32.71547 0.00373
C 6.21414 31.89636 -0.00191
C 6.19557 30.55002 0.00438
C 5.00942 29.8033 0.01291
C 4.94799 28.41272 0.00093
C 6.18132 27.68756 0.00057
C 6.09823 26.25888 -0.01634
C 4.81982 25.61644 -0.00334
C 3.65449 9.18919 -0.01384
C 4.86517 24.15504 0.02339
C 3.66361 10.60443 -0.00482
C 2.50839 12.73113 0.00685
C 3.7245 30.56189 0.0127
C 2.47163 29.83126 0.01396
C 2.43595 28.43884 0.01849
C 3.65851 27.77786 -0.01142
C 3.67622 26.33609 -0.00562
C 2.40761 25.5801 -0.00494
C 2.37611 24.11757 0.00054
C 3.63411 23.42085 0.03007
C 3.78222 22.00461 -0.00095
C 2.54202 21.30616 0.01572
C 2.53591 19.81955 -0.04848
C 3.80476 19.08641 -0.00892
C 3.79178 17.70234 -0.01362
C 2.46958 17.01495 -0.0008
C 2.42298 15.62756 0.0288
C 3.62104 14.86672 0.00393
C 3.628 13.57435 0.00895
C 2.4406 11.3758 0.02888
C 6.0954 23.59089 0.01641
C 4.89744 21.24348 -0.00719
C 4.79459 19.97003 0.01364
C 8.42124 26.11596 -0.02971
C 7.41425 25.49688 0.02894
C 7.27438 11.56223 -0.01789
C 8.29508 10.70875 0.00444
C 8.58752 9.40577 -0.00925
C 7.38671 8.54641 0.01877
C 7.46766 7.05922 0.01363
C 8.62966 6.32971 -0.02162
C 7.47696 4.4905 0.00415
C 7.54464 3.03062 -0.0014
C 8.51976 2.05192 0.02162
C 8.52982 0.74299 0.0076
C 7.28277 0.0012 0.01241
C 9.86359 32.74422 -0.01454
C 11.05741 31.97947 0.01945
C 11.15282 30.51237 0.01416
C 9.88545 29.8673 0.03542
C 8.66273 27.54715 0.00165
C 7.41402 28.41855 0.02819
C 7.43637 29.87098 -0.00891
C 8.67863 30.61511 -0.01046
C 4.79659 16.83723 -0.01062
C 4.89087 15.43323 -0.00033
C 5.94466 13.50939 0.03589
C 4.87325 12.82194 -0.02759
C 4.85978 11.31892 0.0402
C 6.14562 10.75904 0.00572
C 6.18814 9.25791 0.03592
C 4.87483 8.59284 0.00406
C 23.33474 23.45169 -0.00478
C 4.92482 7.07613 0.00943
C 6.13642 4.9943 -0.01111
C 4.90591 4.24254 -0.01275
C 4.9227 2.83911 0.00985
C 6.20843 2.19624 -0.02245
C 6.13571 0.77732 -0.00428
C 4.92242 0.04437 0.03101
C 7.37696 32.68175 -0.01536
C 8.67635 32.03011 -0.02689
C 6.13939 6.39014 0.02841
C 23.26686 22.0687 -0.01662
C 22.11407 21.45493 -0.01185
C 22.0015 20.22392 0.01126
C 31.82378 29.82971 -0.02142
C 31.94687 28.41231 0.0544
C 33.18674 27.7194 0.00026
C 33.24378 26.3428 0.00682
C 32.04914 25.57566 -0.01779
C 31.96744 24.11802 0.03794
C 33.21004 23.48395 0.01927
C 33.16412 22.0504 0.01574
C 31.94912 21.32511 -0.02383
C 31.96904 19.86308 -0.01429
C 33.1859 19.18331 -0.0136
C 33.1339 17.76887 0.00594
C 31.88788 17.06472 -0.02474
C 31.94072 15.69594 0.00369
C 33.2032 14.97657 0.00455
C 33.21904 13.58491 -0.00644
C 32.00684 12.82487 -0.01839
C 33.17888 30.5838 0.01428
C 31.97582 11.44104 0.00137
C 33.19684 31.97469 -0.01694
C 29.55675 34.04041 0.00346
C 30.63598 17.80267 -0.00669
C 29.4639 17.08109 0.0101
C 29.48362 15.62377 0.01705
C 30.71324 14.94918 -0.0405
C 30.71481 13.49289 -0.01303
C 29.4952 12.8386 -0.01461
C 29.5107 11.3767 -0.02155
C 30.75952 10.68961 -0.00944
C 30.76214 9.25819 -0.03735
C 29.52028 8.53491 -0.00971
C 29.51668 7.1654 0.01518
C 30.71258 6.41068 0.01908
C 30.71202 5.0003 0.07705
C 29.56193 4.19529 0.0103
C 29.44979 2.78015 0.02108
C 30.73755 2.10774 0.00716
C 30.69674 0.6896 0.00307
C 32.00027 32.7094 0.01713
C 33.24016 10.66696 0.00199
C 33.23742 9.21424 0.04381
C 32.0323 8.51283 0.02806
C 1.27788 17.80104 0.01223
C 0.03918 17.09443 0.00648
C 0.04514 15.63864 0.02114
C 1.21682 14.88244 -0.02957
C 1.24268 13.45276 0.00343
C 0.00837 12.77742 -0.02656
C 0.03618 11.34269 -0.02442
C 1.22974 10.67257 -0.00027
C 1.17335 9.18392 -0.00583
C 34.35462 8.45847 -0.02302
C 34.39035 7.04287 -0.02849
C 1.20266 6.35505 0.02931
C 1.19656 4.96846 0.00628
C 34.40502 4.25282 -0.0345
C 0.02866 2.8667 -0.00931
C 1.18554 2.08443 -0.00939
C 1.23265 0.65272 -0.00468
C 1.3215 19.13819 -0.01678
C 34.40519 19.81251 0.01951
C 34.42702 21.28672 -0.02213
C 1.24609 21.87287 0.02712
C 31.92935 7.08631 0.01504
C 33.17395 6.3206 -0.00069
C 33.10716 4.94723 0.04926
C 31.89713 4.25643 -0.03838
C 31.95132 2.85059 0.00349
C 33.1956 2.18437 -0.00323
C 33.27627 0.8413 -0.00841
C 32.00831 0.01802 0.0001
C 30.74562 19.17238 0.03531
C 34.40117 32.70673 -0.02927
C 1.24871 30.57199 0.01027
C 34.39998 29.83829 0.01831
C 0.005 28.44575 -0.01037
C 1.28004 27.76144 -0.00439
C 1.24348 26.28319 -0.00598
C 0.0269 25.59593 -0.05239
C 34.40864 24.14614 0.03076
C 1.19308 23.39682 0.00723
C 1.20316 31.96279 -0.01404
C 3.71627 31.94775 0.02635
C 29.4327 19.88106 0.01836
C 30.71419 22.01326 -0.01415
C 24.57181 25.4958 -0.0276
C 24.57522 24.14019 0.03005
C 25.86787 23.42207 -0.04078
C 25.88809 22.0909 0.02117
C 24.57761 21.35544 0.02737
C 24.74294 20.02216 -0.00498
C 25.80397 13.41877 0.00135
C 24.54294 12.91578 0.03102
C 24.53728 11.41369 0.02555
C 25.80107 10.66372 0.01423
C 25.81343 9.21033 -0.00285
C 24.58633 8.55159 -0.009
C 24.57814 7.09632 -0.01199
C 25.85397 6.40003 -0.00229
C 25.80706 5.02504 -0.00938
C 24.5768 4.30792 -0.0264
C 24.53498 2.90211 -0.01154
C 25.80408 26.27371 0.00768
C 25.71174 2.10664 0.00684
C 25.8255 27.70868 -0.00178
C 24.59243 29.84815 -0.02118
C 23.27943 13.38149 0.01852
C 22.08268 12.72938 -0.00381
C 22.00257 11.28516 0.03046
C 23.26984 10.56411 0.0296
C 23.36773 9.21632 0.03374
C 22.15922 8.53263 -0.02845
C 22.18485 7.1076 -0.03213
C 23.32988 6.36298 0.02239
C 23.2816 4.97222 0.01153
C 22.18336 4.26091 0.02734
C 22.08603 2.76675 -0.0055
C 23.31899 2.10115 0.01515
C 23.37446 0.69961 -0.00225
C 22.11952 34.07818 0.00071
C 24.58707 32.60758 -0.01107
C 25.86494 31.90268 -0.01586
C 25.80881 30.4969 -0.01971
C 24.67773 28.46159 0.00733
C 25.73124 0.7333 -0.01052
C 24.5542 34.00526 -0.01679
C 27.13847 32.57486 0.00367
C 28.29112 6.3889 0.01094
C 28.24117 4.99553 0.00235
C 27.01701 4.29284 0.01495
C 27.01007 2.88158 0.01259
C 28.22262 2.11849 0.01799
C 28.18693 0.70911 0.01699
C 27.02245 34.00074 -0.00416
C 29.5348 32.63272 0.01177
C 30.75676 31.94762 0.04266
C 30.66433 30.48748 0.01324
C 29.46546 29.74691 0.0014
C 29.49003 28.30467 0.00924
C 30.72712 27.61603 0.02326
C 30.79715 26.23321 0.00261
C 29.57632 25.55972 0.03265
C 29.55245 24.15773 -0.02049
C 30.75871 23.38629 -0.01854
C 27.05606 7.10217 0.02198
C 27.04517 8.48834 0.02611
C 28.27527 9.1728 -0.00621
C 28.2205 10.6764 0.00194
C 28.28672 31.86822 0.04306
C 28.24487 30.46558 0.00996
C 27.02614 29.76239 0.00195
C 27.06371 28.34317 -0.00802
C 28.30734 27.60708 -0.00218
C 28.3083 26.18801 -0.01654
C 27.05966 25.58034 -0.00037
C 27.041 24.12816 -0.0032
C 29.41757 21.29442 -0.03039
C 28.29936 23.4697 0.00622
C 27.08688 21.34621 -0.00942
C 27.04012 19.96307 0.00487
C 28.16499 19.13248 0.00826
C 28.24779 17.65062 -0.00294
C 28.29853 14.96015 0.00152
C 28.24136 13.55912 0.01257
C 27.03668 12.84299 0.02316
C 27.01983 11.35903 0.04185
C 28.34839 22.05865 -0.02815
C 2.44224 32.56995 -0.01378
