386
Graphene
C 34.31873 0.06019 0.01295
C 14.92421 19.83693 -0.0014
C 16.16234 19.1867 0.02162
C 16.08301 17.81192 0.0076
C 14.7661 17.11307 0.01241
C 14.75001 15.59918 -0.01454
C 16.03861 14.92016 0.01945
C 16.01201 13.50242 0.01416
C 14.79395 12.82745 0.03542
C 14.79201 11.4463 0.02299
C 15.89068 31.74832 0.00415
C 16.00829 10.67292 0.00244
C 15.84668 2.04313 0.05265
C 15.8773 0.66227 -0.01952
C 14.72751 0.01304 -0.02813
C 17.0879 32.5371 0.00374
C 18.31609 31.80722 0.00052
C 18.27512 30.42764 -0.03682
C 18.52369 22.02954 0.01965
C 17.37096 21.53358 0.02058
C 17.28998 19.98277 -0.01957
C 15.86756 9.30691 -0.01717
C 18.46325 19.21483 -0.0108
C 14.76602 32.6148 -0.02162
C 13.63423 0.88116 0.01877
C 11.14811 14.80736 0.00406
C 11.13765 13.2872 0.00943
C 9.86634 12.67619 0.02841
C 9.78663 11.1202 -0.01111
C 10.98744 10.59896 -0.01275
C 11.00585 0.96376 0.00985
C 9.59374 0.56384 -0.02245
C 12.24837 32.82204 -0.00428
C 13.34291 32.18617 0.03101
C 12.27393 0.75555 0.01363
C 12.31277 21.37454 -0.01536
C 13.61077 19.21924 -0.01046
C 13.5332 17.76524 -0.00891
C 12.31425 16.98866 0.02819
C 12.27718 15.6139 0.00165
C 13.49391 14.93137 -0.02971
C 13.5341 13.41524 0.02894
C 12.42105 12.66786 -0.01789
C 12.33081 11.12339 0.00444
C 13.53927 10.65487 -0.00925
C 12.37331 20.00734 -0.02689
C 9.88604 15.64578 0.03592
C 18.44229 17.78611 -0.00368
C 17.30383 15.63502 -0.00114
C 20.91883 23.36013 -0.00491
C 20.95026 21.97118 0.03338
C 19.76591 21.27965 -0.0258
C 19.70193 19.83055 -0.0331
C 20.91708 19.09828 -0.00316
C 21.06008 17.65219 0.02188
C 19.72442 16.91787 -0.01979
C 19.70074 15.59746 0.02691
C 20.92937 14.91353 -0.01581
C 19.56605 23.98897 -0.00109
C 20.94972 13.48512 0.01452
C 19.66429 11.37306 -0.00111
C 20.83579 10.65553 -0.03557
C 20.80569 9.20508 0.03754
C 19.49152 8.54759 0.01739
C 19.46109 7.10575 0.00755
C 20.7312 6.40408 -0.0054
C 20.71951 4.95215 0.00667
C 19.49408 4.14427 0.00143
C 19.5101 2.6819 -0.017
C 19.70416 12.75584 0.04892
C 17.27255 16.98764 -0.02696
C 19.46326 25.30473 0.03698
C 20.82785 27.50659 0.00028
C 18.52779 14.85627 0.00228
C 18.50776 13.44738 0.00798
C 17.26994 12.84972 0.00422
C 17.16042 11.3845 0.0351
C 18.3587 10.70242 -0.03113
C 18.33949 9.30241 0.02098
C 16.96142 8.43841 0.01848
C 17.05189 7.01291 -0.00619
C 18.29053 6.40721 -0.02162
C 20.82874 26.13101 -0.02213
C 18.27895 4.93912 0.00889
C 16.91747 2.90476 0.00979
C 18.27597 2.07009 0.01443
C 18.38131 0.66785 0.03505
C 17.1589 33.98419 -0.02815
C 19.5726 32.6412 -0.04147
C 20.75519 31.85344 -0.05302
C 20.70636 30.42901 0.00213
C 19.39313 29.57502 -0.00066
C 19.5848 28.21562 -0.00289
C 17.04688 4.26042 -0.00481
C 9.85063 17.09455 0.00572
C 11.09467 17.79907 0.0402
C 11.12499 19.26199 -0.02759
C 3.55397 5.0222 0.017
C 2.35968 4.34193 -0.03113
C 2.39943 2.98065 -0.02566
C 3.65666 2.35514 -0.00094
C 3.59633 0.79784 0.02322
C 2.37302 0.0868 -0.00725
C 4.89396 32.7888 -0.05697
C 6.11589 31.96078 0.01087
C 6.14574 30.4663 -0.01343
C 3.50356 6.42662 -0.00643
C 4.91265 29.84408 0.00988
C 6.13541 27.70692 0.01305
C 6.0447 26.26202 -0.00077
C 4.87636 25.58477 0.03368
C 4.94947 24.21535 -0.02929
C 6.08309 23.5295 -0.00966
C 6.17934 22.13186 -0.03337
C 4.92488 21.39039 0.01227
C 4.93582 19.99584 0.00873
C 6.14179 19.3297 -0.00049
C 4.87826 28.43423 0.0276
C 6.14228 17.81205 0.00848
C 2.35554 7.17409 0.0086
C 3.69989 9.22153 -0.00074
C 3.65139 30.60192 -0.04307
C 2.39177 29.903 0.03189
C 2.31375 28.52363 0.00031
C 3.53356 27.83594 -0.003
C 3.67441 26.28693 0.01402
C 2.31167 25.592 0.02379
C 2.43339 24.21505 0.00907
C 3.63235 23.48169 0.00643
C 3.7298 22.09585 -0.01509
C 2.3246 8.59254 -0.00518
C 2.51167 21.33402 0.03267
C 3.78208 19.23066 0.00402
C 3.71539 17.7688 0.0073
C 2.46103 17.09206 0.0174
C 2.5723 15.65172 0.03828
C 3.7871 14.8856 0.01226
C 3.72634 13.52572 -0.00279
C 2.48776 12.78427 0.01996
C 2.43892 11.35608 -0.03996
C 3.71715 10.7014 0.01465
C 2.52928 19.88441 0.02374
C 4.95461 17.15801 -0.01303
C 4.97085 15.68934 -0.01378
C 6.21075 15.02539 0.02635
C 8.5876 19.34811 -0.02896
C 8.60176 17.84995 -0.00131
C 7.41337 17.11494 -0.01118
C 7.48648 15.72732 -0.014
C 8.72595 14.9707 0.02147
C 8.72647 13.51064 0.00373
C 7.43486 12.83833 -0.00191
C 7.29751 11.37251 0.00438
C 8.41123 10.57765 0.01291
C 7.39646 19.9775 -0.01004
C 8.35876 0.9883 0.00093
C 9.7187 32.96508 -0.01634
C 10.91954 32.25305 -0.00334
C 10.96752 30.80995 0.02339
C 9.93914 29.8631 0.01641
C 9.82593 28.45627 -0.00719
C 9.30629 24.95692 0.01364
C 11.39191 22.07443 -0.01062
C 9.93211 21.50553 -0.00033
C 9.86243 20.03104 0.03589
C 7.31126 0.03815 0.00057
C 7.51715 21.49386 0.00488
C 8.77185 22.27922 0.01745
C 8.63389 23.74836 0.03693
C 6.21879 13.58985 0.0127
C 4.99877 12.7754 0.01396
C 4.88847 11.42463 0.01849
C 6.08684 10.664 -0.01142
C 6.08797 9.22981 -0.00562
C 5.00361 8.43768 -0.00494
C 4.8407 7.00935 0.00054
C 4.82156 4.39345 0.03007
C 5.00934 3.07004 -0.00095
C 6.16306 2.20066 0.01572
C 6.05884 0.7805 -0.04848
C 4.91214 0.04944 -0.00892
C 7.2633 32.74283 -0.01362
C 8.53456 32.0755 -0.0008
C 8.62119 30.55629 0.0288
C 7.36245 29.78143 0.00393
C 7.35174 28.39216 0.00895
C 8.70746 27.71315 0.00685
C 8.42585 26.38714 0.02888
C 7.28672 25.62065 -0.00482
C 7.28035 24.24002 -0.01384
C 20.80693 2.01398 0.00364
C 20.80009 0.58236 -0.00831
C 19.56666 33.98764 -0.02957
C 22.02587 32.49136 -0.04422
C 30.65339 4.9456 0.07705
C 29.32514 4.25504 0.0103
C 29.40624 2.81122 0.02108
C 30.61893 2.14658 0.00716
C 30.62567 0.66815 0.00307
C 29.36714 34.06026 0.00346
C 31.83768 32.61889 0.01713
C 33.10909 31.97754 -0.01694
C 33.1823 30.56104 0.01428
C 30.57789 6.4724 0.01908
C 31.92802 29.80836 -0.02142
C 33.11854 27.75105 0.00026
C 33.04213 26.29886 0.00682
C 31.83223 25.58252 -0.01779
C 31.95481 24.16665 0.03794
C 33.21564 23.48909 0.01927
C 33.1824 22.11015 0.01574
C 31.97713 21.31231 -0.02383
C 31.95632 19.85851 -0.01429
C 33.16105 19.20655 -0.0136
C 31.91863 28.42287 0.0544
C 33.27592 17.82593 0.00594
C 29.32424 7.12064 0.01518
C 30.71264 9.26369 -0.03735
C 30.70068 30.58016 0.01324
C 29.44398 29.84867 0.0014
C 29.41921 28.45324 0.00924
C 30.68305 27.72766 0.02326
C 30.61063 26.32635 0.00261
C 29.44907 25.58476 0.03265
C 29.53167 24.04852 -0.02049
C 30.7528 23.37995 -0.01854
C 30.70316 22.00166 -0.01415
C 29.40377 8.54218 -0.00971
C 29.55567 21.22606 -0.03039
C 30.70995 19.14861 0.03531
C 30.8525 17.74314 -0.00669
C 29.57012 17.03338 0.0101
C 29.60865 15.63425 0.01705
C 30.83859 14.88291 -0.0405
C 30.7406 13.5309 -0.01303
C 29.48709 12.77544 -0.01461
C 29.46918 11.33217 -0.02155
C 30.75889 10.59835 -0.00944
C 29.49414 19.8163 0.01836
C 32.03724 17.10941 -0.02474
C 31.98533 15.62642 0.00369
C 33.15463 14.8509 0.00455
C 0.00705 21.38102 -0.02213
C 0.00154 19.85331 0.01951
C 1.30645 19.24489 -0.01678
C 1.25125 17.74434 0.01223
C 0.03718 17.06804 0.00648
C 0.06246 15.68007 0.02114
C 1.28782 14.93862 -0.02957
C 1.23693 13.51745 0.00343
C 34.31995 12.75642 -0.02656
C 1.22529 22.10857 0.02712
C 34.40233 11.37736 -0.02442
C 1.12421 9.27205 -0.00583
C 34.4115 8.55718 -0.02302
C 34.35438 7.13587 -0.02849
C 1.09913 6.42334 0.02931
C 1.08966 5.05139 0.00628
C 34.29504 4.24609 -0.0345
C 34.33409 2.87125 -0.00931
C 1.18197 2.21718 -0.00939
C 1.15568 0.80135 -0.00468
C 1.1664 10.70235 -0.00027
C 1.20153 23.5063 0.00723
C 34.38388 24.16132 0.03076
C 34.31401 25.59302 -0.05239
C 33.13732 13.47867 -0.00644
C 31.8919 12.81199 -0.01839
C 31.92885 11.36997 0.00137
C 33.13164 10.57437 0.00199
C 33.16841 9.18959 0.04381
C 31.93658 8.47051 0.02806
C 31.82586 7.10488 0.01504
C 33.06567 6.38216 -0.00069
C 33.03435 4.95877 0.04926
C 31.86279 4.2754 -0.03838
C 31.80081 2.91698 0.00349
C 33.02911 2.17061 -0.00323
C 33.05801 0.70264 -0.00841
C 31.85593 34.06475 0.0001
C 34.32786 32.67148 -0.02927
C 1.19559 32.0754 -0.01404
C 1.21178 30.63666 0.01027
C 34.37919 29.865 0.01831
C 34.35077 28.4784 -0.01037
C 1.13202 27.73336 -0.00439
C 1.14271 26.33072 -0.00598
C 30.68024 31.94268 0.04266
C 3.63199 32.00578 0.03284
C 29.42693 32.67406 0.01177
C 28.15706 0.67207 0.01699
C 23.21908 6.37475 0.01852
C 23.23954 4.87929 -0.00381
C 21.98664 4.19482 0.03046
C 21.99447 2.76348 0.0296
C 23.2247 2.02672 0.03374
C 23.23807 0.56838 -0.02845
C 21.96611 33.83674 -0.03213
C 24.44136 32.59469 0.02239
C 25.71365 31.91793 0.01153
C 21.96568 7.06144 0.01126
C 25.74806 30.47343 0.02734
C 24.58003 28.40497 0.01515
C 25.71807 27.63363 -0.00225
C 25.80197 26.24735 0.00071
C 24.61434 25.53952 -0.01107
C 24.6342 24.12853 -0.01586
C 25.89449 23.40686 -0.01971
C 25.7859 22.01675 -0.02118
C 24.63248 21.22442 0.00733
C 24.60088 19.79051 -0.00178
C 24.46962 29.79742 -0.0055
C 25.79804 19.09392 0.00768
C 22.06315 8.51818 -0.01185
C 23.32756 10.65348 -0.00478
C 23.28346 31.79898 0.00654
C 23.21611 30.37787 -0.00703
C 21.93501 29.7211 -0.04076
C 21.96986 28.33523 -0.00652
C 23.29204 27.70152 0.0058
C 23.31234 26.17539 -0.00865
C 22.08452 25.48307 0.00675
C 22.12207 24.09669 -0.00311
C 23.44764 23.33507 0.00742
C 23.27586 9.206 -0.01662
C 23.43101 21.82586 -0.01594
C 22.20741 19.77926 -0.01154
C 23.41821 19.09976 -0.01721
C 23.48816 17.71411 -0.02422
C 22.32654 16.95952 0.01277
C 22.20035 15.62387 0.00096
C 23.40137 14.96409 -0.01527
C 23.3908 13.44735 0.01087
C 22.12285 12.82821 0.00199
C 22.11692 11.43143 0.01511
C 22.14312 21.1863 0.0106
C 25.87905 17.74603 -0.0276
C 24.66151 17.00881 0.03005
C 24.61406 15.59348 -0.04078
C 28.3126 22.01394 -0.0032
C 27.01117 21.24182 0.00622
C 27.02445 19.8809 -0.02815
C 28.25128 19.15181 -0.00942
C 28.36697 17.7776 0.00487
C 27.13169 17.05332 0.00826
C 27.12171 15.6748 -0.00294
C 28.25688 14.84466 0.00152
C 28.22999 13.41414 0.01257
C 28.31691 23.35912 -0.00037
C 26.96681 12.74833 0.02316
C 28.21266 10.59443 0.00194
C 28.18283 9.24692 -0.00621
C 26.95872 8.50191 0.02611
C 26.96696 7.07013 0.02198
C 28.16414 6.31828 0.01094
C 28.13887 4.92974 0.00235
C 26.84975 4.25315 0.01495
C 26.90775 2.81487 0.01259
C 28.1329 2.09938 0.01799
C 27.02065 11.33168 0.04185
C 27.11336 24.14396 -0.01654
C 27.01991 25.58325 -0.00218
C 28.20348 26.31856 -0.00802
C 25.81699 14.91459 0.02117
C 25.82768 13.49314 0.02737
C 24.57898 12.7886 -0.00498
C 24.5378 11.36917 0.00135
C 25.73575 10.60457 0.03102
C 25.62616 9.14179 0.02555
C 24.47067 8.39227 0.01423
C 24.48599 7.01996 -0.00285
C 25.69288 6.34555 -0.009
C 25.64673 4.91051 -0.01199
C 24.43972 4.15656 -0.00229
C 24.43223 2.75388 -0.00938
C 25.5789 2.0724 -0.0264
C 25.6519 0.64762 -0.01154
C 24.43842 33.93399 0.00684
C 26.92712 32.6453 -0.01052
C 28.22602 31.97544 -0.01679
C 28.18294 30.56889 0.00367
C 27.02012 29.83954 0.04306
C 26.90713 28.38889 0.00996
C 28.13097 27.74882 0.00195
C 26.89556 0.09508 -0.00416
C 2.40307 32.78393 0.04505
