377
Graphene
C 34.33658 34.06457 0.01295
C 14.7552 24.15832 0.03542
C 16.0084 23.44874 0.02299
C 16.07701 22.13277 0.00244
C 14.80164 21.43246 -0.01717
C 14.81634 19.90381 0.05265
C 16.02077 19.16221 -0.01952
C 15.96673 17.70332 -0.02813
C 14.71904 16.84377 0.00374
C 14.70018 15.44188 0.00052
C 15.96542 14.85743 -0.03682
C 15.95803 13.40374 0.01965
C 14.95062 12.64136 0.02058
C 16.07215 10.52332 -0.01957
C 16.01736 9.25728 -0.0108
C 14.84783 7.2832 -0.00368
C 15.81343 6.3964 -0.02696
C 15.88801 4.87636 -0.00114
C 14.68867 4.20024 0.00228
C 14.67656 2.82529 0.00798
C 15.96715 32.0577 0.01416
C 14.74912 32.70787 0.01945
C 12.29743 0.0117 -0.01454
C 13.5394 0.68728 0.01241
C 13.42443 30.68422 -0.00428
C 12.35081 29.82539 0.03101
C 12.38898 28.41045 -0.01536
C 13.49579 27.63805 -0.02689
C 13.4627 26.34802 -0.01046
C 12.35788 25.56595 -0.00891
C 12.31727 24.20377 0.02819
C 13.57075 23.57236 0.00165
C 13.5891 22.09536 -0.02971
C 16.00218 2.09139 0.00422
C 12.36147 21.41517 0.02894
C 13.64401 19.2058 0.00444
C 13.53625 17.68844 -0.00925
C 12.28621 16.99805 0.01877
C 12.49408 15.66195 0.01363
C 13.44232 14.70828 -0.02162
C 13.48188 4.95919 0.00415
C 12.47327 4.17963 -0.0014
C 12.30481 2.87914 0.02162
C 13.45659 2.14679 0.0076
C 12.38435 19.94489 -0.01789
C 13.45978 32.04455 -0.02245
C 15.99011 0.72051 0.0351
C 16.92572 32.83974 0.02098
C 20.98958 23.40176 -0.01979
C 20.91084 22.0133 0.02691
C 19.6849 21.29848 -0.01581
C 19.72519 19.8284 0.01452
C 20.91218 19.13686 0.04892
C 20.8922 17.69127 -0.00111
C 19.64815 17.01516 -0.03557
C 19.68988 15.61562 0.03754
C 21.01305 14.86925 0.01739
C 20.99468 13.49183 0.00755
C 19.68575 12.72281 -0.0054
C 19.70029 11.31936 0.00667
C 20.89687 10.63387 0.00143
C 20.84081 9.16969 -0.017
C 19.59943 8.46046 0.00364
C 19.65023 7.07148 -0.00831
C 20.92286 6.38517 -0.02957
C 20.91751 4.89735 -0.04422
C 19.67184 4.27519 0.00654
C 20.65507 32.11027 0.02188
C 19.57304 32.77143 -0.00316
C 17.20192 0.04691 -0.0331
C 18.37855 0.75417 -0.0258
C 18.46657 21.9448 0.01848
C 17.25194 21.37768 -0.00619
C 17.25399 19.89226 -0.02162
C 18.4929 19.19847 0.00889
C 18.42419 17.80549 -0.00481
C 17.21767 17.0383 0.00979
C 17.19571 15.60602 0.01443
C 18.50348 14.88629 0.03505
C 18.4587 13.41968 -0.02815
C 14.73207 0.06421 -0.03113
C 17.24949 12.70793 -0.04147
C 18.45885 10.64799 0.00213
C 18.40735 9.20986 -0.00066
C 17.16937 8.47348 -0.00289
C 17.16905 7.05266 0.00028
C 18.39024 6.35667 -0.02213
C 18.37383 4.96865 0.03698
C 17.18715 4.2098 -0.00109
C 17.19496 2.83175 -0.00491
C 18.41961 2.16062 0.03338
C 17.17427 11.34215 -0.05302
C 12.20015 32.66936 0.00985
C 9.8574 0.05481 -0.01275
C 11.09537 0.73265 -0.01111
C 2.43986 2.84108 0.00988
C 3.62424 2.1852 0.0276
C 3.6196 0.73706 0.01305
C 2.3877 0.02434 -0.00077
C 4.8945 32.6912 0.03368
C 6.10051 32.02136 -0.02929
C 6.1921 30.5076 -0.00966
C 4.97611 29.82801 -0.03337
C 4.88292 28.44763 0.01227
C 6.09345 27.74471 0.00873
C 6.15048 26.30228 -0.00049
C 4.93525 25.66173 0.00848
C 4.91681 24.11959 -0.01303
C 6.1144 23.4568 -0.01378
C 6.08157 22.05405 0.02635
C 4.86488 21.34432 0.0127
C 4.89434 19.97569 0.01396
C 6.08168 19.16742 0.01849
C 6.18851 17.70428 -0.01142
C 2.46048 4.28788 -0.01343
C 3.82093 5.03476 0.01087
C 3.71237 6.36447 -0.05697
C 2.48943 7.08923 -0.00725
C 3.64875 30.56931 0.03267
C 2.44977 29.83527 0.02374
C 2.38215 28.44866 0.00402
C 3.61413 27.69373 0.0073
C 3.72719 26.32447 0.0174
C 2.46162 25.59101 0.03828
C 2.45935 24.10784 0.01226
C 3.66359 23.38193 -0.00279
C 3.54526 22.00341 0.01996
C 4.89518 16.99546 -0.00562
C 2.34695 21.28871 -0.03996
C 3.68713 19.22771 -0.00074
C 3.71003 17.81388 -0.00518
C 2.46257 17.10983 0.0086
C 2.47163 15.63335 -0.00643
C 3.74973 14.89786 0.017
C 3.79478 13.43293 -0.03113
C 2.61331 12.733 -0.02566
C 2.32879 11.42631 -0.00094
C 2.34434 8.47179 0.02322
C 2.40363 19.91773 0.01465
C 4.99152 15.5526 -0.00494
C 6.24887 15.03115 0.00054
C 4.91136 4.19513 0.03007
C 7.24874 0.04655 0.00438
C 9.79106 32.66377 0.01291
C 10.9993 31.96257 0.00093
C 11.07937 30.58247 0.00057
C 9.89665 29.87408 -0.01634
C 9.86645 28.3959 -0.00334
C 11.10578 27.6924 0.02339
C 11.05903 26.1838 0.01641
C 9.77523 25.54273 -0.00719
C 8.60708 0.72054 -0.00191
C 9.76334 24.15953 0.01364
C 11.0584 22.04811 -0.00033
C 9.84495 21.29952 0.03589
C 9.80891 19.97053 -0.02759
C 11.17747 19.21252 0.0402
C 11.16857 17.7886 0.00572
C 9.89427 17.013 0.03592
C 9.77969 15.70312 0.00406
C 9.8786 2.81444 0.00943
C 11.0536 2.11091 0.02841
C 11.04557 23.47619 -0.01062
C 19.61979 2.84041 -0.00703
C 8.58404 2.26042 0.00373
C 7.40157 15.68349 -0.014
C 4.90763 2.80016 -0.00095
C 6.15607 2.23632 0.01572
C 6.12984 0.81235 -0.04848
C 4.87484 0.0898 -0.00892
C 7.29478 32.70385 -0.01362
C 8.63157 32.01722 -0.0008
C 8.64729 30.55574 0.0288
C 7.41332 29.84996 0.00393
C 7.35493 28.44865 0.00895
C 7.40446 2.92942 0.02147
C 8.64709 27.75129 0.00685
C 7.35987 25.66047 -0.00482
C 7.38293 24.23275 -0.01384
C 8.56463 23.44738 0.03693
C 8.57409 22.07353 0.01745
C 7.31979 21.36808 0.00488
C 7.33248 19.86002 -0.01004
C 8.58248 19.22674 -0.02896
C 8.60148 17.78269 -0.00131
C 7.45321 17.12802 -0.01118
C 8.58333 26.36927 0.02888
C 3.7364 31.98636 -0.01509
C 20.80036 2.19688 -0.04076
C 19.51948 0.03255 0.0058
C 30.7298 2.13974 0.00716
C 30.62656 0.72183 0.00307
C 29.46147 0.00667 0.00346
C 31.90808 32.70009 0.01713
C 33.16996 31.99986 -0.01694
C 33.18001 30.5308 0.01428
C 31.95361 29.85473 -0.02142
C 31.90766 28.42731 0.0544
C 33.15534 27.72142 0.00026
C 33.20473 26.36597 0.00682
C 32.01917 25.61448 -0.01779
C 31.99387 24.21339 0.03794
C 33.20256 23.50717 0.01927
C 33.13388 22.07152 0.01574
C 31.96135 21.29327 -0.02383
C 31.98294 19.88035 -0.01429
C 33.22234 19.1427 -0.0136
C 33.20631 17.72263 0.00594
C 31.99048 16.98344 -0.02474
C 29.53472 2.92579 0.02108
C 29.49822 4.30781 0.0103
C 30.74587 4.97319 0.07705
C 30.71702 6.35113 0.01908
C 30.68532 27.7177 0.02326
C 30.75266 26.27675 0.00261
C 29.5376 25.57522 0.03265
C 29.46925 24.11692 -0.02049
C 30.75048 23.43391 -0.01854
C 30.69091 21.99714 -0.01415
C 29.47795 21.26414 -0.03039
C 29.55845 19.82476 0.01836
C 30.76409 19.2085 0.03531
C 31.91417 15.64022 0.00369
C 30.78717 17.72166 -0.00669
C 29.46171 15.64388 0.01705
C 30.65531 14.87344 -0.0405
C 30.7183 13.49559 -0.01303
C 29.50053 12.82151 -0.01461
C 29.54887 11.38736 -0.02155
C 30.79674 10.67112 -0.00944
C 30.68719 9.23129 -0.03735
C 29.50127 8.57091 -0.00971
C 29.49977 7.05324 0.01518
C 29.49517 17.04527 0.0101
C 29.44657 28.39187 0.00924
C 33.15993 14.96356 0.00455
C 31.9975 12.85735 -0.01839
C 34.39896 19.84663 0.01951
C 1.15644 19.13885 -0.01678
C 1.24852 17.82685 0.01223
C 0.04509 17.05527 0.00648
C 0.03559 15.6622 0.02114
C 1.26142 14.98027 -0.02957
C 1.3201 13.55624 0.00343
C 0.03049 12.80352 -0.02656
C 0.0075 11.38528 -0.02442
C 1.27675 10.682 -0.00027
C 1.22769 9.22724 -0.00583
C 34.43273 8.55765 -0.02302
C 34.40481 7.09698 -0.02849
C 1.17852 6.41288 0.02931
C 1.18733 4.96763 0.00628
C 34.40743 4.21709 -0.0345
C 34.33385 2.83808 -0.00931
C 1.20694 2.14592 -0.00939
C 1.17609 0.69725 -0.00468
C 34.32704 21.30747 -0.02213
C 1.1107 21.95422 0.02712
C 1.17011 23.46857 0.00723
C 34.42499 24.18868 0.03076
C 32.00849 11.42632 0.00137
C 33.227 10.68495 0.00199
C 33.18699 9.23561 0.04381
C 31.98976 8.49489 0.02806
C 31.98171 7.03217 0.01504
C 33.19838 6.39722 -0.00069
C 33.17581 5.00802 0.04926
C 31.9437 4.27718 -0.03838
C 31.91577 2.80941 0.00349
C 33.22454 13.51288 -0.00644
C 33.15278 2.14034 -0.00323
C 31.89376 0.07187 0.0001
C 34.39252 32.68337 -0.02927
C 1.20745 31.97844 -0.01404
C 1.26597 30.58833 0.01027
C 0.02784 29.86236 0.01831
C 34.41014 28.44024 -0.01037
C 1.15187 27.70668 -0.00439
C 1.26552 26.29778 -0.00598
C 0.03654 25.59141 -0.05239
C 33.13424 0.81925 -0.00841
C 29.52053 29.8037 0.0014
C 30.77477 30.51309 0.01324
C 30.74206 31.92532 0.04266
C 23.29382 2.07766 -0.02845
C 23.3585 0.68154 -0.03213
C 21.97683 33.93299 0.02239
C 24.57571 32.66192 0.01153
C 25.82951 31.96013 0.02734
C 25.84943 30.46028 -0.0055
C 24.53327 29.77342 0.01515
C 24.54946 28.32124 -0.00225
C 25.77662 27.63002 0.00071
C 25.78664 26.23455 -0.01107
C 24.58043 25.44911 -0.01586
C 24.5753 24.01696 -0.01971
C 25.84796 23.37 -0.02118
C 25.84323 21.98296 0.00733
C 24.59194 21.34076 -0.00178
C 24.61283 19.89066 0.00768
C 25.75695 19.10031 -0.0276
C 25.75827 17.73213 0.03005
C 24.56012 16.98065 -0.04078
C 22.14831 2.83492 0.03374
C 22.11099 4.26577 0.0296
C 23.34448 4.96547 0.03046
C 23.37701 6.36194 -0.00381
C 22.00032 32.53699 -0.00865
C 23.2853 31.88016 0.00675
C 23.42258 30.51622 -0.00311
C 23.56178 27.49378 0.00742
C 23.48111 26.16324 -0.01594
C 22.12054 24.02061 0.0106
C 23.35198 23.31615 -0.01154
C 23.33575 21.96642 -0.01721
C 22.16334 21.20001 -0.02422
C 24.45321 15.54566 0.02117
C 22.14815 19.79763 0.01277
C 23.34395 17.73365 -0.01527
C 22.16426 17.06256 0.01087
C 22.30152 15.66996 0.00199
C 22.122 12.69619 0.01511
C 22.19627 11.37188 -0.00478
C 23.45838 10.68718 -0.01662
C 23.32751 9.27662 -0.01185
C 22.04882 8.54904 0.01126
C 22.06837 7.15726 0.01852
C 23.4099 19.09345 0.00096
C 25.63 14.85215 0.02737
C 25.8217 13.46766 -0.00498
C 24.72709 11.24254 0.00135
C 28.25226 19.16678 -0.00942
C 28.28464 17.76048 0.00487
C 27.02264 17.1063 0.00826
C 27.01117 15.73099 -0.00294
C 28.18901 14.93803 0.00152
C 28.27285 13.49162 0.01257
C 27.01844 12.83715 0.02316
C 27.06741 11.38004 0.04185
C 28.32422 10.67521 0.00194
C 26.93185 19.82306 -0.02815
C 28.23645 9.23834 -0.00621
C 27.0398 7.08455 0.02198
C 28.24577 6.37583 0.01094
C 28.30354 4.97232 0.00235
C 26.97321 4.22835 0.01495
C 27.11652 2.85006 0.01259
C 28.23665 2.13259 0.01799
C 28.29601 0.7047 0.01699
C 27.05077 0.00104 -0.00416
C 29.48876 32.65214 0.01177
C 27.03377 8.5037 0.02611
C 20.78124 0.71273 -0.00652
C 27.03494 21.18024 0.00622
C 28.26467 23.32243 -0.00037
C 25.91631 10.59487 0.03102
C 25.77629 9.19463 0.02555
C 24.44732 8.47574 0.01423
C 24.51398 7.05839 -0.00285
C 25.78845 6.45431 -0.009
C 25.7998 4.98123 -0.01199
C 24.58675 4.22153 -0.00229
C 24.59413 2.81 -0.00938
C 25.8698 2.11046 -0.0264
C 28.22035 21.91105 -0.0032
C 25.84706 0.71996 -0.01154
C 27.04882 32.67049 -0.01052
C 28.28643 31.96266 -0.01679
C 28.27012 30.49664 0.00367
C 27.07464 29.80385 0.04306
C 27.07819 28.42933 0.00996
C 28.24365 27.65893 0.00195
C 28.26322 26.15531 -0.00802
C 27.03831 25.5035 -0.00218
C 27.012 24.11675 -0.01654
C 24.57363 34.06303 0.00684
C 2.4224 32.7017 0.00643
