358
Graphene
C 34.39697 0.03429 0.01295
C 13.4582 30.46669 -0.01957
C 12.22428 29.86351 -0.0108
C 12.28447 28.48451 -0.00368
C 13.4883 27.74397 -0.02696
C 13.54678 26.28891 -0.00114
C 12.3327 25.46927 0.00228
C 12.13709 24.17392 0.00798
C 12.14741 11.38376 0.00422
C 13.49248 31.94256 0.02058
C 12.15593 8.29952 0.0351
C 12.41989 4.23234 0.02098
C 12.36783 2.87947 0.01848
C 13.62195 2.12479 -0.00619
C 13.61333 0.70135 -0.02162
C 12.35745 0.02784 0.00889
C 14.76383 32.55727 -0.00481
C 15.96979 31.87705 0.00979
C 15.88827 30.40833 0.01443
C 12.39362 7.09811 -0.03113
C 14.71806 29.71094 0.03505
C 12.29414 32.70993 0.01965
C 11.07808 0.77719 0.00052
C 10.95673 30.62999 0.01363
C 9.77461 29.95565 -0.02162
C 9.87055 28.51886 0.00415
C 11.0741 27.75717 -0.0014
C 11.0888 26.31284 0.02162
C 9.86276 25.60524 0.0076
C 9.66484 24.1127 0.01241
C 9.78694 12.8902 -0.01454
C 9.81722 34.02762 -0.03682
C 9.86674 11.452 0.01945
C 11.18856 9.16893 0.03542
C 9.88462 8.46923 0.02299
C 9.87292 7.02984 0.00244
C 11.17637 6.33201 -0.01717
C 11.20085 4.90853 0.05265
C 9.92918 4.19381 -0.01952
C 9.84673 2.80382 -0.02813
C 11.07697 2.11445 0.00374
C 11.09064 10.61482 0.01416
C 14.77979 28.34101 -0.02815
C 15.99641 27.69981 -0.04147
C 15.99155 26.27716 -0.05302
C 18.20512 13.58953 -0.0054
C 18.56022 2.22472 0.00667
C 18.40261 0.83547 0.00143
C 17.18555 0.03825 -0.017
C 19.64865 32.5477 0.00364
C 20.89593 31.9376 -0.00831
C 20.93188 30.49066 -0.02957
C 19.6797 29.81834 -0.04422
C 18.41303 14.83332 0.00755
C 19.69504 28.34757 0.00654
C 20.96155 26.25039 -0.04076
C 19.64222 25.54806 -0.00652
C 19.66165 24.15249 0.0058
C 20.87542 23.40145 -0.00865
C 20.83627 21.99237 0.00675
C 19.6041 21.2964 -0.00311
C 19.56918 19.86447 0.00742
C 20.7879 19.15384 -0.01594
C 20.90791 27.70646 -0.00703
C 18.56673 17.8741 0.01739
C 18.4455 19.05318 0.03754
C 18.42309 21.98017 -0.03557
C 14.77412 25.60114 0.00213
C 14.72761 24.1968 -0.00066
C 15.7961 23.67288 -0.00289
C 16.00941 13.47617 0.00028
C 14.99345 12.72566 -0.02213
C 14.8602 2.76121 0.03698
C 15.96332 2.1817 -0.00109
C 16.02984 0.79099 -0.00491
C 14.83066 34.03723 0.03338
C 17.18454 32.64091 -0.0258
C 18.39992 31.8997 -0.0331
C 18.44121 30.46775 -0.00316
C 17.14199 29.81544 0.02188
C 17.18381 28.43642 -0.01979
C 18.44905 27.68466 0.02691
C 18.45301 26.28847 -0.01581
C 17.24705 25.52617 0.01452
C 17.11903 24.12494 0.04892
C 18.36016 23.33747 -0.00111
C 11.07561 32.0228 0.01877
C 9.83708 32.69783 -0.00925
C 7.3577 0.01239 0.00444
C 8.60097 0.64599 -0.01789
C 3.63607 6.38291 -0.01142
C 3.62761 4.98248 -0.00562
C 2.43153 4.26882 -0.00494
C 2.46447 2.82812 0.00054
C 3.72914 2.20044 0.03007
C 3.71231 0.74363 -0.00095
C 2.49521 0.00073 0.01572
C 4.92818 32.68627 -0.04848
C 2.43437 7.10125 0.01849
C 6.11235 31.98258 -0.00892
C 4.93169 29.8147 -0.0008
C 4.88267 28.385 0.0288
C 6.09688 27.70211 0.00393
C 6.12661 26.32516 0.00895
C 4.93508 25.57305 0.00685
C 4.9492 24.15824 0.02888
C 6.13624 23.46261 -0.00482
C 6.17958 21.95652 -0.01384
C 6.1764 30.54646 -0.01362
C 2.43793 8.57411 0.01396
C 3.65581 9.33861 0.0127
C 3.59069 10.7963 0.02635
C 3.68914 30.49933 0.02322
C 2.39306 29.84348 -0.00725
C 2.45128 28.34937 -0.05697
C 3.67079 27.69173 0.01087
C 3.67405 26.26386 -0.01343
C 2.46462 25.54532 0.00988
C 2.49522 24.10716 0.0276
C 3.74761 23.42739 0.01305
C 3.68945 22.01646 -0.00077
C 2.42805 21.29918 0.03368
C 2.42665 19.96547 -0.02929
C 3.64166 19.17799 -0.00966
C 3.70773 17.74722 -0.03337
C 2.44008 17.0118 0.01227
C 2.4959 15.58391 0.00873
C 3.73286 14.91489 -0.00049
C 3.74134 13.53368 0.00848
C 2.40489 12.79594 -0.01303
C 2.38554 11.39848 -0.01378
C 4.81727 21.25106 0.03693
C 20.96183 17.68767 0.0106
C 4.91556 19.90331 0.01745
C 6.23515 17.88097 -0.01004
C 8.65893 26.32875 0.03592
C 7.38969 25.6134 0.00406
C 7.37494 24.14897 0.00943
C 8.64476 23.41306 0.02841
C 7.28174 21.21698 -0.01111
C 7.39475 15.64169 -0.01275
C 8.61536 13.34035 0.00985
C 7.39297 12.85538 -0.02245
C 8.64405 27.79671 0.00572
C 7.3687 11.42163 -0.00428
C 8.68651 9.33931 -0.01536
C 7.52222 8.57255 -0.02689
C 7.4736 7.08562 -0.01046
C 8.60699 6.29606 -0.00891
C 8.60061 4.82545 0.02819
C 7.27746 4.23591 0.00165
C 7.29809 2.80995 -0.02971
C 8.52803 2.06439 0.02894
C 8.60573 10.73961 0.03101
C 7.34199 28.39598 0.0402
C 7.34916 29.88387 -0.02759
C 8.53092 30.62046 0.03589
C 4.97439 17.08823 -0.02896
C 4.94381 15.66253 -0.00131
C 6.24036 15.04695 -0.01118
C 6.17822 13.54725 -0.014
C 4.92028 12.80763 0.02147
C 4.89927 11.42585 0.00373
C 6.1257 10.65766 -0.00191
C 6.183 9.28954 0.00438
C 4.93634 8.62241 0.01291
C 4.88181 7.20336 0.00093
C 6.16618 6.571 0.00057
C 6.11931 5.09497 -0.01634
C 4.89473 4.33621 -0.00334
C 4.91809 2.92907 0.02339
C 6.08647 2.12433 0.01641
C 6.08107 0.70914 -0.00719
C 4.90312 0.02088 0.01364
C 7.32993 32.6711 -0.01062
C 8.62373 31.99787 -0.00033
C 6.1781 19.13427 0.00488
C 19.67461 17.00398 -0.01154
C 19.53415 15.60334 -0.01721
C 20.86123 15.18865 -0.02422
C 31.98894 32.61332 0.01713
C 33.1864 31.9819 -0.01694
C 33.18287 30.56355 0.01428
C 31.99649 29.84756 -0.02142
C 32.02197 28.42054 0.0544
C 33.23637 27.7097 0.00026
C 33.12089 26.27267 0.00682
C 31.93067 25.59675 -0.01779
C 29.59759 0.04664 0.00346
C 31.90637 24.15114 0.03794
C 33.1258 22.05102 0.01574
C 31.84263 21.24505 -0.02383
C 31.94672 19.84986 -0.01429
C 33.21323 19.19392 -0.0136
C 33.25832 17.77585 0.00594
C 32.00707 16.97025 -0.02474
C 32.0113 15.61211 0.00369
C 33.24485 14.83682 0.00455
C 33.12371 23.47823 0.01927
C 30.77983 0.7512 0.00307
C 30.78894 2.17258 0.00716
C 29.50963 2.83798 0.02108
C 30.68222 23.43759 -0.01854
C 30.67133 22.02887 -0.01415
C 29.4267 21.31576 -0.03039
C 29.51368 19.9312 0.01836
C 30.76138 19.10223 0.03531
C 30.72849 17.70842 -0.00669
C 29.51473 17.05438 0.0101
C 29.49732 15.64314 0.01705
C 30.6945 14.91289 -0.0405
C 30.70864 13.5016 -0.01303
C 29.44906 12.79838 -0.01461
C 29.51633 11.3701 -0.02155
C 30.74606 10.64987 -0.00944
C 30.77629 9.19269 -0.03735
C 29.59404 8.46625 -0.00971
C 29.51697 7.06384 0.01518
C 30.77948 6.38127 0.01908
C 30.69417 4.97236 0.07705
C 29.5119 4.25603 0.0103
C 33.1967 13.42548 -0.00644
C 29.38518 24.17977 -0.02049
C 32.00361 12.74907 -0.01839
C 33.23814 10.63561 0.00199
C 1.25157 19.16 -0.01678
C 1.23571 17.73845 0.01223
C 34.41238 17.05327 0.00648
C 0.01772 15.58294 0.02114
C 1.2618 14.8911 -0.02957
C 1.1663 13.53078 0.00343
C 0.05805 12.75859 -0.02656
C 34.41911 11.26675 -0.02442
C 0.01065 19.96049 0.01951
C 1.22559 10.60891 -0.00027
C 34.41447 8.50451 -0.02302
C 34.36703 7.05902 -0.02849
C 1.21634 6.46982 0.02931
C 1.21041 5.0108 0.00628
C 34.42023 4.33713 -0.0345
C 34.40716 2.86495 -0.00931
C 1.23673 2.12495 -0.00939
C 1.20328 0.7274 -0.00468
C 1.20522 9.23499 -0.00583
C 34.41292 21.34315 -0.02213
C 1.19495 22.06625 0.02712
C 1.22873 23.46756 0.00723
C 33.24146 9.21297 0.04381
C 32.01461 8.56507 0.02806
C 32.00684 7.09617 0.01504
C 33.16777 6.3567 -0.00069
C 33.14866 4.92369 0.04926
C 31.93725 4.23017 -0.03838
C 31.97376 2.83314 0.00349
C 33.23476 2.12103 -0.00323
C 33.1611 0.69142 -0.00841
C 31.95436 34.00906 0.0001
C 0.00585 32.69616 -0.02927
C 1.19717 32.00336 -0.01404
C 1.1924 30.53921 0.01027
C 34.40382 29.88484 0.01831
C 0.01608 28.4074 -0.01037
C 1.20288 27.6971 -0.00439
C 1.15255 26.23731 -0.00598
C 34.34428 25.54304 -0.05239
C 34.40584 24.15227 0.03076
C 31.98209 11.39971 0.00137
C 3.67334 31.89711 -0.00094
C 29.45853 25.5494 0.03265
C 30.81059 27.75646 0.02326
C 22.00913 2.93052 0.00071
C 23.31253 2.22246 -0.01107
C 23.36934 0.76088 -0.01586
C 22.12422 34.06203 -0.01971
C 24.62831 32.65839 -0.02118
C 25.86549 31.90971 0.00733
C 25.80621 30.54551 -0.00178
C 24.59792 29.83619 0.00768
C 22.09211 4.38641 -0.00225
C 24.55506 28.28582 -0.0276
C 24.49269 25.49836 -0.04078
C 24.58389 24.11567 0.02117
C 25.74389 23.37729 0.02737
C 25.784 21.97253 -0.00498
C 24.60504 21.2329 0.00135
C 24.56212 19.87812 0.03102
C 25.78469 19.14937 0.02555
C 25.80237 17.70254 0.01423
C 25.84055 27.73734 0.03005
C 23.31411 5.00165 0.01515
C 23.54792 6.40098 -0.0055
C 22.01596 15.56067 0.02734
C 20.8736 2.09637 0.01277
C 20.91823 0.74282 0.00096
C 19.64909 33.9934 -0.01527
C 22.10495 32.70132 0.01087
C 23.34426 31.9669 0.00199
C 23.3592 30.53802 0.01511
C 22.11714 29.84647 -0.00478
C 22.09 28.39597 -0.01662
C 23.28403 27.68083 -0.01185
C 23.33261 26.25488 0.01126
C 22.1538 25.48785 0.01852
C 22.15453 24.04604 -0.00381
C 23.33674 23.37902 0.03046
C 23.36185 21.94506 0.0296
C 22.11677 21.24668 0.03374
C 22.05076 19.85304 -0.02845
C 23.26743 19.11858 -0.03213
C 23.42538 17.61562 0.02239
C 22.20312 16.93745 0.01153
C 24.59295 16.98968 -0.00285
C 30.69443 26.31272 0.00261
C 24.64339 15.61428 -0.009
C 25.79123 6.29029 -0.00229
C 28.26931 14.89557 0.02316
C 28.2629 13.47482 0.04185
C 28.48076 10.52649 0.00194
C 28.2835 9.16734 -0.00621
C 27.10958 8.43395 0.02611
C 26.96206 7.07507 0.02198
C 28.27406 6.38006 0.01094
C 28.22799 4.98826 0.00235
C 26.96268 15.55025 0.01257
C 27.04905 4.28131 0.01495
C 28.26308 2.15472 0.01799
C 28.36315 0.75349 0.01699
C 27.14727 0.01947 -0.00416
C 29.54472 32.65907 0.01177
C 30.71545 31.91595 0.04266
C 30.7046 30.51829 0.01324
C 29.52741 29.82575 0.0014
C 29.56545 28.42512 0.00924
C 27.02498 2.83292 0.01259
C 27.06607 17.03137 0.00152
C 28.28277 17.7713 -0.00294
C 28.3277 19.20191 0.00826
C 25.81478 4.9478 -0.00938
C 24.60086 4.26864 -0.0264
C 24.52838 2.88343 -0.01154
C 25.81996 2.19602 0.00684
C 25.92303 0.74112 -0.01052
C 24.60314 0.0246 -0.01679
C 27.05325 32.65323 0.00367
C 28.29286 31.92398 0.04306
C 28.27583 30.51312 0.00996
C 27.05103 29.8402 0.00195
C 27.07763 28.3789 -0.00802
C 28.41086 27.67002 -0.00218
C 28.20834 26.31253 -0.01654
C 27.07748 25.55764 -0.00037
C 26.84659 24.19069 -0.0032
C 28.12886 23.43448 0.00622
C 28.15199 22.03581 -0.02815
C 26.99062 21.26467 -0.00942
C 26.9793 19.88583 0.00487
C 25.66628 14.89366 -0.01199
C 2.44186 32.61018 -0.02566
