373
Graphene
C 34.39808 0.03475 0.01295
C 16.03075 6.43743 0.00244
C 15.97777 5.00214 -0.01717
C 14.73951 4.29597 0.05265
C 14.83363 2.89112 -0.01952
C 16.05136 2.16219 -0.02813
C 15.98162 0.73954 0.00374
C 14.73214 0.07356 0.00052
C 17.17703 32.57966 -0.03682
C 18.41532 31.85923 0.01965
C 18.45379 30.46733 0.02058
C 17.24901 29.72634 -0.01957
C 17.25637 28.27541 -0.0108
C 18.46945 27.58119 -0.00368
C 18.55401 26.2997 -0.02696
C 17.1893 15.6934 -0.00114
C 18.32702 14.84194 0.00228
C 18.39881 13.36721 0.00798
C 17.15923 12.6775 0.00422
C 17.16832 11.32305 0.0351
C 14.76379 7.08744 0.02299
C 18.49913 10.62495 -0.03113
C 14.74984 8.50046 0.03542
C 15.94987 10.64011 0.01945
C 13.52099 9.26517 -0.02689
C 12.29687 8.49883 -0.01046
C 12.29333 7.1299 -0.00891
C 13.52652 6.40245 0.02819
C 13.52294 4.97042 0.00165
C 12.26349 4.27893 -0.02971
C 12.29066 2.89662 0.02894
C 13.56036 2.1847 -0.01789
C 13.49297 0.79051 0.00444
C 12.26022 0.11617 -0.00925
C 14.73808 32.67067 0.01877
C 15.9602 31.91597 0.01363
C 16.02977 30.49264 -0.02162
C 14.79353 29.80785 0.00415
C 15.02973 28.47075 -0.0014
C 15.96146 27.63507 0.02162
C 15.98553 13.55752 0.0076
C 14.76949 12.83896 0.01241
C 14.69069 11.37812 -0.01454
C 15.98179 9.20214 0.01416
C 18.47929 9.26764 0.02098
C 17.25716 8.59351 0.01848
C 17.24529 7.13492 -0.00619
C 20.8393 14.99232 -0.01581
C 20.83126 13.5388 0.01452
C 19.64384 12.72315 0.04892
C 19.65882 11.28508 -0.00111
C 20.93534 10.64325 -0.03557
C 20.90088 9.1934 0.03754
C 19.697 8.52444 0.01739
C 19.68492 7.11062 0.00755
C 20.88781 6.42178 -0.0054
C 20.98438 4.97169 0.00667
C 19.7368 4.27414 0.00143
C 19.71295 2.8419 -0.017
C 20.91702 2.06719 0.00364
C 20.82691 0.6897 -0.00831
C 19.65278 34.04152 -0.02957
C 22.10836 32.57868 -0.04422
C 23.35637 31.86766 0.00654
C 23.41853 30.51258 -0.00703
C 22.11245 29.81137 -0.04076
C 19.55207 15.67593 0.02691
C 19.62519 17.07043 -0.01979
C 20.79591 17.78124 0.02188
C 20.86208 19.16285 -0.00316
C 18.47833 6.36802 -0.02162
C 18.48748 4.93404 0.00889
C 17.23993 4.28928 -0.00481
C 17.27202 2.90909 0.00979
C 18.45576 2.16483 0.01443
C 18.46212 0.78576 0.03505
C 17.23604 0.01391 -0.02815
C 19.59182 32.57293 -0.04147
C 20.88766 31.90221 -0.05302
C 13.48668 10.68789 -0.01536
C 20.90579 30.52653 0.00213
C 19.67444 28.39517 -0.00289
C 20.81606 27.68411 0.00028
C 20.83955 26.28115 -0.02213
C 19.60291 25.42218 0.03698
C 19.64256 24.09045 -0.00109
C 20.87467 23.45541 -0.00491
C 20.85394 21.98463 0.03338
C 19.69638 21.10721 -0.0258
C 19.63281 19.96103 -0.0331
C 19.69454 29.78912 -0.00066
C 12.27832 11.40404 0.03101
C 12.36692 12.79806 -0.00428
C 13.39215 13.27486 -0.02245
C 2.45101 2.86567 0.03368
C 3.67595 2.1638 -0.02929
C 3.66887 0.72592 -0.00966
C 2.48602 0.02122 -0.03337
C 4.9301 32.69971 0.01227
C 6.13949 31.97608 0.00873
C 6.12112 30.54748 -0.00049
C 4.91658 29.83238 0.00848
C 4.82285 28.41863 -0.01303
C 6.21543 27.85208 -0.01378
C 4.89981 15.57818 0.02635
C 6.05182 13.61094 0.0127
C 4.96086 12.84593 0.01396
C 4.98401 11.36753 0.01849
C 6.16205 10.68006 -0.01142
C 6.09523 9.30914 -0.00562
C 4.89227 8.60898 -0.00494
C 4.92314 7.13031 0.00054
C 6.1416 6.38184 0.03007
C 2.4274 4.27197 -0.00077
C 3.62533 4.95315 0.01305
C 3.76009 6.39096 0.0276
C 2.5152 7.1484 0.00988
C 3.69243 30.51328 0.0174
C 2.46766 29.80973 0.03828
C 2.38743 28.4351 0.01226
C 3.70111 27.71485 -0.00279
C 3.58007 26.3802 0.01996
C 2.59424 25.50227 -0.03996
C 2.43275 24.07146 0.01465
C 2.3604 21.31202 -0.00074
C 2.67032 19.9583 -0.00518
C 6.0744 4.91436 -0.00095
C 3.79434 18.99951 0.0086
C 2.39866 17.0449 0.017
C 2.37827 15.66818 -0.03113
C 3.6985 15.00138 -0.02566
C 3.69789 13.50401 -0.00094
C 2.5043 12.79806 0.02322
C 2.46754 11.34476 -0.00725
C 3.76554 10.68315 -0.05697
C 3.68846 9.29961 0.01087
C 2.50476 8.6052 -0.01343
C 3.55624 17.81046 -0.00643
C 22.05071 28.36906 -0.00652
C 4.86165 4.21439 0.01572
C 6.16504 2.1376 -0.00892
C 9.80575 29.80734 -0.01634
C 9.8117 28.47838 -0.00334
C 9.72502 12.93135 0.02339
C 9.91687 11.46411 0.01641
C 11.07949 10.66587 -0.00719
C 11.12763 9.25147 0.01364
C 9.81478 8.52353 -0.01062
C 9.79514 7.05364 -0.00033
C 11.06359 6.38061 0.03589
C 10.99136 4.95924 -0.02759
C 9.72586 4.24646 0.0402
C 9.79392 2.84961 0.00572
C 11.0697 2.14977 0.03592
C 11.02775 0.75297 0.00406
C 9.83508 0.02833 0.00943
C 12.29791 32.73901 0.02841
C 13.51023 32.05366 -0.01111
C 13.5154 30.51654 -0.01275
C 12.30988 29.86278 0.00985
C 11.13321 30.53654 0.00057
C 11.07745 31.98346 0.00093
C 9.92863 32.66606 0.01291
C 7.3601 0.06495 0.00438
C 6.18228 0.76097 -0.01362
C 4.95208 0.01318 -0.0008
C 7.38455 32.7594 0.0288
C 8.6017 32.02781 0.00393
C 8.55044 30.65162 0.00895
C 7.40057 29.82434 0.00685
C 7.28004 28.41182 0.02888
C 8.65666 13.36344 -0.00482
C 7.32043 12.99328 -0.01384
C 4.96967 2.83 -0.04848
C 7.40382 11.39989 0.03693
C 8.62452 9.30672 0.00488
C 7.37185 8.58523 -0.01004
C 7.32397 7.11992 -0.02896
C 8.50765 6.36872 -0.00131
C 8.47468 4.99067 -0.01118
C 7.34277 4.2335 -0.014
C 7.36551 2.85138 0.02147
C 8.58836 2.13556 0.00373
C 8.58484 0.73711 -0.00191
C 8.6645 10.7802 0.01745
C 3.69383 31.93458 0.0073
C 23.28344 27.65945 0.0058
C 22.06495 25.55272 0.00675
C 30.79851 2.16072 0.00716
C 30.65987 0.75023 0.00307
C 29.47897 34.07374 0.00346
C 31.91704 32.66076 0.01713
C 33.14002 31.9859 -0.01694
C 33.14284 30.53561 0.01428
C 31.95014 29.82576 -0.02142
C 31.98049 28.39144 0.0544
C 33.23309 27.68818 0.00026
C 33.19691 26.27691 0.00682
C 31.9641 25.59235 -0.01779
C 32.02423 24.16873 0.03794
C 33.20248 23.43012 0.01927
C 33.21125 22.03076 0.01574
C 31.96184 21.29047 -0.02383
C 31.90703 19.90329 -0.01429
C 33.14432 19.19821 -0.0136
C 33.21255 17.78454 0.00594
C 32.01527 16.97947 -0.02474
C 29.56111 2.83362 0.02108
C 31.97966 15.56955 0.00369
C 29.54618 4.32084 0.0103
C 30.76583 6.40636 0.01908
C 30.73647 26.22538 0.00261
C 29.47544 25.54563 0.03265
C 29.54236 24.16467 -0.02049
C 30.80285 23.43675 -0.01854
C 30.7889 21.99521 -0.01415
C 29.50895 21.25543 -0.03039
C 29.5197 19.89947 0.01836
C 30.74531 19.14419 0.03531
C 30.7458 17.70789 -0.00669
C 29.58702 16.97005 0.0101
C 29.51961 15.56077 0.01705
C 30.72943 14.85861 -0.0405
C 30.71772 13.43754 -0.01303
C 29.48942 12.76814 -0.01461
C 29.44031 11.36441 -0.02155
C 30.66481 10.67707 -0.00944
C 30.75412 9.17628 -0.03735
C 29.54052 8.54475 -0.00971
C 29.54697 7.14157 0.01518
C 30.71459 5.00932 0.07705
C 33.20577 14.90553 0.00455
C 33.17404 13.45372 -0.00644
C 31.98551 12.74136 -0.01839
C 34.42972 19.86276 0.01951
C 1.23831 19.16899 -0.01678
C 1.20103 17.79344 0.01223
C 34.41307 17.11922 0.00648
C 34.4291 15.64362 0.02114
C 1.22256 14.98671 -0.02957
C 1.24657 13.52517 0.00343
C 0.03102 12.8341 -0.02656
C 34.41668 11.35312 -0.02442
C 1.22489 10.63528 -0.00027
C 1.24335 9.25778 -0.00583
C 0.04197 8.52484 -0.02302
C 34.41203 7.0837 -0.02849
C 1.26063 6.46017 0.02931
C 1.21754 5.02916 0.00628
C 34.39945 4.28943 -0.0345
C 34.4129 2.78679 -0.00931
C 1.20313 2.10336 -0.00939
C 1.19756 0.73023 -0.00468
C 34.41861 21.25059 -0.02213
C 1.22225 22.02192 0.02712
C 1.21482 23.42615 0.00723
C 34.43231 24.15847 0.03076
C 31.93288 11.36366 0.00137
C 33.19335 10.68486 0.00199
C 33.2629 9.21985 0.04381
C 31.99459 8.56873 0.02806
C 32.01497 7.12154 0.01504
C 33.16279 6.34212 -0.00069
C 33.16827 4.94307 0.04926
C 31.94884 4.24831 -0.03838
C 31.97465 2.82265 0.00349
C 30.75392 27.68962 0.02326
C 33.16241 2.1034 -0.00323
C 31.8779 0.00757 0.0001
C 34.40811 32.71759 -0.02927
C 1.22407 32.00443 -0.01404
C 1.21558 30.58488 0.01027
C 34.42726 29.87647 0.01831
C 0.0001 28.38323 -0.01037
C 1.221 27.73392 -0.00439
C 1.20531 26.2453 -0.00598
C 34.41465 25.51897 -0.05239
C 33.15623 0.71964 -0.00841
C 29.54747 28.43737 0.00924
C 29.48841 29.83398 0.0014
C 30.71291 30.48809 0.01324
C 24.5467 32.58415 0.02239
C 25.7485 31.93228 0.01153
C 25.8499 30.54395 0.02734
C 24.61268 29.76751 -0.0055
C 24.54812 28.36778 0.01515
C 25.77169 27.6541 -0.00225
C 25.80847 26.22523 0.00071
C 24.57661 25.56185 -0.01107
C 24.61768 24.09564 -0.01586
C 25.90087 23.42867 -0.01971
C 25.86961 22.00687 -0.02118
C 24.58444 21.2777 0.00733
C 24.57042 19.87821 -0.00178
C 25.83111 19.10323 0.00768
C 25.81058 17.66335 -0.0276
C 24.58379 16.9603 0.03005
C 24.62465 15.58777 -0.04078
C 25.88438 14.95784 0.02117
C 25.82052 13.52179 0.02737
C 22.05861 34.01007 -0.03213
C 23.24967 0.62983 -0.02845
C 23.28291 2.05123 0.03374
C 22.11431 2.8353 0.0296
C 22.16482 24.13165 -0.00311
C 23.357 23.3922 0.00742
C 23.24574 22.01798 -0.01594
C 22.04139 21.24151 0.0106
C 22.10577 19.79124 -0.01154
C 23.35585 19.10422 -0.01721
C 23.37427 17.69787 -0.02422
C 22.14453 16.99738 0.01277
C 22.19028 15.60229 0.00096
C 24.56469 12.77369 -0.00498
C 23.39171 14.80763 -0.01527
C 22.04974 12.79748 0.00199
C 22.16441 11.34492 0.01511
C 23.41349 10.6216 -0.00478
C 23.35029 9.20597 -0.01662
C 22.14304 8.46607 -0.01185
C 22.10711 7.0757 0.01126
C 23.3551 6.35593 0.01852
C 23.41793 4.95644 -0.00381
C 22.1757 4.28249 0.03046
C 23.31034 13.43146 0.01087
C 23.34289 26.2604 -0.00865
C 24.6037 11.36308 0.00135
C 25.8248 9.28822 0.02555
C 27.14598 17.12061 0.00826
C 27.13394 15.65788 -0.00294
C 28.32201 14.89524 0.00152
C 28.26365 13.44642 0.01257
C 27.04557 12.84539 0.02316
C 27.00291 11.43221 0.04185
C 28.21781 10.69636 0.00194
C 28.28947 9.25161 -0.00621
C 27.04279 8.52017 0.02611
C 27.03143 7.10484 0.02198
C 28.28143 6.47385 0.01094
C 28.26792 5.02591 0.00235
C 27.07188 4.31561 0.01495
C 27.10419 2.82569 0.01259
C 28.35336 2.12823 0.01799
C 28.21482 0.69784 0.01699
C 26.96259 34.04982 -0.00416
C 29.53046 32.63086 0.01177
C 30.68531 31.91483 0.04266
C 28.37187 17.85364 0.00487
C 28.31304 19.2303 -0.00942
C 27.0182 19.84892 -0.02815
C 27.05709 21.23184 0.00622
C 24.59926 8.47548 0.01423
C 24.51519 7.1202 -0.00285
C 25.75575 6.38362 -0.009
C 25.76948 4.96633 -0.01199
C 24.606 4.15234 -0.00229
C 24.49543 2.7433 -0.00938
C 25.82414 2.1558 -0.0264
C 25.70823 0.71123 -0.01154
C 24.51904 34.06663 0.00684
C 25.83651 10.68762 0.03102
C 27.01759 32.64579 -0.01052
C 28.25308 30.50587 0.00367
C 27.00494 29.75803 0.04306
C 27.04837 28.34053 0.00996
C 28.32077 27.65909 0.00195
C 28.29088 26.24905 -0.00802
C 27.05164 25.6055 -0.00218
C 27.14006 24.18692 -0.01654
C 28.30854 23.4164 -0.00037
C 28.26335 21.91845 -0.0032
C 28.23543 31.94705 -0.01679
C 2.44398 32.69052 0.00402
