430
Graphene
C 0.02699 34.07808 0.01295
C 12.40102 4.33087 -0.00033
C 12.30792 2.89768 0.03589
C 13.4739 2.17827 -0.02759
C 13.55479 0.75081 0.0402
C 12.34119 0.03475 0.00572
C 14.76848 32.65542 0.03592
C 15.91962 31.88977 0.00406
C 15.89254 30.46842 0.00943
C 14.68767 29.72328 0.02841
C 14.755 28.28808 -0.01111
C 13.58856 4.98651 -0.01062
C 16.0037 27.66991 -0.01275
C 14.78041 25.54329 -0.02245
C 14.76712 24.15333 -0.00428
C 15.98925 23.38814 0.03101
C 15.93574 22.00426 -0.01536
C 14.63127 21.13372 -0.02689
C 14.74044 19.6316 -0.01046
C 15.97152 19.1256 -0.00891
C 15.99221 17.67761 0.02819
C 14.70871 17.03868 0.00165
C 14.82169 15.6409 -0.02971
C 15.99631 26.26694 0.00985
C 13.51547 6.43655 0.01364
C 12.21906 7.20581 -0.00719
C 12.21434 8.58443 0.01641
C 11.03614 2.17119 0.00895
C 11.11585 0.74738 0.00685
C 9.83949 0.1326 0.02888
C 12.30241 32.71091 -0.00482
C 13.55658 32.04418 -0.01384
C 13.51888 30.55661 0.03693
C 12.29728 29.9532 0.01745
C 12.3202 28.41757 0.00488
C 13.53974 27.65779 -0.01004
C 13.59913 26.21204 -0.02896
C 12.34126 25.51086 -0.00131
C 12.42646 24.26428 -0.01118
C 13.47944 23.32445 -0.014
C 13.59211 21.9346 0.02147
C 13.40749 17.61121 0.00373
C 12.31684 17.06628 -0.00191
C 12.30495 15.65276 0.00438
C 13.61409 14.90662 0.01291
C 13.54774 13.51797 0.00093
C 12.26437 12.90285 0.00057
C 12.28123 11.4185 -0.01634
C 13.4302 10.68203 -0.00334
C 13.47383 9.26608 0.02339
C 16.00927 14.93392 0.02894
C 16.00763 13.43561 -0.01789
C 14.76241 12.81206 0.00444
C 14.72184 11.36666 -0.00925
C 17.20889 15.57557 -0.00114
C 18.37812 14.8943 0.00228
C 18.44353 13.48337 0.00798
C 17.28083 12.76746 0.00422
C 17.19601 11.3522 0.0351
C 18.45105 10.6008 -0.03113
C 18.4324 9.17081 0.02098
C 17.16051 8.50936 0.01848
C 17.15004 7.05631 -0.00619
C 18.4499 6.28733 -0.02162
C 18.43535 4.90369 0.00889
C 17.20674 4.26353 -0.00481
C 17.14757 2.86904 0.00979
C 18.39612 2.19986 0.01443
C 18.37639 0.79174 0.03505
C 17.14736 34.06206 -0.02815
C 19.67227 32.63002 -0.04147
C 20.93164 31.93396 -0.05302
C 20.96811 30.52563 0.00213
C 19.73413 29.83783 -0.00066
C 19.72587 28.4142 -0.00289
C 20.91999 27.71013 0.00028
C 20.89197 26.29247 -0.02213
C 17.19842 17.02669 -0.02696
C 9.84587 2.89473 0.00393
C 18.43906 17.69646 -0.00368
C 17.23784 19.8625 -0.01957
C 15.94207 10.6641 0.01877
C 15.89239 9.24854 0.01363
C 14.70551 8.54098 -0.02162
C 14.69548 7.14186 0.00415
C 15.90215 6.4016 -0.0014
C 15.97268 5.00186 0.02162
C 14.80311 4.28196 0.0076
C 14.7446 2.81826 0.01241
C 15.90695 2.10204 -0.01454
C 15.95006 0.65143 0.01945
C 14.74441 34.03871 0.01416
C 17.17371 32.61359 0.03542
C 18.40092 31.97155 0.02299
C 18.45848 30.56311 0.00244
C 17.20277 29.85831 -0.01717
C 17.20658 28.45416 0.05265
C 18.50297 27.72227 -0.01952
C 18.4441 26.28847 -0.02813
C 17.1825 25.58225 0.00374
C 17.20836 24.18657 0.00052
C 18.40165 23.42554 -0.03682
C 18.33778 22.05537 0.01965
C 17.16567 21.34103 0.02058
C 18.41722 19.12022 -0.0108
C 9.84295 4.2938 0.0288
C 11.14741 4.97806 -0.0008
C 11.12415 6.43871 -0.01362
C 3.66304 2.12008 0.00245
C 3.63776 0.73906 0.02728
C 2.46459 0.02489 -0.00039
C 4.9565 32.71497 0.0064
C 6.12318 31.95025 0.00211
C 6.11097 30.51213 -0.00449
C 4.89224 29.80388 -0.01979
C 4.92739 28.33847 0.02784
C 6.23328 27.72016 -0.01977
C 6.17382 26.34088 -0.00561
C 4.94026 25.54454 0.00208
C 4.90696 24.1599 0.01707
C 6.18367 23.4346 0.02769
C 5.99475 22.11065 -0.03291
C 5.04327 21.25524 -0.04999
C 5.04871 19.80103 0.04505
C 6.25176 17.6988 0.03284
C 4.95624 17.02851 -0.04307
C 4.93944 15.58395 0.03189
C 6.14622 14.87355 0.00031
C 6.1226 13.47345 -0.003
C 4.81032 12.80047 0.01402
C 4.88355 11.43157 0.02379
C 2.47915 2.79576 0.00081
C 6.1225 10.72321 0.00907
C 2.47649 4.25063 -0.02805
C 3.74043 6.4267 -0.0059
C 3.70446 30.58765 0.01913
C 2.54218 29.81926 0.00267
C 2.43775 28.35151 0.00787
C 3.68002 27.62346 0.02426
C 3.7064 26.18513 0.01218
C 2.46286 25.51528 -0.01471
C 2.45537 24.12461 -0.02827
C 3.70072 23.45406 0.01078
C 3.67667 22.04782 -0.00112
C 2.43999 21.33504 0.03345
C 2.53632 19.90986 0.00748
C 3.8381 19.18174 0.00662
C 3.71893 17.65134 -0.0154
C 2.4516 17.00409 -0.01299
C 2.38203 15.54885 -0.00407
C 3.59847 14.84124 0.01138
C 3.56376 13.52524 0.03278
C 2.39288 12.76772 -0.00177
C 2.41723 11.34493 0.04421
C 3.66022 10.6731 0.00088
C 3.67681 9.24971 0.00828
C 2.46271 8.51214 -0.02375
C 2.43609 7.1304 0.00558
C 3.63692 5.00952 -0.01386
C 19.67314 25.58012 0.03698
C 6.14472 9.31907 0.00643
C 4.92832 7.18933 0.03267
C 8.57975 4.99057 0.03368
C 7.28652 4.33191 -0.02929
C 7.36965 2.91117 -0.00966
C 8.63836 2.19176 -0.03337
C 8.62584 0.80985 0.01227
C 7.33425 0.00494 0.00873
C 9.77935 32.76027 -0.00049
C 11.03392 32.04404 0.00848
C 10.97642 30.60867 -0.01303
C 9.82128 29.84669 -0.01378
C 9.82255 28.43144 0.02635
C 11.06974 27.70356 0.0127
C 11.07207 26.26099 0.01396
C 9.81145 25.64787 0.01849
C 9.83975 15.67504 -0.01142
C 11.06323 14.9768 -0.00562
C 11.00269 13.55448 -0.00494
C 9.75239 12.74311 0.00054
C 9.8142 11.36141 0.03007
C 11.04487 10.73245 -0.00095
C 11.05665 9.2697 0.01572
C 9.82672 8.60186 -0.04848
C 9.83889 7.15661 -0.00892
C 8.63223 6.42116 -0.00077
C 4.97086 8.57512 -0.01509
C 7.37323 7.08076 0.01305
C 8.54151 9.23092 0.00988
C 6.08818 6.3905 0.02374
C 6.02305 5.00243 0.00402
C 4.85217 4.21837 0.0073
C 4.92672 2.8404 0.0174
C 6.17969 2.17051 0.03828
C 6.14032 0.79736 0.01226
C 4.94448 0.00507 -0.00279
C 7.34757 32.67419 0.01996
C 8.59827 32.0082 -0.03996
C 8.59221 30.58715 0.01465
C 7.39502 29.86762 -0.00074
C 7.43488 28.443 -0.00518
C 8.60959 27.72695 0.0086
C 8.59501 26.3017 -0.00643
C 7.368 25.59032 0.017
C 7.21513 24.28531 -0.03113
C 7.31344 17.08889 -0.02566
C 7.45185 15.59125 -0.00094
C 8.7012 14.9649 0.02322
C 8.5554 13.52814 -0.00725
C 7.33034 12.80691 -0.05697
C 7.39959 11.41577 0.01087
C 8.59252 10.65174 -0.01343
C 7.35909 8.50556 0.0276
C 19.70686 24.19896 -0.00109
C 20.96069 23.44498 -0.00491
C 20.88914 21.97074 0.03338
C 30.74968 13.49775 -0.01303
C 29.57725 12.76164 -0.01461
C 29.53599 11.36173 -0.02155
C 30.72807 10.67714 -0.00944
C 30.67009 9.13725 -0.03735
C 29.47033 8.44695 -0.00971
C 29.50144 7.05674 0.01518
C 30.71667 6.31664 0.01908
C 30.72126 4.94609 0.07705
C 29.50422 4.2677 0.0103
C 29.54178 2.81778 0.02108
C 30.78137 2.10875 0.00716
C 30.73748 0.67417 0.00307
C 29.48739 34.0746 0.00346
C 32.05781 32.58047 0.01713
C 33.26364 31.91349 -0.01694
C 33.22064 30.44748 0.01428
C 31.94113 29.77096 -0.02142
C 31.92173 28.35074 0.0544
C 33.15422 27.65785 0.00026
C 33.18286 26.29225 0.00682
C 31.97406 25.62047 -0.01779
C 31.99638 24.18148 0.03794
C 30.63463 14.88072 -0.0405
C 33.19503 23.54778 0.01927
C 29.46536 15.58906 0.01705
C 30.72607 17.80078 -0.00669
C 27.01938 8.54815 0.02611
C 27.06374 7.09689 0.02198
C 28.22928 6.35635 0.01094
C 28.22411 4.97569 0.00235
C 26.9999 4.2777 0.01495
C 27.06289 2.87977 0.01259
C 28.26848 2.13558 0.01799
C 28.24028 0.67328 0.01699
C 26.98204 34.0093 -0.00416
C 29.59031 32.64186 0.01177
C 30.75273 31.90842 0.04266
C 30.72297 30.46862 0.01324
C 29.44964 29.77659 0.0014
C 29.48905 28.41586 0.00924
C 30.68343 27.65091 0.02326
C 30.74447 26.27355 0.00261
C 29.49167 25.61116 0.03265
C 29.53149 24.24907 -0.02049
C 30.77983 23.44924 -0.01854
C 30.75997 21.96668 -0.01415
C 29.45418 21.31954 -0.03039
C 29.52685 19.92976 0.01836
C 30.74208 19.22136 0.03531
C 29.51797 17.04533 0.0101
C 28.30817 9.17832 -0.00621
C 33.18016 22.11499 0.01574
C 31.99885 19.84134 -0.01429
C 0.01897 24.2074 0.03076
C 1.203 23.45352 0.00723
C 1.2044 22.03844 0.02712
C 34.39506 21.35295 -0.02213
C 0.04961 19.90364 0.01951
C 1.28237 19.11885 -0.01678
C 1.21394 17.69126 0.01223
C 34.40491 17.02823 0.00648
C 34.34275 15.58576 0.02114
C 1.15039 14.88273 -0.02957
C 1.18586 13.46597 0.00343
C 34.41691 12.7497 -0.02656
C 34.42322 11.30095 -0.02442
C 1.18804 10.63362 -0.00027
C 1.14894 9.27255 -0.00583
C 34.3096 8.50689 -0.02302
C 34.39851 7.04366 -0.02849
C 1.24691 6.37364 0.02931
C 1.24668 4.91657 0.00628
C 0.01591 4.19697 -0.0345
C 34.43163 2.79339 -0.00931
C 1.23041 2.12826 -0.00939
C 1.1859 0.7672 -0.00468
C 34.40486 25.60794 -0.05239
C 31.95861 21.31846 -0.02383
C 1.22314 26.24782 -0.00598
C 34.40396 28.3349 -0.01037
C 33.25133 19.16072 -0.0136
C 33.21842 17.75747 0.00594
C 31.97464 17.048 -0.02474
C 31.87353 15.65815 0.00369
C 33.09688 14.85279 0.00455
C 33.14473 13.43214 -0.00644
C 31.99779 12.69272 -0.01839
C 31.96798 11.34426 0.00137
C 33.1663 10.60147 0.00199
C 33.07561 9.16122 0.04381
C 31.83503 8.48909 0.02806
C 31.95381 7.01385 0.01504
C 33.18452 6.3133 -0.00069
C 33.19391 4.92326 0.04926
C 31.98047 4.21214 -0.03838
C 31.99696 2.74314 0.00349
C 33.25541 2.04525 -0.00323
C 33.18766 0.67351 -0.00841
C 32.00463 33.97575 0.0001
C 0.03633 32.63555 -0.02927
C 1.22193 31.88622 -0.01404
C 1.24293 30.47654 0.01027
C 0.04305 29.77178 0.01831
C 1.19919 27.69744 -0.00439
C 3.70175 32.06705 -0.03672
C 28.32572 10.64494 0.00194
C 27.12213 12.78329 0.02316
C 23.40418 26.29029 -0.00865
C 22.1157 25.5543 0.00675
C 22.21789 24.15068 -0.00311
C 23.40473 23.42166 0.00742
C 23.34485 22.06214 -0.01594
C 22.14409 21.28366 0.0106
C 22.08835 19.82502 -0.01154
C 23.39136 19.16467 -0.01721
C 23.39804 17.75935 -0.02422
C 22.10579 17.11395 0.01277
C 22.09992 15.70837 0.00096
C 23.31332 14.94382 -0.01527
C 23.32238 13.54634 0.01087
C 22.0888 12.83401 0.00199
C 22.12983 11.39315 0.01511
C 23.39794 10.70333 -0.00478
C 23.3909 9.28998 -0.01662
C 22.16133 8.52519 -0.01185
C 22.18141 7.1239 0.01126
C 23.36962 6.34338 0.01852
C 23.34008 4.94038 -0.00381
C 22.05381 4.21255 0.03046
C 22.10998 2.83567 0.0296
C 23.35097 27.6268 0.0058
C 23.32979 2.13032 0.03374
C 22.21451 28.36956 -0.00652
C 23.38176 30.56619 -0.00703
C 19.54205 21.31389 -0.0258
C 19.5844 19.92802 -0.0331
C 20.83724 19.17312 -0.00316
C 20.84599 17.77854 0.02188
C 19.60755 17.00127 -0.01979
C 19.63628 15.56695 0.02691
C 20.81104 14.89464 -0.01581
C 20.85788 13.46699 0.01452
C 19.6388 12.81344 0.04892
C 19.62315 11.32483 -0.00111
C 20.90076 10.67211 -0.03557
C 20.87493 9.2214 0.03754
C 19.68973 8.42081 0.01739
C 19.73267 7.01443 0.00755
C 20.97768 6.35608 -0.0054
C 20.93663 4.96322 0.00667
C 19.70032 4.31028 0.00143
C 19.72079 2.88167 -0.017
C 20.8992 2.05475 0.00364
C 20.87287 0.67596 -0.00831
C 19.59466 0.00791 -0.02957
C 22.13532 32.67019 -0.04422
C 23.34396 31.93572 0.00654
C 22.15258 29.79877 -0.04076
C 27.07848 11.35797 0.04185
C 23.37012 0.76289 -0.02845
C 24.54058 32.61705 0.02239
C 24.52355 2.78953 -0.00938
C 25.85072 2.13961 -0.0264
C 25.77562 0.72716 -0.01154
C 24.61737 0.03895 0.00684
C 27.02057 32.61963 -0.01052
C 28.23494 31.93392 -0.01679
C 28.22964 30.48909 0.00367
C 26.96396 29.7914 0.04306
C 27.02328 28.42752 0.00996
C 28.27125 27.71223 0.00195
C 28.23889 26.32908 -0.00802
C 27.04472 25.57355 -0.00218
C 27.08181 24.18537 -0.01654
C 28.31938 23.51193 -0.00037
C 28.24747 22.013 -0.0032
C 27.06763 21.28478 0.00622
C 27.06999 19.85328 -0.02815
C 28.27709 19.16766 -0.00942
C 28.33542 17.76263 0.00487
C 27.07815 17.08032 0.00826
C 27.07279 15.61691 -0.00294
C 28.24328 14.89616 0.00152
C 28.33788 13.47014 0.01257
C 24.53424 4.15516 -0.00229
C 22.14939 0.05378 -0.03213
C 25.69465 4.97696 -0.01199
C 24.56629 7.08114 -0.00285
C 25.71839 31.92748 0.01153
C 25.81798 30.53005 0.02734
C 24.57326 29.79497 -0.0055
C 24.69212 28.42312 0.01515
C 25.85796 27.7046 -0.00225
C 25.82081 26.27389 0.00071
C 24.58727 25.56556 -0.01107
C 24.67268 24.15601 -0.01586
C 25.86967 23.41962 -0.01971
C 25.87727 21.99863 -0.02118
C 24.63526 21.34215 0.00733
C 24.58493 19.92907 -0.00178
C 25.82504 19.13642 0.00768
C 25.80915 17.69035 -0.0276
C 24.5894 17.00613 0.03005
C 24.60294 15.6316 -0.04078
C 25.84975 14.9364 0.02117
C 25.8696 13.495 0.02737
C 24.58818 12.83564 -0.00498
C 24.59714 11.40903 0.00135
C 25.82183 10.70825 0.03102
C 25.77953 9.25379 0.02555
C 24.53729 8.50543 0.01423
C 25.78536 6.38292 -0.009
C 2.41938 32.71804 -0.04306
