414
Graphene
C 34.41703 0.03511 0.01295
C 12.29292 15.62675 0.00985
C 13.50411 14.97507 -0.02245
C 13.54715 13.54508 -0.00428
C 12.35308 12.78882 0.03101
C 12.37324 11.40826 -0.01536
C 13.52805 10.71845 -0.02689
C 13.4468 0.63407 -0.01046
C 12.24363 0.04407 -0.00891
C 14.72201 32.52552 0.02819
C 15.97503 31.90076 0.00165
C 16.08283 30.51987 -0.02971
C 14.84937 29.79488 0.02894
C 14.8135 28.33935 -0.01789
C 16.03662 27.69111 0.00444
C 15.93184 26.32023 -0.00925
C 14.74541 25.51662 0.01877
C 14.75734 24.05986 0.01363
C 15.95376 23.3507 -0.02162
C 16.04844 21.90298 0.00415
C 14.68327 21.28458 -0.0014
C 14.70482 19.90737 0.02162
C 12.25582 17.00607 -0.01275
C 13.47847 17.83982 -0.01111
C 13.43892 19.24229 0.02841
C 12.27612 20.0026 0.00943
C 9.85312 11.39957 -0.014
C 11.12651 10.66038 0.02147
C 11.0771 9.29676 0.00373
C 9.90759 8.50196 -0.00191
C 9.84799 7.0914 0.00438
C 9.83292 4.33725 0.01291
C 9.93392 3.00269 0.00093
C 11.01796 2.14097 0.00057
C 11.06356 0.79034 -0.01634
C 9.84213 34.00989 -0.00334
C 15.9682 19.14347 0.0076
C 12.33182 32.69905 0.02339
C 13.60954 30.51398 -0.00719
C 12.30262 29.81803 0.01364
C 12.28571 28.4164 -0.01062
C 13.55225 27.65624 -0.00033
C 13.47193 26.24075 0.03589
C 12.28984 25.55333 -0.02759
C 12.37212 24.13679 0.0402
C 13.55754 23.45445 0.00572
C 13.53667 22.04065 0.03592
C 12.27035 21.40256 0.00406
C 13.51084 31.94629 0.01641
C 15.97725 17.64585 0.01241
C 14.72455 17.0572 -0.01454
C 14.74941 15.65325 0.01945
C 17.21036 12.7685 -0.02162
C 17.14143 11.36642 0.00889
C 18.42314 10.66911 -0.00481
C 18.49091 9.24475 0.00979
C 18.57455 2.18494 0.01443
C 18.4668 0.71858 0.03505
C 17.20001 0.01835 -0.02815
C 19.68659 32.63983 -0.04147
C 20.89883 31.87027 -0.05302
C 20.85322 30.51908 0.00213
C 18.4384 13.46782 -0.00619
C 19.68784 29.77093 -0.00066
C 20.92841 27.67735 0.00028
C 20.86657 26.30195 -0.02213
C 19.62569 25.5379 0.03698
C 19.63248 24.19199 -0.00109
C 20.81735 23.48427 -0.00491
C 20.87521 22.05252 0.03338
C 19.62881 21.30689 -0.0258
C 19.6778 19.86768 -0.0331
C 20.9422 19.14739 -0.00316
C 20.94253 17.76601 0.02188
C 19.69639 28.37714 -0.00289
C 9.90421 12.75579 -0.01118
C 18.45812 14.9301 0.01848
C 17.23366 16.98424 -0.03113
C 15.93342 14.87829 0.01416
C 16.0052 13.50654 0.03542
C 14.76722 12.82552 0.02299
C 14.72689 11.30907 0.00244
C 15.96129 10.6974 -0.01717
C 15.93809 0.68086 0.05265
C 14.74628 0.02044 -0.01952
C 17.16398 32.66355 -0.02813
C 18.43672 31.97422 0.00374
C 18.50896 30.50419 0.00052
C 17.18191 15.57099 0.02098
C 17.21993 29.73016 -0.03682
C 18.42845 27.66171 0.02058
C 18.4303 26.21511 -0.01957
C 17.14184 25.5225 -0.0108
C 17.2208 24.09991 -0.00368
C 18.47273 23.45182 -0.02696
C 18.41685 22.04805 -0.00114
C 17.2386 21.24421 0.00228
C 17.16257 19.88358 0.00798
C 18.43357 19.16286 0.00422
C 18.43247 17.80556 0.0351
C 17.23802 28.31108 0.01965
C 10.99176 13.58735 -0.00131
C 11.04718 14.98115 -0.02896
C 11.04017 17.73634 -0.01004
C 2.44314 2.85298 0.04505
C 3.67777 2.17028 0.03284
C 3.68898 0.6815 -0.04307
C 2.49646 0.00304 0.03189
C 4.93589 32.71968 0.00031
C 6.11097 31.99061 -0.003
C 6.06759 30.64033 0.01402
C 4.91122 29.84755 0.02379
C 4.89489 28.36876 0.00907
C 6.10117 27.66608 0.00643
C 2.38518 4.27874 -0.04999
C 6.18004 26.20561 -0.01509
C 4.96986 24.11498 0.02374
C 6.14764 23.4117 0.00402
C 6.23549 21.96616 0.0073
C 4.95086 21.26516 0.0174
C 4.8725 19.85585 0.03828
C 6.13018 19.32743 0.01226
C 4.93067 16.9847 -0.00279
C 4.98718 15.64929 0.01996
C 6.20227 13.51589 -0.03996
C 5.02538 12.75963 0.01465
C 4.91221 25.53082 0.03267
C 4.96214 11.3406 -0.00074
C 3.59476 4.94192 -0.03291
C 2.42408 7.11995 0.01707
C 3.62308 30.56981 0.03278
C 2.45624 29.84929 -0.00177
C 2.47787 28.38765 0.04421
C 3.69775 27.64553 0.00088
C 3.73478 26.25351 0.00828
C 2.51617 25.6139 -0.02375
C 2.45859 24.22959 0.00558
C 3.70143 23.40833 -0.0059
C 3.6222 21.95721 -0.01386
C 2.43101 21.26478 -0.02805
C 3.69016 6.383 0.02769
C 2.43984 19.82748 0.00081
C 3.6843 17.77877 0.02728
C 2.47416 17.10237 -0.00039
C 2.43501 15.65432 0.0064
C 3.78495 14.90759 0.00211
C 3.77538 13.4657 -0.00449
C 2.5021 12.83468 -0.01979
C 2.40298 11.24714 0.02784
C 3.66633 10.60648 -0.01977
C 3.63291 9.22517 -0.00561
C 2.37056 8.50516 0.00208
C 3.65376 19.16623 0.00245
C 19.6697 17.09789 -0.01979
C 6.14349 10.6967 -0.00518
C 4.94508 8.53127 -0.00643
C 7.34952 7.14888 0.01849
C 8.61732 6.44008 -0.01142
C 8.65554 5.01604 -0.00562
C 7.37553 4.25585 -0.00494
C 7.38232 2.81029 0.00054
C 8.6744 2.17108 0.03007
C 8.61319 0.71026 -0.00095
C 7.33944 0.04073 0.01572
C 9.88922 32.64286 -0.04848
C 11.09753 32.01978 -0.00892
C 7.35701 8.58444 0.01396
C 11.1003 30.60206 -0.01362
C 9.76905 28.5313 0.0288
C 11.04086 27.76535 0.00393
C 11.06977 26.31554 0.00895
C 9.80549 25.55484 0.00685
C 9.87755 24.20054 0.02888
C 11.10831 23.41961 -0.00482
C 11.0662 22.03556 -0.01384
C 9.78469 21.31534 0.03693
C 9.75718 20.00074 0.01745
C 10.99956 19.15395 0.00488
C 9.75137 29.88067 -0.0008
C 6.09366 9.28221 0.0086
C 8.59185 9.19638 0.0127
C 7.42397 11.36203 -0.01378
C 4.89209 7.12947 0.017
C 6.11446 6.46017 -0.03113
C 6.20171 5.02709 -0.02566
C 4.95363 4.20806 -0.00094
C 4.919 2.84692 0.02322
C 6.08551 2.14039 -0.00725
C 6.12541 0.72718 -0.05697
C 4.8971 0.02307 0.01087
C 7.26851 32.71552 -0.01343
C 8.5269 32.00544 0.00988
C 8.57518 10.58443 0.02635
C 8.5644 30.61003 0.0276
C 7.29973 28.43465 -0.00077
C 8.59184 27.74631 0.03368
C 8.5762 26.29113 -0.02929
C 7.37216 25.54972 -0.00966
C 7.3927 24.17197 -0.03337
C 8.65604 23.46743 0.01227
C 8.61616 22.08086 0.00873
C 7.42252 21.27428 -0.00049
C 7.3313 19.86518 0.00848
C 7.3324 12.83111 -0.01303
C 7.25833 29.92688 0.01305
C 19.7257 15.59719 0.02691
C 20.89286 14.82065 -0.01581
C 21.01867 13.42574 0.01452
C 30.72219 10.71271 -0.00944
C 30.74088 9.21932 -0.03735
C 29.54368 8.53934 -0.00971
C 29.50497 7.09635 0.01518
C 30.71894 6.37496 0.01908
C 30.73689 5.00178 0.07705
C 29.57165 4.30224 0.0103
C 29.5388 2.73607 0.02108
C 30.78594 2.09466 0.00716
C 30.76624 0.67764 0.00307
C 29.49232 11.41723 -0.02155
C 29.50553 34.03912 0.00346
C 33.17334 31.9354 -0.01694
C 33.18041 30.49203 0.01428
C 31.90802 29.7911 -0.02142
C 31.92268 28.407 0.0544
C 33.13631 27.66182 0.00026
C 33.15071 26.30486 0.00682
C 31.94712 25.54682 -0.01779
C 32.01401 24.07383 0.03794
C 33.24317 23.43416 0.01927
C 33.21622 22.02711 0.01574
C 32.04578 32.6346 0.01713
C 31.9567 21.22524 -0.02383
C 29.53846 12.81869 -0.01461
C 30.79423 14.90406 -0.0405
C 27.01934 4.23563 0.01495
C 27.04803 2.80088 0.01259
C 28.28754 2.13757 0.01799
C 28.30076 0.72043 0.01699
C 27.09156 0.03899 -0.00416
C 29.5387 32.624 0.01177
C 30.76092 32.01204 0.04266
C 30.71046 30.55974 0.01324
C 29.51899 29.81857 0.0014
C 29.58385 28.40855 0.00924
C 30.81283 13.53218 -0.01303
C 30.76467 27.65472 0.02326
C 29.45253 25.50698 0.03265
C 29.49736 24.17056 -0.02049
C 30.75782 23.45489 -0.01854
C 30.80135 22.04378 -0.01415
C 29.45996 21.22267 -0.03039
C 29.48804 19.85159 0.01836
C 30.73614 19.13518 0.03531
C 30.76602 17.74205 -0.00669
C 29.44027 16.99573 0.0101
C 29.4645 15.61521 0.01705
C 30.72111 26.19411 0.00261
C 28.24363 4.93888 0.00235
C 31.93881 19.80992 -0.01429
C 33.22372 17.80207 0.00594
C 1.23161 23.50486 0.00723
C 1.23074 22.02483 0.02712
C 0.00073 21.29063 -0.02213
C 34.38392 19.86887 0.01951
C 1.13629 19.17633 -0.01678
C 1.2119 17.79502 0.01223
C 0.01817 17.01097 0.00648
C 34.41672 15.58534 0.02114
C 1.18333 14.94935 -0.02957
C 1.24363 13.50906 0.00343
C 0.00574 24.23295 0.03076
C 34.40785 12.82075 -0.02656
C 1.14184 10.62766 -0.00027
C 1.19771 9.28422 -0.00583
C 0.01294 8.53785 -0.02302
C 0.01073 7.10218 -0.02849
C 1.20874 6.36073 0.02931
C 1.19702 4.95489 0.00628
C 34.40544 4.29045 -0.0345
C 34.39749 2.87337 -0.00931
C 1.22931 2.06776 -0.00939
C 1.22525 0.67837 -0.00468
C 34.36066 11.35503 -0.02442
C 33.17813 19.18822 -0.0136
C 34.42836 25.58284 -0.05239
C 1.13659 27.66647 -0.00439
C 31.98109 17.02238 -0.02474
C 32.02328 15.63075 0.00369
C 33.19501 14.85539 0.00455
C 33.15877 13.47222 -0.00644
C 32.01763 12.71876 -0.01839
C 31.99066 11.35841 0.00137
C 33.20307 10.64969 0.00199
C 33.19456 9.19305 0.04381
C 31.96381 8.48149 0.02806
C 31.97354 7.04778 0.01504
C 1.19718 26.2562 -0.00598
C 33.20524 6.39278 -0.00069
C 32.01835 4.27849 -0.03838
C 31.9481 2.85658 0.00349
C 33.10772 2.13676 -0.00323
C 33.12511 0.69611 -0.00841
C 31.96276 33.98266 0.0001
C 34.39685 32.68697 -0.02927
C 1.28743 31.92227 -0.01404
C 1.22843 30.5284 0.01027
C 34.37437 29.80091 0.01831
C 34.33524 28.30788 -0.01037
C 33.226 4.96964 0.04926
C 3.7154 31.94669 0.01138
C 28.30843 6.34244 0.01094
C 27.08579 8.45499 0.02611
C 23.3954 19.15753 -0.01721
C 23.35164 17.74499 -0.02422
C 22.12723 16.95919 0.01277
C 22.10124 15.57125 0.00096
C 23.31912 14.89173 -0.01527
C 23.4553 13.4394 0.01087
C 22.25279 12.6971 0.00199
C 22.11413 11.28456 0.01511
C 23.34172 10.6403 -0.00478
C 23.38629 9.24316 -0.01662
C 22.14096 19.86377 -0.01154
C 22.19548 8.52587 -0.01185
C 23.33752 6.38511 0.01852
C 23.34861 4.99978 -0.00381
C 22.19339 4.25839 0.03046
C 22.22121 2.85599 0.0296
C 23.44316 2.19462 0.03374
C 23.38024 0.75926 -0.02845
C 22.16454 34.05005 -0.03213
C 24.56324 32.66909 0.02239
C 25.81149 31.98596 0.01153
C 25.81001 30.60767 0.02734
C 22.07397 7.10762 0.01126
C 24.55758 29.84985 -0.0055
C 22.07111 21.34629 0.0106
C 23.3396 23.40939 0.00742
C 19.74342 12.83499 0.04892
C 19.63838 11.41354 -0.00111
C 20.88072 10.64097 -0.03557
C 20.95303 9.25175 0.03754
C 19.68023 8.48763 0.01739
C 19.77251 7.07511 0.00755
C 20.81551 6.34256 -0.0054
C 20.93259 4.95122 0.00667
C 19.7106 4.26279 0.00143
C 19.83718 2.91945 -0.017
C 23.30405 22.0461 -0.01594
C 21.00241 2.09952 0.00364
C 19.70081 34.07257 -0.02957
C 22.03804 32.64333 -0.04422
C 23.2666 31.97225 0.00654
C 23.30005 30.56674 -0.00703
C 22.06236 29.808 -0.04076
C 22.14714 28.35735 -0.00652
C 23.30531 27.62161 0.0058
C 23.35265 26.23901 -0.00865
C 22.07286 25.55798 0.00675
C 22.08155 24.10316 -0.00311
C 20.88557 0.74868 -0.00831
C 27.06025 7.06472 0.02198
C 24.55478 28.38694 0.01515
C 25.79975 26.28103 0.00071
C 28.27814 31.8562 -0.01679
C 28.32419 30.46295 0.00367
C 27.00378 29.80175 0.04306
C 27.07553 28.42295 0.00996
C 28.35656 27.76575 0.00195
C 28.27982 26.28342 -0.00802
C 26.9882 25.52569 -0.00218
C 27.04501 24.13082 -0.01654
C 28.27302 23.47276 -0.00037
C 28.25022 22.0297 -0.0032
C 27.10961 32.6394 -0.01052
C 27.10701 21.31948 0.00622
C 28.29161 19.1511 -0.00942
C 28.24544 17.74735 0.00487
C 27.01011 17.02053 0.00826
C 27.0101 15.61279 -0.00294
C 28.25774 14.91826 0.00152
C 28.21898 13.45408 0.01257
C 27.04269 12.72553 0.02316
C 27.02528 11.31344 0.04185
C 28.27096 10.64665 0.00194
C 28.31181 9.21953 -0.00621
C 27.08302 19.87558 -0.02815
C 25.80332 27.76921 -0.00225
C 24.65837 0.05711 0.00684
C 25.80574 2.13064 -0.0264
C 24.59844 25.55503 -0.01107
C 24.58908 24.15426 -0.01586
C 25.8248 23.45928 -0.01971
C 25.83735 21.98952 -0.02118
C 24.59545 21.23467 0.00733
C 24.63031 19.90347 -0.00178
C 25.85698 19.21079 0.00768
C 25.81028 17.76437 -0.0276
C 24.59401 17.089 0.03005
C 24.57118 15.62905 -0.04078
C 25.83829 0.66441 -0.01154
C 25.75863 14.84818 0.02117
C 24.64467 12.71867 -0.00498
C 24.57444 11.33325 0.00135
C 25.75603 10.64593 0.03102
C 25.81977 9.21834 0.02555
C 24.54959 8.49809 0.01423
C 24.58011 7.07823 -0.00285
C 25.77386 6.3006 -0.009
C 25.76638 4.95391 -0.01199
C 24.60454 4.30344 -0.00229
C 24.59402 2.92169 -0.00938
C 25.82858 13.40242 0.02737
C 2.5057 32.64965 -0.00407
