404
Graphene
C 0.23112 0.16169 0.01295
C 13.45122 23.49986 -0.01046
C 13.55953 22.05256 -0.00891
C 12.37662 21.33513 0.02819
C 12.16041 20.0846 0.00165
C 13.3342 19.09152 -0.02971
C 12.73107 17.95935 0.02894
C 13.56449 9.08312 -0.01789
C 12.22289 8.5448 0.00444
C 12.18797 7.1118 -0.00925
C 13.42929 6.36225 0.01877
C 13.44558 4.9182 0.01363
C 12.16771 4.26224 -0.02162
C 12.19612 2.88806 0.00415
C 13.49171 2.15876 -0.0014
C 13.50241 0.78288 0.02162
C 12.32252 0.00171 0.0076
C 14.83129 32.69913 0.01241
C 16.05227 31.94456 -0.01454
C 15.94481 30.57391 0.01945
C 14.70674 29.8627 0.01416
C 14.7377 28.45804 0.03542
C 12.16627 24.19083 -0.02689
C 15.99776 27.69588 0.02299
C 12.24576 25.50817 -0.01536
C 13.4288 27.73346 -0.00428
C 9.90764 15.76102 0.00057
C 11.0046 14.77236 -0.01634
C 10.90611 13.63005 -0.00334
C 9.76298 12.72117 0.02339
C 9.42989 11.35924 0.01641
C 10.53896 10.51546 -0.00719
C 10.74079 9.14787 0.01364
C 9.37568 8.49957 -0.01062
C 9.62012 7.04234 -0.00033
C 10.87513 6.42569 0.03589
C 10.97376 4.97862 -0.02759
C 9.7689 4.23351 0.0402
C 9.70869 2.76496 0.00572
C 10.97547 2.11339 0.03592
C 11.02679 0.72699 0.00406
C 9.7648 0.01042 0.00943
C 12.23178 32.76855 0.02841
C 13.46768 31.96575 -0.01111
C 13.4998 30.5125 -0.01275
C 12.22161 29.8252 0.00985
C 12.21319 28.4312 -0.02245
C 13.47195 26.27232 0.03101
C 15.94825 26.29976 0.00244
C 14.71578 25.58464 -0.01717
C 14.71318 24.11473 0.05265
C 17.17274 19.73367 -0.02815
C 18.50535 19.29591 -0.04147
C 16.67884 8.62177 -0.05302
C 17.16282 7.16026 0.00213
C 18.44461 6.46366 -0.00066
C 18.42543 4.96901 -0.00289
C 17.23473 4.23423 0.00028
C 17.24031 2.81593 -0.02213
C 18.41761 2.22214 0.03698
C 18.50489 0.77304 -0.00109
C 17.27359 34.07181 -0.00491
C 19.6302 32.7064 0.03338
C 20.91755 31.92315 -0.0258
C 20.82006 30.48394 -0.0331
C 19.62198 29.84831 -0.00316
C 19.65048 28.40356 0.02188
C 20.902 27.65158 -0.01979
C 20.85243 26.22909 0.02691
C 19.67254 25.55683 -0.01581
C 19.53343 24.19584 0.01452
C 20.83561 23.52974 0.04892
C 17.14704 21.21955 0.03505
C 18.3863 22.05875 0.01443
C 18.31145 23.40208 0.00979
C 17.13727 24.05332 -0.00481
C 15.88536 23.28486 -0.01952
C 15.88144 21.90544 -0.02813
C 14.64121 21.28614 0.00374
C 14.63953 19.70349 0.00052
C 15.89374 19.22442 -0.03682
C 14.74386 8.49045 0.01965
C 14.72867 7.04737 0.02058
C 15.92688 6.30523 -0.01957
C 15.93621 4.90692 -0.0108
C 14.68968 4.21147 -0.00368
C 9.99436 17.25832 0.00093
C 14.72816 2.8619 -0.02696
C 16.04446 0.74517 0.00228
C 14.74329 0.06687 0.00798
C 17.29185 32.61416 0.00422
C 18.49805 31.89917 0.0351
C 18.37755 30.48871 -0.03113
C 17.09838 29.84567 0.02098
C 17.19521 28.40896 0.01848
C 18.43708 27.76045 -0.00619
C 18.48227 26.29665 -0.02162
C 17.12826 25.57438 0.00889
C 15.96601 2.12125 -0.00114
C 20.91139 22.14421 -0.00111
C 11.1523 17.96511 0.01291
C 9.7145 20.0413 -0.00191
C 2.92795 0.31315 0.00643
C 4.81479 32.87068 -0.01509
C 6.02615 32.12324 0.03267
C 6.05203 30.71814 0.02374
C 4.81302 29.90448 0.00402
C 4.87283 28.54148 0.0073
C 6.00443 27.79201 0.0174
C 6.1173 26.36215 0.03828
C 4.94061 25.5442 0.01226
C 4.8025 24.1092 -0.00279
C 6.13198 23.52978 0.01996
C 6.1391 22.07921 -0.03996
C 4.9132 21.42874 0.01465
C 4.85947 20.02328 -0.00074
C 6.12287 19.29476 -0.00518
C 6.13147 17.84339 0.0086
C 4.84701 17.1113 -0.00643
C 4.83024 15.7246 0.017
C 6.12476 15.03588 -0.03113
C 6.12283 13.7305 -0.02566
C 5.00328 12.93635 -0.00094
C 2.00496 3.86621 0.00907
C 5.41237 11.46894 0.02322
C 3.68497 6.29886 0.02379
C 2.65236 8.49222 -0.003
C 3.6287 30.65315 0.00081
C 2.42822 29.858 0.00245
C 2.4178 28.4793 0.02728
C 3.57325 27.78056 -0.00039
C 3.6744 26.27877 0.0064
C 2.43676 25.51864 0.00211
C 2.38368 24.13879 -0.00449
C 3.57059 23.40678 -0.01979
C 3.62845 22.01338 0.02784
C 2.35096 21.36211 -0.01977
C 2.38487 19.93578 -0.00561
C 3.67163 19.23933 0.00208
C 3.59932 17.7705 0.01707
C 2.34559 17.06239 0.02769
C 2.4424 15.59587 -0.03291
C 3.65508 14.92053 -0.04999
C 3.82686 13.4533 0.04505
C 2.60305 12.69935 0.03284
C 2.70603 11.29528 -0.04307
C 4.17404 10.64917 0.03189
C 4.04589 9.09244 0.00031
C 2.46051 7.11727 0.01402
C 5.24038 8.23038 -0.00725
C 4.89415 6.80597 -0.05697
C 6.07903 6.063 0.01087
C 6.76624 8.31277 -0.04848
C 7.15488 6.87741 -0.00892
C 8.42526 6.22155 -0.01362
C 8.47421 4.86436 -0.0008
C 7.25004 3.93834 0.0288
C 7.20402 2.57956 0.00393
C 8.47449 2.05954 0.00895
C 8.51025 0.73521 0.00685
C 7.10376 0.10716 0.02888
C 9.71122 32.71117 -0.00482
C 11.00636 31.97387 -0.01384
C 10.95104 30.56877 0.03693
C 9.65594 29.92918 0.01745
C 9.70122 28.58543 0.00488
C 10.90747 27.73458 -0.01004
C 11.01321 26.32665 -0.02896
C 9.76582 25.65992 -0.00131
C 9.76651 24.19416 -0.01118
C 10.9551 23.48088 -0.014
C 11.11329 22.06268 0.02147
C 9.83725 21.4087 0.00373
C 8.00534 9.14853 0.01572
C 8.07475 10.62807 -0.00095
C 6.96361 11.43122 0.03007
C 7.28799 12.90276 0.00054
C 6.05208 4.70233 -0.01343
C 5.90651 1.01258 0.00988
C 4.59095 0.2444 0.0276
C 7.22255 32.81561 0.01305
C 8.50284 32.1077 -0.00077
C 8.50216 30.70587 0.03368
C 7.32232 29.92089 -0.02929
C 7.26009 28.58188 -0.00966
C 8.50222 27.81492 -0.03337
C 8.56492 26.37768 0.01227
C 11.02425 19.35886 0.00438
C 7.34941 25.73338 0.00873
C 8.50927 23.56884 0.00848
C 8.5781 22.11369 -0.01303
C 7.3402 21.36683 -0.01378
C 7.31049 19.93718 0.02635
C 8.59121 19.33134 0.0127
C 8.62526 17.87003 0.01396
C 7.37738 17.23027 0.01849
C 7.37308 15.77897 -0.01142
C 8.63431 15.09612 -0.00562
C 8.55701 13.59818 -0.00494
C 7.31183 24.28334 -0.00049
C 19.64455 21.39084 -0.03557
C 19.76444 20.0241 0.03754
C 20.98732 19.25536 0.01739
C 29.56472 8.48088 -0.00971
C 29.46695 7.06859 0.01518
C 30.75184 6.38597 0.01908
C 30.65899 4.94999 0.07705
C 29.4701 4.16832 0.0103
C 29.57067 2.78467 0.02108
C 30.74934 2.04998 0.00716
C 30.85177 0.66701 0.00307
C 29.55365 0.00376 0.00346
C 32.06735 32.67898 0.01713
C 33.32646 32.00418 -0.01694
C 33.2192 30.57679 0.01428
C 32.01525 29.82503 -0.02142
C 31.94013 28.39862 0.0544
C 33.15168 27.70121 0.00026
C 33.1501 26.22827 0.00682
C 31.95146 25.44678 -0.01779
C 31.92136 24.08948 0.03794
C 33.10935 23.39203 0.01927
C 33.12611 22.02093 0.01574
C 31.95838 21.24079 -0.02383
C 30.77298 9.29771 -0.03735
C 32.015 19.86968 -0.01429
C 30.80897 10.59373 -0.00944
C 29.38013 12.80055 -0.01461
C 28.29037 0.65381 0.01699
C 27.07515 34.01165 -0.00416
C 29.47804 32.62421 0.01177
C 30.79983 31.94208 0.04266
C 30.80151 30.56414 0.01324
C 29.54023 29.81647 0.0014
C 29.48178 28.40198 0.00924
C 30.70172 27.6274 0.02326
C 30.7064 26.21509 0.00261
C 29.52936 25.46624 0.03265
C 29.48859 24.06712 -0.02049
C 30.68341 23.33397 -0.01854
C 30.66997 21.96877 -0.01415
C 29.49343 21.24876 -0.03039
C 29.51343 19.82951 0.01836
C 30.70553 19.15421 0.03531
C 30.67498 17.74694 -0.00669
C 29.42523 17.04699 0.0101
C 29.38256 15.59611 0.01705
C 30.66825 14.95025 -0.0405
C 30.65805 13.52357 -0.01303
C 29.55746 11.36259 -0.02155
C 33.18271 19.18854 -0.0136
C 33.09137 17.86903 0.00594
C 31.889 17.0875 -0.02474
C 1.16892 22.06463 0.02712
C 34.38558 21.38505 -0.02213
C 34.35331 19.93762 0.01951
C 1.12868 19.16078 -0.01678
C 1.10775 17.76401 0.01223
C 34.33904 17.04375 0.00648
C 34.39186 15.61372 0.02114
C 1.21125 14.89914 -0.02957
C 1.30351 13.4872 0.00343
C 0.01899 12.75734 -0.02656
C 0.12133 11.33616 -0.02442
C 1.43154 10.6743 -0.00027
C 1.39808 9.19385 -0.00583
C 0.09141 8.60712 -0.02302
C 34.4182 7.17425 -0.02849
C 1.18506 6.37018 0.02931
C 1.12508 4.93997 0.00628
C 34.32468 4.27171 -0.0345
C 0.07541 2.93063 -0.00931
C 1.50258 2.49665 -0.00939
C 1.72336 1.05337 -0.00468
C 1.11418 23.47708 0.00723
C 34.31914 24.15313 0.03076
C 0.004 25.59543 -0.05239
C 1.24627 26.23766 -0.00598
C 31.88283 15.58586 0.00369
C 33.19083 14.82634 0.00455
C 33.17298 13.44405 -0.00644
C 31.89307 12.82787 -0.01839
C 32.03924 11.33696 0.00137
C 33.28185 10.61225 0.00199
C 33.25938 9.24972 0.04381
C 32.09722 8.51388 0.02806
C 31.95991 7.13193 0.01504
C 33.16518 6.38591 -0.00069
C 28.32999 2.07155 0.01799
C 33.13527 4.92036 0.04926
C 32.02742 2.82888 0.00349
C 33.30268 2.19777 -0.00323
C 33.27344 0.70867 -0.00841
C 32.02994 0.03878 0.0001
C 0.12851 32.82039 -0.02927
C 1.30214 32.11486 -0.01404
C 1.26754 30.60618 0.01027
C 34.38156 29.84491 0.01831
C 0.00504 28.45803 -0.01037
C 1.2442 27.63846 -0.00439
C 31.90099 4.24592 -0.03838
C 27.02378 2.76344 0.01259
C 27.00844 4.17117 0.01495
C 28.25309 4.90867 0.00235
C 21.88151 17.08858 0.01087
C 22.06712 15.63597 0.00199
C 23.14044 14.75931 0.01511
C 23.22418 13.37058 -0.00478
C 23.57687 9.59364 -0.01662
C 22.34386 8.90772 -0.01185
C 22.1761 7.25292 0.01126
C 23.31495 6.44523 0.01852
C 23.34201 4.92046 -0.00381
C 22.08353 4.23239 0.03046
C 22.15018 2.83577 0.0296
C 23.41879 2.08214 0.03374
C 23.37612 0.62652 -0.02845
C 22.09234 33.98569 -0.03213
C 24.60143 32.66658 0.02239
C 25.86792 31.94221 0.01153
C 25.76364 30.43857 0.02734
C 24.55739 29.76109 -0.0055
C 24.60656 28.34159 0.01515
C 25.82336 27.6699 -0.00225
C 25.78826 26.25871 0.00071
C 23.24752 17.7408 -0.01527
C 23.34696 19.15775 0.00096
C 22.17683 19.94092 0.01277
C 22.15148 21.39959 -0.02422
C 20.7963 17.88476 0.00755
C 20.84459 9.29553 -0.0054
C 20.00797 8.52508 0.00667
C 19.64831 7.21151 0.00143
C 20.96607 6.45526 -0.017
C 20.93628 5.0765 0.00364
C 19.70409 4.25181 -0.00831
C 19.72057 2.84972 -0.02957
C 20.88935 2.15792 -0.04422
C 20.88367 0.75571 0.00654
C 24.61577 25.56672 -0.01107
C 19.68379 0.02424 -0.00703
C 23.42142 31.94473 -0.00652
C 23.36856 30.53018 0.0058
C 22.14013 29.85293 -0.00865
C 22.05308 28.40587 0.00675
C 23.35673 27.73828 -0.00311
C 23.33132 26.24574 0.00742
C 22.16057 25.55316 -0.01594
C 22.07069 24.15385 0.0106
C 23.36719 23.45202 -0.01154
C 23.3766 22.04272 -0.01721
C 22.13168 32.62066 -0.04076
C 3.61187 32.06722 -0.02805
C 24.5776 24.13353 -0.01586
C 25.69752 22.06266 -0.02118
C 28.29856 27.698 0.00195
C 28.29395 26.26032 -0.00802
C 27.04657 25.58788 -0.00218
C 27.02857 24.17882 -0.01654
C 28.2706 23.35352 -0.00037
C 28.29766 21.98741 -0.0032
C 26.92826 21.29518 0.00622
C 26.92403 19.8388 -0.02815
C 28.16878 19.1562 -0.00942
C 28.13686 17.66239 0.00487
C 26.82352 16.90778 0.00826
C 26.8358 15.49443 -0.00294
C 28.11132 14.84038 0.00152
C 28.06532 13.45062 0.01257
C 26.85519 12.59345 0.02316
C 27.02762 11.24493 0.04185
C 28.2922 10.5898 0.00194
C 28.32535 9.14961 -0.00621
C 27.1698 8.38694 0.02611
C 27.02867 6.98664 0.02198
C 28.31815 6.28 0.01094
C 27.02867 28.3752 0.00996
C 27.02197 29.79961 0.04306
C 28.23625 30.47434 0.00367
C 28.32722 31.85512 -0.01679
C 24.56742 21.35816 0.00733
C 24.55414 19.89747 -0.00178
C 25.70812 19.18112 0.00768
C 25.65334 17.71155 -0.0276
C 24.45847 17.00407 0.03005
C 24.4823 15.5805 -0.04078
C 25.62623 14.76449 0.02117
C 25.58404 13.2702 0.02737
C 24.24916 12.38735 -0.00498
C 24.32805 10.90394 0.00135
C 25.82221 23.49187 -0.01971
C 25.83204 10.48718 0.03102
C 24.70733 8.56347 0.01423
C 24.63802 7.21728 -0.00285
C 25.70871 6.42292 -0.009
C 25.77985 4.92107 -0.01199
C 24.51562 4.22543 -0.00229
C 24.66131 2.80221 -0.00938
C 25.771 2.00134 -0.0264
C 25.83287 0.632 -0.01154
C 24.579 33.98347 0.00684
C 27.10903 32.53249 -0.01052
C 26.00634 9.0099 0.02555
C 2.55876 32.85743 -0.01386
