355
Graphene
C 34.41931 0.01337 0.01295
C 15.91721 4.93223 -0.00368
C 14.69992 4.2069 -0.02696
C 14.75083 2.87124 -0.00114
C 15.95314 2.2109 0.00228
C 15.93885 0.70929 0.00798
C 14.73186 34.02771 0.00422
C 17.21973 32.67471 0.0351
C 18.39323 31.87293 -0.03113
C 15.91914 6.35722 -0.0108
C 18.5037 30.52346 0.02098
C 18.59799 14.83748 -0.00619
C 18.50941 13.48213 -0.02162
C 17.23241 12.80097 0.00889
C 17.19885 11.36957 -0.00481
C 18.38925 10.54309 0.00979
C 18.33763 9.19521 0.01443
C 17.05318 8.51744 0.03505
C 17.14228 7.06485 -0.02815
C 17.26695 15.3562 0.01848
C 18.39187 6.36831 -0.04147
C 14.72936 7.08748 -0.01957
C 15.87296 9.39096 0.01965
C 9.83905 0.04388 0.00415
C 12.20615 32.73127 -0.0014
C 13.46257 32.28956 0.02162
C 13.44489 14.72484 0.0076
C 12.15332 7.13209 0.01241
C 13.4305 6.48404 -0.01454
C 13.44706 5.07122 0.01945
C 12.26733 4.29604 0.01416
C 14.76926 8.46582 0.02058
C 12.26919 2.85051 0.03542
C 13.57598 0.73694 0.00244
C 12.27257 0.10494 -0.01717
C 14.75858 32.52519 0.05265
C 15.99545 31.86113 -0.01952
C 16.09519 14.80425 -0.02813
C 15.95608 13.47107 0.00374
C 14.92051 12.61742 0.00052
C 15.94803 10.78416 -0.03682
C 13.56291 2.1926 0.02299
C 18.38022 5.00116 -0.05302
C 17.15279 4.2408 0.00213
C 17.21635 2.82082 -0.00066
C 19.64486 4.30396 0.00143
C 19.63801 2.86763 -0.017
C 20.84459 2.09454 0.00364
C 20.78797 0.65269 -0.00831
C 19.58124 34.03493 -0.02957
C 22.07502 32.69026 -0.04422
C 23.30812 31.95735 0.00654
C 23.34211 30.46809 -0.00703
C 20.84392 5.00822 0.00667
C 22.1588 29.8413 -0.04076
C 23.32181 27.70148 0.0058
C 23.24175 26.23678 -0.00865
C 22.07359 25.41416 0.00675
C 22.1917 24.08637 -0.00311
C 23.40571 23.4318 0.00742
C 23.3393 22.00015 -0.01594
C 22.09371 21.35363 0.0106
C 22.03793 19.95921 -0.01154
C 22.16545 28.4904 -0.00652
C 20.77314 6.40208 -0.0054
C 19.51451 7.05888 0.00755
C 19.58118 8.45848 0.01739
C 18.45146 2.11302 -0.00289
C 18.48295 0.67103 0.00028
C 17.17319 34.06218 -0.02213
C 19.60773 32.57359 0.03698
C 20.85126 31.9026 -0.00109
C 20.94087 30.49814 -0.00491
C 19.68753 29.92554 0.03338
C 20.96809 27.72627 -0.0258
C 21.16176 26.41466 -0.0331
C 21.01764 19.06911 -0.00316
C 20.72612 17.75668 0.02188
C 19.59419 16.98715 -0.01979
C 19.74943 15.61129 0.02691
C 20.99778 14.88147 -0.01581
C 20.96647 13.46401 0.01452
C 19.74702 12.75537 0.04892
C 19.69974 11.3509 -0.00111
C 20.86436 10.64023 -0.03557
C 20.83891 9.24417 0.03754
C 11.02815 0.82669 -0.02162
C 23.30771 19.23519 -0.01721
C 11.08593 2.22794 0.01363
C 9.76619 4.28866 -0.00925
C 2.43207 7.14237 -0.00494
C 3.63816 6.46757 0.00054
C 3.6618 5.02418 0.03007
C 2.45468 4.2731 -0.00095
C 2.46727 2.86024 0.01572
C 3.75539 2.15547 -0.04848
C 3.74349 0.76756 -0.00892
C 2.43122 0.08105 -0.01362
C 2.40075 8.49817 -0.00562
C 4.87246 32.70452 -0.0008
C 6.08137 30.58243 0.00393
C 4.84222 29.86459 0.00895
C 4.81846 28.50063 0.00685
C 4.83365 25.19064 0.02888
C 4.75437 21.29077 -0.00482
C 4.82878 20.00731 -0.01384
C 6.23302 17.54178 0.03693
C 4.86868 17.07651 0.01745
C 6.1107 31.93479 0.0288
C 4.95495 15.66416 0.00488
C 3.66425 9.21909 -0.01142
C 2.38904 11.35143 0.01396
C 3.62659 30.65086 0.01087
C 2.44945 29.85481 -0.01343
C 2.5342 28.42005 0.00988
C 3.67403 27.64071 0.0276
C 3.67978 26.18983 0.01305
C 2.41877 25.62318 -0.00077
C 2.4057 24.21737 0.03368
C 3.85696 23.7886 -0.02929
C 3.63492 10.67188 0.01849
C 3.77996 22.31472 -0.00966
C 2.4439 19.94265 0.01227
C 3.67303 19.26796 0.00873
C 3.64988 17.77542 -0.00049
C 2.43685 17.00695 0.00848
C 2.48295 15.61002 -0.01303
C 3.69745 14.95674 -0.01378
C 3.71002 13.49687 0.02635
C 2.42534 12.80696 0.0127
C 2.53241 21.38961 -0.03337
C 6.25381 14.97095 -0.01004
C 6.10813 13.53396 -0.02896
C 4.91289 12.85735 -0.00131
C 8.82713 9.45671 0.00943
C 7.47579 8.64078 0.02841
C 7.38217 7.15304 -0.01111
C 8.52855 6.34865 -0.01275
C 8.52823 4.92686 0.00985
C 7.31173 4.28103 -0.02245
C 7.33814 2.89548 -0.00428
C 8.61173 2.16215 0.03101
C 8.57096 10.78867 0.00406
C 8.62928 0.73508 -0.01536
C 9.81741 32.7447 -0.01046
C 10.93972 32.0095 -0.00891
C 10.19963 15.23351 0.02819
C 11.53136 15.29153 0.00165
C 9.70408 8.40555 -0.02971
C 9.76885 6.9287 0.02894
C 11.056 6.31971 -0.01789
C 11.04255 4.94856 0.00444
C 7.3682 0.08646 -0.02689
C 7.32509 11.42938 0.03592
C 7.34656 12.78887 0.00572
C 8.61376 13.47192 0.0402
C 4.86927 11.33087 -0.01118
C 6.08386 10.68109 -0.014
C 6.12888 9.27723 0.02147
C 4.86733 8.56254 0.00373
C 4.84469 7.16706 -0.00191
C 6.13071 6.46131 0.00438
C 6.10399 5.03499 0.01291
C 4.92342 4.34174 0.00093
C 4.95652 2.91126 0.00057
C 6.13684 2.22207 -0.01634
C 6.14453 0.80127 -0.00334
C 4.90156 0.03642 0.02339
C 7.35789 32.70708 0.01641
C 8.59703 32.04605 -0.00719
C 8.43888 30.71393 0.01364
C 7.33369 29.95226 -0.01062
C 7.37857 16.9763 -0.00033
C 7.61974 15.61778 0.03589
C 8.80303 14.81144 -0.02759
C 9.82883 2.90382 0.01877
C 3.63826 32.00809 -0.05697
C 23.26923 17.79528 -0.02422
C 22.15843 15.61358 0.00096
C 31.96001 32.68324 0.01713
C 33.17055 31.99779 -0.01694
C 33.18021 30.60336 0.01428
C 31.98749 29.833 -0.02142
C 32.005 28.40608 0.0544
C 33.15906 27.67676 0.00026
C 33.18698 26.28822 0.00682
C 31.98318 25.58938 -0.01779
C 29.53896 34.07312 0.00346
C 31.9348 24.16837 0.03794
C 33.13724 21.9754 0.01574
C 31.95807 21.28446 -0.02383
C 31.89926 19.88236 -0.01429
C 33.10695 19.21866 -0.0136
C 33.13653 17.75254 0.00594
C 31.87965 17.07953 -0.02474
C 31.9462 15.60949 0.00369
C 33.17284 14.95507 0.00455
C 33.19091 23.42731 0.01927
C 33.19658 13.50584 -0.00644
C 30.74172 0.71428 0.00307
C 29.53418 2.82369 0.02108
C 30.68573 21.99979 -0.01415
C 29.42618 21.31332 -0.03039
C 29.44293 19.84807 0.01836
C 30.63934 19.14368 0.03531
C 30.65227 17.7755 -0.00669
C 29.43466 17.08181 0.0101
C 29.46501 15.64104 0.01705
C 30.73932 14.86438 -0.0405
C 30.7313 2.07328 0.00716
C 30.75231 13.4304 -0.01303
C 29.48216 11.3392 -0.02155
C 30.7338 10.62757 -0.00944
C 30.74944 9.23308 -0.03735
C 29.49465 8.39834 -0.00971
C 29.54176 7.04882 0.01518
C 30.77504 6.35513 0.01908
C 30.81891 4.91212 0.07705
C 29.52829 4.1705 0.0103
C 29.46454 12.80753 -0.01461
C 31.97623 12.74928 -0.01839
C 31.99263 11.33079 0.00137
C 33.26207 10.61668 0.00199
C 1.24695 19.17246 -0.01678
C 1.2396 17.73322 0.01223
C 0.01903 17.00884 0.00648
C 34.41489 15.66133 0.02114
C 1.19905 14.94657 -0.02957
C 1.14801 13.52865 0.00343
C 34.34113 12.73853 -0.02656
C 34.42093 11.3705 -0.02442
C 34.35125 19.92243 0.01951
C 1.1938 10.67119 -0.00027
C 34.4268 8.49306 -0.02302
C 0.03412 7.08501 -0.02849
C 1.25866 6.40969 0.02931
C 1.2007 5.0146 0.00628
C 34.39894 4.30084 -0.0345
C 34.41428 2.9279 -0.00931
C 1.23082 2.22081 -0.00939
C 1.22962 0.74084 -0.00468
C 1.21427 9.22729 -0.00583
C 34.36093 21.30635 -0.02213
C 1.21859 22.01675 0.02712
C 1.23022 23.41097 0.00723
C 33.20822 9.20982 0.04381
C 32.00968 8.49887 0.02806
C 31.96647 7.10517 0.01504
C 33.20895 6.37107 -0.00069
C 33.15697 4.97961 0.04926
C 32.03932 4.2103 -0.03838
C 32.01678 2.84536 0.00349
C 33.21566 2.1466 -0.00323
C 33.18388 0.73296 -0.00841
C 32.0085 0.07363 0.0001
C 34.38185 32.69331 -0.02927
C 1.15224 32.01829 -0.01404
C 1.19843 30.56413 0.01027
C 34.3764 29.83919 0.01831
C 34.40289 28.41885 -0.01037
C 1.25931 27.64768 -0.00439
C 1.24426 26.27467 -0.00598
C 0.02128 25.58876 -0.05239
C 0.01417 24.12159 0.03076
C 30.71119 23.42837 -0.01854
C 22.11284 17.05297 0.01277
C 29.53855 24.18391 -0.02049
C 30.75767 26.32164 0.00261
C 24.56006 25.555 -0.01107
C 24.58317 24.13933 -0.01586
C 25.79042 23.45554 -0.01971
C 25.85136 22.05741 -0.02118
C 24.6123 21.38799 0.00733
C 24.6118 19.88094 -0.00178
C 25.79147 19.20311 0.00768
C 25.75845 17.79741 -0.0276
C 25.86736 26.29866 0.00071
C 24.52066 17.05758 0.03005
C 25.80515 14.90148 0.02117
C 25.79417 13.44362 0.02737
C 24.56624 12.7372 -0.00498
C 24.54239 11.30102 0.00135
C 25.84166 10.61138 0.03102
C 25.8081 9.13695 0.02555
C 24.56238 8.47708 0.01423
C 24.62387 7.04655 -0.00285
C 24.58577 15.61115 -0.04078
C 25.82363 6.31322 -0.009
C 25.91271 27.65602 -0.00225
C 24.5979 29.79919 -0.0055
C 23.38639 14.93155 -0.01527
C 23.32445 13.43154 0.01087
C 22.14517 12.70347 0.00199
C 22.09864 11.31999 0.01511
C 23.32178 10.57558 -0.00478
C 23.30249 9.14765 -0.01662
C 22.06619 8.50973 -0.01185
C 22.05137 7.07404 0.01126
C 24.61838 28.38817 0.01515
C 23.30105 6.33024 0.01852
C 22.1052 4.25932 0.03046
C 22.07519 2.84983 0.0296
C 23.26886 2.14748 0.03374
C 23.32212 0.71204 -0.02845
C 22.04342 34.05949 -0.03213
C 24.53793 32.67347 0.02239
C 25.82277 31.96483 0.01153
C 25.8051 30.52999 0.02734
C 23.3454 4.90886 -0.00381
C 25.85691 4.86418 -0.01199
C 24.53261 4.20363 -0.00229
C 24.60274 2.79741 -0.00938
C 27.03277 11.37977 0.04185
C 28.23924 10.58176 0.00194
C 28.26516 9.1782 -0.00621
C 27.07307 8.46761 0.02611
C 27.05594 6.99295 0.02198
C 28.27214 6.36989 0.01094
C 28.31444 4.95776 0.00235
C 27.09054 4.19454 0.01495
C 27.02001 12.80153 0.02316
C 27.10259 2.79416 0.01259
C 28.2726 0.69888 0.01699
C 27.00398 34.07579 -0.00416
C 29.42782 32.68295 0.01177
C 30.75086 31.99199 0.04266
C 30.71296 30.60769 0.01324
C 29.50184 29.88804 0.0014
C 29.5366 28.45396 0.00924
C 30.76988 27.72517 0.02326
C 28.30045 2.11233 0.01799
C 28.29653 13.54168 0.01257
C 28.25386 14.9073 0.00152
C 27.03804 15.63211 -0.00294
C 25.84603 2.0532 -0.0264
C 25.84641 0.6777 -0.01154
C 24.54457 34.04757 0.00684
C 26.9477 32.64317 -0.01052
C 28.2341 31.95555 -0.01679
C 28.21985 30.52938 0.00367
C 27.07027 29.82994 0.04306
C 27.09911 28.35804 0.00996
C 28.33278 27.69943 0.00195
C 28.27058 26.31122 -0.00802
C 27.10504 25.55583 -0.00218
C 27.04229 24.11225 -0.01654
C 28.2716 23.46119 -0.00037
C 28.21002 22.03821 -0.0032
C 27.02782 21.3436 0.00622
C 27.02893 19.94483 -0.02815
C 28.19404 19.20756 -0.00942
C 28.27447 17.7588 0.00487
C 27.0275 17.04811 0.00826
C 29.52588 25.64808 0.03265
C 2.41962 32.69474 -0.00725
