393
Graphene
C 34.42264 34.06572 0.01295
C 15.99481 31.99138 0.01877
C 15.97979 30.53281 0.01363
C 14.74698 29.87507 -0.02162
C 14.80519 28.45898 0.00415
C 16.0295 27.69243 -0.0014
C 15.98322 26.25266 0.02162
C 14.81457 25.56537 0.0076
C 14.85234 23.98865 0.01241
C 15.9836 23.20739 -0.01454
C 14.77549 32.64972 -0.00925
C 16.06847 10.62242 0.01945
C 14.75985 8.48969 0.03542
C 14.72879 7.04401 0.02299
C 15.94573 6.39567 0.00244
C 15.99989 4.87858 -0.01717
C 14.78861 4.199 0.05265
C 14.70083 2.79202 -0.01952
C 15.94733 1.97289 -0.02813
C 15.87995 0.60263 0.00374
C 14.69754 34.05192 0.00052
C 15.91788 9.29788 0.01416
C 12.28058 0.03092 0.00444
C 13.46013 0.72355 -0.01789
C 13.46964 2.14166 0.02894
C 9.83099 2.9391 0.03589
C 11.04048 2.22285 -0.02759
C 11.08065 0.75565 0.0402
C 9.87883 0.02993 0.00572
C 12.34254 32.63411 0.03592
C 13.54 31.96579 0.00406
C 13.52668 30.58034 0.00943
C 12.29739 29.89003 0.02841
C 12.29744 28.52182 -0.01111
C 13.53024 27.68533 -0.01275
C 13.50836 26.30267 0.00985
C 12.28261 25.583 -0.02245
C 12.36663 24.00783 -0.00428
C 13.53741 23.44238 0.03101
C 13.5899 8.98957 -0.01536
C 12.25364 8.66835 -0.02689
C 12.2477 7.06292 -0.01046
C 13.56429 6.36226 -0.00891
C 13.60081 4.95113 0.02819
C 12.31784 4.29519 0.00165
C 12.24562 2.92332 -0.02971
C 17.2414 32.63442 -0.03682
C 9.84221 4.31273 -0.00033
C 18.50141 31.97494 0.01965
C 17.19601 29.90631 -0.01957
C 20.95418 26.26161 -0.02213
C 19.69348 25.54302 0.03698
C 19.64825 24.23659 -0.00109
C 20.89478 23.46636 -0.00491
C 20.88026 22.06481 0.03338
C 19.54604 21.26591 -0.0258
C 19.87594 19.93632 -0.0331
C 20.91654 19.17217 -0.00316
C 20.85547 17.75068 0.02188
C 20.99582 27.65039 0.00028
C 19.86599 16.94854 -0.01979
C 20.78073 14.84487 -0.01581
C 20.83828 13.41493 0.01452
C 19.73402 12.6505 0.04892
C 19.64449 11.32122 -0.00111
C 20.9849 10.59799 -0.03557
C 20.82856 9.22971 0.03754
C 19.54035 8.60111 0.01739
C 19.63318 7.16239 0.00755
C 20.83418 6.45762 -0.0054
C 19.68059 15.63177 0.02691
C 19.77587 28.41058 -0.00289
C 19.68817 29.85154 -0.00066
C 20.9159 30.54391 0.00213
C 17.30604 28.40239 -0.0108
C 18.50023 27.69392 -0.00368
C 18.45226 26.29491 -0.02696
C 17.18925 25.52768 -0.00114
C 17.09969 23.9911 0.00228
C 18.40808 23.43142 0.00798
C 18.57423 22.10674 0.00422
C 17.24542 11.34796 0.0351
C 18.41474 10.71823 -0.03113
C 18.33067 9.30103 0.02098
C 17.0965 8.60613 0.01848
C 17.22341 7.12327 -0.00619
C 18.4 6.36235 -0.02162
C 18.41207 4.93381 0.00889
C 17.21393 4.19866 -0.00481
C 17.1175 2.77054 0.00979
C 18.38234 2.06098 0.01443
C 18.44749 0.67211 0.03505
C 17.26489 34.02989 -0.02815
C 19.72652 32.65519 -0.04147
C 20.94703 31.9349 -0.05302
C 18.42414 30.56381 0.02058
C 11.08984 4.99338 -0.01062
C 11.04478 6.39727 0.01364
C 9.74364 7.17372 -0.00719
C 2.4329 4.24976 -0.03996
C 2.4228 2.89258 0.01465
C 3.68819 2.13478 -0.00074
C 3.6368 0.73562 -0.00518
C 2.44067 0.02104 0.0086
C 4.93494 32.74507 -0.00643
C 6.20662 31.98421 0.017
C 6.13145 30.61954 -0.03113
C 4.92775 29.81418 -0.02566
C 3.61436 5.02172 0.01996
C 4.91349 28.41184 -0.00094
C 6.08596 26.32367 -0.00725
C 4.8812 25.52765 -0.05697
C 4.86246 24.15288 0.01087
C 6.04374 23.44559 -0.01343
C 6.1788 22.02445 0.00988
C 4.94857 21.33752 0.0276
C 5.01777 19.85361 0.01305
C 6.16038 19.09102 -0.00077
C 5.02106 16.92805 0.03368
C 6.13469 27.78091 0.02322
C 3.65297 6.47692 -0.00279
C 2.38001 7.15435 0.01226
C 2.4643 8.63984 0.03828
C 3.68566 30.58868 0.00208
C 2.51544 29.81355 0.01707
C 2.46818 28.37482 0.02769
C 3.72252 27.66011 -0.03291
C 3.62557 26.221 -0.04999
C 2.44026 25.62143 0.04505
C 2.36566 24.1335 0.03284
C 3.62913 23.48728 -0.04307
C 3.72518 22.07418 0.03189
C 2.44669 21.28094 0.00031
C 2.52196 19.87023 -0.003
C 3.78647 19.16299 0.01402
C 3.83337 17.75606 0.02379
C 2.48505 17.04846 0.00907
C 2.49121 15.6376 0.00643
C 3.71324 14.87838 -0.01509
C 3.71668 13.47523 0.03267
C 2.3907 12.71025 0.02374
C 2.41764 11.35862 0.00402
C 3.73877 10.74968 0.0073
C 3.68933 9.33067 0.0174
C 4.76759 15.70715 -0.02929
C 6.29949 13.46301 -0.00966
C 5.10615 12.86652 -0.03337
C 4.9831 11.36975 0.01227
C 7.34681 8.51172 -0.00482
C 7.3314 7.03247 -0.01384
C 8.57666 6.36949 0.03693
C 8.54219 5.03607 0.01745
C 7.26405 4.27911 0.00488
C 7.38673 2.82898 -0.01004
C 8.64961 2.14485 -0.02896
C 8.6025 0.76651 -0.00131
C 7.35548 0.09943 -0.01118
C 9.87406 32.673 -0.014
C 11.05275 31.98927 0.02147
C 11.06372 30.6097 0.00373
C 9.82615 29.84936 -0.00191
C 9.78389 28.42479 0.00438
C 11.06997 27.77094 0.01291
C 11.06214 26.29776 0.00093
C 9.74389 25.66027 0.00057
C 9.83002 24.09873 -0.01634
C 11.08386 23.61089 -0.00334
C 11.0075 9.33507 0.02339
C 9.82074 8.66698 0.01641
C 8.52646 9.31567 0.02888
C 20.82794 5.01723 0.00667
C 8.3212 10.63156 0.00685
C 7.38722 21.51905 0.00393
C 6.10651 10.61501 0.00873
C 6.12677 9.21427 -0.00049
C 4.88709 8.61 0.00848
C 4.80359 7.16401 -0.01303
C 6.01962 6.38401 -0.01378
C 6.04017 4.99884 0.02635
C 4.83744 4.25179 0.0127
C 4.89813 2.88986 0.01396
C 6.09568 2.16179 0.01849
C 6.08809 0.72681 -0.01142
C 4.86618 0.07522 -0.00562
C 7.39967 32.73967 -0.00494
C 8.61378 31.99446 0.00054
C 8.58261 30.49804 0.03007
C 7.38095 29.81966 -0.00095
C 7.38292 28.40953 0.01572
C 8.61693 27.72319 -0.04848
C 8.52144 26.31212 -0.00892
C 7.26964 25.56944 -0.01362
C 7.31764 24.1194 -0.0008
C 8.52437 23.51836 0.0288
C 7.28578 11.39329 0.00895
C 3.6894 31.99958 -0.00561
C 19.66721 4.25559 0.00143
C 20.83436 2.05751 0.00364
C 30.79788 4.92325 0.07705
C 29.52729 4.30517 0.0103
C 29.49112 2.82304 0.02108
C 30.70488 2.13453 0.00716
C 30.74001 0.73264 0.00307
C 29.56044 0.02003 0.00346
C 31.96799 32.62743 0.01713
C 33.08563 31.90055 -0.01694
C 33.18555 30.5137 0.01428
C 30.73921 6.35807 0.01908
C 31.90458 29.86083 -0.02142
C 33.15111 27.72036 0.00026
C 33.16756 26.34276 0.00682
C 32.02241 25.55407 -0.01779
C 31.96997 24.12857 0.03794
C 33.21619 23.50226 0.01927
C 33.19661 22.05829 0.01574
C 32.04835 21.22806 -0.02383
C 32.00529 19.77833 -0.01429
C 33.27372 19.14026 -0.0136
C 31.89119 28.44349 0.0544
C 29.50841 7.06698 0.01518
C 29.49622 8.464 -0.00971
C 30.67448 9.18726 -0.03735
C 30.72376 31.97164 0.04266
C 30.67073 30.51084 0.01324
C 29.44729 29.86452 0.0014
C 29.51735 28.42895 0.00924
C 30.70248 27.70714 0.02326
C 30.80051 26.28229 0.00261
C 29.56967 25.58862 0.03265
C 29.5712 24.14184 -0.02049
C 30.75717 23.33315 -0.01854
C 30.86424 21.91201 -0.01415
C 29.59461 21.20321 -0.03039
C 29.52252 19.83871 0.01836
C 30.80793 19.09697 0.03531
C 30.71141 17.71054 -0.00669
C 29.42414 17.05185 0.0101
C 29.46283 15.65403 0.01705
C 30.7181 14.98437 -0.0405
C 30.76138 13.61609 -0.01303
C 29.50454 12.80826 -0.01461
C 29.499 11.39661 -0.02155
C 30.69987 10.67672 -0.00944
C 33.23594 17.75855 0.00594
C 29.52278 32.68163 0.01177
C 31.99486 17.04708 -0.02474
C 33.20101 14.89804 0.00455
C 0.02085 21.34383 -0.02213
C 0.02733 19.93093 0.01951
C 1.19223 19.09849 -0.01678
C 1.18741 17.75679 0.01223
C 34.39165 16.9769 0.00648
C 0.00417 15.53145 0.02114
C 1.21259 14.87155 -0.02957
C 1.21476 13.45543 0.00343
C 34.35008 12.78303 -0.02656
C 1.25668 22.06043 0.02712
C 0.01013 11.34535 -0.02442
C 1.23012 9.29418 -0.00583
C 34.4234 8.54438 -0.02302
C 34.40636 7.1626 -0.02849
C 1.17178 6.45963 0.02931
C 1.19048 4.97569 0.00628
C 34.36169 4.31382 -0.0345
C 34.34941 2.82667 -0.00931
C 1.1554 2.10943 -0.00939
C 1.17036 0.74494 -0.00468
C 1.2232 10.6131 -0.00027
C 1.17199 23.45055 0.00723
C 34.39006 24.25065 0.03076
C 34.41526 25.62097 -0.05239
C 33.08774 13.46467 -0.00644
C 31.91773 12.8092 -0.01839
C 31.9366 11.38339 0.00137
C 33.1732 10.67352 0.00199
C 33.16842 9.25473 0.04381
C 31.98561 8.50863 0.02806
C 31.99281 7.08776 0.01504
C 33.22349 6.46514 -0.00069
C 33.15465 4.99044 0.04926
C 31.96773 4.25518 -0.03838
C 31.90309 2.79075 0.00349
C 33.16556 2.11639 -0.00323
C 33.22972 0.71718 -0.00841
C 31.95237 0.02176 0.0001
C 34.41271 32.68864 -0.02927
C 1.20076 31.95665 -0.01404
C 1.21806 30.5339 0.01027
C 0.03497 29.80664 0.01831
C 0.05054 28.32933 -0.01037
C 1.26746 27.73211 -0.00439
C 1.19511 26.32009 -0.00598
C 31.99993 15.65716 0.00369
C 27.04653 0.02235 -0.00416
C 28.27588 0.69183 0.01699
C 28.33175 2.07137 0.01799
C 22.10278 8.51763 -0.01185
C 22.10497 7.11714 0.01126
C 23.37037 6.40481 0.01852
C 23.30033 4.93213 -0.00381
C 22.08346 4.26758 0.03046
C 22.08096 2.82049 0.0296
C 23.29212 2.14111 0.03374
C 23.38952 0.6838 -0.02845
C 22.12404 34.06386 -0.03213
C 23.35825 9.15786 -0.01662
C 24.59982 32.64547 0.02239
C 25.81002 30.56475 0.02734
C 24.55037 29.7813 -0.0055
C 24.71437 28.35657 0.01515
C 25.90439 27.62479 -0.00225
C 25.92002 26.19945 0.00071
C 24.65678 25.54725 -0.01107
C 24.63503 24.1146 -0.01586
C 25.8409 23.43611 -0.01971
C 25.90487 22.0074 -0.02118
C 25.73435 31.94121 0.01153
C 23.51089 10.59737 -0.00478
C 22.22901 11.27773 0.01511
C 22.13985 12.70676 0.00199
C 20.91829 0.66603 -0.00831
C 19.70157 34.04357 -0.02957
C 22.19296 32.65073 -0.04422
C 23.32741 31.90022 0.00654
C 23.38159 30.54735 -0.00703
C 22.12018 29.81965 -0.04076
C 22.1793 28.39554 -0.00652
C 23.4377 27.6864 0.0058
C 23.45337 26.27098 -0.00865
C 22.20298 25.50665 0.00675
C 22.1256 24.15063 -0.00311
C 23.40105 23.42373 0.00742
C 23.33714 22.04856 -0.01594
C 22.09556 21.35777 0.0106
C 22.13659 19.93673 -0.01154
C 23.3606 19.2344 -0.01721
C 23.3067 17.77911 -0.02422
C 22.08112 17.08455 0.01277
C 22.05458 15.62963 0.00096
C 23.31897 14.8295 -0.01527
C 23.2816 13.48539 0.01087
C 24.596 21.27032 0.00733
C 24.64078 19.91786 -0.00178
C 25.83107 19.12916 0.00768
C 25.65633 17.68206 -0.0276
C 27.08621 24.0965 -0.01654
C 28.37132 23.48652 -0.00037
C 28.30963 21.98842 -0.0032
C 27.1512 21.30495 0.00622
C 27.09564 19.91578 -0.02815
C 28.27863 19.17265 -0.00942
C 28.17862 17.74873 0.00487
C 26.89662 17.02238 0.00826
C 27.00049 15.6287 -0.00294
C 28.21721 14.90473 0.00152
C 28.1903 13.47496 0.01257
C 27.00895 12.8213 0.02316
C 27.01585 11.37518 0.04185
C 28.25407 10.66807 0.00194
C 28.21666 9.24795 -0.00621
C 26.96694 8.50456 0.02611
C 27.04677 7.0997 0.02198
C 28.24822 6.3803 0.01094
C 28.26779 4.91744 0.00235
C 27.04946 4.21957 0.01495
C 27.05687 2.72166 0.01259
C 27.19567 25.54554 -0.00218
C 19.60333 2.79156 -0.017
C 28.34457 26.28218 -0.00802
C 27.0664 28.37439 0.00996
C 24.41516 17.01292 0.03005
C 24.52036 15.60942 -0.04078
C 25.75363 14.91008 0.02117
C 25.74549 13.51548 0.02737
C 24.53014 12.77624 -0.00498
C 24.656 11.3209 0.00135
C 25.83778 10.63729 0.03102
C 25.7619 9.24545 0.02555
C 24.58493 8.50548 0.01423
C 24.63616 7.03706 -0.00285
C 25.83311 6.34935 -0.009
C 25.78489 4.92853 -0.01199
C 24.54013 4.18705 -0.00229
C 24.52563 2.76313 -0.00938
C 25.82872 2.08992 -0.0264
C 25.78677 0.6983 -0.01154
C 24.57083 0.02396 0.00684
C 27.03247 32.66975 -0.01052
C 28.24599 32.00455 -0.01679
C 28.23938 30.55749 0.00367
C 26.95986 29.81386 0.04306
C 28.31381 27.73927 0.00195
C 2.4503 32.6546 -0.01977
