372
Graphene
C 34.36968 34.05495 0.01295
C 9.81846 7.14384 0.00244
C 11.03004 6.46854 -0.01717
C 11.08268 4.98973 0.05265
C 9.80001 4.25489 -0.01952
C 9.78774 2.91484 -0.02813
C 10.99004 2.13184 0.00374
C 10.97457 0.65867 0.00052
C 9.78314 34.0661 -0.03682
C 12.26681 32.66386 0.01965
C 13.52142 31.92466 0.02058
C 13.52949 30.53872 -0.01957
C 12.39902 29.59127 -0.0108
C 13.31208 28.0096 -0.00368
C 13.12543 26.46164 -0.02696
C 11.97931 25.59756 -0.00114
C 12.24373 24.16119 0.00228
C 13.47006 23.44707 0.00798
C 13.44471 22.09562 0.00422
C 12.34937 21.31065 0.0351
C 9.81241 8.57356 0.02299
C 12.29455 19.94595 -0.03113
C 11.03595 9.25403 0.03542
C 9.85776 11.34929 0.01945
C 7.24009 0.05698 -0.02689
C 9.77517 32.61961 -0.01046
C 11.12326 31.83717 -0.00891
C 11.17614 30.35769 0.02819
C 9.82281 29.8613 0.00165
C 9.79802 28.4579 -0.02971
C 10.12228 25.58506 0.02894
C 9.89212 24.18189 -0.01789
C 11.08281 23.42629 0.00444
C 11.06821 22.00934 -0.00925
C 9.8536 21.34932 0.01877
C 9.85484 19.88328 0.01363
C 11.1113 19.13378 -0.02162
C 11.06741 17.71602 0.00415
C 9.84381 17.02799 -0.0014
C 9.85824 15.57467 0.02162
C 11.09885 14.91815 0.0076
C 11.05482 13.47368 0.01241
C 9.8457 12.72604 -0.01454
C 11.04187 10.64956 0.01416
C 13.56165 19.14194 0.02098
C 13.58954 17.71265 0.01848
C 12.38813 16.99315 -0.00619
C 14.72477 24.13496 -0.01581
C 16.00728 23.4207 0.01452
C 16.02561 21.96347 0.04892
C 14.81289 21.27826 -0.00111
C 14.76257 19.86751 -0.03557
C 16.03759 19.09766 0.03754
C 15.99047 17.73973 0.01739
C 14.79548 17.01263 0.00755
C 14.77718 15.59486 -0.0054
C 15.97122 14.93346 0.00667
C 15.97216 13.45969 0.00143
C 14.79037 12.74336 -0.017
C 14.67006 11.33849 0.00364
C 15.94903 10.54333 -0.00831
C 15.89246 9.14621 -0.02957
C 14.69484 8.45524 -0.04422
C 14.67383 7.04731 0.00654
C 15.93123 6.29012 -0.00703
C 15.92988 4.90488 -0.04076
C 14.54415 25.59376 0.02691
C 15.8824 26.15639 -0.01979
C 15.98876 27.59846 0.02188
C 14.76685 28.4049 -0.00316
C 12.33883 15.58419 -0.02162
C 13.57395 14.90017 0.00889
C 13.5276 13.46576 -0.00481
C 12.27635 12.75269 0.00979
C 12.26009 11.33713 0.01443
C 13.46595 10.5816 0.03505
C 13.48522 9.18004 -0.02815
C 12.29053 8.53672 -0.04147
C 12.2967 7.11833 -0.05302
C 8.54834 0.75939 -0.01536
C 13.51235 6.3481 0.00213
C 12.30371 4.27134 -0.00289
C 12.2562 2.86027 0.00028
C 13.41133 2.09378 -0.02213
C 13.48719 0.70618 0.03698
C 12.24771 0.02092 -0.00109
C 14.73833 32.59247 -0.00491
C 15.97364 31.92976 0.03338
C 16.04884 30.53201 -0.0258
C 14.8137 29.78648 -0.0331
C 13.51156 4.9247 -0.00066
C 14.73656 4.17998 -0.00652
C 8.55326 2.21203 0.03101
C 7.33427 4.26902 -0.02245
C 3.71614 6.4142 0.03368
C 3.63092 4.9816 -0.02929
C 2.39704 4.24384 -0.00966
C 2.38957 2.8729 -0.03337
C 3.64356 2.13607 0.01227
C 3.58497 0.77485 0.00873
C 2.3322 34.06494 -0.00049
C 4.86063 32.76392 0.00848
C 6.0919 32.0379 -0.01303
C 6.12724 30.60019 -0.01378
C 4.89934 29.84124 0.02635
C 4.93472 28.45235 0.0127
C 6.15529 27.70715 0.01396
C 6.2061 26.39056 0.01849
C 4.96104 25.60814 -0.01142
C 4.89763 24.16194 -0.00562
C 6.13113 23.50442 -0.00494
C 6.14055 22.07424 0.00054
C 4.88002 21.35231 0.03007
C 2.45346 7.21668 -0.00077
C 4.97722 19.92782 -0.00095
C 2.50468 8.5998 0.01305
C 3.63561 10.65443 0.00988
C 3.60958 30.54763 0.03828
C 2.38881 29.89592 0.01226
C 2.36276 28.50838 -0.00279
C 3.6645 27.6966 0.01996
C 3.6499 26.33093 -0.03996
C 2.38962 25.60262 0.01465
C 2.44921 24.19115 -0.00074
C 3.64546 23.50411 -0.00518
C 3.71549 22.05074 0.0086
C 2.37334 21.30524 -0.00643
C 2.45961 19.92631 0.017
C 3.66853 19.17683 -0.03113
C 3.73778 17.82721 -0.02566
C 2.41189 17.06832 -0.00094
C 2.4051 15.62362 0.02322
C 3.68065 15.02254 -0.00725
C 3.61664 13.5905 -0.05697
C 2.46938 12.87296 0.01087
C 2.44488 11.40121 -0.01343
C 3.67528 9.30802 0.0276
C 6.17367 19.19898 0.01572
C 6.16024 17.77317 -0.04848
C 5.00806 17.06044 -0.00892
C 7.43984 24.26131 -0.01634
C 8.63959 23.47031 -0.00334
C 8.604 22.02674 0.02339
C 7.36143 21.30936 0.01641
C 7.40153 19.85889 -0.00719
C 8.58811 19.17645 0.01364
C 8.60643 17.74982 -0.01062
C 7.40328 17.09493 -0.00033
C 7.34032 15.60967 0.03589
C 8.60696 14.9193 -0.02759
C 8.621 13.50184 0.0402
C 7.31377 12.77409 0.00572
C 7.36375 11.41009 0.03592
C 8.59803 10.6701 0.00406
C 8.54726 9.26994 0.00943
C 7.33817 8.55418 0.02841
C 7.34116 7.17305 -0.01111
C 8.54768 6.42717 -0.01275
C 8.59212 4.9761 0.00985
C 7.50196 25.64562 0.00057
C 8.80895 26.32598 0.00093
C 8.58606 27.76254 0.01291
C 7.40528 28.42228 0.00438
C 4.87387 15.68458 -0.01362
C 6.14747 14.98682 -0.0008
C 6.11953 13.5497 0.0288
C 4.82546 12.84438 0.00393
C 4.89659 11.35844 0.00895
C 6.12198 10.69755 0.00685
C 6.13157 9.25108 0.02888
C 4.93029 8.57047 -0.00482
C 4.85292 7.15181 -0.01384
C 7.35408 2.91433 -0.00428
C 6.17429 6.45925 0.03693
C 4.92248 4.30864 0.00488
C 4.86179 2.92114 -0.01004
C 6.09731 2.21331 -0.02896
C 6.06714 0.76708 -0.00131
C 4.7612 0.0657 -0.01118
C 7.27698 32.71513 -0.014
C 8.44929 31.9732 0.02147
C 8.58482 30.60221 0.00373
C 7.38978 29.91369 -0.00191
C 6.11673 5.06733 0.01745
C 14.67476 2.79524 0.0058
C 15.95609 2.07434 -0.00865
C 15.93871 0.70698 0.00675
C 29.39743 17.15693 0.00716
C 30.78361 6.25485 0.00307
C 30.37407 4.97689 0.00346
C 29.12446 4.25244 0.01713
C 29.38118 2.839 -0.01694
C 30.63798 2.0979 0.01428
C 30.60992 0.7187 -0.02142
C 29.3691 0.04748 0.0544
C 31.95054 32.64912 0.00026
C 33.13612 31.91231 0.00682
C 33.18584 30.56703 -0.01779
C 33.22374 27.67039 0.03794
C 33.33232 26.36707 0.01927
C 31.99038 24.25546 0.01574
C 33.23085 23.49222 -0.02383
C 33.19919 22.06469 -0.01429
C 31.99872 21.27243 -0.0136
C 31.9417 19.8397 0.00594
C 33.19044 19.17252 -0.02474
C 30.72735 17.69573 0.02108
C 33.1304 17.70119 0.00369
C 30.76449 19.02516 0.0103
C 29.51384 21.1938 0.01908
C 24.56992 4.35945 0.00261
C 24.62416 2.89628 0.03265
C 25.795 2.1281 -0.02049
C 25.77033 0.79352 -0.01854
C 24.56037 0.15131 -0.01415
C 28.35565 21.91457 -0.03039
C 27.02336 21.4086 0.01836
C 27.00024 19.93631 0.03531
C 28.23708 19.17722 -0.00669
C 28.37517 17.74945 0.0101
C 27.1634 4.31043 0.01705
C 27.05076 2.87733 -0.0405
C 28.12886 2.06427 -0.01303
C 28.0974 0.68277 -0.01461
C 26.92524 33.95862 -0.02155
C 29.56555 32.6987 -0.00944
C 30.60812 32.15329 -0.03735
C 30.93867 23.39711 -0.00971
C 30.72514 21.96253 0.01518
C 29.58426 19.74269 0.07705
C 31.92758 16.98117 0.00455
C 31.9759 15.59677 -0.00644
C 33.0428 14.83305 -0.01839
C 34.37879 19.88543 0.01951
C 1.12829 19.20722 -0.01678
C 1.21395 17.72995 0.01223
C 34.33638 17.02294 0.00648
C 34.36846 15.57953 0.02114
C 1.23519 14.96061 -0.02957
C 1.24188 13.51177 0.00343
C 0.07711 12.75107 -0.02656
C 0.12122 11.38272 -0.02442
C 1.27947 10.67086 -0.00027
C 1.23368 9.23132 -0.00583
C 0.00423 8.57613 -0.02302
C 34.37243 7.12093 -0.02849
C 1.19733 6.42107 0.02931
C 1.1389 5.01912 0.00628
C 34.32472 4.21056 -0.0345
C 34.35169 2.85938 -0.00931
C 1.18461 2.12832 -0.00939
C 1.11861 0.72333 -0.00468
C 34.40102 21.30484 -0.02213
C 1.25321 22.02463 0.02712
C 1.22626 23.42038 0.00723
C 0.03119 24.10967 0.03076
C 33.29287 13.37728 0.00137
C 33.30696 10.79445 0.00199
C 33.20044 9.36368 0.04381
C 32.00444 8.67022 0.02806
C 31.83953 7.22219 0.01504
C 33.08945 6.4445 -0.00069
C 33.04266 5.01161 0.04926
C 31.80127 4.2541 -0.03838
C 31.85033 2.90985 0.00349
C 25.59017 17.79413 0.02326
C 33.09028 2.15195 -0.00323
C 31.87061 0.00167 0.0001
C 34.34942 32.60999 -0.02927
C 1.19856 31.92575 -0.01404
C 1.12121 30.56082 0.01027
C 34.3641 29.86038 0.01831
C 34.37233 28.48401 -0.01037
C 1.15917 27.72012 -0.00439
C 1.18949 26.30068 -0.00598
C 0.02725 25.4953 -0.05239
C 33.08707 0.72248 -0.00841
C 25.78422 19.23904 0.00924
C 24.62228 19.95393 0.0014
C 24.64138 21.32455 0.01324
C 17.15453 8.45297 0.02239
C 17.22355 7.00642 0.01153
C 18.45297 6.33599 0.02734
C 18.41559 4.87837 -0.0055
C 17.20862 4.19822 0.01515
C 17.20929 2.75797 -0.00225
C 18.47385 2.07421 0.00071
C 18.4594 0.59438 -0.01107
C 17.16716 34.03349 -0.01586
C 19.69893 32.62968 -0.01971
C 20.98427 31.91299 -0.02118
C 20.87619 30.53622 0.00733
C 19.70745 29.75304 -0.00178
C 19.73562 28.41047 0.00768
C 20.98348 27.73896 -0.0276
C 20.90331 26.32539 0.03005
C 19.6645 25.47201 -0.04078
C 19.76105 24.05517 0.02117
C 21.05324 23.39335 0.02737
C 18.35685 9.14746 -0.03213
C 18.35001 10.52572 -0.02845
C 17.11314 11.28752 0.03374
C 17.14106 12.75734 0.0296
C 14.67743 34.03993 -0.00311
C 17.17954 32.65153 0.00742
C 18.47254 31.88617 -0.01594
C 18.44151 30.4762 0.0106
C 17.24628 29.77873 -0.01154
C 17.24208 28.34034 -0.01721
C 18.5116 27.67115 -0.02422
C 18.44128 26.20246 0.01277
C 17.129 25.49431 0.00096
C 20.92825 22.01136 -0.00498
C 17.18414 24.13326 -0.01527
C 18.45791 21.91589 0.00199
C 17.21033 21.27256 0.01511
C 17.22577 19.8935 -0.00478
C 18.46512 19.14786 -0.01662
C 18.46164 17.74643 -0.01185
C 17.19703 17.00663 0.01126
C 17.16663 15.57083 0.01852
C 18.44326 14.85459 -0.00381
C 18.31862 13.45164 0.03046
C 18.48142 23.38326 0.01087
C 3.63114 32.01902 0.0174
C 19.68177 21.25453 0.00135
C 20.95947 19.12122 0.02555
C 22.38842 24.18225 0.00826
C 23.59552 23.44576 -0.00294
C 23.45429 22.00243 0.00152
C 22.19713 21.35344 0.01257
C 22.11873 19.9423 0.02316
C 23.42002 19.22017 0.04185
C 23.54528 17.82484 0.00194
C 22.29516 17.02602 -0.00621
C 22.00775 15.68613 0.02611
C 21.92438 8.37721 0.02198
C 21.92624 7.17068 0.01094
C 23.43727 4.98153 0.00235
C 22.16427 4.30638 0.01495
C 22.16196 2.88553 0.01259
C 23.41325 2.27203 0.01799
C 23.35078 0.82254 0.01699
C 22.20162 34.06555 -0.00416
C 24.61682 32.73383 0.01177
C 25.81925 22.10765 0.04266
C 22.06073 25.55731 0.00487
C 22.1818 28.26635 -0.00942
C 22.1881 29.69198 -0.02815
C 23.33762 30.50761 0.00622
C 20.97792 17.71817 0.01423
C 19.66861 16.96764 -0.00285
C 19.72179 15.50614 -0.009
C 20.95608 14.73636 -0.01199
C 20.74431 13.35034 -0.00229
C 19.54988 12.76869 -0.00938
C 19.51553 11.33547 -0.0264
C 20.74718 10.67581 -0.01154
C 20.8428 9.34591 0.00684
C 19.68317 19.81159 0.03102
C 19.61993 8.55287 -0.01052
C 20.76552 6.35692 0.00367
C 20.94433 4.91944 0.04306
C 19.68965 4.20654 0.00996
C 19.68925 2.75859 0.00195
C 20.92317 2.16916 -0.00802
C 20.93807 0.72623 -0.00218
C 19.69948 33.98368 -0.01654
C 22.25824 32.65234 -0.00037
C 23.58825 31.89572 -0.0032
C 19.71247 7.16385 -0.01679
C 2.37737 32.68294 0.0073
