349
Graphene
C 34.41444 0.09264 0.01295
C 9.95819 2.89205 0.00422
C 11.08182 2.05644 0.0351
C 11.147 0.77864 -0.03113
C 9.89557 0.03504 0.02098
C 12.33684 32.69302 0.01848
C 13.52759 31.93318 -0.00619
C 13.49828 30.43924 -0.02162
C 12.2695 29.699 0.00889
C 12.33477 28.25253 -0.00481
C 13.60907 27.73118 0.00979
C 13.60793 13.39388 0.01443
C 12.5305 12.89177 0.03505
C 13.50336 0.69107 -0.02815
C 12.33192 0.0459 -0.04147
C 14.76581 32.61953 -0.05302
C 15.91822 31.91806 0.00213
C 15.93829 30.47265 -0.00066
C 9.65631 4.13055 0.00798
C 9.90321 11.29252 0.00228
C 9.84594 12.58994 -0.00114
C 11.12256 13.39195 -0.02696
C 8.62115 5.01153 -0.01454
C 7.29002 4.33796 0.01945
C 7.31396 2.91825 0.01416
C 8.56172 2.20574 0.03542
C 8.61979 0.78431 0.02299
C 7.36953 0.08874 0.00244
C 9.842 32.65914 -0.01717
C 11.11963 31.99609 0.05265
C 14.71541 29.68123 -0.00289
C 11.07643 30.60032 -0.01952
C 9.75849 28.49783 0.00374
C 10.98341 27.72842 0.00052
C 10.93519 26.35764 -0.03682
C 10.04728 25.42111 0.01965
C 9.7854 24.08973 0.02058
C 9.82893 17.04023 -0.01957
C 10.07882 15.77073 -0.0108
C 10.9674 14.72755 -0.00368
C 9.84972 29.92518 -0.02813
C 14.66676 28.27705 0.00028
C 15.90477 13.3576 -0.02213
C 16.02954 0.65599 0.03698
C 21.1102 9.20569 -0.00831
C 20.92647 6.43371 -0.02957
C 20.88287 5.05099 -0.04422
C 19.65733 4.40876 0.00654
C 19.60496 3.05067 -0.00703
C 20.86006 2.10757 -0.04076
C 20.84259 0.66121 -0.00652
C 19.65311 34.04191 0.0058
C 20.7363 10.46876 0.00364
C 22.08904 32.62984 -0.00865
C 23.31331 30.55515 -0.00311
C 22.13028 29.83501 0.00742
C 22.10482 28.3866 -0.01594
C 23.29847 27.6781 0.0106
C 23.31122 26.18254 -0.01154
C 22.15369 25.56671 -0.01721
C 23.49941 23.28154 -0.02422
C 23.22747 17.78479 0.01277
C 23.31868 31.99676 0.00675
C 8.50584 6.3736 0.01241
C 19.70236 11.44119 -0.017
C 20.8912 13.62325 0.00667
C 14.80945 0.22426 -0.00109
C 17.11547 32.69462 -0.00491
C 18.40167 31.9845 0.03338
C 18.42371 30.57817 -0.0258
C 17.24347 29.72269 -0.0331
C 17.30703 28.36517 -0.00316
C 18.38674 13.26165 0.02188
C 17.09166 13.11597 -0.01979
C 19.70281 12.76256 0.00143
C 18.54555 2.04366 0.02691
C 17.19709 0.01031 0.01452
C 19.61416 32.67673 0.04892
C 20.83385 31.89624 -0.00111
C 20.93157 30.49053 -0.03557
C 19.6134 29.81366 0.03754
C 19.68502 28.40382 0.01739
C 20.84346 27.80961 0.00755
C 20.97421 15.05973 -0.0054
C 18.45066 0.73729 -0.01581
C 7.41334 7.14851 0.0076
C 7.38291 8.54651 0.02162
C 8.59227 9.12871 -0.0014
C 2.43881 7.03032 -0.00892
C 3.69641 6.37734 -0.01362
C 3.68182 4.92953 -0.0008
C 2.44193 4.18433 0.0288
C 2.45072 2.77659 0.00393
C 3.67022 2.18862 0.00895
C 3.67796 0.74479 0.00685
C 2.45715 0.08898 0.02888
C 2.47666 8.49237 -0.04848
C 4.90844 32.65584 -0.00482
C 6.15268 30.51255 0.03693
C 4.8587 29.86444 0.01745
C 4.86198 28.44448 0.00488
C 6.18095 27.74067 -0.01004
C 6.12921 26.2988 -0.02896
C 4.85476 25.59285 -0.00131
C 4.86026 24.19844 -0.01118
C 6.17417 23.51963 -0.014
C 6.1401 31.99051 -0.01384
C 6.13439 22.09112 0.02147
C 3.7214 9.19431 0.01572
C 2.54943 11.3289 0.03007
C 3.66408 30.56921 0.03368
C 2.41279 29.84552 -0.02929
C 2.36386 28.41151 -0.00966
C 3.6408 27.70446 -0.03337
C 3.65055 26.27561 0.01227
C 2.43018 25.56559 0.00873
C 2.52129 24.14294 -0.00049
C 3.72764 23.40799 0.00848
C 3.7407 10.67425 -0.00095
C 3.57132 21.96757 -0.01303
C 2.32196 19.87566 0.02635
C 3.59152 19.1872 0.0127
C 3.71255 17.80501 0.01396
C 2.47286 17.03276 0.01849
C 2.43979 15.58467 -0.01142
C 3.67314 14.89199 -0.00562
C 3.72931 13.50128 -0.00494
C 2.41871 12.74311 0.00054
C 2.36909 21.27539 -0.01378
C 22.06922 15.65566 0.00096
C 4.90149 21.32672 0.00373
C 6.03186 19.1825 0.00438
C 7.40393 28.39297 -0.02245
C 8.66445 27.7096 -0.00428
C 8.69806 26.22235 0.03101
C 7.40864 25.65762 -0.01536
C 7.39675 24.23817 -0.02689
C 8.65524 23.30374 -0.01046
C 8.49099 21.93486 -0.00891
C 7.29612 21.28195 0.02819
C 7.39059 29.83244 0.00985
C 7.28198 19.8789 0.00165
C 8.74888 17.87824 0.02894
C 7.38606 17.1066 -0.01789
C 7.43902 15.71225 0.00444
C 8.69412 14.9474 -0.00925
C 8.64903 13.51245 0.01877
C 7.41692 12.78123 0.01363
C 7.46109 11.39436 -0.02162
C 8.79536 10.49061 0.00415
C 8.51615 19.20974 -0.02971
C 4.86549 19.9365 -0.00191
C 8.60477 30.57932 -0.01275
C 7.37694 32.68296 0.02841
C 6.15388 17.7762 0.01291
C 4.88691 17.08314 0.00093
C 4.91027 15.59784 0.00057
C 6.16114 14.93369 -0.01634
C 6.16665 13.51449 -0.00334
C 4.96024 12.78273 0.02339
C 4.95714 11.38499 0.01641
C 6.12017 10.6625 -0.00719
C 8.60162 32.00541 -0.01111
C 6.1658 9.27118 0.01364
C 4.88699 7.14051 -0.00033
C 6.1365 6.46111 0.03589
C 6.12207 5.11623 -0.02759
C 4.8815 4.36894 0.0402
C 4.88112 2.96508 0.00572
C 6.06175 2.1993 0.03592
C 6.13299 0.76956 0.00406
C 4.96227 0.01096 0.00943
C 4.91812 8.50055 -0.01062
C 3.60631 32.0314 -0.00077
C 23.33666 14.95223 -0.01527
C 22.08475 12.82807 0.00199
C 33.23612 30.60353 0.01428
C 31.96122 29.82878 -0.02142
C 31.89073 28.42261 0.0544
C 33.08563 27.65808 0.00026
C 33.19441 26.30058 0.00682
C 31.97891 25.59983 -0.01779
C 31.9616 24.15594 0.03794
C 33.15317 23.4894 0.01927
C 33.20838 22.04255 0.01574
C 32.00722 21.35055 -0.02383
C 31.95401 19.88386 -0.01429
C 33.1871 19.13535 -0.0136
C 33.24113 17.69993 0.00594
C 31.98565 17.03018 -0.02474
C 31.8768 15.66766 0.00369
C 33.04762 14.87164 0.00455
C 33.11682 13.49482 -0.00644
C 33.20727 32.03508 -0.01694
C 32.00235 32.60331 0.01713
C 29.5258 34.04551 0.00346
C 30.72958 0.72604 0.00307
C 29.53828 19.98869 0.01836
C 30.74525 19.22878 0.03531
C 30.74362 17.83694 -0.00669
C 29.57318 17.02933 0.0101
C 29.47749 15.65045 0.01705
C 30.62179 14.88288 -0.0405
C 30.72418 13.46343 -0.01303
C 29.52054 12.74306 -0.01461
C 31.92221 12.68436 -0.01839
C 29.49546 11.30203 -0.02155
C 30.68981 9.15516 -0.03735
C 29.4914 8.51197 -0.00971
C 29.52085 7.11417 0.01518
C 30.74478 6.39018 0.01908
C 30.78551 4.96045 0.07705
C 29.58948 4.22897 0.0103
C 29.5326 2.78275 0.02108
C 30.71755 2.12169 0.00716
C 30.75435 10.62294 -0.00944
C 31.97154 11.33858 0.00137
C 33.25249 10.66633 0.00199
C 33.2166 9.24591 0.04381
C 1.13415 19.0828 -0.01678
C 1.25351 17.65194 0.01223
C 34.39724 16.99124 0.00648
C 34.35335 15.54428 0.02114
C 1.19857 14.86931 -0.02957
C 1.2219 13.46657 0.00343
C 34.41015 12.80023 -0.02656
C 0.05809 11.36698 -0.02442
C 34.39446 19.84058 0.01951
C 1.26676 10.63776 -0.00027
C 34.43152 8.5322 -0.02302
C 0.0236 7.10421 -0.02849
C 1.23725 6.34957 0.02931
C 1.27081 4.87806 0.00628
C 0.02774 4.24797 -0.0345
C 34.42429 2.8173 -0.00931
C 1.15998 2.12754 -0.00939
C 1.19961 0.76848 -0.00468
C 1.24313 9.23821 -0.00583
C 29.4976 21.37296 -0.03039
C 0.05763 21.33312 -0.02213
C 1.27846 23.50371 0.00723
C 32.01634 8.51173 0.02806
C 32.01686 7.09768 0.01504
C 33.26936 6.43094 -0.00069
C 33.27476 4.96617 0.04926
C 32.02041 4.28443 -0.03838
C 31.9994 2.85948 0.00349
C 33.17468 2.106 -0.00323
C 33.15652 0.72327 -0.00841
C 1.23143 22.07971 0.02712
C 31.93367 34.04918 0.0001
C 1.17931 31.98896 -0.01404
C 1.23932 30.55313 0.01027
C 34.41121 29.82832 0.01831
C 34.34537 28.38809 -0.01037
C 1.15044 27.6641 -0.00439
C 1.1887 26.20972 -0.00598
C 34.41097 25.49385 -0.05239
C 34.42806 24.15172 0.03076
C 34.42624 32.75117 -0.02927
C 30.83001 22.02268 -0.01415
C 30.78737 23.46866 -0.01854
C 29.62559 24.25459 -0.02049
C 25.73215 21.99877 -0.02118
C 24.44658 21.25872 0.00733
C 24.59497 19.99887 -0.00178
C 25.86733 19.20031 0.00768
C 25.76873 17.74063 -0.0276
C 24.43584 17.1436 0.03005
C 24.56053 15.7119 -0.04078
C 25.80387 14.95638 0.02117
C 25.88537 23.39575 -0.01971
C 25.81046 13.52919 0.02737
C 24.59853 11.31149 0.00135
C 25.84603 10.67299 0.03102
C 25.82367 9.22293 0.02555
C 24.58267 8.50352 0.01423
C 24.56019 7.08615 -0.00285
C 25.81932 6.42541 -0.009
C 25.81987 4.98252 -0.01199
C 24.65326 4.20204 -0.00229
C 24.5873 12.7676 -0.00498
C 24.5633 2.76074 -0.00938
C 24.53929 24.10229 -0.01586
C 25.78342 26.22841 0.00071
C 22.0909 11.38576 0.01511
C 23.32668 10.6631 -0.00478
C 23.38573 9.22525 -0.01662
C 22.22077 8.4784 -0.01185
C 22.12995 7.05739 0.01126
C 23.36878 6.35104 0.01852
C 23.40721 4.91378 -0.00381
C 22.13943 4.22634 0.03046
C 24.59691 25.56592 -0.01107
C 22.05385 2.81912 0.0296
C 23.26709 0.71061 -0.02845
C 22.09612 34.0379 -0.03213
C 24.57894 32.61757 0.02239
C 25.82656 31.99615 0.01153
C 25.80176 30.55083 0.02734
C 24.52673 29.83423 -0.0055
C 24.54745 28.36903 0.01515
C 25.791 27.73049 -0.00225
C 23.3215 2.0832 0.03374
C 23.32806 13.52093 0.01087
C 25.8273 2.10458 -0.0264
C 24.58974 34.07919 0.00684
C 28.25898 9.17983 -0.00621
C 26.99553 8.41966 0.02611
C 27.09847 7.02573 0.02198
C 28.3078 6.3546 0.01094
C 28.32177 4.92588 0.00235
C 27.07502 4.28405 0.01495
C 27.08272 2.81952 0.01259
C 28.28285 2.15107 0.01799
C 28.29218 10.58154 0.00194
C 28.31267 0.68074 0.01699
C 29.62499 32.59573 0.01177
C 30.74276 31.83147 0.04266
C 30.75288 30.44178 0.01324
C 29.50689 29.7646 0.0014
C 29.47385 28.37312 0.00924
C 30.679 27.67923 0.02326
C 30.74997 26.24213 0.00261
C 29.53986 25.61634 0.03265
C 27.06772 0.00331 -0.00416
C 25.76452 0.70235 -0.01154
C 27.06112 11.37554 0.04185
C 28.22067 13.50081 0.01257
C 27.15378 32.67134 -0.01052
C 28.32456 31.94717 -0.01679
C 28.29622 30.45523 0.00367
C 26.96858 29.85836 0.04306
C 26.99854 28.42763 0.00996
C 28.24636 27.75087 0.00195
C 28.24306 26.29714 -0.00802
C 27.08055 25.55233 -0.00218
C 27.06185 12.83256 0.02316
C 27.11631 24.16613 -0.01654
C 28.27362 22.0645 -0.0032
C 27.02958 21.37115 0.00622
C 27.10224 19.8716 -0.02815
C 28.32707 19.17255 -0.00942
C 28.29294 17.76482 0.00487
C 27.06934 17.05692 0.00826
C 27.0336 15.61273 -0.00294
C 28.25722 14.97606 0.00152
C 28.30999 23.50038 -0.00037
C 2.3947 32.72056 0.01305
