323
Graphene
C 0.01821 34.04903 0.01295
C 12.21413 15.66218 -0.00289
C 13.56415 14.9215 0.00028
C 13.60637 13.54218 -0.02213
C 12.40031 12.8285 0.03698
C 12.33194 11.33713 -0.00109
C 13.50955 10.56527 -0.00491
C 13.51688 9.14054 0.03338
C 12.21966 17.04527 -0.00066
C 12.25124 8.45152 -0.0258
C 13.6089 6.33348 -0.00316
C 13.54749 4.8873 0.02188
C 12.31926 4.25414 -0.01979
C 12.28972 2.87393 0.02691
C 13.51287 2.15586 -0.01581
C 13.54036 0.65748 0.01452
C 12.26808 0.08514 0.04892
C 12.30571 6.97833 -0.0331
C 14.8514 32.64497 -0.00111
C 13.39433 17.7489 0.00213
C 12.25036 19.85973 -0.04147
C 11.11328 4.89162 -0.00114
C 9.81393 4.28533 0.00228
C 9.8211 2.81137 0.00798
C 11.09301 2.17223 0.00422
C 11.08207 0.78263 0.0351
C 9.87491 0.03677 -0.03113
C 12.2942 32.71287 0.02098
C 13.44514 19.12426 -0.05302
C 13.52754 31.96449 0.01848
C 12.32109 29.88262 -0.02162
C 12.50252 28.48222 0.00889
C 13.45937 27.66072 -0.00481
C 13.88699 26.48522 0.00979
C 13.85761 23.21937 0.01443
C 13.46063 22.0344 0.03505
C 12.49734 21.14985 -0.02815
C 13.50591 30.59978 -0.00619
C 16.00746 31.94501 -0.03557
C 16.14038 30.51525 0.03754
C 14.76969 29.88731 0.01739
C 15.93944 2.07715 -0.01721
C 16.00687 0.6602 -0.02422
C 14.74116 34.02309 0.01277
C 17.2239 32.65965 0.00096
C 18.42051 31.82441 -0.01527
C 17.41517 29.99051 0.01087
C 18.29701 17.88213 0.00199
C 14.77422 2.83258 -0.01154
C 17.20573 17.08365 0.01511
C 18.64569 14.8469 -0.01662
C 18.49363 13.36323 -0.01185
C 17.24572 12.82641 0.01126
C 17.24628 11.39081 0.01852
C 18.47054 10.63996 -0.00381
C 18.5007 9.25523 0.03046
C 17.24507 8.5351 0.0296
C 17.24339 15.57541 -0.00478
C 14.81615 4.23039 0.0106
C 16.02406 4.96408 -0.01594
C 16.03983 6.44782 0.00742
C 14.44967 28.5817 0.00755
C 14.34188 25.39593 -0.0054
C 14.59048 24.19753 0.00667
C 14.55888 21.24726 0.00143
C 14.78723 19.84934 -0.017
C 15.92096 19.09719 0.00364
C 15.97576 17.68361 -0.00831
C 14.73916 17.0254 -0.02957
C 14.75072 15.61198 -0.04422
C 16.00175 14.89186 0.00654
C 15.9627 13.51742 -0.00703
C 14.77442 12.82694 -0.04076
C 14.73551 11.37893 -0.00652
C 16.00742 10.68097 0.0058
C 15.96446 9.25135 -0.00865
C 14.7774 8.48074 0.00675
C 14.81609 7.08624 -0.00311
C 11.05737 6.31201 -0.02696
C 17.2376 7.16311 0.03374
C 9.81768 7.08097 -0.00368
C 11.04883 9.20012 -0.01957
C 3.64382 0.68318 0.00057
C 2.43776 34.02981 -0.01634
C 4.93058 32.71601 -0.00334
C 6.187 32.04555 0.02339
C 6.14952 19.17188 0.01641
C 6.06791 17.80316 -0.00719
C 4.90581 17.06066 0.01364
C 3.69706 2.14875 0.00093
C 4.89198 15.65355 -0.01062
C 6.12123 13.48372 0.03589
C 4.95955 12.76732 -0.02759
C 4.88193 11.35201 0.0402
C 6.13375 10.66898 0.00572
C 6.12747 9.26191 0.03592
C 4.87132 8.60212 0.00406
C 4.93605 7.12447 0.00943
C 6.03413 14.85294 -0.00033
C 6.17608 6.43441 0.02841
C 2.45586 2.88773 0.01291
C 3.63816 4.97945 -0.00191
C 3.51208 30.66072 0.00393
C 2.37896 29.90043 0.00895
C 2.44447 19.86549 0.00685
C 3.67433 19.2227 0.02888
C 3.74462 17.89063 -0.00482
C 2.47799 17.10309 -0.01384
C 2.3985 15.69821 0.03693
C 2.43339 4.22803 0.00438
C 3.62272 14.89316 0.01745
C 2.49907 12.74311 -0.01004
C 2.46413 11.35368 -0.02896
C 3.667 10.64771 -0.00131
C 3.68931 9.2066 -0.01118
C 2.40163 8.57103 -0.014
C 2.42321 7.11932 0.02147
C 3.70253 6.4067 0.00373
C 3.67925 13.54323 0.00488
C 6.10955 5.05008 -0.01111
C 4.91434 4.35899 -0.01275
C 4.87584 2.83816 0.00985
C 8.52921 2.16499 0.01241
C 8.60339 0.73527 -0.01454
C 7.39727 34.06377 0.01945
C 9.94136 32.6802 0.01416
C 11.1855 31.9541 0.03542
C 11.1095 30.52684 0.02299
C 9.64101 19.71659 0.00244
C 7.34394 2.8803 0.0076
C 10.92925 19.14561 -0.01717
C 9.76985 16.97201 -0.01952
C 9.78307 15.5255 -0.02813
C 11.06571 14.90962 0.00374
C 11.11425 13.43701 0.00052
C 9.87455 12.76969 -0.03682
C 9.87918 11.36552 0.01965
C 11.13375 10.68289 0.02058
C 11.00814 17.78677 0.05265
C 7.37287 4.37157 0.02162
C 8.59275 5.00626 -0.0014
C 8.6079 6.43463 0.00415
C 6.09589 2.24535 -0.02245
C 6.11684 0.75228 -0.00428
C 4.91574 0.06157 0.03101
C 7.41315 32.50395 -0.01536
C 8.71183 32.01736 -0.02689
C 8.44479 18.991 -0.01046
C 8.52516 17.70658 -0.00891
C 7.25902 16.96184 0.02819
C 7.30239 15.54398 0.00165
C 8.59986 14.92964 -0.02971
C 8.60078 13.48861 0.02894
C 7.40004 12.79629 -0.01789
C 7.44359 11.38368 0.00444
C 8.62839 10.7244 -0.00925
C 8.58703 9.25954 0.01877
C 7.36577 8.55466 0.01363
C 7.39276 7.14456 -0.02162
C 9.78599 8.52786 -0.0108
C 3.70555 31.95727 0.0288
C 18.44059 6.47063 -0.02845
C 17.19803 4.24681 0.02239
C 31.98798 29.82813 0.00682
C 32.01424 28.46133 -0.01779
C 33.24421 27.77749 0.03794
C 33.32523 26.39093 0.01927
C 32.03541 25.66814 0.01574
C 31.92889 24.25265 -0.02383
C 33.13848 23.5067 -0.01429
C 33.21099 30.55398 0.00026
C 33.1019 22.10892 -0.0136
C 31.98699 19.93967 -0.02474
C 33.18255 19.19762 0.00369
C 33.15749 17.80577 0.00455
C 31.93509 17.08321 -0.00644
C 31.98378 15.65708 -0.01839
C 33.18044 14.9487 0.00137
C 33.22186 13.55553 0.00199
C 31.86292 21.35858 0.00594
C 31.92499 12.84234 0.04381
C 33.16028 31.9902 0.0544
C 29.54058 34.04616 0.01428
C 29.50291 17.10172 -0.01303
C 29.56025 15.64552 -0.01461
C 30.77222 14.96487 -0.02155
C 30.67503 13.45214 -0.00944
C 29.46651 12.74317 -0.03735
C 29.41701 11.31566 -0.00971
C 30.69291 10.64114 0.01518
C 31.95686 32.5975 -0.02142
C 30.66612 9.26023 0.01908
C 29.44551 7.06276 0.0103
C 30.67272 6.34511 0.02108
C 30.75863 4.9523 0.00716
C 29.48774 4.2011 0.00307
C 29.50795 2.85379 0.00346
C 30.74765 2.10754 0.01713
C 30.75797 0.66475 -0.01694
C 29.42057 8.44488 0.07705
C 31.92934 11.32628 0.02806
C 33.18534 10.64418 0.01504
C 33.17266 9.20876 -0.00069
C 0.02289 17.0789 0.00648
C 0.02008 15.61443 0.02114
C 1.16801 14.91514 -0.02957
C 1.27653 13.52767 0.00343
C 34.38945 12.81997 -0.02656
C 34.42094 11.33694 -0.02442
C 1.21026 10.59794 -0.00027
C 1.23981 17.79341 0.01223
C 1.22107 9.195 -0.00583
C 34.3793 7.07545 -0.02849
C 1.23791 6.39039 0.02931
C 1.19786 4.96963 0.00628
C 0.02216 4.33254 -0.0345
C 0.01988 2.87742 -0.00931
C 1.279 2.14522 -0.00939
C 1.23796 0.69365 -0.00468
C 34.37083 8.52525 -0.02302
C 1.28519 19.18349 -0.01678
C 34.3931 19.88242 0.01951
C 34.34919 21.32653 -0.02213
C 31.90007 8.55163 0.04926
C 31.89011 7.13802 -0.03838
C 33.14231 6.34138 0.00349
C 33.19556 4.91714 -0.00323
C 31.94539 4.27534 -0.00841
C 31.98807 2.81666 0.0001
C 33.24348 2.02661 -0.02927
C 33.15253 0.64701 -0.01404
C 31.94541 34.06354 0.01027
C 0.0375 32.65917 0.01831
C 1.22544 31.92455 -0.01037
C 1.18724 30.4889 -0.00439
C 34.41167 29.8261 -0.00598
C 0.04917 28.43758 -0.05239
C 34.3503 25.59107 0.03076
C 34.30973 24.1998 0.00723
C 1.08551 21.93992 0.02712
C 30.66635 17.86945 -0.0405
C 18.4138 5.01276 -0.03213
C 30.7858 19.32355 0.01705
C 30.67587 22.14536 -0.00669
C 23.40564 9.3109 0.03102
C 22.12922 8.80069 0.02555
C 22.12062 7.18688 0.01423
C 23.33602 6.4212 -0.00285
C 23.29622 5.0131 -0.009
C 22.06657 4.20648 -0.01199
C 22.02913 2.87858 -0.00229
C 22.08109 32.75636 0.00135
C 23.29044 2.08782 -0.00938
C 22.15829 0.0142 -0.01154
C 24.47087 32.59072 0.00684
C 25.76199 32.14124 -0.01052
C 24.64698 16.9826 -0.01679
C 24.63668 15.62557 0.00367
C 25.66682 14.83057 0.04306
C 25.88544 13.51247 0.00996
C 23.40324 0.60521 -0.0264
C 25.77546 10.55602 0.00195
C 19.64417 34.03615 -0.00498
C 20.83119 2.15261 0.02117
C 17.21068 2.77831 0.01153
C 18.39641 2.15812 0.02734
C 18.42175 0.79001 -0.0055
C 17.24659 0.03849 0.01515
C 19.64899 32.49439 -0.00225
C 20.89625 32.13453 0.00071
C 19.32627 17.16183 -0.01107
C 20.90281 0.65212 0.02737
C 19.48685 15.83512 -0.01586
C 20.90415 9.34444 -0.02118
C 19.75084 8.57013 0.00733
C 19.71232 7.11893 -0.00178
C 20.90376 6.38303 0.00768
C 20.85119 4.96021 -0.0276
C 19.60268 4.32991 0.03005
C 19.60293 2.85558 -0.04078
C 19.76772 11.15169 -0.01971
C 25.7805 9.20263 -0.00802
C 24.61209 8.51911 -0.00218
C 24.605 7.08327 -0.01654
C 26.99435 7.06208 0.01699
C 28.30667 6.35331 -0.00416
C 28.21976 4.88932 0.01177
C 26.96444 4.15766 0.04266
C 26.96867 2.79314 0.01324
C 28.28566 2.10715 0.0014
C 28.22847 0.70316 0.00924
C 26.9961 8.48423 0.01799
C 27.0364 33.95347 0.02326
C 30.6344 31.90844 0.03265
C 30.62693 30.52496 -0.02049
C 29.32442 29.65354 -0.01854
C 29.57283 28.34836 -0.01415
C 30.61671 27.61123 -0.03039
C 30.88522 26.34658 0.01836
C 30.83919 23.51183 0.03531
C 29.49445 32.67858 0.00261
C 28.27536 9.18436 0.01259
C 28.22185 10.6382 0.01495
C 26.99195 11.30565 0.00235
C 25.7673 6.35915 -0.00037
C 25.74827 4.932 -0.0032
C 24.59931 4.23784 0.00622
C 24.52014 2.83592 -0.02815
C 25.7182 2.05701 -0.00942
C 25.81219 0.60204 0.00487
C 24.58938 33.99182 0.00826
C 26.94879 32.55615 -0.00294
C 28.22662 31.87972 0.00152
C 28.25543 30.49562 0.01257
C 28.47339 19.00356 0.02316
C 28.03262 17.78929 0.04185
C 26.96529 16.83037 0.00194
C 27.14177 15.56716 -0.00621
C 28.35584 14.89909 0.02611
C 28.27259 13.48395 0.02198
C 27.00238 12.73277 0.01094
C 29.58645 19.85456 0.0101
C 2.46172 32.63567 -0.0008
