378
Graphene
C 34.33766 0.05695 0.01295
C 12.27802 29.83821 0.01416
C 12.29077 28.36948 0.03542
C 13.46575 27.6434 0.02299
C 13.32903 26.23826 0.00244
C 12.20705 25.66305 -0.01717
C 12.19712 15.7202 0.05265
C 13.77326 13.54862 -0.01952
C 12.48672 12.94286 -0.02813
C 12.30752 11.55422 0.00374
C 13.48957 10.68684 0.00052
C 13.45057 9.16643 -0.03682
C 12.3262 8.44605 0.01965
C 12.31613 7.04148 0.02058
C 13.487 6.36373 -0.01957
C 13.57697 4.85703 -0.0108
C 12.293 4.24324 -0.00368
C 12.23571 2.82213 -0.02696
C 13.55134 2.10483 -0.00114
C 13.42271 0.69315 0.00228
C 13.53623 30.5318 0.01945
C 13.53969 31.9003 -0.01454
C 12.20537 32.73959 0.01241
C 9.78538 0.0059 0.0076
C 10.91649 23.0791 -0.02245
C 9.85805 21.46344 -0.00428
C 9.89808 20.11495 0.03101
C 10.99479 17.95896 -0.01536
C 9.84622 17.18788 -0.02689
C 9.88267 15.69285 -0.01046
C 11.07427 15.00846 -0.00891
C 11.15127 13.52292 0.02819
C 9.88473 12.79803 0.00165
C 12.26915 0.00247 0.00798
C 9.88654 11.38605 -0.02971
C 11.1468 9.25236 -0.01789
C 9.89264 8.58353 0.00444
C 9.80957 7.09953 -0.00925
C 11.00773 6.35234 0.01877
C 11.07383 4.94838 0.01363
C 9.79813 4.20167 -0.02162
C 9.79736 2.85348 0.00415
C 11.05175 2.09199 -0.0014
C 11.01197 0.67721 0.02162
C 10.98891 10.62411 0.02894
C 9.79907 24.05545 0.00985
C 14.68961 32.67757 0.00422
C 16.05443 30.47201 -0.03113
C 18.37235 9.24056 0.02188
C 17.1812 8.57839 -0.01979
C 17.09994 7.15833 0.02691
C 18.35852 6.37698 -0.01581
C 18.40838 4.99505 0.01452
C 17.20145 4.12988 0.04892
C 17.22526 2.71384 -0.00111
C 18.45803 2.04997 -0.03557
C 18.4155 0.57834 0.03754
C 17.17322 33.97516 0.01739
C 19.72235 32.60167 0.00755
C 20.88497 31.85388 -0.0054
C 20.87119 30.46334 0.00667
C 19.69731 29.70418 0.00143
C 19.65198 28.34668 -0.017
C 20.92402 27.72953 0.00364
C 20.82171 13.42922 -0.00831
C 19.61432 12.76995 -0.02957
C 19.54541 11.41409 -0.04422
C 18.37651 10.73578 -0.00316
C 17.09085 11.56518 -0.0331
C 16.54427 12.85058 -0.0258
C 17.18337 28.40717 0.03338
C 14.80842 29.84412 0.02098
C 14.70544 28.30079 0.01848
C 16.05487 27.82204 -0.00619
C 14.9294 12.76919 -0.02162
C 14.70492 11.32766 0.00889
C 15.91265 10.63624 -0.00481
C 15.92598 9.22607 0.00979
C 14.69815 8.48697 0.01443
C 14.71472 7.04679 0.03505
C 15.95835 31.93423 0.0351
C 15.91702 6.3138 -0.02815
C 14.77758 4.20049 -0.05302
C 14.80515 2.74389 0.00213
C 15.94064 1.98436 -0.00066
C 15.95589 0.60512 -0.00289
C 14.72274 34.00104 0.00028
C 17.16757 32.60436 -0.02213
C 18.49215 31.9528 0.03698
C 18.48443 30.54467 -0.00109
C 17.30663 29.84046 -0.00491
C 15.9819 4.91027 -0.04147
C 9.8079 25.54506 -0.01275
C 10.93514 26.3182 -0.01111
C 11.01307 27.78735 0.02841
C 3.59673 0.70022 -0.01343
C 2.33155 0.14391 0.00988
C 4.85572 32.76467 0.0276
C 6.12771 31.99282 0.01305
C 6.09607 30.54124 -0.00077
C 4.85808 29.98929 0.03368
C 4.87904 28.47053 -0.02929
C 6.13033 27.77854 -0.00966
C 6.10382 26.35033 -0.03337
C 4.88834 25.64432 0.01227
C 4.86864 24.21923 0.00873
C 6.07378 23.51092 -0.00049
C 6.10477 22.03845 0.00848
C 4.88882 21.27229 -0.01303
C 4.89672 19.59167 -0.01378
C 6.27776 18.94434 0.02635
C 6.3896 13.90074 0.0127
C 4.98444 13.11881 0.01396
C 4.99647 11.62298 0.01849
C 3.6042 2.14009 0.01087
C 2.35158 2.92725 -0.05697
C 2.36604 4.30718 -0.00725
C 3.62462 5.00698 0.02322
C 3.5597 30.68715 -0.01509
C 2.41047 29.89488 0.03267
C 2.44843 28.50023 0.02374
C 3.67067 27.71624 0.00402
C 3.64248 26.34817 0.0073
C 2.38157 25.66144 0.0174
C 2.38246 24.18028 0.03828
C 3.64306 23.55873 0.01226
C 3.71151 22.08841 -0.00279
C 6.15213 10.85198 -0.01142
C 2.53212 21.34225 0.01996
C 3.62027 19.12923 0.01465
C 3.73007 13.61342 -0.00074
C 2.52487 12.89456 -0.00518
C 2.50106 11.47313 0.0086
C 3.78437 10.92082 -0.00643
C 3.76668 9.39575 0.017
C 2.5454 8.59838 -0.03113
C 2.49911 7.15972 -0.02566
C 3.7777 6.44662 -0.00094
C 2.4313 19.93437 -0.03996
C 6.18415 9.44074 -0.00562
C 4.94685 8.62848 -0.00494
C 5.01468 7.23951 0.00054
C 8.66106 14.9898 -0.00191
C 8.72133 13.51054 0.00438
C 7.53422 12.92941 0.01291
C 7.43788 11.43282 0.00093
C 8.62639 10.6809 0.00057
C 8.58323 9.22124 -0.01634
C 7.3755 8.61939 -0.00334
C 7.40481 7.13006 0.02339
C 8.61348 6.37852 0.01641
C 7.40052 15.6958 0.00373
C 8.58211 4.9821 -0.00719
C 7.31994 2.83787 -0.01062
C 8.58677 2.10197 -0.00033
C 8.50432 0.78343 0.03589
C 7.33465 0.0243 -0.02759
C 9.80714 32.65077 0.0402
C 10.98787 31.90295 0.00572
C 11.09334 30.52487 0.03592
C 9.7742 29.94611 0.00406
C 9.78252 28.50241 0.00943
C 7.2979 4.29563 0.01364
C 20.80612 10.55887 0.00654
C 7.21857 17.33224 0.02147
C 8.67508 19.31532 -0.01118
C 6.1932 6.47655 0.03007
C 6.07761 5.02891 -0.00095
C 4.83184 4.24852 0.01572
C 4.80013 2.80555 -0.04848
C 6.02869 2.18326 -0.00892
C 6.09894 0.74949 -0.01362
C 4.8015 0.0698 -0.0008
C 7.35199 32.6955 0.0288
C 8.55731 32.00511 0.00393
C 8.55392 17.89313 -0.014
C 8.53834 30.54831 0.00895
C 7.32576 28.47564 0.02888
C 8.62797 27.79323 -0.00482
C 8.55711 26.23924 -0.01384
C 7.26874 25.62582 0.03693
C 7.24518 24.2159 0.01745
C 8.54392 23.541 0.00488
C 8.57467 22.15721 -0.01004
C 7.27927 21.2764 -0.02896
C 7.33441 19.86864 -0.00131
C 7.27339 29.85897 0.00685
C 20.76517 9.16843 -0.00703
C 19.53908 8.49202 -0.04076
C 19.60589 7.06635 -0.00652
C 29.51187 2.87302 0.02108
C 30.75669 2.10995 0.00716
C 30.68473 0.72127 0.00307
C 29.46858 34.06688 0.00346
C 31.87677 32.67817 0.01713
C 33.13089 31.95424 -0.01694
C 33.11272 30.58884 0.01428
C 31.93808 29.85275 -0.02142
C 32.01775 28.44008 0.0544
C 33.19396 27.74207 0.00026
C 33.11843 26.29794 0.00682
C 31.94837 25.61045 -0.01779
C 31.97163 24.1562 0.03794
C 33.18029 23.43145 0.01927
C 33.22524 21.98123 0.01574
C 31.88824 21.33676 -0.02383
C 31.83981 19.92892 -0.01429
C 33.0772 19.25305 -0.0136
C 33.16492 17.79413 0.00594
C 29.40221 4.27692 0.0103
C 30.63765 4.99198 0.07705
C 30.78897 6.43849 0.01908
C 29.49398 7.07522 0.01518
C 29.45676 28.44451 0.00924
C 30.67335 27.71008 0.02326
C 30.6591 26.32661 0.00261
C 29.43968 25.53754 0.03265
C 29.46125 24.10667 -0.02049
C 30.73491 23.51217 -0.01854
C 30.69631 22.12202 -0.01415
C 29.49194 21.31342 -0.03039
C 29.37351 19.91748 0.01836
C 31.94484 17.12561 -0.02474
C 30.65234 19.18423 0.03531
C 29.466 17.05847 0.0101
C 29.50378 15.59727 0.01705
C 30.74549 14.92306 -0.0405
C 30.69335 13.51039 -0.01303
C 29.43177 12.78849 -0.01461
C 29.55416 11.34115 -0.02155
C 30.75972 10.68746 -0.00944
C 30.74693 9.29637 -0.03735
C 29.492 8.47209 -0.00971
C 30.60961 17.79252 -0.00669
C 32.0147 15.66962 0.00369
C 33.19377 14.90538 0.00455
C 33.16227 13.48815 -0.00644
C 34.38347 21.29499 -0.02213
C 34.32699 19.85103 0.01951
C 1.21127 19.28489 -0.01678
C 1.20514 17.87426 0.01223
C 0.07945 17.09994 0.00648
C 0.08598 15.62247 0.02114
C 1.24675 14.88651 -0.02957
C 1.27401 13.51231 0.00343
C 0.00788 12.86464 -0.02656
C 1.12209 22.07394 0.02712
C 0.03159 11.32295 -0.02442
C 1.29552 9.28865 -0.00583
C 34.38503 8.49368 -0.02302
C 34.34749 7.13842 -0.02849
C 1.23897 6.43389 0.02931
C 1.16299 4.9929 0.00628
C 34.32147 4.29412 -0.0345
C 34.40481 2.912 -0.00931
C 1.19694 2.15578 -0.00939
C 1.16996 0.77769 -0.00468
C 1.3218 10.70365 -0.00027
C 29.5396 29.87783 0.0014
C 1.11343 23.422 0.00723
C 34.34227 25.62332 -0.05239
C 31.93453 12.76377 -0.01839
C 31.98191 11.42767 0.00137
C 33.24629 10.69391 0.00199
C 33.22566 9.26206 0.04381
C 31.98754 8.51624 0.02806
C 31.95237 7.17162 0.01504
C 33.13985 6.42657 -0.00069
C 33.14587 5.01539 0.04926
C 31.89242 4.27263 -0.03838
C 34.31187 24.16274 0.03076
C 31.99011 2.84166 0.00349
C 33.12342 0.70834 -0.00841
C 31.92176 0.01435 0.0001
C 34.36255 32.71367 -0.02927
C 1.16994 32.02485 -0.01404
C 1.15268 30.61314 0.01027
C 34.36889 29.87138 0.01831
C 34.41225 28.47382 -0.01037
C 1.17843 27.72537 -0.00439
C 1.14158 26.39963 -0.00598
C 33.20079 2.14206 -0.00323
C 3.63179 32.07662 0.00643
C 30.69502 30.58034 0.01324
C 29.3917 32.70169 0.01177
C 22.05886 4.2469 0.03374
C 22.02114 2.75409 -0.02845
C 23.22398 2.05058 -0.03213
C 23.3813 0.63511 0.02239
C 22.14801 33.92192 0.01153
C 24.54719 32.51479 0.02734
C 25.80152 31.87416 -0.0055
C 25.78426 30.41048 0.01515
C 24.62957 29.66108 -0.00225
C 24.62192 28.32971 0.00071
C 25.85763 27.65376 -0.01107
C 25.79849 26.25349 -0.01586
C 24.43961 25.51645 -0.01971
C 24.70255 24.12461 -0.02118
C 25.74654 23.22883 0.00733
C 25.85362 21.83721 -0.00178
C 25.80661 19.39172 0.00768
C 25.71013 17.82666 -0.0276
C 24.5305 16.97415 0.03005
C 23.2098 4.9611 0.0296
C 23.23759 6.43641 0.03046
C 22.11989 7.10627 -0.00381
C 22.0534 8.5622 0.01852
C 20.81248 6.3549 0.0058
C 20.8135 4.94812 -0.00865
C 19.63732 4.23361 0.00675
C 19.67056 2.78349 -0.00311
C 20.85066 1.9914 0.00742
C 20.92112 0.64444 -0.01594
C 19.70201 34.05957 0.0106
C 22.09354 32.55056 -0.01154
C 23.31382 31.75681 -0.01721
C 24.406 15.66816 -0.04078
C 23.32406 30.37762 -0.02422
C 22.17951 28.31804 0.00096
C 23.41115 27.57816 -0.01527
C 23.25065 26.20337 0.01087
C 23.24782 14.86289 0.00199
C 23.2703 13.40654 0.01511
C 22.06603 12.78492 -0.00478
C 22.05998 11.28196 -0.01662
C 23.28961 10.66399 -0.01185
C 23.21542 9.19475 0.01126
C 22.14172 29.66166 0.01277
C 25.72652 14.87676 0.02117
C 25.72053 13.53697 0.02737
C 24.56204 12.72863 -0.00498
C 27.0689 19.86878 -0.02815
C 28.26844 19.02562 -0.00942
C 28.22208 17.68003 0.00487
C 26.91733 17.03821 0.00826
C 26.98189 15.62889 -0.00294
C 28.17574 14.95416 0.00152
C 28.1962 13.49431 0.01257
C 27.02466 12.68751 0.02316
C 26.96599 11.32513 0.04185
C 27.05852 21.27817 0.00622
C 28.25518 10.61753 0.00194
C 26.97375 8.47561 0.02611
C 26.99931 7.0505 0.02198
C 28.18446 6.33722 0.01094
C 28.18547 4.97549 0.00235
C 26.85412 4.23584 0.01495
C 27.02411 2.78879 0.01259
C 28.22427 2.1044 0.01799
C 28.19721 0.68995 0.01699
C 27.05063 0.00686 -0.00416
C 28.29305 9.20459 -0.00621
C 30.70938 31.98351 0.04266
C 28.29036 22.02561 -0.0032
C 27.08969 24.10333 -0.01654
C 24.5783 11.36085 0.00135
C 25.68083 10.60485 0.03102
C 25.72937 9.15439 0.02555
C 24.50722 8.54221 0.01423
C 24.5534 7.1106 -0.00285
C 25.72176 6.41802 -0.009
C 25.74245 4.99432 -0.01199
C 24.48294 4.20819 -0.00229
C 24.58947 2.85583 -0.00938
C 28.3145 23.40557 -0.00037
C 25.78501 2.06797 -0.0264
C 24.57633 33.9368 0.00684
C 26.98334 32.58714 -0.01052
C 28.26886 31.92379 -0.01679
C 28.26975 30.53331 0.00367
C 27.03479 29.7374 0.04306
C 27.02151 28.33496 0.00996
C 28.29333 27.63119 0.00195
C 28.26814 26.23138 -0.00802
C 26.98996 25.47738 -0.00218
C 25.78712 0.66183 -0.01154
C 2.39192 32.77681 0.00907
