348
Graphene
C 0.07448 34.02862 0.01295
C 13.5132 4.9951 0.00422
C 12.36657 4.32261 0.0351
C 12.3407 2.90854 -0.03113
C 13.56963 2.22315 0.02098
C 13.49176 0.76485 0.01848
C 12.2697 0.09373 -0.00619
C 14.70814 32.7551 -0.02162
C 15.94873 32.06065 0.00889
C 15.93837 30.6351 -0.00481
C 14.66815 29.91758 0.00979
C 14.73969 28.46272 0.01443
C 15.93383 27.69265 0.03505
C 15.93353 26.2647 -0.02815
C 14.75594 25.48224 -0.04147
C 14.80108 24.00165 -0.05302
C 15.96268 23.4194 0.00213
C 16.28076 21.91966 -0.00066
C 13.37949 6.38342 0.00798
C 12.80527 17.69672 0.00228
C 13.20424 18.66819 -0.00114
C 12.25176 19.73509 -0.02696
C 11.1475 5.1692 -0.01454
C 9.87899 4.5377 0.01945
C 9.82903 3.03428 0.01416
C 10.97917 2.24198 0.03542
C 10.96925 0.7808 0.02299
C 9.72271 0.14597 0.00244
C 12.34857 32.74661 -0.01717
C 13.51385 32.01827 0.05265
C 15.0472 21.42884 -0.00289
C 13.48688 30.62452 -0.01952
C 12.29319 28.41298 0.00374
C 13.55974 27.74553 0.00052
C 13.59037 26.16935 -0.03682
C 12.29105 25.59378 0.01965
C 12.34949 24.13229 0.02058
C 13.54256 23.34147 -0.01957
C 13.67326 21.87174 -0.0108
C 12.43044 21.22283 -0.00368
C 12.33764 29.85071 -0.02813
C 15.87471 8.95222 0.00028
C 14.57874 8.87466 -0.02213
C 14.5332 7.24307 0.03698
C 17.21602 2.87499 -0.00831
C 18.46631 2.11099 -0.02957
C 18.44545 0.73483 -0.04422
C 17.29655 0.00471 0.00654
C 19.67664 32.65981 -0.00703
C 20.85865 32.03408 -0.04076
C 20.82112 30.60322 -0.00652
C 19.6945 29.74258 0.0058
C 17.24538 4.33396 0.00364
C 19.64652 28.35566 -0.00865
C 20.85003 26.1145 -0.00311
C 19.58534 25.49944 0.00742
C 19.53626 23.91759 -0.01594
C 20.80121 23.32787 0.0106
C 20.98514 21.99098 -0.01154
C 19.6549 4.22808 -0.01721
C 19.59794 2.87886 -0.02422
C 20.87001 2.11819 0.01277
C 20.8712 27.6351 0.00675
C 9.9643 16.98031 0.01241
C 18.55135 5.0421 -0.017
C 17.03615 8.53382 0.00667
C 15.84441 6.50673 -0.00109
C 15.95191 5.04762 -0.00491
C 14.72609 4.22118 0.03338
C 14.80225 2.87659 -0.0258
C 16.00887 2.20456 -0.0331
C 15.96187 0.77571 -0.00316
C 14.7036 0.0776 0.02188
C 17.21396 32.68006 -0.01979
C 17.03369 7.28078 0.00143
C 18.42331 31.90956 0.02691
C 17.1781 29.78855 0.01452
C 17.12749 28.40714 0.04892
C 18.42832 27.63922 -0.00111
C 18.38726 26.22549 -0.03557
C 17.14079 25.56562 0.03754
C 17.13824 24.17171 0.01739
C 18.33075 23.1522 0.00755
C 17.76458 21.77536 -0.0054
C 18.45468 30.45893 -0.01581
C 20.86906 0.67941 0.00096
C 11.12191 17.74059 0.0076
C 9.78261 19.79151 -0.0014
C 3.69432 2.16512 -0.01362
C 3.71635 0.72804 -0.0008
C 2.51816 0.00407 0.0288
C 4.88048 32.61591 0.00393
C 6.13199 31.9033 0.00895
C 6.07231 30.53166 0.00685
C 5.0317 29.52099 0.02888
C 5.8366 28.2156 -0.00482
C 5.86713 26.54432 -0.01384
C 4.7423 25.72674 0.03693
C 4.92525 24.27773 0.01745
C 6.14734 23.51139 0.00488
C 6.1874 22.08293 -0.01004
C 4.92801 21.30926 -0.02896
C 4.87017 19.93359 -0.00131
C 6.11415 19.218 -0.01118
C 6.05623 17.73259 -0.014
C 2.43195 2.8371 -0.00892
C 2.41111 4.32534 -0.04848
C 3.59256 5.00482 0.01572
C 3.63137 6.47052 -0.00095
C 3.55405 30.3165 -0.02929
C 2.4667 24.14594 -0.00966
C 3.70471 23.51514 -0.03337
C 3.68942 22.0864 0.01227
C 2.41355 21.39313 0.00873
C 2.48266 19.95732 -0.00049
C 3.63445 19.2882 0.00848
C 3.57784 17.76083 -0.01303
C 4.86525 17.02601 0.02147
C 2.37966 17.02602 -0.01378
C 3.73011 14.88779 0.0127
C 3.75433 13.54042 0.01396
C 2.47982 12.7705 0.01849
C 2.44314 11.34222 -0.01142
C 3.71159 10.60445 -0.00562
C 3.66939 9.23341 -0.00494
C 2.42866 8.55551 0.00054
C 2.46079 7.16715 0.03007
C 2.40538 15.59403 0.02635
C 4.95294 15.70706 0.00373
C 4.78846 7.20417 -0.00191
C 6.00558 6.42286 0.00438
C 8.65684 5.20883 -0.02245
C 7.3882 4.41275 -0.00428
C 7.39288 2.99278 0.03101
C 8.56629 2.31513 -0.01536
C 8.55255 0.90035 -0.02689
C 7.37176 0.08393 -0.01046
C 9.88533 32.82236 -0.00891
C 11.14616 32.10967 0.02819
C 7.28713 16.96332 0.00985
C 11.09673 30.58417 0.00165
C 9.81492 28.53046 0.02894
C 11.00921 27.7393 -0.01789
C 11.01144 26.25944 0.00444
C 9.76481 25.64645 -0.00925
C 9.77611 24.20908 0.01877
C 11.05803 23.491 0.01363
C 11.09386 21.94263 -0.02162
C 9.84883 21.2657 0.00415
C 9.85454 29.93487 -0.02971
C 11.04319 19.11199 0.02162
C 8.5802 17.6175 -0.01275
C 7.38624 19.83507 0.02841
C 6.09638 5.12822 0.01291
C 4.86769 4.25207 0.00093
C 4.93232 2.87113 0.00057
C 6.25048 2.17178 -0.01634
C 6.15525 0.78407 -0.00334
C 4.89881 34.0615 0.02339
C 7.36962 32.70764 0.01641
C 8.66259 32.04869 -0.00719
C 8.59265 19.12562 -0.01111
C 8.61365 30.62418 0.01364
C 7.29485 28.55609 -0.00033
C 8.52696 27.82993 0.03589
C 8.49549 26.34949 -0.02759
C 7.23365 25.72323 0.0402
C 7.25932 24.32332 0.00572
C 8.58025 23.51881 0.03592
C 8.61064 22.04057 0.00406
C 7.39985 21.30433 0.00943
C 7.44734 29.96885 -0.01062
C 19.62514 0.02184 -0.01527
C 22.06766 32.63806 0.01087
C 23.30541 31.94774 0.00199
C 32.01456 32.55014 0.01428
C 33.24001 31.86894 -0.02142
C 33.34944 30.4548 0.0544
C 32.02813 29.85217 0.00026
C 31.93768 28.42421 0.00682
C 33.15602 27.76861 -0.01779
C 33.13007 26.40588 0.03794
C 31.95687 25.64467 0.01927
C 31.94698 24.20668 0.01574
C 33.20325 23.49802 -0.02383
C 33.17137 22.08783 -0.01429
C 31.93771 21.33188 -0.0136
C 31.92533 19.92874 0.00594
C 33.09928 19.25111 -0.02474
C 33.1365 17.81124 0.00369
C 31.99061 17.08458 0.00455
C 31.92666 15.6295 -0.00644
C 29.46799 0.00829 -0.01694
C 30.7126 0.5975 0.01713
C 30.76103 2.12498 0.00346
C 29.49005 2.89854 0.00307
C 30.67324 22.1039 0.01836
C 29.44263 21.35967 0.03531
C 29.42583 19.90022 -0.00669
C 30.64808 19.23392 0.0101
C 30.71861 17.79667 0.01705
C 29.47641 17.09566 -0.0405
C 29.44911 15.64673 -0.01303
C 30.67628 14.94388 -0.01461
C 33.21714 14.85721 -0.01839
C 30.71528 13.50782 -0.02155
C 29.52653 11.30052 -0.03735
C 30.76601 10.60833 -0.00971
C 30.79451 9.18307 0.01518
C 29.57084 8.49665 0.01908
C 29.47341 7.08846 0.07705
C 30.69489 6.34804 0.0103
C 30.74747 4.97898 0.02108
C 29.5291 4.27798 0.00716
C 29.44896 12.76338 -0.00944
C 33.12478 13.52699 0.00137
C 31.88804 12.72433 0.00199
C 31.97063 11.3361 0.04381
C 1.21191 19.23645 -0.01678
C 1.17818 17.82379 0.01223
C 34.39942 17.07525 0.00648
C 0.01908 15.62829 0.02114
C 1.28175 14.87964 -0.02957
C 1.16872 13.45419 0.00343
C 34.36256 12.77862 -0.02656
C 34.36374 11.3872 -0.02442
C 34.36733 19.95423 0.01951
C 1.11698 10.63095 -0.00027
C 34.41675 8.5013 -0.02302
C 0.02525 7.02195 -0.02849
C 1.18461 6.2908 0.02931
C 1.23137 4.98162 0.00628
C 0.05394 4.21306 -0.0345
C 0.04452 2.86269 -0.00931
C 1.26406 2.0995 -0.00939
C 1.25721 0.69267 -0.00468
C 1.20156 9.13289 -0.00583
C 30.67874 23.53434 -0.03039
C 0.01485 21.3231 -0.02213
C 1.21272 23.55764 0.00723
C 33.14096 10.64394 0.02806
C 33.2236 9.22368 0.01504
C 31.98741 8.49123 -0.00069
C 31.96015 7.08046 0.04926
C 33.20793 6.32419 -0.03838
C 33.19206 4.93843 0.00349
C 31.99058 4.25974 -0.00323
C 31.98736 2.82001 -0.00841
C 1.17495 22.09854 0.02712
C 33.26201 2.10108 0.0001
C 32.01928 34.03724 -0.01404
C 0.05081 32.64288 0.01027
C 1.36142 31.90016 0.01831
C 1.49154 30.45926 -0.01037
C 0.23121 29.68857 -0.00439
C 0.10527 28.26683 -0.00598
C 34.31324 25.6862 -0.05239
C 0.05958 24.30365 0.03076
C 33.27991 0.71654 -0.02927
C 29.40107 24.12985 -0.01415
C 29.44111 25.56734 -0.01854
C 30.6081 26.26911 -0.02049
C 25.65942 27.62904 -0.02118
C 25.80826 26.26006 0.00733
C 24.57337 25.51866 -0.00178
C 24.5444 24.12534 0.00768
C 25.73488 23.50153 -0.0276
C 25.81106 22.08031 0.03005
C 24.64679 21.32801 -0.04078
C 24.59972 19.91867 0.02117
C 24.52185 28.3762 -0.01971
C 25.72529 19.05682 0.02737
C 25.85637 14.79143 0.00135
C 25.88372 13.50408 0.03102
C 24.44432 10.98546 0.02555
C 25.73849 10.6599 0.01423
C 25.82379 9.26026 -0.00285
C 24.57747 8.59787 -0.009
C 24.49473 7.10244 -0.01199
C 25.7461 6.34573 -0.00229
C 25.75591 17.68874 -0.00498
C 25.8342 4.97705 -0.00938
C 24.52506 29.85985 -0.01586
C 25.7279 31.88796 0.00071
C 23.2412 30.53858 0.01511
C 22.10457 29.89805 -0.00478
C 22.12735 28.40827 -0.01662
C 23.2951 27.65274 -0.01185
C 23.31685 26.28578 0.01126
C 22.10316 25.44938 0.01852
C 22.02968 24.0698 -0.00381
C 23.29666 23.38663 0.03046
C 25.69169 30.50147 -0.01107
C 23.3656 21.94384 0.0296
C 23.58405 9.95717 -0.02845
C 23.33634 4.97799 -0.03213
C 22.11961 4.29949 0.02239
C 22.08557 2.83543 0.01153
C 23.32905 2.13227 0.02734
C 23.37836 0.65087 -0.0055
C 22.14251 34.07164 0.01515
C 24.57421 32.64724 -0.00225
C 22.19083 21.37784 0.03374
C 3.71615 31.75892 0.03368
C 24.51815 4.24501 -0.0264
C 25.76104 2.16353 0.00684
C 27.07027 11.27148 -0.00621
C 28.30427 10.55282 0.02611
C 28.32664 9.14453 0.02198
C 27.05822 8.52907 0.01094
C 26.97546 7.10908 0.00235
C 28.21333 6.38775 0.01495
C 28.24257 4.97748 0.01259
C 27.07187 4.19771 0.01799
C 26.982 12.71676 0.00194
C 27.00667 2.85108 0.01699
C 28.23022 0.73279 0.01177
C 26.96997 0.0519 0.04266
C 29.43358 32.66003 0.01324
C 30.79638 31.98493 0.0014
C 30.75482 30.61419 0.00924
C 29.4933 29.91764 0.02326
C 29.46838 28.44189 0.00261
C 30.66613 27.67939 0.03265
C 28.27884 2.2022 -0.00416
C 24.5962 2.82516 -0.01154
C 28.17477 13.51332 0.04185
C 26.96269 15.61188 0.01257
C 25.79043 0.78394 -0.01052
C 24.61998 34.03011 -0.01679
C 26.86365 32.68956 0.00367
C 28.22297 32.01787 0.04306
C 28.16135 30.58679 0.00996
C 27.00759 29.79948 0.00195
C 26.94095 28.36586 -0.00802
C 28.22413 27.66534 -0.00218
C 28.26796 14.88555 0.02316
C 28.24366 26.29106 -0.01654
C 26.93203 24.19018 -0.0032
C 28.17404 23.39953 0.00622
C 28.22583 22.05346 -0.02815
C 26.95598 21.29122 -0.00942
C 27.00184 19.91436 0.00487
C 28.17617 19.21693 0.00826
C 28.28823 17.82996 -0.00294
C 27.01173 17.00453 0.00152
C 27.03571 25.61371 -0.00037
C 2.44247 32.63257 -0.00077
