300
Graphene
C 0.0159 0.03022 0.01295
C 9.89753 34.07879 -0.00111
C 12.25188 32.72768 -0.03557
C 13.54161 31.98037 0.03754
C 13.55525 30.50234 0.01739
C 12.33426 29.85897 0.00755
C 12.31984 28.42216 -0.0054
C 9.7557 15.5869 0.04892
C 13.50029 27.68167 0.00667
C 12.27758 25.45882 -0.017
C 12.29216 24.14635 0.00364
C 12.37614 0.02623 -0.00831
C 14.78808 32.64573 -0.02957
C 16.02743 31.94602 -0.04422
C 16.02561 30.52256 0.00654
C 13.50171 26.32646 0.00143
C 9.83595 16.97516 0.01452
C 9.84069 19.81921 -0.01581
C 9.80752 21.27955 0.02691
C 8.68873 14.89061 -0.05302
C 7.30467 2.78827 0.00213
C 8.60019 0.72906 -0.00066
C 7.38987 34.03639 -0.00289
C 9.8411 32.7225 0.00028
C 11.00264 31.99229 -0.02213
C 11.08287 30.57151 0.03698
C 9.85815 29.80292 -0.00109
C 9.84511 28.38887 -0.00491
C 11.07694 27.69115 0.03338
C 11.0568 26.27851 -0.0258
C 9.84308 25.5541 -0.0331
C 9.83807 24.17976 -0.00316
C 11.09781 23.50293 0.02188
C 11.05087 22.02518 -0.01979
C 14.7437 29.85381 -0.00703
C 14.78968 28.33172 -0.04076
C 16.02831 27.67308 -0.00652
C 15.98976 26.27531 0.0058
C 21.01795 26.22083 0.01852
C 20.89138 9.14134 -0.00381
C 20.89874 6.36556 0.03046
C 20.93844 4.97378 0.0296
C 19.56561 2.77542 0.03374
C 20.92194 2.12011 -0.02845
C 20.97946 0.70797 -0.03213
C 19.67767 0.0586 0.02239
C 22.16235 32.67326 0.01153
C 23.31785 32.01734 0.02734
C 23.33043 30.54603 -0.0055
C 22.1116 29.76808 0.01515
C 22.12653 28.36874 -0.00225
C 23.35791 27.7613 0.00071
C 23.37677 26.20601 -0.01107
C 20.87924 27.6692 0.01126
C 7.37574 15.64958 -0.04147
C 19.68619 28.37192 -0.01185
C 20.95719 30.58598 -0.00478
C 14.79081 25.54052 -0.00865
C 15.98418 0.69176 0.00675
C 14.79468 0.01081 -0.00311
C 17.25998 32.60661 0.00742
C 18.4206 31.91978 -0.01594
C 18.43574 30.49263 0.0106
C 17.22707 29.78388 -0.01154
C 17.22718 28.38652 -0.01721
C 18.41235 27.70346 -0.02422
C 18.39842 26.26059 0.01277
C 18.41433 2.14343 0.00096
C 18.36921 0.76087 -0.01527
C 17.20922 0.01117 0.01087
C 19.66148 32.66822 0.00199
C 20.93323 31.91954 0.01511
C 19.68835 29.80741 -0.01662
C 22.10706 25.6058 -0.01586
C 7.38578 17.06743 -0.02815
C 8.66864 19.20345 0.01443
C 3.68994 10.66099 0.03101
C 3.69823 9.1786 -0.01536
C 2.42555 8.48616 -0.02689
C 2.46962 7.10297 -0.01046
C 3.77296 6.40733 -0.00891
C 3.6887 4.96265 0.02819
C 2.41662 11.38984 -0.00428
C 2.42147 4.28833 0.00165
C 3.67001 2.12004 0.02894
C 3.62921 0.72146 -0.01789
C 2.45306 0.02467 0.00444
C 4.95825 32.64359 -0.00925
C 6.12943 31.92924 0.01877
C 6.14865 30.47427 0.01363
C 2.42694 2.84054 -0.02971
C 2.46271 12.77553 -0.02245
C 3.64644 13.48047 0.00985
C 3.71534 14.91539 -0.01275
C 3.74875 30.56466 0.02339
C 2.44321 29.88748 0.01641
C 2.48869 28.37369 -0.00719
C 3.66277 27.71641 0.01364
C 3.68771 26.30526 -0.01062
C 2.47633 25.60435 -0.00033
C 2.46292 24.08592 0.03589
C 3.66352 23.44071 -0.02759
C 3.65005 22.03871 0.0402
C 2.40901 21.30885 0.00572
C 2.43361 19.90594 0.03592
C 3.67199 19.23008 0.00406
C 3.70687 17.69979 0.00943
C 2.46294 17.07581 0.02841
C 2.46838 15.6381 -0.01111
C 4.92804 29.82081 -0.02162
C 4.84411 28.46705 0.00415
C 6.1665 27.72139 -0.0014
C 6.1515 26.25102 0.02162
C 6.12103 0.69143 -0.00368
C 4.88143 0.0177 -0.02696
C 7.41746 32.5996 -0.00114
C 8.66851 31.9816 0.00228
C 8.591 30.51493 0.00798
C 7.43539 29.80807 0.00422
C 7.39104 28.38264 0.0351
C 8.54269 27.65316 -0.03113
C 8.57601 26.33709 0.02098
C 7.38423 25.55591 0.01848
C 7.41469 24.12414 -0.00619
C 8.58946 23.46398 -0.02162
C 8.63883 22.01639 0.00889
C 7.33541 21.27122 -0.00481
C 7.41732 19.86349 0.00979
C 6.06387 2.08753 -0.0108
C 8.59107 17.81509 0.03505
C 4.86723 2.89039 -0.01957
C 4.90614 7.17778 0.01965
C 4.95271 25.58565 0.0076
C 4.91823 24.05742 0.01241
C 6.1963 23.43193 -0.01454
C 6.1652 22.05672 0.01945
C 4.90297 21.35749 0.01416
C 4.90032 19.88587 0.03542
C 6.13195 19.11093 0.02299
C 6.14161 17.72617 0.00244
C 4.96139 17.0384 -0.01717
C 4.93776 15.5822 0.05265
C 6.14945 14.91075 -0.01952
C 6.13736 13.55252 -0.02813
C 4.90319 12.76172 0.00374
C 4.93558 11.33754 0.00052
C 4.99515 8.48261 -0.03682
C 4.93926 4.2799 0.02058
C 23.32174 9.12915 -0.01971
C 22.10599 8.50835 -0.02118
C 22.06519 7.10251 0.00733
C 31.93813 21.25389 -0.02383
C 31.97446 19.87854 -0.01429
C 33.18953 19.19843 -0.0136
C 33.17567 17.78217 0.00594
C 32.00592 16.98373 -0.02474
C 31.97998 15.62666 0.00369
C 33.20292 22.01842 0.01574
C 33.24441 14.91113 0.00455
C 31.95068 12.76692 -0.01839
C 31.97182 11.34572 0.00137
C 33.21546 10.6737 0.00199
C 33.18005 9.23877 0.04381
C 31.93674 8.56021 0.02806
C 32.00713 7.10462 0.01504
C 33.22563 13.52 -0.00644
C 33.2102 23.45034 0.01927
C 32.01359 24.19616 0.03794
C 31.92737 25.63225 -0.01779
C 29.50125 7.13934 0.01518
C 30.76492 6.41876 0.01908
C 30.6847 4.98022 0.07705
C 29.51283 4.28645 0.0103
C 29.53446 2.82828 0.02108
C 30.76165 2.10588 0.00716
C 30.72035 0.73216 0.00307
C 29.48336 0.0275 0.00346
C 31.97106 32.66543 0.01713
C 33.14496 31.94716 -0.01694
C 33.16053 30.56519 0.01428
C 31.97923 29.78203 -0.02142
C 32.00305 28.37775 0.0544
C 33.17323 27.7496 0.00026
C 33.16391 26.30062 0.00682
C 33.24471 6.44642 -0.00069
C 33.22521 4.92486 0.04926
C 31.96525 4.2865 -0.03838
C 31.93291 2.84566 0.00349
C 0.00326 15.61268 0.02114
C 1.20471 14.94224 -0.02957
C 1.14701 13.49482 0.00343
C 34.38774 12.76402 -0.02656
C 34.39024 11.31116 -0.02442
C 1.22211 10.71828 -0.00027
C 1.17625 9.23298 -0.00583
C 34.43051 8.56393 -0.02302
C 0.0015 7.07484 -0.02849
C 1.21504 6.37325 0.02931
C 1.21348 4.98262 0.00628
C 0.03522 4.23802 -0.0345
C 0.03 2.86804 -0.00931
C 1.23334 2.12451 -0.00939
C 1.2324 0.71946 -0.00468
C 34.41465 17.02396 0.00648
C 29.45222 8.57831 -0.00971
C 1.26118 17.74411 0.01223
C 0.00938 19.83905 0.01951
C 33.25145 2.09772 -0.00323
C 33.19505 0.71714 -0.00841
C 31.96412 0.02202 0.0001
C 0.00855 32.66452 -0.02927
C 1.21761 31.95459 -0.01404
C 1.22147 30.51712 0.01027
C 34.40737 29.85184 0.01831
C 0.05114 28.45339 -0.01037
C 1.24354 27.60962 -0.00439
C 1.26733 26.23119 -0.00598
C 0.00671 25.59634 -0.05239
C 34.42039 24.19136 0.03076
C 1.22451 23.40236 0.00723
C 1.16428 22.0348 0.02712
C 0.03667 21.25271 -0.02213
C 1.19482 19.13474 -0.01678
C 30.70512 9.26324 -0.03735
C 30.71858 10.6244 -0.00944
C 29.48356 11.39591 -0.02155
C 25.80407 6.39518 0.00684
C 25.83707 4.89791 -0.01052
C 24.63661 4.23388 -0.01679
C 24.59339 2.87618 0.00367
C 25.89117 2.12504 0.04306
C 25.8176 0.64684 0.00996
C 24.59885 0.01266 0.00195
C 27.09873 32.64744 -0.00802
C 28.25625 31.95138 -0.00218
C 28.29442 30.51577 -0.01654
C 27.04856 29.82653 -0.00037
C 27.05197 28.41293 -0.0032
C 28.30149 27.7501 0.00622
C 28.28139 26.25389 -0.02815
C 27.09258 25.59219 -0.00942
C 24.56955 7.13164 -0.01154
C 27.05288 24.15008 0.00487
C 24.57878 8.53339 -0.0264
C 25.84172 10.70563 -0.00229
C 23.3921 6.36268 -0.00178
C 23.33073 4.93307 0.00768
C 22.11581 4.30095 -0.0276
C 22.1351 2.86234 0.03005
C 23.36756 2.18233 -0.04078
C 23.31267 0.64542 0.02117
C 22.115 34.05861 0.02737
C 24.60558 32.67674 -0.00498
C 25.89069 31.96072 0.00135
C 25.76194 30.48704 0.03102
C 24.52847 29.81938 0.02555
C 24.58205 28.36151 0.01423
C 25.80121 27.68035 -0.00285
C 25.81756 26.20829 -0.009
C 24.61543 25.61123 -0.01199
C 25.84784 9.30131 -0.00938
C 3.70582 31.96307 -0.00334
C 28.2509 23.39436 0.00826
C 28.2524 14.86837 0.00152
C 30.70218 27.69066 0.02326
C 30.72422 26.28255 0.00261
C 29.54153 25.4866 0.03265
C 29.51769 24.09606 -0.02049
C 30.72313 23.48022 -0.01854
C 30.76344 22.05945 -0.01415
C 29.5097 21.36508 -0.03039
C 29.50631 19.8839 0.01836
C 30.70336 19.15779 0.03531
C 30.74728 17.76689 -0.00669
C 29.53654 17.03862 0.0101
C 29.51395 15.62435 0.01705
C 30.75513 14.8859 -0.0405
C 30.72346 13.48494 -0.01303
C 29.49882 12.79878 -0.01461
C 29.50168 28.4551 0.00924
C 28.29306 21.96958 -0.00294
C 29.51481 29.79266 0.0014
C 30.69851 31.92433 0.04266
C 28.26593 13.52732 0.01257
C 27.0953 12.75556 0.02316
C 26.98282 11.30614 0.04185
C 28.26472 10.6469 0.00194
C 28.29626 9.24707 -0.00621
C 27.05459 8.48874 0.02611
C 27.02508 7.11303 0.02198
C 28.32673 6.34948 0.01094
C 28.29917 4.96118 0.00235
C 27.08294 4.27098 0.01495
C 27.04902 2.83337 0.01259
C 28.31058 2.0704 0.01799
C 28.26197 0.67941 0.01699
C 27.01814 34.06032 -0.00416
C 29.50456 32.65869 0.01177
C 30.78679 30.49424 0.01324
C 2.45262 32.70946 -0.01634
