443
Graphene
C 34.4297 0.0349 0.01295
C 13.5659 19.20403 0.00093
C 13.47343 17.83102 0.00057
C 12.27718 17.06695 -0.01634
C 12.33612 15.62604 -0.00334
C 13.58018 14.93714 0.02339
C 13.58128 13.51164 0.01641
C 12.25288 12.76566 -0.00719
C 12.27759 11.33324 0.01364
C 13.45296 10.52129 -0.01062
C 13.53395 9.18099 -0.00033
C 12.33905 8.51693 0.03589
C 12.38714 7.02179 -0.02759
C 13.61986 6.39969 0.0402
C 12.34613 4.2648 0.00572
C 12.28798 2.89164 0.03592
C 13.50842 2.04325 0.00406
C 13.52177 0.61944 0.00943
C 12.24119 33.97555 0.02841
C 14.82637 32.61077 -0.01111
C 15.99622 31.89846 -0.01275
C 15.93899 30.56238 0.00985
C 14.7415 29.8272 -0.02245
C 14.71498 28.41331 -0.00428
C 12.26883 19.96802 0.01291
C 12.31593 21.39381 0.00438
C 13.5781 22.06068 -0.00191
C 13.5642 23.48877 0.00373
C 11.09557 14.92348 0.00054
C 11.06643 13.5177 0.03007
C 9.8459 12.80038 -0.00095
C 9.88155 11.39701 0.01572
C 11.07387 10.73144 -0.04848
C 11.02415 9.27962 -0.00892
C 9.79885 8.61047 -0.01362
C 9.85232 7.04387 -0.0008
C 11.07185 6.41552 0.0288
C 11.19309 5.00317 0.00393
C 9.95591 4.29299 0.00895
C 15.91659 27.63741 0.03101
C 9.84171 2.87229 0.00685
C 11.02257 0.64375 -0.00482
C 9.74004 0.05265 -0.01384
C 12.30858 32.61311 0.03693
C 13.62022 31.95827 0.01745
C 13.55045 30.54805 0.00488
C 12.33013 29.91375 -0.01004
C 12.25542 28.50199 -0.02896
C 13.45252 27.72134 -0.00131
C 13.47701 26.25424 -0.01118
C 12.3099 25.55691 -0.014
C 12.29589 24.16801 0.02147
C 11.02803 2.12194 0.02888
C 15.95888 26.27041 -0.01536
C 14.74425 25.56126 -0.02689
C 14.79107 24.10789 -0.01046
C 18.45352 27.73545 -0.03682
C 18.47188 26.25511 0.01965
C 17.2234 25.57892 0.02058
C 17.26734 24.11248 -0.01957
C 18.46019 23.36699 -0.0108
C 18.3662 21.97667 -0.00368
C 17.16184 21.25229 -0.02696
C 17.21689 19.8081 -0.00114
C 18.45421 19.09663 0.00228
C 18.40803 17.77521 0.00798
C 17.18899 17.00331 0.00422
C 17.18377 28.40619 0.00052
C 17.08899 15.73552 0.0351
C 17.23829 11.43131 0.02098
C 18.42218 10.63459 0.01848
C 18.46038 9.20176 -0.00619
C 17.2209 8.52769 -0.02162
C 17.20218 7.12268 0.00889
C 18.44309 6.43338 -0.00481
C 18.46356 5.05022 0.00979
C 17.19937 4.23399 0.01443
C 17.2353 2.83825 0.03505
C 18.43025 2.10498 -0.02815
C 18.42384 0.68763 -0.04147
C 17.34534 12.78285 -0.03113
C 9.80766 15.64362 -0.00494
C 17.13616 29.8478 0.00374
C 18.41178 31.99222 -0.01952
C 15.98006 23.40895 -0.00891
C 15.9411 22.001 0.02819
C 14.7542 21.31931 0.00165
C 14.80908 19.8775 -0.02971
C 15.98356 19.1317 0.02894
C 15.89346 17.67113 -0.01789
C 14.69036 17.0223 0.00444
C 14.79809 15.62685 -0.00925
C 16.00443 14.88228 0.01877
C 16.10297 13.45048 0.01363
C 14.83031 12.7855 -0.02162
C 18.3994 30.57193 -0.02813
C 14.79092 11.30097 0.00415
C 15.96159 9.24424 0.02162
C 14.74502 8.5592 0.0076
C 14.79623 7.09722 0.01241
C 16.02049 6.40469 -0.01454
C 15.91549 4.95714 0.01945
C 14.67239 4.28737 0.01416
C 14.67103 2.89404 0.03542
C 15.92355 2.1677 0.02299
C 15.96514 0.76568 0.00244
C 14.78751 33.99271 -0.01717
C 17.1844 32.73915 0.05265
C 15.98422 10.66594 -0.0014
C 17.22987 0.01506 -0.05302
C 9.8183 17.05973 -0.00562
C 11.02312 19.19109 0.01849
C 3.65085 0.70617 0.01138
C 2.41888 34.07399 0.03278
C 4.88411 32.68804 -0.00177
C 6.17965 31.91629 0.04421
C 6.21381 30.53164 0.00088
C 4.92673 29.8245 0.00828
C 5.03789 28.39033 -0.02375
C 6.19368 27.68445 0.00558
C 6.12016 26.25747 -0.0059
C 4.83315 25.66077 -0.01386
C 4.97588 24.18255 -0.02805
C 6.17011 23.44556 0.00081
C 6.12086 22.05233 0.00245
C 4.93929 21.2619 0.02728
C 4.90409 19.79262 -0.00039
C 6.20073 19.15096 0.0064
C 6.08485 17.7298 0.00211
C 4.813 17.11282 -0.00449
C 4.83895 15.71885 -0.01979
C 6.12005 14.96143 0.02784
C 6.17568 13.55305 -0.01977
C 4.93832 12.73254 -0.00561
C 4.932 11.33176 0.00208
C 3.67886 2.16305 -0.00407
C 2.44849 2.86253 -0.01299
C 2.43186 4.23188 -0.0154
C 3.63395 4.90683 0.00662
C 3.67835 30.49785 -0.00141
C 2.48464 29.80562 -0.00374
C 2.49476 28.3892 -0.0213
C 3.73549 27.73606 0.01116
C 3.65933 26.36618 -0.0005
C 2.44311 25.56477 -0.00018
C 2.525 24.12686 0.01073
C 3.77509 23.43591 0.01984
C 3.72638 22.00977 0.00535
C 2.41767 21.22981 -0.00198
C 2.44122 19.78157 -0.00012
C 6.13903 10.66174 0.01707
C 3.6027 19.13146 -0.04306
C 2.40288 17.01649 0.01913
C 2.41542 15.63626 0.00267
C 3.66131 14.90358 0.00787
C 3.749 13.4463 0.02426
C 2.45592 12.78815 0.01218
C 2.47129 11.42105 -0.01471
C 3.72871 10.67144 -0.02827
C 3.69997 9.23711 0.01078
C 2.47422 8.52178 -0.00112
C 2.48187 7.10712 0.03345
C 3.69693 6.37403 0.00748
C 3.62104 17.77294 -0.03672
C 6.17074 9.22444 0.02769
C 4.92999 8.59743 -0.03291
C 4.93146 7.13261 -0.04999
C 8.59582 10.75302 -0.02566
C 8.54574 9.353 -0.00094
C 7.38956 8.58857 0.02322
C 7.35192 7.16844 -0.00725
C 8.57668 6.38803 -0.05697
C 8.6401 4.99176 0.01087
C 7.40396 4.26451 -0.01343
C 7.3868 2.84994 0.00988
C 8.60622 2.19749 0.0276
C 8.55014 0.80198 0.01305
C 7.37255 0.05134 -0.00077
C 7.30515 11.42182 -0.03113
C 9.76975 32.68311 0.03368
C 11.02561 30.5163 -0.00966
C 9.82368 29.85707 -0.03337
C 9.78874 28.45556 0.01227
C 10.99902 27.76217 0.00873
C 11.1172 26.36679 -0.00049
C 9.90151 25.55688 0.00848
C 9.78454 24.13629 -0.01303
C 11.03702 23.40817 -0.01378
C 11.07965 22.04882 0.02635
C 9.81216 21.31448 0.0127
C 9.74453 19.8984 0.01396
C 10.99608 31.9774 -0.02929
C 11.00286 17.7195 -0.01142
C 7.37316 12.82174 0.017
C 8.52981 14.87944 0.0086
C 6.15689 6.41287 0.04505
C 6.15862 4.94532 0.03284
C 4.89933 4.2417 -0.04307
C 4.95226 2.87456 0.03189
C 6.1723 2.16345 0.00031
C 6.16427 0.74767 -0.003
C 4.93389 34.06431 0.01402
C 7.35835 32.69536 0.02379
C 8.54798 31.9837 0.00907
C 8.55388 30.61164 0.00643
C 7.45 29.79567 -0.01509
C 8.63164 13.46167 -0.00643
C 7.45651 28.3643 0.03267
C 8.59794 26.26159 0.00402
C 7.36221 25.60257 0.0073
C 7.409 24.16133 0.0174
C 8.60801 23.43126 0.03828
C 8.55851 22.03715 0.01226
C 7.39739 21.31478 -0.00279
C 7.40212 19.92037 0.01996
C 8.59858 19.10221 -0.03996
C 8.5802 17.71486 0.01465
C 7.37816 17.04989 -0.00074
C 7.34366 15.66205 -0.00518
C 8.63893 27.63418 0.02374
C 3.68145 31.92452 -0.03951
C 19.68837 32.6309 0.00213
C 20.89175 30.48932 -0.00289
C 29.45881 15.70199 0.01705
C 30.70986 14.89965 -0.0405
C 30.69933 13.5035 -0.01303
C 29.5021 12.76365 -0.01461
C 29.50231 11.29975 -0.02155
C 30.73726 10.64834 -0.00944
C 30.78881 9.17165 -0.03735
C 29.59936 8.48883 -0.00971
C 29.48879 7.02382 0.01518
C 30.73241 6.3297 0.01908
C 30.7667 4.93298 0.07705
C 29.51952 4.25589 0.0103
C 29.52751 2.81257 0.02108
C 30.77099 2.16293 0.00716
C 30.7636 0.74318 0.00307
C 29.52161 0.08623 0.00346
C 31.98246 32.65716 0.01713
C 33.24443 32.02206 -0.01694
C 33.1746 30.57766 0.01428
C 31.94177 29.8385 -0.02142
C 31.99324 28.40194 0.0544
C 33.27939 27.72615 0.00026
C 33.21965 26.31523 0.00682
C 29.52518 17.05936 0.0101
C 30.68407 17.74787 -0.00669
C 30.73448 19.17173 0.03531
C 29.50143 19.93168 0.01836
C 26.98049 11.26978 0.04185
C 28.25114 10.61654 0.00194
C 28.32361 9.19603 -0.00621
C 27.09633 8.49075 0.02611
C 27.02246 7.10152 0.02198
C 28.19216 6.3632 0.01094
C 28.22726 4.92131 0.00235
C 27.02769 4.23354 0.01495
C 27.02492 2.78815 0.01259
C 28.28113 2.19832 0.01799
C 28.3022 0.78595 0.01699
C 31.97005 25.59131 -0.01779
C 27.07168 0.00438 -0.00416
C 30.65059 31.93886 0.04266
C 30.69252 30.51343 0.01324
C 29.51499 29.80097 0.0014
C 29.55557 28.3671 0.00924
C 30.75991 27.68523 0.02326
C 30.72606 26.28141 0.00261
C 29.47276 25.601 0.03265
C 29.46478 24.21209 -0.02049
C 30.70613 23.47745 -0.01854
C 30.711 22.05323 -0.01415
C 29.46654 21.33181 -0.03039
C 29.52507 32.67622 0.01177
C 31.98188 24.13101 0.03794
C 33.17704 23.42183 0.01927
C 33.11646 21.99503 0.01574
C 34.40224 25.59391 -0.05239
C 34.42083 24.20637 0.03076
C 1.23955 23.38154 0.00723
C 1.20985 21.93554 0.02712
C 34.36433 21.2914 -0.02213
C 0.00936 19.88422 0.01951
C 1.21789 19.13672 -0.01678
C 1.1525 17.70198 0.01223
C 34.36169 17.02275 0.00648
C 0.04095 15.58587 0.02114
C 1.22069 14.85066 -0.02957
C 1.18593 26.27118 -0.00598
C 1.23382 13.41841 0.00343
C 0.00506 11.29753 -0.02442
C 1.2608 10.62659 -0.00027
C 1.22292 9.22133 -0.00583
C 0.04946 8.4439 -0.02302
C 34.40319 7.03834 -0.02849
C 1.20826 6.3789 0.02931
C 1.22734 4.96849 0.00628
C 0.03358 4.26361 -0.0345
C 34.38845 2.83922 -0.00931
C 1.13449 2.10705 -0.00939
C 1.17568 0.70702 -0.00468
C 0.01237 12.7333 -0.02656
C 26.99881 12.80161 0.02316
C 1.2988 27.68127 -0.00439
C 0.0537 29.83268 0.01831
C 31.82798 21.29197 -0.02383
C 31.90863 19.82968 -0.01429
C 33.20205 19.15221 -0.0136
C 33.21239 17.72763 0.00594
C 32.00764 16.94212 -0.02474
C 32.02954 15.55513 0.00369
C 33.27136 14.85628 0.00455
C 33.19075 13.4323 -0.00644
C 31.98565 12.7042 -0.01839
C 31.95122 11.339 0.00137
C 33.1919 10.64638 0.00199
C 0.1024 28.34663 -0.01037
C 33.30387 9.16296 0.04381
C 31.97026 7.02944 0.01504
C 33.17829 6.35022 -0.00069
C 33.2454 4.95952 0.04926
C 32.0052 4.25967 -0.03838
C 32.00019 2.82012 0.00349
C 33.18282 2.13254 -0.00323
C 33.21758 0.74063 -0.00841
C 31.99776 34.05082 0.0001
C 0.09177 32.72126 -0.02927
C 1.30201 31.98725 -0.01404
C 1.24805 30.59315 0.01027
C 32.01901 8.46111 0.02806
C 20.90203 31.93236 -0.00066
C 28.24257 13.51693 0.01257
C 27.02666 15.7844 -0.00294
C 19.66685 34.0419 0.00654
C 22.13357 32.7232 -0.00703
C 23.29467 31.97905 -0.04076
C 23.31882 30.5556 -0.00652
C 22.15761 29.86261 0.0058
C 22.11856 28.46461 -0.00865
C 23.31358 27.70105 0.00675
C 23.39696 26.31793 -0.00311
C 22.21743 25.51769 0.00742
C 22.16529 24.14379 -0.01594
C 23.34839 23.40539 0.0106
C 23.38192 21.97488 -0.01154
C 22.15888 21.30341 -0.01721
C 22.27069 19.93938 -0.02422
C 23.38282 19.15906 0.01277
C 23.36982 17.75067 0.00096
C 22.11193 17.02023 -0.01527
C 22.05168 15.68378 0.01087
C 23.3064 14.94834 0.00199
C 23.28879 13.48651 0.01511
C 22.08476 12.73494 -0.00478
C 22.12102 11.32866 -0.01662
C 23.28924 10.58449 -0.01185
C 20.90767 0.72056 -0.04422
C 20.85141 2.14422 -0.02957
C 19.58849 2.84238 -0.00831
C 19.62275 4.25383 0.00364
C 19.6127 29.82911 0.00028
C 19.7005 28.41878 -0.02213
C 20.91905 27.64807 0.03698
C 20.95758 26.17654 -0.00109
C 19.69141 25.51159 -0.00491
C 19.69771 24.08239 0.03338
C 20.92364 23.45384 -0.0258
C 20.97624 22.08337 -0.0331
C 19.70008 21.29203 -0.00316
C 19.67066 19.8521 0.02188
C 20.89224 19.19153 -0.01979
C 23.33111 9.21883 0.01126
C 20.86895 17.74693 0.02691
C 19.67031 15.64889 0.01452
C 20.85915 14.94634 0.04892
C 20.83838 13.47833 -0.00111
C 19.64914 12.75194 -0.03557
C 19.6137 11.33175 0.03754
C 20.89108 10.67097 0.01739
C 20.92306 9.2224 0.00755
C 19.66152 8.48631 -0.0054
C 19.66155 7.05717 0.00667
C 20.89401 6.368 0.00143
C 20.89033 4.94565 -0.017
C 19.6366 17.00493 -0.01581
C 22.1673 8.52543 0.01852
C 22.13556 7.11731 -0.00381
C 23.41294 6.4127 0.03046
C 25.80709 9.18373 -0.00285
C 24.60617 8.49135 -0.009
C 24.58035 7.14184 -0.01199
C 25.8389 6.4018 -0.00229
C 25.79264 4.96121 -0.00938
C 24.6312 4.23072 -0.0264
C 24.61738 2.84904 -0.01154
C 25.85202 2.12882 0.00684
C 25.86046 0.75169 -0.01052
C 24.58742 0.02453 -0.01679
C 27.04927 32.62976 0.00367
C 25.77672 10.54153 0.01423
C 28.21117 31.90531 0.04306
C 27.08837 29.80918 0.00195
C 26.99327 28.38352 -0.00802
C 28.23647 27.67792 -0.00218
C 28.24401 26.27733 -0.01654
C 27.02446 25.56926 -0.00037
C 27.02668 24.09768 -0.0032
C 28.22809 23.35004 0.00622
C 28.25265 21.98644 -0.02815
C 27.04368 21.3323 -0.00942
C 27.11685 19.88519 0.00487
C 28.32619 19.05234 0.00826
C 28.32984 30.51783 0.00996
C 28.20884 15.06217 0.00152
C 24.54688 11.33705 0.02555
C 25.79921 13.53858 0.00135
C 23.36291 4.932 0.0296
C 22.16019 4.22319 0.03374
C 22.14589 2.81881 -0.02845
C 23.40862 2.15634 -0.03213
C 23.40876 0.6649 0.02239
C 22.15054 0.03453 0.01153
C 24.60774 32.69031 0.02734
C 25.80966 31.97873 -0.0055
C 25.81392 30.51946 0.01515
C 24.5701 29.86039 -0.00225
C 24.55503 28.36637 0.00071
C 24.49444 12.77549 0.03102
C 25.74573 27.6945 -0.01107
C 24.57366 25.57989 -0.01971
C 24.60571 24.21217 -0.02118
C 25.81092 23.43288 0.00733
C 25.80138 22.05898 -0.00178
C 24.60218 21.26028 0.00768
C 24.5869 19.79102 -0.0276
C 25.84919 19.14888 0.03005
C 25.77168 17.81429 -0.04078
C 24.66643 17.03494 0.02117
C 24.62751 15.60673 0.02737
C 25.89212 14.98458 -0.00498
C 25.77844 26.24915 -0.01586
C 2.54198 32.66963 -0.02419
