365
Graphene
C 34.35264 0.02505 0.01295
C 11.02454 10.59559 0.00052
C 11.06435 9.22444 -0.03682
C 9.80895 8.5114 0.01965
C 9.74654 7.04905 0.02058
C 10.98459 6.42896 -0.01957
C 10.96049 4.973 -0.0108
C 9.73094 4.25352 -0.00368
C 9.80537 2.82055 -0.02696
C 9.77712 11.30141 0.00374
C 10.98717 2.09304 -0.00114
C 9.77678 0.00218 0.00798
C 12.26822 32.65543 0.00422
C 13.55351 31.9649 0.0351
C 13.57124 30.49087 -0.03113
C 12.29223 29.87668 0.02098
C 12.31154 28.4334 0.01848
C 13.51427 27.71383 -0.00619
C 13.56623 26.2886 -0.02162
C 11.01463 0.70029 0.00228
C 9.79989 12.74973 -0.02813
C 11.0193 13.43756 -0.01952
C 11.07591 14.84029 0.05265
C 8.56498 0.69964 0.02894
C 7.3364 0.02613 -0.01789
C 9.82327 32.68323 0.00444
C 11.05073 31.96581 -0.00925
C 11.04538 30.56177 0.01877
C 9.79549 29.89825 0.01363
C 9.80131 28.44467 -0.02162
C 11.01307 27.77075 0.00415
C 11.04228 26.31084 -0.0014
C 9.77838 25.59456 0.02162
C 9.87602 24.14909 0.0076
C 11.06545 23.49375 0.01241
C 11.08783 22.0149 -0.01454
C 9.87589 21.31564 0.01945
C 9.92247 19.89854 0.01416
C 11.14932 19.15097 0.03542
C 11.15823 17.70151 0.02299
C 9.86008 16.99939 0.00244
C 9.85404 15.57277 -0.01717
C 12.32083 25.56268 0.00889
C 12.29169 24.11931 -0.00481
C 13.54797 23.43817 0.00979
C 13.5866 22.03917 0.01443
C 15.94045 30.40954 -0.03557
C 14.75627 29.73215 0.03754
C 14.77889 28.29141 0.01739
C 15.94666 27.61281 0.00755
C 16.02276 26.2746 -0.0054
C 14.81346 25.53156 0.00667
C 14.83845 24.04176 0.00143
C 16.08063 23.34059 -0.017
C 16.00757 21.9788 0.00364
C 14.80095 21.23664 -0.00831
C 14.84119 19.87838 -0.02957
C 16.13487 19.20624 -0.04422
C 16.1029 17.77842 0.00654
C 14.75823 17.01306 -0.00703
C 14.78099 15.55125 -0.04076
C 16.00591 14.86228 -0.00652
C 15.97727 13.4445 0.0058
C 14.70677 12.78474 -0.00865
C 14.77731 11.38572 0.00675
C 15.92666 31.92821 -0.00111
C 8.57108 2.15361 -0.02971
C 14.73238 32.685 0.04892
C 13.44273 0.71807 -0.01581
C 12.33464 21.31133 0.03505
C 12.36482 19.89021 -0.02815
C 13.61373 19.14374 -0.04147
C 13.54907 17.76001 -0.05302
C 12.36297 17.00579 0.00213
C 12.27671 15.55296 -0.00066
C 13.52198 14.83819 -0.00289
C 13.49845 13.45213 0.00028
C 12.28397 12.72265 -0.02213
C 12.28622 11.34652 0.03698
C 13.54547 10.63461 -0.00109
C 13.4752 9.2811 -0.00491
C 12.28727 8.53312 0.03338
C 12.30336 7.1148 -0.0258
C 13.52727 6.40185 -0.0331
C 13.45118 5.01429 -0.00316
C 12.20236 4.26155 0.02188
C 12.22494 2.83317 -0.01979
C 13.43567 2.14807 0.02691
C 12.25824 34.05592 0.01452
C 7.31038 2.88232 0.00165
C 7.32059 4.29172 0.02819
C 8.58617 4.94969 -0.00891
C 3.65378 6.49181 0.00848
C 3.67793 5.0431 -0.01303
C 2.42844 4.33266 -0.01378
C 2.42251 2.84958 0.02635
C 3.6324 2.11609 0.0127
C 3.60942 0.70032 0.01396
C 2.39645 34.07845 0.01849
C 4.86761 32.67135 -0.01142
C 6.09181 32.01735 -0.00562
C 6.15366 30.5929 -0.00494
C 4.94368 29.8463 0.00054
C 4.90225 28.3341 0.03007
C 6.164 27.61846 -0.00095
C 6.14081 26.27234 0.01572
C 4.88625 25.56156 -0.04848
C 4.92609 24.20495 -0.00892
C 6.10555 23.42669 -0.01362
C 6.10562 21.99979 -0.0008
C 4.83154 21.34428 0.0288
C 2.45017 7.19721 -0.00049
C 4.94702 19.9251 0.00393
C 2.45133 8.61794 0.00873
C 3.64309 10.74973 -0.03337
C 3.67298 30.53861 -0.00518
C 2.47676 29.83374 0.0086
C 2.48169 28.40701 -0.00643
C 3.67987 27.71872 0.017
C 3.64605 26.28693 -0.03113
C 2.38615 25.55212 -0.02566
C 2.34628 24.17749 -0.00094
C 3.59748 23.505 0.02322
C 3.63025 22.04716 -0.00725
C 2.3916 21.29306 -0.05697
C 2.45507 19.82914 0.01087
C 3.66637 19.17782 -0.01343
C 3.68866 17.7772 0.00988
C 2.38644 17.02605 0.0276
C 2.45973 15.59514 0.01305
C 3.67839 14.966 -0.00077
C 3.62246 13.56839 0.03368
C 2.41907 12.88527 -0.02929
C 2.45281 11.43 -0.00966
C 3.67915 9.28564 0.01227
C 15.9844 10.63609 -0.00311
C 6.20111 19.22162 0.00895
C 4.93675 17.09458 0.02888
C 7.39055 25.5624 -0.01062
C 7.3771 24.1396 -0.00033
C 8.66682 23.52091 0.03589
C 8.66587 22.04367 -0.02759
C 7.41424 21.34749 0.0402
C 7.44684 19.89521 0.00572
C 8.66526 19.19713 0.03592
C 8.65106 17.75823 0.00406
C 7.40099 17.05436 0.00943
C 7.43096 15.6766 0.02841
C 8.5962 14.79088 -0.01111
C 8.58373 13.45398 -0.01275
C 7.31207 12.79362 0.00985
C 7.31446 11.31028 -0.02245
C 8.55523 10.66325 -0.00428
C 8.56044 9.21865 0.03101
C 7.31015 8.5019 -0.01536
C 7.34149 7.11346 -0.02689
C 8.54996 6.407 -0.01046
C 8.54597 26.32867 0.01364
C 6.19376 17.81815 0.00685
C 8.6121 27.7313 -0.00719
C 7.36205 29.87283 0.02339
C 4.92216 15.73509 -0.00482
C 6.14036 14.97606 -0.01384
C 6.10587 13.59171 0.03693
C 4.86879 12.89176 0.01745
C 4.90606 11.46598 0.00488
C 6.09692 10.66193 -0.01004
C 6.0942 9.2428 -0.02896
C 4.84764 8.56918 -0.00131
C 4.9418 7.13371 -0.01118
C 6.10277 6.4579 -0.014
C 6.0911 5.0115 0.02147
C 4.89499 4.32175 0.00373
C 4.8051 2.88555 -0.00191
C 6.07626 2.13627 0.00438
C 6.09111 0.70767 0.01291
C 4.85425 34.0636 0.00093
C 7.38651 32.70979 0.00057
C 8.60133 32.01225 -0.01634
C 8.5827 30.60518 -0.00334
C 7.35111 28.44348 0.01641
C 3.61306 31.95928 -0.00074
C 15.98302 9.18903 0.00742
C 14.75125 7.17464 0.0106
C 29.4799 7.10586 0.00346
C 30.7015 6.34759 0.01713
C 30.72953 4.96955 -0.01694
C 29.43874 4.28237 0.01428
C 29.42412 2.83313 -0.02142
C 30.69056 2.15285 0.0544
C 30.738 0.75034 0.00026
C 29.49872 0.03441 0.00682
C 29.51771 8.51529 0.00307
C 31.91626 32.69259 -0.01779
C 33.15547 30.53202 0.01927
C 31.89069 29.81727 0.01574
C 31.81809 28.38065 -0.02383
C 33.13054 27.7304 -0.01429
C 33.19618 26.29223 -0.0136
C 31.97481 25.56346 0.00594
C 31.92602 24.22869 -0.02474
C 33.16469 23.48391 0.00369
C 33.18499 31.99737 0.03794
C 30.77353 9.25736 0.00716
C 30.67314 10.67008 0.02108
C 29.44093 11.32843 0.0103
C 28.3677 10.55021 -0.02049
C 28.23931 9.16055 -0.01854
C 26.99544 8.4877 -0.01415
C 27.06671 7.09532 -0.03039
C 28.24357 6.37441 0.01836
C 28.22693 5.0194 0.03531
C 27.0565 4.31602 -0.00669
C 26.99964 2.91347 0.0101
C 28.21515 2.15656 0.01705
C 28.29809 0.72382 -0.0405
C 27.0137 0.03991 -0.01303
C 29.49093 32.68954 -0.01461
C 30.72273 31.97276 -0.02155
C 30.75441 30.53177 -0.00944
C 29.5976 29.90344 -0.03735
C 29.58222 28.4099 -0.00971
C 30.59574 27.53229 0.01518
C 30.7131 26.19816 0.01908
C 30.73704 23.42607 0.07705
C 33.10655 22.09582 0.00455
C 33.2075 13.51539 -0.00644
C 32.20503 12.70972 -0.01839
C 31.92266 11.31531 0.00137
C 0.12475 20.02495 0.01951
C 1.22843 19.17408 -0.01678
C 1.16705 17.75439 0.01223
C 0.01996 16.94337 0.00648
C 0.06642 15.63553 0.02114
C 1.2148 14.84104 -0.02957
C 1.18361 13.47476 0.00343
C 0.00089 12.7944 -0.02656
C 34.40247 11.4212 -0.02442
C 1.21646 10.75523 -0.00027
C 1.17445 9.22524 -0.00583
C 34.37352 8.51722 -0.02302
C 34.42224 7.1332 -0.02849
C 1.22296 6.44705 0.02931
C 1.20998 5.04475 0.00628
C 0.01913 4.34067 -0.0345
C 0.01942 2.93459 -0.00931
C 1.23358 2.14871 -0.00939
C 1.17857 0.6808 -0.00468
C 34.1243 21.19839 -0.02213
C 27.03015 30.02394 0.03265
C 1.13102 21.98633 0.02712
C 34.3634 24.16213 0.03076
C 33.16654 10.68794 0.00199
C 33.1422 9.2689 0.04381
C 31.96918 8.52731 0.02806
C 31.96132 7.1508 0.01504
C 33.24173 6.41314 -0.00069
C 33.18715 5.01779 0.04926
C 31.96489 4.21435 -0.03838
C 31.94348 2.86817 0.00349
C 33.19835 2.18884 -0.00323
C 33.15198 0.76538 -0.00841
C 31.97589 0.08809 0.0001
C 34.40951 32.66033 -0.02927
C 1.24406 31.94587 -0.01404
C 1.20797 30.49624 0.01027
C 34.37395 29.86734 0.01831
C 34.41096 28.50576 -0.01037
C 1.2278 27.73849 -0.00439
C 1.20387 26.31931 -0.00598
C 34.40089 25.59567 -0.05239
C 1.14712 23.40089 0.00723
C 28.39946 30.53896 0.00261
C 28.30755 31.93154 0.02326
C 26.99984 32.66747 0.00924
C 17.18833 11.34284 -0.0055
C 18.41353 10.62291 0.01515
C 18.47116 9.21755 -0.00225
C 17.26291 8.46133 0.00071
C 17.19138 7.05548 -0.01107
C 18.39091 6.38698 -0.01586
C 18.38008 5.04966 -0.01971
C 17.17989 4.24305 -0.02118
C 17.0822 2.85773 0.00733
C 18.35383 2.09986 -0.00178
C 18.34543 0.68177 0.00768
C 17.1567 0.00566 -0.0276
C 19.6021 32.5714 0.03005
C 20.85834 31.93107 -0.04078
C 20.61659 30.53165 0.02117
C 19.68254 29.8015 0.02737
C 20.98439 17.53351 -0.00498
C 19.69344 16.95193 0.00135
C 19.65966 15.54977 0.03102
C 17.20577 12.72839 0.02734
C 20.86373 14.84786 0.02555
C 18.46112 13.51223 0.01153
C 17.20597 15.51398 -0.03213
C 15.96735 6.38937 -0.01154
C 15.95601 4.95833 -0.01721
C 14.68932 4.27274 -0.02422
C 14.63664 2.84923 0.01277
C 15.84587 2.1067 0.00096
C 15.88569 0.75554 -0.01527
C 14.74948 34.06434 0.01087
C 17.20195 32.54588 0.00199
C 18.38418 31.80949 0.01511
C 18.34584 30.43459 -0.00478
C 17.16347 29.76888 -0.01662
C 17.16986 28.35905 -0.01185
C 17.10753 25.35883 0.01126
C 17.26814 24.13513 0.01852
C 17.197 21.27731 -0.00381
C 17.44722 19.99327 0.03046
C 18.38147 19.03149 0.0296
C 18.46422 17.6741 0.03374
C 17.25308 16.94177 -0.02845
C 18.47516 14.9592 0.02239
C 14.72885 8.53003 -0.01594
C 20.85029 13.46061 0.01423
C 19.66133 11.29549 -0.009
C 22.06154 2.82682 0.00152
C 23.31266 2.15932 0.01257
C 23.30582 0.69181 0.02316
C 22.068 34.06785 0.04185
C 24.53232 32.66445 0.00194
C 25.73359 32.06635 -0.00621
C 26.023 30.61812 0.02611
C 24.58912 11.24816 0.02198
C 25.73475 10.67428 0.01094
C 25.90849 9.26627 0.00235
C 24.61617 8.62263 0.01495
C 24.64862 7.18695 0.01259
C 25.81402 6.4238 0.01799
C 25.7807 5.01045 0.01699
C 24.59605 4.27119 -0.00416
C 24.56547 2.86749 0.01177
C 25.8529 2.12919 0.04266
C 25.74611 0.73791 0.01324
C 24.51608 34.03109 0.0014
C 22.10156 4.23113 -0.00294
C 19.64484 12.72005 -0.00285
C 23.36547 4.96671 0.00826
C 22.21128 7.13613 -0.00942
C 20.89732 10.62991 -0.01199
C 20.892 9.26862 -0.00229
C 19.68776 8.44513 -0.00938
C 19.66843 7.02563 -0.0264
C 20.95269 6.35689 -0.01154
C 20.91995 4.93725 0.00684
C 19.58628 4.26237 -0.01052
C 19.61433 2.83218 -0.01679
C 20.8027 2.0824 0.00367
C 20.81648 0.64205 0.04306
C 19.58204 33.9897 0.00996
C 22.17435 32.67403 0.00195
C 23.3551 31.93215 -0.00802
C 22.01273 15.7929 -0.00218
C 22.02946 12.81456 -0.01654
C 22.10661 11.3506 -0.00037
C 23.34899 10.76255 -0.0032
C 23.40836 9.32092 0.00622
C 22.16835 8.56835 -0.02815
C 23.37132 6.41932 0.00487
C 2.44679 32.63423 0.01465
