406
Graphene
C 34.22257 0.00588 0.01295
C 13.39809 31.99427 -0.02689
C 13.423 30.60017 -0.01046
C 12.21324 29.87666 -0.00891
C 12.21272 28.39049 0.02819
C 13.40059 27.66661 0.00165
C 13.49753 26.24499 -0.02971
C 12.24216 25.51506 0.02894
C 12.25633 24.12115 -0.01789
C 13.52117 23.41351 0.00444
C 13.51436 22.03864 -0.00925
C 12.31054 21.33436 0.01877
C 12.26217 19.82923 0.01363
C 13.49575 19.13926 -0.02162
C 13.55263 17.72822 0.00415
C 12.30403 17.07027 -0.0014
C 12.29934 15.61502 0.02162
C 13.4835 14.91958 0.0076
C 13.49113 13.54692 0.01241
C 12.35299 12.81181 -0.01454
C 12.32254 11.34266 0.01945
C 13.52308 10.5666 0.01416
C 12.17059 32.71646 -0.01536
C 13.569 9.1486 0.03542
C 9.73835 0.10569 0.03101
C 11.08656 2.15491 -0.02245
C 9.86102 24.13979 0.00093
C 11.10869 23.44222 0.00057
C 11.11255 22.04387 -0.01634
C 9.84275 21.36854 -0.00334
C 9.88409 19.91422 0.02339
C 11.06477 19.09422 0.01641
C 11.0968 17.71172 -0.00719
C 9.82279 17.0322 0.01364
C 9.80567 15.71015 -0.01062
C 11.06843 14.95343 -0.00033
C 11.00291 13.52823 0.03589
C 9.80924 12.79244 -0.02759
C 9.85899 11.32193 0.0402
C 11.02883 10.62135 0.00572
C 11.03976 9.23269 0.03592
C 9.7892 8.49684 0.00406
C 9.85857 7.12481 0.00943
C 11.1423 6.40409 0.02841
C 11.11842 5.06245 -0.01111
C 9.77066 4.35145 -0.01275
C 9.82114 2.93172 0.00985
C 11.0128 0.80078 -0.00428
C 12.29657 8.48931 0.02299
C 12.32148 7.05221 0.00244
C 13.56223 6.38652 -0.01717
C 14.74362 11.36657 0.03505
C 15.97888 10.60759 -0.02815
C 15.93824 9.26169 -0.04147
C 14.80364 8.47966 -0.05302
C 14.78727 7.09533 0.00213
C 15.96692 6.38514 -0.00066
C 16.04197 4.91546 -0.00289
C 14.82061 4.22454 0.00028
C 14.81474 2.79395 -0.02213
C 16.0413 2.10848 0.03698
C 15.96767 0.7512 -0.00109
C 14.68654 0.00073 -0.00491
C 17.11594 32.68539 0.03338
C 18.30851 31.94175 -0.0258
C 18.30966 30.58028 -0.0331
C 17.10239 29.77677 -0.00316
C 17.15176 28.33801 0.02188
C 18.34826 27.60539 -0.01979
C 18.40968 26.17851 0.02691
C 17.11892 25.51105 -0.01581
C 17.18143 24.07168 0.01452
C 14.76914 12.77356 0.01443
C 16.02893 13.47728 0.00979
C 15.99006 14.91392 -0.00481
C 14.76592 15.62779 0.00889
C 13.60061 5.03356 0.05265
C 12.33511 4.29475 -0.01952
C 12.32214 2.84213 -0.02813
C 13.53538 2.10516 0.00374
C 13.49472 0.73245 0.00052
C 12.18288 0.07159 -0.03682
C 14.62775 32.65131 0.01965
C 15.85864 32.01732 0.02058
C 15.937 30.54541 -0.01957
C 14.6872 29.84243 -0.0108
C 9.85377 25.57966 0.01291
C 14.63675 28.34686 -0.00368
C 15.89294 26.24642 -0.00114
C 14.71423 25.52967 0.00228
C 14.72879 24.16995 0.00798
C 15.98372 23.37684 0.00422
C 15.97781 21.95369 0.0351
C 14.80493 21.28112 -0.03113
C 14.80702 19.85086 0.02098
C 16.02895 19.16371 0.01848
C 16.02695 17.65611 -0.00619
C 14.72579 17.03944 -0.02162
C 15.87553 27.6856 -0.02696
C 11.06227 26.33802 0.00438
C 11.0251 27.68492 -0.00191
C 9.77205 28.46878 0.00373
C 2.32434 2.88914 0.00907
C 3.60669 2.17458 0.00643
C 3.60818 0.75813 -0.01509
C 2.35151 0.06701 0.03267
C 4.81964 32.74949 0.02374
C 6.01408 32.05023 0.00402
C 6.07407 30.60288 0.0073
C 4.84852 29.85519 0.0174
C 4.79372 28.44036 0.03828
C 6.07917 27.77453 0.01226
C 6.10524 26.28109 -0.00279
C 4.85027 25.58988 0.01996
C 4.83353 24.1934 -0.03996
C 6.14104 23.45464 0.01465
C 6.1481 22.0922 -0.00074
C 4.86835 21.35231 -0.00518
C 4.92545 19.92471 0.0086
C 6.1547 19.2585 -0.00643
C 6.12699 17.79939 0.017
C 4.9314 17.08388 -0.03113
C 4.87461 15.58913 -0.02566
C 2.44393 4.22199 0.02379
C 3.60819 5.01066 0.01402
C 3.66754 6.40266 -0.003
C 2.43955 7.15622 0.00031
C 3.66534 30.64195 -0.01386
C 2.32117 29.85253 -0.02805
C 2.40401 28.47346 0.00081
C 3.62679 27.73398 0.00245
C 3.6256 26.25722 0.02728
C 2.40693 25.64704 -0.00039
C 2.41265 24.1505 0.0064
C 3.63972 23.45165 0.00211
C 3.68104 22.02314 -0.00449
C 2.44201 21.34488 -0.01979
C 6.12976 14.9746 -0.00094
C 2.42176 19.86636 0.02784
C 3.66532 17.74481 -0.00561
C 2.42116 17.0493 0.00208
C 2.39414 15.61873 0.01707
C 3.59611 14.86359 0.02769
C 3.65632 13.4956 -0.03291
C 2.4013 12.73279 -0.04999
C 2.3573 11.31095 0.04505
C 3.64144 10.68128 0.03284
C 3.70803 9.30862 -0.04307
C 2.43178 8.50758 0.03189
C 3.61591 19.18643 -0.01977
C 18.40789 23.45256 0.04892
C 6.15391 13.54502 0.02322
C 4.88079 11.39934 -0.05697
C 7.41535 17.1121 0.01572
C 7.38401 15.70058 -0.04848
C 8.66811 14.86785 -0.00892
C 8.58519 13.53342 -0.01362
C 7.37112 12.8459 -0.0008
C 7.41743 11.41933 0.0288
C 8.56537 10.62524 0.00393
C 8.53541 9.25102 0.00895
C 7.38641 8.55704 0.00685
C 7.41026 7.13811 0.02888
C 8.64172 6.48667 -0.00482
C 8.61575 5.09621 -0.01384
C 7.38847 4.35818 0.03693
C 7.28168 2.98773 0.01745
C 8.54774 2.2346 0.00488
C 8.55505 0.84879 -0.01004
C 7.33186 0.11314 -0.02896
C 9.78388 32.7663 -0.00131
C 10.89055 32.06002 -0.01118
C 10.97162 30.62978 -0.014
C 9.75483 29.89224 0.02147
C 8.65369 17.74496 -0.00095
C 8.6656 19.23391 0.03007
C 7.3972 19.95973 0.00054
C 7.38512 21.35509 -0.00494
C 6.08131 10.70087 0.01087
C 6.10152 9.31323 -0.01343
C 4.90397 8.55428 0.00988
C 4.90495 7.1233 0.0276
C 6.09226 6.46563 0.01305
C 6.12179 5.04311 -0.00077
C 4.92811 4.37269 0.03368
C 4.88636 2.89681 -0.02929
C 6.10197 2.26698 -0.00966
C 6.09453 0.85596 -0.03337
C 4.95246 12.8432 -0.00725
C 4.88905 0.14542 0.01227
C 8.47661 32.05654 -0.00049
C 8.53802 30.63879 0.00848
C 7.316 29.89373 -0.01303
C 7.35411 28.47781 -0.01378
C 8.5511 27.73592 0.02635
C 8.59219 26.29309 0.0127
C 7.32179 25.62006 0.01396
C 7.36533 24.2247 0.01849
C 8.58893 23.48815 -0.01142
C 8.64348 22.04465 -0.00562
C 7.30545 32.75415 0.00873
C 18.42803 22.01076 -0.00111
C 17.29737 21.21916 -0.03557
C 17.27622 19.78356 0.03754
C 30.72725 26.2271 -0.00971
C 29.54937 25.56528 0.01518
C 29.56937 24.14168 0.01908
C 30.74501 23.40492 0.07705
C 30.70664 22.01958 0.0103
C 29.45055 21.29116 0.02108
C 29.48903 19.90806 0.00716
C 30.67011 19.15284 0.00307
C 30.68661 17.72071 0.00346
C 29.45825 17.00859 0.01713
C 29.47199 15.58063 -0.01694
C 30.77219 14.91729 0.01428
C 30.72692 13.50763 -0.02142
C 29.60433 12.67979 0.0544
C 30.00026 0.00714 0.00026
C 31.98857 32.61521 0.00682
C 33.18033 31.96661 -0.01779
C 33.17044 30.51106 0.03794
C 31.8568 29.81851 0.01927
C 31.90624 28.39499 0.01574
C 33.16659 27.6626 -0.02383
C 30.68417 27.59355 -0.03735
C 29.48317 28.38795 -0.00944
C 29.39761 29.82425 -0.02155
C 30.67397 30.57391 -0.01461
C 28.17895 32.07444 0.01799
C 28.24403 30.63074 0.01699
C 27.03046 29.80826 -0.00416
C 27.06874 28.48679 0.01177
C 28.26598 27.67027 0.04266
C 28.30326 26.25455 0.01324
C 27.08297 25.54872 0.0014
C 27.05362 24.10433 0.00924
C 28.32397 23.43013 0.02326
C 28.3114 22.05567 0.00261
C 33.14073 26.23608 -0.01429
C 27.06243 21.38707 0.03265
C 28.2316 19.20983 -0.01854
C 28.28966 17.79159 -0.01415
C 27.08884 17.01763 -0.03039
C 27.05587 15.61439 0.01836
C 28.23691 14.80617 0.03531
C 28.28822 13.41343 -0.00669
C 27.04065 12.82933 0.0101
C 26.6047 0.01757 0.01705
C 29.5349 32.72111 -0.0405
C 30.67471 31.91209 -0.01303
C 27.04097 19.91778 -0.02049
C 26.93765 32.7058 0.01259
C 32.00311 25.47415 -0.0136
C 33.15825 23.41274 -0.02474
C 1.21318 21.99559 0.02712
C 34.38561 21.23515 -0.02213
C 34.36919 19.81882 0.01951
C 1.22207 19.12688 -0.01678
C 1.14107 17.78614 0.01223
C 34.32252 16.98269 0.00648
C 34.39365 15.54207 0.02114
C 1.1916 14.92303 -0.02957
C 1.21531 13.47583 0.00343
C 0.03478 12.71205 -0.02656
C 34.37397 11.3054 -0.02442
C 1.15789 10.57494 -0.00027
C 1.22462 9.21694 -0.00583
C 34.36864 8.4789 -0.02302
C 34.43005 6.91207 -0.02849
C 1.29382 6.4061 0.02931
C 1.21383 4.92002 0.00628
C 34.36119 4.36315 -0.0345
C 34.20499 2.98673 -0.00931
C 1.07454 2.21446 -0.00939
C 1.04076 0.73898 -0.00468
C 1.27014 23.37867 0.00723
C 0.02277 24.09653 0.03076
C 34.32816 25.49028 -0.05239
C 1.08839 26.25257 -0.00598
C 33.17801 21.9874 0.00369
C 31.97348 21.24254 0.00455
C 31.87636 19.83945 -0.00644
C 33.15031 19.08308 -0.01839
C 33.19561 17.6771 0.00137
C 31.885 17.01311 0.00199
C 31.99383 15.6698 0.04381
C 33.21795 14.89908 0.02806
C 33.28704 13.38667 0.01504
C 31.94894 12.83926 -0.00069
C 31.99414 24.08296 0.00594
C 31.84788 11.4104 0.04926
C 33.26153 9.23429 0.00349
C 33.21674 1.9807 -0.00323
C 32.9057 0.63502 -0.00841
C 31.65497 33.98439 0.0001
C 34.36746 32.68034 -0.02927
C 1.22922 31.98482 -0.01404
C 1.14638 30.56236 0.01027
C 34.35629 29.87143 0.01831
C 34.3541 28.3508 -0.01037
C 1.15798 27.60884 -0.00439
C 33.15436 10.61882 -0.03838
C 3.60891 32.05287 -0.0059
C 24.79886 33.94726 0.01495
C 24.6697 12.78485 0.01094
C 19.59616 25.57267 -0.01527
C 19.59718 24.14615 0.01087
C 20.86863 23.43236 0.00199
C 20.88421 22.00052 0.01511
C 19.67457 21.28193 -0.00478
C 19.68984 19.86845 -0.01662
C 20.88364 19.16097 -0.01185
C 20.92451 17.73395 0.01126
C 19.68252 17.02827 0.01852
C 19.73307 15.60958 -0.00381
C 20.9892 14.87208 0.03046
C 20.94614 13.41939 0.0296
C 19.73516 12.76542 0.03374
C 19.67167 11.32703 -0.02845
C 20.86525 10.4954 -0.03213
C 20.87958 9.05365 0.02239
C 19.52642 8.4955 0.01153
C 19.70285 7.15596 0.02734
C 21.11193 6.84455 -0.0055
C 21.08824 5.23224 0.01515
C 19.80392 4.36175 -0.00225
C 20.9086 26.23926 0.00096
C 20.82717 27.65493 0.01277
C 19.59958 28.3878 -0.02422
C 19.63544 29.78233 -0.01721
C 18.49659 19.13519 0.01739
C 18.45213 17.75274 0.00755
C 17.20825 17.03912 -0.0054
C 17.24461 15.56848 0.00667
C 18.53722 14.92352 0.00143
C 18.4306 13.51838 -0.017
C 17.22382 12.72759 0.00364
C 17.26145 11.36479 -0.00831
C 18.45871 10.75118 -0.02957
C 18.39397 9.23313 -0.04422
C 19.70328 2.88814 0.00071
C 17.18664 8.53552 0.00654
C 18.47478 6.3755 -0.04076
C 18.49387 4.9848 -0.00652
C 17.32221 4.3412 0.0058
C 17.21427 2.85243 -0.00865
C 18.50406 2.13283 0.00675
C 18.4588 0.71148 -0.00311
C 17.20295 0.0176 0.00742
C 19.6209 32.6458 -0.01594
C 20.76928 31.93861 0.0106
C 20.80566 30.54166 -0.01154
C 17.11893 7.09811 -0.00703
C 24.47081 11.27278 0.00235
C 21.03181 2.13381 -0.01107
C 19.66831 0.00281 -0.01971
C 23.44842 0.56448 0.00996
C 22.17609 34.00941 0.00195
C 24.59539 32.58287 -0.00802
C 25.8077 31.85002 -0.00218
C 25.81855 30.48205 -0.01654
C 24.58205 29.78126 -0.00037
C 24.53611 28.40437 -0.0032
C 25.81734 27.73107 0.00622
C 25.86158 26.35835 -0.02815
C 24.58205 25.49371 -0.00942
C 24.52591 24.1144 0.00487
C 25.81181 23.49909 0.00826
C 25.84625 22.05454 -0.00294
C 24.5902 21.32727 0.00152
C 24.60347 19.94028 0.01257
C 25.8462 19.26117 0.02316
C 25.84766 17.79999 0.04185
C 24.64762 16.99998 0.00194
C 24.62279 15.65116 -0.00621
C 25.78922 14.90839 0.02611
C 25.86442 13.48591 0.02198
C 23.28904 1.91684 0.04306
C 22.36734 2.96829 0.00367
C 22.22595 4.39883 -0.01679
C 21.92744 7.91637 -0.01052
C 22.03896 32.64301 -0.02118
C 23.32372 31.93952 0.00733
C 23.31009 30.52289 -0.00178
C 22.11953 29.82193 0.00768
C 22.08173 28.31584 -0.0276
C 23.33812 27.68978 0.03005
C 23.36273 26.22874 -0.04078
C 22.03791 25.49931 0.02117
C 22.09816 24.13401 0.02737
C 23.29902 23.46642 -0.00498
C 21.06113 0.78443 -0.01586
C 23.41702 22.01483 0.00135
C 22.08249 19.83966 0.02555
C 23.41979 19.15875 0.01423
C 23.33691 17.73267 -0.00285
C 22.19701 16.88904 -0.009
C 22.18832 15.50502 -0.01199
C 23.401 14.87684 -0.00229
C 23.40567 13.44959 -0.00938
C 22.14743 12.70824 -0.0264
C 22.14119 11.22203 -0.01154
C 23.48527 10.66296 0.00684
C 22.0921 21.3282 0.03102
C 2.37828 32.71403 0.00558
