316
Graphene
C 34.37189 34.04677 0.01295
C 19.75159 24.13986 -0.00491
C 20.94652 23.41063 0.03338
C 20.90889 22.05736 -0.0258
C 19.7721 21.36896 -0.0331
C 19.72246 19.92403 -0.00316
C 20.88878 19.1336 0.02188
C 20.82668 17.73307 -0.01979
C 19.6456 16.86001 0.02691
C 19.63358 15.52577 -0.01581
C 20.90641 14.85143 0.01452
C 20.98227 13.43489 0.04892
C 19.68127 12.75744 -0.00111
C 19.68317 11.34931 -0.03557
C 20.93714 10.7269 0.03754
C 20.97245 9.23975 0.01739
C 19.76764 25.46695 -0.00109
C 20.88123 26.15911 0.03698
C 20.91942 27.5323 -0.02213
C 19.75115 28.38655 0.00028
C 17.15903 11.29352 -0.03113
C 18.38524 10.61949 0.02098
C 18.43398 9.27074 0.01848
C 17.19826 8.65334 -0.00619
C 16.9668 7.31985 -0.02162
C 18.47071 6.48279 0.00889
C 18.50609 5.04347 -0.00481
C 19.75097 8.56384 0.00755
C 17.27076 4.32373 0.00979
C 18.42344 2.09257 0.03505
C 18.49357 0.72277 -0.02815
C 17.23963 33.9921 -0.04147
C 19.63082 32.69235 -0.05302
C 20.83865 32.03834 0.00213
C 20.82757 30.5825 -0.00066
C 19.50356 29.70237 -0.00289
C 17.22016 2.88096 0.01443
C 19.74358 7.12485 -0.0054
C 20.93609 6.29414 0.00667
C 20.93659 4.91309 0.00143
C 22.08233 17.07089 0.00096
C 22.07353 15.63794 -0.01527
C 23.3508 14.92092 0.01087
C 23.43028 13.5211 0.00199
C 22.2037 12.78648 0.01511
C 22.20477 11.3721 -0.00478
C 23.40007 10.7172 -0.01662
C 23.28783 17.83116 0.01277
C 23.4307 9.31436 -0.01185
C 22.2164 7.14404 0.01852
C 23.42192 6.42656 -0.00381
C 23.34942 4.9254 0.03046
C 22.14312 4.23324 0.0296
C 22.10822 2.80849 0.03374
C 23.35139 2.12869 -0.02845
C 23.30684 0.74703 -0.03213
C 22.12637 8.55027 0.01126
C 17.34894 12.61182 0.0351
C 23.31413 19.28432 -0.02422
C 22.16077 21.34394 -0.01154
C 19.65243 4.23704 -0.017
C 19.65427 2.77158 0.00364
C 20.8409 2.08216 -0.00831
C 20.93498 0.70578 -0.02957
C 19.71012 0.06442 -0.04422
C 22.07025 32.63407 0.00654
C 23.28497 32.00111 -0.00703
C 22.14859 19.93073 -0.01721
C 23.29122 30.5641 -0.04076
C 22.08987 28.39133 0.0058
C 23.34664 27.7227 -0.00865
C 23.35363 26.28893 0.00675
C 22.15788 25.52993 -0.00311
C 22.09639 24.14231 0.00742
C 23.28715 23.43875 -0.01594
C 23.37712 22.04331 0.0106
C 21.99142 29.86077 -0.00652
C 22.13455 34.05359 0.02239
C 18.40927 13.41099 0.00422
C 17.16095 15.63007 0.00228
C 4.91888 32.63802 -0.01062
C 6.21231 31.98075 -0.00033
C 6.21154 30.54481 0.03589
C 4.90414 29.81224 -0.02759
C 4.80848 28.48345 0.0402
C 6.05616 22.07817 0.00572
C 4.97616 21.2345 0.03592
C 4.93079 19.82294 0.00406
C 6.18598 19.32286 0.00943
C 4.57732 4.1759 0.02841
C 4.76538 2.83862 -0.01111
C 6.12114 2.10365 -0.01275
C 6.178 0.70418 0.00985
C 4.9233 0.00644 -0.02245
C 7.44777 32.6492 -0.00428
C 2.44168 34.02756 0.01364
C 3.62608 0.69868 -0.00719
C 3.56171 2.02102 0.01641
C 3.80015 5.17187 0.02339
C 3.64518 30.58516 0.01745
C 2.45108 29.89219 0.00488
C 2.46863 28.39569 -0.01004
C 3.75466 27.62695 -0.02896
C 3.58027 26.33703 -0.00131
C 2.46066 25.5954 -0.01118
C 2.5316 24.1664 -0.014
C 8.52601 31.79704 0.03101
C 3.68996 23.45446 0.02147
C 2.46204 21.3505 -0.00191
C 2.42161 19.98081 0.00438
C 3.71262 19.19453 0.01291
C 3.6638 17.88372 0.00093
C 2.61019 16.99997 0.00057
C 2.31701 15.67677 -0.01634
C 2.37815 6.95806 -0.00334
C 3.69108 22.13217 0.00373
C 7.48303 30.06607 -0.01536
C 7.43328 19.4603 -0.02689
C 8.62444 19.30656 -0.01046
C 15.82462 17.68524 0.02299
C 14.74268 17.02497 0.00244
C 15.88875 6.41865 -0.01717
C 15.96036 5.11276 0.05265
C 14.718 4.36164 -0.01952
C 14.79405 2.8615 -0.02813
C 15.99485 2.15432 0.00374
C 16.04568 19.07924 0.03542
C 16.06884 0.74648 0.00052
C 17.14958 32.62245 0.01965
C 18.40217 32.00875 0.02058
C 18.4902 30.65779 -0.01957
C 17.15217 19.70028 -0.0108
C 18.44024 19.25002 -0.00368
C 18.47462 17.8133 -0.02696
C 17.21108 16.9851 -0.00114
C 14.71065 0.0215 -0.03682
C 18.30816 14.82197 0.00798
C 15.89951 31.95761 0.01416
C 12.33927 33.97988 -0.01454
C 7.36742 2.68042 -0.00891
C 8.67224 2.29004 0.02819
C 8.61845 0.67429 0.00165
C 7.39845 34.0739 -0.02971
C 9.74546 32.38065 0.02894
C 11.01887 32.04321 -0.01789
C 9.94999 2.7695 0.00444
C 14.88095 32.82924 0.01945
C 11.117 2.01654 -0.00925
C 9.83078 34.03071 0.01363
C 12.2223 32.57883 -0.02162
C 13.41928 4.82361 0.00415
C 12.3317 4.17977 -0.0014
C 12.26202 2.83545 0.02162
C 13.51074 2.16458 0.0076
C 13.50158 0.69811 0.01241
C 11.0528 0.57477 0.01877
C 24.50242 32.62592 0.01153
C 25.80409 31.9683 0.02734
C 25.8066 30.53433 -0.0055
C 31.96184 25.53522 0.03794
C 31.97236 24.13132 0.01927
C 33.21282 23.46252 0.01574
C 33.16237 22.06599 -0.02383
C 31.95043 21.32714 -0.01429
C 32.00031 19.96536 -0.0136
C 33.29332 19.20838 0.00594
C 33.25759 17.82849 -0.02474
C 31.94649 17.16223 0.00369
C 31.9473 15.71017 0.00455
C 33.16089 15.02252 -0.00644
C 33.11489 13.58235 -0.01839
C 31.97305 12.7987 0.00137
C 31.96819 11.32363 0.00199
C 33.22842 10.61916 0.04381
C 33.20006 26.27791 -0.01779
C 33.19751 27.67783 0.00682
C 31.98761 28.41529 0.00026
C 31.95573 29.85803 0.0544
C 29.37556 12.80302 -0.02155
C 29.42497 11.35713 -0.00944
C 30.71403 10.67005 -0.03735
C 30.74785 9.24759 -0.00971
C 29.53216 8.54942 0.01518
C 29.55369 7.1569 0.01908
C 30.71284 6.42635 0.07705
C 33.30343 9.22275 0.02806
C 30.73431 5.00169 0.0103
C 29.44931 2.81879 0.00716
C 30.647 2.17864 0.00307
C 30.60976 0.74608 0.00346
C 29.42554 0.07133 0.01713
C 31.88267 32.62858 -0.01694
C 33.13564 31.99781 0.01428
C 33.20375 30.48649 -0.02142
C 29.45807 4.23187 0.02108
C 32.04791 8.49939 0.01504
C 32.01499 7.16593 -0.00069
C 33.21085 6.42805 0.04926
C 1.30628 17.80265 0.00648
C 0.04372 17.1238 0.02114
C 34.4223 15.6628 -0.02957
C 1.29965 14.81619 0.00343
C 1.11237 13.49014 -0.02656
C 34.3885 12.84326 -0.02442
C 0.01425 11.35268 -0.00027
C 1.27032 19.20884 0.01223
C 1.07403 10.65566 -0.00583
C 0.14582 8.50935 -0.02849
C 0.02789 7.08147 0.02931
C 1.19314 6.39588 0.00628
C 34.42662 4.38254 -0.0345
C 0.12733 2.92213 -0.00931
C 1.30299 2.14529 -0.00939
C 1.19006 0.73855 -0.00468
C 1.24766 9.29338 -0.02302
C 30.62165 13.47404 -0.01461
C 0.06397 19.93042 -0.01678
C 1.25273 22.03526 -0.02213
C 33.2223 4.94591 -0.03838
C 31.93501 4.25507 0.00349
C 31.99982 2.78695 -0.00323
C 33.19972 2.11583 -0.00841
C 33.15334 0.66381 0.0001
C 31.8327 34.0516 -0.02927
C 34.37012 32.65823 -0.01404
C 0.03095 21.30206 0.01951
C 1.14673 31.91352 0.01027
C 34.41554 29.79244 -0.01037
C 34.38678 28.36992 -0.00439
C 1.2219 27.64567 -0.00598
C 1.19677 26.28264 -0.05239
C 0.06184 25.57953 0.03076
C 0.08324 24.09517 0.00723
C 1.31058 23.44924 0.02712
C 1.21409 30.49372 0.01831
C 30.73212 14.89486 -0.01303
C 29.487 15.59086 -0.0405
C 29.453 17.06152 0.01705
C 24.61428 8.5455 -0.00285
C 24.62344 7.17892 -0.009
C 25.82467 6.45771 -0.01199
C 25.84452 5.00605 -0.00229
C 24.57158 4.26238 -0.00938
C 24.60894 2.85279 -0.0264
C 25.77676 2.0943 -0.01154
C 25.88764 9.14113 0.01423
C 25.73702 0.72437 0.00684
C 26.98547 32.68173 -0.01679
C 28.25221 32.01044 0.00367
C 28.21026 30.52938 0.04306
C 27.06151 29.8423 0.00996
C 27.05225 28.35878 0.00195
C 28.28062 27.6404 -0.00802
C 28.26834 26.20385 -0.00218
C 24.55074 0.01253 -0.01052
C 27.07492 25.54596 -0.01654
C 25.79008 10.59293 0.02555
C 24.64597 12.77681 0.00135
C 24.53472 29.93982 0.01515
C 24.55556 28.3966 -0.00225
C 25.75908 27.67104 0.00071
C 25.7968 26.31425 -0.01107
C 24.59357 25.55166 -0.01586
C 24.56584 24.12241 -0.01971
C 25.80177 23.35034 -0.02118
C 24.61733 11.37422 0.03102
C 25.87347 21.98364 0.00733
C 24.56752 19.91904 0.00768
C 25.80261 19.17176 -0.0276
C 25.7741 17.77802 0.03005
C 24.52973 17.16021 -0.04078
C 24.51337 15.6899 0.02117
C 25.73015 14.93952 0.02737
C 25.77963 13.43711 -0.00498
C 24.6437 21.31312 -0.00178
C 3.66544 32.01588 0.03693
C 26.96936 24.14333 -0.00037
C 28.34999 21.96759 0.00622
C 26.90105 34.05526 0.01177
C 29.4776 32.67362 0.04266
C 30.6724 31.92828 0.01324
C 30.706 30.50602 0.0014
C 29.48653 29.85148 0.00924
C 29.46567 28.40966 0.02326
C 30.72971 27.70968 0.00261
C 28.15177 0.71636 -0.00416
C 30.78046 26.28329 0.03265
C 29.49073 24.04268 -0.01854
C 30.76017 23.39961 -0.01415
C 30.69419 21.95413 -0.03039
C 29.48921 21.2583 0.01836
C 29.49679 19.81773 0.03531
C 30.76063 19.18059 -0.00669
C 30.7381 17.80475 0.0101
C 29.53305 25.56664 -0.02049
C 28.22881 23.37146 -0.0032
C 28.22966 2.07491 0.01699
C 27.01333 4.29906 0.01259
C 27.09226 21.32292 -0.02815
C 26.99135 19.88982 -0.00942
C 28.23122 19.1441 0.00487
C 28.20676 17.72816 0.00826
C 26.95469 17.02648 -0.00294
C 27.01575 15.57207 0.00152
C 28.21203 14.91019 0.01257
C 27.03588 2.87414 0.01799
C 28.20426 13.48414 0.02316
C 27.02335 11.28142 0.00194
C 28.21175 10.61704 -0.00621
C 28.26342 9.23854 0.02611
C 27.11661 8.45242 0.02198
C 27.13505 7.08549 0.01094
C 28.34866 6.37234 0.00235
C 28.27585 4.97038 0.01495
C 26.93436 12.73108 0.04185
C 2.44409 32.72085 -0.01384
