410
Graphene
C 0.02222 0.02912 0.01295
C 14.80628 32.663 0.03101
C 15.99133 32.03252 -0.01536
C 15.98988 30.57471 -0.02689
C 14.82682 29.80587 -0.01046
C 16.07858 27.7643 -0.00891
C 16.02302 19.12592 0.02819
C 15.9132 17.71826 0.00165
C 14.67404 17.02778 -0.02971
C 14.72681 15.52161 0.02894
C 15.98077 14.86285 -0.01789
C 16.05065 13.52969 0.00444
C 14.81879 12.7359 -0.00925
C 14.81516 11.31482 0.01877
C 16.04319 10.63959 0.01363
C 15.93712 9.29497 -0.02162
C 14.75427 8.47645 0.00415
C 14.74792 7.02018 -0.0014
C 15.94208 6.30914 0.02162
C 16.01138 4.89459 0.0076
C 14.69616 4.22929 0.01241
C 14.70066 2.88285 -0.01454
C 12.30372 34.03759 -0.00428
C 13.47506 0.76911 -0.02245
C 13.43907 2.21553 0.00985
C 12.30511 2.92641 -0.01275
C 9.86504 2.81786 -0.00191
C 11.09827 2.18624 0.00438
C 11.1058 0.73038 0.01291
C 9.8176 0.0418 0.00093
C 12.31191 32.65997 0.00057
C 13.57894 32.00502 -0.01634
C 13.5555 30.588 -0.00334
C 12.2916 29.90337 0.02339
C 13.53281 17.84362 0.01641
C 12.31999 17.05821 -0.00719
C 15.98858 2.10762 0.01945
C 12.31577 15.63861 0.01364
C 13.61442 13.47324 -0.00033
C 12.2911 12.73043 0.03589
C 12.28207 11.37256 -0.02759
C 13.54694 10.60098 0.0402
C 13.45457 9.21254 0.00572
C 12.29404 8.4974 0.03592
C 12.36562 7.1163 0.00406
C 13.54115 6.42201 0.00943
C 13.53462 4.99757 0.02841
C 12.27494 4.39762 -0.01111
C 13.47972 14.90015 -0.01062
C 9.80828 4.19294 0.00373
C 15.99301 0.65726 0.01416
C 17.2296 32.69271 0.02299
C 17.22175 2.82748 0.00979
C 18.40426 2.14379 0.01443
C 18.43907 0.76696 0.03505
C 17.2428 34.07424 -0.02815
C 19.73853 32.7412 -0.04147
C 20.89043 31.89976 -0.05302
C 20.9151 30.52582 0.00213
C 19.69959 29.79053 -0.00066
C 19.70184 28.33283 -0.00289
C 20.87308 27.68671 0.00028
C 20.84556 26.25039 -0.02213
C 19.70462 25.4861 0.03698
C 19.67806 24.09828 -0.00109
C 20.89035 23.44183 -0.00491
C 20.85288 22.00524 0.03338
C 19.60158 21.32179 -0.0258
C 19.58164 19.96531 -0.0331
C 20.87847 19.22306 -0.00316
C 20.90309 17.79224 0.02188
C 19.71146 17.0128 -0.01979
C 19.6947 15.5876 0.02691
C 17.26359 4.26156 -0.00481
C 18.45601 5.01078 0.00889
C 18.48944 6.40993 -0.02162
C 17.19697 7.10401 -0.00619
C 18.48452 31.92843 0.00244
C 18.41471 30.4745 -0.01717
C 17.20633 29.8421 0.05265
C 17.26445 28.4412 -0.01952
C 18.44456 27.67055 -0.02813
C 18.36208 26.23641 0.00374
C 17.15338 25.58943 0.00052
C 18.45326 23.42931 -0.03682
C 18.30681 22.04673 0.01965
C 17.23666 21.30697 0.02058
C 14.79539 0.00454 0.03542
C 17.13773 19.90535 -0.01957
C 18.43529 17.67252 -0.00368
C 17.17393 17.0168 -0.02696
C 17.2082 15.58132 -0.00114
C 18.41953 14.87769 0.00228
C 18.45671 13.49488 0.00798
C 17.29059 12.79321 0.00422
C 17.20912 11.4322 0.0351
C 18.48586 10.62612 -0.03113
C 18.40947 9.21782 0.02098
C 17.1666 8.53927 0.01848
C 18.43159 19.18395 -0.0108
C 11.0362 4.92892 0.02147
C 11.06121 6.40875 -0.014
C 9.7919 7.15647 -0.01118
C 2.40946 2.85119 0.00031
C 3.65486 2.16473 -0.003
C 3.6705 0.79548 0.01402
C 2.47826 34.04339 0.02379
C 4.89637 32.71805 0.00907
C 6.1441 31.99547 0.00643
C 6.13139 30.56725 -0.01509
C 4.83107 29.91409 0.03267
C 4.93096 28.44938 0.02374
C 6.18486 27.62279 0.00402
C 6.07456 26.25778 0.0073
C 4.93762 25.55692 0.0174
C 4.97544 24.03965 0.03828
C 6.19945 22.03065 0.01226
C 4.94809 21.30842 -0.00279
C 4.98505 19.86679 0.01996
C 6.24149 19.17517 -0.03996
C 6.08162 17.73686 0.01465
C 4.91251 17.12724 -0.00074
C 4.93385 15.63553 -0.00518
C 6.18623 14.87013 0.0086
C 2.44556 4.28066 0.03189
C 3.74407 4.91406 -0.04307
C 3.67553 6.31663 0.03284
C 2.48453 7.05725 0.04505
C 3.57101 30.52313 0.00828
C 2.41214 29.86847 -0.02375
C 2.38056 28.46768 0.00558
C 3.68493 27.72261 -0.0059
C 3.68 26.33351 -0.01386
C 2.48038 25.49021 -0.02805
C 2.48782 24.12798 0.00081
C 3.74967 23.49396 0.00245
C 3.62401 22.05493 0.02728
C 2.44006 21.30079 -0.00039
C 6.09208 13.42388 -0.00643
C 2.45081 19.86864 0.0064
C 3.69232 17.77789 -0.00449
C 2.46721 17.02825 -0.01979
C 2.45105 15.63444 0.02784
C 3.7146 14.98629 -0.01977
C 3.65315 13.53303 -0.00561
C 2.51205 12.76279 0.00208
C 2.54262 11.36574 0.01707
C 3.73242 10.65312 0.02769
C 3.64023 9.11736 -0.03291
C 2.43692 8.4796 -0.04999
C 3.65963 19.19077 0.00211
C 4.84105 12.71024 0.017
C 4.92699 11.36477 -0.03113
C 6.12898 10.65626 -0.02566
C 7.36956 7.11881 -0.00494
C 8.63402 6.32038 0.00054
C 8.59851 4.97428 0.03007
C 7.3612 4.31861 -0.00095
C 7.37942 2.86146 0.01572
C 8.59881 2.12991 -0.04848
C 8.60942 0.72756 -0.00892
C 7.41715 0.04973 -0.01362
C 9.82676 32.67053 -0.0008
C 11.02542 32.04549 0.0288
C 7.41701 8.49242 -0.00562
C 11.07343 30.5634 0.00393
C 11.09601 17.78177 0.00685
C 9.88812 17.18656 0.02888
C 9.80438 15.71519 -0.00482
C 11.0406 14.98187 -0.01384
C 11.05693 13.50359 0.03693
C 9.77486 12.81053 0.01745
C 9.81129 11.38659 0.00488
C 11.07664 10.65751 -0.01004
C 11.06501 9.21983 -0.02896
C 9.79657 8.57185 -0.00131
C 9.79212 29.93482 0.00895
C 20.9132 14.90006 -0.01581
C 8.52174 9.25052 -0.01142
C 7.31352 11.42462 0.01396
C 6.15644 9.18643 -0.00094
C 4.9513 8.48048 0.02322
C 4.83015 7.1279 -0.00725
C 6.10822 6.43133 -0.05697
C 6.1987 5.03623 0.01087
C 4.96235 4.23945 -0.01343
C 4.88857 2.85899 0.00988
C 6.08816 2.1325 0.0276
C 6.1447 0.74185 0.01305
C 4.88543 0.07837 -0.00077
C 8.48814 10.65819 0.01849
C 7.33886 32.68207 0.03368
C 8.58102 30.46234 -0.00966
C 7.35911 29.85802 -0.03337
C 7.29588 28.46572 0.01227
C 7.4031 19.9497 0.00873
C 8.5692 17.69295 -0.00049
C 7.38442 17.05622 0.00848
C 7.38354 15.64144 -0.01303
C 8.66105 14.93191 -0.01378
C 8.60864 13.57112 0.02635
C 7.3499 12.78291 0.0127
C 8.57809 31.97866 -0.02929
C 20.88301 13.48776 0.01452
C 19.63265 12.83698 0.04892
C 19.69505 11.3532 -0.00111
C 30.7711 9.12367 -0.03735
C 29.5721 8.49991 -0.00971
C 29.50339 7.11554 0.01518
C 30.74628 6.42609 0.01908
C 30.74534 4.98707 0.07705
C 29.50167 4.25937 0.0103
C 29.49511 2.81165 0.02108
C 30.71898 2.17418 0.00716
C 30.78782 0.75782 0.00307
C 29.53393 33.98897 0.00346
C 32.01252 32.63449 0.01713
C 33.18615 31.96248 -0.01694
C 33.17699 30.5647 0.01428
C 31.97516 29.78681 -0.02142
C 31.95842 28.40265 0.0544
C 33.26654 27.62349 0.00026
C 33.15683 26.22086 0.00682
C 31.91223 25.58272 -0.01779
C 31.95504 24.13696 0.03794
C 33.14835 23.46888 0.01927
C 33.17164 22.05153 0.01574
C 30.74656 10.57983 -0.00944
C 29.55906 11.35887 -0.02155
C 29.55431 12.81511 -0.01461
C 30.8159 13.49532 -0.01303
C 27.05741 2.7299 0.01259
C 28.30602 2.10885 0.01799
C 28.34146 0.65288 0.01699
C 27.0271 34.049 -0.00416
C 29.5434 32.58865 0.01177
C 30.73407 31.9586 0.04266
C 30.74951 30.52675 0.01324
C 29.5164 29.89607 0.0014
C 29.5116 28.42367 0.00924
C 30.76294 27.74647 0.02326
C 31.92118 21.32211 -0.02383
C 30.7604 26.28662 0.00261
C 29.52761 24.14119 -0.02049
C 30.7832 23.45976 -0.01854
C 30.80356 22.0228 -0.01415
C 29.50845 21.26266 -0.03039
C 29.48967 19.90899 0.01836
C 30.72724 19.18528 0.03531
C 30.7493 17.80207 -0.00669
C 29.46316 16.95473 0.0101
C 29.50331 15.58483 0.01705
C 30.7506 14.90334 -0.0405
C 29.58267 25.52195 0.03265
C 31.89416 19.86217 -0.01429
C 33.13402 19.19142 -0.0136
C 33.19254 17.721 0.00594
C 1.2008 23.42415 0.00723
C 1.20831 21.97603 0.02712
C 34.41611 21.37128 -0.02213
C 34.42446 19.94275 0.01951
C 1.19558 19.14591 -0.01678
C 1.23125 17.712 0.01223
C 34.35959 17.00821 0.00648
C 34.34765 15.59232 0.02114
C 1.21076 14.92736 -0.02957
C 1.28066 13.43666 0.00343
C 0.0004 24.13938 0.03076
C 34.40493 12.86347 -0.02656
C 1.24108 10.7095 -0.00027
C 1.20852 9.32403 -0.00583
C 34.41232 8.54509 -0.02302
C 34.39789 7.09612 -0.02849
C 1.23403 6.43614 0.02931
C 1.23518 4.97844 0.00628
C 0.01777 4.24904 -0.0345
C 34.40395 2.78846 -0.00931
C 1.19596 2.10397 -0.00939
C 1.22263 0.72673 -0.00468
C 34.39335 11.44464 -0.02442
C 27.03351 4.16975 0.01495
C 34.41156 25.51707 -0.05239
C 1.19167 27.68662 -0.00439
C 31.97364 17.05105 -0.02474
C 32.00731 15.63339 0.00369
C 33.12645 14.82545 0.00455
C 33.14465 13.45831 -0.00644
C 32.00505 12.73818 -0.01839
C 31.94559 11.30454 0.00137
C 33.1703 10.67142 0.00199
C 33.23352 9.19919 0.04381
C 31.99231 8.52465 0.02806
C 32.0303 7.10361 0.01504
C 1.19186 26.22231 -0.00598
C 33.2195 6.3246 -0.00069
C 31.95885 4.25382 -0.03838
C 31.93067 2.80843 0.00349
C 33.20043 2.11543 -0.00323
C 33.25772 0.6928 -0.00841
C 31.97939 0.02083 0.0001
C 34.35648 32.68258 -0.02927
C 1.11385 31.91535 -0.01404
C 1.16718 30.49857 0.01027
C 34.39014 29.83507 0.01831
C 0.02453 28.36796 -0.01037
C 33.24549 4.93257 0.04926
C 3.57417 31.97599 0.00088
C 28.19587 4.88281 0.00235
C 27.08997 7.07209 0.02198
C 22.12464 16.9926 0.01277
C 22.19745 15.56128 0.00096
C 23.40457 14.80955 -0.01527
C 23.39233 13.45597 0.01087
C 22.11788 12.76402 0.00199
C 22.14322 11.27961 0.01511
C 23.32711 10.62817 -0.00478
C 23.33698 9.23993 -0.01662
C 22.20292 8.44856 -0.01185
C 22.2256 7.05211 0.01126
C 23.40143 6.30805 0.01852
C 23.33087 4.93956 -0.00381
C 22.13589 4.27296 0.03046
C 22.16169 2.82898 0.0296
C 23.42104 2.14189 0.03374
C 23.32058 0.71439 -0.02845
C 22.13627 0.00268 -0.03213
C 24.64402 32.66107 0.02239
C 25.85243 31.95641 0.01153
C 25.87945 30.57782 0.02734
C 24.62254 29.84467 -0.0055
C 23.39804 17.64835 -0.02422
C 23.33897 19.14541 -0.01721
C 22.13886 19.91816 -0.01154
C 22.0941 21.37721 0.0106
C 20.89775 10.64069 -0.03557
C 20.9017 9.21157 0.03754
C 19.64113 8.55187 0.01739
C 19.71243 7.11084 0.00755
C 20.95617 6.43308 -0.0054
C 20.89919 5.03345 0.00667
C 19.66126 4.26596 0.00143
C 19.71917 2.89144 -0.017
C 20.96599 2.12393 0.00364
C 20.97187 0.72346 -0.00831
C 24.51608 28.36641 0.01515
C 19.72599 0.07441 -0.02957
C 23.35773 31.93903 0.00654
C 23.51449 30.62011 -0.00703
C 22.13013 29.86187 -0.04076
C 22.1332 28.39369 -0.00652
C 23.35722 27.65437 0.0058
C 23.25413 26.25624 -0.00865
C 22.02878 25.5552 0.00675
C 22.08563 24.12462 -0.00311
C 23.32471 23.40774 0.00742
C 23.35497 21.99961 -0.01594
C 22.04577 32.60382 -0.04422
C 25.78674 27.71785 -0.00225
C 25.76293 26.28048 0.00071
C 24.52115 25.53547 -0.01107
C 28.25562 30.53086 0.00367
C 27.018 29.81701 0.04306
C 27.04977 28.39172 0.00996
C 28.26556 27.68327 0.00195
C 28.32193 26.16876 -0.00802
C 27.06019 25.55677 -0.00218
C 27.04815 24.1425 -0.01654
C 28.28408 23.45096 -0.00037
C 28.38156 22.06557 -0.0032
C 27.09268 21.31912 0.00622
C 28.21107 31.90167 -0.01679
C 27.03332 19.8683 -0.02815
C 28.25799 17.76119 0.00487
C 26.99132 17.08784 0.00826
C 27.07383 15.61779 -0.00294
C 28.31814 14.94592 0.00152
C 28.30258 13.50526 0.01257
C 27.05511 12.78619 0.02316
C 27.01603 11.29496 0.04185
C 28.30507 10.69337 0.00194
C 28.30314 9.23886 -0.00621
C 27.02728 8.47768 0.02611
C 28.24985 19.14798 -0.00942
C 28.27674 6.34671 0.01094
C 27.06671 32.65314 -0.01052
C 25.81593 0.7168 -0.01154
C 24.57959 24.11486 -0.01586
C 25.83108 23.48009 -0.01971
C 25.8739 22.06058 -0.02118
C 24.59641 21.24929 0.00733
C 24.56988 19.85896 -0.00178
C 25.83697 19.20254 0.00768
C 25.805 17.80168 -0.0276
C 24.61327 16.98829 0.03005
C 24.60491 15.57537 -0.04078
C 25.90808 14.90628 0.02117
C 24.57578 0.07583 0.00684
C 25.84958 13.50305 0.02737
C 24.6054 11.36041 0.00135
C 25.807 10.59418 0.03102
C 25.8117 9.14355 0.02555
C 24.51899 8.44879 0.01423
C 24.62923 7.0698 -0.00285
C 25.8384 6.3489 -0.009
C 25.75214 4.97971 -0.01199
C 24.59662 4.24248 -0.00229
C 24.54402 2.8521 -0.00938
C 25.85548 2.12137 -0.0264
C 24.55527 12.70689 -0.00498
C 2.3784 32.64653 0.04421
