378
Graphene
C 34.39546 0.02386 0.01295
C 11.03607 6.38574 0.01416
C 10.99211 4.99289 0.03542
C 9.79896 4.28607 0.02299
C 9.76283 2.84452 0.00244
C 11.0338 2.19004 -0.01717
C 11.03735 0.76274 0.05265
C 9.7282 0.05628 -0.01952
C 12.26054 32.68817 -0.02813
C 13.46007 31.93044 0.00374
C 13.49464 30.56446 0.00052
C 12.31714 29.86265 -0.03682
C 12.2782 28.40805 0.01965
C 13.50594 27.71604 0.02058
C 13.5341 26.25924 -0.01957
C 12.27448 25.63032 -0.0108
C 12.26315 24.14094 -0.00368
C 13.53349 23.45458 -0.02696
C 13.4896 22.08237 -0.00114
C 12.3783 21.33082 0.00228
C 9.76961 7.16653 0.01945
C 9.80214 8.61924 -0.01454
C 11.05559 9.24946 0.01241
C 11.01089 10.67454 0.0076
C 11.04066 31.96333 -0.02245
C 11.07673 30.55353 -0.00428
C 9.83877 29.89588 0.03101
C 9.85267 28.46431 -0.01536
C 11.05009 27.7432 -0.02689
C 11.10461 26.33917 -0.01046
C 9.88135 25.63421 -0.00891
C 9.84062 24.18187 0.02819
C 11.05351 23.46233 0.00165
C 12.36159 19.92107 0.00798
C 11.0361 22.05998 -0.02971
C 9.84671 19.9432 -0.01789
C 11.15341 19.15289 0.00444
C 11.1175 17.68443 -0.00925
C 9.88903 17.00427 0.01877
C 9.90318 15.56733 0.01363
C 11.12007 14.95436 -0.02162
C 11.11613 13.4944 0.00415
C 9.85003 12.79786 -0.0014
C 9.86241 11.37717 0.02162
C 9.85612 21.35967 0.02894
C 9.86128 32.73761 0.00985
C 13.58911 19.18153 0.00422
C 12.34407 17.0371 -0.03113
C 14.76184 24.10769 0.02188
C 15.93865 23.31703 -0.01979
C 16.02337 21.9815 0.02691
C 14.77484 21.32234 -0.01581
C 14.79032 19.81321 0.01452
C 16.01152 19.13902 0.04892
C 16.06375 17.75595 -0.00111
C 14.8116 17.03155 -0.03557
C 14.78794 15.67995 0.03754
C 16.02777 14.86908 0.01739
C 16.01054 13.47553 0.00755
C 14.76489 12.78534 -0.0054
C 14.74908 11.30502 0.00667
C 15.97587 10.57795 0.00143
C 15.95529 9.15099 -0.017
C 14.7046 8.46224 0.00364
C 14.7129 7.03376 -0.00831
C 15.93409 6.34452 -0.02957
C 15.9139 4.87013 -0.04422
C 14.69812 25.52067 -0.00316
C 15.95352 26.17456 -0.0331
C 16.00297 27.58533 -0.0258
C 14.776 28.39382 0.03338
C 12.34708 15.58824 0.02098
C 13.51641 14.91821 0.01848
C 13.53538 13.51898 -0.00619
C 12.3078 12.7623 -0.02162
C 12.31409 11.30249 0.00889
C 13.4789 10.62151 -0.00481
C 13.49283 9.19413 0.00979
C 12.25286 8.55901 0.01443
C 12.21951 7.11715 0.03505
C 13.60109 17.75382 0.0351
C 13.42875 6.35911 -0.02815
C 12.23993 4.24089 -0.05302
C 12.25589 2.82304 0.00213
C 13.5505 2.11252 -0.00066
C 13.44408 0.70964 -0.00289
C 12.25605 0.04074 0.00028
C 14.76981 32.62107 -0.02213
C 15.9701 31.95681 0.03698
C 16.05241 30.50262 -0.00109
C 14.77431 29.82188 -0.00491
C 13.47772 4.94995 -0.04147
C 7.31951 0.1059 -0.01275
C 8.55328 0.80577 -0.01111
C 8.52801 2.20193 0.02841
C 3.62317 4.99634 -0.01343
C 2.36529 4.24791 0.00988
C 2.40274 2.87074 0.0276
C 3.63272 2.13633 0.01305
C 3.58271 0.7618 -0.00077
C 2.3606 34.04557 0.03368
C 4.87992 32.7326 -0.02929
C 6.0579 32.02453 -0.00966
C 6.14351 30.55631 -0.03337
C 4.91238 29.82988 0.01227
C 4.92767 28.44213 0.00873
C 6.15947 27.72663 -0.00049
C 6.12257 26.33856 0.00848
C 4.91759 25.59632 -0.01303
C 4.86801 24.14082 -0.01378
C 6.14694 23.47144 0.02635
C 6.18733 21.98785 0.0127
C 4.90627 21.25485 0.01396
C 4.9015 19.88127 0.01849
C 3.5881 6.43218 0.01087
C 2.43188 7.16866 -0.05697
C 2.45377 8.62358 -0.00725
C 3.64591 9.3071 0.02322
C 3.67946 30.5258 -0.01509
C 2.40856 29.89213 0.03267
C 2.45674 28.43834 0.02374
C 3.69057 27.76749 0.00402
C 3.65893 26.29643 0.0073
C 2.43268 25.65375 0.0174
C 2.36965 24.20902 0.03828
C 3.62254 23.40513 0.01226
C 3.65607 22.02738 -0.00279
C 6.18035 19.19194 -0.01142
C 2.41977 21.39675 0.01996
C 3.67521 19.18897 0.01465
C 3.63673 17.77082 -0.00074
C 2.40749 17.11261 -0.00518
C 2.46288 15.76586 0.0086
C 3.65343 14.99459 -0.00643
C 3.72071 13.58068 0.017
C 2.47485 12.82947 -0.03113
C 2.44521 11.41513 -0.02566
C 3.65307 10.74567 -0.00094
C 2.40582 19.91075 -0.03996
C 6.15997 17.78584 -0.00562
C 4.96007 17.13358 -0.00494
C 4.89493 15.73771 0.00054
C 8.63183 23.46844 -0.00191
C 8.63211 22.04375 0.00438
C 7.37381 21.2997 0.01291
C 7.41084 19.88462 0.00093
C 8.65141 19.17139 0.00057
C 8.65551 17.79585 -0.01634
C 7.4286 17.03988 -0.00334
C 7.41209 15.65859 0.02339
C 8.64429 14.9047 0.01641
C 7.40812 24.19097 0.00373
C 8.63204 13.43344 -0.00719
C 7.30309 11.39596 -0.01062
C 8.53516 10.7337 -0.00033
C 8.57468 9.22767 0.03589
C 7.34149 8.5745 -0.02759
C 7.31939 7.15963 0.0402
C 8.57216 6.46742 0.00572
C 8.52203 5.04401 0.03592
C 7.34928 4.28116 0.00406
C 7.34288 2.88322 0.00943
C 7.34599 12.75797 0.01364
C 14.65656 4.28592 0.00654
C 7.3918 25.67432 0.02147
C 8.64993 27.80442 -0.01118
C 6.1081 14.97564 0.03007
C 6.14393 13.49158 -0.00095
C 4.857 12.83719 0.01572
C 4.85027 11.40119 -0.04848
C 6.12972 10.67198 -0.00892
C 6.0965 9.28677 -0.01362
C 4.90398 8.65329 -0.0008
C 4.86174 7.13705 0.0288
C 6.10715 6.42406 0.00393
C 8.57805 26.40212 -0.014
C 6.12817 5.03288 0.00895
C 4.89721 2.8733 0.02888
C 6.0877 2.21258 -0.00482
C 6.09108 0.82561 -0.01384
C 4.86995 0.03239 0.03693
C 7.29382 32.73376 0.01745
C 8.48914 32.01984 0.00488
C 8.58567 30.57649 -0.01004
C 7.44212 29.93296 -0.02896
C 7.39336 28.46809 -0.00131
C 4.90961 4.29135 0.00685
C 14.71971 2.80512 -0.00703
C 15.9672 2.04494 -0.04076
C 15.97278 0.64973 -0.00652
C 29.4734 25.55715 0.02108
C 29.43766 24.13923 0.00716
C 30.68281 23.41775 0.00307
C 30.74171 22.07408 0.00346
C 29.51691 21.24965 0.01713
C 29.51259 19.91143 -0.01694
C 30.69251 19.1846 0.01428
C 30.78472 17.75263 -0.02142
C 29.55729 2.91469 0.0544
C 30.70509 2.10861 0.00026
C 30.7457 0.71821 0.00682
C 29.48873 34.07993 -0.01779
C 31.96884 32.68228 0.03794
C 33.17161 31.92824 0.01927
C 33.19625 30.55133 0.01574
C 32.01634 29.81443 -0.02383
C 31.91589 28.35443 -0.01429
C 33.16428 27.66488 -0.0136
C 33.17064 26.25378 0.00594
C 30.72268 26.25097 0.0103
C 30.71819 27.65462 0.07705
C 29.52541 28.37268 0.01908
C 29.51457 29.78217 0.01518
C 28.27894 31.94315 0.00924
C 28.35423 30.55878 0.02326
C 27.08596 29.82707 0.00261
C 27.05273 28.43211 0.03265
C 28.24409 27.64481 -0.02049
C 28.24135 26.26212 -0.01854
C 26.97298 25.55815 -0.01415
C 26.99751 24.19148 -0.03039
C 28.31182 23.36622 0.01836
C 31.93557 25.57795 -0.02474
C 28.29216 21.96763 0.03531
C 27.0407 19.74921 0.0101
C 28.29504 19.16209 0.01705
C 27.02275 2.66974 -0.0405
C 28.30567 2.21296 -0.01303
C 28.30079 0.75171 -0.01461
C 27.05535 0.12548 -0.02155
C 29.56279 32.64537 -0.00944
C 30.72824 31.92787 -0.03735
C 30.73741 30.54069 -0.00971
C 27.08886 21.22775 -0.00669
C 31.88369 24.23086 0.00369
C 33.11515 23.46127 0.00455
C 33.10082 22.07396 -0.00644
C 34.31685 21.34331 -0.02213
C 34.32481 19.92922 0.01951
C 1.12854 19.1925 -0.01678
C 1.17963 17.75947 0.01223
C 34.36762 16.97815 0.00648
C 34.42422 15.61573 0.02114
C 1.23206 15.04172 -0.02957
C 1.32199 13.67626 0.00343
C 0.06691 12.88169 -0.02656
C 1.16262 22.03827 0.02712
C 0.09464 11.63159 -0.02442
C 1.16044 9.299 -0.00583
C 0.06256 8.61778 -0.02302
C 34.33643 7.19942 -0.02849
C 1.16218 6.43905 0.02931
C 1.08255 5.01898 0.00628
C 34.30212 4.29971 -0.0345
C 34.3929 2.86529 -0.00931
C 1.22014 2.16952 -0.00939
C 1.16417 0.69347 -0.00468
C 1.20449 10.71069 -0.00027
C 27.05569 32.66087 0.0014
C 1.20831 23.47942 0.00723
C 34.43083 25.52848 -0.05239
C 31.89518 21.30432 -0.01839
C 31.8724 19.86394 0.00137
C 33.04738 19.13666 0.00199
C 33.15861 17.76261 0.04381
C 31.89086 17.11889 0.02806
C 33.42287 14.68034 0.01504
C 33.24345 6.39414 -0.00069
C 33.0774 4.98389 0.04926
C 31.83883 4.19204 -0.03838
C 34.3811 24.12344 0.03076
C 31.89465 2.80265 0.00349
C 33.16364 0.69884 -0.00841
C 31.96892 0.0144 0.0001
C 34.37146 32.66861 -0.02927
C 1.17501 31.99216 -0.01404
C 1.16717 30.56805 0.01027
C 34.42748 29.82658 0.01831
C 34.37038 28.41669 -0.01037
C 1.23576 27.79062 -0.00439
C 1.20636 26.2915 -0.00598
C 33.21833 2.12927 -0.00323
C 3.61807 31.95287 0.00643
C 24.61344 0.15452 0.01324
C 25.75216 2.31922 0.01177
C 17.1679 8.39361 0.03374
C 17.14662 7.03615 -0.02845
C 18.39717 6.34598 -0.03213
C 18.33804 4.97994 0.02239
C 17.17668 4.23864 0.01153
C 17.13811 2.75472 0.02734
C 18.39953 2.08486 -0.0055
C 18.43251 0.65114 0.01515
C 17.15799 33.98498 -0.00225
C 19.67558 32.57141 0.00071
C 20.91977 31.8553 -0.01107
C 20.94607 30.46557 -0.01586
C 19.70532 29.77992 -0.01971
C 19.64478 28.2982 -0.02118
C 20.86648 27.66939 0.00733
C 20.87904 26.15624 -0.00178
C 19.6024 25.50921 0.00768
C 19.66628 24.04425 -0.0276
C 20.91506 23.4235 0.03005
C 18.40515 9.17576 0.0296
C 18.27998 10.37091 0.03046
C 17.23705 11.31074 -0.00381
C 17.18339 12.66437 0.01852
C 14.69454 34.00467 0.0058
C 17.20016 32.58097 -0.00865
C 18.45509 31.857 0.00675
C 18.45635 30.4425 -0.00311
C 17.22829 29.75058 0.00742
C 17.16239 28.3433 -0.01594
C 18.38638 27.59322 0.0106
C 18.3806 26.2244 -0.01154
C 17.1785 25.50914 -0.01721
C 20.95539 21.93785 -0.04078
C 17.12736 24.07846 -0.02422
C 18.48273 21.90295 0.00096
C 17.24886 21.29497 -0.01527
C 17.2344 19.87473 0.01087
C 18.3914 19.12345 0.00199
C 18.4555 17.73812 0.01511
C 17.24773 16.96922 -0.00478
C 17.30344 15.54705 -0.01662
C 18.50161 14.71233 -0.01185
C 18.46691 13.3573 0.01126
C 18.40157 23.40113 0.01277
C 19.72924 21.30652 0.02117
C 19.6411 19.843 0.02737
C 20.85628 19.23975 -0.00498
C 21.96325 4.34597 -0.02815
C 22.06848 2.93543 -0.00942
C 23.31907 2.19432 0.00487
C 23.28965 0.74093 0.00826
C 22.06346 34.06626 -0.00294
C 24.63668 32.70338 0.00152
C 25.89939 31.97211 0.01257
C 25.83847 30.57085 0.02316
C 24.59838 29.77361 0.04185
C 23.33296 19.26702 0.00622
C 24.6365 28.38632 0.00194
C 25.79611 26.27494 0.02611
C 24.45998 25.4969 0.02198
C 24.56327 24.12882 0.01094
C 25.7721 23.40101 0.00235
C 25.85345 21.98699 0.01495
C 24.57798 21.2321 0.01259
C 24.5944 19.84726 0.01799
C 25.80609 19.11789 0.01699
C 24.4858 2.89982 -0.00416
C 25.7939 27.72569 -0.00621
C 25.82778 0.84625 0.04266
C 22.0812 19.92337 -0.0032
C 23.43011 21.96457 -0.01654
C 20.9705 17.71005 0.00135
C 19.71141 17.0071 0.03102
C 19.5405 15.58351 0.02555
C 19.64225 7.01828 0.01423
C 20.73431 5.05826 -0.00285
C 19.54873 4.26575 -0.009
C 19.64024 2.80628 -0.01199
C 20.86631 2.17403 -0.00229
C 20.93114 0.69323 -0.00938
C 22.19021 21.31376 -0.00037
C 19.66178 34.02681 -0.0264
C 23.38584 31.93741 0.00684
C 23.38229 30.53559 -0.01052
C 22.20157 29.7866 -0.01679
C 22.09855 28.39263 0.00367
C 23.33671 27.65774 0.04306
C 23.27633 26.23796 0.00996
C 22.08249 25.4942 0.00195
C 22.12292 24.11266 -0.00802
C 23.33425 23.44121 -0.00218
C 22.19356 32.6303 -0.01154
C 2.39998 32.68254 0.00907
