330
Graphene
C 0.01701 0.02091 0.01295
C 11.13034 22.00538 -0.04147
C 9.80318 21.36903 -0.05302
C 9.82865 19.89937 0.00213
C 11.07398 19.14655 -0.00066
C 11.1075 17.78817 -0.00289
C 9.89435 17.05361 0.00028
C 9.81836 15.58961 -0.02213
C 11.03803 23.41544 -0.02815
C 11.04093 14.83071 0.03698
C 9.82488 12.73548 -0.00491
C 9.85863 11.36979 0.03338
C 11.10285 10.62052 -0.0258
C 11.08591 9.202 -0.0331
C 9.84361 8.5229 -0.00316
C 9.81446 7.15985 0.02188
C 11.10103 6.36616 -0.01979
C 11.06091 13.39353 -0.00109
C 9.78223 24.10201 0.03505
C 9.88853 25.52249 0.01443
C 11.01919 26.25069 0.00979
C 8.59397 10.65148 0.02058
C 8.59784 9.19922 -0.01957
C 7.35681 8.56002 -0.0108
C 7.33264 7.1437 -0.00368
C 8.62961 6.39447 -0.02696
C 8.63119 4.97513 -0.00114
C 7.39156 4.29028 0.00228
C 7.38221 2.84382 0.00798
C 8.56912 2.16369 0.00422
C 8.62266 0.68229 0.0351
C 7.38836 34.07583 -0.03113
C 9.84518 32.70197 0.02098
C 11.0585 31.94156 0.01848
C 11.06069 30.58407 -0.00619
C 9.84493 29.7948 -0.02162
C 9.84029 28.40613 0.00889
C 11.07079 27.7225 -0.00481
C 11.13244 4.98932 0.02691
C 7.36886 11.32207 0.01965
C 9.843 4.28901 -0.01581
C 11.08247 2.08456 0.04892
C 12.25777 8.49695 0.00742
C 12.33868 7.0507 -0.01594
C 13.60064 6.37508 0.0106
C 13.52105 4.99509 -0.01154
C 12.30407 4.27521 -0.01721
C 12.2443 2.90302 -0.02422
C 13.51183 2.1335 0.01277
C 13.50449 9.18604 -0.00311
C 13.49874 0.66509 0.00096
C 14.78137 32.67169 0.01087
C 15.99088 31.9089 0.00199
C 14.70954 29.82594 0.01511
C 15.99748 17.75399 -0.00478
C 14.75484 17.02821 -0.01662
C 14.79304 15.65867 -0.01185
C 16.01205 14.85941 0.01126
C 12.29799 0.00631 -0.01527
C 13.55134 10.64465 0.00675
C 12.32241 11.3185 -0.00865
C 12.26863 12.77283 0.0058
C 11.07294 0.70207 -0.00111
C 9.84246 34.03112 -0.03557
C 12.33382 32.64128 0.03754
C 13.52779 31.96552 0.01739
C 13.48776 30.51741 0.00755
C 12.28352 29.81212 -0.0054
C 12.23119 28.44548 0.00667
C 12.29354 25.54241 0.00143
C 12.27927 24.17287 -0.017
C 12.32971 21.31357 0.00364
C 12.33457 19.89148 -0.00831
C 13.53829 19.19588 -0.02957
C 13.52672 17.79556 -0.04422
C 12.32946 17.07699 0.00654
C 12.28315 15.59819 -0.00703
C 13.55055 14.87316 -0.04076
C 13.53832 13.47915 -0.00652
C 9.83062 2.8395 0.01452
C 7.42768 12.81105 -0.03682
C 8.57499 13.4822 0.00052
C 8.59166 14.9061 0.00374
C 2.4201 8.53373 0.02147
C 2.45556 7.09981 0.00373
C 3.65604 6.4149 -0.00191
C 3.71873 4.98717 0.00438
C 2.47373 4.25825 0.01291
C 2.46232 2.83416 0.00093
C 3.69022 2.08584 0.00057
C 3.64829 9.21234 -0.014
C 3.7043 0.70997 -0.01634
C 4.89393 32.65763 0.02339
C 6.17898 31.95512 0.01641
C 6.2156 30.5547 -0.00719
C 4.89452 29.88051 0.01364
C 4.95201 28.41106 -0.01062
C 6.12124 27.70082 -0.00033
C 6.12097 26.27463 0.03589
C 2.48909 0.04508 -0.00334
C 3.71309 10.58235 -0.01118
C 2.44917 11.39904 -0.00131
C 2.42455 12.83 -0.02896
C 3.66549 30.51381 -0.00095
C 2.42985 29.83354 0.01572
C 2.42813 28.43218 -0.04848
C 3.71639 27.64991 -0.00892
C 3.67426 26.29507 -0.01362
C 2.45953 25.60028 -0.0008
C 2.47371 24.15308 0.0288
C 3.65558 23.50099 0.00393
C 3.70851 22.04275 0.00895
C 2.45094 21.29927 0.00685
C 2.44543 19.85908 0.02888
C 3.65818 19.19171 -0.00482
C 3.70121 17.69195 -0.01384
C 2.50498 17.0479 0.03693
C 2.4341 15.59276 0.01745
C 3.72696 14.90422 0.00488
C 3.66324 13.49384 -0.01004
C 4.86889 25.53775 -0.02759
C 4.9032 24.21602 0.0402
C 6.13837 23.43391 0.00572
C 6.15431 22.01601 0.03592
C 7.38208 32.67355 0.01363
C 8.65013 31.92366 -0.02162
C 8.56575 30.50884 0.00415
C 7.42332 29.81059 -0.0014
C 7.3237 28.37116 0.02162
C 8.59381 27.72571 0.0076
C 8.57631 26.29746 0.01241
C 7.37096 25.54968 -0.01454
C 7.39232 24.1757 0.01945
C 8.59175 23.39951 0.01416
C 8.62881 22.02453 0.03542
C 7.43396 21.32978 0.02299
C 7.38761 19.89996 0.00244
C 8.6055 19.16543 -0.01717
C 8.59688 17.69218 0.05265
C 7.35281 17.0006 -0.01952
C 7.39415 15.60958 -0.02813
C 4.92397 34.05774 0.01877
C 15.97248 13.48521 0.01852
C 6.14658 0.75345 -0.00925
C 4.88197 2.85989 -0.01789
C 4.94932 21.30246 0.00406
C 4.94964 19.86722 0.00943
C 6.15869 19.21873 0.02841
C 6.11314 17.66855 -0.01111
C 4.90875 17.05815 -0.01275
C 4.89121 15.63918 0.00985
C 6.10364 14.8785 -0.02245
C 6.13543 13.49891 -0.00428
C 4.90241 12.80087 0.03101
C 4.89202 11.36288 -0.01536
C 6.16461 10.60995 -0.02689
C 6.15706 9.27429 -0.01046
C 4.94637 8.53447 -0.00891
C 4.95704 7.11305 0.02819
C 6.14521 6.39519 0.00165
C 6.15994 4.98914 -0.02971
C 4.9449 4.28213 0.02894
C 6.13386 2.13059 0.00444
C 14.73719 12.79047 -0.00381
C 14.79264 11.33602 0.03046
C 16.00837 10.68226 0.0296
C 29.51276 0.0341 0.00026
C 31.98833 32.69265 0.00682
C 33.16668 31.99907 -0.01779
C 33.19173 30.57018 0.03794
C 32.00282 29.81649 0.01927
C 31.93971 28.38116 0.01574
C 33.23888 27.72595 -0.02383
C 30.77537 0.70066 0.0544
C 33.2203 26.26467 -0.01429
C 31.93614 24.18247 0.00594
C 33.18184 23.47519 -0.02474
C 33.23309 21.99509 0.00369
C 31.94426 21.27743 0.00455
C 31.96227 19.89415 -0.00644
C 33.18782 19.1504 -0.01839
C 33.20967 17.71083 0.00137
C 31.9401 25.60767 -0.0136
C 30.75422 2.13905 -0.02142
C 30.81436 13.52058 0.01428
C 30.75567 14.87209 -0.01694
C 29.51178 32.66237 0.01705
C 30.737 31.95319 -0.0405
C 30.75876 30.53103 -0.01303
C 29.48935 29.85578 -0.01461
C 29.47038 28.40285 -0.02155
C 30.71771 27.67622 -0.00944
C 30.72197 26.25827 -0.03735
C 29.51314 25.59265 -0.00971
C 29.47877 24.12896 0.01518
C 30.75847 23.47646 0.01908
C 30.75011 21.99521 0.07705
C 29.4898 21.28776 0.0103
C 29.51844 19.91389 0.02108
C 30.77397 19.15235 0.00716
C 30.76103 17.77151 0.00307
C 29.50246 17.01168 0.00346
C 29.47859 15.61114 0.01713
C 31.94626 17.03184 0.00199
C 31.91098 15.66581 0.04381
C 33.24104 14.8989 0.02806
C 33.19377 13.46864 0.01504
C 1.26579 17.71797 0.01223
C 34.43045 17.02965 0.00648
C 34.41934 15.62759 0.02114
C 1.23518 14.90989 -0.02957
C 1.2133 13.49533 0.00343
C 34.42949 12.7494 -0.02656
C 34.39278 11.3865 -0.02442
C 1.25871 10.71475 -0.00027
C 1.22988 9.17245 -0.00583
C 0.0166 8.48021 -0.02302
C 0.00909 7.12763 -0.02849
C 1.20392 6.39413 0.02931
C 1.2258 4.91736 0.00628
C 34.39295 4.24168 -0.0345
C 0.04591 2.79147 -0.00931
C 1.22737 2.10904 -0.00939
C 1.23202 0.72593 -0.00468
C 1.21935 19.16169 -0.01678
C 27.01392 0.03556 0.0101
C 34.41753 19.89018 0.01951
C 1.22121 21.98646 0.02712
C 31.97766 12.7903 -0.00069
C 33.20345 10.68159 0.04926
C 33.25789 4.95523 -0.03838
C 31.96343 2.8062 0.00349
C 33.20458 2.12559 -0.00323
C 33.22953 0.67035 -0.00841
C 31.95682 34.07636 0.0001
C 0.00436 32.64214 -0.02927
C 1.23 31.97497 -0.01404
C 1.21915 30.53476 0.01027
C 0.00379 29.86724 0.01831
C 34.42967 28.42517 -0.01037
C 1.25809 27.70268 -0.00439
C 1.21065 26.29171 -0.00598
C 0.00165 25.58755 -0.05239
C 34.4194 24.14485 0.03076
C 1.2601 23.47948 0.00723
C 0.01833 21.29249 -0.02213
C 3.66836 31.90077 0.03007
C 28.29707 0.70567 -0.00669
C 27.06339 15.59877 0.01836
C 17.25595 7.16076 0.02737
C 18.44825 6.35887 -0.00498
C 18.42749 4.97094 0.00135
C 17.21322 4.24566 0.03102
C 17.24417 2.81745 0.02555
C 18.40014 2.10957 0.01423
C 18.42199 0.70285 -0.00285
C 17.1914 8.5006 0.02117
C 17.18923 0.00498 -0.009
C 19.64028 15.60785 -0.00229
C 20.9291 14.97331 -0.00938
C 20.90568 13.53335 -0.0264
C 19.70208 12.7944 -0.01154
C 19.6747 11.3491 0.00684
C 20.85249 10.58892 -0.01052
C 19.66474 8.50199 -0.01679
C 19.70109 17.02508 -0.01199
C 18.45135 9.18148 -0.04078
C 18.4391 10.65324 0.03005
C 17.18983 11.41166 -0.0276
C 15.97891 9.23608 0.03374
C 14.74816 8.55071 -0.02845
C 14.73951 7.10138 -0.03213
C 15.97439 6.4341 0.02239
C 16.00963 4.9976 0.01153
C 14.7346 4.24108 0.02734
C 14.75687 2.83235 -0.0055
C 15.96549 2.11692 0.01515
C 15.95973 0.70937 -0.00225
C 14.72426 0.03689 0.00071
C 17.2042 32.69147 -0.01107
C 18.4595 31.90464 -0.01586
C 17.19436 17.04338 -0.01971
C 17.16273 15.61024 -0.02118
C 18.41947 14.93097 0.00733
C 18.47346 13.46374 -0.00178
C 17.1398 12.73959 0.00768
C 19.63787 7.14046 0.00367
C 19.70948 4.2792 0.04306
C 19.65249 2.81204 0.00996
C 20.88626 2.15824 0.00195
C 25.82674 0.66179 0.01495
C 24.61498 0.01234 0.01259
C 27.08584 32.65885 0.01799
C 28.26153 31.92808 0.01699
C 28.29815 30.4807 -0.00416
C 27.00047 29.79062 0.01177
C 27.06386 28.37125 0.04266
C 28.27973 27.69369 0.01324
C 28.31403 26.23555 0.0014
C 27.05349 25.56982 0.00924
C 28.25673 23.41184 0.02326
C 28.19858 21.99151 0.00261
C 27.05497 21.22079 0.03265
C 27.02017 19.84339 -0.02049
C 28.32681 19.17051 -0.01854
C 28.30291 17.76662 -0.01415
C 27.02212 17.07039 -0.03039
C 25.78722 14.87326 0.00235
C 28.28754 14.89714 0.03531
C 24.61783 15.59248 0.01094
C 25.86407 17.7375 0.02611
C 20.94578 0.67646 -0.00802
C 19.70398 0.02008 -0.00218
C 23.34667 31.97256 -0.01654
C 23.36391 17.66632 -0.00037
C 22.15081 17.04 -0.0032
C 22.11176 15.64451 0.00622
C 23.40724 14.84366 -0.02815
C 23.4037 13.4406 -0.00942
C 22.12136 12.75028 0.00487
C 22.13673 2.80709 0.00826
C 23.33209 2.164 -0.00294
C 23.36438 0.68092 0.00152
C 22.18861 0.02617 0.01257
C 24.55091 32.62975 0.02316
C 25.83358 31.94432 0.04185
C 25.86711 30.53049 0.00194
C 25.86687 19.18203 -0.00621
C 24.61811 17.07014 0.02198
C 2.47647 32.68681 0.00054
