249
Graphene
C 34.42454 0.02914 0.01295
C 15.00884 24.23717 0.02734
C 14.7981 25.43963 0.01153
C 16.055 26.18047 0.02239
C 16.03121 27.74777 -0.03213
C 14.71669 28.39032 -0.02845
C 14.65079 29.82381 0.03374
C 15.93691 30.56882 0.0296
C 15.92872 31.92809 0.03046
C 14.67896 32.6749 -0.00381
C 12.35251 0.10819 0.01852
C 13.5502 0.67839 0.01126
C 13.57086 2.14062 -0.01185
C 12.35181 2.80325 -0.01662
C 12.29971 4.24367 -0.00478
C 13.6003 4.92234 0.01511
C 13.63431 6.439 0.00199
C 12.38166 6.92664 0.01087
C 12.22732 25.53068 -0.01527
C 13.40256 26.18868 0.00096
C 13.50672 27.62802 0.01277
C 12.26331 28.30294 -0.02422
C 12.30021 29.80752 -0.01721
C 13.47664 30.52888 -0.01154
C 13.42581 31.94169 0.0106
C 12.1707 32.73564 -0.01594
C 9.82545 0.04786 0.00742
C 11.10909 0.72016 -0.00311
C 16.05926 23.39824 -0.0055
C 11.13564 2.11354 0.00675
C 16.03466 10.49763 0.01515
C 14.77273 8.43651 0.00071
C 18.4137 0.77864 -0.01679
C 18.40157 2.26462 -0.01052
C 17.16099 2.82937 0.00684
C 17.22028 4.31581 -0.01154
C 18.45032 5.00173 -0.0264
C 18.55957 6.35922 -0.00938
C 17.26195 7.08526 -0.00229
C 17.19931 8.55024 -0.01199
C 18.40323 9.2352 -0.009
C 18.4051 10.84248 -0.00285
C 17.21868 11.25995 0.01423
C 17.32791 25.75849 0.02555
C 18.46133 26.33283 0.03102
C 18.52453 27.68173 0.00135
C 17.24039 28.46065 -0.00498
C 17.19935 29.82925 0.02737
C 18.47897 30.55115 0.02117
C 18.44703 32.0284 -0.04078
C 17.16556 32.65544 0.03005
C 14.78861 33.96854 -0.0276
C 16.02981 0.73767 0.00768
C 15.9682 2.17359 -0.00178
C 14.76133 2.87797 0.00733
C 14.80202 4.33301 -0.02118
C 16.00925 4.93569 -0.01971
C 16.09394 6.4418 -0.01586
C 14.82934 7.1267 -0.01107
C 15.87184 9.21372 -0.00225
C 9.84441 2.86416 -0.00865
C 9.84284 4.25586 0.0058
C 11.05201 4.90405 -0.00652
C 4.91169 7.06218 -0.00066
C 4.77102 8.37372 0.00213
C 4.79012 25.65363 -0.05302
C 6.07352 26.14785 -0.04147
C 6.04396 27.73591 -0.02815
C 4.8816 28.43781 0.03505
C 4.89102 29.84349 0.01443
C 6.22312 30.507 0.00979
C 6.21841 31.93838 -0.00481
C 4.97225 32.58624 0.00889
C 2.47631 0.03059 -0.02162
C 3.70401 0.71897 -0.00619
C 3.71707 2.14808 0.01848
C 2.5214 2.82854 0.02098
C 2.46348 4.2714 -0.03113
C 3.67555 4.95853 0.0351
C 3.69962 6.34277 0.00422
C 2.42404 7.155 0.00798
C 2.46195 8.62491 0.00228
C 3.72134 9.09284 -0.00114
C 2.35293 24.21091 -0.02696
C 2.38175 25.59952 -0.00368
C 3.60645 26.30259 -0.0108
C 3.62679 27.70703 -0.01957
C 2.36375 28.39626 0.02058
C 2.42085 29.78934 0.01965
C 3.62959 30.52064 -0.03682
C 6.16046 6.32853 -0.00289
C 6.09042 4.89731 0.00028
C 4.89561 4.25363 -0.02213
C 4.9251 2.88997 0.03698
C 11.01628 6.51796 -0.04076
C 9.8395 7.13092 -0.00703
C 11.08239 26.324 0.00654
C 10.95186 27.6447 -0.04422
C 9.75185 28.41406 -0.02957
C 9.8613 29.80058 -0.00831
C 11.0901 30.54145 0.00364
C 11.03614 31.95929 -0.017
C 9.84217 32.70252 0.00143
C 7.35591 0.00027 0.00667
C 8.57957 0.72736 -0.0054
C 8.64946 2.09532 0.00755
C 7.39432 2.87902 0.01739
C 17.25493 34.0592 0.00367
C 7.36889 4.22484 0.03754
C 8.51714 6.56305 -0.00111
C 7.24069 7.17395 0.04892
C 7.32795 25.74357 0.01452
C 8.58275 26.32417 -0.01581
C 8.57506 27.66546 0.02691
C 7.2999 28.34941 -0.01979
C 7.40661 29.85635 0.02188
C 8.63215 30.52667 -0.00316
C 8.66505 31.96856 -0.0331
C 7.36363 32.66884 -0.0258
C 4.88054 34.05439 0.03338
C 6.14318 0.76359 -0.00491
C 6.18042 2.11828 -0.00109
C 8.59177 5.03331 -0.03557
C 3.68664 31.92061 0.00052
C 19.64792 32.69253 0.04306
C 20.95233 30.61993 0.00195
C 31.98239 4.23764 0.0001
C 33.16096 4.9453 -0.00841
C 33.12546 6.40477 -0.00323
C 31.87881 7.08864 0.00349
C 31.99721 8.55855 -0.03838
C 33.27046 9.28917 0.04926
C 33.26293 10.68153 -0.00069
C 31.96099 11.29189 0.01504
C 31.87229 12.74477 0.02806
C 33.15706 13.64919 0.04381
C 33.18326 15.04895 0.00199
C 31.91857 15.60483 0.00137
C 33.17853 17.66255 -0.01839
C 33.30971 18.92495 -0.00644
C 32.13345 21.1991 0.00455
C 33.17896 22.09822 0.00369
C 33.09934 23.43776 -0.02474
C 32.1426 24.28497 0.00594
C 31.98456 25.65886 -0.0136
C 33.06158 26.38367 -0.01429
C 33.2705 27.70414 -0.02383
C 33.30227 30.47118 0.01574
C 32.96157 31.8834 0.01927
C 31.94938 32.73786 0.03794
C 29.4533 0.01603 -0.01779
C 30.6955 0.66087 0.00682
C 30.70656 2.05215 0.00026
C 31.96481 2.76088 -0.02927
C 29.52634 2.73938 0.0544
C 33.21422 2.18921 -0.01404
C 31.97567 34.0486 0.01831
C 1.25509 0.74057 -0.00468
C 1.23774 2.13555 -0.00939
C 0.0433 2.85713 -0.00931
C 0.05218 4.28362 -0.0345
C 1.25618 4.99271 0.00628
C 1.21234 6.46328 0.02931
C 34.35712 7.07374 -0.02849
C 34.40864 8.56832 -0.02302
C 1.22721 9.32928 -0.00583
C 1.17287 10.71507 -0.00027
C 0.18719 11.60663 -0.02442
C 34.35991 12.94047 -0.02656
C 34.30265 15.75753 0.00343
C 34.28536 17.02639 -0.02957
C 34.01036 20.02844 0.02114
C 0.08739 21.26997 0.00648
C 1.25746 21.97655 0.01223
C 1.29899 23.35236 -0.01678
C 34.37461 24.17544 0.01951
C 34.43088 25.59273 -0.02213
C 1.1762 26.29859 0.02712
C 1.21444 27.70452 0.00723
C 0.01488 28.40028 0.03076
C 0.05301 29.85786 -0.05239
C 1.21329 30.58516 -0.00598
C 1.1917 32.0092 -0.00439
C 34.32875 32.67385 -0.01037
C 33.19001 0.69385 0.01027
C 29.55736 4.2445 -0.02142
C 30.75176 4.94453 0.01428
C 30.7073 6.40144 -0.01694
C 22.18074 4.15448 0.01177
C 23.33259 4.97496 -0.00416
C 23.31942 6.44817 0.01699
C 22.0833 7.08859 0.01799
C 22.14428 8.56162 0.01259
C 23.31721 9.19016 0.01495
C 23.20239 27.68095 0.00235
C 22.05306 28.35174 0.01094
C 22.20427 29.88995 0.02198
C 23.32326 30.5347 0.02611
C 23.47188 31.85745 -0.00621
C 22.14145 32.72775 0.00194
C 19.61972 0.04321 0.04185
C 20.91693 0.75806 0.02316
C 20.84634 2.1277 0.01257
C 19.63374 2.91056 0.00152
C 19.73325 4.24505 -0.00294
C 20.93349 4.87572 0.00826
C 20.91207 6.33021 0.00487
C 19.72437 7.13235 -0.00942
C 19.70829 8.57576 -0.02815
C 20.96309 9.28894 0.00622
C 20.85095 10.6035 -0.0032
C 19.65966 11.20742 -0.00037
C 20.87607 27.70183 -0.01654
C 19.74452 28.43469 -0.00218
C 19.71213 29.89025 -0.00802
C 22.14385 2.79215 0.04266
C 23.41048 2.12178 0.01324
C 23.38821 0.6708 0.0014
C 22.16639 0.03446 0.00924
C 29.44028 7.08104 0.01713
C 29.44029 8.47119 0.00346
C 30.59789 9.24594 0.00307
C 30.67379 10.64714 0.00716
C 29.49308 11.34681 0.02108
C 30.75737 13.36294 0.0103
C 26.91384 0.13823 0.07705
C 28.17835 0.53072 0.01908
C 28.27581 2.12555 0.01518
C 27.1069 2.88601 -0.00971
C 27.10418 4.24632 -0.03735
C 28.30264 4.88625 -0.00944
C 28.29502 6.32551 -0.02155
C 20.94845 32.00306 0.00996
C 27.08328 7.05035 -0.01461
C 28.23812 9.28322 -0.0405
C 28.4016 10.60212 0.01705
C 24.60186 34.03361 0.0101
C 25.7474 0.81616 -0.00669
C 25.85438 2.22599 0.03531
C 24.63605 2.94658 0.01836
C 24.52128 4.31353 -0.03039
C 25.87562 4.99379 -0.01415
C 25.8152 6.46277 -0.01854
C 24.52189 7.20393 -0.02049
C 24.59911 8.74153 0.03265
C 25.89655 9.17145 0.00261
C 24.57104 32.73299 0.02326
C 27.07214 8.46909 -0.01303
C 2.46701 32.71078 0.00374
