314
Graphene
C 0.01367 0.01941 0.01295
C 11.12597 0.68111 -0.0258
C 9.80023 0.01889 -0.0331
C 13.49687 31.9983 -0.00316
C 13.55222 30.52278 0.02188
C 13.58115 22.02537 -0.01979
C 12.33115 21.3563 0.02691
C 12.26926 19.84899 -0.01581
C 13.52702 19.18384 0.01452
C 12.29716 2.7279 0.04892
C 13.53345 2.13192 -0.00111
C 13.55027 0.71152 -0.03557
C 12.34831 34.0628 0.03754
C 14.78707 32.63689 0.01739
C 16.00185 31.92117 0.00755
C 15.97898 30.57206 -0.0054
C 11.0572 2.10317 0.03338
C 9.82927 2.76684 -0.00491
C 9.76872 4.19467 -0.00109
C 11.10337 19.14041 0.03698
C 7.34308 7.05833 0.01848
C 8.61466 4.99508 -0.00619
C 7.37872 4.25516 -0.02162
C 7.35104 2.8866 0.00889
C 8.52989 2.17819 -0.00481
C 8.60609 0.73009 0.00979
C 7.40962 0.02777 0.01443
C 14.74685 29.85347 0.00667
C 9.83251 32.64252 0.03505
C 9.84928 29.84838 -0.04147
C 9.83962 28.42424 -0.05302
C 9.8557 24.13288 0.00213
C 11.0474 23.48455 -0.00066
C 11.05596 22.026 -0.00289
C 9.86759 21.34535 0.00028
C 9.87036 19.8296 -0.02213
C 11.07101 30.51914 -0.02815
C 7.38897 15.63173 0.02098
C 16.07173 23.37895 0.00143
C 14.7591 21.29438 0.00364
C 20.90959 30.52743 0.01087
C 19.69787 29.77544 0.00199
C 19.61987 28.37958 0.01511
C 20.92152 27.68076 -0.00478
C 20.94521 26.27135 -0.01662
C 19.66611 25.57021 -0.01185
C 19.72247 24.11871 0.01126
C 20.86836 23.47146 0.01852
C 20.88435 4.962 -0.00381
C 19.6858 4.20836 0.03046
C 19.68711 2.81475 0.0296
C 20.90504 2.1476 0.03374
C 20.90264 0.67962 -0.02845
C 19.64742 34.07324 -0.03213
C 22.13035 32.72584 0.02239
C 20.90781 31.94294 -0.01527
C 19.68598 32.68043 0.00096
C 17.21995 34.03544 0.01277
C 18.429 0.70982 -0.02422
C 14.75392 19.87042 -0.00831
C 16.03352 2.11963 -0.02957
C 15.94351 0.72956 -0.04422
C 14.7479 0.01121 0.00654
C 17.21509 32.59737 -0.00703
C 18.47633 31.91992 -0.04076
C 18.47257 30.56497 -0.00652
C 15.95045 22.02356 -0.017
C 17.20082 29.81565 0.0058
C 18.41353 27.72557 0.00675
C 18.42229 26.29329 -0.00311
C 17.22224 25.56203 0.00742
C 17.26184 24.07476 -0.01594
C 18.47369 23.41426 0.0106
C 17.20041 2.86346 -0.01154
C 18.43413 2.15752 -0.01721
C 17.24333 28.40728 -0.00865
C 7.37211 17.0173 -0.03113
C 8.62054 17.70281 0.0351
C 8.55948 19.17241 0.00422
C 3.67232 9.2276 0.03589
C 2.48616 8.52525 -0.02759
C 2.4415 7.10765 0.0402
C 3.65547 6.39617 0.00572
C 3.63555 5.00535 0.03592
C 2.44541 4.26105 0.00406
C 2.41464 2.83146 0.00943
C 3.68018 2.16271 0.02841
C 3.70842 0.69191 -0.01111
C 2.44812 0.02733 -0.01275
C 4.91438 32.62095 0.00985
C 6.12003 31.94869 -0.02245
C 6.13895 30.53089 -0.00428
C 4.88356 29.80938 0.03101
C 4.92089 28.37165 -0.01536
C 3.71641 10.66421 -0.00033
C 2.45411 11.43997 -0.01062
C 2.47131 12.77769 0.01364
C 3.70008 13.50831 -0.00719
C 3.64216 30.54787 -0.01004
C 2.45151 29.88115 -0.02896
C 2.47403 28.38233 -0.00131
C 3.69116 27.67939 -0.01118
C 3.6532 26.28379 -0.014
C 2.43152 25.56134 0.02147
C 2.46101 24.154 0.00373
C 6.14146 27.72562 -0.02689
C 3.70827 23.42162 -0.00191
C 2.44659 21.33601 0.01291
C 2.49083 19.89744 0.00093
C 3.70171 19.17562 0.00057
C 3.65072 17.81354 -0.01634
C 2.49168 17.07065 -0.00334
C 2.46317 15.62224 0.02339
C 3.68492 14.92389 0.01641
C 3.69397 22.02984 0.00438
C 6.1971 26.25983 -0.01046
C 4.9934 25.5708 -0.00891
C 4.92226 24.12782 0.02819
C 6.20791 2.11313 -0.01717
C 6.17082 0.68835 0.05265
C 4.86458 34.04091 -0.01952
C 7.34878 32.71429 -0.02813
C 8.6165 31.94361 0.00374
C 8.60896 30.50864 0.00052
C 7.38847 29.85048 -0.03682
C 4.9677 2.82401 0.00244
C 7.36242 28.37936 0.01965
C 8.62364 26.253 -0.01957
C 7.32741 25.53562 -0.0108
C 7.37484 24.18939 -0.00368
C 8.58593 23.43555 -0.02696
C 8.60196 22.00969 -0.00114
C 7.39937 21.34526 0.00228
C 7.36925 19.82156 0.00798
C 8.65125 27.66544 0.02058
C 23.40912 31.97638 0.01153
C 4.9556 4.2825 0.02299
C 6.13313 6.42174 0.01416
C 6.12944 23.40857 0.00165
C 6.14319 22.0132 -0.02971
C 4.94399 21.29798 0.02894
C 4.91637 19.87569 -0.01789
C 6.13985 19.18409 0.00444
C 6.14189 17.79406 -0.00925
C 4.89231 17.04518 0.01877
C 6.17381 4.96481 0.03542
C 4.97199 15.61984 0.01363
C 6.12892 13.52831 0.00415
C 4.90927 12.71866 -0.0014
C 4.92249 11.35373 0.02162
C 6.11747 10.61459 0.0076
C 6.10287 9.20498 0.01241
C 4.93103 8.4913 -0.01454
C 4.894 7.12378 0.01945
C 6.14909 14.90347 -0.02162
C 23.35099 30.46648 0.02734
C 22.11144 29.82929 -0.0055
C 22.12093 28.42523 0.01515
C 32.00181 24.16503 0.03794
C 33.21362 23.4091 0.01927
C 33.22371 21.99572 0.01574
C 32.02476 21.3309 -0.02383
C 31.97188 19.88909 -0.01429
C 33.1808 19.20336 -0.0136
C 33.21392 17.75073 0.00594
C 31.98681 17.08101 -0.02474
C 31.99534 15.61556 0.00369
C 33.24207 14.91817 0.00455
C 33.19924 13.52643 -0.00644
C 31.94378 12.80869 -0.01839
C 31.97339 11.34623 0.00137
C 33.13978 10.64131 0.00199
C 33.18861 9.26363 0.04381
C 31.97739 25.54036 -0.01779
C 33.20105 26.25955 0.00682
C 33.19179 27.73059 0.00026
C 31.97636 28.42451 0.0544
C 29.53398 11.37449 -0.02155
C 30.71581 10.62515 -0.00944
C 30.71412 9.28655 -0.03735
C 29.49977 8.49902 -0.00971
C 29.53831 7.08569 0.01518
C 30.71902 6.44202 0.01908
C 30.73006 4.99257 0.07705
C 32.01463 8.55106 0.02806
C 29.50719 4.21661 0.0103
C 30.74109 2.12722 0.00716
C 30.7159 0.68929 0.00307
C 29.52285 34.05669 0.00346
C 31.93516 32.67772 0.01713
C 33.14958 31.94691 -0.01694
C 33.17675 30.52858 0.01428
C 31.96349 29.76888 -0.02142
C 29.52896 2.88388 0.02108
C 31.921 7.11962 0.01504
C 33.20378 6.42346 -0.00069
C 33.20517 4.95022 0.04926
C 34.42971 17.01185 0.00648
C 34.41906 15.62781 0.02114
C 1.25337 14.90817 -0.02957
C 1.24619 13.5341 0.00343
C 34.42489 12.74348 -0.02656
C 34.40433 11.37268 -0.02442
C 1.20985 10.68233 -0.00027
C 1.18497 17.7773 0.01223
C 1.26339 9.22335 -0.00583
C 0.00229 7.07275 -0.02849
C 1.25129 6.34789 0.02931
C 1.21187 4.96752 0.00628
C 34.4298 4.24564 -0.0345
C 0.0191 2.83063 -0.00931
C 1.2419 2.13442 -0.00939
C 1.24778 0.69915 -0.00468
C 34.41019 8.54295 -0.02302
C 29.54035 12.82489 -0.01461
C 1.24824 19.13596 -0.01678
C 0.01526 21.27205 -0.02213
C 31.98665 4.27631 -0.03838
C 31.97419 2.89149 0.00349
C 33.20159 2.08586 -0.00323
C 33.16741 0.69816 -0.00841
C 32.0075 34.05027 0.0001
C 34.39766 32.62667 -0.02927
C 1.20526 31.98081 -0.01404
C 34.41013 19.8679 0.01951
C 1.2039 30.54859 0.01027
C 34.43023 28.42542 -0.01037
C 1.24168 27.62684 -0.00439
C 1.26234 26.26206 -0.00598
C 34.43075 25.61056 -0.05239
C 0.03052 24.1401 0.03076
C 1.2248 23.40048 0.00723
C 1.2155 22.03047 0.02712
C 0.01618 29.79953 0.01831
C 3.64701 31.95421 0.00488
C 30.75135 13.47932 -0.01303
C 29.52375 15.61487 0.01705
C 24.58115 25.57012 -0.009
C 24.62132 24.16475 -0.01199
C 25.79083 23.44857 -0.00229
C 25.8878 22.07632 -0.00938
C 25.78003 9.25103 -0.0264
C 24.63311 7.12355 -0.01154
C 25.80551 6.38343 0.00684
C 25.85034 4.96657 -0.01052
C 24.64706 4.24271 -0.01679
C 24.56669 2.82169 0.00367
C 25.84108 2.16672 0.04306
C 25.8177 0.72475 0.00996
C 24.61583 0.04483 0.00195
C 27.03605 32.62328 -0.00802
C 28.2631 31.95666 -0.00218
C 25.8274 26.25337 -0.00285
C 25.87108 27.69762 0.01423
C 24.53802 28.35058 0.02555
C 24.56142 29.8156 0.03102
C 23.33887 27.6689 -0.00225
C 23.32271 26.29734 0.00071
C 22.12568 25.51069 -0.01107
C 22.14192 24.16076 -0.01586
C 23.37384 23.48405 -0.01971
C 22.11788 7.08407 -0.02118
C 23.34539 6.39667 0.00733
C 28.24915 30.51663 -0.01654
C 23.32803 4.94439 -0.00178
C 22.13573 2.87745 -0.0276
C 23.38392 2.11025 0.03005
C 23.34228 0.68824 -0.04078
C 22.09329 0.04223 0.02117
C 24.61923 32.69058 0.02737
C 25.84895 32.01939 -0.00498
C 25.80838 30.56183 0.00135
C 22.08588 4.25981 0.00768
C 27.05393 29.83525 -0.00037
C 27.08825 28.41517 -0.0032
C 28.28695 27.68584 0.00622
C 29.47078 32.63544 0.01177
C 30.75016 31.92421 0.04266
C 30.72862 30.53823 0.01324
C 29.50323 29.86031 0.0014
C 29.5207 28.34635 0.00924
C 30.76622 27.64662 0.02326
C 30.68375 26.25197 0.00261
C 27.05513 0.00647 -0.00416
C 29.5343 25.53577 0.03265
C 30.70701 23.40367 -0.01854
C 30.72158 22.03063 -0.01415
C 29.55553 21.31885 -0.03039
C 29.51479 19.82864 0.01836
C 30.71572 19.17177 0.03531
C 30.77876 17.70573 -0.00669
C 29.50392 17.02725 0.0101
C 29.53495 24.10037 -0.02049
C 30.76139 14.91224 -0.0405
C 28.29041 0.66271 0.01699
C 27.05171 2.83746 0.01259
C 28.26445 26.2373 -0.02815
C 27.06364 25.54833 -0.00942
C 27.07396 24.11017 0.00487
C 28.26108 23.44745 0.00826
C 28.22484 22.02581 -0.00294
C 27.00152 21.26757 0.00152
C 27.07613 19.84748 0.01257
C 28.2645 2.12826 0.01799
C 28.28704 19.13349 0.02316
C 28.31739 10.63992 0.00194
C 28.21978 9.25815 -0.00621
C 27.01504 8.49588 0.02611
C 27.06447 7.08861 0.02198
C 28.3055 6.36773 0.01094
C 28.31641 4.93824 0.00235
C 27.0703 4.22347 0.01495
C 28.32347 17.7305 0.04185
C 2.43747 32.65248 0.01745
