428
Graphene
C 34.42549 34.03772 0.01295
C 12.29112 24.11929 0.03589
C 13.50881 23.51255 -0.02759
C 13.52783 21.98664 0.0402
C 12.28039 21.25728 0.00572
C 12.28876 19.86858 0.03592
C 13.52808 19.19406 0.00406
C 13.52154 17.74242 0.00943
C 12.30585 17.04117 0.02841
C 12.24272 15.63546 -0.01111
C 13.41649 14.88968 -0.01275
C 12.23123 25.63351 -0.00033
C 13.51257 13.48707 0.00985
C 12.35351 11.31315 -0.00428
C 13.56628 10.59976 0.03101
C 13.53245 9.25821 -0.01536
C 12.31381 8.5162 -0.02689
C 12.30854 7.04447 -0.01046
C 13.53842 6.40276 -0.00891
C 13.53826 4.90751 0.02819
C 12.24726 4.17761 0.00165
C 12.26417 2.80156 -0.02971
C 13.6206 2.0858 0.02894
C 12.26501 12.78813 -0.02245
C 13.42114 26.30503 -0.01062
C 13.4914 27.79112 0.01364
C 12.23932 28.54686 -0.00719
C 11.06859 19.11643 0.00685
C 11.12679 17.73212 0.02888
C 9.79326 17.0693 -0.00482
C 9.80275 15.65754 -0.01384
C 11.07743 14.9161 0.03693
C 11.08645 13.54271 0.01745
C 9.80409 12.76564 0.00488
C 9.8381 11.43373 -0.01004
C 11.08995 10.65354 -0.02896
C 11.08419 9.25261 -0.00131
C 9.8387 8.61586 -0.01118
C 9.79135 7.067 -0.014
C 10.99752 6.37255 0.02147
C 11.00289 4.98292 0.00373
C 9.76387 4.27601 -0.00191
C 9.71237 2.88816 0.00438
C 11.02079 2.18648 0.01291
C 11.00815 0.79798 0.00093
C 9.72763 0.06164 0.00057
C 12.30287 32.71001 -0.01634
C 13.42487 31.98913 -0.00334
C 13.40204 30.55465 0.02339
C 12.1715 29.89303 0.01641
C 13.58353 0.66302 -0.01789
C 12.2854 0.09447 0.00444
C 14.69515 32.54884 -0.00925
C 14.68041 29.98026 0.01877
C 14.86702 34.03695 0.00228
C 17.21941 28.43964 0.00798
C 18.38829 27.68937 0.00422
C 18.35951 26.13215 0.0351
C 17.13185 25.57372 -0.03113
C 17.10998 24.14915 0.02098
C 18.39691 23.36766 0.01848
C 18.36986 21.95878 -0.00619
C 17.16016 21.27745 -0.02162
C 17.19499 19.80979 0.00889
C 18.44159 19.11392 -0.00481
C 18.42372 17.74766 0.00979
C 17.12092 16.98027 0.01443
C 17.16278 15.58731 0.03505
C 18.36859 14.88877 -0.02815
C 18.40299 13.52732 -0.04147
C 17.22307 12.80312 -0.05302
C 17.24166 11.36066 0.00213
C 18.45778 10.75458 -0.00066
C 18.38292 9.34406 -0.00289
C 17.19212 8.56027 0.00028
C 17.2489 7.14135 -0.02213
C 18.39738 6.46008 0.03698
C 16.1807 0.62586 -0.00114
C 9.85509 19.91428 0.00895
C 16.08425 2.11035 -0.02696
C 14.77069 4.28114 -0.0108
C 14.73671 28.53324 0.01363
C 15.96433 27.7886 -0.02162
C 15.97257 26.4053 0.00415
C 14.82849 25.59105 -0.0014
C 14.75464 24.17196 0.02162
C 15.93312 23.41657 0.0076
C 15.98793 21.97746 0.01241
C 14.7369 21.27126 -0.01454
C 14.72518 19.8348 0.01945
C 15.90364 19.13025 0.01416
C 15.94333 17.7274 0.03542
C 14.67889 16.93436 0.02299
C 14.72123 15.57737 0.00244
C 15.96725 14.8881 -0.01717
C 15.97026 13.53648 0.05265
C 14.75994 12.75435 -0.01952
C 14.75763 11.3419 -0.02813
C 15.97819 10.6203 0.00374
C 16.02132 9.23077 0.00052
C 14.80473 8.45637 -0.03682
C 14.82858 7.12396 0.01965
C 15.97728 6.38832 0.02058
C 15.95821 4.96774 -0.01957
C 14.83805 2.81357 -0.00368
C 18.47934 5.1161 -0.00109
C 9.81625 21.36177 0.00393
C 11.032 23.4575 -0.0008
C 3.64652 2.12941 -0.00039
C 3.65766 0.73303 0.0064
C 2.46796 0.00385 0.00211
C 4.92078 32.70168 -0.00449
C 6.12149 32.02004 -0.01979
C 6.12983 30.61315 0.02784
C 4.92211 29.94085 -0.01977
C 4.92975 28.43207 -0.00561
C 6.10397 27.70967 0.00208
C 6.12663 26.28627 0.01707
C 2.42661 2.79112 0.02728
C 4.92295 25.5919 0.02769
C 6.13823 23.38757 -0.04999
C 6.17426 22.06484 0.04505
C 4.93104 21.39101 0.03284
C 4.86768 19.91975 -0.04307
C 6.11424 19.20315 0.03189
C 6.13547 17.78776 0.00031
C 4.80351 17.04686 -0.003
C 4.88683 15.62688 0.01402
C 6.03892 14.89089 0.02379
C 6.08066 13.50665 0.00907
C 4.88595 24.20699 -0.03291
C 2.38875 4.24419 0.00245
C 3.62826 4.99546 0.00081
C 3.61932 6.36899 -0.02805
C 3.72549 30.49147 0.00787
C 2.53106 29.7201 0.02426
C 2.42435 28.3037 0.01218
C 3.69303 27.74253 -0.01471
C 3.67812 26.3273 -0.02827
C 2.4707 25.59783 0.01078
C 2.40699 24.17945 -0.00112
C 3.61067 23.46767 0.03345
C 3.65155 22.05488 0.00748
C 2.45945 21.31664 0.00662
C 2.43746 19.8901 -0.0154
C 3.68058 19.20124 -0.01299
C 3.6085 17.83161 -0.00407
C 2.4094 17.12914 0.01138
C 2.36123 15.57836 0.03278
C 3.62232 14.90761 -0.00177
C 3.55503 13.49678 0.04421
C 2.34404 12.73611 0.00088
C 2.39446 11.3585 0.00828
C 3.58307 10.6041 -0.02375
C 3.61849 9.22875 0.00558
C 2.44717 8.48428 -0.0059
C 2.36054 7.15662 -0.01386
C 4.82221 12.77365 0.00643
C 4.85602 11.32975 -0.01509
C 6.15366 10.78226 0.03267
C 6.11385 9.35639 0.02374
C 8.62975 13.51824 -0.02929
C 7.38107 12.8208 -0.00966
C 7.40462 11.45685 -0.03337
C 8.69756 10.71487 0.01227
C 8.59058 9.34087 0.00873
C 7.29243 8.62623 -0.00049
C 7.42333 7.18401 0.00848
C 8.48492 6.41748 -0.01303
C 8.50525 5.00986 -0.01378
C 7.31507 4.36245 0.02635
C 7.38351 2.90664 0.0127
C 8.60924 2.21936 0.01396
C 8.52626 0.75312 0.01849
C 7.33773 0.01841 -0.01142
C 9.78767 32.74046 -0.00562
C 11.03662 32.04767 -0.00494
C 10.97674 30.64267 0.00054
C 9.77697 29.9003 0.03007
C 9.77931 28.53954 -0.00095
C 11.02608 27.76225 0.01572
C 10.96568 26.34853 -0.04848
C 9.76993 25.55125 -0.00892
C 9.80712 24.14426 -0.01362
C 8.597 14.95413 0.03368
C 11.06063 21.99604 0.0288
C 7.35927 15.68916 -0.00077
C 8.57566 17.8139 0.0276
C 4.89967 8.56503 0.00402
C 4.89489 7.17565 0.0073
C 6.08913 6.51096 0.0174
C 6.10229 5.0932 0.03828
C 4.88522 4.30999 0.01226
C 4.9261 2.87931 -0.00279
C 6.14982 2.17027 0.01996
C 6.17001 0.7525 -0.03996
C 4.88893 0.00173 0.01465
C 7.35197 32.72563 -0.00074
C 8.57295 32.05112 -0.00518
C 8.61492 30.57661 0.0086
C 7.35768 29.90879 -0.00643
C 7.28694 28.38274 0.017
C 8.60495 27.74354 -0.03113
C 8.6472 26.28474 -0.02566
C 7.32986 25.6246 -0.00094
C 7.40713 24.17384 0.02322
C 8.57603 23.47645 -0.00725
C 8.60133 22.09876 -0.05697
C 7.39847 21.30551 0.01087
C 7.39089 19.87637 -0.01343
C 8.6705 19.20438 0.00988
C 7.35667 17.08475 0.01305
C 17.24673 4.31932 -0.00491
C 17.22761 2.93471 0.03338
C 18.46997 2.27385 -0.0258
C 30.66324 13.45843 -0.01461
C 29.50538 12.73603 -0.02155
C 29.45927 11.38481 -0.00944
C 30.71066 10.61592 -0.03735
C 30.69759 9.12074 -0.00971
C 29.4286 8.45643 0.01518
C 29.43227 6.96215 0.01908
C 30.67878 6.28433 0.07705
C 30.70617 4.89619 0.0103
C 29.48311 4.14506 0.02108
C 30.65456 14.93345 -0.01303
C 29.45219 2.75577 0.00716
C 30.77346 0.54668 0.00346
C 29.55477 34.02195 0.01713
C 32.01036 32.58299 -0.01694
C 33.26128 31.84124 0.01428
C 33.22747 30.40333 -0.02142
C 32.06084 29.74559 0.0544
C 31.93214 28.28663 0.00026
C 33.0839 27.5154 0.00682
C 33.11002 25.97432 -0.01779
C 31.96021 24.25634 0.03794
C 30.68539 2.00651 0.00307
C 29.46863 15.63195 -0.0405
C 29.4706 17.00494 0.01705
C 30.69692 17.84576 0.0101
C 28.22982 14.9137 0.02198
C 28.26318 13.48168 0.01094
C 27.04963 12.69546 0.00235
C 26.99423 11.3716 0.01495
C 28.20563 10.60946 0.01259
C 28.23182 9.16875 0.01799
C 27.04743 8.49159 0.01699
C 26.9143 7.05388 -0.00416
C 28.1852 6.37091 0.01177
C 28.25014 4.85623 0.04266
C 27.02743 4.24592 0.01324
C 27.02619 2.86549 0.0014
C 28.27993 2.07405 0.00924
C 28.24221 0.64932 0.02326
C 27.05478 34.01128 0.00261
C 29.47748 32.56402 0.03265
C 30.72694 31.93082 -0.02049
C 30.79562 30.44597 -0.01854
C 29.60803 29.71521 -0.01415
C 30.77583 22.1484 -0.03039
C 29.4797 21.61075 0.01836
C 29.52708 20.12077 0.03531
C 30.66849 19.27368 -0.00669
C 33.09713 23.49308 0.01927
C 33.18597 22.07727 0.01574
C 31.97244 21.35928 -0.02383
C 32.0086 19.94371 -0.01429
C 34.41124 24.11413 0.03076
C 1.1597 23.35987 0.00723
C 1.21031 21.94519 0.02712
C 34.34342 21.31764 -0.02213
C 0.03972 19.91392 0.01951
C 1.24081 19.24518 -0.01678
C 1.21385 17.78064 0.01223
C 34.41153 17.02222 0.00648
C 34.34347 15.59002 0.02114
C 1.14768 14.91268 -0.02957
C 1.12612 13.4472 0.00343
C 34.36782 12.7338 -0.02656
C 34.36362 11.21954 -0.02442
C 1.1659 10.61087 -0.00027
C 1.05867 9.20254 -0.00583
C 34.32527 8.44515 -0.02302
C 34.42388 6.9803 -0.02849
C 1.147 6.33862 0.02931
C 1.14066 4.94094 0.00628
C 34.36965 4.28166 -0.0345
C 34.39039 2.78751 -0.00931
C 1.17621 2.0839 -0.00939
C 1.26731 0.62427 -0.00468
C 34.42878 25.50408 -0.05239
C 27.10362 15.67833 0.02611
C 1.2273 26.24426 -0.00598
C 34.3433 28.28948 -0.01037
C 33.23431 19.21819 -0.0136
C 33.18426 17.78452 0.00594
C 31.93372 17.10052 -0.02474
C 31.9168 15.61167 0.00369
C 33.12902 14.93828 0.00455
C 33.12501 13.462 -0.00644
C 31.89432 12.80848 -0.01839
C 31.95343 11.30094 0.00137
C 33.11859 10.55132 0.00199
C 33.14369 9.11506 0.04381
C 31.91809 8.4087 0.02806
C 31.91693 7.01178 0.01504
C 33.11805 6.23479 -0.00069
C 33.12201 4.85625 0.04926
C 31.89133 4.14781 -0.03838
C 31.95983 2.72101 0.00349
C 33.19798 2.05563 -0.00323
C 33.18104 0.65431 -0.00841
C 31.9507 33.93069 0.0001
C 34.43201 32.52849 -0.02927
C 1.2466 31.87986 -0.01404
C 1.24163 30.43519 0.01027
C 0.00717 29.70723 0.01831
C 1.22061 27.62848 -0.00439
C 27.0792 17.07729 -0.00621
C 28.33068 17.8104 0.00194
C 28.35237 19.3391 0.04185
C 20.9007 6.41975 0.00675
C 20.97955 5.01681 -0.00311
C 19.6577 4.30843 0.00742
C 19.6488 2.92122 -0.01594
C 20.8737 2.12605 0.0106
C 20.92824 0.77003 -0.01154
C 19.70322 0.13133 -0.01721
C 21.97558 32.65719 -0.02422
C 23.29621 31.90038 0.01277
C 23.24327 30.57881 0.00096
C 22.05327 29.85523 -0.01527
C 22.11974 28.46709 0.01087
C 23.32157 27.72019 0.00199
C 23.29879 26.33568 0.01511
C 22.05245 25.60838 -0.00478
C 22.14117 24.14912 -0.01662
C 23.45481 23.55565 -0.01185
C 23.38076 22.13952 0.01126
C 22.13577 21.31319 0.01852
C 22.10913 19.96856 -0.00381
C 23.36559 19.23205 0.03046
C 23.44747 17.75322 0.0296
C 22.0803 16.98711 0.03374
C 19.64827 7.1453 -0.00865
C 22.05764 15.57778 -0.02845
C 19.70842 8.5869 0.0058
C 20.88242 10.67699 -0.04076
C 18.47768 0.82377 -0.0331
C 17.4073 0.04617 -0.00316
C 19.59624 32.83147 0.02188
C 20.74019 32.01231 -0.01979
C 20.74649 30.57028 0.02691
C 19.5445 29.81675 -0.01581
C 19.59694 28.33992 0.01452
C 20.80957 27.66998 0.04892
C 20.86698 26.29684 -0.00111
C 19.62896 25.54165 -0.03557
C 19.61273 24.06084 0.03754
C 20.8976 23.44643 0.01739
C 20.90969 21.99516 0.00755
C 19.68294 21.25794 -0.0054
C 19.66725 19.83777 0.00667
C 20.91369 19.13356 0.00143
C 20.95332 17.77711 -0.017
C 19.67854 16.98926 0.00364
C 19.67055 15.59525 -0.00831
C 20.93845 14.94151 -0.02957
C 20.87715 13.53108 -0.04422
C 19.60479 12.80463 0.00654
C 19.70397 11.45894 -0.00703
C 20.86534 9.23475 -0.00652
C 3.67536 31.93976 0.00267
C 23.32725 14.92895 -0.03213
C 22.1219 12.84533 0.01153
C 24.63847 15.63161 -0.0264
C 25.82478 14.90979 -0.01154
C 25.81658 13.386 0.00684
C 24.58395 12.77848 -0.01052
C 24.61595 11.3416 -0.01679
C 25.7861 10.59149 0.00367
C 25.81656 9.21619 0.04306
C 24.63324 8.55753 0.00996
C 24.60704 7.14494 0.00195
C 25.76419 6.34133 -0.00802
C 25.79198 4.92769 -0.00218
C 24.58704 4.27974 -0.01654
C 24.67047 2.87332 -0.00037
C 25.81987 2.09281 -0.0032
C 25.87129 0.63918 0.00622
C 24.61251 0.01918 -0.02815
C 27.03688 32.59193 -0.00942
C 28.29093 31.79339 0.00487
C 28.20329 30.27922 0.00826
C 26.95193 29.59472 -0.00294
C 28.15595 22.16687 0.00152
C 27.06054 21.35263 0.01257
C 27.06314 19.92619 0.02316
C 24.65177 17.05958 -0.00938
C 23.35497 13.44039 0.02239
C 25.84399 17.74457 -0.00229
C 24.59919 19.88588 -0.009
C 22.19765 11.37754 0.02734
C 23.38039 10.66145 -0.0055
C 23.35073 9.25101 0.01515
C 22.10269 8.57622 -0.00225
C 22.17779 7.14114 0.00071
C 23.36624 6.40538 -0.01107
C 23.33096 4.98841 -0.01586
C 22.12749 4.29749 -0.01971
C 22.06575 2.89457 -0.02118
C 23.34671 2.08316 0.00733
C 23.36308 0.73312 -0.00178
C 22.0565 0.04673 0.00768
C 24.5383 32.62804 -0.0276
C 25.76531 31.93201 0.03005
C 25.77175 30.39821 -0.04078
C 24.47382 29.84898 0.02117
C 24.62753 28.44139 0.02737
C 25.73544 27.69357 -0.00498
C 24.62853 25.7994 0.00135
C 24.7482 24.34215 0.03102
C 25.94452 23.47075 0.02555
C 25.84819 22.1018 0.01423
C 24.57231 21.31883 -0.00285
C 25.763 19.24039 -0.01199
C 2.49087 32.60104 0.01913
