345
Graphene
C 34.39248 0.02231 0.01295
C 12.24431 4.42368 0.02098
C 12.33721 2.9403 0.01848
C 13.48838 2.18847 -0.00619
C 13.50682 0.77274 -0.02162
C 12.2421 0.04931 0.00889
C 14.79859 32.62478 -0.00481
C 16.10205 31.97052 0.00979
C 16.01361 30.45014 0.01443
C 14.7861 29.82681 0.03505
C 14.75353 28.41533 -0.02815
C 15.83246 27.6021 -0.04147
C 15.93006 25.99195 -0.05302
C 14.55407 25.38058 0.00213
C 16.04899 9.17188 -0.00066
C 14.93149 7.25474 -0.00289
C 16.17327 6.34818 0.00028
C 16.08507 4.92867 -0.02213
C 13.65042 5.10004 -0.03113
C 13.85363 6.45545 0.0351
C 12.28611 24.18502 0.00422
C 12.22936 25.51105 0.00798
C 11.02704 23.51418 0.03542
C 10.89159 22.06976 0.02299
C 9.78554 21.33924 0.00244
C 9.87709 19.82187 -0.01717
C 10.04668 17.39282 0.05265
C 11.15246 5.23732 -0.01952
C 9.84441 4.52412 -0.02813
C 9.84644 3.03738 0.00374
C 14.80031 4.2853 0.03698
C 11.05038 2.27639 0.00052
C 9.789 0.05759 0.01965
C 12.30865 32.74654 0.02058
C 13.58526 31.92139 -0.01957
C 13.53002 30.46324 -0.0108
C 12.22203 29.81761 -0.00368
C 12.20719 28.45077 -0.02696
C 13.44752 27.76561 -0.00114
C 13.51083 26.26506 0.00228
C 11.05301 0.80156 -0.03682
C 9.74078 24.21041 0.01416
C 14.80901 2.87232 -0.00109
C 15.93097 0.63792 0.03338
C 19.65386 29.80851 0.00654
C 19.72615 28.40777 -0.00703
C 20.90259 27.80525 -0.04076
C 20.97004 26.35252 -0.00652
C 19.8722 25.5833 0.0058
C 21.15751 22.99843 -0.00865
C 21.01599 9.5297 0.00675
C 19.74769 8.82858 -0.00311
C 19.70223 7.23693 0.00742
C 20.86057 6.46367 -0.01594
C 20.81428 4.93777 0.0106
C 19.6153 4.22047 -0.01154
C 19.63494 2.75658 -0.01721
C 20.87821 2.17051 -0.02422
C 20.83923 0.69712 0.01277
C 19.60941 34.02498 0.00096
C 22.11587 32.6159 -0.01527
C 20.92287 30.54759 -0.04422
C 20.88209 31.9289 -0.02957
C 19.60009 32.58154 -0.00831
C 17.14804 34.05936 0.00364
C 14.72168 34.02527 -0.0258
C 17.22536 32.67537 -0.0331
C 18.39683 31.91054 -0.00316
C 18.46009 30.4503 0.02188
C 17.17831 29.7215 -0.01979
C 17.15271 28.21783 0.02691
C 18.42193 27.65605 -0.01581
C 18.49521 26.18211 0.01452
C 16.03186 2.08144 -0.00491
C 17.27956 25.53961 0.04892
C 17.27966 8.51534 -0.03557
C 17.3557 7.05916 0.03754
C 18.55274 6.41691 0.01739
C 18.47709 4.98447 0.00755
C 17.30273 4.25183 -0.0054
C 17.20019 2.82099 0.00667
C 18.41062 2.11837 0.00143
C 18.38952 0.66999 -0.017
C 18.30404 9.27148 -0.00111
C 9.80909 25.60507 0.01945
C 11.06913 26.32234 -0.01454
C 11.03843 27.72605 0.01241
C 2.50033 7.01935 0.00393
C 3.85284 6.34174 0.00895
C 3.64655 4.92718 0.00685
C 2.45594 4.25342 0.02888
C 2.48329 2.85078 -0.00482
C 3.71223 2.07313 -0.01384
C 3.64845 0.67453 0.03693
C 2.38504 0.01245 0.01745
C 4.94243 32.68615 0.00488
C 6.22442 31.98296 -0.01004
C 6.14677 30.50697 -0.02896
C 4.87142 29.8993 -0.00131
C 4.8802 28.46084 -0.01118
C 6.10394 27.7959 -0.014
C 6.0853 26.34744 0.02147
C 4.82584 25.63259 0.00373
C 4.84337 24.22462 -0.00191
C 2.5227 8.3983 0.0288
C 3.62964 9.22252 -0.0008
C 3.5931 10.59442 -0.01362
C 2.46319 11.36333 -0.00892
C 3.63341 30.52602 0.01227
C 2.36954 29.82629 0.00873
C 2.4 28.41049 -0.00049
C 3.65075 27.75509 0.00848
C 3.5902 26.27315 -0.01303
C 2.34104 25.58121 -0.01378
C 2.36954 24.17429 0.02635
C 3.61354 23.50011 0.0127
C 5.99501 23.51201 0.00438
C 3.64108 22.01376 0.01396
C 2.37666 19.87722 -0.01142
C 3.6596 19.14403 -0.00562
C 3.72017 17.79143 -0.00494
C 2.50452 16.96653 0.00054
C 2.41524 15.60526 0.03007
C 3.69772 14.79533 -0.00095
C 3.58776 13.43122 0.01572
C 2.44541 12.79323 -0.04848
C 2.40451 21.31935 0.01849
C 5.98195 22.07394 0.01291
C 4.86406 21.28607 0.00093
C 4.83816 19.78413 0.00057
C 8.45209 22.05866 -0.01536
C 7.28769 21.34116 -0.02689
C 7.2945 19.87825 -0.01046
C 8.58531 19.32368 -0.00891
C 8.7471 17.821 0.02819
C 7.578 16.93799 0.00165
C 7.28837 15.67732 -0.02971
C 8.50936 4.92141 0.02894
C 8.46523 23.50868 0.03101
C 7.20877 4.54889 -0.01789
C 8.57343 2.32264 -0.00925
C 8.61062 0.92796 0.01877
C 7.40486 0.11311 0.01363
C 9.82467 32.70826 -0.02162
C 11.0842 31.95802 0.00415
C 11.04933 30.54009 -0.0014
C 9.81756 29.91356 0.02162
C 9.84686 28.46144 0.0076
C 7.3359 2.98314 0.00444
C 23.39288 31.93613 0.01087
C 7.29077 24.23106 -0.00428
C 8.54437 26.33267 0.00985
C 6.13237 19.23041 -0.01634
C 6.24437 17.75689 -0.00334
C 4.95608 17.08701 0.02339
C 4.90151 15.6177 0.01641
C 6.14358 15.09941 -0.00719
C 5.24692 6.6089 0.01364
C 5.88331 5.20145 -0.01062
C 4.89354 4.23389 -0.00033
C 7.26367 25.63738 -0.02245
C 4.88364 2.79136 0.03589
C 6.14851 0.77394 0.0402
C 4.94864 0.01868 0.00572
C 7.43484 32.75778 0.03592
C 8.63093 31.97251 0.00406
C 8.58831 30.56565 0.00943
C 7.29971 29.85058 0.02841
C 7.34271 28.41101 -0.01111
C 8.53528 27.73636 -0.01275
C 6.10619 2.14987 -0.02759
C 3.68321 31.97433 -0.03337
C 23.38397 30.51273 0.00199
C 22.16485 28.4301 -0.00478
C 31.92458 29.79296 -0.02142
C 31.97083 28.42049 0.0544
C 33.13037 27.61004 0.00026
C 33.09417 26.23936 0.00682
C 31.8969 25.55968 -0.01779
C 31.89201 24.13638 0.03794
C 33.11953 23.46627 0.01927
C 33.15281 22.0571 0.01574
C 31.99307 21.32296 -0.02383
C 31.98242 19.95377 -0.01429
C 33.13569 19.15696 -0.0136
C 33.21134 17.76799 0.00594
C 31.90256 17.03614 -0.02474
C 31.95076 15.68108 0.00369
C 33.14664 14.92228 0.00455
C 33.15515 13.47392 -0.00644
C 31.95193 12.82793 -0.01839
C 33.12522 30.52874 0.01428
C 33.19572 31.9641 -0.01694
C 31.98033 32.69142 0.01713
C 29.49939 0.03287 0.00346
C 30.75695 19.19968 0.03531
C 30.66759 17.82861 -0.00669
C 29.45356 17.16072 0.0101
C 29.38256 15.78329 0.01705
C 30.59541 15.02681 -0.0405
C 30.63049 13.5522 -0.01303
C 29.45595 12.84246 -0.01461
C 29.5111 11.42624 -0.02155
C 31.91953 11.40829 0.00137
C 30.70806 10.64222 -0.00944
C 29.44738 8.54178 -0.00971
C 29.43946 7.1148 0.01518
C 30.65953 6.4029 0.01908
C 30.70851 4.94808 0.07705
C 29.50906 4.22094 0.0103
C 29.48556 2.80314 0.02108
C 30.76074 2.12488 0.00716
C 30.68632 0.71092 0.00307
C 30.74992 9.17219 -0.03735
C 29.48534 19.92519 0.01836
C 33.22006 10.7227 0.00199
C 31.93913 8.50834 0.02806
C 1.23405 17.74332 0.01223
C 0.04936 17.0252 0.00648
C 34.33891 15.66701 0.02114
C 1.16957 14.91724 -0.02957
C 1.19463 13.54683 0.00343
C 0.03709 12.84651 -0.02656
C 0.0378 11.317 -0.02442
C 1.25965 10.63998 -0.00027
C 1.25337 9.20258 -0.00583
C 34.40039 8.51301 -0.02302
C 34.40171 7.10411 -0.02849
C 1.2293 6.35025 0.02931
C 1.24902 4.93664 0.00628
C 0.00056 4.25782 -0.0345
C 34.40098 2.8437 -0.00931
C 1.20314 2.15705 -0.00939
C 1.15498 0.82107 -0.00468
C 1.21769 19.14636 -0.01678
C 34.38985 19.87644 0.01951
C 34.39459 21.26874 -0.02213
C 1.15112 21.99869 0.02712
C 31.92974 7.02709 0.01504
C 33.19087 6.40474 -0.00069
C 33.20162 4.96684 0.04926
C 32.00821 4.26115 -0.03838
C 31.98085 2.84308 0.00349
C 33.20736 2.12616 -0.00323
C 33.14704 0.74994 -0.00841
C 31.95878 0.06843 0.0001
C 33.20784 9.26958 0.04381
C 0.0359 32.59106 -0.02927
C 1.19372 30.56712 0.01027
C 34.34988 29.85673 0.01831
C 34.39143 28.40311 -0.01037
C 1.16988 27.70289 -0.00439
C 1.16969 26.29385 -0.00598
C 34.3583 25.53909 -0.05239
C 34.4105 24.14001 0.03076
C 1.15478 23.43631 0.00723
C 1.28562 31.97454 -0.01404
C 29.47363 21.35089 -0.03039
C 30.76227 22.09977 -0.01415
C 30.68766 23.40791 -0.01854
C 24.54959 28.36654 -0.00178
C 25.75922 27.68549 0.00768
C 25.78662 26.2563 -0.0276
C 24.69361 25.5306 0.03005
C 25.681 17.69777 -0.04078
C 24.56692 17.04402 0.02117
C 24.293 15.5748 0.02737
C 25.56299 14.96458 -0.00498
C 25.65918 13.56784 0.00135
C 24.51318 12.7806 0.03102
C 24.5456 11.33258 0.02555
C 25.81877 10.61045 0.01423
C 25.81504 9.19477 -0.00285
C 24.61022 8.48894 -0.009
C 24.51564 7.15204 -0.01199
C 25.74932 6.33138 -0.00229
C 25.80671 4.94292 -0.00938
C 24.59541 29.77546 0.00733
C 25.88402 30.45808 -0.02118
C 25.86542 31.85289 -0.01971
C 24.56013 32.64353 -0.01586
C 23.38278 27.68816 -0.01662
C 23.54526 26.24988 -0.01185
C 22.14484 25.58781 0.01126
C 21.55908 24.28392 0.01852
C 23.06143 14.76139 -0.00381
C 23.30612 13.38243 0.03046
C 21.81235 10.92738 0.0296
C 23.19408 10.5855 0.03374
C 24.61692 4.1846 -0.0264
C 23.40563 9.20329 -0.02845
C 22.07149 7.12177 0.02239
C 23.26303 6.33367 0.01153
C 23.42169 4.91513 0.02734
C 22.05708 4.23296 -0.0055
C 22.12094 2.78787 0.01515
C 23.33599 2.10236 -0.00225
C 23.33016 0.65893 0.00071
C 22.06342 34.02106 -0.01107
C 22.18502 8.57875 -0.03213
C 24.54604 2.79216 -0.01154
C 25.87404 2.10061 0.00684
C 25.85017 0.7009 -0.01052
C 26.99564 8.45862 0.02611
C 26.97824 7.0467 0.02198
C 28.18804 6.37259 0.01094
C 28.32335 4.96806 0.00235
C 27.09937 4.31626 0.01495
C 27.06908 2.85506 0.01259
C 28.26447 2.07669 0.01799
C 28.22484 0.71044 0.01699
C 28.1996 9.3147 -0.00621
C 27.09411 34.03824 -0.00416
C 30.7313 31.97234 0.04266
C 30.71266 30.48209 0.01324
C 29.53693 29.83447 0.0014
C 29.4907 28.39786 0.00924
C 30.72836 27.73939 0.02326
C 30.55389 26.23537 0.00261
C 29.37641 25.5259 0.03265
C 29.33655 24.11026 -0.02049
C 29.46255 32.7002 0.01177
C 22.15715 29.91293 0.01511
C 28.22064 10.74047 0.00194
C 26.9052 12.94864 0.02316
C 24.52936 33.98552 -0.01679
C 27.06663 32.61488 0.00367
C 28.24939 31.94833 0.04306
C 28.25282 30.55297 0.00996
C 27.08686 29.74038 0.00195
C 26.96318 28.36172 -0.00802
C 28.27701 27.67822 -0.00218
C 28.22171 26.30223 -0.01654
C 27.00076 11.41572 0.04185
C 27.03485 25.5476 -0.00037
C 28.03442 23.28728 0.00622
C 28.25367 21.91988 -0.02815
C 28.27664 19.38072 -0.00942
C 28.19453 17.94558 0.00487
C 26.95887 17.17288 0.00826
C 26.82342 15.70033 -0.00294
C 28.10687 15.0676 0.00152
C 28.16511 13.57919 0.01257
C 26.87434 24.16397 -0.0032
C 2.48875 32.71095 -0.00966
