409
Graphene
C 34.38081 0.02722 0.01295
C 13.5952 5.21101 -0.01536
C 12.3161 4.42547 -0.02689
C 12.34314 2.96865 -0.01046
C 13.50346 2.24688 -0.00891
C 13.45872 0.85417 0.02819
C 12.28767 0.08135 0.00165
C 14.76847 32.72476 -0.02971
C 16.01916 32.00622 0.02894
C 15.99777 30.59525 -0.01789
C 14.79622 29.89356 0.00444
C 14.72707 28.44648 -0.00925
C 15.80904 27.63987 0.01877
C 15.86268 26.27537 0.01363
C 14.63325 25.52265 -0.02162
C 14.55307 24.12081 0.00415
C 15.92527 23.36357 -0.0014
C 15.86357 21.95231 0.02162
C 14.60803 21.28851 0.0076
C 14.61019 19.76897 0.01241
C 15.70515 19.3475 -0.01454
C 14.99696 7.23907 0.01945
C 13.66646 6.73215 0.03101
C 12.4188 7.31647 -0.00428
C 12.22065 19.67919 -0.02245
C 12.22787 21.25645 0.00985
C 9.8621 20.01203 0.00438
C 11.04912 19.34685 0.01291
C 9.58249 8.80292 0.00093
C 9.84641 7.37794 0.00057
C 11.14293 6.73598 -0.01634
C 11.11267 5.15692 -0.00334
C 9.84127 4.43747 0.02339
C 9.84598 2.97419 0.01641
C 11.0683 2.29379 -0.00719
C 11.03027 0.81694 0.01364
C 16.09371 6.43705 0.01416
C 9.80705 0.10039 -0.01062
C 13.53526 32.14454 0.03589
C 13.56956 30.65125 -0.02759
C 12.33583 29.92199 0.0402
C 12.2402 28.44551 0.00572
C 13.47716 27.75215 0.03592
C 13.45968 26.34793 0.00406
C 12.2439 25.68385 0.00943
C 12.0744 24.18473 0.02841
C 13.35756 23.37429 -0.01111
C 13.41068 22.00174 -0.01275
C 12.18379 32.74059 -0.00033
C 9.72402 21.48649 -0.00191
C 16.00776 4.93943 0.03542
C 14.76564 2.90673 0.00244
C 18.44146 2.05528 0.01443
C 18.42607 0.67566 0.03505
C 17.11045 0.0483 -0.02815
C 19.70669 32.65932 -0.04147
C 20.90076 31.93812 -0.05302
C 20.83499 30.4331 0.00213
C 19.64096 29.70877 -0.00066
C 19.64369 28.35325 -0.00289
C 20.84837 27.56398 0.00028
C 20.86916 26.14646 -0.02213
C 19.61415 25.5084 0.03698
C 19.6616 24.08743 -0.00109
C 20.88795 23.34967 -0.00491
C 20.84704 21.94797 0.03338
C 19.67582 21.09998 -0.0258
C 19.5066 19.64445 -0.0331
C 20.7594 19.03783 -0.00316
C 20.90471 17.59702 0.02188
C 19.53839 16.79337 -0.01979
C 19.7033 15.40502 0.02691
C 20.98928 14.91028 -0.01581
C 17.19135 2.81788 0.00979
C 17.15362 4.21102 -0.00481
C 18.45237 4.94511 0.00889
C 18.4832 6.40733 -0.02162
C 15.9738 2.15138 -0.01717
C 15.91277 0.80297 0.05265
C 14.68651 0.05451 -0.01952
C 17.21651 32.70348 -0.02813
C 18.42532 31.99396 0.00374
C 18.44706 30.49791 0.00052
C 17.18113 29.8639 -0.03682
C 17.10054 28.33573 0.01965
C 18.35658 27.67514 0.02058
C 18.38982 26.26007 -0.01957
C 14.78814 4.30628 0.02299
C 17.06087 25.53527 -0.0108
C 18.46042 23.34984 -0.02696
C 18.4489 21.92815 -0.00114
C 17.13021 21.22547 0.00228
C 17.09339 19.67733 0.00798
C 18.24416 18.9223 0.00422
C 18.29979 17.50794 0.0351
C 18.40131 10.77493 -0.03113
C 18.28159 9.36032 0.02098
C 17.12742 8.46962 0.01848
C 17.32477 7.14911 -0.00619
C 17.17259 24.0761 -0.00368
C 11.02973 22.01176 0.00373
C 10.9163 23.43801 0.02147
C 9.7097 24.1826 -0.014
C 2.40053 2.89117 -0.003
C 3.6869 2.22226 0.01402
C 3.61603 0.84411 0.02379
C 2.39154 0.07768 0.00907
C 4.84505 32.75511 0.00643
C 6.01227 32.03724 -0.01509
C 6.11768 30.6091 0.03267
C 4.87828 29.92941 0.02374
C 4.93176 28.47283 0.00402
C 6.11525 27.79141 0.0073
C 6.06522 26.39125 0.0174
C 4.88017 25.60833 0.03828
C 4.88714 24.13545 0.01226
C 6.08669 23.53991 -0.00279
C 6.01092 22.04273 0.01996
C 4.89626 21.29795 -0.03996
C 4.91007 19.92407 0.01465
C 6.13405 19.18978 -0.00074
C 6.05932 17.71716 -0.00518
C 4.76848 16.99323 0.0086
C 4.83857 15.58588 -0.00643
C 2.4332 4.29595 0.00031
C 3.68687 5.01476 0.03189
C 3.63736 6.43565 -0.04307
C 2.42581 7.13074 0.03284
C 3.64316 30.56566 -0.02375
C 2.48011 29.84361 0.00558
C 2.44763 28.39833 -0.0059
C 3.65378 27.71726 -0.01386
C 3.66857 26.30643 -0.02805
C 2.31282 25.60324 0.00081
C 2.36702 24.15971 0.00245
C 3.65359 23.4221 0.02728
C 3.6319 22.01235 -0.00039
C 2.44181 21.35712 0.0064
C 6.1028 14.88087 0.017
C 2.51566 19.87666 0.00211
C 3.59689 17.74013 -0.01979
C 2.35719 17.0315 0.02784
C 2.37658 15.69471 -0.01977
C 3.56295 14.95649 -0.00561
C 3.54873 13.52938 0.00208
C 2.37727 12.77047 0.01707
C 2.35139 11.37365 0.02769
C 3.65313 10.78158 -0.03291
C 3.59786 9.26801 -0.04999
C 2.402 8.56343 0.04505
C 3.70388 19.13643 -0.00449
C 6.09311 13.45209 -0.03113
C 4.83034 12.83863 -0.02566
C 4.83812 11.46451 -0.00094
C 7.34283 17.01615 0.00054
C 7.32762 15.5972 0.03007
C 7.26157 12.62683 -0.00095
C 7.33969 11.42495 0.01572
C 8.58502 9.39671 -0.04848
C 7.29075 8.63092 -0.00892
C 7.33882 7.14005 -0.01362
C 8.64511 6.57516 -0.0008
C 8.62366 5.08424 0.0288
C 7.36849 4.41656 0.00393
C 8.5686 17.82095 -0.00494
C 7.39035 2.9476 0.00895
C 8.54099 0.72254 0.02888
C 7.27534 0.08786 -0.00482
C 9.81436 32.72647 -0.01384
C 10.98373 31.99669 0.03693
C 11.09332 30.65278 0.01745
C 9.75783 29.9159 0.00488
C 9.72231 28.51532 -0.01004
C 10.91672 27.76672 -0.02896
C 11.00026 26.36733 -0.00131
C 9.76706 25.6863 -0.01118
C 8.62502 2.248 0.00685
C 21.00144 13.59226 0.01452
C 8.52244 19.28272 -0.00562
C 7.28871 21.37546 0.01849
C 6.07288 10.69819 0.02322
C 6.07642 9.30358 -0.00725
C 4.83491 8.653 -0.05697
C 4.87803 7.17621 0.01087
C 6.13411 6.47061 -0.01343
C 6.13833 5.04965 0.00988
C 4.9022 4.41118 0.0276
C 4.91784 2.97949 0.01305
C 6.15541 2.25333 -0.00077
C 6.06575 0.85979 0.03368
C 7.34752 19.93707 -0.01142
C 4.87794 0.06249 -0.02929
C 8.5361 32.06359 -0.03337
C 8.55922 30.73429 0.01227
C 7.34656 29.93676 0.00873
C 7.33617 28.54103 -0.00049
C 8.47364 27.76054 0.00848
C 8.45915 26.38958 -0.01303
C 7.26272 25.67422 -0.01378
C 7.24193 24.21396 0.02635
C 8.47824 23.58797 0.0127
C 8.44818 22.11224 0.01396
C 7.25574 32.80427 -0.00966
C 3.58432 32.03669 0.00828
C 19.80233 12.90543 0.04892
C 20.82104 10.7358 -0.03557
C 29.51015 8.47979 -0.00971
C 29.52182 7.05698 0.01518
C 30.68783 6.37387 0.01908
C 30.69406 4.93458 0.07705
C 29.50436 4.18312 0.0103
C 29.5145 2.76575 0.02108
C 30.74912 2.11458 0.00716
C 30.73552 0.68983 0.00307
C 29.49976 34.07527 0.00346
C 31.85445 32.59655 0.01713
C 33.11371 31.96555 -0.01694
C 33.19696 30.56453 0.01428
C 31.94572 29.81262 -0.02142
C 31.90305 28.30531 0.0544
C 33.13783 27.78016 0.00026
C 33.15488 26.24823 0.00682
C 31.96335 25.45996 -0.01779
C 32.01393 24.15132 0.03794
C 33.13359 23.35779 0.01927
C 33.12481 22.02496 0.01574
C 31.92818 21.29231 -0.02383
C 30.76609 9.21533 -0.03735
C 30.7166 10.65032 -0.00944
C 29.42444 11.32106 -0.02155
C 29.4738 12.72471 -0.01461
C 28.30363 2.03071 0.01799
C 28.23167 0.63894 0.01699
C 26.96912 34.01189 -0.00416
C 29.45457 32.62467 0.01177
C 30.68449 31.92178 0.04266
C 30.72067 30.53789 0.01324
C 29.48329 29.76627 0.0014
C 29.50827 28.38393 0.00924
C 30.67944 27.58243 0.02326
C 30.71918 26.17827 0.00261
C 31.95006 19.88946 -0.01429
C 29.39124 25.46204 0.03265
C 30.69599 23.38497 -0.01854
C 30.65656 21.97678 -0.01415
C 29.43491 21.34829 -0.03039
C 29.40967 19.98242 0.01836
C 30.60405 19.22485 0.03531
C 30.661 17.7202 -0.00669
C 29.46372 17.00968 0.0101
C 29.4849 15.53718 0.01705
C 30.75341 14.90788 -0.0405
C 30.71477 13.47383 -0.01303
C 29.45767 24.00834 -0.02049
C 27.0158 2.81916 0.01259
C 33.10158 19.13342 -0.0136
C 31.94123 17.05385 -0.02474
C 1.19549 22.0709 0.02712
C 34.38809 21.28235 -0.02213
C 34.40659 19.87589 0.01951
C 1.26811 19.13189 -0.01678
C 1.24344 17.70566 0.01223
C 34.36952 17.0814 0.00648
C 34.39565 15.64884 0.02114
C 1.1948 14.89598 -0.02957
C 1.16851 13.45979 0.00343
C 34.3229 12.76221 -0.02656
C 34.33043 11.39414 -0.02442
C 1.07607 10.65443 -0.00027
C 1.17925 9.14461 -0.00583
C 34.42694 8.47385 -0.02302
C 34.40211 7.05907 -0.02849
C 1.16868 6.31766 0.02931
C 1.23311 4.9624 0.00628
C 34.39704 4.31432 -0.0345
C 0.01367 2.89138 -0.00931
C 1.19326 2.14636 -0.00939
C 1.13002 0.75145 -0.00468
C 1.05129 23.45507 0.00723
C 34.25201 24.17426 0.03076
C 34.30577 25.55529 -0.05239
C 1.13315 26.3773 -0.00598
C 31.98695 15.56281 0.00369
C 33.19645 14.8792 0.00455
C 33.16943 13.51251 -0.00644
C 31.95464 12.7781 -0.01839
C 31.9186 11.3685 0.00137
C 33.08417 10.59679 0.00199
C 33.20408 9.07524 0.04381
C 31.97491 8.53276 0.02806
C 31.9784 7.06405 0.01504
C 33.16294 6.33275 -0.00069
C 33.13486 17.81676 0.00594
C 33.06067 4.8897 0.04926
C 31.99065 2.80191 0.00349
C 33.17337 2.13483 -0.00323
C 33.11067 0.64342 -0.00841
C 31.91448 34.01095 0.0001
C 34.35699 32.70467 -0.02927
C 1.18826 32.04506 -0.01404
C 1.24329 30.5451 0.01027
C 34.41688 29.88988 0.01831
C 34.42562 28.42967 -0.01037
C 1.17656 27.7891 -0.00439
C 31.88603 4.22797 -0.03838
C 27.03143 4.27437 0.01495
C 28.2902 4.92558 0.00235
C 28.30248 6.24862 0.01094
C 22.25845 15.53886 0.00096
C 23.46116 14.84175 -0.01527
C 23.49422 13.44531 0.01087
C 22.20152 12.79061 0.00199
C 22.12043 11.401 0.01511
C 23.28394 10.68471 -0.00478
C 23.21221 9.2829 -0.01662
C 21.99943 8.62783 -0.01185
C 22.09362 7.20246 0.01126
C 23.2497 6.3953 0.01852
C 23.28015 4.9677 -0.00381
C 22.09195 4.2501 0.03046
C 22.12038 2.869 0.0296
C 23.3841 2.12956 0.03374
C 23.33348 0.62684 -0.02845
C 22.15334 34.01337 -0.03213
C 24.54801 32.58794 0.02239
C 25.75384 31.84396 0.01153
C 25.72855 30.43372 0.02734
C 24.50415 29.7354 -0.0055
C 24.52324 28.3972 0.01515
C 22.12795 16.97683 0.01277
C 23.31807 17.70254 -0.02422
C 23.27261 19.15683 -0.01721
C 22.06407 19.8593 -0.01154
C 20.78077 9.30588 0.03754
C 19.52183 8.55394 0.01739
C 19.65754 7.17466 0.00755
C 20.89923 6.45039 -0.0054
C 20.84054 4.99483 0.00667
C 19.65165 4.20498 0.00143
C 19.67645 2.81889 -0.017
C 20.93191 2.04511 0.00364
C 20.90064 0.68282 -0.00831
C 19.68604 34.04055 -0.02957
C 25.77794 27.79913 -0.00225
C 22.08148 32.5652 -0.04422
C 23.35098 30.46924 -0.00703
C 22.084 29.78308 -0.04076
C 22.13152 28.4029 -0.00652
C 23.23601 27.62296 0.0058
C 23.33521 26.14471 -0.00865
C 22.12882 25.47495 0.00675
C 22.11506 24.09383 -0.00311
C 23.35302 23.43929 0.00742
C 23.2684 21.98676 -0.01594
C 22.06422 21.21525 0.0106
C 23.3675 31.86416 0.00654
C 25.74366 26.36061 0.00071
C 24.6005 25.5469 -0.01107
C 24.53434 24.13482 -0.01586
C 26.93224 29.74645 0.04306
C 27.00077 28.37272 0.00996
C 28.22923 27.66931 0.00195
C 28.25595 26.27155 -0.00802
C 27.03234 25.65852 -0.00218
C 26.94132 24.11512 -0.01654
C 28.17085 23.36471 -0.00037
C 28.22103 22.00717 -0.0032
C 26.95556 21.24197 0.00622
C 26.99916 19.8994 -0.02815
C 28.3228 30.44486 0.00367
C 28.21244 19.22032 -0.00942
C 27.01706 17.00824 0.00826
C 27.07611 15.59344 -0.00294
C 28.32812 14.82378 0.00152
C 28.20521 13.38411 0.01257
C 26.9948 12.70253 0.02316
C 26.96767 11.20029 0.04185
C 28.28673 10.52411 0.00194
C 28.29518 9.09428 -0.00621
C 27.06501 8.35818 0.02611
C 27.09874 6.96361 0.02198
C 28.24941 17.76597 0.00487
C 19.5387 11.57412 -0.00111
C 28.24166 31.85996 -0.01679
C 24.62947 33.98109 0.00684
C 25.73309 23.49498 -0.01971
C 25.69644 22.04278 -0.02118
C 24.43522 21.26399 0.00733
C 24.56374 19.78783 -0.00178
C 25.71035 19.13632 0.00768
C 25.7675 17.75974 -0.0276
C 24.56494 17.03097 0.03005
C 24.64919 15.59529 -0.04078
C 25.86255 14.94948 0.02117
C 25.84711 13.50822 0.02737
C 27.00717 32.52472 -0.01052
C 24.63742 12.7589 -0.00498
C 25.6928 10.55011 0.03102
C 25.78653 9.10617 0.02555
C 24.49029 8.5378 0.01423
C 24.56288 7.07421 -0.00285
C 25.77679 6.32736 -0.009
C 25.76788 4.94461 -0.01199
C 24.5115 4.2813 -0.00229
C 24.56685 2.86028 -0.00938
C 25.87732 2.1697 -0.0264
C 25.8245 0.74401 -0.01154
C 24.56084 11.28634 0.00135
C 2.3622 32.72305 0.00088
