409
Graphene
C 34.37659 34.00595 0.01295
C 12.11267 29.88703 -0.01536
C 12.23298 28.49505 -0.02689
C 13.44387 27.70417 -0.01046
C 13.44343 26.21886 -0.00891
C 12.23471 25.4935 0.02819
C 12.27795 24.0474 0.00165
C 13.53132 23.42496 -0.02971
C 13.56622 22.0532 0.02894
C 12.32142 21.26772 -0.01789
C 12.25851 19.90898 0.00444
C 13.48399 19.20545 -0.00925
C 13.53376 17.72164 0.01877
C 12.27983 16.98632 0.01363
C 12.34249 15.59933 -0.02162
C 13.57376 14.95882 0.00415
C 13.55646 13.47918 -0.0014
C 12.26086 12.83049 0.02162
C 12.24264 11.47393 0.0076
C 13.53602 10.58719 0.01241
C 13.56512 9.21534 -0.01454
C 12.36227 8.54735 0.01945
C 13.3529 30.5725 0.03101
C 13.4935 32.06768 -0.00428
C 12.24043 32.74307 -0.02245
C 9.76379 0.14133 0.00985
C 11.00733 23.37946 0.00438
C 11.06152 21.96399 0.01291
C 9.79764 21.25669 0.00093
C 9.86096 19.88431 0.00057
C 11.05335 19.16966 -0.01634
C 10.97597 17.76511 -0.00334
C 9.74077 17.04948 0.02339
C 9.82291 15.57156 0.01641
C 11.06486 14.94696 -0.00719
C 11.09067 13.50843 0.01364
C 12.36899 7.11739 0.01416
C 9.82278 12.78055 -0.01062
C 11.14689 10.63673 0.03589
C 11.1058 9.19258 -0.02759
C 9.80432 8.56516 0.0402
C 9.88347 7.11025 0.00572
C 11.07187 6.41457 0.03592
C 11.09997 5.03749 0.00406
C 9.87966 4.3573 0.00943
C 9.81995 2.93406 0.02841
C 11.04521 2.2253 -0.01111
C 10.97229 0.80437 -0.01275
C 9.85292 11.37023 -0.00033
C 9.85218 24.18672 -0.00191
C 13.60942 6.38999 0.03542
C 12.32075 4.37311 0.00244
C 16.04113 9.2002 0.01443
C 14.84164 8.50063 0.03505
C 14.79019 7.07999 -0.02815
C 15.99768 6.29774 -0.04147
C 16.04298 4.92813 -0.05302
C 14.78951 4.25482 0.00213
C 14.82889 2.86932 -0.00066
C 16.03204 2.11441 -0.00289
C 15.96599 0.68794 0.00028
C 14.70958 0.05504 -0.02213
C 17.12409 32.6472 0.03698
C 18.4197 31.9944 -0.00109
C 18.35981 30.58704 -0.00491
C 17.11536 29.88067 0.03338
C 17.03785 28.38319 -0.0258
C 18.34705 27.61756 -0.0331
C 18.6004 26.25603 -0.00316
C 17.37207 25.41984 0.02188
C 17.2933 23.92223 -0.01979
C 18.25636 22.29427 0.02691
C 17.23032 21.33419 -0.01581
C 16.02462 10.67694 0.00979
C 14.73896 11.32226 -0.00481
C 14.77608 12.72746 0.00889
C 15.98951 13.4319 -0.02162
C 12.34449 2.84121 -0.01717
C 13.54721 2.20552 0.05265
C 13.49499 0.78105 -0.01952
C 12.24615 0.04971 -0.02813
C 14.74094 32.74876 0.00374
C 15.95894 32.00373 0.00052
C 15.82499 30.60481 -0.03682
C 14.5971 29.90981 0.01965
C 14.67231 28.48356 0.02058
C 15.91614 27.62822 -0.01957
C 13.56151 4.96692 0.02299
C 15.97371 26.18432 -0.0108
C 14.72431 24.16064 -0.02696
C 15.94756 23.44138 -0.00114
C 15.95067 21.96737 0.00228
C 14.75535 21.29815 0.00798
C 14.75888 19.8192 0.00422
C 16.02946 19.17703 0.0351
C 16.04502 17.76543 -0.03113
C 14.80364 17.01275 0.02098
C 14.77422 15.6413 0.01848
C 16.01615 14.88885 -0.00619
C 14.73107 25.57703 -0.00368
C 9.81896 25.61657 0.00373
C 11.03039 26.28972 0.02147
C 11.05493 27.71401 -0.014
C 2.44223 2.84015 -0.003
C 3.68727 2.13945 0.01402
C 3.64803 0.72664 0.02379
C 2.36489 0.01 0.00907
C 4.82175 32.7291 0.00643
C 6.09379 32.03299 -0.01509
C 6.07718 30.60172 0.03267
C 4.79562 29.87928 0.02374
C 4.80145 28.44516 0.00402
C 6.04367 27.75081 0.0073
C 6.1421 26.34321 0.0174
C 4.90837 25.68702 0.03828
C 4.83853 24.21958 0.01226
C 6.10821 23.44928 -0.00279
C 6.08076 22.06527 0.01996
C 4.95379 21.33468 -0.03996
C 4.9131 19.89924 0.01465
C 6.12801 19.17341 -0.00074
C 6.06753 17.80675 -0.00518
C 4.81821 17.06682 0.0086
C 4.84692 15.6374 -0.00643
C 2.44165 4.26864 0.00031
C 3.63932 5.03028 0.03189
C 3.59721 6.40806 -0.04307
C 2.44815 7.15963 0.03284
C 3.60585 30.55412 -0.02375
C 2.40242 29.82601 0.00558
C 2.37852 28.34812 -0.0059
C 3.5765 27.68068 -0.01386
C 3.69274 26.31554 -0.02805
C 2.36444 25.54813 0.00081
C 2.42078 24.20394 0.00245
C 3.63432 23.53458 0.02728
C 3.60634 22.11433 -0.00039
C 2.40519 21.29979 0.0064
C 6.10798 14.99459 0.017
C 2.38063 19.8866 0.00211
C 3.63222 17.80934 -0.01979
C 2.40141 17.0233 0.02784
C 2.4805 15.648 -0.01977
C 3.63151 14.88104 -0.00561
C 3.65842 13.41852 0.00208
C 2.41208 12.79467 0.01707
C 2.43552 11.3413 0.02769
C 3.62043 10.69703 -0.03291
C 3.66881 9.19161 -0.04999
C 2.48469 8.54308 0.04505
C 3.62429 19.2417 -0.00449
C 6.12575 13.57846 -0.03113
C 4.96278 12.78427 -0.02566
C 4.87171 11.40068 -0.00094
C 7.35194 17.10281 0.00054
C 7.43718 15.67093 0.03007
C 8.60137 14.88486 -0.00095
C 8.60865 13.50994 0.01572
C 7.45 12.83157 -0.04848
C 7.36514 11.38199 -0.00892
C 8.62813 10.63958 -0.01362
C 8.56591 9.22711 -0.0008
C 7.27794 8.54629 0.0288
C 7.34728 7.17305 0.00393
C 8.58775 17.7657 -0.00494
C 8.60192 6.47401 0.00895
C 7.33408 4.34498 0.02888
C 7.39364 2.95316 -0.00482
C 8.55871 2.29549 -0.01384
C 8.52619 0.81782 0.03693
C 7.33617 0.14997 0.01745
C 9.76832 32.76873 0.00488
C 11.00158 32.09251 -0.01004
C 10.87893 30.62794 -0.02896
C 9.68804 29.86707 -0.00131
C 9.77521 28.44485 -0.01118
C 8.54487 5.08527 0.00685
C 17.31885 19.84294 0.01452
C 8.63081 19.17045 -0.00562
C 7.35104 21.34582 0.01849
C 6.13438 10.69132 0.02322
C 6.10605 9.30779 -0.00725
C 4.8854 8.58287 -0.05697
C 4.83546 7.16565 0.01087
C 6.15835 6.4987 -0.01343
C 6.13715 4.97566 0.00988
C 4.86701 4.3523 0.0276
C 4.83682 2.90421 0.01305
C 6.13985 2.22963 -0.00077
C 6.05785 0.80254 0.03368
C 7.34756 19.87502 -0.01142
C 4.82519 0.07549 -0.02929
C 8.53214 32.06323 -0.03337
C 8.51066 30.69763 0.01227
C 7.2562 29.88018 0.00873
C 7.26925 28.50681 -0.00049
C 8.54713 27.74386 0.00848
C 8.5951 26.35147 -0.01303
C 7.42792 25.58794 -0.01378
C 7.34785 24.15934 0.02635
C 8.65168 23.45859 0.0127
C 8.63768 22.01683 0.01396
C 7.26024 32.77995 -0.00966
C 3.53468 32.00904 0.00828
C 18.55312 19.29999 0.04892
C 17.36126 17.03009 -0.03557
C 29.58601 12.67817 -0.00971
C 29.5391 11.27248 0.01518
C 30.76745 10.58796 0.01908
C 30.74682 9.2091 0.07705
C 29.55101 8.52841 0.0103
C 29.51925 7.0589 0.02108
C 30.77286 6.34434 0.00716
C 30.75825 4.95868 0.00307
C 29.54624 4.30198 0.00346
C 29.55358 2.82021 0.01713
C 30.72225 2.08117 -0.01694
C 30.75016 0.66476 0.01428
C 29.47694 33.98961 -0.02142
C 31.83073 32.57466 0.0544
C 33.05139 31.86173 0.00026
C 33.05855 30.5083 0.00682
C 31.81735 29.80016 -0.01779
C 31.78922 28.381 0.03794
C 33.10067 27.65727 0.01927
C 32.98638 26.24505 0.01574
C 31.64179 25.56082 -0.02383
C 30.74972 13.40378 -0.03735
C 30.57105 14.9486 -0.00944
C 30.25336 26.31193 -0.02155
C 30.56169 27.6706 -0.01461
C 28.23567 27.45907 0.01799
C 28.69708 26.17611 0.01699
C 28.69931 14.83377 -0.00416
C 28.36269 13.51919 0.01177
C 27.15099 12.76368 0.04266
C 27.09314 11.35492 0.01324
C 28.24604 10.57322 0.0014
C 28.24974 9.19218 0.00924
C 27.00809 8.52219 0.02326
C 27.11643 7.11443 0.00261
C 31.71547 24.1969 -0.01429
C 28.32743 6.41238 0.03265
C 27.08665 4.23803 -0.01854
C 27.1156 2.90915 -0.01415
C 28.3048 2.13976 -0.03039
C 28.30643 0.67975 0.01836
C 27.07685 0.0171 0.03531
C 29.46717 32.59454 -0.00669
C 30.68995 31.92009 0.0101
C 30.64017 30.47802 0.01705
C 29.40237 29.79961 -0.0405
C 29.34639 28.45598 -0.01303
C 28.37446 5.00848 -0.02049
C 26.97743 28.26083 0.01259
C 32.96201 23.44027 -0.0136
C 33.17326 17.82694 -0.02474
C 1.18946 21.9479 0.02712
C 34.38035 21.16941 -0.02213
C 34.24114 19.70397 0.01951
C 1.10949 19.21766 -0.01678
C 1.17094 17.7583 0.01223
C 34.31797 17.05869 0.00648
C 34.43077 15.60411 0.02114
C 1.17861 14.95133 -0.02957
C 1.12982 13.5245 0.00343
C 34.40916 12.80177 -0.02656
C 34.4174 11.36672 -0.02442
C 1.14999 10.64421 -0.00027
C 1.16129 9.21391 -0.00583
C 34.38981 8.46725 -0.02302
C 34.38462 7.04366 -0.02849
C 1.20871 6.36978 0.02931
C 1.22752 4.94912 0.00628
C 0.00213 4.25672 -0.0345
C 0.0221 2.82698 -0.00931
C 1.21743 2.13191 -0.00939
C 1.10874 0.73898 -0.00468
C 1.14422 23.40202 0.00723
C 34.29459 24.12051 0.03076
C 34.28819 25.42767 -0.05239
C 1.09553 26.20614 -0.00598
C 31.7048 15.43038 0.00369
C 33.17297 14.97584 0.00455
C 33.19939 13.50554 -0.00644
C 31.94699 12.71222 -0.01839
C 31.9821 11.33632 0.00137
C 33.26289 10.66814 0.00199
C 33.22993 9.22841 0.04381
C 31.96423 8.55321 0.02806
C 32.01613 7.05824 0.01504
C 33.18636 6.39793 -0.00069
C 33.30373 22.05045 0.00594
C 33.21124 4.98948 0.04926
C 31.98431 2.78162 0.00349
C 33.18339 2.10441 -0.00323
C 33.14614 0.66836 -0.00841
C 31.9553 33.98184 0.0001
C 34.35584 32.59042 -0.02927
C 1.15431 31.90184 -0.01404
C 1.15203 30.5129 0.01027
C 34.3014 29.82733 0.01831
C 34.32815 28.34972 -0.01037
C 1.09905 27.74655 -0.00439
C 32.03683 4.2739 -0.03838
C 26.97834 29.77699 0.01495
C 28.16787 30.4783 0.00235
C 28.15868 31.827 0.01094
C 20.89533 19.16477 0.00096
C 20.97989 17.68261 -0.01527
C 19.74684 17.0804 0.01087
C 19.70604 15.66546 0.00199
C 20.88202 14.95105 0.01511
C 20.95662 13.537 -0.00478
C 19.7252 12.79243 -0.01662
C 19.71608 11.38385 -0.01185
C 20.86182 10.65928 0.01126
C 20.89251 9.1856 0.01852
C 19.66356 8.48631 -0.00381
C 19.69268 7.11808 0.03046
C 20.94638 6.41226 0.0296
C 20.96602 4.98886 0.03374
C 19.73342 4.2012 -0.02845
C 19.74023 2.78457 -0.03213
C 20.99889 2.08575 0.02239
C 20.88436 0.68454 0.01153
C 19.65024 34.07158 0.02734
C 22.0838 32.65574 -0.0055
C 23.25408 31.92345 0.01515
C 19.76198 20.07046 0.01277
C 19.71848 21.66002 -0.02422
C 21.143 22.36334 -0.01721
C 20.50384 26.28289 -0.01154
C 17.30455 15.59959 0.03754
C 18.49907 14.94128 0.01739
C 18.46014 13.53664 0.00755
C 17.16685 12.77329 -0.0054
C 17.27656 11.30551 0.00667
C 18.50611 10.63712 0.00143
C 18.4333 9.25899 -0.017
C 17.20302 8.44083 0.00364
C 17.20903 7.09847 -0.00831
C 18.45914 6.44268 -0.02957
C 23.34746 30.50707 -0.00225
C 18.48965 4.95554 -0.04422
C 17.25854 2.81228 -0.00703
C 18.41816 2.01705 -0.04076
C 18.40154 0.67604 -0.00652
C 17.14668 34.07564 0.0058
C 19.64891 32.62848 -0.00865
C 20.88769 31.93981 0.00675
C 20.86299 30.57109 -0.00311
C 19.57604 29.89217 0.00742
C 19.50558 28.53224 -0.01594
C 20.73835 27.70298 0.0106
C 17.29487 4.21606 0.00654
C 22.09435 29.74346 0.00071
C 22.06306 28.41517 -0.01107
C 23.1997 27.64262 -0.01586
C 24.45134 29.73802 0.04306
C 24.46656 28.34029 0.00996
C 25.75784 27.59485 0.00195
C 25.45121 26.12108 -0.00802
C 24.36218 25.45188 -0.00218
C 24.78664 15.30732 -0.01654
C 25.98522 14.9107 -0.00037
C 25.90206 13.36949 -0.0032
C 24.60601 12.71566 0.00622
C 24.54518 11.35678 -0.02815
C 25.71592 30.49011 0.00367
C 25.76612 10.69755 -0.00942
C 24.6752 8.51316 0.00826
C 24.68896 7.09613 -0.00294
C 25.85726 6.37733 0.00152
C 25.85438 4.9195 0.01257
C 24.6676 4.28073 0.02316
C 24.64016 2.85622 0.04185
C 25.8394 2.17379 0.00194
C 25.86022 0.71825 -0.00621
C 24.6904 34.06791 0.02611
C 27.04273 32.6495 0.02198
C 25.84492 9.26088 0.00487
C 18.48837 17.76702 -0.00111
C 25.70268 31.90035 -0.01679
C 22.21393 34.03491 0.00684
C 23.09705 26.20511 -0.01971
C 21.76033 25.51834 -0.02118
C 22.24388 23.96787 0.00733
C 23.60255 23.67477 -0.00178
C 22.03227 21.14555 0.00768
C 22.14542 19.88964 -0.0276
C 22.21118 17.04159 0.03005
C 22.09504 15.67066 -0.04078
C 23.43508 14.85757 0.02117
C 23.3893 13.44137 0.02737
C 24.52325 32.62668 -0.01052
C 22.15064 12.80772 -0.00498
C 23.34359 10.52709 0.03102
C 23.36961 9.17655 0.02555
C 22.10421 8.54131 0.01423
C 22.17839 7.14203 -0.00285
C 23.39746 6.35969 -0.009
C 23.36981 4.96312 -0.01199
C 22.17235 4.19183 -0.00229
C 22.1745 2.81997 -0.00938
C 23.47278 2.10908 -0.0264
C 23.43782 0.706 -0.01154
C 22.15456 11.30415 0.00135
C 2.32339 32.69583 0.00088
