378
Graphene
C 34.30078 0.03149 0.01295
C 13.45389 27.79973 0.01416
C 13.49386 26.31953 0.03542
C 12.21579 25.57807 0.02299
C 12.24496 24.1347 0.00244
C 13.4756 23.44231 -0.01717
C 13.53096 22.02665 0.05265
C 12.3244 21.40457 -0.01952
C 12.262 19.97077 -0.02813
C 13.33016 19.16801 0.00374
C 12.94697 6.3437 0.00052
C 13.41995 5.02572 -0.03682
C 12.27337 4.14152 0.01965
C 12.34161 2.79372 0.02058
C 13.60954 2.06478 -0.01957
C 13.53514 0.65053 -0.0108
C 12.25649 34.05118 -0.00368
C 14.74315 32.64918 -0.02696
C 16.02123 31.92444 -0.00114
C 15.88764 30.55492 0.00228
C 12.18884 28.48098 0.01945
C 12.25785 29.86017 -0.01454
C 13.46141 30.6138 0.01241
C 13.4846 31.95855 0.0076
C 11.12232 26.3649 -0.02245
C 9.83216 25.66113 -0.00428
C 9.79593 24.19877 0.03101
C 11.02124 23.49138 -0.01536
C 11.1293 22.10443 -0.02689
C 9.91296 21.41901 -0.01046
C 9.85228 20.01496 -0.00891
C 11.05366 19.24807 0.02819
C 10.89562 17.91666 0.00165
C 14.71297 29.81983 0.00798
C 9.78804 17.1786 -0.02971
C 10.22192 6.98692 -0.01789
C 11.49389 6.31935 0.00444
C 11.12171 4.93859 -0.00925
C 9.81316 4.29016 0.01877
C 9.80127 2.8377 0.01363
C 11.06557 2.13716 -0.02162
C 11.08734 0.71719 0.00415
C 9.79078 0.04649 -0.0014
C 12.19501 32.63406 0.02162
C 9.88896 8.36787 0.02894
C 10.95171 27.77367 0.00985
C 14.77037 28.40901 0.00422
C 15.93272 26.27018 -0.03113
C 18.45506 22.1091 0.02188
C 17.1182 21.48694 -0.01979
C 17.13349 19.98704 0.02691
C 18.32268 19.19697 -0.01581
C 18.41533 17.69647 0.01452
C 17.16289 7.03826 0.04892
C 18.37442 6.26278 -0.00111
C 18.49803 4.91739 -0.03557
C 17.18081 4.16712 0.03754
C 17.19146 2.80265 0.01739
C 18.45623 2.02668 0.00755
C 18.44016 0.62494 -0.0054
C 17.26657 34.03537 0.00667
C 19.67563 32.67095 0.00143
C 20.86648 31.96469 -0.017
C 20.80972 30.48402 0.00364
C 19.62743 29.7964 -0.00831
C 19.82789 28.40657 -0.02957
C 19.55543 21.27892 -0.04422
C 18.38203 23.57295 -0.00316
C 17.06388 24.06817 -0.0331
C 17.12112 25.52955 -0.0258
C 18.41603 26.10821 0.03338
C 14.66673 25.63754 0.02098
C 14.65736 24.21808 0.01848
C 15.76439 23.37467 -0.00619
C 15.90891 21.97252 -0.02162
C 14.73419 21.1896 0.00889
C 14.71209 19.72311 -0.00481
C 16.01474 19.19858 0.00979
C 16.06112 6.32863 0.01443
C 15.92108 4.95987 0.03505
C 15.94828 27.72176 0.0351
C 14.69651 4.21553 -0.02815
C 15.95802 2.10266 -0.05302
C 16.02399 0.7001 0.00213
C 14.77578 34.0625 -0.00066
C 17.2608 32.61814 -0.00289
C 18.42864 31.93322 0.00028
C 18.35163 30.52588 -0.02213
C 17.16661 29.7485 0.03698
C 17.25429 28.35764 -0.00109
C 18.61023 27.5936 -0.00491
C 14.71584 2.77138 -0.04147
C 9.79201 28.43081 -0.01275
C 9.78799 29.85343 -0.01111
C 11.0457 30.56431 0.02841
C 3.59309 0.73296 -0.01343
C 2.39499 0.05786 0.00988
C 4.91435 32.66727 0.0276
C 6.13827 31.94448 0.01305
C 6.04699 30.54938 -0.00077
C 4.84168 29.89241 0.03368
C 4.84713 28.50752 -0.02929
C 6.11248 27.72798 -0.00966
C 6.10152 26.34924 -0.03337
C 4.90222 25.60894 0.01227
C 4.86918 24.19413 0.00873
C 6.08272 23.51722 -0.00049
C 6.09359 22.06469 0.00848
C 4.86841 21.35039 -0.01303
C 4.87832 19.92451 -0.01378
C 6.10924 19.20323 0.02635
C 6.1256 17.78309 0.0127
C 4.91884 17.02133 0.01396
C 4.98021 15.55878 0.01849
C 3.61192 2.14949 0.01087
C 2.42328 2.9681 -0.05697
C 2.37208 4.42482 -0.00725
C 3.56174 5.15444 0.02322
C 3.59409 30.65086 -0.01509
C 2.37375 29.89418 0.03267
C 2.45253 28.46428 0.02374
C 3.65758 27.70394 0.00402
C 3.6793 26.29763 0.0073
C 2.40103 25.60826 0.0174
C 2.40728 24.24397 0.03828
C 3.62585 23.66507 0.01226
C 3.75745 22.14174 -0.00279
C 6.16065 14.85846 -0.01142
C 2.42753 21.36832 0.01996
C 3.6429 19.23744 0.01465
C 3.6523 17.77687 -0.00074
C 2.47701 16.98417 -0.00518
C 2.506 15.49528 0.0086
C 3.82067 14.76111 -0.00643
C 3.80726 13.16191 0.017
C 2.44856 12.48853 -0.03113
C 2.29455 7.3969 -0.02566
C 3.58191 6.58919 -0.00094
C 2.43615 19.99321 -0.03996
C 6.316 13.45584 -0.00562
C 5.38375 12.31863 -0.00494
C 6.0603 11.2134 0.00054
C 8.57179 17.86763 -0.00191
C 7.35957 17.17319 0.00438
C 7.40416 15.69209 0.01291
C 8.56815 15.05104 0.00093
C 8.79803 13.69596 0.00057
C 7.62854 12.88011 -0.01634
C 7.48732 11.38602 -0.00334
C 8.52651 10.55397 0.02339
C 8.81753 9.18502 0.01641
C 8.58838 19.30065 0.00373
C 7.40271 8.6534 -0.00719
C 8.79981 6.45149 -0.01062
C 8.63615 5.06748 -0.00033
C 7.38027 4.32225 0.03589
C 7.37294 2.88596 -0.02759
C 8.57894 2.15898 0.0402
C 8.55208 0.7982 0.00572
C 7.3355 0.0699 0.03592
C 9.78889 32.70413 0.00406
C 10.99309 31.96416 0.00943
C 7.52207 7.22705 0.01364
C 19.53681 19.87018 0.00654
C 7.27651 19.99989 0.02147
C 8.57185 22.10167 -0.01118
C 5.98325 9.54282 0.03007
C 4.97964 8.69955 -0.00095
C 4.89722 7.2893 0.01572
C 6.22882 6.53427 -0.04848
C 6.09632 5.04514 -0.00892
C 4.80801 4.42535 -0.01362
C 4.80478 2.9597 -0.0008
C 6.07275 2.29686 0.0288
C 6.07861 0.797 0.00393
C 7.37897 21.41245 -0.014
C 4.87106 0.04604 0.00895
C 8.52062 32.08664 0.02888
C 8.53906 30.65412 -0.00482
C 7.27219 29.92216 -0.01384
C 7.33502 28.4687 0.03693
C 8.56711 27.79478 0.01745
C 8.60374 26.37955 0.00488
C 7.36638 25.69242 -0.01004
C 7.3131 24.14904 -0.02896
C 8.5445 23.50875 -0.00131
C 7.32327 32.74683 0.00685
C 20.82044 19.18432 -0.00703
C 20.86214 17.75513 -0.04076
C 19.65406 17.09623 -0.00652
C 29.53982 2.87042 0.02108
C 30.72694 2.06629 0.00716
C 30.64062 0.66764 0.00307
C 29.42137 34.02269 0.00346
C 31.89739 32.73935 0.01713
C 33.08625 31.94206 -0.01694
C 33.14012 30.54069 0.01428
C 31.90788 29.89897 -0.02142
C 31.90062 28.48722 0.0544
C 33.18044 27.71954 0.00026
C 33.20793 26.33623 0.00682
C 32.02355 25.62046 -0.01779
C 32.05247 24.1384 0.03794
C 33.21068 23.41744 0.01927
C 33.19165 22.01712 0.01574
C 31.8953 21.32552 -0.02383
C 31.85941 19.91477 -0.01429
C 33.09419 19.19147 -0.0136
C 33.1913 17.73986 0.00594
C 29.4564 4.27152 0.0103
C 30.63933 4.9473 0.07705
C 30.77334 6.3567 0.01908
C 29.51087 7.13187 0.01518
C 29.33633 28.37308 0.00924
C 30.62909 27.82416 0.02326
C 30.79782 26.37635 0.00261
C 29.58152 25.57017 0.03265
C 29.56208 24.22517 -0.02049
C 30.82692 23.48906 -0.01854
C 30.70085 22.08887 -0.01415
C 29.37443 21.3519 -0.03039
C 29.42133 19.97536 0.01836
C 31.97073 17.06322 -0.02474
C 30.6705 19.24361 0.03531
C 29.54089 17.01674 0.0101
C 29.50599 15.59026 0.01705
C 30.73792 14.93107 -0.0405
C 30.69793 13.45658 -0.01303
C 29.45885 12.70934 -0.01461
C 29.47103 11.33839 -0.02155
C 30.73803 10.729 -0.00944
C 30.7709 9.22335 -0.03735
C 29.5031 8.54754 -0.00971
C 30.72224 17.80187 -0.00669
C 31.99306 15.67774 0.00369
C 33.19092 14.90791 0.00455
C 33.16767 13.48173 -0.00644
C 34.38881 21.30235 -0.02213
C 34.36264 19.8759 0.01951
C 1.21349 19.2248 -0.01678
C 1.23658 17.78373 0.01223
C 0.00257 17.08006 0.00648
C 0.00678 15.54719 0.02114
C 1.30398 14.85677 -0.02957
C 1.31385 13.37206 0.00343
C 0.0232 12.83794 -0.02656
C 1.18217 22.03672 0.02712
C 0.15232 11.26141 -0.02442
C 1.41012 9.09074 -0.00583
C 0.02338 8.5463 -0.02302
C 34.31751 7.0407 -0.02849
C 1.17048 6.51134 0.02931
C 1.17826 5.04144 0.00628
C 34.31098 4.28243 -0.0345
C 34.38056 2.83526 -0.00931
C 1.16572 2.1467 -0.00939
C 1.11843 0.75513 -0.00468
C 1.46937 10.66997 -0.00027
C 29.44086 29.78022 0.0014
C 1.16917 23.48661 0.00723
C 34.40588 25.57617 -0.05239
C 31.95212 12.76306 -0.01839
C 32.03373 11.38693 0.00137
C 33.26508 10.63713 0.00199
C 33.22579 9.28106 0.04381
C 31.96428 8.55236 0.02806
C 31.9621 7.15384 0.01504
C 33.07886 6.34467 -0.00069
C 33.16039 4.9853 0.04926
C 31.91724 4.29147 -0.03838
C 34.40927 24.1602 0.03076
C 31.98081 2.79241 0.00349
C 33.12862 0.7559 -0.00841
C 31.86959 0.00321 0.0001
C 34.39857 32.7123 -0.02927
C 1.1884 32.02315 -0.01404
C 1.13852 30.63402 0.01027
C 34.3555 29.87376 0.01831
C 34.38841 28.48147 -0.01037
C 1.15417 27.81704 -0.00439
C 1.16843 26.3638 -0.00598
C 33.17919 2.09719 -0.00323
C 3.6167 32.08682 0.00643
C 30.67311 30.50055 0.01324
C 29.44497 32.66001 0.01177
C 22.02961 12.72103 0.03374
C 22.12562 11.2323 -0.02845
C 23.41297 10.56098 -0.03213
C 23.35333 9.06821 0.02239
C 22.0362 8.45204 0.01153
C 22.13022 7.02677 0.02734
C 23.33701 6.30975 -0.0055
C 23.35606 4.8885 0.01515
C 22.14927 4.1967 -0.00225
C 22.10104 2.78584 0.00071
C 23.37879 2.12574 -0.01107
C 23.36325 0.64548 -0.01586
C 22.09712 33.99606 -0.01971
C 24.48613 32.53929 -0.02118
C 25.77212 31.91295 0.00733
C 25.79107 30.49368 -0.00178
C 24.65643 29.74866 0.00768
C 24.63192 19.8431 -0.0276
C 25.79557 19.07139 0.03005
C 23.33869 13.42487 0.0296
C 23.31633 14.89623 0.03046
C 21.94232 15.68172 -0.00381
C 22.10469 17.10408 0.01852
C 20.94601 14.84238 0.0058
C 20.84914 13.52944 -0.00865
C 20.87559 10.57951 0.00675
C 20.80229 9.18741 -0.00311
C 19.64616 8.34597 0.00742
C 19.63728 6.96802 -0.01594
C 20.92 6.2718 0.0106
C 20.88704 4.8554 -0.01154
C 19.68219 4.2102 -0.01721
C 25.73221 17.65294 -0.04078
C 19.65398 2.85603 -0.02422
C 20.86997 0.64348 0.00096
C 19.64882 34.01132 -0.01527
C 22.08132 32.58153 0.01087
C 23.28498 31.75039 0.00199
C 23.33279 30.32058 0.01511
C 21.95416 29.74294 -0.00478
C 22.02362 19.92087 -0.01662
C 23.36775 19.22826 -0.01185
C 23.30882 17.8414 0.01126
C 20.8343 2.05793 0.01277
C 24.52301 17.00202 0.02117
C 24.47193 15.6099 0.02737
C 25.69529 14.88934 -0.00498
C 27.03653 19.92394 -0.02815
C 28.31785 19.11384 -0.00942
C 28.24758 17.6946 0.00487
C 27.03665 16.97496 0.00826
C 27.03487 15.57107 -0.00294
C 28.24227 14.8865 0.00152
C 28.23824 13.43643 0.01257
C 26.98558 12.75951 0.02316
C 27.02434 11.27915 0.04185
C 26.92412 21.31995 0.00622
C 28.23453 10.57859 0.00194
C 27.00103 8.52091 0.02611
C 27.12617 7.11535 0.02198
C 28.22103 6.33089 0.01094
C 28.24466 4.96463 0.00235
C 26.93304 4.19165 0.01495
C 27.019 2.77977 0.01259
C 28.239 2.16507 0.01799
C 28.22386 0.74741 0.01699
C 27.03023 34.07748 -0.00416
C 28.28824 9.18173 -0.00621
C 30.63358 31.98638 0.04266
C 28.09383 22.12558 -0.0032
C 28.37301 26.09316 -0.01654
C 25.71908 13.48443 0.00135
C 24.54904 12.70689 0.03102
C 24.56847 11.34529 0.02555
C 25.73301 10.58977 0.01423
C 25.78932 9.20074 -0.00285
C 24.5709 8.40788 -0.009
C 24.51195 7.05837 -0.01199
C 25.8027 6.36716 -0.00229
C 25.83518 5.0098 -0.00938
C 28.35881 23.62473 -0.00037
C 24.65924 4.21806 -0.0264
C 25.83678 2.02237 0.00684
C 25.76085 0.62089 -0.01052
C 24.50827 33.95338 -0.01679
C 26.9562 32.66166 0.00367
C 28.19412 31.95294 0.04306
C 28.29751 30.51953 0.00996
C 27.04968 29.77773 0.00195
C 26.93571 28.35749 -0.00802
C 28.17957 27.54764 -0.00218
C 24.58757 2.75637 -0.01154
C 2.37917 32.73322 0.00907
