334
Graphene
C 34.39747 0.08276 0.01295
C 14.73428 21.26303 0.01443
C 14.76889 19.79461 0.03505
C 15.67123 18.97446 -0.02815
C 16.58314 18.14104 -0.04147
C 16.18012 9.43569 -0.05302
C 14.73692 6.99389 0.00213
C 15.96139 6.34214 -0.00066
C 15.96063 21.91879 0.00979
C 15.97028 4.9333 -0.00289
C 14.78476 2.75501 -0.02213
C 16.0195 2.07964 0.03698
C 16.0444 0.71864 -0.00109
C 14.77986 0.05119 -0.00491
C 17.24519 32.69254 0.03338
C 18.51741 31.93908 -0.0258
C 18.4763 30.55759 -0.0331
C 14.69637 4.23972 0.00028
C 15.84107 23.34616 -0.00481
C 14.68166 24.12611 0.00889
C 14.79847 25.47572 -0.02162
C 12.23414 21.2369 0.00052
C 12.24387 19.91685 -0.03682
C 13.48913 19.4248 0.01965
C 13.51331 6.56004 0.02058
C 13.4583 5.07219 -0.01957
C 12.246 4.40653 -0.0108
C 12.30365 2.91274 -0.00368
C 13.51931 2.11754 -0.02696
C 13.59008 0.7377 -0.00114
C 12.36313 0.04971 0.00228
C 14.76794 32.64821 0.00798
C 16.02715 31.93442 0.00422
C 16.02643 30.51946 0.0351
C 14.7728 29.78131 -0.03113
C 14.80924 28.43409 0.02098
C 16.02954 27.57906 0.01848
C 16.00025 26.08618 -0.00619
C 17.18702 29.82069 -0.00316
C 17.30895 28.36551 0.02188
C 18.54138 27.53876 -0.01979
C 18.39087 26.25552 0.02691
C 19.73275 29.79411 -0.00865
C 19.72314 28.33137 0.00675
C 20.92104 27.738 -0.00311
C 19.58897 15.49393 0.00742
C 20.91412 15.05246 -0.01594
C 20.84993 13.56042 0.0106
C 19.58683 12.81938 -0.01154
C 19.63161 11.40708 -0.01721
C 20.8899 10.71492 -0.02422
C 20.89851 9.2172 0.01277
C 19.65922 8.55355 0.00096
C 19.68213 7.14038 -0.01527
C 20.91712 6.39628 0.01087
C 20.94163 5.02679 0.00199
C 19.70132 4.22391 0.01511
C 19.69936 2.83746 -0.00478
C 20.9075 2.11016 -0.01662
C 20.89686 30.50037 0.0058
C 13.46654 21.97163 0.00374
C 20.9101 31.95635 -0.00652
C 17.26076 34.07444 -0.00703
C 17.22693 25.5255 -0.01581
C 16.75324 16.81815 0.01452
C 17.44133 15.79253 0.04892
C 18.47179 14.92027 -0.00111
C 18.30444 13.52963 -0.03557
C 17.05757 12.80653 0.03754
C 17.23813 11.41351 0.01739
C 18.36237 10.63158 0.00755
C 18.43478 9.27342 -0.0054
C 17.1732 8.53061 0.00667
C 17.08808 7.05964 0.00143
C 18.38448 6.38284 -0.017
C 18.45182 4.98178 0.00364
C 17.27268 4.20538 -0.00831
C 17.285 2.81949 -0.02957
C 18.48988 2.1011 -0.04422
C 18.48187 0.69898 0.00654
C 19.65694 32.72237 -0.04076
C 13.52988 23.37715 -0.02813
C 12.29617 24.10124 -0.01952
C 12.30291 25.52406 0.05265
C 6.12673 31.93032 -0.02896
C 6.15467 30.51581 -0.00131
C 4.89154 29.85611 -0.01118
C 4.91857 28.47329 -0.014
C 6.18665 27.64391 0.02147
C 6.05849 26.22046 0.00373
C 4.82305 25.53016 -0.00191
C 4.82257 24.07058 0.00438
C 6.04539 23.34732 0.01291
C 6.0264 21.86223 0.00093
C 4.72631 21.16234 0.00057
C 6.17832 4.94964 -0.01634
C 4.92674 4.36044 -0.00334
C 4.88889 2.88483 0.02339
C 6.14514 2.18122 0.01641
C 6.1472 0.74962 -0.00719
C 4.91763 0.10027 0.01364
C 4.90776 32.68986 -0.01004
C 7.35883 32.70768 -0.01062
C 2.44063 0.11852 0.00488
C 3.62706 2.19083 0.03693
C 3.66737 30.61712 -0.00562
C 2.49179 29.92396 -0.00494
C 2.4914 28.4268 0.00054
C 3.71705 27.71626 0.03007
C 3.67333 26.31004 -0.00095
C 2.485 25.6012 0.01572
C 2.42933 24.19698 -0.04848
C 3.5896 23.45033 -0.00892
C 3.67152 22.01832 -0.01362
C 2.48404 21.23083 -0.0008
C 2.61055 19.87848 0.0288
C 3.9995 19.46042 0.00393
C 2.49084 6.8819 0.00895
C 3.62678 6.33998 0.00685
C 3.7297 5.00099 0.02888
C 2.48246 4.34102 -0.00482
C 2.40148 2.82389 -0.01384
C 3.66684 0.76956 0.01745
C 20.92735 0.70934 -0.01185
C 8.59367 32.03801 -0.00033
C 7.31045 29.84132 -0.02759
C 9.82451 24.15142 0.00444
C 10.9944 23.44823 -0.00925
C 11.04654 22.03105 0.01877
C 9.81026 21.42097 0.01363
C 11.00832 4.94131 -0.02162
C 9.86228 4.27698 0.00415
C 9.81968 2.87605 -0.0014
C 11.09492 2.26196 0.02162
C 11.11104 0.73294 0.0076
C 9.87576 0.03488 0.01241
C 12.32722 32.62643 -0.01454
C 13.54339 31.9434 0.01945
C 13.52488 30.5288 0.01416
C 12.23641 29.81881 0.03542
C 12.34822 28.37809 0.02299
C 13.57564 27.67041 0.00244
C 13.54476 26.19168 -0.01717
C 9.83466 25.50369 -0.01789
C 8.60231 30.61603 0.03589
C 11.01539 26.29225 0.02894
C 9.83306 28.38614 0.00165
C 7.39042 28.34394 0.0402
C 8.67615 27.69717 0.00572
C 8.56592 26.17191 0.03592
C 7.30476 25.45711 0.00406
C 7.31129 24.06686 0.00943
C 8.54047 23.45487 0.02841
C 8.4919 21.96306 -0.01111
C 7.27692 21.3773 -0.01275
C 7.30468 4.27545 0.00985
C 7.41372 2.86883 -0.02245
C 8.64167 2.19562 -0.00428
C 8.64459 0.77231 0.03101
C 7.38504 0.09903 -0.01536
C 9.83155 32.73344 -0.02689
C 11.03045 31.98413 -0.01046
C 11.01446 30.5482 -0.00891
C 9.81448 29.80739 0.02819
C 11.08316 27.69256 -0.02971
C 19.70797 0.01744 0.01126
C 22.09942 32.61292 0.01852
C 23.35878 31.97655 -0.00381
C 33.23239 31.99143 0.0544
C 33.2329 30.58362 0.00026
C 31.96271 29.84483 0.00682
C 32.00365 28.42931 -0.01779
C 33.1989 27.69857 0.03794
C 33.23627 26.32554 0.01927
C 32.0028 25.58746 0.01574
C 31.94761 24.12642 -0.02383
C 33.17794 23.42885 -0.01429
C 33.14753 22.02402 -0.0136
C 31.99262 21.27734 0.00594
C 31.90016 19.79474 -0.02474
C 33.14024 19.16793 0.00369
C 33.17153 17.73817 0.00455
C 31.93427 17.06403 -0.00644
C 31.93451 15.6935 -0.01839
C 33.15621 14.96308 0.00137
C 31.9138 32.74485 -0.02142
C 33.29715 13.56945 0.00199
C 29.45015 0.00037 0.01428
C 30.69721 2.10877 0.01713
C 29.49016 19.91143 0.0101
C 30.69169 19.16972 0.01705
C 30.64706 17.79559 -0.0405
C 29.43495 17.05317 -0.01303
C 29.43103 15.57231 -0.01461
C 30.75448 14.94702 -0.02155
C 30.72761 13.49155 -0.00944
C 29.52625 12.77862 -0.03735
C 29.54525 11.31409 -0.00971
C 30.80321 10.66454 0.01518
C 30.78802 9.25628 0.01908
C 29.54317 8.4998 0.07705
C 29.52541 7.12501 0.0103
C 30.71207 6.41385 0.02108
C 30.6949 4.98258 0.00716
C 29.51135 4.22571 0.00307
C 29.46046 2.82962 0.00346
C 30.68786 0.71722 -0.01694
C 29.47958 21.31126 -0.00669
C 32.03079 12.85017 0.04381
C 33.27107 10.57669 0.01504
C 34.35451 21.29591 0.01223
C 34.39549 19.90178 0.00648
C 1.31851 19.20978 0.02114
C 1.12637 17.85179 -0.02957
C 0.17981 16.84063 0.00343
C 0.08347 15.58479 -0.02656
C 34.35714 12.72574 -0.02442
C 34.40462 11.34567 -0.00027
C 1.16074 9.29012 -0.00583
C 0.07725 8.49627 -0.02302
C 0.05576 6.98828 -0.02849
C 1.202 6.41066 0.02931
C 1.1928 5.01719 0.00628
C 34.37641 4.27198 -0.0345
C 34.36614 2.92136 -0.00931
C 1.18114 2.21286 -0.00939
C 1.19345 0.81033 -0.00468
C 1.22867 22.0335 -0.01678
C 32.01405 11.40973 0.02806
C 1.24752 23.43767 0.01951
C 34.39352 25.61082 0.02712
C 33.28044 9.23746 -0.00069
C 32.00934 8.49088 0.04926
C 31.91222 7.06982 -0.03838
C 33.20008 6.35885 0.00349
C 33.09887 4.95573 -0.00323
C 31.87941 4.28165 -0.00841
C 31.92323 2.87825 0.0001
C 33.12372 2.14523 -0.02927
C 33.18026 0.79136 -0.01404
C 31.92066 0.00987 0.01027
C 0.00227 32.72949 0.01831
C 1.19375 32.03174 -0.01037
C 1.27005 30.61244 -0.00439
C 0.00144 29.87055 -0.00598
C 34.3909 28.49563 -0.05239
C 1.24695 27.77282 0.03076
C 1.24537 26.30183 0.00723
C 0.01332 24.14542 -0.02213
C 3.63193 32.03418 -0.01142
C 30.78862 22.05306 0.03531
C 29.45447 24.02852 -0.03039
C 25.88749 30.47886 -0.04078
C 24.58999 29.81694 0.02117
C 24.56166 28.38473 0.02737
C 25.7192 27.59841 -0.00498
C 25.76792 26.27858 0.00135
C 24.56428 15.50507 0.03102
C 25.81292 15.10072 0.02555
C 25.8279 13.50109 0.01423
C 24.53529 12.79531 -0.00285
C 24.56492 11.39965 -0.009
C 25.79428 10.6038 -0.01199
C 25.78829 9.17471 -0.00229
C 24.56249 8.43475 -0.00938
C 24.515 7.01513 -0.0264
C 25.7627 6.37628 -0.01154
C 25.80829 4.97011 0.00684
C 24.57548 4.28504 -0.01052
C 25.77893 31.88337 0.03005
C 24.5563 2.86343 -0.01679
C 24.59337 32.70456 -0.0276
C 23.41119 0.73847 -0.00178
C 23.41725 30.55265 0.03046
C 22.18335 29.85416 0.0296
C 22.18848 28.34665 0.03374
C 23.37801 27.60124 -0.02845
C 23.30517 14.90044 -0.03213
C 23.25971 13.51949 0.02239
C 22.03245 12.79005 0.01153
C 22.09616 11.45884 0.02734
C 23.36236 10.71226 -0.0055
C 23.31685 9.24667 0.01515
C 22.0674 8.47452 -0.00225
C 22.0698 7.13809 0.00071
C 23.35 6.40806 -0.01107
C 23.33486 4.98457 -0.01586
C 22.0944 4.2262 -0.01971
C 22.12515 2.81059 -0.02118
C 23.36559 2.15446 0.00733
C 22.15162 0.03141 0.00768
C 30.67065 23.37803 0.01836
C 25.74039 2.14887 0.00367
C 24.59159 0.05374 0.00996
C 27.02906 8.50125 0.00235
C 27.00683 7.03111 0.01495
C 28.31557 6.42352 0.01259
C 28.26854 4.98652 0.01799
C 27.01599 4.29517 0.01699
C 27.05937 2.82223 -0.00416
C 28.28619 2.12959 0.01177
C 28.23025 0.69157 0.04266
C 26.95038 34.05272 0.01324
C 29.48699 32.62884 0.0014
C 30.64964 31.97317 0.00924
C 30.72873 30.50238 0.02326
C 29.58484 29.747 0.00261
C 29.47321 28.35949 0.03265
C 30.67418 27.66045 -0.02049
C 30.74835 26.25728 -0.01854
C 29.50116 25.43915 -0.01415
C 28.26764 9.21458 0.01094
C 25.76873 0.72299 0.04306
C 28.31161 10.58763 0.02198
C 27.03384 12.76609 -0.00621
C 27.02258 32.59975 0.00195
C 28.25058 31.858 -0.00802
C 28.28152 30.49353 -0.00218
C 27.0313 29.78136 -0.01654
C 26.9673 28.31606 -0.00037
C 28.19172 27.59241 -0.0032
C 28.29171 26.13236 0.00622
C 26.92251 25.53162 -0.02815
C 27.17776 24.21312 -0.00942
C 28.18411 23.29999 0.00487
C 28.29703 21.96615 0.00826
C 28.34979 19.17823 -0.00294
C 28.16515 17.82118 0.00152
C 27.15385 17.01324 0.01257
C 27.07879 15.66872 0.02316
C 28.2276 14.91156 0.04185
C 28.29765 13.43364 0.00194
C 27.02758 11.27833 0.02611
C 2.39942 32.71555 0.01849
