355
Graphene
C 0.01732 0.04197 0.01295
C 14.80364 4.21394 -0.00368
C 14.70114 2.88809 -0.02696
C 15.97587 2.16916 -0.00114
C 16.01123 0.69614 0.00228
C 14.80614 0.05496 0.00798
C 17.22507 32.68731 0.00422
C 18.36531 31.90398 0.0351
C 18.38524 30.49596 -0.03113
C 15.96836 4.84673 -0.0108
C 17.18732 29.77077 0.02098
C 18.51364 27.69969 -0.00619
C 18.48162 26.24673 -0.02162
C 17.26437 25.54714 0.00889
C 17.24427 24.1347 -0.00481
C 18.42605 23.51462 0.00979
C 18.44684 21.97552 0.01443
C 17.2477 21.21061 0.03505
C 17.13347 19.82781 -0.02815
C 17.28684 28.31873 0.01848
C 18.3779 19.14592 -0.04147
C 15.96266 6.43678 -0.01957
C 16.01326 9.17195 0.01965
C 15.94693 32.01957 0.00415
C 15.90485 30.60567 -0.0014
C 14.77693 29.86414 0.02162
C 14.79144 28.42571 0.0076
C 16.02382 27.68563 0.01241
C 16.00793 26.27636 -0.01454
C 14.74753 25.5957 0.01945
C 14.77193 24.137 0.01416
C 14.73605 7.08012 0.02058
C 16.00692 23.53142 0.03542
C 14.76647 21.31125 0.00244
C 15.94353 19.17273 -0.01717
C 16.03185 17.74044 0.05265
C 16.04038 14.89349 -0.01952
C 15.97945 13.56103 -0.02813
C 14.90335 12.60051 0.00374
C 14.71899 11.39697 0.00052
C 15.93371 10.64425 -0.03682
C 15.98835 21.95047 0.02299
C 18.38459 17.72527 -0.05302
C 17.21418 17.01173 0.00213
C 17.29559 15.61434 -0.00066
C 19.66246 24.17545 0.00143
C 20.9313 23.47652 -0.017
C 20.87583 22.09816 0.00364
C 19.67305 21.34742 -0.00831
C 19.65292 19.8232 -0.02957
C 20.89193 19.16083 -0.04422
C 20.90621 17.76537 0.00654
C 19.63607 16.99555 -0.00703
C 19.64932 25.56799 0.00667
C 20.87453 9.247 -0.04076
C 19.72356 7.06738 0.0058
C 20.98204 6.44915 -0.00865
C 20.88962 4.9353 0.00675
C 19.68827 4.26895 -0.00311
C 19.70743 2.82946 0.00742
C 20.94289 2.06416 -0.01594
C 20.83735 0.68697 0.0106
C 19.64131 34.05051 -0.01154
C 19.72615 8.46648 -0.00652
C 20.91238 26.23658 -0.0054
C 20.89527 27.71433 0.00755
C 19.64532 28.41094 0.01739
C 18.39935 14.86961 -0.00289
C 18.37664 13.62274 0.00028
C 17.25068 12.82978 -0.02213
C 17.24436 11.38054 0.03698
C 18.45302 10.56029 -0.00109
C 18.48846 9.21435 -0.00491
C 17.19529 8.54812 0.03338
C 17.22867 7.129 -0.0258
C 18.48618 6.42289 -0.0331
C 18.43845 4.97207 -0.00316
C 17.22198 4.20398 0.02188
C 17.18897 2.811 -0.01979
C 18.45752 2.12907 0.02691
C 18.48988 0.75402 -0.01581
C 17.20121 0.0211 0.01452
C 19.62307 32.65774 0.04892
C 20.85588 31.96383 -0.00111
C 20.87366 30.51881 -0.03557
C 19.59745 29.80906 0.03754
C 14.72934 32.70699 -0.02162
C 22.16603 32.65136 -0.01721
C 12.25834 34.06342 0.01363
C 13.50112 2.07551 -0.00925
C 6.10107 30.51105 -0.00494
C 4.91032 29.76879 0.00054
C 4.87316 28.36518 0.03007
C 6.1779 27.67533 -0.00095
C 6.20626 26.26399 0.01572
C 4.89949 25.60719 -0.04848
C 4.8767 24.05266 -0.00892
C 6.10301 9.25661 -0.01362
C 6.11434 31.9512 -0.00562
C 4.93798 8.59518 -0.0008
C 6.17947 6.34137 0.00393
C 6.1343 4.98879 0.00895
C 4.89529 4.28228 0.00685
C 4.88685 2.86432 0.02888
C 6.14165 2.15171 -0.00482
C 6.14342 0.78635 -0.01384
C 4.9362 34.05105 0.03693
C 7.37207 32.71547 0.01745
C 4.95456 7.12572 0.0288
C 8.6148 31.98341 0.00488
C 4.84761 32.71728 -0.01142
C 3.71326 0.74715 0.01396
C 3.68548 30.50923 0.01087
C 2.4307 29.82157 -0.01343
C 2.39639 28.42827 0.00988
C 3.70806 27.64979 0.0276
C 3.71884 26.29411 0.01305
C 2.45295 25.55931 -0.00077
C 2.55871 24.09618 0.03368
C 3.80181 23.46467 -0.02929
C 2.41753 34.05681 0.01849
C 2.47347 11.46754 -0.00966
C 3.70314 9.28068 0.01227
C 2.48946 8.50587 0.00873
C 2.44558 7.11423 -0.00049
C 3.75913 6.38327 0.00848
C 3.6623 4.94048 -0.01303
C 2.50107 4.23112 -0.01378
C 2.37604 2.8163 0.02635
C 3.65971 2.20332 0.0127
C 3.52714 10.74885 -0.03337
C 8.58834 30.57117 -0.01004
C 7.39787 29.85543 -0.02896
C 7.38663 28.32451 -0.00131
C 9.886 2.8828 0.00943
C 11.07856 2.16916 0.02841
C 11.07133 0.76382 -0.01111
C 9.82742 0.02251 -0.01275
C 12.25929 32.61091 0.00985
C 13.50257 31.93027 -0.02245
C 13.56839 30.53575 -0.00428
C 12.29583 29.80483 0.03101
C 9.84005 4.31775 0.00406
C 12.30311 28.45875 -0.01536
C 13.50278 26.28249 -0.01046
C 12.36291 25.52715 -0.00891
C 12.46993 24.10558 0.02819
C 13.52356 23.54761 0.00165
C 13.54168 6.28561 -0.02971
C 13.50238 4.94203 0.02894
C 12.21137 4.29362 -0.01789
C 12.23601 2.79288 0.00444
C 13.53083 27.70729 -0.02689
C 11.03408 5.02132 0.03592
C 9.82685 25.61813 0.00572
C 11.10639 26.16972 0.0402
C 8.58776 27.73933 -0.01118
C 8.58934 26.2568 -0.014
C 7.38199 25.61649 0.02147
C 8.57048 9.20637 0.00373
C 7.38746 8.58948 -0.00191
C 7.45825 7.12988 0.00438
C 8.58629 6.39761 0.01291
C 8.5729 5.04026 0.00093
C 7.42246 4.27742 0.00057
C 7.39605 2.8915 -0.01634
C 8.60956 2.18924 -0.00334
C 8.63943 0.79365 0.02339
C 7.33852 0.10762 0.01641
C 9.8054 32.7293 -0.00719
C 11.07223 31.98367 0.01364
C 10.99338 30.54148 -0.01062
C 9.83077 29.87273 -0.00033
C 9.86173 28.38988 0.03589
C 11.08282 27.66331 -0.02759
C 13.50305 0.73473 0.01877
C 3.65974 32.00305 -0.05697
C 23.3832 31.95411 -0.02422
C 22.06295 29.79483 0.00096
C 30.67192 2.15484 0.01713
C 30.73819 0.68275 -0.01694
C 29.55696 34.05236 0.01428
C 31.92615 32.71574 -0.02142
C 33.15822 31.97998 0.0544
C 33.26156 30.59076 0.00026
C 32.00568 29.77175 0.00682
C 31.96828 28.39361 -0.01779
C 29.4291 2.82033 0.00346
C 33.21654 27.69555 0.03794
C 31.9413 25.60236 0.01574
C 31.87792 24.14162 -0.02383
C 33.14841 23.43378 -0.01429
C 33.15662 21.9552 -0.0136
C 31.96051 21.35914 0.00594
C 31.92166 19.89578 -0.02474
C 33.22278 19.20593 0.00369
C 33.22446 17.71307 0.00455
C 33.18722 26.27621 0.01927
C 31.97575 17.05787 -0.00644
C 29.56521 4.2352 0.00307
C 30.74021 6.43422 0.02108
C 29.49519 25.54172 -0.01415
C 29.50088 24.14806 -0.03039
C 30.71704 23.44291 0.01836
C 30.67584 22.07607 0.03531
C 29.55326 21.27665 -0.00669
C 29.53006 19.82152 0.0101
C 30.80364 19.14044 0.01705
C 30.74965 17.76381 -0.0405
C 30.7559 5.00288 0.00716
C 29.55224 17.05269 -0.01303
C 30.72256 14.88615 -0.02155
C 30.73541 13.48397 -0.00944
C 29.49664 12.81261 -0.03735
C 29.5573 11.42137 -0.00971
C 30.74835 10.57125 0.01518
C 30.79343 9.18078 0.01908
C 29.56183 8.5302 0.07705
C 29.50859 7.15859 0.0103
C 29.52065 15.56128 -0.01461
C 31.92329 15.63566 -0.01839
C 33.26044 14.83877 0.00137
C 33.14592 13.41925 0.00199
C 1.16157 22.05306 -0.01678
C 0.00352 21.239 0.01223
C 34.3592 19.90286 0.00648
C 34.40901 16.93125 0.02114
C 34.43267 15.6012 -0.02957
C 1.25472 13.47205 0.00343
C 0.02978 12.84013 -0.02656
C 0.05068 11.34728 -0.02442
C 1.237 23.35207 0.01951
C 1.24878 10.68823 -0.00027
C 0.04193 8.49733 -0.02302
C 34.39092 7.08447 -0.02849
C 1.23305 6.36663 0.02931
C 1.23305 4.96776 0.00628
C 34.41301 4.27361 -0.0345
C 0.01476 2.89855 -0.00931
C 1.20575 2.13715 -0.00939
C 1.27152 0.77778 -0.00468
C 1.20601 9.27165 -0.00583
C 34.42036 24.14687 -0.02213
C 0.00731 25.54939 0.02712
C 1.26141 26.3187 0.00723
C 31.99334 12.74342 0.04381
C 31.92503 11.30923 0.02806
C 33.21066 10.68746 0.01504
C 33.21742 9.26164 -0.00069
C 32.02437 8.58129 0.04926
C 31.93709 7.04023 -0.03838
C 33.15075 6.35319 0.00349
C 33.19651 4.96454 -0.00323
C 32.03439 4.25186 -0.00841
C 31.88552 2.79221 0.0001
C 33.13834 2.14397 -0.02927
C 33.19165 0.6689 -0.01404
C 31.94081 0.00088 0.01027
C 34.42665 32.62341 0.01831
C 1.22099 32.00537 -0.01037
C 1.24164 30.59629 -0.00439
C 0.01216 29.83942 -0.00598
C 34.42257 28.39417 -0.05239
C 1.17089 27.68359 0.03076
C 30.67946 26.25336 -0.01854
C 23.3338 30.5476 0.01277
C 30.77886 27.64785 -0.02049
C 29.53461 29.7988 0.00261
C 24.5465 32.72758 -0.01107
C 25.82482 32.00017 -0.01586
C 25.81466 30.59808 -0.01971
C 24.55741 29.84875 -0.02118
C 24.55773 28.39264 0.00733
C 25.79869 27.73472 -0.00178
C 25.87045 26.28194 0.00768
C 24.61877 25.56052 -0.0276
C 22.10091 34.03243 0.00071
C 24.55023 24.13463 0.03005
C 25.78937 22.04077 0.02117
C 24.56354 21.38923 0.02737
C 24.60266 19.83789 -0.00498
C 25.80885 19.12798 0.00135
C 25.73816 17.71959 0.03102
C 24.60075 17.06096 0.02555
C 25.89053 14.92362 0.01423
C 25.74615 10.543 -0.00285
C 25.76736 23.4543 -0.04078
C 25.86083 9.22014 -0.009
C 23.33407 0.67279 -0.00225
C 22.10264 2.82176 -0.0055
C 22.15218 28.33823 -0.01527
C 23.37277 27.67273 0.01087
C 23.39578 26.27733 0.00199
C 22.12806 25.52438 0.01511
C 22.1548 24.08167 -0.00478
C 23.34376 23.40145 -0.01662
C 23.33171 21.99623 -0.01185
C 22.12734 21.30192 0.01126
C 23.39879 2.10692 0.01515
C 22.13348 19.90839 0.01852
C 23.26397 17.6864 0.03046
C 22.02735 17.03618 0.0296
C 23.39047 9.09034 0.03374
C 22.09228 8.57074 -0.02845
C 22.18779 7.08713 -0.03213
C 23.39803 6.37775 0.02239
C 23.2508 4.98592 0.01153
C 22.05795 4.18996 0.02734
C 23.38935 19.16734 -0.00381
C 24.59951 8.49866 -0.01199
C 24.66067 7.04531 -0.00229
C 25.85151 6.33033 -0.00938
C 28.32867 14.89771 0.04185
C 28.24275 13.49575 0.00194
C 27.10918 12.71858 -0.00621
C 26.94941 11.34501 0.02611
C 28.28151 10.68462 0.02198
C 28.34928 9.17888 0.01094
C 27.16669 8.46607 0.00235
C 27.05568 7.05905 0.01495
C 27.03176 15.59123 0.02316
C 28.296 6.37441 0.01259
C 27.05506 4.23006 0.01699
C 27.06829 2.84381 -0.00416
C 28.24796 2.10094 0.01177
C 28.29706 0.71931 0.04266
C 27.1342 34.05677 0.01324
C 29.58421 32.67373 0.0014
C 30.78823 31.97945 0.00924
C 30.74988 30.55722 0.02326
C 28.32635 4.87673 0.01799
C 27.04329 17.0517 0.01257
C 28.30588 17.78246 0.00152
C 28.23969 19.24977 -0.00294
C 25.81605 4.97646 -0.0264
C 24.56949 4.29807 -0.01154
C 24.56611 2.87305 0.00684
C 25.81817 2.1161 -0.01052
C 25.86668 0.72525 -0.01679
C 24.5792 0.07078 0.00367
C 27.06116 32.62237 0.04306
C 28.33539 32.01529 0.00996
C 28.33378 30.54435 0.00195
C 27.10552 29.8087 -0.00802
C 26.9809 28.36908 -0.00218
C 28.29046 27.71377 -0.01654
C 28.30714 26.27394 -0.00037
C 27.17432 25.58596 -0.0032
C 27.02061 24.17241 0.00622
C 28.28566 23.41451 -0.02815
C 28.29197 21.96115 -0.00942
C 26.94164 21.31708 0.00487
C 26.9581 19.90958 0.00826
C 29.47715 28.37951 0.03265
C 2.41706 32.68349 -0.00725
