321
Graphene
C 34.39067 34.04884 0.01295
C 13.68303 17.69842 -0.02213
C 12.29359 17.05288 0.03698
C 12.21046 15.69453 -0.00109
C 13.41814 14.91247 -0.00491
C 13.58584 13.35374 0.03338
C 12.35251 12.9615 -0.0258
C 12.4085 2.70544 -0.0331
C 13.50007 18.98424 0.00028
C 13.48564 1.9987 -0.00316
C 12.23803 34.02977 -0.01979
C 14.85035 32.63346 0.02691
C 16.04476 31.96462 -0.01581
C 16.13473 30.56116 0.01452
C 14.94747 29.8399 0.04892
C 14.5131 28.57153 -0.00111
C 14.81853 16.8835 -0.03557
C 13.4791 0.57083 0.02188
C 14.74562 15.52591 0.03754
C 12.46819 19.97622 -0.00289
C 12.16288 24.17606 0.00213
C 11.05544 17.7638 0.00798
C 9.77627 17.12246 0.00422
C 9.7224 15.6304 0.0351
C 10.97766 14.97366 -0.03113
C 11.19593 13.71816 0.02098
C 9.83635 2.83664 0.01848
C 11.04097 2.22134 -0.00619
C 12.32266 21.3052 -0.00066
C 11.10908 0.72256 -0.02162
C 12.35276 32.65924 -0.00481
C 13.62325 32.01117 0.00979
C 13.5903 30.58795 0.01443
C 12.34742 29.94172 0.03505
C 12.32574 28.4053 -0.02815
C 13.48797 27.64429 -0.04147
C 12.30771 25.52311 -0.05302
C 9.86452 0.02739 0.00889
C 11.07656 19.22197 0.00228
C 16.00577 14.92843 0.01739
C 14.90496 12.72757 -0.0054
C 17.20732 4.27952 -0.02422
C 17.22491 2.85079 0.01277
C 18.42277 2.13614 0.00096
C 18.40638 0.71956 -0.01527
C 17.19564 0.07607 0.01087
C 19.53486 32.53115 0.00199
C 20.8696 32.24261 0.01511
C 18.45171 4.95173 -0.01721
C 20.75738 14.82525 -0.00478
C 19.64707 12.77312 -0.01185
C 19.67623 11.31882 0.01126
C 20.90541 10.71241 0.01852
C 20.84567 9.28153 -0.00381
C 19.60793 8.51578 0.03046
C 19.63052 7.12958 0.0296
C 20.92879 6.427 0.03374
C 20.83403 13.47138 -0.01662
C 16.04912 13.50853 0.00755
C 18.3583 6.39731 -0.01154
C 17.37774 8.44887 -0.01594
C 15.87674 10.84394 0.00667
C 15.99425 4.81099 0.00143
C 14.83433 4.07604 -0.017
C 14.59342 2.7516 0.00364
C 15.88306 2.10262 -0.00831
C 15.971 0.74843 -0.02957
C 14.78424 34.02383 -0.04422
C 17.13356 7.1199 0.0106
C 17.26058 32.65848 0.00654
C 17.27723 15.42752 -0.04076
C 18.41853 14.89703 -0.00652
C 18.49771 13.50582 0.0058
C 17.28731 12.80771 -0.00865
C 17.12513 11.37282 0.00675
C 18.38277 10.66589 -0.00311
C 18.41009 9.29299 0.00742
C 18.34416 31.92655 -0.00703
C 9.88323 19.85785 -0.00114
C 9.86106 21.27432 -0.02696
C 11.08772 21.95873 -0.00368
C 3.689 2.16071 -0.00334
C 3.67509 0.70628 0.02339
C 2.47692 34.05431 0.01641
C 4.89252 32.66705 -0.00719
C 6.19065 31.94725 0.01364
C 6.10417 30.49439 -0.01062
C 4.86889 29.79175 -0.00033
C 2.44031 2.90869 -0.01634
C 4.86652 28.43677 0.03589
C 6.11577 26.25272 0.0402
C 4.85758 25.53089 0.00572
C 4.95932 24.11773 0.03592
C 6.14158 23.45849 0.00406
C 6.10747 22.02795 0.00943
C 4.90821 21.29294 0.02841
C 4.91261 19.93118 -0.01111
C 6.06341 27.61801 -0.02759
C 6.1852 19.1761 -0.01275
C 2.46794 4.24029 0.00057
C 3.69994 13.42453 0.01291
C 3.72661 30.48707 0.00685
C 2.51205 29.80575 0.02888
C 2.4505 28.43368 -0.00482
C 3.64 27.72368 -0.01384
C 3.68814 26.26755 0.03693
C 2.46599 25.59263 0.01745
C 2.46956 24.12466 0.00488
C 2.49518 12.89501 0.00093
C 3.67388 23.40095 -0.01004
C 2.43446 21.32269 -0.00131
C 2.37803 19.94417 -0.01118
C 3.67222 19.22716 -0.014
C 3.66539 17.72558 0.02147
C 2.42657 16.9975 0.00373
C 2.43065 15.59476 -0.00191
C 3.67071 14.78159 0.00438
C 3.64463 22.02503 -0.02896
C 6.01335 17.80082 0.00985
C 4.88659 17.03825 -0.02245
C 4.98783 15.5999 -0.00428
C 7.29877 15.42166 0.01945
C 8.50701 14.98307 0.01416
C 7.38858 2.73566 0.03542
C 8.66955 2.21983 0.02299
C 8.61298 0.71711 0.00244
C 7.42537 0.06653 -0.01717
C 9.84756 32.71827 0.05265
C 7.3419 17.03719 -0.01454
C 11.12669 31.93668 -0.01952
C 9.8117 29.77269 0.00374
C 9.78681 28.37836 0.00052
C 11.05487 27.67961 -0.03682
C 11.18984 26.33917 0.01965
C 9.87844 25.59159 0.02058
C 9.86526 24.14665 -0.01957
C 11.10731 23.38006 -0.0108
C 11.01871 30.59832 -0.02813
C 8.55555 17.71032 0.01241
C 8.6022 19.1096 0.0076
C 7.36198 19.86804 0.02162
C 6.07731 14.88657 0.03101
C 4.82324 2.885 -0.01536
C 6.13322 2.39469 -0.02689
C 6.16848 0.74152 -0.01046
C 4.84084 0.0385 -0.00891
C 7.37167 32.64156 0.02819
C 8.63207 31.88709 0.00165
C 8.5486 30.55518 -0.02971
C 7.28104 29.77631 0.02894
C 7.28916 28.32425 -0.01789
C 8.55432 27.69955 0.00444
C 8.58862 26.2545 -0.00925
C 7.35232 25.53999 0.01877
C 7.39238 24.14201 0.01363
C 8.6097 23.5255 -0.02162
C 8.65597 21.99077 0.00415
C 7.39594 21.29844 -0.0014
C 20.89818 5.03496 -0.02845
C 3.68417 31.94828 0.00895
C 19.67818 4.30249 -0.03213
C 20.84285 2.09856 0.01153
C 31.99572 25.55945 -0.01779
C 32.00617 24.11555 0.03794
C 33.1954 23.49456 0.01927
C 33.22692 22.04037 0.01574
C 31.99959 21.37727 -0.02383
C 31.89801 19.95716 -0.01429
C 33.1879 19.21315 -0.0136
C 33.2108 26.24858 0.00682
C 33.10965 17.8262 0.00594
C 31.93609 15.63871 0.00369
C 33.14888 14.91546 0.00455
C 33.25828 13.52066 -0.00644
C 32.02231 12.86988 -0.01839
C 32.00062 11.42086 0.00137
C 33.27414 10.70601 0.00199
C 33.22391 9.32414 0.04381
C 31.93486 17.07068 -0.02474
C 32.03105 8.55019 0.02806
C 33.16801 27.7036 0.00026
C 31.91525 29.80349 -0.02142
C 29.58871 12.76666 -0.01461
C 29.50969 11.38987 -0.02155
C 30.67025 10.69801 -0.00944
C 30.69448 9.30941 -0.03735
C 29.51007 8.46435 -0.00971
C 29.54722 7.08433 0.01518
C 30.72044 6.42443 0.01908
C 31.92914 28.32646 0.0544
C 30.74478 5.00491 0.07705
C 29.43498 2.82699 0.02108
C 30.63082 2.15279 0.00716
C 30.61402 0.67555 0.00307
C 29.43703 0.04171 0.00346
C 31.98745 32.64731 0.01713
C 33.22932 31.96532 -0.01694
C 33.20235 30.50071 0.01428
C 29.46549 4.19246 0.0103
C 30.74765 13.51076 -0.01303
C 31.98018 7.08472 0.01504
C 33.16037 4.89347 0.04926
C 34.37154 17.13866 0.00648
C 34.39216 15.69219 0.02114
C 1.2637 14.86878 -0.02957
C 1.2391 13.46612 0.00343
C 0.07061 12.79636 -0.02656
C 0.05645 11.3864 -0.02442
C 1.24402 10.62033 -0.00027
C 1.17593 17.79585 0.01223
C 1.16103 9.26851 -0.00583
C 34.3972 7.14108 -0.02849
C 1.11012 6.44181 0.02931
C 1.36318 5.07578 0.00628
C 34.40929 4.19463 -0.0345
C 34.40934 2.84893 -0.00931
C 1.18581 2.13152 -0.00939
C 1.18626 0.67403 -0.00468
C 0.05493 8.54543 -0.02302
C 33.17149 6.37035 -0.00069
C 1.22073 19.227 -0.01678
C 34.4118 21.40067 -0.02213
C 31.87947 4.24583 -0.03838
C 31.86455 2.78784 0.00349
C 33.15144 2.15842 -0.00323
C 33.17858 0.71277 -0.00841
C 31.92777 0.02083 0.0001
C 0.03143 32.67016 -0.02927
C 1.25074 31.95425 -0.01404
C 34.39655 19.90996 0.01951
C 1.22998 30.55407 0.01027
C 0.00632 28.41179 -0.01037
C 1.2063 27.62999 -0.00439
C 1.19425 26.24436 -0.00598
C 0.01298 25.5628 -0.05239
C 34.42478 24.18833 0.03076
C 1.23257 23.4684 0.00723
C 1.20389 22.08368 0.02712
C 0.03041 29.76968 0.01831
C 30.69351 14.93196 -0.0405
C 29.45337 15.65976 0.01705
C 29.39989 17.11659 0.0101
C 25.74639 31.94118 0.02555
C 25.81598 30.57407 0.01423
C 24.65981 15.5741 -0.00285
C 25.83506 14.85462 -0.009
C 25.86808 13.47904 -0.01199
C 24.57914 12.7268 -0.00229
C 24.56316 11.32198 -0.00938
C 24.55504 32.80047 0.03102
C 25.79748 10.56678 -0.0264
C 24.48465 8.48557 0.00684
C 24.6046 7.07578 -0.01052
C 25.77038 6.37095 -0.01679
C 25.75095 4.97255 0.00367
C 24.51564 4.2284 0.04306
C 24.50081 2.89632 0.00996
C 25.74206 2.18743 0.00195
C 25.72245 9.13745 -0.01154
C 25.7767 0.74143 -0.00802
C 22.12416 0.03659 0.00135
C 23.30234 2.16127 0.02737
C 20.89941 0.73871 0.02734
C 19.72915 34.06935 -0.0055
C 22.18182 32.64064 0.01515
C 23.415 32.17317 -0.00225
C 23.64122 14.83042 0.00071
C 23.31272 13.54759 -0.01107
C 22.1486 12.81776 -0.01586
C 23.30632 0.7571 -0.00498
C 22.12719 11.39665 -0.01971
C 23.30759 9.27732 0.00733
C 22.10185 8.62153 -0.00178
C 22.21864 7.15868 0.00768
C 23.38213 6.38741 -0.0276
C 23.27115 4.97292 0.03005
C 22.12494 4.29428 -0.04078
C 22.10749 2.86539 0.02117
C 23.32043 10.69562 -0.02118
C 24.56353 0.10655 -0.00218
C 27.02842 32.6012 -0.01654
C 28.28654 31.84139 -0.00037
C 27.00077 34.06846 -0.00416
C 29.50421 32.62354 0.01177
C 30.71742 31.94062 0.04266
C 30.72408 30.52604 0.01324
C 29.4668 29.71858 0.0014
C 29.51691 28.29822 0.00924
C 30.7576 27.63578 0.02326
C 28.15062 0.74213 0.01699
C 30.73385 26.25705 0.00261
C 29.58975 24.1357 -0.02049
C 30.7065 23.38698 -0.01854
C 30.74266 22.00526 -0.01415
C 29.60238 21.254 -0.03039
C 29.41689 19.89484 0.01836
C 30.77542 19.22798 0.03531
C 30.6166 17.80219 -0.00669
C 29.65265 25.49846 0.03265
C 28.12132 2.1504 0.01799
C 26.96501 2.87909 0.01259
C 26.99619 4.26374 0.01495
C 28.19781 30.39572 -0.0032
C 26.97092 29.87375 0.00622
C 28.41263 27.54639 -0.02815
C 28.34074 19.04331 -0.00942
C 27.90653 17.80946 0.00487
C 26.87827 16.9187 0.00826
C 27.09364 15.52701 -0.00294
C 28.34366 14.8995 0.00152
C 28.28307 13.50308 0.01257
C 27.04404 12.72352 0.02316
C 27.00932 11.23305 0.04185
C 28.29684 10.56825 0.00194
C 28.24116 9.21467 -0.00621
C 27.03516 8.45584 0.02611
C 27.10434 6.99532 0.02198
C 28.25649 6.34698 0.01094
C 28.16443 4.91932 0.00235
C 19.68078 2.86627 0.02239
C 2.47108 32.66938 0.00393
