344
Graphene
C 0.02124 0.0974 0.01295
C 9.90322 8.66642 0.02098
C 9.85302 7.13597 0.01848
C 11.07106 6.44347 -0.00619
C 11.09955 5.07611 -0.02162
C 9.72154 4.37759 0.00889
C 9.80293 2.97209 -0.00481
C 11.05588 2.22803 0.00979
C 11.12541 0.83618 0.01443
C 9.84278 0.11943 0.03505
C 12.1954 32.6314 -0.02815
C 13.48494 31.95594 -0.04147
C 13.53559 30.5948 -0.05302
C 12.25374 29.83333 0.00213
C 12.25742 28.41751 -0.00066
C 13.50715 27.70578 -0.00289
C 13.53103 26.25348 0.00028
C 12.17586 25.53274 -0.02213
C 11.03656 19.26199 -0.03113
C 9.7567 19.8689 0.0351
C 9.85886 21.28783 0.00422
C 11.17884 21.91197 0.00798
C 7.36215 7.18773 0.03542
C 8.6011 6.43691 0.02299
C 8.58402 4.99407 0.00244
C 7.35578 4.34353 -0.01717
C 7.30319 2.87496 0.05265
C 8.59344 2.21542 -0.01952
C 8.63683 0.83684 -0.02813
C 7.40108 34.06849 0.00374
C 12.22889 24.14206 0.03698
C 9.83121 32.78585 0.00052
C 11.07962 30.57267 0.01965
C 9.83502 29.82798 0.02058
C 9.75219 28.39837 -0.01957
C 10.98006 27.69473 -0.0108
C 11.0053 26.18256 -0.00368
C 9.77672 25.49181 -0.02696
C 9.78102 24.1794 -0.00114
C 10.99718 23.45021 0.00228
C 10.99016 31.93884 -0.03682
C 7.45584 8.59114 0.01416
C 13.46503 23.41296 -0.00109
C 12.27434 21.09121 0.03338
C 14.71985 0.04865 0.00654
C 17.20468 32.68546 -0.00703
C 18.50613 32.01021 -0.04076
C 18.50186 30.56886 -0.00652
C 17.20623 29.85245 0.0058
C 17.16005 28.48915 -0.00865
C 18.41037 27.68504 0.00675
C 18.37176 26.25076 -0.00311
C 17.21033 25.52417 0.00742
C 17.15758 24.12279 -0.01594
C 18.34929 23.39334 0.0106
C 18.26103 21.93829 -0.01154
C 17.09641 21.16011 -0.01721
C 16.50605 19.86032 -0.02422
C 18.49963 0.80594 0.01277
C 17.30502 0.08975 0.00096
C 19.70528 32.80981 -0.01527
C 16.12869 0.81359 -0.04422
C 15.72684 2.21016 -0.02957
C 14.71434 2.8431 -0.00831
C 15.31856 19.82079 0.00364
C 12.2953 19.73261 -0.0258
C 12.32389 4.3191 -0.0331
C 12.28768 2.8698 -0.00316
C 13.46181 2.18231 0.02188
C 13.49888 0.70807 -0.01979
C 12.26413 0.0191 0.02691
C 14.73226 32.63591 -0.01581
C 15.98545 31.92887 0.01452
C 13.47952 21.90735 -0.00491
C 15.99248 30.50384 0.04892
C 14.72891 28.43268 -0.03557
C 15.92768 27.70504 0.03754
C 15.95858 26.24528 0.01739
C 14.69294 25.53103 0.00755
C 14.65621 24.14792 -0.0054
C 15.85796 23.42526 0.00667
C 15.94909 21.99319 0.00143
C 14.74677 21.1979 -0.017
C 14.80579 29.90959 -0.00111
C 20.92789 32.00421 0.01087
C 8.81536 9.43595 0.01945
C 7.3486 11.45017 0.01241
C 2.45408 7.20167 0.00895
C 3.72887 6.50836 0.00685
C 3.75266 4.98725 0.02888
C 2.44171 4.34915 -0.00482
C 2.48487 2.92959 -0.01384
C 3.66044 2.18157 0.03693
C 3.63328 0.7474 0.01745
C 2.37387 0.06919 0.00488
C 4.90466 32.63998 -0.01004
C 6.13879 31.93093 -0.02896
C 6.11126 30.57346 -0.00131
C 4.94371 29.79231 -0.01118
C 4.89837 28.40725 -0.014
C 6.14596 27.70527 0.02147
C 6.10476 26.21849 0.00373
C 4.92513 25.54088 -0.00191
C 4.88139 24.10695 0.00438
C 2.44663 8.62485 0.00393
C 3.72396 9.28033 0.0288
C 3.70702 10.76916 -0.0008
C 2.45882 11.35584 -0.01362
C 3.6519 30.59769 0.00873
C 2.44831 29.77287 -0.00049
C 2.40482 28.383 0.00848
C 3.64793 27.70201 -0.01303
C 3.62927 26.33155 -0.01378
C 2.43473 25.55673 0.02635
C 2.45042 24.16484 0.0127
C 3.59648 23.46752 0.01396
C 6.04746 23.40198 0.01291
C 3.62406 22.07042 0.01849
C 2.39813 19.91758 -0.00562
C 3.63232 19.18151 -0.00494
C 3.6727 17.79237 0.00054
C 2.41758 17.0383 0.03007
C 2.48105 15.61598 -0.00095
C 3.71367 14.93112 0.01572
C 3.72305 13.52578 -0.04848
C 2.51986 12.75198 -0.00892
C 2.43232 21.29809 -0.01142
C 8.60228 10.79573 -0.01454
C 6.15674 22.02875 0.00093
C 4.83683 19.90259 -0.01634
C 7.36726 29.83276 -0.02689
C 7.3364 28.45741 -0.01046
C 8.50539 27.58038 -0.00891
C 8.50897 26.20531 0.02819
C 7.24541 25.47663 0.00165
C 7.27715 24.08359 -0.02971
C 8.55789 23.44188 0.02894
C 8.61999 22.0346 -0.01789
C 7.38842 21.27673 0.00444
C 7.30674 19.82527 -0.00925
C 8.54232 19.12003 0.01877
C 8.55825 17.75905 0.01363
C 7.40256 16.95966 -0.02162
C 7.41419 15.63186 0.00415
C 8.68677 14.85973 -0.0014
C 8.5717 13.68151 0.02162
C 7.4012 12.83427 0.0076
C 8.59283 30.60593 -0.01536
C 8.65634 32.00863 0.03101
C 7.39645 32.66877 -0.00428
C 4.87827 34.07197 -0.02245
C 6.11073 19.22563 -0.00334
C 6.10457 17.81035 0.02339
C 4.87896 17.10983 0.01641
C 4.92767 15.66482 -0.00719
C 6.11912 14.90002 0.01364
C 6.14216 13.495 -0.01062
C 4.91511 12.73339 -0.00033
C 4.86499 11.38968 0.03589
C 4.87161 21.25071 0.00057
C 6.12213 10.65549 -0.02759
C 4.97343 8.56273 0.00572
C 4.99049 7.20076 0.03592
C 6.20519 6.55513 0.00406
C 6.15519 5.09048 0.00943
C 4.93505 4.36838 0.02841
C 4.85928 2.85103 -0.01111
C 6.04376 2.16198 -0.01275
C 6.11005 0.70968 0.00985
C 6.28293 9.27821 0.0402
C 20.91894 30.62679 0.00199
C 19.68936 29.82654 0.01511
C 19.73125 28.34402 -0.00478
C 31.93672 29.84087 -0.02142
C 31.96113 28.41574 0.0544
C 33.17299 27.63715 0.00026
C 33.17366 26.21886 0.00682
C 31.90703 25.54558 -0.01779
C 31.90619 24.14217 0.03794
C 33.18178 23.47499 0.01927
C 33.1297 22.0893 0.01574
C 31.89619 21.31616 -0.02383
C 31.84067 19.89153 -0.01429
C 33.09155 19.13265 -0.0136
C 33.10822 17.74218 0.00594
C 31.88052 17.05047 -0.02474
C 31.93659 15.58788 0.00369
C 33.14658 14.88828 0.00455
C 33.1842 13.50413 -0.00644
C 31.94254 12.82895 -0.01839
C 33.22296 30.5738 0.01428
C 33.24917 32.04474 -0.01694
C 31.90188 32.68567 0.01713
C 29.35753 0.05097 0.00346
C 30.60607 19.14667 0.03531
C 30.6636 17.73991 -0.00669
C 29.40111 17.0598 0.0101
C 29.53332 15.64247 0.01705
C 30.74225 14.87719 -0.0405
C 30.64755 13.42919 -0.01303
C 29.34651 12.67057 -0.01461
C 29.40609 11.20783 -0.02155
C 31.9931 11.35435 0.00137
C 30.74907 10.55321 -0.00944
C 29.59336 8.39802 -0.00971
C 29.53073 7.04226 0.01518
C 30.7023 6.36289 0.01908
C 30.65511 4.9126 0.07705
C 29.42052 4.27377 0.0103
C 29.30664 2.91489 0.02108
C 30.48396 2.12501 0.00716
C 30.52636 0.70455 0.00307
C 30.81228 9.1768 -0.03735
C 29.49859 19.96719 0.01836
C 33.25872 10.70109 0.00199
C 32.04766 8.47563 0.02806
C 1.15953 17.76253 0.01223
C 34.37944 17.02463 0.00648
C 34.42927 15.61857 0.02114
C 1.25875 14.9234 -0.02957
C 1.28707 13.54313 0.00343
C 34.40796 12.83198 -0.02656
C 0.03542 11.48488 -0.02442
C 1.2655 10.738 -0.00027
C 1.21982 9.28698 -0.00583
C 0.04651 8.50222 -0.02302
C 34.39982 7.09123 -0.02849
C 1.15495 6.45607 0.02931
C 1.18498 4.9835 0.00628
C 34.34093 4.26645 -0.0345
C 34.35697 2.90752 -0.00931
C 1.26104 2.29329 -0.00939
C 1.29693 0.81364 -0.00468
C 1.22928 19.23233 -0.01678
C 34.38348 19.82551 0.01951
C 34.35533 21.2891 -0.02213
C 1.18134 22.06133 0.02712
C 31.91947 7.05102 0.01504
C 33.14783 6.36405 -0.00069
C 33.11094 5.00642 0.04926
C 31.86903 4.20304 -0.03838
C 31.83316 2.8356 0.00349
C 33.11643 2.17591 -0.00323
C 33.15418 0.75826 -0.00841
C 31.89342 0.08027 0.0001
C 33.21042 9.27729 0.04381
C 0.01641 32.67775 -0.02927
C 1.23588 30.47592 0.01027
C 34.37301 29.7735 0.01831
C 34.36405 28.37484 -0.01037
C 1.19662 27.64437 -0.00439
C 1.17102 26.25027 -0.00598
C 34.33318 25.56433 -0.05239
C 34.33774 24.18385 0.03076
C 1.17557 23.49208 0.00723
C 1.24329 31.97458 -0.01404
C 29.4249 21.3658 -0.03039
C 30.59146 21.99421 -0.01415
C 30.6542 23.43161 -0.01854
C 22.21366 19.92127 -0.00178
C 23.21269 19.31163 0.00768
C 24.13686 1.95701 -0.0276
C 23.62983 0.61816 0.03005
C 22.38048 0.00237 -0.04078
C 24.58895 32.54009 0.02117
C 25.80481 31.83318 0.02737
C 25.81846 30.44524 -0.00498
C 24.58579 29.7817 0.00135
C 24.5821 28.31709 0.03102
C 25.73145 27.61952 0.02555
C 25.71938 26.23478 0.01423
C 24.51918 25.53515 -0.00285
C 24.46707 24.19637 -0.009
C 25.75739 23.45779 -0.01199
C 25.70424 22.06042 -0.00229
C 24.49699 21.34015 -0.00938
C 22.01563 21.30855 0.00733
C 23.23363 22.04861 -0.02118
C 23.24834 23.50349 -0.01971
C 22.02573 24.22448 -0.01586
C 20.88759 27.62191 -0.01662
C 20.83555 26.26125 -0.01185
C 19.63878 25.5637 0.01126
C 19.55833 24.18799 0.01852
C 20.79027 23.46068 -0.00381
C 20.84092 22.01991 0.03046
C 19.60685 21.33834 0.0296
C 21.32221 2.18178 0.03374
C 24.48067 19.92616 -0.0264
C 21.13052 0.78038 -0.02845
C 22.21969 32.66945 0.02239
C 23.40715 31.89102 0.01153
C 23.35294 30.47108 0.02734
C 22.1131 29.88624 -0.0055
C 22.12054 28.44516 0.01515
C 23.33645 27.65353 -0.00225
C 23.29684 26.32517 0.00071
C 22.07399 25.61113 -0.01107
C 19.70282 0.11611 -0.03213
C 25.70349 19.22279 -0.01154
C 25.66872 17.79784 0.00684
C 25.4723 2.0432 -0.01052
C 28.15596 8.94139 0.02611
C 27.30782 7.70976 0.02198
C 28.1309 6.60484 0.01094
C 28.06268 5.00507 0.00235
C 26.91249 4.19178 0.01495
C 26.70254 2.85066 0.01259
C 28.03958 2.17793 0.01799
C 28.15303 0.77296 0.01699
C 28.27882 10.36033 -0.00621
C 26.95994 0.05099 -0.00416
C 30.73482 32.02757 0.04266
C 30.67557 30.60219 0.01324
C 29.49702 29.92608 0.0014
C 29.48838 28.49918 0.00924
C 30.72834 27.70906 0.02326
C 30.63727 26.3229 0.00261
C 29.40609 25.6506 0.03265
C 29.38389 24.13352 -0.02049
C 29.44018 32.76363 0.01177
C 3.64778 31.99198 0.01227
C 28.12021 13.45764 0.00194
C 27.11715 15.63681 0.02316
C 25.78937 0.60353 -0.01679
C 24.69351 33.92166 0.00367
C 26.98425 32.65826 0.04306
C 28.24064 31.99801 0.00996
C 28.25079 30.52658 0.00195
C 27.03127 29.7811 -0.00802
C 27.01555 28.39877 -0.00218
C 28.29746 27.72889 -0.01654
C 28.32051 14.87003 0.04185
C 28.19365 26.25626 -0.00037
C 27.01353 24.12882 0.00622
C 28.23711 23.33923 -0.02815
C 28.23671 22.00296 -0.00942
C 27.02099 21.31577 0.00487
C 26.96459 19.88855 0.00826
C 28.25709 19.22087 -0.00294
C 28.19666 17.83183 0.00152
C 26.84668 17.03966 0.01257
C 26.99963 25.56252 -0.0032
C 2.3877 32.69615 -0.03337
