338
Graphene
C 34.3419 0.00819 0.01295
C 10.95974 13.29881 0.00889
C 9.63335 12.63775 -0.00481
C 9.81582 3.04372 0.00979
C 11.1249 2.33344 0.01443
C 11.11589 0.87061 0.03505
C 9.88133 0.11435 -0.02815
C 12.31055 32.79903 -0.04147
C 13.54626 32.01786 -0.05302
C 13.4628 30.64992 0.00213
C 12.28707 29.88687 -0.00066
C 12.33064 28.44978 -0.00289
C 13.48485 27.65646 0.00028
C 13.47432 26.21156 -0.02213
C 12.30343 25.53402 0.03698
C 12.37384 24.1302 -0.00109
C 13.61326 23.44344 -0.00491
C 13.48476 21.94284 0.03338
C 10.97443 14.86864 -0.02162
C 12.18827 21.26709 -0.0258
C 9.74005 15.61587 -0.00619
C 11.02362 17.67873 0.02098
C 8.60396 2.28483 -0.01952
C 8.63941 0.7634 -0.02813
C 7.42862 0.10227 0.00374
C 9.91995 32.72292 0.00052
C 11.0947 31.99473 -0.03682
C 11.09093 30.59924 0.01965
C 9.8843 29.93515 0.02058
C 9.7914 28.43148 -0.01957
C 11.10863 27.73193 -0.0108
C 11.05269 26.2077 -0.00368
C 9.81057 25.4565 -0.02696
C 9.83796 24.05057 -0.00114
C 11.0982 23.3893 0.00228
C 11.04116 21.9951 0.00798
C 9.76097 21.35687 0.00422
C 9.82676 19.91509 0.0351
C 11.01975 19.19856 -0.03113
C 9.76806 17.02196 0.01848
C 7.3185 2.91883 0.05265
C 12.24119 19.89878 -0.0331
C 13.49133 17.69547 0.02188
C 14.64347 19.77632 -0.00652
C 15.84872 19.06676 0.0058
C 15.90193 17.69204 -0.00865
C 14.68837 16.99022 0.00675
C 14.79296 15.50921 -0.00311
C 16.07912 14.88073 0.00742
C 16.05346 13.52294 -0.01594
C 14.71275 12.85697 0.0106
C 14.69304 11.41307 -0.01154
C 15.83436 10.67264 -0.01721
C 16.05502 9.28549 -0.02422
C 15.86883 6.48391 0.01277
C 15.91621 5.09734 0.00096
C 14.67226 4.21014 -0.01527
C 14.82808 2.86082 0.01087
C 16.08715 2.11231 0.00199
C 15.98554 0.66545 0.01511
C 14.69811 21.29547 -0.04076
C 13.45857 19.10201 -0.00316
C 16.02779 22.03122 -0.00703
C 14.84585 24.15846 -0.04422
C 12.18783 17.00896 -0.01979
C 12.20356 15.51625 0.02691
C 13.47311 14.83988 -0.01581
C 13.43843 13.41558 0.01452
C 12.3003 12.72011 0.04892
C 12.43946 2.95426 -0.00111
C 13.55745 2.10368 -0.03557
C 13.48656 0.71253 0.03754
C 12.26963 0.12227 0.01739
C 14.814 32.72734 0.00755
C 16.04698 31.94741 -0.0054
C 15.96269 30.51744 0.00667
C 14.69467 29.81318 0.00143
C 14.69364 28.39238 -0.017
C 15.96325 27.6367 0.00364
C 16.00249 26.23242 -0.00831
C 14.74219 25.56428 -0.02957
C 16.12437 23.38823 0.00654
C 7.43727 4.33766 -0.01717
C 7.42682 11.37606 0.00244
C 7.23166 12.82277 0.02299
C 2.38737 8.54014 0.03693
C 2.39554 7.07579 0.01745
C 3.6266 6.38687 0.00488
C 3.74075 5.0066 -0.01004
C 2.4817 4.33801 -0.02896
C 2.45231 2.91208 -0.00131
C 3.64135 2.23844 -0.01118
C 3.72942 0.80855 -0.014
C 2.42616 0.10176 0.02147
C 4.91706 32.72839 0.00373
C 6.22698 31.98784 -0.00191
C 6.14705 30.60934 0.00438
C 4.96474 29.82841 0.01291
C 4.92105 28.44651 0.00093
C 6.17958 27.80808 0.00057
C 6.13292 26.36591 -0.01634
C 4.82558 25.49267 -0.00334
C 3.60563 9.24597 -0.01384
C 4.90597 24.08011 0.02339
C 3.70209 10.67962 -0.00482
C 2.27586 12.77951 0.00685
C 3.66521 30.58486 0.0127
C 2.43305 29.82404 0.01396
C 2.391 28.36773 0.01849
C 3.62428 27.65096 -0.01142
C 3.64853 26.22214 -0.00562
C 2.39151 25.5312 -0.00494
C 2.43169 24.06519 0.00054
C 3.64766 23.40531 0.03007
C 3.58709 21.97807 -0.00095
C 2.39522 21.264 0.01572
C 2.37292 19.81053 -0.04848
C 3.68241 19.20226 -0.00892
C 3.67767 17.81746 -0.01362
C 2.54705 16.99512 -0.0008
C 2.39447 15.56687 0.0288
C 3.60378 14.79061 0.00393
C 3.57118 13.43259 0.00895
C 2.38233 11.37111 0.02888
C 6.22063 23.43042 0.01641
C 6.15377 22.04102 -0.00719
C 4.91086 21.33827 0.01364
C 8.59225 30.59865 -0.02971
C 7.46082 29.87905 0.02894
C 7.42677 28.41031 -0.01789
C 8.5929 27.61871 0.00444
C 8.62889 26.26179 -0.00925
C 7.37379 25.53375 0.01877
C 7.39097 24.18753 0.01363
C 8.55716 23.40543 -0.02162
C 8.53658 22.04727 0.00415
C 7.40426 21.32124 -0.0014
C 7.39575 19.90634 0.02162
C 8.64258 19.21763 0.0076
C 8.57558 17.76753 0.01241
C 7.24995 17.07435 -0.01454
C 7.31434 15.7124 0.01945
C 8.51146 14.92901 0.01416
C 8.49112 13.51883 0.03542
C 8.67575 32.02976 0.00165
C 7.35369 32.82272 0.02819
C 4.91105 0.07599 -0.00891
C 6.15358 0.70906 -0.01046
C 4.93468 19.93885 -0.01062
C 6.14221 19.19165 -0.00033
C 6.08653 17.76185 0.03589
C 4.88552 17.0594 -0.02759
C 4.77048 15.64127 0.0402
C 6.08136 14.97164 0.00572
C 5.99527 13.48429 0.03592
C 4.82038 12.69981 0.00406
C 14.75902 0.02367 -0.00478
C 4.95648 11.26212 0.00943
C 6.04327 9.16206 -0.01111
C 4.82355 8.55819 -0.01275
C 4.77785 7.13422 0.00985
C 6.01059 6.59435 -0.02245
C 6.24064 5.17671 -0.00428
C 4.98006 4.35083 0.03101
C 4.92092 2.94085 -0.01536
C 6.14812 2.12508 -0.02689
C 6.21909 10.56957 0.02841
C 17.32859 32.49043 -0.01662
C 18.65703 31.7829 -0.01185
C 18.57368 30.10597 0.01126
C 30.59891 0.60972 -0.02142
C 29.457 33.96741 0.0544
C 31.82471 32.67225 0.00026
C 33.10633 32.04383 0.00682
C 33.13903 30.62207 -0.01779
C 31.96176 29.83515 0.03794
C 31.92388 28.43411 0.01927
C 33.11974 27.73461 0.01574
C 33.22768 26.23184 -0.02383
C 31.98316 25.68579 -0.01429
C 33.2047 23.30235 -0.0136
C 33.31786 21.89702 0.00594
C 33.6385 18.37952 -0.02474
C 31.73737 15.54742 0.00369
C 32.98266 15.04958 0.00455
C 33.16287 13.53457 -0.00644
C 31.97597 12.78646 -0.01839
C 30.65255 2.03409 0.01428
C 31.91668 11.43745 0.00137
C 29.39727 2.77632 -0.01694
C 30.69138 4.94021 0.00346
C 28.27029 0.68331 -0.00669
C 27.0575 33.97477 0.0101
C 29.39236 32.54627 0.01705
C 30.65757 31.95385 -0.0405
C 30.7454 30.56507 -0.01303
C 29.50883 29.91585 -0.01461
C 29.40562 28.42439 -0.02155
C 30.63102 27.70363 -0.00944
C 30.78044 26.31169 -0.03735
C 30.70066 13.52109 -0.00971
C 29.62473 12.85914 0.01518
C 29.52867 11.35958 0.01908
C 30.76537 10.67179 0.07705
C 30.70174 9.28234 0.0103
C 29.40574 8.58069 0.02108
C 29.47797 7.14677 0.00716
C 30.65529 6.36971 0.00307
C 29.3934 4.20783 0.01713
C 33.16379 10.71395 0.00199
C 33.22498 9.19241 0.04381
C 31.9179 8.53658 0.02806
C 1.29872 17.66551 0.01223
C 34.34252 17.19781 0.00648
C 34.30628 15.75104 0.02114
C 1.08683 14.9935 -0.02957
C 1.05834 13.63078 0.00343
C 34.40282 12.83973 -0.02656
C 34.38987 11.40104 -0.02442
C 1.16635 10.64827 -0.00027
C 1.23599 9.21357 -0.00583
C 0.01107 8.53895 -0.02302
C 34.35958 7.13661 -0.02849
C 1.13554 6.38045 0.02931
C 1.23375 4.97056 0.00628
C 0.00233 4.20673 -0.0345
C 34.39704 2.78221 -0.00931
C 1.18794 2.198 -0.00939
C 1.14954 0.79446 -0.00468
C 1.22573 19.01316 -0.01678
C 34.26283 19.56886 0.01951
C 34.26216 21.0115 -0.02213
C 1.15759 21.8784 0.02712
C 31.91449 7.02215 0.01504
C 33.20977 6.3771 -0.00069
C 33.22593 5.01579 0.04926
C 31.9788 4.26958 -0.03838
C 31.93188 2.77947 0.00349
C 33.13953 2.00119 -0.00323
C 33.11185 0.67501 -0.00841
C 31.83584 34.0457 0.0001
C 28.21457 2.13521 0.03531
C 34.41828 32.68414 -0.02927
C 1.20516 30.62645 0.01027
C 34.35989 29.93398 0.01831
C 34.3306 28.51845 -0.01037
C 1.13863 27.77472 -0.00439
C 1.19355 26.29476 -0.00598
C 34.41281 25.58529 -0.05239
C 34.35394 24.08971 0.03076
C 1.16933 23.33952 0.00723
C 1.24542 31.99514 -0.01404
C 3.67432 32.01327 0.02635
C 26.91585 2.88018 0.01836
C 28.19592 4.92676 -0.01415
C 17.19742 7.10653 -0.0276
C 18.44254 6.50206 0.03005
C 18.45712 5.01329 -0.04078
C 17.15737 4.3253 0.02117
C 17.238 2.88076 0.02737
C 18.38219 2.18299 -0.00498
C 18.32617 0.72406 0.00135
C 17.15431 33.9224 0.03102
C 19.77346 32.72978 0.02555
C 19.28351 28.98427 0.01423
C 20.79479 26.59791 -0.00285
C 19.773 25.66417 -0.009
C 19.75085 24.25981 -0.01199
C 19.58606 17.00845 -0.00229
C 19.7278 15.66969 -0.00938
C 20.91031 14.85435 -0.0264
C 20.89697 13.48419 -0.01154
C 17.20807 8.59077 0.00768
C 19.62841 12.76695 0.00684
C 18.47841 9.28382 -0.00178
C 17.12289 11.38223 -0.02118
C 17.22491 29.75016 0.01852
C 17.12658 28.33702 -0.00381
C 18.41785 27.87145 0.03046
C 18.3663 26.40244 0.0296
C 17.29258 25.5232 0.03374
C 17.41285 24.00811 -0.02845
C 18.71804 23.33089 -0.03213
C 18.45817 21.8294 0.02239
C 17.17308 21.21622 0.01153
C 17.23959 19.8363 0.02734
C 18.46917 19.26798 -0.0055
C 18.49037 17.87551 0.01515
C 17.17969 17.12598 -0.00225
C 17.28367 15.65796 0.00071
C 18.40894 14.92349 -0.01107
C 18.37992 13.49253 -0.01586
C 17.18833 12.69546 -0.01971
C 18.37435 10.66326 0.00733
C 19.64478 11.36619 -0.01052
C 20.8835 10.59834 -0.01679
C 20.86368 9.20643 0.00367
C 24.50629 4.17858 0.01094
C 24.4993 2.80418 0.00235
C 25.80716 2.08862 0.01495
C 25.82294 0.5589 0.01259
C 24.55844 33.97677 0.01799
C 26.87993 32.6137 0.01699
C 28.04853 31.84827 -0.00416
C 28.12786 30.43254 0.01177
C 27.0492 29.03277 0.04266
C 28.06776 28.12273 0.01324
C 26.69816 12.76793 0.0014
C 27.04452 11.48073 0.00924
C 28.27538 10.75728 0.02326
C 28.22503 9.33654 0.00261
C 27.0756 8.55375 0.03265
C 26.98681 7.16796 -0.02049
C 28.22922 6.33831 -0.01854
C 25.61124 5.12604 0.02198
C 25.71631 6.56332 0.02611
C 24.52151 8.46767 -0.00621
C 25.74949 9.14074 0.00194
C 19.726 8.48154 0.04306
C 19.6439 4.35491 0.00996
C 19.62725 2.9505 0.00195
C 20.86362 2.21496 -0.00802
C 20.87918 0.68848 -0.00218
C 19.61253 0.0075 -0.01654
C 23.50061 13.38231 -0.00037
C 22.23009 12.76176 -0.0032
C 26.8943 4.22347 -0.03039
C 22.16677 11.36591 0.00622
C 23.41589 9.19967 -0.00942
C 22.15503 2.75007 0.00487
C 23.26174 2.01165 0.00826
C 23.25768 0.33831 -0.00294
C 21.94386 33.95961 0.00152
C 24.71416 12.66307 0.01257
C 24.55468 11.32112 0.02316
C 25.79016 10.55829 0.04185
C 23.34403 10.55168 -0.02815
C 2.42718 32.74198 -0.01378
