401
Graphene
C 0.02153 0.0065 0.01295
C 12.27329 32.71564 0.00165
C 13.53487 31.96881 -0.02971
C 13.50776 30.61094 0.02894
C 12.29882 29.86956 -0.01789
C 12.34106 28.44704 0.00444
C 13.50495 27.66135 -0.00925
C 13.46166 26.21345 0.01877
C 12.21221 25.48304 0.01363
C 12.28623 24.08697 -0.02162
C 13.5423 23.36469 0.00415
C 13.54481 21.96489 -0.0014
C 12.35282 21.27997 0.02162
C 12.38027 19.90015 0.0076
C 13.60087 19.17306 0.01241
C 13.49019 17.75102 -0.01454
C 12.27675 17.01226 0.01945
C 12.29719 15.53816 0.01416
C 13.53683 14.82041 0.03542
C 13.49129 13.42866 0.02299
C 12.30734 12.79714 0.00244
C 12.23621 11.37794 -0.01717
C 9.8148 0.06525 0.02819
C 13.58274 10.65791 0.05265
C 10.9915 0.83746 -0.00891
C 9.82558 2.9786 -0.02689
C 9.83396 25.58952 0.02339
C 9.85897 24.17308 0.01641
C 11.00562 23.38835 -0.00719
C 11.10327 21.97869 0.01364
C 9.80861 21.32446 -0.01062
C 9.86478 19.95236 -0.00033
C 11.11969 19.24436 0.03589
C 11.04177 17.83165 -0.02759
C 9.78103 17.05956 0.0402
C 9.83436 15.63323 0.00572
C 11.0806 14.86924 0.03592
C 11.1155 13.49248 0.00406
C 9.91557 12.75633 0.00943
C 9.85255 11.30824 0.02841
C 11.06432 10.63236 -0.01111
C 11.02297 9.17136 -0.01275
C 9.79687 8.49172 0.00985
C 9.85791 7.0913 -0.02245
C 11.1514 6.38055 -0.00428
C 11.09321 4.99404 0.03101
C 9.82896 4.37483 -0.01536
C 11.02205 2.22326 -0.01046
C 11.04446 26.31924 -0.00334
C 13.48386 9.24463 -0.01952
C 12.33234 7.05478 0.00374
C 14.69407 11.42145 -0.05302
C 15.98947 0.56858 0.00213
C 14.74353 0.04057 -0.00066
C 17.23205 32.72781 -0.00289
C 18.40601 32.00765 0.00028
C 18.47585 30.5521 -0.02213
C 17.24471 29.81083 0.03698
C 17.24181 28.42569 -0.00109
C 18.47744 27.65228 -0.00491
C 18.42064 26.25403 0.03338
C 17.16764 25.49392 -0.0258
C 17.14664 24.09932 -0.0331
C 18.46503 23.36824 -0.00316
C 18.47131 21.9804 0.02188
C 17.20515 21.33008 -0.01979
C 17.21305 19.92022 0.02691
C 18.40026 19.23698 -0.01581
C 18.3804 17.83043 0.01452
C 17.14244 17.12245 0.04892
C 17.2053 15.63002 -0.00111
C 18.5622 14.91891 -0.03557
C 14.84612 12.76935 -0.04147
C 12.3466 8.44585 -0.02813
C 16.07073 13.51128 -0.02815
C 14.71166 15.58812 0.01443
C 12.23776 4.28573 0.00052
C 12.40049 2.8777 -0.03682
C 13.46949 2.04301 0.01965
C 13.51226 0.74721 0.02058
C 12.26706 0.04741 -0.01957
C 14.7304 32.70226 -0.0108
C 15.94151 31.98424 -0.00368
C 15.96468 30.54941 -0.02696
C 14.69871 29.85574 -0.00114
C 14.73323 28.38819 0.00228
C 15.96276 27.71295 0.00798
C 15.96292 26.24155 0.00422
C 14.69567 25.50928 0.0351
C 14.72004 24.10009 -0.03113
C 15.93981 23.35652 0.02098
C 15.96128 21.98258 0.01848
C 14.76457 21.24258 -0.00619
C 14.80574 19.85325 -0.02162
C 16.00085 19.20593 0.00889
C 15.97085 17.79926 -0.00481
C 14.7608 17.07001 0.00979
C 16.02778 14.94955 0.03505
C 11.10008 27.74028 -0.01634
C 9.84091 28.40471 0.00057
C 9.73928 29.8466 0.00093
C 2.40255 4.30076 0.02374
C 2.3877 2.89816 0.00402
C 3.6891 2.19872 0.0073
C 3.66761 0.75292 0.0174
C 2.45972 0.01569 0.03828
C 4.91029 32.69547 0.01226
C 6.25133 31.95901 -0.00279
C 6.11414 30.5898 0.01996
C 4.90857 29.89592 -0.03996
C 4.86632 28.48859 0.01465
C 6.09534 27.69174 -0.00074
C 6.1107 26.27022 -0.00518
C 4.82308 25.57242 0.0086
C 4.89086 24.12499 -0.00643
C 6.17519 23.39139 0.017
C 6.17322 21.97874 -0.03113
C 4.98945 21.26112 -0.02566
C 4.98507 19.83523 -0.00094
C 6.2228 19.12685 0.02322
C 6.08939 17.77168 -0.00725
C 4.85784 17.02838 -0.05697
C 3.63478 5.03583 0.03267
C 4.92722 15.57572 0.01087
C 3.69934 6.41631 -0.01509
C 2.48548 8.56044 0.00907
C 3.71048 30.48562 -0.00039
C 2.4578 29.73207 0.0064
C 2.38542 28.37233 0.00211
C 3.60621 27.77214 -0.00449
C 3.64148 26.37953 -0.01979
C 2.48092 25.59299 0.02784
C 2.51998 24.15868 -0.01977
C 3.70139 23.44232 -0.00561
C 3.74377 21.97054 0.00208
C 2.48796 21.36889 0.01707
C 2.43457 19.90809 0.02769
C 3.6417 19.18776 -0.03291
C 3.58443 17.7518 -0.04999
C 2.39772 16.99347 0.04505
C 2.50421 15.62439 0.03284
C 3.73814 14.9405 -0.04307
C 3.67111 13.54782 0.03189
C 2.41213 12.84332 0.00031
C 2.40595 11.36857 -0.003
C 3.70419 10.68936 0.01402
C 3.71973 9.2741 0.02379
C 2.46677 7.1616 0.00643
C 6.11213 14.85417 -0.01343
C 6.09944 13.41323 0.00988
C 4.87009 12.79456 0.0276
C 8.56173 17.73753 -0.0008
C 7.2766 17.00694 0.0288
C 7.31786 15.55971 0.00393
C 8.58754 14.88609 0.00895
C 8.6592 13.43004 0.00685
C 7.37173 12.80879 0.02888
C 7.3715 11.39053 -0.00482
C 8.58109 10.66485 -0.01384
C 8.54259 9.24532 0.03693
C 7.32938 8.58806 0.01745
C 7.39774 7.14277 0.00488
C 8.64288 6.45158 -0.01004
C 8.59951 4.99949 -0.02896
C 7.35813 4.29827 -0.00131
C 7.37933 2.89499 -0.01118
C 8.65912 2.21223 -0.014
C 8.62718 0.78506 0.02147
C 7.36411 0.09191 0.00373
C 9.84522 32.64639 -0.00191
C 11.02954 31.9823 0.00438
C 11.04407 30.53281 0.01291
C 8.654 19.18865 -0.01362
C 7.39027 19.86519 -0.00892
C 7.43743 21.28297 -0.04848
C 8.62639 22.01307 0.01572
C 4.88661 11.41996 0.01305
C 6.11906 10.68705 -0.00077
C 6.09855 9.26041 0.03368
C 4.89429 8.52618 -0.02929
C 4.89636 7.09051 -0.00966
C 6.1763 6.44611 -0.03337
C 6.13871 5.01404 0.01227
C 4.86816 4.30443 0.00873
C 4.96208 2.89466 -0.00049
C 6.18649 2.17086 0.00848
C 18.38528 13.50808 0.03754
C 6.06618 0.72984 -0.01303
C 7.36476 32.7888 0.02635
C 8.5776 31.97664 0.0127
C 8.52226 30.55817 0.01396
C 7.2893 29.78704 0.01849
C 7.33181 28.38439 -0.01142
C 8.61731 27.7286 -0.00562
C 8.609 26.34982 -0.00494
C 7.34045 25.54968 0.00054
C 7.39063 24.1506 0.03007
C 8.62228 23.48809 -0.00095
C 4.85666 34.03761 -0.01378
C 3.69468 31.88879 0.02728
C 17.29468 12.98196 0.01739
C 19.70233 32.77722 -0.0054
C 29.46069 7.14742 0.01518
C 30.70221 6.45502 0.01908
C 30.70843 5.0201 0.07705
C 29.53733 4.25792 0.0103
C 29.55447 2.79402 0.02108
C 30.76773 2.09575 0.00716
C 30.77085 0.69701 0.00307
C 29.52705 0.06632 0.00346
C 32.02193 32.66517 0.01713
C 33.2182 31.94722 -0.01694
C 33.20369 30.53955 0.01428
C 32.00699 29.83831 -0.02142
C 32.01798 28.38759 0.0544
C 33.2252 27.59836 0.00026
C 33.26119 26.19852 0.00682
C 31.98731 25.58514 -0.01779
C 31.98875 24.15494 0.03794
C 33.17578 23.44112 0.01927
C 33.22632 21.98745 0.01574
C 31.95144 21.24272 -0.02383
C 31.91742 19.80956 -0.01429
C 29.51603 8.5597 -0.00971
C 33.09811 19.05889 -0.0136
C 30.69706 9.22028 -0.03735
C 29.50134 11.41422 -0.02155
C 27.12426 34.05133 -0.00416
C 29.57813 32.6979 0.01177
C 30.7528 31.96185 0.04266
C 30.75895 30.51599 0.01324
C 29.57214 29.77686 0.0014
C 29.54921 28.33916 0.00924
C 30.78949 27.69209 0.02326
C 30.75268 26.23815 0.00261
C 29.43514 25.56174 0.03265
C 29.48215 24.16563 -0.02049
C 30.76392 23.4896 -0.01854
C 30.81247 22.03373 -0.01415
C 29.47501 21.34365 -0.03039
C 29.48349 19.95693 0.01836
C 30.6969 19.17185 0.03531
C 30.69704 17.76993 -0.00669
C 29.51008 17.06471 0.0101
C 29.55489 15.63558 0.01705
C 30.71797 14.86972 -0.0405
C 30.72306 13.49978 -0.01303
C 29.51951 12.7501 -0.01461
C 30.70253 10.71133 -0.00944
C 28.32095 0.77272 0.01699
C 33.18293 17.66601 0.00594
C 31.96217 15.60827 0.00369
C 1.28383 22.0594 0.02712
C 0.0276 21.28545 -0.02213
C 34.35264 19.83484 0.01951
C 1.15758 19.14699 -0.01678
C 1.17742 17.71774 0.01223
C 34.37361 16.98862 0.00648
C 34.40231 15.58868 0.02114
C 1.24619 14.97025 -0.02957
C 1.20716 13.56176 0.00343
C 34.43306 12.82304 -0.02656
C 34.39583 11.33493 -0.02442
C 1.17134 10.62358 -0.00027
C 1.1811 9.24077 -0.00583
C 34.3869 8.48346 -0.02302
C 34.4149 7.05003 -0.02849
C 1.26326 6.45214 0.02931
C 1.21624 5.02166 0.00628
C 34.39314 4.35004 -0.0345
C 34.39286 2.90207 -0.00931
C 1.16373 2.1732 -0.00939
C 1.20269 0.77407 -0.00468
C 1.24963 23.47656 0.00723
C 31.90833 16.96017 -0.02474
C 0.01649 24.11313 0.03076
C 1.20027 26.23995 -0.00598
C 33.16812 14.88154 0.00455
C 33.15992 13.48747 -0.00644
C 31.96612 12.77181 -0.01839
C 31.97961 11.38639 0.00137
C 33.18639 10.62065 0.00199
C 33.17772 9.20099 0.04381
C 31.88157 8.56266 0.02806
C 31.97819 7.1087 0.01504
C 33.16655 6.3441 -0.00069
C 33.1463 4.92962 0.04926
C 31.90729 4.26024 -0.03838
C 31.97178 2.79766 0.00349
C 33.2149 2.13497 -0.00323
C 33.223 0.72766 -0.00841
C 31.99421 34.0585 0.0001
C 0.02969 32.67625 -0.02927
C 1.23473 31.85686 -0.01404
C 1.22429 30.45065 0.01027
C 34.42387 29.77281 0.01831
C 34.39451 28.31045 -0.01037
C 1.13191 27.65681 -0.00439
C 0.01804 25.48346 -0.05239
C 28.23496 2.22617 0.01799
C 26.95291 2.86158 0.01259
C 26.90696 4.27297 0.01495
C 23.34177 26.231 0.00199
C 22.12665 25.54273 0.01511
C 22.11092 24.14422 -0.00478
C 23.30015 23.39461 -0.01662
C 23.23743 21.99554 -0.01185
C 22.00278 21.26887 0.01126
C 22.15519 19.82853 0.01852
C 23.37634 19.12252 -0.00381
C 23.4017 17.69696 0.03046
C 22.17481 16.96178 0.0296
C 22.19842 15.54644 0.03374
C 23.39125 14.8279 -0.02845
C 23.3622 13.37788 -0.03213
C 21.96734 12.83051 0.02239
C 23.23973 0.73764 0.01153
C 22.31448 34.03969 0.02734
C 24.71302 32.73312 -0.0055
C 25.88893 31.88596 0.01515
C 25.86819 30.4909 -0.00225
C 24.63941 29.74813 0.00071
C 24.60276 28.40534 -0.01107
C 23.36103 27.67395 0.01087
C 25.79905 27.67851 -0.01586
C 22.18689 28.41977 -0.01527
C 23.41415 30.56858 0.01277
C 20.96942 31.95894 0.00667
C 20.91889 30.59528 0.00143
C 19.73414 29.85185 -0.017
C 19.67724 28.34026 0.00364
C 20.94519 27.69704 -0.00831
C 20.89971 26.30585 -0.02957
C 19.69404 25.58324 -0.04422
C 19.64628 24.15452 0.00654
C 20.90513 23.50295 -0.00703
C 20.84371 22.02852 -0.04076
C 19.65604 21.28919 -0.00652
C 19.66601 19.9086 0.0058
C 20.92647 19.17 -0.00865
C 20.94228 17.7337 0.00675
C 19.68335 17.07771 -0.00311
C 19.76263 15.63334 0.00742
C 20.91874 14.8527 -0.01594
C 20.87046 13.35531 0.0106
C 19.79282 34.07593 -0.01154
C 22.24142 32.64313 -0.01721
C 23.52895 31.95009 -0.02422
C 22.20085 29.88816 0.00096
C 25.77381 26.24116 -0.01971
C 24.58151 25.52438 -0.02118
C 24.56702 24.10598 0.00733
C 28.18924 26.26305 -0.00802
C 26.98022 25.51478 -0.00218
C 27.01003 24.10352 -0.01654
C 28.23914 23.3845 -0.00037
C 28.20091 21.94153 -0.0032
C 26.96324 21.24306 0.00622
C 26.96756 19.86449 -0.02815
C 28.22123 19.20608 -0.00942
C 28.23514 17.76469 0.00487
C 27.01294 17.04626 0.00826
C 27.07532 15.59813 -0.00294
C 28.30898 14.90756 0.00152
C 28.27175 13.44367 0.01257
C 27.08267 12.71328 0.02316
C 27.01449 11.32047 0.04185
C 28.29364 10.7205 0.00194
C 28.33718 9.30172 -0.00621
C 27.08006 8.5184 0.02611
C 27.02053 7.09925 0.02198
C 28.22816 6.37664 0.01094
C 28.22951 4.9239 0.00235
C 28.24519 27.69148 0.00195
C 27.03184 28.43945 0.00996
C 27.08597 29.83907 0.04306
C 28.38366 30.53076 0.00367
C 25.74471 23.45148 -0.00178
C 25.79002 22.00294 0.00768
C 24.47079 21.29692 -0.0276
C 24.53992 19.89147 0.03005
C 25.77686 19.17406 -0.04078
C 25.79853 17.71115 0.02117
C 24.58805 16.95078 0.02737
C 24.56619 15.5305 -0.00498
C 25.82903 14.85646 0.00135
C 25.89025 13.49581 0.03102
C 17.13698 0.08141 0.00755
C 24.67474 12.7496 0.02555
C 25.6675 10.55333 -0.00285
C 25.91648 9.16994 -0.009
C 25.8189 6.35523 -0.01199
C 25.87374 5.11724 -0.00229
C 24.59864 2.75233 -0.00938
C 25.77481 2.06853 -0.0264
C 25.86654 0.6199 -0.01154
C 24.62219 0.08553 0.00684
C 27.08546 32.62723 -0.01052
C 28.30541 31.98021 -0.01679
C 24.61 11.38433 0.01423
C 2.4761 32.62342 0.00245
