368
Graphene
C 34.33238 0.10344 0.01295
C 18.43375 30.52699 -0.01952
C 17.18163 29.88526 -0.02813
C 17.20996 28.455 0.00374
C 18.4017 27.65153 0.00052
C 18.25687 26.25984 -0.03682
C 16.85788 25.55662 0.01965
C 17.02502 24.18466 0.02058
C 18.08183 23.36122 -0.01957
C 18.28358 21.94841 -0.0108
C 18.44087 18.83988 -0.00368
C 18.42063 17.68422 -0.02696
C 16.9272 14.89735 -0.00114
C 18.32938 14.86672 0.00228
C 18.53828 13.41749 0.00798
C 17.23615 12.82534 0.00422
C 17.21407 11.30334 0.0351
C 18.42034 10.63137 -0.03113
C 18.34284 9.20557 0.02098
C 17.21763 8.52091 0.01848
C 18.38891 31.94669 0.05265
C 17.17433 7.17855 -0.00619
C 17.19423 32.6344 -0.01717
C 15.93338 0.71791 0.02299
C 15.92332 32.00487 0.02819
C 15.95994 30.55487 0.00165
C 14.72925 29.9006 -0.02971
C 14.87923 28.59494 0.02894
C 16.05409 27.79174 -0.01789
C 15.65824 26.41401 0.00444
C 14.13783 26.34727 -0.00925
C 16.17602 13.81285 0.01877
C 15.01849 13.04469 0.01363
C 14.61894 11.63382 -0.02162
C 15.97978 10.74266 0.00415
C 15.89467 9.30667 -0.0014
C 14.65379 8.62004 0.02162
C 14.64581 7.20667 0.0076
C 15.9295 6.55576 0.01241
C 15.9672 5.06153 -0.01454
C 14.75866 4.41939 0.01945
C 14.7463 2.91344 0.01416
C 15.94245 2.12362 0.03542
C 14.72985 34.0183 0.00244
C 14.75283 32.63176 -0.00891
C 18.41953 6.48578 -0.02162
C 17.20777 4.33691 -0.00481
C 19.65597 12.77211 0.04892
C 19.63042 11.31092 -0.00111
C 20.82149 10.58858 -0.03557
C 20.85685 9.17998 0.03754
C 19.65435 8.48283 0.01739
C 19.63035 7.05177 0.00755
C 20.83881 6.39514 -0.0054
C 20.88036 4.98691 0.00667
C 19.63975 4.23349 0.00143
C 19.68052 2.87021 -0.017
C 20.87649 2.10928 0.00364
C 20.88375 0.7314 -0.00831
C 19.59554 34.06477 -0.02957
C 22.11233 32.65124 -0.04422
C 23.31504 31.95025 0.00654
C 23.24876 30.4357 -0.00703
C 22.00724 29.76886 -0.04076
C 22.04078 28.2801 -0.00652
C 23.18609 27.57464 0.0058
C 20.94084 13.3768 0.01452
C 18.40604 5.08309 0.00889
C 20.86168 14.86372 -0.01581
C 19.62382 16.92391 -0.01979
C 17.1691 2.86676 0.00979
C 18.39565 2.07803 0.01443
C 18.34439 0.69375 0.03505
C 17.13772 0.01294 -0.02815
C 19.66073 32.69658 -0.04147
C 20.85235 31.94975 -0.05302
C 20.77265 30.54312 0.00213
C 19.59461 29.79531 -0.00066
C 19.61323 28.40122 -0.00289
C 20.81113 27.58757 0.00028
C 20.72144 26.16778 -0.02213
C 19.45748 25.50155 0.03698
C 19.53638 24.04806 -0.00109
C 20.65233 23.34072 -0.00491
C 20.70537 21.89655 0.03338
C 19.47103 21.1723 -0.0258
C 19.54414 19.75503 -0.0331
C 20.72801 19.06571 -0.00316
C 20.83128 17.6457 0.02188
C 19.51233 15.51335 0.02691
C 23.1063 26.04787 -0.00865
C 12.36565 0.0791 -0.01046
C 13.52702 2.14396 -0.01536
C 6.12398 30.60457 0.01227
C 4.90156 29.95521 0.00873
C 4.85832 28.5193 -0.00049
C 6.04809 27.84263 0.00848
C 4.88861 11.36641 -0.01303
C 6.15583 10.85017 -0.01378
C 6.04112 9.48166 0.02635
C 4.84565 8.6285 0.0127
C 4.87919 7.22695 0.01396
C 6.05363 6.52551 0.01849
C 6.08972 5.08302 -0.01142
C 4.87934 4.32353 -0.00562
C 4.84993 2.94115 -0.00494
C 6.12216 2.14317 0.00054
C 6.18345 0.71581 0.03007
C 4.88574 0.10818 -0.00095
C 7.45025 32.64712 0.01572
C 8.59411 31.95824 -0.04848
C 8.64539 30.53947 -0.00892
C 6.14469 32.06869 -0.03337
C 7.35746 29.83529 -0.01362
C 4.89579 32.79131 -0.00966
C 3.65004 0.83685 0.03368
C 3.66739 30.68708 -0.03996
C 2.35526 29.94757 0.01465
C 2.38124 28.52312 -0.00074
C 3.60058 27.9288 -0.00518
C 3.73165 26.49119 0.0086
C 2.6405 25.61769 -0.00643
C 2.32116 24.18005 0.017
C 4.05506 12.78396 -0.03113
C 2.79252 12.77979 -0.02566
C 2.4619 11.31523 -0.00094
C 3.60123 10.60657 0.02322
C 3.64777 9.3058 -0.00725
C 2.39164 8.53689 -0.05697
C 2.38437 7.19235 0.01087
C 3.65945 6.43277 -0.01343
C 3.61122 4.98639 0.00988
C 2.36974 4.37382 0.0276
C 2.42598 2.90851 0.01305
C 3.6804 2.27334 -0.00077
C 2.45776 0.087 -0.02929
C 13.59318 0.76469 -0.02689
C 7.40736 28.21427 -0.0008
C 8.07057 10.92354 0.00393
C 9.88122 2.99357 0.01641
C 11.09605 2.26571 -0.00719
C 11.03549 0.80431 0.01364
C 9.81668 0.02722 -0.01062
C 12.35844 32.72683 -0.00033
C 13.47011 31.94443 0.03589
C 13.54826 30.57105 -0.02759
C 12.41888 29.72381 0.0402
C 12.47494 28.32368 0.00572
C 13.73028 27.86835 0.03592
C 12.03768 11.40838 0.00406
C 13.45865 10.90047 0.00943
C 13.40605 9.40914 0.02841
C 12.13206 8.61923 -0.01111
C 12.20563 7.24616 -0.01275
C 13.48282 6.4945 0.00985
C 13.54531 5.07772 -0.02245
C 12.26091 4.43522 -0.00428
C 12.33492 2.89203 0.03101
C 9.84883 4.37926 0.02339
C 8.68554 27.71369 0.0288
C 11.02492 5.138 -0.00334
C 9.72335 7.29999 0.00057
C 8.4369 9.47499 0.00895
C 7.19881 8.74358 0.00685
C 7.22408 7.27164 0.02888
C 8.45954 6.51414 -0.00482
C 8.51738 5.00649 -0.01384
C 7.32096 4.32935 0.03693
C 7.3192 2.94875 0.01745
C 8.61891 2.23731 0.00488
C 8.60787 0.77624 -0.01004
C 7.39164 34.07961 -0.02896
C 9.93241 32.64298 -0.00131
C 11.13384 31.89128 -0.01118
C 11.0913 30.45972 -0.014
C 9.81495 29.81493 0.02147
C 9.96137 28.18611 0.00373
C 11.24763 27.72003 -0.00191
C 11.1055 10.6684 0.00438
C 10.80926 9.3165 0.01291
C 9.62623 8.65356 0.00093
C 10.95312 6.539 -0.01634
C 21.85251 25.44514 0.00675
C 21.93204 24.01233 -0.00311
C 23.19805 23.35256 0.00742
C 30.74376 0.70452 0.00307
C 29.48873 34.05792 0.00346
C 31.88107 32.70804 0.01713
C 33.1547 32.00394 -0.01694
C 33.06439 30.57548 0.01428
C 31.83489 29.83501 -0.02142
C 31.86503 28.41809 0.0544
C 33.09224 27.74805 0.00026
C 33.17451 26.33494 0.00682
C 31.90994 25.58191 -0.01779
C 31.93546 24.24328 0.03794
C 33.11221 23.48102 0.01927
C 33.23869 22.07312 0.01574
C 32.02666 21.3305 -0.02383
C 31.98529 19.85641 -0.01429
C 33.22243 19.18216 -0.0136
C 33.24232 17.73442 0.00594
C 32.00436 17.10297 -0.02474
C 32.00819 15.56214 0.00369
C 30.71715 2.22333 0.00716
C 33.35364 14.85881 0.00455
C 29.53501 2.8414 0.02108
C 30.71359 4.99109 0.07705
C 29.44759 25.52077 0.03265
C 29.43561 24.00529 -0.02049
C 30.69751 23.41217 -0.01854
C 30.69611 21.99475 -0.01415
C 29.50115 21.26606 -0.03039
C 29.50044 19.80744 0.01836
C 30.71327 19.17623 0.03531
C 30.73832 17.76786 -0.00669
C 29.44516 17.01954 0.0101
C 29.52602 15.55918 0.01705
C 30.79733 14.91042 -0.0405
C 30.80106 13.54582 -0.01303
C 29.52583 12.83599 -0.01461
C 29.47356 11.28166 -0.02155
C 30.68886 10.61178 -0.00944
C 30.77763 9.26845 -0.03735
C 29.52502 8.51405 -0.00971
C 29.49682 7.12592 0.01518
C 30.74445 6.45812 0.01908
C 29.46334 4.2591 0.0103
C 30.67274 26.33631 0.00261
C 33.38044 13.42929 -0.00644
C 32.01247 11.39263 0.00137
C 0.04566 19.97058 0.01951
C 1.12725 19.04207 -0.01678
C 1.15643 17.8885 0.01223
C 0.12896 17.00474 0.00648
C 0.08888 15.66846 0.02114
C 1.27773 14.84585 -0.02957
C 1.56314 13.49424 0.00343
C 0.19215 12.7121 -0.02656
C 0.03776 11.40381 -0.02442
C 1.20962 10.64786 -0.00027
C 1.1649 9.17869 -0.00583
C 34.42845 8.4905 -0.02302
C 34.39206 7.11582 -0.02849
C 1.17467 6.45561 0.02931
C 1.16117 5.01582 0.00628
C 34.39538 4.25391 -0.0345
C 34.33006 2.90474 -0.00931
C 1.19449 2.17776 -0.00939
C 1.19766 0.73642 -0.00468
C 0.03806 21.37188 -0.02213
C 31.94056 12.83808 -0.01839
C 1.35953 22.07784 0.02712
C 34.33192 24.17668 0.03076
C 33.18896 10.73677 0.00199
C 33.24652 9.27189 0.04381
C 32.05119 8.52004 0.02806
C 31.9649 7.15077 0.01504
C 33.19382 6.39862 -0.00069
C 33.1619 4.97679 0.04926
C 31.87277 4.22208 -0.03838
C 31.95855 2.80232 0.00349
C 33.10248 2.12723 -0.00323
C 33.06542 0.70508 -0.00841
C 31.90385 0.05065 0.0001
C 34.3152 32.78843 -0.02927
C 1.14579 32.07494 -0.01404
C 1.14762 30.61508 0.01027
C 34.25384 29.84936 0.01831
C 34.31708 28.43977 -0.01037
C 1.1323 27.74305 -0.00439
C 1.22036 26.2738 -0.00598
C 34.36017 25.59375 -0.05239
C 1.22109 23.45781 0.00723
C 30.57753 27.71486 0.02326
C 29.44743 28.47305 0.00924
C 29.45722 29.85566 0.0014
C 25.7538 31.91895 0.01153
C 25.68302 30.44221 0.02734
C 24.43259 29.76279 -0.0055
C 24.45434 28.28837 0.01515
C 25.68322 27.64411 -0.00225
C 25.66163 26.20403 0.00071
C 24.43066 25.4899 -0.01107
C 24.41007 24.07247 -0.01586
C 25.69924 23.38868 -0.01971
C 25.72759 21.95317 -0.02118
C 24.51014 21.25899 0.00733
C 24.57269 19.75405 -0.00178
C 25.77093 19.12605 0.00768
C 25.81264 17.71243 -0.0276
C 24.53517 17.0354 0.03005
C 24.62809 15.57808 -0.04078
C 25.83257 14.86984 0.02117
C 25.89285 13.47239 0.02737
C 24.62969 12.7703 -0.00498
C 24.55426 32.71428 0.02239
C 24.60739 11.35065 0.00135
C 22.13223 34.0614 -0.03213
C 23.30312 2.12643 0.03374
C 23.28521 21.89119 -0.01594
C 22.05825 21.23066 0.0106
C 22.03579 19.78698 -0.01154
C 23.33135 19.12403 -0.01721
C 23.25945 17.71251 -0.02422
C 22.05399 16.97361 0.01277
C 22.1063 15.54996 0.00096
C 23.35474 14.83091 -0.01527
C 23.42405 13.43029 0.01087
C 22.18859 12.6931 0.00199
C 22.03031 11.31889 0.01511
C 23.26241 10.63131 -0.00478
C 23.32012 9.22166 -0.01662
C 22.05309 8.55374 -0.01185
C 22.11574 7.00772 0.01126
C 23.35775 6.35533 0.01852
C 23.30586 4.97806 -0.00381
C 22.16814 4.21046 0.03046
C 22.13325 2.83207 0.0296
C 23.26324 0.65133 -0.02845
C 25.75484 10.56525 0.03102
C 25.72827 9.23266 0.02555
C 24.56495 8.50936 0.01423
C 27.05727 15.59818 -0.00294
C 28.27054 14.84856 0.00152
C 28.30631 13.47374 0.01257
C 27.07339 12.70032 0.02316
C 27.0277 11.25863 0.04185
C 28.24918 10.55251 0.00194
C 28.27096 9.16971 -0.00621
C 27.0097 8.48239 0.02611
C 26.95785 7.09588 0.02198
C 28.34848 6.30729 0.01094
C 28.26987 4.94289 0.00235
C 27.00192 4.2299 0.01495
C 27.00036 2.84933 0.01259
C 28.22743 2.08616 0.01799
C 28.25178 0.5917 0.01699
C 26.99743 34.07803 -0.00416
C 29.46927 32.70748 0.01177
C 30.695 31.97102 0.04266
C 30.69705 30.65681 0.01324
C 27.00301 16.99618 0.00826
C 28.21146 17.75774 0.00487
C 28.21075 19.18993 -0.00942
C 26.99644 19.84409 -0.02815
C 24.54114 7.10358 -0.00285
C 25.81172 6.34885 -0.009
C 25.72809 4.906 -0.01199
C 24.56444 4.19456 -0.00229
C 24.54878 2.77916 -0.00938
C 25.72426 2.11536 -0.0264
C 25.72847 0.69624 -0.01154
C 24.51598 34.05184 0.00684
C 26.9441 32.65318 -0.01052
C 3.71605 32.06187 0.01996
C 28.20515 31.9285 -0.01679
C 26.93503 29.75293 0.04306
C 26.957 28.3108 0.00996
C 28.21422 27.70022 0.00195
C 28.22374 26.28711 -0.00802
C 26.95543 25.51297 -0.00218
C 26.91671 24.09601 -0.01654
C 28.14496 23.41336 -0.00037
C 28.26714 22.03596 -0.0032
C 26.98327 21.22452 0.00622
C 28.26233 30.51348 0.00367
C 2.43159 32.79696 -0.00279
