416
Graphene
C 0.01488 0.02304 0.01295
C 12.33157 28.37805 -0.01111
C 13.4928 27.77337 -0.01275
C 13.53188 26.31043 0.00985
C 12.31756 25.55319 -0.02245
C 12.32547 24.19394 -0.00428
C 13.53534 23.44492 0.03101
C 13.4698 21.96442 -0.01536
C 12.2567 21.28514 -0.02689
C 12.29114 19.80002 -0.01046
C 13.55439 19.13914 -0.00891
C 12.33403 29.85741 0.02841
C 13.57458 17.70821 0.02819
C 12.32778 15.626 -0.02971
C 13.56013 14.89322 0.02894
C 13.4887 13.56864 -0.01789
C 12.30184 12.75034 0.00444
C 12.29215 11.2996 -0.00925
C 13.47822 10.61121 0.01877
C 13.59012 9.16298 0.01363
C 12.25698 8.4877 -0.02162
C 12.25439 7.13407 0.00415
C 13.53419 6.36473 -0.0014
C 12.28193 17.09258 0.00165
C 13.46679 5.02577 0.02162
C 13.54152 30.55643 0.00943
C 12.30022 32.70384 0.03592
C 11.08762 22.04723 -0.00131
C 9.87232 21.29922 -0.01118
C 9.8213 19.89575 -0.014
C 11.07483 19.16885 0.02147
C 11.09383 17.78529 0.00373
C 9.85596 17.13373 -0.00191
C 9.83723 15.63693 0.00438
C 11.04895 14.97494 0.01291
C 11.09874 13.44019 0.00093
C 9.86188 12.76742 0.00057
C 13.53522 31.98505 0.00406
C 9.90967 11.36014 -0.01634
C 11.05531 9.19407 0.02339
C 9.84147 8.56367 0.01641
C 9.8655 7.08297 -0.00719
C 11.0093 6.3931 0.01364
C 11.09891 4.98913 -0.01062
C 9.89949 4.27721 -0.00033
C 9.82892 2.86566 0.03589
C 11.08254 2.14172 -0.02759
C 11.03361 0.79574 0.0402
C 9.81635 0.02201 0.00572
C 11.06982 10.60387 -0.00334
C 11.05555 23.43568 -0.02896
C 12.30625 4.29236 0.0076
C 13.53352 2.08752 -0.01454
C 14.73258 7.11265 -0.00619
C 15.96822 6.42838 -0.02162
C 15.99678 4.96308 0.00889
C 14.78384 4.32714 -0.00481
C 14.74899 2.80516 0.00979
C 16.00889 2.14494 0.01443
C 15.98075 0.69536 0.03505
C 14.77821 34.03494 -0.02815
C 17.18401 32.6854 -0.04147
C 18.42332 31.94605 -0.05302
C 14.7799 8.46708 0.01848
C 18.45205 30.4992 0.00213
C 17.20937 28.43124 -0.00289
C 18.4378 27.64221 0.00028
C 18.421 26.32017 -0.02213
C 17.16884 25.59962 0.03698
C 17.21088 24.13835 -0.00109
C 18.4162 23.41201 -0.00491
C 18.4606 21.97932 0.03338
C 17.23159 21.29597 -0.0258
C 17.2187 19.89247 -0.0331
C 18.43048 19.21892 -0.00316
C 17.2529 29.8317 -0.00066
C 12.29652 2.84393 0.01241
C 15.99276 9.17572 0.02098
C 14.73476 11.31687 0.0351
C 13.51629 0.70814 0.01945
C 12.32024 0.05426 0.01416
C 14.72838 32.65633 0.03542
C 15.99023 31.95834 0.02299
C 15.96112 30.54368 0.00244
C 14.7597 29.8086 -0.01717
C 14.72276 28.39565 0.05265
C 15.97535 27.68556 -0.01952
C 16.00959 26.24774 -0.02813
C 14.73395 25.53695 0.00374
C 15.97493 10.57857 -0.03113
C 14.70969 24.11624 0.00052
C 16.00428 21.99304 0.01965
C 14.72034 21.26196 0.02058
C 14.77562 19.86129 -0.01957
C 16.03 19.18542 -0.0108
C 15.97295 17.7957 -0.00368
C 14.78713 16.98266 -0.02696
C 14.73753 15.61516 -0.00114
C 15.9766 14.93359 0.00228
C 15.98755 13.52441 0.00798
C 14.74014 12.74916 0.00422
C 15.98036 23.44861 -0.03682
C 18.41812 17.78099 0.02188
C 9.77818 24.15056 -0.01004
C 11.05538 26.26096 0.01745
C 2.49243 2.87458 -0.03291
C 3.72068 2.07678 -0.04999
C 3.7089 0.721 0.04505
C 2.46801 34.07778 0.03284
C 4.90404 32.6558 -0.04307
C 6.07908 31.98739 0.03189
C 6.16203 30.55024 0.00031
C 4.91141 29.81327 -0.003
C 4.87796 28.40659 0.01402
C 6.10532 27.74147 0.02379
C 2.50726 4.24339 0.02769
C 6.20401 26.3176 0.00907
C 4.8857 24.13443 -0.01509
C 6.21554 23.39958 0.03267
C 6.17553 22.01195 0.02374
C 4.90126 21.28624 0.00402
C 4.90195 19.95868 0.0073
C 6.14244 19.17603 0.0174
C 6.17211 17.72217 0.03828
C 4.91072 17.05243 0.01226
C 4.92896 15.6322 -0.00279
C 6.12505 14.8863 0.01996
C 4.96406 25.55387 0.00643
C 6.08031 13.4491 -0.03996
C 3.68547 5.04489 0.01707
C 2.41801 7.11893 -0.00561
C 3.69378 30.54059 -0.00407
C 2.5108 29.84129 0.01138
C 2.48751 28.31772 0.03278
C 3.72159 27.68315 -0.00177
C 3.71348 26.31059 0.04421
C 2.45893 25.5929 0.00088
C 2.44563 24.15241 0.00828
C 3.64282 23.4077 -0.02375
C 3.69154 21.98804 0.00558
C 2.48552 21.31668 -0.0059
C 3.70301 6.37552 0.00208
C 2.47841 19.89389 -0.01386
C 3.70293 17.80164 0.00081
C 2.43285 17.03823 0.00245
C 2.50758 15.6143 0.02728
C 3.71713 14.91034 -0.00039
C 3.69317 13.51606 0.0064
C 2.43141 12.67902 0.00211
C 2.45788 11.3239 -0.00449
C 3.66271 10.63682 -0.01979
C 3.62692 9.17627 0.02784
C 2.43547 8.50618 -0.01977
C 3.67673 19.18471 -0.02805
C 9.81258 25.58575 0.00488
C 4.94571 12.72503 0.01465
C 6.14673 10.67977 -0.00518
C 7.37736 15.65058 0.0127
C 8.63818 14.9285 0.01396
C 8.60953 13.49768 0.01849
C 7.40786 12.78977 -0.01142
C 7.40831 11.37978 -0.00562
C 8.60853 10.63057 -0.00494
C 8.58811 9.25638 0.00054
C 7.41797 8.49591 0.03007
C 7.38936 7.12989 -0.00095
C 8.58861 6.42484 0.01572
C 7.4234 17.07889 0.02635
C 8.54841 5.03653 -0.04848
C 7.33701 2.87306 -0.01362
C 8.60665 2.16951 -0.0008
C 8.56057 0.71719 0.0288
C 7.38825 0.04764 0.00393
C 9.85607 32.66041 0.00895
C 11.08128 31.95018 0.00685
C 11.04673 30.55298 0.02888
C 9.80462 29.86474 -0.00482
C 9.83871 28.39692 -0.01384
C 11.02256 27.6764 0.03693
C 7.34126 4.28784 -0.00892
C 4.91454 11.32845 -0.00074
C 8.63588 17.76958 -0.01378
C 7.33201 19.92332 0.00848
C 6.15375 9.25136 0.0086
C 4.95538 8.57207 -0.00643
C 4.93438 7.07926 0.017
C 6.15333 6.40068 -0.03113
C 6.10835 4.96567 -0.02566
C 4.91908 4.26336 -0.00094
C 4.88799 2.85667 0.02322
C 6.08128 2.11235 -0.00725
C 6.10287 0.72044 -0.05697
C 4.89425 34.04111 0.01087
C 8.62869 19.22354 -0.01303
C 7.33054 32.65722 -0.01343
C 8.59653 30.58728 0.0276
C 7.37461 29.81064 0.01305
C 7.3642 28.41733 -0.00077
C 8.5993 27.72378 0.03368
C 8.65311 26.26637 -0.02929
C 7.40516 25.61319 -0.00966
C 7.35083 24.12995 -0.03337
C 8.59117 23.44059 0.01227
C 8.62655 22.02668 0.00873
C 7.34231 21.34741 -0.00049
C 8.63457 31.96383 0.00988
C 17.24625 17.00606 -0.01979
C 17.27019 15.61647 0.02691
C 18.44594 14.93704 -0.01581
C 30.74874 10.65688 -0.00944
C 30.75698 9.25193 -0.03735
C 29.49376 8.51387 -0.00971
C 29.51536 7.08501 0.01518
C 30.7312 6.42994 0.01908
C 30.78675 5.01967 0.07705
C 29.50643 4.1883 0.0103
C 29.54957 2.81178 0.02108
C 30.75915 2.13166 0.00716
C 30.73855 0.72949 0.00307
C 29.53369 11.32085 -0.02155
C 29.47188 0.00295 0.00346
C 33.24938 31.90493 -0.01694
C 33.16962 30.48661 0.01428
C 31.94795 29.82943 -0.02142
C 31.96306 28.37589 0.0544
C 33.17802 27.7296 0.00026
C 33.1769 26.2819 0.00682
C 31.97631 25.50342 -0.01779
C 32.01301 24.13683 0.03794
C 33.21954 23.44794 0.01927
C 33.26462 21.99119 0.01574
C 31.95569 32.59009 0.01713
C 32.00482 21.31845 -0.02383
C 29.54391 12.76657 -0.01461
C 30.74178 14.90623 -0.0405
C 27.05803 4.23831 0.01495
C 27.05951 2.85922 0.01259
C 28.27774 2.13318 0.01799
C 28.29605 0.75951 0.01699
C 27.03885 34.07648 -0.00416
C 29.52867 32.70334 0.01177
C 30.71879 31.95428 0.04266
C 30.74687 30.53282 0.01324
C 29.49307 29.79354 0.0014
C 29.5722 28.42088 0.00924
C 30.7757 13.48967 -0.01303
C 30.73239 27.63375 0.02326
C 29.51318 25.56216 0.03265
C 29.49816 24.11561 -0.02049
C 30.78403 23.48947 -0.01854
C 30.71234 21.96684 -0.01415
C 29.51167 21.28851 -0.03039
C 29.51171 19.85963 0.01836
C 30.79636 19.15823 0.03531
C 30.69866 17.70218 -0.00669
C 29.45547 17.04071 0.0101
C 29.50454 15.57477 0.01705
C 30.69013 26.25236 0.00261
C 28.28181 4.91325 0.00235
C 31.97877 19.93948 -0.01429
C 33.19657 17.79515 0.00594
C 1.22568 23.44563 0.00723
C 1.21455 22.01296 0.02712
C 34.3921 21.2709 -0.02213
C 34.38499 19.89813 0.01951
C 1.24564 19.19913 -0.01678
C 1.25609 17.70299 0.01223
C 0.00397 17.01247 0.00648
C 34.39169 15.6453 0.02114
C 1.23403 14.93412 -0.02957
C 1.22351 13.5435 0.00343
C 34.40259 24.16375 0.03076
C 34.41409 12.75759 -0.02656
C 1.22012 10.7064 -0.00027
C 1.23821 9.23361 -0.00583
C 0.00656 8.52592 -0.02302
C 34.40823 7.07525 -0.02849
C 1.19813 6.36267 0.02931
C 1.20975 4.96426 0.00628
C 34.41952 4.29363 -0.0345
C 0.01044 2.78129 -0.00931
C 1.25862 2.11512 -0.00939
C 1.20425 0.70004 -0.00468
C 34.41264 11.38338 -0.02442
C 33.23738 19.1823 -0.0136
C 34.36977 25.53366 -0.05239
C 1.20918 27.66666 -0.00439
C 31.99237 17.0478 -0.02474
C 31.98631 15.55923 0.00369
C 33.1904 14.90317 0.00455
C 33.24552 13.44225 -0.00644
C 31.97778 12.77543 -0.01839
C 31.99398 11.3578 0.00137
C 33.16692 10.62915 0.00199
C 33.20214 9.18583 0.04381
C 31.96365 8.4975 0.02806
C 31.93298 7.10444 0.01504
C 1.24015 26.26764 -0.00598
C 33.2326 6.37022 -0.00069
C 31.96575 4.30184 -0.03838
C 31.91197 2.86073 0.00349
C 33.13966 2.10036 -0.00323
C 33.19971 0.63567 -0.00841
C 31.9387 0.00425 0.0001
C 0.03335 32.64561 -0.02927
C 1.24936 31.95079 -0.01404
C 1.15463 30.53293 0.01027
C 34.37022 29.76835 0.01831
C 0.0165 28.40281 -0.01037
C 33.20689 4.95694 0.04926
C 28.33529 6.33902 0.01094
C 27.09366 7.05903 0.02198
C 27.09951 8.51927 0.02611
C 19.65685 11.37458 -0.01154
C 20.9023 10.59259 -0.01721
C 20.85069 9.19915 -0.02422
C 19.65849 8.52403 0.01277
C 19.69691 7.03069 0.00096
C 20.96111 6.36029 -0.01527
C 20.8936 4.91607 0.01087
C 19.67896 4.23574 0.00199
C 19.68239 2.8413 0.01511
C 20.90524 2.10955 -0.00478
C 19.72198 12.78143 0.0106
C 20.86032 0.70223 -0.01662
C 22.14261 32.64661 0.01126
C 22.12683 21.27811 0.01852
C 22.19659 19.88035 -0.00381
C 23.40066 19.18643 0.03046
C 23.3767 17.77985 0.0296
C 22.15532 16.96129 0.03374
C 22.12382 15.6106 -0.02845
C 23.38238 14.92408 -0.03213
C 23.35025 13.57375 0.02239
C 22.13406 12.77229 0.01153
C 19.66581 0.01892 -0.01185
C 22.08104 11.36371 0.02734
C 20.92616 13.44333 -0.01594
C 19.70484 15.64057 -0.00311
C 18.43589 13.54751 0.01452
C 17.21926 12.73859 0.04892
C 17.25541 11.40215 -0.00111
C 18.47374 10.64006 -0.03557
C 18.50247 9.20774 0.03754
C 17.17079 8.47704 0.01739
C 17.22957 7.11417 0.00755
C 18.43566 6.35702 -0.0054
C 18.56216 5.00594 0.00667
C 17.20382 4.28025 0.00143
C 20.91533 14.89009 0.00742
C 17.23251 2.82725 -0.017
C 18.38176 0.73255 -0.00831
C 17.15891 0.02873 -0.02957
C 19.6345 32.66315 -0.04422
C 20.90696 32.00233 0.00654
C 20.95117 21.91891 -0.00703
C 19.61615 21.26445 -0.04076
C 19.70042 19.89232 -0.00652
C 20.88253 19.17845 0.0058
C 20.8762 17.71624 -0.00865
C 19.65357 17.06795 0.00675
C 18.44825 2.15997 0.00364
C 23.35081 10.63015 -0.0055
C 23.34587 9.24576 0.01515
C 22.12883 8.46253 -0.00225
C 24.643 4.24526 -0.01679
C 24.57934 2.82979 0.00367
C 25.8386 2.14422 0.04306
C 25.892 0.7798 0.00996
C 24.60117 0.00939 0.00195
C 27.01795 32.61423 -0.00802
C 28.27754 31.94141 -0.00218
C 28.28018 30.57961 -0.01654
C 28.24752 23.42433 -0.00037
C 28.30217 22.00756 -0.0032
C 25.86638 4.97666 -0.01052
C 27.07021 21.3175 0.00622
C 28.276 19.16859 -0.00942
C 28.25174 17.69472 0.00487
C 27.03126 17.07022 0.00826
C 27.04499 15.63528 -0.00294
C 28.25254 14.88544 0.00152
C 28.26187 13.4718 0.01257
C 27.04547 12.73796 0.02316
C 27.03517 11.3371 0.04185
C 28.30212 10.64814 0.00194
C 28.30694 9.21799 -0.00621
C 27.05105 19.91642 -0.02815
C 25.85988 6.41713 0.00684
C 24.57859 7.11262 -0.01154
C 24.60166 8.5084 -0.0264
C 22.12536 7.13442 0.00071
C 23.37106 6.42535 -0.01107
C 23.38965 4.94139 -0.01586
C 22.12519 4.2303 -0.01971
C 22.18252 2.84012 -0.02118
C 23.31994 2.17184 0.00733
C 23.37001 0.70303 -0.00178
C 22.12109 0.02166 0.00768
C 24.62628 32.65866 -0.0276
C 25.80052 31.92444 0.03005
C 25.72686 21.93423 -0.04078
C 24.65012 21.31144 0.02117
C 24.59262 19.87816 0.02737
C 25.80576 19.2158 -0.00498
C 25.81616 17.76287 0.00135
C 24.56483 17.03873 0.03102
C 24.60202 15.59258 0.02555
C 25.77627 14.84973 0.01423
C 25.80552 13.4675 -0.00285
C 24.58957 12.81273 -0.009
C 24.61163 11.39306 -0.01199
C 25.79305 10.58765 -0.00229
C 25.87365 9.2399 -0.00938
C 3.67223 31.98908 -0.01299
C 2.43289 32.66105 -0.0154
