409
Graphene
C 34.3351 34.04956 0.01295
C 12.15675 29.9177 -0.01536
C 12.15165 28.46581 -0.02689
C 13.43339 27.69953 -0.01046
C 13.4785 26.27458 -0.00891
C 12.26198 25.53747 0.02819
C 12.22369 24.11996 0.00165
C 13.52123 23.45279 -0.02971
C 13.55009 22.01783 0.02894
C 12.26784 21.40137 -0.01789
C 12.30232 19.93242 0.00444
C 13.51379 19.15675 -0.00925
C 13.43116 17.75476 0.01877
C 12.22196 17.08048 0.01363
C 12.29466 15.5865 -0.02162
C 13.58171 14.94079 0.00415
C 13.54197 13.52308 -0.0014
C 12.34497 12.84892 0.02162
C 12.31634 11.37065 0.0076
C 13.59097 10.70921 0.01241
C 13.61211 9.25459 -0.01454
C 12.38583 8.60441 0.01945
C 13.37548 30.60953 0.03101
C 13.45896 32.02435 -0.00428
C 12.24446 32.74237 -0.02245
C 9.81226 0.10861 0.00985
C 10.97787 23.45293 0.00438
C 11.00885 22.08669 0.01291
C 9.87561 21.30184 0.00093
C 9.82984 19.84229 0.00057
C 11.0705 19.14012 -0.01634
C 11.06054 17.69852 -0.00334
C 9.8264 17.02002 0.02339
C 9.83565 15.60979 0.01641
C 11.05862 14.92654 -0.00719
C 11.01176 13.50001 0.01364
C 12.36561 7.1948 0.01416
C 9.86518 12.75858 -0.01062
C 11.05786 10.72891 0.03589
C 11.13164 9.30668 -0.02759
C 9.92402 8.61663 0.0402
C 9.84808 7.16037 0.00572
C 11.10343 6.52577 0.03592
C 11.01707 5.06489 0.00406
C 9.76651 4.32874 0.00943
C 9.81207 2.89971 0.02841
C 11.07963 2.19977 -0.01111
C 11.03744 0.8291 -0.01275
C 9.7784 11.33404 -0.00033
C 9.69451 24.18702 -0.00191
C 13.52519 6.4296 0.03542
C 12.25394 4.32427 0.00244
C 16.06471 9.23046 0.01443
C 14.79327 8.49974 0.03505
C 14.83385 7.0973 -0.02815
C 16.06589 6.34347 -0.04147
C 16.03701 4.96437 -0.05302
C 14.73036 4.24877 0.00213
C 14.6852 2.86483 -0.00066
C 15.94041 2.24156 -0.00289
C 15.91675 0.84523 0.00028
C 14.67857 0.09463 -0.02213
C 17.14109 32.71006 0.03698
C 18.31602 31.94548 -0.00109
C 18.33239 30.53483 -0.00491
C 17.1362 29.75271 0.03338
C 17.27237 28.35241 -0.0258
C 18.46116 27.69886 -0.0331
C 18.79085 26.19701 -0.00316
C 17.61002 25.29943 0.02188
C 17.50014 23.80657 -0.01979
C 18.28888 22.61012 0.02691
C 17.24948 21.48228 -0.01581
C 16.00114 10.59205 0.00979
C 14.79455 11.36864 -0.00481
C 14.77585 12.77454 0.00889
C 16.02737 13.45414 -0.02162
C 12.22825 2.9128 -0.01717
C 13.47343 2.15852 0.05265
C 13.44391 0.76788 -0.01952
C 12.29664 0.09378 -0.02813
C 14.69158 32.66668 0.00374
C 15.86725 31.96237 0.00052
C 15.90196 30.48715 -0.03682
C 14.62908 29.77956 0.01965
C 14.6419 28.2991 0.02058
C 15.98145 27.6836 -0.01957
C 13.55919 5.04622 0.02299
C 16.11187 26.20671 -0.0108
C 14.83994 24.09483 -0.02696
C 16.07761 23.38712 -0.00114
C 15.99606 22.0443 0.00228
C 14.76103 21.25495 0.00798
C 14.76583 19.86356 0.00422
C 16.03317 19.14597 0.0351
C 15.9812 17.69621 -0.03113
C 14.72129 17.05176 0.02098
C 14.87648 15.60181 0.01848
C 16.09945 14.85421 -0.00619
C 14.77846 25.62362 -0.00368
C 9.77059 25.62442 0.00373
C 11.03208 26.29133 0.02147
C 10.93009 27.74329 -0.014
C 2.4478 2.85442 -0.003
C 3.67833 2.17093 0.01402
C 3.58824 0.79926 0.02379
C 2.37503 0.07564 0.00907
C 4.82001 32.70269 0.00643
C 5.96138 32.01512 -0.01509
C 6.01991 30.60432 0.03267
C 4.82639 29.88234 0.02374
C 4.872 28.41406 0.00402
C 6.10993 27.75999 0.0073
C 6.06108 26.33813 0.0174
C 4.81156 25.56962 0.03828
C 4.80963 24.15943 0.01226
C 6.04065 23.55881 -0.00279
C 6.1161 22.02521 0.01996
C 4.81583 21.35352 -0.03996
C 4.88593 19.94544 0.01465
C 6.16768 19.22294 -0.00074
C 6.09027 17.77951 -0.00518
C 4.82325 17.09599 0.0086
C 4.86304 15.67616 -0.00643
C 2.43692 4.25735 0.00031
C 3.64133 5.03509 0.03189
C 3.67814 6.51031 -0.04307
C 2.42263 7.12292 0.03284
C 3.58494 30.56706 -0.02375
C 2.42657 29.7838 0.00558
C 2.32185 28.35595 -0.0059
C 3.61275 27.66122 -0.01386
C 3.49506 26.22573 -0.02805
C 2.23036 25.59024 0.00081
C 2.20414 24.15287 0.00245
C 3.50738 23.48077 0.02728
C 3.60357 22.04651 -0.00039
C 2.3701 21.31158 0.0064
C 6.12509 15.05785 0.017
C 2.37922 19.86949 0.00211
C 3.5936 17.78768 -0.01979
C 2.32901 17.07215 0.02784
C 2.34997 15.59176 -0.01977
C 3.64967 14.89048 -0.00561
C 3.60842 13.48944 0.00208
C 2.3735 12.7457 0.01707
C 2.3394 11.37482 0.02769
C 3.70025 10.79566 -0.03291
C 3.66483 9.36314 -0.04999
C 2.38442 8.58106 0.04505
C 3.65274 19.168 -0.00449
C 6.14208 13.58256 -0.03113
C 4.90616 12.92466 -0.02566
C 4.92517 11.48231 -0.00094
C 7.30416 17.05586 0.00054
C 7.3296 15.66023 0.03007
C 8.58255 14.94286 -0.00095
C 8.56501 13.45403 0.01572
C 7.25934 12.81536 -0.04848
C 7.34314 11.42185 -0.00892
C 8.53236 10.66932 -0.01362
C 8.6493 9.27975 -0.0008
C 7.41968 8.54906 0.0288
C 7.31955 7.10737 0.00393
C 8.55858 17.69572 -0.00494
C 8.61842 6.44872 0.00895
C 7.32398 4.33832 0.02888
C 7.29218 2.87156 -0.00482
C 8.5869 2.1663 -0.01384
C 8.54268 0.76563 0.03693
C 7.23482 0.08346 0.01745
C 9.69959 32.80446 0.00488
C 10.95745 32.03929 -0.01004
C 10.86557 30.65451 -0.02896
C 9.67464 29.93694 -0.00131
C 9.72995 28.54967 -0.01118
C 8.58468 4.99184 0.00685
C 17.20846 20.05185 0.01452
C 8.58136 19.14329 -0.00562
C 7.40192 21.34259 0.01849
C 6.11927 10.69689 0.02322
C 6.14841 9.2458 -0.00725
C 4.9012 8.6269 -0.05697
C 4.92131 7.17455 0.01087
C 6.0606 6.41027 -0.01343
C 6.01607 5.0526 0.00988
C 4.81967 4.36925 0.0276
C 4.89929 2.94404 0.01305
C 6.05661 2.2324 -0.00077
C 6.05293 0.83458 0.03368
C 7.45613 19.92051 -0.01142
C 4.85743 0.00949 -0.02929
C 8.49608 32.09759 -0.03337
C 8.43299 30.66901 0.01227
C 7.25185 29.9803 0.00873
C 7.30864 28.55608 -0.00049
C 8.47864 27.78834 0.00848
C 8.50159 26.35739 -0.01303
C 7.27298 25.64493 -0.01378
C 7.27299 24.18308 0.02635
C 8.47107 23.50446 0.0127
C 8.57548 22.0315 0.01396
C 7.27009 32.78243 -0.00966
C 3.59165 32.01726 0.00828
C 18.52133 19.35272 0.04892
C 17.26886 17.04817 -0.03557
C 29.53466 12.62212 -0.00971
C 29.55301 11.26924 0.01518
C 30.77891 10.63703 0.01908
C 30.79628 9.17632 0.07705
C 29.54021 8.421 0.0103
C 29.57747 7.08425 0.02108
C 30.7971 6.41834 0.00716
C 30.7437 4.96283 0.00307
C 29.51016 4.24508 0.00346
C 29.45648 2.84889 0.01713
C 30.72041 2.14728 -0.01694
C 30.63455 0.72034 0.01428
C 29.48901 34.06024 -0.02142
C 31.88763 32.6614 0.0544
C 33.06177 31.97215 0.00026
C 33.09859 30.43738 0.00682
C 31.83561 29.67842 -0.01779
C 31.70146 28.28278 0.03794
C 32.92175 27.60715 0.01927
C 32.88438 26.22066 0.01574
C 31.44801 25.40002 -0.02383
C 30.75119 13.45833 -0.03735
C 30.34964 14.86936 -0.00944
C 30.38506 26.234 -0.02155
C 30.50369 27.70236 -0.01461
C 28.2279 27.62145 0.01799
C 28.911 26.2258 0.01699
C 29.11377 14.98775 -0.00416
C 28.52453 13.52304 0.01177
C 27.21886 12.8043 0.04266
C 27.12587 11.38138 0.01324
C 28.33688 10.55849 0.0014
C 28.36649 9.14564 0.00924
C 27.11184 8.44212 0.02326
C 27.08167 7.03137 0.00261
C 31.72247 24.09318 -0.01429
C 28.3059 6.36021 0.03265
C 27.02521 4.25656 -0.01854
C 27.08839 2.79214 -0.01415
C 28.29646 2.12937 -0.03039
C 28.323 0.65724 0.01836
C 27.05928 34.02255 0.03531
C 29.34152 32.59901 -0.00669
C 30.57056 31.92164 0.0101
C 30.60278 30.45442 0.01705
C 29.38889 29.81295 -0.0405
C 29.31979 28.42433 -0.01303
C 28.25691 4.90441 -0.02049
C 26.93232 28.15401 0.01259
C 32.91866 23.26075 -0.0136
C 33.28023 18.21627 -0.02474
C 1.09278 21.9595 0.02712
C 34.19796 21.14464 -0.02213
C 34.23569 19.69621 0.01951
C 1.14744 19.0972 -0.01678
C 1.15488 17.70257 0.01223
C 34.31357 17.15641 0.00648
C 34.19581 15.74994 0.02114
C 1.12864 14.95289 -0.02957
C 1.24069 13.51845 0.00343
C 34.37136 12.82033 -0.02656
C 34.37473 11.41401 -0.02442
C 1.12829 10.66921 -0.00027
C 1.22922 9.1817 -0.00583
C 0.03277 8.5028 -0.02302
C 0.04109 7.05039 -0.02849
C 1.22212 6.3122 0.02931
C 1.2291 4.93757 0.00628
C 34.42039 4.24196 -0.0345
C 34.34867 2.83757 -0.00931
C 1.17478 2.15555 -0.00939
C 1.14064 0.72973 -0.00468
C 1.0097 23.35276 0.00723
C 34.20123 24.02527 0.03076
C 34.0935 25.56801 -0.05239
C 0.97167 26.30379 -0.00598
C 31.74759 15.44224 0.00369
C 32.98911 14.90337 0.00455
C 33.15366 13.52374 -0.00644
C 31.94915 12.84602 -0.01839
C 31.95661 11.38123 0.00137
C 33.12251 10.60743 0.00199
C 33.217 9.14992 0.04381
C 32.0329 8.49351 0.02806
C 31.96588 7.12336 0.01504
C 33.20277 6.34257 -0.00069
C 33.15301 21.97779 0.00594
C 33.15658 4.89508 0.04926
C 31.92422 2.84521 0.00349
C 33.14489 2.07658 -0.00323
C 33.10214 0.66092 -0.00841
C 31.85678 0.04091 0.0001
C 34.29579 32.60247 -0.02927
C 1.11442 31.99164 -0.01404
C 1.20116 30.43501 0.01027
C 34.34439 29.82481 0.01831
C 34.19644 28.43237 -0.01037
C 1.00106 27.60499 -0.00439
C 31.92956 4.21357 -0.03838
C 26.9322 29.59116 0.01495
C 28.09951 30.50731 0.00235
C 28.12941 31.96762 0.01094
C 21.01148 19.38001 0.00096
C 21.00601 17.90721 -0.01527
C 19.76345 17.1009 0.01087
C 19.7389 15.64302 0.00199
C 21.02186 14.91422 0.01511
C 20.94507 13.49738 -0.00478
C 19.6963 12.81286 -0.01662
C 19.6222 11.3837 -0.01185
C 20.92068 10.67509 0.01126
C 20.84902 9.29189 0.01852
C 19.69641 8.52863 -0.00381
C 19.706 7.07001 0.03046
C 20.94574 6.36831 0.0296
C 20.93906 4.9447 0.03374
C 19.74141 4.22123 -0.02845
C 19.74665 2.78514 -0.03213
C 20.93381 2.07575 0.02239
C 20.92862 0.6757 0.01153
C 19.60247 34.06167 0.02734
C 22.0479 32.65912 -0.0055
C 23.2634 31.89405 0.01515
C 19.70802 20.29029 0.01277
C 19.76562 21.88644 -0.02422
C 21.47343 22.50309 -0.01721
C 20.21213 26.20497 -0.01154
C 17.27443 15.6433 0.03754
C 18.49071 14.86528 0.01739
C 18.53412 13.4638 0.00755
C 17.35724 12.76182 -0.0054
C 17.20522 11.36608 0.00667
C 18.46348 10.63827 0.00143
C 18.44995 9.18984 -0.017
C 17.2743 8.5088 0.00364
C 17.30401 7.05092 -0.00831
C 18.55455 6.28165 -0.02957
C 23.25352 30.43123 -0.00225
C 18.5142 4.92293 -0.04422
C 17.28045 2.86107 -0.00703
C 18.49576 2.12458 -0.04076
C 18.43899 0.70648 -0.00652
C 17.08254 0.04016 0.0058
C 19.5258 32.71439 -0.00865
C 20.78834 31.99014 0.00675
C 20.81339 30.56251 -0.00311
C 19.60239 29.8683 0.00742
C 19.60347 28.43758 -0.01594
C 20.6907 27.66285 0.0106
C 17.28883 4.24871 0.00654
C 21.97191 29.8127 0.00071
C 21.90427 28.26448 -0.01107
C 23.12607 27.49459 -0.01586
C 24.54459 29.69253 0.04306
C 24.4424 28.22486 0.00996
C 25.52411 27.34633 0.00195
C 25.16274 26.05028 -0.00802
C 23.96745 25.21618 -0.00218
C 24.78404 15.48003 -0.01654
C 25.75163 14.83206 -0.00037
C 25.96147 13.51816 -0.0032
C 24.66745 12.73092 0.00622
C 24.63769 11.27811 -0.02815
C 25.75879 30.41731 0.00367
C 25.90107 10.60001 -0.00942
C 24.60552 8.46384 0.00826
C 24.68384 7.10853 -0.00294
C 25.87167 6.3029 0.00152
C 25.86905 4.97084 0.01257
C 24.54204 4.222 0.02316
C 24.65036 2.80614 0.04185
C 25.88932 2.08564 0.00194
C 25.90695 0.64683 -0.00621
C 24.58206 34.02974 0.02611
C 26.87332 32.58745 0.02198
C 25.8763 9.2542 0.00487
C 18.59867 17.92 -0.00111
C 25.73554 31.85371 -0.01679
C 22.1129 0.00197 0.00684
C 22.78275 26.12246 -0.01971
C 21.41655 25.32781 -0.02118
C 22.07962 23.65039 0.00733
C 23.50757 24.09482 -0.00178
C 22.09366 21.3882 0.00768
C 22.13156 20.18147 -0.0276
C 22.13585 17.02918 0.03005
C 22.28623 15.59838 -0.04078
C 23.43461 14.95374 0.02117
C 23.48668 13.47326 0.02737
C 24.53449 32.52083 -0.01052
C 22.1886 12.75824 -0.00498
C 23.32857 10.61888 0.03102
C 23.36629 9.16276 0.02555
C 22.11004 8.51931 0.01423
C 22.19038 7.07131 -0.00285
C 23.44813 6.4919 -0.009
C 23.44209 5.05989 -0.01199
C 22.20061 4.33538 -0.00229
C 22.23631 2.80807 -0.00938
C 23.44379 2.04427 -0.0264
C 23.39174 0.62794 -0.01154
C 22.12408 11.36747 0.00135
C 2.3241 32.70048 0.00088
