400
Graphene
C 34.42714 0.02343 0.01295
C 9.74908 0.06973 0.00165
C 12.21714 32.63227 -0.02971
C 13.46869 31.95579 0.02894
C 13.61885 30.53415 -0.01789
C 12.34194 29.82426 0.00444
C 12.37378 28.45567 -0.00925
C 13.33948 27.55374 0.01877
C 13.29602 26.24447 0.01363
C 12.29811 25.48962 -0.02162
C 12.38175 23.99811 0.00415
C 13.61163 23.41439 -0.0014
C 13.71873 22.07774 0.02162
C 12.368 21.33522 0.0076
C 12.24325 19.94737 0.01241
C 13.49776 19.05764 -0.01454
C 13.45935 17.70783 0.01945
C 12.26369 17.00361 0.01416
C 12.39167 15.54775 0.03542
C 13.50715 14.86488 0.02299
C 13.56122 13.42041 0.00244
C 12.27606 12.73467 -0.01717
C 10.98927 0.86668 0.02819
C 12.26092 11.324 0.05265
C 11.03029 2.21059 -0.00891
C 9.8708 4.41155 -0.02689
C 11.09952 26.26634 0.02339
C 9.82281 25.61905 0.01641
C 9.82666 24.18045 -0.00719
C 11.0769 23.36008 0.01364
C 11.13341 22.00158 -0.01062
C 9.84858 21.35697 -0.00033
C 9.79295 19.90936 0.03589
C 11.02642 19.25546 -0.02759
C 11.04853 17.7118 0.0402
C 9.82416 17.0412 0.00572
C 9.86796 15.55258 0.03592
C 11.08396 14.83379 0.00406
C 10.98419 13.48446 0.00943
C 9.84795 12.81477 0.02841
C 9.84521 11.28742 -0.01111
C 11.02966 10.63094 -0.01275
C 11.10637 9.19893 0.00985
C 9.82544 8.51841 -0.02245
C 9.83021 7.0992 -0.00428
C 11.15558 6.41972 0.03101
C 11.11532 5.05997 -0.01536
C 9.83884 2.9987 -0.01046
C 11.14302 27.71206 -0.00334
C 13.50533 10.71302 -0.01952
C 12.292 8.53121 0.00374
C 14.76244 7.04768 -0.05302
C 16.00386 6.43298 0.00213
C 16.01488 4.96673 -0.00066
C 14.75489 4.2206 -0.00289
C 14.78657 2.831 0.00028
C 16.0681 2.10879 -0.02213
C 16.08783 0.70552 0.03698
C 14.76385 0.04902 -0.00109
C 17.29099 32.49707 -0.00491
C 18.53658 31.87292 0.03338
C 17.11372 19.70258 -0.0258
C 18.24584 19.09208 -0.0331
C 18.43124 17.7925 -0.00316
C 17.21665 17.08105 0.02188
C 17.24141 15.62442 -0.01979
C 18.41375 14.93752 0.02691
C 18.39048 13.52047 -0.01581
C 17.1635 12.84152 0.01452
C 17.17896 11.45328 0.04892
C 18.41929 10.68394 -0.00111
C 18.48112 9.2824 -0.03557
C 14.7659 8.54138 -0.04147
C 13.49877 9.20875 -0.02813
C 16.01635 9.27057 -0.02815
C 14.70646 11.32143 0.01443
C 12.34836 7.08705 0.00052
C 13.54302 6.38317 -0.03682
C 13.52997 4.96881 0.01965
C 12.30665 4.28055 0.02058
C 12.2389 2.85074 -0.01957
C 13.55768 2.12225 -0.0108
C 13.53363 0.72309 -0.00368
C 12.24951 0.06726 -0.02696
C 14.71955 32.71259 -0.00114
C 16.06155 31.92012 0.00228
C 15.87924 30.62029 0.00798
C 14.80502 29.82179 0.00422
C 14.70699 21.13367 0.0351
C 14.73702 19.83412 -0.03113
C 15.95105 19.10406 0.02098
C 15.94331 17.71479 0.01848
C 14.74911 16.97149 -0.00619
C 14.74489 15.56944 -0.02162
C 15.98095 14.95036 0.00889
C 15.9497 13.53162 -0.00481
C 14.73262 12.78954 0.00979
C 16.02729 10.7008 0.03505
C 17.24951 8.54062 0.03754
C 9.8203 28.3387 -0.01634
C 11.00488 30.50941 0.00093
C 2.41745 4.28993 0.00402
C 2.45315 2.88839 0.0073
C 3.72567 2.23246 0.0174
C 3.64418 0.79045 0.03828
C 2.40366 0.05058 0.01226
C 4.91222 32.63875 -0.00279
C 6.19947 31.98053 0.01996
C 6.0928 30.59556 -0.03996
C 4.91946 29.90867 0.01465
C 4.89177 28.44408 -0.00074
C 6.0261 27.67509 -0.00518
C 6.03865 26.2945 0.0086
C 4.84621 25.5899 -0.00643
C 4.93024 24.09715 0.017
C 6.10762 23.46378 -0.03113
C 6.16641 21.95713 -0.02566
C 5.02241 21.25108 -0.00094
C 4.89546 19.86391 0.02322
C 6.18342 19.17037 -0.00725
C 6.12424 17.77152 -0.05697
C 4.82833 16.98333 0.01087
C 3.62187 5.02939 0.02374
C 4.91625 15.67557 -0.01343
C 3.70712 6.40888 0.03267
C 2.42904 8.57918 0.00643
C 3.67056 30.50305 0.0064
C 2.35826 29.77787 0.00211
C 2.36555 28.43018 -0.00449
C 3.58703 27.75872 -0.01979
C 3.67964 26.36918 0.02784
C 2.47625 25.59473 -0.01977
C 2.44488 24.12427 -0.00561
C 3.69066 23.46109 0.00208
C 3.71892 21.94361 0.01707
C 2.44599 21.29351 0.02769
C 2.41637 19.88083 -0.03291
C 3.64922 19.18744 -0.04999
C 3.57024 17.79465 0.04505
C 2.35137 17.00376 0.03284
C 2.43819 15.60772 -0.04307
C 3.71563 14.98533 0.03189
C 3.66004 13.53977 0.00031
C 2.41728 12.77208 -0.003
C 2.48257 11.38551 0.01402
C 3.65547 10.7252 0.02379
C 3.64573 9.27743 0.00907
C 2.4823 7.13066 -0.01509
C 9.74749 29.87575 0.00057
C 6.17756 14.92045 0.00988
C 4.91222 12.82484 0.01305
C 8.66435 19.177 -0.0008
C 8.57522 17.70028 0.0288
C 7.31495 17.01056 0.00393
C 7.38115 15.59527 0.00895
C 8.5914 14.95002 0.00685
C 8.60127 13.4602 0.02888
C 7.3755 12.78407 -0.00482
C 7.36889 11.38903 -0.01384
C 8.61341 10.68729 0.03693
C 8.61157 9.24798 0.01745
C 7.33371 8.58251 0.00488
C 7.40117 7.17718 -0.01004
C 8.68255 6.43452 -0.02896
C 8.59442 5.1109 -0.00131
C 7.35123 4.36999 -0.01118
C 7.38482 2.97532 -0.014
C 8.58087 2.27741 0.02147
C 8.63641 0.80515 0.00373
C 7.38389 0.08233 -0.00191
C 9.7629 32.65665 0.00438
C 11.0357 31.88302 0.01291
C 7.41442 19.83304 -0.01362
C 6.11493 13.50507 0.0276
C 7.44686 21.32187 -0.00892
C 8.63845 23.45713 0.01572
C 4.93476 11.39946 -0.00077
C 6.12076 10.73126 0.03368
C 6.13411 9.30833 -0.02929
C 4.93667 8.49769 -0.00966
C 4.91699 7.14716 -0.03337
C 6.12442 6.46812 0.01227
C 6.13418 5.02612 0.00873
C 4.89341 4.32483 -0.00049
C 4.90525 2.88623 0.00848
C 6.13837 2.21436 -0.01303
C 6.05563 0.69088 -0.01378
C 4.88256 34.04388 0.02635
C 7.36462 32.78612 0.0127
C 8.54005 31.97135 0.01396
C 8.53602 30.52482 0.01849
C 7.28926 29.79022 -0.01142
C 7.32571 28.44192 -0.00562
C 8.57136 27.68896 -0.00494
C 8.63041 26.33316 0.00054
C 7.31581 25.56684 0.03007
C 7.36516 24.19763 -0.00095
C 8.68169 22.08601 -0.04848
C 17.23187 7.12353 0.01739
C 18.44589 6.46885 0.00755
C 18.50005 5.00381 -0.0054
C 29.42759 7.00952 0.01518
C 30.70496 6.38509 0.01908
C 30.65732 4.99015 0.07705
C 29.48657 4.21448 0.0103
C 29.57998 2.83746 0.02108
C 30.79455 2.07144 0.00716
C 30.75185 0.65762 0.00307
C 29.56308 34.02722 0.00346
C 32.05686 32.58864 0.01713
C 33.26813 31.92008 -0.01694
C 33.24544 30.50982 0.01428
C 31.98246 29.83839 -0.02142
C 31.96523 28.37886 0.0544
C 33.1234 27.61108 0.00026
C 33.24298 26.29552 0.00682
C 32.01452 25.54211 -0.01779
C 31.98069 24.09773 0.03794
C 33.2251 23.38819 0.01927
C 33.16397 22.03946 0.01574
C 31.98151 21.29466 -0.02383
C 31.96152 19.94349 -0.01429
C 29.49195 8.44727 -0.00971
C 33.28271 19.2029 -0.0136
C 30.6408 9.2292 -0.03735
C 29.49043 11.3775 -0.02155
C 27.08243 0.05515 -0.00416
C 29.54275 32.67052 0.01177
C 30.78285 31.94444 0.04266
C 30.75243 30.49644 0.01324
C 29.4736 29.75635 0.0014
C 29.45972 28.36325 0.00924
C 30.72605 27.61194 0.02326
C 30.7633 26.21962 0.00261
C 29.46757 25.57372 0.03265
C 29.42395 24.15866 -0.02049
C 30.74637 23.4502 -0.01854
C 30.73906 22.04142 -0.01415
C 29.46686 21.30117 -0.03039
C 29.50756 19.95454 0.01836
C 30.71181 19.21233 0.03531
C 30.7236 17.80442 -0.00669
C 29.46394 17.05992 0.0101
C 29.49328 15.63461 0.01705
C 30.66382 14.87319 -0.0405
C 30.68152 13.4962 -0.01303
C 29.49439 12.82915 -0.01461
C 30.66585 10.68873 -0.00944
C 28.32142 0.73115 0.01699
C 33.17161 17.76032 0.00594
C 31.97234 15.71601 0.00369
C 1.26018 22.03535 0.02712
C 0.01493 21.30816 -0.02213
C 34.42789 19.88097 0.01951
C 1.26588 19.14993 -0.01678
C 1.17663 17.67754 0.01223
C 34.35598 17.0402 0.00648
C 34.38299 15.58137 0.02114
C 1.21792 14.98302 -0.02957
C 1.19398 13.4861 0.00343
C 34.40488 12.77239 -0.02656
C 34.41585 11.34619 -0.02442
C 1.20398 10.61912 -0.00027
C 1.21696 9.22027 -0.00583
C 34.40722 8.46655 -0.02302
C 0.03017 7.05179 -0.02849
C 1.26121 6.45889 0.02931
C 1.16581 5.02864 0.00628
C 34.36488 4.29279 -0.0345
C 34.35497 2.90859 -0.00931
C 1.17702 2.19747 -0.00939
C 1.18825 0.82128 -0.00468
C 1.26109 23.4375 0.00723
C 31.95025 17.06852 -0.02474
C 0.00308 24.11491 0.03076
C 1.19044 26.2335 -0.00598
C 33.15886 14.89519 0.00455
C 33.18096 13.48166 -0.00644
C 31.9584 12.79682 -0.01839
C 31.94525 11.343 0.00137
C 33.16235 10.68275 0.00199
C 33.08762 9.22907 0.04381
C 31.89227 8.51036 0.02806
C 31.9575 7.0679 0.01504
C 33.16993 6.36845 -0.00069
C 33.11572 5.00831 0.04926
C 31.86146 4.20851 -0.03838
C 31.96121 2.7869 0.00349
C 33.219 2.17052 -0.00323
C 33.2342 0.69744 -0.00841
C 32.0116 34.05287 0.0001
C 0.0482 32.69382 -0.02927
C 1.24271 31.91899 -0.01404
C 1.25135 30.50755 0.01027
C 34.42435 29.81299 0.01831
C 34.39692 28.37445 -0.01037
C 1.15181 27.62428 -0.00439
C 0.01168 25.5153 -0.05239
C 28.3315 2.18679 0.01799
C 27.1319 2.85299 0.01259
C 26.99694 4.26527 0.01495
C 22.15163 32.60457 0.00199
C 23.24069 32.01127 0.01511
C 22.13253 19.82755 -0.00478
C 23.277 19.19834 -0.01662
C 23.22139 17.73108 -0.01185
C 22.01494 17.07876 0.01126
C 22.05959 15.66141 0.01852
C 23.26333 14.88374 -0.00381
C 23.34122 13.46558 0.03046
C 22.15318 12.71864 0.0296
C 22.16825 11.31706 0.03374
C 23.43264 10.62969 -0.02845
C 23.40633 9.16296 -0.03213
C 22.12886 8.4621 0.02239
C 22.1024 6.99749 0.01153
C 23.36724 6.32613 0.02734
C 23.43858 4.95763 -0.0055
C 22.20648 4.22947 0.01515
C 22.30553 2.83217 -0.00225
C 23.44724 2.08658 0.00071
C 23.33268 0.66931 -0.01107
C 19.72212 0.00667 0.01087
C 22.09893 33.9935 -0.01586
C 20.99131 0.69824 -0.01527
C 19.81117 2.84915 0.01277
C 17.23976 4.35985 0.00667
C 17.31755 2.90715 0.00143
C 18.55195 2.13244 -0.017
C 18.49049 0.64558 0.00364
C 17.26197 34.00343 -0.00831
C 19.59685 32.72242 -0.02957
C 20.95562 19.17608 -0.04422
C 20.77515 17.82821 0.00654
C 19.66833 17.08309 -0.00703
C 19.58664 15.62353 -0.04076
C 20.83977 14.85777 -0.00652
C 20.9408 13.4584 0.0058
C 19.61377 12.83676 -0.00865
C 19.65415 11.37443 0.00675
C 20.92746 10.69883 -0.00311
C 20.96451 9.17588 0.00742
C 19.73289 8.54907 -0.01594
C 19.68938 7.13738 0.0106
C 20.92532 6.30305 -0.01154
C 20.9825 4.83708 -0.01721
C 19.76308 4.31512 -0.02422
C 20.91671 2.08749 0.00096
C 24.53094 32.58178 -0.01971
C 25.81307 31.99571 -0.02118
C 25.79592 30.65074 0.00733
C 26.90293 28.45877 -0.00802
C 27.94362 27.5666 -0.00218
C 28.26979 26.24763 -0.01654
C 28.27837 23.39388 -0.00037
C 28.17101 22.02863 -0.0032
C 27.05159 21.34783 0.00622
C 26.97709 19.90015 -0.02815
C 28.26831 19.19149 -0.00942
C 28.24101 17.78662 0.00487
C 26.99702 17.04036 0.00826
C 27.00651 15.60527 -0.00294
C 28.25779 14.92272 0.00152
C 28.26597 13.46756 0.01257
C 27.04739 12.77808 0.02316
C 27.06205 11.3211 0.04185
C 28.29143 10.64566 0.00194
C 28.34011 9.24064 -0.00621
C 27.03719 8.55611 0.02611
C 27.0674 7.1773 0.02198
C 28.21151 6.37667 0.01094
C 28.16828 4.9542 0.00235
C 26.93073 29.8127 0.00195
C 28.32327 30.46841 0.00996
C 28.30746 31.92725 0.04306
C 27.03727 32.67539 0.00367
C 25.80535 21.91902 -0.00178
C 24.62155 21.22415 0.00768
C 24.52081 19.94511 -0.0276
C 25.73248 19.17445 0.03005
C 25.72852 17.77827 -0.04078
C 24.55374 17.01219 0.02117
C 24.5598 15.55686 0.02737
C 25.77779 14.83725 -0.00498
C 25.86533 13.43325 0.00135
C 24.59752 12.80404 0.03102
C 3.70566 31.90429 -0.00039
C 24.63973 11.36911 0.02555
C 25.82015 9.26321 -0.00285
C 24.65339 8.54814 -0.009
C 24.56192 7.15352 -0.01199
C 25.82758 6.4638 -0.00229
C 25.78379 4.99614 -0.00938
C 24.63241 4.20333 -0.0264
C 24.6667 2.80256 -0.01154
C 25.83985 2.16407 0.00684
C 25.86473 0.7277 -0.01052
C 24.55899 0.00404 -0.01679
C 25.83701 10.67532 0.01423
C 2.48929 32.69582 0.02728
