298
Graphene
C 0.00786 0.05031 0.01295
C 9.95555 25.45354 0.03754
C 9.69984 24.08016 0.01739
C 9.7747 21.25531 0.00755
C 9.75845 20.07616 -0.0054
C 9.93788 17.20275 0.00667
C 9.98261 15.71134 0.00143
C 11.17726 26.21791 -0.03557
C 10.98157 14.76648 -0.017
C 9.74835 12.70106 -0.00831
C 9.82818 11.37463 -0.02957
C 11.10166 10.72834 -0.04422
C 11.09772 9.23481 0.00654
C 9.87441 8.52324 -0.00703
C 9.93912 7.14395 -0.04076
C 10.98507 13.44983 0.00364
C 11.01819 27.61248 -0.00111
C 9.81127 28.35921 0.04892
C 9.83019 29.82597 0.01452
C 7.39325 11.30252 -0.00066
C 8.58477 10.6178 -0.00289
C 8.59985 9.2515 0.00028
C 7.36847 8.48536 -0.02213
C 7.39682 7.08245 0.03698
C 8.67412 6.44351 -0.00109
C 8.58594 5.02544 -0.00491
C 7.24789 4.42469 0.03338
C 7.42325 2.99533 -0.0258
C 8.66572 2.20558 -0.0331
C 8.66758 0.76616 -0.00316
C 7.43678 0.0556 0.02188
C 9.88451 32.61643 -0.01979
C 11.06187 31.88593 0.02691
C 11.11128 30.41894 -0.01581
C 11.02057 6.45801 -0.00652
C 7.31085 12.75548 0.00213
C 11.05509 4.98746 0.0058
C 9.89357 2.92124 0.00675
C 12.37513 0.02975 0.03046
C 14.73976 32.66658 0.0296
C 15.93482 31.97656 0.03374
C 15.94169 30.58031 -0.02845
C 14.79008 29.78551 -0.03213
C 14.61774 28.2708 0.02239
C 13.60034 0.72637 -0.00381
C 14.82741 2.94315 0.01153
C 16.01975 0.74576 -0.0055
C 14.75754 0.11105 0.01515
C 17.19247 32.56942 -0.00225
C 18.39707 31.85439 0.00071
C 18.38136 30.31776 -0.01107
C 17.09621 29.88357 -0.01586
C 15.84609 2.21188 0.02734
C 13.52021 2.18494 0.01852
C 12.26459 2.9374 0.01126
C 12.38035 4.38599 -0.01185
C 11.13467 2.24826 -0.00311
C 11.11022 0.71606 0.00742
C 9.966 34.04882 -0.01594
C 12.22192 32.62894 0.0106
C 13.56271 31.89939 -0.01154
C 13.50383 30.41509 -0.01721
C 12.31372 29.70686 -0.02422
C 12.25076 28.30954 0.01277
C 13.63638 27.7268 0.00096
C 13.16046 13.93655 -0.01527
C 12.23162 12.76152 0.01087
C 12.30206 11.34072 0.00199
C 12.282 8.38313 0.01511
C 12.29617 7.1237 -0.00478
C 13.58926 5.18368 -0.01662
C 9.85082 4.28802 -0.00865
C 8.56349 13.48998 -0.05302
C 8.67766 14.90737 -0.04147
C 7.41466 15.60335 -0.02815
C 3.67689 10.60117 -0.02689
C 2.57735 4.37046 -0.01046
C 2.47095 2.88498 -0.00891
C 3.68726 2.15989 0.02819
C 3.70683 0.75133 0.00165
C 2.48093 0.05963 -0.02971
C 2.34504 11.10908 -0.01536
C 4.9554 32.67571 0.02894
C 6.15777 30.52125 0.00444
C 4.90686 29.81502 -0.00925
C 4.9313 28.3802 0.01877
C 6.13454 27.67177 0.01363
C 6.15461 26.28178 -0.02162
C 4.90088 25.58049 0.00415
C 6.16842 31.90738 -0.01789
C 2.37548 12.60967 0.03101
C 3.60708 13.38142 -0.00428
C 3.57032 14.82018 -0.02245
C 3.64013 30.5577 -0.00719
C 2.43929 29.80932 0.01364
C 2.40434 28.38971 -0.01062
C 3.78224 27.64837 -0.00033
C 3.71415 26.29243 0.03589
C 2.48919 25.56109 -0.02759
C 2.40419 24.16562 0.0402
C 3.62289 23.43733 0.00572
C 3.63896 22.09065 0.03592
C 2.3761 21.36935 0.00406
C 2.4483 19.91163 0.00943
C 3.68597 19.18566 0.02841
C 3.64935 17.78847 -0.01111
C 2.43856 17.02914 -0.01275
C 2.48011 15.65128 0.00985
C 4.84086 24.19494 -0.0014
C 6.0555 23.44642 0.02162
C 6.12996 22.02918 0.0076
C 4.96224 21.31622 0.01241
C 8.54141 31.92711 -0.00114
C 8.62732 30.51829 0.00228
C 7.37595 29.7758 0.00798
C 7.36961 28.29482 0.00422
C 8.64898 27.64248 0.0351
C 8.65337 26.20192 -0.03113
C 7.39266 25.61316 0.02098
C 7.25606 24.21298 0.01848
C 8.43606 23.43579 -0.00619
C 8.46935 22.0824 -0.02162
C 7.36166 21.25845 0.00889
C 7.38566 19.89169 -0.00481
C 8.57436 19.22477 0.00979
C 8.72486 17.81064 0.01443
C 7.41136 17.02922 0.03505
C 7.389 32.68967 -0.02696
C 18.57512 0.42637 -0.01971
C 4.94191 0.04155 -0.00368
C 6.15056 2.22291 -0.01957
C 4.90338 19.88049 -0.01454
C 6.18321 19.27337 0.01945
C 6.17645 17.76095 0.01416
C 4.94305 17.00129 0.03542
C 4.91764 15.54889 0.02299
C 6.11963 14.87549 0.00244
C 6.09179 13.47821 -0.01717
C 4.87124 12.72483 0.05265
C 4.82366 11.32223 -0.01952
C 6.10557 10.61798 -0.02813
C 6.08531 9.1427 0.00374
C 6.07482 6.53593 0.00052
C 5.91176 5.16317 -0.03682
C 4.69435 4.30908 0.01965
C 4.97997 2.91291 0.02058
C 6.22383 0.73627 -0.0108
C 17.22566 34.02742 -0.02118
C 19.65837 32.41889 0.00733
C 20.87229 31.88032 -0.00178
C 33.16166 23.56095 -0.02383
C 33.07334 22.11663 -0.01429
C 31.91405 21.34621 -0.0136
C 31.88034 19.95642 0.00594
C 33.11227 19.25331 -0.02474
C 33.13508 17.74051 0.00369
C 31.96463 24.20636 0.01574
C 31.87995 17.09571 0.00455
C 33.11237 14.98395 -0.01839
C 33.11364 13.50998 0.00137
C 31.89045 12.82759 0.00199
C 31.82265 11.39981 0.04381
C 33.03962 10.63951 0.02806
C 33.14377 9.26131 0.01504
C 31.878 15.6861 -0.00644
C 31.93464 25.61928 0.01927
C 33.17233 26.31636 0.03794
C 33.24208 27.75855 -0.01779
C 30.70674 9.30375 0.01518
C 29.43977 8.62938 0.01908
C 29.55456 7.18599 0.07705
C 30.708 6.40814 0.0103
C 30.77007 5.06334 0.02108
C 29.58974 4.22993 0.00716
C 29.64165 2.80322 0.00307
C 30.75631 2.12423 0.00346
C 30.70456 0.72602 0.01713
C 29.47996 34.07875 -0.01694
C 31.93025 32.6748 0.01428
C 33.17062 32.03649 -0.02142
C 33.13822 30.59899 0.0544
C 31.94865 29.89691 0.00026
C 31.99165 28.51226 0.00682
C 31.94693 8.55185 -0.00069
C 32.00211 7.19324 0.04926
C 33.28027 6.52508 -0.03838
C 33.30499 5.1768 0.00349
C 1.1641 17.78776 0.02114
C 34.38766 17.09373 -0.02957
C 34.38208 15.64893 0.00343
C 1.19871 14.84804 -0.02656
C 1.22752 13.43594 -0.02442
C 34.37437 12.77659 -0.00027
C 34.39342 11.33112 -0.00583
C 1.03875 10.41707 -0.02302
C 0.04238 8.67585 -0.02849
C 0.04875 7.25062 0.02931
C 1.3648 5.08125 0.00628
C 0.13268 4.37134 -0.0345
C 0.05972 2.90137 -0.00931
C 1.25905 2.22001 -0.00939
C 1.20641 0.72851 -0.00468
C 1.23426 19.17488 0.00648
C 30.61225 10.65606 -0.00971
C 34.35464 19.94345 0.01223
C 1.1577 22.02377 0.01951
C 32.01657 4.36507 -0.00323
C 32.01481 2.88086 -0.00841
C 33.19428 2.22683 0.0001
C 33.20116 0.789 -0.02927
C 31.99891 0.03213 -0.01404
C 34.39716 32.69465 0.01027
C 1.18402 31.97315 0.01831
C 1.14131 30.58229 -0.01037
C 34.39121 29.98645 -0.00439
C 34.3611 28.47693 -0.00598
C 1.15274 27.72199 -0.05239
C 1.20774 26.27934 0.03076
C 34.38067 25.60963 0.00723
C 34.40624 24.1594 0.02712
C 1.10696 23.45713 -0.02213
C 34.3221 21.31194 -0.01678
C 3.68517 31.99446 0.01641
C 29.44305 11.47477 -0.03735
C 30.63166 13.55967 -0.02155
C 25.88625 17.93899 -0.01052
C 24.70041 15.44553 -0.01679
C 25.81343 14.67152 0.00367
C 26.04731 2.06087 0.04306
C 25.79468 0.69906 0.00996
C 24.59395 0.0159 0.00195
C 26.11465 22.86298 0.00684
C 26.98574 32.67058 -0.00802
C 28.22359 30.55637 -0.01654
C 26.95511 29.8355 -0.00037
C 27.01512 28.42929 -0.0032
C 28.22809 27.73393 0.00622
C 28.1539 26.26796 -0.02815
C 26.95626 25.49606 -0.00942
C 28.16324 31.9687 -0.00218
C 25.84685 26.30767 -0.01154
C 25.78574 27.6733 -0.0264
C 24.54949 28.38819 -0.00938
C 20.85187 30.50594 0.00768
C 19.69766 29.76991 -0.0276
C 19.56789 33.95639 0.03005
C 22.0786 32.59896 -0.04078
C 23.32681 31.90663 0.02117
C 23.27762 30.4251 0.02737
C 22.03562 29.83135 -0.00498
C 22.10834 28.29569 0.00135
C 23.16161 27.7904 0.03102
C 23.29397 0.67022 0.02555
C 22.24544 34.02621 0.01423
C 24.4924 32.63033 -0.00285
C 25.72195 31.94076 -0.009
C 25.72696 30.47996 -0.01199
C 24.50944 29.79088 -0.00229
C 26.90531 24.00018 0.00487
C 28.20656 23.48482 0.00826
C 28.25325 22.03758 -0.00294
C 26.93124 21.45803 0.00152
C 29.43497 29.88408 0.02326
C 29.49511 28.4463 0.00261
C 30.73967 27.77211 0.03265
C 30.73277 26.34866 -0.02049
C 29.46779 25.61821 -0.01854
C 29.4445 24.2166 -0.01415
C 30.67664 23.50171 -0.03039
C 30.68485 22.02046 0.01836
C 29.45495 21.35236 0.03531
C 29.47328 19.94321 -0.00669
C 30.63881 19.19677 0.0101
C 30.63173 17.78568 0.01705
C 29.40851 17.05043 -0.0405
C 29.41051 15.62976 -0.01303
C 30.61455 14.96375 -0.01461
C 30.6765 30.54731 0.00924
C 29.43337 12.89722 -0.00944
C 30.70491 32.00976 0.0014
C 27.04986 34.00528 0.04266
C 26.97043 19.9696 0.01257
C 28.18031 19.2519 0.02316
C 28.18622 17.79761 0.04185
C 26.99647 17.01777 0.00194
C 26.91565 15.57769 -0.00621
C 28.17576 14.92562 0.02611
C 28.13047 13.48843 0.02198
C 27.00913 12.60326 0.01094
C 28.17547 10.77347 0.00235
C 28.19407 9.49636 0.01495
C 28.38998 6.27531 0.01259
C 28.39761 5.09161 0.01799
C 27.05953 2.7294 0.01699
C 28.39004 2.12858 -0.00416
C 28.25162 0.7404 0.01177
C 29.43449 32.63556 0.01324
C 2.44652 32.70917 0.02339
