426
Graphene
C 0.02517 0.02743 0.01295
C 12.35078 11.36832 0.0402
C 13.47953 10.7087 0.00572
C 13.50683 9.28734 0.03592
C 12.31191 8.4987 0.00406
C 12.33805 7.15009 0.00943
C 13.53843 6.4137 0.02841
C 13.4702 4.94463 -0.01111
C 12.24564 4.26498 -0.01275
C 12.26489 2.74163 0.00985
C 13.51823 2.10627 -0.02245
C 12.3636 12.78564 -0.02759
C 13.55842 0.67888 -0.00428
C 14.78667 32.63296 -0.01536
C 16.03021 31.93996 -0.02689
C 15.97338 30.61139 -0.01046
C 14.79301 29.78772 -0.00891
C 14.77318 28.33498 0.02819
C 15.93893 27.63745 0.00165
C 16.04665 26.20123 -0.02971
C 14.70644 25.54302 0.02894
C 14.72157 24.18324 -0.01789
C 15.97839 23.37293 0.00444
C 12.28138 0.04909 0.03101
C 12.19415 19.98483 0.03589
C 12.31494 21.34059 -0.00033
C 13.55945 22.04949 -0.01062
C 9.85989 12.76203 -0.00482
C 9.86367 11.36086 -0.01384
C 11.04087 10.66314 0.03693
C 11.06433 9.20614 0.01745
C 9.85789 8.55774 0.00488
C 9.82478 7.22135 -0.01004
C 11.02984 6.43899 -0.02896
C 11.04777 5.06058 -0.00131
C 9.87615 4.19837 -0.01118
C 9.86285 2.82552 -0.014
C 11.09109 2.15291 0.02147
C 11.14155 0.71429 0.00373
C 9.81936 34.06084 -0.00191
C 12.29465 32.70165 0.00438
C 13.54353 31.90774 0.01291
C 13.48296 30.50413 0.00093
C 12.324 29.81203 0.00057
C 12.38512 28.40794 -0.01634
C 13.54695 27.72171 -0.00334
C 13.55366 26.30988 0.02339
C 12.28312 25.6641 0.01641
C 12.28148 24.18901 -0.00719
C 13.50813 23.39189 0.01364
C 15.9899 21.97187 -0.00925
C 11.12781 13.55867 0.02888
C 14.7582 21.24805 0.01877
C 14.71336 12.76894 -0.02162
C 18.4109 14.96455 0.00422
C 18.44006 13.47193 0.0351
C 17.27121 12.80795 -0.03113
C 17.21937 11.32689 0.02098
C 18.46665 10.63752 0.01848
C 18.46193 9.21809 -0.00619
C 17.25081 8.49091 -0.02162
C 17.14819 7.1092 0.00889
C 18.40137 6.37947 -0.00481
C 18.45661 4.93454 0.00979
C 18.4799 17.70878 0.00798
C 17.1946 4.3024 0.01443
C 18.40541 2.12921 -0.02815
C 18.40482 0.73405 -0.04147
C 17.1566 0.04836 -0.05302
C 19.65203 32.69461 0.00213
C 20.88045 31.97019 -0.00066
C 20.96106 30.49652 -0.00289
C 19.71462 29.81252 0.00028
C 19.70144 28.43074 -0.02213
C 20.90101 27.70816 0.03698
C 20.95704 26.26594 -0.00109
C 17.21297 2.85254 0.03505
C 18.42231 19.11137 0.00228
C 17.17895 19.85881 -0.00114
C 17.20818 21.26222 -0.02696
C 14.7855 11.41492 0.00415
C 15.95976 10.64677 -0.0014
C 15.9537 9.24936 0.02162
C 14.70567 8.53721 0.0076
C 14.74571 7.0877 0.01241
C 15.92406 6.38808 -0.01454
C 15.98266 4.99897 0.01945
C 14.78489 4.24736 0.01416
C 14.73601 2.83196 0.03542
C 15.98597 2.06396 0.02299
C 15.94719 0.68734 0.00244
C 14.76301 34.04384 -0.01717
C 17.18111 32.63807 0.05265
C 18.46083 31.91793 -0.01952
C 18.50647 30.52476 -0.02813
C 17.18921 29.87157 0.00374
C 17.23055 28.35823 0.00052
C 18.43119 27.70681 -0.03682
C 18.44257 26.28751 0.01965
C 17.23411 25.58923 0.02058
C 17.21738 24.0731 -0.01957
C 18.41421 23.44649 -0.0108
C 18.41753 22.04034 -0.00368
C 14.73301 19.88967 0.01363
C 11.0414 14.93336 0.00685
C 9.85104 15.68202 0.00895
C 9.87313 17.02778 0.00393
C 3.67625 2.14998 0.00211
C 3.72104 0.72373 -0.00449
C 2.48189 0.00835 -0.01979
C 4.84186 32.73274 0.02784
C 6.13699 31.97674 -0.01977
C 6.13769 30.50458 -0.00561
C 4.90075 29.81201 0.00208
C 4.88951 28.43581 0.01707
C 6.19962 27.65764 0.02769
C 6.2294 26.29499 -0.03291
C 2.4297 2.82985 0.0064
C 5.02062 25.54059 -0.04999
C 6.14712 23.39851 0.03284
C 6.07279 21.97173 -0.04307
C 4.86789 21.37172 0.03189
C 4.92069 19.89118 0.00031
C 6.18088 19.16322 -0.003
C 6.1253 17.79039 0.01402
C 4.98291 17.02702 0.02379
C 4.8876 15.58432 0.00907
C 6.19295 14.89951 0.00643
C 6.06195 13.43979 -0.01509
C 4.91382 24.20315 0.04505
C 2.40056 4.29922 -0.00039
C 3.66529 4.98688 0.02728
C 3.72905 6.42868 0.00245
C 3.69828 30.45424 0.01218
C 2.49766 29.82747 -0.01471
C 2.4841 28.43578 -0.02827
C 3.68727 27.72593 0.01078
C 3.6904 26.25593 -0.00112
C 2.4407 25.47879 0.03345
C 2.45626 24.09058 0.00748
C 3.73479 23.41675 0.00662
C 3.67708 21.97262 -0.0154
C 2.44424 21.32917 -0.01299
C 2.48343 19.93576 -0.00407
C 3.67393 19.16327 0.01138
C 3.76298 17.73301 0.03278
C 2.52973 17.0401 -0.00177
C 2.47829 15.65608 0.04421
C 3.64776 14.8121 0.00088
C 3.6597 13.46137 0.00828
C 2.4087 12.80866 -0.02375
C 2.39958 11.30753 0.00558
C 3.70927 10.64996 -0.0059
C 3.71136 9.24052 -0.01386
C 2.44186 8.52903 -0.02805
C 2.49129 7.03173 0.00081
C 4.88988 12.78963 0.03267
C 4.9028 11.40176 0.02374
C 4.98025 8.54017 0.00402
C 4.91398 7.10819 0.0073
C 7.36701 7.08121 -0.03337
C 8.63018 6.44658 0.01227
C 8.62478 4.97812 0.00873
C 7.35271 4.30611 -0.00049
C 7.41822 2.829 0.00848
C 8.62623 2.18897 -0.01303
C 8.61352 0.76426 -0.01378
C 7.422 0.04822 0.02635
C 9.79748 32.75521 0.0127
C 11.05099 32.00286 0.01396
C 11.09358 30.55853 0.01849
C 9.79899 29.82278 -0.01142
C 9.86037 28.42738 -0.00562
C 11.09441 27.667 -0.00494
C 11.07989 26.24761 0.00054
C 9.81195 25.59196 0.03007
C 9.80205 24.1844 -0.00095
C 11.07451 23.45261 0.01572
C 10.98373 22.01242 -0.04848
C 9.77374 21.33151 -0.00892
C 9.81704 19.86455 -0.01362
C 11.10145 19.15408 -0.0008
C 10.99645 17.80934 0.0288
C 7.34051 12.83052 -0.00966
C 19.72069 25.60402 -0.00491
C 8.62372 13.42903 -0.02929
C 7.37347 15.65345 -0.00077
C 6.1005 6.38602 0.0174
C 6.15602 4.96206 0.03828
C 4.88426 4.30027 0.01226
C 4.81188 2.85993 -0.00279
C 6.09061 2.13981 0.01996
C 6.13558 0.66188 -0.03996
C 4.92967 0.05289 0.01465
C 7.32418 32.65969 -0.00074
C 8.62309 31.99902 -0.00518
C 8.62647 30.51052 0.0086
C 7.37555 29.82923 -0.00643
C 7.37913 28.43946 0.017
C 8.65341 27.69611 -0.03113
C 8.63611 26.31909 -0.02566
C 7.3792 25.53379 -0.00094
C 7.35652 24.12599 0.02322
C 8.58976 23.43146 -0.00725
C 8.54277 22.0707 -0.05697
C 7.40855 21.30034 0.01087
C 7.39799 19.84308 -0.01343
C 8.65394 19.14449 0.00988
C 8.58498 17.78886 0.0276
C 7.35486 17.09308 0.01305
C 8.62344 14.92521 0.03368
C 19.6553 24.13308 0.03338
C 20.90442 23.41331 -0.0258
C 20.90038 22.04358 -0.0331
C 29.5632 12.81905 -0.01461
C 29.53178 11.28612 -0.02155
C 30.77554 10.6063 -0.00944
C 30.76311 9.23349 -0.03735
C 29.50225 8.56045 -0.00971
C 29.51799 7.05861 0.01518
C 30.7016 6.40687 0.01908
C 30.78966 4.92856 0.07705
C 29.46669 4.22185 0.0103
C 29.47955 2.85639 0.02108
C 30.71218 13.47979 -0.01303
C 30.7068 2.16218 0.00716
C 29.4947 34.07479 0.00346
C 31.99134 32.59998 0.01713
C 33.23629 31.9387 -0.01694
C 33.20486 30.56674 0.01428
C 32.03789 29.79017 -0.02142
C 31.994 28.32051 0.0544
C 33.22954 27.69667 0.00026
C 33.23932 26.24723 0.00682
C 31.92802 25.54347 -0.01779
C 31.99147 24.11999 0.03794
C 30.7451 0.7139 0.00307
C 30.74964 14.92739 -0.0405
C 29.53957 15.68151 0.01705
C 29.49108 17.03917 0.0101
C 27.10016 7.15286 0.02198
C 28.25605 6.41143 0.01094
C 28.2822 4.9741 0.00235
C 27.05465 4.25057 0.01495
C 27.1093 2.8828 0.01259
C 28.32113 2.11819 0.01799
C 28.25719 0.65672 0.01699
C 27.05334 0.01113 -0.00416
C 29.51445 32.66615 0.01177
C 30.77032 31.98865 0.04266
C 30.70671 30.43762 0.01324
C 29.46628 29.78206 0.0014
C 29.51013 28.38264 0.00924
C 30.81677 27.66461 0.02326
C 30.66561 26.2172 0.00261
C 29.43704 25.54371 0.03265
C 29.49779 24.06875 -0.02049
C 30.72104 23.42985 -0.01854
C 30.75326 21.97284 -0.01415
C 29.52643 21.37165 -0.03039
C 29.52708 19.92194 0.01836
C 30.7501 19.15812 0.03531
C 30.74061 17.72482 -0.00669
C 33.16283 23.39627 0.01927
C 33.15153 22.02366 0.01574
C 31.98377 21.31588 -0.02383
C 32.01848 19.8349 -0.01429
C 34.42722 24.14196 0.03076
C 1.18612 23.48086 0.00723
C 1.21783 22.05288 0.02712
C 34.41423 21.36502 -0.02213
C 34.40921 19.90577 0.01951
C 1.20855 19.18109 -0.01678
C 1.2339 17.78471 0.01223
C 0.01205 17.03068 0.00648
C 0.02065 15.61094 0.02114
C 1.20426 14.88729 -0.02957
C 1.20006 13.48842 0.00343
C 34.41305 12.79485 -0.02656
C 34.39855 11.42569 -0.02442
C 1.21918 10.60654 -0.00027
C 1.21484 9.19779 -0.00583
C 34.36329 8.51419 -0.02302
C 34.41945 7.12154 -0.02849
C 1.25964 6.37411 0.02931
C 1.13628 4.90088 0.00628
C 34.38038 4.23107 -0.0345
C 0.02159 2.82265 -0.00931
C 1.22669 2.07898 -0.00939
C 1.21942 0.72622 -0.00468
C 0.02989 25.53503 -0.05239
C 27.06885 8.51623 0.02611
C 1.28183 26.26677 -0.00598
C 34.41845 28.39005 -0.01037
C 33.22534 19.11242 -0.0136
C 33.18205 17.72359 0.00594
C 31.94261 17.02015 -0.02474
C 32.00821 15.6044 0.00369
C 33.26344 14.86594 0.00455
C 33.19507 13.50734 -0.00644
C 31.88668 12.77174 -0.01839
C 31.90482 11.33027 0.00137
C 33.18234 10.59472 0.00199
C 33.15198 9.23962 0.04381
C 32.00631 8.50947 0.02806
C 31.98579 7.10607 0.01504
C 33.10061 6.39917 -0.00069
C 33.13905 4.91539 0.04926
C 31.98579 4.25085 -0.03838
C 31.98007 2.8192 0.00349
C 33.24167 2.07264 -0.00323
C 33.24697 0.6499 -0.00841
C 32.00939 34.05581 0.0001
C 34.42517 32.66829 -0.02927
C 1.24991 31.88849 -0.01404
C 1.19505 30.49507 0.01027
C 34.4084 29.84952 0.01831
C 1.28236 27.63409 -0.00439
C 3.75173 31.91408 0.02426
C 28.25967 9.20415 -0.00621
C 27.04705 11.34494 0.04185
C 23.38075 26.30486 -0.00311
C 22.14185 25.52451 0.00742
C 22.19261 24.13187 -0.01594
C 23.35211 23.41178 0.0106
C 23.35782 22.03242 -0.01154
C 22.1685 21.2939 -0.01721
C 22.19413 19.89947 -0.02422
C 23.39018 19.20225 0.01277
C 23.3533 17.78179 0.00096
C 22.1583 16.95619 -0.01527
C 23.34152 27.71685 0.00675
C 22.16736 15.60837 0.01087
C 23.34174 13.53487 0.01511
C 22.10508 12.78286 -0.00478
C 22.12875 11.38143 -0.01662
C 23.32908 10.67592 -0.01185
C 23.36697 9.20816 0.01126
C 22.16504 8.53235 0.01852
C 22.11849 7.15016 -0.00381
C 23.36699 6.35135 0.03046
C 23.38685 5.01723 0.0296
C 22.17549 4.24368 0.03374
C 23.40933 14.87158 0.00199
C 22.08177 28.36345 -0.00865
C 22.1653 29.84434 0.0058
C 23.36301 30.49483 -0.00652
C 19.79097 21.35424 -0.00316
C 19.65347 19.92762 0.02188
C 20.91554 19.16383 -0.01979
C 20.92467 17.7405 0.02691
C 19.58364 17.05906 -0.01581
C 19.58174 15.63227 0.01452
C 20.86238 14.89753 0.04892
C 20.87645 13.48408 -0.00111
C 19.71356 12.72346 -0.03557
C 19.60064 11.30898 0.03754
C 20.90033 10.64527 0.01739
C 20.86472 9.23927 0.00755
C 19.64142 8.48917 -0.0054
C 19.62902 7.11767 0.00667
C 20.90246 6.39374 0.00143
C 20.91417 4.94986 -0.017
C 19.6668 4.27738 0.00364
C 19.69298 2.76716 -0.00831
C 20.92719 2.12478 -0.02957
C 20.89837 0.69352 -0.04422
C 19.67006 0.0122 0.00654
C 22.21155 32.72967 -0.00703
C 23.36382 31.94871 -0.04076
C 22.10388 2.7784 -0.02845
C 23.3623 2.12585 -0.03213
C 23.37012 0.75797 0.02239
C 22.10302 0.02951 0.01153
C 25.83769 2.13069 -0.0264
C 25.8859 0.75203 -0.01154
C 24.62545 0.02363 0.00684
C 27.0388 32.65257 -0.01052
C 28.26703 31.89663 -0.01679
C 28.28545 30.55943 0.00367
C 27.05546 29.81374 0.04306
C 27.0214 28.36982 0.00996
C 28.23138 27.67066 0.00195
C 28.28964 26.24429 -0.00802
C 27.00898 25.57955 -0.00218
C 27.05642 24.1413 -0.01654
C 28.29696 23.40322 -0.00037
C 28.28624 22.06196 -0.0032
C 27.09548 21.32696 0.00622
C 27.00527 19.86348 -0.02815
C 28.29859 19.13705 -0.00942
C 28.28178 17.76072 0.00487
C 27.05669 17.09655 0.00826
C 27.05907 15.60349 -0.00294
C 28.27194 14.86987 0.00152
C 28.36501 13.48986 0.01257
C 27.02513 12.81584 0.02316
C 24.61386 2.86593 -0.00938
C 28.30241 10.68632 0.00194
C 24.59908 4.25868 -0.00229
C 25.84704 6.32436 -0.009
C 24.53817 32.6239 0.02734
C 25.8565 31.93226 -0.0055
C 25.79513 30.48774 0.01515
C 24.52185 29.85185 -0.00225
C 25.81975 26.28088 0.00071
C 24.56139 25.57955 -0.01107
C 24.62158 24.12298 -0.01586
C 25.77071 23.36023 -0.01971
C 25.78421 21.99443 -0.02118
C 24.57353 21.33444 0.00733
C 24.60173 19.92719 -0.00178
C 25.79003 19.08807 0.00768
C 25.84619 17.74733 -0.0276
C 24.57878 17.10639 0.03005
C 24.57075 15.62887 -0.04078
C 25.80597 14.97725 0.02117
C 25.84667 13.48457 0.02737
C 24.6219 12.76955 -0.00498
C 24.60786 11.36008 0.00135
C 25.82139 10.63433 0.03102
C 25.83184 9.1916 0.02555
C 24.63405 8.52625 0.01423
C 24.59605 7.0727 -0.00285
C 25.83743 4.98962 -0.01199
C 2.4347 32.64342 0.00787
