350
Graphene
C 0.00845 0.06933 0.01295
C 9.82618 11.37308 0.00798
C 11.13303 10.68824 0.00422
C 11.06937 9.28789 0.0351
C 9.90933 8.51928 -0.03113
C 9.89271 7.10762 0.02098
C 11.07365 6.38917 0.01848
C 10.99222 4.91116 -0.00619
C 9.79172 4.16819 -0.02162
C 9.78325 2.70238 0.00889
C 11.05907 2.10151 -0.00481
C 11.14543 0.74202 0.00979
C 9.86327 34.0719 0.01443
C 12.34902 32.69106 0.03505
C 13.59342 31.9802 -0.02815
C 13.49857 30.55797 -0.04147
C 12.33128 29.7707 -0.05302
C 12.31697 28.33907 0.00213
C 9.78953 12.73669 0.00228
C 11.05367 13.39607 -0.00114
C 11.0302 14.86288 -0.02696
C 9.79874 15.62222 -0.00368
C 8.62539 0.62861 0.01241
C 7.33016 0.06674 -0.01454
C 9.76266 32.71496 0.01945
C 11.07972 32.01032 0.01416
C 11.11501 30.58143 0.03542
C 9.8446 29.86982 0.02299
C 9.80992 28.4346 0.00244
C 11.05835 27.66954 -0.01717
C 13.5696 27.6507 -0.00066
C 11.06103 26.30299 0.05265
C 9.83778 24.23014 -0.02813
C 11.03316 23.49671 0.00374
C 11.01357 22.1012 0.00052
C 9.84472 21.22744 -0.03682
C 9.8488 19.83651 0.01965
C 11.11883 19.18867 0.02058
C 11.1884 17.73275 -0.01957
C 9.84087 16.99591 -0.0108
C 9.85468 25.64402 -0.01952
C 13.537 26.19167 -0.00289
C 12.22947 25.51916 0.00028
C 12.27086 24.12649 -0.02213
C 16.0527 30.49389 0.00364
C 14.76684 29.89855 -0.00831
C 14.72741 28.47628 -0.02957
C 15.97011 27.78312 -0.04422
C 15.94986 26.26204 0.00654
C 14.77098 25.45692 -0.00703
C 14.73553 24.06707 -0.04076
C 14.84776 11.39393 -0.00652
C 16.01485 31.93357 -0.017
C 15.79869 10.70124 0.0058
C 14.72251 8.53874 0.00675
C 14.80797 7.08998 -0.00311
C 16.01657 6.41505 0.00742
C 15.99094 4.96441 -0.01594
C 14.78208 4.25768 0.0106
C 14.7649 2.79737 -0.01154
C 16.0137 2.09174 -0.01721
C 15.93135 0.70306 -0.02422
C 16.01661 9.24428 -0.00865
C 8.57074 2.04847 0.0076
C 14.78276 32.64877 0.00143
C 13.47398 0.77892 -0.0054
C 13.56626 23.33413 0.03698
C 13.38809 22.0386 -0.00109
C 12.22956 21.34705 -0.00491
C 12.23227 19.95103 0.03338
C 12.27659 16.87159 -0.0258
C 12.32 15.63646 -0.0331
C 13.51864 13.53088 -0.00316
C 12.40044 12.81976 0.02188
C 12.32903 0.02677 0.00667
C 12.32787 11.38923 -0.01979
C 13.52604 9.24959 -0.01581
C 12.30288 8.48 0.01452
C 12.29625 7.06524 0.04892
C 13.52408 6.36032 -0.00111
C 13.59388 5.00174 -0.03557
C 12.24691 4.25939 0.03754
C 12.21497 2.87611 0.01739
C 13.48457 2.17758 0.00755
C 13.56706 10.67269 0.02691
C 7.32288 2.84861 0.02162
C 7.35614 4.28988 -0.0014
C 8.65539 4.9382 0.00415
C 2.45097 7.0615 -0.04848
C 3.66254 6.352 -0.00892
C 3.69029 4.93658 -0.01362
C 2.46145 4.182 -0.0008
C 2.44315 2.82133 0.0288
C 3.71764 2.15195 0.00393
C 3.71497 0.77846 0.00895
C 2.45144 0.07463 0.00685
C 2.50448 8.4762 0.01572
C 4.89645 32.70485 0.02888
C 6.12452 30.43301 -0.01384
C 4.79837 29.91605 0.03693
C 4.91894 25.49958 0.01745
C 4.88426 24.14925 0.00488
C 6.13768 23.46935 -0.01004
C 6.12344 22.06244 -0.02896
C 4.89499 21.31697 -0.00131
C 4.88744 19.9967 -0.01118
C 6.13568 31.90383 -0.00482
C 6.15251 19.21817 -0.014
C 3.71742 9.22063 -0.00095
C 2.50193 11.3448 0.00054
C 3.65684 30.59173 -0.00077
C 2.46108 29.8338 0.03368
C 2.45402 28.38074 -0.02929
C 3.63184 27.7304 -0.00966
C 3.76118 26.3456 -0.03337
C 2.49833 25.5378 0.01227
C 2.48504 24.1142 0.00873
C 3.65593 23.39433 -0.00049
C 3.7803 10.62923 0.03007
C 3.66043 21.9891 0.00848
C 2.36527 19.84226 -0.01378
C 3.64114 19.30417 0.02635
C 3.68584 17.79296 0.0127
C 2.50791 17.03873 0.01396
C 2.45945 15.58179 0.01849
C 3.70147 14.8754 -0.01142
C 3.69399 13.47833 -0.00562
C 2.47989 12.77232 -0.00494
C 2.32138 21.25072 -0.01303
C 14.69382 0.06086 0.01277
C 6.10046 17.78799 0.02147
C 4.92681 15.59675 -0.00191
C 7.38088 24.21896 0.00985
C 8.62569 23.38942 -0.02245
C 8.68132 21.9742 -0.00428
C 7.3942 21.37538 0.03101
C 7.38868 19.96907 -0.01536
C 8.58968 19.1696 -0.02689
C 8.54693 17.67488 -0.01046
C 7.30712 17.02295 -0.00891
C 7.38777 25.51003 -0.01275
C 7.35076 15.60502 0.02819
C 8.60194 13.54375 -0.02971
C 7.40231 12.86128 0.02894
C 7.39126 11.38747 -0.01789
C 8.67026 10.63982 0.00444
C 8.69348 9.21591 -0.00925
C 7.42917 8.54526 0.01877
C 7.36497 7.01194 0.01363
C 8.61767 6.37049 -0.02162
C 8.58947 14.92621 0.00165
C 4.84499 17.0299 0.00373
C 8.53711 26.37714 -0.01111
C 7.4076 29.83076 0.00943
C 6.11419 14.92853 0.00438
C 6.17935 13.4671 0.01291
C 4.87869 12.79191 0.00093
C 4.9341 11.40794 0.00057
C 6.17149 10.6805 -0.01634
C 6.16285 9.24758 -0.00334
C 4.94843 8.53261 0.02339
C 4.92762 7.14073 0.01641
C 8.63312 27.76565 0.02841
C 6.0861 6.4438 -0.00719
C 4.94827 4.27582 -0.01062
C 4.94719 2.92578 -0.00033
C 6.1384 2.19454 0.03589
C 6.16334 0.80907 -0.02759
C 4.92645 0.07388 0.0402
C 7.3272 32.70035 0.00572
C 8.57203 31.98196 0.03592
C 8.52535 30.5138 0.00406
C 6.17654 5.04107 0.01364
C 17.23507 32.67853 0.00096
C 18.40772 31.90065 -0.01527
C 18.38008 30.54292 0.01087
C 33.18765 32.02242 -0.01694
C 33.17149 30.56247 0.01428
C 31.89942 29.84747 -0.02142
C 31.91668 28.43931 0.0544
C 33.1744 27.65385 0.00026
C 33.21432 26.25393 0.00682
C 31.9376 25.62362 -0.01779
C 31.96786 24.16878 0.03794
C 32.02301 32.70751 0.01713
C 33.18691 23.41219 0.01927
C 31.8941 21.30438 -0.02383
C 31.86676 19.88203 -0.01429
C 33.17994 19.18369 -0.0136
C 33.14895 17.78273 0.00594
C 31.8214 17.02223 -0.02474
C 31.88074 15.62817 0.00369
C 33.15095 14.88215 0.00455
C 33.20062 13.49704 -0.00644
C 33.17396 22.02107 0.01574
C 32.02941 12.8228 -0.01839
C 29.52534 34.05225 0.00346
C 30.75386 2.10017 0.00716
C 29.52538 25.54315 -0.03039
C 29.6052 24.22342 0.01836
C 30.71885 23.4313 0.03531
C 30.76162 22.00271 -0.00669
C 30.75053 19.04324 0.0101
C 30.71699 17.90253 0.01705
C 30.66788 14.9966 -0.0405
C 30.72274 13.56491 -0.01303
C 30.73458 0.65836 0.00307
C 29.68274 12.69897 -0.01461
C 30.76663 10.69924 -0.00944
C 30.74181 9.22231 -0.03735
C 29.54659 8.53523 -0.00971
C 29.50085 7.09289 0.01518
C 30.73066 6.38226 0.01908
C 30.73137 5.00037 0.07705
C 29.60263 4.28618 0.0103
C 29.52324 2.74259 0.02108
C 29.50075 11.3564 -0.02155
C 30.76755 26.30732 -0.01415
C 31.9658 11.44693 0.00137
C 33.24575 9.15403 0.04381
C 1.16004 19.1227 -0.01678
C 1.25804 17.68431 0.01223
C 34.35717 17.02596 0.00648
C 34.36637 15.59255 0.02114
C 1.18503 14.91945 -0.02957
C 1.19212 13.47569 0.00343
C 34.4211 12.7937 -0.02656
C 34.41479 11.29859 -0.02442
C 0.01573 19.89776 0.01951
C 1.2547 10.69103 -0.00027
C 0.08925 8.49863 -0.02302
C 0.03364 7.04306 -0.02849
C 1.23353 6.34763 0.02931
C 1.25234 4.92783 0.00628
C 34.41102 4.24097 -0.0345
C 0.00315 2.80899 -0.00931
C 1.21216 2.13163 -0.00939
C 1.20395 0.76831 -0.00468
C 1.2645 9.32377 -0.00583
C 33.17391 10.63013 0.00199
C 34.41739 21.32156 -0.02213
C 1.20149 23.47177 0.00723
C 31.94819 8.53521 0.02806
C 31.98748 7.08749 0.01504
C 33.21971 6.41249 -0.00069
C 33.22394 4.96544 0.04926
C 31.94451 4.27087 -0.03838
C 31.95489 2.82874 0.00349
C 33.21257 2.17432 -0.00323
C 33.22688 0.79177 -0.00841
C 1.1997 21.99099 0.02712
C 31.96735 34.07828 0.0001
C 1.21372 31.95723 -0.01404
C 1.27539 30.53513 0.01027
C 34.38435 29.80966 0.01831
C 34.36295 28.35736 -0.01037
C 1.19646 27.66536 -0.00439
C 1.19508 26.22026 -0.00598
C 34.39924 25.53028 -0.05239
C 34.43172 24.16412 0.03076
C 0.00363 32.73712 -0.02927
C 3.66094 32.01241 0.01305
C 30.76186 27.68879 -0.01854
C 29.46067 29.7709 0.03265
C 19.6253 7.10508 -0.01971
C 20.87502 6.42062 -0.02118
C 20.92964 4.96091 0.00733
C 19.68384 4.28088 -0.00178
C 19.65711 2.87206 0.00768
C 20.85679 2.17453 -0.0276
C 20.8738 0.77119 0.03005
C 19.63544 0.04136 -0.04078
C 19.55162 8.52974 -0.01586
C 22.09792 32.63267 0.02117
C 23.34118 30.52909 -0.00498
C 22.15105 29.83532 0.00135
C 22.11617 28.31247 0.03102
C 23.37791 27.70036 0.02555
C 22.11771 8.54715 0.01423
C 22.11209 7.24109 -0.00285
C 23.38655 6.28962 -0.009
C 23.38603 4.92796 -0.01199
C 23.29312 31.96847 0.02737
C 22.15692 4.26387 -0.00229
C 20.91329 27.71601 -0.01107
C 19.58553 29.74577 -0.00225
C 17.22282 29.81362 0.00199
C 17.23952 28.40494 0.01511
C 18.45201 27.60927 -0.00478
C 18.23293 26.2611 -0.01662
C 17.30491 25.59362 -0.01185
C 18.53593 9.13131 0.01126
C 17.27694 8.57772 0.01852
C 17.23709 7.10803 -0.00381
C 19.71309 28.26099 0.00071
C 18.42481 6.3546 0.03046
C 17.23022 4.21486 0.03374
C 17.22596 2.8069 -0.02845
C 18.47161 2.15873 -0.03213
C 18.38623 0.67849 0.02239
C 17.09116 34.07835 0.01153
C 19.62186 32.65654 0.02734
C 20.85515 31.91766 -0.0055
C 20.84377 30.47697 0.01515
C 18.46988 4.92514 0.0296
C 29.53347 28.39728 -0.02049
C 22.03077 2.89772 -0.00938
C 23.32115 0.65011 -0.01154
C 27.05869 28.39815 0.00194
C 28.28723 27.62303 -0.00621
C 28.30922 26.17936 0.02611
C 27.00323 25.6053 0.02198
C 28.37507 10.58214 0.01094
C 28.25319 9.23422 0.00235
C 27.06632 8.48758 0.01495
C 27.06847 7.05114 0.01259
C 27.01033 29.88452 0.04185
C 28.33241 6.32674 0.01799
C 27.14015 4.19942 -0.00416
C 27.07068 2.78166 0.01177
C 28.25594 2.1013 0.04266
C 28.31468 0.67491 0.01324
C 27.06351 34.0772 0.0014
C 29.57838 32.65723 0.00924
C 30.72689 31.94536 0.02326
C 30.70973 30.51832 0.00261
C 28.37592 4.92584 0.01699
C 23.33717 2.10173 -0.0264
C 28.31137 30.58627 0.02316
C 27.1084 32.70288 0.00152
C 22.14156 34.04972 0.00684
C 24.6159 32.70969 -0.01052
C 25.82043 32.01401 -0.01679
C 25.8194 30.58472 0.00367
C 24.55937 29.8465 0.04306
C 24.54896 28.42357 0.00996
C 25.76141 27.69961 0.00195
C 26.00283 26.20516 -0.00802
C 28.33882 31.97147 0.01257
C 25.68772 9.26275 -0.00218
C 24.57911 7.09311 -0.00037
C 25.81441 6.41177 -0.0032
C 25.93134 4.96031 0.00622
C 24.67749 4.22102 -0.02815
C 24.56972 2.79624 -0.00942
C 25.81081 2.12425 0.00487
C 25.90236 0.72156 0.00826
C 24.68434 34.06185 -0.00294
C 24.63161 8.60546 -0.01654
C 2.45584 32.6969 0.0276
