379
Graphene
C 34.39683 0.03233 0.01295
C 11.04388 6.42527 0.01945
C 11.09813 5.0289 0.01416
C 9.8507 4.32626 0.03542
C 9.85071 2.8964 0.02299
C 11.02978 2.18643 0.00244
C 11.07795 0.75885 -0.01717
C 9.78197 0.07517 0.05265
C 12.25207 32.71469 -0.01952
C 13.45461 31.95676 -0.02813
C 13.4741 30.50242 0.00374
C 12.30174 29.73954 0.00052
C 12.39185 28.37825 -0.03682
C 13.51809 27.46581 0.01965
C 12.50539 25.89445 0.02058
C 12.57518 24.33202 -0.01957
C 13.37734 23.28365 -0.0108
C 13.68271 21.96774 -0.00368
C 12.39214 21.33611 -0.02696
C 12.32582 19.8787 -0.00114
C 9.85622 7.15844 -0.01454
C 9.8669 8.61909 0.01241
C 11.07186 9.34197 0.0076
C 11.06711 10.76493 0.02162
C 11.04609 31.97365 0.00985
C 11.1065 30.52005 -0.02245
C 9.85707 29.89794 -0.00428
C 9.93131 28.49007 0.03101
C 11.10603 27.74494 -0.01536
C 11.07736 26.37925 -0.02689
C 9.87808 25.7098 -0.01046
C 9.85094 24.25957 -0.00891
C 11.15841 23.5309 0.02819
C 13.43366 19.04043 0.00228
C 11.13393 22.08001 0.00165
C 9.85378 19.8653 0.02894
C 11.06281 19.13747 -0.01789
C 11.07284 17.56382 0.00444
C 9.8512 16.91322 -0.00925
C 9.90294 15.52506 0.01877
C 11.13595 14.7809 0.01363
C 11.11283 13.40279 -0.02162
C 9.82568 12.7711 0.00415
C 9.79846 11.40589 -0.0014
C 9.885 21.3437 -0.02971
C 13.49947 17.55717 0.00798
C 12.26672 16.87517 0.00422
C 12.27731 11.55754 0.0351
C 15.9487 6.37629 -0.00316
C 15.98916 4.91129 0.02188
C 14.79569 4.18089 -0.01979
C 14.77134 2.80203 0.02691
C 16.01275 2.03067 -0.01581
C 15.92446 0.64111 0.01452
C 14.70806 33.98232 0.04892
C 17.17718 32.63762 -0.00111
C 18.45718 31.89956 -0.03557
C 14.74154 7.02598 -0.0331
C 18.83113 30.48168 0.03754
C 18.30072 19.16265 0.00755
C 18.36591 17.73023 -0.0054
C 17.23183 16.88483 0.00667
C 17.24595 15.42357 0.00143
C 18.49497 14.84819 -0.017
C 18.47559 13.51333 0.00364
C 17.20154 12.85444 -0.00831
C 16.99625 11.48357 -0.02957
C 18.28847 10.7494 -0.04422
C 17.0991 19.67901 0.01739
C 9.79072 32.78286 -0.01275
C 14.68454 8.55944 -0.0258
C 15.78471 10.69113 -0.00491
C 13.5037 10.92988 -0.03113
C 13.45943 9.42452 0.02098
C 12.28736 8.61119 0.01848
C 12.28782 7.14301 -0.00619
C 13.50268 6.41043 -0.02162
C 13.55805 4.9802 0.00889
C 12.32811 4.28016 -0.00481
C 12.25185 2.83949 0.00979
C 13.52266 2.13385 0.01443
C 15.86693 9.26345 0.03338
C 13.4911 0.67844 0.03505
C 14.70515 32.65638 -0.04147
C 15.91495 31.97744 -0.05302
C 15.82541 30.49599 0.00213
C 14.78003 29.76548 -0.00066
C 14.7844 21.17106 -0.00289
C 14.68394 19.75094 0.00028
C 15.93609 19.05897 -0.02213
C 16.00508 17.58009 0.03698
C 14.81107 16.96392 -0.00109
C 12.27259 0.05109 -0.02815
C 18.34152 9.31429 0.00654
C 7.30491 0.10871 -0.01111
C 8.56089 2.22956 0.00943
C 3.67244 4.96629 0.01087
C 2.38137 4.20831 -0.01343
C 2.3563 2.78943 0.00988
C 3.58591 2.09749 0.0276
C 3.63879 0.65996 0.01305
C 2.42841 34.06473 -0.00077
C 4.82046 32.69689 0.03368
C 6.11818 31.97454 -0.02929
C 6.18478 30.59649 -0.00966
C 4.90757 29.85399 -0.03337
C 4.87028 28.44188 0.01227
C 6.1713 27.79193 0.00873
C 6.14915 26.30692 -0.00049
C 4.89952 25.61175 0.00848
C 5.02078 24.19664 -0.01303
C 6.20443 23.48862 -0.01378
C 6.17084 22.03378 0.02635
C 4.91292 21.34772 0.0127
C 4.94032 19.87848 0.01396
C 3.6437 6.39709 -0.05697
C 2.4682 7.06559 -0.00725
C 2.46902 8.43698 0.02322
C 3.70314 9.2568 -0.00094
C 3.66852 30.50745 0.00643
C 2.40467 29.81054 -0.01509
C 2.42831 28.42834 0.03267
C 3.6447 27.77516 0.02374
C 3.72604 26.33072 0.00402
C 2.45934 25.62924 0.0073
C 2.47829 24.20396 0.0174
C 3.69451 23.52055 0.03828
C 3.73635 22.09215 0.01226
C 6.19267 19.20072 0.01849
C 2.42288 21.40624 -0.00279
C 3.62311 19.23191 -0.03996
C 3.60981 17.8381 0.01465
C 2.43189 17.12023 -0.00074
C 2.39617 15.70261 -0.00518
C 3.6455 15.01572 0.0086
C 3.62498 13.50914 -0.00643
C 2.42028 12.75993 0.017
C 2.4648 11.32773 -0.03113
C 3.69215 10.67825 -0.02566
C 2.38239 19.92219 0.01996
C 6.19149 17.80418 -0.01142
C 4.81653 17.1557 -0.00562
C 4.81069 15.73536 -0.00494
C 8.61305 23.45717 0.00373
C 8.6225 22.02147 -0.00191
C 7.42161 21.30366 0.00438
C 7.36336 19.86709 0.01291
C 8.70301 19.14185 0.00093
C 8.6677 17.7129 0.00057
C 7.40038 17.07737 -0.01634
C 7.38944 15.63045 -0.00334
C 8.66089 14.85793 0.02339
C 7.37127 24.18559 0.02147
C 8.58157 13.46313 0.01641
C 7.29292 11.42589 0.01364
C 8.52292 10.74083 -0.01062
C 8.59103 9.27843 -0.00033
C 7.34277 8.56849 0.03589
C 7.37178 7.13496 -0.02759
C 8.62241 6.50231 0.0402
C 8.57111 5.0243 0.00572
C 7.32441 4.28984 0.03592
C 7.35579 2.86541 0.00406
C 7.32602 12.78939 -0.00719
C 8.55191 0.82541 0.02841
C 7.40878 25.63093 -0.014
C 8.69634 27.80767 -0.00131
C 6.08863 14.95903 0.00054
C 6.07105 13.51121 0.03007
C 4.85634 12.79875 -0.00095
C 4.88666 11.42816 0.01572
C 6.07046 10.68776 -0.04848
C 6.16927 9.29391 -0.00892
C 4.88041 8.5052 -0.01362
C 4.95159 7.07956 -0.0008
C 6.18899 6.35116 0.0288
C 8.65498 26.36858 -0.01118
C 6.1722 4.96808 0.00393
C 4.88073 2.80826 0.00685
C 6.16463 2.18163 0.02888
C 6.10453 0.79585 -0.00482
C 4.87444 0.01987 -0.01384
C 7.29044 32.75544 0.03693
C 8.51137 31.98756 0.01745
C 8.635 30.62083 0.00488
C 7.38446 29.90291 -0.01004
C 7.41009 28.50598 -0.02896
C 4.91603 4.25665 0.00895
C 3.62422 31.94017 0.00907
C 17.08982 8.49243 -0.00703
C 18.34665 6.34142 -0.00652
C 29.53083 16.96476 0.02108
C 29.54038 15.50223 0.00716
C 30.86236 14.79149 0.00307
C 29.5538 4.32136 0.00346
C 29.4657 2.86676 0.01713
C 30.70018 2.15107 -0.01694
C 30.72121 0.74324 0.01428
C 29.4761 0.04348 -0.02142
C 31.9484 32.68681 0.0544
C 33.14268 32.01843 0.00026
C 33.16614 30.58316 0.00682
C 31.96117 29.8899 -0.01779
C 31.93431 28.46008 0.03794
C 33.1689 27.7165 0.01927
C 33.20892 26.32435 0.01574
C 32.01204 25.57748 -0.02383
C 31.96015 24.14439 -0.01429
C 33.18292 23.45873 -0.0136
C 33.21791 22.02659 0.00594
C 30.68117 17.68288 0.0103
C 30.70731 19.1687 0.07705
C 29.50152 19.86545 0.01908
C 29.50995 21.27455 0.01518
C 28.29411 19.11433 0.00924
C 28.34471 17.69693 0.02326
C 27.06061 17.06761 0.00261
C 26.97358 15.54658 0.03265
C 28.25805 14.95172 -0.02049
C 27.07186 2.77532 -0.01854
C 28.28184 2.09851 -0.01415
C 28.2501 0.70395 -0.03039
C 26.98574 34.02993 0.01836
C 31.98019 21.33344 -0.02474
C 29.47331 32.69215 0.03531
C 30.72102 30.56717 0.0101
C 29.53564 29.79643 0.01705
C 29.49169 28.36364 -0.0405
C 30.69379 27.63939 -0.01303
C 30.69953 26.20392 -0.01461
C 29.51326 25.50641 -0.02155
C 29.49006 24.13398 -0.00944
C 30.68335 23.44804 -0.03735
C 30.7616 21.94499 -0.00971
C 30.72163 31.97695 -0.00669
C 31.97236 19.86445 0.00369
C 33.17508 19.24358 0.00455
C 33.21151 17.84335 -0.00644
C 0.05458 21.37989 -0.02213
C 34.36213 19.96876 0.01951
C 1.18215 19.25478 -0.01678
C 1.1938 17.78661 0.01223
C 0.0003 17.09838 0.00648
C 34.43252 15.66767 0.02114
C 1.19591 14.93409 -0.02957
C 1.23752 13.48392 0.00343
C 0.01669 12.73802 -0.02656
C 1.25558 22.06556 0.02712
C 34.42478 11.35381 -0.02442
C 1.30531 9.16454 -0.00583
C 34.40436 8.60388 -0.02302
C 34.289 7.20457 -0.02849
C 1.13221 6.42901 0.02931
C 1.11702 5.00763 0.00628
C 34.28747 4.34881 -0.0345
C 34.34401 2.96097 -0.00931
C 1.13673 2.16997 -0.00939
C 1.2208 0.70134 -0.00468
C 1.21079 10.60965 -0.00027
C 27.04684 19.84048 0.0014
C 1.25714 23.48758 0.00723
C 34.42866 25.68401 -0.05239
C 31.95253 17.09981 -0.01839
C 31.99587 15.61023 0.00137
C 33.22029 14.91074 0.00199
C 33.20082 13.46857 0.04381
C 32.0569 12.58061 0.02806
C 33.20854 10.57718 0.01504
C 33.10361 6.41792 -0.00069
C 32.88975 5.00265 0.04926
C 31.65776 4.25196 -0.03838
C 0.00365 24.20246 0.03076
C 31.88274 2.91117 0.00349
C 33.14464 0.74639 -0.00841
C 31.93263 0.02299 0.0001
C 34.35415 32.67598 -0.02927
C 1.16716 32.02687 -0.01404
C 1.18468 30.55579 0.01027
C 34.35031 29.80687 0.01831
C 34.39653 28.44532 -0.01037
C 1.19666 27.71621 -0.00439
C 1.24633 26.36567 -0.00598
C 33.12339 2.18538 -0.00323
C 17.17887 7.071 -0.04076
C 27.00508 21.29136 0.01324
C 28.20792 23.48602 0.01177
C 20.88063 6.39139 0.03374
C 20.95987 4.9892 -0.02845
C 19.68935 4.19037 -0.03213
C 19.67093 2.85073 0.02239
C 20.99193 2.08462 0.01153
C 20.92634 0.67921 0.02734
C 19.76508 0.0206 -0.0055
C 22.14789 32.62954 0.01515
C 23.33437 31.92349 -0.00225
C 23.25258 30.52044 0.00071
C 21.95159 29.80443 -0.01107
C 22.12601 28.42967 -0.01586
C 23.27121 27.59652 -0.01971
C 23.45971 26.27436 -0.02118
C 23.15196 23.5229 0.00733
C 23.32114 22.04271 -0.00178
C 22.18989 21.24435 0.00768
C 22.08869 19.84382 -0.0276
C 23.37058 19.16848 0.03005
C 19.59978 7.03257 0.0296
C 19.50593 8.48349 0.03046
C 20.75329 9.21822 -0.00381
C 20.76585 10.66999 0.01852
C 18.42358 4.89612 0.0058
C 17.19809 4.18549 -0.00865
C 17.24243 2.76644 0.00675
C 18.44863 2.01827 -0.00311
C 18.4483 0.61111 0.00742
C 17.19801 33.97692 -0.01594
C 19.77878 32.67679 0.0106
C 20.96267 32.01917 -0.01154
C 20.64483 30.57509 -0.01721
C 23.43306 17.74335 -0.04078
C 20.79044 21.71692 -0.02422
C 19.53335 19.79703 0.00096
C 20.84755 19.13505 -0.01527
C 20.89448 17.69803 0.01087
C 19.63314 17.01707 0.00199
C 19.65811 15.58768 0.01511
C 20.96737 14.86642 -0.00478
C 20.98723 13.41017 -0.01662
C 19.70234 12.74937 -0.01185
C 19.59846 11.32929 0.01126
C 19.71438 21.26748 0.01277
C 22.17544 17.08041 0.02117
C 22.16262 15.64969 0.02737
C 23.37249 14.91572 -0.00498
C 24.58014 19.88811 -0.02815
C 25.83221 19.19652 -0.00942
C 25.88548 17.79678 0.00487
C 24.64827 17.06456 0.00826
C 24.53633 15.65131 -0.00294
C 25.74029 14.89228 0.00152
C 24.63067 4.28805 0.01257
C 24.61898 2.84854 0.02316
C 25.80981 2.06953 0.04185
C 24.47045 21.3112 0.00622
C 25.82881 0.68882 0.00194
C 27.01925 32.62769 0.02611
C 28.28528 31.95403 0.02198
C 28.26124 30.47546 0.01094
C 27.06108 29.80241 0.00235
C 27.08786 28.33519 0.01495
C 28.2997 27.61781 0.01259
C 28.29046 26.20554 0.01799
C 26.99525 25.53986 0.01699
C 26.96579 24.12134 -0.00416
C 24.63088 34.04375 -0.00621
C 28.26749 22.0241 0.04266
C 25.70272 22.03282 -0.0032
C 24.43384 24.07815 -0.01654
C 23.37526 13.48416 0.00135
C 22.33465 12.59663 0.03102
C 22.01296 11.25079 0.02555
C 21.89306 8.56308 0.01423
C 22.1595 7.21423 -0.00285
C 23.21033 6.33287 -0.009
C 23.4391 4.97688 -0.01199
C 22.15475 4.24645 -0.00229
C 22.20809 2.84596 -0.00938
C 25.66198 23.42098 -0.00037
C 23.39836 2.12474 -0.0264
C 22.18297 34.02966 0.00684
C 24.549 32.60053 -0.01052
C 25.80075 31.90061 -0.01679
C 25.71102 30.50171 0.00367
C 24.53868 29.76983 0.04306
C 24.54861 28.34085 0.00996
C 25.856 27.67899 0.00195
C 25.78404 26.2854 -0.00802
C 24.58405 25.46149 -0.00218
C 23.46112 0.67108 -0.01154
C 2.41816 32.65259 0.02379
