359
Graphene
C 34.42794 0.05957 0.01295
C 10.92059 0.84739 -0.01957
C 9.61489 0.06337 -0.0108
C 12.15515 32.66957 -0.00368
C 13.38986 31.9597 -0.02696
C 13.32949 30.56405 -0.00114
C 12.03913 29.84298 0.00228
C 13.60424 23.85467 0.00798
C 12.23848 21.56761 0.00422
C 10.89767 2.16961 0.02058
C 12.47648 20.2267 0.0351
C 12.32594 15.80771 0.02098
C 13.57145 13.40702 0.01848
C 12.35986 12.74681 -0.00619
C 12.33754 11.33204 -0.02162
C 13.55667 10.65999 0.00889
C 13.52205 9.21401 -0.00481
C 12.26371 8.58777 0.00979
C 12.30877 7.20242 0.01443
C 12.23588 16.99758 -0.03113
C 9.7603 2.92694 0.01965
C 9.77227 4.34764 -0.03682
C 10.95953 5.05507 0.00052
C 9.74761 32.71336 0.01877
C 10.90099 31.9892 0.01363
C 10.86536 30.53841 -0.02162
C 11.1682 22.38023 0.00415
C 9.93813 21.744 -0.0014
C 9.97081 20.16003 0.02162
C 11.38047 19.44728 0.0076
C 11.22502 18.00513 0.01241
C 9.87584 17.14044 -0.01454
C 9.96614 15.65068 0.01945
C 11.23108 14.86381 0.01416
C 11.14614 13.48409 0.03542
C 9.93986 12.8363 0.02299
C 9.83064 11.39456 0.00244
C 11.03714 10.69344 -0.01717
C 11.07263 9.21828 0.05265
C 9.82669 8.60315 -0.01952
C 9.77867 7.19579 -0.02813
C 11.01961 6.4684 0.00374
C 13.45693 6.41233 0.03505
C 7.20739 34.03476 -0.00925
C 13.42848 4.9795 -0.02815
C 12.16984 2.88945 -0.05302
C 14.68555 0.00968 -0.0054
C 17.25229 32.5588 0.00667
C 18.38303 31.76693 0.00143
C 18.28654 30.39923 -0.017
C 17.05623 29.69138 0.00364
C 17.17899 28.21515 -0.00831
C 18.32214 27.6354 -0.02957
C 17.40552 11.20872 -0.04422
C 15.8882 0.63887 0.00755
C 18.36502 10.59822 0.00654
C 17.21998 8.50491 -0.04076
C 17.19044 7.04894 -0.00652
C 18.45097 6.37138 0.0058
C 18.34403 4.97456 -0.00865
C 17.15349 4.24539 0.00675
C 17.2213 2.84641 -0.00311
C 18.45409 2.1192 0.00742
C 18.48438 0.71635 -0.01594
C 18.53859 9.2175 -0.00703
C 16.00575 2.08387 0.01739
C 14.71378 2.85324 0.03754
C 14.56916 4.22851 -0.03557
C 13.40119 2.19009 0.00213
C 13.43434 0.74775 -0.00066
C 12.11379 0.05659 -0.00289
C 14.73303 32.69093 0.00028
C 16.00875 31.85371 -0.02213
C 15.89605 30.4506 0.03698
C 14.60252 29.77855 -0.00109
C 14.54262 28.36288 -0.00491
C 15.46292 27.30889 0.03338
C 14.83767 25.9867 -0.0258
C 14.37629 24.6242 -0.0331
C 14.59551 12.76411 -0.00316
C 14.84644 11.35244 0.02188
C 16.09718 10.8155 -0.01979
C 15.97917 9.22572 0.02691
C 14.69039 8.51373 -0.01581
C 14.71275 7.07137 0.01452
C 15.84762 6.33326 0.04892
C 15.88601 4.93134 -0.00111
C 12.18159 4.33823 -0.04147
C 17.21281 34.00373 0.0106
C 8.40431 0.72985 0.00444
C 7.23325 2.80473 0.02894
C 3.67981 6.47327 0.01849
C 3.60933 5.03974 -0.01142
C 2.41168 4.34162 -0.00562
C 2.38996 2.91807 -0.00494
C 3.56244 2.17899 0.00054
C 3.55474 0.73697 0.03007
C 2.37593 34.07382 -0.00095
C 4.87697 32.71521 0.01572
C 2.48 7.15163 0.01396
C 6.10415 31.9514 -0.04848
C 4.97648 29.72511 -0.01362
C 4.99457 28.2477 -0.0008
C 6.25503 27.45286 0.0288
C 6.24743 25.88178 0.00393
C 4.87511 25.49196 0.00895
C 4.74491 24.13774 0.00685
C 5.99829 23.55702 0.02888
C 6.18816 22.1641 -0.00482
C 6.17211 30.55849 -0.00892
C 2.44284 8.5758 0.0127
C 3.70962 9.24968 0.02635
C 3.68606 10.67928 -0.01378
C 3.73315 30.45463 -0.00094
C 2.47744 29.83956 0.02322
C 2.41173 28.3923 -0.00725
C 3.65386 27.68546 -0.05697
C 3.68107 26.19636 0.01087
C 2.35425 25.54981 -0.01343
C 2.36071 24.1313 0.00988
C 3.60451 23.43899 0.0276
C 3.7014 21.99698 0.01305
C 2.37802 21.31584 -0.00077
C 2.41394 19.90836 0.03368
C 3.71816 19.20888 -0.02929
C 3.75893 17.73729 -0.00966
C 2.36949 17.07954 -0.03337
C 2.52849 15.6887 0.01227
C 3.79394 15.03895 0.00873
C 3.7862 13.61339 -0.00049
C 2.50946 12.89561 0.00848
C 2.50815 11.4642 -0.01303
C 4.91584 21.3118 -0.01384
C 8.49892 2.18722 -0.01789
C 4.99746 19.94261 0.03693
C 6.29079 17.83863 0.00488
C 8.66163 22.26139 0.00572
C 7.50665 21.49676 0.03592
C 7.58265 20.07491 0.00406
C 8.77814 19.3681 0.00943
C 8.6885 17.98413 0.02841
C 7.57777 17.14972 -0.01111
C 7.53783 15.7718 -0.01275
C 8.67481 14.90039 0.00985
C 7.0041 24.68301 0.0402
C 8.68339 13.55412 -0.02245
C 7.40618 11.39699 0.03101
C 8.57976 10.67701 -0.01536
C 8.59696 9.26681 -0.02689
C 7.41472 8.5277 -0.01046
C 7.42458 7.15148 -0.00891
C 8.5814 6.45127 0.02819
C 8.44765 5.06271 0.00165
C 7.18071 4.27049 -0.02971
C 7.41215 12.85339 -0.00428
C 7.32753 28.35554 -0.02759
C 7.51776 29.71881 0.03589
C 8.78414 30.51797 -0.00033
C 4.98499 17.08248 -0.01004
C 5.03443 15.74987 -0.02896
C 6.28522 15.05517 -0.00131
C 6.26625 13.61445 -0.01118
C 4.9729 12.85289 -0.014
C 4.91876 11.43751 0.02147
C 6.1822 10.676 0.00373
C 6.20251 9.24047 -0.00191
C 4.95087 8.50502 0.00438
C 4.91666 7.14443 0.01291
C 6.15582 6.4406 0.00093
C 6.01636 5.02723 0.00057
C 4.81298 4.36595 -0.01634
C 4.7691 2.8894 -0.00334
C 6.02354 2.21767 0.02339
C 5.9318 0.77687 0.01641
C 4.76815 0.05903 -0.00719
C 7.36861 32.65711 0.01364
C 8.62379 31.9555 -0.01062
C 6.34391 19.30082 0.01745
C 3.7254 31.87196 -0.02566
C 19.62396 32.56947 -0.01154
C 20.82415 30.43987 -0.02422
C 31.91295 32.7332 0.01713
C 33.14142 32.02407 -0.01694
C 33.12328 30.56552 0.01428
C 31.84716 29.84473 -0.02142
C 31.83449 28.38844 0.0544
C 33.06962 27.76386 0.00026
C 33.01099 26.26287 0.00682
C 31.88041 25.50646 -0.01779
C 29.43358 0.02797 0.00346
C 31.86138 24.127 0.03794
C 33.12641 22.06998 0.01574
C 31.9612 21.29818 -0.02383
C 31.91697 19.90837 -0.01429
C 33.16332 19.18721 -0.0136
C 33.11432 17.82624 0.00594
C 31.8878 17.0854 -0.02474
C 31.83458 15.61442 0.00369
C 33.17248 14.97754 0.00455
C 33.08179 23.45799 0.01927
C 30.72294 0.75566 0.00307
C 30.72253 2.15958 0.00716
C 29.50215 2.85971 0.02108
C 30.62772 23.37301 -0.01854
C 30.61971 22.01793 -0.01415
C 29.42726 21.28806 -0.03039
C 29.43698 19.87814 0.01836
C 30.61352 19.13493 0.03531
C 30.68963 17.72361 -0.00669
C 29.47499 16.90906 0.0101
C 29.35776 15.5166 0.01705
C 30.61807 14.85555 -0.0405
C 30.70353 13.40682 -0.01303
C 29.48265 12.73795 -0.01461
C 29.41788 11.35467 -0.02155
C 30.64823 10.65091 -0.00944
C 30.75394 9.28419 -0.03735
C 29.53868 8.52362 -0.00971
C 29.50457 7.10027 0.01518
C 30.72757 6.44276 0.01908
C 30.70175 5.02938 0.07705
C 29.50892 4.26 0.0103
C 33.16866 13.51437 -0.00644
C 29.35109 24.06383 -0.02049
C 31.90486 12.78025 -0.01839
C 33.13814 10.75172 0.00199
C 1.20601 19.22495 -0.01678
C 1.19065 17.80382 0.01223
C 34.3914 17.07223 0.00648
C 34.4157 15.70597 0.02114
C 1.23874 14.99712 -0.02957
C 1.27371 13.56287 0.00343
C 34.39894 12.84356 -0.02656
C 34.42231 11.45001 -0.02442
C 34.4057 19.90991 0.01951
C 1.21672 10.77235 -0.00027
C 34.39847 8.60105 -0.02302
C 0.01724 7.1394 -0.02849
C 1.24057 6.47387 0.02931
C 1.14483 5.06554 0.00628
C 34.41357 4.32454 -0.0345
C 0.01245 2.91079 -0.00931
C 1.22712 2.24312 -0.00939
C 1.20512 0.74739 -0.00468
C 1.23518 9.33326 -0.00583
C 34.33655 21.33078 -0.02213
C 1.12342 22.02106 0.02712
C 1.10288 23.4848 0.00723
C 33.21586 9.33749 0.04381
C 32.01337 8.59366 0.02806
C 31.90403 7.15221 0.01504
C 33.18905 6.47916 -0.00069
C 33.14707 5.02994 0.04926
C 31.9628 4.32882 -0.03838
C 31.93099 2.89657 0.00349
C 33.21633 2.23121 -0.00323
C 33.188 0.72987 -0.00841
C 31.91631 0.08886 0.0001
C 34.381 32.65381 -0.02927
C 1.20187 31.96208 -0.01404
C 1.24252 30.49272 0.01027
C 34.36836 29.89024 0.01831
C 34.37094 28.45273 -0.01037
C 1.19498 27.68655 -0.00439
C 1.12972 26.28412 -0.00598
C 34.3007 25.6536 -0.05239
C 34.20449 24.21344 0.03076
C 31.9178 11.37176 0.00137
C 20.86379 31.93293 -0.01721
C 29.44542 25.46477 0.03265
C 30.6713 27.64507 0.02326
C 23.4084 9.22606 0.00071
C 22.17451 8.57325 -0.01107
C 22.17806 7.16054 -0.01586
C 23.37539 6.41688 -0.01971
C 23.26452 4.94182 -0.02118
C 22.06758 4.27423 0.00733
C 22.07581 2.79503 -0.00178
C 23.27207 2.04771 0.00768
C 23.45572 10.8038 -0.00225
C 23.288 0.64403 -0.0276
C 24.47927 32.63955 -0.04078
C 25.70041 31.93412 0.02117
C 25.72112 30.49208 0.02737
C 24.52782 29.75715 -0.00498
C 24.52204 28.38347 0.00135
C 25.71903 27.70576 0.03102
C 25.73885 26.27762 0.02555
C 24.50174 25.67413 0.01423
C 22.07842 34.03788 0.03005
C 22.10253 11.22433 0.01515
C 23.4837 26.1887 -0.0055
C 23.2788 27.61741 0.02734
C 19.5882 29.71347 0.01277
C 19.61326 28.114 0.00096
C 20.83302 27.53477 -0.01527
C 21.11325 10.62302 0.01087
C 20.92767 9.27196 0.00199
C 19.71599 8.51679 0.01511
C 19.73971 7.12007 -0.00478
C 20.95986 6.42449 -0.01662
C 20.86503 5.03899 -0.01185
C 19.66614 4.26602 0.01126
C 19.57219 2.89715 0.01852
C 20.79399 2.10526 -0.00381
C 20.88163 0.64323 0.03046
C 19.64456 34.0502 0.0296
C 22.10091 32.60535 0.03374
C 23.32214 31.9436 -0.02845
C 23.25283 30.46417 -0.03213
C 22.09693 29.73782 0.02239
C 22.08008 28.23496 0.01153
C 24.63301 11.41791 -0.00285
C 30.61036 26.19923 0.00261
C 25.78918 10.66923 -0.009
C 24.62445 8.48474 -0.00229
C 26.99524 12.65241 0.02316
C 27.04148 11.25735 0.04185
C 28.26433 10.58196 0.00194
C 28.25291 9.19459 -0.00621
C 27.01218 8.45725 0.02611
C 27.05501 7.0146 0.02198
C 28.31948 6.37912 0.01094
C 28.2336 4.98323 0.00235
C 28.10058 13.50096 0.01257
C 26.94662 4.24629 0.01495
C 28.25895 2.13497 0.01799
C 28.15871 0.72128 0.01699
C 26.9891 0.00069 -0.00416
C 29.36363 32.69495 0.01177
C 30.70694 31.96252 0.04266
C 30.62134 30.59365 0.01324
C 29.45539 29.86163 0.0014
C 29.50114 28.41621 0.00924
C 26.96301 2.80344 0.01259
C 28.13825 14.82545 0.00152
C 28.33773 17.7751 -0.00294
C 28.28711 19.0336 0.00826
C 24.62923 7.0946 -0.00938
C 25.79946 6.36022 -0.0264
C 25.72555 4.91224 -0.01154
C 24.46194 4.2479 0.00684
C 24.462 2.76696 -0.01052
C 25.78121 2.09927 -0.01679
C 25.71043 0.67725 0.00367
C 24.50183 0.03851 0.04306
C 26.91875 32.62558 0.00996
C 28.157 31.91402 0.00195
C 28.12209 30.52617 -0.00802
C 26.91938 29.74019 -0.00218
C 27.00861 28.30859 -0.01654
C 28.27003 27.68539 -0.00037
C 28.30295 26.28471 -0.0032
C 26.9337 25.62986 0.00622
C 26.91646 24.27481 -0.02815
C 28.03247 23.36727 -0.00942
C 28.18308 22.01711 0.00487
C 25.83943 9.25956 -0.01199
C 2.45402 32.60547 -0.03113
