347
Graphene
C 34.30939 0.00652 0.01295
C 14.75613 8.55772 0.0351
C 14.74659 7.03266 -0.03113
C 15.96584 6.32644 0.02098
C 15.93968 4.9321 0.01848
C 14.6425 4.24041 -0.00619
C 14.73555 2.87844 -0.02162
C 15.98362 2.18902 0.00889
C 15.95912 0.75916 -0.00481
C 14.74838 0.08768 0.00979
C 17.15542 32.68411 0.01443
C 18.4103 31.90304 0.03505
C 18.46366 30.51519 -0.02815
C 17.15283 29.86784 -0.04147
C 17.2132 28.43714 -0.05302
C 18.58551 27.61339 0.00213
C 18.43774 26.25063 -0.00066
C 17.19586 25.59013 -0.00289
C 16.04773 9.25057 0.00422
C 15.96694 10.77573 0.00798
C 14.70917 11.36262 0.00228
C 16.08477 13.73142 -0.00114
C 13.49379 6.44214 0.01945
C 13.49672 4.99075 0.01416
C 12.24992 4.36675 0.03542
C 12.20842 2.94593 0.02299
C 13.49238 2.16925 0.00244
C 13.47749 0.72497 -0.01717
C 12.1808 0.01165 0.05265
C 14.72681 32.7153 -0.01952
C 17.04559 24.13406 0.00028
C 15.84623 31.92354 -0.02813
C 14.67341 29.70572 0.00052
C 14.75603 28.33642 -0.03682
C 16.00662 27.66907 0.01965
C 16.02226 26.36722 0.02058
C 14.77754 25.63846 -0.01957
C 14.70826 24.1821 -0.0108
C 15.7917 23.36206 -0.00368
C 15.87821 21.89849 -0.02696
C 15.8864 30.45995 0.00374
C 18.23733 23.46101 -0.02213
C 18.26673 21.97643 0.03698
C 17.03237 21.12905 -0.00109
C 20.8598 30.45992 -0.02957
C 19.74283 29.68803 -0.04422
C 19.83273 28.28382 0.00654
C 21.16954 27.57993 -0.00703
C 21.00175 26.20412 -0.04076
C 19.67641 25.5069 -0.00652
C 19.53085 24.05876 0.0058
C 20.82799 23.34913 -0.00865
C 20.875 31.95671 -0.00831
C 20.84466 21.9567 0.00675
C 19.68048 19.75818 0.00742
C 20.94209 19.2155 -0.01594
C 20.84849 17.73013 0.0106
C 19.64887 17.06331 -0.01154
C 19.64057 15.58889 -0.01721
C 20.90834 14.98741 -0.02422
C 20.84334 13.60555 0.01277
C 19.72046 12.80234 0.00096
C 19.50802 21.24311 -0.00311
C 12.27938 7.16577 -0.01454
C 19.68476 32.73442 0.00364
C 18.49542 0.77675 0.00143
C 17.09335 19.65184 -0.00491
C 18.41936 19.07565 0.03338
C 18.38347 17.67257 -0.0258
C 17.23765 16.83887 -0.0331
C 17.12061 15.5022 -0.00316
C 18.34373 14.93481 0.02188
C 18.46437 13.4913 -0.01979
C 17.15064 12.90373 0.02691
C 17.18049 34.07013 -0.017
C 17.19475 11.45292 -0.01581
C 18.4204 9.31465 0.04892
C 17.2735 8.56856 -0.00111
C 17.16943 7.1358 -0.03557
C 18.39297 6.44328 0.03754
C 18.4173 4.96548 0.01739
C 17.28286 4.29107 0.00755
C 17.22254 2.85453 -0.0054
C 18.4742 2.19237 0.00667
C 18.44311 10.72336 0.01452
C 19.76342 11.38552 -0.01527
C 12.27309 8.5564 0.01241
C 13.64449 10.71918 0.02162
C 6.12748 31.95922 -0.0008
C 6.09644 30.59571 0.0288
C 4.93182 29.81452 0.00393
C 4.83991 28.38578 0.00895
C 6.02728 27.50875 0.00685
C 5.99781 26.00489 0.02888
C 4.76399 25.51828 -0.00482
C 5.25521 10.84977 -0.01384
C 5.90282 9.40367 0.03693
C 4.90886 8.42745 0.01745
C 4.88478 7.05261 0.00488
C 6.08296 6.38437 -0.01004
C 6.12835 5.02457 -0.02896
C 4.86831 4.26178 -0.00131
C 4.87773 2.83921 -0.01118
C 6.09102 2.1991 -0.014
C 6.03566 0.65254 0.02147
C 4.86185 32.58846 -0.01362
C 2.35829 0.0345 -0.00892
C 3.58838 0.73225 -0.04848
C 3.63846 2.19278 0.01572
C 3.60835 30.46371 -0.00966
C 2.36515 29.74355 -0.03337
C 2.3291 28.359 0.01227
C 3.61548 27.72 0.00873
C 3.63307 26.34638 -0.00049
C 2.35034 25.6694 0.00848
C 2.57935 24.30486 -0.01303
C 3.97002 24.15273 -0.01378
C 4.81804 34.04114 0.00373
C 2.58267 12.74626 0.02635
C 3.72393 10.50082 0.01396
C 3.70517 9.13783 0.01849
C 2.53509 8.46685 -0.01142
C 2.5156 7.14692 -0.00562
C 3.67342 6.34322 -0.00494
C 3.68993 4.91637 0.00054
C 2.44154 4.27517 0.03007
C 2.46373 2.87697 -0.00095
C 2.6695 11.40579 0.0127
C 7.38994 32.69607 -0.00191
C 8.56624 31.89637 0.00438
C 8.54851 30.52303 0.01291
C 11.12702 9.36448 -0.00428
C 9.72816 8.80387 0.03101
C 9.79941 7.23102 -0.01536
C 10.99204 6.44715 -0.02689
C 10.98701 5.0576 -0.01046
C 9.77212 4.4008 -0.00891
C 9.73692 2.95141 0.02819
C 10.97524 2.23018 0.00165
C 11.17364 26.45714 -0.02245
C 10.9174 0.72426 -0.02971
C 12.2765 32.7318 -0.01789
C 13.5273 32.00146 0.00444
C 13.52855 30.5609 -0.00925
C 12.33127 29.82791 0.01877
C 12.24293 28.38872 0.01363
C 13.50502 27.66647 -0.02162
C 13.53948 26.28536 0.00415
C 12.31686 25.67518 -0.0014
C 9.76386 0.04956 0.02894
C 13.55791 9.23529 0.0076
C 11.02646 27.77115 0.00985
C 9.77825 29.89665 -0.01111
C 7.28839 29.75581 0.00093
C 7.21451 28.24807 0.00057
C 8.53619 27.65929 -0.01634
C 8.43146 26.29673 -0.00334
C 7.25393 25.71099 0.02339
C 8.47522 9.20589 0.01641
C 7.21618 8.71764 -0.00719
C 7.2621 7.27922 0.01364
C 9.72926 28.37167 -0.01275
C 8.502 6.572 -0.01062
C 7.454 4.3762 0.03589
C 7.32386 2.9349 -0.02759
C 8.52515 2.15648 0.0402
C 8.54581 0.75392 0.00572
C 7.28634 34.04564 0.03592
C 9.81714 32.66544 0.00406
C 11.07122 31.94779 0.00943
C 11.01451 30.54824 0.02841
C 8.65346 5.1976 -0.00033
C 3.61097 31.88867 -0.02929
C 20.87546 10.68715 0.01087
C 19.61669 8.55338 0.01511
C 29.4433 34.02326 0.01428
C 31.87235 32.61413 -0.02142
C 33.107 31.9531 0.0544
C 33.19496 30.50834 0.00026
C 31.8886 29.8033 0.00682
C 31.84799 28.40276 -0.01779
C 33.06957 27.66387 0.03794
C 33.21673 26.19154 0.01927
C 33.40825 23.55719 0.01574
C 33.29459 22.12414 -0.02383
C 31.90448 19.86534 -0.01429
C 33.21268 19.19951 -0.0136
C 33.14525 17.73762 0.00594
C 31.8724 17.01028 -0.02474
C 31.88501 15.58472 0.00369
C 33.10882 14.90296 0.00455
C 33.26634 13.49296 -0.00644
C 30.70106 0.6968 -0.01694
C 30.70337 2.09362 0.01713
C 29.46808 2.91794 0.00346
C 29.4926 4.31974 0.00307
C 30.56718 30.5817 0.01836
C 29.29686 29.8176 0.03531
C 29.54478 28.48686 -0.00669
C 30.5874 27.79995 0.0101
C 30.78493 19.2367 0.01705
C 30.67931 17.85553 -0.0405
C 29.42184 17.09063 -0.01303
C 29.44118 15.62875 -0.01461
C 32.05419 12.71262 -0.01839
C 30.63686 14.93523 -0.02155
C 29.51251 12.83539 -0.03735
C 29.52357 11.35641 -0.00971
C 30.79832 10.64054 0.01518
C 30.77366 9.21636 0.01908
C 29.56139 8.50299 0.07705
C 29.54205 7.11629 0.0103
C 30.7561 6.39882 0.02108
C 30.77019 4.93937 0.00716
C 30.72524 13.44486 -0.00944
C 32.06012 11.39395 0.00137
C 33.319 10.69765 0.00199
C 33.30342 9.29403 0.04381
C 1.19067 19.0812 -0.01678
C 1.14843 17.68105 0.01223
C 34.39724 17.02632 0.00648
C 34.27992 15.61499 0.02114
C 1.12264 14.92665 -0.02957
C 1.46966 13.49638 0.00343
C 0.12502 12.8449 -0.02656
C 0.20719 11.32869 -0.02442
C 0.06996 19.88453 0.01951
C 1.39446 10.64666 -0.00027
C 0.08827 8.63666 -0.02302
C 34.43022 7.17046 -0.02849
C 1.22211 6.46451 0.02931
C 1.20675 5.01417 0.00628
C 34.40699 4.18856 -0.0345
C 34.36164 2.84064 -0.00931
C 1.21076 2.19245 -0.00939
C 1.13484 0.76997 -0.00468
C 1.30744 9.23852 -0.00583
C 30.61311 31.96426 -0.03039
C 0.09578 21.33909 -0.02213
C 1.41927 23.52252 0.00723
C 32.05965 8.46115 0.02806
C 31.97678 7.03031 0.01504
C 33.23539 6.35542 -0.00069
C 33.23586 4.9391 0.04926
C 31.97488 4.21492 -0.03838
C 32.00103 2.83491 0.00349
C 33.2475 2.15924 -0.00323
C 33.12365 0.71377 -0.00841
C 1.22569 22.15908 0.02712
C 31.91551 34.03508 0.0001
C 1.14767 31.95734 -0.01404
C 1.13598 30.53128 0.01027
C 34.36931 29.80839 0.01831
C 34.28475 28.42473 -0.01037
C 1.1369 27.74184 -0.00439
C 1.11477 26.34644 -0.00598
C 34.35024 25.61784 -0.05239
C 0.07115 24.24045 0.03076
C 34.3678 32.71675 -0.02927
C 20.88639 9.21169 0.00199
C 29.33678 32.55823 -0.01415
C 28.23282 0.72603 -0.02049
C 22.15096 15.64466 0.00733
C 23.36057 14.91435 -0.00178
C 23.42086 13.45034 0.00768
C 22.10328 12.8232 -0.0276
C 22.09519 11.4645 0.03005
C 23.32849 10.63675 -0.04078
C 23.38006 9.22447 0.02117
C 22.12831 8.50338 0.02737
C 22.15562 7.07397 -0.00498
C 23.35376 6.38445 0.00135
C 23.39536 4.97333 0.03102
C 22.09679 4.29346 0.02555
C 22.04631 2.89659 0.01423
C 23.26234 2.11312 -0.00285
C 23.32265 0.72034 -0.009
C 22.12718 34.0475 -0.01199
C 24.51926 32.74465 -0.00229
C 22.03092 16.94021 -0.02118
C 23.25074 17.80147 -0.01971
C 23.51159 19.12849 -0.01586
C 22.28279 19.92742 -0.01107
C 19.66282 7.06326 -0.00478
C 20.89261 6.41157 -0.01662
C 20.90519 5.03188 -0.01185
C 19.65332 4.27587 0.01126
C 19.6501 2.86607 0.01852
C 20.90325 2.19131 -0.00381
C 20.96241 0.73273 0.03046
C 19.70334 0.04587 0.0296
C 25.79715 32.08823 -0.00938
C 22.05423 32.66145 0.03374
C 23.32833 30.533 -0.03213
C 22.15282 29.79963 0.02239
C 22.31329 28.36131 0.01153
C 23.64386 27.57112 0.02734
C 23.39822 26.23693 -0.0055
C 22.38238 25.2895 0.01515
C 22.04176 23.96089 -0.00225
C 22.14446 21.37197 0.00071
C 23.37601 32.00056 -0.02845
C 25.76079 30.67061 -0.0264
C 24.59419 29.92154 -0.01154
C 24.63397 28.50278 0.00684
C 26.81817 29.62489 -0.00621
C 26.3466 28.3065 0.02611
C 28.15631 17.78073 0.02198
C 26.84936 17.2213 0.01094
C 26.93213 15.84584 0.00235
C 28.15494 15.04969 0.01495
C 28.21899 13.56447 0.01259
C 27.03804 12.794 0.01799
C 28.06998 30.34062 0.00194
C 27.07067 11.3678 0.01699
C 28.35029 9.22698 0.01177
C 27.10817 8.49109 0.04266
C 27.02168 7.10908 0.01324
C 28.2896 6.44649 0.0014
C 28.28011 5.06146 0.00924
C 27.07234 4.29615 0.02326
C 26.99521 2.86397 0.00261
C 28.21258 2.18329 0.03265
C 28.33561 10.64338 -0.00416
C 27.08512 0.09911 -0.01854
C 28.13414 31.85551 0.04185
C 24.56356 0.08092 0.01257
C 25.11786 19.06335 -0.01052
C 25.58013 17.88891 -0.01679
C 24.40179 16.95658 0.00367
C 24.48967 15.70726 0.04306
C 25.75629 14.95035 0.00996
C 25.81492 13.51952 0.00195
C 24.62539 12.6851 -0.00802
C 24.57651 11.30396 -0.00218
C 27.00253 32.72328 0.02316
C 25.86553 10.63643 -0.01654
C 24.581 8.57675 -0.0032
C 24.50516 7.12725 0.00622
C 25.80093 6.37941 -0.02815
C 25.82759 5.04897 -0.00942
C 24.59086 4.23577 0.00487
C 24.5189 2.8286 0.00826
C 25.80558 2.17413 -0.00294
C 25.86963 0.78727 0.00152
C 25.79552 9.23016 -0.00037
C 2.35372 32.61812 0.03368
