338
Graphene
C 34.39031 34.05207 0.01295
C 9.89581 19.936 0.00889
C 11.18828 19.20463 -0.00481
C 11.22747 17.76185 0.00979
C 9.94868 17.00201 0.01443
C 9.89315 15.63201 0.03505
C 11.13545 15.00084 -0.02815
C 11.17537 13.57558 -0.04147
C 9.95407 12.82761 -0.05302
C 9.91633 11.44521 0.00213
C 11.04566 10.69886 -0.00066
C 11.0155 9.27672 -0.00289
C 9.76962 8.57687 0.00028
C 9.80697 7.09399 -0.02213
C 11.13245 6.42271 0.03698
C 11.15601 5.00649 -0.00109
C 9.88585 4.41183 -0.00491
C 9.8342 2.92297 0.03338
C 9.74579 21.32668 -0.02162
C 11.0175 2.25096 -0.0258
C 10.96517 22.04605 -0.00619
C 9.70271 24.10003 0.02098
C 7.35843 8.53972 -0.01952
C 7.35316 7.07203 -0.02813
C 8.58449 6.44548 0.00374
C 8.61709 5.0445 0.00052
C 7.37039 4.23108 -0.03682
C 7.36273 2.85245 0.01965
C 8.57186 2.21704 0.02058
C 8.63337 0.78762 -0.01957
C 7.41006 0.0866 -0.0108
C 9.79136 32.68679 -0.00368
C 11.02106 31.93116 -0.02696
C 11.02734 30.55112 -0.00114
C 9.76714 29.80853 0.00228
C 9.79262 28.398 0.00798
C 11.1016 27.65571 0.00422
C 11.06123 26.28451 0.0351
C 9.84927 25.53931 -0.03113
C 10.96974 23.53084 0.01848
C 8.52199 9.27789 0.05265
C 11.04928 0.83869 -0.0331
C 12.26396 32.71368 0.02188
C 12.2731 7.15142 -0.00652
C 13.41907 6.40466 0.0058
C 13.53369 4.96797 -0.00865
C 12.30638 4.29559 0.00675
C 12.3523 2.82777 -0.00311
C 13.58905 2.12702 0.00742
C 13.56387 0.71836 -0.01594
C 12.26127 0.08156 0.0106
C 14.77609 32.60857 -0.01154
C 15.98543 31.98543 -0.01721
C 15.91527 30.56585 -0.02422
C 14.62694 29.78919 0.01277
C 14.75827 28.37041 0.00096
C 14.87852 17.13185 -0.01527
C 14.73795 15.66669 0.01087
C 14.73263 12.67924 0.00199
C 14.73646 11.30812 0.01511
C 12.19159 8.6025 -0.04076
C 9.85958 0.05021 -0.00316
C 13.54414 9.2132 -0.00703
C 12.25502 11.33076 -0.04422
C 13.46135 32.06114 -0.01979
C 13.41654 30.54148 0.02691
C 12.24059 29.8125 -0.01581
C 12.25386 28.42242 0.01452
C 13.44318 27.67181 0.04892
C 13.24223 26.35199 -0.00111
C 12.36118 25.37644 -0.03557
C 12.2976 23.91594 0.03754
C 12.19563 21.47572 0.01739
C 12.41418 20.05189 0.00755
C 13.61842 19.28117 -0.0054
C 13.6146 17.92069 0.00667
C 12.42143 17.05694 0.00143
C 12.38984 15.61646 -0.017
C 13.5964 14.88746 0.00364
C 13.57457 13.45403 -0.00831
C 12.3389 12.72273 -0.02957
C 13.48567 10.56586 0.00654
C 8.65503 10.71114 -0.01717
C 7.38498 11.31274 0.00244
C 7.34924 12.72919 0.02299
C 2.41929 8.5318 0.03693
C 2.42005 7.07275 0.01745
C 3.69265 6.37473 0.00488
C 3.72047 4.98541 -0.01004
C 2.45415 4.30139 -0.02896
C 2.50103 2.88278 -0.00131
C 3.65592 2.17207 -0.01118
C 3.71053 0.75564 -0.014
C 2.43898 0.09057 0.02147
C 4.87592 32.70718 0.00373
C 6.16294 31.95072 -0.00191
C 6.11035 30.54646 0.00438
C 4.93504 29.81456 0.01291
C 4.89749 28.43292 0.00093
C 6.12089 27.75831 0.00057
C 6.12241 26.3217 -0.01634
C 4.86237 25.49604 -0.00334
C 3.65564 9.22445 -0.01384
C 4.91037 24.09365 0.02339
C 3.67851 10.65983 -0.00482
C 2.34308 12.74675 0.00685
C 3.63941 30.60222 0.0127
C 2.41523 29.89009 0.01396
C 2.44426 28.41683 0.01849
C 3.64214 27.67106 -0.01142
C 3.70755 26.26607 -0.00562
C 2.42316 25.60609 -0.00494
C 2.49537 24.12949 0.00054
C 3.67687 23.42046 0.03007
C 3.59534 21.98702 -0.00095
C 2.38699 21.28846 0.01572
C 2.39956 19.84493 -0.04848
C 3.6529 19.18565 -0.00892
C 3.69768 17.77166 -0.01362
C 2.49256 17.00606 -0.0008
C 2.46033 15.58124 0.0288
C 3.72313 14.82875 0.00393
C 3.6275 13.46609 0.00895
C 2.38115 11.34148 0.02888
C 6.16383 23.42525 0.01641
C 6.0899 22.03914 -0.00719
C 4.8745 21.3111 0.01364
C 8.44268 30.58869 -0.02971
C 7.38625 29.79154 0.02894
C 7.36058 28.35603 -0.01789
C 8.57151 27.66368 0.00444
C 8.6008 26.29232 -0.00925
C 7.34237 25.52983 0.01877
C 7.30551 24.15064 0.01363
C 8.42256 23.37224 -0.02162
C 8.45809 21.97326 0.00415
C 7.31389 21.26097 -0.0014
C 7.38045 19.84999 0.02162
C 8.70467 19.21324 0.0076
C 8.71464 17.74571 0.01241
C 7.41054 17.01526 -0.01454
C 7.41245 15.57145 0.01945
C 8.63793 14.83331 0.01416
C 8.67008 13.45751 0.03542
C 8.57359 32.00481 0.00165
C 7.30111 32.78243 0.02819
C 4.89129 0.06154 -0.00891
C 6.16322 0.70946 -0.01046
C 4.88009 19.87345 -0.01062
C 6.1315 19.11838 -0.00033
C 6.14362 17.68179 0.03589
C 4.91838 16.99792 -0.02759
C 4.9175 15.5848 0.0402
C 6.19236 14.92092 0.00572
C 6.19244 13.44041 0.03592
C 4.89295 12.76533 0.00406
C 15.99872 9.33363 -0.00478
C 4.9086 11.32909 0.00943
C 6.12618 9.21917 -0.01111
C 4.85641 8.50393 -0.01275
C 4.88067 7.0972 0.00985
C 6.12304 6.44869 -0.02245
C 6.15414 5.04052 -0.00428
C 4.91752 4.27538 0.03101
C 4.92133 2.88803 -0.01536
C 6.19079 2.13328 -0.02689
C 6.12723 10.65868 0.02841
C 14.75864 8.53374 -0.01662
C 14.72174 7.10152 -0.01185
C 15.94134 6.40135 0.01126
C 31.96313 29.81371 -0.02142
C 31.95811 28.46584 0.0544
C 33.13916 27.67467 0.00026
C 33.15745 26.22526 0.00682
C 31.95075 25.58265 -0.01779
C 31.96856 24.1398 0.03794
C 33.19881 23.44232 0.01927
C 33.11969 21.95731 0.01574
C 31.84236 21.31839 -0.02383
C 31.84012 19.86282 -0.01429
C 33.14176 19.22695 -0.0136
C 33.11668 17.76991 0.00594
C 31.88177 17.06954 -0.02474
C 31.88383 15.68263 0.00369
C 33.15822 14.91132 0.00455
C 33.26321 13.48986 -0.00644
C 32.04181 12.73587 -0.01839
C 33.17232 30.57083 0.01428
C 31.94673 11.39856 0.00137
C 33.16315 31.96637 -0.01694
C 29.47772 34.04542 0.00346
C 29.38669 19.8624 -0.00669
C 30.68049 19.14548 0.0101
C 30.63154 17.73459 0.01705
C 29.31759 17.01818 -0.0405
C 29.39108 15.63489 -0.01303
C 30.65644 14.93589 -0.01461
C 30.78663 13.48199 -0.02155
C 29.72063 12.71754 -0.00944
C 30.73077 10.58558 -0.03735
C 30.64085 9.30013 -0.00971
C 29.47643 7.29207 0.01518
C 30.60786 6.46822 0.01908
C 30.69732 5.01117 0.07705
C 29.47845 4.32881 0.0103
C 29.37566 2.83914 0.02108
C 30.6771 2.13516 0.00716
C 30.64176 0.72767 0.00307
C 31.97144 32.71509 0.01713
C 33.19047 10.65974 0.00199
C 33.22558 9.17337 0.04381
C 31.87191 8.53684 0.02806
C 1.1086 17.72533 0.01223
C 34.32635 17.04101 0.00648
C 34.40555 15.61556 0.02114
C 1.18086 14.92808 -0.02957
C 1.14425 13.55865 0.00343
C 0.03304 12.80464 -0.02656
C 34.41209 11.38412 -0.02442
C 1.16004 10.62478 -0.00027
C 1.24418 9.21229 -0.00583
C 0.02753 8.52513 -0.02302
C 34.36797 7.12979 -0.02849
C 1.13798 6.37378 0.02931
C 1.19496 4.95593 0.00628
C 34.36228 4.23505 -0.0345
C 34.39151 2.78577 -0.00931
C 1.23308 2.1498 -0.00939
C 1.19131 0.76074 -0.00468
C 1.14007 19.11133 -0.01678
C 34.36278 19.8868 0.01951
C 0.01935 21.3675 -0.02213
C 1.19683 22.01026 0.02712
C 31.9469 7.0764 0.01504
C 33.21969 6.35066 -0.00069
C 33.17886 4.99588 0.04926
C 31.97638 4.27392 -0.03838
C 31.93053 2.84345 0.00349
C 33.11712 2.05483 -0.00323
C 33.16574 0.69731 -0.00841
C 31.89327 0.00255 0.0001
C 29.39123 21.2995 0.03531
C 0.03242 32.65113 -0.02927
C 1.17688 30.63674 0.01027
C 34.36338 29.88141 0.01831
C 34.40453 28.46402 -0.01037
C 1.23733 27.75737 -0.00439
C 1.16657 26.27335 -0.00598
C 34.40379 25.52722 -0.05239
C 34.40759 24.13789 0.03076
C 1.24204 23.48143 0.00723
C 1.25908 31.98492 -0.01404
C 3.64068 32.01117 0.02635
C 30.64262 22.05247 0.01836
C 29.57744 24.12695 -0.01415
C 20.80974 6.59384 -0.0276
C 20.80952 4.99424 0.03005
C 19.56851 4.3258 -0.04078
C 19.55765 2.90753 0.02117
C 20.79755 2.13471 0.02737
C 20.83719 0.66289 -0.00498
C 19.64295 0.0324 0.00135
C 22.08942 7.07111 0.03102
C 23.26389 6.34748 0.02555
C 23.33039 4.90894 0.01423
C 22.06102 4.28208 -0.00285
C 22.06213 2.82004 -0.009
C 23.2316 2.03201 -0.01199
C 23.3496 0.56198 -0.00229
C 22.00213 34.01001 -0.00938
C 26.091 23.57295 -0.0264
C 25.71284 22.36908 -0.01154
C 19.55956 7.13398 0.00768
C 25.69364 19.21435 0.00684
C 19.89029 32.68897 -0.00178
C 18.34186 0.76452 -0.02118
C 15.97817 4.94277 0.01852
C 14.75368 4.29471 -0.00381
C 14.79218 2.89985 0.03046
C 15.98139 2.03795 0.0296
C 15.94552 0.58851 0.03374
C 14.75972 33.9874 -0.02845
C 17.26064 32.61112 -0.03213
C 18.54712 31.91503 0.02239
C 18.33454 30.53362 0.01153
C 17.09506 29.82024 0.02734
C 17.09752 8.54782 -0.0055
C 17.17271 7.16535 0.01515
C 18.40853 6.39352 -0.00225
C 18.3728 4.93599 0.00071
C 17.1459 4.25154 -0.01107
C 17.14053 2.87046 -0.01586
C 18.32223 2.17285 -0.01971
C 17.18583 33.97424 0.00733
C 25.85685 17.75627 -0.01052
C 24.56281 8.42844 -0.01679
C 24.45437 7.08668 0.00367
C 28.4815 13.28522 0.01094
C 26.8829 7.08314 0.00235
C 28.18517 6.57109 0.01495
C 28.24538 5.12785 0.01259
C 27.11407 4.3478 0.01799
C 27.0339 2.97988 0.01699
C 28.23836 2.10807 -0.00416
C 28.24827 0.71139 0.01177
C 27.03523 34.05978 0.04266
C 29.3893 32.59767 0.01324
C 30.69524 31.99526 0.0014
C 30.81222 30.57163 0.00924
C 29.46325 29.89829 0.02326
C 29.50663 28.39723 0.00261
C 30.75637 27.76924 0.03265
C 30.81704 26.3857 -0.02049
C 29.55584 25.58444 -0.01854
C 28.19282 14.68472 0.02198
C 26.9301 15.46222 0.02611
C 26.90543 16.92814 -0.00621
C 28.17667 17.7384 0.00194
C 25.75023 6.33321 0.04306
C 25.81536 4.89467 0.00996
C 24.49597 4.16553 0.00195
C 24.4443 2.76198 -0.00802
C 25.78385 2.21257 -0.00218
C 25.8061 0.75551 -0.01654
C 24.66195 33.96766 -0.00037
C 26.92222 32.66487 -0.0032
C 30.74469 23.41005 -0.03039
C 28.10247 31.86326 0.00622
C 28.31647 27.56618 -0.00942
C 28.27498 26.22262 0.00487
C 27.02512 24.47808 0.00826
C 28.17249 23.54813 -0.00294
C 28.15242 22.13519 0.00152
C 26.85024 21.40656 0.01257
C 26.85722 19.9377 0.02316
C 28.15737 19.17209 0.04185
C 28.15494 30.40513 -0.02815
C 2.44771 32.74467 -0.01378
