394
Graphene
C 0.0126 0.02877 0.01295
C 11.10988 0.68214 -0.00925
C 9.78986 0.0783 0.01877
C 12.30595 32.68772 0.01363
C 13.551 31.92223 -0.02162
C 13.5701 30.5722 0.00415
C 12.32738 29.84852 -0.0014
C 12.25493 28.37229 0.02162
C 13.48041 27.65752 0.0076
C 13.50761 26.15812 0.01241
C 11.05934 2.10483 0.00444
C 12.34135 25.57602 -0.01454
C 13.53664 23.4073 0.01416
C 13.56927 22.00564 0.03542
C 12.3608 21.27879 0.02299
C 12.27566 19.95232 0.00244
C 13.54046 19.12835 -0.01717
C 13.53401 17.65616 0.05265
C 12.23035 16.98632 -0.01952
C 12.34777 15.54126 -0.02813
C 13.48993 14.87801 0.00374
C 12.26416 24.17761 0.01945
C 9.84574 2.80602 -0.01789
C 9.81051 4.30536 0.02894
C 10.98715 5.04081 -0.02971
C 11.07791 27.73808 -0.00033
C 11.08879 26.29178 0.03589
C 9.85412 25.57476 -0.02759
C 9.85417 24.1577 0.0402
C 11.04536 23.44994 0.00572
C 11.07543 22.01148 0.03592
C 9.85254 21.33662 0.00406
C 9.83721 19.96157 0.00943
C 11.03595 19.20126 0.02841
C 11.04232 17.81907 -0.01111
C 9.8496 16.99842 -0.01275
C 9.85543 15.61763 0.00985
C 11.09043 14.93701 -0.02245
C 11.13315 13.4918 -0.00428
C 9.80346 12.73173 0.03101
C 9.82278 11.37944 -0.01536
C 11.08329 10.62348 -0.02689
C 11.02615 9.22403 -0.01046
C 9.88056 8.50691 -0.00891
C 9.93312 7.11558 0.02819
C 11.08627 6.42437 0.00165
C 13.54941 13.50015 0.00052
C 9.80295 28.50406 -0.01062
C 12.28913 12.81654 -0.03682
C 13.50389 10.58653 0.02058
C 14.78562 17.00424 0.00028
C 14.78049 15.65847 -0.02213
C 15.99822 14.87531 0.03698
C 15.94713 13.47126 -0.00109
C 14.72761 12.78105 -0.00491
C 14.76484 11.31907 0.03338
C 16.04667 10.71018 -0.0258
C 15.99103 9.18284 -0.0331
C 14.75752 8.52994 -0.00316
C 16.01001 17.73619 -0.00289
C 14.79081 7.05432 0.02188
C 15.93325 4.99096 0.02691
C 14.74205 4.2384 -0.01581
C 14.77294 2.79247 0.01452
C 16.0111 2.0926 0.04892
C 15.98089 0.73193 -0.00111
C 14.70797 34.06332 -0.03557
C 17.17926 32.66964 0.03754
C 18.40624 31.96911 0.01739
C 18.40297 30.57765 0.00755
C 15.983 6.40838 -0.01979
C 16.0238 19.13544 -0.00066
C 14.76828 19.87346 0.00213
C 14.77998 21.33994 -0.05302
C 13.51944 9.25522 -0.01957
C 12.34052 8.54108 -0.0108
C 12.31699 7.11421 -0.00368
C 13.54292 6.32959 -0.02696
C 13.49889 4.92632 -0.00114
C 12.27264 4.26974 0.00228
C 12.31932 2.87526 0.00798
C 13.49005 2.13647 0.00422
C 13.48431 0.70948 0.0351
C 12.25485 0.00414 -0.03113
C 14.74767 32.63091 0.02098
C 15.93774 31.94531 0.01848
C 15.98587 30.55478 -0.00619
C 14.797 29.81789 -0.02162
C 14.71645 28.39462 0.00889
C 15.97121 27.6422 -0.00481
C 15.95173 26.24834 0.00979
C 14.76609 25.52575 0.01443
C 14.71176 24.11236 0.03505
C 16.01703 23.40937 -0.02815
C 16.04755 22.03438 -0.04147
C 12.26918 11.41535 0.01965
C 9.86729 29.81333 0.01364
C 11.06162 30.55509 -0.00719
C 11.05617 31.98373 0.01641
C 2.46112 4.30702 0.01996
C 2.48594 2.78741 -0.03996
C 3.67889 2.14907 0.01465
C 3.66285 0.72912 -0.00074
C 2.4387 34.0754 -0.00518
C 4.92338 32.65358 0.0086
C 6.15169 32.00785 -0.00643
C 6.1593 30.50746 0.017
C 4.94249 29.84495 -0.03113
C 3.68517 5.00067 -0.00279
C 4.93179 28.4183 -0.02566
C 6.0801 26.33174 0.02322
C 4.94756 25.56034 -0.00725
C 4.90067 24.10849 -0.05697
C 6.12078 23.43743 0.01087
C 6.10558 22.04717 -0.01343
C 4.94401 21.26035 0.00988
C 4.96054 19.91849 0.0276
C 6.11855 19.16316 0.01305
C 6.21235 17.73763 -0.00077
C 6.13311 27.67692 -0.00094
C 3.62256 6.38607 0.01226
C 2.41533 7.18045 0.03828
C 2.46101 8.54092 0.0174
C 3.72615 30.49871 -0.00561
C 2.44487 29.84343 0.00208
C 2.51746 28.39647 0.01707
C 3.68109 27.6658 0.02769
C 3.75702 26.24019 -0.03291
C 2.39277 25.51539 -0.04999
C 2.43999 24.20473 0.04505
C 3.63979 23.45678 0.03284
C 3.65584 22.00703 -0.04307
C 2.46929 21.32525 0.03189
C 2.45387 19.79539 0.00031
C 3.72887 19.20148 -0.003
C 3.70685 17.81177 0.01402
C 2.44945 17.09076 0.02379
C 2.44624 15.63648 0.00907
C 3.64986 14.86224 0.00643
C 3.66622 13.46849 -0.01509
C 2.49463 12.77766 0.03267
C 2.48224 11.32921 0.02374
C 3.7247 10.68653 0.00402
C 3.71295 9.2966 0.0073
C 4.8824 17.05161 0.03368
C 4.9835 15.604 -0.02929
C 6.21245 14.90196 -0.00966
C 6.16254 13.53647 -0.03337
C 7.33728 19.76808 0.02888
C 8.58708 19.14094 -0.00482
C 8.55381 17.74872 -0.01384
C 7.32083 16.97155 0.03693
C 7.3796 15.60639 0.01745
C 8.58774 14.94236 0.00488
C 8.57036 13.52961 -0.01004
C 7.39132 12.74685 -0.02896
C 7.36717 11.39971 -0.00131
C 8.59697 10.66665 -0.01118
C 8.63502 9.24204 -0.014
C 7.35717 8.51907 0.02147
C 7.39075 7.11088 0.00373
C 8.66158 6.44237 -0.00191
C 8.60715 4.98813 0.00438
C 7.3441 4.31122 0.01291
C 7.42957 2.84164 0.00093
C 8.63001 2.18433 0.00057
C 8.60832 0.76415 -0.01634
C 7.42901 0.05705 -0.00334
C 9.79124 32.75347 0.02339
C 7.34714 21.34044 0.00685
C 17.26627 29.81813 -0.0054
C 8.53964 22.02499 0.00895
C 7.38686 24.19406 0.0288
C 4.93558 12.78175 0.01227
C 4.96388 11.36216 0.00873
C 6.13959 10.69545 -0.00049
C 6.12401 9.28168 0.00848
C 4.94226 8.54141 -0.01303
C 4.86179 7.10951 -0.01378
C 6.10968 6.43719 0.02635
C 6.1375 4.95696 0.0127
C 4.93169 4.25759 0.01396
C 4.8804 2.9031 0.01849
C 6.1383 2.16211 -0.01142
C 6.19817 0.76407 -0.00562
C 4.94094 34.02313 -0.00494
C 7.38046 32.6831 0.00054
C 8.56003 31.93325 0.03007
C 8.61252 30.51957 -0.00095
C 7.3394 29.86135 0.01572
C 7.27672 28.40084 -0.04848
C 8.55648 27.70209 -0.00892
C 8.57361 26.22464 -0.01362
C 7.36086 25.63012 -0.0008
C 8.56083 23.44739 0.00393
C 17.19473 28.44145 0.00667
C 17.21653 25.45902 0.00143
C 17.20639 24.17173 -0.017
C 30.75299 6.42623 0.01908
C 30.77913 4.98399 0.07705
C 29.52737 4.30892 0.0103
C 29.50111 2.83064 0.02108
C 30.73597 2.12935 0.00716
C 30.72298 0.70072 0.00307
C 29.4468 0.0369 0.00346
C 32.01386 32.64575 0.01713
C 33.21672 31.90997 -0.01694
C 29.57836 7.07115 0.01518
C 33.19996 30.54833 0.01428
C 31.9701 28.42571 0.0544
C 33.22383 27.69797 0.00026
C 33.17758 26.27535 0.00682
C 31.95857 25.52999 -0.01779
C 31.95486 24.1548 0.03794
C 33.2578 23.46447 0.01927
C 33.22012 21.93518 0.01574
C 32.02939 21.26351 -0.02383
C 31.99037 19.89629 -0.01429
C 31.9596 29.8563 -0.02142
C 29.51916 8.47096 -0.00971
C 30.68905 9.24243 -0.03735
C 30.79793 10.60741 -0.00944
C 26.99972 2.78905 0.01177
C 28.25287 2.14727 0.04266
C 28.24696 0.67985 0.01324
C 26.99282 0.01281 0.0014
C 29.49571 32.63879 0.00924
C 30.76145 31.86242 0.02326
C 30.77364 30.50216 0.00261
C 30.75719 27.63868 0.03265
C 30.81111 26.27994 -0.02049
C 30.76645 23.37679 -0.01854
C 30.74484 22.04589 -0.01415
C 29.59559 21.25653 -0.03039
C 29.47708 19.86185 0.01836
C 30.75807 19.14042 0.03531
C 30.74911 17.74526 -0.00669
C 29.49734 17.05063 0.0101
C 29.53857 15.68576 0.01705
C 30.74692 14.92093 -0.0405
C 30.78218 13.54833 -0.01303
C 29.47284 12.81595 -0.01461
C 29.53268 11.36447 -0.02155
C 33.20585 19.17549 -0.0136
C 33.24277 17.79766 0.00594
C 32.01643 17.03366 -0.02474
C 31.9696 15.56625 0.00369
C 1.2115 22.06127 0.02712
C 0.00724 21.31445 -0.02213
C 0.03486 19.94315 0.01951
C 1.18725 19.093 -0.01678
C 1.18047 17.71915 0.01223
C 34.41571 17.0197 0.00648
C 0.05043 15.60967 0.02114
C 1.17121 14.87602 -0.02957
C 1.1792 13.4935 0.00343
C 34.42154 12.73006 -0.02656
C 34.38424 11.34775 -0.02442
C 1.21378 10.6199 -0.00027
C 1.22603 9.29487 -0.00583
C 34.43034 8.56982 -0.02302
C 34.42674 7.09955 -0.02849
C 1.21472 6.36109 0.02931
C 1.17507 4.92136 0.00628
C 34.368 4.25202 -0.0345
C 0.01471 2.8411 -0.00931
C 1.28694 2.08608 -0.00939
C 1.25368 0.70077 -0.00468
C 1.18727 23.49311 0.00723
C 27.05939 4.27185 -0.00416
C 34.41825 24.21765 0.03076
C 1.21066 26.28219 -0.00598
C 33.1904 14.88618 0.00455
C 33.21823 13.50925 -0.00644
C 31.98611 12.78275 -0.01839
C 31.986 11.35188 0.00137
C 33.16222 10.61633 0.00199
C 33.17077 9.22152 0.04381
C 31.94931 8.5473 0.02806
C 31.95116 7.18517 0.01504
C 33.19926 6.344 -0.00069
C 33.19614 4.93931 0.04926
C 31.92021 4.26059 -0.03838
C 31.97613 2.86936 0.00349
C 33.24098 2.12252 -0.00323
C 33.13744 0.63925 -0.00841
C 31.93094 34.06332 0.0001
C 0.0178 32.66589 -0.02927
C 1.21283 31.90755 -0.01404
C 1.20033 30.54637 0.01027
C 0.02537 29.78468 0.01831
C 0.02671 28.39627 -0.01037
C 1.27537 27.70111 -0.00439
C 34.39942 25.57338 -0.05239
C 3.69528 31.8901 -0.01977
C 28.26885 4.95108 0.01699
C 27.03027 7.09841 0.01259
C 20.91074 17.75543 -0.01662
C 19.71442 17.01794 -0.01185
C 19.68589 15.65186 0.01126
C 20.8266 14.88474 0.01852
C 20.83624 13.4566 -0.00381
C 19.67365 12.70691 0.03046
C 19.64492 11.35617 0.0296
C 20.93945 10.62353 0.03374
C 20.93707 9.211 -0.02845
C 20.77487 19.19241 -0.00478
C 19.61535 8.47039 -0.03213
C 20.94542 6.38154 0.01153
C 20.88767 4.94272 0.02734
C 19.68976 4.20246 -0.0055
C 19.70398 2.79003 0.01515
C 20.9365 2.12924 -0.00225
C 20.8845 0.72049 0.00071
C 19.70015 33.99484 -0.01107
C 23.32843 19.12832 -0.01586
C 23.34134 17.80795 -0.01971
C 19.72963 7.05904 0.02239
C 19.77189 19.81743 0.01511
C 19.64805 32.61733 0.00199
C 17.21795 34.06225 0.01087
C 18.46042 22.05596 0.00364
C 17.26 21.30402 -0.00831
C 17.25407 19.89715 -0.02957
C 18.41706 19.18325 -0.04422
C 18.44922 17.77814 0.00654
C 17.25773 17.02065 -0.00703
C 17.29121 15.62278 -0.04076
C 18.50486 14.95005 -0.00652
C 18.45703 13.52428 0.0058
C 17.25028 12.70805 -0.00865
C 17.22086 11.36471 0.00675
C 18.47169 10.66863 -0.00311
C 18.42095 9.28527 0.00742
C 17.19889 8.49746 -0.01594
C 17.23037 7.11077 0.0106
C 18.4252 6.42303 -0.01154
C 18.42996 4.95949 -0.01721
C 17.23075 4.28582 -0.02422
C 17.19409 2.8964 0.01277
C 18.42511 2.08868 0.00096
C 18.4623 0.74284 -0.01527
C 22.15537 17.03416 -0.02118
C 22.16189 15.5922 0.00733
C 23.29331 14.8619 -0.00178
C 23.38459 13.50704 0.00768
C 25.81225 6.37804 -0.00218
C 25.9618 5.0245 -0.01654
C 24.57447 4.28774 -0.00037
C 24.60463 2.83016 -0.0032
C 25.82004 2.10093 0.00622
C 25.71854 0.69415 -0.02815
C 24.52737 0.01825 -0.00942
C 27.05725 32.62143 0.00487
C 28.18301 31.99042 0.00826
C 27.0278 19.8279 -0.00294
C 28.18983 19.13011 0.00152
C 28.26818 17.74574 0.01257
C 27.01617 17.04687 0.02316
C 27.02095 15.58405 0.04185
C 28.25779 14.94151 0.00194
C 28.2728 13.51166 -0.00621
C 27.05443 12.76658 0.02611
C 27.04965 11.36702 0.02198
C 28.31693 10.56503 0.01094
C 28.31024 9.20784 0.00235
C 27.03406 8.50162 0.01495
C 24.59869 7.10867 -0.00802
C 28.36998 6.45771 0.01799
C 24.60098 8.53962 0.00195
C 25.78797 10.61275 0.04306
C 22.11778 12.77163 -0.0276
C 22.11676 11.40444 0.03005
C 23.29877 10.67437 -0.04078
C 23.36721 9.22552 0.02117
C 22.19304 8.56467 0.02737
C 22.19168 7.13496 -0.00498
C 23.36294 6.40976 0.00135
C 23.33488 4.91268 0.03102
C 22.11257 4.28261 0.02555
C 22.14771 2.84209 0.01423
C 23.33868 2.11562 -0.00285
C 23.32736 0.6566 -0.009
C 22.12931 34.04529 -0.01199
C 25.80359 19.20073 -0.00229
C 25.83849 17.77467 -0.00938
C 24.61857 17.02846 -0.0264
C 24.59545 15.68561 -0.01154
C 25.8607 14.9344 0.00684
C 25.78803 13.47529 -0.01052
C 24.61372 12.73953 -0.01679
C 24.58801 11.37249 0.00367
C 25.82573 9.28244 0.00996
C 2.46702 32.62852 0.02784
