433
Graphene
C 0.03028 34.01835 0.01295
C 13.46681 22.10319 0.01364
C 12.27202 21.28955 -0.01062
C 12.28848 19.87471 -0.00033
C 13.5216 19.11034 0.03589
C 13.46123 17.68048 -0.02759
C 12.21573 17.00937 0.0402
C 12.22805 15.64797 0.00572
C 13.54381 14.89983 0.03592
C 13.56312 13.48554 0.00406
C 12.28383 12.86167 0.00943
C 12.32134 11.44142 0.02841
C 13.54645 10.69479 -0.01111
C 13.55017 9.14034 -0.01275
C 12.29831 8.4962 0.00985
C 12.2758 7.10894 -0.02245
C 13.55408 6.43262 -0.00428
C 13.56338 5.01593 0.03101
C 12.25985 4.34259 -0.01536
C 12.21573 2.91653 -0.02689
C 13.49545 2.14594 -0.01046
C 13.43404 0.6937 -0.00891
C 12.20015 0.11369 0.02819
C 14.69719 32.5698 0.00165
C 13.46879 23.47028 -0.00719
C 15.92706 31.95553 -0.02971
C 12.24823 24.19285 0.01641
C 13.42859 26.37763 -0.00334
C 9.77993 17.10333 0.0288
C 9.86092 15.67278 0.00393
C 11.00376 14.87717 0.00895
C 11.05258 13.5039 0.00685
C 9.81184 12.83778 0.02888
C 9.84661 11.40514 -0.00482
C 11.13306 10.69276 -0.01384
C 11.09598 9.1769 0.03693
C 9.80035 8.58141 0.01745
C 9.78866 7.14799 0.00488
C 10.99253 6.47395 -0.01004
C 10.96877 5.01294 -0.02896
C 9.7496 4.24342 -0.00131
C 9.72425 2.92246 -0.01118
C 11.02493 2.20332 -0.014
C 10.94059 0.77873 0.02147
C 9.69306 0.00532 0.00373
C 12.28883 32.64127 -0.00191
C 13.46241 31.94848 0.00438
C 13.57214 30.53892 0.01291
C 12.3077 29.94952 0.00093
C 12.2803 28.52492 0.00057
C 13.47438 27.78086 -0.01634
C 12.2765 25.62154 0.02339
C 11.06352 17.69114 -0.0008
C 15.96825 30.55328 0.02894
C 14.72214 28.40188 0.00444
C 17.19441 32.75657 -0.02696
C 18.36063 31.98392 -0.00114
C 18.43903 30.53731 0.00228
C 17.17925 29.84585 0.00798
C 17.17667 28.38407 0.00422
C 18.33898 27.72605 0.0351
C 18.50014 26.32074 -0.03113
C 17.22727 25.55102 0.02098
C 17.22325 24.15183 0.01848
C 18.43026 23.49471 -0.00619
C 18.34943 22.03562 -0.02162
C 17.1915 21.26728 0.00889
C 17.24497 19.8488 -0.00481
C 18.49971 19.14477 0.00979
C 18.38484 17.72787 0.01443
C 17.17199 17.05087 0.03505
C 17.10896 15.63831 -0.02815
C 18.30679 14.9273 -0.04147
C 18.43002 13.52173 -0.05302
C 17.25821 12.75163 0.00213
C 17.22871 11.30356 -0.00066
C 18.46904 10.6639 -0.00289
C 18.44649 9.29331 0.00028
C 14.73815 34.05084 -0.00368
C 14.74585 29.7848 -0.01789
C 16.02975 0.70843 -0.0108
C 14.7035 2.85043 0.02058
C 15.93406 27.71553 -0.00925
C 15.97258 26.26522 0.01877
C 14.6914 25.61667 0.01363
C 14.67086 24.23096 -0.02162
C 16.00713 23.42555 0.00415
C 15.96201 22.00878 -0.0014
C 14.73926 21.29873 0.02162
C 14.6844 19.89021 0.0076
C 15.96628 19.19656 0.01241
C 15.9048 17.81906 -0.01454
C 14.7608 17.04987 0.01945
C 14.78971 15.63078 0.01416
C 15.97392 14.862 0.03542
C 15.96254 13.44927 0.02299
C 14.76319 12.75098 0.00244
C 14.79778 11.31677 -0.01717
C 15.96252 10.58493 0.05265
C 15.95217 9.18963 -0.01952
C 14.74581 8.48775 -0.02813
C 14.78822 7.08885 0.00374
C 16.03581 6.35695 0.00052
C 15.95992 4.93799 -0.03682
C 14.78036 4.18818 0.01965
C 15.94631 2.14918 -0.01957
C 11.07789 19.17245 -0.01362
C 9.79195 19.94252 -0.00892
C 9.82173 21.35925 -0.04848
C 3.691 2.13389 -0.01386
C 3.70578 0.70949 -0.02805
C 2.49897 34.01529 0.00081
C 4.95409 32.65163 0.00245
C 6.15064 32.00257 0.02728
C 6.11768 30.51894 -0.00039
C 4.91069 29.89271 0.0064
C 4.87823 28.44899 0.00211
C 6.15037 27.76893 -0.00449
C 6.08679 26.32928 -0.01979
C 4.94089 25.54071 0.02784
C 5.02065 24.15013 -0.01977
C 6.19065 23.4102 -0.00561
C 6.21187 21.94992 0.00208
C 4.90727 21.26496 0.01707
C 4.88739 19.85636 0.02769
C 6.05306 19.20475 -0.03291
C 6.078 17.82997 -0.04999
C 4.81683 17.07805 0.04505
C 4.82847 15.64045 0.03284
C 6.03858 14.89074 -0.04307
C 6.0908 13.48931 0.03189
C 4.77725 12.82365 0.00031
C 2.52478 2.81224 -0.0059
C 4.80536 11.40418 -0.003
C 2.42623 4.24469 0.00558
C 3.73003 6.37065 0.00828
C 3.70696 30.51888 -0.00012
C 2.50944 29.81686 -0.04306
C 2.49366 28.38237 -0.03672
C 3.70807 27.65904 0.01913
C 3.65997 26.22105 0.00267
C 2.43674 25.51313 0.00787
C 2.56748 24.1147 0.02426
C 3.7493 23.40636 0.01218
C 3.68653 22.04164 -0.01471
C 2.39718 21.3171 -0.02827
C 2.34406 19.95758 0.01078
C 3.57625 19.27466 -0.00112
C 3.5837 17.78187 0.03345
C 2.32883 17.02587 0.00748
C 2.31945 15.61064 0.00662
C 3.5676 14.93504 -0.0154
C 3.56883 13.55286 -0.01299
C 2.27585 12.78182 -0.00407
C 2.37424 11.3185 0.01138
C 3.63531 10.67569 0.03278
C 3.64562 9.23817 -0.00177
C 2.41673 8.5216 0.04421
C 2.49348 7.11099 0.00088
C 3.67899 5.01093 -0.02375
C 6.08288 10.79428 0.01402
C 6.13261 9.30078 0.02379
C 4.85254 8.60937 0.00907
C 7.33308 11.40103 0.01305
C 8.55781 10.66075 -0.00077
C 8.59864 9.31095 0.03368
C 7.41147 8.6409 -0.02929
C 7.42706 7.16382 -0.00966
C 8.67259 6.39146 -0.03337
C 8.61186 5.00153 0.01227
C 7.33048 4.30659 0.00873
C 7.34488 2.99851 -0.00049
C 8.50042 2.20151 0.00848
C 8.51242 0.78018 -0.01303
C 7.27743 0.04843 -0.01378
C 9.73636 32.67572 0.02635
C 11.01865 32.00288 0.0127
C 11.03864 30.62669 0.01396
C 9.79692 29.89624 0.01849
C 9.751 28.48793 -0.01142
C 11.05084 27.85255 -0.00562
C 11.04938 26.40899 -0.00494
C 9.78126 25.64903 0.00054
C 9.86868 24.21109 0.03007
C 11.07827 23.42902 -0.00095
C 11.04443 22.0123 0.01572
C 7.33107 12.74718 0.0276
C 8.6232 13.52413 0.00988
C 8.56645 14.99602 -0.01343
C 7.29813 15.66328 0.01087
C 4.92018 7.22678 0.00643
C 6.19873 6.50446 -0.01509
C 6.16264 5.12835 0.03267
C 4.83687 4.2931 0.02374
C 4.89028 2.89496 0.00402
C 6.10127 2.19307 0.0073
C 6.08378 0.75527 0.0174
C 4.88897 0.00121 0.03828
C 7.30913 32.75336 0.01226
C 8.56944 31.99782 -0.00279
C 8.54677 30.58359 0.01996
C 17.23009 8.57357 -0.02213
C 7.33659 29.8827 -0.03996
C 8.64065 27.73959 -0.00074
C 8.6169 26.34762 -0.00518
C 7.36169 25.6569 0.0086
C 7.35911 24.24345 -0.00643
C 8.54402 23.46547 0.017
C 8.61166 22.11387 -0.03113
C 7.46077 21.30194 -0.02566
C 7.38151 19.85525 -0.00094
C 8.60254 19.21075 0.02322
C 8.53289 17.8139 -0.00725
C 7.28402 17.07127 -0.05697
C 7.39828 28.39998 0.01465
C 3.70246 32.01379 -0.00198
C 17.20147 7.07668 0.03698
C 18.40942 4.95882 -0.00491
C 30.58172 13.423 -0.01303
C 29.29726 12.7488 -0.01461
C 29.43385 11.29775 -0.02155
C 30.66228 10.64408 -0.00944
C 30.66827 9.15657 -0.03735
C 29.43132 8.40943 -0.00971
C 29.50876 7.00813 0.01518
C 30.71935 6.2476 0.01908
C 30.72496 4.83835 0.07705
C 29.53806 4.18939 0.0103
C 29.54584 2.81164 0.02108
C 30.81125 2.10201 0.00716
C 30.73299 0.64188 0.00307
C 29.524 34.03187 0.00346
C 31.97737 32.57557 0.01713
C 33.16159 31.88766 -0.01694
C 33.11387 30.47443 0.01428
C 31.89606 29.727 -0.02142
C 31.92844 28.37103 0.0544
C 33.1839 27.65495 0.00026
C 33.20673 26.23338 0.00682
C 31.98481 25.53627 -0.01779
C 31.97228 24.08395 0.03794
C 30.6719 14.87187 -0.0405
C 33.18772 23.48361 0.01927
C 29.433 15.57626 0.01705
C 30.59778 17.79439 -0.00669
C 26.97676 8.49294 0.02611
C 27.08048 7.08839 0.02198
C 28.25869 6.32049 0.01094
C 28.26253 4.90751 0.00235
C 27.03203 4.18697 0.01495
C 27.05445 2.69432 0.01259
C 28.30904 2.13033 0.01799
C 28.29576 0.69884 0.01699
C 26.94404 0.02953 -0.00416
C 29.56695 32.58338 0.01177
C 30.69808 31.87752 0.04266
C 30.64908 30.41133 0.01324
C 29.27011 29.73348 0.0014
C 29.44412 28.22874 0.00924
C 30.72615 27.70306 0.02326
C 30.72262 26.25353 0.00261
C 29.46995 25.69079 0.03265
C 29.53536 24.30108 -0.02049
C 30.78271 23.52178 -0.01854
C 30.79528 22.08288 -0.01415
C 29.48773 21.38092 -0.03039
C 29.42613 19.95665 0.01836
C 30.67312 19.20434 0.03531
C 29.48795 16.96734 0.0101
C 28.2377 9.14136 -0.00621
C 33.2069 22.05846 0.01574
C 31.92419 19.85603 -0.01429
C 34.43149 24.13681 0.03076
C 1.21443 23.41638 0.00723
C 1.18634 22.00118 0.02712
C 34.40119 21.33693 -0.02213
C 34.39365 19.90531 0.01951
C 1.12907 19.15111 -0.01678
C 1.13384 17.7929 0.01223
C 34.3379 17.0442 0.00648
C 34.28926 15.53825 0.02114
C 1.0888 14.87336 -0.02957
C 1.0532 13.47089 0.00343
C 34.28108 12.79195 -0.02656
C 34.293 11.2697 -0.02442
C 1.13994 10.56159 -0.00027
C 1.11763 9.14046 -0.00583
C 34.38281 8.45521 -0.02302
C 34.32149 7.08559 -0.02849
C 1.17741 6.36355 0.02931
C 1.15136 4.93988 0.00628
C 34.39844 4.24569 -0.0345
C 34.37778 2.79813 -0.00931
C 1.24943 2.0692 -0.00939
C 1.24289 0.63833 -0.00468
C 0.0249 25.57367 -0.05239
C 31.95406 21.30021 -0.02383
C 1.2321 26.24963 -0.00598
C 34.40971 28.35715 -0.01037
C 33.17803 19.21194 -0.0136
C 33.17308 17.81105 0.00594
C 31.89079 17.08491 -0.02474
C 31.83654 15.73201 0.00369
C 33.02597 14.86682 0.00455
C 32.99655 13.46742 -0.00644
C 31.87461 12.70718 -0.01839
C 31.94912 11.2977 0.00137
C 33.13938 10.52877 0.00199
C 33.16189 9.11001 0.04381
C 31.85174 8.45755 0.02806
C 31.92351 7.02288 0.01504
C 33.12345 6.31211 -0.00069
C 33.17448 4.92869 0.04926
C 32.00879 4.14101 -0.03838
C 32.01741 2.68634 0.00349
C 33.23192 1.99337 -0.00323
C 33.21889 0.63353 -0.00841
C 31.98807 33.98234 0.0001
C 0.00287 32.59441 -0.02927
C 1.25851 31.86597 -0.01404
C 1.25639 30.48809 0.01027
C 0.00287 29.78785 0.01831
C 1.22979 27.70798 -0.00439
C 28.19034 10.54788 0.00194
C 26.95189 11.29084 0.04185
C 26.98681 12.74499 0.02316
C 20.87711 9.16754 0.0058
C 19.64131 8.53583 -0.00865
C 19.57099 7.1203 0.00675
C 20.8428 6.39107 -0.00311
C 20.85784 4.9808 0.00742
C 19.63928 4.32411 -0.01594
C 19.62344 2.92087 0.0106
C 20.87228 2.15332 -0.01154
C 20.85053 0.71513 -0.01721
C 19.59643 34.06792 -0.02422
C 22.0482 32.66822 0.01277
C 23.06924 31.68341 0.00096
C 22.3714 30.36916 -0.01527
C 22.2737 25.56003 0.01087
C 22.14729 24.15817 0.00199
C 23.4243 23.46652 0.01511
C 23.32931 21.98369 -0.00478
C 22.11865 21.35829 -0.01662
C 22.20891 19.9788 -0.01185
C 23.35706 19.24053 0.01126
C 23.3175 17.77449 0.01852
C 21.95711 17.08028 -0.00381
C 22.0936 15.67984 0.03046
C 20.79393 10.56244 -0.00652
C 23.3109 14.95662 0.0296
C 19.68851 11.39722 -0.04076
C 20.87518 13.47434 0.00654
C 17.19681 4.25968 0.03338
C 17.15987 2.87561 -0.0258
C 18.41158 2.22491 -0.0331
C 18.48747 0.79663 -0.00316
C 17.24275 0.04863 0.02188
C 19.59456 32.67455 -0.01979
C 20.76576 32.01761 0.02691
C 20.95938 30.64993 -0.01581
C 19.65934 29.91217 0.01452
C 19.67205 28.45184 0.04892
C 20.86246 27.81782 -0.00111
C 21.0507 26.29732 -0.03557
C 19.80264 25.58253 0.03754
C 19.681 24.18719 0.01739
C 20.91512 23.48155 0.00755
C 20.85291 22.02763 -0.0054
C 19.59584 21.31518 0.00667
C 19.68398 19.89463 0.00143
C 20.9597 19.28347 -0.017
C 20.88372 17.85985 0.00364
C 19.66832 17.09609 -0.00831
C 19.59947 15.6479 -0.02957
C 20.81581 14.90928 -0.04422
C 19.62629 12.8667 -0.00703
C 23.36432 13.49413 0.03374
C 22.06279 12.87598 -0.02845
C 22.09441 11.39467 -0.03213
C 24.50567 8.49907 -0.00938
C 24.64369 7.11466 -0.0264
C 25.82135 6.33744 -0.01154
C 25.81717 4.98177 0.00684
C 24.56541 4.23766 -0.01052
C 24.59614 2.81133 -0.01679
C 25.80411 2.03046 0.00367
C 25.72861 0.63189 0.04306
C 24.53086 33.97066 0.00996
C 27.05042 32.59598 0.00195
C 28.27498 31.92864 -0.00802
C 28.0309 30.56241 -0.00218
C 27.21714 24.24696 -0.01654
C 28.33362 23.52662 -0.00037
C 28.31416 22.08479 -0.0032
C 27.03664 21.40559 0.00622
C 27.03964 19.9373 -0.02815
C 28.18953 19.16932 -0.00942
C 28.22876 17.68915 0.00487
C 26.98115 17.04705 0.00826
C 26.97669 15.59011 -0.00294
C 28.21309 14.90887 0.00152
C 28.09528 13.51314 0.01257
C 25.77465 9.22226 -0.00229
C 25.69191 10.64392 -0.01199
C 24.52797 11.38135 -0.009
C 24.55565 12.77634 -0.00285
C 23.33489 10.63337 0.02239
C 23.24717 9.2442 0.01153
C 22.09756 8.5179 0.02734
C 22.12392 7.15951 -0.0055
C 23.33775 6.35663 0.01515
C 23.33328 4.93815 -0.00225
C 22.09633 4.1704 0.00071
C 22.10789 2.8576 -0.01107
C 23.37308 2.12998 -0.01586
C 23.36273 0.60356 -0.01971
C 22.10866 0.01217 -0.02118
C 18.41109 6.39807 -0.00109
C 24.4765 32.39496 0.00733
C 24.59687 24.23403 0.00768
C 25.8461 23.6824 -0.0276
C 25.82302 22.17287 0.03005
C 24.63405 21.39486 -0.04078
C 24.66434 19.90221 0.02117
C 25.81681 19.22575 0.02737
C 25.73008 17.75846 -0.00498
C 24.50984 17.08314 0.00135
C 24.59593 15.70659 0.03102
C 25.78705 14.91606 0.02555
C 25.72809 13.47188 0.01423
C 25.78102 31.88098 -0.00178
C 2.45209 32.62113 0.00535
