308
Graphene
C 34.41898 0.02133 0.01295
C 12.1906 15.6101 0.02188
C 13.28685 14.94113 -0.01979
C 13.54955 13.72838 0.02691
C 12.3393 12.72942 -0.01581
C 12.33429 11.35306 0.01452
C 12.3149 8.67662 0.04892
C 12.4235 7.2576 -0.00111
C 13.306 6.2268 -0.03557
C 13.68581 4.94842 0.03754
C 12.37017 4.2429 0.01739
C 12.34402 2.83633 0.00755
C 13.52965 2.03756 -0.0054
C 13.59845 0.6351 0.00667
C 12.34074 33.97607 0.00143
C 14.6593 32.55161 -0.017
C 12.08705 17.03565 -0.00316
C 16.03771 31.75501 0.00364
C 13.47867 17.17574 -0.0331
C 9.82957 33.93722 0.03338
C 9.775 15.73873 -0.00481
C 10.97665 14.97196 0.00979
C 11.07404 13.45511 0.01443
C 9.8442 12.82865 0.03505
C 9.85915 11.42347 -0.02815
C 11.1469 10.64669 -0.04147
C 11.07322 9.21877 -0.05302
C 9.82617 8.55329 0.00213
C 9.9017 7.1606 -0.00066
C 11.11776 6.4506 -0.00289
C 11.11451 4.96846 0.00028
C 9.86007 4.16772 -0.02213
C 9.85978 2.70374 0.03698
C 11.0625 1.96634 -0.00109
C 11.00959 0.58725 -0.00491
C 12.64196 32.61632 -0.0258
C 16.43004 18.90135 -0.00831
C 15.80504 17.79247 -0.02957
C 14.74956 17.0927 -0.04422
C 19.57167 32.62971 -0.00478
C 20.82598 31.99105 -0.01662
C 20.9142 30.56563 -0.01185
C 19.56173 29.90236 0.01126
C 19.60912 28.51888 0.01852
C 20.82253 27.72625 -0.00381
C 20.75499 26.30802 0.03046
C 19.5557 25.57919 0.0296
C 19.54609 24.22175 0.03374
C 20.89062 23.53733 -0.02845
C 20.98524 22.11533 -0.03213
C 19.78343 21.49419 0.02239
C 19.7208 20.13278 0.01153
C 20.91192 19.23488 0.02734
C 20.40598 2.16374 -0.0055
C 17.25784 34.04405 0.01511
C 18.44599 0.59707 0.00199
C 18.77709 2.04087 0.01087
C 17.60258 2.53077 -0.01527
C 14.92879 4.17471 0.00654
C 14.81324 2.77638 -0.00703
C 16.11263 2.02524 -0.04076
C 16.05733 0.60892 -0.00652
C 14.81507 33.96437 0.0058
C 17.19512 32.62368 -0.00865
C 18.39544 31.9339 0.00675
C 9.75051 17.17761 0.00889
C 18.23282 30.53162 -0.00311
C 18.39734 27.75495 -0.01594
C 18.38577 26.51478 0.0106
C 18.28314 23.57518 -0.01154
C 18.58433 22.15396 -0.01721
C 17.4934 21.27154 -0.02422
C 17.27024 19.9836 0.01277
C 18.63034 19.46987 0.00096
C 16.94958 29.95561 0.00742
C 20.80288 0.7833 0.01515
C 10.9911 17.83922 -0.02162
C 7.39765 34.00985 0.01848
C 3.65197 10.61774 0.00406
C 3.61893 9.19361 0.00943
C 2.39401 8.48784 0.02841
C 2.38687 7.08455 -0.01111
C 3.65321 6.33607 -0.01275
C 3.59342 4.95471 0.00985
C 2.35516 4.25711 -0.02245
C 2.38375 2.86667 -0.00428
C 3.68544 2.11533 0.03101
C 3.69487 0.64311 -0.01536
C 2.36331 34.06437 -0.02689
C 5.07409 32.43412 -0.01046
C 6.42566 31.82004 -0.00891
C 5.89846 30.41922 0.02819
C 4.86265 29.77465 0.00165
C 2.42161 11.35467 0.03592
C 4.93262 21.35414 -0.02971
C 2.49007 12.89721 0.00572
C 3.66058 14.92825 -0.02759
C 3.54378 30.43904 0.00373
C 2.3127 29.7291 -0.00191
C 2.36356 28.37277 0.00438
C 3.63689 27.62716 0.01291
C 3.47215 26.39902 0.00093
C 2.36714 25.57437 0.00057
C 2.36393 24.09144 -0.01634
C 3.5983 23.53891 -0.00334
C 3.7682 22.1543 0.02339
C 2.54257 21.40042 0.01641
C 2.54259 20.04112 -0.00719
C 3.78278 19.26138 0.01364
C 3.71072 17.8488 -0.01062
C 2.49075 17.13161 -0.00033
C 2.45163 15.67928 0.03589
C 3.64924 13.55956 0.0402
C 5.05278 19.9927 0.02894
C 6.22229 19.15702 -0.01789
C 6.06802 17.70908 0.00444
C 7.39822 15.68199 0.00052
C 8.602 15.03062 -0.03682
C 8.66901 13.57563 0.01965
C 7.34447 12.80425 0.02058
C 7.3951 11.35916 -0.01957
C 8.65707 10.74192 -0.0108
C 8.62078 9.22077 -0.00368
C 7.40496 8.50532 -0.02696
C 7.30474 7.09499 -0.00114
C 8.64231 6.45882 0.00228
C 8.55554 5.02525 0.00798
C 7.32411 4.29933 0.00422
C 7.36732 2.78582 0.0351
C 8.6049 2.05432 -0.03113
C 8.58006 0.65852 0.02098
C 7.28124 17.06404 0.00374
C 8.5166 17.82809 -0.02813
C 7.63765 32.62845 -0.01952
C 4.93849 33.94421 0.05265
C 4.89119 17.0534 -0.00925
C 4.8518 15.63868 0.01877
C 6.07001 14.95259 0.01363
C 6.07588 13.52716 -0.02162
C 4.89011 12.86857 0.00415
C 4.90788 11.42406 -0.0014
C 6.16286 10.64539 0.02162
C 9.53677 32.7043 -0.00619
C 6.17783 9.26412 0.0076
C 4.89217 7.07852 -0.01454
C 6.1274 6.36843 0.01945
C 6.03404 4.98643 0.01416
C 4.83085 4.23658 0.03542
C 4.91385 2.72226 0.02299
C 6.17735 2.07583 0.00244
C 6.1014 0.66766 -0.01717
C 4.86475 8.44565 0.01241
C 19.64077 34.00769 -0.00225
C 22.02736 32.65685 0.00071
C 23.3223 32.00392 -0.01107
C 33.13364 23.43302 0.01927
C 33.12589 22.06804 0.01574
C 31.92499 21.29681 -0.02383
C 31.94661 19.89078 -0.01429
C 33.12817 19.20533 -0.0136
C 33.13407 17.78129 0.00594
C 31.90564 17.10728 -0.02474
C 32.01677 15.74162 0.00369
C 33.17983 15.006 0.00455
C 33.16561 13.57243 -0.00644
C 31.93921 12.8598 -0.01839
C 32.03289 11.41018 0.00137
C 33.2414 10.66079 0.00199
C 33.06498 9.24909 0.04381
C 31.82917 8.57016 0.02806
C 31.90137 24.13984 0.03794
C 31.81951 7.10138 0.01504
C 31.95459 25.57301 -0.01779
C 33.14299 27.64873 0.00026
C 30.69684 9.25038 -0.03735
C 29.45963 8.5245 -0.00971
C 29.36544 7.286 0.01518
C 30.64755 6.40778 0.01908
C 30.5936 4.9871 0.07705
C 29.39103 4.27163 0.0103
C 29.34495 2.7566 0.02108
C 30.64972 2.15243 0.00716
C 30.7267 0.77207 0.00307
C 29.49649 0.05524 0.00346
C 31.92885 32.70589 0.01713
C 33.12811 31.94241 -0.01694
C 33.19271 30.56984 0.01428
C 31.9957 29.84284 -0.02142
C 31.96105 28.41567 0.0544
C 33.21163 26.27213 0.00682
C 33.03729 6.43756 -0.00069
C 33.10537 5.03939 0.04926
C 31.8664 4.32895 -0.03838
C 34.42376 15.69818 0.02114
C 1.20451 14.97862 -0.02957
C 1.27337 13.57145 0.00343
C 34.41929 12.92173 -0.02656
C 34.39364 11.46674 -0.02442
C 1.1292 10.7129 -0.00027
C 1.12095 9.25431 -0.00583
C 34.31717 8.55074 -0.02302
C 34.28898 7.13313 -0.02849
C 1.1068 6.42862 0.02931
C 1.11399 5.01389 0.00628
C 34.30889 4.34092 -0.0345
C 34.34197 2.85227 -0.00931
C 1.14088 2.14722 -0.00939
C 1.16658 0.76466 -0.00468
C 34.37498 17.09857 0.00648
C 1.24657 17.80639 0.01223
C 1.27183 19.25725 -0.01678
C 34.39661 19.94685 0.01951
C 31.82214 2.86988 0.00349
C 33.07245 2.16714 -0.00323
C 33.18884 0.72736 -0.00841
C 31.95714 34.02066 0.0001
C 34.40533 32.61957 -0.02927
C 1.27032 31.92889 -0.01404
C 1.17338 30.54229 0.01027
C 30.74213 10.75451 -0.00944
C 34.40788 29.85976 0.01831
C 1.16832 27.7264 -0.00439
C 1.18706 26.30903 -0.00598
C 0.01599 25.58691 -0.05239
C 34.38072 24.12962 0.03076
C 1.10954 23.41028 0.00723
C 1.24886 22.0114 0.02712
C 34.41043 21.37431 -0.02213
C 34.32901 28.36096 -0.01037
C 29.41613 11.42388 -0.02155
C 29.68899 12.74359 -0.01461
C 30.6966 13.5989 -0.01303
C 25.80968 27.64734 -0.00938
C 25.85799 26.2613 -0.0264
C 24.56947 25.56537 -0.01154
C 24.54223 24.14558 0.00684
C 25.78303 23.48974 -0.01052
C 25.76488 22.07301 -0.01679
C 24.53452 21.44512 0.00367
C 24.47287 20.04071 0.04306
C 25.75183 19.31126 0.00996
C 25.73804 17.89297 0.00195
C 24.38218 2.7348 -0.00802
C 25.73671 2.00341 -0.00218
C 25.73076 0.66519 -0.01654
C 24.51314 34.07837 -0.00037
C 27.01587 32.65978 -0.0032
C 24.62908 28.35732 -0.00229
C 24.54487 29.80883 -0.01199
C 25.75638 30.56541 -0.009
C 25.7723 31.97616 -0.00285
C 23.31881 30.49915 -0.01586
C 22.10266 29.81707 -0.01971
C 22.08576 28.41968 -0.02118
C 23.28825 27.67825 0.00733
C 23.33119 26.32124 -0.00178
C 22.08269 25.65041 0.00768
C 22.06715 24.25189 -0.0276
C 28.27499 31.95535 0.00622
C 23.27291 23.47092 0.03005
C 22.06695 21.28399 0.02117
C 22.14903 19.86452 0.02737
C 23.35339 19.20784 -0.00498
C 23.39094 2.117 0.00135
C 23.15366 0.67363 0.03102
C 21.99033 0.00193 0.02555
C 24.57148 32.64258 0.01423
C 23.26201 22.00301 -0.04078
C 3.7332 31.89198 0.02147
C 28.22544 30.53463 -0.02815
C 27.05652 28.36214 0.00487
C 29.48118 29.86472 0.0014
C 29.52031 28.38352 0.00924
C 30.74817 27.70783 0.02326
C 30.74174 26.26937 0.00261
C 29.4719 25.6003 0.03265
C 29.5094 24.16247 -0.02049
C 30.68799 23.35504 -0.01854
C 30.70871 21.94898 -0.01415
C 29.44747 21.32211 -0.03039
C 29.41156 19.80226 0.01836
C 30.67439 19.13727 0.03531
C 30.59691 17.76912 -0.00669
C 29.45954 17.02259 0.0101
C 29.40591 15.58192 0.01705
C 30.68526 15.02359 -0.0405
C 30.77543 30.52883 0.01324
C 30.67544 31.99414 0.04266
C 29.52123 32.64801 0.01177
C 26.97124 0.042 -0.00416
C 28.31981 27.66898 0.00826
C 28.25416 26.29071 -0.00294
C 27.02029 25.63296 0.00152
C 26.99871 24.16922 0.01257
C 28.32821 23.46171 0.02316
C 28.27414 22.07941 0.04185
C 27.03977 21.34099 0.00194
C 26.964 29.77414 -0.00942
C 27.00558 19.91434 -0.00621
C 28.20252 17.72889 0.02198
C 26.85729 17.22633 0.01094
C 28.12287 4.9217 0.00235
C 27.10006 4.17613 0.01495
C 26.90416 2.80522 0.01259
C 28.18448 2.07525 0.01799
C 28.27007 0.68156 0.01699
C 28.11691 19.11575 0.02611
C 2.47398 32.61664 -0.014
