367
Graphene
C 34.32697 0.09241 0.01295
C 10.83451 0.89392 -0.02813
C 9.74052 0.15447 0.00374
C 12.13905 19.95021 0.00052
C 13.38407 19.37841 -0.03682
C 13.30637 17.90209 0.01965
C 12.1545 17.10132 0.02058
C 12.28588 15.69065 -0.01957
C 13.51207 14.91542 -0.0108
C 13.50132 13.51764 -0.00368
C 12.31806 12.78352 -0.02696
C 12.33292 11.35209 -0.00114
C 13.4996 10.59895 0.00228
C 13.56132 9.17888 0.00798
C 12.2933 8.57337 0.00422
C 12.30886 7.0056 0.0351
C 13.53475 6.38675 -0.03113
C 13.54853 4.87853 0.02098
C 12.2808 4.17293 0.01848
C 12.21044 2.80775 -0.00619
C 10.9924 2.20639 -0.01952
C 13.33786 1.91555 -0.02162
C 9.74761 2.88456 0.05265
C 11.0626 4.90552 0.00244
C 8.48369 0.79547 0.00165
C 7.29203 0.07639 -0.02971
C 9.95492 32.86586 0.02894
C 11.39307 32.59556 -0.01789
C 9.93724 21.26386 0.00444
C 9.8562 19.86847 -0.00925
C 11.00103 19.13208 0.01877
C 10.92517 17.75544 0.01363
C 9.81361 17.03826 -0.02162
C 9.85652 15.68304 0.00415
C 11.10753 14.86985 -0.0014
C 11.05717 13.54564 0.02162
C 9.86653 12.82209 0.0076
C 9.81813 11.42552 0.01241
C 11.05182 10.66393 -0.01454
C 11.08304 9.2604 0.01945
C 9.80577 8.46838 0.01416
C 9.82408 7.13157 0.03542
C 11.11364 6.3427 0.02299
C 9.74217 4.29162 -0.01717
C 8.4936 2.18285 0.02819
C 13.29081 0.39352 0.00889
C 14.68048 20.04029 0.00979
C 17.16414 15.5604 -0.00111
C 17.23782 12.91697 -0.03557
C 17.44522 11.50687 0.03754
C 18.52971 10.60058 0.01739
C 18.55561 9.21195 0.00755
C 17.28562 8.49868 -0.0054
C 17.24836 7.01206 0.00667
C 18.39153 6.18511 0.00143
C 18.29226 4.83025 -0.017
C 17.06873 4.09554 0.00364
C 17.08665 2.66837 -0.00831
C 18.36632 2.02158 -0.02957
C 18.37225 0.6495 -0.04422
C 17.22577 33.91013 0.00654
C 19.51976 32.63318 -0.00703
C 20.62879 31.74934 -0.04076
C 20.76184 30.30628 -0.00652
C 20.92582 23.36352 0.0058
C 21.12813 22.03534 -0.00865
C 17.03904 16.8951 0.04892
C 12.06157 0.01943 -0.00481
C 18.0221 17.91145 0.01452
C 17.14736 19.6777 0.02691
C 15.84785 19.08219 0.01443
C 15.79796 17.70515 0.03505
C 14.50173 17.07733 -0.02815
C 14.65849 15.64645 -0.04147
C 15.9197 14.95688 -0.05302
C 15.92072 13.4889 0.00213
C 14.68433 12.72279 -0.00066
C 14.71411 11.30645 -0.00289
C 16.05602 10.70032 0.00028
C 16.10011 9.282 -0.02213
C 14.82532 8.56726 0.03698
C 14.83099 7.16311 -0.00109
C 16.05847 6.32591 -0.00491
C 15.90894 4.81981 0.03338
C 14.7065 4.04524 -0.0258
C 14.60158 2.61852 -0.0331
C 15.82071 1.95103 -0.00316
C 15.89029 0.41869 0.02188
C 14.62256 33.93594 -0.01979
C 18.42312 19.15902 -0.01581
C 19.97677 21.35317 0.00675
C 7.26136 2.87287 -0.00891
C 8.53682 5.06864 -0.02689
C 3.64282 6.48063 0.00873
C 3.6288 4.99847 -0.00049
C 2.39552 4.31843 0.00848
C 2.36297 2.94623 -0.01303
C 3.57265 2.23158 -0.01378
C 3.6653 0.74562 0.02635
C 2.38173 0.06944 0.0127
C 4.88701 32.76215 0.01396
C 6.19343 32.10302 0.01849
C 6.15328 30.63194 -0.01142
C 4.88645 29.93621 -0.00562
C 4.87073 28.50787 -0.00494
C 6.13358 27.77377 0.00054
C 6.14512 26.41654 0.03007
C 4.91751 25.64241 -0.00095
C 4.89053 24.18265 0.01572
C 6.1767 23.44351 -0.04848
C 6.24527 22.01319 -0.00892
C 4.97914 21.33292 -0.01362
C 2.48669 7.20863 0.01227
C 4.89965 19.99852 -0.0008
C 2.47062 8.56949 -0.03337
C 3.61218 10.73189 -0.02929
C 3.62626 30.58001 0.01465
C 2.41781 29.93796 -0.00074
C 2.37174 28.52952 -0.00518
C 3.61976 27.8369 0.0086
C 3.74495 26.37972 -0.00643
C 2.53469 25.58614 0.017
C 2.5109 24.22633 -0.03113
C 3.71533 23.44516 -0.02566
C 3.79514 22.04282 -0.00094
C 2.47405 21.41001 0.02322
C 2.47029 19.97081 -0.00725
C 3.65603 19.23868 -0.05697
C 3.71564 17.81376 0.01087
C 2.46735 17.04651 -0.01343
C 2.4633 15.65821 0.00988
C 3.71417 14.96271 0.0276
C 3.65867 13.48425 0.01305
C 2.39332 12.84174 -0.00077
C 2.38903 11.40742 0.03368
C 3.64654 9.30916 -0.00966
C 7.27993 4.31438 -0.01046
C 6.1607 19.30025 0.0288
C 4.94937 17.16834 0.00895
C 7.46307 25.56522 -0.00719
C 7.38733 24.1314 0.01364
C 8.61092 23.50418 -0.01062
C 8.84768 22.11629 -0.00033
C 7.47882 21.29245 0.03589
C 7.4936 19.91271 -0.02759
C 8.61071 19.15568 0.0402
C 8.58463 17.73136 0.00572
C 7.35493 17.07556 0.03592
C 7.45541 15.73166 0.00406
C 8.67782 14.98849 0.00943
C 8.65558 13.52275 0.02841
C 7.41514 12.81308 -0.01111
C 7.3128 11.46216 -0.01275
C 8.59958 10.68266 0.00985
C 8.61267 9.25804 -0.02245
C 7.35376 8.60392 -0.00428
C 7.36553 7.12393 0.03101
C 8.61252 6.45462 -0.01536
C 8.57406 26.42743 0.01641
C 6.10248 17.85743 0.00393
C 8.56309 27.66527 0.02339
C 7.37602 29.97324 -0.01634
C 4.95374 15.70876 0.00685
C 6.19283 14.94138 0.02888
C 6.1623 13.56662 -0.00482
C 4.92323 12.7446 -0.01384
C 4.93056 11.41088 0.03693
C 6.08496 10.65541 0.01745
C 6.25825 9.30347 0.00488
C 4.93025 8.6168 -0.01004
C 4.84291 7.23726 -0.02896
C 6.11386 6.53174 -0.00131
C 6.07978 5.03438 -0.01118
C 4.8251 4.41092 -0.014
C 4.8035 2.9582 0.02147
C 6.04542 2.19923 0.00373
C 6.0569 0.77318 -0.00191
C 4.85692 0.07519 0.00438
C 7.45373 32.74974 0.01291
C 8.78393 32.05384 0.00093
C 8.62862 30.60441 0.00057
C 7.38331 28.57736 -0.00334
C 3.66876 31.97755 -0.03996
C 19.64381 19.93915 -0.00311
C 19.49178 8.26976 -0.01594
C 30.53283 0.74466 0.00307
C 29.35432 0.04637 0.00346
C 31.87258 32.75644 0.01713
C 33.07411 32.008 -0.01694
C 33.10982 30.58801 0.01428
C 31.92989 29.86557 -0.02142
C 31.92394 28.47782 0.0544
C 33.13687 27.79117 0.00026
C 33.19244 26.28182 0.00682
C 31.9951 25.66024 -0.01779
C 31.90693 24.19874 0.03794
C 33.1301 23.52407 0.01927
C 33.21365 22.07032 0.01574
C 32.06781 21.2919 -0.02383
C 31.96777 19.91846 -0.01429
C 33.18349 19.20682 -0.0136
C 33.28159 17.80698 0.00594
C 32.0971 17.1001 -0.02474
C 32.02888 15.5811 0.00369
C 30.64715 2.09819 0.00716
C 33.16676 14.87147 0.00455
C 29.39242 2.87706 0.02108
C 30.63182 4.99486 0.07705
C 29.5332 25.54457 0.03265
C 29.53422 24.05381 -0.02049
C 30.75694 23.38597 -0.01854
C 30.8093 21.97787 -0.01415
C 29.63595 21.30301 -0.03039
C 29.54489 19.85885 0.01836
C 30.76148 19.20152 0.03531
C 30.78584 17.7599 -0.00669
C 29.5426 17.00572 0.0101
C 29.48709 15.59309 0.01705
C 30.74628 14.89756 -0.0405
C 30.75308 13.48785 -0.01303
C 29.46953 12.76108 -0.01461
C 29.44697 11.35263 -0.02155
C 30.71429 10.63231 -0.00944
C 30.79476 9.2298 -0.03735
C 29.51497 8.46758 -0.00971
C 29.5133 7.05937 0.01518
C 30.71838 6.36253 0.01908
C 29.35223 4.27248 0.0103
C 30.703 26.31315 0.00261
C 33.20176 13.43698 -0.00644
C 31.87308 11.35918 0.00137
C 34.42884 19.90039 0.01951
C 1.21226 19.20066 -0.01678
C 1.18636 17.77186 0.01223
C 0.05407 17.08401 0.00648
C 34.36416 15.65832 0.02114
C 1.18009 14.9293 -0.02957
C 1.15432 13.52974 0.00343
C 34.34198 12.69193 -0.02656
C 34.35894 11.36153 -0.02442
C 1.17971 10.64768 -0.00027
C 1.26101 9.28633 -0.00583
C 0.03087 8.51345 -0.02302
C 34.36263 7.12397 -0.02849
C 1.16256 6.44693 0.02931
C 1.09388 5.09096 0.00628
C 34.36928 4.32404 -0.0345
C 0.00449 2.8765 -0.00931
C 1.17576 2.16849 -0.00939
C 1.14756 0.70288 -0.00468
C 0.01605 21.37083 -0.02213
C 31.99131 12.79522 -0.01839
C 1.23961 22.1311 0.02712
C 34.36476 24.20898 0.03076
C 33.18965 10.6559 0.00199
C 33.28357 9.2612 0.04381
C 32.053 8.54957 0.02806
C 31.95812 7.17969 0.01504
C 33.13696 6.41985 -0.00069
C 33.12772 4.94386 0.04926
C 31.90488 4.24664 -0.03838
C 31.89886 2.91455 0.00349
C 33.15788 2.26216 -0.00323
C 33.08764 0.82331 -0.00841
C 31.84908 0.06929 0.0001
C 34.30269 32.72668 -0.02927
C 1.10254 32.09902 -0.01404
C 1.16643 30.62756 0.01027
C 34.35976 29.8523 0.01831
C 34.40833 28.43744 -0.01037
C 1.23729 27.69243 -0.00439
C 1.2836 26.2693 -0.00598
C 34.42255 25.60586 -0.05239
C 1.21615 23.54154 0.00723
C 20.9084 19.41108 0.00742
C 30.65363 27.70172 0.02326
C 29.48404 29.87563 0.0014
C 21.90487 7.30507 0.02734
C 23.17315 6.5648 -0.0055
C 23.15066 4.9793 0.01515
C 22.01428 4.22269 -0.00225
C 22.00672 2.88399 0.00071
C 23.22159 2.07508 -0.01107
C 23.19974 0.64082 -0.01586
C 21.95458 33.95643 -0.01971
C 24.44573 32.53202 -0.02118
C 25.61247 31.90635 0.00733
C 25.67473 30.51777 -0.00178
C 24.54867 29.76553 0.00768
C 24.59403 28.31933 -0.0276
C 25.76867 27.61116 0.03005
C 25.83311 26.16451 -0.04078
C 24.68222 25.43177 0.02117
C 24.63302 23.95377 0.02737
C 25.84343 23.31456 -0.00498
C 25.8516 21.93365 0.00135
C 21.25322 8.64422 0.01153
C 24.69413 21.20431 0.03102
C 23.41009 18.93475 0.02239
C 22.38121 21.24811 -0.02845
C 19.6248 6.9296 0.0106
C 20.85006 6.27988 -0.01154
C 20.79305 4.81454 -0.01721
C 19.52649 4.1811 -0.02422
C 19.57023 2.77029 0.01277
C 20.80719 2.09653 0.00096
C 20.80968 0.62736 -0.01527
C 19.60482 34.03385 0.01087
C 22.00347 32.49661 0.00199
C 23.18757 31.75248 0.01511
C 23.20754 30.33038 -0.00478
C 21.93053 29.48938 -0.01662
C 22.0862 28.10022 -0.01185
C 23.41828 27.54004 0.01126
C 23.42721 26.17267 0.01852
C 22.27344 25.52696 -0.00381
C 21.98936 24.16294 0.03046
C 23.36261 23.34297 0.0296
C 23.5068 22.00017 0.03374
C 22.2608 19.80653 -0.03213
C 29.49773 28.45643 0.00924
C 24.59223 19.80292 0.02555
C 26.09681 17.68624 -0.00285
C 28.29265 19.12844 -0.00294
C 28.40089 17.6914 0.00152
C 27.18179 17.00061 0.01257
C 28.30711 14.91562 0.02316
C 28.38542 13.63913 0.04185
C 28.26788 10.54828 0.00194
C 28.23626 9.20637 -0.00621
C 26.98995 8.62314 0.02611
C 26.91394 7.13847 0.02198
C 28.17396 6.41739 0.01094
C 28.16261 4.98939 0.00235
C 26.92401 4.24832 0.01495
C 26.91333 2.82595 0.01259
C 28.18064 2.1229 0.01799
C 28.17861 0.75737 0.01699
C 26.87259 34.07914 -0.00416
C 29.40648 32.67905 0.01177
C 30.66762 32.05448 0.04266
C 30.63097 30.62513 0.01324
C 27.0392 19.80235 0.00826
C 25.75523 19.07048 0.01423
C 27.11923 21.26224 0.00487
C 28.32177 23.31589 -0.02815
C 25.65581 9.18636 -0.009
C 24.67403 8.63232 -0.01199
C 24.395 7.1534 -0.00229
C 25.68462 6.4865 -0.00938
C 25.59938 5.06724 -0.0264
C 24.46851 4.25445 -0.01154
C 24.41135 2.83449 0.00684
C 25.67466 2.12536 -0.01052
C 25.68066 0.65382 -0.01679
C 24.37013 33.99406 0.00367
C 26.8933 32.66439 0.04306
C 28.12004 31.9787 0.00996
C 28.14499 30.5336 0.00195
C 26.91998 29.76016 -0.00802
C 27.01552 28.28157 -0.00218
C 28.30985 27.64345 -0.01654
C 28.29714 26.19778 -0.00037
C 27.12887 25.47434 -0.0032
C 27.04032 24.02872 0.00622
C 28.31032 21.91875 -0.00942
C 2.42189 32.76612 0.01996
