416
Graphene
C 0.01243 0.02468 0.01295
C 12.33407 28.3837 -0.01111
C 13.48705 27.77087 -0.01275
C 13.53075 26.31986 0.00985
C 12.32211 25.55312 -0.02245
C 12.33642 24.19688 -0.00428
C 13.53208 23.4422 0.03101
C 13.46391 21.9613 -0.01536
C 12.25081 21.2806 -0.02689
C 12.28252 19.77507 -0.01046
C 13.54782 19.13165 -0.00891
C 12.34355 29.85666 0.02841
C 13.57866 17.70218 0.02819
C 12.33091 15.62463 -0.02971
C 13.56518 14.89867 0.02894
C 13.48426 13.56872 -0.01789
C 12.30635 12.74557 0.00444
C 12.29387 11.28596 -0.00925
C 13.4709 10.59791 0.01877
C 13.59308 9.1477 0.01363
C 12.25011 8.48988 -0.02162
C 12.25504 7.13407 0.00415
C 13.52574 6.36391 -0.0014
C 12.28201 17.09581 0.00165
C 13.45496 5.03173 0.02162
C 13.54888 30.56893 0.00943
C 12.31017 32.70629 0.03592
C 11.08797 22.04526 -0.00131
C 9.87197 21.31227 -0.01118
C 9.82827 19.89926 -0.014
C 11.07791 19.16886 0.02147
C 11.09644 17.79149 0.00373
C 9.85988 17.1424 -0.00191
C 9.82337 15.64876 0.00438
C 11.05847 14.98119 0.01291
C 11.09617 13.43154 0.00093
C 9.86628 12.76791 0.00057
C 13.53712 31.98895 0.00406
C 9.92169 11.34987 -0.01634
C 11.04996 9.18105 0.02339
C 9.83805 8.56371 0.01641
C 9.85354 7.08095 -0.00719
C 11.00453 6.38782 0.01364
C 11.09734 4.97782 -0.01062
C 9.91203 4.28291 -0.00033
C 9.83289 2.87336 0.03589
C 11.08453 2.15483 -0.02759
C 11.02431 0.80642 0.0402
C 9.81543 0.03082 0.00572
C 11.063 10.58972 -0.00334
C 11.05478 23.43081 -0.02896
C 12.30637 4.30627 0.0076
C 13.52995 2.09071 -0.01454
C 14.72427 7.10667 -0.00619
C 15.96776 6.42879 -0.02162
C 16.0025 4.96139 0.00889
C 14.79229 4.33382 -0.00481
C 14.7562 2.80468 0.00979
C 16.00522 2.13777 0.01443
C 15.98118 0.70157 0.03505
C 14.78221 34.0294 -0.02815
C 17.17305 32.68342 -0.04147
C 18.41788 31.94178 -0.05302
C 14.78269 8.46466 0.01848
C 18.45882 30.49689 0.00213
C 17.20123 28.43168 -0.00289
C 18.43015 27.6891 0.00028
C 18.4145 26.2838 -0.02213
C 17.1579 25.60322 0.03698
C 17.20244 24.16076 -0.00109
C 18.42519 23.42568 -0.00491
C 18.48042 21.96723 0.03338
C 17.23308 21.29283 -0.0258
C 17.22031 19.90366 -0.0331
C 18.43198 19.21927 -0.00316
C 17.25085 29.83294 -0.00066
C 12.30001 2.84549 0.01241
C 15.99573 9.16478 0.02098
C 14.72557 11.31364 0.0351
C 13.52136 0.70152 0.01945
C 12.32365 0.05597 0.01416
C 14.7298 32.65521 0.03542
C 15.97306 31.96048 0.02299
C 15.9553 30.54802 0.00244
C 14.75756 29.80561 -0.01717
C 14.71175 28.40186 0.05265
C 15.97647 27.6962 -0.01952
C 16.01157 26.24506 -0.02813
C 14.72458 25.53821 0.00374
C 15.97828 10.57395 -0.03113
C 14.71085 24.11634 0.00052
C 16.00298 21.98894 0.01965
C 14.71041 21.2652 0.02058
C 14.7855 19.85493 -0.01957
C 16.03652 19.18661 -0.0108
C 15.96829 17.79967 -0.00368
C 14.7925 16.98422 -0.02696
C 14.7362 15.61344 -0.00114
C 15.97736 14.93202 0.00228
C 15.98561 13.53212 0.00798
C 14.74859 12.73525 0.00422
C 15.96745 23.44514 -0.03682
C 18.41446 17.78396 0.02188
C 9.78059 24.15153 -0.01004
C 11.05559 26.26713 0.01745
C 2.48972 2.88767 -0.03291
C 3.71958 2.07138 -0.04999
C 3.70592 0.72257 0.04505
C 2.47159 0.00652 0.03284
C 4.90118 32.66222 -0.04307
C 6.07373 32.00211 0.03189
C 6.16163 30.55469 0.00031
C 4.91309 29.80467 -0.003
C 4.87837 28.40763 0.01402
C 6.0982 27.74842 0.02379
C 2.5101 4.22854 0.02769
C 6.2129 26.31957 0.00907
C 4.8876 24.13049 -0.01509
C 6.22002 23.40216 0.03267
C 6.17241 22.00507 0.02374
C 4.8865 21.28915 0.00402
C 4.89576 19.96879 0.0073
C 6.14063 19.17688 0.0174
C 6.18399 17.72226 0.03828
C 4.90341 17.06254 0.01226
C 4.94889 15.62176 -0.00279
C 6.11432 14.88075 0.01996
C 4.97456 25.55189 0.00643
C 6.07257 13.44061 -0.03996
C 3.68315 5.05217 0.01707
C 2.40953 7.12335 -0.00561
C 3.6857 30.54821 -0.00407
C 2.50682 29.84531 0.01138
C 2.47663 28.30783 0.03278
C 3.7305 27.68948 -0.00177
C 3.72136 26.30861 0.04421
C 2.46254 25.60167 0.00088
C 2.43951 24.15232 0.00828
C 3.6387 23.39083 -0.02375
C 3.68265 21.98915 0.00558
C 2.49448 21.31578 -0.0059
C 3.69863 6.37856 0.00208
C 2.46883 19.9047 -0.01386
C 3.70049 17.81088 0.00081
C 2.43299 17.03995 0.00245
C 2.51135 15.61247 0.02728
C 3.73284 14.90739 -0.00039
C 3.70078 13.51867 0.0064
C 2.42437 12.67069 0.00211
C 2.45133 11.31989 -0.00449
C 3.65191 10.63871 -0.01979
C 3.62336 9.16558 0.02784
C 2.43836 8.502 -0.01977
C 3.68116 19.19402 -0.02805
C 9.81712 25.58362 0.00488
C 4.9413 12.71237 0.01465
C 6.14242 10.6844 -0.00518
C 7.37597 15.64997 0.0127
C 8.64307 14.93774 0.01396
C 8.60948 13.49176 0.01849
C 7.40115 12.78853 -0.01142
C 7.41959 11.39036 -0.00562
C 8.60987 10.64239 -0.00494
C 8.58057 9.26092 0.00054
C 7.42416 8.50147 0.03007
C 7.38747 7.14122 -0.00095
C 8.59599 6.4282 0.01572
C 7.42616 17.09021 0.02635
C 8.54961 5.05308 -0.04848
C 7.33555 2.87832 -0.01362
C 8.60671 2.16833 -0.0008
C 8.54931 0.72388 0.0288
C 7.38009 0.0473 0.00393
C 9.85766 32.65963 0.00895
C 11.08502 31.94573 0.00685
C 11.04112 30.56586 0.02888
C 9.7977 29.87275 -0.00482
C 9.84324 28.4094 -0.01384
C 11.01162 27.67253 0.03693
C 7.32573 4.29849 -0.00892
C 4.91379 11.32043 -0.00074
C 8.64224 17.76719 -0.01378
C 7.32648 19.93496 0.00848
C 6.14578 9.25421 0.0086
C 4.96229 8.58246 -0.00643
C 4.94223 7.06973 0.017
C 6.14799 6.40596 -0.03113
C 6.09767 4.96576 -0.02566
C 4.9187 4.26307 -0.00094
C 4.88872 2.86754 0.02322
C 6.05936 2.12252 -0.00725
C 6.09554 0.71591 -0.05697
C 4.88958 34.0269 0.01087
C 8.61772 19.23476 -0.01303
C 7.31913 32.66338 -0.01343
C 8.60319 30.58891 0.0276
C 7.37438 29.80783 0.01305
C 7.36251 28.41566 -0.00077
C 8.59578 27.72289 0.03368
C 8.64907 26.27927 -0.02929
C 7.40939 25.61948 -0.00966
C 7.35319 24.13341 -0.03337
C 8.58537 23.44208 0.01227
C 8.61838 22.01883 0.00873
C 7.3359 21.36024 -0.00049
C 8.64034 31.96826 0.00988
C 17.24075 17.00616 -0.01979
C 17.27456 15.60591 0.02691
C 18.43766 14.93186 -0.01581
C 29.52346 19.87289 -0.00944
C 30.78404 19.21548 -0.03735
C 30.71393 14.88632 -0.00971
C 30.73557 13.47931 0.01518
C 29.47355 12.83625 0.01908
C 30.80464 10.71681 0.07705
C 30.72506 4.85479 0.0103
C 29.57244 2.81047 0.02108
C 30.74671 2.14327 0.00716
C 30.73463 0.73526 0.00307
C 29.53771 21.2553 -0.02155
C 29.46458 0.01937 0.00346
C 33.25265 31.89554 -0.01694
C 33.16046 30.47687 0.01428
C 31.94372 29.83421 -0.02142
C 31.94582 28.36974 0.0544
C 33.17055 27.73177 0.00026
C 33.17401 26.28446 0.00682
C 31.97407 25.50466 -0.01779
C 32.01801 24.12414 0.03794
C 33.21732 23.45509 0.01927
C 33.27243 21.99611 0.01574
C 31.95625 32.57703 0.01713
C 32.00524 21.32473 -0.02383
C 30.79053 21.99006 -0.01461
C 29.50204 24.12283 -0.0405
C 28.30154 23.40391 0.01495
C 28.29016 22.01952 0.01259
C 27.04427 21.31493 0.01799
C 27.07166 19.94601 0.01699
C 28.26414 19.15166 -0.00416
C 28.28633 17.81413 0.01177
C 27.03488 17.06823 0.04266
C 27.07847 15.62593 0.01324
C 28.26936 14.85699 0.0014
C 28.36783 13.53574 0.00924
C 30.78626 23.42888 -0.01303
C 27.0309 2.75583 0.02326
C 28.2709 0.71251 0.03265
C 27.05412 34.07443 -0.02049
C 29.53637 32.71725 -0.01854
C 30.6929 31.88237 -0.01415
C 30.71743 30.50834 -0.03039
C 29.51532 29.80519 0.01836
C 29.58229 28.39152 0.03531
C 30.69533 27.63855 -0.00669
C 30.68227 26.26569 0.0101
C 29.50223 25.51099 0.01705
C 28.24204 2.14346 0.00261
C 27.05904 24.08086 0.00235
C 31.9738 19.94494 -0.01429
C 33.18708 17.79438 0.00594
C 1.22343 23.44345 0.00723
C 1.21769 22.00924 0.02712
C 34.39067 21.27009 -0.02213
C 34.37581 19.89543 0.01951
C 1.24453 19.19688 -0.01678
C 1.26101 17.70092 0.01223
C 0.00331 17.01748 0.00648
C 34.38592 15.65128 0.02114
C 1.23739 14.94312 -0.02957
C 1.21989 13.54493 0.00343
C 34.40094 24.16611 0.03076
C 34.41387 12.76895 -0.02656
C 1.22085 10.70178 -0.00027
C 1.2344 9.24372 -0.00583
C 0.01036 8.52349 -0.02302
C 34.40411 7.07254 -0.02849
C 1.19674 6.36432 0.02931
C 1.21183 4.96845 0.00628
C 34.4125 4.30875 -0.0345
C 0.01003 2.77109 -0.00931
C 1.25438 2.10895 -0.00939
C 1.19502 0.69998 -0.00468
C 34.41038 11.3768 -0.02442
C 33.24682 19.19031 -0.0136
C 34.35742 25.52275 -0.05239
C 1.20706 27.67415 -0.00439
C 32.00855 17.06558 -0.02474
C 31.94369 15.56541 0.00369
C 33.18867 14.90488 0.00455
C 33.23755 13.43946 -0.00644
C 31.99182 12.77926 -0.01839
C 31.98546 11.36221 0.00137
C 33.17733 10.62285 0.00199
C 33.19947 9.17765 0.04381
C 31.96344 8.44552 0.02806
C 31.92338 7.1349 0.01504
C 1.23325 26.26425 -0.00598
C 33.22703 6.36197 -0.00069
C 31.94181 4.31438 -0.03838
C 31.90582 2.84917 0.00349
C 33.12429 2.09889 -0.00323
C 33.19899 0.62884 -0.00841
C 31.92792 34.07585 0.0001
C 0.04217 32.64566 -0.02927
C 1.24955 31.94203 -0.01404
C 1.14023 30.53468 0.01027
C 34.36279 29.7624 0.01831
C 0.01592 28.39091 -0.01037
C 33.21301 4.95699 0.04926
C 27.10944 25.5043 0.01094
C 28.32938 26.22312 0.02198
C 28.32995 27.67896 0.02611
C 19.65742 19.89556 -0.01154
C 20.91167 19.10148 -0.01721
C 20.85132 17.71169 -0.02422
C 19.63939 17.05102 0.01277
C 19.71428 15.55395 0.00096
C 20.95657 14.85321 -0.01527
C 20.88384 13.43473 0.01087
C 19.66731 12.75824 0.00199
C 19.67619 11.35749 0.01511
C 20.93398 10.61553 -0.00478
C 19.72507 21.30199 0.0106
C 20.84046 9.22024 -0.01662
C 19.712 7.09841 0.01126
C 20.92731 6.36329 0.01852
C 20.99815 4.98583 -0.00381
C 19.71871 4.28987 0.03046
C 19.69534 2.87938 0.0296
C 20.92668 2.04148 0.03374
C 20.88634 0.70047 -0.02845
C 19.69035 0.01494 -0.03213
C 22.11331 32.74822 0.02239
C 23.34136 31.95091 0.01153
C 19.69145 8.52976 -0.01185
C 23.31096 30.55111 0.02734
C 20.9026 21.98253 -0.01594
C 19.70765 24.15695 -0.00311
C 18.42868 13.55149 0.01452
C 17.21811 12.7442 0.04892
C 17.25242 11.39926 -0.00111
C 18.48533 10.64054 -0.03557
C 18.49787 9.20342 0.03754
C 17.16113 8.47578 0.01739
C 17.23845 7.11464 0.00755
C 18.44033 6.35993 -0.0054
C 18.58687 5.01235 0.00667
C 17.20018 4.28876 0.00143
C 20.91477 23.40972 0.00742
C 17.23543 2.83202 -0.017
C 18.36956 0.73707 -0.00831
C 17.14781 0.03016 -0.02957
C 19.62733 32.66234 -0.04422
C 20.87368 31.96599 0.00654
C 20.92048 30.48637 -0.00703
C 19.59881 29.77413 -0.04076
C 19.69082 28.40435 -0.00652
C 20.87766 27.70288 0.0058
C 20.8716 26.23957 -0.00865
C 19.64217 25.58297 0.00675
C 18.45406 2.15737 0.00364
C 22.113 29.79098 -0.0055
C 22.117 28.40513 0.01515
C 23.37022 27.62703 -0.00225
C 24.63459 25.55468 -0.01679
C 24.58424 24.12521 0.00367
C 25.83126 23.44025 0.04306
C 25.90613 22.09144 0.00996
C 24.6088 21.31129 0.00195
C 24.55321 19.83605 -0.00802
C 25.81546 19.16118 -0.00218
C 25.81373 17.79265 -0.01654
C 24.55262 17.06716 -0.00037
C 24.60273 15.60554 -0.0032
C 25.89056 26.28509 -0.01052
C 25.85979 14.90561 0.00622
C 24.63033 12.82257 -0.00942
C 24.53785 2.74798 0.00487
C 25.80746 2.19578 0.00826
C 25.81837 0.70896 -0.00294
C 24.56499 34.05759 0.00152
C 27.0218 32.62123 0.01257
C 28.28092 31.91747 0.02316
C 28.26954 30.50272 0.04185
C 27.07408 29.81521 0.00194
C 27.08413 28.3801 -0.00621
C 25.76324 13.5156 -0.02815
C 25.8712 27.72115 0.00684
C 24.56554 28.40609 -0.01154
C 24.59977 29.80309 -0.0264
C 23.3648 26.29436 0.00071
C 22.13944 25.6057 -0.01107
C 22.15325 24.1086 -0.01586
C 23.35339 23.38986 -0.01971
C 23.43325 22.01064 -0.02118
C 22.10637 21.33593 0.00733
C 22.13201 19.87945 -0.00178
C 23.35875 19.20617 0.00768
C 23.35548 17.74289 -0.0276
C 22.13145 16.97836 0.03005
C 22.07755 15.57884 -0.04078
C 23.41611 14.91037 0.02117
C 23.37283 13.47695 0.02737
C 22.10675 12.80842 -0.00498
C 22.12406 11.38893 0.00135
C 22.09257 4.22607 0.03102
C 22.14205 2.81734 0.02555
C 23.31144 2.05267 0.01423
C 23.34331 0.68705 -0.00285
C 22.12931 0.05046 -0.009
C 24.61315 32.69318 -0.01199
C 25.80164 31.87108 -0.00229
C 25.86683 30.53308 -0.00938
C 3.67007 32.00198 -0.01299
C 2.43755 32.66169 -0.0154
