362
Graphene
C 34.38189 0.10108 0.01295
C 9.79808 4.29995 0.01965
C 9.83521 2.84474 0.02058
C 10.97197 2.08713 -0.01957
C 11.01064 0.71897 -0.0108
C 9.78761 0.02887 -0.00368
C 12.29944 32.61253 -0.02696
C 13.57449 31.97882 -0.00114
C 13.55885 30.56064 0.00228
C 11.05041 5.02528 -0.03682
C 12.27931 29.90696 0.00798
C 13.48805 27.71015 0.0351
C 13.43425 26.2293 -0.03113
C 12.18842 25.55008 0.02098
C 12.21866 23.89667 0.01848
C 13.52949 23.37457 -0.00619
C 12.26713 15.66836 -0.02162
C 13.52472 15.31742 0.00889
C 13.5527 13.59709 -0.00481
C 12.20699 28.53684 0.00422
C 11.08692 6.34612 0.00052
C 9.84491 7.09774 0.00374
C 9.76587 8.60958 -0.02813
C 8.58594 0.76428 0.00444
C 7.38342 0.03447 -0.00925
C 9.78268 32.68948 0.01877
C 11.05451 31.98756 0.01363
C 11.05964 30.56988 -0.02162
C 9.79936 29.89662 0.00415
C 9.80888 28.49737 -0.0014
C 11.04195 27.79914 0.02162
C 11.04103 26.31484 0.0076
C 9.80435 25.61157 0.01241
C 9.85805 24.17251 -0.01454
C 10.96297 23.34886 0.01945
C 9.8862 15.65814 0.01416
C 11.11351 15.03946 0.03542
C 11.1277 13.58757 0.02299
C 9.85929 12.80266 0.00244
C 9.8441 11.38667 -0.01717
C 11.0496 10.64947 0.05265
C 11.05491 9.24591 -0.01952
C 12.29187 12.84006 0.00979
C 8.65181 2.21412 -0.01789
C 12.31545 11.32873 0.01443
C 13.54163 9.16351 -0.02815
C 15.88405 14.88677 0.01739
C 15.916 13.34614 0.00755
C 14.68188 12.67757 -0.0054
C 14.67987 11.37239 0.00667
C 16.00543 10.69764 0.00143
C 15.93384 9.26733 -0.017
C 14.78049 8.51469 0.00364
C 14.73847 7.09734 -0.00831
C 14.86464 16.00177 0.03754
C 15.8974 6.33245 -0.02957
C 14.69743 4.18765 0.00654
C 14.71132 2.70101 -0.00703
C 15.96861 2.09136 -0.04076
C 15.98806 0.68974 -0.00652
C 14.70241 0.00807 0.0058
C 17.19763 32.59111 -0.00865
C 18.43214 31.85994 0.00675
C 18.4032 30.46771 -0.00311
C 15.87273 4.8737 -0.04422
C 15.54766 17.11647 -0.03557
C 15.68568 18.59094 -0.00111
C 15.80267 22.09982 0.04892
C 12.30361 8.42568 -0.04147
C 12.31043 7.02221 -0.05302
C 13.52568 6.3115 0.00213
C 13.48302 4.88229 -0.00066
C 12.24753 4.28666 -0.00289
C 12.24362 2.79897 0.00028
C 13.483 2.12146 -0.02213
C 13.47724 0.70021 0.03698
C 12.23225 34.02063 -0.00109
C 14.77732 32.69452 -0.00491
C 15.94861 31.88147 0.03338
C 15.97793 30.4434 -0.0258
C 14.72136 29.77359 -0.0331
C 14.70249 28.39284 -0.00316
C 15.9617 27.61636 0.02188
C 15.99109 26.15646 -0.01979
C 14.69633 25.50965 0.02691
C 14.71073 24.12814 -0.01581
C 15.96332 23.50897 0.01452
C 13.4858 10.61043 0.03505
C 7.34859 2.87297 0.02894
C 7.32244 4.31912 -0.02971
C 8.53773 5.02399 0.00165
C 3.59474 6.41766 0.02635
C 3.61509 5.02368 0.0127
C 2.33423 4.32916 0.01396
C 2.29444 2.89215 0.01849
C 3.58475 2.2256 -0.01142
C 3.58905 0.80641 -0.00562
C 2.35481 0.11374 -0.00494
C 4.9267 32.80626 0.00054
C 2.28079 7.16067 -0.01378
C 6.06188 32.02614 0.03007
C 4.91145 29.84594 0.01572
C 4.88974 28.41929 -0.04848
C 6.13372 27.75258 -0.00892
C 6.06058 26.33044 -0.01362
C 4.93032 25.53946 -0.0008
C 4.91422 24.11808 0.0288
C 6.21503 23.36934 0.00393
C 6.40829 21.90716 0.00895
C 6.13773 30.58964 -0.00095
C 2.29836 8.55935 -0.01303
C 3.5287 9.25274 0.00848
C 3.59275 10.71335 -0.00049
C 3.71029 30.61602 0.017
C 2.48589 29.91887 -0.03113
C 2.35563 28.49669 -0.02566
C 3.67739 27.7586 -0.00094
C 3.66563 26.24214 0.02322
C 2.40951 25.58236 -0.00725
C 2.44554 24.15698 -0.05697
C 3.73222 23.42961 0.01087
C 3.80714 21.93723 -0.01343
C 2.46903 21.31458 0.00988
C 2.4367 19.89883 0.0276
C 3.71751 19.12999 0.01305
C 3.65575 17.72664 -0.00077
C 2.41428 17.09772 0.03368
C 2.57171 15.72461 -0.02929
C 3.69593 14.97376 -0.00966
C 3.68952 13.43029 -0.03337
C 2.44237 12.76729 0.01227
C 2.45585 11.41213 0.00873
C 5.04538 21.27407 0.00685
C 5.06654 19.87149 0.02888
C 6.17966 19.16633 -0.00482
C 6.08632 17.71107 -0.01384
C 8.5327 26.34982 0.03589
C 7.33867 25.64918 -0.02759
C 7.40291 24.18488 0.0402
C 8.67859 23.48712 0.00572
C 8.64841 22.03408 0.03592
C 7.76146 21.116 0.00406
C 7.56983 19.78424 0.00943
C 8.2776 18.36155 0.02841
C 7.47977 17.2937 -0.01111
C 7.4632 15.92043 -0.01275
C 8.67042 15.07407 0.00985
C 8.62238 13.56786 -0.02245
C 7.40782 12.91165 -0.00428
C 7.29558 11.39362 0.03101
C 8.56401 10.64233 -0.01536
C 8.50779 9.24168 -0.02689
C 7.36231 8.5765 -0.01046
C 7.33095 7.15046 -0.00891
C 8.60212 6.42319 0.02819
C 8.51259 27.77552 -0.00033
C 17.20977 29.78872 0.00742
C 7.34358 28.52478 -0.01062
C 8.61014 30.59933 -0.00719
C 4.85887 17.0405 0.03693
C 4.96096 15.68215 0.01745
C 6.159 15.02044 0.00488
C 6.169 13.6148 -0.01004
C 4.91678 12.77096 -0.02896
C 4.85389 11.38394 -0.00131
C 6.07726 10.64087 -0.01118
C 6.09398 9.23831 -0.014
C 4.83688 8.56238 0.02147
C 4.86889 7.1604 0.00373
C 6.07019 6.49061 -0.00191
C 6.11822 5.07306 0.00438
C 4.8306 4.31483 0.01291
C 4.84197 2.88479 0.00093
C 5.99229 2.19254 0.00057
C 6.06383 0.80118 -0.01634
C 4.8603 0.14445 -0.00334
C 7.36995 32.7106 0.02339
C 8.58281 32.00462 0.01641
C 7.3729 29.87127 0.01364
C 17.19917 28.30249 -0.01594
C 18.41765 27.65604 0.0106
C 18.60597 26.26765 -0.01154
C 29.47671 34.07382 0.00346
C 31.87255 32.68862 0.01713
C 33.14943 32.05779 -0.01694
C 33.13921 30.64283 0.01428
C 31.99076 29.87971 -0.02142
C 32.01123 28.47158 0.0544
C 33.22794 27.79111 0.00026
C 33.20787 26.32714 0.00682
C 30.68718 0.75283 0.00307
C 31.88493 25.68722 -0.01779
C 33.12907 23.47296 0.01927
C 33.16325 22.00671 0.01574
C 31.8761 21.36738 -0.02383
C 31.86137 19.92104 -0.01429
C 33.09061 19.21109 -0.0136
C 33.0796 17.75536 0.00594
C 31.74348 16.879 -0.02474
C 31.93722 15.51572 0.00369
C 31.83646 24.25323 0.03794
C 30.68366 2.19215 0.00716
C 29.41952 2.81297 0.02108
C 29.44916 4.19482 0.0103
C 30.71233 30.50782 -0.02049
C 29.49024 29.84999 -0.01854
C 29.50861 28.46983 -0.01415
C 30.83609 27.86336 -0.03039
C 30.76819 26.49934 0.01836
C 29.41405 26.10133 0.03531
C 29.27493 24.62595 -0.00669
C 30.5188 23.60793 0.0101
C 30.57614 22.16813 0.01705
C 29.58334 21.14587 -0.0405
C 29.53899 20.02005 -0.01303
C 30.58667 19.08544 -0.01461
C 30.72372 17.75291 -0.02155
C 30.57601 10.63763 -0.00944
C 30.49724 9.27085 -0.03735
C 29.3165 8.42615 -0.00971
C 29.42475 7.05964 0.01518
C 30.61405 6.45515 0.01908
C 30.73607 5.04527 0.07705
C 33.21411 14.98969 0.00455
C 33.27544 13.50216 -0.00644
C 31.95464 12.8963 -0.01839
C 31.64978 11.58776 0.00137
C 34.36058 19.91661 0.01951
C 1.18345 19.17147 -0.01678
C 1.2385 17.77043 0.01223
C 34.37568 17.07305 0.00648
C 0.01115 15.67998 0.02114
C 1.29761 15.03999 -0.02957
C 1.29922 13.58383 0.00343
C 0.05266 12.80308 -0.02656
C 34.2857 11.3951 -0.02442
C 1.08733 10.73616 -0.00027
C 1.04163 9.27422 -0.00583
C 34.23122 8.59932 -0.02302
C 34.32028 7.22779 -0.02849
C 1.06276 6.48597 0.02931
C 1.09153 5.12458 0.00628
C 34.38386 4.31083 -0.0345
C 34.34882 2.96122 -0.00931
C 1.1168 2.21507 -0.00939
C 1.18283 0.81891 -0.00468
C 34.39903 21.27593 -0.02213
C 30.73235 31.99064 0.03265
C 1.2164 22.02522 0.02712
C 34.3921 24.13297 0.03076
C 33.01755 10.76298 0.00199
C 33.04302 9.32488 0.04381
C 31.80988 8.59932 0.02806
C 31.81407 7.2367 0.01504
C 33.13184 6.54499 -0.00069
C 33.18277 5.06329 0.04926
C 31.94329 4.35641 -0.03838
C 31.89272 3.00033 0.00349
C 33.1124 2.22545 -0.00323
C 33.05616 0.76385 -0.00841
C 31.90255 0.0246 0.0001
C 34.35291 32.73598 -0.02927
C 1.14015 32.08173 -0.01404
C 1.26143 30.6078 0.01027
C 0.0082 29.97636 0.01831
C 0.00462 28.55497 -0.01037
C 1.15041 27.74962 -0.00439
C 1.16595 26.30195 -0.00598
C 34.43092 25.52691 -0.05239
C 1.2005 23.38138 0.00723
C 3.67225 32.02815 -0.00643
C 29.3713 32.64238 0.00261
C 28.21371 0.70569 0.00924
C 19.64859 32.60927 0.01515
C 20.86243 31.82968 -0.00225
C 20.88195 30.47223 0.00071
C 19.62237 29.80912 -0.01107
C 19.62514 28.42363 -0.01586
C 20.89307 27.83224 -0.01971
C 21.06749 26.36196 -0.02118
C 19.90265 25.50832 0.00733
C 17.20879 34.00738 -0.0055
C 19.87093 24.0204 -0.00178
C 20.68599 21.88665 -0.0276
C 19.46404 21.32372 0.03005
C 19.45697 19.90242 -0.04078
C 19.65983 8.37134 0.02117
C 19.58668 6.98219 0.02737
C 20.7484 6.31912 -0.00498
C 20.84189 4.89838 0.00135
C 19.59556 4.14032 0.03102
C 20.98469 23.19467 0.00768
C 18.42775 0.63324 0.02734
C 18.47269 2.04778 0.01153
C 17.22376 2.79494 0.02239
C 17.33952 25.54968 -0.01721
C 17.25441 24.20066 -0.02422
C 18.48336 23.42537 0.01277
C 18.243 22.00483 0.00096
C 16.73743 21.11098 -0.01527
C 16.33625 19.68918 0.01087
C 18.71612 18.87731 0.00199
C 18.16436 17.76568 0.01511
C 17.17749 16.80704 -0.00478
C 17.25843 15.42272 -0.01662
C 17.26546 12.8299 -0.01185
C 17.26709 11.34749 0.01126
C 18.47465 10.59905 0.01852
C 18.571 9.22241 -0.00381
C 17.20152 8.50008 0.03046
C 17.16022 7.08075 0.0296
C 18.35848 6.34152 0.03374
C 18.42769 4.89261 -0.02845
C 17.16449 4.20121 -0.03213
C 19.66039 2.69963 0.02555
C 20.87751 2.05555 0.01423
C 20.87179 0.66501 -0.00285
C 19.64707 33.9685 -0.009
C 25.76404 6.63055 0.00152
C 25.83429 5.12995 0.01257
C 24.58485 4.3781 0.02316
C 24.53479 2.89186 0.04185
C 25.69888 2.13821 0.00194
C 25.75273 0.67708 -0.00621
C 24.54168 33.96405 0.02611
C 26.90386 32.62962 0.02198
C 28.14892 31.98212 0.01094
C 28.21245 30.52797 0.00235
C 27.01099 29.68252 0.01495
C 27.06876 28.10025 0.01259
C 28.51068 27.48582 0.01799
C 27.01275 7.15195 0.01699
C 28.20841 6.33046 -0.00416
C 28.20296 4.8874 0.01177
C 27.02419 4.22338 0.04266
C 26.96544 2.8268 0.01324
C 28.19056 2.14196 0.0014
C 24.40405 7.09911 -0.00294
C 26.9906 34.05157 0.02326
C 25.81333 27.39857 0.00826
C 24.53584 29.66539 -0.00942
C 22.19969 32.52762 -0.01199
C 23.29271 31.78633 -0.00229
C 23.31731 30.37155 -0.00938
C 22.065 29.81917 -0.0264
C 22.17729 28.51122 -0.01154
C 23.24165 27.73935 0.00684
C 22.37863 26.00366 -0.01052
C 22.09295 21.52472 -0.01679
C 21.89395 7.05596 0.00367
C 23.25195 6.46998 0.04306
C 23.30448 4.97864 0.00996
C 22.10194 4.16102 0.00195
C 22.13418 2.71185 -0.00802
C 23.34083 2.05984 -0.00218
C 23.30216 0.61785 -0.01654
C 22.0772 33.97348 -0.00037
C 24.6317 32.52288 -0.0032
C 25.77018 31.79297 0.00622
C 25.81186 30.369 -0.02815
C 24.55605 28.31867 0.00487
C 2.43048 32.72891 0.0086
