396
Graphene
C 0.00974 0.03321 0.01295
C 16.06212 19.1444 -0.01789
C 15.92359 13.56982 0.00444
C 14.70195 11.3692 -0.00925
C 15.99948 10.63846 0.01877
C 16.04416 9.26374 0.01363
C 14.78922 8.54919 -0.02162
C 14.7071 7.06916 0.00415
C 15.92975 6.366 -0.0014
C 15.95236 4.86417 0.02162
C 14.76486 21.27957 0.02894
C 14.78864 4.29073 0.0076
C 16.02148 2.08695 -0.01454
C 16.01957 0.68884 0.01945
C 14.81398 34.05573 0.01416
C 17.19238 32.73871 0.03542
C 18.47014 31.9132 0.02299
C 18.43781 30.44558 0.00244
C 17.15265 29.77329 -0.01717
C 17.25806 28.32332 0.05265
C 18.4137 27.64825 -0.01952
C 14.73175 2.86907 0.01241
C 15.96986 21.95726 -0.02971
C 15.95553 23.49275 0.00165
C 14.67658 24.22007 0.02819
C 12.32507 24.15464 0.01364
C 13.57326 23.49054 -0.01062
C 13.61564 10.70321 -0.00033
C 13.53524 9.24901 0.03589
C 12.25877 8.55123 -0.02759
C 12.30022 7.09499 0.0402
C 13.53103 6.42481 0.00572
C 13.53507 5.0577 0.03592
C 12.2823 4.28137 0.00406
C 12.27358 2.91689 0.00943
C 13.53754 2.07398 0.02841
C 13.55988 0.70472 -0.01111
C 12.32506 0.04857 -0.01275
C 14.85084 32.66718 0.00985
C 15.97279 31.90433 -0.02245
C 15.96864 30.5501 -0.00428
C 14.76148 29.77628 0.03101
C 14.68694 28.37867 -0.01536
C 16.0068 27.68376 -0.02689
C 16.07832 26.29426 -0.01046
C 14.78133 25.61325 -0.00891
C 18.46659 26.27176 -0.02813
C 17.19795 25.64683 0.00374
C 17.18725 24.17661 0.00052
C 18.42434 23.36203 -0.03682
C 19.68856 29.77539 -0.00066
C 19.6906 28.4242 -0.00289
C 20.92665 27.67226 0.00028
C 20.87131 26.28281 -0.02213
C 19.66133 25.57952 0.03698
C 19.70035 24.106 -0.00109
C 20.96372 23.48001 -0.00491
C 20.92398 21.96738 0.03338
C 19.70231 21.29293 -0.0258
C 19.66941 19.86231 -0.0331
C 20.93443 19.12902 -0.00316
C 20.86155 17.75386 0.02188
C 19.65951 17.01734 -0.01979
C 19.70078 15.57417 0.02691
C 20.92222 14.86899 -0.01581
C 20.88629 13.51961 0.01452
C 19.61819 12.78594 0.04892
C 19.61953 11.36698 -0.00111
C 20.82688 10.69754 -0.03557
C 20.87472 9.26387 0.03754
C 19.66578 8.5269 0.01739
C 20.94821 30.48729 0.00213
C 12.32967 25.57975 -0.00719
C 20.94143 31.9651 -0.05302
C 17.21346 0.04246 -0.02815
C 18.4964 22.01544 0.01965
C 17.2306 21.3093 0.02058
C 17.2018 19.81535 -0.01957
C 18.42867 19.12997 -0.0108
C 18.43296 17.74093 -0.00368
C 17.28469 16.9966 -0.02696
C 17.1763 15.67033 -0.00114
C 18.40153 14.92768 0.00228
C 18.39439 13.51566 0.00798
C 17.151 12.79066 0.00422
C 17.15791 11.3509 0.0351
C 18.43332 10.66316 -0.03113
C 18.48729 9.1943 0.02098
C 17.20576 8.49549 0.01848
C 17.18714 7.03225 -0.00619
C 18.40126 6.36256 -0.02162
C 18.44458 4.94315 0.00889
C 17.16891 4.22277 -0.00481
C 17.24788 2.81465 0.00979
C 18.50888 2.15392 0.01443
C 18.4224 0.77865 0.03505
C 19.71617 32.62945 -0.04147
C 19.64294 7.10163 0.00755
C 13.531 26.29125 0.01641
C 12.2915 28.46677 -0.00334
C 3.70805 2.10175 0.01226
C 3.652 0.72751 -0.00279
C 2.41633 0.02221 0.01996
C 4.89246 32.67273 -0.03996
C 6.14236 31.97582 0.01465
C 6.13676 30.59716 -0.00074
C 4.93971 29.78517 -0.00518
C 4.95145 28.43683 0.0086
C 6.18137 27.72983 -0.00643
C 2.48379 2.86531 0.03828
C 6.06204 26.34407 0.017
C 4.95997 24.15805 -0.02566
C 6.12435 23.40638 -0.00094
C 4.86105 21.27378 0.02322
C 4.93628 11.33738 -0.00725
C 6.12067 10.63007 -0.05697
C 6.21234 9.26287 0.01087
C 4.89071 8.52356 -0.01343
C 5.00521 7.0876 0.00988
C 6.17341 6.37467 0.0276
C 4.84569 25.54743 -0.03113
C 2.42386 4.36395 0.0174
C 3.6985 4.98335 0.0073
C 3.73926 6.3705 0.00402
C 3.67079 30.53686 0.02784
C 2.50697 29.79063 -0.01977
C 2.43529 28.3365 -0.00561
C 3.75452 27.67582 0.00208
C 3.61593 26.23739 0.01707
C 2.42858 25.64972 0.02769
C 2.4378 24.20043 -0.03291
C 3.67273 23.45264 -0.04999
C 3.74641 22.03566 0.04505
C 2.44902 21.21683 0.03284
C 2.51375 19.854 -0.04307
C 3.70003 19.203 0.03189
C 2.45531 17.03263 0.00031
C 2.42237 15.68701 -0.003
C 3.60781 13.42855 0.01402
C 2.45582 12.7839 0.02379
C 2.49954 11.37225 0.00907
C 3.70172 10.63624 0.00643
C 3.69757 9.25514 -0.01509
C 2.46064 8.58786 0.03267
C 2.4237 7.09442 0.02374
C 6.2013 4.97698 0.01305
C 4.99111 4.26793 -0.00077
C 4.95738 2.87943 0.03368
C 6.10042 2.01839 -0.02929
C 9.8229 29.81931 0.00895
C 9.80105 28.42455 0.00685
C 11.00674 27.63544 0.02888
C 11.06829 26.24386 -0.00482
C 9.81305 25.59435 -0.01384
C 9.82724 24.12929 0.03693
C 11.10993 23.35278 0.01745
C 11.04386 9.26905 0.00488
C 9.81198 8.59854 -0.01004
C 9.86444 7.13022 -0.02896
C 11.05612 6.39103 -0.00131
C 11.06382 4.98476 -0.01118
C 9.86099 4.29823 -0.014
C 9.81053 2.85715 0.02147
C 11.0204 2.19296 0.00373
C 11.12614 0.73532 -0.00191
C 9.86449 0.0797 0.00438
C 12.30276 32.72135 0.01291
C 13.57286 32.02372 0.00093
C 13.49185 30.63129 0.00057
C 12.27667 29.88685 -0.01634
C 11.08089 30.56976 0.00393
C 13.44191 27.7007 0.02339
C 11.07969 32.01456 0.0288
C 7.39066 34.06783 -0.01362
C 6.14729 0.66127 -0.00966
C 4.86543 0.0463 -0.03337
C 7.3546 32.71092 0.01227
C 8.63143 31.98202 0.00873
C 8.54561 30.53744 -0.00049
C 7.32517 29.86485 0.00848
C 7.38034 28.38011 -0.01303
C 8.63602 27.68947 -0.01378
C 8.55525 26.33278 0.02635
C 7.32863 25.6156 0.0127
C 7.43598 24.1778 0.01396
C 8.63579 23.40768 0.01849
C 8.56881 9.25535 -0.01142
C 7.3389 8.50706 -0.00562
C 7.384 7.09168 -0.00494
C 8.59255 6.42467 0.00054
C 8.51584 4.96717 0.03007
C 7.31367 4.24946 -0.00095
C 7.32603 2.76538 0.01572
C 8.59555 2.18088 -0.04848
C 8.55633 0.71304 -0.00892
C 9.86767 32.73226 -0.0008
C 20.89693 6.34826 -0.0054
C 20.90657 4.95352 0.00667
C 19.66587 4.2931 0.00143
C 30.78339 6.40203 0.01908
C 30.76189 5.02874 0.07705
C 29.50211 4.2525 0.0103
C 29.49674 2.83525 0.02108
C 30.72867 2.14419 0.00716
C 30.68727 0.76353 0.00307
C 29.54998 34.07406 0.00346
C 31.98723 32.6036 0.01713
C 33.25173 31.9091 -0.01694
C 29.50406 7.13217 0.01518
C 33.19761 30.54164 0.01428
C 32.00613 28.39414 0.0544
C 33.20867 27.68553 0.00026
C 33.19341 26.25964 0.00682
C 31.94698 25.59714 -0.01779
C 32.03903 24.18779 0.03794
C 33.21599 23.34638 0.01927
C 33.2588 21.96302 0.01574
C 31.99991 21.31707 -0.02383
C 31.96711 19.93266 -0.01429
C 31.98162 29.77208 -0.02142
C 29.4587 8.5429 -0.00971
C 30.7798 9.16739 -0.03735
C 30.69752 10.59782 -0.00944
C 29.49412 32.68696 0.01177
C 30.70001 31.91967 0.04266
C 30.70105 30.54016 0.01324
C 29.49398 29.8102 0.0014
C 29.54142 28.32589 0.00924
C 30.79023 27.67095 0.02326
C 30.73655 26.28929 0.00261
C 29.56857 25.5121 0.03265
C 29.51742 24.03659 -0.02049
C 30.77797 23.44009 -0.01854
C 30.80841 21.99824 -0.01415
C 29.48633 21.29101 -0.03039
C 29.52353 19.85486 0.01836
C 30.75147 19.17539 0.03531
C 30.73082 17.75744 -0.00669
C 29.53389 17.09978 0.0101
C 29.50279 15.62666 0.01705
C 30.7923 14.97267 -0.0405
C 30.70556 13.53584 -0.01303
C 29.51337 12.7886 -0.01461
C 29.51087 11.3459 -0.02155
C 33.22981 19.21078 -0.0136
C 33.24472 17.74866 0.00594
C 31.95147 16.99537 -0.02474
C 31.99757 15.65325 0.00369
C 1.24094 22.0337 0.02712
C 0.04123 21.35447 -0.02213
C 34.41107 19.80945 0.01951
C 1.1676 19.13389 -0.01678
C 1.22941 17.7492 0.01223
C 0.0568 17.02421 0.00648
C 34.37016 15.57948 0.02114
C 1.17253 14.91793 -0.02957
C 1.18955 13.45044 0.00343
C 34.40558 12.76615 -0.02656
C 34.39575 11.29387 -0.02442
C 1.2353 10.73803 -0.00027
C 1.23408 9.29414 -0.00583
C 34.43158 8.52817 -0.02302
C 34.42434 7.08559 -0.02849
C 1.17031 6.35858 0.02931
C 1.14979 4.97676 0.00628
C 34.41652 4.2524 -0.0345
C 0.03685 2.76915 -0.00931
C 1.25166 2.1226 -0.00939
C 1.19562 0.75218 -0.00468
C 1.23731 23.47907 0.00723
C 27.03257 0.05301 -0.00416
C 34.40465 24.15528 0.03076
C 1.19139 26.26206 -0.00598
C 33.20184 14.92449 0.00455
C 33.22059 13.48327 -0.00644
C 31.9833 12.77762 -0.01839
C 31.93026 11.32129 0.00137
C 33.16393 10.63727 0.00199
C 33.18076 9.24447 0.04381
C 31.95569 8.59655 0.02806
C 31.99023 7.06055 0.01504
C 33.19187 6.35958 -0.00069
C 33.14921 4.95723 0.04926
C 31.96426 4.30059 -0.03838
C 32.01374 2.84462 0.00349
C 33.13208 2.05844 -0.00323
C 33.16746 0.68783 -0.00841
C 31.97443 34.06645 0.0001
C 34.42905 32.62026 -0.02927
C 1.21851 31.96882 -0.01404
C 1.25755 30.49403 0.01027
C 0.02143 29.82105 0.01831
C 0.03711 28.41534 -0.01037
C 1.2003 27.67016 -0.00439
C 0.00466 25.51013 -0.05239
C 28.27331 0.67995 0.01699
C 28.24768 2.1119 0.01799
C 27.07501 2.85451 0.01259
C 23.40765 10.63221 -0.00478
C 23.33732 9.26067 -0.01662
C 22.04706 8.51284 -0.01185
C 22.06799 7.06222 0.01126
C 23.36506 6.30802 0.01852
C 23.31622 4.96386 -0.00381
C 22.17562 4.23879 0.03046
C 22.15835 2.83875 0.0296
C 23.27812 2.12404 0.03374
C 23.29459 0.64507 -0.02845
C 22.14298 34.07027 -0.03213
C 24.62179 32.65007 0.02239
C 25.86599 31.88655 0.01153
C 25.86768 30.47398 0.02734
C 24.61412 29.8028 -0.0055
C 24.58441 28.40366 0.01515
C 25.83115 27.63497 -0.00225
C 25.76537 26.24059 0.00071
C 24.5566 25.58204 -0.01107
C 24.6486 24.07821 -0.01586
C 25.91935 23.38437 -0.01971
C 22.09783 11.30507 0.01511
C 25.79644 21.99184 -0.02118
C 22.1329 12.76354 0.00199
C 23.35791 14.86344 -0.01527
C 19.73497 2.87048 -0.017
C 20.89081 2.13095 0.00364
C 20.91736 0.74907 -0.00831
C 19.72446 0.00757 -0.02957
C 22.19786 32.68031 -0.04422
C 23.40666 32.00397 0.00654
C 23.37821 30.5782 -0.00703
C 22.17833 29.74507 -0.04076
C 22.14844 28.38781 -0.00652
C 23.40072 27.71601 0.0058
C 23.33627 26.33238 -0.00865
C 22.10253 25.56571 0.00675
C 22.14941 24.17198 -0.00311
C 23.34187 23.44895 0.00742
C 23.35767 21.99225 -0.01594
C 22.17264 21.3233 0.0106
C 22.10859 19.94799 -0.01154
C 23.33584 19.1326 -0.01721
C 23.37692 17.79305 -0.02422
C 22.16751 17.03267 0.01277
C 22.19198 15.58492 0.00096
C 23.30141 13.43994 0.01087
C 3.72992 31.96306 -0.01979
C 24.5672 21.23343 0.00733
C 25.94751 19.20741 0.00768
C 27.01412 25.61097 -0.00218
C 27.07117 24.14787 -0.01654
C 28.28342 23.39712 -0.00037
C 28.18355 22.00538 -0.0032
C 26.96491 21.30592 0.00622
C 27.02699 19.88507 -0.02815
C 28.24974 19.14854 -0.00942
C 28.29136 17.70587 0.00487
C 26.93927 17.00432 0.00826
C 27.03293 15.62593 -0.00294
C 28.24063 14.92922 0.00152
C 28.23005 13.45754 0.01257
C 27.01044 12.80154 0.02316
C 27.04629 11.3559 0.04185
C 28.28968 10.64241 0.00194
C 28.25868 9.24401 -0.00621
C 27.06332 8.42778 0.02611
C 27.08903 7.08133 0.02198
C 28.29042 6.36403 0.01094
C 28.29616 4.96844 0.00235
C 27.147 4.34007 0.01495
C 28.29984 26.2715 -0.00802
C 24.54543 19.80261 -0.00178
C 28.27164 27.66055 0.00195
C 27.04745 29.84952 0.04306
C 25.7656 17.78386 -0.0276
C 24.58257 17.03457 0.03005
C 24.63437 15.65826 -0.04078
C 25.84773 14.93479 0.02117
C 25.80946 13.52146 0.02737
C 24.57775 12.74241 -0.00498
C 24.60554 11.40419 0.00135
C 25.82828 10.6436 0.03102
C 25.78338 9.19362 0.02555
C 24.53669 8.48088 0.01423
C 24.58322 7.05493 -0.00285
C 25.805 6.36547 -0.009
C 25.8418 4.96647 -0.01199
C 24.62387 4.2463 -0.00229
C 24.57481 2.90493 -0.00938
C 25.87674 2.18639 -0.0264
C 25.78075 0.72834 -0.01154
C 24.60986 34.06938 0.00684
C 27.07263 32.67026 -0.01052
C 28.28538 32.00121 -0.01679
C 28.31233 30.5097 0.00367
C 27.0355 28.35547 0.00996
C 2.55398 32.6692 -0.00449
