338
Graphene
C 34.42816 0.00578 0.01295
C 9.77476 19.82544 0.00889
C 11.16738 19.22555 -0.00481
C 11.18218 17.79826 0.00979
C 9.8953 17.13731 0.01443
C 9.88556 15.6143 0.03505
C 11.12066 14.85206 -0.02815
C 11.09651 13.43702 -0.04147
C 9.81775 12.72837 -0.05302
C 9.80595 11.33164 0.00213
C 11.08947 10.59396 -0.00066
C 11.07559 9.15755 -0.00289
C 9.85017 8.54382 0.00028
C 9.87672 7.175 -0.02213
C 11.03481 6.42741 0.03698
C 11.06677 4.9544 -0.00109
C 9.86725 4.26378 -0.00491
C 9.87211 2.90062 0.03338
C 9.77254 21.22812 -0.02162
C 11.1013 2.12681 -0.0258
C 10.9493 22.001 -0.00619
C 9.8555 24.21135 0.02098
C 7.33302 8.57433 -0.01952
C 7.39715 7.1548 -0.02813
C 8.69815 6.40004 0.00374
C 8.61923 4.98925 0.00052
C 7.40931 4.38742 -0.03682
C 7.4334 2.94054 0.01965
C 8.68078 2.15935 0.02058
C 8.65574 0.74903 -0.01957
C 7.38112 0.04626 -0.0108
C 9.78692 32.66951 -0.00368
C 11.00208 31.97044 -0.02696
C 10.9529 30.58466 -0.00114
C 9.785 29.82543 0.00228
C 9.82203 28.42963 0.00798
C 11.02365 27.72993 0.00422
C 11.19521 26.2249 0.0351
C 9.86624 25.61246 -0.03113
C 11.01203 23.39193 0.01848
C 8.63908 9.23035 0.05265
C 11.06866 0.6749 -0.0331
C 12.27376 32.66257 0.02188
C 12.33639 7.11262 -0.00652
C 13.60918 6.4563 0.0058
C 13.52424 5.03925 -0.00865
C 12.34766 4.27088 0.00675
C 12.28772 2.81434 -0.00311
C 13.50978 2.1357 0.00742
C 13.49421 0.73128 -0.01594
C 12.31015 34.07344 0.0106
C 14.70452 32.61487 -0.01154
C 15.99022 31.85962 -0.01721
C 15.88315 30.43865 -0.02422
C 14.67182 29.7855 0.01277
C 14.68856 28.43229 0.00096
C 14.8299 17.07195 -0.01527
C 14.62289 15.70775 0.01087
C 14.7256 12.66512 0.00199
C 14.64769 11.33447 0.01511
C 12.38125 8.48658 -0.04076
C 9.84394 0.0275 -0.00316
C 13.5262 9.22355 -0.00703
C 12.30049 11.33251 -0.04422
C 13.50599 31.8586 -0.01979
C 13.42266 30.52128 0.02691
C 12.18573 29.91123 -0.01581
C 12.22747 28.49006 0.01452
C 13.52978 27.76858 0.04892
C 13.29488 26.45 -0.00111
C 12.49136 25.33289 -0.03557
C 12.24932 24.01493 0.03754
C 12.17921 21.41491 0.01739
C 12.44053 20.04503 0.00755
C 13.50871 19.19554 -0.0054
C 13.76335 17.85866 0.00667
C 12.4475 17.09381 0.00143
C 12.38412 15.66347 -0.017
C 13.61585 14.8553 0.00364
C 13.60325 13.43568 -0.00831
C 12.2685 12.73328 -0.02957
C 13.54451 10.65742 0.00654
C 8.57203 10.65125 -0.01717
C 7.35912 11.39519 0.00244
C 7.40857 12.83499 0.02299
C 2.44693 8.51907 0.03693
C 2.40888 7.08787 0.01745
C 3.58636 6.40213 0.00488
C 3.62143 4.94311 -0.01004
C 2.42674 4.22293 -0.02896
C 2.43749 2.76393 -0.00131
C 3.74903 2.11257 -0.01118
C 3.73173 0.73229 -0.014
C 2.50291 34.01461 0.02147
C 4.9291 32.69469 0.00373
C 6.12949 32.00492 -0.00191
C 6.14895 30.57223 0.00438
C 4.87892 29.85299 0.01291
C 4.89415 28.3963 0.00093
C 6.09572 27.62632 0.00057
C 6.10575 26.28163 -0.01634
C 4.91486 25.58252 -0.00334
C 3.65278 9.21271 -0.01384
C 4.86635 24.16022 0.02339
C 3.65527 10.66131 -0.00482
C 2.48503 12.75303 0.00685
C 3.7156 30.56493 0.0127
C 2.44986 29.86468 0.01396
C 2.42825 28.49672 0.01849
C 3.66993 27.74612 -0.01142
C 3.66533 26.27334 -0.00562
C 2.4198 25.5621 -0.00494
C 2.38396 24.18809 0.00054
C 3.63342 23.42339 0.03007
C 3.74095 21.98032 -0.00095
C 2.47387 21.26739 0.01572
C 2.44956 19.81998 -0.04848
C 3.68364 19.05175 -0.00892
C 3.60676 17.65239 -0.01362
C 2.39767 17.00909 -0.0008
C 2.46415 15.58906 0.0288
C 3.64396 14.87187 0.00393
C 3.69042 13.46896 0.00895
C 2.44175 11.33973 0.02888
C 6.06109 23.39985 0.01641
C 6.05799 21.96065 -0.00719
C 4.87889 21.23065 0.01364
C 8.58676 30.54471 -0.02971
C 7.32014 29.87664 0.02894
C 7.34815 28.41548 -0.01789
C 8.60587 27.69883 0.00444
C 8.64215 26.29565 -0.00925
C 7.37378 25.57956 0.01877
C 7.35455 24.16432 0.01363
C 8.62859 23.46584 -0.02162
C 8.55482 21.98708 0.00415
C 7.32536 21.27068 -0.0014
C 7.32386 19.86519 0.02162
C 8.52789 19.11971 0.0076
C 8.58174 17.74208 0.01241
C 7.3743 16.98282 -0.01454
C 7.38445 15.62908 0.01945
C 8.66746 14.93323 0.01416
C 8.602 13.44371 0.03542
C 8.55758 31.97358 0.00165
C 7.39334 32.66184 0.02819
C 4.98123 0.01598 -0.00891
C 6.18856 0.79144 -0.01046
C 4.93465 19.8438 -0.01062
C 6.11433 19.12097 -0.00033
C 6.15993 17.72132 0.03589
C 4.92062 17.02526 -0.02759
C 4.88701 15.6103 0.0402
C 6.13324 14.88252 0.00572
C 6.09388 13.53935 0.03592
C 4.88772 12.86014 0.00406
C 16.01372 9.37643 -0.00478
C 4.87324 11.37934 0.00943
C 6.07362 9.25739 -0.01111
C 4.89208 8.56183 -0.01275
C 4.85565 7.10141 0.00985
C 6.12135 6.41535 -0.02245
C 6.12921 5.00809 -0.00428
C 4.94356 4.283 0.03101
C 4.90922 2.87308 -0.01536
C 6.18362 2.17681 -0.02689
C 6.1031 10.68194 0.02841
C 14.80646 8.63592 -0.01662
C 14.80096 7.21689 -0.01185
C 16.00979 6.43102 0.01126
C 31.9281 29.84341 -0.02142
C 32.03878 28.40797 0.0544
C 33.23195 27.72364 0.00026
C 33.23701 26.31801 0.00682
C 31.98196 25.58076 -0.01779
C 31.97363 24.15616 0.03794
C 33.20141 23.3939 0.01927
C 33.19633 22.02731 0.01574
C 31.99203 21.32879 -0.02383
C 31.96785 19.88569 -0.01429
C 33.15544 19.15576 -0.0136
C 33.16391 17.76712 0.00594
C 31.93916 17.06084 -0.02474
C 31.97491 15.62815 0.00369
C 33.16764 14.97753 0.00455
C 33.2396 13.61798 -0.00644
C 32.02851 12.84239 -0.01839
C 33.20488 30.56878 0.01428
C 31.99707 11.35943 0.00137
C 33.17568 31.96345 -0.01694
C 29.55228 34.0448 0.00346
C 29.43383 19.94651 -0.00669
C 30.63371 19.2547 0.0101
C 30.64924 17.7454 0.01705
C 29.44342 17.00309 -0.0405
C 29.4415 15.48589 -0.01303
C 30.73515 14.91462 -0.01461
C 30.87541 13.48408 -0.02155
C 29.59368 12.80975 -0.00944
C 30.78441 10.69923 -0.03735
C 30.82702 9.26284 -0.00971
C 29.58433 7.19165 0.01518
C 30.73983 6.40222 0.01908
C 30.64104 4.98022 0.07705
C 29.40355 4.24422 0.0103
C 29.50149 2.89802 0.02108
C 30.68967 2.16652 0.00716
C 30.74935 0.74297 0.00307
C 31.89885 32.67369 0.01713
C 33.21344 10.62287 0.00199
C 33.12651 9.24467 0.04381
C 31.98878 8.49738 0.02806
C 1.27737 17.74394 0.01223
C 0.04671 17.05948 0.00648
C 34.396 15.64629 0.02114
C 1.21076 14.93544 -0.02957
C 1.26378 13.4852 0.00343
C 34.42043 12.77235 -0.02656
C 0.00453 11.35469 -0.02442
C 1.22193 10.67607 -0.00027
C 1.17334 9.18481 -0.00583
C 34.32484 8.48598 -0.02302
C 34.42315 7.0549 -0.02849
C 1.23557 6.3596 0.02931
C 1.21272 4.95156 0.00628
C 34.40686 4.24986 -0.0345
C 0.00662 2.86861 -0.00931
C 1.20898 2.09567 -0.00939
C 1.25569 0.63869 -0.00468
C 1.25558 19.17331 -0.01678
C 34.37707 19.86376 0.01951
C 34.38526 21.27383 -0.02213
C 1.24005 21.94663 0.02712
C 31.90379 7.13157 0.01504
C 33.15159 6.3757 -0.00069
C 33.07077 4.92041 0.04926
C 31.81762 4.2318 -0.03838
C 31.93309 2.85932 0.00349
C 33.19914 2.17052 -0.00323
C 33.22591 0.75203 -0.00841
C 31.97016 0.02947 0.0001
C 29.42932 21.34796 0.03531
C 34.35076 32.68742 -0.02927
C 1.21657 30.5426 0.01027
C 34.38832 29.83813 0.01831
C 34.40595 28.46827 -0.01037
C 1.21086 27.75508 -0.00439
C 1.24144 26.35441 -0.00598
C 0.01475 25.58299 -0.05239
C 34.41631 24.10306 0.03076
C 1.215 23.40535 0.00723
C 1.19317 32.00439 -0.01404
C 3.75543 31.95104 0.02635
C 30.67541 22.01872 0.01836
C 29.50612 24.19094 -0.01415
C 20.79571 6.48403 -0.0276
C 20.82279 5.06549 0.03005
C 19.64003 4.24492 -0.04078
C 19.68162 2.85972 0.02117
C 20.91588 2.15831 0.02737
C 20.85362 0.79277 -0.00498
C 19.63819 0.03518 0.00135
C 22.05219 6.97816 0.03102
C 23.28709 6.39067 0.02555
C 23.28447 4.97525 0.01423
C 22.02632 4.30727 -0.00285
C 22.0874 2.88817 -0.009
C 23.36107 2.0944 -0.01199
C 23.35502 0.54646 -0.00229
C 22.07778 0.11438 -0.00938
C 25.83515 23.55868 -0.0264
C 25.77884 22.18654 -0.01154
C 19.52545 7.0399 0.00768
C 25.87876 19.18354 0.00684
C 19.67569 32.69631 -0.00178
C 18.42335 0.64505 -0.02118
C 15.94047 5.05928 0.01852
C 14.77893 4.27557 -0.00381
C 14.71515 2.8214 0.03046
C 15.95287 2.11187 0.0296
C 15.96812 0.71104 0.03374
C 14.71034 0.02303 -0.02845
C 17.30725 32.58061 -0.03213
C 18.6165 31.87248 0.02239
C 18.29243 30.60931 0.01153
C 17.0815 29.8599 0.02734
C 17.02351 8.47078 -0.0055
C 17.1653 7.12817 0.01515
C 18.34493 6.35212 -0.00225
C 18.37774 4.93885 0.00071
C 17.13272 4.25553 -0.01107
C 17.16826 2.79533 -0.01586
C 18.4219 2.11095 -0.01971
C 17.22643 34.06875 0.00733
C 25.95128 17.75598 -0.01052
C 24.55481 8.36027 -0.01679
C 24.59812 7.00553 0.00367
C 28.4011 13.4273 0.01094
C 26.96173 7.04972 0.00235
C 28.27876 6.5364 0.01495
C 28.24971 5.01236 0.01259
C 26.98601 4.24105 0.01799
C 27.02181 2.80188 0.01699
C 28.3024 2.14086 -0.00416
C 28.28633 0.73184 0.01177
C 27.07959 0.03458 0.04266
C 29.46344 32.61944 0.01324
C 30.717 31.98261 0.0014
C 30.66419 30.56063 0.00924
C 29.53006 29.79109 0.02326
C 29.54144 28.44225 0.00261
C 30.7493 27.70144 0.03265
C 30.69177 26.21541 -0.02049
C 29.49087 25.5441 -0.01854
C 28.16081 14.80034 0.02198
C 27.0624 15.53321 0.02611
C 26.93905 16.87618 -0.00621
C 28.0953 17.76905 0.00194
C 25.7452 6.32316 0.04306
C 25.71273 4.92843 0.00996
C 24.52 4.23795 0.00195
C 24.59062 2.80684 -0.00802
C 25.82478 2.10844 -0.00218
C 25.82014 0.68175 -0.01654
C 24.63444 0.00653 -0.00037
C 27.03771 32.73989 -0.0032
C 30.71985 23.4872 -0.03039
C 28.01503 31.78163 0.00622
C 28.4237 27.66214 -0.00942
C 28.35586 26.28805 0.00487
C 27.12095 24.12986 0.00826
C 28.30918 23.44911 -0.00294
C 28.16393 21.99765 0.00152
C 26.8834 21.39918 0.01257
C 26.92697 20.00649 0.02316
C 28.11609 19.24168 0.04185
C 28.31266 30.43297 -0.02815
C 2.47337 32.63924 -0.01378
