297
Graphene
C 34.36528 0.17563 0.01295
C 12.37983 24.1773 0.01739
C 13.58089 23.47016 0.00755
C 13.59883 21.98323 -0.0054
C 12.335 21.31317 0.00667
C 12.19608 19.96868 0.00143
C 13.39201 19.29901 -0.017
C 12.29667 25.52911 0.03754
C 12.92562 17.87079 0.00364
C 12.30369 0.33858 -0.02957
C 14.76205 32.71344 -0.04422
C 16.02363 31.9573 0.00654
C 16.0325 30.52791 -0.00703
C 14.77071 29.87948 -0.04076
C 14.76105 28.50081 -0.00652
C 13.59227 0.79164 -0.00831
C 13.5403 26.34134 -0.03557
C 13.56612 27.72298 -0.00111
C 12.33905 28.49972 0.04892
C 9.90861 25.53692 -0.00289
C 9.90911 24.12237 0.00028
C 11.15723 23.51358 -0.02213
C 11.07701 22.08851 0.03698
C 9.90521 21.35082 -0.00109
C 9.8279 19.88498 -0.00491
C 11.09238 19.16791 0.03338
C 11.42518 17.75203 -0.0258
C 10.2409 17.26089 -0.0331
C 11.06125 0.76419 -0.00316
C 9.8665 0.08166 0.02188
C 12.33143 32.87586 -0.01979
C 13.55739 32.08382 0.02691
C 13.544 30.69633 -0.01581
C 12.31295 29.90515 0.01452
C 15.94797 27.71359 0.0058
C 11.13824 26.28109 -0.00066
C 16.05604 26.21103 -0.00865
C 14.88405 24.17157 -0.00311
C 17.60011 21.67268 0.0296
C 16.75766 2.3308 0.03374
C 18.14964 2.01717 -0.02845
C 18.43003 0.60954 -0.03213
C 17.19189 33.88813 0.02239
C 19.61356 32.61715 0.01153
C 18.44951 23.33808 0.03046
C 20.86379 31.97434 0.02734
C 19.62007 29.76763 0.01515
C 19.65425 28.40289 -0.00225
C 20.87789 27.6278 0.00071
C 20.90596 26.15165 -0.01107
C 19.6136 25.59664 -0.01586
C 19.50016 24.04931 -0.01971
C 20.8623 30.43794 -0.0055
C 17.1938 24.13817 -0.00381
C 17.2366 25.50035 0.01852
C 18.42212 26.25037 0.01126
C 16.0619 23.45326 0.00742
C 16.20719 21.95853 -0.01594
C 14.93192 21.26492 0.0106
C 14.7687 19.77662 -0.01154
C 15.84851 18.8097 -0.01721
C 15.42658 17.4506 -0.02422
C 14.16427 17.01415 0.01277
C 16.15827 0.71972 0.00096
C 14.74194 0.01532 -0.01527
C 17.24305 32.58007 0.01087
C 18.48009 31.86252 0.00199
C 18.38967 30.53314 0.01511
C 17.19055 29.8416 -0.00478
C 17.20647 28.40399 -0.01662
C 18.44774 27.67775 -0.01185
C 14.85452 25.51079 0.00675
C 11.13657 27.80001 0.00213
C 9.90636 28.42221 -0.05302
C 9.82943 29.86769 -0.04147
C 2.13874 8.59984 -0.01046
C 2.46812 7.29572 -0.00891
C 3.63877 6.57322 0.02819
C 3.80188 5.20089 0.00165
C 2.51127 4.39074 -0.02971
C 2.5466 2.94754 0.02894
C 2.4318 11.33992 -0.02689
C 3.76385 2.18646 -0.01789
C 2.43444 0.0803 -0.00925
C 4.96048 32.73121 0.01877
C 6.10137 31.97798 0.01363
C 6.11088 30.5697 -0.02162
C 4.86299 29.85336 0.00415
C 4.85185 28.3853 -0.0014
C 3.71881 0.7497 0.00444
C 2.55745 12.68229 -0.01536
C 3.58219 13.5694 0.03101
C 3.75586 14.9381 -0.00428
C 3.7262 30.60073 0.01364
C 2.4988 29.90184 -0.01062
C 2.4711 28.48643 -0.00033
C 3.64919 27.72748 0.03589
C 3.5874 26.34278 -0.02759
C 2.41568 25.58929 0.0402
C 2.4088 24.24373 0.00572
C 3.68504 23.41402 0.03592
C 3.55466 22.02368 0.00406
C 2.25748 21.36113 0.00943
C 2.28248 19.82344 0.02841
C 3.55842 19.19696 -0.01111
C 3.62708 17.85834 -0.01275
C 2.51067 16.99939 0.00985
C 2.45888 15.64612 -0.02245
C 6.15586 27.70555 0.02162
C 6.23158 26.27447 0.0076
C 4.89675 25.61165 0.01241
C 4.919 24.12967 -0.01454
C 8.6827 26.29027 0.00228
C 7.42203 25.57197 0.00798
C 7.38525 24.15412 0.00422
C 8.70958 23.43379 0.0351
C 8.70419 22.02954 -0.03113
C 7.2974 21.36172 0.02098
C 7.37329 19.85207 0.01848
C 8.68232 19.16086 -0.00619
C 8.86773 17.53001 -0.02162
C 7.52387 17.05808 0.00889
C 8.6298 0.74412 -0.00481
C 7.47903 34.07488 0.00979
C 9.81377 32.67231 0.01443
C 11.12112 32.04644 0.03505
C 11.1171 30.53441 -0.02815
C 8.61314 27.72788 -0.00114
C 18.66564 10.669 -0.02118
C 7.35854 28.43402 -0.02696
C 8.60704 30.55528 -0.0108
C 6.13541 23.44558 0.01945
C 6.09196 21.98285 0.01416
C 4.85602 21.26786 0.03542
C 4.82322 19.87687 0.02299
C 6.09147 19.20152 0.00244
C 6.24035 17.70461 -0.01717
C 4.9277 17.03881 0.05265
C 4.92934 15.64944 -0.01952
C 4.97109 4.39036 -0.02813
C 4.98615 2.9753 0.00374
C 6.08672 2.0997 0.00052
C 6.19666 0.78893 -0.03682
C 4.92028 0.07904 0.01965
C 7.39607 32.68026 0.02058
C 8.60278 31.95263 -0.01957
C 7.34936 29.7956 -0.00368
C 3.69634 32.02412 -0.00719
C 19.4608 9.68932 0.00733
C 20.85037 6.32398 0.00768
C 31.94454 21.29227 -0.01429
C 31.92347 19.98259 -0.0136
C 33.05726 19.16978 0.00594
C 33.20501 17.68604 -0.02474
C 32.24539 16.35299 0.00369
C 32.99997 15.22693 0.00455
C 33.12565 22.02976 -0.02383
C 32.85707 13.73046 -0.00644
C 31.76573 11.548 0.00137
C 33.02065 10.85344 0.00199
C 33.08335 9.40373 0.04381
C 31.82301 8.59614 0.02806
C 31.85589 7.08589 0.01504
C 33.08898 6.43869 -0.00069
C 31.81551 12.91342 -0.01839
C 33.13688 23.44728 0.01574
C 31.94607 24.16069 0.01927
C 32.01521 25.60575 0.03794
C 29.36108 7.17199 0.01908
C 30.56243 6.41963 0.07705
C 30.70996 5.07374 0.0103
C 29.43521 4.33103 0.02108
C 29.44384 2.90781 0.00716
C 30.7534 2.2501 0.00307
C 30.62731 0.76176 0.00346
C 29.41996 0.10062 0.01713
C 31.93059 32.81983 -0.01694
C 33.19893 32.03238 0.01428
C 33.14172 30.65122 -0.02142
C 31.92082 29.96305 0.0544
C 31.9633 28.44018 0.00026
C 33.2477 27.7666 0.00682
C 33.237 26.36698 -0.01779
C 33.20859 5.02072 0.04926
C 29.37169 8.62396 0.01518
C 31.96471 4.37327 -0.03838
C 33.18639 2.19742 -0.00323
C 1.12975 14.95022 -0.02957
C 1.12495 13.4693 0.00343
C 34.2883 12.92937 -0.02656
C 34.26157 11.51428 -0.02442
C 1.14688 10.7893 -0.00027
C 1.01164 9.40576 -0.00583
C 34.41637 15.61203 0.02114
C 34.26029 8.64845 -0.02302
C 1.12025 6.52955 0.02931
C 1.25157 5.02732 0.00628
C 34.42676 4.32618 -0.0345
C 34.3996 2.87615 -0.00931
C 1.24172 2.21196 -0.00939
C 1.17807 0.88709 -0.00468
C 34.30683 7.23176 -0.02849
C 0.04205 17.07318 0.00648
C 1.25877 17.654 0.01223
C 1.0455 19.12674 -0.01678
C 33.14743 0.7591 -0.00841
C 31.87335 0.07012 0.0001
C 34.39324 32.82922 -0.02927
C 1.14129 32.00762 -0.01404
C 1.16969 30.61392 0.01027
C 34.38422 29.96706 0.01831
C 0.00455 28.53866 -0.01037
C 1.21291 27.82207 -0.00439
C 1.24067 26.30997 -0.00598
C 34.41433 25.61281 -0.05239
C 34.36 24.15203 0.03076
C 1.12343 23.52012 0.00723
C 1.08871 22.11751 0.02712
C 34.25918 21.30191 -0.02213
C 34.33246 19.8345 0.01951
C 31.98691 2.93834 0.00349
C 30.58948 9.35196 -0.00971
C 30.54215 10.79161 -0.03735
C 29.37593 11.31089 -0.00944
C 22.03078 4.24657 -0.01679
C 21.93594 2.88543 0.00367
C 23.21008 2.14468 0.04306
C 23.31147 0.72246 0.00996
C 22.10412 34.05399 0.00195
C 24.54195 32.72336 -0.00802
C 23.22419 4.98918 -0.01052
C 25.75965 31.92608 -0.00218
C 24.55375 29.8849 -0.00037
C 24.55394 28.34444 -0.0032
C 25.73741 27.6178 0.00622
C 25.75842 26.02771 -0.02815
C 24.51437 25.48529 -0.00942
C 25.72805 9.2538 0.00487
C 25.79827 30.56706 -0.01654
C 23.12478 6.53128 0.00684
C 21.80143 7.1976 -0.01154
C 21.98576 8.7576 -0.0264
C 20.62654 4.96898 -0.0276
C 19.4541 4.12156 0.03005
C 19.43172 2.78489 -0.04078
C 20.71564 2.0887 0.02117
C 20.81924 0.68809 0.02737
C 19.6519 33.97948 -0.00498
C 22.13537 32.68825 0.00135
C 23.33137 32.0213 0.03102
C 23.32895 30.46764 0.02555
C 22.07024 29.73491 0.01423
C 22.09413 28.31072 -0.00285
C 23.36031 27.55819 -0.009
C 23.29155 26.12641 -0.01199
C 22.05607 25.43439 -0.00229
C 23.13616 9.36261 -0.00938
C 24.39248 8.702 0.00826
C 24.39943 7.11115 -0.00294
C 25.73042 6.52963 0.00152
C 25.70599 5.01187 0.01257
C 27.02342 4.29117 0.00261
C 26.9069 2.8132 0.03265
C 28.13683 2.14685 -0.02049
C 28.15216 0.7277 -0.01854
C 27.01783 0.01602 -0.01415
C 29.42213 32.70877 -0.03039
C 30.65065 32.03457 0.01836
C 30.67767 30.58254 0.03531
C 29.43897 29.83091 -0.00669
C 29.42547 28.36581 0.0101
C 30.671 27.76447 0.01705
C 30.73079 26.33106 -0.0405
C 29.49474 25.66235 -0.01303
C 29.51202 24.23756 -0.01461
C 30.68671 23.56249 -0.02155
C 28.19516 4.95994 0.02326
C 20.67548 9.41326 -0.00178
C 28.16959 6.38438 0.00924
C 26.88034 8.67723 0.01324
C 24.46047 4.25716 0.02316
C 24.44023 2.82655 0.04185
C 25.6732 2.1627 0.00194
C 25.77554 0.7437 -0.00621
C 24.50766 0.00796 0.02611
C 26.96489 32.63556 0.02198
C 28.21496 31.98657 0.01094
C 28.27326 30.5501 0.00235
C 27.00462 29.80201 0.01495
C 26.99372 28.32638 0.01259
C 28.26365 27.66005 0.01799
C 28.17384 26.26505 0.01699
C 27.02524 25.52772 -0.00416
C 28.18887 10.66995 0.01177
C 28.20086 9.32766 0.04266
C 26.95441 7.15236 0.0014
C 2.39421 32.73359 0.01641
