409
Graphene
C 0.01487 0.0258 0.01295
C 12.34165 34.05603 -0.01536
C 14.7159 32.72176 -0.02689
C 16.00194 31.99887 -0.01046
C 16.03993 30.51259 -0.00891
C 14.8218 29.86429 0.02819
C 14.7795 28.43363 0.00165
C 15.93961 27.66927 -0.02971
C 15.95047 26.24845 0.02894
C 14.71516 25.46406 -0.01789
C 14.79311 24.09316 0.00444
C 15.98298 23.49344 -0.00925
C 15.98847 13.44439 0.01877
C 14.83353 12.77022 0.01363
C 14.78056 11.33247 -0.02162
C 15.95299 10.72066 0.00415
C 16.0009 9.20916 -0.0014
C 14.76684 8.46044 0.02162
C 14.71207 7.05112 0.0076
C 16.03635 6.32056 0.01241
C 15.94056 4.93403 -0.01454
C 14.72044 4.31036 0.01945
C 13.53347 0.67803 0.03101
C 13.48143 2.18802 -0.00428
C 12.22273 2.90452 -0.02245
C 12.32808 4.30435 0.00985
C 11.11341 4.98734 0.00438
C 9.84593 4.29006 0.01291
C 9.86532 2.85978 0.00093
C 11.06019 2.14429 0.00057
C 11.08805 0.71624 -0.01634
C 9.87951 0.03473 -0.00334
C 12.311 32.73938 0.02339
C 13.51221 31.9774 0.01641
C 13.53876 30.60284 -0.00719
C 12.32014 29.79401 0.01364
C 14.75357 2.8541 0.01416
C 12.33287 28.45342 -0.01062
C 13.57263 26.25735 0.03589
C 12.2706 25.49771 -0.02759
C 12.29182 12.81386 0.0402
C 12.29938 11.34188 0.00572
C 13.45608 10.64443 0.03592
C 13.53929 9.23005 0.00406
C 12.35802 8.52151 0.00943
C 12.28846 7.1358 0.02841
C 13.53356 6.41261 -0.01111
C 13.49417 5.07763 -0.01275
C 13.51079 27.72265 -0.00033
C 11.05735 6.35352 -0.00191
C 15.98052 2.10096 0.03542
C 14.77804 0.04572 0.00244
C 18.45299 2.11803 0.01443
C 18.41066 0.7141 0.03505
C 17.20967 0.01204 -0.02815
C 19.70364 32.65736 -0.04147
C 20.94673 32.02036 -0.05302
C 20.90317 30.49068 0.00213
C 19.68394 29.81222 -0.00066
C 19.69 28.38814 -0.00289
C 20.98002 27.65456 0.00028
C 20.87688 26.2699 -0.02213
C 19.65806 25.54595 0.03698
C 19.68848 24.06489 -0.00109
C 20.91377 23.37795 -0.00491
C 20.87882 22.03067 0.03338
C 19.6311 21.29824 -0.0258
C 19.62342 19.8879 -0.0331
C 20.82792 19.22543 -0.00316
C 20.89282 17.79512 0.02188
C 19.67425 17.05001 -0.01979
C 19.72003 15.60729 0.02691
C 20.91528 14.90495 -0.01581
C 17.21165 2.85792 0.00979
C 17.20832 4.29573 -0.00481
C 18.48068 4.99866 0.00889
C 18.44177 6.41406 -0.02162
C 17.23694 32.62416 -0.01717
C 18.43892 31.90928 0.05265
C 18.42973 30.50768 -0.01952
C 17.25207 29.82623 -0.02813
C 17.18735 28.38964 0.00374
C 18.40678 27.69609 0.00052
C 18.42521 26.29467 -0.03682
C 17.2123 25.54957 0.01965
C 17.16669 24.11583 0.02058
C 18.4326 23.43499 -0.01957
C 16.04949 0.69416 0.02299
C 18.42857 22.00439 -0.0108
C 18.44627 17.69882 -0.02696
C 17.18869 15.59049 -0.00114
C 18.44616 14.91139 0.00228
C 18.40297 13.46403 0.00798
C 17.21557 12.78232 0.00422
C 17.25817 11.36443 0.0351
C 18.4168 10.67695 -0.03113
C 18.46612 9.17947 0.02098
C 17.1965 8.51546 0.01848
C 17.20192 7.11098 -0.00619
C 18.46124 19.16673 -0.00368
C 9.84521 7.05239 0.00373
C 9.81311 8.53514 0.02147
C 11.02423 9.25231 -0.014
C 2.42208 2.85908 -0.003
C 3.66678 2.1536 0.01402
C 3.68418 0.77196 0.02379
C 2.48548 34.04974 0.00907
C 4.92533 32.69121 0.00643
C 6.15327 31.97067 -0.01509
C 6.16305 30.53421 0.03267
C 4.872 29.89582 0.02374
C 4.96504 28.42972 0.00402
C 6.15463 27.67115 0.0073
C 6.11385 26.26434 0.0174
C 4.87152 25.57814 0.03828
C 4.95295 24.08948 0.01226
C 6.18322 23.46332 -0.00279
C 6.13185 22.01281 0.01996
C 4.99386 21.28817 -0.03996
C 4.94159 19.87489 0.01465
C 6.08137 19.10664 -0.00074
C 6.13375 17.87823 -0.00518
C 4.96289 17.04452 0.0086
C 4.93903 15.59985 -0.00643
C 2.43591 4.27981 0.00031
C 3.71292 4.94581 0.03189
C 3.65145 6.33881 -0.04307
C 2.48742 7.05844 0.03284
C 3.60576 30.52075 -0.02375
C 2.44138 29.88356 0.00558
C 2.41837 28.44207 -0.0059
C 3.69511 27.69397 -0.01386
C 3.70968 26.29682 -0.02805
C 2.46372 25.48813 0.00081
C 2.49945 24.14337 0.00245
C 3.72118 23.46609 0.02728
C 3.6617 22.04778 -0.00039
C 2.42313 21.29431 0.0064
C 6.12028 14.87602 0.017
C 2.4549 19.85144 0.00211
C 3.73949 17.73404 -0.01979
C 2.45344 17.00862 0.02784
C 2.43423 15.6426 -0.01977
C 3.69223 14.961 -0.00561
C 3.66808 13.50262 0.00208
C 2.51905 12.78958 0.01707
C 2.53006 11.38341 0.02769
C 3.73545 10.67294 -0.03291
C 3.66059 9.13406 -0.04999
C 2.45535 8.48463 0.04505
C 3.66916 19.16234 -0.00449
C 6.10826 13.42689 -0.03113
C 4.92785 12.77558 -0.02566
C 4.90665 11.3804 -0.00094
C 8.59817 9.24092 0.00054
C 7.4114 8.45023 0.03007
C 7.36509 7.11403 -0.00095
C 8.58166 6.41706 0.01572
C 8.60932 4.99001 -0.04848
C 7.36593 4.24022 -0.00892
C 7.37001 2.846 -0.01362
C 8.63371 2.1845 -0.0008
C 8.61604 0.72428 0.0288
C 7.3552 0.06112 0.00393
C 8.64671 10.62065 -0.00494
C 9.84885 32.71352 0.00895
C 11.06731 30.55009 0.02888
C 9.86714 29.86292 -0.00482
C 9.78754 28.4558 -0.01384
C 11.05535 27.7282 0.03693
C 11.08347 26.26366 0.01745
C 9.77746 25.56053 0.00488
C 9.7643 24.17191 -0.01004
C 9.82059 12.81101 -0.02896
C 9.86204 11.36987 -0.00131
C 11.04911 10.66443 -0.01118
C 11.04275 32.01021 0.00685
C 20.92727 13.49496 0.01452
C 7.31638 11.33576 -0.00562
C 8.59266 13.54565 0.01849
C 6.13028 10.60117 0.02322
C 6.18166 9.18558 -0.00725
C 4.87747 8.56829 -0.05697
C 4.88636 7.12963 0.01087
C 6.18786 6.43769 -0.01343
C 6.15546 4.93411 0.00988
C 4.89617 4.29194 0.0276
C 4.86266 2.85252 0.01305
C 6.1411 2.15037 -0.00077
C 6.12885 0.7623 0.03368
C 7.32839 12.78608 -0.01142
C 4.89408 0.00425 -0.02929
C 8.57151 31.90792 -0.03337
C 8.62243 30.57971 0.01227
C 7.3596 29.83496 0.00873
C 7.39724 28.43442 -0.00049
C 8.60257 27.66103 0.00848
C 8.60886 26.27329 -0.01303
C 7.37955 25.61056 -0.01378
C 7.42274 24.13525 0.02635
C 8.67143 23.52741 0.0127
C 7.35546 15.5846 0.01396
C 7.36508 32.68033 -0.00966
C 3.67041 31.96152 0.00828
C 19.62466 12.81909 0.04892
C 20.93715 10.64001 -0.03557
C 29.51543 8.4776 -0.00971
C 29.56662 7.06943 0.01518
C 30.74683 6.42334 0.01908
C 30.74296 4.99985 0.07705
C 29.51239 4.26128 0.0103
C 29.50467 2.83596 0.02108
C 30.73901 2.10749 0.00716
C 30.73232 0.72191 0.00307
C 29.55341 0.02172 0.00346
C 31.96801 32.58616 0.01713
C 33.2387 31.91592 -0.01694
C 33.21658 30.54009 0.01428
C 31.97318 29.84265 -0.02142
C 31.99347 28.35636 0.0544
C 33.1694 27.70828 0.00026
C 33.23301 26.22993 0.00682
C 31.93296 25.51701 -0.01779
C 31.95141 24.16565 0.03794
C 33.18735 23.40336 0.01927
C 33.17935 22.02657 0.01574
C 31.97969 21.31953 -0.02383
C 30.75145 9.19398 -0.03735
C 30.77672 10.62323 -0.00944
C 29.52914 11.39209 -0.02155
C 29.56208 12.77701 -0.01461
C 28.27981 2.05968 0.01799
C 28.29406 0.70319 0.01699
C 27.0947 34.04511 -0.00416
C 29.47389 32.64885 0.01177
C 30.76266 31.91519 0.04266
C 30.73966 30.53296 0.01324
C 29.49858 29.824 0.0014
C 29.53824 28.44678 0.00924
C 30.74792 27.67619 0.02326
C 30.75892 26.3025 0.00261
C 31.93605 19.91257 -0.01429
C 29.51359 25.5409 0.03265
C 30.75173 23.43199 -0.01854
C 30.79325 22.06875 -0.01415
C 29.574 21.30568 -0.03039
C 29.49242 19.82472 0.01836
C 30.73524 19.18609 0.03531
C 30.7551 17.74875 -0.00669
C 29.53097 17.08666 0.0101
C 29.47771 15.54244 0.01705
C 30.73379 14.89287 -0.0405
C 30.73572 13.49162 -0.01303
C 29.56988 24.10303 -0.02049
C 27.00456 2.80923 0.01259
C 33.15563 19.19236 -0.0136
C 31.96848 17.00636 -0.02474
C 1.18026 22.0224 0.02712
C 34.41385 21.25408 -0.02213
C 34.42854 19.93658 0.01951
C 1.24211 19.21784 -0.01678
C 1.22448 17.7429 0.01223
C 0.00032 17.00765 0.00648
C 34.38213 15.58498 0.02114
C 1.1673 14.92166 -0.02957
C 1.23793 13.51365 0.00343
C 0.04304 12.72324 -0.02656
C 34.42019 11.35035 -0.02442
C 1.19728 10.71582 -0.00027
C 1.23986 9.25501 -0.00583
C 34.41562 8.5787 -0.02302
C 34.40367 7.11869 -0.02849
C 1.18491 6.36878 0.02931
C 1.2201 4.98776 0.00628
C 0.01455 4.23714 -0.0345
C 0.0216 2.82734 -0.00931
C 1.22889 2.11107 -0.00939
C 1.23454 0.70249 -0.00468
C 1.21042 23.46173 0.00723
C 34.40896 24.21429 0.03076
C 0.00249 25.53666 -0.05239
C 1.24334 26.23773 -0.00598
C 31.94453 15.59153 0.00369
C 33.20886 14.90472 0.00455
C 33.2582 13.47327 -0.00644
C 31.90317 12.72737 -0.01839
C 31.9386 11.33796 0.00137
C 33.19979 10.64723 0.00199
C 33.17433 9.19464 0.04381
C 31.94703 8.53197 0.02806
C 31.99051 7.0817 0.01504
C 33.2082 6.38836 -0.00069
C 33.21983 17.77254 0.00594
C 33.18815 4.95628 0.04926
C 31.99574 2.80446 0.00349
C 33.1864 2.09902 -0.00323
C 33.17174 0.68079 -0.00841
C 31.9778 34.07209 0.0001
C 0.03562 32.63881 -0.02927
C 1.21592 31.98654 -0.01404
C 1.15887 30.52594 0.01027
C 34.36918 29.79605 0.01831
C 0.001 28.35408 -0.01037
C 1.1963 27.68322 -0.00439
C 32.01016 4.2526 -0.03838
C 27.0737 4.24155 0.01495
C 28.20479 4.97571 0.00235
C 28.24244 6.33356 0.01094
C 22.13164 15.59665 0.00096
C 23.35064 14.89182 -0.01527
C 23.40854 13.43516 0.01087
C 22.178 12.72441 0.00199
C 22.157 11.33544 0.01511
C 23.35737 10.65611 -0.00478
C 23.37214 9.16938 -0.01662
C 22.09542 8.48643 -0.01185
C 22.13838 7.1042 0.01126
C 23.40367 6.31727 0.01852
C 23.42607 4.92258 -0.00381
C 22.11528 4.21537 0.03046
C 22.14095 2.82834 0.0296
C 23.37738 2.12338 0.03374
C 23.36357 0.68198 -0.02845
C 22.17261 0.00489 -0.03213
C 24.57322 32.68618 0.02239
C 25.84314 31.96247 0.01153
C 25.8413 30.50819 0.02734
C 24.63126 29.82567 -0.0055
C 24.62134 28.4377 0.01515
C 22.13146 17.05742 0.01277
C 23.37367 17.68292 -0.02422
C 23.33949 19.17359 -0.01721
C 22.14608 19.906 -0.01154
C 20.8955 9.28092 0.03754
C 19.66016 8.51027 0.01739
C 19.6734 7.1162 0.00755
C 20.88839 6.41092 -0.0054
C 20.90123 4.96086 0.00667
C 19.71228 4.27533 0.00143
C 19.66713 2.89609 -0.017
C 20.9117 2.12229 0.00364
C 20.94702 0.77283 -0.00831
C 19.71538 0.01944 -0.02957
C 25.85298 27.67784 -0.00225
C 22.07865 32.64255 -0.04422
C 23.38372 30.54092 -0.00703
C 22.13048 29.79492 -0.04076
C 22.29139 28.44622 -0.00652
C 23.3607 27.71186 0.0058
C 23.36668 26.25275 -0.00865
C 22.1554 25.54312 0.00675
C 22.05255 24.14656 -0.00311
C 23.30125 23.4371 0.00742
C 23.3326 21.98172 -0.01594
C 22.11357 21.2881 0.0106
C 23.39203 31.93961 0.00654
C 25.73079 26.25459 0.00071
C 24.5823 25.5515 -0.01107
C 24.56133 24.14814 -0.01586
C 27.03268 29.80691 0.04306
C 27.01758 28.42563 0.00996
C 28.2803 27.70128 0.00195
C 28.28744 26.26283 -0.00802
C 27.03898 25.59221 -0.00218
C 27.06523 24.07497 -0.01654
C 28.30798 23.41124 -0.00037
C 28.29728 21.99376 -0.0032
C 27.05009 21.29198 0.00622
C 27.12563 19.93148 -0.02815
C 28.28676 30.54206 0.00367
C 28.24757 19.10545 -0.00942
C 27.02919 17.0181 0.00826
C 27.03319 15.65998 -0.00294
C 28.2389 14.92201 0.00152
C 28.29063 13.47531 0.01257
C 27.09471 12.79558 0.02316
C 27.08982 11.36101 0.04185
C 28.28467 10.66238 0.00194
C 28.26688 9.19077 -0.00621
C 27.05361 8.5606 0.02611
C 27.05978 7.10481 0.02198
C 28.24345 17.718 0.00487
C 19.66074 11.34353 -0.00111
C 28.30583 31.91614 -0.01679
C 24.56915 0.00534 0.00684
C 25.83325 23.4352 -0.01971
C 25.82911 21.98594 -0.02118
C 24.57628 21.34641 0.00733
C 24.62074 19.89131 -0.00178
C 25.77457 19.16845 0.00768
C 25.82937 17.7428 -0.0276
C 24.59435 17.06612 0.03005
C 24.57657 15.66016 -0.04078
C 25.82343 14.89678 0.02117
C 25.82954 13.46813 0.02737
C 27.12929 32.63198 -0.01052
C 24.59401 12.84216 -0.00498
C 25.84064 10.65208 0.03102
C 25.8176 9.2468 0.02555
C 24.59206 8.49885 0.01423
C 24.60639 7.0249 -0.00285
C 25.78849 6.34818 -0.009
C 25.88093 4.94419 -0.01199
C 24.58183 4.25043 -0.00229
C 24.55914 2.87598 -0.00938
C 25.81105 2.1346 -0.0264
C 25.80643 0.72823 -0.01154
C 24.62306 11.37128 0.00135
C 2.41073 32.59995 0.00088
