347
Graphene
C 34.28988 34.06929 0.01295
C 18.49058 31.94757 0.0351
C 18.42677 30.53095 -0.03113
C 17.25792 29.8445 0.02098
C 17.16219 28.42274 0.01848
C 18.41065 27.69319 -0.00619
C 18.39167 26.22696 -0.02162
C 17.19333 25.58534 0.00889
C 17.22823 24.16079 -0.00481
C 18.51499 23.43819 0.00979
C 18.45165 22.02389 0.01443
C 17.18553 21.22042 0.03505
C 17.15641 19.83623 -0.02815
C 18.46307 19.10749 -0.04147
C 18.51932 17.62911 -0.05302
C 17.28342 16.86072 0.00213
C 17.32331 15.49613 -0.00066
C 18.53166 14.73757 -0.00289
C 17.23507 32.69897 0.00422
C 14.5666 0.1055 0.00798
C 15.82872 0.71779 0.00228
C 15.80556 2.1552 -0.00114
C 14.69704 32.68493 0.01945
C 16.06667 32.01262 0.01416
C 15.97967 30.53134 0.03542
C 14.73252 29.95624 0.02299
C 14.64073 28.5305 0.00244
C 15.87426 27.78442 -0.01717
C 15.94195 26.2552 0.05265
C 14.63733 25.53714 -0.01952
C 18.40248 13.23986 0.00028
C 14.70164 24.16245 -0.02813
C 15.95125 21.99713 0.00052
C 14.82256 21.22728 -0.03682
C 14.69695 19.74954 0.01965
C 15.89651 19.1024 0.02058
C 15.99247 17.65763 -0.01957
C 14.6242 16.86252 -0.0108
C 14.94436 15.46262 -0.00368
C 16.01769 14.96699 -0.02696
C 15.93832 23.46881 0.00374
C 17.57658 12.04183 -0.02213
C 18.20307 10.99082 0.03698
C 18.3435 9.52069 -0.00109
C 19.68831 16.8734 -0.02957
C 19.7337 15.48738 -0.04422
C 21.0007 14.88333 0.00654
C 20.94932 13.42146 -0.00703
C 19.76278 12.68703 -0.04076
C 19.71261 11.36319 -0.00652
C 20.86396 10.6456 0.0058
C 20.84245 9.23014 -0.00865
C 20.86598 17.65542 -0.00831
C 19.49868 8.74369 0.00675
C 20.74891 6.51308 0.00742
C 20.79546 5.06435 -0.01594
C 19.49949 4.36887 0.0106
C 19.52199 2.97592 -0.01154
C 20.73651 2.27198 -0.01721
C 20.79595 0.87148 -0.02422
C 19.63247 0.124 0.01277
C 22.05158 32.75656 0.00096
C 19.45888 7.2762 -0.00311
C 11.97094 0.05231 -0.01454
C 20.83836 19.17268 0.00364
C 19.68458 21.267 0.00143
C 18.31889 6.50072 -0.00491
C 18.1824 5.10744 0.03338
C 17.16676 4.20418 -0.0258
C 17.02074 2.85247 -0.0331
C 18.37802 2.18898 -0.00316
C 18.28492 0.78206 0.02188
C 17.12149 34.07357 -0.01979
C 19.61661 32.81744 0.02691
C 19.63953 19.83723 -0.017
C 20.90917 32.01187 -0.01581
C 19.70289 29.89597 0.04892
C 19.6442 28.46046 -0.00111
C 20.8626 27.77913 -0.03557
C 20.90958 26.32339 0.03754
C 19.64986 25.52551 0.01739
C 19.6874 24.18316 0.00755
C 20.94514 23.3838 -0.0054
C 20.92567 21.942 0.00667
C 20.91522 30.61125 0.01452
C 23.31095 32.02801 -0.01527
C 13.33701 0.6283 0.01241
C 13.47473 17.59101 0.02162
C 4.83794 29.93586 -0.0008
C 4.8936 28.51119 0.0288
C 6.11084 27.81693 0.00393
C 6.12774 26.35674 0.00895
C 4.89598 25.68138 0.00685
C 4.90196 24.11447 0.02888
C 6.08312 23.42538 -0.00482
C 6.13111 21.95752 -0.01384
C 4.94633 21.28052 0.03693
C 4.96218 19.85217 0.01745
C 6.18746 19.16786 0.00488
C 6.18945 17.74035 -0.01004
C 4.9932 17.2129 -0.02896
C 6.08107 0.63669 -0.00131
C 4.75633 0.18421 -0.01118
C 7.29639 32.81878 -0.014
C 8.52651 32.08441 0.02147
C 6.09374 30.64356 -0.01362
C 6.05429 32.05089 -0.00892
C 4.7693 32.72685 -0.04848
C 2.27541 0.09308 0.01572
C 3.60586 30.59873 -0.00966
C 2.34782 29.81404 -0.03337
C 2.37263 28.35967 0.01227
C 3.66659 27.75559 0.00873
C 3.65129 26.27922 -0.00049
C 2.37828 25.61481 0.00848
C 2.39447 24.21137 -0.01303
C 3.63327 23.48076 -0.01378
C 8.56527 30.68496 0.00373
C 3.64728 21.98666 0.02635
C 2.51593 19.95713 0.01396
C 3.75365 19.23527 0.01849
C 3.79186 17.76391 -0.01142
C 2.49531 17.12248 -0.00562
C 2.45665 15.7452 -0.00494
C 2.10203 3.0431 0.00054
C 3.2043 2.29931 0.03007
C 3.49698 1.01731 -0.00095
C 2.42406 21.30909 0.0127
C 7.36825 29.99982 -0.00191
C 7.37335 28.54907 0.00438
C 8.47705 27.76344 0.01291
C 9.83447 19.98507 -0.00428
C 11.10141 19.13014 0.03101
C 11.02209 17.76974 -0.01536
C 10.50413 0.22245 -0.02689
C 12.31054 32.75609 -0.01046
C 13.51144 32.01595 -0.00891
C 13.52622 30.65521 0.02819
C 12.2768 29.95982 0.00165
C 9.82834 21.39882 -0.02245
C 12.19652 28.52975 -0.02971
C 13.52911 26.40196 -0.01789
C 12.28876 25.65699 0.00444
C 12.32761 24.13085 -0.00925
C 13.55171 23.40878 0.01877
C 13.57837 21.99255 0.01363
C 12.22451 21.33552 -0.02162
C 12.24867 19.91034 0.00415
C 13.47719 19.16728 -0.0014
C 13.41325 27.77626 0.02894
C 12.13057 17.19867 0.0076
C 11.05612 22.10187 0.00985
C 9.81818 24.13508 -0.01111
C 8.60773 26.29996 0.00093
C 7.29357 25.56313 0.00057
C 7.26018 24.18702 -0.01634
C 8.56331 23.5128 -0.00334
C 8.54812 22.09248 0.02339
C 7.36571 21.33269 0.01641
C 7.43521 19.93049 -0.00719
C 8.65773 19.15531 0.01364
C 11.11745 23.4491 -0.01275
C 8.72008 17.69559 -0.01062
C 9.92562 32.89751 0.03589
C 10.99254 32.01808 -0.02759
C 11.0378 30.65593 0.0402
C 9.77321 29.80801 0.00572
C 9.7563 28.44371 0.03592
C 10.99569 27.73581 0.00406
C 11.07437 26.33143 0.00943
C 9.8372 25.65375 0.02841
C 7.15857 0.16617 -0.00033
C 3.5814 31.99832 -0.02929
C 23.36137 30.4568 0.01087
C 22.09479 28.45411 0.01511
C 30.66797 2.21282 0.01428
C 30.65366 0.767 -0.02142
C 29.45326 0.077 0.0544
C 31.90297 32.67428 0.00026
C 33.16471 31.94108 0.00682
C 33.06544 30.49348 -0.01779
C 31.85453 29.83202 0.03794
C 31.84691 28.3445 0.01927
C 33.09143 27.67094 0.01574
C 33.16364 26.27223 -0.02383
C 31.9184 25.59669 -0.01429
C 31.9134 24.17822 -0.0136
C 33.07742 23.41806 0.00594
C 33.09103 22.0563 -0.02474
C 31.9192 21.25443 0.00369
C 31.97633 19.84988 0.00455
C 33.29627 19.17602 -0.00644
C 29.46673 2.93891 -0.01694
C 29.49601 4.32742 0.01713
C 30.79769 4.97796 0.00346
C 30.65918 6.39455 0.00307
C 30.64439 31.95888 0.01836
C 30.64492 30.56342 0.03531
C 29.41861 29.92088 -0.00669
C 29.42046 28.49095 0.0101
C 30.62464 27.68082 0.01705
C 30.70245 26.3142 -0.0405
C 29.46238 25.52926 -0.01303
C 29.46969 24.14682 -0.01461
C 33.13319 17.81443 -0.01839
C 30.70892 23.34835 -0.02155
C 29.50318 21.36806 -0.03735
C 29.4711 19.84519 -0.00971
C 30.68529 19.11662 0.01518
C 30.77028 17.71474 0.01908
C 29.53647 17.04355 0.07705
C 30.77469 9.32697 0.0103
C 29.51485 8.69422 0.02108
C 29.50358 7.22535 0.00716
C 30.71413 21.93163 -0.00944
C 31.99539 17.03402 0.00137
C 32.06643 15.6649 0.00199
C 33.30416 15.05496 0.04381
C 1.23789 22.02036 -0.01678
C 34.36591 21.3745 0.01223
C 0.04621 19.93713 0.00648
C 1.30377 19.22293 0.02114
C 1.32386 17.85155 -0.02957
C 0.07728 17.26806 0.00343
C 0.0117 15.83184 -0.02656
C 1.3046 15.07304 -0.02442
C 1.17499 23.40554 0.01951
C 0.97786 13.68595 -0.00027
C 34.22656 11.36907 -0.02302
C 0.01332 8.10726 -0.02849
C 34.43263 6.92356 0.02931
C 1.56045 4.30607 0.00628
C 0.18242 4.15847 -0.0345
C 34.28531 2.8338 -0.00931
C 1.02604 2.13179 -0.00939
C 1.07389 0.69926 -0.00468
C 34.41369 12.65664 -0.00583
C 29.44237 32.72939 -0.03039
C 34.3404 24.06854 -0.02213
C 1.17686 26.29965 0.00723
C 33.71991 13.79932 0.02806
C 33.42003 10.31084 0.01504
C 33.31775 8.99064 -0.00069
C 32.00804 8.43449 0.04926
C 31.94788 6.91244 -0.03838
C 33.21538 6.19069 0.00349
C 33.3607 4.75942 -0.00323
C 31.99389 4.20761 -0.00841
C 34.34008 25.54551 0.02712
C 31.86309 2.81582 0.0001
C 33.10124 0.73129 -0.01404
C 31.88557 0.04543 0.01027
C 34.31763 32.64772 0.01831
C 1.09052 32.08217 -0.01037
C 1.13472 30.54009 -0.00439
C 34.35321 29.82212 -0.00598
C 34.33785 28.40016 -0.05239
C 1.12637 27.68096 0.03076
C 33.04337 2.11506 -0.02927
C 22.08737 29.87302 0.00199
C 27.00891 0.04155 -0.01415
C 28.26133 2.19661 -0.02049
C 21.97051 4.373 0.00733
C 21.99621 2.9007 -0.00178
C 23.29509 2.16652 0.00768
C 23.25918 0.79705 -0.0276
C 22.05059 0.11956 0.03005
C 24.53705 32.65681 -0.04078
C 25.75906 32.01064 0.02117
C 25.787 30.51772 0.02737
C 24.57373 29.79155 -0.00498
C 24.53142 28.31884 0.00135
C 25.74991 27.61283 0.03102
C 25.74685 26.17722 0.02555
C 24.56386 25.52693 0.01423
C 24.64543 24.12828 -0.00285
C 25.80847 23.48411 -0.009
C 25.79786 22.03696 -0.01199
C 24.58971 21.32387 -0.00229
C 23.23547 4.94529 -0.02118
C 23.2406 6.38541 -0.01971
C 22.02063 7.13616 -0.01586
C 22.04297 8.49405 -0.01107
C 23.26862 27.65359 -0.00478
C 23.31124 26.24956 -0.01662
C 22.13087 25.56622 -0.01185
C 22.1915 24.08363 0.01126
C 23.38952 23.41765 0.01852
C 23.37495 21.96705 -0.00381
C 22.1532 21.16827 0.03046
C 22.11705 19.71555 0.0296
C 24.63483 19.85285 -0.00938
C 23.39133 19.03502 0.03374
C 22.16231 16.92991 -0.03213
C 22.20885 15.59756 0.02239
C 23.52734 14.7616 0.01153
C 23.37357 13.37132 0.02734
C 22.13538 12.68912 -0.0055
C 22.15057 11.29705 0.01515
C 23.38319 10.53166 -0.00225
C 23.2825 9.18736 0.00071
C 23.44893 17.61303 -0.02845
C 25.84693 19.1069 -0.0264
C 25.89671 17.63381 -0.01154
C 24.67617 16.95775 0.00684
C 28.18644 26.24365 -0.00621
C 26.97183 25.50821 0.02611
C 27.0238 24.13801 0.02198
C 28.25495 23.4272 0.01094
C 28.27736 22.05193 0.00235
C 26.98804 21.31428 0.01495
C 26.9984 19.88107 0.01259
C 28.25923 19.09118 0.01799
C 28.1802 27.74154 0.00194
C 28.29637 17.69436 0.01699
C 27.20064 15.43147 0.01177
C 28.30179 9.30283 0.04266
C 27.01027 8.58718 0.01324
C 26.97676 7.16531 0.0014
C 28.30874 6.5725 0.00924
C 28.36124 5.08855 0.02326
C 27.07084 4.43439 0.00261
C 27.06884 3.01199 0.03265
C 27.12468 16.9447 -0.00416
C 28.22633 0.82096 -0.01854
C 26.95986 28.34699 0.04185
C 28.153 30.58883 0.01257
C 24.69704 15.44353 -0.01052
C 26.01337 14.68219 -0.01679
C 25.8599 13.30058 0.00367
C 24.53914 12.74205 0.04306
C 24.4933 11.37796 0.00996
C 25.67883 10.65457 0.00195
C 25.75315 9.25376 -0.00802
C 24.55796 8.53074 -0.00218
C 26.87796 29.74306 0.02316
C 24.47387 7.1185 -0.01654
C 25.77522 5.03271 -0.0032
C 24.47276 4.31222 0.00622
C 24.54817 2.91646 -0.02815
C 25.85009 2.30583 -0.00942
C 25.77875 0.78408 0.00487
C 24.47045 0.0079 0.00826
C 27.03343 32.70902 -0.00294
C 28.18622 31.98881 0.00152
C 25.77287 6.37618 -0.00037
C 2.30572 32.74111 0.03368
