352
Graphene
C 0.02023 0.036 0.01295
C 11.13578 0.6343 -0.00114
C 9.79795 0.06764 0.00228
C 12.30269 28.43367 0.00798
C 13.54098 27.68838 0.00422
C 13.55316 26.31616 0.0351
C 12.33161 25.57554 -0.03113
C 12.24072 24.08015 0.02098
C 13.45411 23.41314 0.01848
C 11.0425 2.00633 -0.02696
C 12.36825 7.00717 -0.00619
C 13.60131 5.00993 0.00889
C 12.32557 4.22168 -0.00481
C 12.3323 2.80342 0.00979
C 13.5658 2.11262 0.01443
C 13.48092 0.77311 0.03505
C 12.31549 34.04627 -0.02815
C 14.76853 32.60924 -0.04147
C 15.91276 31.91096 -0.05302
C 13.51051 6.36214 -0.02162
C 15.9121 30.49933 0.00213
C 9.80679 2.86951 -0.00368
C 11.08894 4.91941 -0.01957
C 7.32947 2.89369 0.02162
C 8.51835 2.20912 0.0076
C 8.61372 0.76072 0.01241
C 7.40008 0.03667 -0.01454
C 9.82383 32.70812 0.01945
C 9.83746 29.84728 0.01416
C 9.84807 28.45477 0.03542
C 11.09873 27.70603 0.02299
C 9.85711 4.28192 -0.0108
C 11.1022 26.341 0.00244
C 9.79639 24.1343 0.05265
C 11.03383 23.46242 -0.01952
C 11.08334 21.94971 -0.02813
C 9.88319 21.25495 0.00374
C 9.83673 19.91552 0.00052
C 9.95951 8.49327 -0.03682
C 9.8152 7.05151 0.01965
C 11.06685 6.42881 0.02058
C 9.86574 25.52511 -0.01717
C 7.30844 4.2667 -0.0014
C 14.78171 29.77475 -0.00066
C 16.09161 27.69234 0.00028
C 17.20912 2.86314 -0.017
C 18.46165 2.17209 0.00364
C 18.39961 0.83468 -0.00831
C 17.20235 0.04922 -0.02957
C 19.6476 32.60539 -0.04422
C 20.90547 31.91631 0.00654
C 20.92116 30.57607 -0.00703
C 19.68485 29.79488 -0.04076
C 17.1817 4.31295 0.00143
C 19.67322 28.40698 -0.00652
C 20.94874 26.23367 -0.00865
C 19.73162 25.63564 0.00675
C 19.68416 24.09981 -0.00311
C 20.90745 23.39677 0.00742
C 21.03403 21.94192 -0.01594
C 21.05764 6.3514 0.0106
C 20.82698 4.96989 -0.01154
C 19.62181 4.25845 -0.01721
C 20.93256 27.63827 0.0058
C 14.78778 28.36742 -0.00289
C 18.42573 5.01121 0.00667
C 17.16267 24.07393 0.00755
C 15.9652 26.27326 -0.02213
C 14.70014 25.61588 0.03698
C 14.72164 24.11821 -0.00109
C 15.95252 23.45343 -0.00491
C 16.00556 4.89542 0.03338
C 14.78256 4.26753 -0.0258
C 14.77162 2.87173 -0.0331
C 15.98952 2.17775 -0.00316
C 18.50553 23.46156 -0.0054
C 15.97994 0.73338 0.02188
C 17.21927 32.63577 0.02691
C 18.41405 31.91755 -0.01581
C 18.44516 30.51905 0.01452
C 17.26192 29.84691 0.04892
C 17.21793 28.41238 -0.00111
C 18.42402 27.70621 -0.03557
C 18.41418 26.28657 0.03754
C 17.21303 25.54199 0.01739
C 14.68814 34.06746 -0.01979
C 19.67947 2.87038 -0.02422
C 8.6414 4.95053 0.00415
C 7.35016 7.10414 0.01363
C 2.43335 7.02415 -0.00095
C 3.65266 6.36463 0.01572
C 3.67197 4.95374 -0.04848
C 2.39575 4.22515 -0.00892
C 2.48689 2.82677 -0.01362
C 3.7345 2.16344 -0.0008
C 3.66283 0.7868 0.0288
C 2.49267 34.0513 0.00393
C 2.42694 8.5117 0.03007
C 4.89436 32.68105 0.00895
C 6.15165 30.58245 0.02888
C 4.92633 29.76443 -0.00482
C 4.88582 28.41502 -0.01384
C 6.09724 27.69436 0.03693
C 6.10662 26.27346 0.01745
C 4.92037 25.56069 0.00488
C 4.90619 24.20584 -0.01004
C 6.15058 23.40764 -0.02896
C 6.14201 31.9962 0.00685
C 6.16668 22.03513 -0.00131
C 3.69893 9.22553 0.00054
C 2.39918 11.42096 -0.00562
C 3.70333 30.56004 0.0276
C 2.43192 29.80383 0.01305
C 2.41474 28.3925 -0.00077
C 3.63082 27.7191 0.03368
C 3.72338 26.23286 -0.02929
C 2.52922 25.57003 -0.00966
C 2.44245 24.13124 -0.03337
C 3.75891 23.41271 0.01227
C 3.7016 10.64112 -0.00494
C 3.64638 21.98968 0.00873
C 2.44137 19.98902 0.00848
C 3.68584 19.19217 -0.01303
C 3.72246 17.75206 -0.01378
C 2.44868 17.06674 0.02635
C 2.51371 15.61107 0.0127
C 3.67193 14.87109 0.01396
C 3.74218 13.46415 0.01849
C 2.37331 12.74797 -0.01142
C 2.42547 21.40462 -0.00049
C 8.56018 6.42462 -0.02162
C 4.90982 21.31851 -0.01118
C 6.20142 19.22349 0.02147
C 7.36915 28.31711 -0.01111
C 8.65043 27.71603 -0.01275
C 8.65343 26.32818 0.00985
C 7.3739 25.6147 -0.02245
C 7.35711 24.15317 -0.00428
C 8.54951 23.36329 0.03101
C 8.58756 21.98964 -0.01536
C 7.41648 21.31352 -0.02689
C 7.37742 29.76677 0.02841
C 7.38048 19.9184 -0.01046
C 8.60729 17.80787 0.02819
C 7.37977 17.03393 0.00165
C 7.4308 15.6206 -0.02971
C 7.42469 12.79766 0.02894
C 7.45398 11.44262 -0.01789
C 8.51402 10.49386 0.00444
C 8.62484 9.20541 -0.00925
C 7.32929 8.52078 0.01877
C 8.59839 19.09107 -0.00891
C 4.93473 19.87616 -0.014
C 8.59194 30.56746 0.00943
C 7.34696 32.71154 0.03592
C 6.17291 17.71311 0.00373
C 4.91435 17.08346 -0.00191
C 4.90712 15.66578 0.00438
C 6.20191 14.94388 0.01291
C 6.16439 13.48044 0.00093
C 4.94662 12.79013 0.00057
C 4.96294 11.39085 -0.01634
C 6.14938 10.66983 -0.00334
C 8.56715 32.01555 0.00406
C 6.20086 9.23843 0.02339
C 4.92223 7.16739 -0.00719
C 6.15202 6.44949 0.01364
C 6.17662 5.04672 -0.01062
C 4.87999 4.36867 -0.00033
C 4.89964 2.90779 0.03589
C 6.153 2.15581 -0.02759
C 6.08606 0.71304 0.0402
C 4.91612 0.05239 0.00572
C 4.95686 8.52475 0.01641
C 20.89206 2.09625 0.01277
C 20.86131 0.73498 0.00096
C 19.61301 0.05242 -0.01527
C 33.22045 31.95457 -0.01694
C 33.12502 30.52689 0.01428
C 31.92505 29.8478 -0.02142
C 31.98084 28.37085 0.0544
C 33.22854 27.67965 0.00026
C 33.13925 26.33868 0.00682
C 31.93736 25.59015 -0.01779
C 32.03483 24.20512 0.03794
C 31.99655 32.59903 0.01713
C 33.21038 23.46531 0.01927
C 31.92728 21.30639 -0.02383
C 31.9746 19.88867 -0.01429
C 33.17782 19.2201 -0.0136
C 33.09803 17.75944 0.00594
C 31.91302 17.02865 -0.02474
C 31.97202 15.55715 0.00369
C 33.21373 14.92942 0.00455
C 33.15273 13.46439 -0.00644
C 33.20291 22.05783 0.01574
C 31.97211 12.72384 -0.01839
C 29.51526 34.06141 0.00346
C 30.75905 2.14714 0.00716
C 29.57858 21.30704 -0.03039
C 29.53725 19.92391 0.01836
C 30.73064 19.14223 0.03531
C 30.71865 17.74638 -0.00669
C 29.50763 17.02726 0.0101
C 29.45633 15.66989 0.01705
C 30.79292 14.89722 -0.0405
C 30.75429 13.45067 -0.01303
C 30.79885 0.67269 0.00307
C 29.50831 12.80839 -0.01461
C 30.73931 10.67523 -0.00944
C 30.75233 9.22589 -0.03735
C 29.5081 8.511 -0.00971
C 29.50325 7.08712 0.01518
C 30.73464 6.43614 0.01908
C 30.78939 5.03434 0.07705
C 29.5286 4.18364 0.0103
C 29.5617 2.77855 0.02108
C 29.5333 11.38562 -0.02155
C 30.75864 22.06722 -0.01415
C 31.98242 11.30292 0.00137
C 33.14722 9.25005 0.04381
C 1.27959 19.12572 -0.01678
C 1.18403 17.69069 0.01223
C 34.3641 17.05642 0.00648
C 34.3985 15.59541 0.02114
C 1.18942 14.95207 -0.02957
C 1.21279 13.5005 0.00343
C 0.01089 12.72056 -0.02656
C 0.03713 11.33171 -0.02442
C 0.00437 19.91973 0.01951
C 1.278 10.63385 -0.00027
C 34.40962 8.45368 -0.02302
C 0.01661 7.09343 -0.02849
C 1.25938 6.33866 0.02931
C 1.18528 4.93508 0.00628
C 34.43251 4.22295 -0.0345
C 0.00471 2.83573 -0.00931
C 1.22297 2.14571 -0.00939
C 1.27175 0.79029 -0.00468
C 1.21078 9.22453 -0.00583
C 33.23591 10.70017 0.00199
C 34.38556 21.3295 -0.02213
C 1.21422 23.44789 0.00723
C 31.95717 8.53328 0.02806
C 32.02805 7.14778 0.01504
C 33.23408 6.38388 -0.00069
C 33.1834 4.92321 0.04926
C 31.96596 4.31222 -0.03838
C 31.98203 2.86175 0.00349
C 33.22926 2.18618 -0.00323
C 33.16423 0.62242 -0.00841
C 1.17639 22.00366 0.02712
C 31.95882 34.04458 0.0001
C 1.27876 31.93857 -0.01404
C 1.15324 30.49251 0.01027
C 34.35966 29.82991 0.01831
C 34.42207 28.35671 -0.01037
C 1.1938 27.68208 -0.00439
C 1.23392 26.21334 -0.00598
C 34.41295 25.64428 -0.05239
C 0.00247 24.21611 0.03076
C 0.0155 32.66605 -0.02927
C 30.76166 23.44048 -0.01854
C 29.47021 24.09578 -0.02049
C 29.43472 25.5602 0.03265
C 25.828 30.55759 -0.01586
C 24.63075 29.7759 -0.01971
C 24.58247 28.39742 -0.02118
C 25.78002 27.72728 0.00733
C 25.81974 26.3022 -0.00178
C 24.58969 25.62616 0.00768
C 24.56054 24.16531 -0.0276
C 25.78815 23.44712 0.03005
C 25.80273 31.99422 -0.01107
C 25.81075 22.00407 -0.04078
C 25.87732 19.18655 0.02737
C 25.82872 14.782 -0.00498
C 25.82915 13.58819 0.00135
C 25.83437 10.6655 0.03102
C 25.76403 9.31833 0.02555
C 24.61609 8.42399 0.01423
C 24.57968 7.06623 -0.00285
C 25.783 6.36304 -0.009
C 24.60371 21.34533 0.02117
C 25.84039 4.9679 -0.01199
C 24.51555 32.60538 0.00071
C 23.31853 0.70764 0.01515
C 22.15515 32.6558 0.01087
C 23.34159 31.88635 0.00199
C 23.33915 30.52891 0.01511
C 22.1528 29.77485 -0.00478
C 22.1532 28.37833 -0.01662
C 23.38838 27.69482 -0.01185
C 23.31996 26.25312 0.01126
C 22.15765 25.4782 0.01852
C 22.10154 34.04786 -0.00225
C 22.11368 24.09261 -0.00381
C 23.38589 21.9598 0.0296
C 22.10993 21.30653 0.03374
C 22.04595 7.08907 -0.02845
C 23.26785 6.42093 -0.03213
C 23.26082 4.95834 0.02239
C 22.12472 4.19171 0.01153
C 22.08833 2.83529 0.02734
C 23.38912 2.10989 -0.0055
C 23.39916 23.4279 0.03046
C 24.48774 4.28757 -0.00229
C 24.51642 2.79826 -0.00938
C 25.84552 2.13718 -0.0264
C 28.31908 10.62392 0.00194
C 28.32585 9.18491 -0.00621
C 27.10978 8.46649 0.02611
C 27.09218 7.08481 0.02198
C 28.28321 6.37693 0.01094
C 28.30638 4.88321 0.00235
C 27.02376 4.22346 0.01495
C 27.04046 2.85613 0.01259
C 27.09735 11.28898 0.04185
C 28.37593 2.09088 0.01799
C 27.0305 34.03817 -0.00416
C 29.51179 32.63733 0.01177
C 30.75023 31.94339 0.04266
C 30.74475 30.5008 0.01324
C 29.55125 29.8269 0.0014
C 29.50104 28.39021 0.00924
C 30.75649 27.69511 0.02326
C 30.76177 26.24481 0.00261
C 28.34769 0.7077 0.01699
C 27.06363 12.80253 0.02316
C 28.27918 13.52122 0.01257
C 28.33012 14.84437 0.00152
C 25.81566 0.71957 -0.01154
C 24.61136 0.02659 0.00684
C 27.02239 32.70702 -0.01052
C 28.24445 31.94856 -0.01679
C 28.30203 30.55351 0.00367
C 27.02729 29.85602 0.04306
C 27.03713 28.40006 0.00996
C 28.30837 27.7253 0.00195
C 28.2668 26.34582 -0.00802
C 27.05287 25.53891 -0.00218
C 27.08171 24.19683 -0.01654
C 28.31053 23.41381 -0.00037
C 28.33911 21.96742 -0.0032
C 26.98725 21.26562 0.00622
C 27.06486 19.88091 -0.02815
C 28.295 19.14198 -0.00942
C 28.40699 17.78961 0.00487
C 27.0339 17.10266 0.00826
C 27.02667 15.65758 -0.00294
C 3.69149 31.94874 0.00988
C 2.38277 32.68132 -0.01343
