317
Graphene
C 34.25478 33.99505 0.01295
C 9.88464 24.18493 -0.00491
C 11.0859 23.44999 0.03338
C 11.01427 21.92959 -0.0258
C 9.76504 21.21919 -0.0331
C 9.78567 19.86592 -0.00316
C 11.08703 19.06985 0.02188
C 11.166 17.66045 -0.01979
C 9.97654 16.95035 0.02691
C 9.89297 15.55333 -0.01581
C 9.85502 8.72693 0.01452
C 9.94848 7.29395 0.04892
C 11.04644 6.52178 -0.00111
C 11.01607 5.05426 -0.03557
C 9.8546 4.28528 0.03754
C 9.82093 2.87919 0.01739
C 9.86384 25.6442 -0.00109
C 11.07913 26.28062 0.03698
C 11.10105 27.76446 -0.02213
C 9.85423 28.40282 0.00028
C 7.13014 11.44558 -0.03113
C 8.35151 10.8856 0.02098
C 8.69536 9.5581 0.01848
C 7.38459 8.61474 -0.00619
C 7.45357 7.19195 -0.02162
C 8.6519 6.40351 0.00889
C 8.58873 5.00476 -0.00481
C 11.02248 2.14135 0.00755
C 7.3812 4.26347 0.00979
C 8.58551 2.09052 0.03505
C 8.5398 0.67498 -0.02815
C 7.37004 0.10563 -0.04147
C 9.79723 32.60153 -0.05302
C 11.15108 32.02399 0.00213
C 11.1304 30.647 -0.00066
C 9.87042 29.8868 -0.00289
C 7.39719 2.8378 0.01443
C 11.04023 0.70614 -0.0054
C 9.82095 34.01662 0.00667
C 12.31858 32.71865 0.00143
C 15.96847 32.05359 0.00096
C 15.98733 30.65071 -0.01527
C 14.8463 29.85771 0.01087
C 14.81184 28.37607 0.00199
C 16.00291 27.65427 0.01511
C 15.98607 26.24207 -0.00478
C 14.76204 25.52765 -0.01662
C 14.8162 32.84361 0.01277
C 14.6731 24.08641 -0.01185
C 15.85632 21.91946 0.01852
C 14.72082 21.25242 -0.00381
C 14.72312 19.63206 0.03046
C 16.00537 19.31103 0.0296
C 16.02906 5.12806 0.03374
C 14.70968 4.76004 -0.02845
C 14.76516 3.08673 -0.03213
C 15.9132 23.40397 0.01126
C 7.09725 12.83104 0.0351
C 12.28816 0.01523 -0.02422
C 13.46417 2.29841 -0.01154
C 13.64036 32.09325 -0.017
C 13.55498 30.67157 0.00364
C 12.34051 29.91676 -0.00831
C 12.33824 28.541 -0.02957
C 13.5181 27.78713 -0.04422
C 13.53507 26.36711 0.00654
C 12.2703 25.57205 -0.00703
C 13.44475 0.83283 -0.01721
C 12.30446 24.19832 -0.04076
C 13.45702 21.9507 0.0058
C 12.23476 21.19906 -0.00865
C 12.32435 19.81278 0.00675
C 13.44411 19.08527 -0.00311
C 13.40166 5.09784 0.00742
C 12.18147 4.31143 -0.01594
C 12.21256 2.91222 0.0106
C 13.5272 23.41929 -0.00652
C 8.37436 13.42484 0.00422
C 8.71755 14.79503 0.00798
C 7.40317 15.54724 0.00228
C 2.43825 7.08759 0.01364
C 3.65904 6.37516 -0.01062
C 3.62517 4.96693 -0.00033
C 2.36283 4.22984 0.03589
C 2.36714 2.8145 -0.02759
C 3.65763 2.1389 0.0402
C 3.60999 0.7147 0.00572
C 2.40079 8.51673 -0.00719
C 2.32303 34.03782 0.03592
C 6.08826 32.08096 0.00943
C 5.99549 30.60469 0.02841
C 4.82316 29.91622 -0.01111
C 4.85366 28.47738 -0.01275
C 6.08596 27.63865 0.00985
C 6.13289 26.17781 -0.02245
C 4.84741 25.45701 -0.00428
C 4.84807 32.76084 0.00406
C 4.80384 24.00747 0.03101
C 3.63687 9.20698 0.01641
C 2.26849 11.43784 -0.00334
C 3.64863 30.59952 0.03693
C 2.44111 29.90573 0.01745
C 2.40823 28.44589 0.00488
C 3.64905 27.74474 -0.01004
C 3.68497 26.27489 -0.02896
C 2.44495 25.66152 -0.00131
C 2.45086 24.03539 -0.01118
C 3.53472 10.62715 0.02339
C 3.5713 23.29541 -0.014
C 2.38552 20.9103 0.00373
C 2.47792 19.19471 -0.00191
C 3.93256 18.59885 0.00438
C 2.50361 15.86212 0.01291
C 3.66823 15.11831 0.00093
C 3.58293 13.62716 0.00057
C 2.33336 12.86308 -0.01634
C 3.56745 21.76641 0.02147
C 16.00674 2.31589 0.02239
C 6.13322 23.32161 -0.01536
C 4.92282 21.04263 -0.01046
C 7.39106 32.71385 0.02299
C 8.545 31.94488 0.00244
C 8.56471 30.55718 -0.01717
C 7.34513 29.85201 0.05265
C 7.22066 28.40195 -0.01952
C 8.55492 27.71598 -0.02813
C 8.6263 26.31984 0.00374
C 4.88221 0.05771 0.03542
C 7.42364 25.53403 0.00052
C 8.68398 23.46223 0.01965
C 8.61106 22.00869 0.02058
C 7.43177 21.23497 -0.01957
C 7.43056 19.85952 -0.0108
C 8.60034 19.0164 -0.00368
C 8.65454 17.63795 -0.02696
C 7.42796 17.00171 -0.00114
C 7.42078 24.15213 -0.03682
C 6.11994 21.86878 -0.02689
C 6.07004 0.73645 0.01416
C 4.87425 2.89083 -0.01454
C 5.00974 19.62724 -0.00891
C 6.27274 19.06966 0.02819
C 6.23301 17.74391 0.00165
C 4.88366 17.33381 -0.02971
C 4.80768 15.89713 0.02894
C 6.06222 15.06735 -0.01789
C 5.9424 13.64177 0.00444
C 6.1225 2.18424 0.01945
C 4.71626 12.7384 -0.00925
C 6.02602 10.65126 0.01363
C 6.11385 9.24818 -0.02162
C 4.83129 8.52526 0.00415
C 4.89041 7.14729 -0.0014
C 6.19324 6.4221 0.02162
C 6.12099 5.01126 0.0076
C 4.91254 4.30228 0.01241
C 4.75118 11.36532 0.01877
C 3.61003 32.07228 -0.01384
C 15.99166 0.88653 0.01153
C 17.17182 32.78594 -0.0055
C 32.1124 25.73491 0.03794
C 31.95819 24.17293 0.01927
C 33.18768 23.52744 0.01574
C 33.18438 22.13737 -0.02383
C 31.81309 21.48 -0.01429
C 31.86256 20.06069 -0.0136
C 33.03819 19.34982 0.00594
C 33.11562 18.00083 -0.02474
C 32.00171 17.17483 0.00369
C 31.96599 15.72149 0.00455
C 33.27855 15.1439 -0.00644
C 33.18038 13.69435 -0.01839
C 31.94772 12.91888 0.00137
C 31.88839 11.4671 0.00199
C 33.12328 10.70101 0.04381
C 33.33954 26.29272 -0.01779
C 33.27299 27.69162 0.00682
C 31.83664 28.13307 0.00026
C 31.64699 29.55664 0.0544
C 29.46524 12.85925 -0.02155
C 29.52942 11.43541 -0.00944
C 30.64397 10.80874 -0.03735
C 30.5632 9.35508 -0.00971
C 29.25772 8.50852 0.01518
C 29.22919 7.17695 0.01908
C 30.52551 6.43153 0.07705
C 33.04303 9.30107 0.02806
C 30.52687 4.91855 0.0103
C 29.23049 2.75531 0.00716
C 30.54144 2.17709 0.00307
C 30.59382 0.73058 0.00346
C 29.38268 34.03018 0.01713
C 31.7212 32.56822 -0.01694
C 32.98803 31.83668 0.01428
C 32.9435 30.33924 -0.02142
C 29.23871 4.20436 0.02108
C 31.82198 8.56625 0.01504
C 31.79292 7.12812 -0.00069
C 33.04583 6.33387 0.04926
C 0.05627 17.51737 0.00648
C 0.10312 15.97429 0.02114
C 1.23521 15.11053 -0.02957
C 1.12457 13.73475 0.00343
C 0.00028 12.89911 -0.02656
C 34.34389 11.47769 -0.02442
C 1.1167 10.69518 -0.00027
C 0.98792 18.77429 0.01223
C 1.10524 9.2813 -0.00583
C 34.321 7.07329 -0.02849
C 1.11654 6.30953 0.02931
C 1.11926 4.86277 0.00628
C 34.27074 4.18772 -0.0345
C 34.30953 2.78446 -0.00931
C 1.10637 2.06781 -0.00939
C 1.09249 0.63672 -0.00468
C 34.28003 8.5106 -0.02302
C 30.69516 13.54824 -0.01461
C 34.29952 19.90423 -0.01678
C 1.19767 21.81795 -0.02213
C 33.0453 4.87802 -0.03838
C 31.80696 4.30694 0.00349
C 31.77767 2.87064 -0.00323
C 32.94683 2.07368 -0.00841
C 33.00996 0.68535 0.0001
C 31.81039 34.04968 -0.02927
C 34.22052 32.59221 -0.01404
C 34.34526 21.26619 0.01951
C 1.08261 31.90793 0.01027
C 34.30056 29.82592 -0.01037
C 0.00976 28.46872 -0.00439
C 1.2564 27.72749 -0.00598
C 1.23638 26.31121 -0.05239
C 0.11159 25.58803 0.03076
C 0.01922 24.20649 0.00723
C 1.15073 23.30209 0.02712
C 1.06146 30.52204 0.01831
C 30.70078 14.99896 -0.01303
C 29.44811 15.58933 -0.0405
C 29.43844 17.05602 0.01705
C 21.05928 17.91513 -0.00285
C 20.97451 0.68184 -0.009
C 19.64011 0.10656 -0.01199
C 21.86935 32.72532 -0.00229
C 22.40314 19.73651 -0.00938
C 23.55644 19.09318 -0.0264
C 23.40406 17.61913 -0.01154
C 21.03351 19.35212 0.01423
C 22.06727 16.90516 0.00684
C 23.10865 14.62343 -0.01679
C 23.19499 13.1559 0.00367
C 23.54388 10.22339 0.04306
C 23.51333 0.43586 0.00996
C 22.24084 0.08383 0.00195
C 25.14354 32.98747 -0.00802
C 25.84596 19.12148 -0.00218
C 22.12288 15.4891 -0.01052
C 25.80397 17.61772 -0.01654
C 19.74489 20.097 0.02555
C 20.84825 32.12888 0.00135
C 18.28781 31.99902 0.01515
C 18.42501 30.62148 -0.00225
C 17.40546 29.76812 0.00071
C 17.09191 28.45567 -0.01107
C 17.26239 25.44109 -0.01586
C 17.1539 24.0977 -0.01971
C 18.28803 22.26274 -0.02118
C 19.33546 21.46919 0.03102
C 17.13158 21.41834 0.00733
C 18.45705 19.3205 0.00768
C 17.08359 4.30922 -0.0276
C 17.39763 3.05134 0.03005
C 18.53818 2.31608 -0.04078
C 18.43946 0.91926 0.02117
C 17.20134 0.22406 0.02737
C 19.49876 32.75286 -0.00498
C 17.25312 19.90932 -0.00178
C 14.75705 0.14962 0.02734
C 24.58229 16.83405 -0.00037
C 25.66813 14.64558 0.00622
C 28.20212 6.30894 0.01177
C 28.22307 5.08932 0.04266
C 26.56543 2.43244 0.01324
C 28.007 2.0417 0.0014
C 28.24168 0.65738 0.00924
C 27.0203 0.12368 0.02326
C 29.19701 32.56046 0.00261
C 26.62275 9.19363 -0.00416
C 30.46738 31.80926 0.03265
C 31.04863 26.98457 -0.01854
C 30.62134 23.59737 -0.01415
C 30.52203 22.32349 -0.03039
C 29.35579 21.39668 0.01836
C 29.38019 20.04465 0.03531
C 30.65566 19.27409 -0.00669
C 30.7298 17.80218 0.0101
C 30.60612 30.38667 -0.02049
C 24.54617 15.44292 -0.0032
C 28.18699 9.3062 0.01699
C 27.16857 11.36941 0.01259
C 25.65952 13.24584 -0.02815
C 24.46326 12.47973 -0.00942
C 24.67916 10.95794 0.00487
C 26.03207 10.30406 0.00826
C 25.88048 0.93493 -0.00294
C 24.84415 0.18592 0.00152
C 26.83592 32.8729 0.01257
C 28.33214 10.6966 0.01799
C 27.88165 32.26129 0.02316
C 28.21098 19.20204 0.00194
C 28.16235 17.69592 -0.00621
C 27.01128 16.93102 0.02611
C 26.87436 15.45111 0.02198
C 28.22055 14.84509 0.01094
C 28.23843 13.47596 0.00235
C 26.9855 12.67475 0.01495
C 26.91674 19.79806 0.04185
C 2.31315 32.65654 -0.00482
