344
Graphene
C 34.39838 0.05238 0.01295
C 17.28501 16.90938 0.02098
C 18.38756 14.93363 0.01848
C 18.49729 13.71954 -0.00619
C 18.50539 10.52829 -0.02162
C 18.5923 9.36724 0.00889
C 17.12107 7.06256 -0.00481
C 18.3639 6.38955 0.00979
C 18.35799 4.86967 0.01443
C 17.1927 4.16187 0.03505
C 17.24711 2.74925 -0.02815
C 18.4787 2.11019 -0.04147
C 18.5066 0.67341 -0.05302
C 17.26522 34.06678 0.00213
C 19.70532 32.68123 -0.00066
C 20.94014 31.99594 -0.00289
C 20.88186 30.49473 0.00028
C 19.69891 29.77858 -0.02213
C 18.39067 17.67211 -0.03113
C 18.47773 19.1205 0.0351
C 17.18025 19.79338 0.00422
C 17.15729 21.32016 0.00798
C 16.19923 6.40062 0.03542
C 15.81015 5.01993 0.02299
C 14.66707 4.36856 0.00244
C 14.75951 2.95129 -0.01717
C 16.01278 2.11788 0.05265
C 16.03442 0.72927 -0.01952
C 14.79565 0.02754 -0.02813
C 17.17115 32.64736 0.00374
C 19.65977 28.35157 0.03698
C 18.49563 31.99174 0.00052
C 17.23701 29.91151 0.01965
C 17.19164 28.50181 0.02058
C 18.42176 27.73258 -0.01957
C 18.4643 26.23059 -0.0108
C 17.21473 25.55138 -0.00368
C 17.30696 24.16207 -0.02696
C 18.5234 23.41035 -0.00114
C 18.37931 21.96528 0.00228
C 18.45836 30.55621 -0.03682
C 15.86168 19.16978 0.01416
C 20.85087 27.66452 -0.00109
C 19.7161 25.56014 0.03338
C 20.96796 0.70732 0.00654
C 19.74521 0.03979 -0.00703
C 22.11011 32.7417 -0.04076
C 23.30541 32.01872 -0.00652
C 23.30271 30.58763 0.0058
C 22.13917 29.74685 -0.00865
C 22.08081 28.30837 0.00675
C 23.39017 27.69526 -0.00311
C 23.33971 26.25425 0.00742
C 22.09036 25.58729 -0.01594
C 22.07923 24.14688 0.0106
C 23.354 23.42853 -0.01154
C 23.39439 22.04379 -0.01721
C 22.14338 21.30516 -0.02422
C 22.13683 19.88586 0.01277
C 23.40021 19.14997 0.00096
C 23.39829 17.67937 -0.01527
C 20.90261 2.12279 -0.04422
C 19.68003 2.84424 -0.02957
C 19.6838 4.24104 -0.00831
C 20.89643 4.90016 0.00364
C 19.6685 24.16357 -0.0258
C 20.86644 23.45904 -0.0331
C 20.84465 21.98851 -0.00316
C 19.58121 21.33121 0.02188
C 19.61998 19.91513 -0.01979
C 20.90434 19.16287 0.02691
C 20.93349 17.72044 -0.01581
C 19.72397 17.0288 0.01452
C 20.89682 26.26656 -0.00491
C 19.63737 15.67862 0.04892
C 20.96095 13.52654 -0.03557
C 19.6383 12.77348 0.03754
C 19.63599 11.35321 0.01739
C 20.88933 10.58578 0.00755
C 20.91965 9.19933 -0.0054
C 19.68791 8.50467 0.00667
C 19.59056 7.10575 0.00143
C 20.80586 6.38217 -0.017
C 20.8498 14.91881 -0.00111
C 22.15654 17.02544 0.01087
C 14.79296 19.79978 0.01945
C 16.00954 22.01869 0.01241
C 6.16439 27.65239 0.00895
C 6.10913 26.21545 0.00685
C 4.87956 25.50679 0.02888
C 4.89516 24.0578 -0.00482
C 6.16348 23.43625 -0.01384
C 6.08959 21.99047 0.03693
C 4.92239 21.26111 0.01745
C 4.99315 19.89296 0.00488
C 4.80954 0.06488 -0.01004
C 7.40357 32.64126 -0.02896
C 8.60417 31.92815 -0.00131
C 8.58818 30.59009 -0.01118
C 7.40525 29.83967 -0.014
C 7.39783 28.38138 0.02147
C 8.59956 27.7288 0.00373
C 8.57123 26.30388 -0.00191
C 7.319 25.60013 0.00438
C 4.94398 28.42879 0.00393
C 4.92589 29.89303 0.0288
C 6.18106 30.51742 -0.0008
C 6.19109 31.95667 -0.01362
C 3.69221 30.56241 0.00873
C 2.46044 29.87556 -0.00049
C 2.45305 28.47787 0.00848
C 3.68783 27.74346 -0.01303
C 3.68527 26.22507 -0.01378
C 2.39096 25.58426 0.02635
C 2.40608 24.13699 0.0127
C 3.67038 23.37673 0.01396
C 7.39935 24.13962 0.01291
C 3.65722 21.92691 0.01849
C 2.55248 19.83713 -0.00562
C 3.83284 19.10062 -0.00494
C 3.56512 17.73817 0.00054
C 2.42542 17.07958 0.03007
C 2.42142 15.66628 -0.00095
C 3.73174 0.61714 0.01572
C 2.49048 0.03209 -0.04848
C 4.98059 32.73972 -0.00892
C 2.45406 21.21793 -0.01142
C 14.79436 21.2871 -0.01454
C 8.51315 23.39916 0.00093
C 7.28988 21.46657 -0.01634
C 12.27283 24.21237 -0.02689
C 13.51765 23.45962 -0.01046
C 13.54348 22.04596 -0.00891
C 12.34999 21.21045 0.02819
C 13.66713 2.16132 0.00165
C 13.49192 0.81798 -0.02971
C 12.26441 0.07792 0.02894
C 14.73765 32.65852 -0.01789
C 15.92462 31.90906 0.00444
C 15.99324 30.51029 -0.00925
C 14.77411 29.79888 0.01877
C 14.71194 28.36769 0.01363
C 15.98528 27.74898 -0.02162
C 16.01438 26.31742 0.00415
C 14.73506 25.5517 -0.0014
C 14.84792 24.13807 0.02162
C 16.08541 23.45622 0.0076
C 12.26027 25.60717 -0.01536
C 13.49245 26.18768 0.03101
C 13.49431 27.63498 -0.00428
C 12.24348 28.47397 -0.02245
C 7.2817 33.9688 -0.00334
C 9.84194 32.69591 0.02339
C 11.06754 31.99372 0.01641
C 11.0206 30.62636 -0.00719
C 9.88246 29.81666 0.01364
C 9.79904 28.40576 -0.01062
C 11.03984 27.7442 -0.00033
C 11.08851 26.33514 0.03589
C 8.54276 21.9284 0.00057
C 9.83072 25.6205 -0.02759
C 11.07482 23.51259 0.00572
C 11.08112 21.92691 0.03592
C 9.82392 21.43737 0.00406
C 9.94702 34.04802 0.00943
C 12.30415 32.77495 0.02841
C 13.51946 32.05302 -0.01111
C 13.56905 30.5739 -0.01275
C 12.28704 29.9576 0.00985
C 9.78243 24.15766 0.0402
C 22.10412 15.63907 0.00199
C 23.35592 14.91758 0.01511
C 23.3371 13.50276 -0.00478
C 31.98103 32.64688 -0.02142
C 33.21064 31.9609 0.0544
C 33.15419 30.5449 0.00026
C 31.94951 29.87008 0.00682
C 31.93707 28.4313 -0.01779
C 33.13331 27.69676 0.03794
C 33.10874 26.31898 0.01927
C 31.96403 25.52653 0.01574
C 31.93627 24.11915 -0.02383
C 33.19205 23.46245 -0.01429
C 33.20604 22.05625 -0.0136
C 32.00993 21.34441 0.00594
C 31.99886 19.85396 -0.02474
C 33.18808 19.17997 0.00369
C 33.15526 17.76215 0.00455
C 31.93583 17.06046 -0.00644
C 31.95288 15.62835 -0.01839
C 29.45443 34.00515 0.01428
C 30.6477 0.66769 -0.01694
C 30.72796 2.09479 0.01713
C 29.49606 2.86682 0.00346
C 30.71278 22.0469 0.03531
C 29.46221 21.33035 -0.00669
C 29.51988 19.87627 0.0101
C 30.75061 19.18583 0.01705
C 30.7482 17.77057 -0.0405
C 29.57524 17.07619 -0.01303
C 29.5695 15.65799 -0.01461
C 30.71077 14.90804 -0.02155
C 33.18996 14.95614 0.00137
C 30.74587 13.4982 -0.00944
C 29.45914 11.40854 -0.00971
C 30.72616 10.6345 0.01518
C 30.77659 9.19114 0.01908
C 29.57934 8.47535 0.07705
C 29.49448 7.09575 0.0103
C 30.73245 6.40909 0.02108
C 30.75538 5.00409 0.00716
C 29.51661 4.27496 0.00307
C 29.49423 12.75341 -0.03735
C 30.72534 23.46389 0.01836
C 33.22809 13.53251 0.00199
C 31.95352 11.31828 0.02806
C 0.0508 21.29055 0.01223
C 0.01367 19.90318 0.00648
C 1.2727 19.16727 0.02114
C 1.15344 17.745 -0.02957
C 34.38216 16.9973 0.00343
C 34.40691 15.61422 -0.02656
C 1.2865 14.82379 -0.02442
C 1.07686 13.47392 -0.00027
C 34.4189 12.8107 -0.00583
C 34.42306 11.35947 -0.02302
C 1.12085 10.68922 -0.02849
C 34.39748 8.36387 0.02931
C 0.03159 7.16472 0.00628
C 34.38889 4.30873 -0.0345
C 0.1698 2.85423 -0.00931
C 1.22088 2.02022 -0.00939
C 1.20985 0.70743 -0.00468
C 1.25146 21.95145 -0.01678
C 1.20501 23.40922 0.01951
C 34.41645 24.14784 -0.02213
C 34.39525 25.56154 0.02712
C 33.20668 10.6393 0.01504
C 33.27789 9.28626 -0.00069
C 32.01938 8.5767 0.04926
C 32.00541 7.19006 -0.03838
C 33.19192 6.38095 0.00349
C 33.22384 4.99027 -0.00323
C 31.97564 4.27629 -0.00841
C 31.99192 2.83147 0.0001
C 32.0262 12.75086 0.04381
C 33.18326 2.11868 -0.02927
C 31.91888 0.00482 0.01027
C 0.05128 32.72946 0.01831
C 1.25307 31.96513 -0.01037
C 1.18882 30.49695 -0.00439
C 34.33915 29.78563 -0.00598
C 34.40227 28.35393 -0.05239
C 1.24894 27.69514 0.03076
C 1.17186 26.24608 0.00723
C 33.14949 0.70044 -0.01404
C 29.46027 24.11427 -0.03039
C 29.46689 25.53098 -0.01415
C 30.71873 26.12595 -0.01854
C 25.79106 23.5331 -0.00178
C 25.84272 22.06764 0.00768
C 24.59289 21.30588 -0.0276
C 24.55138 19.86759 0.03005
C 25.77632 19.18464 -0.04078
C 25.79062 17.77224 0.02117
C 24.58973 17.00593 0.02737
C 24.59161 15.56363 -0.00498
C 25.87086 14.89535 0.00135
C 25.81092 13.52355 0.03102
C 24.59932 12.87539 0.02555
C 24.55601 11.40252 0.01423
C 25.7588 10.68415 -0.00285
C 25.82373 9.24189 -0.009
C 24.578 8.57535 -0.01199
C 24.60797 7.08886 -0.00229
C 25.74405 6.35172 -0.00938
C 24.57605 24.12133 0.00733
C 24.58613 25.55456 -0.02118
C 25.80843 26.29714 -0.01971
C 25.8172 27.7748 -0.01586
C 22.16674 12.7031 -0.01662
C 22.10229 11.29533 -0.01185
C 23.29187 10.65938 0.01126
C 23.38879 9.25093 0.01852
C 22.16043 8.47776 -0.00381
C 22.06331 7.05069 0.03046
C 23.30458 6.37704 0.0296
C 23.37451 5.00486 0.03374
C 25.85504 4.92571 -0.0264
C 22.14268 4.25775 -0.02845
C 23.3609 2.04202 0.02239
C 23.37688 0.71162 0.01153
C 22.238 0.05821 0.02734
C 24.61798 32.67898 -0.0055
C 25.85948 31.89483 0.01515
C 25.8043 30.4953 -0.00225
C 24.53753 29.80722 0.00071
C 24.57815 28.46226 -0.01107
C 22.14919 2.82984 -0.03213
C 24.53877 4.27547 -0.01154
C 24.54179 2.86842 0.00684
C 25.72913 2.13061 -0.01052
C 27.0119 11.2788 0.02611
C 28.26881 10.63323 0.02198
C 28.35393 9.20979 0.01094
C 27.08745 8.53169 0.00235
C 26.98951 7.12857 0.01495
C 28.16576 6.32405 0.01259
C 28.26506 4.93527 0.01799
C 27.06173 4.19356 0.01699
C 27.07624 12.71543 -0.00621
C 27.02513 2.75965 -0.00416
C 28.25235 0.70833 0.04266
C 27.06875 34.071 0.01324
C 29.55148 32.61546 0.0014
C 30.74684 31.92051 0.00924
C 30.67868 30.53818 0.02326
C 29.59324 29.73285 0.00261
C 29.5896 28.33485 0.03265
C 30.77014 27.62682 -0.02049
C 28.33113 2.09532 0.01177
C 3.76596 31.98694 0.01227
C 28.28033 13.48275 0.00194
C 27.14679 15.68201 0.02316
C 25.7547 0.69928 -0.01679
C 24.6128 34.05381 0.00367
C 27.0927 32.63574 0.04306
C 28.37459 31.95015 0.00996
C 28.33686 30.54421 0.00195
C 27.07532 29.85475 -0.00802
C 27.0801 28.37709 -0.00218
C 28.31548 27.70612 -0.01654
C 28.32099 14.95776 0.04185
C 28.26762 26.35099 -0.00037
C 27.05226 24.17392 0.00622
C 28.25796 23.46663 -0.02815
C 28.23692 22.03702 -0.00942
C 27.02485 21.32431 0.00487
C 27.0268 19.90053 0.00826
C 28.27347 19.20447 -0.00294
C 28.3123 17.77053 0.00152
C 27.04849 17.09077 0.01257
C 27.03636 25.57581 -0.0032
C 2.54744 32.67567 -0.03337
