356
Graphene
C 34.42885 0.05286 0.01295
C 9.73297 4.28339 -0.0108
C 9.66716 2.87663 -0.00368
C 10.8794 2.05676 -0.02696
C 10.94327 0.65763 -0.00114
C 9.72963 0.04835 0.00228
C 12.24296 32.74235 0.00798
C 13.51465 32.00245 0.00422
C 13.5103 30.62519 0.0351
C 11.01873 4.8844 -0.01957
C 12.30809 29.93144 -0.03113
C 13.44155 27.72397 0.01848
C 13.53108 26.21027 -0.00619
C 12.31474 25.6165 -0.02162
C 12.28333 24.17284 0.00889
C 13.49241 23.39874 -0.00481
C 12.66134 22.07692 0.00979
C 12.56943 6.50793 0.01443
C 13.27462 4.98514 0.03505
C 12.31417 28.50906 0.02098
C 12.14031 4.10757 -0.02815
C 11.18683 6.48937 0.02058
C 9.80409 8.57009 -0.03682
C 7.28704 4.2074 -0.02162
C 7.24695 2.83595 0.00415
C 8.45207 2.05929 -0.0014
C 8.52069 0.6133 0.02162
C 7.26049 34.0734 0.0076
C 9.74727 32.67194 0.01241
C 11.00236 31.97806 -0.01454
C 11.07458 30.58118 0.01945
C 9.95726 7.21994 0.01965
C 9.85808 29.90761 0.01416
C 11.04325 27.7326 0.02299
C 11.08828 26.4192 0.00244
C 9.92708 25.60008 -0.01717
C 9.87048 24.24915 0.05265
C 11.04948 23.52111 -0.01952
C 11.32631 22.14202 -0.02813
C 10.19044 21.22031 0.00374
C 9.94788 19.92516 0.00052
C 9.88299 28.36737 0.03542
C 12.09248 2.67293 -0.04147
C 13.45429 2.07795 -0.05302
C 13.45242 0.76565 0.00213
C 18.46355 26.18395 0.00667
C 17.1677 25.42019 0.00143
C 17.24453 23.95369 -0.017
C 18.47032 23.33693 0.00364
C 18.36073 4.92159 -0.00831
C 17.13877 4.48352 -0.02957
C 17.01724 2.98784 -0.04422
C 18.21376 2.24905 0.00654
C 18.37156 27.65486 -0.0054
C 18.28625 0.84753 -0.00703
C 19.67295 32.72642 -0.00652
C 20.91164 31.96574 0.0058
C 20.85047 30.50896 -0.00865
C 19.68582 29.74816 0.00675
C 19.61163 28.42346 -0.00311
C 20.84015 27.74085 0.00742
C 20.86763 26.32496 -0.01594
C 19.70141 25.51112 0.0106
C 17.07146 0.09967 -0.04076
C 17.16083 28.22825 0.00755
C 17.14969 29.7166 0.01739
C 18.37965 30.45601 0.03754
C 12.18052 0.02519 -0.00066
C 14.72026 32.74204 -0.00289
C 15.99944 32.02341 0.00028
C 16.0003 30.57372 -0.02213
C 14.77884 29.83322 0.03698
C 14.65429 28.46856 -0.00109
C 15.84033 27.60195 -0.00491
C 15.8662 26.0893 0.03338
C 14.67546 25.42037 -0.0258
C 14.78071 23.94211 -0.0331
C 15.96961 23.46277 -0.00316
C 15.82264 5.11104 0.02188
C 14.67145 4.27194 -0.01979
C 14.60227 2.86054 0.02691
C 15.78297 2.15545 -0.01581
C 15.85258 0.78255 0.01452
C 14.64956 0.09823 0.04892
C 17.20738 32.72421 -0.00111
C 18.43029 31.99895 -0.03557
C 8.55982 4.99906 0.01363
C 19.63437 24.00903 -0.01154
C 8.75107 6.39089 0.01877
C 7.45288 8.51043 0.00444
C 2.43999 7.07833 -0.00562
C 3.62945 6.42129 -0.00494
C 3.63757 5.02178 0.00054
C 2.44983 4.32109 0.03007
C 2.43524 2.92436 -0.00095
C 3.66604 2.27564 0.01572
C 3.57758 0.81526 -0.04848
C 2.43874 0.02948 -0.00892
C 2.44377 8.57259 -0.01142
C 4.87009 32.76095 -0.01362
C 6.18799 30.55641 0.0288
C 4.96619 29.86989 0.00393
C 4.97394 28.42046 0.00895
C 6.19284 27.67685 0.00685
C 6.15464 26.27859 0.02888
C 4.92738 25.55461 -0.00482
C 4.97023 24.03677 -0.01384
C 6.20498 23.35047 0.03693
C 6.12175 32.10388 -0.0008
C 6.20652 21.99054 0.01745
C 3.67744 9.28839 0.01849
C 2.44986 11.36284 0.0127
C 3.80696 30.61283 -0.05697
C 2.57758 29.94356 0.01087
C 2.52909 28.45186 -0.01343
C 3.82422 27.65808 0.00988
C 3.72601 26.309 0.0276
C 2.44584 25.59335 0.01305
C 2.50814 24.19362 -0.00077
C 3.70481 23.31816 0.03368
C 3.61663 10.61335 0.01396
C 3.75437 22.00283 -0.02929
C 2.49147 19.8827 -0.03337
C 3.73516 19.22139 0.01227
C 3.60875 17.80469 0.00873
C 2.35125 17.07952 -0.00049
C 2.34408 15.67512 0.00848
C 3.52146 14.9878 -0.01303
C 3.58237 13.59058 -0.01378
C 2.364 12.91819 0.02635
C 2.46928 21.26872 -0.00966
C 5.01646 21.27108 0.00488
C 4.972 19.91778 -0.01004
C 6.25322 19.25492 -0.02896
C 8.64549 27.69553 0.00406
C 8.64572 26.30858 0.00943
C 7.35928 25.54407 0.02841
C 7.40524 24.14346 -0.01111
C 8.66314 23.4239 -0.01275
C 8.85793 22.03324 0.00985
C 7.52877 21.35891 -0.02245
C 7.49493 19.93165 -0.00428
C 7.37956 28.43343 0.03592
C 8.75335 19.1748 0.03101
C 7.48714 17.0668 -0.02689
C 7.38258 15.66553 -0.01046
C 8.31302 14.87232 -0.00891
C 8.58358 13.47309 0.02819
C 7.35253 12.73924 0.00165
C 7.50066 11.42704 -0.02971
C 8.5984 10.68262 0.02894
C 8.75671 9.33614 -0.01789
C 8.66194 17.73573 -0.01536
C 7.3832 29.81569 0.00572
C 8.58063 30.56332 0.0402
C 8.51435 31.91202 -0.02759
C 6.28784 17.82574 -0.00131
C 4.90517 17.13375 -0.01118
C 4.81015 15.62282 -0.014
C 5.99577 14.9911 0.02147
C 6.0661 13.55192 0.00373
C 4.84203 12.86445 -0.00191
C 4.86782 11.43693 0.00438
C 6.17019 10.76448 0.01291
C 6.16725 9.25895 0.00093
C 4.92531 8.57591 0.00057
C 4.88941 7.07235 -0.01634
C 6.15924 6.3857 -0.00334
C 6.11125 4.95433 0.02339
C 4.8833 4.30766 0.01641
C 4.88969 2.89413 -0.00719
C 6.05455 2.13779 0.01364
C 6.03843 0.72641 -0.01062
C 4.78234 0.09841 -0.00033
C 7.32281 32.68451 0.03589
C 7.48256 7.09707 -0.00925
C 20.93997 23.51501 -0.01721
C 20.91079 4.85288 -0.02422
C 19.60034 4.41263 0.01277
C 32.01451 32.69602 0.01713
C 33.27496 31.98201 -0.01694
C 33.24139 30.54433 0.01428
C 31.96543 29.86193 -0.02142
C 31.91091 28.41249 0.0544
C 33.19033 27.85918 0.00026
C 33.13964 26.31057 0.00682
C 31.88077 25.65436 -0.01779
C 29.46648 0.00915 0.00346
C 31.89014 24.20836 0.03794
C 33.14403 22.07293 0.01574
C 31.86781 21.33264 -0.02383
C 31.7747 19.95759 -0.01429
C 33.08372 19.16218 -0.0136
C 33.13788 17.80296 0.00594
C 31.82457 17.05303 -0.02474
C 31.90096 15.6481 0.00369
C 33.19643 14.92203 0.00455
C 33.10869 23.42878 0.01927
C 33.11912 13.56118 -0.00644
C 30.77787 0.73751 0.00307
C 29.43955 2.88396 0.02108
C 30.62034 21.99065 -0.01415
C 29.37163 21.28205 -0.03039
C 29.38281 19.82076 0.01836
C 30.60652 19.15221 0.03531
C 30.60555 17.72574 -0.00669
C 29.39925 16.95658 0.0101
C 29.44986 15.57361 0.01705
C 30.67984 14.93857 -0.0405
C 30.70351 2.24966 0.00716
C 30.67438 13.5377 -0.01303
C 29.41796 11.38786 -0.02155
C 30.7452 10.65177 -0.00944
C 30.62968 9.16527 -0.03735
C 29.4281 8.58575 -0.00971
C 29.33454 7.10103 0.01518
C 30.56161 6.42347 0.01908
C 30.68547 5.03771 0.07705
C 29.4445 4.37155 0.0103
C 29.46321 12.77342 -0.01461
C 31.91801 12.85743 -0.01839
C 31.97642 11.35887 0.00137
C 33.10709 10.70226 0.00199
C 1.1921 19.23233 -0.01678
C 1.18648 17.73807 0.01223
C 34.35926 17.08448 0.00648
C 34.34991 15.66349 0.02114
C 1.12503 14.99837 -0.02957
C 1.16709 13.567 0.00343
C 34.37388 12.84609 -0.02656
C 34.32973 11.4421 -0.02442
C 34.42054 19.91546 0.01951
C 1.1346 10.77476 -0.00027
C 34.34107 8.629 -0.02302
C 34.32022 7.16149 -0.02849
C 1.15617 6.45258 0.02931
C 1.18373 4.99109 0.00628
C 34.35409 4.34986 -0.0345
C 0.01524 2.9139 -0.00931
C 1.24089 2.15409 -0.00939
C 1.26834 0.7897 -0.00468
C 1.16286 9.35241 -0.00583
C 34.3885 21.35267 -0.02213
C 1.25232 21.96469 0.02712
C 1.26225 23.44318 0.00723
C 33.05597 9.31506 0.04381
C 31.84269 8.51399 0.02806
C 31.82531 7.10411 0.01504
C 33.11419 6.42045 -0.00069
C 33.17213 4.99396 0.04926
C 31.91502 4.29162 -0.03838
C 31.90862 2.86057 0.00349
C 33.19418 2.16642 -0.00323
C 33.21976 0.72128 -0.00841
C 31.91688 34.03132 0.0001
C 34.40264 32.73365 -0.02927
C 1.23331 32.00161 -0.01404
C 1.31512 30.61068 0.01027
C 0.06072 29.88855 0.01831
C 0.02688 28.47719 -0.01037
C 1.35447 27.72036 -0.00439
C 1.28371 26.26476 -0.00598
C 34.36412 25.63297 -0.05239
C 34.32475 24.1598 0.03076
C 30.56549 23.40493 -0.01854
C 29.36857 24.09375 -0.02049
C 29.47762 25.55023 0.03265
C 30.70188 26.35773 0.00261
C 25.73528 31.91891 -0.01107
C 25.76603 30.5485 -0.01586
C 24.52624 29.86023 -0.01971
C 24.49048 28.49351 -0.02118
C 25.78727 27.72957 0.00733
C 25.79424 26.34926 -0.00178
C 24.58372 25.62421 0.00768
C 24.59237 24.27403 -0.0276
C 24.54473 32.63874 0.00071
C 25.68638 23.45441 0.03005
C 24.24998 21.20961 0.02117
C 24.35432 19.8932 0.02737
C 25.41191 19.00169 -0.00498
C 25.62772 17.68488 0.00135
C 25.83055 10.56661 0.03102
C 25.64321 9.32535 0.02555
C 24.41418 8.51299 0.01423
C 24.34831 7.09689 -0.00285
C 25.57052 22.03194 -0.04078
C 22.08447 34.06515 -0.00225
C 23.3008 0.60645 0.01515
C 23.33788 2.05109 -0.0055
C 19.52892 2.93509 0.00096
C 20.68663 2.12231 -0.01527
C 20.80334 0.76862 0.01087
C 19.5516 0.06751 0.00199
C 22.12922 32.60737 0.01511
C 23.31137 31.90392 -0.00478
C 23.30913 30.57953 -0.01662
C 22.07781 29.85705 -0.01185
C 22.10192 28.4626 0.01126
C 23.3284 27.70639 0.01852
C 23.28124 26.31841 -0.00381
C 22.15392 25.71824 0.03046
C 22.06873 24.25947 0.0296
C 23.3669 23.51664 0.03374
C 23.16082 22.12651 -0.02845
C 23.20993 6.28434 -0.03213
C 23.29237 4.85696 0.02239
C 22.06763 4.18462 0.01153
C 22.06778 2.74779 0.02734
C 25.67998 6.42627 -0.009
C 3.69363 31.96643 -0.00725
C 25.70668 4.95996 -0.01199
C 24.52476 2.76863 -0.00938
C 26.91765 11.43271 0.04185
C 28.18981 10.69499 0.00194
C 28.12199 9.23484 -0.00621
C 26.92752 8.54001 0.02611
C 26.9667 7.14277 0.02198
C 28.21008 6.45098 0.01094
C 28.19291 5.05821 0.00235
C 27.00059 4.26309 0.01495
C 26.97512 12.79711 0.02316
C 27.02527 2.71758 0.01259
C 28.3417 0.66592 0.01699
C 27.03951 34.02314 -0.00416
C 29.4969 32.70703 0.01177
C 30.77876 32.04136 0.04266
C 30.86487 30.57512 0.01324
C 29.50606 29.87677 0.0014
C 29.51751 28.46306 0.00924
C 30.70664 27.70074 0.02326
C 28.30578 2.07758 0.01799
C 28.20038 13.36412 0.01257
C 28.21399 14.83315 0.00152
C 26.99799 15.43104 -0.00294
C 25.79674 2.09042 -0.0264
C 25.71595 0.64892 -0.01154
C 24.54647 34.05564 0.00684
C 27.08203 32.62243 -0.01052
C 28.26028 31.97341 -0.01679
C 28.26503 30.49066 0.00367
C 27.00241 29.83951 0.04306
C 27.1099 28.48698 0.00996
C 28.2622 27.78152 0.00195
C 28.24833 26.33382 -0.00802
C 27.03285 25.60428 -0.00218
C 26.97985 24.07716 -0.01654
C 28.20153 23.36692 -0.00037
C 28.12386 22.0223 -0.0032
C 26.81894 21.31395 0.00622
C 26.82914 19.81641 -0.02815
C 28.04937 19.09084 -0.00942
C 28.09921 17.66214 0.00487
C 26.7384 16.85113 0.00826
C 24.57043 4.18333 -0.00229
C 2.48679 32.65263 0.02322
