306
Graphene
C 0.0248 0.02565 0.01295
C 9.93211 24.06356 0.02691
C 11.0368 23.28245 -0.01581
C 11.02985 21.78608 0.01452
C 9.74728 21.26153 0.04892
C 9.71083 11.43438 -0.00111
C 10.96093 10.75597 -0.03557
C 10.98283 9.34801 0.03754
C 9.77766 8.59919 0.01739
C 9.82217 7.10863 0.00755
C 10.98511 6.40884 -0.0054
C 11.10659 5.01707 0.00667
C 9.83182 4.24569 0.00143
C 9.85787 2.86909 -0.017
C 11.06295 2.10729 0.00364
C 11.17758 0.77499 -0.00831
C 9.8527 25.53739 -0.01979
C 9.90946 0.03429 -0.02957
C 11.02719 26.26809 0.02188
C 9.89687 28.39398 -0.0331
C 8.45313 10.60749 0.01443
C 8.50429 9.21525 0.03505
C 7.30538 8.45552 -0.02815
C 7.34375 7.04214 -0.04147
C 8.62245 6.39213 -0.05302
C 8.60955 4.93359 0.00213
C 7.367 4.21995 -0.00066
C 7.40379 2.83653 -0.00289
C 8.65399 2.17882 0.00028
C 8.61487 0.7799 -0.02213
C 7.3862 0.02504 0.03698
C 9.86822 32.73537 -0.00109
C 11.04027 31.95592 -0.00491
C 11.10022 30.4941 0.03338
C 9.94577 29.83765 -0.0258
C 11.04329 27.6884 -0.00316
C 7.27557 11.32807 0.00979
C 12.29836 32.64248 -0.04422
C 13.54048 30.49191 -0.00703
C 13.5402 0.68004 -0.01662
C 12.39288 34.04856 -0.01185
C 14.81405 32.68307 0.01126
C 16.0438 32.01199 0.01852
C 16.14385 30.58769 -0.00381
C 14.87697 29.78384 0.03046
C 14.8442 28.33633 0.0296
C 16.20212 27.66393 0.03374
C 15.77584 26.38904 -0.02845
C 14.6969 25.58369 -0.03213
C 14.74287 24.15267 0.02239
C 15.98651 23.18771 0.01153
C 15.92248 22.0149 0.02734
C 14.74488 21.13616 -0.0055
C 14.60918 19.83511 0.01515
C 13.54907 2.1715 -0.00478
C 13.53965 31.96386 0.00654
C 12.31647 2.80067 0.01511
C 13.56552 4.99613 0.01087
C 12.32827 29.7923 -0.04076
C 12.31546 28.42256 -0.00652
C 13.56192 27.63435 0.0058
C 13.47455 26.25969 -0.00865
C 12.28667 25.52663 0.00675
C 12.28274 24.00611 -0.00311
C 13.56355 23.42043 0.00742
C 13.58446 22.00449 -0.01594
C 12.35888 21.33635 0.0106
C 12.24776 11.4135 -0.01154
C 13.4338 10.57793 -0.01721
C 13.42913 9.15668 -0.02422
C 12.14902 8.55762 0.01277
C 12.18147 7.1276 0.00096
C 13.45673 6.52847 -0.01527
C 12.34298 4.2092 0.00199
C 7.39156 12.77626 -0.00481
C 7.45224 19.97604 0.00889
C 7.30715 21.31947 -0.02162
C 3.70153 10.65547 0.02841
C 3.65537 9.24997 -0.01111
C 2.43485 8.50472 -0.01275
C 2.40161 7.09295 0.00985
C 3.56215 6.33686 -0.02245
C 3.65141 4.91299 -0.00428
C 2.33254 4.25826 0.03101
C 2.41501 2.76897 -0.01536
C 3.66995 2.10626 -0.02689
C 3.71162 0.69596 -0.01046
C 2.48791 34.04688 -0.00891
C 4.92424 32.63208 0.02819
C 6.18775 31.88226 0.00165
C 6.1464 30.47136 -0.02971
C 4.93223 29.73414 0.02894
C 2.50087 11.38896 0.00943
C 4.90971 28.31401 -0.01789
C 2.49835 12.8089 0.00406
C 3.68483 14.9664 0.00572
C 3.7202 30.44707 0.00438
C 2.46215 29.73095 0.01291
C 2.45343 28.31305 0.00093
C 3.68565 27.64866 0.00057
C 3.63422 26.17195 -0.01634
C 2.36059 25.56639 -0.00334
C 2.41192 24.15556 0.02339
C 3.60491 23.38773 0.01641
C 3.67987 21.98377 -0.00719
C 2.45269 21.35135 0.01364
C 2.47057 19.8966 -0.01062
C 3.76385 19.33252 -0.00033
C 3.6369 17.87166 0.03589
C 2.44437 17.04479 -0.02759
C 2.46798 15.65146 0.0402
C 3.66377 13.5668 0.03592
C 6.16452 27.6633 0.00444
C 6.13173 26.29229 -0.00925
C 4.87594 25.60215 0.01877
C 4.96339 2.82017 0.01965
C 6.18115 2.18749 0.02058
C 6.12065 0.75026 -0.01957
C 5.0049 34.06024 -0.0108
C 7.44113 32.651 -0.00368
C 8.61376 31.88365 -0.02696
C 8.69614 30.51263 -0.00114
C 7.43921 29.75335 0.00228
C 7.46428 28.32072 0.00798
C 8.65325 27.72015 0.00422
C 8.65437 26.29615 0.0351
C 7.36187 25.54412 -0.03113
C 7.33571 24.1198 0.02098
C 8.51573 23.42522 0.01848
C 8.50817 22.08165 -0.00619
C 4.92295 4.27998 -0.03682
C 6.11758 4.90424 0.00052
C 6.0809 6.34794 0.00374
C 4.81949 7.0629 -0.02813
C 4.86114 24.13843 0.01363
C 6.0627 23.43611 -0.02162
C 6.09975 22.05135 0.00415
C 4.93703 21.33938 -0.0014
C 5.03032 19.90877 0.02162
C 6.30723 19.07604 0.0076
C 6.16181 17.72347 0.01241
C 15.69196 18.92904 -0.00225
C 4.87434 17.15978 -0.01454
C 6.03595 15.07331 0.01416
C 6.36461 13.72336 0.03542
C 5.00315 12.88842 0.02299
C 4.92 11.45472 0.00244
C 6.07289 10.74734 -0.01717
C 6.08098 9.24271 0.05265
C 4.89071 8.58049 -0.01952
C 4.84657 15.70103 0.01945
C 15.97494 17.60009 0.00071
C 16.07248 14.7929 -0.01107
C 15.12349 13.93239 -0.01586
C 33.135 23.49031 0.01927
C 33.2162 22.00099 0.01574
C 32.01172 21.3039 -0.02383
C 31.97243 19.89174 -0.01429
C 33.21467 19.2106 -0.0136
C 33.15225 17.81842 0.00594
C 31.91773 17.24418 -0.02474
C 31.93461 15.7963 0.00369
C 33.15982 15.00382 0.00455
C 33.14827 13.57858 -0.00644
C 31.85291 12.76529 -0.01839
C 32.01319 11.40605 0.00137
C 33.2497 10.78929 0.00199
C 33.18812 9.40237 0.04381
C 31.97083 8.64218 0.02806
C 31.86355 24.14309 0.03794
C 32.06679 7.44786 0.01504
C 31.83268 25.53641 -0.01779
C 33.15021 27.70882 0.00026
C 30.65991 18.06223 -0.03735
C 29.50805 17.21996 -0.00971
C 29.35789 15.86498 0.01518
C 30.68816 15.01661 0.01908
C 30.6938 13.67586 0.07705
C 30.27545 4.68042 0.0103
C 29.47609 3.01794 0.02108
C 30.68516 2.13929 0.00716
C 30.6503 0.73617 0.00307
C 29.40886 0.03646 0.00346
C 32.00242 32.66744 0.01713
C 33.27215 31.9544 -0.01694
C 33.16906 30.4859 0.01428
C 31.92754 29.85345 -0.02142
C 31.89561 28.40284 0.0544
C 33.11326 26.24844 0.00682
C 33.0732 6.46501 -0.00069
C 32.93217 5.01607 0.04926
C 31.72352 4.31235 -0.03838
C 34.39785 15.69945 0.02114
C 1.24799 14.99727 -0.02957
C 1.21412 13.50299 0.00343
C 0.00748 12.88709 -0.02656
C 0.06217 11.44772 -0.02442
C 1.28796 10.74079 -0.00027
C 1.16776 9.28988 -0.00583
C 34.33132 8.5516 -0.02302
C 34.29165 7.19298 -0.02849
C 1.05317 6.42815 0.02931
C 1.06218 5.03025 0.00628
C 34.25924 4.32965 -0.0345
C 34.31818 2.95248 -0.00931
C 1.20635 2.17752 -0.00939
C 1.23847 0.71285 -0.00468
C 0.01924 17.1256 0.00648
C 1.22261 17.80749 0.01223
C 1.20357 19.24876 -0.01678
C 34.40418 19.94412 0.01951
C 31.90143 2.91892 0.00349
C 33.12718 2.14503 -0.00323
C 33.15523 0.69674 -0.00841
C 31.95356 0.0384 0.0001
C 0.01497 32.59115 -0.02927
C 1.24497 31.89807 -0.01404
C 1.23688 30.50504 0.01027
C 30.64373 19.43479 -0.00944
C 34.37442 29.82094 0.01831
C 1.15042 27.71041 -0.00439
C 1.18001 26.23869 -0.00598
C 34.3065 25.55663 -0.05239
C 34.37165 24.18955 0.03076
C 1.21275 23.40447 0.00723
C 1.18139 22.03143 0.02712
C 34.3778 21.36576 -0.02213
C 34.37425 28.39839 -0.01037
C 3.74377 31.90124 -0.00191
C 29.58207 21.22808 -0.02155
C 30.7113 23.40288 -0.01303
C 18.15955 19.28989 -0.00938
C 18.54728 17.8467 -0.0264
C 17.19001 16.96141 -0.01154
C 17.22051 15.50888 0.00684
C 18.47911 14.83393 -0.01052
C 18.42497 13.41604 -0.01679
C 17.64692 12.43429 0.00367
C 17.00545 11.3537 0.04306
C 16.9439 7.47084 0.00996
C 17.24375 4.3536 0.00195
C 17.17348 2.92387 -0.00802
C 18.3947 2.18463 -0.00218
C 18.37121 0.75051 -0.01654
C 17.21118 0.09668 -0.00037
C 19.74203 32.75953 -0.0032
C 16.94629 19.63353 -0.00229
C 20.83645 31.93282 0.00622
C 17.36772 28.48492 -0.01199
C 18.79557 30.6924 -0.00285
C 14.66196 12.61111 -0.01971
C 14.73086 11.2808 -0.02118
C 16.13192 10.33499 0.00733
C 15.97346 8.99178 -0.00178
C 14.60506 8.50871 0.00768
C 14.61715 7.21304 -0.0276
C 15.90445 6.50321 0.03005
C 16.01381 5.09651 -0.04078
C 14.83466 4.27209 0.02117
C 14.83725 2.91762 0.02737
C 16.03541 2.18139 -0.00498
C 15.96107 0.74009 0.00135
C 14.75896 0.05983 0.03102
C 17.27476 32.7326 0.02555
C 18.5084 32.03531 0.01423
C 17.47898 29.91159 -0.009
C 20.67528 30.47761 -0.02815
C 19.79596 17.0162 -0.00942
C 19.58736 15.77786 0.00487
C 28.36313 26.29985 0.0014
C 28.17634 23.48053 0.00924
C 28.30956 14.87611 0.02326
C 28.31212 2.23274 0.00261
C 28.22947 0.77259 0.03265
C 27.04855 0.05111 -0.02049
C 29.51081 32.69006 -0.01854
C 30.76105 32.02763 -0.01415
C 30.6971 30.59506 -0.03039
C 29.36367 29.7938 0.01836
C 29.30978 28.41808 0.03531
C 30.65882 27.72146 -0.00669
C 30.72781 26.33728 0.0101
C 29.47825 25.57676 0.01705
C 29.41075 24.12018 -0.0405
C 28.0586 27.67137 0.01324
C 26.8953 28.43525 0.04266
C 26.77227 29.80965 0.01177
C 28.09772 30.49459 -0.00416
C 19.71915 2.60428 0.00826
C 20.81214 2.08411 -0.00294
C 20.90889 0.56207 0.00152
C 19.63152 0.02459 0.01257
C 22.16062 32.45049 0.02316
C 23.40795 31.81416 0.04185
C 23.8733 30.41584 0.00194
C 30.71278 21.95734 -0.01461
C 23.29732 0.6648 -0.00621
C 24.57838 32.68821 0.02198
C 25.81056 31.94584 0.01094
C 25.51859 30.55687 0.00235
C 25.78435 0.61403 0.01495
C 24.55128 0.03363 0.01259
C 27.0072 32.69641 0.01799
C 28.18189 31.96682 0.01699
C 22.20408 33.93239 0.02611
C 2.46913 32.62744 0.00373
