375
Graphene
C 34.33185 0.0601 0.01295
C 9.74929 4.2911 0.02299
C 9.83363 2.82619 0.00244
C 11.067 2.17164 -0.01717
C 11.10518 0.80508 0.05265
C 9.84715 0.06875 -0.01952
C 12.32488 32.70125 -0.02813
C 13.52759 31.88622 0.00374
C 13.23015 30.44971 0.00052
C 12.25967 29.61473 -0.03682
C 13.60182 17.59646 0.01965
C 12.37882 17.05587 0.02058
C 12.42715 15.59448 -0.01957
C 13.60296 14.83083 -0.0108
C 13.52641 13.44496 -0.00368
C 12.32436 12.74479 -0.02696
C 12.25025 11.33503 -0.00114
C 13.44255 10.57816 0.00228
C 13.50889 9.14819 0.00798
C 12.27109 8.4313 0.00422
C 11.05695 5.038 0.03542
C 11.04259 6.35634 0.01416
C 9.80844 7.14009 0.01945
C 9.8504 8.50259 -0.01454
C 9.84985 32.72274 0.03101
C 11.06562 32.0374 -0.01536
C 11.1137 30.55251 -0.02689
C 9.81662 29.8991 -0.01046
C 9.9275 28.45963 -0.00891
C 11.09433 27.74401 0.02819
C 9.78385 25.5863 0.00165
C 9.84551 24.29052 -0.02971
C 9.83372 21.49498 0.02894
C 12.29284 7.02116 0.0351
C 10.10094 20.07832 -0.01789
C 11.16639 17.78561 -0.00925
C 9.88641 17.03861 0.01877
C 9.86248 15.58278 0.01363
C 11.11149 14.90123 -0.02162
C 11.05943 13.49775 0.00415
C 9.75853 12.7248 -0.0014
C 9.74905 11.35513 0.02162
C 11.07775 10.60809 0.0076
C 11.07044 9.16301 0.01241
C 11.16029 19.14146 0.00444
C 7.35396 34.07704 -0.00428
C 13.56685 6.42144 -0.03113
C 12.31348 4.34569 0.01848
C 18.40126 32.11164 0.02691
C 17.15127 15.41338 -0.01581
C 18.40437 15.01643 0.01452
C 18.44653 13.48018 0.04892
C 17.18857 12.79867 -0.00111
C 17.14474 11.3615 -0.03557
C 18.32168 10.62174 0.03754
C 18.50915 9.24506 0.01739
C 17.24786 8.4968 0.00755
C 17.27028 7.10566 -0.0054
C 18.50716 6.33219 0.00667
C 18.4573 4.93582 0.00143
C 17.20052 4.23394 -0.017
C 17.19647 2.75485 0.00364
C 18.38151 2.03254 -0.00831
C 18.48112 0.63383 -0.02957
C 17.19578 34.0788 -0.04422
C 19.68287 32.51843 0.00654
C 20.94539 31.96028 -0.00703
C 17.15628 32.57473 -0.01979
C 14.753 0.04729 0.02188
C 15.9842 0.7057 -0.00316
C 15.92659 2.14784 -0.0331
C 12.27059 2.9211 -0.00619
C 13.47507 2.13346 -0.02162
C 13.48586 0.74828 0.00889
C 12.33865 0.02634 -0.00481
C 14.71736 32.68625 0.00979
C 15.89739 32.00037 0.01443
C 14.67444 16.9008 0.03505
C 14.81874 15.60872 -0.02815
C 15.95883 14.84035 -0.04147
C 13.53964 5.00703 0.02098
C 15.99313 13.40769 -0.05302
C 14.68718 11.29643 -0.00066
C 15.91452 10.63711 -0.00289
C 15.91988 9.23952 0.00028
C 14.73738 8.50326 -0.02213
C 14.80712 7.08531 0.03698
C 16.00018 6.38214 -0.00109
C 16.00665 4.90479 -0.00491
C 14.74874 4.23123 0.03338
C 14.7178 2.81183 -0.0258
C 14.7603 12.73382 0.00213
C 19.66752 15.50001 -0.04076
C 8.60745 0.73466 -0.02245
C 7.3755 2.82406 -0.01275
C 3.67231 4.986 0.01305
C 2.42324 4.2696 -0.00077
C 2.47093 2.83732 0.03368
C 3.65536 2.19063 -0.02929
C 3.58547 0.73654 -0.00966
C 2.4462 34.05624 -0.03337
C 4.86174 32.73914 0.01227
C 6.06214 31.99802 0.00873
C 6.13275 30.62275 -0.00049
C 4.96792 29.84453 0.00848
C 4.92274 28.4137 -0.01303
C 6.2057 27.74929 -0.01378
C 6.16532 26.30263 0.02635
C 4.90907 25.64305 0.0127
C 4.89193 24.22748 0.01396
C 6.18896 23.48148 0.01849
C 6.07346 22.07396 -0.01142
C 4.91399 21.30958 -0.00562
C 4.99692 19.89241 -0.00494
C 3.74911 6.39637 0.0276
C 2.44803 7.14648 0.00988
C 2.40985 8.50566 -0.01343
C 3.66309 9.28693 0.01087
C 3.66452 30.53126 0.00402
C 2.45565 29.84068 0.0073
C 2.40352 28.43928 0.0174
C 3.66222 27.77412 0.03828
C 3.70847 26.38614 0.01226
C 2.51951 25.54535 -0.00279
C 2.46447 24.08337 0.01996
C 3.65239 23.37748 -0.03996
C 3.60176 21.93019 0.01465
C 6.23257 19.15096 0.00054
C 2.36287 21.23798 -0.00074
C 3.63404 19.19263 0.0086
C 3.70007 17.81063 -0.00643
C 2.46628 17.10006 0.017
C 2.44591 15.65346 -0.03113
C 3.67413 14.94147 -0.02566
C 3.71808 13.49431 -0.00094
C 2.47838 12.84868 0.02322
C 2.44497 11.44516 -0.00725
C 3.65779 10.72669 -0.05697
C 2.36529 19.87408 -0.00518
C 8.62922 2.12974 0.00985
C 6.18066 17.70817 0.03007
C 4.91003 15.6095 0.01572
C 8.67209 23.56367 0.00093
C 8.61034 22.13501 0.00057
C 7.39451 21.34361 -0.01634
C 7.45219 19.9032 -0.00334
C 8.7409 19.22071 0.02339
C 8.65444 17.71287 0.01641
C 7.4096 17.02664 -0.00719
C 7.39553 15.56999 0.01364
C 8.61044 14.82913 -0.01062
C 8.57934 13.50357 -0.00033
C 7.31746 12.80422 0.03589
C 7.32988 11.39182 -0.02759
C 8.56623 10.62177 0.0402
C 8.5652 9.28611 0.00572
C 7.36702 8.54043 0.03592
C 7.37455 7.13142 0.00406
C 8.58008 6.40773 0.00943
C 8.62228 4.98785 0.02841
C 7.3772 4.30098 -0.01111
C 7.42861 24.21926 0.01291
C 7.39896 25.65503 0.00438
C 8.67121 26.31889 -0.00191
C 8.66928 27.7671 0.00373
C 6.15839 14.92094 -0.04848
C 6.16972 13.58026 -0.00892
C 4.95675 12.8718 -0.01362
C 4.88783 11.43328 -0.0008
C 6.05545 10.75265 0.0288
C 6.05559 9.31268 0.00393
C 4.90597 8.57946 0.00895
C 4.90545 7.13334 0.00685
C 6.11048 6.47393 0.02888
C 4.88915 17.07142 -0.00095
C 6.13864 4.98539 -0.00482
C 4.91085 2.86177 0.03693
C 6.14079 2.19564 0.01745
C 6.13365 0.76764 0.00488
C 4.86653 0.06577 -0.01004
C 7.33757 32.67648 -0.02896
C 8.55398 32.01389 -0.00131
C 8.59612 30.57558 -0.01118
C 7.36895 29.92362 -0.014
C 7.45008 28.4434 0.02147
C 4.87084 4.36229 -0.01384
C 3.68321 31.91199 0.02374
C 20.82889 14.8569 -0.00652
C 19.66321 12.7872 -0.00865
C 30.6876 2.16959 0.00716
C 30.65259 0.77275 0.00307
C 29.47388 34.07582 0.00346
C 31.9058 32.72537 0.01713
C 33.13678 31.97748 -0.01694
C 33.23671 30.58245 0.01428
C 31.97906 29.80355 -0.02142
C 31.97067 28.41745 0.0544
C 33.21198 27.71998 0.00026
C 33.22462 26.30515 0.00682
C 31.99134 25.63141 -0.01779
C 31.98982 24.15557 0.03794
C 33.16683 23.44342 0.01927
C 33.11304 22.02995 0.01574
C 31.92163 21.29857 -0.02383
C 31.93213 19.84941 -0.01429
C 33.14716 19.17322 -0.0136
C 33.22501 17.7536 0.00594
C 31.9856 16.95188 -0.02474
C 29.47663 2.91137 0.02108
C 29.57974 4.31475 0.0103
C 30.79683 4.91865 0.07705
C 30.71752 6.30741 0.01908
C 30.80076 27.68064 0.02326
C 30.80582 26.25636 0.00261
C 29.49444 25.53349 0.03265
C 29.53504 24.17641 -0.02049
C 30.7975 23.44192 -0.01854
C 30.72045 21.99199 -0.01415
C 29.411 21.29616 -0.03039
C 29.44254 19.91866 0.01836
C 30.73681 19.12409 0.03531
C 31.93342 15.58708 0.00369
C 30.78941 17.72246 -0.00669
C 29.49234 15.61619 0.01705
C 30.66801 14.91827 -0.0405
C 30.68092 13.47656 -0.01303
C 29.46477 12.75007 -0.01461
C 29.51247 11.36448 -0.02155
C 30.76986 10.70794 -0.00944
C 30.79969 9.20285 -0.03735
C 29.56864 8.49208 -0.00971
C 29.5281 7.11826 0.01518
C 29.54286 16.99304 0.0101
C 29.61003 28.42459 0.00924
C 33.26195 14.92612 0.00455
C 31.92679 12.86716 -0.01839
C 34.3793 19.90274 0.01951
C 1.14802 19.18622 -0.01678
C 1.20022 17.78203 0.01223
C 0.04883 17.12112 0.00648
C 0.00667 15.66028 0.02114
C 1.27501 14.97119 -0.02957
C 1.23398 13.55581 0.00343
C 0.0021 12.86824 -0.02656
C 0.06023 11.36155 -0.02442
C 1.26588 10.62004 -0.00027
C 1.25875 9.24552 -0.00583
C 34.40919 8.5362 -0.02302
C 34.38672 7.13309 -0.02849
C 1.18965 6.37257 0.02931
C 1.20591 4.95359 0.00628
C 34.3873 4.2514 -0.0345
C 0.03095 2.81707 -0.00931
C 1.19965 2.06796 -0.00939
C 1.24324 0.68833 -0.00468
C 34.36209 21.31593 -0.02213
C 1.13792 21.98935 0.02712
C 1.20768 23.38297 0.00723
C 34.39975 24.1221 0.03076
C 32.00977 11.42845 0.00137
C 33.25606 10.72843 0.00199
C 33.19887 9.29238 0.04381
C 31.96758 8.53037 0.02806
C 31.92373 7.09639 0.01504
C 33.17348 6.40967 -0.00069
C 33.1707 4.98274 0.04926
C 31.9848 4.25245 -0.03838
C 31.95185 2.81289 0.00349
C 33.17881 13.49291 -0.00644
C 33.20991 2.18123 -0.00323
C 31.8685 0.04262 0.0001
C 34.39006 32.73671 -0.02927
C 1.18046 31.98654 -0.01404
C 1.23955 30.55145 0.01027
C 0.01655 29.86137 0.01831
C 34.40672 28.40794 -0.01037
C 1.16696 27.67414 -0.00439
C 1.19345 26.21092 -0.00598
C 34.39238 25.49409 -0.05239
C 33.14462 0.78238 -0.00841
C 20.94537 13.43388 0.0058
C 29.61972 29.79744 0.0014
C 30.66567 31.96674 0.04266
C 22.13786 8.49946 -0.03213
C 22.1244 7.05008 0.02239
C 23.33681 6.35685 0.01153
C 23.3356 4.93159 0.02734
C 22.10901 4.17457 -0.0055
C 22.09104 2.81748 0.01515
C 23.30516 2.06596 -0.00225
C 23.39407 0.68285 0.00071
C 22.21646 34.01757 -0.01107
C 24.56233 32.62031 -0.01586
C 25.80224 31.87478 -0.01971
C 25.79071 30.43499 -0.02118
C 24.57257 29.81044 0.00733
C 25.84389 27.65963 -0.00178
C 25.89697 19.1012 0.00768
C 25.79833 17.76924 -0.0276
C 24.5534 17.10916 0.03005
C 24.52619 15.70379 -0.04078
C 25.73592 14.93802 0.02117
C 23.35628 9.23163 -0.02845
C 23.39142 10.60262 0.03374
C 22.05731 11.29129 0.0296
C 22.16844 12.72825 0.03046
C 19.57619 11.34426 0.00675
C 20.823 10.63964 -0.00311
C 20.87389 9.18694 0.00742
C 19.70907 8.45831 -0.01594
C 19.75313 7.03392 0.0106
C 20.99394 6.31807 -0.01154
C 20.92755 4.89469 -0.01721
C 19.71888 4.20034 -0.02422
C 19.60475 2.82257 0.01277
C 25.79144 13.53022 0.02737
C 20.91533 2.06599 0.00096
C 19.73987 0.04934 0.01087
C 22.07635 32.58208 0.00199
C 23.38693 31.85474 0.01511
C 23.46512 30.45267 -0.00478
C 23.33309 17.67071 -0.01662
C 22.2688 16.97771 -0.01185
C 21.97398 15.66052 0.01126
C 23.29546 14.95116 0.01852
C 23.36761 13.4807 -0.00381
C 20.98856 0.66571 -0.01527
C 30.71947 30.52402 0.01324
C 24.52735 12.72782 -0.00498
C 25.77699 10.68541 0.03102
C 28.29293 17.73226 0.00487
C 27.08001 17.01594 0.00826
C 26.93891 15.61899 -0.00294
C 28.22824 14.94964 0.00152
C 28.25599 13.54617 0.01257
C 27.0215 12.83383 0.02316
C 27.04239 11.4038 0.04185
C 28.27441 10.65924 0.00194
C 28.32146 9.19885 -0.00621
C 27.02035 8.51414 0.02611
C 26.99646 7.12636 0.02198
C 28.22305 6.4032 0.01094
C 28.29434 5.01085 0.00235
C 27.08061 4.24143 0.01495
C 27.04115 2.81915 0.01259
C 28.24216 2.16099 0.01799
C 28.33628 0.81476 0.01699
C 27.01915 34.07864 -0.00416
C 29.43708 32.62347 0.01177
C 28.27703 19.09061 -0.00942
C 26.95976 19.93357 -0.02815
C 26.92378 21.31395 0.00622
C 28.11049 21.99266 -0.0032
C 25.79305 9.28519 0.02555
C 24.57537 8.41433 0.01423
C 24.49348 7.02814 -0.00285
C 25.82334 6.33126 -0.009
C 25.78911 4.89501 -0.01199
C 24.5585 4.22171 -0.00229
C 24.45924 2.85716 -0.00938
C 25.73235 2.10961 -0.0264
C 25.83597 0.71364 -0.01154
C 24.54675 11.36915 0.00135
C 24.65711 34.07136 0.00684
C 28.20149 31.92393 -0.01679
C 28.30375 30.39052 0.00367
C 27.03818 29.73644 0.04306
C 27.01255 28.29804 0.00996
C 28.32922 27.67658 0.00195
C 28.26454 26.28809 -0.00802
C 27.04144 25.49351 -0.00218
C 27.06897 24.19097 -0.01654
C 28.20491 23.4054 -0.00037
C 27.07014 32.64933 -0.01052
C 2.4352 32.61147 0.03267
