440
Graphene
C 0.00413 33.98189 0.01295
C 12.13088 19.98019 -0.01634
C 13.48678 19.14316 -0.00334
C 13.44799 17.76176 0.02339
C 12.18524 17.07481 0.01641
C 12.12704 15.62963 -0.00719
C 13.4284 15.02352 0.01364
C 13.50633 13.63694 -0.01062
C 12.30036 12.82308 -0.00033
C 12.3096 11.52579 0.03589
C 13.49548 10.71547 -0.02759
C 13.45329 9.2467 0.0402
C 12.28706 8.529 0.00572
C 12.30459 7.03174 0.03592
C 13.50197 6.36536 0.00406
C 13.53564 4.93157 0.00943
C 12.30371 4.35601 0.02841
C 12.22898 2.89791 -0.01111
C 13.4661 2.1542 -0.01275
C 13.41135 0.73851 0.00985
C 12.27738 0.08747 -0.02245
C 14.70409 32.58216 -0.00428
C 15.96153 32.0306 0.03101
C 16.02672 30.5379 -0.01536
C 12.23581 21.32518 0.00057
C 13.43093 22.07111 0.00093
C 13.5495 23.51362 0.01291
C 12.34809 24.2383 0.00438
C 9.73711 15.70713 -0.00095
C 10.95102 14.91466 0.01572
C 11.01281 13.51037 -0.04848
C 9.76048 12.78005 -0.00892
C 9.79861 11.30726 -0.01362
C 11.09127 10.72586 -0.0008
C 11.10246 9.26527 0.0288
C 9.84576 8.62109 0.00393
C 9.82578 7.20131 0.00895
C 11.00226 6.42561 0.00685
C 10.98757 5.06477 0.02888
C 14.79025 29.92983 -0.02689
C 9.87443 4.26852 -0.00482
C 11.00374 2.21215 0.03693
C 11.07916 0.74677 0.01745
C 9.79728 0.09948 0.00488
C 12.19097 32.69561 -0.01004
C 13.47397 31.91265 -0.02896
C 13.50822 30.57437 -0.00131
C 12.28486 29.75357 -0.01118
C 12.30886 28.37574 -0.014
C 13.59989 27.71952 0.02147
C 13.56058 26.29448 0.00373
C 12.26063 25.64262 -0.00191
C 9.78905 2.83719 -0.01384
C 9.73874 17.09554 0.03007
C 14.78753 28.46416 -0.01046
C 15.94244 26.28852 0.02819
C 17.21522 29.7368 0.02058
C 17.2406 28.39509 -0.01957
C 18.4609 27.64552 -0.0108
C 18.5063 26.28261 -0.00368
C 17.24229 25.65814 -0.02696
C 17.19217 24.16071 -0.00114
C 18.44042 23.38805 0.00228
C 18.39379 22.01948 0.00798
C 17.1248 21.34212 0.00422
C 17.12375 19.86211 0.0351
C 18.41441 19.21343 -0.03113
C 18.4259 17.76022 0.02098
C 17.09977 17.04958 0.01848
C 17.04059 15.6301 -0.00619
C 18.36934 14.91177 -0.02162
C 18.37435 13.48449 0.00889
C 17.16225 12.78058 -0.00481
C 17.17681 11.35786 0.00979
C 18.42391 10.65378 0.01443
C 18.42522 9.22953 0.03505
C 17.18694 8.53883 -0.02815
C 17.17756 7.11273 -0.04147
C 18.47443 6.439 -0.05302
C 18.3968 30.58196 0.01965
C 18.35644 31.95245 -0.03682
C 17.18849 32.68782 0.00052
C 14.69695 34.04335 0.00374
C 14.74523 25.53983 0.00165
C 14.7393 24.22249 -0.02971
C 15.90496 23.49448 0.02894
C 15.92026 22.05531 -0.01789
C 14.6495 21.34761 0.00444
C 14.69975 19.90862 -0.00925
C 15.88563 19.2287 0.01877
C 15.82433 17.82962 0.01363
C 14.65197 17.11415 -0.02162
C 14.71489 15.75076 0.00415
C 15.8233 14.95697 -0.0014
C 15.91255 27.67611 -0.00891
C 15.95476 13.4786 0.02162
C 14.7068 11.40462 0.01241
C 16.00058 10.67013 -0.01454
C 15.949 9.24706 0.01945
C 14.71237 8.47379 0.01416
C 14.67255 7.17027 0.03542
C 15.92902 6.38982 0.02299
C 15.96298 4.93926 0.00244
C 14.69624 4.32613 -0.01717
C 14.68355 2.81969 0.05265
C 15.92838 2.0403 -0.01952
C 15.90824 0.66077 -0.02813
C 14.70449 12.77311 0.0076
C 18.43836 4.96837 0.00213
C 10.99496 17.77132 0.00054
C 9.8077 19.86426 -0.00562
C 3.71919 0.70232 0.04421
C 2.51196 34.06487 0.00088
C 4.93343 32.72985 0.00828
C 6.1345 31.9328 -0.02375
C 6.11296 30.57822 0.00558
C 4.82119 29.81477 -0.0059
C 4.85024 28.39729 -0.01386
C 6.06636 27.7212 -0.02805
C 6.10122 26.2695 0.00081
C 4.92736 25.55928 0.00245
C 4.93474 24.10163 0.02728
C 6.09195 23.42936 -0.00039
C 6.03605 21.99161 0.0064
C 4.79757 21.31436 0.00211
C 4.79526 19.97817 -0.00449
C 6.07412 19.27054 -0.01979
C 5.96615 17.82697 0.02784
C 4.88336 16.99493 -0.01977
C 4.85782 15.53482 -0.00561
C 6.12689 14.87896 0.00208
C 6.14542 13.53595 0.01707
C 4.78341 12.78157 0.02769
C 4.88325 11.45021 -0.03291
C 3.71934 2.1842 -0.00177
C 2.52999 2.85642 0.03278
C 2.53224 4.29407 0.01138
C 3.76836 5.03034 -0.00407
C 3.69999 30.61854 0.01116
C 2.4412 29.84979 -0.0005
C 2.43228 28.39774 -0.00018
C 3.63917 27.66546 0.01073
C 3.73041 26.2369 0.01984
C 2.46222 25.56358 0.00535
C 2.49041 24.12201 -0.00198
C 3.68496 23.43851 -0.00012
C 3.57233 22.02835 -0.04306
C 2.33005 21.29193 -0.03672
C 2.37953 19.87533 0.01913
C 6.15533 10.76439 -0.04999
C 3.68141 19.13127 0.00267
C 2.40015 17.08577 0.02426
C 2.31674 15.64615 0.01218
C 3.59761 14.91813 -0.01471
C 3.55262 13.50625 -0.02827
C 2.27923 12.79026 0.01078
C 2.34381 11.25136 -0.00112
C 3.628 10.68291 0.03345
C 3.70722 9.25663 0.00748
C 2.50992 8.59766 0.00662
C 2.49596 7.12425 -0.0154
C 3.72946 6.43852 -0.01299
C 3.61548 17.70523 0.00787
C 10.9989 19.182 -0.00494
C 6.07472 9.3298 0.04505
C 4.99862 7.14543 -0.04307
C 8.58634 10.69157 -0.00725
C 8.54982 9.20098 -0.05697
C 7.35463 8.53888 0.01087
C 7.40628 7.20732 -0.01343
C 8.61294 6.52128 0.00988
C 8.69237 5.07388 0.0276
C 7.41263 4.35542 0.01305
C 7.30126 2.94377 -0.00077
C 8.53094 2.20265 0.03368
C 8.59552 0.73567 -0.02929
C 7.37475 0.06815 -0.00966
C 9.81271 32.72974 -0.03337
C 11.06435 31.97495 0.01227
C 11.05584 30.55361 0.00873
C 9.83845 29.8037 -0.00049
C 9.7652 28.45775 0.00848
C 11.03035 27.66793 -0.01303
C 11.05212 26.2986 -0.01378
C 9.81906 25.57777 0.02635
C 9.76574 24.26239 0.0127
C 11.06457 23.46099 0.01396
C 11.00654 22.01545 0.01849
C 9.78268 21.31676 -0.01142
C 7.41227 11.42398 0.02322
C 7.45038 12.91946 -0.00094
C 8.62635 13.56848 -0.02566
C 8.51962 15.06228 -0.03113
C 6.19743 6.47447 0.03189
C 6.2398 5.07861 0.00031
C 4.95286 4.31799 -0.003
C 4.9534 2.97679 0.01402
C 6.13952 2.21677 0.02379
C 6.14793 0.77175 0.00907
C 4.91961 0.02026 0.00643
C 7.31549 32.69202 -0.01509
C 8.59951 31.98447 0.03267
C 8.64159 30.50814 0.02374
C 7.41217 29.87469 0.00402
C 4.98571 8.54824 0.03284
C 7.31884 28.44385 0.0073
C 8.58983 26.44416 0.03828
C 7.3321 25.62504 0.01226
C 7.30667 24.16201 -0.00279
C 8.56588 23.45226 0.01996
C 8.59585 22.05599 -0.03996
C 7.40689 21.32934 0.01465
C 7.3199 19.90309 -0.00074
C 8.56119 19.19363 -0.00518
C 8.43392 17.81337 0.0086
C 7.26852 17.13321 -0.00643
C 7.2441 15.70527 0.017
C 8.60561 27.79134 0.0174
C 17.19944 4.22868 -0.00066
C 17.20059 2.83991 -0.00289
C 18.45993 2.13005 0.00028
C 30.57286 14.99464 -0.0405
C 30.74638 13.4986 -0.01303
C 29.52315 12.67719 -0.01461
C 29.5489 11.27216 -0.02155
C 30.80087 10.475 -0.00944
C 30.80672 9.04614 -0.03735
C 29.52352 8.47225 -0.00971
C 29.4563 7.07722 0.01518
C 30.73049 6.31864 0.01908
C 30.72978 4.91449 0.07705
C 29.51715 4.2186 0.0103
C 29.53961 2.684 0.02108
C 30.77986 1.98716 0.00716
C 30.77865 0.61453 0.00307
C 29.51218 33.98415 0.00346
C 31.93774 32.60512 0.01713
C 33.18383 31.92461 -0.01694
C 33.22647 30.46095 0.01428
C 31.99654 29.78363 -0.02142
C 31.86339 28.34667 0.0544
C 33.17422 27.6619 0.00026
C 33.10688 26.29579 0.00682
C 31.85245 25.66619 -0.01779
C 29.38163 15.58768 0.01705
C 29.36842 17.0143 0.0101
C 30.62423 17.74356 -0.00669
C 30.65001 19.15795 0.03531
C 26.92829 12.72696 0.00194
C 26.97819 11.262 -0.00621
C 28.2592 10.63921 0.02611
C 28.33215 9.18818 0.02198
C 27.05198 8.45771 0.01094
C 27.04595 7.07762 0.00235
C 28.31201 6.4083 0.01495
C 28.33665 4.94024 0.01259
C 27.07515 4.22265 0.01799
C 27.06271 2.77565 0.01699
C 28.28139 2.06187 -0.00416
C 31.90634 24.16099 0.03794
C 28.27457 0.6089 0.01177
C 29.45318 32.47511 0.01324
C 30.69283 31.82935 0.0014
C 30.67707 30.36994 0.00924
C 29.64082 29.40539 0.02326
C 30.38108 27.97517 0.00261
C 30.38986 26.27542 0.03265
C 29.5658 24.55413 -0.02049
C 30.68639 23.57203 -0.01854
C 30.70236 22.15185 -0.01415
C 29.49776 21.38377 -0.03039
C 29.42982 19.92721 0.01836
C 27.10904 34.03977 0.04266
C 28.21655 13.30154 0.04185
C 33.12194 23.48995 0.01927
C 31.86519 21.38817 -0.02383
C 34.38879 24.21405 0.03076
C 1.17168 23.4162 0.00723
C 1.1011 21.97376 0.02712
C 34.31945 21.25423 -0.02213
C 34.33878 19.93532 0.01951
C 1.05773 19.08721 -0.01678
C 1.18539 17.75606 0.01223
C 34.40373 17.02566 0.00648
C 34.27452 15.60032 0.02114
C 1.16664 14.90907 -0.02957
C 1.10791 13.4727 0.00343
C 34.2979 12.70501 -0.02656
C 34.32382 11.33981 -0.02442
C 1.1304 10.58038 -0.00027
C 1.17918 9.24468 -0.00583
C 34.38287 8.48159 -0.02302
C 34.37765 7.01919 -0.02849
C 1.26751 6.35851 0.02931
C 1.27766 4.98828 0.00628
C 0.06753 4.26921 -0.0345
C 0.04728 2.87258 -0.00931
C 1.23897 2.12602 -0.00939
C 1.22809 0.68426 -0.00468
C 34.38525 25.57428 -0.05239
C 1.2502 26.37526 -0.00598
C 1.25452 27.74746 -0.00439
C 34.40024 28.43845 -0.01037
C 31.90583 19.90594 -0.01429
C 33.14442 19.19961 -0.0136
C 33.12824 17.72911 0.00594
C 31.97385 16.97026 -0.02474
C 31.91515 15.62005 0.00369
C 33.08652 14.79457 0.00455
C 33.07889 13.34002 -0.00644
C 31.87439 12.69262 -0.01839
C 31.92618 11.2778 0.00137
C 33.13654 10.52328 0.00199
C 33.13903 9.10892 0.04381
C 33.07518 22.1257 0.01574
C 32.00115 8.33067 0.02806
C 33.23677 6.23574 -0.00069
C 33.19894 4.92079 0.04926
C 31.97231 4.12483 -0.03838
C 32.04143 2.75692 0.00349
C 33.25326 2.10609 -0.00323
C 33.24855 0.70052 -0.00841
C 31.99628 34.05029 0.0001
C 34.41112 32.55002 -0.02927
C 1.33213 31.99122 -0.01404
C 1.24086 30.56165 0.01027
C 34.42055 29.81839 0.01831
C 31.94121 6.95049 0.01504
C 28.21965 14.75338 0.02316
C 27.02846 15.55757 0.01257
C 27.02858 17.16792 0.00152
C 20.80815 5.01898 -0.00703
C 19.59583 4.32186 -0.04076
C 19.57817 2.88281 -0.00652
C 20.82525 2.18084 0.0058
C 20.84082 0.73783 -0.00865
C 19.62235 0.05452 0.00675
C 22.09103 32.74485 -0.00311
C 23.2 31.97118 0.00742
C 23.2534 30.54391 -0.01594
C 22.06261 29.92818 0.0106
C 22.10511 28.35387 -0.01154
C 23.47084 27.77727 -0.01721
C 23.5536 26.38758 -0.02422
C 22.23675 25.61533 0.01277
C 22.09974 24.13933 0.00096
C 23.37887 23.46242 -0.01527
C 23.22291 21.90718 0.01087
C 22.05971 21.2266 0.00199
C 22.07661 19.81712 0.01511
C 23.31274 19.18836 -0.00478
C 23.34492 17.77636 -0.01662
C 22.07127 17.09548 -0.01185
C 22.07629 15.68995 0.01126
C 20.85102 6.37107 0.00654
C 19.64911 7.12526 -0.04422
C 19.74293 8.56118 -0.02957
C 20.87437 9.30472 -0.00831
C 18.38052 0.74397 -0.02213
C 17.24375 0.03974 0.03698
C 19.62134 32.69974 -0.00109
C 20.90111 32.02591 -0.00491
C 20.89618 30.6215 0.03338
C 19.69486 29.87721 -0.0258
C 19.6335 28.50622 -0.0331
C 20.88718 27.6637 -0.00316
C 20.89897 26.26345 0.02188
C 19.69948 25.58812 -0.01979
C 19.6243 24.08768 0.02691
C 23.26012 14.88342 0.01852
C 20.95954 23.43156 -0.01581
C 19.62105 21.34244 0.04892
C 19.62596 19.90077 -0.00111
C 20.8333 19.08743 -0.03557
C 20.8492 17.76946 0.03754
C 19.59975 17.04732 0.01739
C 19.61243 15.64879 0.00755
C 20.83789 14.9459 -0.0054
C 20.81975 13.58761 0.00667
C 19.6236 12.7406 0.00143
C 19.63592 11.37527 -0.017
C 20.90202 10.76038 0.00364
C 20.84595 22.01173 0.01452
C 23.31552 13.48879 -0.00381
C 22.05723 12.83933 0.03046
C 22.07646 11.41082 0.0296
C 24.55194 12.82674 -0.009
C 24.51321 11.33213 -0.01199
C 25.72171 10.59818 -0.00229
C 25.86406 9.18172 -0.00938
C 24.56546 8.51709 -0.0264
C 24.56984 7.11396 -0.01154
C 25.84962 6.32772 0.00684
C 25.84431 4.95577 -0.01052
C 24.62047 4.24415 -0.01679
C 24.52751 2.8054 0.00367
C 25.86911 2.064 0.04306
C 25.78251 13.44409 -0.00285
C 25.79067 0.66722 0.00996
C 27.07878 32.5061 -0.00802
C 28.26642 31.60631 -0.00218
C 28.27224 30.07876 -0.01654
C 26.91101 29.70556 -0.00037
C 26.97393 24.30053 -0.0032
C 28.30659 23.85344 0.00622
C 28.19348 22.18343 -0.02815
C 27.02474 21.38196 -0.00942
C 26.97804 19.95484 0.00487
C 28.27563 19.25126 0.00826
C 28.29999 17.78232 -0.00294
C 24.52916 0.00438 0.00195
C 3.69267 31.97811 -0.0213
C 25.80439 14.94239 0.01423
C 24.47583 17.06693 0.03102
C 23.27466 10.63345 0.03374
C 23.39265 9.25016 -0.02845
C 22.09621 8.50594 -0.03213
C 22.02863 7.06424 0.02239
C 23.33824 6.44833 0.01153
C 23.36008 5.00984 0.02734
C 22.07387 4.34933 -0.0055
C 22.09743 2.905 0.01515
C 23.37367 2.1238 -0.00225
C 23.35586 0.79074 0.00071
C 22.11596 0.04206 -0.01107
C 24.54818 15.63357 0.02555
C 24.50109 32.65447 -0.01586
C 25.78871 30.47372 -0.02118
C 24.55216 29.91462 0.00733
C 24.65915 28.56204 -0.00178
C 24.70169 25.41925 0.00768
C 24.58533 23.98738 -0.0276
C 25.8437 23.47467 0.03005
C 25.77228 22.00787 -0.04078
C 24.61443 21.30117 0.02117
C 24.54436 19.89173 0.02737
C 25.79716 19.22758 -0.00498
C 25.82598 17.82305 0.00135
C 25.72732 31.91048 -0.01971
C 2.46169 32.67929 -0.00374
