381
Graphene
C 34.42538 34.07496 0.01295
C 16.02058 14.96822 -0.01454
C 15.96865 13.51194 0.01945
C 14.74146 12.80352 0.01416
C 14.79795 11.38533 0.03542
C 15.96892 10.67765 0.02299
C 15.98977 9.2676 0.00244
C 14.76016 8.48994 -0.01717
C 14.74744 7.08066 0.05265
C 15.93682 6.3019 -0.01952
C 15.97572 4.89676 -0.02813
C 14.77642 4.20813 0.00374
C 14.87538 2.78954 0.00052
C 16.0448 2.06951 -0.03682
C 16.03369 0.6416 0.01965
C 14.79211 0.17937 0.02058
C 17.25346 32.60701 -0.01957
C 18.35 31.79238 -0.0108
C 18.36859 30.44799 -0.00368
C 18.59288 23.29351 -0.02696
C 14.76415 15.62806 0.01241
C 14.71234 17.08034 0.0076
C 15.95963 17.73014 0.02162
C 15.95803 19.19887 -0.0014
C 12.23981 17.06732 -0.01275
C 12.30424 15.73207 0.00985
C 13.52329 14.94771 -0.02245
C 13.53686 13.526 -0.00428
C 12.31405 12.81564 0.03101
C 12.31884 11.42589 -0.01536
C 13.57325 10.6991 -0.02689
C 13.56566 9.24151 -0.01046
C 12.31267 8.65504 -0.00891
C 18.41236 21.99525 -0.00114
C 12.25458 7.22298 0.02819
C 13.57831 4.907 -0.02971
C 12.31348 4.29513 0.02894
C 12.36939 2.82899 -0.01789
C 13.64387 2.10672 0.00444
C 13.50037 0.56092 -0.00925
C 12.19302 0.15008 0.01877
C 15.82698 21.82269 0.01363
C 14.79583 21.33636 -0.02162
C 14.75532 19.8903 0.00415
C 13.54305 6.35045 0.00165
C 17.17919 21.34472 0.00228
C 17.15952 19.97119 0.00798
C 18.45905 19.2313 0.00422
C 20.82188 26.24532 -0.0331
C 19.69329 25.47772 -0.00316
C 19.60833 24.12397 0.02188
C 20.89609 23.47869 -0.01979
C 20.87812 21.98268 0.02691
C 19.65597 21.31148 -0.01581
C 19.65731 19.93295 0.01452
C 20.93387 19.22616 0.04892
C 20.97484 17.78251 -0.00111
C 20.88165 27.65956 -0.0258
C 19.74146 17.11568 -0.03557
C 20.914 14.92484 0.01739
C 20.93602 13.42604 0.00755
C 19.62935 12.75708 -0.0054
C 19.66325 11.30801 0.00667
C 20.90353 10.58767 0.00143
C 20.93477 9.17311 -0.017
C 19.66031 8.5251 0.00364
C 19.56665 7.13732 -0.00831
C 20.82863 6.37541 -0.02957
C 19.65386 15.66351 0.03754
C 13.48995 17.8164 -0.01111
C 19.72268 28.36577 0.03338
C 20.91332 30.49448 -0.00109
C 18.45695 17.82087 0.0351
C 17.25298 17.07947 -0.03113
C 17.26528 15.64759 0.02098
C 18.45953 14.96297 0.01848
C 18.41541 13.49158 -0.00619
C 17.20229 12.76677 -0.02162
C 17.23554 11.37205 0.00889
C 18.44555 10.65023 -0.00481
C 18.47218 9.28297 0.00979
C 19.53959 29.75483 -0.00491
C 17.17509 8.48737 0.01443
C 18.3669 6.42757 -0.02815
C 18.34821 4.97282 -0.04147
C 17.19138 4.22658 -0.05302
C 17.26233 2.8743 0.00213
C 18.48739 2.11022 -0.00066
C 18.48251 0.65761 -0.00289
C 17.19643 33.94851 0.00028
C 19.64033 32.6091 -0.02213
C 20.90249 31.86724 0.03698
C 17.1034 7.0655 0.03505
C 13.56125 19.16136 0.02841
C 12.32134 19.98373 0.00943
C 12.17687 21.34942 0.00406
C 2.49072 2.87362 -0.00725
C 3.68597 0.72257 -0.05697
C 2.45812 0.02835 0.01087
C 4.90502 32.72569 -0.01343
C 6.13069 31.94249 0.00988
C 6.17458 30.47367 0.0276
C 4.79876 29.86208 0.01305
C 4.91543 28.40768 -0.00077
C 6.09177 27.77027 0.03368
C 2.42621 4.14502 0.02322
C 6.19971 26.35397 -0.02929
C 4.97702 24.19585 -0.03337
C 6.15693 23.49085 0.01227
C 6.09103 22.05978 0.00873
C 4.83536 21.3804 -0.00049
C 4.93779 19.96014 0.00848
C 6.10889 19.17464 -0.01303
C 6.08413 17.72051 -0.01378
C 4.87876 17.08288 0.02635
C 4.95997 15.60896 0.0127
C 4.9486 25.59094 -0.00966
C 6.20169 14.96576 0.01396
C 2.57581 7.08723 -0.00094
C 3.71513 9.23594 -0.03113
C 3.62131 30.58147 0.02379
C 2.36683 29.87146 0.00907
C 2.45406 28.43105 0.00643
C 3.69273 27.69403 -0.01509
C 3.7187 26.30311 0.03267
C 2.48405 25.50307 0.02374
C 2.45662 24.10619 0.00402
C 3.71015 23.38944 0.0073
C 3.589 21.9923 0.0174
C 2.44212 8.55327 -0.02566
C 2.36187 21.33044 0.03828
C 3.75565 19.18758 -0.00279
C 3.67314 17.79092 0.01996
C 2.47898 17.0171 -0.03996
C 2.51246 15.59876 0.01465
C 3.76437 14.95329 -0.00074
C 3.68608 13.55613 -0.00518
C 2.43235 12.76031 0.0086
C 2.44066 11.33874 -0.00643
C 3.68963 10.62453 0.017
C 2.40812 19.94593 0.01226
C 20.89448 4.93011 -0.04422
C 6.12567 13.53436 0.01849
C 4.9012 11.49164 -0.00562
C 7.23786 0.00804 0.02147
C 9.7499 32.70436 0.00373
C 10.01458 21.28221 -0.00191
C 9.846 19.94768 0.00438
C 11.05978 19.08207 0.01291
C 10.92054 17.70513 0.00093
C 9.70653 17.0241 0.00057
C 9.79772 15.55876 -0.01634
C 11.05897 14.95417 -0.00334
C 7.37119 8.64318 -0.014
C 11.07593 13.52555 0.02339
C 9.83561 11.35844 -0.00719
C 11.09483 10.68191 0.01364
C 11.05216 9.26112 -0.01062
C 9.94475 8.58185 -0.00033
C 11.10892 6.3185 0.03589
C 11.09563 5.09751 -0.02759
C 11.20901 2.1609 0.0402
C 10.97315 0.78442 0.00572
C 9.78637 33.99506 0.03592
C 9.85751 12.76743 0.01641
C 4.89317 12.88201 -0.01142
C 8.59173 9.2172 -0.01118
C 7.40051 11.39193 -0.02896
C 6.11237 10.82627 -0.00494
C 6.10232 9.24463 0.00054
C 4.90968 8.57537 0.03007
C 4.73766 0.07011 -0.00095
C 7.39781 32.7178 0.01572
C 8.70591 32.00604 -0.04848
C 7.3426 29.79759 -0.00892
C 7.36191 25.60401 -0.01362
C 7.42994 24.25545 -0.0008
C 8.63354 10.67635 -0.00131
C 8.43032 23.4031 0.0288
C 7.351 21.31678 0.00895
C 7.39479 19.86609 0.00685
C 8.62635 19.2409 0.02888
C 8.53606 17.79059 -0.00482
C 7.3395 17.10862 -0.01384
C 7.41143 15.66962 0.03693
C 8.60461 14.88359 0.01745
C 8.60414 13.43313 0.00488
C 7.36754 12.82023 -0.01004
C 8.7073 22.06064 0.00393
C 3.67013 32.02492 0.01402
C 19.60701 4.22937 0.00654
C 20.84805 2.11227 -0.04076
C 29.42973 2.75652 0.02108
C 30.74257 2.19341 0.00716
C 30.71904 0.74787 0.00307
C 29.46052 0.0507 0.00346
C 31.94542 32.61899 0.01713
C 33.15467 31.95502 -0.01694
C 33.19798 30.57407 0.01428
C 32.02698 29.8465 -0.02142
C 31.99807 28.43497 0.0544
C 33.20699 27.67077 0.00026
C 33.18386 26.27596 0.00682
C 31.9471 25.59076 -0.01779
C 31.90587 24.15907 0.03794
C 33.18652 23.42671 0.01927
C 33.23879 22.00678 0.01574
C 32.01352 21.26414 -0.02383
C 31.94762 19.87764 -0.01429
C 33.20641 19.20565 -0.0136
C 33.22246 17.7644 0.00594
C 29.50968 4.23785 0.0103
C 30.68604 4.97591 0.07705
C 30.72126 6.4098 0.01908
C 29.5303 7.1522 0.01518
C 29.53994 28.31874 0.00924
C 30.79017 27.68772 0.02326
C 30.75369 26.25026 0.00261
C 29.48728 25.56923 0.03265
C 29.4283 24.13237 -0.02049
C 30.70825 23.39925 -0.01854
C 30.81585 21.92669 -0.01415
C 29.49341 21.25758 -0.03039
C 29.40646 19.88839 0.01836
C 31.96527 17.00565 -0.02474
C 30.69775 19.19646 0.03531
C 29.49536 16.99587 0.0101
C 29.55517 15.56404 0.01705
C 30.76112 14.91128 -0.0405
C 30.76739 13.5064 -0.01303
C 29.59121 12.7487 -0.01461
C 29.54628 11.31475 -0.02155
C 30.73364 10.62606 -0.00944
C 30.77398 9.16905 -0.03735
C 29.54592 8.53976 -0.00971
C 30.70078 17.75604 -0.00669
C 31.99313 15.65257 0.00369
C 33.23232 14.96701 0.00455
C 33.17571 13.54963 -0.00644
C 0.02721 21.3353 -0.02213
C 0.02612 19.93312 0.01951
C 1.2088 19.17982 -0.01678
C 1.2397 17.75733 0.01223
C 34.43038 17.08654 0.00648
C 0.08695 15.63388 0.02114
C 1.29753 14.89855 -0.02957
C 1.24051 13.45361 0.00343
C 34.4122 12.88648 -0.02656
C 1.19421 22.05486 0.02712
C 34.4291 11.42919 -0.02442
C 1.14435 9.18943 -0.00583
C 34.40198 8.4503 -0.02302
C 0.01566 7.08089 -0.02849
C 1.35501 6.39021 0.02931
C 1.16714 4.91704 0.00628
C 34.31977 4.262 -0.0345
C 34.40593 2.80439 -0.00931
C 1.23509 2.08219 -0.00939
C 1.1851 0.6803 -0.00468
C 1.16762 10.65408 -0.00027
C 29.56447 29.81161 0.0014
C 1.21451 23.43797 0.00723
C 34.38463 25.53398 -0.05239
C 31.95158 12.77681 -0.01839
C 31.93103 11.39468 0.00137
C 33.20619 10.68466 0.00199
C 33.23327 9.219 0.04381
C 31.97463 8.55572 0.02806
C 31.95318 7.12456 0.01504
C 33.17507 6.45696 -0.00069
C 33.14996 5.05898 0.04926
C 31.93894 4.34967 -0.03838
C 34.42763 24.14563 0.03076
C 31.96866 2.88007 0.00349
C 33.21008 0.74365 -0.00841
C 31.96028 34.04734 0.0001
C 34.40638 32.65515 -0.02927
C 1.1839 31.97107 -0.01404
C 1.16514 30.6101 0.01027
C 34.42628 29.88624 0.01831
C 0.0031 28.3443 -0.01037
C 1.23415 27.69081 -0.00439
C 1.20303 26.21758 -0.00598
C 33.18385 2.14689 -0.00323
C 30.79866 30.47253 0.01324
C 30.63628 31.9107 0.04266
C 29.49563 32.66319 0.01177
C 23.3762 9.15164 0.0296
C 22.1663 8.47402 0.03374
C 22.10465 7.06455 -0.02845
C 23.38614 6.38877 -0.03213
C 23.39993 4.91592 0.02239
C 22.1355 4.25673 0.01153
C 22.1555 2.83344 0.02734
C 23.36521 2.10475 -0.0055
C 23.3772 0.66574 0.01515
C 23.35289 10.60816 0.03046
C 22.18045 34.03593 -0.00225
C 25.81009 31.95363 -0.01107
C 25.7927 30.53059 -0.01586
C 24.50044 29.78791 -0.01971
C 24.59211 28.39204 -0.02118
C 25.80715 27.65593 0.00733
C 25.8123 26.28777 -0.00178
C 24.61756 25.53123 0.00768
C 24.5424 24.10586 -0.0276
C 25.77117 23.43212 0.03005
C 24.57228 32.55921 0.00071
C 25.81499 21.92812 -0.04078
C 22.10681 11.30923 -0.00381
C 23.32927 13.40836 0.01126
C 20.91547 0.65599 -0.00652
C 19.71916 34.03775 0.0058
C 22.13382 32.63484 -0.00865
C 23.30932 31.87008 0.00675
C 23.30208 30.48323 -0.00311
C 22.10701 29.73303 0.00742
C 22.18856 28.33497 -0.01594
C 23.40491 27.58878 0.0106
C 23.38089 26.16319 -0.01154
C 22.16771 12.71762 0.01852
C 22.11208 25.55599 -0.01721
C 23.34739 23.44554 0.01277
C 23.37563 22.03636 0.00096
C 22.09216 21.26217 -0.01527
C 22.187 19.89401 0.01087
C 23.46999 19.14062 0.00199
C 23.52447 17.79791 0.01511
C 22.24446 17.1013 -0.00478
C 22.13808 15.63921 -0.01662
C 23.37316 14.80754 -0.01185
C 22.16907 24.16149 -0.02422
C 19.67349 2.87562 -0.00703
C 24.53452 21.3737 0.02117
C 25.74798 15.03911 -0.00498
C 28.22351 21.96908 -0.02815
C 27.06126 21.34582 -0.00942
C 28.23456 19.10882 0.00487
C 28.31725 17.80639 0.00826
C 27.10829 15.74237 -0.00294
C 28.23879 14.96841 0.00152
C 28.31703 13.47436 0.01257
C 27.11774 12.7994 0.02316
C 27.11044 11.34288 0.04185
C 28.19233 23.37724 0.00622
C 28.33204 10.62399 0.00194
C 27.06499 8.52526 0.02611
C 27.175 7.15121 0.02198
C 28.34817 6.41301 0.01094
C 28.2667 4.95771 0.00235
C 27.05803 4.25724 0.01495
C 26.9052 2.80971 0.01259
C 28.13773 2.13439 0.01799
C 28.20961 0.71844 0.01699
C 26.9952 34.06799 -0.00416
C 28.29368 9.20858 -0.00621
C 24.43068 15.5531 0.02737
C 26.98021 24.15355 -0.0032
C 28.30133 26.29263 -0.01654
C 25.81974 13.45255 0.00135
C 24.59678 12.75368 0.03102
C 24.59994 11.35288 0.02555
C 25.82676 10.61564 0.01423
C 25.79857 9.20765 -0.00285
C 24.62007 8.44773 -0.009
C 24.61013 7.05303 -0.01199
C 25.93325 6.35838 -0.00229
C 25.81941 4.97152 -0.00938
C 27.06937 25.62638 -0.00037
C 24.63892 4.28976 -0.0264
C 25.73853 2.06659 0.00684
C 25.79013 0.69412 -0.01052
C 24.51686 34.05603 -0.01679
C 27.02407 32.64781 0.00367
C 28.21431 31.96288 0.04306
C 28.36406 30.56235 0.00996
C 27.08536 29.85424 0.00195
C 27.01969 28.39568 -0.00802
C 28.24327 27.65884 -0.00218
C 24.53105 2.84463 -0.01154
C 2.437 32.69125 -0.003
