346
Graphene
C 0.01421 0.0216 0.01295
C 9.86587 16.99544 -0.03113
C 9.80052 15.64976 0.02098
C 11.07183 14.91806 0.01848
C 11.09716 13.47986 -0.00619
C 9.8663 12.83306 -0.02162
C 9.84587 11.39089 0.00889
C 11.00763 10.63676 -0.00481
C 11.02301 9.21625 0.00979
C 9.82427 8.45506 0.01443
C 9.82294 7.06658 0.03505
C 11.10292 6.40866 -0.02815
C 11.10675 4.96584 -0.04147
C 9.85996 4.27177 -0.05302
C 9.86195 2.81693 0.00213
C 11.03683 2.17695 -0.00066
C 11.08006 0.69046 -0.00289
C 9.87641 34.02809 0.00028
C 11.03246 17.70357 0.0351
C 11.07836 19.1442 0.00422
C 9.79481 19.85959 0.00798
C 9.81607 21.34408 0.00228
C 8.59891 6.38351 0.01416
C 8.57831 5.00775 0.03542
C 7.35472 4.29911 0.02299
C 7.40626 2.86146 0.00244
C 8.63546 2.13962 -0.01717
C 8.64111 0.70514 0.05265
C 7.37827 34.06774 -0.01952
C 9.82056 32.65889 -0.02813
C 12.32049 32.64763 -0.02213
C 11.09302 31.95408 0.00374
C 9.86368 29.89304 -0.03682
C 9.82953 28.41261 0.01965
C 11.05589 27.71224 0.02058
C 11.06378 26.23092 -0.01957
C 9.85196 25.55465 -0.0108
C 9.87247 24.16204 -0.00368
C 11.13222 23.39583 -0.02696
C 11.05362 21.95894 -0.00114
C 11.04848 30.54897 0.00052
C 7.38268 7.07766 0.01945
C 13.48038 31.94164 0.03698
C 12.30331 29.78541 -0.00491
C 13.58257 4.9892 -0.04422
C 12.30224 4.29958 0.00654
C 12.29838 2.82577 -0.00703
C 13.51346 2.18897 -0.04076
C 13.54449 0.74577 -0.00652
C 12.29502 34.03073 0.0058
C 14.75171 32.63209 -0.00865
C 16.01049 31.9904 0.00675
C 15.97815 30.51433 -0.00311
C 14.74055 29.82051 0.00742
C 14.76722 28.37993 -0.01594
C 16.01538 27.65879 0.0106
C 16.02549 26.32154 -0.01154
C 14.74438 25.53589 -0.01721
C 14.75497 24.14318 -0.02422
C 15.99001 23.38877 0.01277
C 15.98283 21.97469 0.00096
C 13.4906 6.40396 -0.02957
C 12.29785 7.09831 -0.00831
C 12.31863 8.52195 0.00364
C 13.55119 9.19893 -0.017
C 12.26648 28.41837 0.03338
C 13.50848 27.68479 -0.0258
C 13.49107 26.26208 -0.0331
C 12.22398 25.61247 -0.00316
C 12.28467 24.1679 0.02188
C 13.53422 23.43626 -0.01979
C 13.55509 22.01494 0.02691
C 12.31761 21.30133 -0.01581
C 13.52812 30.50205 -0.00109
C 12.29848 19.90818 0.01452
C 13.58676 17.76284 -0.00111
C 12.28778 17.02866 -0.03557
C 12.32886 15.58691 0.03754
C 13.51497 14.87982 0.01739
C 13.51735 13.48291 0.00755
C 12.33919 12.78822 -0.0054
C 12.26879 11.36363 0.00667
C 13.50972 10.64056 0.00143
C 13.5066 19.17139 0.04892
C 7.38046 8.48765 -0.01454
C 8.56431 9.22543 0.01241
C 8.60865 10.6481 0.0076
C 2.4972 7.08735 0.0288
C 3.68226 6.40173 0.00393
C 3.6875 4.93951 0.00895
C 2.43219 4.26039 0.00685
C 2.47659 2.80842 0.02888
C 3.65746 2.11323 -0.00482
C 3.69218 0.67751 -0.01384
C 2.50742 0.00338 0.03693
C 4.88694 32.68521 0.01745
C 6.14748 31.93158 0.00488
C 6.09448 30.54803 -0.01004
C 4.89103 29.8576 -0.02896
C 4.93325 28.45762 -0.00131
C 6.17264 27.62486 -0.01118
C 6.12148 26.27791 -0.014
C 4.88495 25.58112 0.02147
C 4.90115 24.14855 0.00373
C 2.44522 8.55038 -0.0008
C 3.6645 9.27182 -0.01362
C 3.71546 10.60949 -0.00892
C 2.43855 11.37789 -0.04848
C 3.68344 30.54202 -0.03337
C 2.4638 29.83194 0.01227
C 2.44859 28.46901 0.00873
C 3.71441 27.70636 -0.00049
C 3.67703 26.24939 0.00848
C 2.46414 25.56016 -0.01303
C 2.43783 24.19443 -0.01378
C 3.73123 23.38733 0.02635
C 6.19675 23.47147 -0.00191
C 3.67312 22.01312 0.0127
C 2.52891 19.8828 0.01849
C 3.72724 19.17144 -0.01142
C 3.63656 17.71978 -0.00562
C 2.43959 17.07442 -0.00494
C 2.47469 15.6149 0.00054
C 3.71736 14.87562 0.03007
C 3.67744 13.49111 -0.00095
C 2.47237 12.78274 0.01572
C 2.43374 21.26974 0.01396
C 6.21292 21.99755 0.00438
C 4.83908 21.2786 0.01291
C 4.92574 19.93804 0.00093
C 7.33978 29.85269 0.03101
C 7.35258 28.39194 -0.01536
C 8.62735 27.71998 -0.02689
C 8.63217 26.23719 -0.01046
C 7.44407 25.56548 -0.00891
C 7.41778 24.16922 0.02819
C 8.61439 23.46972 0.00165
C 8.60058 22.02824 -0.02971
C 8.56252 30.50834 -0.00428
C 7.36887 21.27774 0.02894
C 8.62559 19.16696 0.00444
C 8.60623 17.72463 -0.00925
C 7.37972 17.06318 0.01877
C 7.40202 15.66576 0.01363
C 8.58098 14.89588 -0.02162
C 8.62677 13.48973 0.00415
C 7.43266 12.7848 -0.0014
C 7.40759 11.40121 0.02162
C 7.34362 19.81857 -0.01789
C 14.74131 21.28122 -0.01527
C 8.57303 31.97215 -0.02245
C 4.88096 34.07087 -0.01275
C 6.15694 19.16383 0.00057
C 6.14159 17.78632 -0.01634
C 4.92307 17.07091 -0.00334
C 4.95047 15.59456 0.02339
C 6.14955 14.95151 0.01641
C 6.17023 13.52169 -0.00719
C 4.93838 12.81737 0.01364
C 4.927 11.39073 -0.01062
C 7.38564 32.66281 0.00985
C 6.16864 10.68325 -0.00033
C 4.90875 8.51379 -0.02759
C 4.89786 7.14037 0.0402
C 6.16739 6.38066 0.00572
C 6.13329 5.02647 0.03592
C 4.90525 4.29117 0.00406
C 4.93055 2.86452 0.00943
C 6.11064 2.20512 0.02841
C 6.12213 0.73278 -0.01111
C 6.14952 9.23892 0.03589
C 14.70979 19.85141 0.01087
C 14.76836 17.04872 0.00199
C 14.74414 12.75724 0.01511
C 33.22034 30.51401 0.01428
C 31.96528 29.83495 -0.02142
C 31.9723 28.43042 0.0544
C 33.22073 27.71085 0.00026
C 33.14525 26.26933 0.00682
C 31.93975 25.57612 -0.01779
C 31.97917 24.1293 0.03794
C 33.23517 23.40406 0.01927
C 33.18273 22.03495 0.01574
C 31.97046 21.31753 -0.02383
C 32.02426 19.93265 -0.01429
C 33.21467 19.14433 -0.0136
C 33.17286 17.76979 0.00594
C 31.9426 17.01735 -0.02474
C 32.00941 15.62164 0.00369
C 33.19472 14.91176 0.00455
C 33.16037 13.4701 -0.00644
C 33.17359 31.94996 -0.01694
C 31.93717 32.61564 0.01713
C 29.52381 0.01755 0.00346
C 30.71282 0.69478 0.00307
C 30.75721 30.54184 0.01836
C 29.51001 29.78462 0.03531
C 29.52053 28.37715 -0.00669
C 30.73188 27.70641 0.0101
C 30.77578 26.2628 0.01705
C 29.55717 25.6061 -0.0405
C 29.50303 24.12807 -0.01303
C 30.72667 23.44203 -0.01461
C 31.94974 12.78735 -0.01839
C 30.72196 22.06269 -0.02155
C 30.76646 9.26923 -0.03735
C 29.51297 8.47657 -0.00971
C 29.56105 7.0767 0.01518
C 30.74992 6.42585 0.01908
C 30.74563 4.99791 0.07705
C 29.51134 4.25041 0.0103
C 29.50917 2.84467 0.02108
C 30.74113 2.10375 0.00716
C 30.74882 10.64506 -0.00944
C 31.98751 11.37539 0.00137
C 33.19082 10.58605 0.00199
C 33.20625 9.2091 0.04381
C 1.25726 19.19755 -0.01678
C 1.21657 17.76787 0.01223
C 0.00534 16.97809 0.00648
C 34.3875 15.62265 0.02114
C 1.26292 14.87251 -0.02957
C 1.20108 13.46706 0.00343
C 34.40934 12.76924 -0.02656
C 34.3891 11.34975 -0.02442
C 34.40304 19.91029 0.01951
C 1.20492 10.68416 -0.00027
C 34.43273 8.48171 -0.02302
C 0.01751 7.09153 -0.02849
C 1.21731 6.39328 0.02931
C 1.26157 4.94165 0.00628
C 34.4316 4.17857 -0.0345
C 0.01824 2.83067 -0.00931
C 1.28527 2.12006 -0.00939
C 1.23091 0.70011 -0.00468
C 1.23842 9.21196 -0.00583
C 30.7645 31.97122 -0.03039
C 34.41195 21.30739 -0.02213
C 1.24325 23.50064 0.00723
C 31.97345 8.51115 0.02806
C 31.98596 7.15648 0.01504
C 33.16974 6.41481 -0.00069
C 33.20739 4.97424 0.04926
C 31.97325 4.25958 -0.03838
C 32.01348 2.89566 0.00349
C 33.22357 2.11323 -0.00323
C 33.17961 0.65755 -0.00841
C 1.2075 22.04793 0.02712
C 31.97594 0.00864 0.0001
C 1.25593 32.00681 -0.01404
C 1.19993 30.46836 0.01027
C 34.39646 29.79794 0.01831
C 34.43194 28.41498 -0.01037
C 1.28203 27.66678 -0.00439
C 1.19828 26.24456 -0.00598
C 34.38882 25.59485 -0.05239
C 34.41451 24.12211 0.03076
C 34.40639 32.65744 -0.02927
C 3.68858 31.91509 -0.00966
C 29.50784 32.72098 -0.01415
C 28.29256 0.69479 -0.02049
C 18.43002 6.39901 0.00733
C 18.44631 4.92795 -0.00178
C 17.1584 4.23684 0.00768
C 17.16906 2.87365 -0.0276
C 18.4386 2.15636 0.03005
C 18.44613 0.66197 -0.04078
C 17.20921 34.07803 0.02117
C 19.66409 32.70734 0.02737
C 19.70999 28.4519 -0.00498
C 20.90835 26.32098 0.00135
C 19.66471 25.5537 0.03102
C 19.63207 24.11873 0.02555
C 19.67343 7.1318 0.01423
C 20.92817 6.38575 -0.00285
C 20.918 4.96845 -0.009
C 19.67646 4.21752 -0.01199
C 19.6395 2.84879 -0.00229
C 17.18823 7.10985 -0.02118
C 17.20067 8.58594 -0.01971
C 17.22448 25.51231 -0.01586
C 18.43497 26.22831 -0.01107
C 14.72707 11.35656 -0.00478
C 15.96348 10.6648 -0.01662
C 16.01348 9.23287 -0.01185
C 14.734 8.44781 0.01126
C 14.72383 7.07446 0.01852
C 16.0029 6.37479 -0.00381
C 15.97519 4.92185 0.03046
C 14.74599 4.27426 0.0296
C 20.95158 2.1195 -0.00938
C 14.75773 2.82165 0.03374
C 16.00868 0.71267 -0.03213
C 14.74642 0.03441 0.02239
C 17.24936 32.62064 0.01153
C 18.41509 31.90131 0.02734
C 18.40423 30.50374 -0.0055
C 17.21967 29.83274 0.01515
C 17.23324 28.38552 -0.00225
C 18.42945 27.75616 0.00071
C 15.93456 2.11795 -0.02845
C 20.84909 0.71455 -0.0264
C 19.70006 34.04174 -0.01154
C 22.0881 32.67748 0.00684
C 25.86069 0.7136 -0.00621
C 24.62818 0.00707 0.02611
C 26.9856 32.66823 0.02198
C 28.25577 31.90258 0.01094
C 28.30463 30.52133 0.00235
C 27.04016 29.80131 0.01495
C 27.08429 28.3769 0.01259
C 28.31813 27.64368 0.01799
C 25.85161 2.11812 0.00194
C 28.27128 26.26432 0.01699
C 27.06266 24.07586 0.01177
C 28.26128 23.40491 0.04266
C 27.04087 7.11828 0.01324
C 28.31927 6.34203 0.0014
C 28.33819 4.92587 0.00924
C 27.05515 4.21032 0.02326
C 27.03143 2.82045 0.00261
C 28.2894 2.11283 0.03265
C 27.05565 25.52474 -0.00416
C 27.08886 0.01789 -0.01854
C 24.58264 2.82098 0.04185
C 25.84122 4.98427 0.01257
C 23.39662 26.19282 -0.01052
C 22.20439 25.58509 -0.01679
C 22.14562 7.13853 0.00367
C 23.39066 6.4462 0.04306
C 23.37808 4.91408 0.00996
C 22.127 4.26837 0.00195
C 22.16217 2.86812 -0.00802
C 23.35564 2.19628 -0.00218
C 24.55973 4.23958 0.02316
C 23.36364 0.73803 -0.01654
C 24.59589 32.70831 -0.0032
C 25.7951 31.92578 0.00622
C 25.86177 30.5185 -0.02815
C 25.82224 27.72755 -0.00942
C 25.81151 26.22885 0.00487
C 24.59084 25.61704 0.00826
C 24.61593 7.11333 -0.00294
C 25.86051 6.36987 0.00152
C 22.08047 34.03203 -0.00037
C 2.50493 32.664 -0.02929
