334
Graphene
C 34.42467 0.06713 0.01295
C 14.82396 21.24293 0.01443
C 14.72187 19.90565 0.03505
C 15.86859 19.08412 -0.02815
C 16.23539 17.90339 -0.04147
C 16.12368 9.34274 -0.05302
C 14.67628 7.04817 0.00213
C 15.9187 6.34574 -0.00066
C 15.93617 22.11972 0.00979
C 15.96973 4.81816 -0.00289
C 14.77543 2.76516 -0.02213
C 16.05873 2.10014 0.03698
C 16.02829 0.68941 -0.00109
C 14.78469 0.00784 -0.00491
C 17.2616 32.64889 0.03338
C 18.46462 32.01815 -0.0258
C 18.45372 30.55381 -0.0331
C 14.71237 4.15026 0.00028
C 15.87254 23.23512 -0.00481
C 14.78151 24.08787 0.00889
C 14.72349 25.51658 -0.02162
C 12.24788 21.2963 0.00052
C 12.37054 19.83506 -0.03682
C 13.43645 19.34481 0.01965
C 13.5237 6.55339 0.02058
C 13.56189 5.03736 -0.01957
C 12.31335 4.3199 -0.0108
C 12.32159 2.85184 -0.00368
C 13.5594 2.14496 -0.02696
C 13.54092 0.71169 -0.00114
C 12.34069 34.06997 0.00228
C 14.7515 32.68297 0.00798
C 16.0286 31.98851 0.00422
C 15.94433 30.59273 0.0351
C 14.72901 29.87252 -0.03113
C 14.79163 28.33092 0.02098
C 16.01422 27.6621 0.01848
C 16.027 26.20997 -0.00619
C 17.2832 29.76421 -0.00316
C 17.22618 28.33836 0.02188
C 18.46458 27.6989 -0.01979
C 18.35649 26.16593 0.02691
C 19.64672 29.79577 -0.00865
C 19.7306 28.35335 0.00675
C 20.98996 27.71801 -0.00311
C 19.80002 15.54126 0.00742
C 20.83998 15.03296 -0.01594
C 20.87097 13.60461 0.0106
C 19.63007 12.78541 -0.01154
C 19.62206 11.31823 -0.01721
C 20.88363 10.60932 -0.02422
C 20.87741 9.24958 0.01277
C 19.71117 8.52011 0.00096
C 19.66641 7.08336 -0.01527
C 20.87626 6.44369 0.01087
C 20.95396 4.98237 0.00199
C 19.75044 4.31515 0.01511
C 19.66416 2.81186 -0.00478
C 20.91097 2.09309 -0.01662
C 20.89553 30.50901 0.0058
C 13.53812 21.95794 0.00374
C 20.85548 31.91614 -0.00652
C 17.23922 34.05237 -0.00703
C 17.34855 25.55626 -0.01581
C 17.0569 16.89267 0.01452
C 17.30247 15.75014 0.04892
C 18.39105 14.92975 -0.00111
C 18.36267 13.51746 -0.03557
C 17.09654 12.71668 0.03754
C 17.19686 11.52994 0.01739
C 18.38496 10.64163 0.00755
C 18.47433 9.19196 -0.0054
C 17.19604 8.54156 0.00667
C 17.17411 7.10233 0.00143
C 18.42483 6.45253 -0.017
C 18.50432 4.98752 0.00364
C 17.25751 4.26393 -0.00831
C 17.24503 2.82101 -0.02957
C 18.43511 2.07914 -0.04422
C 18.42707 0.66355 0.00654
C 19.69798 32.72705 -0.04076
C 13.50577 23.38627 -0.02813
C 12.26606 24.15907 -0.01952
C 12.26097 25.56281 0.05265
C 6.12129 31.94698 -0.02896
C 6.10076 30.53616 -0.00131
C 4.88529 29.87471 -0.01118
C 4.96872 28.3811 -0.014
C 6.15199 27.66953 0.02147
C 6.08777 26.21641 0.00373
C 4.86422 25.4954 -0.00191
C 4.85584 24.11586 0.00438
C 6.10458 23.37802 0.01291
C 6.13069 21.92791 0.00093
C 4.90163 21.30176 0.00057
C 6.24471 4.9974 -0.01634
C 4.95962 4.2545 -0.00334
C 4.89555 2.82929 0.02339
C 6.1097 2.16957 0.01641
C 6.13057 0.76836 -0.00719
C 4.94212 34.07133 0.01364
C 4.95491 32.69257 -0.01004
C 7.30408 32.66608 -0.01062
C 2.42974 0.04675 0.00488
C 3.64705 2.15335 0.03693
C 3.70061 30.61622 -0.00562
C 2.49564 29.80911 -0.00494
C 2.46822 28.36731 0.00054
C 3.72536 27.7076 0.03007
C 3.65232 26.29829 -0.00095
C 2.41549 25.64107 0.01572
C 2.47923 24.21646 -0.04848
C 3.65763 23.42634 -0.00892
C 3.71007 21.99133 -0.01362
C 2.43067 21.28991 -0.0008
C 2.55609 19.8105 0.0288
C 3.83341 19.29904 0.00393
C 2.5334 6.97776 0.00895
C 3.67131 6.39122 0.00685
C 3.71566 4.97915 0.02888
C 2.38127 4.27312 -0.00482
C 2.43626 2.92474 -0.01384
C 3.69147 0.73999 0.01745
C 20.96407 0.69489 -0.01185
C 8.57389 31.99635 -0.00033
C 7.39852 29.84409 -0.02759
C 9.81266 24.13704 0.00444
C 11.06148 23.40262 -0.00925
C 10.96725 21.95917 0.01877
C 9.7548 21.44543 0.01363
C 10.90494 4.95559 -0.02162
C 9.87047 4.3352 0.00415
C 9.85385 2.89849 -0.0014
C 11.09927 2.08224 0.02162
C 11.12287 0.71121 0.0076
C 9.88352 0.05139 0.01241
C 12.31985 32.7364 -0.01454
C 13.51784 31.93058 0.01945
C 13.46918 30.47522 0.01416
C 12.2851 29.77719 0.03542
C 12.34637 28.39096 0.02299
C 13.57533 27.66056 0.00244
C 13.50259 26.24655 -0.01717
C 9.84342 25.60781 -0.01789
C 8.57616 30.57716 0.03589
C 11.11212 26.28907 0.02894
C 9.90706 28.37383 0.00165
C 7.39418 28.40308 0.0402
C 8.57732 27.62256 0.00572
C 8.56778 26.18778 0.03592
C 7.30581 25.50782 0.00406
C 7.28445 24.08709 0.00943
C 8.56742 23.42863 0.02841
C 8.58023 21.9765 -0.01111
C 7.37112 21.4102 -0.01275
C 7.30501 4.28198 0.00985
C 7.37245 2.89149 -0.02245
C 8.62735 2.17014 -0.00428
C 8.64031 0.77106 0.03101
C 7.38857 0.06868 -0.01536
C 9.85676 32.69144 -0.02689
C 11.09046 31.97273 -0.01046
C 11.02973 30.56637 -0.00891
C 9.79511 29.88645 0.02819
C 11.17698 27.68068 -0.02971
C 19.6795 0.07941 0.01126
C 22.15292 32.66783 0.01852
C 23.37619 32.01952 -0.00381
C 33.15948 32.02531 0.0544
C 33.19989 30.59096 0.00026
C 32.01188 29.81978 0.00682
C 31.92069 28.40112 -0.01779
C 33.19996 27.73143 0.03794
C 33.23934 26.28738 0.01927
C 32.00865 25.57535 0.01574
C 31.92232 24.15425 -0.02383
C 33.17573 23.49006 -0.01429
C 33.19964 22.03009 -0.0136
C 31.93658 21.28785 0.00594
C 31.88876 19.87819 -0.02474
C 33.16676 19.13888 0.00369
C 33.2224 17.71855 0.00455
C 31.90607 17.1004 -0.00644
C 31.92308 15.66962 -0.01839
C 33.23146 14.99745 0.00137
C 31.96203 32.65808 -0.02142
C 33.21748 13.53139 0.00199
C 29.45163 34.0675 0.01428
C 30.77305 2.09798 0.01713
C 29.45361 19.9022 0.0101
C 30.6305 19.17994 0.01705
C 30.64065 17.7567 -0.0405
C 29.50901 17.00533 -0.01303
C 29.50208 15.60969 -0.01461
C 30.67568 14.93939 -0.02155
C 30.71183 13.55916 -0.00944
C 29.52316 12.72963 -0.03735
C 29.5118 11.36098 -0.00971
C 30.74601 10.68771 0.01518
C 30.79865 9.25473 0.01908
C 29.58148 8.54971 0.07705
C 29.50556 7.1159 0.0103
C 30.72033 6.3775 0.02108
C 30.70809 4.99389 0.00716
C 29.47016 4.29835 0.00307
C 29.49827 2.84032 0.00346
C 30.74155 0.64963 -0.01694
C 29.4837 21.2833 -0.00669
C 31.99989 12.79823 0.04381
C 33.26594 10.6349 0.01504
C 34.42774 21.29083 0.01223
C 34.39564 19.86755 0.00648
C 1.26865 19.13162 0.02114
C 1.16479 17.83828 -0.02957
C 0.15218 16.98952 0.00343
C 0.02643 15.51533 -0.02656
C 0.00296 12.66172 -0.02442
C 34.4172 11.4584 -0.00027
C 1.18047 9.26556 -0.00583
C 0.06344 8.49248 -0.02302
C 34.39161 7.05384 -0.02849
C 1.27585 6.34877 0.02931
C 1.1624 4.91257 0.00628
C 34.35778 4.26364 -0.0345
C 34.39166 2.84264 -0.00931
C 1.16501 2.16348 -0.00939
C 1.18234 0.77631 -0.00468
C 1.19794 21.98031 -0.01678
C 31.98603 11.39654 0.02806
C 1.22925 23.46861 0.01951
C 0.07314 25.55059 0.02712
C 33.20179 9.17535 -0.00069
C 32.00448 8.50974 0.04926
C 31.97646 7.08812 -0.03838
C 33.17469 6.33008 0.00349
C 33.18827 4.95323 -0.00323
C 31.95135 4.28453 -0.00841
C 31.9438 2.85066 0.0001
C 33.18801 2.20291 -0.02927
C 33.21065 0.7567 -0.01404
C 32.01435 0.03225 0.01027
C 34.42137 32.73717 0.01831
C 1.22243 31.95768 -0.01037
C 1.28357 30.56042 -0.00439
C 0.02251 29.89623 -0.00598
C 0.03149 28.42342 -0.05239
C 1.21295 27.70023 0.03076
C 1.18846 26.31477 0.00723
C 0.00847 24.17683 -0.02213
C 3.64515 32.03385 -0.01142
C 30.70487 21.95731 0.03531
C 29.48893 24.07175 -0.03039
C 25.87723 30.55022 -0.04078
C 24.63776 29.80677 0.02117
C 24.487 28.34151 0.02737
C 25.71327 27.64619 -0.00498
C 25.81529 26.2689 0.00135
C 24.43988 15.52929 0.03102
C 25.81086 14.94885 0.02555
C 25.82624 13.48822 0.01423
C 24.58996 12.85366 -0.00285
C 24.60139 11.35904 -0.009
C 25.81628 10.66032 -0.01199
C 25.81211 9.16736 -0.00229
C 24.46148 8.51129 -0.00938
C 24.59087 7.09452 -0.0264
C 25.80432 6.32327 -0.01154
C 25.84726 4.93227 0.00684
C 24.56365 4.34025 -0.01052
C 25.78574 31.95131 0.03005
C 24.53195 2.91104 -0.01679
C 24.58297 32.68387 -0.0276
C 23.31889 0.73653 -0.00178
C 23.39856 30.59812 0.03046
C 22.1592 29.84072 0.0296
C 22.19448 28.34497 0.03374
C 23.36332 27.64621 -0.02845
C 23.40997 14.98219 -0.03213
C 23.32626 13.49429 0.02239
C 22.08017 12.84477 0.01153
C 22.14515 11.33721 0.02734
C 23.34993 10.63037 -0.0055
C 23.28599 9.22164 0.01515
C 22.10835 8.55475 -0.00225
C 22.151 7.08817 0.00071
C 23.29488 6.35978 -0.01107
C 23.30063 4.95246 -0.01586
C 22.14131 4.20274 -0.01971
C 22.11696 2.81564 -0.02118
C 23.34371 2.12678 0.00733
C 22.17287 34.02434 0.00768
C 30.73061 23.41093 0.01836
C 25.85999 2.14677 0.00367
C 24.58208 0.03305 0.00996
C 27.06068 8.44745 0.00235
C 27.05765 7.06778 0.01495
C 28.23831 6.3572 0.01259
C 28.25906 4.98844 0.01799
C 27.09653 4.26237 0.01699
C 27.0273 2.88897 -0.00416
C 28.22549 2.10093 0.01177
C 28.16609 0.68961 0.04266
C 27.03821 33.98705 0.01324
C 29.47465 32.66748 0.0014
C 30.78201 31.91445 0.00924
C 30.72546 30.51291 0.02326
C 29.48447 29.76487 0.00261
C 29.45503 28.34134 0.03265
C 30.71344 27.6879 -0.02049
C 30.77484 26.1961 -0.01854
C 29.54948 25.4877 -0.01415
C 28.31089 9.19282 0.01094
C 25.83853 0.69577 0.04306
C 28.29338 10.63329 0.02198
C 27.07974 12.73391 -0.00621
C 27.00203 32.6072 0.00195
C 28.24839 31.9624 -0.00802
C 28.28454 30.50369 -0.00218
C 27.13282 29.75859 -0.01654
C 27.03937 28.37303 -0.00037
C 28.21247 27.60957 -0.0032
C 28.3297 26.25483 0.00622
C 26.97939 25.50861 -0.02815
C 27.15776 24.18308 -0.00942
C 28.19977 23.36212 0.00487
C 28.35706 21.9899 0.00826
C 28.3804 19.15506 -0.00294
C 28.30426 17.82729 0.00152
C 27.12647 17.03967 0.01257
C 27.06562 15.6883 0.02316
C 28.31017 14.86997 0.04185
C 28.28063 13.44858 0.00194
C 27.07162 11.3362 0.02611
C 2.41849 32.72672 0.01849
