332
Graphene
C 0.0094 0.03401 0.01295
C 14.79926 19.85332 0.03505
C 15.95543 19.25471 -0.02815
C 15.97167 17.806 -0.04147
C 14.82276 17.02273 -0.05302
C 16.0338 14.97895 0.00213
C 16.01525 4.96975 -0.00066
C 14.73371 2.78712 -0.00289
C 14.68436 21.28545 0.01443
C 15.94623 2.00161 0.00028
C 14.76333 34.07003 0.03698
C 17.2619 32.64543 -0.00109
C 18.50798 31.89848 -0.00491
C 18.47185 30.49183 0.03338
C 17.29503 29.80306 -0.0258
C 17.12723 28.50501 -0.0331
C 18.45824 27.6599 -0.00316
C 15.98501 0.59229 -0.02213
C 15.92087 21.96465 0.00979
C 16.03827 23.36134 -0.00481
C 14.69867 24.13825 0.00889
C 9.80161 0.09148 -0.03682
C 12.29826 24.07352 0.01965
C 13.47713 23.49489 0.02058
C 13.43348 22.07283 -0.01957
C 12.30328 21.3499 -0.0108
C 12.34433 19.89816 -0.00368
C 13.55935 19.18739 -0.02696
C 13.55072 17.71861 -0.00114
C 12.29543 17.09446 0.00228
C 12.28589 2.79165 0.00798
C 13.54409 2.22535 0.00422
C 13.53665 0.73249 0.0351
C 12.27479 0.02202 -0.03113
C 15.97503 32.04267 0.02098
C 16.03974 27.59057 0.01848
C 15.99728 26.25544 -0.00619
C 14.7856 25.58274 -0.02162
C 18.53591 26.26336 0.02188
C 17.22534 25.50656 -0.01979
C 17.21139 24.15418 0.02691
C 18.4685 23.39221 -0.01581
C 19.61612 29.78527 0.00675
C 19.69524 28.38131 -0.00311
C 20.9849 27.67121 0.00742
C 20.91453 26.28467 -0.01594
C 19.71467 25.59631 0.0106
C 19.6254 24.22844 -0.01154
C 20.85655 23.45618 -0.01721
C 20.8709 21.9442 -0.02422
C 19.66594 21.24381 0.01277
C 19.65776 19.90045 0.00096
C 20.90099 19.12657 -0.01527
C 20.85548 17.75576 0.01087
C 19.68188 17.06962 0.00199
C 19.7106 15.57114 0.01511
C 20.96665 15.01428 -0.00478
C 19.58683 12.74076 -0.01662
C 19.72634 11.36616 -0.01185
C 20.89664 30.52294 -0.00865
C 11.10926 0.57684 0.00052
C 20.86277 31.94506 0.0058
C 17.20793 34.03494 -0.04076
C 18.47101 21.95468 0.01452
C 17.23758 21.26907 0.04892
C 17.1919 19.91466 -0.00111
C 18.38997 19.16147 -0.03557
C 18.39689 17.75184 0.03754
C 17.15642 17.10989 0.01739
C 17.17388 15.65774 0.00755
C 18.40231 14.90447 -0.0054
C 18.5612 13.45676 0.00667
C 18.49798 10.53803 0.00143
C 18.4871 9.31842 -0.017
C 18.47023 6.44785 0.00364
C 18.49709 5.03507 -0.00831
C 17.20671 4.29249 -0.02957
C 17.22398 2.79229 -0.04422
C 18.41301 2.09696 0.00654
C 18.41167 0.69313 -0.00703
C 19.71906 32.67195 -0.00652
C 20.86167 10.6188 0.01126
C 11.02793 2.20947 0.00374
C 9.76784 17.06191 -0.01952
C 2.4828 8.49616 -0.01118
C 2.39954 7.07171 -0.014
C 3.65303 6.41165 0.02147
C 3.72894 4.99602 0.00373
C 2.43299 4.25188 -0.00191
C 2.44062 2.79955 0.00438
C 3.66171 2.09186 0.01291
C 3.68601 9.32013 -0.00131
C 3.63918 0.68022 0.00093
C 4.95085 32.64379 -0.01634
C 6.23596 31.98871 -0.00334
C 6.14694 30.60617 0.02339
C 4.96552 29.78963 0.01641
C 4.89207 28.42742 -0.00719
C 6.15666 27.7296 0.01364
C 6.15631 26.34797 -0.01062
C 2.48051 34.00181 0.00057
C 3.62467 10.61203 -0.02896
C 2.40218 11.39872 -0.01004
C 2.4076 12.78852 0.00488
C 3.69118 30.52776 0.00054
C 2.45678 29.87059 0.03007
C 2.46262 28.3452 -0.00095
C 3.70527 27.72383 0.01572
C 3.69601 26.3073 -0.04848
C 2.4574 25.58033 -0.00892
C 2.38801 24.22076 -0.01362
C 3.6932 23.47418 -0.0008
C 3.68696 21.99959 0.0288
C 2.43301 21.3094 0.00393
C 2.42111 19.92548 0.00895
C 3.72605 19.13454 0.00685
C 3.73551 17.77762 0.02888
C 2.43294 17.01469 -0.00482
C 2.53023 15.58372 -0.01384
C 3.69561 14.83845 0.03693
C 3.58191 13.45555 0.01745
C 4.89876 25.68603 -0.00033
C 4.91695 24.16588 0.03589
C 6.17189 23.41358 -0.02759
C 6.13951 22.03031 0.0402
C 7.43264 21.28575 -0.00925
C 7.3466 19.81814 0.01877
C 8.65632 19.14177 0.01363
C 8.50259 17.64686 -0.02162
C 7.29475 17.125 0.00415
C 7.31099 2.90283 -0.0014
C 8.58471 2.20099 0.02162
C 8.6581 0.72403 0.0076
C 7.37919 33.98871 0.01241
C 9.82684 25.61243 -0.01454
C 9.85904 24.20975 0.01945
C 11.06884 23.49493 0.01416
C 11.05292 22.01626 0.03542
C 9.79809 21.23869 0.02299
C 9.84574 19.83895 0.00244
C 11.13382 19.17926 -0.01717
C 11.06785 17.65808 0.05265
C 8.61376 22.03795 0.00444
C 9.85109 2.88438 -0.02813
C 8.54982 23.45488 -0.01789
C 7.44705 25.59028 -0.02971
C 4.97808 21.31835 0.00572
C 4.93786 19.92514 0.03592
C 6.08869 19.06321 0.00406
C 6.1126 17.71855 0.00943
C 4.85895 17.04324 0.02841
C 4.88146 15.55295 -0.01111
C 6.15589 14.97108 -0.01275
C 6.12927 4.98428 0.00985
C 4.93067 4.29621 -0.02245
C 4.92861 2.77906 -0.00428
C 6.13939 2.17027 0.03101
C 6.13311 0.73287 -0.01536
C 4.9448 0.02184 -0.02689
C 7.38131 32.65898 -0.01046
C 7.40808 29.75544 -0.00891
C 7.43492 28.50103 0.02819
C 8.66491 26.24585 0.00165
C 7.33599 24.19345 0.02894
C 20.97672 9.2298 0.01852
C 19.65832 8.55458 -0.00381
C 19.66896 7.12928 0.03046
C 33.26077 27.75863 0.00026
C 33.15176 26.37529 0.00682
C 31.94492 25.60984 -0.01779
C 31.98537 24.15504 0.03794
C 33.14446 23.43678 0.01927
C 33.22516 22.04464 0.01574
C 32.00924 21.2999 -0.02383
C 32.01322 28.39509 0.0544
C 31.94062 19.92501 -0.01429
C 33.17164 17.81674 0.00594
C 31.96035 17.02403 -0.02474
C 31.92849 15.59175 0.00369
C 33.14705 14.93713 0.00455
C 33.18933 13.45079 -0.00644
C 31.99536 12.70313 -0.01839
C 31.89071 11.45485 0.00137
C 33.15745 19.19745 -0.0136
C 32.02032 29.87737 -0.02142
C 33.22513 30.48739 0.01428
C 33.18927 31.96812 -0.01694
C 30.69328 23.42846 0.01705
C 30.77395 22.01133 -0.0405
C 29.49491 21.34969 -0.01303
C 29.40207 19.87368 -0.01461
C 30.67562 19.16184 -0.02155
C 30.71465 17.68948 -0.00944
C 30.71852 9.29216 -0.03735
C 29.49837 8.56077 -0.00971
C 29.51335 7.15227 0.01518
C 30.75435 6.36476 0.01908
C 30.73828 4.96444 0.07705
C 29.529 4.27935 0.0103
C 29.54847 2.82968 0.02108
C 30.7757 2.17893 0.00716
C 30.72892 0.69139 0.00307
C 29.51685 34.05331 0.00346
C 31.95491 32.64251 0.01713
C 33.10758 10.72242 0.00199
C 33.25115 9.23452 0.04381
C 31.97659 8.49532 0.02806
C 32.02242 7.066 0.01504
C 1.21564 17.77746 0.01223
C 34.41088 17.06733 0.00648
C 0.0108 15.6254 0.02114
C 1.21224 14.89486 -0.02957
C 1.20165 13.4879 0.00343
C 34.41469 12.80365 -0.02656
C 0.02671 11.4033 -0.02442
C 1.21956 10.56061 -0.00027
C 1.28058 9.19161 -0.00583
C 0.01516 8.54846 -0.02302
C 34.41898 7.14141 -0.02849
C 1.20246 6.32828 0.02931
C 1.17538 4.96105 0.00628
C 0.04144 4.18367 -0.0345
C 34.39949 2.76584 -0.00931
C 1.20996 2.14598 -0.00939
C 1.21512 0.68571 -0.00468
C 1.1916 19.21178 -0.01678
C 29.49578 24.1446 0.0101
C 0.00173 19.82172 0.01951
C 1.24941 22.00523 0.02712
C 33.21092 6.42737 -0.00069
C 33.28256 4.94592 0.04926
C 31.97665 4.20465 -0.03838
C 31.99861 2.83446 0.00349
C 33.23582 2.0857 -0.00323
C 33.17058 0.68845 -0.00841
C 31.97125 34.04085 0.0001
C 34.4226 32.68421 -0.02927
C 1.20321 31.96668 -0.01404
C 1.25221 30.60896 0.01027
C 0.0028 29.83872 0.01831
C 0.05479 28.465 -0.01037
C 1.19376 27.7129 -0.00439
C 1.23215 26.27579 -0.00598
C 34.41677 25.57281 -0.05239
C 0.04037 24.20186 0.03076
C 1.24695 23.43782 0.00723
C 34.40887 21.24893 -0.02213
C 29.5137 25.59145 -0.00669
C 30.74441 26.28865 0.03531
C 30.79936 27.75191 0.01836
C 22.08422 8.39871 0.02117
C 22.0981 7.0834 0.02737
C 23.35651 6.38904 -0.00498
C 23.43452 4.97455 0.00135
C 22.06719 4.22333 0.03102
C 22.08937 2.85679 0.02555
C 23.33671 2.07596 0.01423
C 23.32982 0.70247 -0.00285
C 22.11581 34.01482 -0.009
C 24.57903 32.74688 -0.01199
C 25.83055 31.99394 -0.00229
C 25.83441 30.54283 -0.00938
C 24.60774 29.81807 -0.0264
C 24.54409 28.38256 -0.01154
C 25.7665 27.70154 0.00684
C 25.85029 26.27917 -0.01052
C 24.63831 25.51722 -0.01679
C 23.33902 19.16571 -0.04078
C 24.56393 24.15965 0.00367
C 22.13851 19.90164 0.03005
C 23.3477 22.06605 0.00768
C 20.87844 6.38981 0.0296
C 20.87387 4.96339 0.03374
C 19.67666 4.2939 -0.02845
C 19.68553 2.84525 -0.03213
C 20.90332 2.12652 0.02239
C 20.8716 0.67796 0.01153
C 19.65439 34.07336 0.02734
C 22.10512 32.66428 -0.0055
C 23.34705 32.03567 0.01515
C 23.35878 30.48942 -0.00225
C 22.12204 29.78834 0.00071
C 22.08887 28.39772 -0.01107
C 23.36189 27.71082 -0.01586
C 23.41724 26.26803 -0.01971
C 22.07296 25.49186 -0.02118
C 22.08322 24.11419 0.00733
C 23.36637 23.45079 -0.00178
C 22.10563 21.26868 -0.0276
C 3.66166 31.96588 -0.00494
C 25.86321 23.38942 0.04306
C 24.59545 21.3084 0.00195
C 28.31604 22.02721 0.01495
C 27.03954 21.28197 0.01259
C 27.07391 19.76966 0.01799
C 28.27954 19.14635 0.01699
C 27.02626 7.06653 -0.00416
C 28.28862 6.39243 0.01177
C 28.31593 4.93961 0.04266
C 27.06061 4.28842 0.01324
C 26.9658 2.83225 0.0014
C 28.21275 2.0902 0.00924
C 28.27253 0.62052 0.02326
C 27.00587 34.07379 0.00261
C 29.56534 32.62543 0.03265
C 30.76759 31.92854 -0.02049
C 30.64301 30.5187 -0.01854
C 29.44874 29.76211 -0.01415
C 29.54723 28.39882 -0.03039
C 28.30186 23.40222 0.00235
C 25.86318 21.96328 0.00996
C 27.11324 24.07808 0.01094
C 28.32669 26.26611 0.02611
C 24.58116 19.84965 -0.00802
C 25.84385 19.13179 -0.00218
C 24.51312 8.47676 -0.01654
C 24.58933 7.15476 -0.00037
C 25.89284 6.34028 -0.0032
C 25.90643 4.92223 0.00622
C 24.57507 4.20784 -0.02815
C 24.57653 2.8064 -0.00942
C 25.82621 2.12358 0.00487
C 25.81575 0.69456 0.00826
C 24.63103 0.01807 -0.00294
C 27.01496 32.65715 0.00152
C 28.28885 31.96481 0.01257
C 28.32687 30.52695 0.02316
C 27.11702 29.84053 0.04185
C 27.08199 28.44035 0.00194
C 28.30808 27.74048 -0.00621
C 27.1114 25.47392 0.02198
C 2.44229 32.64995 -0.00562
