281
Graphene
C 0.01855 0.03832 0.01295
C 12.34349 12.75464 -0.02422
C 13.48264 13.55305 -0.01721
C 13.5559 14.95613 -0.01154
C 12.31867 15.61088 0.0106
C 12.40009 17.03134 -0.01594
C 13.53698 17.79207 0.00742
C 13.51654 19.14456 -0.00311
C 12.32851 29.85267 0.00675
C 13.41111 30.36319 -0.00865
C 13.54166 31.88955 0.0058
C 12.36414 32.67813 -0.00652
C 9.86824 34.03908 -0.04076
C 11.10355 0.68315 -0.00703
C 11.10487 2.10594 0.00654
C 9.80675 2.92428 -0.04422
C 9.85171 4.24463 -0.02957
C 11.08064 4.91545 -0.00831
C 11.03406 31.91758 0.02691
C 11.13307 30.43511 -0.01581
C 9.7745 29.77666 0.01452
C 9.79592 28.44631 0.04892
C 9.87763 15.55713 -0.00111
C 11.03212 14.96271 -0.03557
C 12.21117 11.41821 0.01277
C 11.09867 13.52626 0.03754
C 9.86307 11.37973 0.00755
C 11.07709 10.66275 -0.0054
C 11.09916 9.22774 0.00667
C 9.83029 8.52912 0.00143
C 9.85911 7.08352 -0.017
C 11.0949 6.41128 0.00364
C 9.8583 12.87362 0.01739
C 9.81168 32.66204 -0.01979
C 13.47399 10.7195 0.00096
C 12.32064 8.44974 0.01087
C 17.21686 11.33128 0.02117
C 18.55533 32.03476 -0.04078
C 17.28075 32.62143 0.03005
C 14.71777 34.00918 -0.0276
C 15.95111 0.72897 0.00768
C 15.99387 2.08365 -0.00178
C 14.69218 2.81815 0.00733
C 14.78206 4.24633 -0.02118
C 16.08188 4.97231 -0.01971
C 15.99551 6.42212 -0.01586
C 14.76873 7.12351 -0.01107
C 14.71634 8.6296 0.00071
C 15.96214 9.25484 -0.00225
C 15.97952 10.59357 0.01515
C 14.7418 11.33745 -0.0055
C 14.70029 12.81756 0.02734
C 14.77136 15.66214 0.01153
C 12.27151 7.10317 0.00199
C 13.51877 6.40784 0.01511
C 13.55281 4.95062 -0.00478
C 12.35648 4.31788 -0.01662
C 12.31365 2.79622 -0.01185
C 13.5389 2.10248 0.01126
C 13.50229 9.23597 -0.01527
C 13.56124 0.64787 0.01852
C 14.72055 32.64098 0.03046
C 15.96644 31.95151 0.0296
C 14.77204 24.03472 0.03374
C 14.79563 21.21099 -0.02845
C 14.66241 19.96279 -0.03213
C 14.70838 16.97384 0.02239
C 12.27137 0.00287 -0.00381
C 7.30512 0.05689 0.02188
C 8.58105 0.74641 -0.00316
C 8.58993 2.15909 -0.0331
C 4.95188 29.76192 0.00374
C 6.16041 30.52632 -0.02813
C 6.15456 31.95716 -0.01952
C 4.918 32.69899 0.05265
C 2.51781 0.01639 -0.01717
C 3.70394 0.71913 0.00244
C 3.70924 2.08171 0.02299
C 2.43881 2.81511 0.03542
C 2.44995 4.26155 0.01416
C 3.73541 4.98333 0.01945
C 3.65436 6.39179 -0.01454
C 2.40725 7.09568 0.01241
C 2.42217 8.52469 0.0076
C 3.67033 9.23173 0.02162
C 3.62245 10.65506 -0.0014
C 2.44195 11.38537 0.00415
C 2.50422 12.7725 -0.02162
C 3.65486 30.50654 0.03101
C 2.44103 29.74121 -0.01536
C 2.41576 28.36487 -0.02689
C 3.73865 27.64579 -0.01046
C 3.66313 26.25513 -0.00891
C 2.53243 25.53036 0.02819
C 4.99251 28.42978 0.00052
C 2.39128 24.20992 0.00165
C 2.49525 19.88454 0.02894
C 3.68963 17.75012 -0.01789
C 2.43687 17.06901 0.00444
C 2.46013 15.66167 -0.00925
C 3.69599 14.85929 0.01877
C 3.68327 13.49089 0.01363
C 2.40296 21.27962 -0.02971
C 4.8341 17.08364 -0.03682
C 4.92357 15.64066 0.01965
C 6.1523 14.98074 0.02058
C 7.38511 28.33855 0.03505
C 7.37754 15.637 -0.02815
C 8.63576 14.99568 -0.04147
C 8.61147 13.51067 -0.05302
C 7.30483 12.85859 0.00213
C 7.39141 11.38766 -0.00066
C 7.35589 29.76237 0.01443
C 8.58419 10.64363 -0.00289
C 7.34007 8.53835 -0.02213
C 7.41664 7.03816 0.03698
C 8.66411 6.384 -0.00109
C 8.5907 4.94138 -0.00491
C 7.45468 4.22494 0.03338
C 7.39121 2.82625 -0.0258
C 8.55317 9.20583 0.00028
C 18.40751 9.3741 0.02737
C 8.5934 30.55063 0.00979
C 7.39077 32.65481 0.00889
C 6.11951 13.51766 -0.01957
C 4.97031 12.76206 -0.0108
C 4.89641 11.31195 -0.00368
C 6.19869 10.61137 -0.02696
C 6.06822 9.17464 -0.00114
C 4.87837 8.59615 0.00228
C 8.56153 31.99372 -0.00481
C 4.87456 7.12303 0.00798
C 6.17656 4.99274 0.0351
C 4.91996 4.17267 -0.03113
C 4.97182 2.8264 0.02098
C 6.19385 2.17811 0.01848
C 6.13327 0.75995 -0.00619
C 4.91503 0.00134 -0.02162
C 6.0941 6.33631 0.00422
C 3.67183 31.92393 -0.00428
C 17.29061 8.55488 -0.00498
C 18.4518 6.36487 0.03102
C 31.98511 4.31769 -0.03838
C 33.21863 5.03411 0.04926
C 33.15483 6.40421 -0.00069
C 32.01282 7.09086 0.01504
C 32.03854 8.51759 0.02806
C 33.23311 9.25621 0.04381
C 33.13222 10.55173 0.00199
C 31.94156 11.33148 0.00137
C 31.9265 12.77871 -0.01839
C 33.14819 13.40595 -0.00644
C 33.19913 14.86863 0.00455
C 31.95886 15.63771 0.00369
C 31.96512 17.05863 -0.02474
C 33.22782 17.69018 0.00594
C 33.19284 19.19483 -0.0136
C 31.91995 19.93741 -0.01429
C 32.05445 21.31765 -0.02383
C 29.49774 4.23742 0.00716
C 29.5282 2.82995 0.00307
C 30.78832 2.16789 0.00346
C 30.73251 0.71363 0.01713
C 29.47052 0.03901 -0.01694
C 32.02217 32.65088 0.01428
C 31.98716 2.9032 0.00349
C 33.20617 31.9606 -0.02142
C 32.00785 29.87291 0.00026
C 31.92058 28.51628 0.00682
C 33.13527 27.72469 -0.01779
C 33.2513 26.31514 0.03794
C 33.15762 23.42171 0.01927
C 33.21035 22.06205 0.01574
C 33.23887 30.53237 0.0544
C 30.75244 4.95154 0.02108
C 33.16918 2.17623 -0.00323
C 31.94232 0.04861 0.0001
C 1.26741 0.72171 -0.00468
C 1.16965 2.12665 -0.00939
C 34.37993 2.86177 -0.00931
C 34.42468 4.22662 -0.0345
C 1.23432 4.94221 0.00628
C 1.15482 6.43462 0.02931
C 34.38339 7.13503 -0.02849
C 0.04571 8.59083 -0.02302
C 1.25003 9.19056 -0.00583
C 1.19775 10.68004 -0.00027
C 34.35529 11.33551 -0.02442
C 0.00641 12.76911 -0.02656
C 1.20969 13.52318 0.00343
C 1.12967 14.91829 -0.02957
C 34.36871 15.60166 0.02114
C 34.40098 16.97398 0.00648
C 1.22264 17.78493 0.01223
C 34.38109 32.66897 -0.02927
C 1.23148 31.99257 -0.01404
C 1.22808 30.49805 0.01027
C 34.43229 29.82055 0.01831
C 34.4325 28.42695 -0.01037
C 1.26214 27.67399 -0.00439
C 33.22172 0.7687 -0.00841
C 1.21197 26.2562 -0.00598
C 34.38354 24.17014 0.03076
C 1.21522 23.45567 0.00723
C 1.16281 22.08869 0.02712
C 0.05858 21.28044 -0.02213
C 0.0203 19.83999 0.01951
C 1.30857 19.13698 -0.01678
C 34.41209 25.60375 -0.05239
C 30.73373 6.42205 0.0103
C 29.52777 7.11072 0.07705
C 29.51232 8.52678 0.01908
C 24.58553 7.07486 0.04185
C 24.55717 8.55428 0.02316
C 25.86585 9.26059 0.01257
C 25.90117 10.59845 0.00152
C 22.15564 34.06061 -0.00294
C 23.37823 0.68743 0.00826
C 23.35408 2.16773 0.00487
C 22.13409 2.77924 -0.00942
C 22.10084 4.25316 -0.02815
C 23.41784 4.90918 0.00622
C 23.32294 6.33694 -0.0032
C 22.09445 7.1073 -0.00037
C 22.09574 8.53302 -0.01654
C 23.32846 9.27894 -0.00218
C 19.69308 34.07682 -0.00802
C 20.93532 0.64488 0.00195
C 20.94348 2.11168 0.00996
C 18.4425 4.99986 0.02555
C 17.27615 4.2268 0.01423
C 17.21534 2.74232 -0.00285
C 18.47874 2.12612 -0.009
C 18.47378 0.67644 -0.01199
C 17.17639 0.00675 -0.00229
C 25.84381 6.37327 0.00194
C 19.60714 32.65603 -0.00938
C 19.66079 8.58523 -0.01154
C 19.69067 7.16147 0.00684
C 20.88559 6.39465 -0.01052
C 20.94736 5.01353 -0.01679
C 19.64291 4.29802 0.00367
C 19.6874 2.86589 0.04306
C 20.89951 9.20354 -0.0264
C 25.87572 5.01483 -0.00621
C 24.64181 4.25306 0.02611
C 24.57057 2.79422 0.02198
C 27.06571 0.03938 -0.03039
C 29.51787 32.65713 0.01836
C 30.78612 31.99079 0.03531
C 30.70043 30.43908 -0.00669
C 30.70511 19.13504 0.0101
C 30.69995 17.76264 0.01705
C 28.36244 0.72688 -0.01415
C 29.48076 16.98796 -0.0405
C 30.69443 14.91689 -0.01461
C 30.71195 13.46147 -0.02155
C 29.4629 12.77338 -0.00944
C 29.50316 11.30377 -0.03735
C 30.72924 10.71421 -0.00971
C 30.76177 9.27725 0.01518
C 29.478 15.64868 -0.01303
C 17.23696 7.10019 0.00135
C 28.24312 2.10432 -0.01854
C 26.98424 4.25862 0.03265
C 25.81824 2.13017 0.01094
C 25.86177 0.65027 0.00235
C 24.61337 4e-05 0.01495
C 27.09899 32.6959 0.01259
C 28.22497 32.03701 0.01799
C 28.26382 14.8828 0.01699
C 27.02513 2.84269 -0.02049
C 28.264 13.54747 -0.00416
C 28.27523 10.70634 0.04266
C 28.29969 9.23534 0.01324
C 27.08514 8.51777 0.0014
C 27.04031 7.05639 0.00924
C 28.27089 6.37108 0.02326
C 28.25319 4.96122 0.00261
C 26.96913 11.41661 0.01177
C 2.46339 32.62214 -0.02245
