358
Graphene
C 0.01317 0.02951 0.01295
C 9.87351 7.06417 -0.01957
C 11.02017 6.4444 -0.0108
C 11.07249 5.00424 -0.00368
C 9.86539 4.22166 -0.02696
C 9.87875 2.869 -0.00114
C 11.08445 2.15316 0.00228
C 11.02102 0.674 0.00798
C 9.7778 0.01064 0.00422
C 9.81254 8.41488 0.02058
C 12.30583 32.61547 0.0351
C 13.57333 30.53873 0.02098
C 12.3305 29.77678 0.01848
C 12.33076 28.38761 -0.00619
C 13.57278 27.67733 -0.02162
C 13.47578 26.37177 0.00889
C 12.30887 25.52811 -0.00481
C 12.26966 24.07288 0.00979
C 12.24716 21.28837 0.01443
C 13.57636 31.87185 -0.03113
C 12.17744 8.50285 0.03505
C 11.07631 9.24208 0.01965
C 9.80392 16.98742 0.00052
C 7.35953 2.8869 0.01363
C 8.53936 2.17186 -0.02162
C 8.60322 0.75691 0.00415
C 7.41128 0.02984 -0.0014
C 9.85878 32.68531 0.02162
C 11.08516 31.94335 0.0076
C 11.05633 30.53024 0.01241
C 9.8507 29.80734 -0.01454
C 9.88346 11.39396 -0.03682
C 9.84232 28.4724 0.01945
C 11.0386 26.29006 0.03542
C 9.84345 25.61327 0.02299
C 9.85946 24.08206 0.00244
C 11.09673 23.41865 -0.01717
C 11.11286 22.01281 0.05265
C 9.89905 21.26748 -0.01952
C 9.81821 19.81108 -0.02813
C 11.05659 19.19433 0.00374
C 11.0785 27.68159 0.01416
C 12.25573 7.0848 -0.02815
C 13.55583 6.38837 -0.04147
C 13.59465 5.0036 -0.05302
C 17.20966 4.28985 -0.0054
C 17.23905 2.87156 0.00667
C 18.42051 2.19434 0.00143
C 18.43505 0.73587 -0.017
C 17.20193 34.04775 0.00364
C 19.69233 32.6382 -0.00831
C 20.92116 32.00211 -0.02957
C 20.89736 30.52202 -0.04422
C 18.40423 27.7051 0.00755
C 19.65956 29.86225 0.00654
C 20.94322 27.65564 -0.04076
C 20.97512 5.04273 -0.00652
C 19.71072 4.23095 0.0058
C 19.69058 2.84199 -0.00865
C 20.93142 2.1243 0.00675
C 20.93245 0.6677 -0.00311
C 19.63706 0.00141 0.00742
C 22.13978 32.61347 -0.01594
C 19.67899 28.31103 -0.00703
C 17.23901 28.33759 0.01739
C 17.20911 29.85448 0.03754
C 18.40347 30.51625 -0.03557
C 12.25748 4.27065 0.00213
C 12.23603 2.87655 -0.00066
C 13.51642 2.16679 -0.00289
C 13.53673 0.73373 0.00028
C 12.34126 34.0392 -0.02213
C 14.76701 32.65733 0.03698
C 15.99143 31.93778 -0.00109
C 15.98595 30.53441 -0.00491
C 14.78659 29.82918 0.03338
C 14.77609 28.40518 -0.0258
C 15.97871 27.63996 -0.0331
C 15.96237 4.95117 -0.00316
C 14.74825 4.26312 0.02188
C 14.81264 2.86422 -0.01979
C 15.97244 2.1518 0.02691
C 15.96577 0.72819 -0.01581
C 14.73063 0.01704 0.01452
C 17.21586 32.63401 0.04892
C 18.41428 31.95461 -0.00111
C 7.37583 4.28854 0.01877
C 8.64129 4.94932 -0.00925
C 8.57687 6.37303 0.00444
C 7.37143 7.0581 -0.01789
C 3.67646 6.38031 -0.01142
C 3.68988 4.93639 -0.00562
C 2.42276 4.21614 -0.00494
C 2.49771 2.81179 0.00054
C 3.74453 2.13262 0.03007
C 3.66462 0.74782 -0.00095
C 2.4684 34.04822 0.01572
C 4.8749 32.66514 -0.04848
C 2.45122 7.11841 0.01849
C 6.164 31.99231 -0.00892
C 4.91662 29.78776 -0.0008
C 4.90764 28.4206 0.0288
C 6.12667 27.73123 0.00393
C 6.12247 26.28693 0.00895
C 4.91797 25.57753 0.00685
C 4.91957 24.17811 0.02888
C 6.15953 23.3832 -0.00482
C 6.14484 22.02006 -0.01384
C 6.14932 30.54903 -0.01362
C 2.46536 8.52817 0.01396
C 3.6358 9.30329 0.0127
C 3.71188 10.68254 0.02635
C 3.66696 30.48994 0.02322
C 2.44008 29.7954 -0.00725
C 2.41868 28.42285 -0.05697
C 3.72192 27.65794 0.01087
C 3.73602 26.28852 -0.01343
C 2.43471 25.55628 0.00988
C 2.50537 24.13917 0.0276
C 3.69535 23.43843 0.01305
C 3.63182 22.0097 -0.00077
C 2.43335 21.39344 0.03368
C 2.48181 19.88208 -0.02929
C 3.71834 19.14879 -0.00966
C 3.65681 17.77291 -0.03337
C 2.50277 17.03405 0.01227
C 2.4626 15.60298 0.00873
C 3.74519 14.89187 -0.00049
C 3.62015 13.44953 0.00848
C 2.4536 12.85314 -0.01303
C 2.42599 11.4242 -0.01378
C 4.89889 21.30077 0.03693
C 23.41578 31.97553 0.0106
C 4.9094 19.80175 0.01745
C 6.15759 17.77421 -0.01004
C 8.61582 26.33057 0.03592
C 7.3654 25.60205 0.00406
C 7.35701 24.13377 0.00943
C 8.56595 23.3942 0.02841
C 8.59712 21.98787 -0.01111
C 7.41017 21.32665 -0.01275
C 7.3868 19.86112 0.00985
C 8.59365 19.2014 -0.02245
C 8.60662 27.75122 0.00572
C 8.56536 17.75903 -0.00428
C 7.42444 15.59828 -0.01536
C 8.65693 14.88608 -0.02689
C 8.65298 13.57526 -0.01046
C 7.3833 12.68611 -0.00891
C 7.37201 11.33873 0.02819
C 8.5964 10.68015 0.00165
C 8.56235 9.18101 -0.02971
C 7.38709 8.50733 0.02894
C 7.34726 17.06366 0.03101
C 7.36339 28.42873 0.0402
C 7.40009 29.76751 -0.02759
C 8.58061 30.55492 0.03589
C 4.89363 17.08844 -0.02896
C 4.95484 15.66098 -0.00131
C 6.1512 14.88412 -0.01118
C 6.15187 13.48365 -0.014
C 4.93681 12.81383 0.02147
C 4.91845 11.37688 0.00373
C 6.12603 10.7056 -0.00191
C 6.20405 9.22434 0.00438
C 4.919 8.58004 0.01291
C 4.92875 7.13499 0.00093
C 6.18397 6.4365 0.00057
C 6.1168 5.05844 -0.01634
C 4.91356 4.30835 -0.00334
C 4.94166 2.87029 0.02339
C 6.10257 2.14757 0.01641
C 6.17882 0.7556 -0.00719
C 4.92924 0.00313 0.01364
C 7.40574 32.67763 -0.01062
C 8.58374 31.991 -0.00033
C 6.11293 19.21828 0.00488
C 23.37545 30.54487 -0.01154
C 22.06971 29.82425 -0.01721
C 22.07194 28.43094 -0.02422
C 31.95906 32.62556 0.01713
C 33.22158 31.93357 -0.01694
C 33.16314 30.57328 0.01428
C 31.95687 29.82765 -0.02142
C 32.04001 28.44709 0.0544
C 33.22894 27.66043 0.00026
C 33.18017 26.28909 0.00682
C 31.92093 25.54917 -0.01779
C 29.52787 34.06606 0.00346
C 31.96109 24.18066 0.03794
C 33.14094 22.00019 0.01574
C 31.94334 21.30657 -0.02383
C 31.95039 19.83508 -0.01429
C 33.21401 19.21964 -0.0136
C 33.14777 17.75822 0.00594
C 31.98931 17.07521 -0.02474
C 32.00178 15.57282 0.00369
C 33.21434 14.8792 0.00455
C 33.20579 23.44681 0.01927
C 30.78279 0.69725 0.00307
C 30.76894 2.16568 0.00716
C 29.50518 2.8319 0.02108
C 30.73979 23.44616 -0.01854
C 30.73288 22.03183 -0.01415
C 29.48419 21.36263 -0.03039
C 29.55803 19.86682 0.01836
C 30.75221 19.11439 0.03531
C 30.79574 17.70662 -0.00669
C 29.50004 17.05343 0.0101
C 29.51166 15.6343 0.01705
C 30.78381 14.92003 -0.0405
C 30.72983 13.4896 -0.01303
C 29.50162 12.77545 -0.01461
C 29.51033 11.38515 -0.02155
C 30.79077 10.6729 -0.00944
C 30.74869 9.18297 -0.03735
C 29.54132 8.48778 -0.00971
C 29.53686 7.11091 0.01518
C 30.74656 6.43749 0.01908
C 30.75041 4.93749 0.07705
C 29.45665 4.26768 0.0103
C 33.26338 13.43063 -0.00644
C 29.47482 24.06172 -0.02049
C 31.93665 12.80175 -0.01839
C 33.16276 10.62184 0.00199
C 1.21137 19.20672 -0.01678
C 1.21114 17.74938 0.01223
C 0.00665 16.97166 0.00648
C 0.02221 15.59505 0.02114
C 1.23392 14.94057 -0.02957
C 1.28508 13.48759 0.00343
C 0.00757 12.69783 -0.02656
C 34.42109 11.36153 -0.02442
C 0.03647 19.87199 0.01951
C 1.1914 10.66802 -0.00027
C 0.00161 8.50764 -0.02302
C 34.41976 7.10666 -0.02849
C 1.20478 6.38698 0.02931
C 1.23964 5.00769 0.00628
C 34.41897 4.24296 -0.0345
C 0.04113 2.87073 -0.00931
C 1.21952 2.16124 -0.00939
C 1.24636 0.71892 -0.00468
C 1.22556 9.21784 -0.00583
C 0.03232 21.33713 -0.02213
C 1.2418 22.02359 0.02712
C 1.1985 23.4121 0.00723
C 33.18394 9.25981 0.04381
C 31.98132 8.53533 0.02806
C 31.99129 7.1664 0.01504
C 33.15689 6.32608 -0.00069
C 33.17023 4.94677 0.04926
C 31.96369 4.26485 -0.03838
C 32.03568 2.85797 0.00349
C 33.1476 2.08806 -0.00323
C 33.15386 0.7025 -0.00841
C 31.9618 34.037 0.0001
C 34.4047 32.65971 -0.02927
C 1.22168 31.91222 -0.01404
C 1.23169 30.57724 0.01027
C 34.43172 29.86135 0.01831
C 0.00951 28.41119 -0.01037
C 1.23199 27.6618 -0.00439
C 1.19291 26.24227 -0.00598
C 34.37274 25.59558 -0.05239
C 34.42678 24.17162 0.03076
C 31.99932 11.30444 0.00137
C 3.68059 31.93748 -0.00094
C 29.48073 25.56871 0.03265
C 30.77311 27.6962 0.02326
C 25.79353 26.3465 0.00071
C 24.56943 25.56158 -0.01107
C 24.56108 24.13293 -0.01586
C 25.82575 23.47338 -0.01971
C 25.81932 22.01514 -0.02118
C 24.58502 21.30192 0.00733
C 24.55174 19.8367 -0.00178
C 25.78402 19.16159 0.00768
C 25.79864 27.72311 -0.00225
C 25.80597 17.83623 -0.0276
C 24.58244 15.5492 -0.04078
C 25.8041 14.89981 0.02117
C 25.78465 13.49442 0.02737
C 24.63694 12.82764 -0.00498
C 24.6158 11.3988 0.00135
C 25.76874 10.58279 0.03102
C 25.78293 9.20999 0.02555
C 24.59008 8.51611 0.01423
C 24.56331 16.98058 0.03005
C 24.55535 28.42097 0.01515
C 24.60214 29.78473 -0.0055
C 25.81091 30.50372 0.02734
C 23.39273 27.69938 0.01277
C 23.3064 26.23052 0.00096
C 22.13807 25.51878 -0.01527
C 23.37267 23.34071 0.01087
C 23.33744 22.02818 0.00199
C 23.36403 19.10079 0.01511
C 23.42234 17.78733 -0.00478
C 23.34473 10.63701 -0.01662
C 23.28864 9.26481 -0.01185
C 22.10706 7.04695 0.01126
C 23.34722 6.31713 0.01852
C 23.33547 4.95592 -0.00381
C 22.17235 4.23898 0.03046
C 22.16667 2.83199 0.0296
C 23.28496 2.1217 0.03374
C 23.30482 0.64888 -0.02845
C 22.14381 34.0456 -0.03213
C 24.6112 32.67562 0.02239
C 25.87257 31.90628 0.01153
C 24.63809 7.0465 -0.00285
C 30.75343 26.24923 0.00261
C 25.8141 6.38782 -0.009
C 24.59274 4.21428 -0.00229
C 27.01115 12.73676 0.02316
C 27.03928 11.36775 0.04185
C 28.33772 10.60441 0.00194
C 28.35563 9.20251 -0.00621
C 27.03969 8.49123 0.02611
C 27.05302 7.08907 0.02198
C 28.31383 6.38889 0.01094
C 28.28202 4.9516 0.00235
C 28.32287 13.5051 0.01257
C 27.01426 4.25037 0.01495
C 28.29 2.14247 0.01799
C 28.32336 0.69284 0.01699
C 27.10678 0.00528 -0.00416
C 29.53088 32.68797 0.01177
C 30.7572 31.96298 0.04266
C 30.76953 30.45898 0.01324
C 29.50363 29.81429 0.0014
C 29.54207 28.39943 0.00924
C 27.03899 2.89994 0.01259
C 28.25777 14.90518 0.00152
C 27.0424 15.65654 -0.00294
C 27.00907 17.06929 0.00826
C 24.59855 2.83608 -0.00938
C 25.85182 2.16435 -0.0264
C 25.83231 0.78061 -0.01154
C 24.58901 34.05825 0.00684
C 27.08433 32.68017 -0.01052
C 28.34096 31.94212 -0.01679
C 28.32432 30.51416 0.00367
C 27.00363 29.80066 0.04306
C 27.06965 28.42449 0.00996
C 28.27201 27.67169 0.00195
C 28.41022 26.3177 -0.00802
C 27.03439 25.61696 -0.00218
C 27.05479 24.14784 -0.01654
C 28.28655 23.39862 -0.00037
C 28.21772 22.02083 -0.0032
C 26.98243 21.30354 0.00622
C 27.01336 19.86113 -0.02815
C 28.25998 19.15767 -0.00942
C 28.29985 17.70959 0.00487
C 25.7544 4.91439 -0.01199
C 2.45711 32.66625 -0.02566
