411
Graphene
C 0.0133 0.02836 0.01295
C 13.55518 4.96413 -0.00428
C 12.25197 4.31458 0.03101
C 12.28789 2.87112 -0.01536
C 13.54245 2.11263 -0.02689
C 13.59777 0.76384 -0.01046
C 12.35514 0.02005 -0.00891
C 14.73342 32.63257 0.02819
C 15.95769 31.94108 0.00165
C 15.96407 30.44831 -0.02971
C 14.74763 29.80138 0.02894
C 14.79125 28.43649 -0.01789
C 16.00836 27.64475 0.00444
C 16.0056 26.25909 -0.00925
C 14.80698 25.54014 0.01877
C 14.75362 24.2039 0.01363
C 15.98472 23.38566 -0.02162
C 15.97748 21.9612 0.00415
C 14.70413 21.27072 -0.0014
C 14.81219 19.82837 0.02162
C 15.94285 19.13569 0.0076
C 15.96294 17.76927 0.01241
C 13.54827 6.37141 -0.02245
C 12.28475 17.10087 0.00985
C 13.45892 17.82172 -0.01275
C 13.53458 19.21264 -0.01111
C 9.86022 17.07794 0.00373
C 9.88565 7.12519 -0.00191
C 11.10031 6.41056 0.00438
C 11.04335 5.00251 0.01291
C 9.85393 4.25494 0.00093
C 9.86125 2.85973 0.00057
C 11.07799 2.21225 -0.01634
C 11.0742 0.73232 -0.00334
C 9.83417 0.08141 0.02339
C 12.33591 32.62667 0.01641
C 14.76822 17.00666 -0.01454
C 13.57295 31.9834 -0.00719
C 12.37214 29.84629 -0.01062
C 12.2636 28.35664 -0.00033
C 13.50838 27.71715 0.03589
C 13.54104 26.2285 -0.02759
C 12.24697 25.55053 0.0402
C 12.29527 24.12832 0.00572
C 13.5761 23.45652 0.03592
C 13.51905 22.04035 0.00406
C 12.30468 21.31975 0.00943
C 12.24978 19.97009 0.02841
C 13.51801 30.57367 0.01364
C 14.7319 15.58355 0.01945
C 15.96152 14.8973 0.01416
C 15.99285 13.53905 0.03542
C 18.43165 10.63241 -0.00481
C 18.40675 9.2413 0.00979
C 17.20186 8.55005 0.01443
C 17.22755 7.06378 0.03505
C 18.48535 6.44367 -0.02815
C 18.46555 4.95498 -0.04147
C 17.23032 4.27991 -0.05302
C 17.21509 2.82766 0.00213
C 18.4685 2.08707 -0.00066
C 18.40799 0.71249 -0.00289
C 17.19018 11.36351 0.00889
C 17.26569 34.03512 0.00028
C 20.92182 31.92415 0.03698
C 20.88545 30.5228 -0.00109
C 19.63249 29.79845 -0.00491
C 19.62473 28.38019 0.03338
C 20.87449 27.73939 -0.0258
C 19.64363 19.89031 -0.0331
C 20.86091 19.21029 -0.00316
C 20.93698 17.72191 0.02188
C 19.70854 17.03817 -0.01979
C 19.69175 15.65539 0.02691
C 19.69046 32.68582 -0.02213
C 11.09973 17.75303 0.02147
C 17.20162 12.81013 -0.02162
C 18.4605 14.86428 0.01848
C 16.00302 10.58769 0.02299
C 15.99192 9.24103 0.00244
C 14.78936 7.11902 -0.01717
C 15.96938 6.37671 0.05265
C 15.94125 4.95841 -0.01952
C 14.7078 4.26349 -0.02813
C 14.74723 2.81953 0.00374
C 15.92603 2.12403 0.00052
C 16.0144 0.73276 -0.03682
C 14.81138 34.07049 0.01965
C 18.43374 13.48158 -0.00619
C 17.21759 32.58606 0.02058
C 18.4132 30.51262 -0.0108
C 17.23251 29.79662 -0.00368
C 17.19178 28.35115 -0.02696
C 18.45666 27.66839 -0.00114
C 17.25795 21.32187 0.00228
C 17.18017 19.93125 0.00798
C 18.43988 19.15541 0.00422
C 18.43068 17.73908 0.0351
C 17.1918 17.03062 -0.03113
C 17.22541 15.65048 0.02098
C 18.45307 31.89464 -0.01957
C 20.88787 14.92358 -0.01581
C 11.02599 19.19958 -0.014
C 9.8172 21.31908 -0.00131
C 2.44734 2.82943 0.03189
C 3.68265 2.17422 0.00031
C 3.69687 0.68759 -0.003
C 2.45459 0.03523 0.01402
C 4.92738 32.6924 0.02379
C 6.15794 31.9864 0.00907
C 6.08885 30.59754 0.00643
C 4.9161 29.84806 -0.01509
C 4.92309 28.36784 0.03267
C 6.14504 27.69409 0.02374
C 6.14498 26.299 0.00402
C 4.96407 25.52061 0.0073
C 4.9639 24.1594 0.0174
C 6.1261 23.409 0.03828
C 6.21982 21.98006 0.01226
C 4.89865 21.31262 -0.00279
C 4.86148 19.86861 0.01996
C 6.1216 19.25085 -0.03996
C 6.159 17.75508 0.01465
C 4.95484 17.01799 -0.00074
C 4.91036 15.64024 -0.00518
C 2.48678 4.23081 -0.04307
C 3.65356 4.91562 0.03284
C 3.74568 6.35739 0.04505
C 2.40231 7.04461 -0.04999
C 3.66829 30.60253 0.00088
C 2.42482 29.87077 0.00828
C 2.43577 28.4361 -0.02375
C 3.72874 27.71833 0.00558
C 3.69063 26.21108 -0.0059
C 2.51459 25.55155 -0.01386
C 2.47854 24.1639 -0.02805
C 3.68999 23.4618 0.00081
C 3.6681 22.0115 0.00245
C 2.42388 21.26223 0.02728
C 6.17858 14.88371 0.0086
C 2.47179 19.8882 -0.00039
C 3.69952 17.7037 0.00211
C 2.46998 17.04591 -0.00449
C 2.47361 15.65283 -0.01979
C 3.64657 14.91259 0.02784
C 3.70957 13.48698 -0.01977
C 2.50888 12.77062 -0.00561
C 2.48883 11.40194 0.00208
C 3.66631 10.57409 0.01707
C 3.68838 9.23372 0.02769
C 2.44923 8.51698 -0.03291
C 3.62376 19.10661 0.0064
C 6.13356 13.47689 -0.00643
C 4.90627 12.82194 0.017
C 4.92156 11.37935 -0.03113
C 7.40579 16.96935 -0.00562
C 7.3666 15.62626 -0.00494
C 7.37455 8.52677 0.00054
C 7.40736 7.11158 0.03007
C 8.6064 6.37305 -0.00095
C 8.59815 4.97426 0.01572
C 7.38035 4.28589 -0.04848
C 7.36896 2.84177 -0.00892
C 8.5634 2.17053 -0.01362
C 8.63366 0.72847 -0.0008
C 8.64423 17.79694 -0.01142
C 7.37883 0.0319 0.0288
C 11.10561 32.00673 0.00895
C 11.03205 30.61671 0.00685
C 9.82354 29.84477 0.02888
C 9.85417 28.41837 -0.00482
C 10.99719 27.67025 -0.01384
C 11.07728 26.29516 0.03693
C 9.84437 25.53755 0.01745
C 9.8318 24.13636 0.00488
C 11.01558 23.4755 -0.01004
C 11.02873 22.07929 -0.02896
C 9.86591 32.69576 0.00393
C 9.79598 19.86618 -0.01118
C 8.57748 19.2251 0.01849
C 7.3891 21.2803 0.0127
C 6.16282 10.64188 -0.02566
C 6.11204 9.28488 -0.00094
C 4.87538 8.51938 0.02322
C 4.97461 7.12889 -0.00725
C 6.16518 6.35923 -0.05697
C 6.13472 4.99771 0.01087
C 4.87488 4.24968 -0.01343
C 4.91339 2.85111 0.00988
C 6.10828 2.18176 0.0276
C 6.06943 0.72798 0.01305
C 7.33633 19.88433 0.01396
C 4.88614 34.04962 -0.00077
C 8.64111 31.98594 -0.02929
C 8.56697 30.53418 -0.00966
C 7.36786 29.85743 -0.03337
C 7.38441 28.38089 0.01227
C 8.62753 27.70915 0.00873
C 8.6132 26.28977 -0.00049
C 7.41242 25.56014 0.00848
C 7.41138 24.18592 -0.01303
C 8.59754 23.44127 -0.01378
C 8.60943 22.01713 0.02635
C 7.37524 32.67694 0.03368
C 3.63701 32.01657 0.04421
C 20.94539 13.48495 0.01452
C 19.69687 11.32521 -0.00111
C 30.79308 9.22187 -0.03735
C 29.49771 8.54289 -0.00971
C 29.51599 7.12182 0.01518
C 30.76095 6.40811 0.01908
C 30.73187 4.97194 0.07705
C 29.49319 4.24178 0.0103
C 29.50587 2.86799 0.02108
C 30.78676 2.15738 0.00716
C 30.74798 0.6355 0.00307
C 29.53985 34.03065 0.00346
C 31.96948 32.66819 0.01713
C 33.1942 31.97743 -0.01694
C 33.21144 30.48544 0.01428
C 31.94049 29.82238 -0.02142
C 32.03086 28.35694 0.0544
C 33.18059 27.66316 0.00026
C 33.15855 26.29323 0.00682
C 31.93769 25.53368 -0.01779
C 31.94988 24.17367 0.03794
C 33.20396 23.42804 0.01927
C 33.22389 21.95333 0.01574
C 30.77921 10.62591 -0.00944
C 29.52917 11.3902 -0.02155
C 29.55692 12.77811 -0.01461
C 30.74594 13.43184 -0.01303
C 27.06754 2.84895 0.01259
C 28.32362 2.10158 0.01799
C 28.25386 0.6879 0.01699
C 27.0699 34.0476 -0.00416
C 29.49483 32.66179 0.01177
C 30.74351 31.94686 0.04266
C 30.75814 30.58255 0.01324
C 29.50128 29.81639 0.0014
C 29.55251 28.42997 0.00924
C 30.73065 27.69128 0.02326
C 31.99612 21.30949 -0.02383
C 30.71358 26.24675 0.00261
C 29.55682 24.13722 -0.02049
C 30.78193 23.43495 -0.01854
C 30.728 21.99588 -0.01415
C 29.53565 21.33767 -0.03039
C 29.52403 19.87796 0.01836
C 30.76449 19.20834 0.03531
C 30.7143 17.66476 -0.00669
C 29.46757 17.01259 0.0101
C 29.51203 15.60721 0.01705
C 30.82185 14.91069 -0.0405
C 29.45667 25.50579 0.03265
C 31.93346 19.89957 -0.01429
C 33.19152 19.14412 -0.0136
C 33.16275 17.75801 0.00594
C 1.21438 23.40419 0.00723
C 1.21274 22.07386 0.02712
C 0.00297 21.3334 -0.02213
C 8e-05 19.88345 0.01951
C 1.23612 19.16655 -0.01678
C 1.18652 17.714 0.01223
C 34.37851 17.03216 0.00648
C 34.42816 15.62564 0.02114
C 1.26101 14.86791 -0.02957
C 1.2407 13.48303 0.00343
C 34.38962 24.18543 0.03076
C 0.01073 12.77809 -0.02656
C 1.21545 10.7272 -0.00027
C 1.21349 9.23978 -0.00583
C 34.39987 8.52163 -0.02302
C 34.42783 7.13234 -0.02849
C 1.22762 6.37085 0.02931
C 1.23348 4.95122 0.00628
C 34.40965 4.20948 -0.0345
C 34.42444 2.81777 -0.00931
C 1.2318 2.15056 -0.00939
C 1.23238 0.77842 -0.00468
C 34.41872 11.3216 -0.02442
C 27.04895 4.22868 0.01495
C 34.38019 25.57664 -0.05239
C 1.23277 27.68892 -0.00439
C 32.00778 17.04296 -0.02474
C 31.94718 15.55233 0.00369
C 33.19003 14.88405 0.00455
C 33.23738 13.47705 -0.00644
C 31.95296 12.73702 -0.01839
C 31.94218 11.35799 0.00137
C 33.20925 10.61144 0.00199
C 33.19795 9.22905 0.04381
C 32.00752 8.53008 0.02806
C 31.94338 7.1047 0.01504
C 1.26055 26.21798 -0.00598
C 33.18151 6.37886 -0.00069
C 31.94101 4.25848 -0.03838
C 31.9883 2.85761 0.00349
C 33.23787 2.09606 -0.00323
C 33.19024 0.72272 -0.00841
C 31.91267 34.07537 0.0001
C 34.37549 32.64461 -0.02927
C 1.22584 31.90394 -0.01404
C 1.19615 30.53955 0.01027
C 0.02712 29.80304 0.01831
C 0.02961 28.40529 -0.01037
C 33.12271 4.98142 0.04926
C 19.63141 12.71835 0.04892
C 28.29957 4.96003 0.00235
C 27.05523 7.08406 0.02198
C 22.16463 16.98444 0.01277
C 22.15113 15.5599 0.00096
C 23.38206 14.89664 -0.01527
C 23.36544 13.47611 0.01087
C 22.1606 12.70769 0.00199
C 22.08938 11.32117 0.01511
C 23.34833 10.67643 -0.00478
C 23.39678 9.18569 -0.01662
C 22.1986 8.47884 -0.01185
C 22.13472 7.04674 0.01126
C 23.35531 6.35512 0.01852
C 23.37017 4.964 -0.00381
C 22.13736 4.23197 0.03046
C 22.18686 2.85258 0.0296
C 23.33889 2.10747 0.03374
C 23.36807 0.71694 -0.02845
C 22.16761 34.0625 -0.03213
C 24.65701 32.71634 0.02239
C 25.86518 31.97615 0.01153
C 25.7999 30.54457 0.02734
C 24.60876 29.75123 -0.0055
C 23.33051 17.75408 -0.02422
C 23.37265 19.18561 -0.01721
C 22.10049 19.95182 -0.01154
C 22.1242 21.28262 0.0106
C 20.90043 10.65261 -0.03557
C 20.89525 9.25097 0.03754
C 19.67929 8.49762 0.01739
C 19.70103 7.11551 0.00755
C 20.90317 6.4374 -0.0054
C 20.90372 4.93951 0.00667
C 19.70664 4.29582 0.00143
C 19.71538 2.83739 -0.017
C 20.96187 2.13537 0.00364
C 20.86156 0.68786 -0.00831
C 24.60825 28.42204 0.01515
C 19.66185 34.06712 -0.02957
C 23.48929 32.0125 0.00654
C 23.33266 30.54254 -0.00703
C 22.15 29.80612 -0.04076
C 22.16177 28.38837 -0.00652
C 23.30609 27.69389 0.0058
C 23.28963 26.27756 -0.00865
C 22.11358 25.53549 0.00675
C 22.10205 24.16511 -0.00311
C 23.39457 23.39128 0.00742
C 23.29766 21.94099 -0.01594
C 22.13595 32.67101 -0.04422
C 25.77976 27.71531 -0.00225
C 25.77555 26.27166 0.00071
C 24.55507 25.57386 -0.01107
C 28.27642 30.54116 0.00367
C 27.06091 29.81791 0.04306
C 27.03432 28.41052 0.00996
C 28.2978 27.62276 0.00195
C 28.30871 26.27191 -0.00802
C 27.04641 25.56794 -0.00218
C 27.05542 24.14803 -0.01654
C 28.35421 23.48109 -0.00037
C 28.30744 22.02993 -0.0032
C 27.00867 21.24842 0.00622
C 28.29667 31.91589 -0.01679
C 27.04946 19.89137 -0.02815
C 28.23472 17.75728 0.00487
C 27.04119 17.0243 0.00826
C 27.08562 15.66065 -0.00294
C 28.30953 14.91318 0.00152
C 28.27643 13.50288 0.01257
C 27.02472 12.72245 0.02316
C 27.05505 11.37266 0.04185
C 28.30122 10.65858 0.00194
C 28.25374 9.22583 -0.00621
C 27.03341 8.50676 0.02611
C 28.28767 19.14035 -0.00942
C 28.2789 6.37221 0.01094
C 27.06905 32.6272 -0.01052
C 25.86577 0.69781 -0.01154
C 24.59064 24.18378 -0.01586
C 25.8649 23.46918 -0.01971
C 25.77186 22.00531 -0.02118
C 24.58915 21.26982 0.00733
C 24.58997 19.87283 -0.00178
C 25.81363 19.21447 0.00768
C 25.83063 17.74667 -0.0276
C 24.57304 17.01635 0.03005
C 24.63343 15.61415 -0.04078
C 25.7866 14.96519 0.02117
C 24.60754 0.0272 0.00684
C 25.84488 13.53623 0.02737
C 24.60247 11.36178 0.00135
C 25.83519 10.58131 0.03102
C 25.77284 9.17936 0.02555
C 24.6328 8.50692 0.01423
C 24.58475 7.06514 -0.00285
C 25.78461 6.40274 -0.009
C 25.8271 4.94555 -0.01199
C 24.54768 4.28239 -0.00229
C 24.62599 2.84918 -0.00938
C 25.77414 2.07602 -0.0264
C 24.60217 12.80078 -0.00498
C 2.44082 32.68036 -0.00177
