335
Graphene
C 34.33188 0.0171 0.01295
C 14.68781 8.6199 0.00979
C 14.71217 7.15355 0.01443
C 15.89943 6.41901 0.03505
C 15.85554 5.02941 -0.02815
C 14.67459 4.30632 -0.04147
C 14.68686 2.84461 -0.05302
C 15.9431 2.16942 0.00213
C 15.97227 0.76345 -0.00066
C 14.77178 0.08155 -0.00289
C 17.13145 32.63288 0.00028
C 18.39814 31.96401 -0.02213
C 18.47701 30.43566 0.03698
C 17.24764 29.88146 -0.00109
C 18.13576 14.94201 -0.00491
C 18.56775 13.46696 0.03338
C 17.35569 12.7731 -0.0258
C 17.21146 11.418 -0.0331
C 15.93849 9.32521 -0.00481
C 18.40221 10.78608 -0.00316
C 16.01457 10.735 0.00889
C 14.96329 12.84225 -0.00619
C 13.46637 9.33517 0.00374
C 12.25364 8.62198 0.00052
C 12.31105 7.18778 -0.03682
C 13.46097 6.44824 0.01965
C 13.42603 5.01828 0.02058
C 12.18271 4.35065 -0.01957
C 12.25036 2.81744 -0.0108
C 13.52779 2.05357 -0.00368
C 13.51341 0.66635 -0.02696
C 12.22624 34.07321 -0.00114
C 14.74129 32.69971 0.00228
C 15.90643 31.89713 0.00798
C 15.99957 30.40201 0.00422
C 14.5549 29.759 0.0351
C 15.50246 15.70662 -0.03113
C 16.74242 14.97503 0.02098
C 16.14565 13.63135 0.01848
C 14.74561 11.46879 -0.02162
C 13.4043 10.73975 -0.02813
C 18.35137 9.35509 0.02188
C 17.11566 7.2048 0.02691
C 19.55326 4.27483 -0.00865
C 19.63357 2.8649 0.00675
C 20.80939 2.13406 -0.00311
C 20.86216 0.70276 0.00742
C 19.64413 34.04864 -0.01594
C 22.10957 32.69215 0.0106
C 23.27746 32.00344 -0.01154
C 23.31687 30.55324 -0.01721
C 22.06325 29.87272 -0.02422
C 22.06091 28.565 0.01277
C 23.08355 27.58873 0.00096
C 23.27468 26.25221 -0.01527
C 22.83544 16.88276 0.01087
C 22.24559 15.7357 0.00199
C 23.45631 14.85131 0.01511
C 23.41801 13.52574 -0.00478
C 22.14051 12.79657 -0.01662
C 20.78807 4.98229 0.0058
C 17.19111 8.57573 -0.01979
C 20.86853 6.41771 -0.00652
C 19.58256 8.62004 -0.00703
C 18.33364 6.46931 -0.01581
C 18.37241 4.96021 0.01452
C 17.13548 4.2787 0.04892
C 17.18807 2.88059 -0.00111
C 18.41807 2.11014 -0.03557
C 18.37913 0.67096 0.03754
C 17.09708 34.01245 0.01739
C 19.68458 32.70722 0.00755
C 20.92946 31.90383 -0.0054
C 20.93944 30.55034 0.00667
C 19.75973 29.86879 0.00143
C 21.02438 15.18299 -0.017
C 20.98537 13.63684 0.00364
C 19.79533 12.88427 -0.00831
C 19.70728 11.42008 -0.02957
C 20.83239 10.66109 -0.04422
C 20.81463 9.26122 0.00654
C 19.67382 7.167 -0.04076
C 22.09569 11.30289 -0.01185
C 12.33666 28.41131 -0.01952
C 13.43098 30.65536 -0.01717
C 6.19038 31.97041 -0.01004
C 6.04377 30.50574 -0.02896
C 4.79105 29.81635 -0.00131
C 4.83685 28.36505 -0.01118
C 6.13536 27.79115 -0.014
C 6.08648 26.34106 0.02147
C 4.90965 25.43613 0.00373
C 4.83261 23.92548 -0.00191
C 6.1112 23.39753 0.00438
C 6.24156 21.95467 0.01291
C 4.80649 8.59344 0.00093
C 4.87341 7.13478 0.00057
C 6.10834 6.43834 -0.01634
C 6.21669 4.95388 -0.00334
C 4.93397 4.30011 0.02339
C 4.926 2.95528 0.01641
C 6.18223 2.16784 -0.00719
C 4.88773 32.64236 0.00488
C 6.10882 0.76661 0.01364
C 2.3787 0.07932 0.01745
C 3.6976 2.1313 -0.01384
C 3.59953 30.59838 -0.01142
C 2.3909 29.84931 -0.00562
C 2.35964 28.38677 -0.00494
C 3.61993 27.66599 0.00054
C 3.66873 26.14062 0.03007
C 2.42926 25.44651 -0.00095
C 2.47789 24.07454 0.01572
C 3.66086 23.11812 -0.04848
C 3.45581 21.74848 -0.00892
C 2.2331 21.09934 -0.01362
C 3.78794 9.16873 -0.0008
C 2.38634 8.58206 0.0288
C 2.42077 7.10119 0.00393
C 3.63146 6.42481 0.00895
C 3.80264 5.05428 0.00685
C 2.49453 4.32035 0.02888
C 2.46602 2.93208 -0.00482
C 3.6743 0.69562 0.03693
C 12.21709 29.81311 0.05265
C 4.91312 0.01012 -0.01062
C 8.58995 31.98346 0.03589
C 9.78381 28.4019 -0.01789
C 11.1578 27.6846 0.00444
C 10.93111 26.23626 -0.00925
C 9.81848 25.33775 0.01877
C 9.55144 24.00613 0.01363
C 11.00642 9.24671 -0.02162
C 9.88548 8.59005 0.00415
C 9.76988 7.19345 -0.0014
C 11.00557 6.47411 0.02162
C 10.92555 5.01034 0.0076
C 9.76884 4.29409 0.01241
C 9.83046 2.88628 -0.01454
C 11.02268 2.13377 0.01945
C 11.03348 0.76205 0.01416
C 9.80425 0.12261 0.03542
C 12.26256 32.72916 0.02299
C 13.46606 32.04869 0.00244
C 9.75909 29.80488 0.02894
C 7.30701 32.73052 -0.00033
C 10.93819 30.5448 -0.02971
C 9.82142 32.69867 0.02819
C 8.57779 30.57166 -0.02759
C 7.30563 29.82309 0.0402
C 7.41468 28.37925 0.00572
C 8.62629 27.65446 0.03592
C 8.59814 26.25683 0.00406
C 7.36067 25.59121 0.00943
C 7.2714 24.1688 0.02841
C 8.50595 23.17792 -0.01111
C 8.06347 21.86611 -0.01275
C 7.34028 7.15576 0.00985
C 8.58454 6.50526 -0.02245
C 8.55219 5.02152 -0.00428
C 7.38371 4.22905 0.03101
C 7.33143 2.74395 -0.01536
C 8.60071 2.12651 -0.02689
C 8.58724 0.7715 -0.01046
C 7.3222 0.04873 -0.00891
C 10.97199 31.99029 0.00165
C 3.61624 31.99522 0.01849
C 23.30778 10.59697 0.01126
C 22.07829 8.48461 -0.00381
C 33.19398 32.02498 0.0544
C 33.17701 30.60709 0.00026
C 31.94128 29.8617 0.00682
C 31.95458 28.37852 -0.01779
C 33.15152 27.64982 0.03794
C 33.2152 26.24666 0.01927
C 31.99508 25.50384 0.01574
C 32.01773 24.15519 -0.02383
C 33.18771 23.45194 -0.01429
C 33.25989 22.06079 -0.0136
C 31.99993 21.30354 0.00594
C 31.96668 19.90999 -0.02474
C 33.22716 19.23159 0.00369
C 33.17861 17.81801 0.00455
C 31.92191 17.12546 -0.00644
C 31.9306 15.64845 -0.01839
C 33.24006 14.99877 0.00137
C 31.91684 32.717 -0.02142
C 33.21662 13.5671 0.00199
C 29.38199 34.00599 0.01428
C 30.67593 2.09625 0.01713
C 29.50886 19.81322 0.0101
C 30.76251 19.18521 0.01705
C 30.65087 17.86582 -0.0405
C 29.4646 17.06221 -0.01303
C 29.50933 15.64679 -0.01461
C 30.72959 14.92003 -0.02155
C 30.77269 13.47502 -0.00944
C 29.54241 12.7791 -0.03735
C 29.52122 11.37401 -0.00971
C 30.75468 10.73739 0.01518
C 30.70364 9.30994 0.01908
C 29.52778 8.50653 0.07705
C 29.43064 7.05931 0.0103
C 30.73312 6.44189 0.02108
C 30.75041 4.98388 0.00716
C 29.42223 4.31431 0.00307
C 29.44577 2.89878 0.00346
C 30.59026 0.68233 -0.01694
C 29.52361 21.23787 -0.00669
C 32.03772 12.7595 0.04381
C 33.2842 10.75266 0.01504
C 34.40696 21.30137 0.01223
C 0.09366 19.88814 0.00648
C 1.50463 19.5453 0.02114
C 34.30807 17.15169 -0.02957
C 34.35145 15.79986 0.00343
C 0.01645 12.88283 -0.02656
C 0.09162 11.48978 -0.02442
C 1.25131 10.71254 -0.00027
C 1.17211 9.26465 -0.00583
C 34.34422 8.56238 -0.02302
C 34.38725 7.12586 -0.02849
C 1.23697 6.40906 0.02931
C 1.2354 5.02017 0.00628
C 34.42853 4.35274 -0.0345
C 34.41923 2.92435 -0.00931
C 1.17795 2.22917 -0.00939
C 1.1335 0.79364 -0.00468
C 1.09474 22.02483 -0.01678
C 32.02989 11.3753 0.02806
C 1.15289 23.40991 0.01951
C 34.3798 25.61689 0.02712
C 33.16466 9.32864 -0.00069
C 31.91906 8.6062 0.04926
C 31.94564 7.14265 -0.03838
C 33.14614 6.42526 0.00349
C 33.1748 4.99203 -0.00323
C 31.95915 4.27782 -0.00841
C 31.96782 2.82353 0.0001
C 33.17721 2.13314 -0.02927
C 33.10416 0.66903 -0.01404
C 31.87999 0.04114 0.01027
C 34.40324 32.71915 0.01831
C 1.22203 32.0823 -0.01037
C 1.2288 30.58761 -0.00439
C 0.02115 29.87667 -0.00598
C 0.00131 28.42312 -0.05239
C 1.17168 27.63766 0.03076
C 1.15998 26.2399 0.00723
C 34.37981 24.16009 -0.02213
C 23.30111 9.25671 0.01852
C 30.75056 21.99816 0.03531
C 29.48694 24.13952 -0.03039
C 25.67748 19.1385 -0.04078
C 25.63522 17.7831 0.02117
C 24.24104 16.96762 0.02737
C 24.6422 15.56556 -0.00498
C 25.81388 14.89042 0.00135
C 25.82948 13.50987 0.03102
C 24.5436 12.73172 0.02555
C 24.52898 11.35339 0.01423
C 25.77609 10.64442 -0.00285
C 25.75666 9.28471 -0.009
C 24.62439 8.53502 -0.01199
C 24.5758 7.09038 -0.00229
C 25.81364 6.40164 -0.00938
C 25.65449 5.01732 -0.0264
C 24.55823 4.23506 -0.01154
C 24.57066 2.72561 0.00684
C 25.77877 2.07027 -0.01052
C 24.50968 20.04394 0.03005
C 25.84121 0.62763 -0.01679
C 24.61472 21.18426 -0.0276
C 25.79254 23.44462 -0.00178
C 22.10707 7.07432 0.03046
C 23.3814 6.37917 0.0296
C 23.27584 4.93729 0.03374
C 22.01496 4.30449 -0.02845
C 22.0828 2.82608 -0.03213
C 23.33732 2.10922 0.02239
C 23.37193 0.75965 0.01153
C 22.05294 0.05722 0.02734
C 24.58676 32.62307 -0.0055
C 25.77755 31.86055 0.01515
C 25.80103 30.43635 -0.00225
C 24.56545 29.81149 0.00071
C 24.40746 28.27941 -0.01107
C 25.65912 27.60727 -0.01586
C 25.73463 26.23957 -0.01971
C 24.43041 25.43564 -0.02118
C 24.43951 24.07646 0.00733
C 25.83347 22.02555 0.00768
C 30.71772 23.432 0.01836
C 24.59557 0.00983 0.00367
C 28.23664 31.88465 0.00996
C 27.03833 8.54644 0.00235
C 26.99742 7.09326 0.01495
C 28.18585 6.41201 0.01259
C 28.16245 4.99007 0.01799
C 26.96931 4.26081 0.01699
C 27.02314 2.85149 -0.00416
C 28.20461 2.17598 0.01177
C 28.23829 0.69275 0.04266
C 27.04292 34.04073 0.01324
C 29.43915 32.58091 0.0014
C 30.64582 31.9669 0.00924
C 30.73289 30.5606 0.02326
C 29.49795 29.80478 0.00261
C 29.49344 28.41842 0.03265
C 30.69631 27.65796 -0.02049
C 30.71692 26.29753 -0.01854
C 29.43223 25.58699 -0.01415
C 28.27702 9.26165 0.01094
C 27.06955 32.61008 0.04306
C 28.23557 10.67058 0.02198
C 27.03327 12.83928 -0.00621
C 28.30842 30.44887 0.00195
C 27.03084 29.73269 -0.00802
C 26.88024 28.36217 -0.00218
C 28.24417 27.74898 -0.01654
C 28.22982 26.28301 -0.00037
C 27.00764 25.54622 -0.0032
C 27.06256 24.08569 0.00622
C 28.31821 23.39393 -0.02815
C 28.29328 22.00532 -0.00942
C 27.11286 21.22007 0.00487
C 26.95619 19.85705 0.00826
C 28.21293 19.18745 -0.00294
C 28.2358 17.71361 0.00152
C 26.97101 17.03643 0.01257
C 26.98654 15.58933 0.02316
C 28.30144 14.92079 0.04185
C 28.27258 13.45188 0.00194
C 27.08185 11.38674 0.02611
C 2.42272 32.74737 0.01396
