308
Graphene
C 34.40732 0.03456 0.01295
C 18.34499 27.69072 0.02188
C 18.13453 26.27917 -0.01979
C 19.20841 10.70814 0.02691
C 18.35506 9.64449 -0.01581
C 17.12904 8.67422 0.01452
C 17.04957 7.13605 0.04892
C 18.37342 6.59514 -0.00111
C 18.46505 5.16342 -0.03557
C 17.16974 4.32126 0.03754
C 17.19967 2.93844 0.01739
C 18.36101 2.22863 0.00755
C 18.4289 0.76494 -0.0054
C 17.21574 34.06981 0.00667
C 19.66784 32.75375 0.00143
C 20.90907 31.95559 -0.017
C 17.19859 28.44367 -0.00316
C 20.93392 30.46862 0.00364
C 17.27855 29.90965 -0.0331
C 18.53358 31.97521 0.03338
C 14.83943 29.8496 -0.00481
C 14.85285 28.39682 0.00979
C 16.06467 27.52846 0.01443
C 16.44167 26.2093 0.03505
C 15.79563 9.32623 -0.02815
C 14.8288 8.34854 -0.04147
C 14.71249 7.10027 -0.05302
C 15.89618 6.38479 0.00213
C 15.98724 4.98928 -0.00066
C 14.79644 4.2627 -0.00289
C 14.81306 2.85467 0.00028
C 16.03374 2.12532 -0.02213
C 16.01934 0.68608 0.03698
C 14.81996 34.0577 -0.00109
C 17.1738 32.6682 -0.00491
C 18.53457 30.59113 -0.0258
C 19.68475 29.78422 -0.00831
C 19.57181 28.35771 -0.02957
C 20.82165 27.68131 -0.04422
C 23.31382 26.2031 -0.00478
C 22.04739 25.46867 -0.01662
C 22.02068 24.0654 -0.01185
C 23.1929 23.3637 0.01126
C 23.35246 21.98185 0.01852
C 22.08472 21.21877 -0.00381
C 22.17395 19.73297 0.03046
C 23.37758 19.11564 0.0296
C 23.24004 17.71006 0.03374
C 22.0315 16.96363 -0.02845
C 22.03028 15.41622 -0.03213
C 23.35108 14.92553 0.02239
C 23.38906 13.41209 0.01153
C 22.11624 12.67778 0.02734
C 22.01986 4.29303 -0.0055
C 23.41286 27.63681 0.01511
C 22.17285 28.34121 0.00199
C 22.13896 29.77815 0.01087
C 23.35852 30.56716 -0.01527
C 20.80384 26.22439 0.00654
C 19.48341 25.52563 -0.00703
C 19.55939 24.23353 -0.04076
C 20.6967 23.38155 -0.00652
C 20.84999 21.93724 0.0058
C 20.96113 14.35743 -0.00865
C 20.65082 13.0042 0.00675
C 16.04175 30.56624 0.00889
C 19.4841 12.1254 -0.00311
C 19.60578 4.32184 -0.01594
C 19.59775 2.8852 0.0106
C 20.87964 2.1612 -0.01154
C 20.8928 0.73407 -0.01721
C 19.67317 0.04385 -0.02422
C 22.12914 32.68216 0.01277
C 23.38459 31.97176 0.00096
C 20.87937 4.99478 0.00742
C 22.11013 2.9248 0.01515
C 15.97509 31.91698 -0.02162
C 12.28837 0.0021 0.01848
C 2.38319 2.90868 0.00406
C 3.61699 2.18477 0.00943
C 3.59912 0.64745 0.02841
C 2.33208 34.06335 -0.01111
C 4.94154 32.55819 -0.01275
C 6.2216 31.94875 0.00985
C 6.13626 30.46362 -0.02245
C 4.88575 29.7456 -0.00428
C 4.80911 28.35179 0.03101
C 6.06208 27.67644 -0.01536
C 6.07197 26.25214 -0.02689
C 4.78183 25.53243 -0.01046
C 4.84952 24.20505 -0.00891
C 4.72149 2.91923 0.02819
C 6.08117 2.22962 0.00165
C 2.38763 4.25344 0.03592
C 6.13719 0.69608 -0.02971
C 2.36787 11.46706 0.00572
C 3.74829 13.62822 -0.02759
C 3.67975 30.47046 0.00373
C 2.44421 29.77376 -0.00191
C 2.3179 28.37824 0.00438
C 3.61149 27.69228 0.01291
C 3.56631 26.28127 0.00093
C 2.44063 25.55111 0.00057
C 2.43144 24.12119 -0.01634
C 3.73355 23.34148 -0.00334
C 3.45271 21.97696 0.02339
C 2.41623 21.18929 0.01641
C 2.4468 19.72393 -0.00719
C 3.38798 18.60214 0.01364
C 2.62222 17.5149 -0.01062
C 2.58687 16.05713 -0.00033
C 3.5478 15.09554 0.03589
C 2.46668 12.8867 0.0402
C 4.93616 34.0485 0.02894
C 7.3503 32.72265 -0.01789
C 8.49831 31.92751 0.00444
C 9.83831 34.06619 0.00052
C 12.23072 32.638 -0.03682
C 13.48776 31.96809 0.01965
C 13.5489 30.54104 0.02058
C 12.289 29.67927 -0.01957
C 12.22616 28.23429 -0.0108
C 13.57848 27.83825 -0.00368
C 12.34377 8.30355 -0.02696
C 12.21181 6.95873 -0.00114
C 13.5409 6.37942 0.00228
C 13.57853 4.98215 0.00798
C 12.24828 4.35627 0.00422
C 12.31208 2.90688 0.0351
C 13.56302 2.16178 -0.03113
C 13.61191 0.66893 0.02098
C 11.10425 0.74069 0.00374
C 11.02975 2.19637 -0.02813
C 9.9556 2.96105 -0.01952
C 11.10402 5.179 0.05265
C 8.48123 30.45414 -0.00925
C 7.28654 29.75024 0.01877
C 7.30886 28.28946 0.01363
C 8.58213 27.66561 -0.02162
C 8.43014 26.28834 0.00415
C 7.24036 25.61744 -0.0014
C 7.35048 2.76443 0.02162
C 14.77204 32.55933 -0.00619
C 8.6571 2.22067 0.0076
C 7.38373 0.11329 -0.01454
C 9.73706 32.55969 0.01945
C 11.00677 31.94647 0.01416
C 11.10366 30.52213 0.03542
C 9.7223 29.90792 0.02299
C 9.76035 28.43144 0.00244
C 10.95289 27.61395 -0.01717
C 8.62196 0.69316 0.01241
C 23.30219 2.16797 -0.00225
C 23.33294 0.69495 0.00071
C 22.12235 0.01513 -0.01107
C 33.15276 23.47906 0.01927
C 33.1078 22.07001 0.01574
C 31.93347 21.33341 -0.02383
C 31.936 19.88364 -0.01429
C 33.1629 19.19379 -0.0136
C 33.19933 17.77712 0.00594
C 31.96603 17.07742 -0.02474
C 32.01793 15.68636 0.00369
C 33.31396 14.9511 0.00455
C 33.20524 13.52324 -0.00644
C 31.95277 12.79208 -0.01839
C 31.97836 11.40622 0.00137
C 33.24734 10.68438 0.00199
C 33.08129 9.25826 0.04381
C 31.8295 8.54967 0.02806
C 31.92204 24.14583 0.03794
C 31.78919 7.11367 0.01504
C 31.91052 25.60369 -0.01779
C 33.08954 27.62682 0.00026
C 30.66781 9.21788 -0.03735
C 29.40781 8.5769 -0.00971
C 29.34803 7.10516 0.01518
C 30.60814 6.39171 0.01908
C 30.66266 5.01887 0.07705
C 29.42633 4.34046 0.0103
C 29.41569 2.8101 0.02108
C 30.67685 2.21121 0.00716
C 30.711 0.78718 0.00307
C 29.48299 0.0779 0.00346
C 31.93539 32.67494 0.01713
C 33.12625 31.99188 -0.01694
C 33.14664 30.59268 0.01428
C 31.98714 29.86427 -0.02142
C 31.9135 28.45154 0.0544
C 33.17801 26.26017 0.00682
C 32.95233 6.40672 -0.00069
C 33.19598 5.04224 0.04926
C 31.94493 4.3505 -0.03838
C 0.06169 15.67127 0.02114
C 1.34304 15.19626 -0.02957
C 1.29962 13.7272 0.00343
C 0.09155 12.94232 -0.02656
C 0.04554 11.41327 -0.02442
C 1.30307 10.55811 -0.00027
C 1.15714 9.07309 -0.00583
C 34.2776 8.48885 -0.02302
C 34.21222 7.05744 -0.02849
C 1.01687 6.47779 0.02931
C 1.22441 5.11386 0.00628
C 34.41993 4.38232 -0.0345
C 34.33727 2.90163 -0.00931
C 1.12095 2.17822 -0.00939
C 1.10975 0.80504 -0.00468
C 34.40043 17.08699 0.00648
C 1.16952 17.85169 0.01223
C 1.09389 19.2231 -0.01678
C 34.34796 19.91913 0.01951
C 31.85892 2.92352 0.00349
C 33.08338 2.22169 -0.00323
C 33.1529 0.76877 -0.00841
C 31.95067 0.00928 0.0001
C 34.37263 32.64703 -0.02927
C 1.20227 31.90315 -0.01404
C 1.24233 30.55204 0.01027
C 30.63747 10.69178 -0.00944
C 0.01043 29.89519 0.01831
C 1.12843 27.72349 -0.00439
C 1.23925 26.25281 -0.00598
C 34.42112 25.54497 -0.05239
C 34.42423 24.14491 0.03076
C 1.18194 23.39186 0.00723
C 1.12749 21.96313 0.02712
C 34.2982 21.37665 -0.02213
C 34.29835 28.34203 -0.01037
C 29.36081 11.42755 -0.02155
C 29.47222 12.81107 -0.01461
C 30.66603 13.47553 -0.01303
C 25.75295 4.8669 -0.00938
C 24.51226 4.2285 -0.0264
C 24.51975 2.83816 -0.01154
C 25.8074 2.13575 0.00684
C 25.87985 0.7212 -0.01052
C 24.55045 0.09047 -0.01679
C 27.04006 32.65922 0.00367
C 28.23104 31.95259 0.04306
C 28.26011 30.56783 0.00996
C 27.04697 29.85342 0.00195
C 27.04828 28.39905 -0.00802
C 28.28916 27.7221 -0.00218
C 28.22328 26.33657 -0.01654
C 26.99918 25.58809 -0.00037
C 27.05574 24.14797 -0.0032
C 24.82138 12.66276 -0.00229
C 25.85936 13.59665 -0.01199
C 25.71453 14.96902 -0.009
C 24.54011 15.67979 -0.00285
C 24.56635 32.72245 -0.01586
C 25.84362 31.97664 -0.01971
C 25.77946 30.58383 -0.02118
C 24.55233 29.84019 0.00733
C 24.61719 28.48653 -0.00178
C 25.88545 27.7119 0.00768
C 25.7898 26.27245 -0.0276
C 28.27815 23.46044 0.00622
C 24.55646 25.51423 0.03005
C 25.84381 23.4148 0.02117
C 25.82827 21.98638 0.02737
C 24.55236 21.27537 -0.00498
C 24.60295 19.81457 0.00135
C 25.81875 19.15808 0.03102
C 25.85975 17.73016 0.02555
C 24.55711 16.98901 0.01423
C 24.59807 24.16281 -0.04078
C 3.70875 31.88763 0.02147
C 28.28201 22.10301 -0.02815
C 27.06399 19.86349 0.00487
C 29.50126 29.84945 0.0014
C 29.49757 28.42994 0.00924
C 30.70064 27.77101 0.02326
C 30.69093 26.33545 0.00261
C 29.45377 25.63147 0.03265
C 29.47301 24.20632 -0.02049
C 30.72796 23.42344 -0.01854
C 30.75164 22.0052 -0.01415
C 29.45118 21.36814 -0.03039
C 29.47797 19.89162 0.01836
C 30.70815 19.12424 0.03531
C 30.67029 17.73986 -0.00669
C 29.45663 17.082 0.0101
C 29.50987 15.68504 0.01705
C 30.69388 14.8822 -0.0405
C 30.7434 30.5622 0.01324
C 30.64603 32.03521 0.04266
C 29.47673 32.68148 0.01177
C 27.04996 34.06458 -0.00416
C 28.28039 19.12301 0.00826
C 28.25783 17.72325 -0.00294
C 27.05162 17.06496 0.00152
C 26.98017 15.65635 0.01257
C 28.2704 14.97761 0.02316
C 28.28948 13.53777 0.04185
C 27.05207 12.79912 0.00194
C 27.06413 21.30728 -0.00942
C 26.87258 11.47658 -0.00621
C 28.18502 9.19292 0.02198
C 28.06194 6.48062 0.01094
C 28.18547 5.08098 0.00235
C 26.99156 4.34072 0.01495
C 26.96342 2.93117 0.01259
C 28.15965 2.13341 0.01799
C 28.23044 0.71484 0.01699
C 27.95364 10.59965 0.02611
C 2.44434 32.65561 -0.014
