388
Graphene
C 34.28955 34.04935 0.01295
C 9.69662 4.38078 -0.02162
C 9.65477 2.96715 0.00415
C 10.98044 2.21959 -0.0014
C 11.02698 0.81486 0.02162
C 9.81827 0.08132 0.0076
C 12.20916 32.70455 0.01241
C 13.49432 31.94643 -0.01454
C 13.5182 30.57543 0.01945
C 12.26837 29.83453 0.01416
C 10.97741 5.07674 0.01363
C 12.27047 28.41796 0.03542
C 13.49286 26.2292 0.00244
C 12.31814 25.53933 -0.01717
C 12.30134 24.08054 0.05265
C 13.48504 23.28557 -0.01952
C 13.45096 21.95424 -0.02813
C 12.23515 21.33082 0.00374
C 12.34886 19.80223 0.00052
C 13.65958 19.12868 -0.03682
C 13.60357 17.7318 0.01965
C 13.49456 27.62263 0.02299
C 12.41669 17.0398 0.02058
C 10.99367 6.44427 0.01877
C 9.78896 8.56056 0.00444
C 9.8224 29.84215 0.00572
C 9.78786 28.4588 0.03592
C 11.08182 27.7072 0.00406
C 11.16111 26.21098 0.00943
C 9.90789 25.54427 0.02841
C 9.8005 24.03848 -0.01111
C 11.02384 23.43451 -0.01275
C 11.06178 21.96786 0.00985
C 9.8605 21.28567 -0.02245
C 9.77937 7.13221 -0.00925
C 9.84948 19.93385 -0.00428
C 11.1516 17.73688 -0.01536
C 9.82297 17.03366 -0.02689
C 9.83868 15.65012 -0.01046
C 11.16441 14.92281 -0.00891
C 11.12654 13.51169 0.02819
C 9.82396 12.82098 0.00165
C 9.84396 11.45335 -0.02971
C 11.01265 10.67925 0.02894
C 10.98405 9.29075 -0.01789
C 11.106 19.12233 0.03101
C 12.34547 15.64719 -0.01957
C 13.62059 14.87374 -0.0108
C 13.59178 13.46171 -0.00368
C 14.83926 19.8756 -0.00109
C 16.10966 19.09254 -0.00491
C 16.05833 17.65576 0.03338
C 14.81046 17.0314 -0.0258
C 14.82012 15.58635 -0.0331
C 16.06053 14.8971 -0.00316
C 16.08507 13.46088 0.02188
C 14.79527 12.72158 -0.01979
C 14.78927 11.38081 0.02691
C 14.80107 21.29798 0.03698
C 16.10774 10.56028 -0.01581
C 14.78323 8.59556 0.04892
C 14.73463 7.20633 -0.00111
C 15.94369 6.42285 -0.03557
C 15.87407 4.99582 0.03754
C 14.61158 4.29633 0.01739
C 14.73263 2.85029 0.00755
C 15.93555 2.09841 -0.0054
C 15.9107 0.69837 0.00667
C 14.7025 34.04603 0.00143
C 16.02315 9.20701 0.01452
C 16.03662 21.92303 -0.02213
C 16.05273 23.3754 0.00028
C 14.70662 24.04402 -0.00289
C 12.33604 12.78528 -0.02696
C 12.30168 11.40469 -0.00114
C 13.51762 10.71495 0.00228
C 13.52602 9.31509 0.00798
C 12.26063 8.67928 0.00422
C 12.23696 7.23312 0.0351
C 13.41974 6.4947 -0.03113
C 13.40598 5.08009 0.02098
C 12.23891 4.28245 0.01848
C 12.25891 2.89749 -0.00619
C 13.47924 2.18361 -0.02162
C 13.5109 0.74245 0.00889
C 12.21989 0.0891 -0.00481
C 14.73825 32.62609 0.00979
C 15.95706 31.89103 0.01443
C 15.92248 30.50209 0.03505
C 14.6876 29.74101 -0.02815
C 14.7194 28.32923 -0.04147
C 15.99138 27.62459 -0.05302
C 15.91436 26.12938 0.00213
C 14.65944 25.48163 -0.00066
C 11.08454 30.61246 0.0402
C 17.17066 32.58353 -0.017
C 10.94979 31.98446 -0.02759
C 7.29775 0.09691 -0.00033
C 3.54704 5.01585 0.0086
C 2.28891 4.37732 -0.00643
C 2.30806 2.96046 0.017
C 3.61758 2.27303 -0.03113
C 3.61239 0.88754 -0.02566
C 2.41932 0.1342 -0.00094
C 4.83678 32.81342 0.02322
C 6.14662 31.98961 -0.00725
C 6.11218 30.61318 -0.05697
C 3.55636 6.50876 -0.00518
C 4.85791 29.90718 0.01087
C 6.14022 27.784 0.00988
C 6.17005 26.36166 0.0276
C 5.01983 25.62799 0.01305
C 4.97965 24.23011 -0.00077
C 6.28411 23.53024 0.03368
C 6.18027 22.02192 -0.02929
C 4.94626 21.27198 -0.00966
C 4.92367 19.84404 -0.03337
C 6.20535 19.16448 0.01227
C 4.96191 28.4749 -0.01343
C 6.15083 17.8356 0.00873
C 2.27884 7.16438 -0.00074
C 3.52722 9.32308 -0.03996
C 3.63374 30.62244 0.04505
C 2.40593 29.90381 0.03284
C 2.41043 28.46236 -0.04307
C 3.70431 27.8207 0.03189
C 3.77486 26.36115 0.00031
C 2.49913 25.61125 -0.003
C 2.49937 24.13337 0.01402
C 3.81765 23.50374 0.02379
C 3.79863 22.07312 0.00907
C 2.27162 8.5954 0.01465
C 2.51703 21.3026 0.00643
C 3.71571 19.14657 0.03267
C 3.68508 17.76826 0.02374
C 2.43018 17.13399 0.00402
C 2.4386 15.69464 0.0073
C 3.60911 15.02898 0.0174
C 3.59426 13.5392 0.03828
C 2.33849 12.83547 0.01226
C 2.23845 11.4869 -0.00279
C 3.5291 10.75164 0.01996
C 2.38886 19.92464 -0.01509
C 4.91712 17.05366 -0.00049
C 4.83449 15.61816 0.00848
C 6.03904 14.94151 -0.01303
C 7.33248 21.32692 0.00488
C 7.34096 19.93364 -0.01004
C 8.57749 19.28615 -0.02896
C 8.63223 17.79808 -0.00131
C 7.34821 17.1102 -0.01118
C 7.32367 15.67542 -0.014
C 8.57092 14.91172 0.02147
C 8.56401 13.43759 0.00373
C 7.36886 12.68127 -0.00191
C 8.60487 21.98325 0.01745
C 7.31871 11.26102 0.00438
C 8.56353 9.30113 0.00093
C 7.28966 8.63195 0.00057
C 7.30707 7.28237 -0.01634
C 8.54861 6.55419 -0.00334
C 8.42483 5.14959 0.02339
C 7.29125 4.39524 0.01641
C 7.30542 2.96566 -0.00719
C 8.49867 2.23789 0.01364
C 8.51609 0.85055 -0.01062
C 8.55534 10.70543 0.01291
C 8.61203 23.35654 0.03693
C 7.4365 24.13211 -0.01384
C 7.37089 25.60713 -0.00482
C 6.05614 13.45312 -0.01378
C 4.86064 12.77035 0.02635
C 4.75947 11.43349 0.0127
C 5.95343 10.6374 0.01396
C 6.01736 9.33245 0.01849
C 4.83863 8.57085 -0.01142
C 4.79268 7.15047 -0.00562
C 6.08133 6.50755 -0.00494
C 6.04724 5.08104 0.00054
C 4.77109 4.33754 0.03007
C 4.83641 2.91354 -0.00095
C 6.04355 2.23801 0.01572
C 6.04544 0.81228 -0.04848
C 4.85408 0.11573 -0.00892
C 7.31359 32.78041 -0.01362
C 8.4958 32.05598 -0.0008
C 8.55644 30.5672 0.0288
C 7.31513 29.87452 0.00393
C 7.35163 28.45777 0.00895
C 8.57374 27.73 0.00685
C 8.60297 26.25676 0.02888
C 9.75176 32.75579 0.03589
C 18.37497 31.9258 0.00364
C 18.42162 30.49119 -0.00831
C 17.23391 29.74615 -0.02957
C 30.72282 4.95798 0.07705
C 29.43291 4.25449 0.0103
C 29.3992 2.7761 0.02108
C 30.62188 2.05452 0.00716
C 30.66001 0.63479 0.00307
C 29.45986 34.03176 0.00346
C 31.85409 32.61583 0.01713
C 33.15997 31.95136 -0.01694
C 33.14108 30.5579 0.01428
C 30.63619 6.39985 0.01908
C 31.92922 29.82457 -0.02142
C 33.11567 27.69565 0.00026
C 33.13673 26.27437 0.00682
C 31.96885 25.50271 -0.01779
C 31.99997 24.15479 0.03794
C 33.26262 23.46056 0.01927
C 33.21475 22.05772 0.01574
C 32.02275 21.3075 -0.02383
C 32.02172 19.93037 -0.01429
C 33.21509 19.23956 -0.0136
C 31.96876 28.4514 0.0544
C 33.11929 17.88163 0.00594
C 29.25607 6.95413 0.01518
C 30.7578 19.23644 -0.03735
C 28.20637 6.47085 0.01324
C 28.20216 4.93118 0.0014
C 27.04725 4.32855 0.00924
C 27.05141 2.8625 0.02326
C 28.20311 2.06306 0.00261
C 28.23299 0.63288 0.03265
C 26.96047 34.04557 -0.02049
C 29.48278 32.64502 -0.01854
C 30.66768 31.94959 -0.01415
C 30.71007 17.81217 -0.00971
C 30.71363 30.50837 -0.03039
C 29.4634 28.3804 0.03531
C 30.74 27.70835 -0.00669
C 30.68077 26.2886 0.0101
C 29.35553 25.49585 0.01705
C 29.51561 24.05655 -0.0405
C 30.74527 23.41737 -0.01303
C 30.66462 21.99231 -0.01461
C 29.45936 21.29678 -0.02155
C 29.52899 19.82333 -0.00944
C 29.48095 29.7524 0.01836
C 31.82441 17.07905 -0.02474
C 32.05013 15.74512 0.00369
C 33.1628 15.04173 0.00455
C 0.03363 21.29826 -0.02213
C 0.01002 19.87491 0.01951
C 1.21474 19.17509 -0.01678
C 1.164 17.78722 0.01223
C 34.39567 17.15492 0.00648
C 34.41036 15.70947 0.02114
C 1.24241 15.01423 -0.02957
C 1.17256 13.64572 0.00343
C 34.30266 12.86197 -0.02656
C 1.28403 22.0765 0.02712
C 34.2272 11.46416 -0.02442
C 1.11223 9.40292 -0.00583
C 34.30352 8.6957 -0.02302
C 34.30413 7.22981 -0.02849
C 1.07326 6.47103 0.02931
C 1.05929 5.02379 0.00628
C 34.27981 4.35205 -0.0345
C 34.29042 2.91766 -0.00931
C 1.09067 2.21018 -0.00939
C 1.18852 0.75235 -0.00468
C 1.07869 10.80645 -0.00027
C 1.2886 23.50731 0.00723
C 0.03253 24.19162 0.03076
C 34.39492 25.62371 -0.05239
C 33.11581 13.67098 -0.00644
C 31.98285 12.82444 -0.01839
C 31.91432 11.68574 0.00137
C 32.99636 10.68966 0.00199
C 32.97909 9.32451 0.04381
C 31.80102 8.5847 0.02806
C 31.83313 7.16605 0.01504
C 33.05963 6.54834 -0.00069
C 33.07415 5.07719 0.04926
C 31.92032 4.25815 -0.03838
C 31.92573 2.8637 0.00349
C 33.0944 2.13059 -0.00323
C 33.07542 0.65123 -0.00841
C 31.88953 34.04484 0.0001
C 34.31699 32.71098 -0.02927
C 1.16541 32.04012 -0.01404
C 1.17825 30.58824 0.01027
C 34.34353 29.88161 0.01831
C 34.32675 28.4588 -0.01037
C 1.22027 27.68149 -0.00439
C 1.17304 26.26896 -0.00598
C 28.323 19.23278 0.04266
C 27.19084 19.83727 0.01177
C 26.9608 21.21131 -0.00416
C 28.17039 21.92654 0.01699
C 20.76703 31.91437 0.01852
C 20.84505 30.50548 -0.00381
C 19.62238 29.70043 0.03046
C 19.62969 28.32226 0.0296
C 20.81202 27.54999 0.03374
C 20.89986 26.20813 -0.02845
C 19.62429 25.45591 -0.03213
C 19.69482 24.09209 0.02239
C 20.9582 23.41103 0.01153
C 19.55881 32.62445 0.01126
C 20.90343 21.95458 0.02734
C 19.86871 19.83 0.01515
C 21.12334 19.21656 -0.00225
C 19.65508 6.88774 0.00071
C 20.73922 6.51016 -0.01107
C 20.82976 5.03096 -0.01586
C 19.51028 4.25218 -0.01971
C 19.53989 2.78599 -0.02118
C 20.79099 2.08156 0.00733
C 20.72617 0.65135 -0.00178
C 19.75494 21.29972 -0.0055
C 17.17207 34.05216 -0.01185
C 18.37212 0.72978 -0.01662
C 18.36038 2.14554 -0.00478
C 17.25593 28.33968 -0.04422
C 18.40578 27.60024 0.00654
C 18.33529 26.13804 -0.00703
C 17.22246 25.43256 -0.04076
C 17.24842 24.05241 -0.00652
C 18.4765 23.33573 0.0058
C 18.4812 21.92363 -0.00865
C 17.29354 21.23823 0.00675
C 17.32919 19.81133 -0.00311
C 18.63832 19.18897 0.00742
C 18.61711 17.73428 -0.01594
C 17.38008 16.92444 0.0106
C 17.36495 15.55289 -0.01154
C 17.26834 12.69438 -0.01721
C 17.14145 11.47134 -0.02422
C 17.24035 8.44371 0.01277
C 17.18544 7.04472 0.00096
C 18.35867 6.383 -0.01527
C 18.34629 4.94353 0.01087
C 17.07712 4.26187 0.00199
C 17.10605 2.83892 0.01511
C 19.55744 34.04595 0.00768
C 3.62742 32.06085 -0.04999
C 22.00172 32.66025 -0.0276
C 23.27506 30.44809 -0.04078
C 25.86444 23.32805 -0.0032
C 25.65544 21.84376 0.00622
C 24.39989 21.10861 -0.02815
C 23.92919 19.72914 -0.00942
C 25.78974 4.98555 0.00487
C 24.60474 4.38507 0.00826
C 24.44764 2.80085 -0.00294
C 25.80495 2.09949 0.00152
C 25.77887 0.72713 0.01257
C 24.66259 24.08515 -0.00037
C 24.51285 34.0526 0.02316
C 28.29367 31.85197 0.00194
C 28.26838 30.43661 -0.00621
C 26.94379 29.77499 0.02611
C 26.98101 28.37768 0.02198
C 28.28763 27.6377 0.01094
C 28.16932 26.20979 0.00235
C 26.95975 25.39934 0.01495
C 27.04026 24.03294 0.01259
C 28.22753 23.33046 0.01799
C 27.04474 32.63663 0.04185
C 24.57608 25.51769 -0.01654
C 25.8222 26.18454 -0.00218
C 25.77343 27.60591 -0.00802
C 22.06919 29.71208 0.02117
C 22.06717 28.27482 0.02737
C 23.34383 27.61713 -0.00498
C 23.30993 26.18132 0.00135
C 22.09226 25.48072 0.03102
C 22.1201 24.11714 0.02555
C 23.36113 23.45805 0.01423
C 23.30799 21.96312 -0.00285
C 22.07047 21.21799 -0.009
C 22.53264 19.84211 -0.01199
C 23.18065 4.95541 -0.00229
C 22.01417 4.23582 -0.00938
C 22.02006 2.74876 -0.0264
C 23.34161 2.12393 -0.01154
C 23.26821 0.65402 0.00684
C 21.99788 34.05434 -0.01052
C 24.65194 32.66999 -0.01679
C 25.73455 31.88176 0.00367
C 25.75059 30.43299 0.04306
C 24.51641 29.76801 0.00996
C 24.56035 28.34902 0.00195
C 23.285 31.9651 0.03005
C 2.40534 32.74868 -0.03291
