356
Graphene
C 34.40942 0.03251 0.01295
C 14.69809 8.57961 -0.0108
C 14.72784 7.18236 -0.00368
C 15.96929 6.48317 -0.02696
C 15.91481 4.99112 -0.00114
C 14.67718 4.24725 0.00228
C 14.77282 2.901 0.00798
C 16.0484 2.19115 0.00422
C 16.01682 0.77334 0.0351
C 15.95582 9.26022 -0.01957
C 14.85256 0.00023 -0.03113
C 18.46887 31.92477 0.01848
C 18.51177 30.51467 -0.00619
C 17.31738 29.75422 -0.02162
C 17.29592 28.30725 0.00889
C 18.58701 27.62792 -0.00481
C 18.863 26.20362 0.00979
C 17.06322 15.26865 0.01443
C 18.50352 14.93226 0.03505
C 17.26048 32.62815 0.02098
C 18.43538 13.50188 -0.02815
C 15.88436 10.68554 0.02058
C 14.65207 12.66593 -0.03682
C 12.3046 7.12298 -0.02162
C 13.57266 6.40749 0.00415
C 13.44485 4.95754 -0.0014
C 12.19889 4.31262 0.02162
C 12.27832 2.90722 0.0076
C 13.59727 2.12111 0.01241
C 13.667 0.72422 -0.01454
C 12.40288 0.03478 0.01945
C 14.6105 11.30207 0.01965
C 14.77622 32.59428 0.01416
C 15.97914 30.50619 0.02299
C 14.91517 29.72509 0.00244
C 16.03758 27.5508 -0.01717
C 15.97228 26.26084 0.05265
C 14.62927 17.21628 -0.01952
C 14.99748 16.0034 -0.02813
C 15.86616 14.82229 0.00374
C 15.87573 13.33686 0.00052
C 15.99259 31.9422 0.03542
C 17.13208 12.81641 -0.04147
C 17.09037 11.4022 -0.05302
C 18.36886 10.58339 0.00213
C 20.86346 9.21881 0.00667
C 19.6475 8.52288 0.00143
C 19.60883 7.09117 -0.017
C 20.85719 6.333 0.00364
C 20.83206 4.94946 -0.00831
C 19.60646 4.23077 -0.02957
C 19.62845 2.81828 -0.04422
C 20.86923 2.13981 0.00654
C 20.77768 10.64668 -0.0054
C 20.89441 0.72303 -0.00703
C 22.18489 32.54607 -0.00652
C 23.43161 31.84948 0.0058
C 23.44127 30.45882 -0.00865
C 22.1279 29.77051 0.00675
C 22.20044 28.32618 -0.00311
C 23.39196 27.62654 0.00742
C 23.25214 26.22247 -0.01594
C 21.8333 25.68182 0.0106
C 19.67224 34.00455 -0.04076
C 19.58915 11.37294 0.00755
C 19.61247 12.76436 0.01739
C 20.82527 13.40004 0.03754
C 18.42572 9.19224 -0.00066
C 17.15242 8.56426 -0.00289
C 17.15425 7.17882 0.00028
C 18.36647 6.40462 -0.02213
C 18.38619 4.9753 0.03698
C 17.15777 4.33944 -0.00109
C 17.24066 2.90911 -0.00491
C 18.48462 2.13682 0.03338
C 18.48075 0.63933 -0.0258
C 17.25995 0.00365 -0.0331
C 19.71028 32.60298 -0.00316
C 20.92975 31.92057 0.02188
C 20.93117 30.55182 -0.01979
C 19.733 29.79237 0.02691
C 19.72398 28.46574 -0.01581
C 20.87965 27.64347 0.01452
C 20.58274 26.1563 0.04892
C 19.73736 15.65835 -0.00111
C 20.90169 14.85592 -0.03557
C 12.21079 8.51957 0.01363
C 23.71125 22.82171 -0.01154
C 13.46175 9.26529 0.01877
C 12.19237 11.4098 0.00444
C 2.42681 4.32853 -0.00562
C 2.46418 2.88628 -0.00494
C 3.6652 2.15396 0.00054
C 3.65724 0.79468 0.03007
C 2.44553 0.10807 -0.00095
C 4.90868 32.73535 0.01572
C 6.16903 31.99427 -0.04848
C 6.15021 30.57704 -0.00892
C 3.66731 5.00435 -0.01142
C 4.98423 29.86578 -0.01362
C 5.04933 12.75304 0.0288
C 4.87265 11.30703 0.00393
C 6.11955 10.6622 0.00895
C 6.08121 9.20716 0.00685
C 4.83465 8.56653 0.02888
C 4.86313 7.13789 -0.00482
C 6.12463 6.5102 -0.01384
C 6.12967 5.05555 0.03693
C 5.31845 28.52234 -0.0008
C 4.9509 4.38298 0.01745
C 3.69192 6.36794 0.01849
C 2.41868 8.48963 0.0127
C 3.7341 30.51832 -0.05697
C 2.5386 29.77701 0.01087
C 2.58878 28.38719 -0.01343
C 3.99191 27.68481 0.00988
C 3.76677 26.29802 0.0276
C 2.70136 25.41965 0.01305
C 2.41676 24.04516 -0.00077
C 2.35101 21.22754 0.03368
C 2.47497 7.08476 0.01396
C 2.38597 19.9258 -0.02929
C 2.50448 17.44468 -0.03337
C 2.55741 15.88073 0.01227
C 3.6178 14.95004 0.00873
C 3.7943 13.58603 -0.00049
C 2.49514 12.85388 0.00848
C 2.40219 11.42709 -0.01303
C 3.62634 10.67675 -0.01378
C 3.62699 9.22263 0.02635
C 3.36947 18.7208 -0.00966
C 4.8963 2.9563 0.00488
C 6.1575 2.22183 -0.01004
C 6.15696 0.72897 -0.02896
C 10.92132 10.66511 0.00406
C 10.93072 9.24451 0.00943
C 9.66383 8.67002 0.02841
C 9.73605 7.25306 -0.01111
C 11.01247 6.56177 -0.01275
C 11.00292 5.16356 0.00985
C 9.83256 4.34026 -0.02245
C 9.85687 2.90065 -0.00428
C 9.78376 11.50763 0.03592
C 11.05114 2.17556 0.03101
C 9.9111 0.02762 -0.02689
C 12.31782 32.61759 -0.01046
C 13.50967 31.85877 -0.00891
C 13.70659 30.33041 0.02819
C 12.30963 29.62567 0.00165
C 12.06159 28.33504 -0.02971
C 13.36377 13.45632 0.02894
C 12.22081 12.79272 -0.01789
C 11.11797 0.77621 -0.01536
C 9.84344 29.81262 0.00572
C 11.01727 30.48067 0.0402
C 11.09984 31.94214 -0.02759
C 4.86371 0.03886 -0.00131
C 7.40441 32.75453 -0.01118
C 8.64516 31.98682 -0.014
C 8.64304 30.4633 0.02147
C 7.32337 29.7693 0.00373
C 6.80527 28.45847 -0.00191
C 7.16588 11.50004 0.00438
C 8.50575 10.96357 0.01291
C 8.47649 9.49315 0.00093
C 7.34683 8.66782 0.00057
C 7.35957 7.17233 -0.01634
C 8.50885 6.4359 -0.00334
C 8.52217 4.99962 0.02339
C 7.30946 4.31665 0.01641
C 7.35764 2.88178 -0.00719
C 8.65274 2.16225 0.01364
C 8.68938 0.76558 -0.01062
C 7.45784 0.09236 -0.00033
C 9.86792 32.64862 0.03589
C 13.38936 10.63129 -0.00925
C 23.27178 19.29831 -0.01721
C 23.07201 17.90681 -0.02422
C 21.92957 16.92279 0.01277
C 31.97119 32.71362 0.01713
C 33.18905 32.00924 -0.01694
C 33.22411 30.56286 0.01428
C 31.97727 29.9115 -0.02142
C 32.01649 28.47895 0.0544
C 33.28683 27.66414 0.00026
C 33.28048 26.23886 0.00682
C 31.98247 25.56754 -0.01779
C 29.54412 0.04453 0.00346
C 31.96787 24.11808 0.03794
C 33.11454 22.0601 0.01574
C 31.87929 21.30424 -0.02383
C 31.85171 19.86836 -0.01429
C 33.11064 19.15523 -0.0136
C 33.13573 17.75336 0.00594
C 31.89354 17.0057 -0.02474
C 31.86851 15.61383 0.00369
C 33.19626 14.91196 0.00455
C 33.22643 23.45144 0.01927
C 33.24143 13.49581 -0.00644
C 30.7552 0.74516 0.00307
C 29.49066 2.75643 0.02108
C 30.69893 22.03302 -0.01415
C 29.43816 21.30208 -0.03039
C 29.35859 19.94411 0.01836
C 30.65424 19.18996 0.03531
C 30.59235 17.7355 -0.00669
C 29.40446 17.02566 0.0101
C 29.44087 15.61076 0.01705
C 30.65992 14.90268 -0.0405
C 30.81219 2.12254 0.00716
C 30.69137 13.48918 -0.01303
C 29.51269 11.32991 -0.02155
C 30.70797 10.63685 -0.00944
C 30.7443 9.14952 -0.03735
C 29.48944 8.53172 -0.00971
C 29.48378 7.084 0.01518
C 30.68594 6.36297 0.01908
C 30.6938 4.9483 0.07705
C 29.49908 4.23025 0.0103
C 29.48513 12.74362 -0.01461
C 32.00354 12.77909 -0.01839
C 31.84989 11.37836 0.00137
C 33.16281 10.68133 0.00199
C 1.05149 19.28564 -0.01678
C 1.1592 17.86009 0.01223
C 34.3541 17.13343 0.00648
C 34.41252 15.64263 0.02114
C 1.26245 15.05626 -0.02957
C 1.31446 13.63152 0.00343
C 0.13404 12.90101 -0.02656
C 34.39807 11.41329 -0.02442
C 34.28413 19.92466 0.01951
C 1.22677 10.6935 -0.00027
C 34.34729 8.55545 -0.02302
C 34.40875 7.11694 -0.02849
C 1.17555 6.42164 0.02931
C 1.15354 5.0221 0.00628
C 0.02989 4.25876 -0.0345
C 0.01556 2.78849 -0.00931
C 1.24243 2.13257 -0.00939
C 1.14545 0.7728 -0.00468
C 1.19399 9.26222 -0.00583
C 34.31644 21.32538 -0.02213
C 1.15181 21.98268 0.02712
C 1.14374 23.41674 0.00723
C 33.15195 9.25808 0.04381
C 31.97007 8.52206 0.02806
C 31.96486 7.0468 0.01504
C 33.21057 6.38313 -0.00069
C 33.25074 4.92767 0.04926
C 31.97117 4.32074 -0.03838
C 31.96691 2.85834 0.00349
C 33.23247 2.15532 -0.00323
C 33.18928 0.75216 -0.00841
C 31.96006 0.03367 0.0001
C 0.01631 32.66612 -0.02927
C 1.24311 31.92848 -0.01404
C 1.25866 30.48827 0.01027
C 0.04549 29.82785 0.01831
C 0.10763 28.34498 -0.01037
C 1.43736 27.64243 -0.00439
C 1.46936 26.15592 -0.00598
C 0.09873 25.52301 -0.05239
C 34.42326 24.2151 0.03076
C 30.69927 23.44167 -0.01854
C 29.4937 24.20793 -0.02049
C 29.53138 25.56873 0.03265
C 30.75754 26.2824 0.00261
C 24.52881 25.39577 -0.01107
C 24.48741 24.00585 -0.01586
C 25.84427 23.53051 -0.01971
C 25.74335 22.12899 -0.02118
C 24.30173 21.77378 0.00733
C 24.28015 20.22635 -0.00178
C 25.56352 19.40695 0.00768
C 25.56257 17.93453 -0.0276
C 25.77182 26.20988 0.00071
C 24.3812 17.09735 0.03005
C 25.74839 14.91072 0.02117
C 25.72887 13.49991 0.02737
C 24.52264 12.75102 -0.00498
C 24.61911 11.28887 0.00135
C 25.81731 10.56034 0.03102
C 25.86709 9.19096 0.02555
C 24.56678 8.43757 0.01423
C 24.47135 7.05901 -0.00285
C 24.48423 15.6596 -0.04078
C 25.74548 27.65425 -0.00225
C 24.56102 28.37952 0.01515
C 24.62596 29.77424 -0.0055
C 22.08818 15.57574 0.00096
C 23.30146 14.90425 -0.01527
C 23.28868 13.50479 0.01087
C 22.11335 12.72591 0.00199
C 22.11391 11.31593 0.01511
C 23.37309 10.62753 -0.00478
C 23.32857 9.20279 -0.01662
C 22.08011 8.46056 -0.01185
C 22.103 7.05687 0.01126
C 23.3293 6.34736 0.01852
C 23.33398 5.00552 -0.00381
C 22.1217 4.28668 0.03046
C 22.09966 2.85454 0.0296
C 23.323 2.11506 0.03374
C 23.3285 0.69441 -0.02845
C 22.12721 34.03255 -0.03213
C 24.65691 32.59794 0.02239
C 25.80871 31.90879 0.01153
C 25.89486 30.57947 0.02734
C 25.71632 6.29699 -0.009
C 3.67867 32.04441 -0.00725
C 25.80327 4.93847 -0.01199
C 24.49499 2.79785 -0.00938
C 27.02497 11.24945 0.04185
C 28.30242 10.62785 0.00194
C 28.30294 9.23714 -0.00621
C 27.04939 8.46416 0.02611
C 27.0169 7.04956 0.02198
C 28.21447 6.30269 0.01094
C 28.23693 4.91401 0.00235
C 27.06595 4.2608 0.01495
C 26.98423 12.74541 0.02316
C 26.97475 2.86433 0.01259
C 28.2288 0.73205 0.01699
C 27.06169 0.00398 -0.00416
C 29.53024 32.67412 0.01177
C 30.73708 32.00071 0.04266
C 30.72955 30.56108 0.01324
C 29.47571 29.86166 0.0014
C 29.51043 28.47074 0.00924
C 30.74808 27.79187 0.02326
C 28.20356 2.13369 0.01799
C 28.18966 13.45023 0.01257
C 28.18258 14.94268 0.00152
C 26.96537 15.62792 -0.00294
C 25.79977 2.11465 -0.0264
C 25.75709 0.6673 -0.01154
C 24.56637 34.06501 0.00684
C 27.10436 32.6932 -0.01052
C 28.29519 31.95317 -0.01679
C 28.25655 30.54539 0.00367
C 27.05685 29.79021 0.04306
C 27.00895 28.42819 0.00996
C 28.24556 27.74927 0.00195
C 28.34975 26.30638 -0.00802
C 27.04842 25.67468 -0.00218
C 27.10358 24.30587 -0.01654
C 28.1872 23.48014 -0.00037
C 28.22271 22.01838 -0.0032
C 26.92502 21.30519 0.00622
C 26.82957 19.92066 -0.02815
C 28.061 19.25381 -0.00942
C 28.03964 17.84891 0.00487
C 26.83866 17.13247 0.00826
C 24.60813 4.18024 -0.00229
C 2.50677 32.73846 0.02322
