294
Graphene
C 34.39409 0.03549 0.01295
C 11.22252 30.41208 0.00755
C 9.88153 29.78883 -0.0054
C 9.85071 28.36361 0.00667
C 11.04145 27.65572 0.00143
C 11.08156 13.4795 -0.017
C 9.84044 12.82509 0.00364
C 11.15823 31.90495 0.01739
C 9.87596 11.35657 -0.00831
C 11.01241 9.23618 -0.04422
C 9.79841 8.57827 0.00654
C 9.76604 7.19421 -0.00703
C 11.02032 6.4844 -0.04076
C 11.0605 5.0217 -0.00652
C 9.79834 4.25858 0.0058
C 11.07948 10.77327 -0.02957
C 9.83507 2.77762 -0.00865
C 9.90953 32.62387 0.03754
C 8.61728 0.63855 -0.00111
C 7.4342 15.63087 -0.02213
C 8.54664 14.87169 0.03698
C 8.52836 13.57577 -0.00109
C 7.28206 12.74576 -0.00491
C 7.3632 11.34902 0.03338
C 8.61665 10.70094 -0.0258
C 7.40415 0.08806 -0.03557
C 8.60831 9.26071 -0.0331
C 7.3672 7.11601 0.02188
C 8.53711 6.37806 -0.01979
C 8.51396 4.95952 0.02691
C 7.34532 4.23225 -0.01581
C 7.40205 2.81266 0.01452
C 8.62702 2.12891 0.04892
C 7.33939 8.47656 -0.00316
C 11.04613 2.15125 0.00675
C 11.11543 0.67767 -0.00311
C 9.92219 34.06231 0.00742
C 14.72148 32.61587 0.03374
C 16.01338 31.98008 -0.02845
C 16.00481 30.6177 -0.03213
C 14.865 29.8687 0.02239
C 14.78054 28.29193 0.01153
C 16.09879 9.15145 0.02734
C 12.34783 0.02829 0.0296
C 14.73508 8.58121 -0.0055
C 16.11445 6.46341 -0.00225
C 16.01781 5.02781 0.00071
C 14.78504 4.33725 -0.01107
C 14.7373 2.93095 -0.01586
C 15.90911 2.1894 -0.01971
C 15.98049 0.78031 -0.02118
C 14.90558 7.20035 0.01515
C 13.55519 0.74336 0.03046
C 13.54642 2.16087 -0.00381
C 12.31458 2.82121 0.01852
C 12.4635 32.63215 -0.01594
C 13.6062 31.80243 0.0106
C 13.6152 30.3254 -0.01154
C 12.37811 29.64918 -0.01721
C 12.2843 28.14167 -0.02422
C 13.75062 27.71444 0.01277
C 12.00942 12.7031 0.00096
C 12.28768 11.36858 -0.01527
C 13.54647 10.65453 0.01087
C 13.42888 9.25274 0.00199
C 12.19361 8.5946 0.01511
C 12.29897 7.12202 -0.00478
C 13.62372 6.43174 -0.01662
C 13.56849 4.99586 -0.01185
C 12.28064 4.3227 0.01126
C 7.24882 17.08592 0.00028
C 7.33736 20.01494 -0.00289
C 7.28605 21.19357 -0.00066
C 7.28937 24.31941 0.00213
C 3.57494 10.59754 0.00165
C 3.64622 9.20247 -0.02971
C 2.45192 8.47105 0.02894
C 2.42553 7.06132 -0.01789
C 3.67368 6.40748 0.00444
C 3.64251 4.99339 -0.00925
C 2.40225 11.32718 0.02819
C 2.4191 4.24851 0.01877
C 3.6813 2.10734 -0.02162
C 3.61706 0.70798 0.00415
C 2.43765 34.06631 -0.0014
C 4.93591 32.71042 0.02162
C 6.1462 31.99932 0.0076
C 6.18366 30.55638 0.01241
C 2.43631 2.80836 0.01363
C 2.42499 12.71739 -0.00891
C 3.62462 13.49947 -0.01046
C 3.67834 14.95383 -0.02689
C 3.6269 30.58699 0.03589
C 2.40766 29.87868 -0.02759
C 2.38916 28.44621 0.0402
C 3.60297 27.83846 0.00572
C 3.67648 26.28031 0.03592
C 2.39118 25.61528 0.00406
C 2.4332 24.16808 0.00943
C 3.69246 23.50631 0.02841
C 3.7274 22.04003 -0.01111
C 2.50256 21.33509 -0.01275
C 2.52156 19.86253 0.00985
C 3.75312 19.12136 -0.02245
C 3.66457 17.70994 -0.00428
C 2.40358 17.04536 0.03101
C 2.43383 15.56632 -0.01536
C 4.91127 29.90233 -0.01454
C 14.76029 34.06848 0.00733
C 4.93731 28.43487 0.01945
C 6.16935 26.2981 0.03542
C 6.13683 4.97615 0.0351
C 4.88507 4.24708 -0.03113
C 4.91793 2.82595 0.02098
C 6.11629 2.15041 0.01848
C 6.13924 0.66391 -0.00619
C 4.92369 0.03255 -0.02162
C 6.15265 6.37186 0.00422
C 7.37647 32.70295 0.00889
C 8.69257 30.52286 0.00979
C 7.34617 29.85059 0.01443
C 7.34392 28.54487 0.03505
C 8.60262 27.79942 -0.02815
C 8.58617 26.43247 -0.04147
C 7.46324 25.65639 -0.05302
C 8.64983 31.97828 -0.00481
C 4.91367 7.10008 0.00798
C 4.91718 8.52597 0.00228
C 6.04992 9.16282 -0.00114
C 4.92712 25.59331 0.02299
C 4.88877 24.17444 0.00244
C 6.1386 23.51644 -0.01717
C 6.18712 22.17375 0.05265
C 4.94792 21.34103 -0.01952
C 5.01348 19.97492 -0.02813
C 6.1667 19.14062 0.00374
C 6.04522 17.69204 0.00052
C 4.85428 17.02732 -0.03682
C 4.90417 15.61811 0.01965
C 6.14533 14.98149 0.02058
C 6.12856 13.56238 -0.01957
C 4.87541 12.77575 -0.0108
C 4.85127 11.30988 -0.00368
C 6.12463 10.64455 -0.02696
C 6.15921 27.69121 0.01416
C 17.24522 32.67469 -0.00178
C 18.46688 31.91903 0.00768
C 18.49236 30.52043 -0.0276
C 31.81825 19.82812 -0.01429
C 33.02401 19.15031 -0.0136
C 33.13903 17.76202 0.00594
C 31.89872 17.02372 -0.02474
C 31.97799 15.65419 0.00369
C 33.19791 14.96232 0.00455
C 31.921 21.31324 -0.02383
C 33.12614 13.46458 -0.00644
C 31.82132 11.33597 0.00137
C 33.10479 10.68056 0.00199
C 33.24949 9.31533 0.04381
C 31.96956 8.65657 0.02806
C 31.95563 7.27375 0.01504
C 33.085 6.49944 -0.00069
C 31.8189 12.79183 -0.01839
C 33.12745 22.01946 0.01574
C 33.18484 23.40468 0.01927
C 31.96429 24.20472 0.03794
C 30.58262 10.62702 0.01908
C 30.74804 9.28925 0.07705
C 30.75645 6.47641 0.0103
C 30.82133 5.30771 0.02108
C 30.65967 2.26919 0.00716
C 30.73915 0.82227 0.00307
C 29.47333 0.14364 0.00346
C 31.94071 32.77599 0.01713
C 33.14798 31.98831 -0.01694
C 33.16135 30.61644 0.01428
C 31.92121 29.91822 -0.02142
C 31.95551 28.50143 0.0544
C 33.08372 27.76427 0.00026
C 33.17964 26.38366 0.00682
C 31.97755 25.59978 -0.01779
C 33.10744 5.03741 0.04926
C 29.38726 11.54989 0.01518
C 31.89226 4.3215 -0.03838
C 33.13406 2.24908 -0.00323
C 1.21717 14.8964 -0.02957
C 1.18384 13.53529 0.00343
C 34.31843 12.80009 -0.02656
C 34.37063 11.33465 -0.02442
C 1.15042 10.63715 -0.00027
C 1.201 9.2039 -0.00583
C 34.39428 15.59783 0.02114
C 34.4317 8.55501 -0.02302
C 1.16538 6.481 0.02931
C 1.15785 4.98332 0.00628
C 34.34211 4.39414 -0.0345
C 34.30297 2.89629 -0.00931
C 1.12952 2.13513 -0.00939
C 1.18769 0.69392 -0.00468
C 34.35 7.16829 -0.02849
C 34.41628 16.9862 0.00648
C 1.15665 17.68337 0.01223
C 1.16988 19.16026 -0.01678
C 33.21097 0.78641 -0.00841
C 31.96586 0.17301 0.0001
C 34.38292 32.70756 -0.02927
C 1.18531 31.99872 -0.01404
C 1.18408 30.55408 0.01027
C 34.36336 29.85724 0.01831
C 34.32745 28.42671 -0.01037
C 1.13511 27.73252 -0.00439
C 1.17226 26.30364 -0.00598
C 34.40071 25.58713 -0.05239
C 34.37208 24.179 0.03076
C 1.24647 23.47938 0.00723
C 1.23458 21.96697 0.02712
C 34.39647 21.27945 -0.02213
C 34.31479 19.90424 0.01951
C 31.87567 2.93837 0.00349
C 3.75109 32.00613 -0.00033
C 29.31753 12.76931 -0.00971
C 30.76376 15.00365 -0.00944
C 19.69563 2.57659 0.00367
C 20.88805 0.81179 0.04306
C 19.67464 0.01809 0.00996
C 22.11337 32.74702 0.00195
C 23.30836 31.95479 -0.00802
C 23.3226 30.473 -0.00218
C 21.02506 26.36927 -0.01679
C 22.10155 29.76672 -0.01654
C 23.27888 27.65346 -0.0032
C 23.33229 26.21818 0.00622
C 22.03533 25.65454 -0.02815
C 22.15015 0.02398 -0.00942
C 24.47475 32.69717 0.00487
C 25.75678 31.88691 0.00826
C 22.04572 28.35342 -0.00037
C 20.82765 27.69759 -0.01052
C 19.70613 28.41664 0.00684
C 19.66694 29.78233 -0.01154
C 17.22214 29.93736 0.03005
C 17.25895 28.44661 -0.04078
C 18.2725 27.87058 0.02117
C 17.08009 8.63017 0.02737
C 17.40806 7.14783 -0.00498
C 18.56669 6.15484 0.00135
C 18.36784 5.00934 0.03102
C 17.15511 4.22571 0.02555
C 17.17722 2.78694 0.01423
C 18.48121 2.14041 -0.00285
C 18.4842 0.67777 -0.009
C 17.28712 0.05299 -0.01199
C 19.65486 32.68168 -0.00229
C 20.96496 31.98418 -0.00938
C 20.9037 30.46066 -0.0264
C 25.75995 30.49458 -0.00294
C 30.59362 13.56073 -0.03735
C 24.51277 29.75531 0.00152
C 25.76757 27.62534 0.02316
C 30.67615 32.08705 0.03265
C 30.68411 30.59653 -0.02049
C 29.39508 29.88047 -0.01854
C 29.43086 28.4529 -0.01415
C 30.65422 27.73933 -0.03039
C 30.65988 26.31746 0.01836
C 29.42453 32.7594 0.00261
C 29.50182 25.52815 0.03531
C 30.71234 23.40366 0.0101
C 30.68132 22.01572 0.01705
C 29.43536 21.30259 -0.0405
C 29.61594 19.99907 -0.01303
C 30.50324 18.96334 -0.01461
C 30.57158 17.55025 -0.02155
C 29.46234 24.15768 -0.00669
C 27.02847 0.00463 0.02326
C 28.04224 0.68403 0.00924
C 28.13253 22.00823 0.0014
C 25.85214 26.21124 0.04185
C 24.58544 25.56663 0.00194
C 24.81004 23.97216 -0.00621
C 25.80434 23.38443 0.02611
C 24.35274 0.01507 0.02198
C 26.95897 32.57227 0.01094
C 28.23406 31.97469 0.00235
C 28.26439 30.59577 0.01495
C 27.03236 29.78599 0.01259
C 26.98634 28.4052 0.01799
C 28.23908 27.6721 0.01699
C 28.18688 26.19317 -0.00416
C 27.03037 25.50638 0.01177
C 27.09965 24.0909 0.04266
C 28.28697 23.4267 0.01324
C 24.49437 28.33846 0.01257
C 2.46099 32.69189 -0.01062
