346
Graphene
C 34.43209 0.0253 0.01295
C 12.31316 32.65484 -0.03113
C 13.48463 32.01269 0.02098
C 13.49585 30.57527 0.01848
C 12.34671 29.81417 -0.00619
C 13.59775 17.7963 -0.02162
C 12.33756 17.1291 0.00889
C 12.2247 15.57991 -0.00481
C 13.48664 14.89893 0.00979
C 13.50768 13.36052 0.01443
C 12.29398 12.73827 0.03505
C 12.38035 11.37055 -0.02815
C 13.61075 10.60063 -0.04147
C 13.60335 9.18908 -0.05302
C 12.35404 8.53168 0.00213
C 12.28415 7.17536 -0.00066
C 13.52065 6.32901 -0.00289
C 13.52587 4.88811 0.00028
C 9.76627 34.03729 0.0351
C 11.09615 0.61572 0.00422
C 10.97639 2.10567 0.00798
C 9.77211 2.83988 0.00228
C 9.81135 32.59125 0.01416
C 11.03693 32.017 0.03542
C 10.97768 30.55759 0.02299
C 9.82781 29.90771 0.00244
C 11.10571 17.76093 -0.01717
C 9.90812 17.05882 0.05265
C 9.84973 15.62813 -0.01952
C 11.03341 14.90944 -0.02813
C 12.33152 4.21867 -0.02213
C 11.08466 13.51641 0.00374
C 9.84419 11.44837 -0.03682
C 11.0558 10.67642 0.01965
C 11.04296 9.30058 0.02058
C 9.86882 8.45747 -0.01957
C 9.86495 7.0684 -0.0108
C 11.10019 6.40106 -0.00368
C 11.17679 4.96153 -0.02696
C 9.84893 4.21415 -0.00114
C 9.83578 12.85749 0.00052
C 7.37816 34.04335 0.01945
C 12.21245 2.78731 0.03698
C 13.51758 0.69796 -0.00491
C 17.2863 32.66544 -0.04422
C 18.45057 31.94906 0.00654
C 18.48027 30.55995 -0.00703
C 17.14079 29.95428 -0.04076
C 17.20113 28.43242 -0.00652
C 18.42145 27.61612 0.0058
C 18.43348 26.22389 -0.00865
C 17.2275 25.52102 0.00675
C 17.22094 24.21918 -0.00311
C 18.37119 23.43685 0.00742
C 18.41627 22.05454 -0.01594
C 17.28853 21.28785 0.0106
C 17.28906 19.95166 -0.01154
C 18.42033 19.1233 -0.01721
C 17.22553 17.10941 -0.02422
C 18.50821 4.88138 0.01277
C 17.2517 4.22789 0.00096
C 14.70754 34.07196 -0.02957
C 15.95331 0.68522 -0.00831
C 15.99657 2.05068 0.00364
C 14.77534 2.78316 -0.017
C 12.28769 0.01549 0.03338
C 14.68817 32.67321 -0.0258
C 15.93332 32.00738 -0.0331
C 15.90404 30.58331 -0.00316
C 14.71093 29.84731 0.02188
C 14.85293 28.39152 -0.01979
C 15.97789 27.71957 0.02691
C 16.04069 19.15642 -0.01581
C 13.52572 2.1426 -0.00109
C 16.01073 17.80283 0.01452
C 14.76296 15.64973 -0.00111
C 14.7236 12.63456 -0.03557
C 14.7713 11.42835 0.03754
C 14.6815 8.4658 0.01739
C 14.79684 7.10112 0.00755
C 16.05129 6.39619 -0.0054
C 15.96609 4.97898 0.00667
C 14.73534 4.23988 0.00143
C 14.71795 17.06623 0.04892
C 8.58606 0.69085 -0.01454
C 8.53447 2.11721 0.01241
C 7.35961 2.90517 0.0076
C 2.48979 7.09478 0.0288
C 3.67073 6.36263 0.00393
C 3.65984 4.91462 0.00895
C 2.43426 4.21183 0.00685
C 2.48218 2.81877 0.02888
C 3.65854 2.09029 -0.00482
C 3.71892 0.70951 -0.01384
C 2.51558 34.07991 0.03693
C 4.88217 32.70793 0.01745
C 6.15565 31.92491 0.00488
C 6.09609 30.55978 -0.01004
C 4.87917 29.84253 -0.02896
C 4.92909 28.46098 -0.00131
C 6.21731 27.59281 -0.01118
C 6.05768 26.25417 -0.014
C 4.87785 25.58794 0.02147
C 4.90418 24.13774 0.00373
C 2.45894 8.52067 -0.0008
C 3.68733 9.27834 -0.01362
C 3.70621 10.63967 -0.00892
C 2.48103 11.39568 -0.04848
C 3.69109 30.55288 -0.03337
C 2.44871 29.85764 0.01227
C 2.40867 28.4605 0.00873
C 3.7225 27.74926 -0.00049
C 3.66615 26.27616 0.00848
C 2.40421 25.56731 -0.01303
C 2.44195 24.17602 -0.01378
C 3.72452 23.3811 0.02635
C 6.23518 23.37267 -0.00191
C 3.63015 21.98323 0.0127
C 2.56225 19.84507 0.01849
C 3.72968 19.15038 -0.01142
C 3.63732 17.73748 -0.00562
C 2.39802 17.13733 -0.00494
C 2.47062 15.61467 0.00054
C 3.73934 14.89192 0.03007
C 3.66939 13.5133 -0.00095
C 2.50832 12.76097 0.01572
C 2.40375 21.27916 0.01396
C 6.22217 22.07014 0.00438
C 4.84421 21.27298 0.01291
C 4.89933 19.94515 0.00093
C 7.28855 29.84106 0.03101
C 7.32867 28.46327 -0.01536
C 7.50606 19.88554 -0.02689
C 8.528 19.11921 -0.01046
C 8.70171 17.7736 -0.00891
C 7.42582 17.13211 0.02819
C 7.38535 15.69063 0.00165
C 8.57327 14.89899 -0.02971
C 8.56396 30.46263 -0.00428
C 8.55581 13.47158 0.02894
C 7.42932 11.33791 0.00444
C 8.65063 10.63725 -0.00925
C 8.62847 9.25465 0.01877
C 7.37574 8.5898 0.01363
C 7.34908 7.12493 -0.02162
C 8.68142 6.37683 0.00415
C 8.68311 4.97356 -0.0014
C 7.41474 4.33526 0.02162
C 7.33521 12.66722 -0.01789
C 17.21284 2.79519 -0.01527
C 8.55552 31.95503 -0.02245
C 4.8574 34.01297 -0.01275
C 6.1759 19.22516 0.00057
C 6.15387 17.78734 -0.01634
C 4.87873 17.06607 -0.00334
C 4.95274 15.57032 0.02339
C 6.16072 14.95769 0.01641
C 6.13484 13.53693 -0.00719
C 4.96098 12.82686 0.01364
C 4.91412 11.35749 -0.01062
C 7.36053 32.65961 0.00985
C 6.1875 10.69745 -0.00033
C 4.90073 8.55224 -0.02759
C 4.87603 7.14722 0.0402
C 6.17403 6.41662 0.00572
C 6.17227 5.02052 0.03592
C 4.91383 4.3056 0.00406
C 4.919 2.92623 0.00943
C 6.09962 2.22413 0.02841
C 6.10712 0.777 -0.01111
C 6.1689 9.26433 0.03589
C 18.37423 2.13306 0.01087
C 18.4536 0.72917 0.00199
C 17.24304 34.07314 0.01511
C 33.19545 30.51649 0.01428
C 31.94099 29.87508 -0.02142
C 31.95928 28.48049 0.0544
C 33.21501 27.70872 0.00026
C 33.11187 26.28881 0.00682
C 31.894 25.60742 -0.01779
C 31.96415 24.09725 0.03794
C 33.21428 23.4222 0.01927
C 33.1467 22.07063 0.01574
C 31.94015 21.33865 -0.02383
C 32.06301 19.95848 -0.01429
C 33.22937 19.12847 -0.0136
C 33.19382 17.74354 0.00594
C 31.90609 17.01866 -0.02474
C 31.97135 15.63452 0.00369
C 33.16658 14.92786 0.00455
C 33.0959 13.4927 -0.00644
C 33.13672 31.94058 -0.01694
C 31.93723 32.58564 0.01713
C 29.51531 0.03928 0.00346
C 30.68754 0.70804 0.00307
C 29.51923 24.18793 0.01836
C 30.7504 23.3879 0.03531
C 30.7175 21.99942 -0.00669
C 29.51069 21.31667 0.0101
C 29.56966 19.88661 0.01705
C 30.80181 19.23715 -0.0405
C 30.72744 17.75811 -0.01303
C 29.51472 17.01974 -0.01461
C 31.95036 12.76779 -0.01839
C 29.46423 15.70603 -0.02155
C 30.74354 13.49046 -0.03735
C 29.5741 12.59704 -0.00971
C 29.61501 11.47026 0.01518
C 30.72337 10.62584 0.01908
C 30.76582 9.30725 0.07705
C 30.76556 4.94633 0.0103
C 29.52142 2.815 0.02108
C 30.72418 2.14567 0.00716
C 30.68828 14.98581 -0.00944
C 32.03657 11.42253 0.00137
C 33.19307 10.55254 0.00199
C 33.2596 9.15107 0.04381
C 1.24847 19.20773 -0.01678
C 1.20195 17.80617 0.01223
C 34.41787 17.00447 0.00648
C 34.39663 15.60494 0.02114
C 1.28006 14.85088 -0.02957
C 1.17865 13.42107 0.00343
C 34.35299 12.80576 -0.02656
C 34.37384 11.31255 -0.02442
C 34.41012 19.91884 0.01951
C 1.19305 10.65679 -0.00027
C 0.02028 8.44897 -0.02302
C 0.03261 7.07557 -0.02849
C 1.25203 6.41708 0.02931
C 1.27834 4.94673 0.00628
C 34.42231 4.19249 -0.0345
C 0.0389 2.79055 -0.00931
C 1.27917 2.08059 -0.00939
C 1.21771 0.69558 -0.00468
C 1.22137 9.22591 -0.00583
C 29.52858 25.58128 -0.03039
C 34.39778 21.34062 -0.02213
C 1.24542 23.53338 0.00723
C 31.88225 8.52171 0.02806
C 32.05576 7.15084 0.01504
C 33.13541 6.42964 -0.00069
C 33.22336 4.97174 0.04926
C 31.93505 4.29649 -0.03838
C 32.0482 2.84838 0.00349
C 33.23929 2.11794 -0.00323
C 33.17335 0.65953 -0.00841
C 1.21907 22.06019 0.02712
C 31.94397 34.05174 0.0001
C 1.26177 32.00898 -0.01404
C 1.16912 30.46064 0.01027
C 34.39193 29.78738 0.01831
C 0.00481 28.36281 -0.01037
C 1.30586 27.70791 -0.00439
C 1.15091 26.22972 -0.00598
C 34.32883 25.56767 -0.05239
C 34.41976 24.127 0.03076
C 34.40097 32.67844 -0.02927
C 3.68341 31.88772 -0.00966
C 30.75152 26.36099 -0.01415
C 29.52073 28.44292 -0.02049
C 22.1448 29.80647 0.00733
C 22.10302 28.39546 -0.00178
C 23.30681 27.67233 0.00768
C 23.29205 26.28286 -0.0276
C 22.13128 25.54809 0.03005
C 22.16143 24.09654 -0.04078
C 23.38585 23.45209 0.02117
C 23.35206 22.08134 0.02737
C 22.14558 21.36573 -0.00498
C 22.11679 19.90975 0.00135
C 23.31936 19.25616 0.03102
C 22.0624 4.23947 0.02555
C 22.14746 2.90856 0.01423
C 23.38665 2.12765 -0.00285
C 23.37657 0.69534 -0.009
C 22.09484 34.05192 -0.01199
C 24.60108 32.64029 -0.00229
C 23.34683 30.56242 -0.02118
C 23.34696 32.00629 -0.01971
C 22.10523 32.61472 -0.01586
C 19.66757 34.06793 -0.01107
C 19.61924 32.65335 -0.00478
C 20.88708 31.95307 -0.01662
C 20.92481 30.53314 -0.01185
C 19.58223 29.73937 0.01126
C 19.63728 28.34532 0.01852
C 20.90685 27.66316 -0.00381
C 20.88747 26.21752 0.03046
C 19.63234 25.54674 0.0296
C 25.82927 31.91256 -0.00938
C 19.65894 24.1515 0.03374
C 20.94596 22.04 -0.03213
C 19.66924 21.27016 0.02239
C 19.67865 19.76744 0.01153
C 20.90386 19.14855 0.02734
C 19.54714 4.25607 -0.0055
C 19.6876 2.83509 0.01515
C 20.94287 2.12061 -0.00225
C 20.89735 0.72297 0.00071
C 20.81764 23.41602 -0.02845
C 25.78103 30.51848 -0.0264
C 24.55044 29.74132 -0.01154
C 24.53961 28.37772 0.00684
C 27.14539 25.53282 -0.00621
C 27.05893 24.13237 0.02611
C 28.2024 23.4287 0.02198
C 28.20245 21.95849 0.01094
C 27.05032 21.26458 0.00235
C 27.0544 19.84369 0.01495
C 28.34785 19.1069 0.01259
C 28.2726 17.69752 0.01799
C 28.34234 26.25421 0.00194
C 27.02973 17.08655 0.01699
C 27.10283 2.78004 0.01177
C 28.26123 2.13093 0.04266
C 28.28381 0.71375 0.01324
C 27.09345 34.05949 0.0014
C 29.60203 32.62046 0.00924
C 30.70546 31.86787 0.02326
C 30.73586 30.48667 0.00261
C 29.53197 29.79603 0.03265
C 26.93545 4.24033 -0.00416
C 30.79884 27.74017 -0.01854
C 28.24164 27.67086 0.04185
C 27.04148 29.83217 0.01257
C 25.85287 27.68351 -0.01052
C 25.90251 26.27842 -0.01679
C 24.64749 25.63124 0.00367
C 24.60386 24.20331 0.04306
C 25.8741 23.3757 0.00996
C 25.83215 22.00472 0.00195
C 24.61423 21.36554 -0.00802
C 24.56251 19.92345 -0.00218
C 27.02307 28.40733 0.02316
C 25.84902 19.21734 -0.01654
C 24.56286 4.31359 -0.0032
C 24.59162 2.84478 0.00622
C 25.83734 2.16444 -0.02815
C 25.80703 0.74953 -0.00942
C 24.60117 34.05605 0.00487
C 27.1124 32.69867 0.00826
C 28.36185 31.94021 -0.00294
C 28.34134 30.51219 0.00152
C 25.76252 4.77839 -0.00037
C 2.50151 32.69924 -0.02929
