417
Graphene
C 0.01493 0.03512 0.01295
C 13.56248 27.74438 -0.01111
C 13.51703 26.2481 -0.01275
C 12.24083 25.59982 0.00985
C 12.27429 24.17415 -0.02245
C 13.5148 23.41311 -0.00428
C 13.52293 22.00521 0.03101
C 12.29713 21.29336 -0.01536
C 12.26166 19.82491 -0.02689
C 13.43729 19.07273 -0.01046
C 13.5059 17.66811 -0.00891
C 12.3692 28.42896 0.02841
C 12.30288 17.03152 0.02819
C 13.55705 14.88429 -0.02971
C 13.53436 13.52292 0.02894
C 12.2901 12.85468 -0.01789
C 12.35451 11.3899 0.00444
C 13.51461 10.54259 -0.00925
C 13.52812 9.10491 0.01877
C 12.2448 8.3997 0.01363
C 12.27077 7.02131 -0.02162
C 13.51867 6.31747 0.00415
C 13.46499 4.96529 -0.0014
C 12.30868 15.59248 0.00165
C 12.21913 4.31074 0.02162
C 12.35334 29.89593 0.00943
C 13.58309 32.01349 0.03592
C 9.81157 21.29862 -0.00131
C 9.79788 19.94288 -0.01118
C 11.05321 19.15175 -0.014
C 11.14996 17.76569 0.02147
C 9.89065 17.13054 0.00373
C 9.83686 15.704 -0.00191
C 11.00349 15.04107 0.00438
C 11.05219 13.56039 0.01291
C 9.84493 12.75991 0.00093
C 9.93871 11.30428 0.00057
C 13.55139 30.62155 0.00406
C 11.15168 10.53249 -0.01634
C 9.81997 8.49787 0.02339
C 9.85431 7.06262 0.01641
C 10.97537 6.3598 -0.00719
C 10.98467 4.97993 0.01364
C 9.74827 4.23306 -0.01062
C 9.85827 2.87574 -0.00033
C 11.15054 2.17896 0.03589
C 11.07292 0.80187 -0.02759
C 9.82023 0.1142 0.0402
C 12.3031 32.68815 0.00572
C 11.09007 9.11519 -0.00334
C 11.05447 22.00526 -0.02896
C 12.29907 2.94282 0.0076
C 13.52046 0.74416 -0.01454
C 15.97844 6.39681 -0.00619
C 16.03833 4.97456 -0.02162
C 14.79026 4.29601 0.00889
C 14.83195 2.8286 -0.00481
C 16.04473 2.14551 0.00979
C 15.99326 0.66777 0.01443
C 14.79236 0.04394 0.03505
C 17.20829 32.62988 -0.02815
C 18.47767 31.93057 -0.04147
C 18.38602 30.53863 -0.05302
C 14.70604 7.06201 0.01848
C 17.18827 29.82201 0.00213
C 18.43065 27.68366 -0.00289
C 18.33927 26.29154 0.00028
C 17.13058 25.60227 -0.02213
C 17.1202 24.1615 0.03698
C 18.35829 23.52077 -0.00109
C 18.41195 22.07237 -0.00491
C 17.23264 21.29125 0.03338
C 17.19892 19.87994 -0.0258
C 18.42695 19.18483 -0.0331
C 18.49482 17.81682 -0.00316
C 17.20336 28.40701 -0.00066
C 13.55739 2.1764 0.01241
C 14.72432 8.4235 0.02098
C 15.86253 10.53532 0.0351
C 12.28736 0.01268 0.01945
C 14.79667 32.66389 0.01416
C 16.00096 31.92281 0.03542
C 15.90119 30.51725 0.02299
C 14.72236 29.84864 0.00244
C 14.7608 28.43673 -0.01717
C 15.95798 27.71886 0.05265
C 15.95565 26.32056 -0.01952
C 14.74537 25.58269 -0.02813
C 14.7406 24.1852 0.00374
C 16.0371 9.19898 -0.03113
C 15.93946 23.42867 0.00052
C 14.72438 21.25084 0.01965
C 14.69554 19.82185 0.02058
C 16.01669 19.15941 -0.01957
C 16.03876 17.7393 -0.0108
C 14.82416 17.0356 -0.00368
C 14.77192 15.6667 -0.02696
C 16.10223 14.86815 -0.00114
C 15.90876 13.48696 0.00228
C 14.78962 12.74943 0.00798
C 14.78396 11.25345 0.00422
C 15.95494 21.95158 -0.03682
C 11.06312 23.45541 -0.01004
C 9.78815 24.149 0.00488
C 9.8113 25.57727 0.01745
C 2.44966 2.78428 0.02769
C 3.64422 2.17334 -0.03291
C 3.69879 0.691 -0.04999
C 2.46616 0.05105 0.04505
C 4.86953 32.65408 0.03284
C 6.14773 32.01808 -0.04307
C 6.13843 30.60525 0.03189
C 4.90842 29.8403 0.00031
C 4.91401 28.41532 -0.003
C 6.14845 27.7311 0.01402
C 2.46603 4.31465 0.01707
C 6.22431 26.32596 0.02379
C 4.92278 24.09619 0.00643
C 6.17504 23.41207 -0.01509
C 6.08847 22.04485 0.03267
C 4.87204 21.35396 0.02374
C 4.8766 19.9274 0.00402
C 6.16501 19.20964 0.0073
C 6.16555 17.76654 0.0174
C 4.93901 17.09895 0.03828
C 4.94966 15.66718 0.01226
C 6.2336 14.83313 -0.00279
C 5.00584 25.51916 0.00907
C 6.07557 13.4465 0.01996
C 3.67537 4.99081 0.00208
C 2.42018 7.09376 -0.01977
C 3.7007 30.53436 -0.01299
C 2.4084 29.7772 -0.00407
C 2.48317 28.36481 0.01138
C 3.68223 27.67882 0.03278
C 3.80435 26.29139 -0.00177
C 2.53218 25.55901 0.04421
C 2.43491 24.14876 0.00088
C 3.63539 23.41253 0.00828
C 3.65089 21.97853 -0.02375
C 2.38774 21.32244 0.00558
C 3.65259 6.47352 -0.00561
C 2.4805 19.89388 -0.0059
C 3.68254 17.83135 -0.02805
C 2.46572 17.03965 0.00081
C 2.52984 15.64332 0.00245
C 3.75641 14.91786 0.02728
C 3.6651 13.45943 -0.00039
C 2.42388 12.7601 0.0064
C 2.43624 11.30388 0.00211
C 3.65974 10.57802 -0.00449
C 3.66573 9.2075 -0.01979
C 2.42031 8.4948 0.02784
C 3.68084 19.28258 -0.01386
C 4.81758 12.72174 -0.03996
C 4.85579 11.32813 0.01465
C 6.19103 10.69291 -0.00074
C 8.65705 14.97662 0.0127
C 8.64151 13.52298 0.01396
C 7.3576 12.77976 0.01849
C 7.39717 11.38676 -0.01142
C 8.67419 10.66814 -0.00562
C 8.59382 9.27766 -0.00494
C 7.34845 8.55636 0.00054
C 7.38537 7.16915 0.03007
C 8.63402 6.45803 -0.00095
C 8.6008 5.01425 0.01572
C 7.3747 15.60725 0.02635
C 7.33184 4.36663 -0.04848
C 8.58738 2.24957 -0.01362
C 8.52358 0.80808 -0.0008
C 7.29638 0.08591 0.0288
C 9.79845 32.73589 0.00393
C 11.03994 31.97335 0.00895
C 11.07513 30.53349 0.00685
C 9.8098 29.93135 0.02888
C 9.81215 28.48864 -0.00482
C 11.08597 27.78062 -0.01384
C 11.02085 26.30628 0.03693
C 7.23556 2.94215 -0.00892
C 7.4219 17.0313 -0.01378
C 8.60025 17.8004 -0.01303
C 8.64099 19.20973 0.00848
C 6.13949 9.30472 -0.00518
C 4.88211 8.51579 0.0086
C 4.94175 7.12993 -0.00643
C 6.17071 6.37669 0.017
C 6.05828 5.04482 -0.03113
C 4.84551 4.30689 -0.02566
C 4.85666 2.87072 -0.00094
C 6.0542 2.16732 0.02322
C 6.00587 0.72767 -0.00725
C 4.86901 34.0369 -0.05697
C 7.30441 32.71217 0.01087
C 8.56882 32.05838 -0.01343
C 8.57199 30.59379 0.00988
C 7.39259 29.83625 0.0276
C 7.33195 28.41854 0.01305
C 8.59933 27.72882 -0.00077
C 8.63886 26.33271 0.03368
C 7.42267 25.65015 -0.02929
C 7.37646 24.18132 -0.00966
C 8.57134 23.43976 -0.03337
C 8.58363 22.04052 0.01227
C 7.33165 21.30247 0.00873
C 7.34918 19.95792 -0.00049
C 17.37025 16.98846 0.02188
C 3.68898 31.9453 -0.0154
C 17.14426 15.64152 -0.01979
C 17.21395 7.12056 -0.01581
C 30.7458 13.51872 -0.00944
C 29.5458 12.72182 -0.03735
C 29.50939 11.37551 -0.00971
C 30.72093 10.6945 0.01518
C 30.72618 9.23449 0.01908
C 29.61615 8.4192 0.07705
C 29.61559 6.98583 0.0103
C 30.8406 6.34778 0.02108
C 30.60958 2.04939 0.00716
C 30.78096 0.71437 0.00307
C 30.68015 14.90325 -0.02155
C 29.57446 34.06446 0.00346
C 33.16944 31.93202 -0.01694
C 33.14102 30.49142 0.01428
C 31.90955 29.84834 -0.02142
C 31.94462 28.40894 0.0544
C 33.18688 27.65743 0.00026
C 33.2095 26.28191 0.00682
C 31.96985 25.54072 -0.01779
C 32.05924 24.08484 0.03794
C 33.21083 23.38476 0.01927
C 33.1688 22.00677 0.01574
C 32.01701 32.63458 0.01713
C 31.8995 21.27179 -0.02383
C 29.45619 15.58142 -0.01461
C 30.67749 17.68497 -0.0405
C 27.05238 7.22343 0.01495
C 28.27114 6.39765 0.01259
C 28.21607 5.07915 0.01799
C 27.11516 4.38968 0.01699
C 27.1195 2.91816 -0.00416
C 28.32024 2.07726 0.01177
C 28.31998 0.76303 0.04266
C 27.10953 0.05621 0.01324
C 29.59125 32.61756 0.0014
C 30.79302 31.94737 0.00924
C 29.47645 17.02265 -0.01303
C 30.68443 30.52686 0.02326
C 29.50467 28.37591 0.03265
C 30.72073 27.7115 -0.02049
C 30.72446 26.19648 -0.01854
C 29.48972 25.49552 -0.01415
C 29.53923 24.08514 -0.03039
C 30.79078 23.4125 0.01836
C 30.72345 21.97428 0.03531
C 29.42471 21.23898 -0.00669
C 29.45331 19.81143 0.0101
C 30.70975 19.16301 0.01705
C 29.50702 29.79274 0.00261
C 27.06401 8.59581 0.00235
C 31.92636 19.84749 -0.01429
C 33.1511 17.70912 0.00594
C 1.19461 23.39791 0.00723
C 1.20572 21.98376 0.02712
C 34.41948 21.23871 -0.02213
C 34.41837 19.81065 0.01951
C 1.23624 19.14859 -0.01678
C 1.20219 17.74244 0.01223
C 34.39512 17.10698 0.00648
C 0.00252 15.67813 0.02114
C 1.27938 14.98244 -0.02957
C 1.21709 13.51119 0.00343
C 0.02123 24.12852 0.03076
C 0.01337 12.81536 -0.02656
C 1.22443 10.58189 -0.00027
C 1.17848 9.22484 -0.00583
C 34.41845 8.50728 -0.02302
C 34.3711 7.09939 -0.02849
C 1.17804 6.44505 0.02931
C 1.22393 4.97736 0.00628
C 0.00582 4.22092 -0.0345
C 34.37242 2.75697 -0.00931
C 1.22052 2.13014 -0.00939
C 1.22978 0.7419 -0.00468
C 0.03095 11.33296 -0.02442
C 33.14561 19.14512 -0.0136
C 0.01137 25.51662 -0.05239
C 1.25617 27.67317 -0.00439
C 31.95858 16.96985 -0.02474
C 31.9307 15.57159 0.00369
C 33.20905 14.90531 0.00455
C 33.20951 13.48121 -0.00644
C 32.02554 12.75396 -0.01839
C 31.99215 11.37879 0.00137
C 33.23189 10.61389 0.00199
C 33.20233 9.15368 0.04381
C 31.93679 8.54096 0.02806
C 31.97739 7.07016 0.01504
C 1.21912 26.25353 -0.00598
C 33.19981 6.37016 -0.00069
C 31.88947 4.38497 -0.03838
C 31.7423 2.87272 0.00349
C 33.14154 2.11002 -0.00323
C 33.20873 0.69757 -0.00841
C 31.98625 34.03201 0.0001
C 34.36675 32.70022 -0.02927
C 1.17724 31.90926 -0.01404
C 1.19833 30.5031 0.01027
C 34.38348 29.7731 0.01831
C 34.43062 28.33356 -0.01037
C 33.13884 4.89686 0.04926
C 28.34613 9.20454 0.01094
C 28.32833 10.6102 0.02198
C 26.97067 11.4789 0.02611
C 19.6057 2.7667 -0.01154
C 20.87948 2.1208 -0.01721
C 20.94101 0.70833 -0.02422
C 19.73041 0.03361 0.01277
C 22.20669 32.71089 0.00096
C 23.39836 31.89249 -0.01527
C 23.32092 30.52462 0.01087
C 22.09515 29.78057 0.00199
C 22.13649 28.37937 0.01511
C 23.38907 27.70508 -0.00478
C 19.6921 4.24036 0.0106
C 23.3814 26.2673 -0.01662
C 22.0879 24.15405 0.01126
C 23.36998 23.44758 0.01852
C 23.34829 22.05779 -0.00381
C 22.17225 21.29428 0.03046
C 22.13141 19.8554 0.0296
C 23.38013 19.12056 0.03374
C 23.50765 17.72223 -0.02845
C 22.14069 7.19437 -0.03213
C 23.29152 6.38171 0.02239
C 23.33821 4.97935 0.01153
C 22.10449 25.579 -0.01185
C 22.20797 4.25599 0.02734
C 20.88822 4.99406 -0.01594
C 19.62496 7.14975 -0.00311
C 18.45703 6.46026 0.01452
C 18.49571 4.98814 0.04892
C 17.24222 4.25974 -0.00111
C 17.22852 2.85278 -0.03557
C 18.4247 2.03756 0.03754
C 18.44281 0.62632 0.01739
C 17.26249 34.03551 0.00755
C 19.73576 32.66445 -0.0054
C 21.0377 31.8998 0.00667
C 20.85006 30.52165 0.00143
C 20.87547 6.51628 0.00742
C 19.62146 29.84712 -0.017
C 20.83008 27.68709 -0.00831
C 20.80536 26.27541 -0.02957
C 19.60714 25.52221 -0.04422
C 19.60681 24.09667 0.00654
C 20.91127 23.40113 -0.00703
C 20.8649 21.96028 -0.04076
C 19.59396 21.26458 -0.00652
C 19.62945 19.93114 0.0058
C 20.8741 19.12339 -0.00865
C 20.85437 17.80346 0.00675
C 19.59588 28.41534 0.00364
C 22.11576 2.78279 -0.0055
C 23.34071 2.08591 0.01515
C 23.39709 0.65103 -0.00225
C 25.79678 0.71325 -0.01679
C 24.61637 33.9911 0.00367
C 27.12307 32.66427 0.04306
C 28.36763 31.93142 0.00996
C 28.27516 30.49104 0.00195
C 27.04769 29.79185 -0.00802
C 27.01398 28.3775 -0.00218
C 28.25497 27.69616 -0.01654
C 28.27893 26.33225 -0.00037
C 27.03067 25.56105 -0.0032
C 25.86283 2.16538 -0.01052
C 27.11784 24.16349 0.00622
C 28.23383 22.02477 -0.00942
C 27.00827 21.30759 0.00487
C 27.01089 19.89296 0.00826
C 28.21633 19.10134 -0.00294
C 28.22708 17.71214 0.00152
C 26.98599 16.9836 0.01257
C 26.96379 15.54196 0.02316
C 28.24275 14.88776 0.04185
C 28.28206 13.48219 0.00194
C 27.04167 12.921 -0.00621
C 28.29951 23.43528 -0.02815
C 24.59926 2.80532 0.00684
C 24.55819 4.24664 -0.01154
C 25.86255 5.03292 -0.0264
C 22.1636 34.07234 0.00071
C 24.60825 32.60369 -0.01107
C 25.89713 31.97402 -0.01586
C 25.845 30.53193 -0.01971
C 24.64182 29.87517 -0.02118
C 24.63477 28.466 0.00733
C 25.8164 27.74597 -0.00178
C 25.85931 26.27084 0.00768
C 24.57343 25.48516 -0.0276
C 24.65912 24.094 0.03005
C 25.8771 23.43807 -0.04078
C 25.80944 22.00753 0.02117
C 24.55142 21.29205 0.02737
C 24.50728 19.87108 -0.00498
C 25.7805 19.12589 0.00135
C 25.7603 17.68717 0.03102
C 24.46629 16.93372 0.02555
C 25.77815 14.8623 0.01423
C 25.87429 10.71927 -0.00285
C 25.70786 9.35382 -0.009
C 24.63213 8.45741 -0.01199
C 24.5852 7.03965 -0.00229
C 25.84263 6.4232 -0.00938
C 17.19522 8.43956 0.02691
C 2.43295 32.69279 0.00662
