393
Graphene
C 0.0186 0.03038 0.01295
C 12.35303 32.65411 0.01877
C 13.49315 32.00298 0.01363
C 13.53009 30.57442 -0.02162
C 12.32511 29.81859 0.00415
C 12.35276 28.45244 -0.0014
C 13.55862 27.69947 0.02162
C 13.45435 26.22853 0.0076
C 12.24517 25.50384 0.01241
C 12.24894 24.01956 -0.01454
C 9.82715 0.00221 -0.00925
C 13.58376 23.46953 0.01945
C 12.32477 21.24823 0.03542
C 12.40192 19.87267 0.02299
C 12.3667 8.48871 0.00244
C 12.28294 7.18392 -0.01717
C 13.53226 6.35234 0.05265
C 13.50576 4.87243 -0.01952
C 12.24137 4.17913 -0.02813
C 12.31028 2.76077 0.00374
C 13.49386 2.08153 0.00052
C 13.49465 22.0737 0.01416
C 11.067 0.67533 0.00444
C 11.01619 2.17583 -0.01789
C 9.75748 2.9514 0.02894
C 11.09281 27.75391 0.03589
C 11.09193 26.30908 -0.02759
C 9.8501 25.58579 0.0402
C 9.83567 24.17638 0.00572
C 11.03642 23.42337 0.03592
C 11.07109 22.00265 0.00406
C 9.85014 21.35794 0.00943
C 9.82304 19.97626 0.02841
C 11.07258 19.21331 -0.01111
C 11.00167 17.86647 -0.01275
C 9.92128 16.94864 0.00985
C 9.81544 15.59015 -0.02245
C 9.83241 12.84619 -0.00428
C 9.97491 11.3961 0.03101
C 10.9876 10.54868 -0.01536
C 11.11715 9.27035 -0.02689
C 9.85142 8.46612 -0.01046
C 9.81009 7.08707 -0.00891
C 11.10377 6.38799 0.02819
C 11.15068 4.97625 0.00165
C 9.83032 4.31528 -0.02971
C 13.53735 0.71319 -0.03682
C 9.782 28.50263 -0.00033
C 12.29529 0.03212 0.01965
C 15.974 31.9042 -0.01957
C 18.45649 26.23443 -0.02213
C 17.22187 25.60065 0.03698
C 17.20404 24.10543 -0.00109
C 18.41169 23.44333 -0.00491
C 18.42472 21.97129 0.03338
C 17.20429 21.29502 -0.0258
C 18.59739 6.5016 -0.0331
C 18.42881 4.94918 -0.00316
C 17.23235 4.24719 0.02188
C 18.45874 27.66713 0.00028
C 17.24552 2.80946 -0.01979
C 18.39311 0.72719 -0.01581
C 17.19148 34.05709 0.01452
C 19.72893 32.62039 0.04892
C 20.94724 31.90896 -0.00111
C 20.90757 30.55854 -0.03557
C 19.61925 29.81797 0.03754
C 19.63138 28.42749 0.01739
C 20.8394 27.74679 0.00755
C 20.8635 26.32912 -0.0054
C 18.45933 2.13495 0.02691
C 17.26792 28.34475 -0.00289
C 17.23712 29.8117 -0.00066
C 18.45403 30.55957 0.00213
C 15.99992 30.55476 -0.0108
C 14.80443 29.8351 -0.00368
C 14.78381 28.41366 -0.02696
C 16.00532 27.63561 -0.00114
C 15.95596 26.23164 0.00228
C 14.7318 25.56475 0.00798
C 14.81837 24.17423 0.00422
C 15.94097 23.41766 0.0351
C 15.96123 21.98073 -0.03113
C 14.66691 21.28569 0.02098
C 14.71872 19.86585 0.01848
C 14.75168 7.04881 -0.00619
C 15.90716 6.45661 -0.02162
C 16.02944 4.97477 0.00889
C 14.72909 4.22106 -0.00481
C 14.7341 2.76801 0.00979
C 15.94204 2.08544 0.01443
C 15.9819 0.67828 0.03505
C 14.71726 34.05479 -0.02815
C 17.24334 32.63516 -0.04147
C 18.51415 31.96138 -0.05302
C 14.71408 32.7119 0.02058
C 9.84125 29.80932 -0.01062
C 11.04611 30.56382 0.01364
C 11.04435 31.98891 -0.00719
C 2.48563 4.30795 -0.03996
C 2.47423 2.79425 0.01465
C 3.68755 2.15343 -0.00074
C 3.67952 0.73743 -0.00518
C 2.44864 0.00368 0.0086
C 4.90687 32.67042 -0.00643
C 6.14637 32.00775 0.017
C 6.15483 30.50909 -0.03113
C 4.94288 29.84612 -0.02566
C 3.69784 5.00891 0.01996
C 4.92837 28.40332 -0.00094
C 6.08473 26.34078 -0.00725
C 4.95279 25.57289 -0.05697
C 4.89006 24.11247 0.01087
C 6.11485 23.44748 -0.01343
C 6.09334 22.04517 0.00988
C 4.9475 21.25712 0.0276
C 4.9686 19.91513 0.01305
C 6.12119 19.14371 -0.00077
C 6.21285 17.72242 0.03368
C 6.13621 27.68257 0.02322
C 3.61779 6.37409 -0.00279
C 2.38364 7.20121 0.01226
C 2.46553 8.54893 0.03828
C 3.7336 30.52625 0.00208
C 2.46094 29.85444 0.01707
C 2.52907 28.37585 0.02769
C 3.67225 27.6495 -0.03291
C 3.72973 26.23013 -0.04999
C 2.37875 25.51272 0.04505
C 2.41674 24.20836 0.03284
C 3.63071 23.47816 -0.04307
C 3.66393 22.03447 0.03189
C 2.46799 21.34019 0.00031
C 2.47784 19.81197 -0.003
C 3.75121 19.2062 0.01402
C 3.73103 17.81447 0.02379
C 2.45234 17.09158 0.00907
C 2.45447 15.63443 0.00643
C 3.64829 14.84581 -0.01509
C 3.69735 13.47074 0.03267
C 2.49356 12.76766 0.02374
C 2.46479 11.33934 0.00402
C 3.7106 10.68483 0.0073
C 3.69921 9.30712 0.0174
C 4.89041 17.05474 -0.02929
C 4.96676 15.59403 -0.00966
C 6.21149 14.91235 -0.03337
C 6.19904 13.5374 0.01227
C 7.32209 19.75622 -0.00482
C 8.58845 19.14504 -0.01384
C 8.54371 17.73713 0.03693
C 7.32446 16.97935 0.01745
C 7.36237 15.60466 0.00488
C 8.59385 14.97073 -0.01004
C 8.59362 13.53055 -0.02896
C 7.41862 12.71997 -0.00131
C 7.35128 11.40356 -0.01118
C 8.59899 10.67885 -0.014
C 8.65769 9.26166 0.02147
C 7.3726 8.5275 0.00373
C 7.39861 7.11405 -0.00191
C 8.63648 6.43731 0.00438
C 8.61259 4.99713 0.01291
C 7.3374 4.30008 0.00093
C 7.40716 2.84023 0.00057
C 8.6157 2.18826 -0.01634
C 8.6146 0.77444 -0.00334
C 7.44598 0.0633 0.02339
C 9.7837 32.73234 0.01641
C 7.32784 21.33226 0.02888
C 19.70678 25.54941 0.00667
C 8.5132 22.01363 0.00685
C 7.37868 24.19564 0.00393
C 4.95755 12.76468 0.00873
C 4.94558 11.36401 -0.00049
C 6.13261 10.69741 0.00848
C 6.11904 9.29883 -0.01303
C 4.93534 8.54724 -0.01378
C 4.82352 7.11962 0.02635
C 6.09767 6.44008 0.0127
C 6.15192 4.96463 0.01396
C 4.94749 4.25902 0.01849
C 4.8584 2.90325 -0.01142
C 6.11849 2.16075 -0.00562
C 6.20851 0.77585 -0.00494
C 4.94732 34.03623 0.00054
C 7.36765 32.70675 0.03007
C 8.54426 31.9512 -0.00095
C 8.60928 30.5266 0.01572
C 7.36066 29.84547 -0.04848
C 7.25598 28.40003 -0.00892
C 8.5314 27.71425 -0.01362
C 8.58832 26.22928 -0.0008
C 7.3724 25.63035 0.0288
C 8.53634 23.44292 0.00895
C 3.68521 31.99808 -0.00561
C 19.66836 24.10103 0.00143
C 20.89889 21.97295 0.00364
C 30.74794 4.9888 0.07705
C 29.56138 4.28922 0.0103
C 29.53763 2.87293 0.02108
C 30.72315 2.11666 0.00716
C 30.73047 0.71017 0.00307
C 29.50413 34.07748 0.00346
C 31.91015 32.71108 0.01713
C 33.20915 31.92791 -0.01694
C 33.21175 30.47935 0.01428
C 30.79996 6.35536 0.01908
C 31.95464 29.85658 -0.02142
C 33.19734 27.72893 0.00026
C 33.20533 26.30047 0.00682
C 31.95744 25.54714 -0.01779
C 31.98107 24.12101 0.03794
C 33.18867 23.47279 0.01927
C 33.25383 22.06992 0.01574
C 31.99603 21.21128 -0.02383
C 32.01143 19.82849 -0.01429
C 33.2344 19.18154 -0.0136
C 31.95846 28.44466 0.0544
C 29.52951 7.04618 0.01518
C 29.4597 8.53112 -0.00971
C 30.78388 9.16161 -0.03735
C 30.68196 31.91354 0.04266
C 30.69713 30.5285 0.01324
C 29.46012 29.79708 0.0014
C 29.48654 28.43015 0.00924
C 30.72685 27.69042 0.02326
C 30.76072 26.19465 0.00261
C 29.54575 25.52733 0.03265
C 29.52071 24.16031 -0.02049
C 30.81313 23.39891 -0.01854
C 30.79172 21.92903 -0.01415
C 29.55889 21.28754 -0.03039
C 29.55934 19.84917 0.01836
C 30.72854 19.13077 0.03531
C 30.74764 17.71267 -0.00669
C 29.48979 17.04605 0.0101
C 29.49661 15.6346 0.01705
C 30.77778 14.99693 -0.0405
C 30.7361 13.53036 -0.01303
C 29.56272 12.84245 -0.01461
C 29.47043 11.39519 -0.02155
C 30.74277 10.66238 -0.00944
C 33.20806 17.74695 0.00594
C 29.58393 32.69514 0.01177
C 32.02267 17.02232 -0.02474
C 33.18655 14.84336 0.00455
C 0.00055 21.33589 -0.02213
C 0.01598 19.91111 0.01951
C 1.24238 19.22701 -0.01678
C 1.17301 17.66834 0.01223
C 34.36458 16.99634 0.00648
C 34.42142 15.58343 0.02114
C 1.28488 14.90645 -0.02957
C 1.17124 13.44119 0.00343
C 34.36243 12.79488 -0.02656
C 1.21585 21.98929 0.02712
C 34.39323 11.34873 -0.02442
C 1.21195 9.18913 -0.00583
C 34.41966 8.59553 -0.02302
C 34.4313 7.15884 -0.02849
C 1.2139 6.39146 0.02931
C 1.22058 4.93681 0.00628
C 34.3618 4.23116 -0.0345
C 34.35444 2.82799 -0.00931
C 1.23578 2.14354 -0.00939
C 1.27742 0.67354 -0.00468
C 1.241 10.63907 -0.00027
C 1.165 23.48157 0.00723
C 34.42526 24.20989 0.03076
C 34.41531 25.64495 -0.05239
C 33.15229 13.47958 -0.00644
C 31.93376 12.77238 -0.01839
C 31.96648 11.40466 0.00137
C 33.19968 10.65612 0.00199
C 33.20924 9.23623 0.04381
C 31.94607 8.49515 0.02806
C 31.96422 7.0919 0.01504
C 33.17905 6.43619 -0.00069
C 33.1807 5.04982 0.04926
C 31.9767 4.22433 -0.03838
C 31.95996 2.79016 0.00349
C 33.13315 2.11137 -0.00323
C 33.21675 0.73475 -0.00841
C 32.00573 34.07994 0.0001
C 34.36414 32.61195 -0.02927
C 1.18136 31.94423 -0.01404
C 1.2398 30.54423 0.01027
C 0.0016 29.77687 0.01831
C 34.4128 28.39393 -0.01037
C 1.28858 27.67237 -0.00439
C 1.24605 26.25838 -0.00598
C 32.04134 15.64651 0.00369
C 27.03065 34.0569 -0.00416
C 28.30227 0.63511 0.01699
C 28.28033 2.09634 0.01799
C 22.17969 8.53756 -0.01185
C 22.14124 7.10114 0.01126
C 23.43666 6.35941 0.01852
C 23.319 4.98964 -0.00381
C 22.05098 4.26215 0.03046
C 22.08992 2.82214 0.0296
C 23.37033 2.06267 0.03374
C 23.33074 0.71028 -0.02845
C 22.18538 34.06185 -0.03213
C 23.31149 9.15395 -0.01662
C 24.49483 32.66883 0.02239
C 25.76616 30.47261 0.02734
C 24.57965 29.78438 -0.0055
C 24.59027 28.36518 0.01515
C 25.85835 27.65244 -0.00225
C 25.87297 26.21252 0.00071
C 24.62608 25.55101 -0.01107
C 24.58642 24.13535 -0.01586
C 25.85123 23.36337 -0.01971
C 25.78782 21.983 -0.02118
C 25.76982 31.97582 0.01153
C 23.44816 17.69848 -0.00478
C 23.4251 19.07891 0.01511
C 22.11606 19.82906 0.00199
C 19.69655 21.32689 -0.00831
C 19.63042 7.07336 -0.02957
C 20.91442 6.39635 -0.04422
C 20.91892 4.98437 0.00654
C 19.64022 4.26661 -0.00703
C 19.697 2.85524 -0.04076
C 20.95236 2.104 -0.00652
C 20.98395 0.72429 0.0058
C 19.71673 0.0432 -0.00865
C 22.1582 32.67711 0.00675
C 23.39953 31.87578 -0.00311
C 23.35394 30.51875 0.00742
C 22.15804 29.84575 -0.01594
C 22.08641 28.46085 0.0106
C 23.3281 27.68733 -0.01154
C 23.3595 26.2929 -0.01721
C 22.10236 25.58819 -0.02422
C 22.11858 24.13569 0.01277
C 23.39511 23.47387 0.00096
C 23.33809 22.06466 -0.01527
C 22.12432 21.22366 0.01087
C 24.58684 21.35184 0.00733
C 24.64354 19.90175 -0.00178
C 25.87827 19.12991 0.00768
C 25.7185 17.70367 -0.0276
C 27.08484 24.16884 -0.01654
C 28.27563 23.4111 -0.00037
C 28.44517 22.04698 -0.0032
C 27.03662 21.32402 0.00622
C 27.06521 19.87448 -0.02815
C 28.2993 19.13681 -0.00942
C 28.16572 17.7543 0.00487
C 26.93097 17.05952 0.00826
C 26.99194 15.62628 -0.00294
C 28.23699 14.90666 0.00152
C 28.29 13.44668 0.01257
C 26.94751 12.72881 0.02316
C 27.03519 11.35715 0.04185
C 28.25487 10.67531 0.00194
C 28.23359 9.2151 -0.00621
C 26.98997 8.54574 0.02611
C 27.05618 7.11063 0.02198
C 28.28139 6.36467 0.01094
C 28.26113 4.96216 0.00235
C 27.07292 4.17074 0.01495
C 27.0823 2.79828 0.01259
C 27.06989 25.56027 -0.00218
C 20.90518 23.43258 -0.017
C 28.39237 26.35685 -0.00802
C 27.06549 28.41056 0.00996
C 24.49673 16.91933 0.03005
C 24.5657 15.5576 -0.04078
C 25.78484 14.96901 0.02117
C 25.76065 13.54416 0.02737
C 24.6284 12.68914 -0.00498
C 24.69825 11.49617 0.00135
C 25.83257 10.64997 0.03102
C 25.8007 9.24077 0.02555
C 24.54824 8.47398 0.01423
C 24.58554 7.12035 -0.00285
C 25.84362 6.38326 -0.009
C 25.77575 4.93692 -0.01199
C 24.55931 4.22821 -0.00229
C 24.56876 2.80727 -0.00938
C 25.81372 2.12646 -0.0264
C 25.83279 0.70916 -0.01154
C 24.62063 0.00548 0.00684
C 27.05468 32.70335 -0.01052
C 28.32838 31.99209 -0.01679
C 28.24814 30.5354 0.00367
C 27.03278 29.78593 0.04306
C 28.28797 27.72996 0.00195
C 2.46558 32.72025 -0.01977
