353
Graphene
C 34.37226 0.00173 0.01295
C 14.69018 15.54969 -0.00114
C 16.02425 14.89123 0.00228
C 16.04435 13.581 0.00798
C 16.05262 2.06697 0.00422
C 16.03785 0.70657 0.0351
C 14.83007 0.06067 -0.03113
C 17.20752 32.69079 0.02098
C 18.38046 31.9131 0.01848
C 14.70381 17.05316 -0.02696
C 18.45956 30.49513 -0.00619
C 17.26524 28.31935 0.00889
C 18.49475 27.64683 -0.00481
C 18.47073 26.27202 0.00979
C 17.24813 25.5899 0.01443
C 17.30336 24.0917 0.03505
C 18.45652 23.40621 -0.02815
C 18.35492 21.93407 -0.04147
C 17.17055 21.18903 -0.05302
C 17.25882 29.80882 -0.02162
C 17.22205 19.81061 0.00213
C 15.9618 17.68599 -0.00368
C 14.6903 19.86942 -0.01957
C 13.41734 17.67545 0.02162
C 12.18932 17.06394 0.0076
C 12.45878 15.8012 0.01241
C 13.50874 15.0315 -0.01454
C 13.66429 0.72801 0.01945
C 12.37521 0.16814 0.01416
C 14.71284 32.67427 0.03542
C 15.89331 31.98186 0.02299
C 15.91123 19.10476 -0.0108
C 16.03281 30.47547 0.00244
C 14.8161 28.44235 0.05265
C 16.05856 27.69771 -0.01952
C 16.04014 26.31309 -0.02813
C 14.78625 25.56482 0.00374
C 14.80003 24.0965 0.00052
C 15.97888 23.39509 -0.03682
C 15.95491 21.98654 0.01965
C 14.69933 21.27646 0.02058
C 14.78858 29.88824 -0.01717
C 13.49604 19.13321 -0.0014
C 18.44217 19.13608 -0.00066
C 17.16788 17.0733 0.00028
C 19.66729 24.15585 -0.017
C 20.90727 23.51014 0.00364
C 20.86593 22.04647 -0.00831
C 19.65697 21.2669 -0.02957
C 19.67338 19.86692 -0.04422
C 20.86263 19.17899 0.00654
C 20.9406 17.74388 -0.00703
C 19.74449 17.02949 -0.04076
C 19.7122 25.5778 0.00143
C 19.61907 15.54755 -0.00652
C 20.92102 13.47434 -0.00865
C 19.62248 12.81261 0.00675
C 19.81152 11.40465 -0.00311
C 20.9125 10.68508 0.00742
C 19.7685 2.68293 -0.01594
C 20.85141 2.10911 0.0106
C 20.87155 0.65151 -0.01154
C 19.62728 34.05911 -0.01721
C 20.81902 14.89502 0.0058
C 18.52497 17.73833 -0.00289
C 20.91274 26.26579 0.00667
C 19.7108 28.37902 0.00755
C 17.17631 15.70751 -0.02213
C 18.393 14.94783 0.03698
C 18.45843 13.57277 -0.00109
C 17.06817 12.71533 -0.00491
C 17.26115 11.32909 0.03338
C 18.43243 10.65353 -0.0258
C 18.48401 9.33755 -0.0331
C 18.46976 6.31116 -0.00316
C 20.8476 27.68759 -0.0054
C 18.19939 5.10094 0.02188
C 17.11348 2.8639 0.02691
C 18.50304 2.1716 -0.01581
C 18.46297 0.72608 0.01452
C 17.22067 34.07547 0.04892
C 19.56879 32.62953 -0.00111
C 20.84082 31.9694 -0.03557
C 20.83233 30.51268 0.03754
C 19.6341 29.79509 0.01739
C 17.331 4.24742 -0.01979
C 12.28128 19.86534 0.00415
C 12.3194 21.29306 -0.02162
C 13.51464 22.04206 0.01363
C 6.05451 30.51201 0.03007
C 4.86111 29.7977 -0.00095
C 4.85408 28.3629 0.01572
C 6.20149 27.71025 -0.04848
C 6.18283 26.319 -0.00892
C 4.98133 25.57196 -0.01362
C 5.01837 24.12974 -0.0008
C 6.16099 23.50626 0.0288
C 6.09949 31.91474 0.00054
C 6.18436 22.04205 0.00393
C 4.93837 19.89723 0.00685
C 6.12701 19.2453 0.02888
C 6.14987 17.71107 -0.00482
C 4.95308 16.98403 -0.01384
C 4.72998 15.67788 0.03693
C 6.13058 0.70982 0.01745
C 4.909 0.07781 0.00488
C 7.36223 32.67453 -0.01004
C 4.90102 21.33857 0.00895
C 8.59179 32.00319 -0.02896
C 4.86082 32.75248 -0.00494
C 3.65979 0.69404 -0.01142
C 3.6429 30.55496 0.00988
C 2.47149 29.81086 0.0276
C 2.41806 28.3798 0.01305
C 3.66107 27.63082 -0.00077
C 3.73761 26.29849 0.03368
C 2.4629 25.55716 -0.02929
C 2.54062 24.12938 -0.00966
C 3.72596 23.46543 -0.03337
C 2.37963 0.0699 -0.00562
C 3.71447 22.06864 0.01227
C 2.41681 19.96328 -0.00049
C 3.68191 19.27946 0.00848
C 3.64776 17.79948 -0.01303
C 2.46884 17.01224 -0.01378
C 2.45433 15.60948 0.02635
C 3.68527 14.89898 0.0127
C 2.42537 2.90815 0.01396
C 3.49558 2.06244 0.01849
C 2.33763 21.3477 0.00873
C 8.5385 30.57805 -0.00131
C 7.33452 29.85214 -0.01118
C 7.39911 28.38393 -0.014
C 11.14003 21.97911 -0.01111
C 9.853 21.308 -0.01275
C 9.80703 19.91867 0.00985
C 11.02694 19.20766 -0.02245
C 10.90549 17.78134 -0.00428
C 9.84728 16.95834 0.03101
C 11.1545 0.65665 -0.01536
C 9.81577 0.21318 -0.02689
C 11.04521 23.32515 0.02841
C 12.23975 32.69887 -0.01046
C 13.50085 30.4895 0.02819
C 12.29735 29.83231 0.00165
C 12.33757 28.40235 -0.02971
C 13.55746 27.68147 0.02894
C 13.51859 26.18792 -0.01789
C 12.26018 25.56519 0.00444
C 12.24176 24.05225 -0.00925
C 13.54192 23.41616 0.01877
C 13.4695 32.02223 -0.00891
C 9.85429 24.14043 0.00943
C 9.81127 25.55458 0.00406
C 11.0683 26.23785 0.03592
C 8.63223 27.75189 0.02147
C 8.60075 26.25749 0.00373
C 7.39478 25.56169 -0.00191
C 7.36596 24.16642 0.00438
C 8.6522 23.46282 0.01291
C 8.64253 22.03223 0.00093
C 7.37347 21.336 0.00057
C 7.36567 19.9013 -0.01634
C 8.62053 19.23627 -0.00334
C 8.60816 17.67902 0.02339
C 7.37058 17.25281 0.01641
C 8.61015 0.76399 -0.00719
C 7.38984 0.16831 0.01364
C 9.8127 32.70266 -0.01062
C 11.02514 32.06001 -0.00033
C 10.99981 30.60895 0.03589
C 9.78127 29.92229 -0.02759
C 9.85325 28.4281 0.0402
C 11.12616 27.74645 0.00572
C 22.0666 32.69393 -0.02422
C 3.61602 32.02314 -0.01343
C 23.34298 32.00986 0.01277
C 22.03381 29.79679 -0.01527
C 30.65298 0.73777 -0.01694
C 29.45531 34.06536 0.01428
C 31.92979 32.68862 -0.02142
C 33.14419 32.01328 0.0544
C 33.16931 30.55514 0.00026
C 32.00419 29.83865 0.00682
C 31.98342 28.39778 -0.01779
C 33.20127 27.70539 0.03794
C 30.75544 2.15114 0.01713
C 33.16194 26.25501 0.01927
C 31.91929 24.1221 -0.02383
C 33.1884 23.42061 -0.01429
C 33.09352 22.03293 -0.0136
C 31.89823 21.2464 0.00594
C 31.93338 19.87017 -0.02474
C 33.13826 19.15242 0.00369
C 33.23142 17.77907 0.00455
C 31.96722 17.03678 -0.00644
C 31.89221 25.55664 0.01574
C 31.95406 15.66684 -0.01839
C 29.51858 2.89527 0.00346
C 30.74181 4.98463 0.00716
C 29.50054 24.06941 -0.03039
C 30.7331 23.44189 0.01836
C 30.72219 22.01902 0.03531
C 29.54141 21.31684 -0.00669
C 29.52515 19.84153 0.0101
C 30.6695 19.13631 0.01705
C 30.7374 17.75858 -0.0405
C 29.5249 17.04417 -0.01303
C 29.52513 4.30243 0.00307
C 29.5507 15.60616 -0.01461
C 30.75959 13.51111 -0.00944
C 29.58667 12.71497 -0.03735
C 29.52013 11.34057 -0.00971
C 30.7807 10.71043 0.01518
C 30.73127 9.26621 0.01908
C 29.5738 8.45475 0.07705
C 29.58843 7.00726 0.0103
C 30.83648 6.34428 0.02108
C 30.74569 14.90388 -0.02155
C 29.50322 25.52367 -0.01415
C 33.1901 14.94425 0.00137
C 32.01784 12.82501 0.04381
C 1.09517 22.03999 -0.01678
C 34.28293 21.32362 0.01223
C 34.36318 19.974 0.00648
C 1.20533 19.23956 0.02114
C 1.21061 17.77557 -0.02957
C 34.41356 17.0284 0.00343
C 34.40887 15.58979 -0.02656
C 1.30639 14.83413 -0.02442
C 1.21991 23.41274 0.01951
C 1.2969 13.53668 -0.00027
C 34.4221 11.40886 -0.02302
C 0.00158 8.41751 -0.02849
C 34.41664 7.12738 0.02931
C 1.21145 4.91654 0.00628
C 0.0028 4.32399 -0.0345
C 0.00503 2.84473 -0.00931
C 1.22336 2.2166 -0.00939
C 1.19039 0.821 -0.00468
C 0.04912 12.76494 -0.00583
C 33.23324 13.54106 0.00199
C 0.04333 24.13632 -0.02213
C 1.24609 26.26374 0.00723
C 32.01196 11.33208 0.02806
C 33.31427 10.59857 0.01504
C 33.32721 9.21721 -0.00069
C 32.00747 8.55977 0.04926
C 32.01067 7.14167 -0.03838
C 33.17578 6.31118 0.00349
C 33.15855 4.99557 -0.00323
C 31.96458 4.22222 -0.00841
C 0.00692 25.54529 0.02712
C 31.95937 2.77297 0.0001
C 33.13427 0.65044 -0.01404
C 31.8461 34.04869 0.01027
C 34.41659 32.6985 0.01831
C 1.17989 31.89937 -0.01037
C 1.20994 30.56139 -0.00439
C 34.3512 29.85936 -0.00598
C 34.40566 28.4137 -0.05239
C 1.17921 27.69743 0.03076
C 33.23653 2.06727 -0.02927
C 30.72814 26.26019 -0.01854
C 30.7759 27.75256 -0.02049
C 29.53533 28.4732 0.03265
C 25.82372 31.94682 -0.01586
C 25.79044 30.49172 -0.01971
C 24.51064 29.90127 -0.02118
C 24.54507 28.49047 0.00733
C 25.83223 27.81677 -0.00178
C 25.79345 26.34732 0.00768
C 24.58686 25.55282 -0.0276
C 24.59169 24.09519 0.03005
C 24.59476 32.68384 -0.01107
C 25.85649 23.47681 -0.04078
C 24.59865 21.25538 0.02737
C 24.48749 19.82277 -0.00498
C 25.78457 19.18649 0.00135
C 25.8385 17.71777 0.03102
C 24.63467 17.0288 0.02555
C 24.48401 15.53654 0.01423
C 25.80631 14.84672 -0.00285
C 25.79394 13.39991 -0.009
C 25.8397 22.02621 0.02117
C 24.56321 12.70101 -0.01199
C 22.06696 34.05159 0.00071
C 23.4351 2.17305 0.01515
C 22.121 28.43796 0.01087
C 23.38216 27.68908 0.00199
C 23.3359 26.31367 0.01511
C 22.13214 25.59704 -0.00478
C 22.18768 24.15577 -0.01662
C 23.40477 23.39265 -0.01185
C 23.31302 21.98951 0.01126
C 22.08059 21.34243 0.01852
C 23.26623 0.7698 -0.00225
C 22.03692 19.89704 -0.00381
C 23.35345 17.71141 0.0296
C 22.14172 17.0576 0.03374
C 22.06532 15.65481 -0.02845
C 23.2597 14.87054 -0.03213
C 23.2698 13.38201 0.02239
C 22.1296 12.64558 0.01153
C 22.19769 11.20332 0.02734
C 23.38693 10.57675 -0.0055
C 23.32795 19.12948 0.03046
C 24.64205 11.25037 -0.00229
C 25.80168 10.58921 -0.00938
C 25.82879 9.26236 -0.0264
C 28.33565 13.45752 0.00194
C 27.08596 12.74535 -0.00621
C 27.07233 11.29046 0.02611
C 28.32793 10.52733 0.02198
C 28.27372 9.11923 0.01094
C 26.89128 8.37547 0.00235
C 27.10854 6.93143 0.01495
C 28.28843 6.35188 0.01259
C 28.30329 14.88645 0.04185
C 28.32369 4.9591 0.01799
C 27.0086 2.84573 -0.00416
C 28.27807 2.15095 0.01177
C 28.24488 0.76438 0.04266
C 27.01326 34.07575 0.01324
C 29.55451 32.71117 0.0014
C 30.73188 31.96694 0.00924
C 30.73346 30.594 0.02326
C 29.52524 29.88798 0.00261
C 27.01237 4.26968 0.01699
C 27.09186 15.52864 0.02316
C 27.0633 17.04962 0.01257
C 28.33945 17.70736 0.00152
C 25.93429 5.11947 -0.01154
C 24.48384 2.88807 0.00684
C 25.74448 2.25877 -0.01052
C 25.74736 0.75764 -0.01679
C 24.56285 0.01172 0.00367
C 27.06808 32.6575 0.04306
C 28.28707 31.98213 0.00996
C 28.31993 30.55599 0.00195
C 27.0801 29.86789 -0.00802
C 27.09379 28.36979 -0.00218
C 28.31062 27.66657 -0.01654
C 28.25047 26.26484 -0.00037
C 27.00154 25.59064 -0.0032
C 27.05783 24.12855 0.00622
C 28.34185 23.50368 -0.02815
C 28.27497 22.07304 -0.00942
C 27.16948 21.34554 0.00487
C 27.04929 19.92546 0.00826
C 28.26045 19.15136 -0.00294
C 23.30591 30.63362 0.00096
C 2.38875 32.66197 0.01087
