314
Graphene
C 34.36882 34.06005 0.01295
C 11.09915 27.6698 -0.0258
C 11.06258 26.30101 -0.0331
C 9.82782 25.60392 -0.00316
C 9.88564 24.11602 0.02188
C 11.17022 23.48821 -0.01979
C 11.13258 22.01267 0.02691
C 9.81666 21.2798 -0.01581
C 9.80038 19.92158 0.01452
C 11.13719 19.20841 0.04892
C 11.18359 17.83494 -0.00111
C 9.9015 17.14295 -0.03557
C 9.89394 15.71017 0.03754
C 11.04191 15.05747 0.01739
C 11.06626 13.60607 0.00755
C 9.85746 12.82235 -0.0054
C 9.76436 28.45704 0.03338
C 9.79382 29.82563 -0.00491
C 11.07268 30.57947 -0.00109
C 11.08116 31.97303 0.03698
C 8.67362 14.98664 0.01848
C 8.61528 13.52724 -0.00619
C 7.34834 12.79556 -0.02162
C 7.36363 11.39861 0.00889
C 8.55905 10.67561 -0.00481
C 8.50912 9.31528 0.00979
C 7.31418 8.57252 0.01443
C 9.84437 11.29246 0.00667
C 7.32319 7.13698 0.03505
C 8.57534 5.02987 -0.04147
C 7.31367 4.26102 -0.05302
C 7.24991 2.84852 0.00213
C 8.53665 2.16688 -0.00066
C 8.54299 0.71687 -0.00289
C 7.30748 0.01721 0.00028
C 9.81197 32.66078 -0.02213
C 8.57542 6.39847 -0.02815
C 7.41935 15.62994 0.02098
C 11.12878 10.69383 0.00143
C 9.72603 8.53461 0.00364
C 12.36501 20.01768 0.01087
C 13.51137 19.25456 0.00199
C 13.6948 17.8472 0.01511
C 12.46579 17.1333 -0.00478
C 12.31765 15.70799 -0.01662
C 13.39426 14.83421 -0.01185
C 13.46404 13.65825 0.01126
C 12.28746 12.90791 0.01852
C 12.32535 11.43067 -0.00381
C 13.58366 10.83375 0.03046
C 13.60624 9.41898 0.0296
C 12.29716 8.70909 0.03374
C 12.29599 7.17537 -0.02845
C 13.4845 6.50284 -0.03213
C 13.42278 5.11955 0.02239
C 12.33967 21.34851 -0.01527
C 13.61801 22.16611 0.00096
C 13.66437 23.54149 0.01277
C 12.37982 24.25469 -0.02422
C 9.78839 7.14997 -0.00831
C 11.03945 6.40127 -0.02957
C 10.94369 5.02095 -0.04422
C 9.77879 4.2672 0.00654
C 9.75832 2.83845 -0.00703
C 10.9507 2.16127 -0.04076
C 10.95955 0.78779 -0.00652
C 11.00103 9.32611 -0.017
C 9.72912 0.02345 0.0058
C 13.544 31.99417 0.00675
C 13.56052 30.55669 -0.00311
C 12.32768 29.86406 0.00742
C 12.34386 28.42177 -0.01594
C 13.54914 27.65965 0.0106
C 13.59414 26.29422 -0.01154
C 12.3105 25.6434 -0.01721
C 12.31532 32.72968 -0.00865
C 7.46486 17.05102 -0.03113
C 8.63708 17.76862 0.0351
C 8.61063 19.15983 0.00422
C 3.55896 9.31329 0.03589
C 2.34903 8.64428 -0.02759
C 2.32283 7.20313 0.0402
C 3.59017 6.45124 0.00572
C 3.6308 4.98998 0.03592
C 2.39107 4.35986 0.00406
C 2.31279 2.90885 0.00943
C 3.55137 2.14504 0.02841
C 3.58699 0.75327 -0.01111
C 2.3835 0.02918 -0.01275
C 4.85005 32.64048 0.00985
C 6.06413 31.91443 -0.02245
C 6.07003 30.50949 -0.00428
C 4.81076 29.78303 0.03101
C 4.87652 28.36625 -0.01536
C 3.63929 10.75416 -0.00033
C 2.37342 11.46041 -0.01062
C 2.43894 12.84582 0.01364
C 3.6891 13.57242 -0.00719
C 3.63031 30.541 -0.01004
C 2.4164 29.87202 -0.02896
C 2.42648 28.3851 -0.00131
C 3.59294 27.66509 -0.01118
C 3.67851 26.26497 -0.014
C 2.44824 25.559 0.02147
C 2.47307 24.16023 0.00373
C 6.09382 27.71829 -0.02689
C 3.71021 23.41123 -0.00191
C 2.41689 21.32748 0.01291
C 2.42562 19.87025 0.00093
C 3.665 19.188 0.00057
C 3.61517 17.77241 -0.01634
C 2.39973 17.16091 -0.00334
C 2.37639 15.67999 0.02339
C 3.5968 14.99256 0.01641
C 3.64505 22.04444 0.00438
C 6.17997 26.18783 -0.01046
C 4.96392 25.56905 -0.00891
C 4.92113 24.12572 0.02819
C 6.02208 2.06565 -0.01717
C 6.03371 0.69376 0.05265
C 4.74665 34.07159 -0.01952
C 7.35387 32.63305 -0.02813
C 8.58675 31.96819 0.00374
C 8.56089 30.60986 0.00052
C 7.29801 29.86728 -0.03682
C 4.78847 2.80762 0.00244
C 7.30758 28.36056 0.01965
C 8.65308 26.31894 -0.01957
C 7.38803 25.5357 -0.0108
C 7.45001 24.15809 -0.00368
C 8.6903 23.43331 -0.02696
C 8.57167 21.97976 -0.00114
C 7.37355 21.35896 0.00228
C 7.37477 19.82825 0.00798
C 8.57338 27.7203 0.02058
C 12.18003 4.40732 0.01153
C 4.83793 4.18034 0.02299
C 6.06706 6.40665 0.01416
C 6.13008 23.38261 0.00165
C 6.08888 22.00277 -0.02971
C 4.91208 21.33139 0.02894
C 4.92263 19.85152 -0.01789
C 6.15948 19.10363 0.00444
C 6.1578 17.71046 -0.00925
C 4.89022 16.97244 0.01877
C 6.0687 4.92888 0.03542
C 4.92911 15.54342 0.01363
C 6.13243 13.46837 0.00415
C 4.91628 12.78496 -0.0014
C 4.85231 11.40398 0.02162
C 6.06256 10.724 0.0076
C 6.05015 9.27275 0.01241
C 4.84833 8.5933 -0.01454
C 4.90449 7.17562 0.01945
C 6.10744 14.8778 -0.02162
C 12.16315 2.90745 0.02734
C 13.36731 2.22024 -0.0055
C 13.47274 0.81025 0.01515
C 31.90589 24.30877 0.03794
C 33.12048 23.55453 0.01927
C 33.12056 22.16002 0.01574
C 31.91652 21.42177 -0.02383
C 31.79406 19.9932 -0.01429
C 33.04131 19.3132 -0.0136
C 33.01432 17.82361 0.00594
C 31.69716 17.13136 -0.02474
C 31.82593 15.72667 0.00369
C 33.02922 15.01224 0.00455
C 33.16061 13.60589 -0.00644
C 31.94113 12.85793 -0.01839
C 31.94102 11.58295 0.00137
C 33.04391 10.67436 0.00199
C 32.99817 9.20938 0.04381
C 31.89245 25.63672 -0.01779
C 33.132 26.24733 0.00682
C 33.20891 27.71185 0.00026
C 31.94166 28.31447 0.0544
C 29.33201 20.05069 -0.02155
C 30.50012 19.21732 -0.00944
C 30.66848 17.90748 -0.03735
C 30.182 8.8174 -0.00971
C 29.73643 7.61082 0.01518
C 30.62833 6.45034 0.01908
C 30.46667 4.99209 0.07705
C 31.72789 8.51216 0.02806
C 29.1243 4.27164 0.0103
C 30.60054 2.19434 0.00716
C 30.58605 0.70392 0.00307
C 29.44318 33.93223 0.00346
C 31.85375 32.58168 0.01713
C 33.10856 31.91295 -0.01694
C 33.08123 30.50407 0.01428
C 31.75113 29.71603 -0.02142
C 29.39083 2.87616 0.02108
C 31.90046 7.07758 0.01504
C 33.10305 6.46436 -0.00069
C 33.05166 4.96676 0.04926
C 34.25803 17.13241 0.00648
C 34.24082 15.70004 0.02114
C 1.11188 15.02046 -0.02957
C 1.11455 13.57071 0.00343
C 34.31519 12.80512 -0.02656
C 34.41731 11.3815 -0.02442
C 1.19717 10.68228 -0.00027
C 1.1329 17.89174 0.01223
C 1.11604 9.2401 -0.00583
C 34.29289 7.13583 -0.02849
C 1.116 6.47885 0.02931
C 1.10231 5.03361 0.00628
C 34.26152 4.28572 -0.0345
C 34.29199 2.85532 -0.00931
C 1.07788 2.17358 -0.00939
C 1.15309 0.72213 -0.00468
C 34.25553 8.54072 -0.02302
C 29.43035 21.45117 -0.01461
C 1.15592 19.21755 -0.01678
C 34.3239 21.34816 -0.02213
C 31.79063 4.28514 -0.03838
C 31.84879 2.84542 0.00349
C 33.05474 2.1364 -0.00323
C 33.12019 0.72061 -0.00841
C 31.92201 34.03118 0.0001
C 34.37325 32.66289 -0.02927
C 1.13835 31.93918 -0.01404
C 34.36049 19.95703 0.01951
C 1.12621 30.53386 0.01027
C 34.36798 28.44906 -0.01037
C 1.20596 27.69501 -0.00439
C 1.21753 26.25642 -0.00598
C 34.37352 25.60979 -0.05239
C 34.40032 24.17356 0.03076
C 1.19958 23.42379 0.00723
C 1.11985 22.02755 0.02712
C 34.36624 29.8045 0.01831
C 3.61033 31.91175 0.00488
C 30.69352 22.19496 -0.01303
C 29.41055 24.31561 0.01705
C 15.98875 2.17734 -0.009
C 15.90894 0.80128 -0.01199
C 14.71469 0.09367 -0.00229
C 17.16465 32.70046 -0.00938
C 18.22065 31.88687 -0.0264
C 16.66475 20.32912 -0.01154
C 18.4454 4.846 0.00684
C 17.22968 4.32907 -0.01052
C 17.24921 2.9235 -0.01679
C 18.52854 2.17394 0.00367
C 18.44439 0.71393 0.04306
C 17.21549 0.04751 0.00996
C 19.47646 32.40624 0.00195
C 20.77927 31.8482 -0.00802
C 19.67395 4.26415 -0.00218
C 14.65814 2.92192 -0.00285
C 14.76759 4.38462 0.01423
C 15.96487 5.07979 0.02555
C 15.97202 6.49401 0.03102
C 12.26151 0.07949 -0.00225
C 14.7307 32.70524 0.00071
C 16.00428 31.97899 -0.01107
C 16.12374 30.64601 -0.01586
C 15.00693 29.75559 -0.01971
C 14.72175 28.36073 -0.02118
C 14.83204 25.58077 0.00733
C 19.72399 2.87553 -0.01654
C 15.00728 24.0962 -0.00178
C 16.14034 21.91414 -0.0276
C 14.80527 21.37615 0.03005
C 14.69336 19.97195 -0.04078
C 15.98205 19.38255 0.02117
C 15.09351 17.49532 0.02737
C 14.56277 8.53548 -0.00498
C 14.82422 7.21054 0.00135
C 16.03936 23.16926 0.00768
C 20.89023 1.98725 -0.00037
C 20.86714 0.64441 -0.0032
C 19.66871 33.90092 0.00622
C 28.14953 31.85677 0.01177
C 28.02069 30.29167 0.04266
C 26.63979 29.85367 0.01324
C 28.36098 23.48878 0.0014
C 28.18814 22.14386 0.00924
C 27.09431 21.17217 0.02326
C 27.85711 4.83624 0.00261
C 26.97015 32.57973 -0.00416
C 26.78358 4.18841 0.03265
C 28.21077 2.01121 -0.01854
C 28.22263 0.59505 -0.01415
C 27.01109 34.00546 -0.03039
C 29.38142 32.45954 0.01836
C 30.57084 31.75127 0.03531
C 30.44969 30.36751 -0.00669
C 29.2017 29.74432 0.0101
C 27.06137 2.70085 -0.02049
C 30.65702 23.57603 -0.0405
C 24.62876 34.05167 0.01699
C 25.7925 1.97709 0.01259
C 22.02933 32.5818 -0.02815
C 23.39326 31.70661 -0.00942
C 24.69607 21.93152 0.00487
C 22.19486 2.46402 0.00826
C 23.4958 2.26037 -0.00294
C 23.39753 0.68515 0.00152
C 22.12683 0.0216 0.01257
C 25.80435 0.66978 0.01799
C 24.58995 32.6601 0.02316
C 25.49602 30.47934 0.00194
C 23.86148 30.36336 -0.00621
C 23.83428 22.70488 0.02611
C 25.5752 24.24359 0.02198
C 25.79052 21.24409 0.01094
C 25.32126 4.27495 0.00235
C 24.80317 2.86954 0.01495
C 25.74005 31.93139 0.04185
C 2.3815 32.70932 0.01745
