385
Graphene
C 34.43058 0.09555 0.01295
C 12.23432 7.14411 0.02162
C 13.55788 6.42378 0.0076
C 13.53921 5.03717 0.01241
C 12.29967 4.39711 -0.01454
C 12.31778 2.89099 0.01945
C 13.50476 2.06666 0.01416
C 13.52705 0.68994 0.03542
C 12.2618 0.02169 0.02299
C 14.78602 32.66069 0.00244
C 12.28251 8.54622 -0.0014
C 15.94844 31.90076 -0.01717
C 14.79312 29.82977 -0.01952
C 14.82836 28.40651 -0.02813
C 16.01994 27.71445 0.00374
C 16.03127 26.18816 0.00052
C 14.74705 25.48772 -0.03682
C 14.73568 24.08207 0.01965
C 15.98482 23.28245 0.02058
C 15.95417 21.89761 -0.01957
C 14.74928 21.24047 -0.0108
C 15.98166 30.51401 0.05265
C 14.70951 19.88994 -0.00368
C 13.53149 9.31028 0.00415
C 12.26588 11.44796 0.01363
C 12.28961 32.67233 0.00943
C 13.4992 31.89804 0.02841
C 13.57759 30.50196 -0.01111
C 12.16345 29.78718 -0.01275
C 12.38752 28.41716 0.00985
C 13.56528 27.73373 -0.02245
C 13.57872 26.27032 -0.00428
C 12.33829 25.64187 0.03101
C 12.35978 24.31734 -0.01536
C 13.42759 10.74143 -0.02162
C 13.49495 23.44979 -0.02689
C 12.27885 21.2954 -0.00891
C 12.31853 19.82905 0.02819
C 13.48847 19.09061 0.00165
C 13.49342 17.72676 -0.02971
C 12.23505 17.00086 0.02894
C 12.26443 15.62485 -0.01789
C 13.58455 14.90411 0.00444
C 13.62585 13.50683 -0.00925
C 12.30244 12.86764 0.01877
C 13.50878 21.95594 -0.01046
C 9.85888 0.13361 0.00406
C 15.98603 19.20385 -0.02696
C 14.7613 17.03513 0.00228
C 17.17637 24.06361 0.03338
C 18.42486 23.41713 -0.0258
C 18.48626 21.95179 -0.0331
C 17.3015 21.27337 -0.00316
C 17.23377 19.87799 0.02188
C 18.42284 19.15136 -0.01979
C 18.49573 17.72117 0.02691
C 17.20349 17.03564 -0.01581
C 17.22344 15.73546 0.01452
C 17.18599 25.50192 -0.00491
C 17.22323 8.47534 0.04892
C 18.42077 6.42228 -0.03557
C 18.44739 4.92373 0.03754
C 17.19551 4.2095 0.01739
C 17.22014 2.80925 0.00755
C 18.47733 2.15339 -0.0054
C 18.43142 0.67582 0.00667
C 17.21574 34.04459 0.00143
C 19.55643 32.67936 -0.017
C 20.78307 31.94356 0.00364
C 17.17909 7.07409 -0.00111
C 15.99566 17.84463 -0.00114
C 18.41707 26.25322 -0.00109
C 17.22847 28.38994 -0.02213
C 14.70714 15.6512 0.00798
C 16.12238 14.86983 0.00422
C 15.97842 13.52726 0.0351
C 14.88831 12.79236 -0.03113
C 14.74133 11.40529 0.02098
C 15.85443 10.60304 0.01848
C 16.14551 9.26672 -0.00619
C 14.72571 8.58525 -0.02162
C 14.73867 7.18506 0.00889
C 18.48008 27.6101 0.03698
C 15.95862 6.38337 -0.00481
C 14.71953 4.27889 0.01443
C 14.77449 2.85764 0.03505
C 15.96953 2.10475 -0.02815
C 15.89114 0.66904 -0.04147
C 14.72236 33.98654 -0.05302
C 17.21418 32.65888 0.00213
C 18.427 31.87785 -0.00066
C 18.37 30.44547 -0.00289
C 17.1583 29.8047 0.00028
C 15.96294 4.97923 0.00979
C 11.07508 0.80751 0.03592
C 11.17101 2.17028 0.00572
C 9.85058 2.85701 0.0402
C 4.74127 32.79144 -0.03113
C 6.13084 22.01738 -0.02566
C 4.9318 21.29085 -0.00094
C 4.87589 19.90352 0.02322
C 6.10931 19.18094 -0.00725
C 6.13216 17.73745 -0.05697
C 4.90878 17.04764 0.01087
C 4.85664 15.65796 -0.01343
C 6.10791 14.97868 0.00988
C 2.47754 34.0245 0.017
C 6.10821 13.56694 0.0276
C 4.9379 11.41661 -0.00077
C 6.10223 10.74326 0.03368
C 6.08069 9.31036 -0.02929
C 4.8733 8.52176 -0.00966
C 4.85666 7.11093 -0.03337
C 6.11448 6.42441 0.01227
C 6.13277 4.97923 0.00873
C 4.93322 4.25739 -0.00049
C 4.95901 2.81044 0.00848
C 4.93849 12.82956 0.01305
C 6.14506 2.14907 -0.01303
C 3.69175 0.74081 -0.00643
C 2.44974 2.87696 -0.00518
C 2.46823 24.23704 0.03189
C 3.4325 23.50971 0.00031
C 3.68423 22.09941 -0.003
C 2.49977 21.35516 0.01402
C 2.49338 19.9184 0.02379
C 3.71487 19.10805 0.00907
C 3.59277 17.69233 0.00643
C 2.45154 17.09864 -0.01509
C 2.41874 15.6032 0.03267
C 3.68301 2.13632 0.0086
C 3.63524 14.92962 0.02374
C 2.43237 12.74396 0.0073
C 2.49237 11.37215 0.0174
C 3.72865 10.70506 0.03828
C 3.7135 9.26217 0.01226
C 2.54186 8.49522 -0.00279
C 2.38817 7.06978 0.01996
C 3.63177 6.34266 -0.03996
C 3.71315 4.89804 0.01465
C 2.41821 4.23382 -0.00074
C 3.66292 13.5457 0.00402
C 6.12348 0.71979 -0.01378
C 4.92436 0.0171 0.02635
C 7.29952 32.77798 0.0127
C 9.92145 24.03572 -0.00131
C 11.10043 23.42959 -0.01118
C 11.07831 21.91516 -0.014
C 9.8032 21.30815 0.02147
C 9.80114 19.81199 0.00373
C 11.08439 19.11361 -0.00191
C 11.03533 17.77452 0.00438
C 9.79794 17.00472 0.01291
C 9.81061 15.58041 0.00093
C 11.11801 30.62777 -0.02896
C 11.03728 14.94709 0.00057
C 9.81526 12.83301 -0.00334
C 9.79869 11.40052 0.02339
C 10.99702 10.69306 0.01641
C 11.08085 9.29145 -0.00719
C 9.8598 8.56741 0.01364
C 9.87673 7.14267 -0.01062
C 11.0912 6.41993 -0.00033
C 11.10682 4.998 0.03589
C 9.85112 4.24318 -0.02759
C 11.10128 13.47337 -0.01634
C 10.9938 31.99889 -0.01004
C 9.81622 32.83311 0.00488
C 7.38892 0.01135 0.01745
C 8.7163 22.10321 0.01396
C 7.35032 21.45293 0.01849
C 7.34216 19.93488 -0.01142
C 8.52024 19.15803 -0.00562
C 8.58293 17.79173 -0.00494
C 7.33058 17.13302 0.00054
C 7.34443 15.69195 0.03007
C 8.55964 14.96799 -0.00095
C 8.5563 13.56268 0.01572
C 7.37462 12.87229 -0.04848
C 7.34358 11.41697 -0.00892
C 8.59665 10.71107 -0.01362
C 8.5856 9.24864 -0.0008
C 7.30424 8.60829 0.0288
C 7.34874 7.17315 0.00393
C 8.6226 6.44131 0.00895
C 8.65815 5.0105 0.00685
C 7.37267 4.32207 0.02888
C 7.44511 2.92299 -0.00482
C 8.6079 2.19039 -0.01384
C 8.59329 0.77771 0.03693
C 20.82544 30.54815 -0.00831
C 3.71048 32.06528 -0.04307
C 19.62008 29.74952 -0.02957
C 20.94592 27.60881 0.00654
C 29.46126 4.28223 0.0103
C 29.4317 2.79696 0.02108
C 30.68114 2.14057 0.00716
C 30.69067 0.70532 0.00307
C 29.48955 34.05465 0.00346
C 31.99038 32.69241 0.01713
C 33.239 31.99734 -0.01694
C 33.16264 30.60484 0.01428
C 31.90761 29.8824 -0.02142
C 30.71102 4.91061 0.07705
C 31.91685 28.418 0.0544
C 33.23141 26.33039 0.00682
C 32.05444 25.52908 -0.01779
C 31.94761 24.095 0.03794
C 33.23381 23.43311 0.01927
C 33.19258 22.04414 0.01574
C 31.93144 21.35219 -0.02383
C 32.02724 19.94507 -0.01429
C 33.20686 19.17906 -0.0136
C 33.18941 17.72145 0.00594
C 33.20044 27.72208 0.00026
C 31.97297 17.10356 -0.02474
C 30.70354 6.35416 0.01908
C 29.49955 8.46459 -0.00971
C 29.49092 29.81139 0.0014
C 29.45027 28.43206 0.00924
C 30.7318 27.63659 0.02326
C 30.74644 26.19413 0.00261
C 29.47862 25.61875 0.03265
C 29.56959 24.18715 -0.02049
C 30.75513 23.4563 -0.01854
C 30.72183 21.98613 -0.01415
C 29.44667 21.32488 -0.03039
C 29.4347 7.07089 0.01518
C 29.53682 19.95458 0.01836
C 30.78987 17.78295 -0.00669
C 29.57914 16.95358 0.0101
C 29.53806 15.53538 0.01705
C 30.75961 14.82182 -0.0405
C 30.76608 13.44302 -0.01303
C 29.51017 12.77578 -0.01461
C 29.44187 11.36944 -0.02155
C 30.69597 10.6736 -0.00944
C 30.69648 9.25543 -0.03735
C 30.78395 19.20153 0.03531
C 30.70053 30.56149 0.01324
C 31.9513 15.58798 0.00369
C 33.18424 13.43288 -0.00644
C 34.39003 21.29273 -0.02213
C 0.01756 19.87167 0.01951
C 1.25175 19.1787 -0.01678
C 1.16137 17.8035 0.01223
C 34.39854 17.10487 0.00648
C 34.39443 15.59573 0.02114
C 1.20809 14.95488 -0.02957
C 1.22569 13.47705 0.00343
C 0.00528 12.83569 -0.02656
C 1.2179 22.06471 0.02712
C 34.42598 11.32417 -0.02442
C 1.18375 9.18822 -0.00583
C 34.40818 8.53765 -0.02302
C 34.35421 7.07626 -0.02849
C 1.13847 6.40799 0.02931
C 1.22753 4.95059 0.00628
C 34.38598 4.32985 -0.0345
C 34.35748 2.80489 -0.00931
C 1.15639 2.1195 -0.00939
C 1.25444 0.75116 -0.00468
C 1.22459 10.59829 -0.00027
C 33.20099 14.9123 0.00455
C 1.21935 23.48591 0.00723
C 34.42623 25.52918 -0.05239
C 31.96775 12.74493 -0.01839
C 31.93627 11.35275 0.00137
C 33.20962 10.646 0.00199
C 33.16707 9.27285 0.04381
C 31.93876 8.58219 0.02806
C 31.93448 7.15489 0.01504
C 33.12256 6.42262 -0.00069
C 33.15047 4.96857 0.04926
C 31.93739 4.22979 -0.03838
C 34.39338 24.17921 0.03076
C 31.93436 2.81141 0.00349
C 33.17444 0.76199 -0.00841
C 31.95367 34.07015 0.0001
C 0.03567 32.70784 -0.02927
C 1.18604 31.86886 -0.01404
C 1.15154 30.48206 0.01027
C 0.00459 29.83734 0.01831
C 0.10491 28.37215 -0.01037
C 1.23255 27.5551 -0.00439
C 1.13327 26.35038 -0.00598
C 33.17718 2.13227 -0.00323
C 30.74414 31.96661 0.04266
C 29.53082 32.68681 0.01177
C 27.01967 34.01586 -0.00416
C 23.3693 26.27527 -0.00381
C 22.16928 25.52761 0.03046
C 22.17686 24.06691 0.0296
C 23.43056 23.34099 0.03374
C 23.40273 21.9533 -0.02845
C 22.21206 21.19652 -0.03213
C 22.13785 19.74552 0.02239
C 23.29727 19.06094 0.01153
C 23.52 17.76287 0.02734
C 23.41211 27.65445 0.01852
C 23.19084 6.32606 -0.0055
C 22.15384 4.16669 -0.00225
C 22.11751 2.78005 0.00071
C 23.40021 2.12679 -0.01107
C 23.38015 0.75336 -0.01586
C 22.19395 0.00751 -0.01971
C 24.54002 32.68157 -0.02118
C 25.70317 31.91901 0.00733
C 25.75029 30.48472 -0.00178
C 24.57427 29.78428 0.00768
C 23.22949 4.93668 0.01515
C 24.58598 28.3811 -0.0276
C 22.13355 28.46474 0.01126
C 23.37518 30.56665 -0.01662
C 20.9376 26.27664 -0.00703
C 19.70558 25.50869 -0.04076
C 19.69074 24.02191 -0.00652
C 20.94976 23.38771 0.0058
C 20.92117 21.95183 -0.00865
C 19.70911 21.28003 0.00675
C 19.68067 19.82954 -0.00311
C 20.89494 19.04953 0.00742
C 20.80022 17.73754 -0.01594
C 22.08354 29.87262 -0.01185
C 19.73941 17.1223 0.0106
C 20.82417 6.40332 -0.01721
C 20.95428 5.06525 -0.02422
C 19.68817 4.33381 0.01277
C 19.7427 2.87943 0.00096
C 20.90854 2.02432 -0.01527
C 20.89636 0.70644 0.01087
C 19.64367 0.01433 0.00199
C 22.02805 32.68095 0.01511
C 23.26889 31.95181 -0.00478
C 19.69967 6.97435 -0.01154
C 25.81401 27.65113 0.03005
C 25.80316 26.26883 -0.04078
C 24.6029 25.50639 0.02117
C 28.35748 23.45365 0.00622
C 28.28252 22.02199 -0.02815
C 27.10711 21.33712 -0.00942
C 27.15388 19.84495 0.00487
C 28.37746 19.13313 0.00826
C 28.38044 17.68397 -0.00294
C 27.1114 17.06216 0.00152
C 27.10512 15.67629 0.01257
C 28.1531 14.8308 0.02316
C 27.04837 24.15199 -0.0032
C 28.30342 13.4085 0.04185
C 28.16681 9.28848 -0.00621
C 27.09946 8.4809 0.02611
C 26.92851 7.14367 0.02198
C 28.15983 6.41082 0.01094
C 28.16113 5.01008 0.00235
C 26.98384 4.25 0.01495
C 27.02915 2.87152 0.01259
C 28.30221 2.10791 0.01799
C 28.233 0.65436 0.01699
C 28.27661 10.69505 0.00194
C 27.02461 25.64216 -0.00037
C 28.22926 26.27376 -0.01654
C 28.23742 27.67095 -0.00218
C 24.62617 24.05739 0.02737
C 25.89972 23.35265 -0.00498
C 25.8494 21.98382 0.00135
C 24.61694 21.21726 0.03102
C 24.59834 19.84302 0.02555
C 25.8843 19.22176 0.01423
C 25.83006 17.76144 -0.00285
C 24.67763 17.18488 -0.009
C 24.37398 6.8497 -0.01199
C 25.67281 6.41764 -0.00229
C 25.72668 4.95592 -0.00938
C 24.55738 4.23822 -0.0264
C 24.56284 2.85087 -0.01154
C 25.80682 2.13566 0.00684
C 25.83075 0.77195 -0.01052
C 24.60471 0.04074 -0.01679
C 26.91499 32.60289 0.00367
C 28.19501 31.90632 0.04306
C 28.23284 30.52979 0.00996
C 27.03952 29.81078 0.00195
C 27.04183 28.39554 -0.00802
C 19.68171 28.29701 -0.04422
C 2.42949 32.5552 0.03284
