304
Graphene
C 34.27658 0.19335 0.01295
C 14.78746 2.90874 -0.01581
C 16.04004 2.10197 0.01452
C 15.91395 0.66616 0.04892
C 14.69287 34.05159 -0.00111
C 17.14449 32.6056 -0.03557
C 18.44227 31.82635 0.03754
C 18.3686 30.39193 0.01739
C 17.06385 29.72522 0.00755
C 17.08212 28.2578 -0.0054
C 18.17718 27.50417 0.00667
C 18.40656 26.12978 0.00143
C 17.08446 12.87558 -0.017
C 17.1957 11.49604 0.00364
C 18.48812 10.73537 -0.00831
C 18.53663 9.22871 -0.02957
C 14.77122 4.38555 0.02691
C 17.32757 8.48612 -0.04422
C 16.02517 5.01708 -0.01979
C 14.69368 7.13049 -0.00316
C 12.23357 4.22278 0.03505
C 12.2519 2.87263 -0.02815
C 13.48433 2.2224 -0.04147
C 13.54014 0.72683 -0.05302
C 12.42885 34.03996 0.00213
C 14.4713 32.71199 -0.00066
C 15.74101 31.97632 -0.00289
C 15.9989 30.57421 0.00028
C 15.29604 14.96472 -0.02213
C 15.84176 13.7897 0.03698
C 14.82133 12.71566 -0.00109
C 14.79626 11.27128 -0.00491
C 15.9943 10.55902 0.03338
C 16.1455 9.20222 -0.0258
C 14.79523 8.45543 -0.0331
C 16.01192 6.41365 0.02188
C 13.47647 4.95793 0.01443
C 17.27218 7.08428 0.00654
C 18.43226 4.90858 -0.04076
C 20.95128 5.00242 -0.01185
C 19.69075 4.2929 0.01126
C 19.62156 2.82648 0.01852
C 20.84597 2.05078 -0.00381
C 20.93445 0.60516 0.03046
C 19.65799 34.04538 0.0296
C 22.2941 32.53513 0.03374
C 23.66387 31.94645 -0.02845
C 23.80533 30.43437 -0.03213
C 22.18082 29.76162 0.02239
C 22.13065 28.37895 0.01153
C 23.356 27.66057 0.02734
C 23.33726 26.18343 -0.0055
C 22.15829 25.47592 0.01515
C 22.18549 11.29951 -0.00225
C 20.78058 6.43005 -0.01662
C 18.45435 6.30718 -0.00703
C 19.65866 7.13081 -0.00478
C 20.94488 9.38997 0.00199
C 17.22441 4.26634 -0.00652
C 17.25228 2.81764 0.0058
C 18.4285 2.15046 -0.00865
C 18.46434 0.73865 0.00675
C 17.22637 34.07066 -0.00311
C 19.64585 32.6517 0.00742
C 20.93456 31.86696 -0.01594
C 20.90244 30.38556 0.0106
C 19.60156 29.72488 -0.01154
C 19.56243 28.25757 -0.01721
C 20.82379 27.59635 -0.02422
C 20.88555 26.01641 0.01277
C 19.61989 25.60705 0.00096
C 19.6192 11.44854 -0.01527
C 20.92924 10.93713 0.01087
C 19.74463 8.50652 0.01511
C 23.46542 10.88402 0.00071
C 13.47377 6.38377 0.00979
C 12.28487 8.60029 0.00889
C 6.11502 13.59719 -0.01275
C 4.91775 12.83493 0.00985
C 4.92377 11.42993 -0.02245
C 6.13352 10.72524 -0.00428
C 6.10191 9.26857 0.03101
C 4.88148 8.47109 -0.01536
C 4.80086 7.10688 -0.02689
C 6.09296 6.41532 -0.01046
C 6.07311 4.96344 -0.00891
C 4.77988 4.32059 0.02819
C 4.75713 2.9254 0.00165
C 6.00498 2.2071 -0.02971
C 5.94466 0.64428 0.02894
C 4.63383 0.04114 -0.01789
C 7.27968 15.72364 0.00444
C 6.06597 15.19927 -0.01111
C 8.61399 15.10561 -0.00925
C 4.77777 15.64988 0.02841
C 3.48352 0.79199 0.00406
C 2.70701 17.00847 0.00093
C 2.40344 15.64169 0.00057
C 3.58374 14.86814 -0.01634
C 3.68865 13.54173 -0.00334
C 2.40906 12.80089 0.02339
C 2.37121 11.4187 0.01641
C 3.69193 10.72462 -0.00719
C 3.64056 9.29032 0.01364
C 2.41869 8.60325 -0.01062
C 2.40523 7.15575 -0.00033
C 3.58506 6.43455 0.03589
C 3.54103 5.05416 -0.02759
C 2.36384 4.35731 0.0402
C 2.36691 2.89729 0.00572
C 3.51027 2.20744 0.03592
C 2.27449 0.10932 0.00943
C 12.29097 7.15411 -0.00481
C 8.60272 13.52951 0.01877
C 7.36398 11.45185 -0.02162
C 9.78777 7.10899 0.02058
C 10.98549 6.39819 -0.01957
C 11.00556 4.9389 -0.0108
C 9.7794 4.18799 -0.00368
C 9.74053 2.77264 -0.02696
C 11.02301 2.11808 -0.00114
C 11.07255 0.5411 0.00228
C 9.77893 0.01004 0.00798
C 12.51835 15.66787 0.00422
C 13.85284 14.92379 0.0351
C 13.62996 13.42625 -0.03113
C 12.35114 12.72639 0.02098
C 12.3535 11.32632 0.01848
C 13.50845 10.56244 -0.00619
C 13.57465 9.1526 -0.02162
C 9.90453 8.58569 0.01965
C 7.38002 12.88209 0.01363
C 11.13235 9.26839 -0.03682
C 9.90338 11.38117 0.00374
C 8.58545 10.76609 0.00415
C 8.63975 9.29961 -0.0014
C 7.39849 8.60258 0.02162
C 7.30565 7.13235 0.0076
C 8.55431 6.39308 0.01241
C 8.58487 4.88665 -0.01454
C 7.27962 4.29318 0.01945
C 7.2603 2.90898 0.01416
C 8.51203 2.12514 0.03542
C 8.53364 0.56473 0.02299
C 7.16744 34.06569 0.00244
C 9.8505 15.63393 -0.01717
C 11.23217 15.13654 0.05265
C 11.12005 13.40396 -0.01952
C 9.90217 12.79043 -0.02813
C 11.04119 10.63609 0.00052
C 23.4717 9.33955 -0.01107
C 22.19762 8.68483 -0.01586
C 22.05824 7.17884 -0.01971
C 33.03496 26.32996 0.01574
C 31.80085 25.59562 -0.02383
C 31.7913 24.18915 -0.01429
C 33.11602 23.47133 -0.0136
C 33.16035 22.08431 0.00594
C 31.90746 21.43268 -0.02474
C 31.90414 19.95608 0.00369
C 33.18318 19.23713 0.00455
C 33.22888 17.83199 -0.00644
C 31.96431 17.05138 -0.01839
C 31.91406 15.62073 0.00137
C 33.08011 14.93777 0.00199
C 33.11103 13.54138 0.04381
C 31.94512 12.76538 0.02806
C 31.86818 11.3904 0.01504
C 33.04887 27.7555 0.01927
C 33.15364 10.71802 -0.00069
C 31.7464 28.53965 0.03794
C 33.05559 30.59933 0.00682
C 29.44633 12.80328 -0.00971
C 29.48689 11.37458 0.01518
C 30.6512 10.67522 0.01908
C 30.63466 9.24168 0.07705
C 29.41108 8.52073 0.0103
C 29.42497 7.14656 0.02108
C 30.68531 6.42316 0.00716
C 30.72261 5.00745 0.00307
C 29.47459 4.37066 0.00346
C 29.40899 2.9831 0.01713
C 30.73459 2.19377 -0.01694
C 30.59754 0.7024 0.01428
C 29.28651 0.03615 -0.02142
C 31.79827 32.70055 0.0544
C 33.10439 32.05894 0.00026
C 31.76254 29.92471 -0.01779
C 30.74875 13.54871 -0.03735
C 33.11807 9.32457 0.04926
C 31.87107 7.17835 0.00349
C 34.33878 15.73047 0.02114
C 1.13841 14.8983 -0.02957
C 1.18209 13.54695 0.00343
C 34.38355 12.77243 -0.02656
C 34.39374 11.45638 -0.02442
C 1.12771 10.67844 -0.00027
C 1.18976 9.27493 -0.00583
C 34.37115 8.591 -0.02302
C 34.34181 7.17558 -0.02849
C 1.14998 6.45138 0.02931
C 1.18679 5.07078 0.00628
C 34.38887 4.4172 -0.0345
C 34.31006 2.94337 -0.00931
C 1.12393 2.25684 -0.00939
C 1.12359 0.77727 -0.00468
C 0.066 17.09529 0.00648
C 31.87583 8.55534 -0.03838
C 1.48591 17.82711 0.01223
C 0.092 19.98652 0.01951
C 33.11237 6.50415 -0.00323
C 33.09045 5.09417 -0.00841
C 31.9635 4.30155 0.0001
C 31.91061 2.86668 -0.02927
C 33.09263 2.21001 -0.01404
C 33.02607 0.83919 0.01027
C 31.8187 0.10628 0.01831
C 34.35409 32.84076 -0.01037
C 1.18461 32.06531 -0.00439
C 1.15498 30.7186 -0.00598
C 0.00254 29.85061 -0.05239
C 34.22122 28.49124 0.03076
C 34.23163 25.49282 0.00723
C 34.24088 24.33456 0.02712
C 34.35456 21.30863 -0.02213
C 1.20252 19.19295 -0.01678
C 30.69721 14.92883 -0.00944
C 29.44681 15.61585 -0.02155
C 29.35241 17.0498 -0.01461
C 24.57798 8.56677 -0.0264
C 24.56306 7.18981 -0.01154
C 25.71522 6.49516 0.00684
C 25.77037 5.03554 -0.01052
C 24.51348 4.31496 -0.01679
C 24.55441 2.94782 0.00367
C 25.85204 2.26222 0.04306
C 25.72773 0.86513 0.00996
C 24.61414 0.021 0.00195
C 26.49382 32.74219 -0.00802
C 27.72711 31.99812 -0.00218
C 27.71905 30.50367 -0.01654
C 26.43362 29.77374 -0.00037
C 26.87128 28.41875 -0.0032
C 28.06958 27.79296 0.00622
C 25.81995 9.287 -0.00938
C 28.15691 26.33438 -0.02815
C 25.8511 10.71014 -0.00229
C 25.72993 13.28718 -0.009
C 23.2272 6.39695 -0.02118
C 23.22734 5.01353 0.00733
C 22.12347 4.20317 -0.00178
C 22.1508 2.77295 0.00768
C 23.37312 2.04053 -0.0276
C 23.43888 0.61277 0.03005
C 22.19249 33.97377 -0.04078
C 25.0421 32.75386 0.02117
C 24.91057 29.71131 0.02737
C 24.62207 28.35372 -0.00498
C 25.74811 27.53156 0.00135
C 25.83407 26.20982 0.03102
C 24.5694 25.45047 0.02555
C 24.72414 24.03036 0.01423
C 25.83273 23.43519 -0.00285
C 24.7957 11.60609 -0.01199
C 27.01211 25.50705 -0.00942
C 27.04488 24.12646 0.00487
C 28.26901 23.46069 0.00826
C 29.1477 32.69994 0.00924
C 30.53249 32.0008 0.02326
C 30.51268 30.60577 0.00261
C 29.22198 29.95146 0.03265
C 29.30194 28.56395 -0.02049
C 30.47969 27.87999 -0.01854
C 30.56909 26.40676 -0.01415
C 29.41336 25.67489 -0.03039
C 29.43627 24.23022 0.01836
C 30.58281 23.48457 0.03531
C 30.63255 22.02653 -0.00669
C 29.427 21.28914 0.0101
C 29.38524 19.88699 0.01705
C 30.61122 19.16984 -0.0405
C 30.69181 17.74645 -0.01303
C 26.88561 0.08336 0.0014
C 28.08226 0.79053 0.01324
C 28.24681 2.22505 0.04266
C 27.0221 2.97173 0.01177
C 28.17235 22.01951 -0.00294
C 26.85628 21.35473 0.00152
C 28.20903 19.13912 0.01257
C 28.2304 17.89274 0.02316
C 26.77951 15.38332 0.04185
C 28.17389 14.94941 0.00194
C 28.19709 13.49817 -0.00621
C 4.2723 16.95931 0.01291
C 27.00288 12.74168 0.02611
C 28.28337 10.61671 0.01094
C 28.24452 9.17766 0.00235
C 26.944 8.51002 0.01495
C 26.99431 7.11449 0.01259
C 28.1986 6.44337 0.01799
C 28.28845 5.0875 0.01699
C 27.06934 4.40429 -0.00416
C 27.10621 11.34275 0.02198
C 2.5209 32.80782 0.00438
