349
Graphene
C 34.35939 0.02937 0.01295
C 10.00992 15.58289 0.00422
C 11.25535 14.78017 0.0351
C 11.09633 13.45245 -0.03113
C 9.93292 12.7201 0.02098
C 9.91875 11.24365 0.01848
C 11.05997 10.44883 -0.00619
C 11.23927 9.1232 -0.02162
C 9.97921 8.50835 0.00889
C 9.90232 7.13657 -0.00481
C 11.1927 6.41334 0.00979
C 11.13529 4.93928 0.01443
C 9.90057 4.26071 0.03505
C 9.81965 2.9024 -0.02815
C 11.0316 2.21928 -0.04147
C 11.05574 0.78725 -0.05302
C 9.86707 0.04224 0.00213
C 12.19957 32.81596 -0.00066
C 9.85912 17.02169 0.00798
C 11.00291 17.83417 0.00228
C 11.01196 19.22502 -0.00114
C 9.79844 19.84331 -0.02696
C 8.63708 4.94075 -0.01454
C 7.3986 4.26901 0.01945
C 7.43711 2.85082 0.01416
C 8.60188 2.13059 0.03542
C 8.62865 0.73435 0.02299
C 7.33548 34.07154 0.00244
C 9.74969 32.73255 -0.01717
C 10.973 32.06205 0.05265
C 13.48432 32.02847 -0.00289
C 10.94384 30.5935 -0.01952
C 9.76422 28.37179 0.00374
C 11.02442 27.67703 0.00052
C 11.08457 26.29279 -0.03682
C 9.78809 25.68436 0.01965
C 9.7867 24.20979 0.02058
C 10.93874 23.45558 -0.01957
C 10.94744 22.03096 -0.0108
C 9.76994 21.34467 -0.00368
C 9.74889 29.82379 -0.02813
C 13.46853 30.54978 0.00028
C 12.21164 29.90247 -0.02213
C 12.2939 28.49999 0.03698
C 14.70889 29.85504 -0.00831
C 14.69495 28.45346 -0.02957
C 15.90023 27.74783 -0.04422
C 15.93064 26.31031 0.00654
C 14.66031 25.51284 -0.00703
C 14.64574 24.13775 -0.04076
C 15.86457 23.39215 -0.00652
C 15.88353 22.00349 0.0058
C 16.015 30.50508 0.00364
C 14.75739 21.31577 -0.00865
C 16.04362 19.21728 -0.00311
C 15.95485 17.83306 0.00742
C 14.92467 17.13388 -0.01594
C 14.97366 4.44929 0.0106
C 14.71412 2.83318 -0.01154
C 15.85757 2.09581 -0.01721
C 15.9962 0.69995 -0.02422
C 14.7892 34.05437 0.01277
C 14.82222 19.94466 0.00675
C 8.61497 6.42651 0.01241
C 16.02037 31.91206 -0.017
C 12.23202 0.0777 0.00667
C 13.53075 27.68996 -0.00109
C 13.48133 26.29462 -0.00491
C 12.19288 25.45915 0.03338
C 12.27347 24.03073 -0.0258
C 13.43733 23.31132 -0.0331
C 13.44892 22.00276 -0.00316
C 12.21066 21.34436 0.02188
C 12.27679 19.93311 -0.01979
C 14.80714 32.59925 0.00143
C 13.52669 19.25583 0.02691
C 12.42015 16.99706 0.01452
C 12.40311 15.67641 0.04892
C 12.5004 6.9699 -0.00111
C 13.73809 4.97357 -0.03557
C 12.35166 4.20867 0.03754
C 12.27558 2.83921 0.01739
C 13.53238 2.109 0.00755
C 13.57928 0.67125 -0.0054
C 13.59521 17.77127 -0.01581
C 7.39195 7.03992 0.0076
C 7.38641 8.54927 0.02162
C 8.62557 9.15181 -0.0014
C 2.51577 7.12075 -0.00892
C 3.76788 6.4479 -0.01362
C 3.71237 5.01735 -0.0008
C 2.44846 4.30028 0.0288
C 2.42928 2.93766 0.00393
C 3.62111 2.22609 0.00895
C 3.51948 0.75918 0.00685
C 2.3569 34.00864 0.02888
C 2.49532 8.59249 -0.04848
C 4.85701 32.74021 -0.00482
C 6.05308 30.66886 0.03693
C 4.78487 29.81723 0.01745
C 4.80995 28.48287 0.00488
C 6.08304 27.72104 -0.01004
C 6.04272 26.30578 -0.02896
C 4.77459 25.61753 -0.00131
C 4.80886 24.20362 -0.01118
C 6.00845 23.44722 -0.014
C 6.06275 32.03772 -0.01384
C 6.1102 21.95313 0.02147
C 3.76074 9.30262 0.01572
C 2.49415 11.36031 0.03007
C 3.60944 30.53268 0.03368
C 2.36762 29.79611 -0.02929
C 2.33797 28.4618 -0.00966
C 3.59978 27.66691 -0.03337
C 3.55863 26.22351 0.01227
C 2.29648 25.58885 0.00873
C 2.29752 24.10719 -0.00049
C 3.56914 23.50401 0.00848
C 3.78224 10.72704 -0.00095
C 3.63315 22.03681 -0.01303
C 2.46691 19.80778 0.02635
C 3.63369 19.03615 0.0127
C 3.56225 17.68058 0.01396
C 2.28211 17.10468 0.01849
C 2.444 15.64442 -0.01142
C 3.65152 14.90139 -0.00562
C 3.74127 13.46627 -0.00494
C 2.46697 12.81303 0.00054
C 2.50037 21.32664 -0.01378
C 17.21165 32.57774 0.00096
C 4.84312 21.26105 0.00373
C 6.19314 19.17701 0.00438
C 7.27002 28.5239 -0.02245
C 8.4663 27.76675 -0.00428
C 8.51134 26.30689 0.03101
C 7.27548 25.55547 -0.01536
C 7.26542 24.15123 -0.02689
C 8.56025 23.48988 -0.01046
C 8.60639 22.04353 -0.00891
C 7.37855 21.27587 0.02819
C 7.25814 29.98119 0.00985
C 7.34471 19.91518 0.00165
C 8.5595 17.71488 0.02894
C 7.33637 17.04262 -0.01789
C 7.43542 15.63197 0.00444
C 8.71485 14.91836 -0.00925
C 8.67194 13.45279 0.01877
C 7.40191 12.75164 0.01363
C 7.41476 11.41524 -0.02162
C 8.66136 10.63163 0.00415
C 8.56509 19.13452 -0.02971
C 4.88476 19.87777 -0.00191
C 8.58262 30.64655 -0.01275
C 7.32627 32.72043 0.02841
C 6.06654 17.75448 0.01291
C 4.87942 17.04567 0.00093
C 4.90262 15.58905 0.00057
C 6.15059 14.88506 -0.01634
C 6.12258 13.43544 -0.00334
C 5.00639 12.75469 0.02339
C 4.97099 11.35827 0.01641
C 6.16782 10.63883 -0.00719
C 8.53938 31.96541 -0.01111
C 6.17581 9.2307 0.01364
C 4.96731 7.11508 -0.00033
C 6.17522 6.31384 0.03589
C 6.10375 4.8945 -0.02759
C 4.89216 4.20613 0.0402
C 4.90561 2.79888 0.00572
C 6.12628 2.14896 0.03592
C 6.0533 0.73965 0.00406
C 4.84399 0.01105 0.00943
C 5.04468 8.55015 -0.01062
C 3.60361 31.97799 -0.00077
C 18.3683 31.90605 -0.01527
C 17.30054 29.73051 0.00199
C 30.68894 0.74712 0.01428
C 29.47241 0.04347 -0.02142
C 31.96308 32.68378 0.0544
C 33.12447 31.88052 0.00026
C 33.01829 30.5086 0.00682
C 31.5746 29.66077 -0.01779
C 31.94388 28.33392 0.03794
C 33.15775 27.67175 0.01927
C 33.38841 22.37618 0.01574
C 31.95955 21.60596 -0.02383
C 31.91562 20.10446 -0.01429
C 33.13449 19.26891 -0.0136
C 33.07503 17.82775 0.00594
C 31.96776 17.05544 -0.02474
C 32.03333 15.58541 0.00369
C 33.26502 14.84082 0.00455
C 33.27457 13.40667 -0.00644
C 30.66717 2.11405 -0.01694
C 29.46809 2.85634 0.01713
C 29.44206 4.24343 0.00346
C 30.66068 4.98663 0.00307
C 29.45512 32.71026 0.01836
C 30.66566 31.96951 0.03531
C 30.62533 30.5994 -0.00669
C 30.73997 22.20192 0.0101
C 29.49959 19.88391 0.01705
C 30.76976 19.37147 -0.0405
C 30.72332 17.85083 -0.01303
C 29.4895 17.15622 -0.01461
C 31.98282 12.7445 -0.01839
C 29.52342 15.74257 -0.02155
C 30.76571 13.48658 -0.03735
C 29.50855 12.78747 -0.00971
C 29.55603 11.34536 0.01518
C 30.7936 10.63288 0.01908
C 30.86992 9.19175 0.07705
C 29.56591 8.57465 0.0103
C 29.47659 7.19059 0.02108
C 30.65561 6.39115 0.00716
C 30.75969 14.92241 -0.00944
C 31.96825 11.3364 0.00137
C 33.15698 10.63064 0.00199
C 33.2875 9.20335 0.04381
C 1.17332 19.27834 -0.01678
C 1.12789 17.86131 0.01223
C 34.31691 17.1382 0.00648
C 34.40201 15.65379 0.02114
C 1.27881 14.86765 -0.02957
C 1.2064 13.45808 0.00343
C 0.04302 12.69426 -0.02656
C 34.41652 11.3172 -0.02442
C 34.36445 19.90179 0.01951
C 1.25938 10.6844 -0.00027
C 0.07393 8.48205 -0.02302
C 34.42291 7.13771 -0.02849
C 1.20926 6.44254 0.02931
C 1.18208 5.06501 0.00628
C 34.42721 4.3292 -0.0345
C 0.03388 2.9347 -0.00931
C 1.21755 2.17467 -0.00939
C 1.16582 0.73422 -0.00468
C 1.27867 9.26741 -0.00583
C 26.93738 0.00985 -0.03039
C 34.42885 21.33435 -0.02213
C 1.09996 23.35031 0.00723
C 32.12314 8.41889 0.02806
C 32.01028 7.05945 0.01504
C 33.25005 6.37672 -0.00069
C 33.16382 4.95127 0.04926
C 31.92173 4.27549 -0.03838
C 31.9064 2.85811 0.00349
C 33.21138 2.15848 -0.00323
C 33.1154 0.75114 -0.00841
C 1.21581 21.95838 0.02712
C 31.93625 0.089 0.0001
C 1.17941 31.93011 -0.01404
C 1.11913 30.49431 0.01027
C 34.21106 29.82777 0.01831
C 34.3179 28.46946 -0.01037
C 1.08083 27.68832 -0.00439
C 1.03675 26.17164 -0.00598
C 34.20153 25.24708 -0.05239
C 34.09565 23.79999 0.03076
C 34.34611 32.61068 -0.02927
C 28.1936 0.75035 -0.01415
C 28.26473 2.23334 -0.01854
C 27.03855 2.91385 -0.02049
C 19.70174 19.91582 -0.02118
C 20.8886 19.12691 0.00733
C 20.79672 17.53553 -0.00178
C 19.47005 17.06514 0.00768
C 20.79978 4.82966 -0.0276
C 19.80622 4.15004 0.03005
C 19.48273 2.79959 -0.04078
C 20.81111 2.14241 0.02117
C 19.62348 21.37891 -0.01971
C 20.85606 0.72299 0.02737
C 22.14674 32.63272 0.00135
C 23.34251 32.1215 0.03102
C 22.13963 19.66206 0.02555
C 23.33098 19.17149 0.01423
C 23.36392 17.75649 -0.00285
C 22.12124 16.90619 -0.009
C 22.29214 15.51107 -0.01199
C 23.49561 14.94418 -0.00229
C 19.63437 0.09604 -0.00498
C 23.31429 6.39173 -0.00938
C 19.54295 28.35801 -0.01586
C 20.98075 30.49161 0.00071
C 17.20996 28.41973 0.01511
C 18.48113 27.5147 -0.00478
C 18.38771 26.0591 -0.01662
C 17.11167 25.56187 -0.01185
C 17.10416 24.11299 0.01126
C 18.36349 23.5719 0.01852
C 18.53772 22.15487 -0.00381
C 17.15269 21.4677 0.03046
C 19.77169 29.75457 -0.01107
C 17.24511 20.07225 0.0296
C 18.28617 17.85271 -0.02845
C 16.22221 4.38105 -0.03213
C 16.9592 2.9743 0.02239
C 18.28672 2.22816 0.01153
C 18.35987 0.69817 0.02734
C 17.28026 34.01416 -0.0055
C 19.67301 32.71189 0.01515
C 20.91717 32.02215 -0.00225
C 18.33907 19.24999 0.03374
C 18.39318 30.51629 0.01087
C 23.21749 4.94266 -0.0264
C 22.09111 2.8089 0.00684
C 24.61718 0.10907 -0.00621
C 26.99202 32.72683 0.02611
C 28.13638 32.09051 0.02198
C 28.36908 19.33686 0.01094
C 28.13827 17.98079 0.00235
C 27.04365 17.13439 0.01495
C 27.20583 15.6921 0.01259
C 28.30325 14.97092 0.01799
C 25.76904 0.82573 0.00194
C 28.28421 13.54174 0.01699
C 27.08597 11.36637 0.01177
C 28.32462 10.64284 0.04266
C 28.32636 9.26172 0.01324
C 27.12299 8.4983 0.0014
C 27.0636 7.0897 0.00924
C 28.2796 6.43129 0.02326
C 28.16761 4.99108 0.00261
C 26.9983 4.37909 0.03265
C 27.11699 12.7568 -0.00416
C 22.04426 4.31488 -0.01154
C 25.76182 2.24654 0.04185
C 24.53239 4.2919 0.01257
C 23.29834 2.10381 -0.01052
C 23.31644 0.76095 -0.01679
C 22.09504 0.02769 0.00367
C 24.4987 32.78431 0.04306
C 25.58759 19.18766 0.00996
C 25.8393 17.84716 0.00195
C 24.53261 17.06465 -0.00802
C 24.66344 15.6717 -0.00218
C 24.52151 2.87966 0.02316
C 25.91062 15.00203 -0.01654
C 24.6653 12.85269 -0.0032
C 24.70436 11.45415 0.00622
C 25.86681 10.60414 -0.02815
C 25.84941 9.22025 -0.00942
C 24.54887 8.57988 0.00487
C 24.51808 7.20127 0.00826
C 25.827 6.4038 -0.00294
C 25.74151 5.04488 0.00152
C 25.73305 13.5636 -0.00037
C 2.39315 32.64289 0.01305
