431
Graphene
C 34.42085 33.99148 0.01295
C 13.47697 23.50885 -0.01062
C 13.52333 21.99319 -0.00033
C 12.28869 21.31376 0.03589
C 12.3076 19.93835 -0.02759
C 13.49854 19.14329 0.0402
C 13.57673 17.76441 0.00572
C 12.46338 17.04098 0.03592
C 12.40711 15.60526 0.00406
C 13.32202 14.70265 0.00943
C 13.57384 13.37861 0.02841
C 12.28569 12.67259 -0.01111
C 12.39957 11.29438 -0.01275
C 13.68968 10.63917 0.00985
C 13.57074 9.22288 -0.02245
C 12.37883 8.43872 -0.00428
C 12.29902 7.07394 0.03101
C 13.48543 6.33902 -0.01536
C 13.54546 4.86625 -0.02689
C 12.21673 4.19909 -0.01046
C 12.25441 2.77267 -0.00891
C 13.48283 2.0872 0.02819
C 13.53677 0.77412 0.00165
C 12.35354 0.01223 -0.02971
C 12.36896 24.19084 0.01364
C 14.72677 32.71452 0.02894
C 12.19972 25.64875 -0.00719
C 13.52188 27.73093 0.02339
C 11.06028 17.72843 0.00393
C 9.81277 17.04439 0.00895
C 9.82007 15.67061 0.00685
C 11.05305 14.96047 0.02888
C 11.10741 13.50856 -0.00482
C 9.86359 12.92025 -0.01384
C 9.91504 11.4616 0.03693
C 11.09923 10.72767 0.01745
C 11.1246 9.27413 0.00488
C 9.86818 8.51823 -0.01004
C 9.81332 7.10237 -0.02896
C 11.11472 6.37259 -0.00131
C 11.07843 4.84713 -0.01118
C 9.80941 4.27882 -0.014
C 9.84512 2.8136 0.02147
C 10.98771 2.11421 0.00373
C 11.03115 0.73835 -0.00191
C 9.87521 0.07953 0.00438
C 12.23444 32.73472 0.01291
C 13.5188 32.01069 0.00093
C 13.42268 30.6166 0.00057
C 12.22635 29.84784 -0.01634
C 12.27733 28.3997 -0.00334
C 13.47913 26.28696 0.01641
C 11.09904 19.21327 0.0288
C 15.98355 31.95671 -0.01789
C 14.69119 29.91267 -0.00925
C 17.19448 28.40987 -0.00114
C 18.42045 27.62708 0.00228
C 18.44308 26.26593 0.00798
C 17.19904 25.53237 0.00422
C 17.26636 24.10361 0.0351
C 18.40889 23.40522 -0.03113
C 18.37883 21.96065 0.02098
C 17.13669 21.20939 0.01848
C 17.20221 19.78453 -0.00619
C 18.40684 19.07449 -0.02162
C 18.50764 17.62448 0.00889
C 18.25441 10.62717 -0.00481
C 18.41942 9.24142 0.00979
C 17.12878 8.56224 0.01443
C 17.12883 7.16977 0.03505
C 18.34841 6.40838 -0.02815
C 18.38691 5.03647 -0.04147
C 17.19149 4.28349 -0.05302
C 17.16739 2.85395 0.00213
C 18.41545 2.14214 -0.00066
C 18.46488 0.71627 -0.00289
C 17.2054 0.05953 0.00028
C 19.70948 32.61103 -0.02213
C 17.23265 29.85757 -0.02696
C 15.96342 30.55625 0.00444
C 18.41293 30.5365 -0.00368
C 17.19861 32.71287 -0.01957
C 14.74736 28.4997 0.01877
C 15.96379 27.70273 0.01363
C 15.94792 26.29212 -0.02162
C 14.76559 25.58267 0.00415
C 14.78192 24.12158 -0.0014
C 15.97836 23.39443 0.02162
C 15.93456 21.96585 0.0076
C 14.68548 21.33625 0.01241
C 14.78726 19.87756 -0.01454
C 15.96808 19.04031 0.01945
C 15.76318 17.67343 0.01416
C 14.94276 11.33698 0.03542
C 16.13239 10.74518 0.02299
C 15.95789 9.29438 0.00244
C 14.7478 8.52673 -0.01717
C 14.71039 7.04481 0.05265
C 15.95246 6.42724 -0.01952
C 15.99046 4.97842 -0.02813
C 14.78157 4.3043 0.00374
C 14.71252 2.8102 0.00052
C 15.97117 2.14113 -0.03682
C 15.99797 0.77428 0.01965
C 14.77812 0.06752 0.02058
C 18.43828 31.94857 -0.0108
C 20.89524 31.83805 0.03698
C 9.86944 19.86376 -0.0008
C 11.05668 22.03758 -0.00892
C 3.69915 2.22802 0.00081
C 3.68293 0.72626 0.00245
C 2.40359 0.02208 0.02728
C 4.95233 32.71761 -0.00039
C 6.16553 31.99694 0.0064
C 6.15061 30.55435 0.00211
C 4.87301 29.8801 -0.00449
C 4.89441 28.32819 -0.01979
C 6.20955 27.63489 0.02784
C 6.20837 26.21166 -0.01977
C 4.98344 25.59921 -0.00561
C 4.90892 24.21388 0.00208
C 6.13182 23.42734 0.01707
C 6.12909 22.08427 0.02769
C 4.90024 21.35453 -0.03291
C 4.98876 19.86114 -0.04999
C 6.13427 19.16741 0.04505
C 6.11362 17.75605 0.03284
C 4.80736 16.95541 -0.04307
C 4.7888 15.58255 0.03189
C 6.05068 14.94587 0.00031
C 6.08672 13.55448 -0.003
C 4.90142 12.73095 0.01402
C 2.46074 2.92487 -0.02805
C 4.96816 11.36517 0.02379
C 2.46063 4.34268 -0.01386
C 3.62796 6.40299 0.00558
C 3.69117 30.52105 -0.03672
C 2.48931 29.74552 0.01913
C 2.47302 28.37508 0.00267
C 3.72073 27.66073 0.00787
C 3.72264 26.2423 0.02426
C 2.45305 25.60835 0.01218
C 2.39635 24.1442 -0.01471
C 3.61873 23.40804 -0.02827
C 3.74396 22.04919 0.01078
C 2.47294 21.30533 -0.00112
C 2.47788 19.86365 0.03345
C 3.73704 19.07872 0.00748
C 3.67502 17.72087 0.00662
C 2.38118 16.96791 -0.0154
C 2.32682 15.51921 -0.01299
C 3.54128 14.86049 -0.00407
C 3.58473 13.41737 0.01138
C 2.3788 12.72257 0.03278
C 2.4757 11.32543 -0.00177
C 3.67224 10.68846 0.04421
C 3.60978 9.17789 0.00088
C 2.35503 8.50263 0.00828
C 2.381 7.10752 -0.02375
C 3.6785 5.06589 -0.0059
C 9.85073 21.30836 -0.01362
C 6.1737 10.63838 0.00907
C 4.86828 8.56296 -0.01509
C 7.33062 12.85661 -0.00077
C 7.34946 11.48946 0.03368
C 8.65226 10.76632 -0.02929
C 8.6589 9.34028 -0.00966
C 7.3355 8.64745 -0.03337
C 7.32484 7.17331 0.01227
C 8.56023 6.4686 0.00873
C 8.575 5.03676 -0.00049
C 7.40088 4.33354 0.00848
C 7.35465 2.84039 -0.01303
C 8.54731 2.12054 -0.01378
C 8.57636 0.71933 0.02635
C 7.35298 0.00726 0.0127
C 9.88872 32.72813 0.01396
C 11.03545 31.97985 0.01849
C 11.03183 30.54128 -0.01142
C 9.78444 29.82711 -0.00562
C 9.80486 28.47696 -0.00494
C 11.01305 27.75272 0.00054
C 11.02145 26.31026 0.03007
C 9.81385 25.66432 -0.00095
C 9.86424 24.17818 0.01572
C 11.11081 23.52743 -0.04848
C 8.56035 13.56439 0.01305
C 6.14531 9.2968 0.00643
C 8.577 14.97814 0.0276
C 7.35788 17.07086 -0.01343
C 4.88948 7.16693 0.03267
C 6.0714 6.44428 0.02374
C 6.09499 5.06116 0.00402
C 4.84574 4.24813 0.0073
C 4.95788 2.90958 0.0174
C 6.10138 2.17664 0.03828
C 6.10373 0.80183 0.01226
C 4.89712 0.04087 -0.00279
C 7.36225 32.68972 0.01996
C 8.57743 32.05733 -0.03996
C 8.53583 30.575 0.01465
C 7.33646 29.89783 -0.00074
C 7.34293 28.44538 -0.00518
C 8.55989 27.7812 0.0086
C 8.6085 26.30179 -0.00643
C 7.43088 25.50245 0.017
C 7.4279 24.14997 -0.03113
C 8.65955 23.47074 -0.02566
C 8.66854 22.02213 -0.00094
C 7.39337 21.3561 0.02322
C 7.38951 19.93631 -0.00725
C 8.64428 19.19444 -0.05697
C 8.58977 17.78585 0.01087
C 7.35088 15.68388 0.00988
C 3.69667 31.94479 -0.04306
C 21.00411 30.4623 -0.00109
C 19.66961 28.42918 0.03338
C 29.50628 15.68692 -0.01303
C 30.68864 14.84609 -0.01461
C 30.72457 13.48705 -0.02155
C 29.53106 12.76763 -0.00944
C 29.45481 11.37455 -0.03735
C 30.7339 10.6271 -0.00971
C 30.67516 9.12745 0.01518
C 29.44513 8.51253 0.01908
C 29.43485 7.03547 0.07705
C 30.71237 6.34171 0.0103
C 30.80099 4.96053 0.02108
C 29.52904 4.22949 0.00716
C 29.51161 2.76839 0.00307
C 30.71881 2.0793 0.00346
C 30.72979 0.68845 0.01713
C 29.4552 34.01893 -0.01694
C 31.98425 32.62924 0.01428
C 33.29305 31.91174 -0.02142
C 33.19715 30.48801 0.0544
C 31.98991 29.77701 0.00026
C 33.13796 27.76225 0.00682
C 33.24811 26.39348 -0.01779
C 31.85619 24.19562 0.03794
C 29.49906 17.08229 -0.0405
C 33.10687 23.50912 0.01927
C 30.73677 17.80247 0.01705
C 29.49136 19.84655 -0.00669
C 28.25792 13.54508 0.02611
C 27.04266 12.80561 0.02198
C 27.01238 11.43496 0.01094
C 28.23857 10.65763 0.00235
C 28.28952 9.26366 0.01495
C 27.08362 8.45827 0.01259
C 26.97173 7.09815 0.01799
C 28.21053 6.35647 0.01699
C 28.33337 4.92983 -0.00416
C 27.02676 4.22412 0.01177
C 27.04347 2.84219 0.04266
C 28.27888 2.10277 0.01324
C 28.26645 0.72828 0.0014
C 27.05266 0.01218 0.00924
C 29.47492 32.64507 0.02326
C 30.76549 31.88814 0.00261
C 30.74027 30.39321 0.03265
C 29.48895 29.77693 -0.02049
C 29.50439 25.48756 -0.01854
C 29.45761 24.15632 -0.01415
C 30.70679 23.48097 -0.03039
C 30.73338 22.06941 0.01836
C 29.51338 21.31983 0.03531
C 30.77184 19.22521 0.0101
C 28.31934 14.9756 -0.00621
C 33.17818 22.06708 0.01574
C 32.01701 19.88492 -0.01429
C 34.37419 24.12169 0.03076
C 1.20558 23.45944 0.00723
C 1.29758 21.99573 0.02712
C 0.04404 21.35306 -0.02213
C 0.05392 19.89356 0.01951
C 1.30155 19.16262 -0.01678
C 1.1885 17.72935 0.01223
C 34.35984 17.08556 0.00648
C 34.36456 15.57328 0.02114
C 1.09658 14.87554 -0.02957
C 1.11354 13.4502 0.00343
C 34.38484 12.74701 -0.02656
C 34.36435 11.28507 -0.02442
C 1.16548 10.61672 -0.00027
C 1.14517 9.24859 -0.00583
C 34.32511 8.45818 -0.02302
C 34.4179 7.03908 -0.02849
C 1.25644 6.42479 0.02931
C 1.26906 4.95834 0.00628
C 0.06502 4.17878 -0.0345
C 0.04786 2.75444 -0.00931
C 1.28185 2.13035 -0.00939
C 1.20969 0.73849 -0.00468
C 34.34612 25.59831 -0.05239
C 31.9789 21.3923 -0.02383
C 1.2068 26.23704 -0.00598
C 34.37915 28.37327 -0.01037
C 33.19331 19.23659 -0.0136
C 33.12508 17.74589 0.00594
C 31.95919 17.03131 -0.02474
C 31.9325 15.62187 0.00369
C 33.11372 14.98612 0.00455
C 33.16325 13.47818 -0.00644
C 31.89955 12.74128 -0.01839
C 31.89009 11.32736 0.00137
C 33.19899 10.57714 0.00199
C 33.11374 9.20144 0.04381
C 31.84261 8.42162 0.02806
C 31.98013 6.99184 0.01504
C 33.23492 6.2927 -0.00069
C 33.27436 4.89372 0.04926
C 32.03305 4.17858 -0.03838
C 32.05433 2.74266 0.00349
C 33.24126 2.08174 -0.00323
C 33.21945 0.64139 -0.00841
C 31.98446 33.99656 0.0001
C 0.07123 32.61266 -0.02927
C 1.27701 31.8826 -0.01404
C 1.27472 30.46738 0.01027
C 0.01203 29.76368 0.01831
C 1.15307 27.63844 -0.00439
C 19.7051 29.82827 -0.00491
C 26.97728 15.64675 0.00194
C 28.29603 17.73113 0.02316
C 23.38368 32.02855 -0.00865
C 23.42249 30.61295 0.00675
C 22.22628 29.78712 -0.00311
C 22.159 28.36549 0.00742
C 23.37371 27.65532 -0.01594
C 23.35292 26.29124 0.0106
C 22.09193 25.57061 -0.01154
C 22.03793 24.13514 -0.01721
C 23.35541 23.42681 -0.02422
C 23.3556 22.08599 0.01277
C 22.06947 21.3155 0.00096
C 22.11023 19.90464 -0.01527
C 23.33275 19.26307 0.01087
C 23.3328 17.82793 0.00199
C 22.11741 17.08035 0.01511
C 22.06986 15.6672 -0.00478
C 23.34418 14.91186 -0.01662
C 23.36455 13.54171 -0.01185
C 22.1598 12.78899 0.01126
C 22.14165 11.38981 0.01852
C 23.30531 10.64442 -0.00381
C 23.50395 9.30326 0.03046
C 22.18455 8.50898 0.0296
C 22.10232 32.56002 0.0058
C 22.14675 7.13275 0.03374
C 19.71179 34.05282 -0.00652
C 20.85819 2.15413 -0.00703
C 20.97575 27.67877 -0.0258
C 20.86555 26.2641 -0.0331
C 19.65696 25.50517 -0.00316
C 19.61383 24.11118 0.02188
C 20.91162 23.39966 -0.01979
C 20.80046 21.96356 0.02691
C 19.57082 21.24833 -0.01581
C 19.6051 19.90094 0.01452
C 20.84389 19.18545 0.04892
C 20.81354 17.7525 -0.00111
C 19.62702 17.04757 -0.03557
C 20.90046 14.87925 0.03754
C 20.88686 13.51001 0.01739
C 19.77795 12.65084 0.00755
C 19.40263 11.38808 -0.0054
C 20.83841 10.67891 0.00667
C 20.94478 9.17033 0.00143
C 19.71425 8.55326 -0.017
C 19.64794 7.14163 0.00364
C 20.87425 6.42505 -0.00831
C 20.8838 4.9351 -0.02957
C 19.67264 4.2696 -0.04422
C 19.61758 2.92317 0.00654
C 20.83347 0.7278 -0.04076
C 27.01566 17.04521 0.04185
C 23.36497 6.36263 -0.02845
C 22.07993 4.23178 0.02239
C 24.71479 8.51 -0.00938
C 24.54101 7.09322 -0.0264
C 25.73512 6.30865 -0.01154
C 25.82584 4.89054 0.00684
C 24.54244 4.21154 -0.01052
C 24.52861 2.77231 -0.01679
C 25.73248 2.07941 0.00367
C 25.77913 0.71138 0.04306
C 24.56139 0.00904 0.00996
C 27.0337 32.64401 0.00195
C 28.292 31.86821 -0.00802
C 28.28309 30.47765 -0.00218
C 27.06497 29.82606 -0.01654
C 27.09323 28.40857 -0.00037
C 28.26752 27.76005 -0.0032
C 28.48074 26.40138 0.00622
C 27.04343 25.65498 -0.02815
C 27.03679 24.16887 -0.00942
C 28.188 23.44398 0.00487
C 28.30267 21.97073 0.00826
C 27.09407 21.26118 -0.00294
C 27.02307 19.88638 0.00152
C 28.29353 19.15177 0.01257
C 25.84676 9.26307 -0.00229
C 23.32152 4.93503 -0.03213
C 25.78579 10.67759 -0.01199
C 24.58817 12.77169 -0.00285
C 22.06635 2.78522 0.01153
C 23.23715 2.07783 0.02734
C 23.3435 0.73308 -0.0055
C 22.06615 34.04737 0.01515
C 24.63002 32.71615 -0.00225
C 25.83434 31.94796 0.00071
C 25.89248 30.63684 -0.01107
C 24.61398 29.85769 -0.01586
C 24.6115 28.38002 -0.01971
C 25.87401 27.75388 -0.02118
C 25.8794 26.30041 0.00733
C 24.6486 25.54457 -0.00178
C 24.61668 24.11105 0.00768
C 25.83255 23.37601 -0.0276
C 25.84695 21.95021 0.03005
C 24.57637 21.34979 -0.04078
C 24.56856 19.89165 0.02117
C 25.80851 19.15513 0.02737
C 25.80642 17.71251 -0.00498
C 24.60195 17.10455 0.00135
C 24.61763 15.64326 0.03102
C 25.80377 14.94072 0.02555
C 25.87021 13.47502 0.01423
C 24.52545 11.37811 -0.009
C 2.50728 32.65835 -0.00012
