342
Graphene
C 0.01439 0.02631 0.01295
C 17.2607 29.78011 0.01848
C 17.18969 28.44896 -0.00619
C 18.44139 27.73532 -0.02162
C 18.45717 26.26494 0.00889
C 17.23299 25.60409 -0.00481
C 17.22005 24.15502 0.00979
C 18.41764 23.42209 0.01443
C 18.40486 21.98637 0.03505
C 17.18813 21.21712 -0.02815
C 17.22803 19.87811 -0.04147
C 18.48565 19.21427 -0.05302
C 18.46326 17.7152 0.00213
C 17.2325 17.01265 -0.00066
C 17.25718 15.60587 -0.00289
C 18.45577 14.96787 0.00028
C 18.46727 13.46129 -0.02213
C 17.22058 12.74058 0.03698
C 18.39983 30.49284 0.02098
C 18.49065 10.53342 -0.00109
C 18.39936 31.90868 -0.03113
C 14.7085 0.05523 0.00422
C 16.00521 30.48622 0.00244
C 14.74261 29.85823 -0.01717
C 14.71327 28.42586 0.05265
C 15.98815 27.69669 -0.01952
C 15.99323 26.27316 -0.02813
C 14.77351 25.55943 0.00374
C 14.75199 24.13528 0.00052
C 15.99717 23.45395 -0.03682
C 16.00269 22.00566 0.01965
C 14.78088 21.29668 0.02058
C 14.75656 19.93599 -0.01957
C 15.96822 19.18426 -0.0108
C 15.98216 17.79696 -0.00368
C 14.75557 16.98082 -0.02696
C 14.7463 2.80242 -0.00114
C 16.0049 2.17131 0.00228
C 16.03744 0.69644 0.00798
C 17.21174 32.60091 0.0351
C 18.43601 9.23875 -0.00491
C 17.21507 7.06183 0.03338
C 18.40685 6.3807 -0.0258
C 19.68558 15.58723 -0.00703
C 20.97653 14.90523 -0.04076
C 20.93737 13.517 -0.00652
C 19.70606 12.78525 0.0058
C 19.63682 11.41431 -0.00865
C 20.90626 10.67331 0.00675
C 20.88347 9.18945 -0.00311
C 19.68269 8.48529 0.00742
C 19.70751 7.09695 -0.01594
C 20.91908 6.35294 0.0106
C 20.87053 4.98903 -0.01154
C 19.6532 4.27709 -0.01721
C 19.66769 2.8224 -0.02422
C 20.94656 2.16407 0.01277
C 20.8809 0.66072 0.00096
C 19.67117 0.00914 -0.01527
C 22.15419 32.62856 0.01087
C 19.70022 17.02815 0.00654
C 20.86853 17.76639 -0.04422
C 20.89552 19.16818 -0.02957
C 19.70722 19.86024 -0.00831
C 18.44335 4.92867 -0.0331
C 17.17708 4.31201 -0.00316
C 17.18415 2.84831 0.02188
C 18.43951 2.13551 -0.01979
C 18.40558 0.76998 0.02691
C 17.21498 0.02717 -0.01581
C 19.66074 32.66937 0.01452
C 20.93438 31.90983 0.04892
C 16.03085 31.94137 0.02299
C 20.93356 30.55075 -0.00111
C 19.69862 28.42999 0.03754
C 20.94655 27.68698 0.01739
C 20.893 26.26743 0.00755
C 19.69312 25.52175 -0.0054
C 19.65039 24.12384 0.00667
C 20.91227 23.41371 0.00143
C 20.94091 22.02177 -0.017
C 19.66434 21.33468 0.00364
C 19.64435 29.8114 -0.03557
C 14.71818 32.67922 0.03542
C 12.2798 0.01816 0.01416
C 13.46828 0.7259 0.01945
C 4.92541 28.40037 0.02888
C 6.18002 27.67704 -0.00482
C 6.11842 26.23729 -0.01384
C 4.91958 25.51207 0.03693
C 4.88373 24.10864 0.01745
C 6.13865 23.4237 0.00488
C 6.08518 22.00752 -0.01004
C 4.92437 21.31524 -0.02896
C 4.96893 19.91228 -0.00131
C 6.14307 19.195 -0.01118
C 6.14182 0.67384 -0.014
C 4.89314 0.00953 0.02147
C 7.37056 32.67554 0.00373
C 8.62101 32.0099 -0.00191
C 8.64489 30.48671 0.00438
C 7.34688 29.84544 0.01291
C 7.37284 28.42098 0.00093
C 4.89504 29.83538 0.00685
C 6.14884 30.54943 0.00895
C 6.15776 32.01222 0.00393
C 4.94423 32.62204 0.0288
C 3.69096 30.551 0.00848
C 2.49758 29.83809 -0.01303
C 2.47057 28.43833 -0.01378
C 3.65916 27.73254 0.02635
C 3.70873 26.30115 0.0127
C 2.45301 25.53865 0.01396
C 2.45176 24.15474 0.01849
C 3.68065 23.45953 -0.01142
C 8.64185 27.64811 0.00057
C 3.71582 22.01499 -0.00562
C 2.45626 19.85865 0.00054
C 3.75285 19.13068 0.03007
C 3.68146 17.71555 -0.00095
C 2.40292 17.04541 0.01572
C 2.42628 2.89693 -0.04848
C 3.68385 2.13215 -0.00892
C 3.69364 0.70155 -0.01362
C 2.43583 0.04576 -0.0008
C 2.50245 21.25991 -0.00494
C 23.35142 31.90646 0.00199
C 8.64916 26.2767 -0.01634
C 7.32131 24.12327 0.02339
C 9.86457 0.06736 -0.00891
C 12.2799 32.68492 0.02819
C 13.51641 31.97322 0.00165
C 13.55392 30.57571 -0.02971
C 12.29158 29.76528 0.02894
C 12.3176 28.4262 -0.01789
C 13.53927 27.71864 0.00444
C 13.51633 26.29686 -0.00925
C 12.28679 25.55765 0.01877
C 12.28483 24.10083 0.01363
C 13.5187 23.39564 -0.02162
C 13.53411 22.01546 0.00415
C 12.31103 21.28659 -0.0014
C 12.30344 19.90607 0.02162
C 13.53178 19.19067 0.0076
C 13.52013 17.73968 0.01241
C 13.61051 2.1085 -0.01454
C 11.13737 0.73241 -0.01046
C 11.0843 19.20879 -0.02689
C 9.79323 19.77143 -0.01536
C 9.82828 21.29019 0.03101
C 8.58707 23.46156 0.01641
C 8.59421 21.97916 -0.00719
C 7.36949 21.32249 0.01364
C 7.38694 19.93183 -0.01062
C 8.57823 19.20334 -0.00033
C 8.62146 0.65315 0.03589
C 7.36081 0.0233 -0.02759
C 9.83516 32.68999 0.0402
C 7.41953 25.58627 -0.00334
C 11.04796 31.94301 0.00572
C 9.83779 29.82971 0.00406
C 9.85476 28.41384 0.00943
C 11.05304 27.71093 0.02841
C 11.03561 26.29746 -0.01111
C 9.87258 25.58793 -0.01275
C 9.85062 24.18498 0.00985
C 11.0619 23.46366 -0.02245
C 11.07717 22.05692 -0.00428
C 11.01242 30.60674 0.03592
C 23.33717 30.54176 0.01511
C 22.15017 29.82835 -0.00478
C 22.07229 28.39991 -0.01662
C 29.52857 0.00751 -0.02142
C 32.0054 32.64948 0.0544
C 33.22301 31.95194 0.00026
C 33.16828 30.55888 0.00682
C 31.94973 29.84723 -0.01779
C 31.98589 28.41323 0.03794
C 33.18003 27.67636 0.01927
C 33.1764 26.28187 0.01574
C 32.00991 25.55033 -0.02383
C 31.97884 24.13962 -0.01429
C 33.17515 23.4719 -0.0136
C 33.16416 22.03494 0.00594
C 32.01396 21.35194 -0.02474
C 32.0134 19.82123 0.00369
C 33.21361 19.16029 0.00455
C 33.18917 17.72745 -0.00644
C 31.96389 17.04368 -0.01839
C 30.73112 0.73394 0.01428
C 30.68756 2.12974 -0.01694
C 29.45794 2.83129 0.01713
C 29.49589 4.19775 0.00346
C 30.74627 23.44705 0.03531
C 30.71722 21.99581 -0.00669
C 29.50528 21.32928 0.0101
C 29.51933 19.84573 0.01705
C 30.77217 19.17703 -0.0405
C 30.74222 17.77289 -0.01303
C 29.53072 17.05107 -0.01461
C 29.54667 15.65727 -0.02155
C 31.95331 15.58551 0.00137
C 30.7435 14.89428 -0.00944
C 29.49075 12.77879 -0.00971
C 29.47905 11.39535 0.01518
C 30.78135 10.66627 0.01908
C 30.75717 9.20905 0.07705
C 29.53323 8.48994 0.0103
C 29.51706 7.12733 0.02108
C 30.74261 6.39367 0.00716
C 30.7587 4.95798 0.00307
C 30.73271 13.51283 -0.03735
C 30.75331 27.65772 0.01836
C 33.16543 14.92505 0.00199
C 32.0158 12.8054 0.02806
C 1.22986 21.94323 0.01223
C 0.02554 21.24824 0.00648
C 0.00148 19.88016 0.02114
C 1.22239 19.19413 -0.02957
C 1.23276 17.72333 0.00343
C 34.39721 17.02698 -0.02656
C 0.02161 15.59198 -0.02442
C 1.18314 14.91371 -0.00027
C 34.40797 12.7683 -0.00583
C 34.3959 11.37139 -0.02302
C 34.39467 8.5187 -0.02849
C 34.40111 7.10605 0.02931
C 1.22497 4.9037 0.00628
C 0.03322 4.22426 -0.0345
C 0.00579 2.85009 -0.00931
C 1.29772 2.13117 -0.00939
C 1.24702 0.65914 -0.00468
C 1.25376 23.44832 -0.01678
C 0.02621 24.12893 0.01951
C 34.40206 25.54933 -0.02213
C 1.2206 26.26928 0.02712
C 31.9565 11.39135 0.01504
C 33.18847 10.66406 -0.00069
C 33.22221 9.28384 0.04926
C 31.96703 8.52545 -0.03838
C 32.00718 7.16527 0.00349
C 33.17174 6.39378 -0.00323
C 33.19911 4.94908 -0.00841
C 31.97651 4.25381 0.0001
C 33.22145 13.53259 0.04381
C 31.98893 2.83076 -0.02927
C 33.18516 0.6708 0.01027
C 31.96091 0.01341 0.01831
C 0.01101 32.69131 -0.01037
C 1.25991 31.97013 -0.00439
C 1.21204 30.47418 -0.00598
C 34.40252 29.82845 -0.05239
C 34.41239 28.40554 0.03076
C 1.27631 27.711 0.00723
C 33.16345 2.11639 -0.01404
C 3.66156 31.95522 -0.00049
C 29.54491 29.81489 -0.03039
C 30.73437 31.96112 -0.01854
C 22.09895 4.22548 0.00768
C 22.13339 2.90609 -0.0276
C 23.36613 2.17557 0.03005
C 23.33701 0.69628 -0.04078
C 22.11868 34.07329 0.02117
C 24.57666 32.65021 0.02737
C 25.80985 31.99005 -0.00498
C 25.83373 30.56177 0.00135
C 24.6293 29.76867 0.03102
C 24.57723 28.37538 0.02555
C 24.56077 24.18182 0.01423
C 25.82999 22.00646 -0.00285
C 24.59523 21.34581 -0.009
C 24.58691 19.87041 -0.01199
C 25.78353 19.18794 -0.00229
C 25.85352 17.79763 -0.00938
C 24.60067 17.05697 -0.0264
C 23.37168 4.94165 -0.00178
C 23.32965 6.37585 0.00733
C 22.10721 7.08882 -0.02118
C 22.12013 8.5428 -0.01971
C 23.35099 27.72819 -0.01185
C 23.39344 26.19655 0.01126
C 22.12797 25.51819 0.01852
C 22.09769 24.11185 -0.00381
C 23.37327 23.43837 0.03046
C 23.40345 22.00854 0.0296
C 22.08141 21.2389 0.03374
C 22.11455 19.86316 -0.02845
C 24.6316 15.64246 -0.01154
C 23.35512 19.12952 -0.03213
C 22.13427 17.05557 0.01153
C 22.13021 15.57424 0.02734
C 23.36862 14.8977 -0.0055
C 23.38831 13.51187 0.01515
C 22.11198 12.77686 -0.00225
C 22.13216 11.34851 0.00071
C 23.34992 10.62144 -0.01107
C 23.34533 9.2133 -0.01586
C 23.37496 17.78999 0.02239
C 30.7658 30.52778 -0.01415
C 25.80705 14.93596 0.00684
C 24.56846 12.76574 -0.01679
C 27.00661 15.60233 0.02198
C 28.30656 14.85824 0.01094
C 28.2633 13.49704 0.00235
C 27.073 12.76224 0.01495
C 27.08309 11.36774 0.01259
C 28.22303 10.64735 0.01799
C 28.2304 9.17871 0.01699
C 27.06161 8.50187 -0.00416
C 27.03588 7.08556 0.01177
C 28.33426 6.3405 0.04266
C 28.31196 4.93557 0.01324
C 27.08012 4.24199 0.0014
C 27.04494 2.82635 0.00924
C 28.31504 2.05684 0.02326
C 28.23717 0.67485 0.00261
C 27.03199 0.00033 0.03265
C 29.54501 32.5732 -0.02049
C 27.12318 17.02681 0.02611
C 28.26898 17.73225 -0.00621
C 28.28461 19.16049 0.00194
C 27.07138 19.87221 0.04185
C 24.58419 11.35306 0.00367
C 25.87562 10.67677 0.04306
C 25.79288 9.22719 0.00996
C 24.59956 8.53479 0.00195
C 24.62895 7.10493 -0.00802
C 25.86798 6.42306 -0.00218
C 25.8444 5.00425 -0.01654
C 24.60036 4.27626 -0.00037
C 25.84172 13.40168 -0.01052
C 24.60532 2.85581 -0.0032
C 25.84432 0.6988 -0.02815
C 24.57694 0.03578 -0.00942
C 27.02792 32.64891 0.00487
C 28.2729 31.96338 0.00826
C 28.24884 30.55126 -0.00294
C 27.043 29.80121 0.00152
C 28.32742 22.03111 0.01257
C 27.02962 21.34277 0.02316
C 25.81385 2.09296 0.00622
C 2.51131 32.72829 0.00873
