294
Graphene
C 34.3365 0.11238 0.01295
C 11.12506 30.52007 0.00755
C 9.94572 29.87316 -0.0054
C 9.92934 28.45139 0.00667
C 10.98997 27.46707 0.00143
C 10.94494 13.35707 -0.017
C 9.70343 12.79137 0.00364
C 11.1129 31.91866 0.01739
C 9.79948 11.37738 -0.00831
C 11.09696 9.22069 -0.04422
C 9.77294 8.58882 0.00654
C 9.81347 7.08122 -0.00703
C 11.09995 6.3748 -0.04076
C 11.06873 5.0345 -0.00652
C 9.80641 4.30329 0.0058
C 10.99737 10.6639 -0.02957
C 9.85354 2.85632 -0.00865
C 9.95126 32.66331 0.03754
C 8.66562 0.65813 -0.00111
C 7.42947 15.72635 -0.02213
C 8.59731 14.95209 0.03698
C 8.48953 13.48627 -0.00109
C 7.30552 12.75733 -0.00491
C 7.29584 11.4046 0.03338
C 8.54722 10.68955 -0.0258
C 7.35365 34.05848 -0.03557
C 8.56599 9.20146 -0.0331
C 7.3025 7.09876 0.02188
C 8.59395 6.34422 -0.01979
C 8.59625 4.99812 0.02691
C 7.35155 4.22189 -0.01581
C 7.35057 2.77969 0.01452
C 8.63627 2.14436 0.04892
C 7.3369 8.56605 -0.00316
C 11.12896 2.17877 0.00675
C 11.13441 0.70817 -0.00311
C 9.9079 0.02924 0.00742
C 14.68256 32.67583 0.03374
C 15.98566 32.00585 -0.02845
C 16.01474 30.55808 -0.03213
C 14.89352 29.78665 0.02239
C 14.84888 28.30315 0.01153
C 16.21076 9.13479 0.02734
C 12.35707 34.07564 0.0296
C 14.73837 8.59658 -0.0055
C 16.0392 6.393 -0.00225
C 16.07427 4.99478 0.00071
C 14.80158 4.23111 -0.01107
C 14.86626 2.78485 -0.01586
C 16.08176 2.12278 -0.01971
C 15.98146 0.69161 -0.02118
C 14.74167 7.09256 0.01515
C 13.5636 0.7396 0.03046
C 13.5431 2.21062 -0.00381
C 12.3157 2.9027 0.01852
C 12.30598 32.59684 -0.01594
C 13.49078 31.93201 0.0106
C 13.5365 30.49027 -0.01154
C 12.30405 29.69254 -0.01721
C 12.35556 28.1218 -0.02422
C 13.71527 27.77232 0.01277
C 12.09692 12.99593 0.00096
C 12.46335 11.50408 -0.01527
C 13.57724 10.74448 0.01087
C 13.59717 9.36834 0.00199
C 12.41683 8.56822 0.01511
C 12.33223 7.13618 -0.00478
C 13.51545 6.45324 -0.01662
C 13.54776 5.01686 -0.01185
C 12.2871 4.35916 0.01126
C 7.28914 17.10371 0.00028
C 7.16991 20.07579 -0.00289
C 7.31832 21.24003 -0.00066
C 7.40275 24.15544 0.00213
C 3.64557 10.67589 0.00165
C 3.60619 9.21116 -0.02971
C 2.3671 8.51984 0.02894
C 2.37489 7.13672 -0.01789
C 3.61726 6.36835 0.00444
C 3.6318 4.96616 -0.00925
C 2.37884 11.40483 0.02819
C 2.41723 4.33967 0.01877
C 3.65909 2.19274 -0.02162
C 3.65733 0.74679 0.00415
C 2.44436 0.1134 -0.0014
C 4.90785 32.67566 0.02162
C 6.1509 31.99014 0.0076
C 6.15777 30.59528 0.01241
C 2.38878 2.94168 0.01363
C 2.39083 12.79752 -0.00891
C 3.62423 13.50819 -0.01046
C 3.60986 14.88944 -0.02689
C 3.66589 30.58972 0.03589
C 2.37591 29.96703 -0.02759
C 2.40888 28.50515 0.0402
C 3.64979 27.71812 0.00572
C 3.67901 26.35537 0.03592
C 2.46694 25.64796 0.00406
C 2.39724 24.12236 0.00943
C 3.6031 23.48455 0.02841
C 3.61204 22.04931 -0.01111
C 2.40874 21.3163 -0.01275
C 2.37482 19.87813 0.00985
C 3.57173 19.24234 -0.02245
C 3.61093 17.82699 -0.00428
C 2.41079 17.1163 0.03101
C 2.38051 15.62737 -0.01536
C 4.89385 29.81581 -0.01454
C 14.74526 0.02018 0.00733
C 4.85605 28.43391 0.01945
C 6.18278 26.30422 0.03542
C 6.09441 4.93243 0.0351
C 4.85209 4.23603 -0.03113
C 4.87717 2.88214 0.02098
C 6.12167 2.16094 0.01848
C 6.1225 0.71042 -0.00619
C 4.90761 0.02508 -0.02162
C 6.04557 6.3786 0.00422
C 7.42585 32.618 0.00889
C 8.69812 30.58578 0.00979
C 7.43024 29.91371 0.01443
C 7.40602 28.4098 0.03505
C 8.63754 27.75084 -0.02815
C 8.63731 26.42959 -0.04147
C 7.5145 25.58847 -0.05302
C 8.67809 32.03427 -0.00481
C 4.8553 7.08635 0.00798
C 4.92283 8.57251 0.00228
C 6.16106 9.27971 -0.00114
C 4.94314 25.63981 0.02299
C 4.91663 24.19742 0.00244
C 6.17428 23.50745 -0.01717
C 6.11109 22.0849 0.05265
C 4.88053 21.37276 -0.01952
C 4.77469 19.95923 -0.02813
C 6.07143 19.17517 0.00374
C 6.14858 17.7955 0.00052
C 4.89799 17.14594 -0.03682
C 4.88139 15.59799 0.01965
C 6.11154 14.84908 0.02058
C 6.00688 13.47509 -0.01957
C 4.81028 12.74003 -0.0108
C 4.85671 11.36597 -0.00368
C 6.12378 10.67383 -0.02696
C 6.08892 27.79393 0.01416
C 17.16088 32.74218 -0.00178
C 18.33262 32.0569 0.00768
C 18.41363 30.63361 -0.0276
C 31.89837 19.8408 -0.01429
C 33.22464 19.18496 -0.0136
C 33.112 17.80255 0.00594
C 31.95732 17.06844 -0.02474
C 31.87016 15.59007 0.00369
C 33.08792 14.86348 0.00455
C 31.84504 21.19273 -0.02383
C 33.06957 13.45787 -0.00644
C 31.79547 11.42906 0.00137
C 33.04715 10.77486 0.00199
C 33.04629 9.37413 0.04381
C 31.84077 8.63903 0.02806
C 31.90084 7.28596 0.01504
C 33.13616 6.53574 -0.00069
C 31.74395 12.91701 -0.01839
C 33.13407 21.95301 0.01574
C 33.12991 23.42429 0.01927
C 31.86425 24.19749 0.03794
C 30.46712 10.59531 0.01908
C 30.56513 9.2322 0.07705
C 30.77194 6.40585 0.0103
C 30.72395 5.23121 0.02108
C 30.53244 2.25326 0.00716
C 30.52319 0.82777 0.00307
C 29.34572 0.13399 0.00346
C 31.79317 32.73021 0.01713
C 33.06969 32.07683 -0.01694
C 33.08149 30.61719 0.01428
C 31.82343 29.85459 -0.02142
C 31.87162 28.45239 0.0544
C 33.16141 27.74407 0.00026
C 33.12846 26.25728 0.00682
C 31.86302 25.54082 -0.01779
C 33.12463 5.10798 0.04926
C 29.47363 11.57627 0.01518
C 31.91265 4.36122 -0.03838
C 33.06108 2.23389 -0.00323
C 1.15106 14.93244 -0.02957
C 1.1263 13.5133 0.00343
C 34.30183 12.79656 -0.02656
C 34.32264 11.4357 -0.02442
C 1.13154 10.71531 -0.00027
C 1.21185 9.25592 -0.00583
C 34.34918 15.58937 0.02114
C 34.37274 8.62715 -0.02302
C 1.15863 6.35826 0.02931
C 1.16508 4.92919 0.00628
C 34.36405 4.32825 -0.0345
C 34.37608 2.91061 -0.00931
C 1.2002 2.29184 -0.00939
C 1.16769 0.81702 -0.00468
C 34.40693 7.15599 -0.02849
C 34.36818 17.07324 0.00648
C 1.15999 17.79024 0.01223
C 1.23616 19.19621 -0.01678
C 33.04944 0.74232 -0.00841
C 31.81997 0.07861 0.0001
C 34.30583 32.78123 -0.02927
C 1.0998 32.10207 -0.01404
C 1.09274 30.69875 0.01027
C 34.30795 29.94148 0.01831
C 34.38884 28.54905 -0.01037
C 1.17272 27.74845 -0.00439
C 1.22823 26.34576 -0.00598
C 0.00091 25.56782 -0.05239
C 34.34576 24.13152 0.03076
C 1.16044 23.42149 0.00723
C 1.16702 22.04564 0.02712
C 34.37917 21.31953 -0.02213
C 34.42802 19.86746 0.01951
C 31.83005 2.97178 0.00349
C 3.61504 32.00729 -0.00033
C 29.48299 12.71263 -0.00971
C 30.60894 15.126 -0.00944
C 20.11724 2.44839 0.00367
C 20.96127 0.8133 0.04306
C 19.76719 34.07575 0.00996
C 22.01556 32.59668 0.00195
C 23.28385 31.9581 -0.00802
C 23.31794 30.54327 -0.00218
C 20.88083 26.12406 -0.01679
C 22.1187 29.86986 -0.01654
C 23.32285 27.58239 -0.0032
C 23.33662 26.10907 0.00622
C 22.02636 25.6004 -0.02815
C 22.21347 0.11546 -0.00942
C 24.45608 32.74058 0.00487
C 25.67803 32.0388 0.00826
C 22.08277 28.34548 -0.00037
C 20.76193 27.65838 -0.01052
C 19.52756 28.34856 0.00684
C 19.67234 29.90052 -0.01154
C 17.18201 29.83172 0.03005
C 17.23764 28.39359 -0.04078
C 18.22761 27.71657 0.02117
C 17.18202 8.57087 0.02737
C 17.41344 7.12033 -0.00498
C 18.46511 6.29463 0.00135
C 18.55441 5.11126 0.03102
C 17.30023 4.2007 0.02555
C 17.33579 2.80177 0.01423
C 18.62533 2.05857 -0.00285
C 18.46719 0.7194 -0.009
C 17.2233 0.01508 -0.01199
C 19.5907 32.72621 -0.00229
C 20.87565 31.94751 -0.00938
C 20.87994 30.54876 -0.0264
C 25.7295 30.59855 -0.00294
C 30.39846 13.78424 -0.03735
C 24.53687 29.76537 0.00152
C 25.73147 27.69301 0.02316
C 30.61068 32.02928 0.03265
C 30.66158 30.59461 -0.02049
C 29.44718 29.88676 -0.01854
C 29.42792 28.46843 -0.01415
C 30.66429 27.76369 -0.03039
C 30.73759 26.36578 0.01836
C 29.38539 32.75663 0.00261
C 29.538 25.65255 0.03531
C 30.68751 23.40915 0.0101
C 30.60751 21.99193 0.01705
C 29.33964 21.17931 -0.0405
C 29.52386 19.7969 -0.01303
C 30.61677 19.00254 -0.01461
C 30.68986 17.55648 -0.02155
C 29.47744 24.18124 -0.00669
C 26.99932 0.05089 0.02326
C 28.03749 0.58227 0.00924
C 28.23254 22.03157 0.0014
C 25.74702 26.19427 0.04185
C 24.49782 25.33083 0.00194
C 24.72329 23.95835 -0.00621
C 25.766 23.50639 0.02611
C 23.99085 0.03435 0.02198
C 26.88436 32.74202 0.01094
C 28.16306 32.06534 0.00235
C 28.1526 30.5783 0.01495
C 26.99809 29.86173 0.01259
C 26.982 28.43249 0.01799
C 28.19205 27.76025 0.01699
C 28.28726 26.40327 -0.00416
C 26.98931 25.62563 0.01177
C 27.09157 24.12358 0.04266
C 28.25199 23.40209 0.01324
C 24.49055 28.39459 0.01257
C 2.34336 32.80882 -0.01062
