374
Graphene
C 0.0197 0.11508 0.01295
C 18.35797 31.93702 0.02299
C 18.37234 30.41173 0.00244
C 17.12438 29.75448 -0.01717
C 17.11005 28.35683 0.05265
C 18.32933 27.57524 -0.01952
C 18.30141 26.13033 -0.02813
C 17.10711 25.49449 0.00374
C 17.0721 24.03809 0.00052
C 18.36061 23.42753 -0.03682
C 18.32416 22.03407 0.01965
C 17.02232 21.32042 0.02058
C 17.1394 19.89278 -0.01957
C 18.42378 19.11598 -0.0108
C 18.35595 17.73176 -0.00368
C 17.24974 17.0233 -0.02696
C 17.01581 15.66929 -0.00114
C 18.28111 14.84453 0.00228
C 18.34129 13.3948 0.00798
C 17.19755 12.42517 0.00422
C 17.12693 32.62113 0.03542
C 17.26387 11.10343 0.0351
C 14.65679 0.058 0.01416
C 15.9434 2.21059 -0.01454
C 15.94396 30.55284 -0.01536
C 14.67096 29.86367 -0.02689
C 14.60982 28.43808 -0.01046
C 15.86317 27.64132 -0.00891
C 15.83507 26.20761 0.02819
C 14.62604 25.51673 0.00165
C 14.56178 24.14881 -0.02971
C 15.75396 23.42211 0.02894
C 15.72625 22.03035 -0.01789
C 14.34939 21.21961 0.00444
C 14.63005 19.93459 -0.00925
C 15.91937 19.20808 0.01877
C 16.20793 9.26932 0.01363
C 14.91031 8.57185 -0.02162
C 14.81677 7.21345 0.00415
C 16.0425 6.39453 -0.0014
C 16.05078 4.97093 0.02162
C 14.81966 4.35335 0.0076
C 14.72654 2.98616 0.01241
C 15.89793 0.74918 0.01945
C 18.43444 10.49903 -0.03113
C 18.5875 9.13398 0.02098
C 17.35294 8.47556 0.01848
C 19.52558 15.53666 0.02691
C 20.82585 14.86089 -0.01581
C 20.76731 13.5122 0.01452
C 19.5338 12.69451 0.04892
C 19.63987 11.30201 -0.00111
C 20.86488 10.59739 -0.03557
C 21.08484 9.19052 0.03754
C 19.86002 8.44337 0.01739
C 19.70881 7.00378 0.00755
C 20.94452 6.2696 -0.0054
C 20.85034 4.91016 0.00667
C 19.62431 4.19832 0.00143
C 19.63601 2.80865 -0.017
C 20.87687 2.12322 0.00364
C 20.86844 0.68302 -0.00831
C 19.67844 0.00749 -0.02957
C 22.0483 32.60491 -0.04422
C 23.29025 31.89325 0.00654
C 23.35897 30.38316 -0.00703
C 19.60102 17.05207 -0.01979
C 20.85822 17.6677 0.02188
C 20.85917 19.08495 -0.00316
C 19.64075 19.84478 -0.0331
C 17.26416 7.03378 -0.00619
C 18.44904 6.35888 -0.02162
C 18.40869 4.92625 0.00889
C 17.18192 4.26268 -0.00481
C 17.18574 2.86404 0.00979
C 18.38944 2.11077 0.01443
C 18.38905 0.6515 0.03505
C 17.20302 34.03196 -0.02815
C 19.59477 32.69691 -0.04147
C 15.93173 31.96227 0.03101
C 20.80202 31.85992 -0.05302
C 19.65887 29.7528 -0.00066
C 19.61585 28.31329 -0.00289
C 20.82819 27.60954 0.00028
C 20.84008 26.21536 -0.02213
C 19.66251 25.54896 0.03698
C 19.54944 24.09778 -0.00109
C 20.78544 23.34696 -0.00491
C 20.758 21.97364 0.03338
C 19.53273 21.32514 -0.0258
C 20.89447 30.45719 0.00213
C 14.68849 32.67622 -0.00428
C 12.2893 0.15345 -0.02245
C 13.49617 0.84766 0.00985
C 4.84005 28.37918 -0.00077
C 6.18605 27.58738 0.03368
C 6.14361 26.01838 -0.02929
C 4.8845 25.49516 -0.00966
C 4.58888 8.79079 -0.03337
C 4.72063 7.3478 0.01227
C 6.08166 6.68573 0.00873
C 6.11461 5.1243 -0.00049
C 4.90473 4.37927 0.00848
C 4.94724 2.99312 -0.01303
C 6.11298 2.29951 -0.01378
C 6.07279 0.79455 0.02635
C 4.80883 0.22141 0.0127
C 7.3944 32.77804 0.01396
C 8.55389 32.03407 0.01849
C 8.49184 30.59588 -0.01142
C 7.33911 29.88582 -0.00562
C 7.38226 28.41187 -0.00494
C 8.5635 27.62008 0.00054
C 4.95405 29.78979 0.01305
C 6.11997 30.59088 0.0276
C 6.13865 32.11395 0.00988
C 4.9048 32.81059 -0.01343
C 3.76348 30.57213 0.0073
C 2.4741 29.8508 0.0174
C 2.3894 28.48552 0.03828
C 3.7016 27.82394 0.01226
C 3.72189 26.33201 -0.00279
C 2.49045 25.6917 0.01996
C 2.42708 24.25632 -0.03996
C 2.44982 21.18463 0.01465
C 2.39501 20.01725 -0.00074
C 8.72391 26.24553 0.03007
C 2.8155 10.72177 -0.00518
C 2.49334 8.59001 -0.00643
C 2.41928 7.20203 0.017
C 3.63111 6.42835 -0.03113
C 3.70527 5.09445 -0.02566
C 2.45516 4.328 -0.00094
C 2.40206 2.98183 0.02322
C 3.65652 2.31859 -0.00725
C 3.57542 0.88612 -0.05697
C 2.44749 0.10541 0.01087
C 3.4146 9.67642 0.0086
C 22.14643 29.77613 -0.04076
C 7.49304 25.49227 -0.00095
C 7.24844 7.47892 -0.04848
C 11.08723 0.88763 0.00057
C 9.8553 0.10884 -0.01634
C 12.29177 32.69984 -0.00334
C 13.4818 31.9683 0.02339
C 13.40451 30.58647 0.01641
C 12.18298 29.86102 -0.00719
C 12.13734 28.40717 0.01364
C 13.4095 27.81365 -0.01062
C 13.47116 26.28937 -0.00033
C 12.27514 25.61296 0.03589
C 12.2194 24.23337 -0.02759
C 13.3952 23.53949 0.0402
C 13.32402 22.06448 0.00572
C 12.44114 7.29084 0.03592
C 13.6086 6.5016 0.00406
C 13.62738 4.9862 0.00943
C 12.32377 4.43612 0.02841
C 12.25586 3.01804 -0.01111
C 13.47894 2.31456 -0.01275
C 11.09128 2.32563 0.00093
C 9.80212 3.06858 0.01291
C 9.80896 4.54235 0.00438
C 11.06085 5.15098 -0.00191
C 8.49328 6.79198 -0.00892
C 8.57019 5.24345 -0.01362
C 7.3881 4.53384 -0.0008
C 7.3085 3.03868 0.0288
C 8.65344 2.3176 0.00393
C 8.61787 0.84978 0.00895
C 7.32294 0.17253 0.00685
C 9.83716 32.72033 0.02888
C 11.03673 32.02747 -0.00482
C 8.02784 24.32294 0.01572
C 11.01347 30.59338 -0.01384
C 9.73868 28.37287 0.01745
C 10.97667 27.70667 0.00488
C 10.95996 26.25015 -0.01004
C 9.89299 25.42197 -0.02896
C 9.46908 24.04019 -0.00131
C 11.03026 23.30317 -0.01118
C 11.75324 22.00153 -0.014
C 9.82296 7.22986 0.02147
C 11.03724 6.60812 0.00373
C 9.72241 29.84143 0.03693
C 22.0203 28.32106 -0.00652
C 23.32346 27.57802 0.0058
C 23.30169 26.22599 -0.00865
C 30.70045 2.13313 0.00716
C 30.69272 0.6892 0.00307
C 29.44903 0.00757 0.00346
C 31.9821 32.69378 0.01713
C 33.21377 32.03601 -0.01694
C 33.14463 30.5656 0.01428
C 31.91743 29.87715 -0.02142
C 31.93254 28.43203 0.0544
C 33.17784 27.72675 0.00026
C 33.16897 26.27942 0.00682
C 31.95235 25.52314 -0.01779
C 31.90986 24.11144 0.03794
C 33.15546 23.40221 0.01927
C 33.1948 22.04483 0.01574
C 31.98528 21.2815 -0.02383
C 32.01619 19.9038 -0.01429
C 33.23843 19.18493 -0.0136
C 33.1864 17.82803 0.00594
C 31.96731 17.13516 -0.02474
C 29.45374 2.86977 0.02108
C 29.458 4.25035 0.0103
C 30.73166 4.99712 0.07705
C 30.68529 6.43384 0.01908
C 30.68699 27.69755 0.02326
C 30.74579 26.29519 0.00261
C 29.4869 25.52973 0.03265
C 29.45365 24.0345 -0.02049
C 30.73363 23.38527 -0.01854
C 30.71515 21.94938 -0.01415
C 29.48452 21.28631 -0.03039
C 29.56894 19.86282 0.01836
C 30.76805 19.19632 0.03531
C 31.95504 15.66677 0.00369
C 30.68331 17.72506 -0.00669
C 29.55088 15.61065 0.01705
C 30.76709 14.90491 -0.0405
C 30.75371 13.50999 -0.01303
C 29.46316 12.78609 -0.01461
C 29.56861 11.36275 -0.02155
C 30.79112 10.70209 -0.00944
C 30.71704 9.29916 -0.03735
C 29.51067 8.50698 -0.00971
C 29.45654 7.15669 0.01518
C 29.46335 17.00516 0.0101
C 29.4609 28.38711 0.00924
C 33.08393 14.99895 0.00455
C 32.03458 12.86643 -0.01839
C 34.4266 19.82339 0.01951
C 1.28465 19.05632 -0.01678
C 1.24856 17.64968 0.01223
C 0.00578 17.03324 0.00648
C 0.0172 15.70197 0.02114
C 1.12519 14.88068 -0.02957
C 1.18731 13.62989 0.00343
C 0.05867 12.81864 -0.02656
C 0.06368 11.44012 -0.02442
C 1.35654 10.63248 -0.00027
C 1.17993 9.21491 -0.00583
C 34.35956 8.55881 -0.02302
C 34.35912 7.15441 -0.02849
C 1.14532 6.47911 0.02931
C 1.20456 5.05627 0.00628
C 34.42573 4.39742 -0.0345
C 34.39443 2.85623 -0.00931
C 1.1855 2.21318 -0.00939
C 1.20626 0.8029 -0.00468
C 0.0131 21.26907 -0.02213
C 1.23488 22.06487 0.02712
C 1.22243 23.51013 0.00723
C 34.40495 24.1656 0.03076
C 32.03907 11.44578 0.00137
C 33.22492 10.65629 0.00199
C 33.12584 9.26438 0.04381
C 31.92333 8.56358 0.02806
C 31.89002 7.2181 0.01504
C 33.16356 6.50516 -0.00069
C 33.15313 5.08108 0.04926
C 31.9083 4.29483 -0.03838
C 31.92787 2.93729 0.00349
C 33.23827 13.56268 -0.00644
C 33.18524 2.16535 -0.00323
C 31.93881 0.03328 0.0001
C 34.40008 32.69936 -0.02927
C 1.23991 31.99122 -0.01404
C 1.32066 30.55031 0.01027
C 34.40712 29.86363 0.01831
C 34.41339 28.49608 -0.01037
C 1.20392 27.74018 -0.00439
C 1.19941 26.36163 -0.00598
C 34.40791 25.61922 -0.05239
C 33.2224 0.77594 -0.00841
C 3.74763 31.98897 0.00402
C 29.52497 29.81638 0.0014
C 30.72347 31.9375 0.04266
C 22.1091 34.00261 -0.03213
C 24.42513 32.55372 0.02239
C 25.64408 31.84848 0.01153
C 25.77927 30.42975 0.02734
C 24.58721 29.70495 -0.0055
C 24.52843 28.29903 0.01515
C 25.81234 27.6177 -0.00225
C 25.76601 26.20237 0.00071
C 24.49388 25.53276 -0.01107
C 24.5036 24.07753 -0.01586
C 25.73826 23.31176 -0.01971
C 25.8397 21.90054 -0.02118
C 24.56342 21.32106 0.00733
C 24.58068 19.83481 -0.00178
C 25.78839 19.13605 0.00768
C 25.73885 17.73523 -0.0276
C 24.48056 17.02974 0.03005
C 24.50694 15.59518 -0.04078
C 25.80998 14.87745 0.02117
C 23.38594 0.69774 -0.02845
C 23.33717 2.12493 0.03374
C 22.13806 2.77851 0.0296
C 22.11513 4.19691 0.03046
C 22.06385 25.49625 0.00675
C 22.12911 24.04273 -0.00311
C 23.40218 23.38746 0.00742
C 23.3043 21.9334 -0.01594
C 22.02184 21.21492 0.0106
C 22.03889 19.78341 -0.01154
C 23.27737 19.12207 -0.01721
C 23.2599 17.70007 -0.02422
C 22.12134 16.92849 0.01277
C 25.77135 13.496 0.02737
C 22.08659 15.54401 0.00096
C 23.3136 13.35871 0.01087
C 22.02668 12.77679 0.00199
C 22.04161 11.37785 0.01511
C 23.34401 10.69323 -0.00478
C 23.40256 9.29353 -0.01662
C 22.22966 8.49976 -0.01185
C 22.21133 7.03401 0.01126
C 23.34783 6.3282 0.01852
C 23.36575 4.93496 -0.00381
C 23.36416 14.85108 -0.01527
C 30.66391 30.58034 0.01324
C 24.52093 12.76623 -0.00498
C 25.75561 10.6078 0.03102
C 28.19348 17.66913 0.00487
C 26.91339 16.95695 0.00826
C 27.04899 15.51614 -0.00294
C 28.29116 14.85058 0.00152
C 28.25957 13.4682 0.01257
C 27.02984 12.7582 0.02316
C 26.99511 11.30679 0.04185
C 28.2756 10.63484 0.00194
C 28.29906 9.26788 -0.00621
C 27.06988 8.48241 0.02611
C 27.01316 7.01721 0.02198
C 28.27934 6.43963 0.01094
C 28.26037 4.92365 0.00235
C 26.93652 4.20046 0.01495
C 26.92719 2.8062 0.01259
C 28.23366 2.1026 0.01799
C 28.21543 0.69589 0.01699
C 27.04637 34.06186 -0.00416
C 29.40819 32.69572 0.01177
C 28.32094 19.14681 -0.00942
C 26.9885 19.85891 -0.02815
C 26.99227 21.24209 0.00622
C 28.26247 21.90686 -0.0032
C 25.83066 9.17202 0.02555
C 24.60237 8.53078 0.01423
C 24.55786 7.0862 -0.00285
C 25.7685 6.41168 -0.009
C 25.83175 4.99255 -0.01199
C 24.54433 4.20705 -0.00229
C 24.56771 2.78857 -0.00938
C 25.75244 2.04945 -0.0264
C 25.8677 0.62348 -0.01154
C 24.50652 11.35219 0.00135
C 24.58383 33.97334 0.00684
C 28.23906 31.94331 -0.01679
C 28.2648 30.52179 0.00367
C 27.02668 29.7129 0.04306
C 26.986 28.32344 0.00996
C 28.25732 27.68196 0.00195
C 28.15548 26.22014 -0.00802
C 27.00413 25.46962 -0.00218
C 27.01699 24.10603 -0.01654
C 28.23442 23.36681 -0.00037
C 26.89481 32.62441 -0.01052
C 2.46134 32.78677 0.02374
