431
Graphene
C 0.04096 34.04109 0.01295
C 13.41273 23.51879 -0.01062
C 13.54116 21.96234 -0.00033
C 12.31822 21.28996 0.03589
C 12.24751 19.9331 -0.02759
C 13.46809 19.18428 0.0402
C 13.46707 17.7624 0.00572
C 12.29273 17.03042 0.03592
C 12.29393 15.6027 0.00406
C 13.52808 14.94919 0.00943
C 13.556 13.55221 0.02841
C 12.31429 12.77968 -0.01111
C 12.32976 11.39664 -0.01275
C 13.53508 10.63668 0.00985
C 13.51539 9.21821 -0.02245
C 12.26838 8.4916 -0.00428
C 12.26373 7.17571 0.03101
C 13.49756 6.43754 -0.01536
C 13.54245 4.99902 -0.02689
C 12.14763 4.39091 -0.01046
C 12.19534 2.91783 -0.00891
C 13.42042 2.09945 0.02819
C 13.43725 0.70078 0.00165
C 12.20683 34.05621 -0.02971
C 12.24979 24.17473 0.01364
C 14.69435 32.67122 0.02894
C 12.26918 25.6544 -0.00719
C 13.41079 27.79694 0.02339
C 10.97845 17.77099 0.00393
C 9.76056 17.03214 0.00895
C 9.81573 15.68397 0.00685
C 10.9674 14.9394 0.02888
C 11.04531 13.52704 -0.00482
C 9.84961 12.75589 -0.01384
C 9.84085 11.31141 0.03693
C 11.0477 10.7016 0.01745
C 11.05938 9.30215 0.00488
C 9.78596 8.59407 -0.01004
C 9.76272 7.20649 -0.02896
C 11.04528 6.5404 -0.00131
C 10.97233 5.01792 -0.01118
C 9.75526 4.32805 -0.014
C 9.82254 2.89543 0.02147
C 10.9447 2.16911 0.00373
C 10.88833 0.74747 -0.00191
C 9.77255 0.11145 0.00438
C 12.19374 32.68872 0.01291
C 13.49195 31.95518 0.00093
C 13.49459 30.55197 0.00057
C 12.24361 29.94186 -0.01634
C 12.23791 28.49265 -0.00334
C 13.46398 26.41192 0.01641
C 10.97805 19.25723 0.0288
C 15.96396 31.96386 -0.01789
C 14.71338 29.74708 -0.00925
C 14.66319 0.03245 -0.00114
C 17.14767 32.64179 0.00228
C 18.42566 31.97992 0.00798
C 18.36632 30.59463 0.00422
C 17.19498 29.84015 0.0351
C 17.10484 28.42165 -0.03113
C 18.45007 27.74657 0.02098
C 18.40092 26.25861 0.01848
C 17.11336 25.61284 -0.00619
C 17.23159 24.18707 -0.02162
C 18.41797 23.45855 0.00889
C 18.43227 22.07893 -0.00481
C 17.15417 21.26201 0.00979
C 17.21227 19.84735 0.01443
C 18.37254 19.05894 0.03505
C 18.39945 17.69904 -0.02815
C 17.13357 17.10961 -0.04147
C 17.2043 15.65586 -0.05302
C 18.42603 14.86643 0.00213
C 18.41578 13.46017 -0.00066
C 17.13436 12.72703 -0.00289
C 17.21596 11.29416 0.00028
C 18.44346 10.65326 -0.02213
C 15.94357 0.69023 -0.02696
C 15.94896 30.53793 0.00444
C 15.93389 2.09445 -0.00368
C 14.80072 4.3014 -0.01957
C 14.69175 28.31229 0.01877
C 15.9503 27.66501 0.01363
C 15.93276 26.29356 -0.02162
C 14.74224 25.6602 0.00415
C 14.74231 24.17157 -0.0014
C 15.98949 23.43621 0.02162
C 15.95544 21.98765 0.0076
C 14.74997 21.38726 0.01241
C 14.74724 19.91295 -0.01454
C 15.95599 19.21948 0.01945
C 15.93006 17.81852 0.01416
C 14.67339 17.09446 0.03542
C 14.68648 15.67369 0.02299
C 16.01491 14.81185 0.00244
C 15.91658 13.45738 -0.01717
C 14.69026 12.71129 0.05265
C 14.7686 11.3093 -0.01952
C 15.92871 10.60356 -0.02813
C 15.99009 9.2637 0.00374
C 14.75984 8.46317 0.00052
C 14.78958 7.07056 -0.03682
C 16.0097 6.37542 0.01965
C 15.98057 5.0221 0.02058
C 14.69131 2.80165 -0.0108
C 18.45834 9.24416 0.03698
C 9.79314 19.96067 -0.0008
C 11.06359 22.00928 -0.00892
C 3.6995 2.18803 0.00081
C 3.73709 0.66919 0.00245
C 2.50143 34.05526 0.02728
C 4.86778 32.70329 -0.00039
C 6.09415 32.00569 0.0064
C 6.21459 30.57412 0.00211
C 4.90967 29.925 -0.00449
C 4.84987 28.40809 -0.01979
C 6.11476 27.75338 0.02784
C 6.08085 26.3323 -0.01977
C 4.94804 25.57259 -0.00561
C 4.97713 24.13733 0.00208
C 6.18537 23.37259 0.01707
C 6.15976 22.03583 0.02769
C 4.90758 21.32543 -0.03291
C 4.87577 19.88763 -0.04999
C 6.07819 19.22101 0.04505
C 6.09897 17.82525 0.03284
C 4.8544 17.05133 -0.04307
C 4.79903 15.68127 0.03189
C 6.05219 14.93262 0.00031
C 6.06131 13.5093 -0.003
C 4.77488 12.77173 0.01402
C 2.36208 2.79965 -0.02805
C 4.74396 11.39961 0.02379
C 2.42902 4.22249 -0.01386
C 3.65908 6.40482 0.00558
C 3.68447 30.55051 -0.03672
C 2.47666 29.86074 0.01913
C 2.43349 28.47105 0.00267
C 3.69783 27.71547 0.00787
C 3.66695 26.22 0.02426
C 2.47033 25.58247 0.01218
C 2.51364 24.06265 -0.01471
C 3.73486 23.35309 -0.02827
C 3.72826 22.02176 0.01078
C 2.37805 21.36918 -0.00112
C 2.23926 19.91885 0.03345
C 3.59697 19.14896 0.00748
C 3.6399 17.79926 0.00662
C 2.32964 17.06263 -0.0154
C 2.30295 15.63045 -0.01299
C 3.53604 14.99865 -0.00407
C 3.48761 13.56095 0.01138
C 2.30123 12.79983 0.03278
C 2.27051 11.37833 -0.00177
C 3.45666 10.77697 0.04421
C 3.64977 9.23346 0.00088
C 2.45926 8.54286 0.00828
C 2.34044 7.15255 -0.02375
C 3.62231 5.05214 -0.0059
C 9.7956 21.36104 -0.01362
C 6.04387 10.69223 0.00907
C 4.94346 8.61323 -0.01509
C 7.33455 12.7848 -0.00077
C 7.30523 11.40432 0.03368
C 8.58072 10.60006 -0.02929
C 8.59478 9.27468 -0.00966
C 7.31283 8.64913 -0.03337
C 7.38343 7.17683 0.01227
C 8.58816 6.47497 0.00873
C 8.55057 5.01958 -0.00049
C 7.30576 4.38105 0.00848
C 7.31419 2.88987 -0.01303
C 8.51952 2.25156 -0.01378
C 8.53564 0.82263 0.02635
C 7.35533 0.09108 0.0127
C 9.76752 32.72865 0.01396
C 10.97601 32.07392 0.01849
C 11.0657 30.63162 -0.01142
C 9.80581 29.8894 -0.00562
C 9.81939 28.50785 -0.00494
C 11.03984 27.80985 0.00054
C 11.07102 26.36194 0.03007
C 9.8466 25.68157 -0.00095
C 9.77822 24.1774 0.01572
C 11.00907 23.4234 -0.04848
C 8.57857 13.50987 0.01305
C 6.1518 9.35816 0.00643
C 8.58283 14.96614 0.0276
C 7.30715 17.08621 -0.01343
C 4.91002 7.19366 0.03267
C 6.13317 6.52035 0.02374
C 6.07754 5.10823 0.00402
C 4.85609 4.28686 0.0073
C 4.89264 2.95735 0.0174
C 6.0278 2.23255 0.03828
C 6.12475 0.80232 0.01226
C 4.89042 0.02716 -0.00279
C 7.293 32.72442 0.01996
C 8.46497 32.01766 -0.03996
C 8.52615 30.56896 0.01465
C 7.35303 29.86217 -0.00074
C 7.37297 28.44849 -0.00518
C 8.5861 27.78614 0.0086
C 8.57625 26.32211 -0.00643
C 7.30158 25.64263 0.017
C 7.38953 24.26242 -0.03113
C 8.57274 23.47906 -0.02566
C 8.62215 22.03918 -0.00094
C 7.40391 21.24658 0.02322
C 7.33812 19.87404 -0.00725
C 8.58096 19.15596 -0.05697
C 8.56008 17.73822 0.01087
C 7.34944 15.66927 0.00988
C 3.6892 31.92053 -0.04306
C 17.24381 8.50052 -0.00109
C 18.45995 6.38695 0.03338
C 29.47953 19.94746 -0.01303
C 30.71335 19.26128 -0.01461
C 30.72047 17.91277 -0.02155
C 29.50065 17.16541 -0.00944
C 30.52513 9.02837 -0.03735
C 29.41748 8.26209 -0.00971
C 29.46826 6.9092 0.01518
C 30.68024 6.28303 0.01908
C 30.74058 4.83219 0.07705
C 29.51342 4.10423 0.0103
C 29.54667 2.80224 0.02108
C 30.7305 1.98775 0.00716
C 30.74041 0.60407 0.00307
C 29.49118 33.98927 0.00346
C 31.93689 32.67717 0.01713
C 33.17604 31.93158 -0.01694
C 33.18002 30.47511 0.01428
C 31.98972 29.81835 -0.02142
C 31.97401 28.3845 0.0544
C 33.23669 27.69428 0.00026
C 33.19435 26.27873 0.00682
C 31.89951 25.49946 -0.01779
C 31.99407 24.11785 0.03794
C 29.45667 21.32083 -0.0405
C 33.30865 23.41541 0.01927
C 30.67122 22.0148 0.01705
C 29.52501 24.17191 -0.00669
C 28.28705 22.01389 0.02611
C 27.03174 21.32427 0.02198
C 27.06705 19.89007 0.01094
C 28.26537 19.10668 0.00235
C 28.19067 17.57445 0.01495
C 26.93535 16.92486 0.01259
C 27.16979 8.50405 0.01799
C 27.09708 7.06871 0.01699
C 28.27051 6.30456 -0.00416
C 28.206 4.87884 0.01177
C 27.04447 4.23839 0.04266
C 27.03626 2.79039 0.01324
C 28.3049 2.08998 0.0014
C 28.29078 0.64346 0.00924
C 27.08325 34.05741 0.02326
C 29.47479 32.55085 0.00261
C 30.71651 31.91339 0.03265
C 30.75873 30.52852 -0.02049
C 29.52842 29.84642 -0.01854
C 29.5243 28.41856 -0.01415
C 30.75715 27.70456 -0.03039
C 30.6682 26.26895 0.01836
C 29.38771 25.68186 0.03531
C 30.70599 23.41811 0.0101
C 28.34385 23.41888 -0.00621
C 33.17558 22.03321 0.01574
C 31.97764 19.91652 -0.01429
C 0.05646 24.17564 0.03076
C 1.31074 23.465 0.00723
C 1.17877 22.01128 0.02712
C 34.38177 21.25565 -0.02213
C 34.34114 19.84321 0.01951
C 1.12422 19.13693 -0.01678
C 1.13405 17.7418 0.01223
C 34.36645 17.05859 0.00648
C 34.24038 15.51321 0.02114
C 1.08186 14.88421 -0.02957
C 1.01994 13.50534 0.00343
C 34.22069 12.74601 -0.02656
C 34.18621 11.27077 -0.02442
C 1.01981 10.60883 -0.00027
C 1.17853 9.17266 -0.00583
C 34.36678 8.39205 -0.02302
C 34.30555 7.01608 -0.02849
C 1.19193 6.39707 0.02931
C 1.18815 4.93517 0.00628
C 34.32995 4.21887 -0.0345
C 34.39703 2.83462 -0.00931
C 1.21178 2.0722 -0.00939
C 1.29592 0.68267 -0.00468
C 34.3942 25.65204 -0.05239
C 31.95725 21.40102 -0.02383
C 1.20025 26.29731 -0.00598
C 0.00611 28.42192 -0.01037
C 33.11198 19.23878 -0.0136
C 33.14052 17.81169 0.00594
C 31.93807 17.16561 -0.02474
C 31.71713 15.79425 0.00369
C 32.76866 14.882 0.00455
C 32.8005 13.39302 -0.00644
C 31.8219 12.47109 -0.01839
C 31.86983 11.19602 0.00137
C 33.05867 10.49517 0.00199
C 33.07738 9.13906 0.04381
C 31.76104 8.47317 0.02806
C 31.84798 7.0442 0.01504
C 33.09981 6.33617 -0.00069
C 33.0505 4.962 0.04926
C 31.8856 4.11383 -0.03838
C 31.95676 2.74988 0.00349
C 33.20527 2.14448 -0.00323
C 33.27864 0.69401 -0.00841
C 32.03518 34.02019 0.0001
C 34.43017 32.62569 -0.02927
C 1.19852 31.93374 -0.01404
C 1.1829 30.51462 0.01027
C 34.39714 29.79314 0.01831
C 1.19242 27.66549 -0.00439
C 17.26049 7.0571 -0.00491
C 27.06522 24.17772 0.00194
C 28.23822 26.36526 0.02316
C 20.86189 10.54447 -0.00865
C 20.89136 9.19044 0.00675
C 19.63876 8.50394 -0.00311
C 19.64314 7.14988 0.00742
C 20.89341 6.44484 -0.01594
C 20.92219 5.11899 0.0106
C 19.6683 4.28202 -0.01154
C 19.61193 2.85653 -0.01721
C 20.81026 2.1406 -0.02422
C 20.90585 0.76001 0.01277
C 19.6224 34.05446 0.00096
C 22.11556 32.58654 -0.01527
C 23.36149 31.86292 0.01087
C 23.29424 30.49821 0.00199
C 22.04864 29.80372 0.01511
C 22.04808 28.38961 -0.00478
C 23.31455 27.6596 -0.01662
C 23.2574 26.24656 -0.01185
C 22.10534 25.52677 0.01126
C 22.15352 24.11597 0.01852
C 23.37237 23.42113 -0.00381
C 23.22365 22.07362 0.03046
C 22.05497 21.26954 0.0296
C 19.69555 11.32209 0.0058
C 22.11142 19.86235 0.03374
C 19.72319 12.85762 -0.00652
C 20.96766 14.82011 -0.00703
C 18.48059 4.97291 -0.0258
C 17.22265 4.23548 -0.0331
C 17.24909 2.80614 -0.00316
C 18.45475 2.16051 0.02188
C 18.5029 0.70897 -0.01979
C 17.20041 0.04032 0.02691
C 19.64208 32.66861 -0.01581
C 20.84885 31.90673 0.01452
C 20.82119 30.53694 0.04892
C 19.61243 29.90789 -0.00111
C 19.55924 28.48708 -0.03557
C 20.78195 27.728 0.03754
C 20.81809 26.28445 0.01739
C 19.56255 25.56516 0.00755
C 19.61822 24.1696 -0.0054
C 20.89356 23.48446 0.00667
C 20.85278 21.93642 0.00143
C 19.65289 21.28123 -0.017
C 19.66423 19.88414 0.00364
C 20.91273 19.10763 -0.00831
C 20.92101 17.59628 -0.02957
C 19.68664 16.90539 -0.04422
C 19.69972 15.52996 0.00654
C 20.92953 13.46141 -0.04076
C 26.98854 25.61166 0.04185
C 23.38773 19.18687 -0.02845
C 22.11026 16.95357 0.02239
C 24.45073 21.30507 -0.00938
C 24.53709 19.85742 -0.0264
C 25.82859 19.20497 -0.01154
C 25.78701 17.7706 0.00684
C 24.57134 17.1042 -0.01052
C 24.64872 15.67547 -0.01679
C 24.15312 12.22337 0.00367
C 26.01433 9.05808 0.04306
C 24.70787 8.58674 0.00996
C 24.60686 7.08155 0.00195
C 25.87083 6.30722 -0.00802
C 25.7644 4.97511 -0.00218
C 24.55834 4.24907 -0.01654
C 24.55638 2.80377 -0.00037
C 25.80437 2.05349 -0.0032
C 25.79156 0.65457 0.00622
C 24.50649 34.05985 -0.02815
C 27.01934 32.66309 -0.00942
C 28.23864 31.94839 0.00487
C 28.23462 30.51459 0.00826
C 26.93094 29.88363 -0.00294
C 26.97887 28.50286 0.00152
C 28.30025 27.80526 0.01257
C 25.67095 21.97441 -0.00229
C 23.32742 17.71731 -0.03213
C 25.86625 23.4285 -0.01199
C 24.56654 25.57061 -0.00285
C 22.14327 15.55149 0.01153
C 23.6143 14.75914 0.02734
C 23.40011 13.41132 -0.0055
C 22.00863 12.71879 0.01515
C 22.08288 11.29834 -0.00225
C 23.37484 10.83123 0.00071
C 23.47076 9.48856 -0.01107
C 22.12057 8.53746 -0.01586
C 22.15047 7.11331 -0.01971
C 23.35443 6.38897 -0.02118
C 23.37999 4.94099 0.00733
C 22.13858 4.21973 -0.00178
C 22.05041 2.80922 0.00768
C 23.3258 2.2076 -0.0276
C 23.32554 0.75236 0.03005
C 22.07774 34.04532 -0.04078
C 24.51174 32.72238 0.02117
C 25.78664 31.97231 0.02737
C 25.70779 30.55024 -0.00498
C 24.50795 29.85358 0.00135
C 24.60852 28.38905 0.03102
C 25.7707 27.74902 0.02555
C 25.80065 26.32003 0.01423
C 24.59244 24.19816 -0.009
C 2.45833 32.61927 -0.00012
