436
Graphene
C 0.05415 34.05213 0.01295
C 12.3105 11.44718 0.02339
C 13.46425 10.69374 0.01641
C 13.52212 9.2412 -0.00719
C 12.27928 8.51827 0.01364
C 12.29174 7.12201 -0.01062
C 13.46105 6.32869 -0.00033
C 13.52043 4.91878 0.03589
C 12.30824 4.28158 -0.02759
C 12.25857 2.85354 0.0402
C 13.53693 2.08574 0.00572
C 13.55325 0.71833 0.03592
C 12.30555 0.04692 0.00406
C 14.81931 32.67306 0.00943
C 16.02388 31.96361 0.02841
C 16.00615 30.51961 -0.01111
C 14.78423 29.77231 -0.01275
C 14.7409 28.29857 0.00985
C 15.95 27.70071 -0.02245
C 15.97404 26.27519 -0.00428
C 14.71153 25.528 0.03101
C 14.75075 24.13324 -0.01536
C 15.97553 23.38988 -0.02689
C 15.97076 22.03661 -0.01046
C 12.28068 12.86289 -0.00334
C 14.75191 21.31343 -0.00891
C 13.54466 13.54155 -0.01634
C 12.25877 15.68381 0.00093
C 11.07796 6.37409 -0.00892
C 11.04329 4.98055 -0.01362
C 9.81111 4.37253 -0.0008
C 9.83768 2.89063 0.0288
C 11.0474 2.13407 0.00393
C 11.10212 0.6658 0.00895
C 9.84456 0.04773 0.00685
C 12.34493 32.68766 0.02888
C 13.58758 31.93864 -0.00482
C 13.49878 30.47999 -0.01384
C 12.25622 29.88705 0.03693
C 12.22488 28.45808 0.01745
C 13.42374 27.68672 0.00488
C 13.48868 26.2341 -0.01004
C 12.26119 25.58067 -0.02896
C 12.28451 24.18843 -0.00131
C 13.54997 23.48447 -0.01118
C 13.47179 22.10711 -0.014
C 12.30757 21.35481 0.02147
C 12.22794 19.94128 0.00373
C 13.43739 19.28402 -0.00191
C 13.50714 17.83554 0.00438
C 12.21863 17.14505 0.01291
C 13.48005 14.94338 0.00057
C 14.70106 19.88409 0.02819
C 15.91906 19.16029 0.00165
C 15.99466 17.76267 -0.02971
C 17.19439 21.27881 -0.0108
C 17.18178 19.8573 -0.00368
C 18.41308 19.10337 -0.02696
C 18.40759 17.74824 -0.00114
C 17.19216 17.02649 0.00228
C 17.23824 15.58036 0.00798
C 18.43035 14.8931 0.00422
C 18.43276 13.42447 0.0351
C 17.1984 12.78279 -0.03113
C 17.17879 11.37854 0.02098
C 18.41814 10.66656 0.01848
C 18.39036 9.24779 -0.00619
C 17.13717 8.54041 -0.02162
C 17.21997 7.08428 0.00889
C 18.43737 6.36914 -0.00481
C 18.43196 4.9857 0.00979
C 17.23142 4.32799 0.01443
C 17.20512 2.87441 0.03505
C 18.45161 2.12616 -0.02815
C 18.46182 0.72595 -0.04147
C 17.24937 0.01233 -0.05302
C 19.61634 32.61952 0.00213
C 20.88595 31.90822 -0.00066
C 18.43935 21.99383 -0.01957
C 18.42256 23.42038 0.02058
C 17.21789 24.15253 0.01965
C 17.18229 25.5576 -0.03682
C 14.73281 17.1128 0.02894
C 14.71837 15.68225 -0.01789
C 16.00033 14.91866 0.00444
C 15.97706 13.50206 -0.00925
C 14.76249 12.83598 0.01877
C 14.7397 11.38967 0.01363
C 15.93123 10.67783 -0.02162
C 15.90057 9.23558 0.00415
C 14.68388 8.51226 -0.0014
C 14.69619 7.06895 0.02162
C 15.93447 6.36259 0.0076
C 9.82183 7.14544 -0.04848
C 15.9299 4.98979 0.01241
C 14.78495 2.84326 0.01945
C 16.02723 2.1382 0.01416
C 16.01149 0.70639 0.03542
C 14.84802 0.00758 0.02299
C 17.22448 32.68958 0.00244
C 18.41938 31.91176 -0.01717
C 18.41357 30.55489 0.05265
C 17.21303 29.75986 -0.01952
C 17.15676 28.39527 -0.02813
C 18.36946 27.70462 0.00374
C 18.38919 26.29915 0.00052
C 14.75179 4.19721 -0.01454
C 20.83174 30.51719 -0.00289
C 9.88025 8.59297 0.01572
C 11.05586 10.71115 0.03007
C 4.86419 29.81259 -0.02375
C 4.85955 28.35142 0.00558
C 6.03646 27.67633 -0.0059
C 6.14841 26.27529 -0.01386
C 4.92485 25.57913 -0.02805
C 4.91838 24.12676 0.00081
C 6.15008 23.42907 0.00245
C 6.21232 21.97319 0.02728
C 4.9153 21.31519 -0.00039
C 4.85875 19.88602 0.0064
C 6.11506 19.14553 0.00211
C 6.11876 17.66101 -0.00449
C 4.80993 16.91011 -0.01979
C 5.05331 15.57656 0.02784
C 6.13205 14.96485 -0.01977
C 6.09845 9.22683 -0.00561
C 4.90196 8.4793 0.00208
C 4.83128 7.17544 0.01707
C 6.06208 6.49851 0.02769
C 6.10615 5.01489 -0.03291
C 4.81371 4.28097 -0.04999
C 4.87089 2.8456 0.04505
C 6.14846 2.23435 0.03284
C 6.09704 30.57517 0.00828
C 6.14419 0.79442 -0.04307
C 6.15397 32.02823 0.00088
C 2.50064 0.05621 -0.00177
C 3.71263 30.51037 0.01984
C 2.46999 29.80113 0.00535
C 2.44463 28.4128 -0.00198
C 3.63745 27.73046 -0.00012
C 3.71909 26.25082 -0.04306
C 2.47356 25.52907 -0.03672
C 2.5198 24.1502 0.01913
C 3.72537 23.40126 0.00267
C 3.70562 22.03023 0.00787
C 2.41461 21.21642 0.02426
C 2.42354 19.85642 0.01218
C 3.62532 19.07295 -0.01471
C 3.59728 17.68365 -0.02827
C 2.43781 16.91532 0.01078
C 2.24403 15.46284 -0.00112
C 2.41246 8.52867 0.03345
C 2.46125 7.14831 0.00748
C 3.60984 6.42942 0.00662
C 3.63344 5.00675 -0.0154
C 2.44549 4.25715 -0.01299
C 2.44055 2.8156 -0.00407
C 3.69394 2.15627 0.01138
C 3.7707 0.7571 0.03278
C 4.93928 32.7289 0.04421
C 4.94504 0.0673 0.03189
C 7.39928 32.69281 0.00031
C 8.60319 32.05917 -0.003
C 8.66499 0.78865 -0.01343
C 7.36878 0.12082 0.00988
C 9.83137 32.69206 0.0276
C 11.11619 31.97552 0.01305
C 11.02985 30.57329 -0.00077
C 9.78505 29.93209 0.03368
C 9.78403 28.51778 -0.02929
C 11.00603 27.80492 -0.00966
C 11.04979 26.293 -0.03337
C 9.76682 25.59663 0.01227
C 9.8478 24.20792 0.00873
C 11.02749 23.48525 -0.00049
C 11.04738 22.03975 0.00848
C 9.83594 21.33315 -0.01303
C 9.75961 19.92317 -0.01378
C 11.02628 19.21022 0.02635
C 10.99732 17.81658 0.0127
C 9.77431 17.05262 0.01396
C 9.78884 15.6667 0.01849
C 11.04629 14.91925 -0.01142
C 11.06807 13.52215 -0.00562
C 9.80554 12.80146 -0.00494
C 9.82555 11.41788 0.00054
C 8.5457 2.2798 0.01087
C 7.35807 3.00644 -0.05697
C 7.37543 4.35486 -0.00725
C 8.56683 5.06408 0.02322
C 8.55051 30.62689 0.01402
C 7.32276 29.86526 0.02379
C 7.33152 28.42616 0.00907
C 8.5592 27.68914 0.00643
C 8.55528 26.32986 -0.01509
C 7.36055 25.60601 0.03267
C 7.3482 24.20393 0.02374
C 8.61628 23.47633 0.00402
C 8.61249 22.01578 0.0073
C 7.43917 21.30959 0.0174
C 7.33256 19.88943 0.03828
C 11.11022 9.27154 -0.00095
C 8.53324 19.1906 0.01226
C 7.34379 16.97305 0.01996
C 7.41761 15.59568 -0.03996
C 8.56936 14.90852 0.01465
C 8.53686 13.56452 -0.00074
C 7.42609 12.76246 -0.00518
C 7.44192 11.44641 0.0086
C 8.56145 10.64786 -0.00643
C 8.58611 9.27109 0.017
C 7.34152 8.58664 -0.03113
C 7.36755 7.17575 -0.02566
C 8.62206 6.48797 -0.00094
C 8.4686 17.78827 -0.00279
C 19.64271 29.81064 0.00028
C 19.63853 28.39283 -0.02213
C 20.86581 27.76505 0.03698
C 29.53848 16.99585 -0.0405
C 29.46892 15.60944 -0.01303
C 30.75839 14.84166 -0.01461
C 30.72832 13.41184 -0.02155
C 29.48716 12.72304 -0.00944
C 29.48655 11.30006 -0.03735
C 30.721 10.59189 -0.00971
C 30.72947 9.1739 0.01518
C 29.4745 8.48332 0.01908
C 29.5389 7.00567 0.07705
C 30.708 6.25313 0.0103
C 30.80338 4.87746 0.02108
C 29.537 4.15435 0.00716
C 29.53531 2.77824 0.00307
C 30.7222 2.06115 0.00346
C 30.72693 0.6893 0.01713
C 29.52078 0.04045 -0.01694
C 32.00063 32.64452 0.01428
C 33.2438 31.97716 -0.02142
C 33.16782 30.62604 0.0544
C 31.95947 29.88053 0.00026
C 32.01607 28.49917 0.00682
C 33.19397 27.72472 -0.01779
C 30.63617 17.70624 0.01705
C 33.16787 26.33325 0.03794
C 30.7292 19.14694 0.0101
C 29.43329 21.28353 0.03531
C 27.0651 11.37238 -0.00621
C 28.26824 10.58672 0.02611
C 28.18689 9.11339 0.02198
C 27.0089 8.4328 0.01094
C 27.04826 7.04443 0.00235
C 28.28103 6.30321 0.01495
C 28.3156 4.91318 0.01259
C 27.07493 4.22763 0.01799
C 27.08137 2.78368 0.01699
C 28.33664 2.09494 -0.00416
C 28.23497 0.69347 0.01177
C 27.01963 0.02898 0.04266
C 29.46956 32.65991 0.01324
C 30.74123 31.9851 0.0014
C 30.78364 30.57964 0.00924
C 29.56157 29.88499 0.02326
C 29.48203 28.53445 0.00261
C 30.72571 27.81104 0.03265
C 30.70175 26.31219 -0.02049
C 29.53655 25.5482 -0.01854
C 29.43609 24.1356 -0.01415
C 30.69497 23.47102 -0.03039
C 30.67841 21.97916 0.01836
C 29.50362 19.85133 -0.00669
C 31.91655 25.63931 0.01927
C 31.89009 24.19527 0.01574
C 33.14377 23.48046 -0.02383
C 1.16412 26.24886 0.03076
C 34.34175 25.54734 0.00723
C 34.34803 24.13123 0.02712
C 1.24175 23.44997 -0.02213
C 1.23795 22.02792 0.01951
C 34.40448 21.3281 -0.01678
C 34.40588 19.897 0.01223
C 1.17 19.13172 0.00648
C 1.17588 17.7108 0.02114
C 34.38871 16.95336 -0.02957
C 34.3573 15.51118 0.00343
C 1.14341 14.88934 -0.02656
C 34.27602 12.62146 -0.02442
C 34.39047 11.27095 -0.00027
C 1.19914 9.13457 -0.00583
C 0.02353 8.48577 -0.02302
C 0.01548 7.09275 -0.02849
C 1.2514 6.41523 0.02931
C 1.24653 4.98092 0.00628
C 0.08952 4.18834 -0.0345
C 0.04906 2.82075 -0.00931
C 1.26068 2.11095 -0.00939
C 1.25859 0.69379 -0.00468
C 1.19167 27.72488 -0.05239
C 34.43094 28.49806 -0.00598
C 34.35937 29.85247 -0.00439
C 1.20121 30.56138 -0.01037
C 33.16736 22.06533 -0.01429
C 31.94526 21.30651 -0.0136
C 31.93728 19.86968 0.00594
C 33.19221 19.17101 -0.02474
C 33.17611 17.67737 0.00369
C 31.89152 16.9963 0.00455
C 31.97099 15.58831 -0.00644
C 33.12698 14.84558 -0.01839
C 33.13068 13.41862 0.00137
C 31.93565 12.70389 0.00199
C 31.93216 11.27258 0.04381
C 27.00184 12.7579 0.00194
C 33.17655 10.50731 0.02806
C 31.96487 8.5026 -0.00069
C 31.95509 7.05172 0.04926
C 33.23778 6.34012 -0.03838
C 33.24425 4.91887 0.00349
C 31.99243 4.1627 -0.00323
C 31.98836 2.75543 -0.00841
C 33.25694 2.09789 0.0001
C 33.23006 0.66106 -0.02927
C 31.99524 0.00567 -0.01404
C 0.0514 32.61021 0.01027
C 1.26627 31.94634 0.01831
C 33.21598 9.13039 0.01504
C 28.20932 13.48782 0.04185
C 28.20955 14.92001 0.02316
C 26.97579 15.69121 0.01257
C 23.41023 30.52892 -0.00652
C 22.08247 29.811 0.0058
C 22.1615 28.36869 -0.00865
C 23.40308 27.71375 0.00675
C 23.35188 26.23895 -0.00311
C 22.06235 25.61772 0.00742
C 22.08147 24.16503 -0.01594
C 23.30825 23.47685 0.0106
C 23.30022 22.1011 -0.01154
C 22.0778 21.37263 -0.01721
C 22.029 19.93555 -0.02422
C 23.33136 19.26069 0.01277
C 23.33889 17.75077 0.00096
C 22.14449 17.10104 -0.01527
C 22.14382 15.66129 0.01087
C 23.32681 14.91259 0.00199
C 23.35664 13.48746 0.01511
C 22.19894 12.75319 -0.00478
C 22.10786 11.3342 -0.01662
C 23.37194 10.67331 -0.01185
C 23.36153 9.2312 0.01126
C 22.09928 8.54766 0.01852
C 22.07918 7.13521 -0.00381
C 23.38553 31.99462 -0.04076
C 22.10184 32.71313 -0.00703
C 19.62356 34.0331 0.00654
C 20.79054 0.74197 -0.04422
C 20.89915 26.28868 -0.00109
C 19.64745 25.61407 -0.00491
C 19.6362 24.20607 0.03338
C 20.84434 23.49094 -0.0258
C 20.86241 22.03746 -0.0331
C 19.65172 21.31784 -0.00316
C 19.65258 19.84862 0.02188
C 20.89326 19.11307 -0.01979
C 20.89779 17.74458 0.02691
C 19.63321 16.99848 -0.01581
C 19.69951 15.59712 0.01452
C 23.29221 6.3214 0.03046
C 20.94456 14.89712 0.04892
C 19.64282 12.73017 -0.03557
C 19.7086 11.34511 0.03754
C 20.94327 10.66051 0.01739
C 20.83079 9.24594 0.00755
C 19.62991 8.51429 -0.0054
C 19.59196 7.11506 0.00667
C 20.84803 6.43381 0.00143
C 20.86377 5.02522 -0.017
C 19.67646 4.3075 0.00364
C 19.68923 2.87241 -0.00831
C 20.8541 2.12391 -0.02957
C 20.94063 13.47674 -0.00111
C 3.7185 31.98783 0.01073
C 23.34839 4.94116 0.0296
C 22.0788 2.81807 -0.02845
C 25.79781 6.36682 -0.00229
C 25.80505 4.93971 -0.00938
C 24.57078 4.22169 -0.0264
C 24.54239 2.77464 -0.01154
C 25.79561 2.18036 0.00684
C 25.75832 0.70246 -0.01052
C 24.52615 0.03803 -0.01679
C 27.00507 32.69285 0.00367
C 28.26168 31.93061 0.04306
C 28.26075 30.5064 0.00996
C 27.06634 29.82727 0.00195
C 27.06162 28.44881 -0.00802
C 28.32855 27.73408 -0.00218
C 28.26481 26.22475 -0.01654
C 27.06464 25.4928 -0.00037
C 27.11116 24.13149 -0.0032
C 28.23535 23.4003 0.00622
C 28.22805 21.99775 -0.02815
C 26.99332 21.29029 -0.00942
C 27.00271 19.82623 0.00487
C 28.24694 19.14362 0.00826
C 28.27292 17.75755 -0.00294
C 27.01931 17.05828 0.00152
C 24.53842 6.98251 -0.01199
C 24.57824 8.49253 -0.009
C 25.7641 9.16091 -0.00285
C 25.84891 10.65938 0.01423
C 23.24887 2.0209 -0.03213
C 23.26322 0.74244 0.02239
C 22.05551 0.00941 0.01153
C 24.54913 32.7127 0.02734
C 25.75804 31.96331 -0.0055
C 25.84059 30.53734 0.01515
C 24.58742 29.83716 -0.00225
C 24.61804 28.4403 0.00071
C 25.87372 27.72567 -0.01107
C 25.84543 26.30117 -0.01586
C 24.5954 25.5437 -0.01971
C 22.09025 4.24639 0.03374
C 24.56545 24.12675 -0.02118
C 25.81308 22.01379 -0.00178
C 24.53654 21.34653 0.00768
C 24.597 19.91955 -0.0276
C 25.76668 19.17067 0.03005
C 25.78482 17.72309 -0.04078
C 24.57838 17.07139 0.02117
C 24.60276 15.60576 0.02737
C 25.83355 14.87589 -0.00498
C 25.85389 13.53786 0.00135
C 24.6623 12.78679 0.03102
C 24.56555 11.34241 0.02555
C 25.81879 23.44981 0.00733
C 2.47756 32.67724 -0.00018
