372
Graphene
C 34.32427 0.04801 0.01295
C 13.42089 32.07855 0.00244
C 13.51047 30.58447 -0.01717
C 12.21011 29.89108 0.05265
C 12.21377 28.45811 -0.01952
C 13.49038 27.72811 -0.02813
C 13.46951 26.34589 0.00374
C 12.28863 25.67217 0.00052
C 12.33506 24.18484 -0.03682
C 13.53595 23.51647 0.01965
C 13.57858 22.09194 0.02058
C 12.25991 21.35678 -0.01957
C 12.2671 19.90648 -0.0108
C 13.47356 19.12554 -0.00368
C 13.4778 17.75882 -0.02696
C 12.30982 16.9554 -0.00114
C 12.20408 15.46589 0.00228
C 13.44489 14.95877 0.00798
C 12.40789 2.83841 0.00422
C 13.40921 2.29599 0.0351
C 12.231 32.75265 0.02299
C 13.48791 0.83387 -0.03113
C 9.6832 0.11215 0.03542
C 11.00496 2.01027 0.01945
C 11.04385 27.71238 -0.02689
C 10.98179 26.31254 -0.01046
C 9.82487 25.58883 -0.00891
C 9.91453 24.18463 0.02819
C 11.12776 23.5039 0.00165
C 11.04948 22.0996 -0.02971
C 9.80959 21.33311 0.02894
C 9.83379 19.83206 -0.01789
C 11.05024 19.10831 0.00444
C 11.10348 17.73087 -0.00925
C 9.88518 16.95106 0.01877
C 9.88474 15.60438 0.01363
C 11.02082 14.75426 -0.02162
C 11.0985 13.39878 0.00415
C 9.97273 12.59789 -0.0014
C 9.77797 10.99852 0.02162
C 9.84656 9.23617 0.0076
C 11.09374 3.43572 0.01241
C 9.74658 2.86605 -0.01454
C 11.01807 0.63656 0.01416
C 12.246 0.05993 0.02098
C 14.73539 32.75292 0.01848
C 15.93565 32.05058 -0.00619
C 17.19335 25.52306 -0.01581
C 17.25263 24.14443 0.01452
C 18.46476 23.42009 0.04892
C 18.42003 22.01235 -0.00111
C 17.23405 21.31485 -0.03557
C 17.23468 19.85051 0.03754
C 18.42132 19.04755 0.01739
C 18.38204 17.57131 0.00755
C 17.07381 16.97509 -0.0054
C 18.53731 0.62926 0.00667
C 17.22489 0.16764 0.00143
C 19.62843 32.67131 -0.017
C 20.81161 31.81507 0.00364
C 20.86419 30.45232 -0.00831
C 19.69174 29.82744 -0.02957
C 19.64444 28.33673 -0.04422
C 20.8947 27.57549 0.00654
C 20.9403 26.21798 -0.00703
C 19.70121 25.47537 -0.04076
C 18.48725 26.15621 0.02691
C 18.40144 27.59912 -0.01979
C 17.19561 28.34122 0.02188
C 17.25083 29.79211 -0.00316
C 16.0167 30.59067 -0.02162
C 14.73318 29.9144 0.00889
C 14.78844 28.45103 -0.00481
C 15.93012 27.67542 0.00979
C 15.96058 26.30007 0.01443
C 14.72928 25.6501 0.03505
C 14.76097 24.18431 -0.02815
C 15.96016 23.45004 -0.04147
C 16.00619 22.01805 -0.05302
C 9.79674 28.45518 -0.01536
C 14.73226 21.31331 0.00213
C 15.97571 19.20276 -0.00289
C 15.94707 17.71501 0.00028
C 14.713 16.9884 -0.02213
C 14.66653 15.64438 0.03698
C 15.88511 0.88821 -0.00109
C 14.64898 0.11892 -0.00491
C 17.18264 32.78539 0.03338
C 18.40348 32.05246 -0.0258
C 18.41759 30.6196 -0.0331
C 14.7427 19.9306 -0.00066
C 19.63208 24.11175 -0.00652
C 9.85075 29.85916 0.03101
C 10.98737 32.10922 -0.02245
C 3.74051 6.4692 0.03368
C 3.71493 5.05004 -0.02929
C 2.40996 4.3264 -0.00966
C 2.41796 2.84375 -0.03337
C 3.59829 2.18403 0.01227
C 3.58668 0.69813 0.00873
C 2.34514 0.12088 -0.00049
C 4.81756 32.72035 0.00848
C 6.10428 32.01105 -0.01303
C 6.05381 30.5762 -0.01378
C 4.78908 29.90485 0.02635
C 4.82833 28.44386 0.0127
C 6.13396 27.83217 0.01396
C 6.07566 26.29427 0.01849
C 4.84296 25.56915 -0.01142
C 4.94367 24.16637 -0.00562
C 6.17381 23.43938 -0.00494
C 6.13518 22.01658 0.00054
C 4.91053 21.39314 0.03007
C 2.50515 7.14129 -0.00077
C 4.90297 19.96207 -0.00095
C 2.3762 8.59516 0.01305
C 3.64563 10.8106 0.00988
C 3.59076 30.6551 0.03828
C 2.34906 29.85746 0.01226
C 2.38699 28.4403 -0.00279
C 3.61618 27.76212 0.01996
C 3.64639 26.30027 -0.03996
C 2.4537 25.644 0.01465
C 2.46456 24.21463 -0.00074
C 3.74205 23.46965 -0.00518
C 3.60172 22.09816 0.0086
C 2.5013 21.38219 -0.00643
C 2.48265 19.92562 0.017
C 3.76573 19.26134 -0.03113
C 3.7358 17.77913 -0.02566
C 2.53772 17.11818 -0.00094
C 2.43707 15.72485 0.02322
C 3.68054 15.00858 -0.00725
C 3.75166 13.59937 -0.05697
C 2.45303 12.85504 0.01087
C 2.43888 11.47813 -0.01343
C 3.60691 9.29072 0.0276
C 6.2088 19.272 0.01572
C 6.28644 17.84332 -0.04848
C 4.9503 17.17328 -0.00892
C 8.59384 22.03251 -0.01634
C 7.38442 21.39612 -0.00334
C 7.44433 19.96816 0.02339
C 8.59975 19.15409 0.01641
C 8.6591 17.77883 -0.00719
C 7.42194 17.02433 0.01364
C 7.42531 15.64269 -0.01062
C 8.62431 14.96078 -0.00033
C 8.75829 13.46502 0.03589
C 7.51859 12.79579 -0.02759
C 7.37922 11.37403 0.0402
C 8.5102 10.55948 0.00572
C 8.50653 9.10653 0.03592
C 7.1995 8.38765 0.00406
C 7.28943 2.99995 0.00943
C 8.52845 2.45033 0.02841
C 8.5066 0.98568 -0.01111
C 7.32337 0.16815 -0.01275
C 9.69499 32.75178 0.00985
C 8.61825 23.50339 0.00057
C 7.30502 24.23621 0.00093
C 7.32236 25.64621 0.01291
C 8.56269 26.39661 0.00438
C 5.00915 15.68468 -0.01362
C 6.2146 14.91256 -0.0008
C 6.21632 13.49054 0.0288
C 4.93667 12.80186 0.00393
C 4.82942 11.45484 0.00895
C 6.09788 10.77705 0.00685
C 6.04432 9.29055 0.02888
C 4.75656 8.51448 -0.00482
C 4.9809 7.18084 -0.01384
C 11.03939 30.61582 -0.00428
C 4.88041 4.25518 0.03693
C 6.09928 2.18818 0.00488
C 6.10223 0.74881 -0.01004
C 4.88088 0.0232 -0.02896
C 7.32245 32.78317 -0.00131
C 8.57802 32.03264 -0.01118
C 8.56207 30.53405 -0.014
C 7.30433 29.90687 0.02147
C 7.38372 28.52339 0.00373
C 8.5893 27.75226 -0.00191
C 4.85749 2.86267 0.01745
C 20.86348 23.31798 0.0058
C 20.92847 21.93083 -0.00865
C 19.62358 21.23098 0.00675
C 30.63834 2.23546 0.00716
C 30.596 0.83556 0.00307
C 29.3844 0.05728 0.00346
C 31.89778 32.69404 0.01713
C 33.08652 31.97847 -0.01694
C 33.05089 30.57832 0.01428
C 31.81914 29.83102 -0.02142
C 31.97186 28.50114 0.0544
C 33.16367 27.70238 0.00026
C 33.18902 26.35788 0.00682
C 31.96583 25.62876 -0.01779
C 32.05186 24.17239 0.03794
C 33.23828 23.51627 0.01927
C 33.18184 22.06388 0.01574
C 32.02103 21.31451 -0.02383
C 31.94761 19.84262 -0.01429
C 33.19042 19.15039 -0.0136
C 33.29979 17.68692 0.00594
C 31.978 17.08771 -0.02474
C 29.36192 2.91022 0.02108
C 31.9998 15.62521 0.00369
C 29.37317 4.29602 0.0103
C 30.62287 6.41648 0.01908
C 30.6878 26.28551 0.00261
C 29.53895 25.52774 0.03265
C 29.54945 24.2027 -0.02049
C 30.84279 23.51155 -0.01854
C 30.81636 22.04535 -0.01415
C 29.57032 21.29321 -0.03039
C 29.58553 19.89279 0.01836
C 30.76449 19.21736 0.03531
C 30.76144 17.83326 -0.00669
C 29.54114 17.07797 0.0101
C 29.529 15.63258 0.01705
C 30.68646 14.90553 -0.0405
C 30.7426 13.47383 -0.01303
C 29.53207 12.6614 -0.01461
C 29.52631 11.34602 -0.02155
C 30.77134 10.63248 -0.00944
C 30.67843 9.18462 -0.03735
C 29.40019 8.5287 -0.00971
C 29.36855 7.12391 0.01518
C 30.56961 5.02816 0.07705
C 33.18091 14.86582 0.00455
C 33.20117 13.53321 -0.00644
C 32.00858 12.78418 -0.01839
C 34.38564 19.93387 0.01951
C 1.31392 19.23615 -0.01678
C 1.21705 17.82696 0.01223
C 0.0324 17.04229 0.00648
C 34.42799 15.58649 0.02114
C 1.15818 14.85524 -0.02957
C 1.23947 13.51066 0.00343
C 0.0015 12.82557 -0.02656
C 34.4305 11.38738 -0.02442
C 1.20005 10.68182 -0.00027
C 1.17725 9.27553 -0.00583
C 34.3756 8.53229 -0.02302
C 34.41121 7.15713 -0.02849
C 1.24113 6.46555 0.02931
C 1.17445 4.9835 0.00628
C 34.41873 4.33437 -0.0345
C 34.35845 2.86276 -0.00931
C 1.13936 2.20783 -0.00939
C 1.11198 0.80021 -0.00468
C 34.43098 21.37524 -0.02213
C 1.15827 22.09202 0.02712
C 1.25958 23.54555 0.00723
C 0.05308 24.23012 0.03076
C 32.00998 11.43124 0.00137
C 33.22283 10.61657 0.00199
C 33.18237 9.24789 0.04381
C 31.89752 8.50468 0.02806
C 31.88995 7.08096 0.01504
C 33.1939 6.39583 -0.00069
C 33.18635 4.98609 0.04926
C 31.90434 4.38028 -0.03838
C 31.88573 2.89366 0.00349
C 30.6991 27.74025 0.02326
C 33.12009 2.13639 -0.00323
C 31.78415 34.07715 0.0001
C 34.3668 32.72259 -0.02927
C 1.12133 32.00243 -0.01404
C 1.11139 30.5272 0.01027
C 34.29407 29.85724 0.01831
C 34.3972 28.47716 -0.01037
C 1.16073 27.79174 -0.00439
C 1.16462 26.36607 -0.00598
C 34.39789 25.60326 -0.05239
C 33.08661 0.67871 -0.00841
C 29.42281 28.40492 0.00924
C 29.42911 29.81341 0.0014
C 30.64865 30.50375 0.01324
C 23.08003 1.88762 0.02239
C 23.30005 0.5648 0.01153
C 22.15303 33.92996 0.02734
C 24.58213 32.48645 -0.0055
C 25.74664 31.82531 0.01515
C 25.78999 30.44173 -0.00225
C 24.57114 29.69301 0.00071
C 24.55035 28.32511 -0.01107
C 25.75845 27.62421 -0.01586
C 25.8915 26.0645 -0.01971
C 24.62629 25.42078 -0.02118
C 24.61346 24.00382 0.00733
C 25.80191 23.31039 -0.00178
C 25.91733 21.87169 0.00768
C 24.66397 21.16974 -0.0276
C 24.62966 19.76648 0.03005
C 25.83275 19.06008 -0.04078
C 25.85007 17.64481 0.02117
C 24.58497 17.03192 0.02737
C 23.32463 14.89218 -0.03213
C 22.18439 15.55654 -0.02845
C 22.07275 16.93512 0.03374
C 23.3168 17.70654 0.0296
C 19.61029 19.83615 -0.00311
C 20.85533 19.14304 0.00742
C 20.79141 17.69397 -0.01594
C 19.66947 17.06721 0.0106
C 21.08505 0.60122 -0.01154
C 19.80605 0.06564 -0.01721
C 22.09373 32.44835 -0.02422
C 23.28255 31.74054 0.01277
C 23.31743 30.34116 0.00096
C 24.55727 15.59182 -0.00498
C 22.11635 29.68648 -0.01527
C 23.34525 27.61533 0.00199
C 23.39264 26.13132 0.01511
C 22.10518 25.43492 -0.00478
C 22.08728 24.09201 -0.01662
C 23.29926 23.2898 -0.01185
C 23.39353 21.89909 0.01126
C 22.16158 21.20817 0.01852
C 22.14864 19.80476 -0.00381
C 23.36709 19.13089 0.03046
C 22.05842 28.27054 0.01087
C 3.55968 32.03245 0.0174
C 25.82219 14.83491 0.00135
C 24.75426 12.40947 0.02555
C 27.0206 16.96151 0.00826
C 27.08595 15.55681 -0.00294
C 28.30911 14.92515 0.00152
C 28.34089 13.51913 0.01257
C 27.15366 12.75504 0.02316
C 26.97908 11.39624 0.04185
C 28.21608 10.66054 0.00194
C 28.15647 9.26771 -0.00621
C 26.86546 8.571 0.02611
C 26.86289 7.10777 0.02198
C 28.15776 6.46963 0.01094
C 28.08418 5.05738 0.00235
C 26.84362 4.37882 0.01495
C 26.86912 2.93127 0.01259
C 28.11454 2.17875 0.01799
C 28.0768 0.75714 0.01699
C 26.9118 34.07393 -0.00416
C 29.46933 32.65292 0.01177
C 30.62758 31.93893 0.04266
C 28.33276 17.67626 0.00487
C 28.31883 19.06152 -0.00942
C 27.10407 19.75261 -0.02815
C 27.13731 21.22154 0.00622
C 25.51882 10.85444 0.01423
C 25.73744 9.52478 -0.00285
C 25.61687 6.49712 -0.009
C 25.6345 5.07026 -0.01199
C 24.51899 4.15467 -0.00229
C 24.37508 2.8021 -0.00938
C 25.61729 2.17423 -0.0264
C 25.71601 0.70398 -0.01154
C 24.66361 33.96986 0.00684
C 25.75795 13.35639 0.03102
C 26.9919 32.63666 -0.01052
C 28.18809 30.54833 0.00367
C 26.9869 29.79399 0.04306
C 26.96563 28.34762 0.00996
C 28.22747 27.69773 0.00195
C 28.31655 26.19775 -0.00802
C 27.16065 25.44655 -0.00218
C 27.09852 24.06519 -0.01654
C 28.30136 23.3871 -0.00037
C 28.36311 21.95151 -0.0032
C 28.19845 31.99001 -0.01679
C 2.35211 32.72661 0.0073
