336
Graphene
C 34.37102 0.00554 0.01295
C 13.52048 0.75484 -0.00481
C 12.28955 0.08266 0.00979
C 14.8022 32.72837 0.01443
C 16.00282 31.9543 0.03505
C 15.97763 30.5078 -0.02815
C 14.69398 29.84083 -0.04147
C 14.75302 28.42475 -0.05302
C 16.00451 27.67955 0.00213
C 16.02926 26.14957 -0.00066
C 14.7489 25.52057 -0.00289
C 14.76102 24.11436 0.00028
C 16.02235 23.23977 -0.02213
C 16.24987 21.86084 0.03698
C 14.83508 21.32218 -0.00109
C 14.68326 2.94165 -0.00491
C 15.96303 2.26356 0.03338
C 15.93353 0.82371 -0.0258
C 13.47519 2.17549 0.00889
C 14.77661 0.13277 -0.0331
C 12.25486 2.85573 -0.02162
C 13.69268 21.97588 0.01848
C 9.87218 7.04304 -0.02813
C 10.98566 5.04491 0.00374
C 9.72862 4.32957 0.00052
C 9.76345 2.87232 -0.03682
C 11.07873 2.16465 0.01965
C 11.09397 0.80621 0.02058
C 9.89054 0.09148 -0.01957
C 12.36807 32.70548 -0.0108
C 13.61022 31.96216 -0.00368
C 13.46756 30.53842 -0.02696
C 12.24027 29.8264 -0.00114
C 12.32311 28.36056 0.00228
C 13.54894 27.73286 0.00798
C 13.59309 26.26248 0.00422
C 12.29274 25.67143 0.0351
C 12.26017 24.2837 -0.03113
C 13.51848 23.402 0.02098
C 11.95593 4.34818 -0.00619
C 11.07364 23.59885 -0.01952
C 17.21886 32.63868 -0.00316
C 18.35697 30.45929 -0.01979
C 19.6933 24.19836 0.0058
C 20.93159 23.52879 -0.00865
C 21.06452 22.17606 0.00675
C 19.89979 21.3433 -0.00311
C 20.52472 20.00255 0.00742
C 19.70805 2.98652 -0.01594
C 20.82593 2.12407 0.0106
C 20.81745 0.72588 -0.01154
C 19.67189 0.08325 -0.01721
C 22.12391 32.6174 -0.02422
C 23.27202 31.84476 0.01277
C 23.34677 30.44991 0.00096
C 22.09551 29.75741 -0.01527
C 22.06432 28.41423 0.01087
C 23.34968 27.74398 0.00199
C 23.36494 26.28433 0.01511
C 22.10562 25.61858 -0.00478
C 19.67426 25.5608 -0.00652
C 18.43054 31.92354 0.02188
C 20.87497 26.27796 -0.04076
C 19.62142 28.2806 0.00654
C 17.19177 29.7362 0.02691
C 17.22096 28.38578 -0.01581
C 18.3998 27.60215 0.01452
C 18.4053 26.2292 0.04892
C 17.20129 25.37573 -0.00111
C 17.28208 23.92352 -0.03557
C 18.53952 23.25643 0.03754
C 18.69069 21.75631 0.01739
C 17.48998 21.10664 0.00755
C 17.18061 2.71345 -0.0054
C 18.46423 2.22555 0.00667
C 18.45315 0.77167 0.00143
C 17.16604 0.15439 -0.017
C 19.68503 32.63612 0.00364
C 20.88073 31.90711 -0.00831
C 20.85624 30.49949 -0.02957
C 19.67927 29.76395 -0.04422
C 20.81414 27.67968 -0.00703
C 22.14823 24.20317 -0.01662
C 9.77332 24.10758 0.05265
C 11.01557 26.28991 0.00244
C 2.3756 7.05137 0.00488
C 3.5875 6.29107 -0.01004
C 3.59705 4.86766 -0.02896
C 2.35006 4.20162 -0.00131
C 2.42643 2.82444 -0.01118
C 3.70767 2.11796 -0.014
C 3.66863 0.76758 0.02147
C 2.45188 34.07827 0.00373
C 4.97288 32.66218 -0.00191
C 6.19261 32.00823 0.00438
C 6.19061 30.59607 0.01291
C 4.94294 29.90942 0.00093
C 4.93393 28.48296 0.00057
C 6.12075 27.78122 -0.01634
C 6.12209 26.34016 -0.00334
C 4.91389 25.58667 0.02339
C 4.95924 24.19062 0.01641
C 2.36415 8.45902 0.01745
C 6.18396 23.51671 -0.00719
C 3.54774 9.17776 0.03693
C 2.32586 11.37033 -0.00482
C 3.71895 30.57407 0.01849
C 2.47604 29.81717 -0.01142
C 2.45451 28.40069 -0.00562
C 3.69039 27.73769 -0.00494
C 3.62401 26.3171 0.00054
C 2.48015 25.61091 0.03007
C 2.52234 24.15321 -0.00095
C 3.75467 23.41913 0.01572
C 3.72775 21.99789 -0.04848
C 2.51495 21.09337 -0.00892
C 2.57576 19.71901 -0.01362
C 3.44614 18.46668 -0.0008
C 2.61123 17.45806 0.0288
C 2.6263 15.90256 0.00393
C 3.57983 14.92348 0.00895
C 3.61763 13.55717 0.00685
C 2.39575 12.85023 0.02888
C 3.5747 10.58569 -0.01384
C 9.79778 25.58726 -0.01717
C 6.16729 22.14803 0.01364
C 4.81141 11.27561 -0.00033
C 9.2025 10.30936 0.02894
C 8.40891 9.38619 -0.01789
C 7.2898 8.42841 0.00444
C 7.28275 7.02698 -0.00925
C 8.64634 6.42585 0.01877
C 8.50011 5.01672 0.01363
C 7.29566 4.32689 -0.02162
C 7.30375 2.90705 0.00415
C 8.52208 2.24686 -0.0014
C 8.60119 0.80727 0.02162
C 7.39527 0.00316 0.0076
C 9.86418 32.74914 0.01241
C 11.1083 32.05899 -0.01454
C 11.12605 30.59613 0.01945
C 9.86294 29.91885 0.01416
C 9.88092 28.49823 0.03542
C 11.05065 27.73408 0.02299
C 8.6111 23.59576 -0.02971
C 5.06286 21.43301 -0.01062
C 7.41092 24.17619 0.00165
C 8.55359 26.29312 -0.00891
C 5.84149 10.50137 0.03589
C 5.94934 9.14046 -0.02759
C 4.68726 8.3869 0.0402
C 4.74939 7.01146 0.00572
C 6.01922 6.34159 0.03592
C 5.99133 4.96756 0.00406
C 4.82092 4.25857 0.00943
C 4.90031 2.78809 0.02841
C 6.09827 2.16125 -0.01111
C 6.18251 0.70554 -0.01275
C 4.95994 0.06983 0.00985
C 7.42526 32.67866 -0.02245
C 8.64239 32.06548 -0.00428
C 8.65151 30.66434 0.03101
C 7.38437 29.90423 -0.01536
C 7.39959 28.40718 -0.02689
C 8.6498 27.67062 -0.01046
C 7.34242 25.6556 0.02819
C 23.41528 23.46826 -0.01185
C 23.48056 22.0862 0.01126
C 22.29451 21.48832 0.01852
C 32.00435 28.41936 0.0544
C 33.24722 27.66312 0.00026
C 33.23662 26.2662 0.00682
C 32.00006 25.56778 -0.01779
C 31.9974 24.0555 0.03794
C 33.20542 23.33042 0.01927
C 33.21116 21.96313 0.01574
C 31.97996 21.24756 -0.02383
C 32.00233 19.83678 -0.01429
C 33.16566 19.09586 -0.0136
C 33.22586 17.69125 0.00594
C 31.99498 17.0817 -0.02474
C 32.01367 15.65551 0.00369
C 33.16621 14.95492 0.00455
C 33.14921 13.54977 -0.00644
C 31.98977 12.84047 -0.01839
C 31.96783 11.3511 0.00137
C 31.95276 29.8513 -0.02142
C 33.17617 10.70324 0.00199
C 33.1609 30.55881 0.01428
C 31.94632 32.68205 0.01713
C 29.38959 17.07017 0.0101
C 29.4371 15.68128 0.01705
C 30.72893 14.89567 -0.0405
C 30.68675 13.51958 -0.01303
C 29.45891 12.74407 -0.01461
C 29.43281 11.36834 -0.02155
C 30.70951 10.68619 -0.00944
C 30.72382 9.22099 -0.03735
C 29.49895 8.54929 -0.00971
C 29.42395 7.12298 0.01518
C 30.60299 6.38578 0.01908
C 30.63394 4.99719 0.07705
C 29.48971 4.28019 0.0103
C 29.43781 2.82273 0.02108
C 30.68193 2.14288 0.00716
C 30.68423 0.67947 0.00307
C 29.4328 0.00367 0.00346
C 33.16123 31.94763 -0.01694
C 30.67251 17.7864 -0.00669
C 33.14317 9.27687 0.04381
C 31.84349 7.11046 0.01504
C 1.1857 17.88569 0.01223
C 0.01744 17.07412 0.00648
C 0.00134 15.65394 0.02114
C 1.32733 15.19533 -0.02957
C 1.24593 13.58937 0.00343
C 0.03945 12.89593 -0.02656
C 34.40353 11.47794 -0.02442
C 1.09895 10.6551 -0.00027
C 1.14505 9.19881 -0.00583
C 34.37642 8.51727 -0.02302
C 34.36854 7.08861 -0.02849
C 1.18786 6.38086 0.02931
C 1.14222 4.9763 0.00628
C 34.36726 4.28445 -0.0345
C 34.37067 2.83812 -0.00931
C 1.20994 2.09938 -0.00939
C 1.22414 0.69395 -0.00468
C 1.13937 19.28718 -0.01678
C 31.911 8.5685 0.02806
C 34.41461 19.88584 0.01951
C 1.30705 21.91458 0.02712
C 33.12558 6.40439 -0.00069
C 33.1699 4.98178 0.04926
C 31.91436 4.31497 -0.03838
C 31.90028 2.84928 0.00349
C 33.13395 2.11392 -0.00323
C 33.12317 0.7194 -0.00841
C 31.8882 34.07504 0.0001
C 34.4292 32.66977 -0.02927
C 1.21896 31.94809 -0.01404
C 1.21259 30.55273 0.01027
C 34.36228 29.87655 0.01831
C 34.34312 28.45795 -0.01037
C 1.14505 27.79742 -0.00439
C 1.25833 26.29278 -0.00598
C 0.00279 25.53938 -0.05239
C 0.01453 24.18528 0.03076
C 1.27297 23.46025 0.00723
C 0.0492 21.29974 -0.02213
C 30.76592 19.18207 0.03531
C 29.4722 19.89747 0.01836
C 29.49796 21.27059 -0.03039
C 24.48527 19.92446 0.03005
C 25.61699 19.13881 -0.04078
C 25.61244 17.7315 0.02117
C 24.35095 17.0701 0.02737
C 24.51677 15.60923 -0.00498
C 25.65526 14.82896 0.00135
C 25.76012 13.4357 0.03102
C 25.86262 10.51258 0.02555
C 25.7883 9.25928 0.01423
C 24.48252 7.00787 -0.00285
C 25.63584 6.35787 -0.009
C 25.78707 4.95427 -0.01199
C 24.58489 4.28455 -0.00229
C 24.48356 2.83059 -0.00938
C 25.7144 2.09619 -0.0264
C 25.79864 0.6551 -0.01154
C 24.62128 34.06403 0.00684
C 24.64312 21.27334 -0.0276
C 27.05025 32.62773 -0.01052
C 25.81332 21.99579 0.00768
C 24.67325 24.16572 0.00733
C 21.89211 20.09 -0.00381
C 23.09717 19.28462 0.03046
C 23.25918 17.94428 0.0296
C 23.22811 4.9667 0.03374
C 22.26606 4.23023 -0.02845
C 22.03642 2.87986 -0.03213
C 23.33599 2.08833 0.02239
C 23.28423 0.71883 0.01153
C 22.06521 0.02033 0.02734
C 24.50701 32.64006 -0.0055
C 25.76655 31.92258 0.01515
C 25.84052 30.52027 -0.00225
C 24.63602 29.78102 0.00071
C 24.62886 28.37248 -0.01107
C 25.78073 27.65286 -0.01586
C 25.83191 26.18067 -0.01971
C 24.60716 25.62162 -0.02118
C 25.86621 23.41335 -0.00178
C 28.22439 31.9673 -0.01679
C 28.28173 30.52468 0.00367
C 26.99571 29.78736 0.04306
C 28.25638 4.98171 0.00235
C 27.03387 4.25688 0.01495
C 26.90476 2.82882 0.01259
C 28.19514 2.19072 0.01799
C 28.231 0.76999 0.01699
C 26.98776 34.00382 -0.00416
C 29.4509 32.65544 0.01177
C 30.66392 31.97032 0.04266
C 30.68687 30.50874 0.01324
C 29.44102 29.81472 0.0014
C 29.49157 28.36635 0.00924
C 30.70338 27.67648 0.02326
C 30.75501 26.23538 0.00261
C 29.54849 25.53201 0.03265
C 29.4705 24.14829 -0.02049
C 30.72879 23.37601 -0.01854
C 30.8087 21.96424 -0.01415
C 28.17341 6.42311 0.01094
C 26.96508 7.13129 0.02198
C 27.05096 8.48401 0.02611
C 28.27172 9.17605 -0.00621
C 27.0021 28.37274 0.00996
C 28.24865 27.65092 0.00195
C 28.32808 26.22709 -0.00802
C 27.06757 25.47791 -0.00218
C 27.12667 24.06546 -0.01654
C 28.31116 23.37157 -0.00037
C 28.25518 21.93459 -0.0032
C 27.02511 21.25904 0.00622
C 3.65865 32.05262 0.01396
C 27.00493 19.86491 -0.02815
C 28.13712 17.65414 0.00487
C 26.88416 16.98265 0.00826
C 26.96153 15.58326 -0.00294
C 28.22192 14.98999 0.00152
C 28.26289 13.48415 0.01257
C 27.04994 12.80234 0.02316
C 27.06951 11.38058 0.04185
C 28.24965 10.63952 0.00194
C 28.23602 19.12104 -0.00942
C 2.4013 32.70773 0.0127
