334
Graphene
C 34.32682 0.02932 0.01295
C 18.3442 30.56456 0.01443
C 17.17578 29.82218 0.03505
C 17.13912 28.34497 -0.02815
C 18.29356 27.60614 -0.04147
C 18.35368 26.22423 -0.05302
C 17.15833 25.53602 0.00213
C 17.326 24.0432 -0.00066
C 18.35233 32.00101 0.00979
C 18.57034 23.45657 -0.00289
C 17.33011 7.15284 -0.02213
C 18.47912 6.3845 0.03698
C 18.47913 5.0037 -0.00109
C 17.29898 4.27654 -0.00491
C 17.24256 2.9074 0.03338
C 18.52645 2.08648 -0.0258
C 18.48773 0.77313 -0.0331
C 16.77133 8.35878 0.00028
C 17.13736 32.7212 -0.00481
C 14.7612 0.06758 0.00889
C 16.02705 0.78526 -0.02162
C 12.22043 24.21823 0.00052
C 13.35635 23.53809 -0.03682
C 13.7186 2.17301 0.01965
C 13.46678 0.79833 0.02058
C 12.12506 0.16173 -0.01957
C 14.75541 32.64212 -0.0108
C 15.93077 32.00756 -0.00368
C 15.88212 30.61342 -0.02696
C 14.73304 29.91929 -0.00114
C 14.77824 28.45712 0.00228
C 15.91992 27.57945 0.00798
C 15.88808 26.13945 0.00422
C 14.68007 25.55123 0.0351
C 14.6683 24.06066 -0.03113
C 15.95147 23.55143 0.02098
C 14.73808 2.7222 0.01848
C 16.03794 2.25975 -0.00619
C 17.16305 0.08076 -0.00316
C 19.66645 32.71567 0.02188
C 20.94019 31.91592 -0.01979
C 20.87119 30.53052 0.02691
C 22.11531 29.79619 -0.00865
C 22.1373 28.36287 0.00675
C 23.26046 27.61617 -0.00311
C 23.27335 26.28994 0.00742
C 22.05249 25.57967 -0.01594
C 22.14441 24.12196 0.0106
C 23.30161 23.32082 -0.01154
C 23.21431 21.96116 -0.01721
C 21.92985 21.29292 -0.02422
C 22.0608 19.87162 0.01277
C 23.0521 19.07248 0.00096
C 23.31278 17.71136 -0.01527
C 23.30071 14.53545 0.01087
C 23.20068 13.1371 0.00199
C 22.56624 12.07575 0.01511
C 23.39663 10.97223 -0.00478
C 23.35826 9.40735 -0.01662
C 23.31605 30.45758 0.0058
C 12.32741 25.67823 0.00374
C 23.44115 31.89238 -0.00652
C 19.68416 0.02464 -0.00703
C 19.57871 29.82463 -0.01581
C 19.55365 28.3382 0.01452
C 20.86102 27.64756 0.04892
C 20.87541 26.34049 -0.00111
C 19.63893 25.60358 -0.03557
C 19.74425 24.23318 0.03754
C 20.87454 23.43174 0.01739
C 20.66473 21.99859 0.00755
C 20.88909 9.28479 -0.0054
C 19.92494 8.48364 0.00667
C 19.73901 7.07739 0.00143
C 21.01403 6.39213 -0.017
C 20.99431 4.94664 0.00364
C 19.75266 4.23027 -0.00831
C 19.76097 2.82887 -0.02957
C 20.96929 2.14354 -0.04422
C 20.92749 0.7139 0.00654
C 22.19167 32.61906 -0.04076
C 13.50929 26.3766 -0.02813
C 13.55483 27.74034 -0.01952
C 12.33942 28.48437 0.05265
C 2.39375 4.27558 -0.02896
C 2.4808 2.824 -0.00131
C 3.6367 2.11484 -0.01118
C 3.50514 0.77784 -0.014
C 2.42523 0.00288 0.02147
C 4.82283 32.75532 0.00373
C 6.11388 32.0045 -0.00191
C 6.09845 30.5599 0.00438
C 4.90224 29.86869 0.01291
C 4.86111 28.45524 0.00093
C 6.1103 27.70672 0.00057
C 6.13012 26.30138 -0.01634
C 4.82278 25.71169 -0.00334
C 4.9063 24.26819 0.02339
C 6.1275 23.47581 0.01641
C 6.15111 22.05355 -0.00719
C 4.89873 21.41635 0.01364
C 3.70941 4.85549 -0.01004
C 5.01385 20.01013 -0.01062
C 3.7788 6.3622 0.00488
C 2.45293 8.46474 0.03693
C 3.65411 30.59009 -0.00562
C 2.36103 29.8983 -0.00494
C 2.38032 28.44095 0.00054
C 3.55911 27.71915 0.03007
C 3.60684 26.36922 -0.00095
C 2.44135 25.58352 0.01572
C 2.39605 24.17368 -0.04848
C 3.67566 23.53823 -0.00892
C 3.70744 22.08001 -0.01362
C 2.47785 21.32512 -0.0008
C 2.57652 19.98912 0.0288
C 3.96864 19.12662 0.00393
C 3.74364 17.78506 0.00895
C 2.6234 16.98525 0.00685
C 2.35149 15.63184 0.02888
C 2.40241 12.70228 -0.00482
C 2.36793 11.56698 -0.01384
C 2.50764 7.0799 0.01745
C 22.11544 8.67592 -0.01185
C 4.93544 6.99548 -0.00033
C 6.13049 4.97567 -0.02759
C 10.91055 32.1373 0.00444
C 10.94953 30.66386 -0.00925
C 9.89793 29.83299 0.01877
C 9.84626 28.39578 0.01363
C 11.08211 27.72656 -0.02162
C 11.12964 26.33584 0.00415
C 9.79732 25.57833 -0.0014
C 9.79621 24.2099 0.02162
C 11.05535 23.5058 0.0076
C 10.9123 22.11954 0.01241
C 9.85284 21.49916 -0.01454
C 10.89939 0.79939 0.01945
C 9.66556 0.32363 0.01416
C 12.19337 32.78546 0.03542
C 13.50976 32.06821 0.02299
C 13.48963 30.68491 0.00244
C 12.26442 29.91241 -0.01717
C 9.65214 32.90989 -0.01789
C 5.94683 6.18621 0.03589
C 7.17049 0.00971 0.02894
C 7.70968 2.07055 0.00165
C 4.95709 4.15897 0.0402
C 5.01955 2.83586 0.00572
C 6.2723 2.0099 0.03592
C 6.01855 0.62007 0.00406
C 4.7944 0.04385 0.00943
C 7.34781 32.74374 0.02841
C 8.57519 31.95116 -0.01111
C 8.61924 30.52615 -0.01275
C 7.30372 29.86352 0.00985
C 7.39271 28.44508 -0.02245
C 8.59461 27.73892 -0.00428
C 8.54945 26.35123 0.03101
C 7.37612 25.62857 -0.01536
C 7.34506 24.16777 -0.02689
C 8.53175 23.39163 -0.01046
C 8.50417 21.93452 -0.00891
C 7.26253 21.27966 0.02819
C 8.35009 1.01896 -0.02971
C 22.2577 7.13092 0.01126
C 23.38013 6.38636 0.01852
C 23.42926 4.97336 -0.00381
C 31.93977 28.4701 0.0544
C 33.13067 27.71129 0.00026
C 33.18173 26.31326 0.00682
C 31.99484 25.56478 -0.01779
C 31.941 24.05213 0.03794
C 33.18667 23.39201 0.01927
C 33.24065 21.99074 0.01574
C 32.03943 21.2945 -0.02383
C 32.00497 19.87885 -0.01429
C 33.21719 19.19142 -0.0136
C 33.28581 17.8082 0.00594
C 32.01314 17.09044 -0.02474
C 31.89038 15.6983 0.00369
C 33.09529 15.01708 0.00455
C 33.12499 13.49992 -0.00644
C 31.91211 12.76901 -0.01839
C 31.92674 11.33208 0.00137
C 31.84128 29.89923 -0.02142
C 33.17529 10.63685 0.00199
C 33.11469 30.49838 0.01428
C 31.86684 32.68949 0.01713
C 29.48178 17.00558 0.0101
C 29.46326 15.5745 0.01705
C 30.65584 14.91396 -0.0405
C 30.71492 13.49237 -0.01303
C 29.48818 12.78804 -0.01461
C 29.57607 11.37615 -0.02155
C 30.75383 10.62479 -0.00944
C 30.72593 9.21032 -0.03735
C 29.51637 8.49713 -0.00971
C 29.49775 7.14253 0.01518
C 30.68588 6.45124 0.01908
C 30.69924 4.98382 0.07705
C 29.4875 4.2039 0.0103
C 29.42292 2.81868 0.02108
C 30.65461 2.11235 0.00716
C 30.59351 0.70588 0.00307
C 29.33693 0.02701 0.00346
C 33.14038 31.9272 -0.01694
C 30.69641 17.74396 -0.00669
C 33.17252 9.25088 0.04381
C 31.92698 7.11074 0.01504
C 1.2488 17.76883 0.01223
C 0.05317 17.06317 0.00648
C 0.00112 15.65022 0.02114
C 1.24485 14.87704 -0.02957
C 1.13708 13.55186 0.00343
C 34.32677 12.83816 -0.02656
C 34.35187 11.4006 -0.02442
C 1.27985 10.70726 -0.00027
C 1.36314 9.29608 -0.00583
C 0.04155 8.58144 -0.02302
C 34.41413 7.07444 -0.02849
C 1.16261 6.38676 0.02931
C 1.18346 4.96131 0.00628
C 34.41867 4.24076 -0.0345
C 0.04195 2.87709 -0.00931
C 1.25784 2.11532 -0.00939
C 1.21986 0.70736 -0.00468
C 1.40184 19.24279 -0.01678
C 31.99026 8.46934 0.02806
C 0.10231 19.82846 0.01951
C 1.08005 22.05128 0.02712
C 33.18758 6.41968 -0.00069
C 33.15024 5.02579 0.04926
C 31.9521 4.27434 -0.03838
C 31.96985 2.84613 0.00349
C 33.20839 2.17659 -0.00323
C 33.12445 0.77302 -0.00841
C 31.86717 0.08105 0.0001
C 34.35089 32.65716 -0.02927
C 1.17405 32.01566 -0.01404
C 1.09307 30.57778 0.01027
C 34.33259 29.78543 0.01831
C 34.30693 28.45472 -0.01037
C 1.08369 27.7212 -0.00439
C 1.2082 26.29933 -0.00598
C 0.01704 25.57118 -0.05239
C 34.43113 24.12635 0.03076
C 1.16891 23.42258 0.00723
C 0.00209 21.25713 -0.02213
C 3.58933 32.00211 -0.01142
C 30.7343 19.24229 0.03531
C 29.44605 21.32234 -0.03039
C 24.41551 15.46349 -0.04078
C 25.73333 14.97345 0.02117
C 25.86501 13.4979 0.02737
C 24.67385 12.78224 -0.00498
C 24.73692 11.41143 0.00135
C 25.92614 10.6457 0.03102
C 25.84933 9.2101 0.02555
C 24.58005 8.54633 0.01423
C 24.60544 7.09576 -0.00285
C 25.83261 6.44618 -0.009
C 25.79761 5.02287 -0.01199
C 24.58784 4.2909 -0.00229
C 24.64459 2.82397 -0.00938
C 25.76214 2.13898 -0.0264
C 25.74397 0.75686 -0.01154
C 24.47701 0.03577 0.00684
C 26.97838 32.63082 -0.01052
C 24.39255 16.92912 0.03005
C 28.2227 31.93502 -0.01679
C 25.72054 17.68037 -0.0276
C 24.38696 19.79614 -0.00178
C 22.22067 4.22695 0.03046
C 22.21178 2.82101 0.0296
C 23.34854 2.07547 0.03374
C 23.30092 0.72567 -0.02845
C 22.08956 34.05636 -0.03213
C 24.56935 32.66413 0.02239
C 25.80191 31.8979 0.01153
C 25.72487 30.52157 0.02734
C 24.51887 29.7837 -0.0055
C 24.51603 28.35439 0.01515
C 25.72591 27.60423 -0.00225
C 25.75695 26.20535 0.00071
C 24.57933 25.53415 -0.01107
C 24.49102 24.08366 -0.01586
C 25.67088 23.36106 -0.01971
C 25.67774 21.91152 -0.02118
C 24.38968 21.20787 0.00733
C 25.66459 19.16373 0.00768
C 29.4523 19.87281 0.01836
C 28.19366 30.50815 0.00367
C 26.97155 28.34903 0.00996
C 28.27367 5.03089 0.00235
C 27.01162 4.28286 0.01495
C 27.05987 2.87601 0.01259
C 28.16983 2.0937 0.01799
C 28.10913 0.71752 0.01699
C 27.01115 34.05873 -0.00416
C 29.4193 32.68571 0.01177
C 30.71611 31.94797 0.04266
C 30.63034 30.57477 0.01324
C 29.53552 29.75956 0.0014
C 29.4522 28.37991 0.00924
C 30.74352 27.72942 0.02326
C 30.71446 26.26926 0.00261
C 29.46659 25.51218 0.03265
C 29.4334 24.07845 -0.02049
C 30.71399 23.38726 -0.01854
C 30.69835 22.0022 -0.01415
C 28.2888 6.42806 0.01094
C 27.02514 29.78514 0.04306
C 27.10678 7.13002 0.02198
C 28.32578 9.27812 -0.00621
C 28.26777 27.64722 0.00195
C 28.26399 26.20856 -0.00802
C 27.01036 25.50248 -0.00218
C 26.88908 24.1112 -0.01654
C 28.17943 23.42712 -0.00037
C 28.16637 22.00624 -0.0032
C 26.92698 21.25687 0.00622
C 26.97507 19.82686 -0.02815
C 28.19241 19.09678 -0.00942
C 28.23048 17.69675 0.00487
C 26.98056 16.96701 0.00826
C 26.99402 15.60259 -0.00294
C 28.19294 14.8874 0.00152
C 28.29983 13.47908 0.01257
C 27.07885 12.75038 0.02316
C 27.08859 11.35034 0.04185
C 28.33761 10.63134 0.00194
C 27.0987 8.58243 0.02611
C 2.40511 32.66663 0.01849
