367
Graphene
C 34.35222 0.03028 0.01295
C 16.03135 23.45712 -0.02813
C 16.08245 22.04344 0.00374
C 14.82975 21.33719 0.00052
C 14.77046 19.89169 -0.03682
C 16.00216 19.18735 0.01965
C 16.00968 17.77902 0.02058
C 14.70753 17.12997 -0.01957
C 14.26951 15.78135 -0.0108
C 15.62371 14.90332 -0.00368
C 15.83643 13.59412 -0.02696
C 16.0734 5.40327 -0.00114
C 14.70902 2.86956 0.00228
C 15.99812 2.10373 0.00798
C 15.94213 0.68451 0.00422
C 14.77401 34.0423 0.0351
C 17.17186 32.61039 -0.03113
C 18.36359 31.86375 0.02098
C 18.42829 30.42813 0.01848
C 17.1816 29.8246 -0.00619
C 14.76994 24.13767 -0.01952
C 17.24132 28.36928 -0.02162
C 14.69711 25.56464 0.05265
C 15.95517 27.71045 0.00244
C 13.481 26.29812 0.00165
C 12.26166 25.50443 -0.02971
C 12.2943 24.13637 0.02894
C 13.52686 23.40523 -0.01789
C 13.6021 22.08397 0.00444
C 12.31954 21.33206 -0.00925
C 12.2842 19.91915 0.01877
C 13.55335 19.22548 0.01363
C 13.5007 17.86687 -0.02162
C 12.32624 16.95744 0.00415
C 12.93791 15.68094 -0.0014
C 13.63171 2.10562 0.02162
C 13.56672 0.69462 0.0076
C 12.31412 34.07055 0.01241
C 14.68893 32.67459 -0.01454
C 15.95938 31.94215 0.01945
C 15.97492 30.47926 0.01416
C 14.74805 29.81278 0.03542
C 14.74631 28.38169 0.02299
C 16.02989 26.28316 -0.01717
C 13.4423 27.71871 0.02819
C 18.45821 27.5691 0.00889
C 17.23315 25.59589 0.00979
C 17.14514 33.99836 -0.00111
C 19.68809 32.52644 -0.03557
C 20.90214 31.87795 0.03754
C 20.85904 30.47085 0.01739
C 19.64565 29.73228 0.00755
C 19.69438 28.32372 -0.0054
C 20.96059 27.55329 0.00667
C 20.96474 26.15648 0.00143
C 19.73995 25.51502 -0.017
C 19.72565 24.05384 0.00364
C 20.93208 23.41942 -0.00831
C 20.8113 17.65884 -0.02957
C 19.61384 16.96667 -0.04422
C 19.5038 15.53728 0.00654
C 20.77818 14.89663 -0.00703
C 20.76337 13.45897 -0.04076
C 19.53967 12.75977 -0.00652
C 19.54525 11.37568 0.0058
C 20.76052 10.59544 -0.00865
C 18.36615 0.71887 0.04892
C 18.50675 26.17999 -0.00481
C 18.46366 2.0854 0.01452
C 17.09633 4.43498 0.02691
C 17.17986 24.15916 0.01443
C 18.46783 23.48685 0.03505
C 18.50148 22.06951 -0.02815
C 17.34839 21.25683 -0.04147
C 17.29135 19.82945 -0.05302
C 18.46581 19.07893 0.00213
C 18.39003 17.68741 -0.00066
C 17.17207 17.00196 -0.00289
C 17.0158 15.63891 0.00028
C 18.2008 14.87566 -0.02213
C 18.30093 13.46331 0.03698
C 16.87175 12.69068 -0.00109
C 17.06487 11.28722 -0.00491
C 18.31751 10.58779 0.03338
C 18.32906 9.15895 -0.0258
C 17.15085 8.33632 -0.0331
C 17.00377 6.93706 -0.00316
C 18.36993 6.32396 0.02188
C 18.42907 4.94321 -0.01979
C 17.19094 2.86491 -0.01581
C 20.70437 9.19862 0.00675
C 12.24613 28.48727 -0.00891
C 13.53875 30.54058 -0.02689
C 2.38153 2.94273 0.00873
C 3.60515 2.30804 -0.00049
C 3.65529 0.81608 0.00848
C 2.39522 0.07397 -0.01303
C 4.96534 32.68725 -0.01378
C 6.15976 32.00374 0.02635
C 6.14807 30.58242 0.0127
C 4.96877 29.95544 0.01396
C 4.92843 28.51341 0.01849
C 6.10413 27.77488 -0.01142
C 6.18935 26.40208 -0.00562
C 4.8907 25.69782 -0.00494
C 4.87424 24.22678 0.00054
C 6.10092 23.56269 0.03007
C 6.07438 22.09226 -0.00095
C 4.84156 21.37761 0.01572
C 4.7952 19.95786 -0.04848
C 6.02997 19.21321 -0.00892
C 6.05758 17.78289 -0.01362
C 2.43021 4.50228 0.01227
C 4.75554 17.11537 -0.0008
C 3.48563 5.44188 -0.03337
C 2.43081 8.27783 -0.02929
C 3.67121 30.65175 0.01465
C 2.40868 29.94462 -0.00074
C 2.37861 28.48017 -0.00518
C 3.66658 27.81528 0.0086
C 3.69426 26.40574 -0.00643
C 2.47897 25.52311 0.017
C 2.40261 24.12838 -0.03113
C 3.61956 23.47662 -0.02566
C 3.62188 22.01296 -0.00094
C 2.36667 21.3051 0.02322
C 2.17511 19.90023 -0.00725
C 3.4913 19.17801 -0.05697
C 3.55055 17.84236 0.01087
C 2.38854 17.06914 -0.01343
C 2.33903 15.65681 0.00988
C 3.62913 14.94468 0.0276
C 3.73124 13.50056 0.01305
C 2.53303 12.71394 -0.00077
C 2.43687 11.3416 0.03368
C 2.53851 6.91925 -0.00966
C 12.22221 29.88413 -0.01046
C 4.86196 15.73431 0.0288
C 4.86492 2.79372 0.00895
C 11.0186 32.07208 -0.00719
C 11.05877 30.65503 0.01364
C 9.83292 29.90044 -0.01062
C 9.79364 28.52587 -0.00033
C 11.01556 27.76588 0.03589
C 11.06491 26.28047 -0.02759
C 9.80724 25.58547 0.0402
C 9.75958 24.25113 0.00572
C 10.98688 23.52501 0.03592
C 11.04484 22.06182 0.00406
C 9.8469 21.37217 0.00943
C 9.81743 19.93798 0.02841
C 11.01549 19.23223 -0.01111
C 11.0362 17.6912 -0.01275
C 9.80658 17.11041 0.00985
C 11.21651 0.824 -0.02245
C 9.94595 0.23257 -0.00428
C 12.29358 32.65272 0.03101
C 13.54981 31.95076 -0.01536
C 9.88019 32.8417 0.01641
C 6.0674 15.03392 0.00393
C 7.40289 0.04551 0.02339
C 7.19724 15.75889 -0.01634
C 6.06182 2.26038 0.00685
C 6.167 0.86478 0.02888
C 4.91869 0.11808 -0.00482
C 7.42404 32.70349 -0.01384
C 8.66936 32.06611 0.03693
C 8.58966 30.62445 0.01745
C 7.37083 29.88126 0.00488
C 7.38848 28.46637 -0.01004
C 8.59839 27.76505 -0.02896
C 8.65788 26.38791 -0.00131
C 7.38717 25.71357 -0.01118
C 7.36009 24.19885 -0.014
C 8.5266 23.49455 0.02147
C 8.59627 22.08566 0.00373
C 7.36588 21.35915 -0.00191
C 7.2359 19.93359 0.00438
C 8.60405 19.26106 0.01291
C 8.56898 17.81186 0.00093
C 7.34804 17.11371 0.00057
C 8.59997 0.76926 -0.00334
C 3.73045 32.1019 -0.03996
C 19.56014 8.43949 -0.00311
C 20.77657 6.35645 -0.01594
C 29.41198 11.18067 0.00307
C 30.76588 10.67507 0.00346
C 28.67882 4.35865 0.01713
C 29.27007 2.97982 -0.01694
C 30.55919 2.21964 0.01428
C 30.70226 0.79988 -0.02142
C 29.50866 0.01242 0.0544
C 31.95591 32.77921 0.00026
C 33.11649 31.98785 0.00682
C 33.25266 30.61855 -0.01779
C 32.02684 29.87537 0.03794
C 31.98498 28.49361 0.01927
C 33.17606 27.71197 0.01574
C 33.18997 26.2651 -0.02383
C 32.02507 25.56327 -0.01429
C 32.00228 24.14333 -0.0136
C 33.26853 23.44652 0.00594
C 33.19031 22.07309 -0.02474
C 32.08849 21.26212 0.00369
C 29.46394 12.66838 0.00716
C 32.39584 19.88913 0.00455
C 30.61185 13.45625 0.02108
C 29.30049 15.56405 0.07705
C 28.13357 2.04411 0.03265
C 28.26083 0.6922 -0.02049
C 26.97865 33.95981 -0.01854
C 29.49465 32.68637 -0.01415
C 30.68585 32.04039 -0.03039
C 30.81592 30.66385 0.01836
C 29.53336 29.81948 0.03531
C 29.50574 28.37823 -0.00669
C 30.77891 27.72714 0.0101
C 30.82097 26.31981 0.01705
C 29.59807 25.54229 -0.0405
C 29.56952 24.12753 -0.01303
C 30.83834 23.37182 -0.01461
C 30.8323 21.92294 -0.02155
C 29.65588 21.22906 -0.00944
C 29.73486 19.70295 -0.03735
C 31.069 18.9122 -0.00971
C 30.94923 17.3994 0.01518
C 29.57693 16.9994 0.01908
C 30.61033 14.91627 0.0103
C 26.98713 2.81098 0.00261
C 31.62189 15.78911 -0.00644
C 33.18735 13.55516 0.00137
C 33.99849 19.98934 0.01951
C 0.85505 19.20585 -0.01678
C 1.12876 17.75486 0.01223
C 34.36683 17.03254 0.00648
C 34.37473 15.58271 0.02114
C 1.1956 14.83131 -0.02957
C 1.21127 13.38539 0.00343
C 34.4192 12.85054 -0.02656
C 0.01442 11.35544 -0.02442
C 1.2801 10.65959 -0.00027
C 1.2659 9.27174 -0.00583
C 0.07592 8.53208 -0.02302
C 34.41453 7.10996 -0.02849
C 1.21984 6.40979 0.02931
C 1.06238 5.03455 0.00628
C 34.2867 4.33179 -0.0345
C 34.28544 2.9339 -0.00931
C 1.14012 2.24648 -0.00939
C 1.16411 0.75855 -0.00468
C 34.35046 21.33234 -0.02213
C 33.0401 15.0124 -0.01839
C 1.20647 22.00471 0.02712
C 34.41834 24.20056 0.03076
C 31.92646 12.83376 0.00199
C 31.94478 11.32383 0.04381
C 33.2027 10.62891 0.02806
C 33.32773 9.21032 0.01504
C 33.27069 6.46846 -0.00069
C 33.03246 5.14519 0.04926
C 31.91641 4.30155 -0.03838
C 31.87844 2.92877 0.00349
C 33.16974 2.21589 -0.00323
C 33.21778 0.84676 -0.00841
C 31.97898 0.12529 0.0001
C 34.35311 32.70019 -0.02927
C 1.23569 32.10311 -0.01404
C 1.18284 30.74064 0.01027
C 0.03115 29.93238 0.01831
C 34.42002 28.44008 -0.01037
C 1.21748 27.70577 -0.00439
C 1.23167 26.28038 -0.00598
C 0.03299 25.54842 -0.05239
C 1.17314 23.44086 0.00723
C 19.59296 7.02422 0.00742
C 27.4204 4.23562 0.02326
C 26.89936 11.35175 0.0014
C 22.0021 12.69962 0.02734
C 22.02817 11.26236 -0.0055
C 23.26415 10.62974 0.01515
C 23.26304 9.19222 -0.00225
C 21.96294 8.38119 0.00071
C 22.02524 7.03056 -0.01107
C 23.24748 6.35457 -0.01586
C 23.46668 4.91963 -0.01971
C 22.1182 4.16075 -0.02118
C 22.06222 2.75439 0.00733
C 23.32341 2.12333 -0.00178
C 23.27417 0.65709 0.00768
C 22.07084 33.97655 -0.0276
C 24.56156 32.57873 0.03005
C 25.75749 31.8825 -0.04078
C 25.80714 30.44498 0.02117
C 24.63444 29.71163 0.02737
C 24.59329 28.30378 -0.00498
C 25.86555 27.62069 0.00135
C 23.21912 13.4893 0.01153
C 25.82112 26.26748 0.03102
C 23.32837 14.86998 0.02239
C 22.087 17.07401 -0.02845
C 20.88409 4.94829 0.0106
C 19.69349 4.20295 -0.01154
C 19.67901 2.83358 -0.01721
C 20.84653 2.04484 -0.02422
C 20.84306 0.63569 0.01277
C 19.66378 33.99724 0.00096
C 22.17125 32.5575 -0.01527
C 23.41478 31.8648 0.01087
C 23.38304 30.41697 0.00199
C 22.12553 29.76717 0.01511
C 22.12808 28.35497 -0.00478
C 23.43362 27.64345 -0.01662
C 23.42034 26.25659 -0.01185
C 22.17958 25.49643 0.01126
C 22.14604 24.04636 0.01852
C 23.36936 23.33692 -0.00381
C 23.35412 21.9956 0.03046
C 23.31129 19.18041 0.0296
C 23.3464 17.76333 0.03374
C 22.01179 15.59292 -0.03213
C 28.06403 10.64679 0.00924
C 24.65384 25.55614 0.02555
C 25.88225 23.36962 -0.00285
C 28.1956 31.96928 -0.00294
C 28.29058 30.58758 0.00152
C 27.04248 29.74305 0.01257
C 27.1285 28.34541 0.02316
C 28.31945 27.62437 0.04185
C 28.39504 26.25558 0.00194
C 27.14776 25.56702 -0.00621
C 27.12861 24.10324 0.02611
C 28.43451 23.34272 0.02198
C 28.32302 21.94365 0.01094
C 27.0776 21.24732 0.00235
C 27.25648 19.8485 0.01495
C 28.49306 19.09671 0.01259
C 28.29683 17.7332 0.01799
C 27.0133 17.01168 0.01699
C 26.94926 15.55171 -0.00416
C 28.19397 14.79981 0.01177
C 28.21005 13.32161 0.04266
C 26.9879 12.73248 0.01324
C 26.90439 32.56951 0.00826
C 24.67987 24.11829 0.01423
C 24.50044 34.06009 0.00487
C 25.73114 2.13374 -0.02815
C 25.83704 21.97683 -0.009
C 24.59905 21.31467 -0.01199
C 24.56499 19.82221 -0.00229
C 25.86171 19.10012 -0.00938
C 25.79136 17.71933 -0.0264
C 24.53107 17.04473 -0.01154
C 24.62666 15.65145 0.00684
C 25.75761 14.89844 -0.01052
C 25.71957 13.47148 -0.01679
C 24.48498 12.78329 0.00367
C 24.47336 11.39524 0.04306
C 25.66922 10.53116 0.00996
C 25.72518 9.16693 0.00195
C 24.47637 8.45432 -0.00802
C 24.48523 7.01717 -0.00218
C 25.7901 6.42823 -0.01654
C 26.02577 5.02775 -0.00037
C 24.71808 4.30406 -0.0032
C 24.51713 2.8281 0.00622
C 25.74283 0.70825 -0.00942
C 2.45251 32.74247 0.01996
