420
Graphene
C 0.01951 0.03409 0.01295
C 12.36051 34.06585 0.00406
C 14.69795 32.73544 0.00943
C 15.98268 31.99796 0.02841
C 16.02746 30.52398 -0.01111
C 14.81232 29.87384 -0.01275
C 14.77428 28.44986 0.00985
C 15.90976 27.64684 -0.02245
C 15.92652 26.24171 -0.00428
C 14.70514 25.43845 0.03101
C 14.76527 24.09265 -0.01536
C 13.58519 0.75448 0.03592
C 16.03016 23.41914 -0.02689
C 14.80807 21.29136 -0.00891
C 14.80438 19.86711 0.02819
C 15.98006 19.24963 0.00165
C 15.99266 17.73577 -0.02971
C 14.77171 16.95755 0.02894
C 14.69328 15.56222 -0.01789
C 16.03155 14.82841 0.00444
C 15.92741 13.44735 -0.00925
C 14.72106 12.81992 0.01877
C 14.75227 11.33085 0.01363
C 15.9687 22.0592 -0.01046
C 15.90286 10.69134 -0.02162
C 13.53985 2.18109 0.00572
C 12.3216 4.28758 -0.02759
C 13.54241 27.72325 0.00488
C 13.53765 26.28867 -0.01004
C 12.27288 25.60361 -0.02896
C 12.32674 24.154 -0.00131
C 13.55148 23.45536 -0.01118
C 13.54961 22.07885 -0.014
C 12.26899 21.33689 0.02147
C 12.28621 19.95284 0.00373
C 13.56066 19.11473 -0.00191
C 13.55769 17.73397 0.00438
C 12.32805 2.88337 0.0402
C 12.38812 17.02911 0.01291
C 13.49391 14.8588 0.00057
C 13.5223 13.51775 -0.01634
C 12.31864 12.74734 -0.00334
C 12.21686 11.3384 0.02339
C 13.55771 10.63997 0.01641
C 13.62088 9.26194 -0.00719
C 12.33062 8.5679 0.01364
C 12.31349 7.15632 -0.01062
C 13.49706 6.50022 -0.00033
C 13.50383 5.01565 0.03589
C 12.28628 15.55748 0.00093
C 15.99872 9.21258 0.00415
C 14.78442 8.56011 -0.0014
C 14.75991 7.07757 0.02162
C 17.16931 11.34931 0.02098
C 18.43391 10.68565 0.01848
C 18.46464 9.22273 -0.00619
C 17.26619 8.60038 -0.02162
C 17.21199 7.07951 0.00889
C 18.44057 6.39377 -0.00481
C 18.46753 4.9689 0.00979
C 17.25512 4.20669 0.01443
C 17.14766 2.8404 0.03505
C 18.40718 2.1112 -0.02815
C 17.2321 12.7207 -0.03113
C 18.4687 0.68896 -0.04147
C 19.65245 32.70526 0.00213
C 20.84087 31.94715 -0.00066
C 20.87303 30.54082 -0.00289
C 19.6126 29.86538 0.00028
C 19.66208 28.43982 -0.02213
C 20.88209 27.68462 0.03698
C 20.92563 26.21805 -0.00109
C 19.67826 25.53698 -0.00491
C 19.68495 24.15151 0.03338
C 20.91671 23.45741 -0.0258
C 17.26651 0.03152 -0.05302
C 18.4507 13.48124 0.0351
C 18.43401 14.85506 0.00422
C 17.16795 15.59195 0.00798
C 15.97651 6.38201 0.0076
C 16.03979 4.97989 0.01241
C 14.72137 4.27577 -0.01454
C 14.70723 2.8609 0.01945
C 15.91405 2.15725 0.01416
C 15.98423 0.71133 0.03542
C 14.69699 0.01583 0.02299
C 17.22162 32.69577 0.00244
C 18.48612 31.91801 -0.01717
C 18.41607 30.50107 0.05265
C 17.20368 29.73519 -0.01952
C 17.17044 28.3473 -0.02813
C 18.45428 27.65873 0.00374
C 18.41726 26.24762 0.00052
C 17.22101 25.54051 -0.03682
C 17.27462 24.16009 0.01965
C 18.41636 23.47591 0.02058
C 18.44439 21.97538 -0.01957
C 17.19123 21.31582 -0.0108
C 17.20417 19.90297 -0.00368
C 18.46239 19.20851 -0.02696
C 18.47453 17.67494 -0.00114
C 17.19042 17.05681 0.00228
C 12.25164 28.43191 0.01745
C 20.87183 22.01248 -0.0331
C 12.29407 29.81948 0.03693
C 13.50445 32.00104 -0.00482
C 4.95798 29.77071 -0.00561
C 4.93231 28.41766 0.00208
C 6.16141 27.72746 0.01707
C 6.17871 26.29028 0.02769
C 4.88643 25.63595 -0.03291
C 4.95016 24.16115 -0.04999
C 6.13996 23.39135 0.04505
C 6.10432 21.98873 0.03284
C 4.86824 21.30542 -0.04307
C 4.93666 19.82511 0.03189
C 6.20636 30.5491 -0.01977
C 6.10242 19.13524 0.00031
C 4.96082 7.05555 0.01402
C 6.14676 6.42386 0.02379
C 6.07931 4.95358 0.00907
C 4.88552 4.35747 0.00643
C 4.91224 2.85012 -0.01509
C 6.18209 2.12596 0.03267
C 6.14642 0.72981 0.02374
C 4.98977 34.06787 0.00402
C 7.342 32.62842 0.0073
C 8.64835 31.94121 0.0174
C 6.08348 17.66847 -0.003
C 8.60302 30.60038 0.03828
C 6.10918 31.98054 0.02784
C 2.46167 34.06905 -0.00449
C 3.73457 30.5375 0.00748
C 2.47219 29.73594 0.00662
C 2.49919 28.38521 -0.0154
C 3.72598 27.73796 -0.01299
C 3.69508 26.30829 -0.00407
C 2.45895 25.55434 0.01138
C 2.42043 24.07363 0.03278
C 3.691 23.40394 -0.00177
C 3.71798 22.00418 0.04421
C 2.47519 21.2846 0.00088
C 4.91709 32.6912 -0.01979
C 2.45763 19.94259 0.00828
C 3.59226 17.74368 0.00558
C 2.57398 17.08498 -0.0059
C 2.54288 8.48698 -0.01386
C 2.48719 7.13846 -0.02805
C 3.65427 6.27749 0.00081
C 3.65765 4.93705 0.00245
C 2.40492 4.26098 0.02728
C 2.40077 2.79372 -0.00039
C 3.67607 2.11695 0.0064
C 3.69823 0.71984 0.00211
C 3.66951 19.19672 -0.02375
C 7.40534 29.78881 0.01226
C 7.357 28.42995 -0.00279
C 8.57826 27.73005 0.01996
C 11.10798 23.47884 -0.01303
C 11.06083 22.01944 -0.01378
C 9.86445 21.3169 0.02635
C 9.87708 19.91514 0.0127
C 11.06916 19.20031 0.01396
C 11.05498 17.80453 0.01849
C 9.89633 17.01629 -0.01142
C 9.85723 15.68979 -0.00562
C 11.02511 14.91038 -0.00494
C 11.16567 13.53083 0.00054
C 9.79851 24.22157 0.00848
C 11.05676 10.68809 0.03007
C 9.83925 8.51543 0.01572
C 9.76294 7.12444 -0.04848
C 11.08192 6.44421 -0.00892
C 11.08399 4.96973 -0.01362
C 9.84457 4.25212 -0.0008
C 9.81092 2.90043 0.0288
C 11.0449 2.20208 0.00393
C 11.08633 0.73979 0.00895
C 9.76611 0.02298 0.00685
C 12.25029 32.70596 0.02888
C 11.02387 9.21288 -0.00095
C 9.87191 25.56808 -0.00049
C 11.01688 26.3393 0.00873
C 11.02434 27.72311 0.01227
C 8.67279 26.33842 -0.03996
C 7.41066 25.52623 0.01465
C 7.36976 24.14832 -0.00074
C 8.55844 23.42752 -0.00518
C 8.62843 22.01122 0.0086
C 7.35168 21.34963 -0.00643
C 7.2833 19.88301 0.017
C 8.54454 19.18516 -0.03113
C 8.58735 17.67297 -0.02566
C 7.31028 17.16427 -0.00094
C 7.33568 7.06068 0.02322
C 8.57973 6.4278 -0.00725
C 8.59948 4.93853 -0.05697
C 7.35405 4.2694 0.01087
C 7.37279 2.87686 -0.01343
C 8.6454 2.15764 0.00988
C 8.61337 0.77809 0.0276
C 7.36197 34.06964 0.01305
C 9.82055 32.68776 -0.00077
C 11.03882 31.96523 0.03368
C 11.01797 30.59993 -0.02929
C 9.87984 29.82381 -0.00966
C 9.83994 28.37147 -0.03337
C 13.58411 30.50996 -0.01384
C 19.65513 21.32554 -0.00316
C 19.66783 19.91411 0.02188
C 20.90823 19.183 -0.01979
C 30.71885 13.47748 -0.02155
C 29.50549 12.78489 -0.00944
C 29.49535 11.3788 -0.03735
C 30.78488 10.69915 -0.00971
C 30.73868 9.16751 0.01518
C 29.55077 8.4868 0.01908
C 29.52292 7.12863 0.07705
C 30.72448 6.4192 0.0103
C 30.74593 4.90608 0.02108
C 29.45912 4.26424 0.00716
C 30.79829 14.85662 -0.01461
C 29.47442 2.77817 0.00307
C 30.69671 0.72533 0.01713
C 29.46707 34.05097 -0.01694
C 31.92894 32.68489 0.01428
C 33.19298 31.94974 -0.02142
C 33.2328 30.45767 0.0544
C 32.01542 29.80696 0.00026
C 31.96753 28.41856 0.00682
C 33.26367 27.67094 -0.01779
C 33.19587 26.19936 0.03794
C 31.98399 25.5425 0.01927
C 30.77946 2.09151 0.00346
C 31.95193 24.12273 0.01574
C 29.53825 15.60151 -0.01303
C 30.76445 17.75035 0.01705
C 27.03883 7.11043 0.00235
C 28.30778 6.47375 0.01495
C 28.27684 4.98788 0.01259
C 27.09833 4.31653 0.01799
C 27.01289 2.87218 0.01699
C 28.26867 2.12472 -0.00416
C 28.28709 0.69896 0.01177
C 27.08723 0.03343 0.04266
C 29.5568 32.65411 0.01324
C 30.71608 31.8998 0.0014
C 29.51574 17.07526 -0.0405
C 30.75907 30.53657 0.00924
C 29.55849 28.46526 0.00261
C 30.68807 27.58319 0.03265
C 30.71608 26.21723 -0.02049
C 29.48126 25.5541 -0.01854
C 29.57744 24.1472 -0.01415
C 30.68307 23.38598 -0.03039
C 30.67864 22.01562 0.01836
C 29.4912 21.23873 0.03531
C 29.46754 19.85362 -0.00669
C 30.72249 19.10633 0.0101
C 29.50924 29.89202 0.02326
C 33.20079 23.4706 -0.02383
C 33.2212 22.01944 -0.01429
C 31.97141 21.29574 -0.0136
C 34.38659 25.54107 0.00723
C 34.38029 24.17675 0.02712
C 1.22315 23.45125 -0.02213
C 1.2765 21.97038 0.01951
C 0.00716 21.29446 -0.01678
C 34.39308 19.92394 0.01223
C 1.23796 19.20584 0.00648
C 1.22043 17.80328 0.02114
C 34.4216 17.03265 -0.02957
C 34.37533 15.62168 0.00343
C 1.23157 26.3163 0.03076
C 34.42379 12.76298 -0.02656
C 1.2211 10.65916 -0.00027
C 1.24948 9.21169 -0.00583
C 34.39082 8.51389 -0.02302
C 34.40346 7.11748 -0.02849
C 1.1935 6.4673 0.02931
C 1.21991 4.90298 0.00628
C 34.42252 4.21296 -0.0345
C 34.36118 2.80926 -0.00931
C 1.20862 2.14338 -0.00939
C 1.28822 0.71856 -0.00468
C 34.38179 11.30466 -0.02442
C 1.20455 27.69158 -0.05239
C 0.01581 28.3874 -0.00598
C 0.00571 29.76252 -0.00439
C 31.93059 19.89747 0.00594
C 33.22161 19.13275 -0.02474
C 33.21657 17.73817 0.00369
C 32.02535 17.04272 0.00455
C 31.95891 15.60168 -0.00644
C 33.24067 14.8315 -0.01839
C 33.18997 13.43933 0.00137
C 31.92643 12.75674 0.00199
C 31.97696 11.35069 0.04381
C 33.21777 10.61812 0.02806
C 33.17381 9.26468 0.01504
C 31.89448 8.50906 -0.00069
C 31.89512 7.075 0.04926
C 33.18794 6.33758 -0.03838
C 33.16597 4.96858 0.00349
C 32.01423 4.24165 -0.00323
C 31.99247 2.82637 -0.00841
C 33.10403 2.12056 0.0001
C 33.13941 0.65391 -0.02927
C 31.96056 34.06457 -0.01404
C 0.00645 32.63952 0.01027
C 1.2781 31.89268 0.01831
C 1.28004 30.45534 -0.01037
C 27.09569 8.50957 0.01094
C 28.29125 9.23587 0.02198
C 28.3069 10.5938 0.02611
C 27.02599 11.32934 -0.00621
C 23.35592 23.43494 0.0106
C 23.40412 21.95412 -0.01154
C 22.20679 21.25407 -0.01721
C 22.12067 19.83755 -0.02422
C 23.3431 19.14849 0.01277
C 23.36747 17.74921 0.00096
C 22.13241 17.00805 -0.01527
C 22.18004 15.62835 0.01087
C 23.33963 14.88529 0.00199
C 23.38248 13.50265 0.01511
C 22.188 24.12474 -0.01594
C 22.19696 12.79141 -0.00478
C 23.37934 10.67021 -0.01185
C 23.36555 9.25503 0.01126
C 22.17385 8.42779 0.01852
C 22.11736 7.07416 -0.00381
C 23.40146 6.40939 0.03046
C 23.3326 5.02951 0.0296
C 22.10352 4.2589 0.03374
C 22.1354 2.86607 -0.02845
C 23.34399 2.18323 -0.03213
C 23.37407 0.69935 0.02239
C 22.17323 11.38248 -0.01662
C 22.12963 25.60512 0.00742
C 23.37316 26.23917 -0.00311
C 23.39308 27.74847 0.00675
C 20.95557 17.75483 0.02691
C 19.7423 17.00744 -0.01581
C 19.60471 15.57698 0.01452
C 20.93907 14.93163 0.04892
C 20.92231 13.46939 -0.00111
C 19.82838 12.82181 -0.03557
C 19.6568 11.38906 0.03754
C 20.91669 10.63005 0.01739
C 20.91962 9.18649 0.00755
C 19.58809 8.52505 -0.0054
C 19.5936 7.11476 0.00667
C 20.848 6.38397 0.00143
C 20.87598 4.96671 -0.017
C 19.69581 4.2233 0.00364
C 19.57785 2.80706 -0.00831
C 20.89103 2.14205 -0.02957
C 20.87096 0.73748 -0.04422
C 19.64633 34.06052 0.00654
C 22.08854 32.67841 -0.00703
C 23.33813 31.94438 -0.04076
C 23.37609 30.50974 -0.00652
C 22.12716 29.82661 0.0058
C 22.14711 28.3088 -0.00865
C 22.16094 0.00234 0.01153
C 3.69139 31.90793 0.03345
C 24.58675 32.63717 0.02734
C 25.92529 30.60471 0.01515
C 25.83611 0.70558 -0.01052
C 24.55503 34.00747 -0.01679
C 27.04613 32.63839 0.00367
C 28.27204 31.99746 0.04306
C 28.24527 30.56907 0.00996
C 27.06211 29.81671 0.00195
C 27.11037 28.43835 -0.00802
C 28.31785 27.72073 -0.00218
C 28.26086 26.29492 -0.01654
C 27.03553 25.51057 -0.00037
C 25.811 2.16621 0.00684
C 27.05338 24.12913 -0.0032
C 28.24134 21.97825 -0.02815
C 27.02248 21.25145 -0.00942
C 27.03778 19.84028 0.00487
C 28.24517 19.15292 0.00826
C 28.29584 17.74742 -0.00294
C 27.0699 17.03169 0.00152
C 27.05927 15.67844 0.01257
C 28.33565 14.93921 0.02316
C 28.2438 13.47819 0.04185
C 27.06194 12.7496 0.00194
C 28.30131 23.44121 0.00622
C 24.59828 2.90761 -0.01154
C 24.61837 4.25718 -0.0264
C 25.81554 4.93613 -0.00938
C 24.69998 29.85824 -0.00225
C 24.56782 28.47117 0.00071
C 25.84478 27.71888 -0.01107
C 25.82844 26.30396 -0.01586
C 24.59183 25.5357 -0.01971
C 24.5974 24.07369 -0.02118
C 25.774 23.37217 0.00733
C 25.86508 21.98745 -0.00178
C 24.58056 21.28046 0.00768
C 24.52296 19.9008 -0.0276
C 25.7943 19.16211 0.03005
C 25.76504 17.75976 -0.04078
C 24.59093 17.01302 0.02117
C 24.53865 15.54025 0.02737
C 25.8027 14.92896 -0.00498
C 25.82904 13.53837 0.00135
C 24.61453 12.83256 0.03102
C 24.58143 11.26072 0.02555
C 25.85069 10.63707 0.01423
C 25.83793 9.28454 -0.00285
C 24.59727 8.52605 -0.009
C 24.58667 7.15274 -0.01199
C 25.84193 6.36331 -0.00229
C 25.83208 31.93648 -0.0055
C 2.48032 32.6246 -0.00112
