426
Graphene
C 34.36577 33.97313 0.01295
C 13.477 6.44741 0.0402
C 13.53074 5.00216 0.00572
C 12.24794 4.3866 0.03592
C 12.27924 3.06123 0.00406
C 13.45593 2.20238 0.00943
C 13.42449 0.81762 0.02841
C 12.27009 0.05461 -0.01111
C 14.10889 32.70876 -0.01275
C 15.57733 31.77725 0.00985
C 15.74655 30.37205 -0.02245
C 12.2044 7.18284 -0.02759
C 14.71229 23.96721 -0.00428
C 15.99273 22.01393 -0.01536
C 14.79559 21.29714 -0.02689
C 14.77969 19.79274 -0.01046
C 16.00507 19.20229 -0.00891
C 15.92091 17.78209 0.02819
C 14.73707 17.00619 0.00165
C 14.68449 15.68255 -0.02971
C 15.93983 14.94863 0.02894
C 15.99075 13.4884 -0.01789
C 14.74683 12.84135 0.00444
C 16.02063 23.47063 0.03101
C 12.38587 8.61906 0.03589
C 13.53714 9.31891 -0.00033
C 13.49073 10.70635 -0.01062
C 11.04666 9.38685 -0.00482
C 9.83358 8.65004 -0.01384
C 9.75564 7.24987 0.03693
C 10.93386 6.5091 0.01745
C 10.98608 5.06806 0.00488
C 9.78423 4.38121 -0.01004
C 9.80169 3.0321 -0.02896
C 11.04399 2.1865 -0.00131
C 11.095 0.84442 -0.01118
C 9.90044 0.15583 -0.014
C 12.80493 32.81595 0.02147
C 13.60495 23.36143 0.00373
C 13.58801 22.05214 -0.00191
C 12.29259 21.24813 0.00438
C 12.2505 19.87265 0.01291
C 13.56008 19.16594 0.00093
C 13.53224 17.75186 0.00057
C 12.25625 16.98326 -0.01634
C 12.2555 15.56222 -0.00334
C 13.52939 14.94066 0.02339
C 13.52556 13.50267 0.01641
C 12.27249 12.79484 -0.00719
C 12.24161 11.42341 0.01364
C 14.7416 11.38146 -0.00925
C 10.94954 10.73028 0.02888
C 15.91191 10.66441 0.01877
C 14.74894 8.56839 -0.02162
C 17.24667 12.78945 0.00422
C 17.17146 11.38006 0.0351
C 18.41131 10.54297 -0.03113
C 18.50326 9.20339 0.02098
C 17.19376 8.52655 0.01848
C 17.12623 7.09983 -0.00619
C 18.40405 6.43205 -0.02162
C 18.5197 4.96103 0.00889
C 17.25853 4.20891 -0.00481
C 17.10251 2.78751 0.00979
C 18.4746 13.56916 0.00798
C 18.34232 1.96897 0.01443
C 16.99823 33.94434 -0.02815
C 19.5119 32.52227 -0.04147
C 20.85345 31.99218 -0.05302
C 20.75831 30.57415 0.00213
C 19.5079 29.82963 -0.00066
C 19.7007 28.48094 -0.00289
C 20.90203 27.68337 0.00028
C 20.92859 26.33368 -0.02213
C 19.8592 25.55024 0.03698
C 19.66123 24.17605 -0.00109
C 18.31237 0.57379 0.03505
C 18.45088 14.93248 0.00228
C 17.19503 15.62678 -0.00114
C 17.22332 17.08052 -0.02696
C 14.66919 7.15474 0.00415
C 15.89349 6.42196 -0.0014
C 15.94847 4.97531 0.02162
C 14.74782 4.25474 0.0076
C 14.7451 2.84261 0.01241
C 15.9058 2.07081 -0.01454
C 15.78726 0.6242 0.01945
C 14.54822 0.00965 0.01416
C 16.95296 32.48036 0.03542
C 18.17708 31.8406 0.02299
C 18.17099 30.40104 0.00244
C 16.91712 29.63286 -0.01717
C 17.21104 28.1987 0.05265
C 18.48678 27.72852 -0.01952
C 18.5819 26.2444 -0.02813
C 17.31477 25.78146 0.00374
C 17.16981 24.27756 0.00052
C 18.42477 23.44039 -0.03682
C 18.42759 22.06135 0.01965
C 17.27409 21.36123 0.02058
C 17.28464 19.97883 -0.01957
C 18.45978 19.16444 -0.0108
C 18.49347 17.76839 -0.00368
C 15.95183 9.22694 0.01363
C 9.77098 11.43573 0.00685
C 9.83552 12.75229 0.00895
C 10.99673 13.5486 0.00393
C 3.62932 2.14054 0.00211
C 3.70824 0.74611 -0.00449
C 2.44188 0.11262 -0.01979
C 5.03953 32.67765 0.02784
C 6.32356 31.99011 -0.01977
C 6.27772 30.596 -0.00561
C 4.99719 29.88971 0.00208
C 4.97361 28.49754 0.01707
C 6.20071 27.77902 0.02769
C 6.17239 26.26294 -0.03291
C 2.38504 2.82484 0.0064
C 4.9071 25.60175 -0.04999
C 6.13965 23.54143 0.03284
C 6.21224 22.15083 -0.04307
C 4.91267 21.31531 0.03189
C 4.9276 19.89448 0.00031
C 6.12137 19.16856 -0.003
C 6.12469 17.754 0.01402
C 4.8675 17.0911 0.02379
C 4.86501 15.68373 0.00907
C 6.04174 14.89893 0.00643
C 6.06852 13.49756 -0.01509
C 4.91586 24.06812 0.04505
C 2.44305 4.25859 -0.00039
C 3.62051 5.12163 0.02728
C 3.52564 6.45921 0.00245
C 3.75508 30.53221 0.01218
C 2.5528 29.75513 -0.01471
C 2.49579 28.37269 -0.02827
C 3.74512 27.72112 0.01078
C 3.72279 26.26476 -0.00112
C 2.45306 25.58032 0.03345
C 2.4589 24.14069 0.00748
C 3.64464 23.42343 0.00662
C 3.66349 22.05174 -0.0154
C 2.48389 21.29615 -0.01299
C 2.47352 19.84805 -0.00407
C 3.71564 19.16863 0.01138
C 3.64271 17.76742 0.03278
C 2.41299 17.04499 -0.00177
C 2.36872 15.53658 0.04421
C 3.63587 14.9751 0.00088
C 3.68589 13.51267 0.00828
C 2.47693 12.78455 -0.02375
C 2.3749 11.42757 0.00558
C 3.56286 10.64085 -0.0059
C 3.60572 9.1817 -0.01386
C 2.33746 8.49621 -0.02805
C 2.32253 7.13483 0.00081
C 4.81583 12.75902 0.03267
C 4.77708 11.3577 0.02374
C 5.98154 10.69443 0.00402
C 6.023 9.26997 0.0073
C 7.30854 11.45777 -0.03337
C 8.51099 10.7463 0.01227
C 8.57565 9.36342 0.00873
C 7.39759 8.59708 -0.00049
C 7.31067 7.2664 0.00848
C 8.52124 6.47484 -0.01303
C 8.58092 5.10527 -0.01378
C 7.34114 4.37632 0.02635
C 7.30018 2.92102 0.0127
C 8.55745 2.29706 0.01396
C 8.6001 0.84263 0.01849
C 7.39291 0.16684 -0.01142
C 9.85691 32.86621 -0.00562
C 9.81306 24.09815 -0.00494
C 11.01178 23.40634 0.00054
C 11.1156 22.04936 0.03007
C 9.87819 21.28826 -0.00095
C 9.76957 19.87579 0.01572
C 11.07158 19.18382 -0.04848
C 11.06997 17.7618 -0.00892
C 9.77865 17.15124 -0.01362
C 9.76212 15.71114 -0.0008
C 10.97566 14.90349 0.0288
C 7.28912 12.83756 -0.00966
C 20.90817 23.43893 -0.00491
C 8.56033 13.54246 -0.02929
C 7.35756 15.63544 -0.00077
C 4.85338 8.51414 0.0174
C 4.73483 7.16821 0.03828
C 6.06276 6.52306 0.01226
C 6.19112 5.11609 -0.00279
C 4.86906 4.34855 0.01996
C 4.8268 2.99081 -0.03996
C 6.05022 2.18028 0.01465
C 6.10906 0.7971 -0.00074
C 4.91005 34.05273 -0.00518
C 7.47729 32.7922 0.0086
C 8.79391 32.04937 -0.00643
C 8.65787 30.67807 0.017
C 7.60187 29.79646 -0.03113
C 7.39006 28.33915 -0.02566
C 7.40247 25.71787 -0.00094
C 7.42949 24.32336 0.02322
C 8.63062 23.53161 -0.00725
C 8.67979 22.00416 -0.05697
C 7.33054 21.31221 0.01087
C 7.32973 19.94029 -0.01343
C 8.51239 19.20483 0.00988
C 8.53491 17.78663 0.0276
C 7.31806 17.06404 0.01305
C 8.60384 14.90959 0.03368
C 20.94006 22.01946 0.03338
C 19.63508 21.31664 -0.0258
C 19.62285 19.90961 -0.0331
C 29.43256 12.76523 -0.01461
C 29.5101 11.45258 -0.02155
C 30.65915 10.68248 -0.00944
C 30.71343 9.21109 -0.03735
C 29.49913 8.48912 -0.00971
C 29.45452 7.1059 0.01518
C 30.75304 6.31476 0.01908
C 30.68375 4.94326 0.07705
C 29.54198 4.19378 0.0103
C 29.51286 2.76839 0.02108
C 30.72359 13.52509 -0.01303
C 30.70528 2.04055 0.00716
C 29.44819 33.98208 0.00346
C 32.00988 32.53087 0.01713
C 33.14916 31.79334 -0.01694
C 33.2194 30.42026 0.01428
C 31.9346 29.71366 -0.02142
C 31.93595 28.38346 0.0544
C 33.10818 27.63209 0.00026
C 33.16149 26.29514 0.00682
C 31.9295 25.51984 -0.01779
C 31.92378 24.05175 0.03794
C 30.68969 0.59206 0.00307
C 30.731 14.943 -0.0405
C 29.51139 15.60269 0.01705
C 29.5773 17.01619 0.0101
C 26.97608 7.08081 0.02198
C 28.2425 6.34892 0.01094
C 28.23502 4.90332 0.00235
C 26.9756 4.27259 0.01495
C 27.00178 2.80084 0.01259
C 28.24067 2.09828 0.01799
C 28.30181 0.74554 0.01699
C 27.10785 0.0004 -0.00416
C 29.49607 32.5807 0.01177
C 30.7016 31.88122 0.04266
C 30.74686 30.45455 0.01324
C 29.47295 29.76268 0.0014
C 29.46767 28.36933 0.00924
C 30.6524 27.66402 0.02326
C 30.659 26.23235 0.00261
C 29.46351 25.46643 0.03265
C 29.41726 24.15227 -0.02049
C 30.70228 23.41026 -0.01854
C 30.68304 22.06716 -0.01415
C 29.47796 21.25382 -0.03039
C 29.51974 19.85592 0.01836
C 30.79453 19.17647 0.03531
C 30.75035 17.74288 -0.00669
C 33.22908 23.37759 0.01927
C 33.19192 21.96978 0.01574
C 31.88469 21.33476 -0.02383
C 31.92603 19.96383 -0.01429
C 34.38644 24.10731 0.03076
C 1.2359 23.42063 0.00723
C 1.24477 22.01476 0.02712
C 0.01055 21.26129 -0.02213
C 0.01773 19.83042 0.01951
C 1.26389 19.15746 -0.01678
C 1.20689 17.72435 0.01223
C 34.37271 17.07598 0.00648
C 34.37838 15.6312 0.02114
C 1.14446 14.89101 -0.02957
C 1.20705 13.48225 0.00343
C 34.37608 12.78716 -0.02656
C 34.29518 11.23372 -0.02442
C 1.06369 10.63041 -0.00027
C 1.09758 9.19813 -0.00583
C 34.322 8.49596 -0.02302
C 34.29126 7.04117 -0.02849
C 1.07272 6.33693 0.02931
C 1.17417 4.95301 0.00628
C 34.37538 4.18687 -0.0345
C 34.36838 2.77329 -0.00931
C 1.11022 2.07046 -0.00939
C 1.13773 0.66163 -0.00468
C 34.40159 25.54807 -0.05239
C 26.96098 8.52959 0.02611
C 1.16035 26.19772 -0.00598
C 34.39879 28.33272 -0.01037
C 33.16841 19.23909 -0.0136
C 33.21561 17.80987 0.00594
C 32.02391 17.07576 -0.02474
C 31.99588 15.6741 0.00369
C 33.18535 14.94469 0.00455
C 33.14185 13.46767 -0.00644
C 31.98877 12.74728 -0.01839
C 31.95245 11.35255 0.00137
C 33.08822 10.56948 0.00199
C 33.09464 9.10199 0.04381
C 31.86634 8.47198 0.02806
C 31.86362 7.07322 0.01504
C 33.16096 6.26118 -0.00069
C 33.18293 4.89893 0.04926
C 31.93035 4.19817 -0.03838
C 31.91659 2.80765 0.00349
C 33.1431 2.10384 -0.00323
C 33.17017 0.68886 -0.00841
C 31.99202 33.89383 0.0001
C 34.38562 32.56159 -0.02927
C 1.18113 31.85951 -0.01404
C 1.34951 30.42353 0.01027
C 0.0395 29.74982 0.01831
C 1.21041 27.70092 -0.00439
C 3.72788 31.92731 0.02426
C 28.23722 9.2311 -0.00621
C 27.05455 11.34533 0.04185
C 22.11458 24.18916 -0.00311
C 23.31406 23.45275 0.00742
C 23.32565 22.02191 -0.01594
C 22.18284 21.31237 0.0106
C 22.13622 19.83419 -0.01154
C 23.33062 19.17568 -0.01721
C 23.39186 17.7616 -0.02422
C 22.12242 17.08421 0.01277
C 22.16577 15.62949 0.00096
C 23.37823 14.9747 -0.01527
C 22.0905 25.63332 0.00675
C 23.33278 13.48765 0.01087
C 22.13992 11.31592 0.01511
C 23.37309 10.72393 -0.00478
C 23.35952 9.26698 -0.01662
C 22.09147 8.47726 -0.01185
C 22.06035 7.08587 0.01126
C 23.28016 6.35276 0.01852
C 23.33897 4.92832 -0.00381
C 22.09506 4.28537 0.03046
C 22.07713 2.79613 0.0296
C 23.28359 2.17905 0.03374
C 22.13478 12.8272 0.00199
C 23.36847 26.39896 -0.00865
C 23.3799 27.71047 0.0058
C 22.14562 28.35723 -0.00652
C 20.80222 19.16971 -0.00316
C 20.89453 17.77344 0.02188
C 19.66224 17.0644 -0.01979
C 19.6716 15.6072 0.02691
C 20.98319 14.88906 -0.01581
C 20.93359 13.45581 0.01452
C 19.67032 12.81143 0.04892
C 19.66532 11.38657 -0.00111
C 20.81375 10.66064 -0.03557
C 20.87221 9.24569 0.03754
C 19.67633 8.47911 0.01739
C 19.67503 7.1311 0.00755
C 20.82938 6.38154 -0.0054
C 20.89152 4.88895 0.00667
C 19.6677 4.24849 0.00143
C 19.5572 2.83104 -0.017
C 20.82094 2.06168 0.00364
C 20.78101 0.70495 -0.00831
C 19.57239 33.96419 -0.02957
C 22.0543 32.71702 -0.04422
C 23.28722 32.01575 0.00654
C 23.2762 30.52628 -0.00703
C 22.01628 29.81697 -0.04076
C 23.33411 0.77996 -0.02845
C 22.04607 0.03948 -0.03213
C 24.54657 32.61455 0.02239
C 25.8156 31.93302 0.01153
C 25.77039 2.15404 -0.0264
C 25.77392 0.68864 -0.01154
C 24.53852 0.00012 0.00684
C 27.11831 32.67522 -0.01052
C 28.30937 31.90885 -0.01679
C 28.23995 30.45584 0.00367
C 27.01617 29.79806 0.04306
C 26.96167 28.39531 0.00996
C 28.25859 27.6601 0.00195
C 28.29086 26.25219 -0.00802
C 27.10624 25.57503 -0.00218
C 27.0134 24.10499 -0.01654
C 28.23044 23.42378 -0.00037
C 28.28437 21.96649 -0.0032
C 27.004 21.37187 0.00622
C 27.1084 19.91378 -0.02815
C 28.29771 19.11905 -0.00942
C 28.33718 17.65459 0.00487
C 27.06036 17.0365 0.00826
C 27.0458 15.66583 -0.00294
C 28.28259 14.98367 0.00152
C 28.18544 13.49184 0.01257
C 27.05576 12.7162 0.02316
C 24.54114 2.88844 -0.00938
C 28.26493 10.58428 0.00194
C 24.53996 4.33502 -0.00229
C 25.7615 6.48928 -0.009
C 25.81509 30.53165 0.02734
C 24.50068 29.83675 -0.0055
C 24.54911 28.48493 0.01515
C 25.74835 27.70833 -0.00225
C 25.79693 26.30977 0.00071
C 24.56069 25.60778 -0.01107
C 24.47187 24.16603 -0.01586
C 25.77296 23.50876 -0.01971
C 25.83671 22.03378 -0.02118
C 24.59801 21.28348 0.00733
C 24.56451 19.85773 -0.00178
C 25.83097 19.24757 0.00768
C 25.84917 17.76683 -0.0276
C 24.65851 17.04625 0.03005
C 24.64197 15.68575 -0.04078
C 25.83831 14.86349 0.02117
C 25.74981 13.47893 0.02737
C 24.52258 12.85627 -0.00498
C 24.51909 11.46068 0.00135
C 25.77618 10.68765 0.03102
C 25.80007 9.27883 0.02555
C 24.55591 8.51921 0.01423
C 24.54688 7.10487 -0.00285
C 25.77672 5.01811 -0.01199
C 2.51471 32.61874 0.00787
