374
Graphene
C 0.02318 0.05108 0.01295
C 9.88688 8.49295 0.02299
C 9.79084 7.16473 0.00244
C 11.05185 6.41389 -0.01717
C 11.10212 4.94214 0.05265
C 9.89344 4.29941 -0.01952
C 9.85456 2.8567 -0.02813
C 11.00657 2.08145 0.00374
C 11.02523 0.67243 0.00052
C 9.78282 33.97145 -0.03682
C 12.30321 32.62145 0.01965
C 13.57299 31.96398 0.02058
C 13.53688 30.50544 -0.01957
C 12.34487 29.80132 -0.0108
C 12.34251 28.38271 -0.00368
C 13.5068 27.75685 -0.02696
C 13.53244 26.2322 -0.00114
C 12.29388 25.4813 0.00228
C 12.22394 24.09598 0.00798
C 13.573 23.35644 0.00422
C 11.0363 9.22203 0.03542
C 13.50762 22.03106 0.0351
C 11.05725 10.60929 0.01416
C 9.78153 12.82292 -0.01454
C 9.74822 32.68922 -0.01536
C 11.08433 32.00337 -0.02689
C 11.11895 30.5617 -0.01046
C 9.88641 29.845 -0.00891
C 9.86649 28.42566 0.02819
C 11.07259 27.70668 0.00165
C 11.09194 26.2735 -0.02971
C 9.87802 25.60759 0.02894
C 9.84543 24.22849 -0.01789
C 11.01827 23.45133 0.00444
C 11.04484 22.0681 -0.00925
C 9.86588 21.24141 0.01877
C 9.87695 19.86374 0.01363
C 11.1088 19.18961 -0.02162
C 11.1578 17.73556 0.00415
C 9.83477 16.98184 -0.0014
C 9.83267 15.63611 0.02162
C 11.0827 14.86584 0.0076
C 11.00112 13.46153 0.01241
C 9.84766 11.35058 0.01945
C 12.373 21.30661 -0.03113
C 12.30998 19.89216 0.02098
C 13.55438 19.18403 0.01848
C 15.96091 26.36603 0.02691
C 14.75118 25.58214 -0.01581
C 14.73772 24.07727 0.01452
C 15.98648 23.38449 0.04892
C 16.00842 22.03426 -0.00111
C 14.76129 21.27248 -0.03557
C 14.73424 19.88309 0.03754
C 15.96998 19.18885 0.01739
C 16.02284 17.73045 0.00755
C 14.80902 17.1006 -0.0054
C 14.76901 15.58411 0.00667
C 15.99752 14.90143 0.00143
C 16.01522 13.47794 -0.017
C 14.79412 12.74477 0.00364
C 14.70089 11.37086 -0.00831
C 15.96205 10.6287 -0.02957
C 16.01048 9.1779 -0.04422
C 14.77969 8.48314 0.00654
C 14.72753 7.12668 -0.00703
C 15.95059 27.72684 -0.01979
C 14.70535 28.4301 0.02188
C 14.68918 29.8618 -0.00316
C 15.95376 30.55241 -0.0331
C 13.52513 17.76807 -0.00619
C 12.33365 17.0138 -0.02162
C 12.3034 15.61793 0.00889
C 13.5296 14.94489 -0.00481
C 13.54081 13.54516 0.00979
C 12.334 12.79607 0.01443
C 12.29896 11.36938 0.03505
C 13.52948 10.61229 -0.02815
C 13.51048 9.2033 -0.04147
C 7.35238 0.01844 0.03101
C 12.33441 8.55374 -0.05302
C 13.4773 6.3886 -0.00066
C 13.50493 4.98306 -0.00289
C 12.26862 4.26539 0.00028
C 12.28094 2.82093 -0.02213
C 13.46226 2.11236 0.03698
C 13.51143 0.71213 -0.00109
C 12.33213 34.04462 -0.00491
C 14.73928 32.62883 0.03338
C 15.98309 31.8797 -0.0258
C 12.25118 7.09729 0.00213
C 8.61474 0.68633 -0.00428
C 8.56093 2.10582 -0.02245
C 7.39057 2.83949 0.00985
C 3.74474 5.00738 -0.00077
C 2.44134 4.32632 0.03368
C 2.48324 2.81559 -0.02929
C 3.66969 2.13076 -0.00966
C 3.66131 0.73654 -0.03337
C 2.47712 0.05086 0.01227
C 4.94442 32.6207 0.00873
C 6.1416 31.97979 -0.00049
C 6.10727 30.56844 0.00848
C 4.87912 29.82976 -0.01303
C 4.91816 28.41051 -0.01378
C 6.14233 27.75763 0.02635
C 6.16834 26.23249 0.0127
C 4.91884 25.61863 0.01396
C 4.94844 24.17916 0.01849
C 6.16816 23.4568 -0.01142
C 6.08881 22.08746 -0.00562
C 4.9426 21.30555 -0.00494
C 4.90378 19.82777 0.00054
C 3.63675 6.40048 0.01305
C 2.39322 7.12879 0.0276
C 2.5027 8.4826 0.00988
C 3.75149 9.2711 -0.01343
C 3.67811 30.53552 0.0073
C 2.53477 29.78962 0.0174
C 2.46763 28.38203 0.03828
C 3.62212 27.70886 0.01226
C 3.64934 26.36306 -0.00279
C 2.45643 25.56693 0.01996
C 2.50168 24.1194 -0.03996
C 3.68663 23.45608 0.01465
C 3.75759 22.00019 -0.00074
C 6.11531 19.11984 0.03007
C 2.51673 21.29331 -0.00518
C 3.6002 19.14333 -0.00643
C 3.65551 17.81813 0.017
C 2.41209 17.09435 -0.03113
C 2.45298 15.64694 -0.02566
C 3.71448 14.94259 -0.00094
C 3.6858 13.41465 0.02322
C 2.48617 12.79685 -0.00725
C 2.49201 11.41216 -0.05697
C 3.69839 10.70101 0.01087
C 2.44823 19.89282 0.0086
C 15.93101 6.31704 -0.04076
C 6.12742 17.71447 -0.00095
C 4.95736 15.62755 -0.04848
C 8.63279 23.42115 0.00057
C 8.62772 22.03601 -0.01634
C 7.37986 21.38458 -0.00334
C 7.34305 19.89448 0.02339
C 8.6782 19.17172 0.01641
C 8.68373 17.76081 -0.00719
C 7.42379 17.09872 0.01364
C 7.34882 15.53237 -0.01062
C 8.58963 14.89453 -0.00033
C 8.53875 13.49836 0.03589
C 7.30253 12.72493 -0.02759
C 7.37566 11.35641 0.0402
C 8.58682 10.68449 0.00572
C 8.58523 9.2605 0.03592
C 7.40074 8.47797 0.00406
C 7.34813 7.13237 0.00943
C 8.58871 6.42745 0.02841
C 8.64198 5.0123 -0.01111
C 7.37418 4.24988 -0.01275
C 7.40703 24.15015 0.00093
C 7.43329 25.60183 0.01291
C 8.60782 26.29993 0.00438
C 8.57869 27.75131 -0.00191
C 6.19371 14.90395 -0.00892
C 6.14984 13.53921 -0.01362
C 4.90933 12.8252 -0.0008
C 4.94939 11.44288 0.0288
C 6.11442 10.74791 0.00393
C 6.12832 9.29444 0.00895
C 4.94537 8.54367 0.00685
C 4.8462 7.10392 0.02888
C 6.1394 6.42116 -0.00482
C 4.91436 17.03276 0.01572
C 6.17626 4.96389 -0.01384
C 4.87942 2.8986 0.01745
C 6.10584 2.19165 0.00488
C 6.13772 0.74356 -0.01004
C 4.84587 0.00841 -0.02896
C 7.33633 32.69997 -0.00131
C 8.58781 31.91473 -0.01118
C 8.63611 30.49496 -0.014
C 7.31327 29.88771 0.02147
C 7.34156 28.44679 0.00373
C 4.96091 4.32111 0.03693
C 16.03188 4.89912 -0.00652
C 14.75469 4.27363 0.0058
C 14.69262 2.8355 -0.00865
C 30.75644 4.96546 0.00716
C 29.50173 4.28521 0.00307
C 29.43662 2.84816 0.00346
C 30.68683 2.12531 0.01713
C 30.7178 0.66038 -0.01694
C 29.52145 0.02937 0.01428
C 31.92392 32.64576 -0.02142
C 33.21107 31.99489 0.0544
C 33.20484 30.51432 0.00026
C 31.92732 29.79548 0.00682
C 31.98694 28.43167 -0.01779
C 33.22354 27.68917 0.03794
C 33.26441 26.34088 0.01927
C 33.20036 23.32693 0.01574
C 33.21271 22.09011 -0.02383
C 31.95259 19.87933 -0.01429
C 33.11154 19.24942 -0.0136
C 33.25274 17.75019 0.00594
C 31.98448 17.00472 -0.02474
C 30.78809 6.35704 0.02108
C 29.49667 7.12482 0.0103
C 29.51583 8.54893 0.07705
C 30.77137 9.23019 0.01908
C 27.03246 8.49848 0.02326
C 27.04089 7.07262 0.00261
C 28.25076 6.40389 0.03265
C 28.32856 5.00039 -0.02049
C 27.0753 4.18813 -0.01854
C 27.07593 2.79254 -0.01415
C 28.2893 2.13367 -0.03039
C 28.27621 0.74564 0.01836
C 27.08376 34.03495 0.03531
C 31.93034 15.61834 0.00369
C 29.54774 32.58775 -0.00669
C 30.69265 30.47626 0.01705
C 30.67788 17.75924 -0.0405
C 29.54982 17.05012 -0.01303
C 29.45529 15.66335 -0.01461
C 30.73242 14.91862 -0.02155
C 30.76035 13.4361 -0.00944
C 29.55201 12.76742 -0.03735
C 29.5139 11.39732 -0.00971
C 30.79432 10.63137 0.01518
C 30.74025 31.8307 0.0101
C 28.29765 9.22029 0.00924
C 33.25536 14.86187 0.00455
C 31.94899 12.74297 -0.01839
C 0.02189 19.85924 0.01951
C 1.22797 19.1956 -0.01678
C 1.21942 17.76816 0.01223
C 0.00752 17.10802 0.00648
C 34.42246 15.61996 0.02114
C 1.26367 14.96978 -0.02957
C 1.19771 13.52115 0.00343
C 0.01135 12.7833 -0.02656
C 34.42413 11.34633 -0.02442
C 1.27214 10.70988 -0.00027
C 1.26543 9.23683 -0.00583
C 34.3966 8.49177 -0.02302
C 34.40692 7.12121 -0.02849
C 1.20968 6.41353 0.02931
C 1.24526 5.0194 0.00628
C 34.37654 4.16634 -0.0345
C 34.39561 2.78942 -0.00931
C 1.24066 2.1236 -0.00939
C 1.30293 0.72845 -0.00468
C 34.3445 21.25276 -0.02213
C 1.16145 22.02356 0.02712
C 1.20012 23.39496 0.00723
C 34.37239 24.15462 0.03076
C 31.96164 11.30433 0.00137
C 33.19325 10.71389 0.00199
C 33.2026 9.28194 0.04381
C 31.97667 8.53145 0.02806
C 31.97546 7.08977 0.01504
C 33.14613 6.36552 -0.00069
C 33.14089 4.97979 0.04926
C 31.97474 4.28077 -0.03838
C 31.99356 2.79905 0.00349
C 33.21349 13.45659 -0.00644
C 33.1579 2.15645 -0.00323
C 31.97631 0.0115 0.0001
C 34.42856 32.74409 -0.02927
C 1.20506 31.97711 -0.01404
C 1.20664 30.535 0.01027
C 34.43178 29.86501 0.01831
C 0.03819 28.41305 -0.01037
C 1.24498 27.68756 -0.00439
C 1.21225 26.22999 -0.00598
C 34.39979 25.55942 -0.05239
C 33.18877 0.728 -0.00841
C 3.68654 32.04257 0.00402
C 28.2967 10.58852 0.0014
C 27.07713 12.74136 0.04266
C 18.39237 6.41226 -0.03213
C 18.44377 5.00201 0.02239
C 17.27208 4.25409 0.01153
C 17.15892 2.78044 0.02734
C 18.38904 2.11676 -0.0055
C 18.44723 0.70922 0.01515
C 17.18781 34.01694 -0.00225
C 19.63159 32.65665 0.00071
C 20.94125 31.89224 -0.01107
C 20.85353 30.48696 -0.01586
C 19.79094 29.91796 -0.01971
C 19.6392 16.97248 -0.02118
C 19.6852 15.55785 0.00733
C 20.88086 14.87932 -0.00178
C 20.86951 13.46118 0.00768
C 19.68019 12.768 -0.0276
C 19.71858 11.34359 0.03005
C 20.8916 10.69068 -0.04078
C 20.82178 9.23746 0.02117
C 17.13563 7.05665 -0.02845
C 17.213 8.4432 0.03374
C 18.40552 9.21994 0.0296
C 18.49264 10.626 0.03046
C 15.96379 2.10181 0.00675
C 15.87324 0.70794 -0.00311
C 14.67172 34.00946 0.00742
C 17.23468 32.62483 -0.01594
C 18.46417 31.91703 0.0106
C 18.4928 30.45653 -0.01154
C 17.25523 29.74913 -0.01721
C 17.23246 28.39506 -0.02422
C 17.16509 25.46498 0.01277
C 19.69216 8.46497 0.02737
C 17.1327 24.19241 0.00096
C 17.24414 19.91817 0.01087
C 18.48909 19.08414 0.00199
C 18.54773 17.70976 0.01511
C 17.17834 16.98161 -0.00478
C 17.20795 15.60315 -0.01662
C 18.44832 14.90405 -0.01185
C 18.44211 13.46079 0.01126
C 17.27037 12.77155 0.01852
C 17.18763 11.33495 -0.00381
C 17.19728 21.32321 -0.01527
C 27.11216 11.33477 0.01324
C 19.74284 7.11677 -0.00498
C 20.91681 5.00047 0.03102
C 25.82285 14.97875 0.00487
C 25.86513 13.38677 0.00826
C 24.5688 12.78954 -0.00294
C 24.61406 11.38357 0.00152
C 25.80317 10.71482 0.01257
C 25.80374 9.23006 0.02316
C 24.60161 8.54724 0.04185
C 24.58342 7.14544 0.00194
C 25.80565 6.38155 -0.00621
C 25.85975 4.98247 0.02611
C 24.59761 4.36515 0.02198
C 25.86448 2.10762 0.01094
C 25.82113 0.77657 0.00235
C 24.64364 34.06017 0.01495
C 27.10426 32.59366 0.01259
C 28.23446 31.9043 0.01799
C 27.09283 15.62923 0.01699
C 28.24889 14.89094 -0.00416
C 28.43341 13.52951 0.01177
C 24.5692 15.63192 -0.00942
C 25.83502 31.93316 -0.02815
C 24.60786 32.63538 0.00622
C 22.05017 0.00298 -0.0032
C 19.60146 4.28201 0.02555
C 19.60977 2.8345 0.01423
C 20.87748 2.128 -0.00285
C 20.94227 0.66715 -0.009
C 19.58418 34.04021 -0.01199
C 22.13251 32.69431 -0.00229
C 23.30872 31.99944 -0.00938
C 22.05906 15.56395 -0.0264
C 23.32217 14.99607 -0.01154
C 20.9186 6.40004 0.00135
C 23.3411 13.474 0.00684
C 22.11905 11.35769 -0.01679
C 23.39255 10.5634 0.00367
C 23.39052 9.21686 0.04306
C 22.11774 8.50786 0.00996
C 22.1444 7.10977 0.00195
C 23.45516 6.48907 -0.00802
C 23.38517 4.98195 -0.00218
C 22.08903 4.17615 -0.01654
C 22.09812 2.8013 -0.00037
C 22.11723 12.80609 -0.01052
C 2.4239 32.70068 0.02374
