381
Graphene
C 34.36914 0.06496 0.01295
C 12.24576 32.66098 -0.01454
C 13.42526 31.84156 0.01945
C 13.52731 30.36236 0.01416
C 12.17532 29.87895 0.03542
C 13.54499 22.17517 0.02299
C 12.29228 21.58151 0.00244
C 12.30648 20.11556 -0.01717
C 13.58226 19.49829 0.05265
C 13.60356 17.8723 -0.01952
C 12.38133 17.12935 -0.02813
C 12.30033 15.70975 0.00374
C 13.52008 14.8924 0.00052
C 13.42561 13.40122 -0.03682
C 12.19417 12.75535 0.01965
C 12.18794 11.40984 0.02058
C 13.6023 10.6216 -0.01957
C 13.56457 9.18625 -0.0108
C 12.30366 8.51221 -0.00368
C 12.33984 7.08808 -0.02696
C 9.75681 0.16164 0.01241
C 11.04953 0.77591 0.0076
C 10.96076 2.21107 0.02162
C 9.71227 2.90135 -0.0014
C 9.79799 30.01405 -0.01275
C 9.9581 28.63643 0.00985
C 9.84479 24.1934 -0.02245
C 10.92289 22.21678 -0.00428
C 9.81192 21.32114 0.03101
C 9.90837 19.86849 -0.01536
C 11.12862 19.26592 -0.02689
C 11.12148 17.7351 -0.01046
C 10.11225 16.73247 -0.00891
C 13.518 6.2838 -0.00114
C 10.99629 15.23539 0.02819
C 9.63546 12.88864 -0.02971
C 9.78513 11.49675 0.02894
C 11.01928 10.64565 -0.01789
C 11.04559 9.24026 0.00444
C 9.78637 8.57338 -0.00925
C 9.791 7.1536 0.01877
C 11.06794 6.39097 0.01363
C 11.05178 4.97394 -0.02162
C 9.77267 4.29889 0.00415
C 10.93123 13.62291 0.00165
C 13.46546 4.90641 0.00228
C 12.28466 4.23331 0.00798
C 12.30195 2.79047 0.00422
C 14.69313 4.25081 -0.0331
C 14.77344 2.76197 -0.00316
C 15.97639 2.10691 0.02188
C 15.91685 0.66192 -0.01979
C 14.65334 34.00934 0.02691
C 17.21102 32.67306 -0.01581
C 18.43574 31.98105 0.01452
C 18.38537 30.55931 0.04892
C 17.16048 29.75922 -0.00111
C 15.95707 4.94418 -0.0258
C 17.16656 28.4187 -0.03557
C 18.38543 26.08223 0.01739
C 17.10881 23.62909 0.00755
C 18.39447 23.3829 -0.0054
C 18.58124 21.8529 0.00667
C 17.23801 21.31326 0.00143
C 17.17337 19.78484 -0.017
C 18.40395 19.04545 0.00364
C 18.32609 17.67165 -0.00831
C 17.19127 16.89626 -0.02957
C 18.29043 27.5808 0.03754
C 11.02482 30.78618 -0.01111
C 15.97651 6.32513 0.03338
C 14.74322 8.38024 -0.00109
C 13.48064 2.14956 0.0351
C 13.4537 0.72109 -0.03113
C 12.27798 0.00189 0.02098
C 14.64066 32.63164 0.01848
C 15.9457 32.04978 -0.00619
C 15.99267 30.56334 -0.02162
C 14.8536 29.78756 0.00889
C 16.19682 22.23187 -0.00481
C 14.8771 21.5419 0.00979
C 14.71341 6.95701 -0.00491
C 14.86012 20.10379 0.01443
C 15.97696 17.72896 -0.02815
C 14.72572 17.04495 -0.04147
C 14.76836 15.58891 -0.05302
C 16.02369 14.80112 0.00213
C 15.97121 13.35609 -0.00066
C 14.71483 12.69509 -0.00289
C 14.77464 11.31731 0.00028
C 16.0402 10.55227 -0.02213
C 15.94781 9.09973 0.03698
C 15.9681 19.15042 0.03505
C 11.0088 32.12908 0.02841
C 9.76098 32.84926 0.00943
C 7.32964 0.0721 0.00406
C 3.63288 5.04191 -0.00725
C 2.4609 4.3083 -0.05697
C 2.38688 2.93635 0.01087
C 3.59307 2.20883 -0.01343
C 3.58951 0.73716 0.00988
C 2.34597 0.03126 0.0276
C 4.84807 32.74328 0.01305
C 6.07718 32.08257 -0.00077
C 6.12385 30.60406 0.03368
C 3.64216 6.45164 0.02322
C 4.86442 29.87742 -0.02929
C 6.21465 27.82855 -0.03337
C 6.16393 26.3672 0.01227
C 4.88389 25.56478 0.00873
C 4.91897 24.20755 -0.00049
C 6.19499 23.45971 0.00848
C 6.22606 22.0299 -0.01303
C 4.96874 21.31983 -0.01378
C 4.84854 19.95213 0.02635
C 6.20142 19.11755 0.0127
C 4.96555 28.43321 -0.00966
C 6.25338 17.65867 0.01396
C 2.37453 7.14162 -0.00094
C 3.61484 9.35656 -0.03113
C 3.64136 30.56479 0.02379
C 2.39039 29.8468 0.00907
C 2.44943 28.4173 0.00643
C 3.70534 27.68263 -0.01509
C 3.71505 26.28673 0.03267
C 2.43816 25.62971 0.02374
C 2.39564 24.20349 0.00402
C 3.65714 23.4659 0.0073
C 3.69318 22.05912 0.0174
C 2.38597 8.58756 -0.02566
C 2.4552 21.32912 0.03828
C 3.69399 19.22296 -0.00279
C 3.71456 17.81966 0.01996
C 2.48627 17.1728 -0.03996
C 2.447 15.74259 0.01465
C 3.64111 14.98391 -0.00074
C 3.60592 13.54475 -0.00518
C 2.37515 12.81443 0.0086
C 2.34295 11.4546 -0.00643
C 3.59958 10.68816 0.017
C 2.44596 19.9614 0.01226
C 17.22173 15.45509 -0.04422
C 4.92575 17.02155 0.01849
C 6.20438 14.81287 -0.00562
C 8.58276 22.02948 0.02147
C 7.43831 21.33779 0.00373
C 7.4489 19.91676 -0.00191
C 8.60681 19.20486 0.00438
C 8.83153 17.5328 0.01291
C 7.52144 16.86444 0.00093
C 7.43948 15.39628 0.00057
C 8.40628 13.69841 -0.01634
C 7.33575 12.8046 -0.00334
C 8.70768 23.48238 -0.014
C 7.36311 11.39803 0.02339
C 8.57152 9.31266 -0.00719
C 7.39025 8.59651 0.01364
C 7.34052 7.13127 -0.01062
C 8.5691 6.40983 -0.00033
C 8.56522 4.99552 0.03589
C 7.31022 4.31004 -0.02759
C 7.27872 2.86711 0.0402
C 8.51908 2.2175 0.00572
C 8.53504 0.77222 0.03592
C 8.61417 10.77127 0.01641
C 4.8467 15.59333 -0.01142
C 7.35546 24.17489 -0.01118
C 8.728 26.14857 -0.02896
C 6.07162 13.42804 -0.00494
C 4.86543 12.74788 0.00054
C 4.86852 11.31739 0.03007
C 6.11232 10.69563 -0.00095
C 6.12449 9.24987 0.01572
C 4.91728 8.55947 -0.04848
C 4.79807 7.17581 -0.00892
C 6.12855 6.43885 -0.01362
C 6.0734 5.00348 -0.0008
C 7.45324 25.56606 -0.00131
C 4.8557 4.32633 0.0288
C 6.02442 2.23062 0.00895
C 6.05243 0.77617 0.00685
C 4.83649 0.05136 0.02888
C 7.32277 32.73651 -0.00482
C 8.57463 32.06727 -0.01384
C 8.53994 30.62778 0.03693
C 7.41196 29.88307 0.01745
C 7.46609 28.41999 0.00488
C 8.84349 27.64082 -0.01004
C 4.77491 2.93292 0.00393
C 3.65922 32.02299 0.01402
C 18.42862 14.77375 0.00654
C 17.23539 12.63758 -0.04076
C 30.67894 22.0655 0.02108
C 29.50285 21.28868 0.00716
C 29.74838 8.60011 0.00307
C 29.58021 7.24947 0.00346
C 30.77392 6.43482 0.01713
C 30.75708 5.02342 -0.01694
C 29.51456 4.2772 0.01428
C 29.46613 2.84357 -0.02142
C 30.67804 2.09711 0.0544
C 30.62768 0.66002 0.00026
C 29.43954 34.07641 0.00682
C 31.9286 32.67053 -0.01779
C 33.14965 31.94356 0.03794
C 33.14305 30.56604 0.01927
C 31.90944 29.80523 0.01574
C 31.91818 28.39598 -0.02383
C 33.22903 27.6957 -0.01429
C 33.21736 26.29774 -0.0136
C 32.01949 25.59945 0.00594
C 30.73878 23.5215 0.0103
C 29.45213 24.09607 0.07705
C 29.46818 25.50375 0.01908
C 30.68603 26.28246 0.01518
C 28.21515 26.22097 0.00924
C 27.00461 25.47233 0.02326
C 27.00795 24.06117 0.00261
C 28.22452 23.41292 0.03265
C 28.21621 21.88105 -0.02049
C 26.9429 21.38504 -0.01854
C 27.05368 7.11108 -0.01415
C 28.23321 6.44877 -0.03039
C 28.24743 5.00701 0.01836
C 32.01235 24.12867 -0.02474
C 27.04685 4.30977 0.03531
C 28.23541 2.0826 0.0101
C 28.26734 0.6866 0.01705
C 27.05853 34.0676 -0.0405
C 29.43109 32.71552 -0.01303
C 30.69532 31.98774 -0.01461
C 30.65279 30.56928 -0.02155
C 29.48326 29.83668 -0.00944
C 29.48092 28.34224 -0.03735
C 30.73675 27.66112 -0.00971
C 26.99454 2.88691 -0.00669
C 33.16845 23.40393 0.00369
C 33.08913 21.98512 0.00455
C 31.8391 21.38928 -0.00644
C 34.3838 21.29393 -0.02213
C 34.39821 19.95969 0.01951
C 1.26285 19.28846 -0.01678
C 1.18118 17.85229 0.01223
C 0.04285 17.10106 0.00648
C 0.23359 15.77204 0.02114
C 1.27714 14.9787 -0.02957
C 1.16216 13.48542 0.00343
C 34.33655 12.95076 -0.02656
C 1.19924 21.99833 0.02712
C 34.26725 11.51896 -0.02442
C 1.15415 9.28812 -0.00583
C 34.30349 8.59394 -0.02302
C 34.33275 7.19122 -0.02849
C 1.14997 6.43896 0.02931
C 1.22161 5.0189 0.00628
C 34.42767 4.3175 -0.0345
C 34.38671 2.89711 -0.00931
C 1.13186 2.16229 -0.00939
C 1.09886 0.82082 -0.00468
C 1.1106 10.80165 -0.00027
C 28.23329 27.74498 0.0014
C 1.18265 23.40713 0.00723
C 34.42676 25.56955 -0.05239
C 31.89035 19.89476 -0.01839
C 33.16983 19.32485 0.00137
C 33.32848 10.53513 0.00199
C 32.94212 9.22466 0.04381
C 31.62891 8.54366 0.02806
C 31.90338 7.16832 0.01504
C 33.14351 6.42561 -0.00069
C 33.19661 4.96444 0.04926
C 31.9456 4.28741 -0.03838
C 34.40542 24.13766 0.03076
C 31.87279 2.87111 0.00349
C 33.13736 0.82043 -0.00841
C 31.87051 34.04889 0.0001
C 34.37321 32.70281 -0.02927
C 1.20505 31.90073 -0.01404
C 1.17396 30.56079 0.01027
C 0.00979 29.80725 0.01831
C 34.40816 28.36274 -0.01037
C 1.1875 27.74469 -0.00439
C 1.2276 26.32945 -0.00598
C 33.13141 2.22947 -0.00323
C 27.0066 28.44572 0.01324
C 26.97187 29.85025 0.04266
C 28.29472 30.50533 0.01177
C 19.6485 19.71081 0.0296
C 20.9746 18.97443 0.03374
C 20.79185 17.66649 -0.02845
C 19.65769 16.9949 -0.03213
C 19.64923 15.50599 0.02239
C 20.82823 14.60458 0.01153
C 21.02408 13.3637 0.02734
C 19.62617 12.66285 -0.0055
C 19.53416 11.27717 0.01515
C 19.7545 21.12879 0.03046
C 20.85686 10.80864 -0.00225
C 19.61137 8.44889 -0.01107
C 19.71496 7.02283 -0.01586
C 20.93616 6.32842 -0.01971
C 20.86798 4.95299 -0.02118
C 19.64004 4.2196 0.00733
C 19.61695 2.89224 -0.00178
C 20.86873 2.15757 0.00768
C 20.89164 0.72213 -0.0276
C 19.65195 34.06458 0.03005
C 20.83935 9.11404 0.00071
C 22.02646 32.74641 -0.04078
C 20.91041 21.91903 -0.00381
C 19.6682 24.03909 0.01126
C 17.21373 11.24542 -0.00652
C 18.40848 10.56205 0.0058
C 18.42795 9.14989 -0.00865
C 17.16789 8.4352 0.00675
C 17.23089 7.00338 -0.00311
C 18.45629 6.281 0.00742
C 18.39534 4.90033 -0.01594
C 17.17018 4.15851 0.0106
C 17.2214 2.75606 -0.01154
C 20.91745 23.38696 0.01852
C 18.42536 2.13888 -0.01721
C 17.171 0.01076 0.01277
C 19.65339 32.69638 0.00096
C 20.85108 31.90978 -0.01527
C 20.79148 30.54165 0.01087
C 19.55553 29.73542 0.00199
C 19.56718 28.32474 0.01511
C 20.80113 27.64827 -0.00478
C 20.92043 26.23624 -0.01662
C 19.61518 25.4389 -0.01185
C 18.4138 0.67806 -0.02422
C 18.44371 13.43823 -0.00703
C 23.25118 31.95367 0.02117
C 22.04302 29.79456 -0.00498
C 24.61857 29.83509 -0.02815
C 24.53222 28.40482 -0.00942
C 25.78779 27.71252 0.00487
C 25.83817 26.28846 0.00826
C 24.62025 25.54345 -0.00294
C 24.60931 24.07208 0.00152
C 25.77162 23.33475 0.01257
C 25.60245 21.69828 0.02316
C 24.27969 21.06218 0.04185
C 25.83046 30.55986 0.00622
C 24.4802 8.57026 0.00194
C 25.85756 6.35768 0.02611
C 25.8014 5.00621 0.02198
C 24.53786 4.26144 0.01094
C 24.54303 2.88365 0.00235
C 25.82027 2.13056 0.01495
C 25.76833 0.7153 0.01259
C 24.55033 0.0066 0.01799
C 27.00215 32.67771 0.01699
C 28.19176 31.94846 -0.00416
C 24.56367 7.07219 -0.00621
C 23.35676 30.4825 0.02737
C 25.70838 31.96519 -0.0032
C 22.22484 0.07683 -0.01654
C 22.05136 28.37396 0.00135
C 23.27277 27.66549 0.03102
C 23.38202 26.25785 0.02555
C 22.1261 25.48946 0.01423
C 22.1166 24.11502 -0.00285
C 23.35894 23.37713 -0.009
C 23.31694 22.04688 -0.01199
C 22.11236 21.29651 -0.00229
C 22.34085 19.82783 -0.00938
C 24.52035 32.69123 -0.00037
C 23.83935 19.72279 -0.0264
C 23.30398 9.11904 0.00684
C 22.04591 8.50342 -0.01052
C 22.14379 7.06214 -0.01679
C 23.39036 6.37407 0.00367
C 23.32419 4.94891 0.04306
C 22.13973 4.25331 0.00996
C 22.10209 2.86156 0.00195
C 23.35663 2.15861 -0.00802
C 23.39307 0.75574 -0.00218
C 21.97186 11.66873 -0.01154
C 2.4038 32.71853 -0.003
