393
Graphene
C 34.34772 0.00335 0.01295
C 16.02299 31.93844 0.01877
C 15.98983 30.55856 0.01363
C 14.78157 29.82588 -0.02162
C 14.80542 28.37246 0.00415
C 15.99753 27.72096 -0.0014
C 16.02152 26.27526 0.02162
C 14.72566 25.47164 0.0076
C 14.79687 24.03478 0.01241
C 16.13976 23.26737 -0.01454
C 14.71502 32.6553 -0.00925
C 16.05925 10.66395 0.01945
C 14.67664 8.46427 0.03542
C 14.77605 7.00547 0.02299
C 16.01645 6.28474 0.00244
C 15.94186 4.924 -0.01717
C 14.70208 4.24004 0.05265
C 14.73823 2.81025 -0.01952
C 15.94675 2.13869 -0.02813
C 16.01716 0.7345 0.00374
C 14.78172 0.0223 0.00052
C 15.91988 9.26287 0.01416
C 12.23722 0.06943 0.00444
C 13.50848 0.68025 -0.01789
C 13.50052 2.1102 0.02894
C 9.81318 2.88571 0.03589
C 11.06109 2.15225 -0.02759
C 10.99561 0.76433 0.0402
C 9.77999 0.10887 0.00572
C 12.26912 32.74164 0.03592
C 13.49828 31.97924 0.00406
C 13.54611 30.5563 0.00943
C 12.28589 29.80969 0.02841
C 12.32969 28.37701 -0.01111
C 13.54864 27.72897 -0.01275
C 13.56946 26.17486 0.00985
C 12.27977 25.5398 -0.02245
C 12.26604 24.02782 -0.00428
C 13.60982 23.41347 0.03101
C 13.43229 9.04854 -0.01536
C 12.13138 8.65303 -0.02689
C 12.24687 7.21826 -0.01046
C 13.38105 6.43317 -0.00891
C 13.42754 4.96746 0.02819
C 12.22839 4.29307 0.00165
C 12.2968 2.81949 -0.02971
C 17.20169 32.60276 -0.03682
C 9.78068 4.32326 -0.00033
C 18.45704 31.90626 0.01965
C 17.31507 29.77405 -0.01957
C 20.9436 26.32432 -0.02213
C 19.72154 25.63079 0.03698
C 19.72611 24.19449 -0.00109
C 20.88366 23.4662 -0.00491
C 20.87566 22.036 0.03338
C 19.63465 21.31016 -0.0258
C 19.71248 19.89196 -0.0331
C 20.99198 19.28151 -0.00316
C 20.87637 17.81108 0.02188
C 20.92045 27.73026 0.00028
C 19.69903 16.90166 -0.01979
C 20.8468 14.77264 -0.01581
C 20.8681 13.37633 0.01452
C 19.65527 12.74866 0.04892
C 19.7528 11.32375 -0.00111
C 20.91405 10.63095 -0.03557
C 20.85916 9.16021 0.03754
C 19.63505 8.5109 0.01739
C 19.56431 7.11558 0.00755
C 20.82494 6.38881 -0.0054
C 19.69909 15.56833 0.02691
C 19.68388 28.35672 -0.00289
C 19.76144 29.78978 -0.00066
C 20.9597 30.502 0.00213
C 17.20571 28.44362 -0.0108
C 18.44293 27.69138 -0.00368
C 18.4415 26.27461 -0.02696
C 17.21445 25.51272 -0.00114
C 17.23521 24.1742 0.00228
C 18.48761 23.51135 0.00798
C 18.43878 22.11384 0.00422
C 17.14103 11.35622 0.0351
C 18.45444 10.72527 -0.03113
C 18.40691 9.2678 0.02098
C 17.17247 8.50983 0.01848
C 17.09706 7.07911 -0.00619
C 18.34047 6.42099 -0.02162
C 18.37167 4.94686 0.00889
C 17.1766 4.13959 -0.00481
C 17.21155 2.74186 0.00979
C 18.41321 2.02592 0.01443
C 18.41176 0.66056 0.03505
C 17.15783 34.03905 -0.02815
C 19.65562 32.58696 -0.04147
C 20.9001 31.89779 -0.05302
C 18.52304 30.51417 0.02058
C 10.94829 5.07102 -0.01062
C 11.02293 6.54338 0.01364
C 9.7575 7.15049 -0.00719
C 2.31036 4.36967 -0.03996
C 2.31802 2.86379 0.01465
C 3.55522 2.18826 -0.00074
C 3.61629 0.75559 -0.00518
C 2.3548 0.02985 0.0086
C 4.88164 32.68032 -0.00643
C 6.10621 32.03121 0.017
C 6.13455 30.57446 -0.03113
C 4.91421 29.9351 -0.02566
C 3.52246 5.02868 0.01996
C 4.91808 28.4823 -0.00094
C 6.04341 26.33164 -0.00725
C 4.85197 25.66002 -0.05697
C 4.82427 24.16469 0.01087
C 6.06246 23.60893 -0.01343
C 6.22121 22.14226 0.00988
C 5.03142 21.28118 0.0276
C 5.08556 19.82565 0.01305
C 6.25353 19.04963 -0.00077
C 4.96402 17.00354 0.03368
C 6.11746 27.6915 0.02322
C 3.61453 6.38052 -0.00279
C 2.38889 7.22403 0.01226
C 2.43423 8.57393 0.03828
C 3.66933 30.57988 0.00208
C 2.42936 29.88297 0.01707
C 2.44904 28.43241 0.02769
C 3.64094 27.80634 -0.03291
C 3.63738 26.38185 -0.04999
C 2.3773 25.56129 0.04505
C 2.47665 24.215 0.03284
C 3.65273 23.40866 -0.04307
C 3.69519 21.96759 0.03189
C 2.50351 21.32706 0.00031
C 2.52633 19.82542 -0.003
C 3.70932 19.12351 0.01402
C 3.67789 17.73606 0.02379
C 2.52759 16.95666 0.00907
C 2.44244 15.55388 0.00643
C 3.67361 14.85114 -0.01509
C 3.73417 13.4956 0.03267
C 2.55205 12.86756 0.02374
C 2.42072 11.45261 0.00402
C 3.61788 10.67836 0.0073
C 3.64242 9.27376 0.0174
C 4.9239 15.76942 -0.02929
C 6.43648 13.2799 -0.00966
C 5.02123 12.80382 -0.03337
C 4.80291 11.44361 0.01227
C 7.2506 8.55619 -0.00482
C 7.26318 7.23364 -0.01384
C 8.48475 6.51409 0.03693
C 8.5745 5.00365 0.01745
C 7.38517 4.29357 0.00488
C 7.32161 2.96643 -0.01004
C 8.49877 2.23365 -0.02896
C 8.58321 0.74777 -0.00131
C 7.38036 0.06826 -0.01118
C 9.83592 32.76662 -0.014
C 11.08622 31.99993 0.02147
C 11.04814 30.52485 0.00373
C 9.80906 29.87083 -0.00191
C 9.83813 28.47655 0.00438
C 11.10427 27.67678 0.01291
C 10.97834 26.29064 0.00093
C 9.82293 25.52642 0.00057
C 9.60919 24.11321 -0.01634
C 10.89062 23.63829 -0.00334
C 10.91605 9.32643 0.02339
C 9.80047 8.54881 0.01641
C 8.54706 9.27118 0.02888
C 20.84137 4.94576 0.00667
C 8.22239 10.74004 0.00685
C 7.70719 21.74803 0.00393
C 6.00793 10.72259 0.00873
C 6.07566 9.30227 -0.00049
C 4.84572 8.55309 0.00848
C 4.80697 7.12682 -0.01303
C 6.09816 6.41202 -0.01378
C 6.07001 5.02061 0.02635
C 4.80109 4.32334 0.0127
C 4.78654 2.87615 0.01396
C 6.10228 2.19236 0.01849
C 6.13003 0.80213 -0.01142
C 4.92323 0.0632 -0.00562
C 7.35508 32.76727 -0.00494
C 8.60493 32.05231 0.00054
C 8.6222 30.7337 0.03007
C 7.35811 29.96785 -0.00095
C 7.33824 28.48643 0.01572
C 8.56007 27.78063 -0.04848
C 8.5335 26.32187 -0.00892
C 7.35855 25.68111 -0.01362
C 7.30076 24.24151 -0.0008
C 8.30152 23.25248 0.0288
C 7.23189 11.56557 0.00895
C 3.67604 31.9959 -0.00561
C 19.54334 4.22319 0.00143
C 20.83774 2.11062 0.00364
C 30.62629 4.97546 0.07705
C 29.45583 4.22414 0.0103
C 29.47451 2.78701 0.02108
C 30.74827 2.14492 0.00716
C 30.71365 0.70124 0.00307
C 29.44772 34.072 0.00346
C 31.95188 32.70193 0.01713
C 33.26355 31.95985 -0.01694
C 33.14852 30.52066 0.01428
C 30.70246 6.39367 0.01908
C 31.93754 29.84665 -0.02142
C 33.20397 27.73936 0.00026
C 33.21253 26.29419 0.00682
C 31.91857 25.60866 -0.01779
C 31.9919 24.15389 0.03794
C 33.16888 23.38747 0.01927
C 33.30192 22.00023 0.01574
C 31.98576 21.26143 -0.02383
C 32.04654 19.89523 -0.01429
C 33.25652 19.11722 -0.0136
C 32.00133 28.42411 0.0544
C 29.45747 7.08277 0.01518
C 29.43964 8.55332 -0.00971
C 30.69313 9.21608 -0.03735
C 30.63363 32.00462 0.04266
C 30.72813 30.57991 0.01324
C 29.46667 29.87424 0.0014
C 29.49369 28.45881 0.00924
C 30.74074 27.79151 0.02326
C 30.76488 26.3262 0.00261
C 29.60849 25.53691 0.03265
C 29.58787 24.14574 -0.02049
C 30.8321 23.42648 -0.01854
C 30.75165 21.96669 -0.01415
C 29.54742 21.25358 -0.03039
C 29.54391 19.82584 0.01836
C 30.74518 19.15142 0.03531
C 30.66625 17.74305 -0.00669
C 29.46268 17.02861 0.0101
C 29.42492 15.65734 0.01705
C 30.62223 14.92275 -0.0405
C 30.56595 13.46017 -0.01303
C 29.39493 12.81998 -0.01461
C 29.41506 11.38228 -0.02155
C 30.67366 10.67187 -0.00944
C 33.24366 17.67353 0.00594
C 29.42658 32.6452 0.01177
C 31.93341 17.01498 -0.02474
C 33.13024 14.92861 0.00455
C 0.06144 21.2632 -0.02213
C 0.06947 19.8437 0.01951
C 1.3285 19.23226 -0.01678
C 1.39322 17.67359 0.01223
C 0.09748 17.03437 0.00648
C 34.4259 15.64124 0.02114
C 1.22619 14.91569 -0.02957
C 1.21579 13.47832 0.00343
C 0.00863 12.82454 -0.02656
C 1.26755 21.98538 0.02712
C 34.3169 11.39913 -0.02442
C 1.16129 9.27695 -0.00583
C 34.37494 8.59296 -0.02302
C 34.38666 7.11074 -0.02849
C 1.21704 6.49003 0.02931
C 1.15292 5.08525 0.00628
C 34.40887 4.30624 -0.0345
C 34.39003 2.92642 -0.00931
C 1.17099 2.18509 -0.00939
C 1.14186 0.71611 -0.00468
C 1.18621 10.74673 -0.00027
C 1.22498 23.46994 0.00723
C 34.42356 24.1299 0.03076
C 34.4107 25.59173 -0.05239
C 33.22411 13.51891 -0.00644
C 31.89666 12.7843 -0.01839
C 31.89034 11.38827 0.00137
C 33.12896 10.68154 0.00199
C 33.16875 9.26597 0.04381
C 31.86092 8.5876 0.02806
C 31.90469 7.12505 0.01504
C 33.10815 6.35782 -0.00069
C 33.20844 4.95886 0.04926
C 31.93542 4.30339 -0.03838
C 31.99781 2.85071 0.00349
C 33.16863 2.15486 -0.00323
C 33.12286 0.71415 -0.00841
C 31.9292 34.02719 0.0001
C 0.00462 32.59933 -0.02927
C 1.2286 31.9031 -0.01404
C 1.22046 30.53599 0.01027
C 34.36089 29.89029 0.01831
C 34.30414 28.50667 -0.01037
C 1.20075 27.78143 -0.00439
C 1.19389 26.28629 -0.00598
C 31.8661 15.64386 0.00369
C 27.0389 34.06221 -0.00416
C 28.27039 0.69919 0.01699
C 28.17987 2.16918 0.01799
C 22.10636 8.48689 -0.01185
C 22.03728 7.07749 0.01126
C 23.29457 6.32309 0.01852
C 23.30633 4.96697 -0.00381
C 22.02863 4.26892 0.03046
C 22.00653 2.85251 0.0296
C 23.32223 2.11554 0.03374
C 23.27849 0.72253 -0.02845
C 22.10463 34.05447 -0.03213
C 23.34632 9.19475 -0.01662
C 24.57127 32.6209 0.02239
C 25.86753 30.52116 0.02734
C 24.63155 29.76315 -0.0055
C 24.60946 28.35624 0.01515
C 25.87602 27.69707 -0.00225
C 25.92814 26.2104 0.00071
C 24.70473 25.53707 -0.01107
C 24.66767 24.14075 -0.01586
C 25.9711 23.39563 -0.01971
C 25.85359 22.03287 -0.02118
C 25.81167 31.96094 0.01153
C 23.22943 10.60206 -0.00478
C 22.06728 11.31068 0.01511
C 22.09505 12.69019 0.00199
C 20.86252 0.69788 -0.00831
C 19.64072 34.03368 -0.02957
C 22.12832 32.61804 -0.04422
C 23.3742 31.89656 0.00654
C 23.41684 30.46983 -0.00703
C 22.15704 29.75949 -0.04076
C 22.20831 28.32689 -0.00652
C 23.43278 27.63549 0.0058
C 23.46401 26.23557 -0.00865
C 22.18268 25.62013 0.00675
C 22.19789 24.12878 -0.00311
C 23.36936 23.43598 0.00742
C 23.41733 22.04033 -0.01594
C 22.13369 21.35885 0.0106
C 22.2219 19.93182 -0.01154
C 23.3688 19.16681 -0.01721
C 23.27014 17.76322 -0.02422
C 22.00093 16.98243 0.01277
C 22.02646 15.57282 0.00096
C 23.19121 14.90682 -0.01527
C 23.30727 13.42968 0.01087
C 24.65624 21.34987 0.00733
C 24.56284 19.92836 -0.00178
C 25.79121 19.19841 0.00768
C 25.81134 17.78935 -0.0276
C 27.20471 24.09977 -0.01654
C 28.38237 23.32895 -0.00037
C 28.44069 21.97098 -0.0032
C 27.02684 21.25221 0.00622
C 26.98802 19.83456 -0.02815
C 28.27277 19.10487 -0.00942
C 28.20592 17.74187 0.00487
C 27.01616 17.04771 0.00826
C 26.90666 15.58658 -0.00294
C 28.18819 14.97556 0.00152
C 28.23236 13.56261 0.01257
C 26.97729 12.79072 0.02316
C 27.05386 11.38138 0.04185
C 28.2767 10.66516 0.00194
C 28.27259 9.19897 -0.00621
C 27.07709 8.46695 0.02611
C 27.01001 7.03129 0.02198
C 28.25063 6.33859 0.01094
C 28.21941 4.93642 0.00235
C 27.05069 4.20482 0.01495
C 26.9729 2.84236 0.01259
C 27.08505 25.49372 -0.00218
C 19.61901 2.84499 -0.017
C 28.40284 26.23409 -0.00802
C 27.12035 28.42873 0.00996
C 24.55697 17.07586 0.03005
C 24.44181 15.62083 -0.04078
C 25.6787 14.87409 0.02117
C 25.73648 13.45625 0.02737
C 24.53146 12.7097 -0.00498
C 24.51676 11.33207 0.00135
C 25.79215 10.66346 0.03102
C 25.87788 9.18804 0.02555
C 24.55898 8.41504 0.01423
C 24.47672 7.05177 -0.00285
C 25.77716 6.29132 -0.009
C 25.77741 4.87451 -0.01199
C 24.60032 4.24867 -0.00229
C 24.53324 2.82635 -0.00938
C 25.75508 2.11343 -0.0264
C 25.78387 0.6343 -0.01154
C 24.56952 34.03886 0.00684
C 27.04287 32.71704 -0.01052
C 28.19296 31.95986 -0.01679
C 28.24959 30.54955 0.00367
C 27.05571 29.81681 0.04306
C 28.29531 27.64139 0.00195
C 2.46199 32.72851 -0.01977
