436
Graphene
C 0.05776 33.98765 0.01295
C 13.48711 9.27927 0.02339
C 12.31523 8.54569 0.01641
C 12.30067 7.15428 -0.00719
C 13.47697 6.41722 0.01364
C 13.50716 4.93313 -0.01062
C 12.32852 4.22981 -0.00033
C 12.33814 2.86182 0.03589
C 13.51583 2.04174 -0.02759
C 13.54666 0.67604 0.0402
C 12.25408 0.00107 0.00572
C 14.8149 32.55244 0.03592
C 16.05755 31.91842 0.00406
C 16.06862 30.50775 0.00943
C 14.8155 29.86787 0.02841
C 14.83034 28.3098 -0.01111
C 15.94154 27.60382 -0.01275
C 15.87161 26.20571 0.00985
C 14.72712 25.43364 -0.02245
C 14.65102 24.05486 -0.00428
C 16.01716 23.41903 0.03101
C 16.02273 21.98858 -0.01536
C 14.80613 21.33269 -0.02689
C 14.79533 19.88608 -0.01046
C 13.52226 10.63844 -0.00334
C 15.93694 19.12722 -0.00891
C 12.23824 11.46479 -0.01634
C 13.49347 13.50797 0.00093
C 9.86844 4.31284 -0.00892
C 9.79624 2.87719 -0.01362
C 11.03063 2.18279 -0.0008
C 11.06201 0.73847 0.0288
C 9.82631 0.05043 0.00393
C 12.31758 32.66762 0.00895
C 13.58208 31.92458 0.00685
C 13.57593 30.6242 0.02888
C 12.34854 29.8705 -0.00482
C 12.32678 28.3949 -0.01384
C 13.51162 27.68787 0.03693
C 13.5295 26.25856 0.01745
C 12.23598 25.55326 0.00488
C 12.27144 24.151 -0.01004
C 13.55731 23.35322 -0.02896
C 13.57182 21.98889 -0.00131
C 12.27576 21.31289 -0.01118
C 12.31285 19.95293 -0.014
C 13.50413 19.24968 0.02147
C 13.46006 17.79008 0.00373
C 12.21635 17.05493 -0.00191
C 12.29462 15.69318 0.00438
C 13.51515 14.95339 0.01291
C 12.24219 12.84228 0.00057
C 15.95935 17.77195 0.02819
C 14.67888 17.12246 0.00165
C 14.70053 15.69359 -0.02971
C 18.4038 19.18681 -0.0108
C 18.43018 17.67727 -0.00368
C 17.24757 17.05939 -0.02696
C 17.21426 15.59738 -0.00114
C 18.43608 14.82874 0.00228
C 18.41715 13.46335 0.00798
C 17.21224 12.75041 0.00422
C 17.19462 11.34785 0.0351
C 18.43838 10.6385 -0.03113
C 18.46661 9.20596 0.02098
C 17.19833 8.49637 0.01848
C 17.11737 7.10909 -0.00619
C 18.34143 6.40416 -0.02162
C 18.39051 4.97851 0.00889
C 17.18222 4.22008 -0.00481
C 17.29576 2.84565 0.00979
C 18.49196 2.16664 0.01443
C 18.4438 0.72216 0.03505
C 17.20425 0.02207 -0.02815
C 19.64929 32.61833 -0.04147
C 20.8488 31.96772 -0.05302
C 20.82459 30.5747 0.00213
C 19.65287 29.86972 -0.00066
C 17.21135 19.9116 -0.01957
C 17.22206 21.32139 0.02058
C 18.34935 22.03291 0.01965
C 18.4018 23.47684 -0.03682
C 15.94878 14.9729 0.02894
C 15.95708 13.50692 -0.01789
C 14.7044 12.78978 0.00444
C 14.72859 11.35994 -0.00925
C 15.90334 10.63851 0.01877
C 15.92129 9.25892 0.01363
C 14.7925 8.50334 -0.02162
C 14.73954 7.1121 0.00415
C 15.94086 6.3231 -0.0014
C 15.92056 4.92655 0.02162
C 14.75248 4.22117 0.0076
C 11.1468 5.03042 -0.04848
C 14.68491 2.7883 0.01241
C 16.00786 0.69184 0.01945
C 14.77676 34.02966 0.01416
C 17.22553 32.70628 0.03542
C 18.42384 31.98634 0.02299
C 18.45069 30.51742 0.00244
C 17.26961 29.83614 -0.01717
C 17.19301 28.33207 0.05265
C 18.4699 27.70281 -0.01952
C 18.44233 26.3142 -0.02813
C 17.16759 25.58388 0.00374
C 17.15661 24.11283 0.00052
C 15.9955 2.2115 -0.01454
C 19.69777 28.37221 -0.00289
C 11.08373 6.41912 0.01572
C 9.8201 8.55157 0.03007
C 4.82511 25.74266 -0.02375
C 4.86837 24.21738 0.00558
C 6.13863 23.49375 -0.0059
C 6.12101 22.05667 -0.01386
C 4.95953 21.23909 -0.02805
C 4.99037 19.91263 0.00081
C 6.20951 19.171 0.00245
C 6.20232 17.77756 0.02728
C 4.89182 17.08263 -0.00039
C 4.87145 15.63688 0.0064
C 6.14542 14.90303 0.00211
C 6.11503 13.39374 -0.00449
C 4.88821 12.70256 -0.01979
C 4.86885 11.30218 0.02784
C 6.22173 10.59255 -0.01977
C 6.15057 9.20083 -0.00561
C 4.94468 8.50224 0.00208
C 4.86004 7.08554 0.01707
C 6.16442 6.43046 0.02769
C 6.09552 4.9263 -0.03291
C 4.89068 4.27383 -0.04999
C 4.88257 2.90428 0.04505
C 6.0912 2.21127 0.03284
C 6.1057 26.10187 0.00828
C 6.16244 0.83756 -0.04307
C 5.04776 32.78213 0.00088
C 3.71918 0.71607 -0.00177
C 2.40186 25.4938 0.01984
C 2.45474 24.11577 0.00535
C 3.69808 23.44636 -0.00198
C 3.68404 21.98439 -0.00012
C 2.4686 21.36872 -0.04306
C 2.45755 19.91869 -0.03672
C 3.71964 19.1684 0.01913
C 3.75972 17.77192 0.00267
C 2.45288 17.07476 0.00787
C 2.4584 15.61078 0.02426
C 3.67755 14.80107 0.01218
C 3.66928 13.48649 -0.01471
C 2.38813 12.7092 -0.02827
C 2.35142 11.2698 0.01078
C 3.6354 10.64502 -0.00112
C 3.65356 9.17975 0.03345
C 2.4227 8.49613 0.00748
C 2.46343 7.09988 0.00662
C 3.63508 6.44198 -0.0154
C 3.66795 4.96344 -0.01299
C 2.47285 4.23486 -0.00407
C 2.40998 2.83001 0.01138
C 3.67532 2.18729 0.03278
C 2.53084 34.0019 0.04421
C 4.96586 0.07702 0.03189
C 7.22445 32.73557 0.00031
C 8.42635 31.94766 -0.003
C 9.76656 32.78565 -0.01343
C 11.04328 31.9788 0.00988
C 11.11864 30.58605 0.0276
C 9.75274 29.96304 0.01305
C 9.74803 28.50136 -0.00077
C 11.00801 27.79255 0.03368
C 10.93976 26.37326 -0.02929
C 9.80811 25.62999 -0.00966
C 9.84145 24.1475 -0.03337
C 11.0517 23.42625 0.01227
C 11.08966 22.03229 0.00873
C 9.85869 21.35953 -0.00049
C 9.88264 19.96002 0.00848
C 11.03784 19.2382 -0.01303
C 10.99904 17.79028 -0.01378
C 9.76229 17.03236 0.02635
C 9.76101 15.68539 0.0127
C 10.98491 14.97984 0.01396
C 11.0631 13.53057 0.01849
C 9.85489 12.83537 -0.01142
C 9.85964 11.41499 -0.00562
C 11.07218 10.77485 -0.00494
C 11.06196 9.29238 0.00054
C 7.41274 0.07042 0.01087
C 8.56599 0.78862 -0.05697
C 8.54366 2.19899 -0.00725
C 7.39333 2.99609 0.02322
C 8.57112 30.60537 0.01402
C 8.57371 27.80839 0.02379
C 8.50527 26.29143 0.00907
C 7.37598 25.55322 0.00643
C 7.3742 24.09661 -0.01509
C 8.61562 23.49719 0.03267
C 8.56872 22.07353 0.02374
C 7.33129 21.33122 0.00402
C 7.41774 19.93857 0.0073
C 8.64919 19.1989 0.0174
C 8.52984 17.81392 0.03828
C 9.83335 7.13352 -0.00095
C 7.34694 16.99568 0.01226
C 8.62656 14.8556 0.01996
C 8.54032 13.52012 -0.03996
C 7.36026 12.82293 0.01465
C 7.39938 11.38434 -0.00074
C 8.71113 10.68731 -0.00518
C 8.63463 9.27039 0.0086
C 7.40533 8.50859 -0.00643
C 7.34952 7.09355 0.017
C 8.58731 6.44037 -0.03113
C 8.6319 4.99956 -0.02566
C 7.31176 4.33739 -0.00094
C 7.30171 15.63105 -0.00279
C 20.89466 27.71828 0.00028
C 20.90448 26.26927 -0.02213
C 19.67055 25.57929 0.03698
C 30.71248 14.89447 -0.0405
C 30.73017 13.3917 -0.01303
C 29.46211 12.70696 -0.01461
C 29.49326 11.30264 -0.02155
C 30.70974 10.56313 -0.00944
C 30.73679 9.20969 -0.03735
C 29.50785 8.46319 -0.00971
C 29.51496 7.07932 0.01518
C 30.70892 6.39168 0.01908
C 30.72106 4.92525 0.07705
C 29.51116 4.1915 0.0103
C 29.5493 2.81306 0.02108
C 30.79987 2.07141 0.00716
C 30.7459 0.59687 0.00307
C 29.47566 34.01574 0.00346
C 31.95394 32.5751 0.01713
C 33.19835 31.96436 -0.01694
C 33.23229 30.54446 0.01428
C 31.99436 29.86334 -0.02142
C 31.95214 28.41599 0.0544
C 33.24818 27.7784 0.00026
C 33.15215 26.32861 0.00682
C 31.97874 25.61968 -0.01779
C 29.53915 15.63774 0.01705
C 31.91533 24.22018 0.03794
C 29.56071 17.01837 0.0101
C 30.61646 19.23211 0.03531
C 28.24052 9.20302 -0.00621
C 26.97786 8.51425 0.02611
C 27.02582 7.10458 0.02198
C 28.22719 6.35362 0.01094
C 28.25622 4.99349 0.00235
C 27.00158 4.22334 0.01495
C 27.10875 2.78147 0.01259
C 28.31194 2.07812 0.01799
C 28.32888 0.68629 0.01699
C 27.04771 34.0719 -0.00416
C 29.46203 32.62094 0.01177
C 30.72624 31.8774 0.04266
C 30.72947 30.55808 0.01324
C 29.51379 29.79151 0.0014
C 29.51143 28.42197 0.00924
C 30.73198 27.75023 0.02326
C 30.70082 26.31684 0.00261
C 29.53768 25.59595 0.03265
C 29.50321 24.12834 -0.02049
C 30.70224 23.416 -0.01854
C 30.6806 22.03313 -0.01415
C 29.46894 21.32474 -0.03039
C 29.44387 19.85777 0.01836
C 30.76849 17.78029 -0.00669
C 33.17456 23.48251 0.01927
C 33.17978 22.07223 0.01574
C 31.98945 21.29277 -0.02383
C 34.41642 24.1539 0.03076
C 1.16722 23.3811 0.00723
C 1.18393 21.97094 0.02712
C 34.38804 21.326 -0.02213
C 34.28612 19.85222 0.01951
C 1.18121 19.21721 -0.01678
C 1.2341 17.71143 0.01223
C 0.01568 17.05298 0.00648
C 0.01752 15.5873 0.02114
C 1.32197 14.89612 -0.02957
C 1.1751 13.44743 0.00343
C 34.28237 12.74959 -0.02656
C 34.3933 11.34821 -0.02442
C 1.12854 10.57948 -0.00027
C 1.17792 9.18467 -0.00583
C 0.0485 8.45572 -0.02302
C 0.00535 6.98544 -0.02849
C 1.21655 6.3999 0.02931
C 1.23331 4.96615 0.00628
C 0.02145 4.18444 -0.0345
C 0.07698 2.78236 -0.00931
C 1.25729 2.10358 -0.00939
C 1.30375 0.64538 -0.00468
C 0.00161 25.63641 -0.05239
C 1.19959 26.28422 -0.00598
C 1.27131 27.71335 -0.00439
C 0.10984 28.39401 -0.01037
C 31.94692 19.86188 -0.01429
C 33.12539 19.08126 -0.0136
C 33.17293 17.68815 0.00594
C 31.98563 16.97525 -0.02474
C 31.91358 15.57862 0.00369
C 33.14921 14.85404 0.00455
C 33.13644 13.41863 -0.00644
C 31.91746 12.73157 -0.01839
C 31.88938 11.27444 0.00137
C 33.14604 10.546 0.00199
C 33.19231 9.15265 0.04381
C 28.19366 10.59715 0.00194
C 31.92416 8.45931 0.02806
C 33.18781 6.28417 -0.00069
C 33.18494 4.92221 0.04926
C 32.01391 4.16186 -0.03838
C 32.04168 2.69572 0.00349
C 33.22456 2.06981 -0.00323
C 33.18173 0.65165 -0.00841
C 32.01575 34.01004 0.0001
C 0.06984 32.61329 -0.02927
C 1.42368 31.84056 -0.01404
C 1.27286 30.51608 0.01027
C 0.0194 29.81873 0.01831
C 31.96729 7.03456 0.01504
C 27.07761 11.36392 0.04185
C 27.08726 12.82172 0.02316
C 28.31407 13.48571 0.01257
C 22.1034 28.39981 -0.00652
C 23.38308 27.65451 0.0058
C 23.39765 26.28816 -0.00865
C 22.13995 25.54273 0.00675
C 22.04064 24.11772 -0.00311
C 23.34083 23.43167 0.00742
C 23.3442 22.08762 -0.01594
C 22.08222 21.32818 0.0106
C 22.08747 19.89903 -0.01154
C 23.29392 19.24014 -0.01721
C 23.28094 17.79515 -0.02422
C 22.12231 17.04873 0.01277
C 22.09981 15.68135 0.00096
C 23.32241 14.92758 -0.01527
C 23.35448 13.54765 0.01087
C 22.20882 12.79168 0.00199
C 22.2984 11.41409 0.01511
C 23.4587 10.67719 -0.00478
C 23.51601 9.31678 -0.01662
C 22.1116 8.56502 -0.01185
C 22.13174 7.13751 0.01126
C 23.27823 6.34103 0.01852
C 23.30261 4.90882 -0.00381
C 22.10469 29.8632 -0.04076
C 23.28752 30.61589 -0.00703
C 23.34288 32.0435 0.00654
C 22.11476 32.7368 -0.04422
C 19.58095 24.21611 -0.00109
C 20.90571 23.45542 -0.00491
C 20.83009 21.98984 0.03338
C 19.63162 21.29844 -0.0258
C 19.62739 19.93152 -0.0331
C 20.86436 19.20577 -0.00316
C 20.87107 17.80236 0.02188
C 19.69867 17.02846 -0.01979
C 19.70195 15.52083 0.02691
C 20.91819 14.88642 -0.01581
C 20.95248 13.37554 0.01452
C 22.06414 4.25244 0.03046
C 19.69483 12.75132 0.04892
C 20.85879 10.59488 -0.03557
C 20.92755 9.22241 0.03754
C 19.73981 8.50079 0.01739
C 19.60041 7.07671 0.00755
C 20.87388 6.39942 -0.0054
C 20.88323 5.00211 0.00667
C 19.60303 4.36162 0.00143
C 19.66273 2.86615 -0.017
C 20.88306 2.12184 0.00364
C 20.84276 0.70696 -0.00831
C 19.67047 0.02614 -0.02957
C 19.67209 11.31787 -0.00111
C 3.49997 26.3105 0.01073
C 22.14946 2.83813 0.0296
C 23.34125 0.74611 -0.02845
C 24.53088 4.18691 -0.00229
C 24.61511 2.76601 -0.00938
C 25.8266 2.10343 -0.0264
C 25.7753 0.75044 -0.01154
C 24.54809 34.05968 0.00684
C 26.94892 32.65263 -0.01052
C 28.26525 31.93409 -0.01679
C 28.24249 30.56193 0.00367
C 27.07178 29.8168 0.04306
C 27.09299 28.3782 0.00996
C 28.31768 27.72966 0.00195
C 28.29513 26.31922 -0.00802
C 27.01601 25.5768 -0.00218
C 27.04069 24.12617 -0.01654
C 28.20979 23.45772 -0.00037
C 28.25534 21.99625 -0.0032
C 27.09014 21.26838 0.00622
C 27.0319 19.88342 -0.02815
C 28.28881 19.13984 -0.00942
C 28.27546 17.69344 0.00487
C 27.03172 17.03348 0.00826
C 27.01014 15.57268 -0.00294
C 28.27217 14.9536 0.00152
C 25.78935 4.93612 -0.01199
C 25.79068 6.39123 -0.009
C 24.59747 7.07165 -0.00285
C 24.64097 8.45998 0.01423
C 22.06193 0.02713 -0.03213
C 24.55229 32.62171 0.02239
C 25.79901 32.03239 0.01153
C 25.78296 30.54461 0.02734
C 24.51606 29.89145 -0.0055
C 24.59361 28.49668 0.01515
C 25.86597 27.72162 -0.00225
C 25.87369 26.33021 0.00071
C 24.67733 25.55141 -0.01107
C 24.59513 24.12032 -0.01586
C 25.82968 23.40528 -0.01971
C 23.32029 2.13768 0.03374
C 25.8544 21.95571 -0.02118
C 24.556 19.90355 -0.00178
C 25.76509 19.12317 0.00768
C 25.81191 17.75127 -0.0276
C 24.56346 17.04487 0.03005
C 24.54233 15.70206 -0.04078
C 25.77115 14.92185 0.02117
C 25.86589 13.48862 0.02737
C 24.60551 12.81472 -0.00498
C 24.5959 11.37075 0.00135
C 25.85232 10.73106 0.03102
C 25.76547 9.23066 0.02555
C 24.6002 21.36052 0.00733
C 2.61151 32.66455 -0.00018
