371
Graphene
C 34.36854 0.01349 0.01295
C 13.47874 30.58257 -0.01717
C 12.24396 29.85926 0.05265
C 12.22805 28.39966 -0.01952
C 13.51578 27.67502 -0.02813
C 13.40513 26.28148 0.00374
C 12.17163 25.60814 0.00052
C 12.22857 24.12492 -0.03682
C 13.51592 23.49801 0.01965
C 13.46496 22.0273 0.02058
C 12.2456 21.34125 -0.01957
C 12.23768 19.95169 -0.0108
C 13.48303 19.16937 -0.00368
C 13.52402 17.71261 -0.02696
C 12.3208 17.01238 -0.00114
C 12.20643 15.63985 0.00228
C 13.55472 14.94346 0.00798
C 13.54925 13.48484 0.00422
C 12.24071 12.88871 0.0351
C 12.34099 11.4347 -0.03113
C 13.49642 32.00544 0.00244
C 13.51209 10.60547 0.02098
C 12.20145 32.67094 0.02299
C 10.99334 0.71265 0.01416
C 9.79583 21.36368 -0.01046
C 9.73882 19.85896 -0.00891
C 11.08008 19.2209 0.02819
C 11.01765 17.71726 0.00165
C 9.72973 17.30648 -0.02971
C 9.67706 15.81072 0.02894
C 10.95415 15.00515 -0.01789
C 10.99999 13.5908 0.00444
C 9.80431 12.81299 -0.00925
C 9.82399 11.34381 0.01877
C 11.07265 10.6991 0.01363
C 11.10162 9.16775 -0.02162
C 9.86429 8.54627 0.00415
C 9.84796 7.16369 -0.0014
C 11.13747 6.37433 0.02162
C 11.07707 4.9568 0.0076
C 9.88434 4.26786 0.01241
C 9.86023 2.82566 -0.01454
C 11.01542 2.10545 0.01945
C 9.78031 0.0384 0.03542
C 13.54457 9.19386 0.01848
C 12.33436 8.45499 -0.00619
C 12.35802 7.07305 -0.02162
C 15.99884 14.85 0.01452
C 16.0449 13.4055 0.04892
C 14.73252 12.69939 -0.00111
C 14.75814 11.33708 -0.03557
C 16.01543 10.64119 0.03754
C 16.00179 9.20301 0.01739
C 14.78426 8.43694 0.00755
C 14.82653 7.03006 -0.0054
C 16.09356 6.33043 0.00667
C 16.0393 4.95132 0.00143
C 14.75563 4.19142 -0.017
C 14.72955 2.69892 0.00364
C 16.00787 2.08788 -0.00831
C 15.93315 0.66672 -0.02957
C 14.69859 34.02177 -0.04422
C 17.14517 32.59125 0.00654
C 18.4846 31.86055 -0.00703
C 18.42744 30.39755 -0.04076
C 17.15719 29.71021 -0.00652
C 14.78452 15.50544 -0.01581
C 14.75486 16.91331 0.02691
C 15.90826 17.71583 -0.01979
C 16.02932 19.13851 0.02188
C 13.62663 6.39243 0.00889
C 13.58361 4.91105 -0.00481
C 12.37025 4.232 0.00979
C 12.31115 2.78997 0.01443
C 13.50448 2.054 0.03505
C 13.47266 0.62881 -0.02815
C 12.22126 34.07909 -0.04147
C 14.71805 32.60712 -0.05302
C 15.93651 31.85728 0.00213
C 11.01328 22.06973 -0.02689
C 15.98571 30.44491 -0.00066
C 14.66294 28.38719 0.00028
C 15.92055 27.60905 -0.02213
C 15.88578 26.13296 0.03698
C 14.63926 25.55589 -0.00109
C 14.71833 24.14994 -0.00491
C 15.90481 23.31119 0.03338
C 15.97217 21.95454 -0.0258
C 14.69234 21.30032 -0.0331
C 14.78234 19.84428 -0.00316
C 14.66809 29.80298 -0.00289
C 17.18751 28.28815 0.0058
C 11.03717 23.47169 -0.01536
C 9.80714 25.59967 -0.00428
C 2.43852 4.3793 -0.02929
C 2.3893 2.9242 -0.00966
C 3.64722 2.18937 -0.03337
C 3.63769 0.81359 0.01227
C 2.39068 0.13026 0.00873
C 4.79921 32.71774 -0.00049
C 6.11277 32.015 0.00848
C 6.09224 30.62961 -0.01303
C 4.87713 29.87318 -0.01378
C 4.84033 28.43503 0.02635
C 6.10025 27.71103 0.0127
C 6.10473 26.31795 0.01396
C 4.88579 25.54352 0.01849
C 4.78231 24.17303 -0.01142
C 6.07591 23.48857 -0.00562
C 6.15683 21.96227 -0.00494
C 4.82158 21.34527 0.00054
C 6.19795 13.61348 0.03007
C 4.98318 12.84934 -0.00095
C 3.67829 4.98081 0.03368
C 4.8925 11.47597 0.01572
C 3.76114 6.45399 -0.00077
C 2.47876 8.55869 0.0276
C 3.57121 30.58309 0.01226
C 2.43327 29.85612 -0.00279
C 2.34551 28.48179 0.01996
C 3.55318 27.71004 -0.03996
C 3.55304 26.31844 0.01465
C 2.35958 25.66132 -0.00074
C 2.37109 24.21967 -0.00518
C 3.53089 23.52734 0.0086
C 3.70854 22.07396 -0.00643
C 2.4015 21.35047 0.017
C 2.49618 19.92895 -0.03113
C 2.21203 17.12378 -0.02566
C 2.53704 15.75549 -0.00094
C 3.81005 14.93853 0.02322
C 3.71133 13.5551 -0.00725
C 2.45612 12.90702 -0.05697
C 2.51172 11.39674 0.01087
C 3.69674 10.71621 -0.01343
C 3.72249 9.31105 0.00988
C 2.4799 7.14475 0.01305
C 6.16757 10.76162 -0.04848
C 6.2411 9.25012 -0.00892
C 4.96635 8.58361 -0.01362
C 7.4112 11.45488 -0.00334
C 8.61378 10.65117 0.02339
C 8.66836 9.31284 0.01641
C 7.47932 8.5853 -0.00719
C 7.40799 7.09576 0.01364
C 8.6319 6.38422 -0.01062
C 8.68424 5.02305 -0.00033
C 7.3926 4.35016 0.03589
C 7.33403 2.85892 -0.02759
C 8.59213 2.19125 0.0402
C 8.56271 0.83028 0.00572
C 7.32276 0.01933 0.03592
C 9.78152 32.63661 0.00406
C 11.01502 31.99658 0.00943
C 11.02681 30.5364 0.02841
C 9.79941 29.87386 -0.01111
C 9.81093 28.4582 -0.01275
C 10.96779 27.68956 0.00985
C 10.94584 26.29567 -0.02245
C 7.389 12.88375 -0.01634
C 8.62792 13.57854 0.00057
C 8.52482 14.99924 0.00093
C 8.68804 19.01319 0.01291
C 5.00825 7.16132 -0.0008
C 6.21514 6.41207 0.0288
C 6.14973 5.00114 0.00393
C 4.87612 4.2901 0.00895
C 4.93252 2.85835 0.00685
C 6.12865 2.19835 0.02888
C 6.08153 0.72801 -0.00482
C 4.87018 0.07613 -0.01384
C 7.26257 32.72 0.03693
C 9.80915 24.23872 0.03101
C 8.50621 31.99654 0.01745
C 7.32027 29.85788 -0.01004
C 7.33229 28.43325 -0.02896
C 8.58535 27.79085 -0.00131
C 8.56373 26.34801 -0.01118
C 7.29697 25.6257 -0.014
C 7.23234 24.21998 0.02147
C 8.55851 23.53764 0.00373
C 8.59558 22.04232 -0.00191
C 7.40197 21.29469 0.00438
C 8.49838 30.53362 0.00488
C 3.59202 32.00459 0.03828
C 18.444 27.54354 -0.00865
C 17.13832 25.45221 -0.00311
C 30.70347 10.65451 0.00716
C 30.72527 9.23557 0.00307
C 29.46941 8.53714 0.00346
C 29.49836 7.09676 0.01713
C 30.71965 6.34379 -0.01694
C 30.71331 4.93322 0.01428
C 29.50351 4.28938 -0.02142
C 29.49815 2.86038 0.0544
C 30.72822 2.16662 0.00026
C 30.71904 0.67582 0.00682
C 29.48419 34.04355 -0.01779
C 31.91494 32.71348 0.03794
C 33.08975 31.92348 0.01927
C 33.14901 30.54604 0.01574
C 31.9126 29.72274 -0.02383
C 32.96426 28.00147 -0.01429
C 33.09784 19.16675 -0.0136
C 32.99832 17.83011 0.00594
C 31.85604 16.93601 -0.02474
C 29.4392 11.37886 0.02108
C 31.99685 15.59628 0.00369
C 29.49304 12.83178 0.0103
C 30.76452 14.78209 0.01908
C 28.44565 15.0653 0.00261
C 28.31405 13.58966 0.03265
C 27.04847 12.93057 -0.02049
C 27.00179 11.48269 -0.01854
C 28.24857 10.75289 -0.01415
C 28.19856 9.22137 -0.03039
C 26.98777 8.54281 0.01836
C 27.02283 7.16542 0.03531
C 28.22221 6.47216 -0.00669
C 28.31679 4.99615 0.0101
C 27.07 4.28803 0.01705
C 26.98568 2.81973 -0.0405
C 28.29332 2.12605 -0.01303
C 28.27 0.73083 -0.01461
C 27.03785 0.01674 -0.02155
C 29.50765 32.64333 -0.00944
C 30.75408 31.91602 -0.03735
C 30.81384 30.3755 -0.00971
C 29.74848 15.71327 0.01518
C 30.72248 13.39371 0.07705
C 33.25271 14.90859 0.00455
C 33.24599 13.49196 -0.00644
C 32.0903 12.77222 -0.01839
C 34.15327 20.00248 0.01951
C 1.28352 19.21261 -0.01678
C 1.08571 17.74801 0.01223
C 34.2783 17.02948 0.00648
C 0.00261 15.67155 0.02114
C 1.24367 14.987 -0.02957
C 1.16938 13.52134 0.00343
C 34.43089 12.79564 -0.02656
C 0.04163 11.36731 -0.02442
C 1.29732 10.63495 -0.00027
C 1.17625 9.24589 -0.00583
C 34.37933 8.57057 -0.02302
C 34.40895 7.12375 -0.02849
C 1.17681 6.40487 0.02931
C 1.19602 4.98861 0.00628
C 34.37936 4.34021 -0.0345
C 34.386 2.89205 -0.00931
C 1.11392 2.1856 -0.00939
C 1.17484 0.80023 -0.00468
C 0.06087 21.39228 -0.02213
C 1.26069 22.059 0.02712
C 1.15534 23.44165 0.00723
C 0.04724 24.25904 0.03076
C 32.00396 11.37334 0.00137
C 33.22407 10.64761 0.00199
C 33.14844 9.21268 0.04381
C 31.95047 8.55564 0.02806
C 31.98566 7.1056 0.01504
C 33.19469 6.38725 -0.00069
C 33.15597 4.96922 0.04926
C 31.89413 4.32234 -0.03838
C 31.88533 2.94921 0.00349
C 27.11808 15.57493 0.02326
C 33.12477 2.16034 -0.00323
C 31.87407 0.0073 0.0001
C 34.33823 32.66173 -0.02927
C 1.16473 31.98851 -0.01404
C 1.09427 30.63445 0.01027
C 34.361 29.92236 0.01831
C 34.23295 28.47292 -0.01037
C 1.14595 27.87529 -0.00439
C 1.12905 26.37935 -0.00598
C 0.05372 25.49184 -0.05239
C 33.11785 0.72341 -0.00841
C 18.40214 26.09469 0.00675
C 27.9658 30.63557 0.00924
C 27.01213 32.70178 0.01324
C 17.17328 33.99724 0.02239
C 19.72137 32.52939 0.01153
C 20.97793 31.837 0.02734
C 20.83971 30.44511 -0.0055
C 19.64513 29.65147 0.01515
C 19.62104 28.19357 -0.00225
C 19.38867 25.11006 0.00071
C 19.55756 20.09434 -0.01107
C 20.77471 17.72208 -0.01586
C 19.56152 17.03111 -0.01971
C 19.58679 15.51324 -0.02118
C 20.86419 14.80286 0.00733
C 20.85261 13.44052 -0.00178
C 19.64129 12.71638 0.00768
C 19.66413 11.2795 -0.0276
C 20.91711 10.58689 0.03005
C 20.86358 9.18734 -0.04078
C 19.68003 8.42865 0.02117
C 19.75103 7.01289 0.02737
C 18.42823 0.67598 -0.03213
C 20.93552 6.30814 -0.00498
C 18.44787 2.01793 -0.02845
C 17.22234 4.17846 0.0296
C 17.02101 24.00481 0.00742
C 18.38561 23.41673 -0.01594
C 18.41521 22.08004 0.0106
C 17.13607 21.29821 -0.01154
C 17.17663 19.83954 -0.01721
C 18.50336 19.19641 -0.02422
C 18.3487 17.72962 0.01277
C 17.2266 16.94799 0.00096
C 17.19321 15.53222 -0.01527
C 18.34453 14.85418 0.01087
C 18.38358 13.44909 0.00199
C 17.29019 12.65512 0.01511
C 17.28369 11.33194 -0.00478
C 18.47081 10.62837 -0.01662
C 18.49382 9.19399 -0.01185
C 17.24271 8.44614 0.01126
C 17.2779 7.04397 0.01852
C 18.48061 6.35988 -0.00381
C 18.43727 4.931 0.03046
C 17.27122 2.76452 0.03374
C 20.97013 4.89426 0.00135
C 19.65885 4.17028 0.03102
C 19.68969 2.78202 0.02555
C 24.61223 32.7514 0.00826
C 25.83718 31.87818 -0.00294
C 26.23886 30.52335 0.00152
C 24.53186 15.71002 0.01257
C 25.90122 15.0513 0.02316
C 25.79316 13.56619 0.04185
C 24.60641 12.79207 0.00194
C 24.55196 11.36516 -0.00621
C 25.75534 10.71736 0.02611
C 25.79575 9.32458 0.02198
C 24.56382 8.57717 0.01094
C 24.56292 7.09434 0.00235
C 25.84161 6.42828 0.01495
C 25.82072 4.98916 0.01259
C 24.58441 4.26439 0.01799
C 24.50241 2.87866 0.01699
C 25.77483 2.17414 -0.00416
C 25.86267 0.72564 0.01177
C 24.49324 0.044 0.04266
C 22.12466 0.02556 0.00487
C 23.30451 0.67908 -0.00942
C 23.33814 2.10352 -0.02815
C 22.12139 2.81018 0.00622
C 20.92018 2.11831 0.01423
C 20.89985 0.73586 -0.00285
C 19.65819 34.02621 -0.009
C 22.08741 32.66189 -0.01199
C 23.3735 31.98317 -0.00229
C 23.23471 30.54419 -0.00938
C 22.20537 29.7969 -0.0264
C 21.8714 16.99204 -0.01154
C 22.07049 15.61501 0.00684
C 28.26296 31.9182 0.0014
C 23.36287 14.84576 -0.01052
C 22.13137 12.75349 0.00367
C 22.1022 11.332 0.04306
C 23.36303 10.61155 0.00996
C 23.37034 9.21537 0.00195
C 22.16692 8.49228 -0.00802
C 22.1874 7.12523 -0.00218
C 23.35078 6.38557 -0.01654
C 23.40648 4.97082 -0.00037
C 22.18448 4.22234 -0.0032
C 23.32699 13.43635 -0.01679
C 2.39512 32.75549 0.0174
