366
Graphene
C 34.37445 34.04392 0.01295
C 12.3058 19.88334 0.00374
C 13.62827 19.10952 0.00052
C 13.38875 17.62387 -0.03682
C 12.16999 16.95011 0.01965
C 12.22965 15.6044 0.02058
C 13.49572 15.0291 -0.01957
C 13.53316 13.56956 -0.0108
C 12.33937 12.86387 -0.00368
C 12.31631 21.28405 -0.02813
C 12.30409 11.42318 -0.02696
C 13.62306 9.34019 0.00228
C 12.30202 8.6295 0.00798
C 12.31661 7.10105 0.00422
C 13.55009 6.34945 0.0351
C 13.52405 4.98642 -0.03113
C 12.24145 4.30198 0.02098
C 12.24759 2.86131 0.01848
C 13.42527 2.14097 -0.00619
C 13.61685 10.70487 -0.00114
C 13.51137 22.03119 -0.01952
C 13.54406 23.42151 0.05265
C 12.24314 23.96848 -0.01717
C 11.06824 13.52067 -0.02971
C 9.79044 12.76132 0.02894
C 9.87133 11.35283 -0.01789
C 11.10673 10.68865 0.00444
C 11.05682 9.2959 -0.00925
C 9.86724 8.5797 0.01877
C 9.88409 7.16227 0.01363
C 11.05272 6.43092 -0.02162
C 11.05937 5.02238 0.00415
C 9.86048 4.25132 -0.0014
C 9.80105 2.78063 0.02162
C 11.01533 2.14526 0.0076
C 10.99229 0.55758 0.01241
C 9.79012 33.90257 -0.01454
C 12.33124 32.70284 0.01945
C 13.54811 31.94708 0.01416
C 13.52161 30.53734 0.03542
C 13.58994 27.50219 0.02299
C 13.6189 26.36037 0.00244
C 13.41146 0.7198 -0.02162
C 12.25362 34.06668 0.00889
C 14.73392 32.62414 -0.00481
C 15.90703 31.97137 0.00979
C 14.72515 34.06238 -0.00111
C 17.16187 32.71189 -0.03557
C 18.44363 32.00428 0.03754
C 18.35871 30.54149 0.01739
C 17.18419 29.80995 0.00755
C 17.10533 28.42968 -0.0054
C 18.38578 27.63205 0.00667
C 18.46185 26.18453 0.00143
C 17.19553 25.49075 -0.017
C 17.19067 24.01604 0.00364
C 18.44836 23.46121 -0.00831
C 18.29611 21.90702 -0.02957
C 17.19052 21.40974 -0.04422
C 18.43786 9.06752 0.00654
C 17.25681 8.33754 -0.00703
C 17.30393 6.99073 -0.04076
C 18.51199 6.30995 -0.00652
C 18.38864 4.92748 0.0058
C 17.1587 4.22856 -0.00865
C 15.94187 0.71887 0.04892
C 10.94785 14.87467 0.00165
C 15.8891 2.12779 0.01452
C 14.7275 4.23537 0.02691
C 15.94493 30.58536 0.01443
C 14.70574 29.90677 0.03505
C 14.71506 28.44532 -0.02815
C 15.87601 27.66435 -0.04147
C 15.96016 26.22523 -0.05302
C 14.73399 25.43951 0.00213
C 14.79795 24.0237 -0.00066
C 15.94554 23.38164 -0.00289
C 15.91424 21.9799 0.00028
C 14.72589 21.30318 -0.02213
C 14.766 19.91597 0.03698
C 14.68878 12.77218 -0.00109
C 14.946 11.45166 -0.00491
C 16.00518 10.55684 0.03338
C 15.98258 9.18234 -0.0258
C 14.74778 8.51096 -0.0331
C 14.77854 6.99998 -0.00316
C 16.10674 6.32784 0.02188
C 15.97981 4.90842 -0.01979
C 14.67552 2.83547 -0.01581
C 9.75658 15.61182 0.02819
C 9.75241 17.02717 -0.00891
C 10.98536 17.73588 -0.01046
C 3.684 6.51396 -0.00049
C 3.70794 5.04227 0.00848
C 2.47316 4.35556 -0.01303
C 2.42946 2.92938 -0.01378
C 3.75269 2.19124 0.02635
C 3.69231 0.79101 0.0127
C 2.44926 0.06454 0.01396
C 4.81349 32.72382 0.01849
C 5.90619 31.69162 -0.01142
C 5.24 30.20956 -0.00562
C 4.76534 24.25599 -0.00494
C 5.80306 23.61683 0.00054
C 6.09343 22.06946 0.03007
C 4.85186 21.47647 -0.00095
C 4.93896 19.99383 0.01572
C 6.12808 19.23885 -0.04848
C 6.1188 17.7939 -0.00892
C 4.89203 17.09659 -0.01362
C 4.84362 15.6635 -0.0008
C 2.45097 7.19667 0.00873
C 6.09053 14.90467 0.0288
C 2.42243 8.58764 0.01227
C 3.67955 10.71615 -0.00966
C 3.84463 30.52757 -0.00074
C 2.54933 29.91512 -0.00518
C 2.49113 28.46881 0.0086
C 3.60832 27.5605 -0.00643
C 3.64329 26.33831 0.017
C 2.42461 25.58613 -0.03113
C 2.3168 24.28128 -0.02566
C 3.52528 23.50898 -0.00094
C 3.66134 22.07926 0.02322
C 2.45732 21.35436 -0.00725
C 2.52023 19.96641 -0.05697
C 3.70637 19.2833 0.01087
C 3.70694 17.8665 -0.01343
C 2.40215 17.02104 0.00988
C 2.47969 15.61931 0.0276
C 3.69578 14.9389 0.01305
C 3.61538 13.50984 -0.00077
C 2.39806 12.91428 0.03368
C 2.4515 11.39639 -0.02929
C 3.69144 9.29825 -0.03337
C 17.12429 2.89414 0.00675
C 6.05121 13.51234 0.00393
C 4.89652 11.42786 0.00685
C 7.3295 11.36983 0.01364
C 8.57481 10.69334 -0.01062
C 8.68518 9.33975 -0.00033
C 7.40094 8.61657 0.03589
C 7.40076 7.22126 -0.02759
C 8.66902 6.51594 0.0402
C 8.68764 5.01015 0.00572
C 7.46494 4.34722 0.03592
C 7.39123 2.93531 0.00406
C 8.53938 2.1969 0.00943
C 8.52621 0.60895 0.02841
C 7.33001 34.03431 -0.01111
C 9.8381 32.38978 -0.01275
C 11.15677 31.80944 0.00985
C 11.20413 23.41043 -0.02245
C 10.9902 21.95902 -0.00428
C 9.74177 21.2832 0.03101
C 9.82358 19.81031 -0.01536
C 10.99697 19.20553 -0.02689
C 7.30605 12.83993 -0.00719
C 4.83532 12.80306 0.00895
C 8.57179 13.48786 0.01641
C 7.29437 15.66317 -0.00334
C 6.14246 10.74045 0.02888
C 6.14773 9.32891 -0.00482
C 4.89816 8.6562 -0.01384
C 4.99028 7.17181 0.03693
C 6.18231 6.4979 0.01745
C 6.16296 5.05384 0.00488
C 4.9709 4.35077 -0.01004
C 4.92836 2.93925 -0.02896
C 6.16712 2.16961 -0.00131
C 6.19437 0.70181 -0.01118
C 4.87375 0.02135 -0.014
C 7.21027 32.47724 0.02147
C 8.5368 31.92425 0.00373
C 8.64228 22.07853 -0.00191
C 7.34902 21.38303 0.00438
C 7.35137 19.95634 0.01291
C 8.57449 19.193 0.00093
C 8.57048 17.80012 0.00057
C 7.32644 17.13453 -0.01634
C 8.52451 14.95111 0.02339
C 18.39968 2.17754 -0.00311
C 18.36697 0.75345 0.00742
C 17.17425 0.0077 -0.01594
C 30.70536 0.72448 0.00307
C 29.40501 0.04159 0.00346
C 31.91763 32.60142 0.01713
C 33.15636 31.88357 -0.01694
C 33.0587 30.44202 0.01428
C 31.74716 29.59747 -0.02142
C 31.83766 28.10655 0.0544
C 33.20618 27.71275 0.00026
C 33.22796 26.22211 0.00682
C 31.94408 25.60621 -0.01779
C 31.94168 24.09119 0.03794
C 33.21162 23.44822 0.01927
C 33.25688 22.02296 0.01574
C 32.02421 21.29966 -0.02383
C 32.00858 19.92688 -0.01429
C 33.2143 19.184 -0.0136
C 33.17383 17.7977 0.00594
C 31.96335 17.02879 -0.02474
C 31.98205 15.64473 0.00369
C 30.63827 2.12604 0.00716
C 33.16355 14.99405 0.00455
C 29.43671 2.85583 0.02108
C 30.74017 4.91262 0.07705
C 29.6151 25.7577 0.03265
C 29.56045 24.27515 -0.02049
C 30.73274 23.43772 -0.01854
C 30.79 21.98728 -0.01415
C 29.47767 21.25307 -0.03039
C 29.49954 19.7584 0.01836
C 30.77175 19.18841 0.03531
C 30.85313 17.8223 -0.00669
C 29.6368 17.08203 0.0101
C 29.62308 15.68617 0.01705
C 30.80926 14.91158 -0.0405
C 30.76923 13.49047 -0.01303
C 29.53515 12.77531 -0.01461
C 29.39888 11.40855 -0.02155
C 30.7341 10.62833 -0.00944
C 30.73382 9.17665 -0.03735
C 29.41971 8.5879 -0.00971
C 29.36374 7.06294 0.01518
C 30.67879 6.39628 0.01908
C 29.45705 4.32082 0.0103
C 30.86654 26.45623 0.00261
C 33.28308 13.50549 -0.00644
C 31.90509 11.36275 0.00137
C 34.42921 19.93093 0.01951
C 1.18508 19.22011 -0.01678
C 1.23415 17.80394 0.01223
C 34.42217 17.07874 0.00648
C 34.37177 15.65358 0.02114
C 1.18224 14.9404 -0.02957
C 1.13128 13.53059 0.00343
C 34.3844 12.7725 -0.02656
C 34.35476 11.36824 -0.02442
C 1.21932 10.68364 -0.00027
C 1.20059 9.29023 -0.00583
C 34.41017 8.5295 -0.02302
C 34.3999 7.11488 -0.02849
C 1.20473 6.41494 0.02931
C 1.21783 5.0526 0.00628
C 34.40071 4.35213 -0.0345
C 0.00692 2.90083 -0.00931
C 1.19344 2.17931 -0.00939
C 1.17804 0.68185 -0.00468
C 0.0101 21.40642 -0.02213
C 32.0104 12.70965 -0.01839
C 1.22654 22.01841 0.02712
C 34.39481 24.20076 0.03076
C 33.15611 10.62991 0.00199
C 33.18332 9.17875 0.04381
C 31.98309 8.53059 0.02806
C 31.96697 7.0898 0.01504
C 33.14016 6.4174 -0.00069
C 33.16546 4.99727 0.04926
C 31.97025 4.29677 -0.03838
C 31.93641 2.82727 0.00349
C 33.24188 2.20844 -0.00323
C 33.19738 0.72257 -0.00841
C 31.90068 34.03927 0.0001
C 34.40957 32.61937 -0.02927
C 1.24398 31.95805 -0.01404
C 1.21959 30.50224 0.01027
C 34.32894 29.83665 0.01831
C 34.39157 28.45759 -0.01037
C 1.2256 27.72641 -0.00439
C 1.24918 26.32536 -0.00598
C 34.41523 25.63212 -0.05239
C 1.15359 23.47644 0.00723
C 3.60706 32.02546 0.01465
C 29.23455 29.62193 0.02326
C 30.61312 31.88213 0.0014
C 22.08784 29.73206 0.02734
C 22.05442 28.28966 -0.0055
C 23.29049 27.58007 0.01515
C 23.282 26.22016 -0.00225
C 22.06137 25.47923 0.00071
C 22.04537 24.0862 -0.01107
C 23.31325 23.42108 -0.01586
C 23.62881 21.92542 -0.01971
C 23.46767 8.16451 -0.02118
C 22.21342 8.97142 0.00733
C 21.90572 2.98648 -0.00178
C 23.23402 2.2506 0.00768
C 23.23405 0.78113 -0.0276
C 22.05962 34.02412 0.03005
C 24.53334 32.61982 -0.04078
C 25.76378 31.92562 0.02117
C 25.71557 30.53156 0.02737
C 24.48221 29.75119 -0.00498
C 24.53284 28.27122 0.00135
C 23.2776 30.48358 0.01153
C 25.7469 27.64356 0.03102
C 23.26437 31.8689 0.02239
C 19.65293 33.98461 -0.02845
C 19.69593 32.66036 0.0106
C 20.82987 31.88643 -0.01154
C 20.79634 30.51699 -0.01721
C 19.61786 29.83568 -0.02422
C 19.55812 28.44015 0.01277
C 20.87154 27.68442 0.00096
C 20.90806 26.264 -0.01527
C 19.64944 25.55214 0.01087
C 19.64608 24.10447 0.00199
C 20.87462 23.42642 0.01511
C 20.90227 8.88014 -0.00478
C 19.64261 8.32101 -0.01662
C 19.77274 6.93698 -0.01185
C 20.8903 6.07919 0.01126
C 21.03764 4.7471 0.01852
C 19.61445 4.1507 -0.00381
C 19.58951 2.7769 0.03046
C 20.87012 2.13974 0.0296
C 20.87002 0.55429 0.03374
C 22.10633 32.56697 -0.03213
C 30.4985 30.28302 0.00924
C 25.81507 26.22289 0.02555
C 24.63661 24.12388 -0.00285
C 27.12002 19.83869 -0.00294
C 28.21195 18.97763 0.00152
C 28.37285 17.62511 0.01257
C 28.34186 15.1337 0.02316
C 28.3323 13.55987 0.04185
C 27.27708 12.74154 0.00194
C 26.95566 11.46081 -0.00621
C 28.21387 10.76473 0.02611
C 28.19643 9.22355 0.02198
C 26.96569 8.51795 0.01094
C 26.95207 7.10216 0.00235
C 28.16181 6.4187 0.01495
C 28.11466 4.95198 0.01259
C 26.91523 4.39663 0.01799
C 26.96481 2.98688 0.01699
C 28.16624 2.23413 -0.00416
C 28.20576 0.83023 0.01177
C 27.00929 0.04354 0.04266
C 29.46167 32.69123 0.01324
C 27.1932 21.30644 0.00826
C 24.59657 25.47669 0.01423
C 28.3745 22.097 0.00487
C 27.05556 24.2541 -0.02815
C 25.9105 23.52961 -0.009
C 25.94457 22.01658 -0.01199
C 24.66408 21.46247 -0.00229
C 25.76805 10.67296 -0.00938
C 25.84467 9.30806 -0.0264
C 24.64763 8.66892 -0.01154
C 25.62227 6.39467 0.00684
C 24.46787 2.78701 -0.01052
C 25.73876 2.18884 -0.01679
C 25.82553 0.74949 0.00367
C 24.54197 0.04911 0.04306
C 27.01247 32.62209 0.00996
C 28.25731 31.94668 0.00195
C 28.11929 30.52159 -0.00802
C 26.83473 29.79177 -0.00218
C 27.00657 28.41511 -0.01654
C 28.318 27.92641 -0.00037
C 28.32431 26.47529 -0.0032
C 27.09042 25.68596 0.00622
C 28.34385 23.46982 -0.00942
C 2.45904 32.703 -0.03996
