363
Graphene
C 34.37005 0.00826 0.01295
C 13.50062 21.84825 -0.03682
C 12.26826 21.29359 0.01965
C 12.17979 20.02382 0.02058
C 12.32114 4.25829 -0.01957
C 12.36963 2.85798 -0.0108
C 13.52734 2.10839 -0.00368
C 13.5052 0.71389 -0.02696
C 12.2321 0.00992 -0.00114
C 13.48841 23.36341 0.00052
C 14.8852 32.60796 0.00228
C 16.08925 30.43632 0.00422
C 14.88254 29.77258 0.0351
C 14.81136 28.3549 -0.03113
C 16.04598 27.72836 0.02098
C 15.9668 26.19685 0.01848
C 14.71642 25.45905 -0.00619
C 14.67744 24.04034 -0.02162
C 15.96456 23.36371 0.00889
C 16.06436 31.93039 0.00798
C 12.29829 24.16217 0.00374
C 12.21698 25.53719 -0.02813
C 13.51074 26.21378 -0.01952
C 10.96497 26.31313 -0.01789
C 9.76974 25.63874 0.00444
C 9.80129 24.22858 -0.00925
C 10.98507 23.47747 0.01877
C 10.98509 22.06606 0.01363
C 9.86134 21.27507 -0.02162
C 9.71581 19.85324 0.00415
C 11.14435 4.83408 -0.0014
C 9.85006 4.36961 0.02162
C 9.81007 2.89739 0.0076
C 11.08653 2.27456 0.01241
C 11.01635 0.76169 -0.01454
C 9.82673 0.00804 0.01945
C 12.32168 32.58937 0.01416
C 13.60488 31.87715 0.03542
C 13.57905 30.48428 0.02299
C 12.39882 29.80009 0.00244
C 12.3151 28.29656 -0.01717
C 13.5468 27.62397 0.05265
C 15.93707 21.93847 -0.00481
C 14.70226 21.14911 0.00979
C 15.02398 4.26906 0.01443
C 14.78839 2.94242 0.03505
C 20.84354 30.62879 0.03754
C 19.69034 29.86584 0.01739
C 19.64846 28.4222 0.00755
C 20.82713 27.70323 -0.0054
C 20.90067 26.23624 0.00667
C 19.64279 25.50323 0.00143
C 19.58672 24.15536 -0.017
C 20.86329 23.43149 0.00364
C 20.84717 21.98354 -0.00831
C 19.60051 21.33732 -0.02957
C 19.62624 19.80228 -0.04422
C 20.8164 19.13246 0.00654
C 20.92212 17.7948 -0.00703
C 19.90112 4.18939 -0.04076
C 19.69942 2.85091 -0.00652
C 20.99664 1.99306 0.0058
C 20.94471 0.61829 -0.00865
C 19.56992 0.03394 0.00675
C 22.17813 32.59978 -0.00311
C 20.90375 31.98148 -0.03557
C 11.0144 27.75661 0.02894
C 19.67858 32.69534 -0.00111
C 18.41177 0.71239 0.01452
C 16.05498 2.22989 -0.02815
C 15.93663 0.7337 -0.04147
C 14.73293 34.03753 -0.05302
C 17.21448 32.7084 0.00213
C 18.43235 31.99861 -0.00066
C 18.46349 30.6178 -0.00289
C 17.33016 29.78967 0.00028
C 17.3017 28.39548 -0.02213
C 18.45183 27.69517 0.03698
C 18.43185 26.27572 -0.00109
C 17.16388 25.57263 -0.00491
C 17.11215 24.10793 0.03338
C 18.38652 23.4206 -0.0258
C 18.35726 21.98331 -0.0331
C 17.11361 21.25995 -0.00316
C 17.23984 20.00097 0.02188
C 18.44592 19.31358 -0.01979
C 17.25669 2.84377 0.02691
C 18.40347 2.20279 -0.01581
C 17.15507 0.05044 0.04892
C 23.39666 31.90824 0.00742
C 9.75861 28.44747 -0.02971
C 11.08904 30.46795 0.02819
C 3.70875 6.405 -0.01378
C 3.69942 4.99371 0.02635
C 2.44831 4.31032 0.0127
C 2.52801 2.85547 0.01396
C 3.67497 2.18112 0.01849
C 3.60813 0.72315 -0.01142
C 2.41423 34.03518 -0.00562
C 4.85835 32.7676 -0.00494
C 2.40385 7.12824 -0.01303
C 6.08359 32.0863 0.00054
C 4.83647 29.8721 -0.00095
C 4.91467 28.433 0.01572
C 6.15207 27.7888 -0.04848
C 6.15013 26.31109 -0.00892
C 4.97805 25.60236 -0.01362
C 4.9274 24.13019 -0.0008
C 6.12005 23.40666 0.0288
C 6.12223 22.01301 0.00393
C 6.03374 30.62798 0.03007
C 2.42873 8.50981 0.00848
C 3.68529 9.31795 -0.00049
C 3.67561 10.71938 0.00873
C 3.62844 30.54181 -0.00643
C 2.40528 29.83671 0.017
C 2.46678 28.36635 -0.03113
C 3.73163 27.62273 -0.02566
C 3.69945 26.22732 -0.00094
C 2.44176 25.63133 0.02322
C 2.41536 24.25696 -0.00725
C 3.66702 23.44685 -0.05697
C 3.72694 22.07135 0.01087
C 2.48575 21.39864 -0.01343
C 2.54852 19.88632 0.00988
C 3.71613 19.12945 0.0276
C 3.75107 17.7271 0.01305
C 2.43604 16.9776 -0.00077
C 2.45234 15.62305 0.03368
C 3.68958 14.98952 -0.02929
C 3.68382 13.61053 -0.00966
C 2.47058 12.85308 -0.03337
C 2.45028 11.43126 0.01227
C 4.92359 21.35111 0.00895
C 4.9452 19.85329 0.00685
C 6.22056 19.25681 0.02888
C 6.31733 17.79774 -0.00482
C 8.44548 26.32436 -0.00033
C 7.32661 25.58184 0.03589
C 7.4078 24.12115 -0.02759
C 8.65166 23.43883 0.0402
C 8.68277 22.05776 0.00572
C 7.4224 21.3673 0.03592
C 7.40266 19.9582 0.00406
C 8.6039 19.25241 0.00943
C 7.47128 17.18176 0.02841
C 7.44922 7.00832 -0.01111
C 8.60201 6.34497 -0.01275
C 8.63138 5.03381 0.00985
C 7.32007 4.27048 -0.02245
C 7.35838 2.80194 -0.00428
C 8.6019 2.18078 0.03101
C 8.60889 0.6896 -0.01536
C 7.33849 0.03315 -0.02689
C 9.85142 32.54877 -0.01046
C 11.05928 31.89314 -0.00891
C 8.49723 27.70386 -0.01062
C 9.79134 29.81444 0.00165
C 7.29185 28.50958 0.01364
C 8.52238 30.57004 0.01641
C 5.01024 17.13037 -0.01384
C 4.94283 15.74045 0.03693
C 6.08809 14.98788 0.01745
C 6.01438 13.6611 0.00488
C 4.93337 12.84874 -0.01004
C 4.9736 11.40949 -0.02896
C 6.04414 10.69698 -0.00131
C 6.12367 9.35186 -0.01118
C 5.02182 8.60511 -0.014
C 4.92109 7.20262 0.02147
C 6.14278 6.54059 0.00373
C 6.15851 5.06411 -0.00191
C 4.90892 4.23953 0.00438
C 4.91041 2.85843 0.01291
C 6.11244 2.15683 0.00093
C 6.1053 0.73422 0.00057
C 4.86402 0.06958 -0.01634
C 7.30537 32.71644 -0.00334
C 8.59188 31.95928 0.02339
C 7.25289 29.91533 -0.00719
C 3.64584 32.02665 0.0086
C 23.29389 30.49392 -0.01594
C 22.05387 28.37175 -0.01154
C 29.48246 34.07561 0.00346
C 32.01285 32.69546 0.01713
C 33.21067 31.96987 -0.01694
C 33.1399 30.48762 0.01428
C 31.90383 29.88054 -0.02142
C 31.89188 28.46593 0.0544
C 33.17606 27.663 0.00026
C 33.12108 26.2738 0.00682
C 30.69676 0.72327 0.00307
C 31.86379 25.56987 -0.01779
C 33.133 23.42301 0.01927
C 33.22923 22.06156 0.01574
C 31.99448 21.21531 -0.02383
C 31.99461 19.86465 -0.01429
C 33.26102 19.18728 -0.0136
C 33.29135 17.73808 0.00594
C 31.98369 17.10715 -0.02474
C 31.98127 15.65868 0.00369
C 31.90942 24.10159 0.03794
C 30.66905 2.12553 0.00716
C 29.48289 2.89718 0.02108
C 29.48462 4.25306 0.0103
C 29.49543 24.15142 -0.02049
C 30.74409 23.37148 -0.01854
C 30.70877 21.95897 -0.01415
C 29.47387 21.3348 -0.03039
C 29.53092 19.94543 0.01836
C 30.73577 19.18175 0.03531
C 30.73895 17.75974 -0.00669
C 29.49754 17.05883 0.0101
C 29.52342 15.5814 0.01705
C 30.72517 14.90539 -0.0405
C 30.77678 13.52716 -0.01303
C 29.52967 12.78385 -0.01461
C 29.5383 11.33481 -0.02155
C 30.74631 10.58153 -0.00944
C 30.72452 9.19395 -0.03735
C 29.53263 8.48916 -0.00971
C 29.5214 7.15095 0.01518
C 30.72816 6.36147 0.01908
C 30.69118 4.90538 0.07705
C 33.19886 14.93503 0.00455
C 33.15073 13.46564 -0.00644
C 31.9751 12.7018 -0.01839
C 31.95129 11.3543 0.00137
C 2e-05 19.94556 0.01951
C 1.27381 19.13737 -0.01678
C 1.24078 17.73872 0.01223
C 0.06225 17.06827 0.00648
C 34.42923 15.54434 0.02114
C 1.15124 14.8238 -0.02957
C 1.18315 13.44698 0.00343
C 34.32201 12.79189 -0.02656
C 34.39743 11.34168 -0.02442
C 1.26146 10.73476 -0.00027
C 1.252 9.27355 -0.00583
C 0.06006 8.60345 -0.02302
C 34.35266 7.13468 -0.02849
C 1.18658 6.42103 0.02931
C 1.24731 5.02893 0.00628
C 0.02755 4.32862 -0.0345
C 0.04569 2.86911 -0.00931
C 1.24451 2.13071 -0.00939
C 1.2266 0.72825 -0.00468
C 0.04732 21.37536 -0.02213
C 29.46919 25.57947 0.03265
C 1.25503 22.04237 0.02712
C 34.37578 24.23223 0.03076
C 33.22481 10.61668 0.00199
C 33.22145 9.20695 0.04381
C 31.90774 8.44753 0.02806
C 31.95149 7.04956 0.01504
C 33.18945 6.36085 -0.00069
C 33.13852 4.96882 0.04926
C 31.89414 4.20229 -0.03838
C 31.92693 2.84922 0.00349
C 33.25677 2.20139 -0.00323
C 33.20556 0.82394 -0.00841
C 31.97551 0.10391 0.0001
C 34.41602 32.67744 -0.02927
C 1.21495 31.94091 -0.01404
C 1.22369 30.48047 0.01027
C 34.37098 29.76173 0.01831
C 34.42257 28.39559 -0.01037
C 1.26433 27.72025 -0.00439
C 1.21214 26.27713 -0.00598
C 34.31606 25.56169 -0.05239
C 1.16159 23.45592 0.00723
C 22.05704 29.84433 0.0106
C 30.70071 26.31888 0.00261
C 29.42094 28.41564 0.00924
C 24.50362 28.32949 0.01515
C 25.74811 27.60586 -0.00225
C 25.81979 26.21371 0.00071
C 24.55529 25.57025 -0.01107
C 24.43239 24.12186 -0.01586
C 25.67303 23.35776 -0.01971
C 25.74221 22.0419 -0.02118
C 24.5266 21.31463 0.00733
C 24.55851 29.75881 -0.0055
C 24.60549 19.84009 -0.00178
C 25.75623 17.66765 -0.0276
C 24.55606 16.95687 0.03005
C 24.45442 15.43422 -0.04078
C 25.81625 14.83532 0.02117
C 25.78566 13.47414 0.02737
C 24.498 12.70948 -0.00498
C 24.75495 11.48215 0.00135
C 25.80611 10.60829 0.03102
C 25.81635 19.13082 0.00768
C 25.72656 30.51338 0.02734
C 25.78578 31.95481 0.01153
C 24.61857 32.58254 0.02239
C 23.28493 27.70426 -0.01721
C 23.35207 26.31567 -0.02422
C 22.13771 25.59992 0.01277
C 22.07173 24.12101 0.00096
C 23.27819 23.38782 -0.01527
C 23.2804 21.97506 0.01087
C 22.02189 21.2793 0.00199
C 22.13594 19.76141 0.01511
C 23.32487 19.11163 -0.00478
C 23.27542 17.64432 -0.01662
C 22.08971 17.0979 -0.01185
C 23.30264 14.67552 0.01126
C 23.55062 6.27743 0.01852
C 23.2644 4.94899 -0.00381
C 22.14091 4.08716 0.03046
C 22.16183 2.71391 0.0296
C 23.37706 2.02537 0.03374
C 23.46252 0.61145 -0.02845
C 22.19525 34.01885 -0.03213
C 25.78132 9.20708 0.02555
C 24.53036 8.4577 0.01423
C 24.62999 7.10825 -0.00285
C 25.96908 6.37017 -0.009
C 28.31611 14.86896 0.00152
C 28.31263 13.4366 0.01257
C 27.03198 12.73152 0.02316
C 27.07613 11.34484 0.04185
C 28.27591 10.63643 0.00194
C 28.27425 9.24168 -0.00621
C 27.01574 8.49644 0.02611
C 27.15732 7.12342 0.02198
C 28.33298 6.43902 0.01094
C 28.2719 5.03053 0.00235
C 27.14098 4.22388 0.01495
C 27.0812 2.8905 0.01259
C 28.31696 2.12509 0.01799
C 28.25808 0.73521 0.01699
C 27.09664 0.02646 -0.00416
C 29.5004 32.68443 0.01177
C 30.75634 32.03556 0.04266
C 30.68975 30.60089 0.01324
C 29.46255 29.87253 0.0014
C 27.05669 15.55232 -0.00294
C 30.68651 27.71107 0.02326
C 27.07942 17.06865 0.00826
C 28.27185 19.22511 -0.00942
C 25.89848 4.92917 -0.01199
C 24.65253 4.19106 -0.00229
C 24.66742 2.80688 -0.00938
C 25.83923 2.1385 -0.0264
C 25.90477 0.79781 -0.01154
C 24.57451 33.98542 0.00684
C 27.03518 32.69924 -0.01052
C 28.20498 31.9447 -0.01679
C 28.15719 30.50408 0.00367
C 26.99001 29.7884 0.04306
C 26.9796 28.39606 0.00996
C 28.20915 27.71847 0.00195
C 28.21772 26.25611 -0.00802
C 26.97468 25.50344 -0.00218
C 27.03237 24.11749 -0.01654
C 28.24127 23.45028 -0.00037
C 28.22697 22.00921 -0.0032
C 27.01369 21.35092 0.00622
C 27.07946 19.89452 -0.02815
C 28.28357 17.82018 0.00487
C 2.40704 32.63417 -0.00518
