352
Graphene
C 0.01867 0.03898 0.01295
C 14.8111 0.00042 -0.00114
C 17.17587 32.71613 0.00228
C 18.44226 32.01774 0.00798
C 18.46404 30.53064 0.00422
C 17.2598 29.86752 0.0351
C 17.22599 28.42588 -0.03113
C 18.37691 27.62645 0.02098
C 18.40819 26.24227 0.01848
C 15.97943 0.50095 -0.02696
C 17.20849 25.50561 -0.00619
C 18.52313 23.44284 0.00889
C 18.47866 21.98064 -0.00481
C 17.26169 21.28444 0.00979
C 17.25719 19.85238 0.01443
C 18.43682 19.24387 0.03505
C 18.4558 17.69578 -0.02815
C 17.1224 17.03208 -0.04147
C 18.35509 2.06428 -0.05302
C 17.31599 24.06917 -0.02162
C 18.37812 0.70935 0.00213
C 16.09265 17.77038 -0.00368
C 14.75882 19.81694 -0.01957
C 13.47284 22.05116 0.02162
C 12.23488 21.38042 0.0076
C 12.34134 19.88238 0.01241
C 13.57347 19.1941 -0.01454
C 13.45668 0.67224 0.01945
C 12.41661 0.06135 0.01416
C 14.77017 32.65263 0.03542
C 15.98926 31.96975 0.02299
C 16.01602 19.18548 -0.0108
C 16.02684 30.60199 0.00244
C 14.70949 28.40855 0.05265
C 15.96746 27.7429 -0.01952
C 16.01503 26.19833 -0.02813
C 14.76628 25.53134 0.00374
C 14.81144 24.15285 0.00052
C 16.07687 23.39584 -0.03682
C 15.97124 21.94065 0.01965
C 14.72098 21.34513 0.02058
C 14.78772 29.79785 -0.01717
C 13.45392 23.42675 -0.0014
C 17.2155 0.00343 -0.00066
C 20.97455 31.92508 0.00028
C 19.62427 2.89244 -0.017
C 20.94951 2.16948 0.00364
C 20.84599 0.8365 -0.00831
C 19.65232 0.04395 -0.02957
C 22.1514 32.6103 -0.04422
C 23.36622 31.91832 0.00654
C 23.38793 30.58726 -0.00703
C 22.13269 29.79707 -0.04076
C 19.6591 4.25956 0.00143
C 22.12163 28.39303 -0.00652
C 23.40641 26.25075 -0.00865
C 22.18882 25.61076 0.00675
C 22.15751 24.11373 -0.00311
C 23.38553 23.41823 0.00742
C 23.35385 22.016 -0.01594
C 22.16389 21.26153 0.0106
C 22.06736 19.85797 -0.01154
C 23.31783 19.15712 -0.01721
C 23.38244 27.63915 0.0058
C 19.72812 32.62965 -0.00289
C 20.83351 5.04372 0.00667
C 20.85829 9.30762 0.00755
C 20.86742 30.53245 -0.02213
C 19.60748 29.86869 0.03698
C 19.6339 28.44143 -0.00109
C 20.88342 27.71034 -0.00491
C 20.96315 26.23416 0.03338
C 19.6851 25.54936 -0.0258
C 19.68894 24.18863 -0.0331
C 20.91677 23.45881 -0.00316
C 21.01165 6.40516 -0.0054
C 20.91552 22.02701 0.02188
C 19.67336 19.82314 0.02691
C 20.85925 19.13555 -0.01581
C 20.91983 17.73895 0.01452
C 19.72661 17.05139 0.04892
C 19.65218 15.66011 -0.00111
C 20.79321 14.88327 -0.03557
C 20.89861 13.49615 0.03754
C 20.926 10.49242 0.01739
C 19.62544 21.30345 -0.01979
C 23.35265 17.7662 -0.02422
C 12.30851 24.12093 0.00415
C 13.48892 26.25682 0.01363
C 2.43476 2.77899 -0.00095
C 3.66786 2.10079 0.01572
C 3.70932 0.67424 -0.04848
C 2.39774 34.059 -0.00892
C 4.9551 32.65494 -0.01362
C 6.19944 31.98861 -0.0008
C 6.12568 30.62014 0.0288
C 4.94049 29.80681 0.00393
C 2.46598 4.27559 0.03007
C 4.89266 28.42737 0.00895
C 6.17037 26.34449 0.02888
C 4.96568 25.48175 -0.00482
C 4.91678 24.15016 -0.01384
C 6.1069 23.45683 0.03693
C 6.09463 22.03099 0.01745
C 4.887 21.32174 0.00488
C 4.91095 19.95253 -0.01004
C 6.16103 19.12868 -0.02896
C 6.16582 27.73584 0.00685
C 6.15791 17.80837 -0.00131
C 3.67253 4.95584 0.00054
C 2.35117 8.46499 -0.00562
C 3.71242 30.55233 0.0276
C 2.42642 29.79963 0.01305
C 2.4118 28.38477 -0.00077
C 3.64549 27.7208 0.03368
C 3.75095 26.22709 -0.02929
C 2.53377 25.55971 -0.00966
C 2.45917 24.13472 -0.03337
C 3.74347 23.40082 0.01227
C 2.45869 7.14908 -0.00494
C 3.61527 21.99804 0.00873
C 2.44174 19.99913 0.00848
C 3.67867 19.20554 -0.01303
C 3.73184 17.72912 -0.01378
C 2.45514 17.06718 0.02635
C 2.51495 15.58865 0.0127
C 3.72079 14.89219 0.01396
C 2.51802 12.68844 0.01849
C 2.35592 11.42893 -0.01142
C 2.40537 21.4174 -0.00049
C 12.24425 25.6131 -0.02162
C 4.97422 17.02858 -0.01118
C 5.0211 2.83831 0.02147
C 9.83814 29.76865 -0.01111
C 9.89607 28.3833 -0.01275
C 11.08962 27.74019 0.00985
C 11.0475 26.32583 -0.02245
C 9.83917 25.56016 -0.00428
C 9.8227 24.11192 0.03101
C 11.04872 23.41469 -0.01536
C 11.09013 22.02028 -0.02689
C 11.06376 30.47527 0.02841
C 9.80607 21.34659 -0.01046
C 11.09523 19.30151 0.02819
C 9.68366 0.05889 0.00165
C 12.33463 32.67117 -0.02971
C 13.59597 31.96878 0.02894
C 13.55463 30.54163 -0.01789
C 12.25164 29.72702 0.00444
C 12.28861 28.36253 -0.00925
C 13.47892 27.6922 0.01877
C 9.77341 19.74946 -0.00891
C 4.78407 15.54986 -0.014
C 11.0594 31.98936 0.00943
C 7.35987 0.07591 0.03592
C 6.08134 2.14548 0.00373
C 6.12789 0.76485 -0.00191
C 4.88591 0.03595 0.00438
C 7.42867 32.71818 0.01291
C 8.58068 31.95817 0.00093
C 8.63507 30.53622 0.00057
C 7.41731 29.87652 -0.01634
C 7.39487 28.42901 -0.00334
C 9.80885 32.73936 0.00406
C 8.67759 27.69757 0.02339
C 7.3865 25.64068 -0.00719
C 7.37448 24.20692 0.01364
C 8.59741 23.49836 -0.01062
C 8.55759 22.12995 -0.00033
C 7.3483 21.36096 0.03589
C 7.39244 19.91148 -0.02759
C 8.50437 19.19576 0.0402
C 8.68321 0.70535 0.00572
C 8.64351 26.28574 0.01641
C 22.12869 17.017 0.01277
C 22.09042 15.66135 0.00096
C 23.30062 14.94412 -0.01527
C 33.21957 31.95245 -0.01694
C 33.11313 30.53073 0.01428
C 31.91687 29.84547 -0.02142
C 31.97352 28.37473 0.0544
C 33.22358 27.67816 0.00026
C 33.13884 26.34578 0.00682
C 31.93929 25.60048 -0.01779
C 32.03614 24.20423 0.03794
C 32.00773 32.59601 0.01713
C 33.20845 23.48086 0.01927
C 31.91418 21.31059 -0.02383
C 31.96613 19.89205 -0.01429
C 33.17478 19.22278 -0.0136
C 33.09648 17.76262 0.00594
C 31.8987 17.01692 -0.02474
C 31.97017 15.56559 0.00369
C 33.2035 14.92247 0.00455
C 33.14459 13.46562 -0.00644
C 33.19129 22.071 0.01574
C 31.97562 12.71032 -0.01839
C 29.52351 34.06268 0.00346
C 30.7741 2.14836 0.00716
C 29.57109 21.30258 -0.03039
C 29.54479 19.93604 0.01836
C 30.73103 19.14851 0.03531
C 30.70847 17.74904 -0.00669
C 29.51747 17.02731 0.0101
C 29.45835 15.66649 0.01705
C 30.77519 14.88729 -0.0405
C 30.75559 13.44828 -0.01303
C 30.79507 0.67583 0.00307
C 29.51512 12.80675 -0.01461
C 30.73547 10.68286 -0.00944
C 30.74695 9.21009 -0.03735
C 29.52068 8.50905 -0.00971
C 29.49665 7.09049 0.01518
C 30.73756 6.43805 0.01908
C 30.78405 5.03796 0.07705
C 29.54603 4.18495 0.0103
C 29.56625 2.76291 0.02108
C 29.52699 11.3927 -0.02155
C 30.77306 22.06838 -0.01415
C 31.98824 11.30924 0.00137
C 33.15421 9.25352 0.04381
C 1.27183 19.12207 -0.01678
C 1.17758 17.68931 0.01223
C 34.34426 17.06898 0.00648
C 34.40396 15.60064 0.02114
C 1.18131 14.96127 -0.02957
C 1.24116 13.49848 0.00343
C 0.01639 12.72668 -0.02656
C 0.05682 11.32747 -0.02442
C 0.00824 19.91734 0.01951
C 1.3049 10.61408 -0.00027
C 34.40419 8.44783 -0.02302
C 0.02526 7.08709 -0.02849
C 1.29636 6.34418 0.02931
C 1.1756 4.92992 0.00628
C 34.42826 4.23447 -0.0345
C 0.0025 2.8319 -0.00931
C 1.21518 2.13847 -0.00939
C 1.25375 0.79081 -0.00468
C 1.1989 9.2425 -0.00583
C 33.24419 10.69668 0.00199
C 34.38378 21.33412 -0.02213
C 1.20603 23.44667 0.00723
C 31.94831 8.54907 0.02806
C 32.04056 7.14092 0.01504
C 33.23742 6.37674 -0.00069
C 33.18678 4.92488 0.04926
C 31.96232 4.31904 -0.03838
C 31.97936 2.85743 0.00349
C 33.23228 2.18936 -0.00323
C 33.16831 0.62787 -0.00841
C 1.17339 22.0077 0.02712
C 31.95814 34.02517 0.0001
C 1.26417 31.91879 -0.01404
C 1.14423 30.49238 0.01027
C 34.35069 29.82797 0.01831
C 34.41949 28.34728 -0.01037
C 1.18926 27.68699 -0.00439
C 1.23622 26.21499 -0.00598
C 34.40422 25.64274 -0.05239
C 0.00715 24.2287 0.03076
C 0.02556 32.67147 -0.02927
C 30.76523 23.44625 -0.01854
C 29.47478 24.11616 -0.02049
C 29.42851 25.5637 0.03265
C 24.61293 24.15679 -0.01586
C 25.88375 23.38629 -0.01971
C 25.81678 21.99975 -0.02118
C 24.5724 21.31954 0.00733
C 24.56044 19.92921 -0.00178
C 25.81722 19.24898 0.00768
C 25.76788 17.78335 -0.0276
C 24.54482 17.04467 0.03005
C 24.58113 25.58315 -0.01107
C 24.58743 15.64688 -0.04078
C 25.8579 13.50755 0.02737
C 24.58525 12.75504 -0.00498
C 24.58034 11.35424 0.00135
C 25.80578 10.67581 0.03102
C 25.81117 9.2977 0.02555
C 24.59431 8.43973 0.01423
C 24.57728 7.04314 -0.00285
C 25.78974 6.35523 -0.009
C 25.82 14.94494 0.02117
C 25.82146 4.97787 -0.01199
C 25.7525 26.20635 0.00071
C 24.55462 28.38139 0.01515
C 23.38496 13.50705 0.01087
C 22.10201 12.74164 0.00199
C 22.07259 11.35983 0.01511
C 23.38722 10.6066 -0.00478
C 23.38193 9.21288 -0.01662
C 22.14389 8.52575 -0.01185
C 22.12303 7.07768 0.01126
C 23.39673 6.30886 0.01852
C 25.78835 27.67023 -0.00225
C 23.28797 4.95354 -0.00381
C 22.165 2.84696 0.0296
C 23.41443 2.0924 0.03374
C 23.32984 0.7283 -0.02845
C 22.03577 0.01272 -0.03213
C 24.53375 32.63827 0.02239
C 25.78839 31.88576 0.01153
C 25.78991 30.53724 0.02734
C 24.59776 29.79748 -0.0055
C 22.15487 4.24101 0.03046
C 24.51179 4.24546 -0.00229
C 24.51405 2.7888 -0.00938
C 25.85257 2.13701 -0.0264
C 28.32403 10.62062 0.00194
C 28.32967 9.17471 -0.00621
C 27.09701 8.46757 0.02611
C 27.09275 7.07851 0.02198
C 28.27916 6.36705 0.01094
C 28.30327 4.87219 0.00235
C 27.03036 4.22489 0.01495
C 27.04329 2.84128 0.01259
C 27.10717 11.29861 0.04185
C 28.37866 2.09172 0.01799
C 27.02654 34.04698 -0.00416
C 29.52556 32.63274 0.01177
C 30.73847 31.94508 0.04266
C 30.74469 30.5012 0.01324
C 29.54649 29.82698 0.0014
C 29.50988 28.40015 0.00924
C 30.74977 27.69857 0.02326
C 30.75705 26.24534 0.00261
C 28.35337 0.70414 0.01699
C 27.1074 12.81458 0.02316
C 28.28152 13.49988 0.01257
C 28.31705 14.86605 0.00152
C 25.81236 0.71934 -0.01154
C 24.62448 0.04232 0.00684
C 27.02774 32.70067 -0.01052
C 28.23001 31.9584 -0.01679
C 28.30146 30.54764 0.00367
C 26.9948 29.84978 0.04306
C 27.04239 28.39893 0.00996
C 28.30386 27.73456 0.00195
C 28.25543 26.34467 -0.00802
C 27.02983 25.54837 -0.00218
C 27.09911 24.19818 -0.01654
C 28.31073 23.40754 -0.00037
C 28.33695 21.95854 -0.0032
C 26.99343 21.25093 0.00622
C 27.06991 19.90094 -0.02815
C 28.28483 19.15348 -0.00942
C 28.41776 17.80328 0.00487
C 27.02711 17.09637 0.00826
C 27.05271 15.61588 -0.00294
C 3.68801 31.95029 0.00988
C 2.37699 32.67488 -0.01343
