318
Graphene
C 34.39396 0.02742 0.01295
C 12.34164 15.62901 -0.00109
C 13.53818 14.86744 -0.00491
C 13.65907 13.54661 0.03338
C 13.69942 10.72038 -0.0258
C 13.7867 9.37964 -0.0331
C 12.16589 7.02401 -0.00316
C 13.40523 6.40517 0.02188
C 13.4032 4.93502 -0.01979
C 12.22781 4.18535 0.02691
C 12.28782 2.67524 -0.01581
C 13.54334 2.05678 0.01452
C 13.59507 0.69373 0.04892
C 12.30653 0.04004 -0.00111
C 14.7578 32.71031 -0.03557
C 16.08341 31.97626 0.03754
C 12.07347 16.98075 0.03698
C 13.44478 17.6316 -0.02213
C 13.52296 19.02057 0.00028
C 12.30582 19.87588 -0.00289
C 9.83496 2.77498 0.0351
C 11.01938 2.06127 -0.03113
C 11.05619 0.74966 0.02098
C 9.86557 0.01041 0.01848
C 12.34534 32.62543 -0.00619
C 13.53365 31.97154 -0.02162
C 13.58769 30.55438 0.00889
C 16.05381 30.59039 0.01739
C 12.34432 29.83033 -0.00481
C 13.58072 27.74719 0.01443
C 13.55076 26.35115 0.03505
C 12.28512 25.67746 -0.02815
C 12.23502 24.22174 -0.04147
C 13.49391 23.49723 -0.05302
C 13.53762 22.02729 0.00213
C 12.34534 21.31117 -0.00066
C 12.25741 28.42851 0.00979
C 14.84909 29.84766 0.00755
C 14.78007 28.42833 -0.0054
C 16.21804 27.4758 0.00667
C 14.71971 4.31418 0.01277
C 14.74538 2.93969 0.00096
C 16.0226 2.16153 -0.01527
C 16.03271 0.72504 0.01087
C 14.79762 0.01905 0.00199
C 17.25427 32.73576 0.01511
C 18.44509 32.01403 -0.00478
C 16.09102 5.0562 -0.02422
C 18.35537 30.57634 -0.01662
C 17.13912 28.47833 0.01126
C 18.43313 17.59056 0.01852
C 17.17699 17.13674 -0.00381
C 17.21169 15.7107 0.03046
C 18.49388 14.91725 0.0296
C 18.28789 13.55493 0.03374
C 17.26189 12.67683 -0.02845
C 17.17521 29.74733 -0.01185
C 9.80711 4.20479 0.00422
C 15.92536 6.50974 -0.01721
C 14.59957 8.38515 0.0106
C 15.96257 26.09527 0.00143
C 14.80321 25.49737 -0.017
C 14.78092 24.11648 0.00364
C 15.82872 23.32497 -0.00831
C 15.91981 21.95633 -0.02957
C 14.71559 21.29943 -0.04422
C 14.63293 19.9016 0.00654
C 14.73983 7.14827 -0.01154
C 15.84186 19.22226 -0.00703
C 14.73871 16.99069 -0.00652
C 14.83177 15.59517 0.0058
C 16.01099 14.90549 -0.00865
C 16.06177 13.45264 0.00675
C 14.79035 12.79634 -0.00311
C 14.85008 11.3927 0.00742
C 16.08008 10.85762 -0.01594
C 15.95858 17.90792 -0.04076
C 11.01288 4.90901 0.00798
C 11.20641 6.17323 0.00228
C 11.10822 17.81767 -0.00114
C 3.6793 0.6752 -0.00719
C 2.54027 34.05089 0.01364
C 4.92338 32.61281 -0.01062
C 6.15001 31.94735 -0.00033
C 6.16789 30.53169 0.03589
C 4.94643 29.79709 -0.02759
C 4.88852 28.36187 0.0402
C 3.70453 2.16219 0.01641
C 6.12047 27.62872 0.00572
C 4.91565 25.56691 0.00406
C 4.90357 24.11321 0.00943
C 6.0679 23.41066 0.02841
C 6.1627 21.98595 -0.01111
C 4.92056 21.33354 -0.01275
C 4.8596 19.85525 0.00985
C 6.17907 19.32375 -0.02245
C 6.08623 26.24259 0.03592
C 6.14602 4.97388 -0.00428
C 2.51988 2.87305 0.02339
C 3.76004 5.00188 -0.01634
C 3.65253 30.53963 -0.01384
C 2.42386 29.84688 0.03693
C 2.42848 28.408 0.01745
C 3.6509 27.71682 0.00488
C 3.68917 26.2461 -0.01004
C 2.4953 25.46728 -0.02896
C 2.44434 24.13954 -0.00131
C 2.51802 4.29893 -0.00334
C 3.68961 23.41184 -0.01118
C 2.52613 21.33496 0.02147
C 2.55861 19.86934 0.00373
C 3.6812 19.11385 -0.00191
C 3.53551 17.83766 0.00438
C 2.39786 17.08761 0.01291
C 2.45434 7.04233 0.00093
C 3.58035 6.44406 0.00057
C 3.70404 22.02696 -0.014
C 17.16475 4.25607 -0.03213
C 4.92744 4.28886 0.03101
C 6.15932 2.15167 -0.02689
C 8.61414 0.69147 0.03542
C 7.36145 34.07641 0.02299
C 9.8028 32.71423 0.00244
C 11.0072 31.98665 -0.01717
C 11.1027 30.49753 0.05265
C 9.78553 29.80842 -0.01952
C 9.74566 28.40829 -0.02813
C 8.53199 2.14078 0.01416
C 11.0683 27.75642 0.00374
C 9.78099 25.51207 -0.03682
C 9.73865 24.16085 0.01965
C 11.02129 23.53916 0.02058
C 11.08967 21.97424 -0.01957
C 9.89208 21.31466 -0.0108
C 9.85538 19.79554 -0.00368
C 11.11304 19.11582 -0.02696
C 11.00373 26.28662 0.00052
C 4.96287 2.83987 -0.01536
C 7.40106 2.87405 0.01945
C 8.67964 4.8597 0.01241
C 6.04913 0.73516 -0.01046
C 4.88083 34.06876 -0.00891
C 7.31362 32.70667 0.02819
C 8.56478 31.987 0.00165
C 8.65935 30.57631 -0.02971
C 7.34928 29.81099 0.02894
C 7.27838 28.3772 -0.01789
C 7.36527 4.46068 -0.01454
C 8.55748 27.6798 0.00444
C 7.30688 25.4728 0.01877
C 7.31699 24.06013 0.01363
C 8.56083 23.45105 -0.02162
C 8.60649 21.95646 0.00415
C 7.39533 21.23814 -0.0014
C 7.4782 19.70075 0.02162
C 8.70346 19.14091 0.0076
C 8.51378 26.18836 -0.00925
C 17.14628 2.84202 0.02239
C 18.39036 2.23514 0.01153
C 18.50539 0.82943 0.02734
C 33.21576 27.69396 -0.01779
C 33.17694 26.24229 0.03794
C 31.93056 25.61894 0.01927
C 31.9454 24.19925 0.01574
C 33.14974 23.51293 -0.02383
C 33.16124 22.0235 -0.01429
C 31.92076 21.35547 -0.0136
C 31.96674 28.39909 0.00682
C 31.92487 19.93535 0.00594
C 33.15883 17.85752 0.00369
C 31.92259 17.10038 0.00455
C 31.97189 15.63239 -0.00644
C 33.11128 14.8798 -0.01839
C 33.31651 13.50735 0.00137
C 32.03819 12.845 0.00199
C 32.05449 11.38984 0.04381
C 33.15067 19.27062 -0.02474
C 33.24514 10.67165 0.02806
C 31.94521 29.87689 0.00026
C 33.17397 31.97099 -0.02142
C 30.70985 14.92434 -0.01461
C 30.72851 13.49145 -0.02155
C 29.49572 12.75847 -0.00944
C 29.48772 11.39339 -0.03735
C 30.68713 10.65513 -0.00971
C 30.72391 9.30711 0.01518
C 29.48601 8.48274 0.01908
C 33.19366 30.57882 0.0544
C 29.50201 7.06758 0.07705
C 30.67014 4.92531 0.02108
C 29.47018 4.20622 0.00716
C 29.43022 2.81511 0.00307
C 30.64166 2.16558 0.00346
C 30.60287 0.63911 0.01713
C 29.42469 34.00356 -0.01694
C 31.88953 32.67331 0.01428
C 30.73258 6.40549 0.0103
C 29.53296 15.67038 -0.01303
C 33.26236 9.2664 0.01504
C 31.96545 7.11236 0.04926
C 1.21737 19.17207 0.00648
C 1.21938 17.77657 0.02114
C 34.37003 17.14996 -0.02957
C 34.3191 15.69561 0.00343
C 1.14791 15.00462 -0.02656
C 0.08563 12.70229 -0.02442
C 0.05978 11.39119 -0.00027
C 34.35157 19.93623 0.01223
C 1.20159 9.3415 -0.00583
C 0.00987 7.06121 -0.02849
C 1.21958 6.45922 0.02931
C 1.25317 5.05629 0.00628
C 0.01386 4.258 -0.0345
C 34.42069 2.80997 -0.00931
C 1.20574 2.08973 -0.00939
C 1.26986 0.75774 -0.00468
C 0.0413 8.58187 -0.02302
C 32.00087 8.55072 -0.00069
C 0.00525 21.28972 -0.01678
C 1.249 23.39791 -0.02213
C 33.25035 6.30669 -0.03838
C 33.10607 4.94314 0.00349
C 31.88795 4.25255 -0.00323
C 31.88303 2.82289 -0.00841
C 33.14299 2.17576 0.0001
C 33.173 0.71702 -0.02927
C 31.9091 0.0307 -0.01404
C 1.25264 22.01477 0.01951
C 34.38533 32.71271 0.01027
C 1.18491 30.55143 -0.01037
C 34.3412 29.83196 -0.00439
C 0.05001 28.45594 -0.00598
C 1.22814 27.65543 -0.05239
C 1.2342 26.22236 0.03076
C 0.05064 25.53801 0.00723
C 0.04013 24.12472 0.02712
C 1.22646 31.98368 0.01831
C 3.68428 31.88946 -0.00482
C 29.53859 17.07162 -0.0405
C 30.76844 19.25249 0.0101
C 23.19724 5.07466 0.01423
C 22.16594 4.35776 -0.00285
C 22.04028 2.96469 -0.009
C 23.29099 2.19374 -0.01199
C 23.32754 0.6699 -0.00229
C 22.13969 0.01837 -0.00938
C 24.55299 32.61359 -0.0264
C 22.0466 12.96879 0.02555
C 25.70967 31.82599 -0.01154
C 24.60257 15.57416 -0.01052
C 25.8067 14.86165 -0.01679
C 25.78228 13.37824 0.00367
C 24.5034 12.69573 0.04306
C 24.66458 11.35269 0.00996
C 25.77847 10.53801 0.00195
C 25.68992 9.09428 -0.00802
C 25.82655 30.53759 0.00684
C 24.47911 8.44762 -0.00218
C 23.27415 13.36142 0.03102
C 22.13435 15.59765 -0.00498
C 17.28357 0.07594 -0.0055
C 19.73456 32.68616 0.01515
C 20.96551 31.89134 -0.00225
C 20.75748 30.59421 0.00071
C 19.55601 29.94831 -0.01107
C 19.66068 16.94188 -0.01586
C 19.6918 15.64904 -0.01971
C 23.3543 15.11879 0.00135
C 20.97113 14.93882 -0.02118
C 19.6478 4.43063 -0.00178
C 19.65693 2.98371 0.00768
C 20.89558 2.20249 -0.0276
C 20.95852 0.76275 0.03005
C 19.71994 0.03029 -0.04078
C 22.15084 32.63605 0.02117
C 23.35624 31.94012 0.02737
C 20.81066 13.53494 0.00733
C 30.74634 17.875 0.01705
C 24.64066 7.11582 -0.01654
C 25.65367 4.977 -0.0032
C 28.27939 6.35571 -0.00416
C 28.13022 4.95516 0.01177
C 26.92848 4.25792 0.04266
C 26.94719 2.79499 0.01324
C 28.1548 2.06557 0.0014
C 28.20141 0.69777 0.00924
C 26.96833 34.02126 0.02326
C 27.03045 7.06303 0.01699
C 29.40441 32.63206 0.00261
C 30.69506 30.55549 -0.02049
C 29.46196 29.76804 -0.01854
C 29.62978 28.42869 -0.01415
C 30.66221 27.58359 -0.03039
C 30.79915 26.29944 0.01836
C 30.94781 23.35948 0.03531
C 30.70489 22.0101 -0.00669
C 30.70076 32.01566 0.03265
C 25.75884 6.4155 -0.00037
C 26.92994 8.49894 0.01799
C 28.23646 10.58794 0.01495
C 24.49488 4.33826 0.00622
C 24.55782 2.92545 -0.02815
C 25.74094 2.17545 -0.00942
C 25.7659 0.70021 0.00487
C 24.57638 34.00658 0.00826
C 26.88361 32.58988 -0.00294
C 28.27319 31.83422 0.00152
C 28.28646 9.25105 0.01259
C 28.26369 30.41003 0.01257
C 28.27809 17.6347 0.04185
C 27.23678 16.7709 0.00194
C 26.98365 15.50475 -0.00621
C 28.27873 14.9081 0.02611
C 28.23343 13.48247 0.02198
C 26.98461 12.72542 0.01094
C 27.00053 11.28031 0.00235
C 27.01611 30.00611 0.02316
C 2.4716 32.6659 0.02888
