445
Graphene
C 34.42749 34.04196 0.01295
C 13.4299 15.01094 0.01291
C 13.46602 13.50792 0.00093
C 12.21509 12.83981 0.00057
C 12.27999 11.44877 -0.01634
C 13.51874 10.60204 -0.00334
C 13.52195 9.19658 0.02339
C 12.32314 8.53608 0.01641
C 12.34286 7.10058 -0.00719
C 13.52847 6.39018 0.01364
C 13.53364 4.91124 -0.01062
C 12.23962 4.20352 -0.00033
C 12.35812 2.85167 0.03589
C 13.57274 2.13037 -0.02759
C 13.55061 0.69982 0.0402
C 12.31099 34.0553 0.00572
C 14.73327 32.5446 0.03592
C 15.98067 31.89871 0.00406
C 15.97842 30.48042 0.00943
C 14.69446 29.7998 0.02841
C 14.77061 28.32676 -0.01111
C 15.97664 27.63638 -0.01275
C 15.90634 26.27671 0.00985
C 14.70424 25.50924 -0.02245
C 12.31762 15.73706 0.00438
C 12.27535 17.16131 -0.00191
C 13.57613 17.76888 0.00373
C 13.53192 19.15867 0.02147
C 11.0843 10.6906 -0.00494
C 11.06253 9.2815 0.00054
C 9.77602 8.59978 0.03007
C 9.80223 7.17386 -0.00095
C 11.01271 6.38034 0.01572
C 11.08599 5.00336 -0.04848
C 9.83643 4.28494 -0.00892
C 9.86711 2.93253 -0.01362
C 11.14565 2.20839 -0.0008
C 11.07515 0.73852 0.0288
C 9.80912 0.05098 0.00393
C 14.67221 24.16246 -0.00428
C 12.25811 32.642 0.00895
C 13.46261 30.47084 0.02888
C 12.28907 29.79594 -0.00482
C 12.2587 28.39001 -0.01384
C 13.46707 27.73052 0.03693
C 13.49785 26.30686 0.01745
C 12.22503 25.73587 0.00488
C 12.18838 24.19397 -0.01004
C 13.41009 23.39936 -0.02896
C 13.52038 22.04141 -0.00131
C 12.26753 21.31062 -0.01118
C 12.29043 19.85555 -0.014
C 13.46777 31.89969 0.00685
C 16.00126 23.47069 0.03101
C 16.00485 22.03562 -0.01536
C 14.77224 21.31959 -0.02689
C 17.19218 24.11427 0.00052
C 18.48081 23.4371 -0.03682
C 18.43004 21.95721 0.01965
C 17.18368 21.28598 0.02058
C 17.1174 19.89487 -0.01957
C 18.40813 19.10103 -0.0108
C 18.42178 17.70637 -0.00368
C 17.17625 16.99371 -0.02696
C 17.17001 15.58915 -0.00114
C 18.4299 14.89802 0.00228
C 18.41685 13.54159 0.00798
C 17.22541 25.619 0.00374
C 17.17637 12.79962 0.00422
C 18.42949 10.67499 -0.03113
C 18.44827 9.27941 0.02098
C 17.23859 8.51797 0.01848
C 17.2142 7.08117 -0.00619
C 18.4497 6.3543 -0.02162
C 18.50559 4.94416 0.00889
C 17.24342 4.27891 -0.00481
C 17.25076 2.85606 0.00979
C 18.42569 2.11022 0.01443
C 18.39301 0.66962 0.03505
C 17.14424 34.04287 -0.02815
C 17.19966 11.4011 0.0351
C 9.87547 11.39591 -0.00562
C 18.43204 26.35089 -0.02813
C 17.16491 28.43141 0.05265
C 14.7615 19.9194 -0.01046
C 15.99755 19.13859 -0.00891
C 16.01542 17.70339 0.02819
C 14.77431 17.03071 0.00165
C 14.78823 15.62413 -0.02971
C 15.95557 14.86993 0.02894
C 15.91704 13.46074 -0.01789
C 14.63285 12.77007 0.00444
C 14.82964 11.33811 -0.00925
C 16.04383 10.67491 0.01877
C 16.01686 9.21018 0.01363
C 18.39627 27.74793 -0.01952
C 14.78787 8.55147 -0.02162
C 15.99579 6.37005 -0.0014
C 16.0389 4.9676 0.02162
C 14.78696 4.20946 0.0076
C 14.79114 2.9086 0.01241
C 16.03561 2.15391 -0.01454
C 15.95707 0.69122 0.01945
C 14.78111 33.96539 0.01416
C 17.12708 32.63427 0.03542
C 18.40753 31.94514 0.02299
C 18.44229 30.61993 0.00244
C 17.19121 29.85561 -0.01717
C 14.70648 7.06934 0.00415
C 9.82817 12.80661 -0.01142
C 11.03618 13.55261 0.01849
C 10.97304 15.02662 0.01396
C 3.71426 0.69152 -0.01299
C 2.50227 34.07373 -0.00407
C 4.98796 32.63127 0.01138
C 6.14971 32.00243 0.03278
C 6.17886 30.49695 -0.00177
C 5.05977 29.82035 0.04421
C 4.95971 28.43537 0.00088
C 6.16617 27.69974 0.00828
C 6.07827 26.32584 -0.02375
C 4.83392 25.58469 0.00558
C 4.90407 24.23609 -0.0059
C 3.67552 2.10966 -0.0154
C 6.23856 23.5566 -0.01386
C 4.90574 21.24862 0.00081
C 4.94233 19.82988 0.00245
C 6.13941 19.12769 0.02728
C 6.18997 17.74436 -0.00039
C 4.86895 17.01642 0.0064
C 4.88036 15.65153 0.00211
C 6.09556 14.9784 -0.00449
C 6.11905 13.54291 -0.01979
C 4.96929 12.84116 0.02784
C 4.92992 11.35727 -0.01977
C 6.15791 10.69883 -0.00561
C 6.1419 22.07157 -0.02805
C 6.10967 9.35433 0.00208
C 2.39643 2.70943 0.00662
C 3.62014 4.97241 0.03345
C 3.74266 30.47173 -0.02419
C 2.49475 29.85425 -0.03951
C 2.5509 28.42212 -0.00141
C 3.76758 27.75723 -0.00374
C 3.6658 26.38607 -0.0213
C 2.4478 25.5414 0.01116
C 2.49407 24.04268 -0.0005
C 3.75483 23.30423 -0.00018
C 3.70581 21.98195 0.01073
C 2.37637 21.23484 0.01984
C 2.36099 19.79489 0.00535
C 2.45695 4.16977 0.00748
C 3.60083 19.17017 -0.00198
C 2.41396 17.03444 -0.04306
C 2.45741 15.63152 -0.03672
C 3.62717 14.97597 0.01913
C 3.71691 13.42962 0.00267
C 2.45576 12.76264 0.00787
C 2.44519 11.33835 0.02426
C 3.73301 10.72006 0.01218
C 3.67772 9.26809 -0.01471
C 2.43854 8.50688 -0.02827
C 2.47038 7.12669 0.01078
C 3.6824 6.36412 -0.00112
C 3.57905 17.8004 -0.00012
C 19.63712 32.63687 -0.04147
C 4.91041 8.57564 0.01707
C 6.12008 6.44625 -0.03291
C 7.34035 8.57824 -0.03113
C 7.36695 7.21071 -0.02566
C 8.58511 6.51536 -0.00094
C 8.59829 5.05865 0.02322
C 7.3413 4.27127 -0.00725
C 7.42462 2.88481 -0.05697
C 8.67228 2.15757 0.01087
C 8.65305 0.67595 -0.01343
C 7.38668 0.03213 0.00988
C 9.82863 32.70112 0.0276
C 11.07589 31.90278 0.01305
C 8.58577 9.28221 0.017
C 10.97782 30.47202 -0.00077
C 9.71746 28.35006 -0.02929
C 11.05328 27.70795 -0.00966
C 11.04722 26.36232 -0.03337
C 10.96758 23.38257 0.01227
C 11.02351 22.07717 0.00873
C 9.82288 21.31831 -0.00049
C 9.85282 19.95634 0.00848
C 11.04814 19.21212 -0.01303
C 11.01894 17.78682 -0.01378
C 9.86307 17.06173 0.02635
C 9.7734 15.68107 0.0127
C 9.7362 29.83791 0.03368
C 4.88227 7.11391 0.02769
C 8.66776 10.69615 -0.00643
C 7.3712 12.83144 -0.00518
C 6.07845 5.06166 -0.04999
C 4.85527 4.30123 0.04505
C 4.93496 2.85055 0.03284
C 6.15039 2.21551 -0.04307
C 6.11988 0.75143 0.03189
C 4.97123 0.01292 0.00031
C 7.35763 32.73913 -0.003
C 8.61187 32.03615 0.01402
C 8.61676 30.53166 0.02379
C 7.3879 29.77774 0.00907
C 7.38113 28.37477 0.00643
C 7.38816 11.47032 0.0086
C 8.54699 27.55845 -0.01509
C 7.57439 24.30303 0.02374
C 8.71723 23.45597 0.00402
C 8.62508 22.06409 0.0073
C 7.38175 21.38679 0.0174
C 7.35814 19.87545 0.03828
C 8.55852 19.15104 0.01226
C 8.49491 17.82647 -0.00279
C 7.33639 17.01462 0.01996
C 7.30678 15.57584 -0.03996
C 8.58596 14.87899 0.01465
C 8.60377 13.54262 -0.00074
C 7.37277 25.66785 0.03267
C 3.74802 31.92659 0.02438
C 20.9099 32.03519 -0.05302
C 19.72919 29.82192 -0.00066
C 29.4953 15.68812 0.01705
C 30.69055 14.89303 -0.0405
C 30.73021 13.47788 -0.01303
C 29.50824 12.81033 -0.01461
C 29.48848 11.33354 -0.02155
C 30.76117 10.58933 -0.00944
C 30.71037 9.22045 -0.03735
C 29.55993 8.47527 -0.00971
C 29.49911 6.98816 0.01518
C 30.72031 6.33349 0.01908
C 30.78314 4.9279 0.07705
C 29.48018 4.26389 0.0103
C 29.47678 2.87817 0.02108
C 30.71313 2.16911 0.00716
C 30.75513 0.73714 0.00307
C 29.54116 0.05757 0.00346
C 31.95401 32.73191 0.01713
C 33.26115 32.01328 -0.01694
C 33.18843 30.60634 0.01428
C 31.95939 29.88994 -0.02142
C 31.99339 28.41068 0.0544
C 33.22546 27.66147 0.00026
C 33.21891 26.25686 0.00682
C 29.57653 17.05707 0.0101
C 30.82592 17.73471 -0.00669
C 30.7345 19.10686 0.03531
C 29.51175 19.86777 0.01836
C 27.09455 11.3337 0.04185
C 28.27817 10.57167 0.00194
C 28.28339 9.14558 -0.00621
C 27.13075 8.51799 0.02611
C 27.04818 7.04689 0.02198
C 28.24435 6.3836 0.01094
C 28.28525 4.96042 0.00235
C 27.01824 4.31822 0.01495
C 27.08535 2.84252 0.01259
C 28.26358 2.10159 0.01799
C 28.25798 0.74474 0.01699
C 31.93065 25.55642 -0.01779
C 27.09269 0.01657 -0.00416
C 30.81179 31.98496 0.04266
C 30.71373 30.5579 0.01324
C 29.48903 29.81525 0.0014
C 29.45888 28.38833 0.00924
C 30.80691 27.71936 0.02326
C 30.73366 26.31047 0.00261
C 29.45438 25.62856 0.03265
C 29.42548 24.21637 -0.02049
C 30.63696 23.43156 -0.01854
C 30.62024 21.9335 -0.01415
C 29.43528 21.19664 -0.03039
C 29.44269 32.6824 0.01177
C 31.89219 24.13483 0.03794
C 33.15508 23.422 0.01927
C 33.11629 21.98873 0.01574
C 0.02712 25.46654 -0.05239
C 34.42836 24.14488 0.03076
C 1.25416 23.42907 0.00723
C 1.21571 21.99828 0.02712
C 34.34727 21.2797 -0.02213
C 34.35635 19.86774 0.01951
C 1.18221 19.13296 -0.01678
C 1.20255 17.69029 0.01223
C 0.00613 16.93612 0.00648
C 34.39913 15.57675 0.02114
C 1.25313 14.90465 -0.02957
C 1.25601 26.24267 -0.00598
C 1.19417 13.50974 0.00343
C 0.03403 11.29566 -0.02442
C 1.29833 10.59906 -0.00027
C 1.23173 9.20801 -0.00583
C 0.02446 8.44695 -0.02302
C 0.04014 7.03239 -0.02849
C 1.23649 6.35819 0.02931
C 1.20716 4.96302 0.00628
C 0.00671 4.25943 -0.0345
C 34.38402 2.88071 -0.00931
C 1.11187 2.08709 -0.00939
C 1.20276 0.70044 -0.00468
C 0.00337 12.73007 -0.02656
C 27.10772 12.75372 0.02316
C 1.33135 27.64299 -0.00439
C 0.06397 29.78274 0.01831
C 31.95064 21.30305 -0.02383
C 31.98736 19.83694 -0.01429
C 33.22629 19.11702 -0.0136
C 33.22664 17.71438 0.00594
C 32.00469 17.03965 -0.02474
C 31.90147 15.55438 0.00369
C 33.15887 14.82013 0.00455
C 33.13917 13.47192 -0.00644
C 31.94221 12.77972 -0.01839
C 32.0213 11.2987 0.00137
C 33.21894 10.63406 0.00199
C 0.03924 28.37223 -0.01037
C 33.24124 9.19543 0.04381
C 31.96527 7.05704 0.01504
C 33.20405 6.35138 -0.00069
C 33.18357 4.98786 0.04926
C 31.9452 4.22172 -0.03838
C 31.9446 2.87529 0.00349
C 33.1344 2.15999 -0.00323
C 33.22913 0.78097 -0.00841
C 31.99716 0.10557 0.0001
C 0.04598 32.64219 -0.02927
C 1.31163 31.91753 -0.01404
C 1.21388 30.58948 0.01027
C 32.01627 8.43737 0.02806
C 28.32175 13.5114 0.01257
C 28.25867 14.93374 0.00152
C 27.052 15.69906 -0.00294
C 22.10074 32.70231 -0.04422
C 23.35757 32.02708 0.00654
C 23.34017 30.623 -0.00703
C 22.11296 29.8657 -0.04076
C 22.05655 28.38118 -0.00652
C 23.27918 27.75984 0.0058
C 23.3725 26.2777 -0.00865
C 22.19982 25.55977 0.00675
C 22.21343 24.17642 -0.00311
C 23.51002 23.4511 0.00742
C 23.46994 21.95898 -0.01594
C 19.65648 0.01518 -0.02957
C 22.12195 21.30254 0.0106
C 23.35488 19.10819 -0.01721
C 23.36836 17.72098 -0.02422
C 22.12242 17.1132 0.01277
C 22.10877 15.64207 0.00096
C 23.37995 14.93661 -0.01527
C 23.34801 13.46843 0.01087
C 22.08686 12.77173 0.00199
C 22.06919 11.36532 0.01511
C 23.3926 10.59681 -0.00478
C 23.33619 9.15753 -0.01662
C 22.0549 8.52493 -0.01185
C 22.15348 19.92841 -0.01154
C 22.05146 7.12163 0.01126
C 20.88835 0.67559 -0.00831
C 19.65791 2.7874 -0.017
C 19.67457 28.40133 -0.00289
C 20.84756 27.69087 0.00028
C 20.91356 26.19991 -0.02213
C 19.67505 25.60053 0.03698
C 19.70705 24.13429 -0.00109
C 20.95331 23.42957 -0.00491
C 20.98445 22.0464 0.03338
C 19.72734 21.31588 -0.0258
C 19.61372 19.84327 -0.0331
C 20.89002 19.2207 -0.00316
C 20.92898 17.81542 0.02188
C 20.91068 2.12662 0.00364
C 19.64476 17.0783 -0.01979
C 20.80876 14.91398 -0.01581
C 20.79985 13.47176 0.01452
C 19.58189 12.8375 0.04892
C 19.66037 11.36628 -0.00111
C 20.83125 10.61593 -0.03557
C 20.84182 9.24918 0.03754
C 19.62955 8.52076 0.01739
C 19.63406 7.10089 0.00755
C 20.87551 6.34407 -0.0054
C 20.90536 4.91884 0.00667
C 19.69367 4.22523 0.00143
C 19.63213 15.65303 0.02691
C 20.8838 30.53246 0.00213
C 23.29573 6.47299 0.01852
C 22.15294 4.24142 0.03046
C 24.54387 7.09178 -0.00285
C 25.75073 6.35314 -0.009
C 25.79714 5.01557 -0.01199
C 24.57519 4.29833 -0.00229
C 24.59196 2.847 -0.00938
C 25.86454 2.1009 -0.0264
C 25.84929 0.73273 -0.01154
C 24.59836 34.06735 0.00684
C 27.03101 32.63604 -0.01052
C 28.25963 31.88158 -0.01679
C 28.25704 30.41346 0.00367
C 24.55608 8.52194 0.01423
C 26.96136 29.78557 0.04306
C 28.22438 27.68795 0.00195
C 28.17082 26.30778 -0.00802
C 27.01635 25.5387 -0.00218
C 26.98807 24.11925 -0.01654
C 28.27653 23.4805 -0.00037
C 28.28675 21.98224 -0.0032
C 27.04543 21.2801 0.00622
C 27.04752 19.87616 -0.02815
C 28.26072 19.21834 -0.00942
C 28.27527 17.73676 0.00487
C 27.04094 17.05595 0.00826
C 26.9188 28.37313 0.00996
C 23.38129 4.98637 -0.00381
C 25.82244 9.21496 0.02555
C 24.52773 11.27645 0.00135
C 22.15857 2.80907 0.0296
C 23.39281 2.14049 0.03374
C 23.41753 0.76347 -0.02845
C 22.10833 0.02536 -0.03213
C 24.57836 32.69705 0.02239
C 25.78568 31.9367 0.01153
C 25.76417 30.55693 0.02734
C 24.57279 29.84619 -0.0055
C 24.50566 28.48857 0.01515
C 25.75907 27.68863 -0.00225
C 25.82878 26.27878 0.00071
C 25.83495 10.60285 0.03102
C 24.56307 25.49705 -0.01107
C 25.81709 23.41897 -0.01971
C 25.85729 21.94958 -0.02118
C 24.6564 21.29974 0.00733
C 24.55525 19.89214 -0.00178
C 25.82143 19.21866 0.00768
C 25.85872 17.81012 -0.0276
C 24.59982 17.04735 0.03005
C 24.57306 15.60493 -0.04078
C 25.82869 14.86823 0.02117
C 25.90322 13.45039 0.02737
C 24.51944 12.7204 -0.00498
C 24.58987 24.19957 -0.01586
C 2.50009 32.57756 0.00297
