417
Graphene
C 34.37901 34.01183 0.01295
C 13.47211 27.7345 -0.01111
C 13.40711 26.35114 -0.01275
C 12.28097 25.62239 0.00985
C 12.2472 24.13319 -0.02245
C 13.44891 23.46319 -0.00428
C 13.47344 22.01858 0.03101
C 12.1863 21.28802 -0.01536
C 12.30716 19.93308 -0.02689
C 13.55188 19.14425 -0.01046
C 13.54345 17.77494 -0.00891
C 12.24634 28.50235 0.02841
C 12.29031 17.03718 0.02819
C 13.56009 14.87157 -0.02971
C 13.57698 13.38275 0.02894
C 12.33546 12.67967 -0.01789
C 12.38326 11.1841 0.00444
C 13.64673 10.45371 -0.00925
C 13.58754 9.01123 0.01877
C 12.37071 8.41951 0.01363
C 12.24605 7.01543 -0.02162
C 13.45441 6.2757 0.00415
C 13.44838 4.81669 -0.0014
C 12.28981 15.62865 0.00165
C 12.21209 4.19635 0.02162
C 12.21835 29.93981 0.00943
C 13.50658 32.02333 0.03592
C 9.82374 21.33915 -0.00131
C 9.81655 19.92633 -0.01118
C 11.07234 19.22658 -0.014
C 11.00773 17.76785 0.02147
C 9.7795 17.07799 0.00373
C 9.8716 15.62963 -0.00191
C 11.08193 14.83151 0.00438
C 11.13918 13.45378 0.01291
C 9.85577 12.77747 0.00093
C 9.83313 11.441 0.00057
C 13.49857 30.56468 0.00406
C 11.10508 10.68328 -0.01634
C 9.79649 8.52553 0.02339
C 9.72435 7.1504 0.01641
C 11.0058 6.34463 -0.00719
C 11.00538 4.94737 0.01364
C 9.72534 4.31065 -0.01062
C 9.75126 2.92688 -0.00033
C 10.95059 2.18244 0.03589
C 11.02551 0.77958 -0.02759
C 9.7426 0.13973 0.0402
C 12.2688 32.80144 0.00572
C 11.06881 9.24252 -0.00334
C 11.02349 22.00548 -0.02896
C 12.33535 2.84044 0.0076
C 13.57602 0.82418 -0.01454
C 15.53753 5.57401 -0.00619
C 14.73429 4.37333 -0.02162
C 14.89376 2.97293 0.00889
C 16.14494 2.26034 -0.00481
C 16.08417 0.77678 0.00979
C 14.82535 0.12844 0.01443
C 17.21798 32.72246 0.03505
C 18.44026 31.89818 -0.02815
C 18.42387 30.51866 -0.04147
C 17.26079 29.8668 -0.05302
C 14.88507 6.59872 0.01848
C 17.18302 28.47538 0.00213
C 18.37646 26.28751 -0.00289
C 17.09864 25.60578 0.00028
C 17.12233 24.18215 -0.02213
C 18.36182 23.44971 0.03698
C 18.39934 22.0145 -0.00109
C 17.13707 21.35039 -0.00491
C 17.10224 19.89127 0.03338
C 18.37955 19.2309 -0.0258
C 18.44312 17.76895 -0.0331
C 17.1894 17.0494 -0.00316
C 18.39544 27.69575 -0.00066
C 13.66776 2.23188 0.01241
C 14.88276 8.16874 0.02098
C 16.20454 10.39735 0.0351
C 12.30733 0.10545 0.01945
C 14.79094 32.77221 0.01416
C 15.96868 31.99895 0.03542
C 16.02128 30.56638 0.02299
C 14.73686 29.88852 0.00244
C 14.68083 28.411 -0.01717
C 15.87163 27.75731 0.05265
C 15.89136 26.33042 -0.01952
C 14.6932 25.56014 -0.02813
C 14.61119 24.1085 0.00374
C 15.91109 9.02809 -0.03113
C 15.86735 23.39716 0.00052
C 14.701 21.26017 0.01965
C 14.74551 19.8615 0.02058
C 15.947 19.12973 -0.01957
C 15.98729 17.78078 -0.0108
C 14.74305 17.04742 -0.00368
C 14.77307 15.53229 -0.02696
C 15.97347 14.83902 -0.00114
C 15.94199 13.42047 0.00228
C 14.79148 12.69621 0.00798
C 14.85567 11.21023 0.00422
C 15.87766 22.01779 -0.03682
C 11.04148 23.44329 -0.01004
C 9.86693 24.1972 0.00488
C 9.89022 25.69234 0.01745
C 2.34607 2.91157 0.02769
C 3.5788 2.1569 -0.03291
C 3.52986 0.77182 -0.04999
C 2.35745 34.02411 0.04505
C 4.85526 32.72368 0.03284
C 6.07628 32.02785 -0.04307
C 6.11831 30.57057 0.03189
C 4.87268 29.85418 0.00031
C 4.94704 28.44689 -0.003
C 6.17832 27.73287 0.01402
C 2.36415 4.25442 0.01707
C 6.15264 26.26814 0.02379
C 4.88674 24.21946 0.00643
C 6.17552 23.49396 -0.01509
C 6.15703 22.08004 0.03267
C 4.84485 21.3031 0.02374
C 4.8637 19.95209 0.00402
C 6.1428 19.20716 0.0073
C 6.15134 17.79519 0.0174
C 4.96528 17.05593 0.03828
C 4.91699 15.64456 0.01226
C 6.11675 14.92453 -0.00279
C 4.88955 25.56447 0.00907
C 6.13005 13.49703 0.01996
C 3.57691 5.04952 0.00208
C 2.41935 7.12197 -0.01977
C 3.62198 30.57033 -0.01299
C 2.42086 29.87724 -0.00407
C 2.39726 28.32494 0.01138
C 3.71188 27.69342 0.03278
C 3.65946 26.2602 -0.00177
C 2.45089 25.50788 0.04421
C 2.48166 24.10773 0.00088
C 3.68215 23.4449 0.00828
C 3.65629 22.03212 -0.02375
C 2.42212 21.32281 0.00558
C 3.65777 6.38384 -0.00561
C 2.38798 19.85681 -0.0059
C 3.7701 17.77632 -0.02805
C 2.4541 17.10437 0.00081
C 2.4717 15.66953 0.00245
C 3.68867 14.92695 0.02728
C 3.73807 13.55826 -0.00039
C 2.41651 12.74486 0.0064
C 2.40097 11.39474 0.00211
C 3.60517 10.68246 -0.00449
C 3.59028 9.2373 -0.01979
C 2.4195 8.48992 0.02784
C 3.6372 19.15775 -0.01386
C 4.97474 12.82997 -0.03996
C 4.93432 11.30856 0.01465
C 6.11068 10.65295 -0.00074
C 8.61026 14.8764 0.0127
C 8.652 13.48207 0.01396
C 7.43472 12.77517 0.01849
C 7.38398 11.36886 -0.01142
C 8.65431 10.69595 -0.00562
C 8.60937 9.26984 -0.00494
C 7.36991 8.59678 0.00054
C 7.32794 7.17974 0.03007
C 8.46374 6.43371 -0.00095
C 8.46715 5.00406 0.01572
C 7.39704 15.69203 0.02635
C 7.29014 4.31684 -0.04848
C 8.49339 2.18504 -0.01362
C 8.55975 0.7855 -0.0008
C 7.31239 0.1358 0.0288
C 9.82211 32.79284 0.00393
C 11.06344 32.11224 0.00895
C 11.03586 30.67992 0.00685
C 9.82764 29.95562 0.02888
C 9.84743 28.51113 -0.00482
C 11.06699 27.80283 -0.01384
C 11.07476 26.37999 0.03693
C 7.32304 2.91453 -0.00892
C 7.39072 17.07973 -0.01378
C 8.55689 17.80177 -0.01303
C 8.52589 19.22877 0.00848
C 6.10744 9.25065 -0.00518
C 4.89439 8.62653 0.0086
C 4.85456 7.15062 -0.00643
C 6.05439 6.54736 0.017
C 6.07243 5.05842 -0.03113
C 4.87087 4.36235 -0.02566
C 4.82614 2.92533 -0.00094
C 6.08369 2.29269 0.02322
C 6.08529 0.89145 -0.00725
C 4.85422 0.09557 -0.05697
C 7.34745 32.82274 0.01087
C 8.55339 32.08955 -0.01343
C 8.60473 30.68815 0.00988
C 7.39607 29.92192 0.0276
C 7.43422 28.52837 0.01305
C 8.6568 27.82605 -0.00077
C 8.6159 26.3199 0.03368
C 7.35895 25.61112 -0.02929
C 7.36879 24.1571 -0.00966
C 8.63726 23.50853 -0.03337
C 8.56251 22.07931 0.01227
C 7.31201 21.35398 0.00873
C 7.34732 19.91198 -0.00049
C 17.19771 15.57438 0.02188
C 3.63507 31.91864 -0.0154
C 18.41173 14.93741 -0.01979
C 17.16877 12.76607 -0.01581
C 30.75371 10.65402 -0.00944
C 30.7241 9.19614 -0.03735
C 29.48242 8.51296 -0.00971
C 29.46613 7.12645 0.01518
C 30.72821 6.42082 0.01908
C 30.76885 4.89281 0.07705
C 29.54909 4.27095 0.0103
C 29.48286 2.84955 0.02108
C 30.72084 2.18744 0.00716
C 30.72701 0.68246 0.00307
C 29.38698 11.30438 -0.02155
C 29.48878 0.0335 0.00346
C 33.17521 31.88719 -0.01694
C 33.20394 30.52724 0.01428
C 31.97749 29.75639 -0.02142
C 31.97413 28.38528 0.0544
C 33.16993 27.62743 0.00026
C 33.22315 26.1373 0.00682
C 31.96429 25.51033 -0.01779
C 31.94032 24.16035 0.03794
C 33.19391 23.34921 0.01927
C 33.16382 21.85708 0.01574
C 31.99638 32.65711 0.01713
C 31.94739 21.21141 -0.02383
C 29.4323 12.72008 -0.01461
C 30.67594 14.82891 -0.0405
C 26.98728 4.3001 0.01495
C 27.01098 2.87083 0.01259
C 28.22896 2.18967 0.01799
C 28.2007 0.71155 0.01699
C 27.00998 0.10997 -0.00416
C 29.55091 32.76753 0.01177
C 30.72203 31.94413 0.04266
C 30.73072 30.45419 0.01324
C 29.46287 29.84442 0.0014
C 29.60025 28.39835 0.00924
C 30.66808 13.42199 -0.01303
C 30.75657 27.70599 0.02326
C 29.50744 25.54826 0.03265
C 29.51486 24.15313 -0.02049
C 30.65539 23.36855 -0.01854
C 30.66997 22.01045 -0.01415
C 29.46792 21.31737 -0.03039
C 29.48102 19.84363 0.01836
C 30.6123 19.06356 0.03531
C 30.6334 17.68031 -0.00669
C 29.41363 16.93754 0.0101
C 29.40832 15.53386 0.01705
C 30.7306 26.22292 0.00261
C 28.28001 5.01013 0.00235
C 31.9497 19.83709 -0.01429
C 33.17455 17.67189 0.00594
C 1.24201 23.40357 0.00723
C 1.15338 21.97323 0.02712
C 34.34436 21.26881 -0.02213
C 34.38094 19.87757 0.01951
C 1.1465 19.14361 -0.01678
C 1.26526 17.75581 0.01223
C 34.41067 17.02046 0.00648
C 34.42979 15.57979 0.02114
C 1.21644 14.94083 -0.02957
C 1.20061 13.4919 0.00343
C 34.37914 24.10103 0.03076
C 34.42236 12.79279 -0.02656
C 1.19919 10.63833 -0.00027
C 1.16915 9.20491 -0.00583
C 34.34174 8.44869 -0.02302
C 34.39046 7.01562 -0.02849
C 1.24004 6.33146 0.02931
C 1.11298 4.97252 0.00628
C 34.35915 4.28239 -0.0345
C 34.41326 2.87773 -0.00931
C 1.10192 2.14189 -0.00939
C 1.13589 0.65988 -0.00468
C 34.4129 11.36156 -0.02442
C 33.12446 19.07627 -0.0136
C 0.004 25.51047 -0.05239
C 1.1826 27.66707 -0.00439
C 31.90262 16.94605 -0.02474
C 31.84416 15.59745 0.00369
C 33.16639 14.8989 0.00455
C 33.19233 13.49728 -0.00644
C 31.9562 12.7798 -0.01839
C 31.92853 11.33327 0.00137
C 33.15483 10.6535 0.00199
C 33.15561 9.25607 0.04381
C 31.95624 8.50401 0.02806
C 31.94018 7.06011 0.01504
C 1.31192 26.20903 -0.00598
C 33.14052 6.38071 -0.00069
C 31.91937 4.25959 -0.03838
C 31.92187 2.80266 0.00349
C 33.22778 2.10279 -0.00323
C 33.1535 0.70191 -0.00841
C 31.94828 34.07118 0.0001
C 0.04615 32.5988 -0.02927
C 1.1474 31.93058 -0.01404
C 1.1606 30.50969 0.01027
C 0.03998 29.78909 0.01831
C 34.36313 28.34659 -0.01037
C 33.18536 4.92921 0.04926
C 28.31774 6.34866 0.01094
C 27.05342 7.13587 0.02198
C 27.01937 8.40433 0.02611
C 20.8912 0.63395 -0.01154
C 19.6519 33.93347 -0.01721
C 22.18873 32.72757 -0.02422
C 23.50798 31.90173 0.01277
C 23.4662 30.51761 0.00096
C 22.10972 29.79542 -0.01527
C 22.16997 28.42943 0.01087
C 23.40353 27.66727 0.00199
C 23.28577 26.18799 0.01511
C 22.05837 25.53228 -0.00478
C 20.70205 2.04282 0.0106
C 22.08897 24.13813 -0.01662
C 23.30402 21.99838 0.01126
C 22.04996 21.31721 0.01852
C 22.10262 19.9164 -0.00381
C 23.36354 19.26306 0.03046
C 23.33005 17.76248 0.0296
C 22.09778 17.07108 0.03374
C 22.06797 15.60908 -0.02845
C 23.2891 14.96118 -0.03213
C 23.28458 13.48006 0.02239
C 22.13444 12.84074 0.01153
C 23.33038 23.4886 -0.01185
C 23.37498 2.14853 0.02734
C 19.58332 12.91572 -0.01594
C 20.84327 14.88221 -0.00311
C 17.18094 11.31987 0.01452
C 17.45798 2.80567 0.04892
C 18.63143 2.10276 -0.00111
C 18.56611 0.66394 -0.03557
C 17.21691 0.06282 0.03754
C 19.71219 32.60424 0.01739
C 20.94768 31.85972 0.00755
C 20.9802 30.5035 -0.0054
C 19.62863 29.74761 0.00667
C 19.64935 28.31194 0.00143
C 20.85361 13.46254 0.00742
C 20.88569 27.70118 -0.017
C 19.58713 25.54959 -0.00831
C 19.60525 24.12214 -0.02957
C 20.84991 23.49058 -0.04422
C 20.8784 22.09286 0.00654
C 19.59984 21.35641 -0.00703
C 19.64637 19.99238 -0.04076
C 20.84301 19.28606 -0.00652
C 20.86489 17.84117 0.0058
C 19.70019 17.04234 -0.00865
C 19.68241 15.57205 0.00675
C 20.84226 26.27687 0.00364
C 23.41243 0.73578 -0.0055
C 22.17163 34.03839 0.01515
C 24.67714 32.68921 -0.00225
C 28.30086 32.00109 -0.01679
C 28.29562 30.57046 0.00367
C 27.13557 29.84595 0.04306
C 27.0886 28.37943 0.00996
C 28.27383 27.66505 0.00195
C 28.30845 26.28411 -0.00802
C 27.11425 25.5513 -0.00218
C 27.05185 24.12845 -0.01654
C 28.28174 23.37049 -0.00037
C 28.30394 22.02853 -0.0032
C 27.09431 32.73698 -0.01052
C 27.03376 21.2672 0.00622
C 28.1904 19.02915 -0.00942
C 28.17824 17.71204 0.00487
C 27.00743 16.97845 0.00826
C 27.00832 15.57034 -0.00294
C 28.18709 14.80922 0.00152
C 28.19697 13.35959 0.01257
C 26.93403 12.69268 0.02316
C 26.97509 11.25709 0.04185
C 28.24439 10.57464 0.00194
C 28.22167 9.22358 -0.00621
C 27.04943 19.84882 -0.02815
C 24.63078 0.0242 0.00684
C 25.81098 0.81229 -0.01154
C 25.7734 2.25145 -0.0264
C 25.88646 32.02448 0.00071
C 25.92838 30.53597 -0.01107
C 24.67419 29.82562 -0.01586
C 24.72558 28.43509 -0.01971
C 25.82714 27.68587 -0.02118
C 25.8735 26.19583 0.00733
C 24.57803 25.60815 -0.00178
C 24.60339 24.1972 0.00768
C 25.84465 23.44674 -0.0276
C 25.78191 22.03261 0.03005
C 24.61666 21.33983 -0.04078
C 24.59232 19.87217 0.02117
C 25.78428 19.13682 0.02737
C 25.79218 17.7182 -0.00498
C 24.5119 17.09404 0.00135
C 24.54833 15.61854 0.03102
C 25.76231 14.87975 0.02555
C 25.77173 13.45725 0.01423
C 24.51265 12.82409 -0.00285
C 24.74527 11.30517 -0.009
C 25.72723 10.57145 -0.01199
C 25.83151 5.054 -0.00229
C 24.55476 2.92258 -0.00938
C 18.35123 13.52245 0.02691
C 2.38763 32.68361 0.00662
