425
Graphene
C 34.40822 0.00118 0.01295
C 12.25979 17.16363 0.00572
C 12.30322 15.75002 0.03592
C 13.52174 15.01765 0.00406
C 13.47995 13.47318 0.00943
C 12.18398 12.8182 0.02841
C 12.31151 11.29782 -0.01111
C 13.50917 10.62356 -0.01275
C 12.38267 2.80001 0.00985
C 13.57338 2.0211 -0.02245
C 13.55426 0.58262 -0.00428
C 13.5063 17.79023 0.0402
C 12.26388 34.05956 0.03101
C 16.06897 31.88009 -0.02689
C 16.03427 30.43856 -0.01046
C 14.76238 29.82132 -0.00891
C 14.70893 28.34219 0.02819
C 15.95909 27.68201 0.00165
C 15.96349 26.26083 -0.02971
C 14.76987 25.6089 0.02894
C 14.776 24.17915 -0.01789
C 15.9268 23.44287 0.00444
C 15.91123 22.04015 -0.00925
C 14.76103 32.60922 -0.01536
C 13.53151 19.26031 -0.02759
C 12.32313 19.95367 0.03589
C 12.27381 21.32382 -0.00033
C 11.05285 17.85657 -0.01384
C 9.84401 17.10124 0.03693
C 9.89305 15.71497 0.01745
C 11.12938 14.99943 0.00488
C 11.02409 13.62684 -0.01004
C 9.75055 13.02305 -0.02896
C 9.75596 11.53498 -0.00131
C 10.91933 10.83336 -0.01118
C 9.83988 2.89954 -0.014
C 11.09047 2.20592 0.02147
C 11.05035 0.7953 0.00373
C 9.80386 0.05981 -0.00191
C 12.26617 32.62431 0.00438
C 13.56022 31.90545 0.01291
C 13.58404 30.50585 0.00093
C 12.29935 29.84526 0.00057
C 12.31703 28.47016 -0.01634
C 13.46376 27.70389 -0.00334
C 13.43533 26.25973 0.02339
C 12.26981 25.48926 0.01641
C 12.2653 24.14054 -0.00719
C 13.54016 23.48167 0.01364
C 13.43338 22.0366 -0.01062
C 14.6761 21.34192 0.01877
C 11.08038 19.23388 -0.00482
C 14.7593 19.93082 0.01363
C 15.92375 17.73306 0.00415
C 17.20168 19.91809 0.0351
C 18.46532 19.20039 -0.03113
C 18.40858 17.7342 0.02098
C 17.07322 17.01726 0.01848
C 17.13053 15.58195 -0.00619
C 18.41596 14.95169 -0.02162
C 18.42062 13.48349 0.00889
C 17.15352 12.7568 -0.00481
C 17.18181 11.29344 0.00979
C 18.46403 10.47076 0.01443
C 17.21319 21.26593 0.00422
C 18.50226 9.16021 0.03505
C 17.08474 7.00906 -0.04147
C 18.32691 6.31373 -0.05302
C 18.2151 4.96423 0.00213
C 16.95483 4.2789 -0.00066
C 17.16875 2.85696 -0.00289
C 18.46213 2.21839 0.00028
C 18.46283 0.7727 -0.02213
C 17.24267 0.04201 0.03698
C 19.77658 32.6774 -0.00109
C 20.99129 31.9748 -0.00491
C 17.16311 8.47513 -0.02815
C 18.41982 22.00372 0.00798
C 18.42107 23.35876 0.00228
C 17.1697 24.07531 -0.00114
C 14.703 17.09271 -0.0014
C 14.78274 15.63969 0.02162
C 15.94629 14.88057 0.0076
C 15.87644 13.48869 0.01241
C 14.66519 12.78851 -0.01454
C 14.6447 11.41026 0.01945
C 15.88659 10.64056 0.01416
C 15.96279 9.21411 0.03542
C 15.89022 6.34711 0.02299
C 15.68714 4.89708 0.00244
C 14.52344 4.08062 -0.01717
C 14.80311 2.71671 0.05265
C 16.05435 2.03188 -0.01952
C 16.00655 0.58721 -0.02813
C 14.80451 33.98727 0.00374
C 17.28433 32.7118 0.00052
C 18.50895 31.8984 -0.03682
C 18.44928 30.52445 0.01965
C 17.22162 29.8882 0.02058
C 17.25756 28.46896 -0.01957
C 18.45474 27.65672 -0.0108
C 18.42168 26.24591 -0.00368
C 17.1538 25.57853 -0.02696
C 15.97786 19.20233 -0.02162
C 9.82141 19.97007 0.02888
C 9.80003 21.33231 0.00685
C 10.99192 22.07564 0.00895
C 3.63114 2.19326 -0.00449
C 3.68049 0.74258 -0.01979
C 2.41507 34.03738 0.02784
C 4.98868 32.78128 -0.01977
C 6.17543 32.01961 -0.00561
C 6.14905 30.57675 0.00208
C 4.91334 29.89225 0.01707
C 4.93091 28.4625 0.02769
C 6.13816 27.70204 -0.03291
C 6.1553 26.25632 -0.04999
C 2.32817 2.86045 0.00211
C 4.94727 25.56832 0.04505
C 6.14693 23.46186 -0.04307
C 6.15203 22.06017 0.03189
C 4.91234 21.38002 0.00031
C 4.94824 19.89915 -0.003
C 6.1471 19.15515 0.01402
C 6.12685 17.74152 0.02379
C 4.83577 17.10369 0.00907
C 4.8809 15.69268 0.00643
C 6.14068 14.93867 -0.01509
C 6.09436 13.49359 0.03267
C 4.89545 24.18807 0.03284
C 2.34636 4.27747 0.0064
C 3.58889 5.07218 -0.00039
C 3.56209 6.47178 0.02728
C 3.70532 30.51936 -0.01471
C 2.52024 29.75327 -0.02827
C 2.47703 28.33 0.01078
C 3.75138 27.75594 -0.00112
C 3.73244 26.2792 0.03345
C 2.47831 25.59419 0.00748
C 2.46121 24.18027 0.00662
C 3.67965 23.45818 -0.0154
C 3.74121 22.02811 -0.01299
C 2.48399 21.29798 -0.00407
C 2.51669 19.89119 0.01138
C 3.68626 19.15232 0.03278
C 3.65044 17.76448 -0.00177
C 2.46723 16.9941 0.04421
C 2.43175 15.64291 0.00088
C 3.63191 14.9005 0.00828
C 3.67651 13.48656 -0.02375
C 2.34418 12.8364 0.00558
C 2.31724 11.32376 -0.0059
C 3.53764 10.60747 -0.01386
C 3.66194 9.23521 -0.02805
C 2.37947 8.53621 0.00081
C 2.32791 7.1243 0.00245
C 4.83789 12.73881 0.02374
C 4.78995 11.32384 0.00402
C 6.10805 10.61805 0.0073
C 6.2529 9.17558 0.0174
C 8.53432 13.66032 0.01227
C 7.36996 12.80281 0.00873
C 7.28221 11.44488 -0.00049
C 8.50069 10.76766 0.00848
C 8.69648 9.34859 -0.01303
C 7.55098 8.50315 -0.01378
C 7.45682 6.85965 0.02635
C 8.2438 5.57362 0.0127
C 7.37755 4.38094 0.01396
C 7.32045 2.91733 0.01849
C 8.61377 2.24673 -0.01142
C 8.54325 0.82651 -0.00562
C 7.34009 0.117 -0.00494
C 9.7973 32.71529 0.00054
C 11.08735 31.9391 0.03007
C 11.0425 30.5611 -0.00095
C 9.8358 29.85404 0.01572
C 9.84789 28.39547 -0.04848
C 11.06686 27.73355 -0.00892
C 11.07428 26.28406 -0.01362
C 9.84095 25.64409 -0.0008
C 9.81891 24.25428 0.0288
C 11.01851 23.52333 0.00393
C 8.62458 15.01672 -0.03337
C 20.95296 30.55404 0.03338
C 7.40363 15.63193 -0.00966
C 8.63093 17.80185 0.03368
C 4.933 8.55604 0.03828
C 4.76952 7.23074 0.01226
C 6.12652 6.48745 -0.00279
C 6.10166 5.07571 0.01996
C 4.91378 4.43764 -0.03996
C 4.85052 2.98049 0.01465
C 6.07616 2.26536 -0.00074
C 6.15063 0.82112 -0.00518
C 4.95238 0.084 0.0086
C 7.3636 32.73382 -0.00643
C 8.52173 31.99489 0.017
C 8.54385 30.62356 -0.03113
C 7.358 29.89676 -0.02566
C 7.37494 28.46995 -0.00094
C 8.56884 27.75591 0.02322
C 8.54972 26.35534 -0.00725
C 7.35525 25.67308 -0.05697
C 7.35917 24.25135 0.01087
C 8.65052 23.48562 -0.01343
C 8.59481 22.02826 0.00988
C 7.37581 21.2655 0.0276
C 7.35143 19.92381 0.01305
C 8.58856 19.23059 -0.00077
C 7.3896 17.11073 -0.02929
C 3.69657 31.97806 0.01218
C 19.63507 29.80927 -0.0258
C 20.91048 27.62405 -0.00316
C 29.50192 11.34858 -0.02155
C 30.76631 10.65335 -0.00944
C 30.70007 9.12272 -0.03735
C 29.47971 8.50774 -0.00971
C 29.50213 7.01456 0.01518
C 30.73921 6.26881 0.01908
C 30.67243 4.85985 0.07705
C 29.44634 4.2123 0.0103
C 29.46213 2.82463 0.02108
C 30.66037 2.08105 0.00716
C 29.46155 12.74303 -0.01461
C 30.68824 0.68903 0.00307
C 32.00019 32.58894 0.01713
C 33.19733 31.8688 -0.01694
C 33.18439 30.46281 0.01428
C 31.99806 29.72854 -0.02142
C 32.00583 28.26202 0.0544
C 33.22385 27.62973 0.00026
C 33.15143 26.26003 0.00682
C 31.87874 25.5889 -0.01779
C 31.91946 24.10517 0.03794
C 33.15178 23.41007 0.01927
C 29.44988 34.02956 0.00346
C 30.67347 13.50229 -0.01303
C 30.70615 14.96164 -0.0405
C 29.49637 15.64915 0.01705
C 28.22163 6.3522 0.01094
C 28.1018 4.94276 0.00235
C 26.7801 4.39619 0.01495
C 26.9096 2.96609 0.01259
C 28.17156 2.2537 0.01799
C 28.2754 0.74132 0.01699
C 27.04448 34.0062 -0.00416
C 29.52918 32.55336 0.01177
C 30.75605 31.89368 0.04266
C 30.83224 30.451 0.01324
C 29.47275 29.76113 0.0014
C 29.49287 28.35811 0.00924
C 30.71707 27.64742 0.02326
C 30.69211 26.23533 0.00261
C 29.4659 25.45665 0.03265
C 29.45106 24.13817 -0.02049
C 30.68304 23.4012 -0.01854
C 30.70867 21.9851 -0.01415
C 29.44156 21.26815 -0.03039
C 29.45431 19.89416 0.01836
C 30.68776 19.22045 0.03531
C 30.75549 17.76534 -0.00669
C 29.53374 16.99805 0.0101
C 33.159 21.97009 0.01574
C 26.97129 7.17824 0.02198
C 31.88377 21.31963 -0.02383
C 33.17521 19.15696 -0.0136
C 1.23237 23.43646 0.00723
C 1.21078 21.99631 0.02712
C 34.37214 21.28475 -0.02213
C 0.00485 19.87027 0.01951
C 1.22992 19.18591 -0.01678
C 1.22481 17.76551 0.01223
C 0.01916 17.12618 0.00648
C 0.00164 15.67694 0.02114
C 1.18838 14.92871 -0.02957
C 1.10521 13.43849 0.00343
C 34.43251 24.1177 0.03076
C 34.33681 12.76861 -0.02656
C 1.10569 10.61543 -0.00027
C 1.15929 9.16102 -0.00583
C 34.37791 8.39779 -0.02302
C 34.28251 7.00935 -0.02849
C 1.14168 6.38359 0.02931
C 1.13612 4.97648 0.00628
C 34.34214 4.19414 -0.0345
C 34.34153 2.83629 -0.00931
C 1.15289 2.1305 -0.00939
C 1.13868 0.72164 -0.00468
C 34.36804 11.35107 -0.02442
C 34.39366 25.5237 -0.05239
C 1.23108 26.17657 -0.00598
C 1.23457 27.65734 -0.00439
C 33.25963 17.77082 0.00594
C 32.02308 17.07502 -0.02474
C 31.95056 15.73604 0.00369
C 33.11408 14.97859 0.00455
C 33.13569 13.535 -0.00644
C 31.96906 12.75937 -0.01839
C 32.00775 11.36929 0.00137
C 33.17453 10.62175 0.00199
C 33.18038 9.17423 0.04381
C 31.9127 8.52409 0.02806
C 31.93859 7.05237 0.01504
C 33.13293 6.32284 -0.00069
C 33.17198 4.89228 0.04926
C 31.89464 4.18834 -0.03838
C 31.92616 2.72044 0.00349
C 33.20226 2.06198 -0.00323
C 33.21084 0.67868 -0.00841
C 31.97517 33.97357 0.0001
C 0.04581 32.618 -0.02927
C 1.25291 31.87858 -0.01404
C 1.26206 30.49764 0.01027
C 0.03137 29.80482 0.01831
C 34.43118 28.34377 -0.01037
C 31.90506 19.88309 -0.01429
C 27.07281 8.5355 0.02611
C 28.23553 9.21588 -0.00621
C 28.26549 10.7005 0.00194
C 22.12971 29.82642 0.00742
C 22.10209 28.39157 -0.01594
C 23.41565 27.66762 0.0106
C 23.372 26.20977 -0.01154
C 22.03311 25.56104 -0.01721
C 22.0986 24.15844 -0.02422
C 23.28938 23.34825 0.01277
C 23.34246 21.96969 0.00096
C 22.07328 21.29435 -0.01527
C 22.11327 19.92186 0.01087
C 23.41604 30.53591 -0.00311
C 23.33366 19.19127 0.00199
C 22.06365 17.04756 -0.00478
C 22.10403 15.63944 -0.01662
C 23.35742 14.94848 -0.01185
C 23.32154 13.5154 0.01126
C 22.10798 12.75145 0.01852
C 22.14851 11.33466 -0.00381
C 23.37068 10.54608 0.03046
C 23.30339 9.16389 0.0296
C 22.19484 2.94536 0.03374
C 23.37617 2.19171 -0.02845
C 23.29174 17.75563 0.01511
C 23.43565 31.96507 0.00675
C 22.14326 32.70149 -0.00865
C 19.68154 0.01623 0.0058
C 20.79818 26.19708 0.02188
C 19.67385 25.52244 -0.01979
C 19.61459 24.13092 0.02691
C 20.83382 23.46119 -0.01581
C 20.85353 22.05708 0.01452
C 19.60583 21.34086 0.04892
C 19.63058 19.87883 -0.00111
C 20.90855 19.19799 -0.03557
C 20.83974 17.75756 0.03754
C 19.63549 17.08517 0.01739
C 19.62236 15.64643 0.00755
C 20.84308 14.91325 -0.0054
C 20.87753 13.46492 0.00667
C 19.59971 12.76086 0.00143
C 19.64908 11.33335 -0.017
C 20.95362 10.57911 0.00364
C 21.12534 9.21439 -0.00831
C 19.84426 8.45687 -0.02957
C 19.47397 7.01386 -0.04422
C 19.6092 4.29161 0.00654
C 19.75144 2.88931 -0.00703
C 20.95584 2.18529 -0.04076
C 20.96074 0.8065 -0.00652
C 23.43956 0.68278 -0.03213
C 22.11779 34.06341 0.02239
C 24.60611 32.68057 0.01153
C 25.84372 31.95799 0.02734
C 25.78939 0.69914 -0.01154
C 24.69749 34.06367 0.00684
C 27.02409 32.64322 -0.01052
C 28.23831 31.95973 -0.01679
C 28.34671 30.51906 0.00367
C 27.10135 29.7565 0.04306
C 27.0615 28.34729 0.00996
C 28.29495 27.66878 0.00195
C 28.31797 26.19184 -0.00802
C 27.10591 25.48692 -0.00218
C 27.0475 24.11373 -0.01654
C 28.24546 23.44101 -0.00037
C 28.23555 21.97724 -0.0032
C 27.03097 21.27358 0.00622
C 27.04782 19.88734 -0.02815
C 28.27195 19.15695 -0.00942
C 28.31347 17.74071 0.00487
C 27.04246 17.02319 0.00826
C 27.05563 15.6271 -0.00294
C 28.25666 14.97686 0.00152
C 28.23814 13.44287 0.01257
C 27.10101 12.7419 0.02316
C 27.01316 11.34644 0.04185
C 25.80875 2.18615 -0.0264
C 19.73008 28.39708 -0.0331
C 24.54982 2.85248 -0.00938
C 25.57911 5.15289 -0.01199
C 25.88513 30.4735 -0.0055
C 24.63329 29.79083 0.01515
C 24.60161 28.4022 -0.00225
C 25.78368 27.58964 0.00071
C 25.84645 26.18023 -0.01107
C 24.56918 25.53791 -0.01586
C 24.47301 24.11451 -0.01971
C 25.75645 23.46429 -0.02118
C 25.76663 21.95619 0.00733
C 24.50457 21.32005 -0.00178
C 24.59397 19.93576 0.00768
C 25.75083 19.20185 -0.0276
C 25.80068 17.69096 0.03005
C 24.57876 17.09376 -0.04078
C 24.59309 15.64705 0.02117
C 25.81477 14.92535 0.02737
C 25.79884 13.45262 -0.00498
C 24.58864 12.76816 0.00135
C 24.51069 11.33131 0.03102
C 25.74599 10.70401 0.02555
C 25.78094 9.27228 0.01423
C 24.65522 8.41321 -0.00285
C 25.67152 6.74968 -0.009
C 24.44502 4.24448 -0.00229
C 2.4846 32.65216 0.02426
