398
Graphene
C 34.42667 0.0126 0.01295
C 13.4317 32.00673 0.02894
C 13.50206 30.55891 -0.01789
C 12.30383 29.80947 0.00444
C 12.16961 28.41881 -0.00925
C 13.37124 27.67582 0.01877
C 13.40176 26.30085 0.01363
C 12.26367 25.60924 -0.02162
C 12.3328 24.17023 0.00415
C 13.50742 23.47969 -0.0014
C 12.28281 32.74063 -0.02971
C 13.49042 21.97557 0.02162
C 12.24484 19.83796 0.01241
C 13.43664 19.16356 -0.01454
C 13.65038 4.81837 0.01945
C 12.42095 4.35305 0.01416
C 12.35107 2.92505 0.03542
C 13.59539 2.15931 0.02299
C 13.54014 0.69637 0.00244
C 12.24339 0.08509 -0.01717
C 14.72297 32.66269 0.05265
C 12.30552 21.34541 0.0076
C 9.78021 0.12092 0.00165
C 11.04837 0.74241 0.02819
C 11.08279 2.19745 -0.00891
C 10.97865 26.29112 -0.00719
C 9.74729 25.60329 0.01364
C 9.84469 24.20273 -0.01062
C 11.04554 23.45847 -0.00033
C 11.02899 22.10162 0.03589
C 9.77238 21.3579 -0.02759
C 9.7315 19.87322 0.0402
C 11.01027 19.08787 0.00572
C 11.15019 17.73408 0.03592
C 9.91014 16.91238 0.00406
C 9.82658 15.50165 0.00943
C 9.93731 12.97327 0.02841
C 9.94604 11.52815 -0.01111
C 11.07333 10.69355 -0.01275
C 11.05398 9.27994 0.00985
C 9.92992 8.52963 -0.02245
C 9.88866 7.19453 -0.00428
C 11.1823 6.50976 0.03101
C 11.10556 5.15292 -0.01536
C 9.80035 4.33619 -0.02689
C 9.81123 2.93158 -0.01046
C 15.95357 32.01705 -0.01952
C 15.9722 30.51235 -0.02813
C 14.67758 29.83545 0.00374
C 14.62414 28.45799 0.00052
C 17.16879 21.4005 0.00213
C 17.18904 19.90721 -0.00066
C 18.39218 19.18594 -0.00289
C 18.29996 17.73653 0.00028
C 18.36349 4.92034 -0.02213
C 17.1834 4.30487 0.03698
C 17.22119 2.89478 -0.00109
C 18.48863 2.14942 -0.00491
C 18.50261 0.67056 0.03338
C 17.2991 34.05489 -0.0258
C 19.60009 32.72925 -0.0331
C 20.95955 31.94496 -0.00316
C 20.91183 30.52059 0.02188
C 19.66823 29.83142 -0.01979
C 19.52771 28.42797 0.02691
C 20.78173 27.67237 -0.01581
C 20.85321 26.31097 0.01452
C 19.62638 25.55264 0.04892
C 19.69563 24.12768 -0.00111
C 20.84014 23.38099 -0.03557
C 20.80478 21.99069 0.03754
C 18.34947 22.10585 -0.05302
C 10.97191 27.68703 0.01641
C 18.44794 23.42322 -0.04147
C 17.14415 25.54193 0.03505
C 15.87819 27.70404 -0.03682
C 15.92716 26.30339 0.01965
C 14.71016 25.65633 0.02058
C 14.7098 24.19999 -0.01957
C 15.90031 23.37557 -0.0108
C 15.86954 21.92864 -0.00368
C 14.73031 21.21013 -0.02696
C 14.74415 19.6557 -0.00114
C 16.07451 19.09916 0.00228
C 14.85491 4.20684 0.00798
C 14.8703 2.84068 0.00422
C 16.10195 2.08933 0.0351
C 15.9422 0.63988 -0.03113
C 14.71645 34.01797 0.02098
C 17.2062 32.71502 0.01848
C 18.42144 31.99693 -0.00619
C 18.48403 30.55394 -0.02162
C 17.26824 29.81886 0.00889
C 17.1903 28.36843 -0.00481
C 18.3509 27.60405 0.00979
C 18.3899 26.20214 0.01443
C 17.15182 24.16733 -0.02815
C 9.80808 28.4012 0.02339
C 9.80563 29.88087 -0.00334
C 11.05287 30.59461 -0.01634
C 2.42195 4.36149 0.0174
C 2.40266 2.92879 0.03828
C 3.66428 2.24352 0.01226
C 3.64067 0.85803 -0.00279
C 2.47064 0.09646 0.01996
C 4.86562 32.74976 -0.03996
C 6.04282 32.1003 0.01465
C 6.07896 30.61635 -0.00074
C 4.87732 29.86599 -0.00518
C 4.83835 28.47039 0.0086
C 6.13956 27.71229 -0.00643
C 6.08602 26.34817 0.017
C 4.87773 25.60954 -0.03113
C 4.8882 24.11977 -0.02566
C 6.16244 23.39339 -0.00094
C 6.07861 22.0148 0.02322
C 4.81659 21.27487 -0.00725
C 4.84765 19.85437 -0.05697
C 6.04208 19.19694 0.01087
C 6.19923 17.77178 -0.01343
C 5.00583 17.03109 0.00988
C 3.57797 5.0479 0.0073
C 4.85365 15.52628 0.0276
C 3.60112 6.47835 0.00402
C 2.43742 8.52911 0.03267
C 3.64146 30.62197 -0.00449
C 2.41318 29.92648 -0.01979
C 2.37241 28.45674 0.02784
C 3.71729 27.72813 -0.01977
C 3.69727 26.2378 -0.00561
C 2.45471 25.58772 0.00208
C 2.45338 24.14855 0.01707
C 3.62532 23.33337 0.02769
C 3.61774 22.00709 -0.03291
C 2.40037 21.21863 -0.04999
C 2.40675 19.85146 0.04505
C 3.62531 19.17313 0.03284
C 3.68435 17.79062 -0.04307
C 2.4097 17.10208 0.03189
C 2.35885 15.62429 0.00031
C 3.54624 14.84033 -0.003
C 3.60445 13.47677 0.01402
C 2.36655 12.76448 0.02379
C 2.43408 11.30471 0.00907
C 3.73391 10.69442 0.00643
C 3.61311 9.29828 -0.01509
C 2.39311 7.15234 0.02374
C 19.562 21.31719 0.01739
C 6.12404 14.95778 0.01305
C 4.88889 12.80476 0.03368
C 8.57129 19.12678 0.00393
C 8.66099 17.73141 0.00895
C 7.40411 17.06015 0.00685
C 7.27722 15.61968 0.02888
C 8.54739 14.84137 -0.00482
C 8.61018 13.49888 -0.01384
C 7.41255 12.79208 0.03693
C 7.5082 11.38822 0.01745
C 8.73441 10.77584 0.00488
C 8.66473 9.33989 -0.01004
C 7.38334 8.62467 -0.02896
C 7.3078 7.22126 -0.00131
C 8.5836 6.41784 -0.01118
C 8.61988 4.99319 -0.014
C 7.30523 4.33919 0.02147
C 7.38866 2.9152 0.00373
C 8.57879 2.28532 -0.00191
C 8.55015 0.85294 0.00438
C 7.36735 0.04811 0.01291
C 9.79436 32.70304 0.00093
C 11.03153 32.03327 0.00057
C 7.35519 19.86786 0.0288
C 6.10048 13.41307 -0.00077
C 7.3265 21.23977 -0.0008
C 8.56778 23.46469 -0.00892
C 4.95084 11.34589 -0.02929
C 6.26389 10.69577 -0.00966
C 6.11344 9.27445 -0.03337
C 4.90549 8.59942 0.01227
C 4.85906 7.20403 0.00873
C 6.09358 6.58891 -0.00049
C 6.07527 5.1754 0.00848
C 4.83756 4.37532 -0.01303
C 4.8834 2.97387 -0.01378
C 6.12547 2.17145 0.02635
C 6.07915 0.84041 0.0127
C 4.84459 0.10835 0.01396
C 7.35909 32.74825 0.01849
C 8.49917 32.04325 -0.01142
C 8.49216 30.62082 -0.00562
C 7.33715 29.91733 -0.00494
C 7.3811 28.50313 0.00054
C 8.56446 27.75687 0.03007
C 8.55061 26.28859 -0.00095
C 7.34735 25.6065 0.01572
C 7.33379 24.15076 -0.04848
C 8.51494 21.99426 -0.01362
C 19.61455 19.92006 0.00755
C 20.83063 19.1036 -0.0054
C 20.82028 17.67552 0.00667
C 29.25204 7.30228 0.01518
C 30.63799 6.52311 0.01908
C 30.65806 5.08902 0.07705
C 29.51006 4.27998 0.0103
C 29.55324 2.79078 0.02108
C 30.70264 2.06863 0.00716
C 30.72886 0.71356 0.00307
C 29.49102 0.07096 0.00346
C 31.9705 32.60918 0.01713
C 33.15924 31.92438 -0.01694
C 33.10238 30.50305 0.01428
C 31.90941 29.76469 -0.02142
C 31.92624 28.40631 0.0544
C 33.15972 27.62189 0.00026
C 33.08724 26.20255 0.00682
C 31.87756 25.588 -0.01779
C 31.83593 24.0871 0.03794
C 33.12259 23.40641 0.01927
C 33.09339 21.99737 0.01574
C 31.85002 21.32149 -0.02383
C 31.90048 19.85799 -0.01429
C 29.33276 8.83773 -0.00971
C 33.12682 19.2244 -0.0136
C 30.69106 9.28336 -0.03735
C 29.52218 11.32756 -0.02155
C 27.05266 34.04609 -0.00416
C 29.58373 32.65968 0.01177
C 30.78836 31.94134 0.04266
C 30.69765 30.50396 0.01324
C 29.53705 29.76011 0.0014
C 29.41854 28.39951 0.00924
C 30.71177 27.77872 0.02326
C 30.69072 26.26955 0.00261
C 29.41395 25.57737 0.03265
C 29.37544 24.13259 -0.02049
C 30.61608 23.41275 -0.01854
C 30.65873 21.97593 -0.01415
C 29.43928 21.33081 -0.03039
C 29.41887 19.85682 0.01836
C 30.65574 19.19614 0.03531
C 30.66752 17.74383 -0.00669
C 29.46993 17.05168 0.0101
C 29.44037 15.65232 0.01705
C 30.66815 14.96504 -0.0405
C 30.72625 13.45484 -0.01303
C 29.51257 12.74632 -0.01461
C 30.72162 10.75152 -0.00944
C 28.27105 0.70118 0.01699
C 33.11033 17.79942 0.00594
C 31.88573 15.62531 0.00369
C 1.25306 21.95717 0.02712
C 34.37828 21.31583 -0.02213
C 34.36973 19.86644 0.01951
C 1.14869 19.15338 -0.01678
C 1.17944 17.80214 0.01223
C 34.37894 17.0762 0.00648
C 34.36125 15.70441 0.02114
C 1.1436 14.90424 -0.02957
C 1.1336 13.56305 0.00343
C 34.3303 12.80969 -0.02656
C 34.42406 11.41248 -0.02442
C 1.18928 10.65437 -0.00027
C 1.17274 9.24756 -0.00583
C 34.40617 8.55823 -0.02302
C 34.32775 7.15192 -0.02849
C 1.11312 6.44123 0.02931
C 1.15923 5.05678 0.00628
C 34.41744 4.25084 -0.0345
C 0.04008 2.80752 -0.00931
C 1.21515 2.16428 -0.00939
C 1.23374 0.7443 -0.00468
C 1.21537 23.35304 0.00723
C 31.95295 17.09271 -0.02474
C 34.36372 24.04028 0.03076
C 1.1263 26.24024 -0.00598
C 33.12681 14.94938 0.00455
C 33.17069 13.57846 -0.00644
C 31.96317 12.82778 -0.01839
C 31.96226 11.43505 0.00137
C 33.20757 10.59273 0.00199
C 33.11968 9.2378 0.04381
C 31.84175 8.5211 0.02806
C 31.89647 7.14443 0.01504
C 33.09325 6.43747 -0.00069
C 33.1301 5.04009 0.04926
C 31.96792 4.37415 -0.03838
C 31.97366 2.88837 0.00349
C 33.20204 2.13801 -0.00323
C 33.22145 0.76054 -0.00841
C 32.02154 34.00788 0.0001
C 34.36831 32.69573 -0.02927
C 1.16978 32.0417 -0.01404
C 1.11543 30.61535 0.01027
C 34.3812 29.80138 0.01831
C 34.41263 28.38235 -0.01037
C 1.20911 27.64463 -0.00439
C 34.3904 25.50505 -0.05239
C 3.65465 32.08473 0.00211
C 28.16614 2.15284 0.01799
C 27.02386 4.25449 0.01495
C 22.05559 24.15964 0.01511
C 23.27436 23.40045 -0.00478
C 23.21995 21.99495 -0.01662
C 22.02942 21.2314 -0.01185
C 22.02095 19.83687 0.01126
C 23.25582 19.13595 0.01852
C 23.36452 17.67284 -0.00381
C 22.08482 17.01559 0.03046
C 22.26411 15.6149 0.0296
C 23.43145 14.87645 0.03374
C 23.4973 13.45983 -0.02845
C 22.2404 12.7329 -0.03213
C 22.26568 11.29965 0.02239
C 22.19203 8.07413 0.01153
C 22.23687 6.72251 0.02734
C 23.21572 5.38797 -0.0055
C 22.18877 4.30085 0.01515
C 22.04251 2.94704 -0.00225
C 23.24745 2.26022 0.00071
C 23.42384 0.87722 -0.01107
C 22.16526 0.09602 -0.01586
C 22.04783 25.5545 0.00199
C 24.63154 32.70998 -0.01971
C 23.27501 26.20595 0.01087
C 22.06025 28.42304 0.00096
C 19.50272 16.94967 0.00143
C 19.76333 15.62957 -0.017
C 20.98831 14.94606 0.00364
C 20.89838 13.46623 -0.00831
C 19.8025 12.69307 -0.02957
C 20.09958 11.35069 -0.04422
C 21.14645 10.50972 0.00654
C 21.0701 8.96287 -0.00703
C 19.69628 8.24026 -0.04076
C 19.75794 6.88296 -0.00652
C 20.81624 6.16291 0.0058
C 20.83627 4.80515 -0.00865
C 19.5997 4.21482 0.00675
C 19.6483 2.79168 -0.00311
C 20.89844 2.08568 0.00742
C 20.91339 0.78198 -0.01594
C 19.68613 34.07422 0.0106
C 22.16339 32.64042 -0.01154
C 23.39988 31.97953 -0.01721
C 23.38476 30.58787 -0.02422
C 22.11135 29.81748 0.01277
C 23.35485 27.67434 -0.01527
C 26.87013 2.85621 0.01259
C 25.86648 31.88153 -0.02118
C 24.56948 29.81626 -0.00178
C 27.0237 29.73533 -0.00802
C 27.05214 28.31246 -0.00218
C 28.25451 27.60774 -0.01654
C 28.14878 26.17856 -0.00037
C 26.884 25.50495 -0.0032
C 26.91563 24.15871 0.00622
C 28.20334 23.44495 -0.02815
C 28.17536 21.99891 -0.00942
C 26.95575 21.27673 0.00487
C 26.93318 19.89135 0.00826
C 28.19746 19.11018 -0.00294
C 28.16016 17.69938 0.00152
C 26.99092 16.98538 0.01257
C 26.99889 15.61679 0.02316
C 28.20767 15.02093 0.04185
C 28.26835 13.52416 0.00194
C 27.1541 12.67001 -0.00621
C 27.28723 11.19716 0.02611
C 28.36517 10.4023 0.02198
C 28.10402 6.36277 0.01094
C 28.28657 5.03256 0.00235
C 28.27276 30.53384 0.00195
C 25.84549 30.45947 0.00733
C 28.31021 31.90575 0.00996
C 24.57666 0.0813 0.00367
C 24.55093 28.31479 0.00768
C 25.79002 27.63116 -0.0276
C 25.72448 26.25763 0.03005
C 24.56657 25.62271 -0.04078
C 24.51396 24.10748 0.02117
C 25.73111 23.42788 0.02737
C 25.72516 22.02965 -0.00498
C 24.47666 21.33128 0.00135
C 24.476 19.90559 0.03102
C 25.68794 19.21161 0.02555
C 25.76651 17.75875 0.01423
C 24.58209 16.99681 -0.00285
C 24.63312 15.494 -0.009
C 25.8538 14.83907 -0.01199
C 25.92662 13.36839 -0.00229
C 24.70561 12.75816 -0.00938
C 25.89456 5.05018 -0.0264
C 24.5128 4.6663 -0.01154
C 24.50055 3.04502 0.00684
C 25.74424 2.27474 -0.01052
C 25.7472 0.74501 -0.01679
C 27.0602 32.63507 0.04306
C 2.38367 32.7468 0.0064
