375
Graphene
C 34.37612 34.06988 0.01295
C 12.25234 12.90945 0.02299
C 12.26487 11.50247 0.00244
C 13.57232 10.79684 -0.01717
C 13.55408 9.27158 0.05265
C 12.32026 8.60431 -0.01952
C 12.35029 7.11252 -0.02813
C 13.51986 6.37827 0.00374
C 13.57819 4.99826 0.00052
C 12.28958 4.25596 -0.03682
C 12.28565 2.82739 0.01965
C 13.55274 2.09354 0.02058
C 13.57234 0.58399 -0.01957
C 12.32384 34.00473 -0.0108
C 14.84591 32.57772 -0.00368
C 16.00299 31.91927 -0.02696
C 15.96186 30.40259 -0.00114
C 14.69672 29.72383 0.00228
C 14.59001 28.3508 0.00798
C 15.90689 27.56413 0.00422
C 13.51497 13.52873 0.03542
C 13.4873 27.62215 0.01416
C 12.40223 28.42099 0.01945
C 12.24689 29.92756 -0.01454
C 11.04644 27.87529 0.03101
C 10.97066 26.38069 -0.01536
C 9.88681 25.76745 -0.02689
C 10.89751 13.60403 -0.01046
C 9.7672 12.75069 -0.00891
C 9.77496 11.3638 0.02819
C 11.05199 10.68926 0.00165
C 11.03673 9.24409 -0.02971
C 9.85977 8.50413 0.02894
C 16.17395 26.13433 0.0351
C 9.84201 7.06489 -0.01789
C 11.08597 5.00026 -0.00925
C 9.88629 4.26445 0.01877
C 9.83367 2.82493 0.01363
C 11.08792 2.10838 -0.02162
C 11.07494 0.62876 0.00415
C 9.85001 34.06616 -0.0014
C 12.30882 32.58532 0.02162
C 13.49022 31.87061 0.0076
C 13.49889 30.48924 0.01241
C 11.14757 6.427 0.00444
C 9.79643 28.46074 -0.00428
C 16.13084 13.64762 -0.03113
C 14.76684 11.5791 0.01848
C 18.44571 9.27158 0.02691
C 17.21454 8.53869 -0.01581
C 17.23077 7.05793 0.01452
C 18.45822 6.3993 0.04892
C 18.47548 4.86402 -0.00111
C 17.22154 4.18686 -0.03557
C 17.29801 2.77627 0.03754
C 18.52766 2.06829 0.01739
C 18.50369 0.73257 0.00755
C 17.25925 33.98541 -0.0054
C 19.67601 32.60998 0.00667
C 20.90798 31.8881 0.00143
C 20.84782 30.43219 -0.017
C 19.60177 29.71714 0.00364
C 19.54941 28.28887 -0.00831
C 20.8332 27.61494 -0.02957
C 20.80612 26.22234 -0.04422
C 19.65389 25.50547 0.00654
C 19.61702 24.04556 -0.00703
C 18.46768 10.58211 -0.01979
C 17.22535 11.3786 0.02188
C 17.2689 12.82189 -0.00316
C 18.59946 13.79911 -0.0331
C 16.02684 10.72992 -0.00619
C 15.96499 9.32383 -0.02162
C 14.76388 8.56349 0.00889
C 14.78535 7.10713 -0.00481
C 16.05138 6.3834 0.00979
C 16.00223 4.89617 0.01443
C 14.77268 4.20076 0.03505
C 14.75198 2.76189 -0.02815
C 16.06079 2.11205 -0.04147
C 14.81016 13.029 0.02098
C 16.03261 0.68376 -0.05302
C 17.23668 32.57203 -0.00066
C 18.42619 31.84996 -0.00289
C 18.45222 30.3853 0.00028
C 17.14368 29.70168 -0.02213
C 17.09814 28.30505 0.03698
C 18.38896 27.56852 -0.00109
C 18.47119 26.18755 -0.00491
C 17.1849 25.54616 0.03338
C 18.57772 15.11963 -0.0258
C 14.83691 34.02777 0.00213
C 20.78967 23.25889 -0.04076
C 9.84633 29.84392 -0.02245
C 11.02339 31.97228 -0.01275
C 3.62005 4.98939 0.01305
C 2.41803 4.29621 -0.00077
C 2.3613 2.87309 0.03368
C 3.63172 2.15969 -0.02929
C 3.68767 0.73491 -0.00966
C 2.38201 0.03501 -0.03337
C 4.86072 32.67705 0.01227
C 6.13221 32.02808 0.00873
C 6.11446 30.58303 -0.00049
C 4.86121 29.88181 0.00848
C 4.8599 28.4976 -0.01303
C 6.11719 27.7307 -0.01378
C 6.12645 26.37286 0.02635
C 4.92249 25.5764 0.0127
C 4.91236 24.13045 0.01396
C 6.11772 23.4439 0.01849
C 6.10157 21.99072 -0.01142
C 4.81423 21.35536 -0.00562
C 4.8243 19.96711 -0.00494
C 3.56846 6.40276 0.0276
C 2.40553 7.08878 0.00988
C 2.4665 8.60238 -0.01343
C 3.62281 9.30099 0.01087
C 3.61878 30.57203 0.00402
C 2.38806 29.86037 0.0073
C 2.44081 28.40671 0.0174
C 3.70888 27.74771 0.03828
C 3.60163 26.24838 0.01226
C 2.44218 25.52921 -0.00279
C 2.40713 24.17314 0.01996
C 3.72992 23.4562 -0.03996
C 3.6648 22.07765 0.01465
C 6.20047 19.48226 0.00054
C 2.41866 21.34697 -0.00074
C 3.67275 19.19825 0.0086
C 3.71896 17.78926 -0.00643
C 2.47705 17.06939 0.017
C 2.51425 15.71855 -0.03113
C 3.79318 15.06702 -0.02566
C 3.71675 13.65084 -0.00094
C 2.47959 12.88018 0.02322
C 2.43568 11.43062 -0.00725
C 3.70456 10.71426 -0.05697
C 2.42894 19.89519 -0.00518
C 11.02996 30.55704 0.00985
C 6.27106 17.97449 0.03007
C 5.10053 15.82241 0.01572
C 7.15802 21.11266 0.00093
C 7.34952 17.17422 0.00057
C 7.6855 15.81529 -0.01634
C 8.76008 14.82592 -0.00334
C 8.60579 13.48737 0.02339
C 7.39802 12.87464 0.01641
C 7.35013 11.35535 -0.00719
C 8.57705 10.70208 0.01364
C 8.62354 9.3024 -0.01062
C 7.35992 8.59649 -0.00033
C 7.39909 7.18684 0.03589
C 8.61291 6.43123 -0.02759
C 8.63022 5.00996 0.0402
C 7.4143 4.32925 0.00572
C 7.36745 2.93046 0.03592
C 8.56821 2.10373 0.00406
C 8.68207 0.67879 0.00943
C 7.35537 0.0782 0.02841
C 9.77761 32.703 -0.01111
C 7.33546 24.20691 0.01291
C 7.35542 25.5722 0.00438
C 8.52045 26.39009 -0.00191
C 8.5542 27.75534 0.00373
C 6.30654 15.05937 -0.04848
C 6.19071 13.58921 -0.00892
C 4.9534 12.88044 -0.01362
C 4.92095 11.44106 -0.0008
C 6.20143 10.72933 0.0288
C 6.14183 9.2747 0.00393
C 4.80431 8.54621 0.00895
C 4.85677 7.12777 0.00685
C 6.17478 6.45797 0.02888
C 5.06925 17.23051 -0.00095
C 6.11885 5.02763 -0.00482
C 4.89599 2.85388 0.03693
C 6.1866 2.21665 0.01745
C 6.09657 0.77364 0.00488
C 4.90374 0.00881 -0.01004
C 7.32613 32.80476 -0.02896
C 8.51115 32.00894 -0.00131
C 8.57465 30.6679 -0.01118
C 7.36985 29.86611 -0.014
C 7.3444 28.50875 0.02147
C 4.93798 4.25543 -0.01384
C 3.60276 31.99583 0.02374
C 20.7916 21.77587 -0.00652
C 20.75841 18.98655 -0.00865
C 30.73971 2.24579 0.00716
C 30.73266 0.7931 0.00307
C 29.47122 0.0323 0.00346
C 31.95787 32.70618 0.01713
C 33.13883 32.0316 -0.01694
C 33.11691 30.57931 0.01428
C 31.95191 29.91862 -0.02142
C 31.93728 28.41237 0.0544
C 33.16238 27.69868 0.00026
C 33.19743 26.25078 0.00682
C 31.93121 25.54618 -0.01779
C 31.92871 24.15736 0.03794
C 33.15507 23.42073 0.01927
C 33.14678 21.9961 0.01574
C 31.88737 21.24745 -0.02383
C 31.87828 19.87959 -0.01429
C 33.14833 19.11751 -0.0136
C 33.11077 17.7002 0.00594
C 31.89777 17.08923 -0.02474
C 29.47443 2.84311 0.02108
C 29.41019 4.33447 0.0103
C 30.67219 5.05337 0.07705
C 30.76613 6.47624 0.01908
C 30.64239 27.72023 0.02326
C 30.63471 26.31752 0.00261
C 29.51665 25.61923 0.03265
C 29.43521 24.14394 -0.02049
C 30.63988 23.43519 -0.01854
C 30.68738 22.0314 -0.01415
C 29.38239 21.32855 -0.03039
C 29.47126 19.77487 0.01836
C 30.66474 19.14363 0.03531
C 31.92273 15.65792 0.00369
C 30.60889 17.72335 -0.00669
C 29.36368 15.57458 0.01705
C 30.69182 14.91384 -0.0405
C 30.66856 13.54628 -0.01303
C 29.38468 13.01341 -0.01461
C 29.38807 11.48619 -0.02155
C 30.70464 10.7359 -0.00944
C 30.69899 9.33071 -0.03735
C 29.49387 8.57865 -0.00971
C 29.47413 7.08368 0.01518
C 29.52086 17.0026 0.0101
C 29.42941 28.36223 0.00924
C 33.11847 14.96348 0.00455
C 32.02645 12.79114 -0.01839
C 34.30044 19.86513 0.01951
C 1.15353 19.1864 -0.01678
C 1.21078 17.78462 0.01223
C 34.34131 17.02089 0.00648
C 34.42125 15.65148 0.02114
C 1.21501 15.00951 -0.02957
C 1.24986 13.5261 0.00343
C 0.05545 12.82812 -0.02656
C 34.42574 11.45302 -0.02442
C 1.20866 10.75148 -0.00027
C 1.16323 9.30154 -0.00583
C 0.00925 8.55802 -0.02302
C 34.42713 7.12868 -0.02849
C 1.21238 6.51807 0.02931
C 1.20688 5.02716 0.00628
C 0.02324 4.31456 -0.0345
C 34.3369 2.87999 -0.00931
C 1.15837 2.20377 -0.00939
C 1.07288 0.73922 -0.00468
C 34.33828 21.28177 -0.02213
C 1.20175 21.98581 0.02712
C 1.20897 23.43397 0.00723
C 0.00477 24.11068 0.03076
C 31.94155 11.41792 0.00137
C 33.18051 10.69613 0.00199
C 33.25081 9.24322 0.04381
C 32.00496 8.58949 0.02806
C 32.04039 7.13941 0.01504
C 33.19325 6.35327 -0.00069
C 33.24648 4.9564 0.04926
C 31.97534 4.30588 -0.03838
C 31.94494 2.87329 0.00349
C 33.2433 13.57348 -0.00644
C 33.11683 2.1283 -0.00323
C 31.96035 0.06971 0.0001
C 34.37299 32.67818 -0.02927
C 1.14946 31.97772 -0.01404
C 1.14251 30.62266 0.01027
C 34.38285 29.85741 0.01831
C 34.43206 28.42093 -0.01037
C 1.25435 27.73295 -0.00439
C 1.22833 26.32458 -0.00598
C 0.04108 25.59053 -0.05239
C 33.16749 0.72677 -0.00841
C 19.816 20.73725 0.0058
C 29.44365 29.79042 0.0014
C 30.69587 31.9981 0.04266
C 22.06374 21.18144 -0.03213
C 22.09929 19.70181 0.02239
C 23.27783 19.06172 0.01153
C 22.03049 8.53601 0.02734
C 22.11583 7.07497 -0.0055
C 23.35485 6.32439 0.01515
C 23.38884 4.96872 -0.00225
C 22.1976 4.15846 0.00071
C 22.18426 2.74581 -0.01107
C 23.4307 2.01851 -0.01586
C 23.41454 0.6177 -0.01971
C 22.18065 34.0091 -0.02118
C 24.68177 32.54566 0.00733
C 25.83187 31.8856 -0.00178
C 25.85537 30.50794 0.00768
C 24.63979 29.76108 -0.0276
C 24.61438 28.37236 0.03005
C 25.81429 27.65204 -0.04078
C 25.8285 26.18635 0.02117
C 23.28143 21.8186 -0.02845
C 23.18397 23.36596 0.03374
C 21.99845 24.03978 0.0296
C 21.98909 25.48525 0.03046
C 19.65122 18.02258 0.00675
C 19.52232 16.59693 -0.00311
C 19.64997 11.3342 0.00742
C 20.91169 9.19868 -0.01594
C 19.69529 8.4912 0.0106
C 19.67469 7.07722 -0.01154
C 20.85929 6.37476 -0.01721
C 20.9312 4.9543 -0.02422
C 19.72825 4.16948 0.01277
C 24.55938 25.52354 0.02737
C 19.6964 2.84189 0.00096
C 20.90285 0.5954 0.01087
C 19.68525 33.99829 0.00199
C 22.14375 32.57332 0.01511
C 23.3944 31.86402 -0.00478
C 23.31647 30.44381 -0.01662
C 22.02483 29.72776 -0.01185
C 22.06842 28.34933 0.01126
C 23.30229 27.62386 0.01852
C 23.24613 26.18316 -0.00381
C 20.92327 2.06237 -0.01527
C 30.77807 30.59522 0.01324
C 24.51038 24.1408 -0.00498
C 25.76503 21.92078 0.03102
C 28.23018 22.01333 0.00487
C 26.98726 21.19155 0.00826
C 26.94102 19.73759 -0.00294
C 28.18732 19.19049 0.00152
C 28.28015 17.72174 0.01257
C 26.94525 17.183 0.02316
C 28.19648 14.83172 0.04185
C 28.35407 10.62001 0.00194
C 28.22373 9.26563 -0.00621
C 26.99852 8.58287 0.02611
C 26.97049 7.09771 0.02198
C 28.22277 6.46592 0.01094
C 28.19325 4.9948 0.00235
C 27.00062 4.34412 0.01495
C 26.9914 2.92419 0.01259
C 28.2471 2.21397 0.01799
C 28.21886 0.69003 0.01699
C 27.01916 0.03062 -0.00416
C 29.46575 32.63821 0.01177
C 28.2164 23.5006 -0.00942
C 26.99215 24.11525 -0.02815
C 27.03331 25.51333 0.00622
C 28.2424 26.22017 -0.0032
C 24.50315 21.19268 0.02555
C 24.49367 19.81384 0.01423
C 25.69705 19.04091 -0.00285
C 25.81684 17.6284 -0.009
C 25.67928 9.11143 -0.01199
C 24.62321 8.53929 -0.00229
C 24.5621 7.02455 -0.00938
C 25.79917 6.44179 -0.0264
C 25.78275 5.02811 -0.01154
C 25.74468 23.32072 0.00135
C 24.63715 4.19509 0.00684
C 25.86785 2.11203 -0.01679
C 25.80771 0.77802 0.00367
C 24.59451 33.98967 0.04306
C 27.06979 32.61555 0.00996
C 28.29905 31.92796 0.00195
C 28.26225 30.49399 -0.00802
C 27.01038 29.79245 -0.00218
C 27.0559 28.39883 -0.01654
C 28.22215 27.65923 -0.00037
C 24.59738 2.78038 -0.01052
C 2.37442 32.75635 0.03267
