377
Graphene
C 34.34617 0.04258 0.01295
C 16.10812 19.14327 0.03542
C 15.81407 17.94755 0.02299
C 15.1114 16.8731 0.00244
C 14.62108 15.73562 -0.01717
C 15.01841 8.62544 0.05265
C 14.77388 7.18492 -0.01952
C 15.90723 6.35198 -0.02813
C 15.94314 4.99023 0.00374
C 14.70503 4.23433 0.00052
C 14.75093 2.82126 -0.03682
C 15.96971 2.10399 0.01965
C 16.03603 0.67152 0.02058
C 14.87869 34.05762 -0.01957
C 17.22807 32.57673 -0.0108
C 18.42055 31.93709 -0.00368
C 18.37635 30.45347 -0.02696
C 17.16671 29.7411 -0.00114
C 17.15751 28.3503 0.00228
C 18.43528 27.62284 0.00798
C 16.01558 22.11765 0.01416
C 16.09477 23.38361 0.01945
C 15.87684 26.16588 -0.01454
C 15.91092 27.59964 0.01241
C 12.17654 15.60739 -0.00428
C 13.43851 15.31218 0.03101
C 12.42071 12.91643 -0.01536
C 12.43829 11.49791 -0.02689
C 13.46325 10.60958 -0.01046
C 13.77223 9.30829 -0.00891
C 12.36273 8.60021 0.02819
C 12.32316 7.20407 0.00165
C 13.55854 6.46502 -0.02971
C 18.39697 26.2575 0.00422
C 13.50737 4.98537 0.02894
C 12.34119 2.87906 0.00444
C 13.55182 2.05432 -0.00925
C 13.57249 0.60044 0.01877
C 12.35603 34.05171 0.01363
C 14.8493 32.58079 -0.02162
C 15.98274 31.8465 0.00415
C 15.99122 30.43745 -0.0014
C 14.74477 29.77285 0.02162
C 14.80072 28.31809 0.0076
C 12.29159 4.3212 -0.01789
C 13.39803 27.88377 -0.02245
C 17.17433 25.59038 0.0351
C 18.38195 23.44488 0.02098
C 19.71897 25.4914 -0.01979
C 19.66235 24.09837 0.02691
C 20.90836 23.34806 -0.01581
C 20.91344 21.95498 0.01452
C 19.6464 21.2943 0.04892
C 19.73615 19.92637 -0.00111
C 20.9602 19.1814 -0.03557
C 20.97977 17.76333 0.03754
C 19.73173 17.08135 0.01739
C 19.53952 15.6926 0.00755
C 20.68937 14.85531 -0.0054
C 20.90235 13.51744 0.00667
C 20.8195 10.62945 0.00143
C 20.80889 9.1752 -0.017
C 19.54834 8.47514 0.00364
C 19.57532 7.04099 -0.00831
C 20.84244 6.37656 -0.02957
C 20.81558 4.95765 -0.04422
C 19.60136 4.30398 0.00654
C 20.90551 26.18834 0.02188
C 20.86419 27.62635 -0.00316
C 19.66492 28.32436 -0.0331
C 19.64927 29.76363 -0.0258
C 18.36702 22.02962 0.01848
C 17.15378 21.35249 -0.00619
C 17.2676 19.95995 -0.02162
C 18.48943 19.18766 0.00889
C 18.46174 17.77754 -0.00481
C 17.44026 16.91536 0.00979
C 17.49397 15.62716 0.01443
C 18.22767 9.07227 0.03505
C 17.01693 8.37589 -0.02815
C 17.15288 24.2059 -0.03113
C 17.15085 7.00967 -0.04147
C 18.36166 4.96897 0.00213
C 17.12297 4.25351 -0.00066
C 17.12815 2.84273 -0.00289
C 18.42363 2.172 0.00028
C 18.43646 0.71564 -0.02213
C 17.21011 34.06096 0.03698
C 19.64189 32.57988 -0.00109
C 20.89782 31.9341 -0.00491
C 20.84502 30.5088 0.03338
C 18.33108 6.36733 -0.05302
C 12.27971 28.38618 0.00985
C 12.22838 29.8109 -0.01275
C 13.47537 30.40958 -0.01111
C 3.70193 2.12086 0.00988
C 3.66112 0.72961 0.0276
C 2.43874 0.03108 0.01305
C 4.91068 32.73024 -0.00077
C 6.13874 32.05556 0.03368
C 6.17522 30.65994 -0.02929
C 4.85523 29.93282 -0.00966
C 4.87437 28.48896 -0.03337
C 4.67404 17.08848 0.01227
C 4.89927 15.73363 0.00873
C 6.09623 15.02521 -0.00049
C 6.16703 13.63286 0.00848
C 4.93849 12.94018 -0.01303
C 4.87539 11.49785 -0.01378
C 6.1307 10.73141 0.02635
C 6.11053 9.29787 0.0127
C 4.85494 8.5322 0.01396
C 4.85702 7.14653 0.01849
C 6.11109 6.45393 -0.01142
C 2.47634 2.78904 -0.01343
C 2.43898 4.23797 0.01087
C 3.63477 5.00214 -0.05697
C 3.64618 6.35384 -0.00725
C 3.61903 30.59617 0.03267
C 2.41352 29.91674 0.02374
C 2.45939 28.45767 0.00402
C 3.67506 27.75716 0.0073
C 3.57375 26.36664 0.0174
C 2.58511 25.50095 0.03828
C 2.331 24.19247 0.01226
C 2.47012 21.27345 -0.00279
C 2.34469 19.90025 0.01996
C 6.20713 4.97883 -0.00562
C 3.52955 17.63792 -0.03996
C 2.36928 15.67479 -0.00074
C 3.64533 14.97349 -0.00518
C 3.69975 13.55597 0.0086
C 2.46109 12.82989 -0.00643
C 2.49403 11.44604 0.017
C 3.70081 10.65847 -0.03113
C 3.6294 9.23946 -0.02566
C 2.43693 8.50588 -0.00094
C 2.43952 7.13486 0.02322
C 2.24613 17.07513 0.01465
C 4.87991 4.26256 -0.00494
C 4.90729 2.9127 0.00054
C 6.07919 2.21423 0.03007
C 11.08081 30.55444 0.00438
C 9.80413 30.04175 0.01291
C 9.8433 15.48923 0.00093
C 11.11374 14.95697 0.00057
C 11.12582 13.42584 -0.01634
C 9.90157 12.77058 -0.00334
C 9.86101 11.37955 0.02339
C 11.1361 10.69946 0.01641
C 11.08786 9.26783 -0.00719
C 11.08303 32.04201 -0.00191
C 9.76945 8.52642 0.01364
C 11.10277 6.40819 -0.00033
C 11.10153 5.01665 0.03589
C 9.93378 4.3057 -0.02759
C 9.92515 2.92499 0.0402
C 11.16112 2.12112 0.00572
C 11.12887 0.7267 0.03592
C 9.88717 0.02416 0.00406
C 12.32094 32.67039 0.00943
C 13.55648 31.91935 0.02841
C 9.81732 7.13208 -0.01062
C 19.60908 2.84283 -0.00703
C 9.81673 32.70411 0.00373
C 8.696 0.79416 -0.014
C 6.15688 0.8185 -0.00095
C 4.87928 0.05698 0.01572
C 7.317 32.70714 -0.04848
C 8.54564 31.96601 -0.00892
C 8.5007 30.49044 -0.01362
C 7.28758 29.86479 -0.0008
C 7.36199 15.66824 0.0288
C 8.59127 15.11247 0.00393
C 8.69545 13.5716 0.00895
C 7.41516 0.08415 0.02147
C 7.45156 12.93374 0.00685
C 8.58938 10.68475 -0.00482
C 8.53014 9.21435 -0.01384
C 7.34559 8.55757 0.03693
C 7.28197 7.12705 0.01745
C 8.51388 6.44458 0.00488
C 8.61519 5.02134 -0.01004
C 7.43346 4.2752 -0.02896
C 7.38311 2.91262 -0.00131
C 8.66836 2.14481 -0.01118
C 7.38352 11.39992 0.02888
C 3.64805 32.01871 -0.01509
C 20.89669 2.13356 -0.04076
C 19.64357 34.07187 0.0058
C 30.70049 6.39199 0.00716
C 30.6976 4.98038 0.00307
C 29.4458 4.2455 0.00346
C 29.44347 2.85269 0.01713
C 30.71798 2.12266 -0.01694
C 30.70483 0.70145 0.01428
C 29.44514 34.05732 -0.02142
C 32.02038 32.70211 0.0544
C 33.20799 31.96624 0.00026
C 33.24694 30.51869 0.00682
C 31.99535 29.82546 -0.01779
C 31.89083 28.44492 0.03794
C 33.13183 27.73952 0.01927
C 33.16041 26.27224 0.01574
C 31.96276 25.53391 -0.02383
C 31.97222 24.14078 -0.01429
C 33.16589 23.46052 -0.0136
C 33.1801 22.03012 0.00594
C 31.94128 21.33771 -0.02474
C 29.48364 7.10729 0.02108
C 29.49927 8.51731 0.0103
C 30.79418 9.24133 0.07705
C 30.76343 10.68316 0.01908
C 27.03361 34.02291 0.02326
C 29.43409 32.65213 0.00261
C 30.71162 31.98032 0.03265
C 30.75311 30.50321 -0.02049
C 29.50512 29.80275 -0.01854
C 29.44146 28.3773 -0.01415
C 30.72583 27.72082 -0.03039
C 30.71496 26.26705 0.01836
C 29.4884 25.54062 0.03531
C 31.90265 15.62513 0.00369
C 29.52931 24.11722 -0.00669
C 30.69767 22.02271 0.01705
C 29.51867 21.40059 -0.0405
C 29.49796 19.99311 -0.01303
C 29.54547 17.0461 -0.01461
C 29.46876 15.57282 -0.02155
C 30.69037 14.82187 -0.00944
C 30.82048 13.5021 -0.03735
C 29.49176 12.78265 -0.00971
C 29.54569 11.41093 0.01518
C 30.72068 23.42372 0.0101
C 28.22946 0.68424 0.00924
C 33.21398 15.00464 0.00455
C 32.02931 12.76082 -0.01839
C 34.43209 19.86675 0.01951
C 1.21869 19.17957 -0.01678
C 1.06632 17.76703 0.01223
C 34.35031 17.1016 0.00648
C 34.40541 15.7007 0.02114
C 1.18711 14.93435 -0.02957
C 1.24318 13.51983 0.00343
C 0.04891 12.77972 -0.02656
C 0.03367 11.3921 -0.02442
C 1.29492 10.70918 -0.00027
C 1.25501 9.2059 -0.00583
C 34.37251 8.46739 -0.02302
C 34.36244 7.0668 -0.02849
C 1.21941 6.45198 0.02931
C 1.24903 5.03224 0.00628
C 34.39231 4.28877 -0.0345
C 34.32871 2.85681 -0.00931
C 1.18847 2.16157 -0.00939
C 1.21391 0.69298 -0.00468
C 0.05805 21.2579 -0.02213
C 1.29915 21.99336 0.02712
C 1.18128 23.4087 0.00723
C 34.39008 24.11862 0.03076
C 32.02432 11.32013 0.00137
C 33.21814 10.63575 0.00199
C 33.17415 9.2578 0.04381
C 32.0017 8.47492 0.02806
C 31.92826 7.0932 0.01504
C 33.12107 6.37296 -0.00069
C 33.11433 5.00857 0.04926
C 31.90579 4.28148 -0.03838
C 31.9334 2.9064 0.00349
C 33.26803 13.54389 -0.00644
C 33.07186 2.13569 -0.00323
C 31.92451 0.03342 0.0001
C 34.3837 32.67043 -0.02927
C 1.21171 31.9859 -0.01404
C 1.22348 30.55882 0.01027
C 0.04133 29.85207 0.01831
C 34.37718 28.47333 -0.01037
C 1.20384 27.68044 -0.00439
C 1.2567 26.23656 -0.00598
C 34.39468 25.55309 -0.05239
C 33.08647 0.72921 -0.00841
C 28.22034 2.10209 0.0014
C 26.99373 2.83512 0.01324
C 27.04104 4.2401 0.04266
C 22.12104 7.09385 -0.02845
C 23.33938 6.35095 -0.03213
C 23.31482 5.01863 0.02239
C 22.07586 4.20602 0.01153
C 22.06809 2.78254 0.02734
C 23.33561 2.06845 -0.0055
C 23.29968 0.66835 0.01515
C 22.05474 34.05562 -0.00225
C 24.51109 32.56509 0.00071
C 25.794 31.85941 -0.01107
C 25.84308 30.46442 -0.01586
C 24.60947 29.76536 -0.01971
C 24.55475 28.29451 -0.02118
C 25.80228 27.66443 0.00733
C 25.78425 26.18259 -0.00178
C 24.56274 25.46343 0.00768
C 24.5757 24.10867 -0.0276
C 25.7922 23.48246 0.03005
C 25.81414 22.03771 -0.04078
C 22.08031 8.5054 0.03374
C 23.36136 9.21738 0.0296
C 23.30725 10.63202 0.03046
C 22.11382 11.31038 -0.00381
C 22.09387 32.62448 -0.00865
C 23.32403 31.83644 0.00675
C 23.33521 30.42866 -0.00311
C 22.10979 29.80599 0.00742
C 22.10166 28.34649 -0.01594
C 23.31841 27.6095 0.0106
C 23.32389 26.20879 -0.01154
C 22.07667 25.54656 -0.01721
C 22.0026 24.15156 -0.02422
C 24.62823 21.27124 0.02117
C 23.3453 23.40336 0.01277
C 22.16741 21.27331 -0.01527
C 22.19542 19.85905 0.01087
C 23.35511 19.12755 0.00199
C 23.39852 17.72802 0.01511
C 22.17284 17.05201 -0.00478
C 22.00407 15.57699 -0.01662
C 23.33495 14.914 -0.01185
C 23.35978 13.47445 0.01126
C 22.0644 12.72276 0.01852
C 23.37153 21.95769 0.00096
C 24.60462 19.81646 0.02737
C 25.80632 19.15508 -0.00498
C 25.84799 17.75838 0.00135
C 26.98943 25.55086 -0.00942
C 26.9961 24.14257 0.00487
C 28.24473 23.44557 0.00826
C 28.22028 22.04488 -0.00294
C 27.01954 21.3093 0.00152
C 27.03616 19.87347 0.01257
C 28.29487 19.21534 0.02316
C 28.38845 17.79305 0.04185
C 27.09317 17.01925 0.00194
C 28.23856 26.22324 -0.02815
C 27.03251 15.59978 -0.00621
C 28.25633 13.47339 0.02198
C 27.03525 12.78003 0.01094
C 27.04089 11.38693 0.00235
C 28.30125 10.70011 0.01495
C 28.26116 9.2591 0.01259
C 27.08269 8.55176 0.01799
C 27.02906 7.13567 0.01699
C 28.24899 6.39142 -0.00416
C 28.18051 4.97926 0.01177
C 28.24703 14.86543 0.02611
C 20.88951 0.70316 -0.00652
C 28.25365 27.63927 0.00622
C 27.0401 29.76111 -0.00037
C 24.64226 17.04623 0.03102
C 24.59682 15.60985 0.02555
C 25.83317 14.90476 0.01423
C 25.80911 13.50368 -0.00285
C 24.59671 12.80417 -0.009
C 24.58933 11.32154 -0.01199
C 25.79083 10.66393 -0.00229
C 25.79435 9.1963 -0.00938
C 24.54751 8.47835 -0.0264
C 27.11097 28.3651 -0.0032
C 24.62917 7.083 -0.01154
C 25.80035 5.01456 -0.01052
C 24.60802 4.26911 -0.01679
C 24.5491 2.8365 0.00367
C 25.79811 2.16934 0.04306
C 25.74682 0.6984 0.00996
C 24.51772 34.00109 0.00195
C 27.05103 32.63064 -0.00802
C 28.28403 31.92508 -0.00218
C 28.28146 30.48445 -0.01654
C 25.84154 6.47632 0.00684
C 2.4467 32.68349 0.00643
