361
Graphene
C 0.01371 0.01549 0.01295
C 12.33144 25.51551 0.02058
C 13.48918 9.26349 -0.01957
C 12.29921 8.54562 -0.0108
C 12.3234 7.08792 -0.00368
C 13.55664 6.38389 -0.02696
C 13.54101 4.97286 -0.00114
C 12.26987 4.26296 0.00228
C 12.27692 2.82769 0.00798
C 13.52139 26.21532 0.01965
C 13.49114 2.14653 0.00422
C 12.31428 34.0679 -0.03113
C 14.76943 32.62752 0.02098
C 16.01 31.91896 0.01848
C 16.0201 30.52605 -0.00619
C 14.73539 29.88212 -0.02162
C 14.75433 28.4004 0.00889
C 15.96368 27.67034 -0.00481
C 15.93533 26.24 0.00979
C 13.56605 0.65201 0.0351
C 13.52758 27.69821 -0.03682
C 12.26333 28.40718 0.00052
C 12.30729 29.78216 0.00374
C 11.04133 27.71504 -0.00925
C 11.03158 26.29674 0.01877
C 9.86911 25.57454 0.01363
C 9.84474 24.12085 -0.02162
C 9.82699 11.36826 0.00415
C 11.07867 10.66803 -0.0014
C 11.07178 9.24951 0.02162
C 9.84649 8.49419 0.0076
C 9.84667 7.10779 0.01241
C 11.08547 6.40389 -0.01454
C 11.04577 4.98569 0.01945
C 9.8165 4.32495 0.01416
C 9.83796 2.81041 0.03542
C 11.11903 2.11984 0.02299
C 11.09618 0.71384 0.00244
C 9.88852 34.0794 -0.01717
C 12.30225 32.6127 0.05265
C 13.50641 31.94132 -0.01952
C 13.52256 30.49815 -0.02813
C 14.73858 25.5791 0.01443
C 9.83737 28.38944 0.00444
C 16.01566 10.62973 0.03505
C 14.77108 8.5575 -0.04147
C 17.21374 2.83958 0.00755
C 18.44428 2.1669 -0.0054
C 18.42848 0.73074 0.00667
C 17.22081 34.03368 0.00143
C 19.67916 32.63502 -0.017
C 20.92122 32.0153 0.00364
C 20.92962 30.52281 -0.00831
C 19.66449 29.8421 -0.02957
C 17.22166 4.25701 0.01739
C 19.67957 28.40397 -0.04422
C 20.91831 26.27148 -0.00703
C 19.69934 25.5316 -0.04076
C 19.72715 24.16088 -0.00652
C 20.9125 23.41525 0.0058
C 20.91974 21.97897 -0.00865
C 20.89322 13.49018 0.00675
C 19.66695 12.77817 -0.00311
C 19.69158 11.33405 0.00742
C 20.9142 27.7021 0.00654
C 18.46007 4.9953 0.03754
C 18.41231 6.365 -0.03557
C 17.2232 7.11524 -0.00111
C 14.72027 7.14905 -0.05302
C 15.96837 6.39663 0.00213
C 15.96751 4.96836 -0.00066
C 14.7737 4.24459 -0.00289
C 14.80804 2.83966 0.00028
C 16.01226 2.1355 -0.02213
C 15.98458 0.73638 0.03698
C 14.7753 34.04062 -0.00109
C 17.21155 32.63687 -0.00491
C 18.42762 31.92039 0.03338
C 18.44511 30.51682 -0.0258
C 17.2047 29.80188 -0.0331
C 17.20672 28.43773 -0.00316
C 18.42838 27.69254 0.02188
C 18.45804 26.26548 -0.01979
C 17.20652 25.60956 0.02691
C 18.45208 10.6438 -0.01581
C 18.42094 9.23525 0.01452
C 17.22144 8.50966 0.04892
C 16.00502 9.21572 -0.02815
C 9.81568 29.83551 -0.01789
C 11.06053 30.49339 0.02894
C 11.05152 31.95748 -0.02971
C 3.70357 6.39519 0.0127
C 3.66969 4.94993 0.01396
C 2.48269 4.27558 0.01849
C 2.51812 2.86063 -0.01142
C 3.66301 2.13824 -0.00562
C 3.70507 0.65297 -0.00494
C 2.46181 34.07855 0.00054
C 4.9104 32.64565 0.03007
C 2.48083 7.11554 0.02635
C 6.16218 31.90328 -0.00095
C 4.87524 29.82023 -0.04848
C 4.91264 28.40038 -0.00892
C 6.10668 27.69371 -0.01362
C 6.13465 26.3055 -0.0008
C 4.93019 25.58661 0.0288
C 4.94139 24.13768 0.00393
C 6.159 23.4582 0.00895
C 6.15816 22.03737 0.00685
C 6.12311 30.54651 0.01572
C 2.43418 8.58953 -0.01378
C 3.72856 9.24825 -0.01303
C 3.67798 10.63075 0.00848
C 3.69079 30.51932 -0.03113
C 2.4474 29.83748 -0.02566
C 2.46899 28.37656 -0.00094
C 3.69701 27.67695 0.02322
C 3.69779 26.2333 -0.00725
C 2.4925 25.5617 -0.05697
C 2.46414 24.15659 0.01087
C 3.66297 23.41178 -0.01343
C 3.66389 22.06172 0.00988
C 2.43002 21.33102 0.0276
C 2.4726 19.88739 0.01305
C 3.67027 19.20082 -0.00077
C 3.71993 17.76435 0.03368
C 2.47176 17.00068 -0.02929
C 2.48987 15.62059 -0.00966
C 3.62596 14.88142 -0.03337
C 3.68213 13.53161 0.01227
C 2.47667 12.83119 0.00873
C 2.45875 11.35774 -0.00049
C 4.94064 21.29956 0.02888
C 4.91922 19.84425 -0.00482
C 6.14665 19.13616 -0.01384
C 6.17174 17.78032 0.03693
C 8.60248 26.27167 -0.02759
C 7.37627 25.57179 0.0402
C 7.34732 24.10655 0.00572
C 8.58043 23.45491 0.03592
C 7.38563 21.31715 0.00406
C 7.36784 12.74482 0.00943
C 7.36612 11.3975 0.02841
C 8.60225 10.67505 -0.01111
C 8.5945 9.27348 -0.01275
C 7.41166 8.5205 0.00985
C 7.40749 7.1115 -0.02245
C 8.60334 6.43057 -0.00428
C 8.58451 4.92262 0.03101
C 7.35286 4.23221 -0.01536
C 7.34975 2.84431 -0.02689
C 8.6064 2.12733 -0.01046
C 8.6528 0.70084 -0.00891
C 7.3929 0.00494 0.02819
C 9.8349 32.69051 0.00165
C 8.60932 27.65953 0.03589
C 20.92503 10.62005 -0.01594
C 7.36257 28.41856 -0.00033
C 8.61524 30.56287 0.01364
C 4.90333 17.01253 0.01745
C 4.90346 15.63078 0.00488
C 6.11973 14.93729 -0.01004
C 6.14 13.52938 -0.02896
C 4.90647 12.82805 -0.00131
C 4.95903 11.32882 -0.01118
C 6.13639 10.67567 -0.014
C 6.13939 9.24811 0.02147
C 4.94278 8.55473 0.00373
C 4.90435 7.16767 -0.00191
C 6.17409 6.40593 0.00438
C 6.13395 4.99063 0.01291
C 4.90704 4.26206 0.00093
C 4.93009 2.85155 0.00057
C 6.15883 2.14441 -0.01634
C 6.18264 0.71354 -0.00334
C 4.9177 0.03688 0.02339
C 7.3754 32.70199 0.01641
C 8.64954 31.96845 -0.00719
C 7.3669 29.86327 -0.01062
C 3.65996 31.99613 0.017
C 20.91974 9.19103 0.0106
C 19.67517 7.09157 -0.01721
C 31.92197 32.67699 0.01713
C 33.19462 31.9587 -0.01694
C 33.23598 30.55629 0.01428
C 31.99454 29.78058 -0.02142
C 31.99452 28.40358 0.0544
C 33.18338 27.70088 0.00026
C 33.19418 26.26984 0.00682
C 31.9582 25.56475 -0.01779
C 29.47502 34.05858 0.00346
C 31.9604 24.15651 0.03794
C 33.20292 21.9652 0.01574
C 32.01111 21.33217 -0.02383
C 31.95113 19.88465 -0.01429
C 33.21177 19.19751 -0.0136
C 33.18103 17.74363 0.00594
C 31.97461 17.05102 -0.02474
C 31.99343 15.60515 0.00369
C 33.23776 14.88525 0.00455
C 33.23427 23.44015 0.01927
C 30.74056 0.68552 0.00307
C 30.7377 2.11513 0.00716
C 29.51068 2.85499 0.02108
C 29.48923 25.60108 -0.01854
C 29.52846 24.16217 -0.01415
C 30.786 23.42649 -0.03039
C 30.78004 21.97371 0.01836
C 29.50291 21.29972 0.03531
C 29.52489 19.87155 -0.00669
C 30.73879 19.16984 0.0101
C 30.74044 17.7357 0.01705
C 29.54742 17.04317 -0.0405
C 29.50815 15.63684 -0.01303
C 30.75552 14.94487 -0.01461
C 30.76346 13.45569 -0.02155
C 29.54373 12.73818 -0.00944
C 29.52395 11.40487 -0.03735
C 30.7245 10.66489 -0.00971
C 30.75766 9.19821 0.01518
C 29.49216 8.55676 0.01908
C 30.77679 6.36816 0.07705
C 30.697 4.93633 0.0103
C 33.2145 13.48684 -0.00644
C 30.7274 26.2008 -0.02049
C 31.93709 12.80391 -0.01839
C 33.17612 10.64633 0.00199
C 1.25314 19.15829 -0.01678
C 1.24072 17.73106 0.01223
C 0.00399 17.02715 0.00648
C 0.0185 15.60331 0.02114
C 1.22465 14.86985 -0.02957
C 1.23978 13.50655 0.00343
C 0.02472 12.73472 -0.02656
C 34.39512 11.3677 -0.02442
C 0.00234 19.87588 0.01951
C 1.21652 10.68985 -0.00027
C 34.41507 8.52806 -0.02302
C 0.00554 7.1359 -0.02849
C 1.20572 6.36612 0.02931
C 1.23912 4.9769 0.00628
C 34.4168 4.23844 -0.0345
C 0.01189 2.83159 -0.00931
C 1.25806 2.13923 -0.00939
C 1.28088 0.73008 -0.00468
C 1.25116 9.22069 -0.00583
C 34.40972 21.2747 -0.02213
C 1.20377 22.04228 0.02712
C 1.22914 23.45708 0.00723
C 33.19331 9.27009 0.04381
C 31.96619 8.46748 0.02806
C 31.93273 7.10689 0.01504
C 33.19276 6.39461 -0.00069
C 33.23515 4.97245 0.04926
C 31.94464 4.24369 -0.03838
C 31.95547 2.87778 0.00349
C 33.1897 2.09603 -0.00323
C 33.18429 0.68438 -0.00841
C 31.97235 34.05441 0.0001
C 34.42638 32.68571 -0.02927
C 1.23374 31.98809 -0.01404
C 1.23614 30.52124 0.01027
C 34.42176 29.80611 0.01831
C 34.4162 28.40956 -0.01037
C 1.20151 27.66539 -0.00439
C 1.24605 26.28221 -0.00598
C 0.01753 25.56536 -0.05239
C 34.42559 24.1438 0.03076
C 31.94343 11.35393 0.00137
C 30.74194 27.67841 0.03265
C 29.48445 28.41986 0.00261
C 29.52694 29.80265 0.02326
C 22.10636 15.63175 -0.00225
C 23.34096 14.96342 0.00071
C 23.37372 13.47405 -0.01107
C 22.15257 12.77632 -0.01586
C 22.12043 11.35895 -0.01971
C 23.33913 10.63625 -0.02118
C 23.32097 9.24551 0.00733
C 22.13353 8.52451 -0.00178
C 22.13418 17.01325 0.01515
C 22.1007 2.82335 0.00768
C 22.10585 0.00929 0.03005
C 24.56115 32.65068 -0.04078
C 25.82641 31.96586 0.02117
C 25.80909 30.51445 0.02737
C 24.61434 29.85133 -0.00498
C 24.60673 28.42423 0.00135
C 25.82341 27.65115 0.03102
C 25.78778 26.25451 0.02555
C 23.3764 0.72147 -0.0276
C 23.35967 17.73634 -0.0055
C 23.3409 19.15401 0.02734
C 22.15693 19.87054 0.01153
C 20.8831 6.35214 -0.02422
C 20.89987 4.94876 0.01277
C 19.62858 4.22614 0.00096
C 19.6669 2.84767 -0.01527
C 20.94392 2.08822 0.01087
C 20.90578 0.70893 0.00199
C 19.62165 34.06929 0.01511
C 22.10801 32.65284 -0.00478
C 23.34837 31.91843 -0.01662
C 23.33639 30.52822 -0.01185
C 22.1888 29.78653 0.01126
C 22.13601 28.37129 0.01852
C 23.32815 27.67793 -0.00381
C 23.33632 26.22674 0.03046
C 22.15625 25.55293 0.0296
C 22.12793 24.1125 0.03374
C 23.38728 23.39353 -0.02845
C 23.38372 21.97437 -0.03213
C 22.15384 21.34752 0.02239
C 24.58785 25.5706 0.01423
C 24.61639 24.0884 -0.00285
C 25.80711 23.41484 -0.009
C 25.8354 21.99765 -0.01199
C 28.32012 21.99378 0.01257
C 27.07765 21.25942 0.02316
C 27.05151 19.84576 0.04185
C 28.28704 19.16202 0.00194
C 28.29452 17.76678 -0.00621
C 27.07045 17.04384 0.02611
C 27.07513 15.62394 0.02198
C 28.29072 14.89489 0.01094
C 28.29797 13.49818 0.00235
C 27.06168 12.76758 0.01495
C 27.08733 11.38007 0.01259
C 28.3048 10.65705 0.01799
C 28.28598 9.23525 0.01699
C 28.31637 2.08376 -0.00416
C 28.24215 0.71182 0.01177
C 27.09128 34.06663 0.04266
C 29.49354 32.69112 0.01324
C 30.72985 31.93737 0.0014
C 30.74824 30.52248 0.00924
C 28.26817 23.43097 0.00152
C 19.6643 8.53021 -0.01154
C 27.05928 24.16654 -0.00294
C 28.26338 26.28922 0.00487
C 24.56516 21.3018 -0.00229
C 24.63817 19.93067 -0.00938
C 25.83015 19.18103 -0.0264
C 25.88207 17.75483 -0.01154
C 24.54719 17.02207 0.00684
C 24.5995 15.5975 -0.01052
C 25.85293 14.88199 -0.01679
C 25.88351 13.52637 0.00367
C 24.60446 12.81472 0.04306
C 24.58545 11.35343 0.00996
C 25.83408 10.64452 0.00195
C 25.79198 0.72604 -0.00802
C 24.56879 0.04115 -0.00218
C 27.02773 32.66197 -0.01654
C 28.26802 31.93194 -0.00037
C 28.3263 30.52577 -0.0032
C 26.99947 29.79415 0.00622
C 27.05558 28.37585 -0.02815
C 28.26793 27.68924 -0.00942
C 27.02138 25.54013 0.00826
C 2.43412 32.66939 -0.00643
