367
Graphene
C 34.39639 0.00616 0.01295
C 14.77765 2.86191 -0.02813
C 15.97858 2.18763 0.00374
C 15.97844 0.75675 0.00052
C 14.7972 0.04702 -0.03682
C 17.21405 32.71443 0.01965
C 18.37607 31.94061 0.02058
C 18.37075 30.52322 -0.01957
C 17.20903 29.8737 -0.0108
C 17.1685 28.3892 -0.00368
C 18.43323 27.68793 -0.02696
C 18.47506 26.30769 -0.00114
C 17.23924 25.56109 0.00228
C 17.13783 24.18536 0.00798
C 18.36775 23.40914 0.00422
C 18.37144 22.06072 0.0351
C 18.6134 14.67646 -0.03113
C 18.28085 13.39022 0.02098
C 17.07417 12.73407 0.01848
C 17.21717 11.33922 -0.00619
C 14.80128 4.32648 -0.01952
C 18.38077 10.62936 -0.02162
C 16.06592 5.05735 0.05265
C 14.74978 7.15019 0.00244
C 13.49398 6.38827 0.00165
C 13.54857 4.95024 -0.02971
C 12.26722 4.24054 0.02894
C 12.30326 2.85481 -0.01789
C 13.51418 2.12467 0.00444
C 13.48733 0.73294 -0.00925
C 12.27446 0.0037 0.01877
C 14.80151 32.72385 0.01363
C 15.97927 31.95752 -0.02162
C 15.99852 30.51841 0.00415
C 14.80741 29.84174 -0.0014
C 14.77325 28.36842 0.02162
C 15.96733 27.64175 0.0076
C 16.04348 26.22406 0.01241
C 14.79661 25.63099 -0.01454
C 14.6249 11.0749 0.01945
C 16.01574 10.61118 0.01416
C 15.95223 9.15015 0.03542
C 14.69586 8.52014 0.02299
C 15.99275 6.45661 -0.01717
C 12.40074 7.09574 0.02819
C 18.43642 9.16641 0.00889
C 17.20571 7.09093 0.00979
C 19.45832 15.72095 -0.00111
C 20.80347 14.86955 -0.03557
C 20.87434 13.44637 0.03754
C 19.64445 12.70389 0.01739
C 19.64997 11.33437 0.00755
C 20.95644 10.56313 -0.0054
C 20.95816 9.19182 0.00667
C 19.71278 8.50213 0.00143
C 19.70004 7.07987 -0.017
C 20.91669 6.41625 0.00364
C 20.98761 4.90575 -0.00831
C 19.7231 4.26987 -0.02957
C 19.73132 2.84499 -0.04422
C 20.95967 2.10372 0.00654
C 20.90549 0.63692 -0.00703
C 19.66709 34.07602 -0.04076
C 22.06598 32.57371 -0.00652
C 23.11798 31.61899 0.0058
C 22.21967 30.04559 -0.00865
C 19.36054 17.14593 0.04892
C 17.13154 8.47598 -0.00481
C 20.78911 17.73571 0.01452
C 19.68403 19.83955 0.02691
C 18.4591 6.42912 0.01443
C 18.49922 4.95417 0.03505
C 17.23544 4.31611 -0.02815
C 17.30622 2.89359 -0.04147
C 18.50471 2.17232 -0.05302
C 18.49645 0.74333 0.00213
C 17.22133 0.03955 -0.00066
C 19.58489 32.63647 -0.00289
C 20.78252 31.93655 0.00028
C 20.85127 30.50122 -0.02213
C 19.62357 29.84804 0.03698
C 19.68191 28.37571 -0.00109
C 21.02255 27.83954 -0.00491
C 20.85996 26.42039 0.03338
C 19.70618 25.61531 -0.0258
C 19.65673 24.1501 -0.0331
C 20.88367 23.40157 -0.00316
C 20.77122 21.90588 0.02188
C 19.54901 21.14435 -0.01979
C 20.88238 19.11601 -0.01581
C 22.38108 28.58756 0.00675
C 12.23415 8.47515 -0.00891
C 13.51621 10.68951 -0.02689
C 3.59611 0.7643 0.00873
C 2.36001 0.03409 -0.00049
C 4.85907 32.71646 0.00848
C 6.14725 31.96078 -0.01303
C 6.14174 30.58507 -0.01378
C 4.93114 29.8449 0.02635
C 4.92317 28.46632 0.0127
C 6.16872 27.7368 0.01396
C 6.07341 26.35604 0.01849
C 4.86332 25.62463 -0.01142
C 4.94562 24.18008 -0.00562
C 4.9283 11.31767 -0.00494
C 5.95296 10.79518 0.00054
C 6.20175 9.28705 0.03007
C 4.86623 8.73082 -0.00095
C 4.8974 7.28433 0.01572
C 6.16176 6.46807 -0.04848
C 6.18953 5.04313 -0.00892
C 4.92085 4.329 -0.01362
C 3.70665 2.15555 0.01227
C 4.88267 2.90661 -0.0008
C 2.42997 2.86997 -0.03337
C 3.69747 4.99701 -0.02929
C 3.72268 30.53965 0.01465
C 2.38166 29.8992 -0.00074
C 2.42456 28.47703 -0.00518
C 3.62293 27.79954 0.0086
C 3.56926 26.33471 -0.00643
C 2.39156 25.64912 0.017
C 2.43606 24.11631 -0.03113
C 3.69924 23.48093 -0.02566
C 3.56628 22.09145 -0.00094
C 2.52154 21.21125 0.02322
C 2.4379 19.75258 -0.00725
C 2.49816 16.89497 -0.05697
C 2.3108 15.71709 0.01087
C 2.11731 11.88009 -0.01343
C 3.45459 11.15452 0.00988
C 3.5703 9.49859 0.0276
C 2.46878 8.66731 0.01305
C 2.45778 7.19901 -0.00077
C 3.72642 6.55754 0.03368
C 2.46466 4.31733 -0.00966
C 13.45858 9.26929 -0.01046
C 6.12363 2.18699 0.0288
C 4.819 0.0319 0.00895
C 11.17379 27.63764 -0.00719
C 11.34099 26.21951 0.01364
C 11.0396 9.16679 -0.01062
C 9.74758 8.74857 -0.00033
C 9.8624 7.23378 0.03589
C 11.02918 6.45177 -0.02759
C 11.08446 5.00989 0.0402
C 9.83045 4.26557 0.00572
C 9.80635 2.86566 0.03592
C 11.0683 2.10509 0.00406
C 11.04772 0.73101 0.00943
C 9.77705 0.07564 0.02841
C 12.25932 32.64878 -0.01111
C 13.56524 31.97123 -0.01275
C 13.57652 30.49034 0.00985
C 12.29402 29.81675 -0.02245
C 12.33684 28.36629 -0.00428
C 13.5116 27.74776 0.03101
C 13.56607 26.29366 -0.01536
C 9.90439 28.4363 0.01641
C 6.14275 0.75808 0.00393
C 9.83066 29.85491 0.02339
C 11.07409 32.0027 -0.01634
C 7.31801 32.69381 0.00685
C 8.5253 31.98977 0.02888
C 8.60834 30.56094 -0.00482
C 7.37853 29.90067 -0.01384
C 7.36874 28.50956 0.03693
C 8.64443 27.87372 0.01745
C 8.39306 26.42582 0.00488
C 7.39946 25.83275 -0.01004
C 8.56965 9.28607 -0.02896
C 7.36873 8.59861 -0.00131
C 7.43758 7.17084 -0.01118
C 8.66273 6.48295 -0.014
C 8.66536 5.05041 0.02147
C 7.4594 4.33118 0.00373
C 7.3249 2.92693 -0.00191
C 8.5654 2.16523 0.00438
C 8.53286 0.76198 0.01291
C 7.34961 0.0514 0.00093
C 9.7987 32.65708 0.00057
C 11.08792 30.52746 -0.00334
C 3.64703 31.97544 -0.03996
C 23.56453 27.74397 -0.00311
C 22.10462 25.56127 -0.01594
C 30.7009 0.67893 0.00307
C 29.36716 0.0105 0.00346
C 31.87702 32.70121 0.01713
C 33.16957 31.98685 -0.01694
C 33.18347 30.60273 0.01428
C 31.88041 29.86351 -0.02142
C 31.90427 28.45681 0.0544
C 33.12942 27.74377 0.00026
C 33.18925 26.341 0.00682
C 31.90495 25.51696 -0.01779
C 31.9663 24.14875 0.03794
C 33.20582 23.4104 0.01927
C 33.25667 22.01276 0.01574
C 31.9913 21.30535 -0.02383
C 31.96889 19.82449 -0.01429
C 33.21041 19.13757 -0.0136
C 33.2646 17.6337 0.00594
C 31.97308 17.06451 -0.02474
C 31.91072 15.59256 0.00369
C 30.66774 2.19297 0.00716
C 33.19163 14.91323 0.00455
C 29.53966 2.87295 0.02108
C 30.76448 4.94758 0.07705
C 29.42252 25.61038 0.03265
C 29.47702 24.15538 -0.02049
C 30.69776 23.45428 -0.01854
C 30.66073 22.0472 -0.01415
C 29.49268 21.2897 -0.03039
C 29.51509 19.87226 0.01836
C 30.73299 19.18509 0.03531
C 30.78067 17.75968 -0.00669
C 29.58287 17.05866 0.0101
C 29.56891 15.63252 0.01705
C 30.75482 14.89088 -0.0405
C 30.78862 13.46242 -0.01303
C 29.53449 12.80892 -0.01461
C 29.49976 11.31966 -0.02155
C 30.69508 10.6317 -0.00944
C 30.73215 9.2782 -0.03735
C 29.50679 8.46904 -0.00971
C 29.48467 7.06448 0.01518
C 30.72441 6.3666 0.01908
C 29.53208 4.2475 0.0103
C 30.67882 26.28443 0.00261
C 33.19298 13.50438 -0.00644
C 32.01373 11.3437 0.00137
C 0.00712 19.84556 0.01951
C 1.28393 19.12615 -0.01678
C 1.30553 17.68463 0.01223
C 0.12409 16.9309 0.00648
C 0.0152 15.53557 0.02114
C 1.28131 14.58184 -0.02957
C 1.33286 13.03069 0.00343
C 34.35952 12.70045 -0.02656
C 34.32564 11.34503 -0.02442
C 1.18889 10.77886 -0.00027
C 1.20789 9.2915 -0.00583
C 0.03005 8.57658 -0.02302
C 0.03006 7.15822 -0.02849
C 1.26629 6.47525 0.02931
C 1.25922 5.01401 0.00628
C 0.01371 4.26608 -0.0345
C 34.42084 2.91632 -0.00931
C 1.22009 2.17399 -0.00939
C 1.1299 0.76196 -0.00468
C 0.04235 21.28889 -0.02213
C 31.93527 12.79111 -0.01839
C 1.33824 21.95313 0.02712
C 0.04457 24.13502 0.03076
C 33.1368 10.618 0.00199
C 33.16368 9.23089 0.04381
C 31.97321 8.44921 0.02806
C 31.92006 7.07309 0.01504
C 33.2147 6.39041 -0.00069
C 33.20792 5.01261 0.04926
C 31.93368 4.24918 -0.03838
C 31.94227 2.82546 0.00349
C 33.17345 2.15258 -0.00323
C 33.19961 0.70277 -0.00841
C 31.95223 0.08692 0.0001
C 34.35611 32.69539 -0.02927
C 1.20433 31.99908 -0.01404
C 1.19984 30.58723 0.01027
C 34.37768 29.88228 0.01831
C 34.36246 28.48442 -0.01037
C 1.14111 27.76361 -0.00439
C 1.21006 26.33639 -0.00598
C 34.41454 25.62327 -0.05239
C 1.24373 23.36721 0.00723
C 23.30966 26.26409 0.00742
C 30.63711 27.72212 0.02326
C 29.28142 29.80685 0.0014
C 22.08911 33.9335 0.02734
C 24.46243 32.35187 -0.0055
C 25.88538 31.82659 0.01515
C 25.47207 27.64651 -0.00225
C 25.74054 26.18713 0.00071
C 24.48066 25.42357 -0.01107
C 24.51204 24.04838 -0.01586
C 25.71776 23.38585 -0.01971
C 25.75986 21.98007 -0.02118
C 24.57348 21.29175 0.00733
C 24.55074 19.78954 -0.00178
C 25.78364 19.05554 0.00768
C 25.74695 17.70814 -0.0276
C 24.54919 16.94526 0.03005
C 24.56295 15.51588 -0.04078
C 25.81667 14.84178 0.02117
C 25.81637 13.42235 0.02737
C 24.65023 12.6863 -0.00498
C 24.69541 11.26764 0.00135
C 23.34173 0.60796 0.01153
C 25.89886 10.57337 0.03102
C 23.35762 2.11451 0.02239
C 22.21993 4.25171 -0.02845
C 22.09097 24.13239 0.0106
C 23.27629 23.44275 -0.01154
C 23.30941 21.99125 -0.01721
C 22.00339 21.28772 -0.02422
C 22.11689 19.83024 0.01277
C 23.28295 19.06176 0.00096
C 23.27369 17.70435 -0.01527
C 22.08911 16.94598 0.01087
C 22.05723 15.57415 0.00199
C 23.33318 14.83865 0.01511
C 23.38541 13.40274 -0.00478
C 22.11343 12.72762 -0.01662
C 22.19936 11.28996 -0.01185
C 23.45595 10.59283 0.01126
C 23.41816 9.13819 0.01852
C 22.18686 8.45132 -0.00381
C 22.10466 7.07625 0.03046
C 23.42187 6.36309 0.0296
C 23.45155 4.92917 0.03374
C 22.1029 2.82152 -0.03213
C 29.31535 28.39576 0.00924
C 25.80628 9.19865 0.02555
C 24.6455 7.11775 -0.00285
C 27.04487 15.57633 -0.00294
C 28.30262 14.88543 0.00152
C 28.3515 13.49086 0.01257
C 27.10307 12.765 0.02316
C 27.07291 11.35919 0.04185
C 28.26373 10.65307 0.00194
C 28.29341 9.24713 -0.00621
C 27.0862 8.52097 0.02611
C 27.09186 7.17165 0.02198
C 28.34011 6.33052 0.01094
C 28.32273 4.98162 0.00235
C 27.07556 4.22835 0.01495
C 27.03443 2.85194 0.01259
C 28.25946 2.17461 0.01799
C 28.15034 0.70223 0.01699
C 26.96992 0.03122 -0.00416
C 29.39096 32.69058 0.01177
C 30.67267 31.92492 0.04266
C 30.61397 30.56692 0.01324
C 27.05689 17.00305 0.00826
C 24.63864 8.51223 0.01423
C 28.27039 17.72816 0.00487
C 27.06043 19.85781 -0.02815
C 25.86971 6.35568 -0.009
C 25.94076 4.93599 -0.01199
C 24.56237 4.19843 -0.00229
C 24.56225 2.78068 -0.00938
C 25.7889 2.06149 -0.0264
C 25.71183 0.67144 -0.01154
C 24.50718 33.90353 0.00684
C 26.98319 32.66923 -0.01052
C 28.2254 31.95717 -0.01679
C 28.10993 30.58996 0.00367
C 26.78863 30.00104 0.04306
C 26.67409 28.50284 0.00996
C 28.02785 27.74715 0.00195
C 28.17072 26.29473 -0.00802
C 26.98618 25.49196 -0.00218
C 26.94432 24.03389 -0.01654
C 28.26306 23.40338 -0.00037
C 28.26061 22.05276 -0.0032
C 27.02592 21.23912 0.00622
C 28.3413 19.16836 -0.00942
C 2.43962 32.68514 0.01996
