303
Graphene
C 0.02422 0.07284 0.01295
C 13.55816 2.20055 0.01452
C 13.59022 0.70763 0.04892
C 12.28505 0.04151 -0.00111
C 14.79332 32.7231 -0.03557
C 16.01707 31.97447 0.03754
C 15.94989 30.5725 0.01739
C 14.91168 29.77793 0.00755
C 14.82795 2.74196 -0.0054
C 15.80728 1.88358 0.00667
C 16.11513 0.61807 0.00143
C 14.74508 0.00075 -0.017
C 17.33341 32.63827 0.00364
C 18.54031 31.8719 -0.00831
C 18.43264 30.4542 -0.02957
C 17.21784 29.75082 -0.04422
C 12.34419 2.80217 -0.01581
C 17.29331 28.36297 0.00654
C 12.10767 4.10671 0.02691
C 13.53236 30.37554 0.02188
C 9.67651 12.6915 -0.02815
C 9.9903 11.39057 -0.04147
C 11.00975 10.65812 -0.05302
C 10.7853 9.27343 0.00213
C 9.78474 8.48982 -0.00066
C 9.87614 7.13961 -0.00289
C 11.06377 6.49687 0.00028
C 11.21057 5.10318 -0.02213
C 9.88309 4.30707 0.03698
C 9.89364 2.86749 -0.00109
C 11.08017 2.18897 -0.00491
C 11.03789 0.78248 0.03338
C 9.81713 0.0095 -0.0258
C 12.28993 32.70611 -0.0331
C 13.57879 31.93675 -0.00316
C 12.345 29.76709 -0.01979
C 9.87601 29.89619 0.03505
C 18.48815 27.77229 -0.00703
C 18.54186 0.68689 -0.00652
C 22.10643 29.85581 0.01126
C 22.15899 28.35083 0.01852
C 23.37795 27.717 -0.00381
C 23.35047 26.24987 0.03046
C 22.06334 25.52793 0.0296
C 22.09596 24.14456 0.03374
C 23.42218 23.47321 -0.02845
C 23.29061 22.04351 -0.03213
C 21.97771 21.37654 0.02239
C 21.96626 19.99096 0.01153
C 23.2831 19.17471 0.02734
C 23.28795 17.66972 -0.0055
C 22.02745 17.20202 0.01515
C 23.23863 2.0495 -0.00225
C 23.43455 0.63645 0.00071
C 23.32117 30.55431 -0.01185
C 18.59535 2.07711 -0.04076
C 23.32829 31.94281 -0.01662
C 19.81063 34.01818 0.01511
C 17.35354 34.04009 0.0058
C 19.79251 32.58166 -0.00865
C 20.95674 31.90548 0.00675
C 20.88732 30.43524 -0.00311
C 19.68118 29.70111 0.00742
C 19.70512 28.34704 -0.01594
C 20.91781 27.66427 0.0106
C 20.81083 26.12383 -0.01154
C 19.6116 25.57337 -0.01721
C 20.93659 23.57391 -0.02422
C 20.7594 22.21722 0.01277
C 20.87075 19.22681 0.00096
C 20.98802 17.99171 -0.01527
C 21.06301 2.06844 0.01087
C 20.97053 0.68783 0.00199
C 22.1508 32.66797 -0.00478
C 22.18621 34.04662 -0.01107
C 11.11351 30.32199 0.01443
C 9.83185 32.70486 -0.00481
C 3.64251 10.62425 0.00985
C 3.69404 9.17802 -0.02245
C 2.43181 8.53531 -0.00428
C 2.46276 7.11866 0.03101
C 3.70977 6.39803 -0.01536
C 3.63783 4.97235 -0.02689
C 2.37941 4.26219 -0.01046
C 2.37501 2.87477 -0.00891
C 3.71049 2.15259 0.02819
C 3.70663 0.66456 0.00165
C 2.4684 34.04315 -0.02971
C 4.8881 32.53134 0.02894
C 6.09938 31.85961 -0.01789
C 6.17052 30.41148 0.00444
C 4.90202 29.70197 -0.00925
C 2.47747 11.33459 -0.01275
C 4.91754 28.29012 0.01877
C 2.47156 12.7888 -0.01111
C 3.60153 15.02765 0.00943
C 3.66387 30.45206 0.00057
C 2.47762 29.77625 -0.01634
C 2.46942 28.38047 -0.00334
C 3.68733 27.57022 0.02339
C 3.68696 26.26649 0.01641
C 2.4301 25.57873 -0.00719
C 2.41952 24.17161 0.01364
C 3.44198 23.42953 -0.01062
C 3.55508 22.08209 -0.00033
C 2.48096 21.29244 0.03589
C 2.44355 19.95554 -0.02759
C 3.64273 19.2668 0.0402
C 3.80238 17.93834 0.00572
C 2.42196 17.16867 0.03592
C 2.37194 15.69739 0.00406
C 3.69947 13.61828 0.02841
C 11.06706 31.98984 0.00979
C 6.18458 27.79202 0.01363
C 5.0114 15.69691 0.00415
C 7.36955 28.37817 -0.01957
C 8.54985 13.5095 -0.0108
C 7.42089 12.83972 -0.00368
C 7.36622 11.41818 -0.02696
C 8.67696 10.70348 -0.00114
C 8.58307 9.3138 0.00228
C 7.32801 8.49929 0.00798
C 7.43391 7.15347 0.00422
C 8.64173 6.46023 0.0351
C 8.67592 4.99274 -0.03113
C 7.3798 4.2792 0.02098
C 7.47507 2.85653 0.01848
C 8.5992 2.10391 -0.00619
C 8.60794 0.70812 -0.02162
C 7.29694 33.94806 0.00889
C 7.45082 29.75253 0.02058
C 4.75553 17.00799 -0.02162
C 8.6384 30.47574 0.01965
C 7.30626 32.63449 0.00052
C 6.14268 14.97891 -0.0014
C 6.16836 13.56602 0.02162
C 4.95587 12.86411 0.0076
C 4.8905 11.40138 0.01241
C 6.1393 10.71503 -0.01454
C 6.05382 9.23623 0.01945
C 4.84298 8.43578 0.01416
C 4.90744 7.08837 0.03542
C 6.18068 6.41765 0.02299
C 6.14939 4.96892 0.00244
C 4.9222 4.29745 -0.01717
C 4.89787 2.87452 0.05265
C 6.14204 2.14172 -0.01952
C 6.07539 0.6552 -0.02813
C 4.9167 34.07334 0.00374
C 8.60518 31.97052 -0.03682
C 3.68592 31.80947 0.00093
C 24.67491 32.71808 -0.01586
C 25.8 30.49962 -0.02118
C 33.12372 22.09904 0.01574
C 31.9347 21.29543 -0.02383
C 31.92018 19.90405 -0.01429
C 33.20194 19.1656 -0.0136
C 33.22578 17.74516 0.00594
C 31.94733 17.01174 -0.02474
C 31.92378 15.62995 0.00369
C 33.12513 14.93188 0.00455
C 33.1472 13.50982 -0.00644
C 31.9937 12.79122 -0.01839
C 31.98533 11.369 0.00137
C 33.1944 10.75062 0.00199
C 33.2248 9.29881 0.04381
C 32.02882 8.59566 0.02806
C 31.99639 7.17424 0.01504
C 33.17374 23.48171 0.01927
C 33.26408 6.45803 -0.00069
C 31.86631 24.20344 0.03794
C 33.13986 26.27123 0.00682
C 29.51762 8.46199 -0.00971
C 29.49132 7.08669 0.01518
C 30.78057 6.45685 0.01908
C 30.76487 4.97996 0.07705
C 29.51311 4.28407 0.0103
C 29.4569 2.91448 0.02108
C 30.68022 2.12823 0.00716
C 30.65514 0.6714 0.00307
C 29.4282 34.04549 0.00346
C 31.83991 32.6769 0.01713
C 33.21404 32.00344 -0.01694
C 33.27708 30.60301 0.01428
C 31.98527 29.82015 -0.02142
C 31.95542 28.48463 0.0544
C 33.18223 27.66045 0.00026
C 31.89053 25.62476 -0.01779
C 30.7323 9.24486 -0.03735
C 33.16546 5.02711 0.04926
C 31.9352 2.80858 0.00349
C 34.39865 15.62488 0.02114
C 1.16108 14.96871 -0.02957
C 1.24535 13.46278 0.00343
C 0.04184 12.83592 -0.02656
C 0.01723 11.38942 -0.02442
C 1.20262 10.65147 -0.00027
C 1.21228 9.23535 -0.00583
C 34.43006 8.54736 -0.02302
C 0.01674 7.17554 -0.02849
C 1.25235 6.42717 0.02931
C 1.1813 5.05785 0.00628
C 34.3649 4.34141 -0.0345
C 34.33464 2.90175 -0.00931
C 1.19183 2.12693 -0.00939
C 1.24961 0.75459 -0.00468
C 34.40619 17.08954 0.00648
C 31.89713 4.27541 -0.03838
C 1.19377 17.80527 0.01223
C 34.36924 19.92225 0.01951
C 33.09376 2.12936 -0.00323
C 33.17887 0.73823 -0.00841
C 31.8934 0.01736 0.0001
C 0.01054 32.72719 -0.02927
C 1.15804 31.91404 -0.01404
C 1.23105 30.58223 0.01027
C 34.41506 29.84638 0.01831
C 34.41191 28.37323 -0.01037
C 1.22132 27.67687 -0.00439
C 1.13068 26.33023 -0.00598
C 34.37425 25.54988 -0.05239
C 34.36419 24.19749 0.03076
C 1.22956 23.45148 0.00723
C 1.22259 21.96445 0.02712
C 34.36208 21.39264 -0.02213
C 1.18046 19.20611 -0.01678
C 25.79551 31.89877 -0.01971
C 30.68449 10.69985 -0.00944
C 29.46062 12.74523 -0.01461
C 25.795 0.75174 -0.01154
C 24.57803 0.01566 0.00684
C 26.96949 32.67543 -0.01052
C 28.17918 31.84956 -0.01679
C 28.19709 30.44835 0.00367
C 27.02501 29.74242 0.04306
C 26.9879 28.35311 0.00996
C 28.26364 27.71629 0.00195
C 28.23598 26.33753 -0.00802
C 26.97269 25.54067 -0.00218
C 27.02702 24.18258 -0.01654
C 28.22327 23.50814 -0.00037
C 28.2648 22.04826 -0.0032
C 27.00751 21.30392 0.00622
C 27.04582 19.91177 -0.02815
C 25.784 2.14667 -0.0264
C 28.27865 19.22848 -0.00942
C 24.36886 2.90279 -0.00938
C 25.70619 4.94194 -0.01199
C 24.55225 29.86565 0.00733
C 24.56381 28.39011 -0.00178
C 25.81163 27.69586 0.00768
C 25.76558 26.2327 -0.0276
C 24.52663 25.53587 0.03005
C 24.58453 24.14004 -0.04078
C 25.86701 23.42919 0.02117
C 25.76302 21.91938 0.02737
C 24.4845 21.23013 -0.00498
C 24.51047 19.7685 0.00135
C 25.79985 19.23841 0.03102
C 25.82205 17.70443 0.02555
C 24.55523 16.94268 0.01423
C 24.75078 15.68716 -0.00285
C 25.83482 14.9759 -0.009
C 24.65926 4.17585 -0.00229
C 29.48262 11.31911 -0.02155
C 28.27199 17.77828 0.00487
C 27.02236 15.57589 -0.00294
C 29.46705 28.43296 0.00924
C 30.74365 27.74315 0.02326
C 30.6758 26.36961 0.00261
C 29.48261 25.66972 0.03265
C 29.50086 24.29414 -0.02049
C 30.70784 23.50597 -0.01854
C 30.69897 22.01965 -0.01415
C 29.46563 21.34202 -0.03039
C 29.53433 19.91496 0.01836
C 30.7653 19.1664 0.03531
C 30.74532 17.73233 -0.00669
C 29.49178 17.06785 0.0101
C 29.50024 15.58988 0.01705
C 30.67313 14.92239 -0.0405
C 30.74137 13.47305 -0.01303
C 29.58189 29.79981 0.0014
C 27.05495 17.00981 0.00826
C 30.71765 30.49204 0.01324
C 29.44846 32.6318 0.01177
C 28.31946 14.89224 0.00152
C 28.24415 13.47929 0.01257
C 27.17604 12.7183 0.02316
C 27.0911 11.38097 0.04185
C 28.15658 10.62279 0.00194
C 28.25854 9.20704 -0.00621
C 27.21646 8.38017 0.02611
C 27.13946 7.08857 0.02198
C 28.21147 6.38143 0.01094
C 28.21216 4.97389 0.00235
C 26.9801 4.31934 0.01495
C 27.08395 2.8849 0.01259
C 28.26421 2.1502 0.01799
C 28.22735 0.64736 0.01699
C 27.03692 34.06172 -0.00416
C 30.70169 31.9072 0.04266
C 2.44907 32.64845 0.01291
