259
Graphene
C 0.05992 0.09682 0.01295
C 17.27221 7.16423 0.03046
C 17.40603 8.50371 -0.00381
C 18.48104 9.29574 0.01852
C 18.32821 10.75158 0.01126
C 17.10832 11.22355 -0.01185
C 16.96082 12.66069 -0.01662
C 18.30607 13.47841 -0.00478
C 18.49372 14.95486 0.01511
C 14.77323 0.0137 0.00199
C 15.95486 0.79379 0.01087
C 15.95524 2.19299 -0.01527
C 14.71294 2.98525 0.00096
C 14.8651 4.38049 0.01277
C 18.44565 6.38794 0.0296
C 15.96133 5.11133 -0.02422
C 15.99885 9.08731 -0.01154
C 15.74149 10.45356 0.0106
C 14.60575 11.20718 -0.01594
C 14.59866 12.60995 0.00742
C 15.72985 13.24824 -0.00311
C 14.57193 32.69905 0.00675
C 12.20483 0.0572 -0.00865
C 13.44005 0.76055 0.0058
C 13.5625 2.14958 -0.00652
C 12.72321 13.19843 -0.04076
C 13.62242 28.39009 -0.00703
C 12.21438 28.20089 0.00654
C 12.19434 29.74383 -0.04422
C 16.00679 6.62996 -0.01721
C 18.43858 4.96121 0.03374
C 17.27671 4.24967 -0.02845
C 17.18382 2.89097 -0.03213
C 23.38459 6.41552 -0.00938
C 22.1358 7.09931 -0.00229
C 22.19758 8.58957 -0.01199
C 23.37713 9.32694 -0.009
C 23.36992 10.66148 -0.00285
C 22.05062 11.36297 0.01423
C 22.06321 12.83913 0.02555
C 23.25297 13.51457 0.03102
C 23.39776 31.753 0.00135
C 22.39101 32.57288 -0.00498
C 19.67788 0.01433 0.02737
C 20.8621 0.6006 0.02117
C 20.89743 2.10122 -0.04078
C 19.59896 2.89583 0.03005
C 19.68721 4.26665 -0.0276
C 20.88032 4.94102 0.00768
C 20.9827 6.41563 -0.00178
C 19.71053 7.16741 0.00733
C 19.754 8.56954 -0.02118
C 21.01534 9.36033 -0.01971
C 20.87201 10.72115 -0.01586
C 19.56615 11.35876 -0.01107
C 19.58951 12.79906 0.00071
C 20.83818 13.54536 -0.00225
C 20.94457 14.95468 0.01515
C 19.68656 15.2399 -0.0055
C 17.13423 0.04832 0.02734
C 18.37466 0.67877 0.01153
C 18.41131 2.19467 0.02239
C 13.45876 30.28069 -0.02957
C 23.26904 5.02005 -0.0264
C 13.54158 31.85912 -0.00831
C 9.72017 33.90911 -0.017
C 6.04056 27.72445 0.00889
C 4.81804 28.43611 -0.02162
C 4.86536 29.84313 -0.00619
C 6.0785 30.477 0.01848
C 6.09472 31.92154 0.02098
C 4.8735 32.64086 -0.03113
C 2.4585 0.03292 0.0351
C 3.82245 0.7202 0.00422
C 2.71201 2.77333 0.00798
C 2.44515 11.41843 0.00228
C 2.65931 12.77653 -0.00114
C 3.76553 13.63406 -0.02696
C 3.65865 14.95809 -0.00368
C 6.12527 26.33462 -0.00481
C 2.36297 15.6543 -0.0108
C 3.59066 17.8545 0.02058
C 3.60212 19.19062 0.01965
C 2.45842 19.88844 -0.03682
C 2.35246 21.3371 0.00052
C 3.58683 22.10345 0.00374
C 3.60676 23.49378 -0.02813
C 2.37062 24.1026 -0.01952
C 2.3299 25.49639 0.05265
C 3.60748 26.24481 -0.01717
C 3.55699 27.64012 0.00244
C 2.305 28.4548 0.02299
C 2.35278 29.85911 0.03542
C 3.56719 30.5374 0.01416
C 2.37154 17.08354 -0.01957
C 4.89904 25.53592 0.00979
C 4.80869 24.17995 0.01443
C 6.11398 23.41378 0.03505
C 10.96484 0.50805 0.00143
C 11.45562 13.8411 0.00667
C 10.8171 27.62727 -0.0054
C 9.74839 28.4588 0.00755
C 9.75671 29.85303 0.01739
C 11.00512 30.47315 0.03754
C 11.03378 31.85595 -0.03557
C 9.71811 32.55902 -0.00111
C 7.15582 0.05982 0.04892
C 8.83226 15.3991 0.01452
C 7.55064 14.82468 -0.01581
C 7.28344 24.25987 0.02691
C 7.39442 25.5855 -0.01979
C 8.60027 26.35818 0.02188
C 8.51929 27.7898 -0.00316
C 7.22752 28.42508 -0.0331
C 7.30636 29.78623 -0.0258
C 8.48943 30.58732 0.03338
C 8.4639 31.93803 -0.00491
C 7.24973 32.73126 -0.00109
C 4.90083 0.01346 0.03698
C 6.28862 15.25414 -0.02213
C 5.0387 15.73572 0.00028
C 4.83521 17.10414 -0.00289
C 5.98869 17.98874 -0.00066
C 5.94941 19.21917 0.00213
C 4.82029 19.91824 -0.05302
C 4.78761 21.38899 -0.04147
C 6.16912 21.95483 -0.02815
C 12.28494 32.59854 0.00364
C 3.6912 31.97725 0.01945
C 22.09508 4.17525 -0.01154
C 23.37303 2.08067 -0.01052
C 33.31224 2.20442 -0.00323
C 32.03015 2.86916 0.00349
C 31.99411 4.30309 -0.03838
C 33.17222 5.01883 0.04926
C 33.15318 6.44235 -0.00069
C 31.93056 7.18715 0.01504
C 31.93201 8.5991 0.02806
C 33.10193 9.4123 0.04381
C 33.17452 10.77254 0.00199
C 31.93225 11.48876 0.00137
C 31.98801 12.92654 -0.01839
C 33.20854 13.555 -0.00644
C 33.23944 14.92764 0.00455
C 33.3406 0.84225 -0.00841
C 31.99016 15.72316 0.00369
C 33.15917 17.69539 0.00594
C 33.13436 19.06212 -0.0136
C 31.92712 19.84291 -0.01429
C 31.92929 21.25607 -0.02383
C 33.03633 21.92799 0.01574
C 33.01742 23.42607 0.01927
C 31.78561 24.13244 0.03794
C 31.6681 25.49514 -0.01779
C 32.98298 26.21824 0.00682
C 32.90101 27.69945 0.00026
C 31.73989 28.44408 0.0544
C 31.87021 29.84943 -0.02142
C 33.08898 30.54773 0.01428
C 31.98375 17.09151 -0.02474
C 32.0726 0.10317 0.0001
C 0.00408 32.68843 -0.02927
C 1.18827 31.97285 -0.01404
C 1.31571 0.76052 -0.00468
C 1.40963 2.19723 -0.00939
C 0.11574 2.88264 -0.00931
C 0.12523 4.32124 -0.0345
C 1.21577 5.15333 0.00628
C 1.20382 6.53856 0.02931
C 34.40572 7.1783 -0.02849
C 34.31866 8.62631 -0.02302
C 1.1986 9.21793 -0.00583
C 1.22154 10.65134 -0.00027
C 34.4083 11.37187 -0.02442
C 0.0226 12.8402 -0.02656
C 1.30457 13.53099 0.00343
C 1.25251 14.91412 -0.02957
C 0.03974 15.61061 0.02114
C 0.12295 17.01247 0.00648
C 1.25205 17.76741 0.01223
C 1.2271 19.22738 -0.01678
C 34.39437 19.86932 0.01951
C 34.33002 21.23958 -0.02213
C 1.1154 21.97198 0.02712
C 1.07574 23.38258 0.00723
C 34.25418 24.135 0.03076
C 34.2224 25.51767 -0.05239
C 1.09278 26.2358 -0.00598
C 0.99473 27.68387 -0.00439
C 34.21983 28.35793 -0.01037
C 34.35669 29.83346 0.01831
C 1.15823 30.5622 0.01027
C 33.21408 32.0188 -0.01694
C 22.12302 2.74567 0.00684
C 32.0371 32.71795 0.01713
C 30.77488 0.75229 0.00307
C 27.11063 12.74274 0.01259
C 28.26308 13.55585 0.01495
C 28.40435 14.97222 0.00235
C 27.77708 28.26309 0.01094
C 27.05284 29.66834 0.02198
C 28.15041 30.6117 0.02611
C 28.21939 32.00473 -0.00621
C 27.04503 32.75719 0.00194
C 24.66582 33.97034 0.04185
C 25.82179 0.7064 0.02316
C 25.78789 2.12854 0.01257
C 24.54045 2.79534 0.00152
C 24.60166 4.25813 -0.00294
C 27.05405 11.33172 0.01799
C 25.84114 4.94527 0.00826
C 24.66253 7.09699 -0.00942
C 24.62474 8.54843 -0.02815
C 25.82287 9.28431 0.00622
C 25.80249 10.65785 -0.0032
C 24.60611 11.44644 -0.00037
C 24.56839 12.91419 -0.01654
C 25.8933 13.47114 -0.00218
C 24.12746 30.50754 -0.00802
C 25.61631 30.44468 0.00195
C 25.92065 31.86772 0.00996
C 24.59109 32.59078 0.04306
C 22.17512 33.93707 0.00367
C 23.36526 0.63553 -0.01679
C 25.91016 6.38846 0.00487
C 28.28834 10.64324 0.01699
C 28.28439 9.24403 -0.00416
C 27.00678 8.5578 0.01177
C 30.8356 2.18717 0.00716
C 29.56097 2.80388 0.02108
C 29.47462 4.26393 0.0103
C 30.78457 5.06254 0.07705
C 30.73883 6.41825 0.01908
C 29.46951 7.12052 0.01518
C 29.50732 8.54815 -0.00971
C 30.69888 9.29026 -0.03735
C 30.74683 10.71417 -0.00944
C 29.52669 11.39105 -0.02155
C 29.48951 12.80922 -0.01461
C 30.75156 13.56038 -0.01303
C 30.75783 14.9877 -0.0405
C 29.47766 15.60119 0.01705
C 30.60345 26.43411 0.0101
C 30.36321 27.76127 -0.00669
C 29.39845 28.60658 0.03531
C 29.38086 30.0062 0.01836
C 30.68206 30.65372 -0.03039
C 30.72448 32.01092 -0.01415
C 29.46127 32.69844 -0.01854
C 26.99013 34.07526 -0.02049
C 28.23238 0.73022 0.03265
C 28.27066 2.07135 0.00261
C 26.9862 2.79372 0.02326
C 26.95174 4.24291 0.00924
C 28.34011 4.97503 0.0014
C 28.30391 6.35562 0.01324
C 27.09833 7.096 0.04266
C 29.5073 0.06338 0.00346
C 2.44416 32.71155 -0.01454
