378
Graphene
C 0.01433 0.02274 0.01295
C 16.01722 23.42846 0.01416
C 15.93418 22.07334 0.03542
C 16.01709 13.51188 0.02299
C 14.82044 12.74467 0.00244
C 14.79157 11.41423 -0.01717
C 16.02032 9.22038 0.05265
C 14.7126 8.47768 -0.01952
C 14.71863 7.07567 -0.02813
C 15.97284 6.29806 0.00374
C 15.97146 4.94048 0.00052
C 14.8127 4.29378 -0.03682
C 14.79115 2.81452 0.01965
C 16.01817 2.09101 0.02058
C 16.01567 0.68604 -0.01957
C 14.73447 0.06475 -0.0108
C 17.23777 32.63539 -0.00368
C 18.45143 31.87374 -0.02696
C 18.40053 30.49378 -0.00114
C 17.25334 29.78048 0.00228
C 14.70758 24.13851 0.01945
C 14.74256 25.56773 -0.01454
C 15.98518 26.23038 0.01241
C 15.96392 27.70457 0.0076
C 12.23458 24.20217 -0.02245
C 13.52486 23.4632 -0.00428
C 13.54774 22.03904 0.03101
C 12.29973 11.34922 -0.01536
C 13.53439 10.66006 -0.02689
C 13.53918 9.25953 -0.01046
C 12.33625 8.51148 -0.00891
C 12.33912 7.11102 0.02819
C 13.53918 6.46385 0.00165
C 17.19162 28.40036 0.00798
C 13.5202 5.03677 -0.02971
C 12.3056 2.80766 -0.01789
C 13.53372 2.12055 0.00444
C 13.5397 0.73411 -0.00925
C 12.35673 34.07275 0.01877
C 14.74999 32.61829 0.01363
C 15.98318 31.95799 -0.02162
C 15.98061 30.50347 0.00415
C 14.714 29.81509 -0.0014
C 14.77983 28.39662 0.02162
C 12.35818 4.26268 0.02894
C 12.30111 25.58671 0.00985
C 18.43799 27.72178 0.00422
C 17.18031 25.60494 -0.03113
C 19.66143 25.57668 0.02188
C 19.68538 24.08697 -0.01979
C 20.91886 23.42901 0.02691
C 20.91639 22.05453 -0.01581
C 19.68094 21.27875 0.01452
C 19.65764 19.87582 0.04892
C 20.91079 19.19536 -0.00111
C 20.91345 17.71976 -0.03557
C 19.72704 17.09775 0.03754
C 19.68702 15.5714 0.01739
C 20.9084 14.89728 0.00755
C 20.93049 13.48436 -0.0054
C 19.70798 7.0657 0.00667
C 20.87077 6.38032 0.00143
C 20.89411 4.94836 -0.017
C 19.69464 4.25972 0.00364
C 19.70392 2.82705 -0.00831
C 20.89648 2.16859 -0.02957
C 20.87422 0.72087 -0.04422
C 20.85364 26.29628 -0.00316
C 20.84796 27.71387 -0.0331
C 19.66751 28.4307 -0.0258
C 19.64154 29.82306 0.03338
C 17.24131 24.10645 0.02098
C 18.46547 23.40972 0.01848
C 18.46639 22.03537 -0.00619
C 17.19905 21.34028 -0.02162
C 17.2495 19.9156 0.00889
C 18.41342 19.18156 -0.00481
C 18.44083 17.70279 0.00979
C 17.22403 15.60603 0.01443
C 18.41385 14.90163 0.03505
C 18.48148 26.27607 0.0351
C 17.17525 7.09104 -0.02815
C 18.41556 4.99701 -0.05302
C 17.17444 4.26407 0.00213
C 17.20468 2.81983 -0.00066
C 18.40713 2.13602 -0.00289
C 18.47765 0.73399 0.00028
C 17.27084 34.05994 -0.02213
C 19.65184 32.65638 0.03698
C 20.89005 31.86261 -0.00109
C 20.869 30.48246 -0.00491
C 18.46966 6.40947 -0.04147
C 13.49831 26.28627 -0.01275
C 13.53914 27.67522 -0.01111
C 12.32747 28.42588 0.02841
C 4.89784 29.85939 -0.01343
C 4.92792 28.3818 0.00988
C 6.10742 27.71803 0.0276
C 6.12543 26.29685 0.01305
C 4.91851 25.61216 -0.00077
C 4.93695 24.10843 0.03368
C 6.15726 23.43018 -0.02929
C 6.12585 22.03116 -0.00966
C 4.87118 21.30407 -0.03337
C 4.91877 19.87392 0.01227
C 6.18274 19.26061 0.00873
C 4.94186 7.04268 -0.00049
C 6.15679 6.42376 0.00848
C 6.18289 4.98596 -0.01303
C 4.93119 4.29669 -0.01378
C 4.88909 2.88951 0.02635
C 6.16899 2.16187 0.0127
C 6.13521 0.68798 0.01396
C 4.90316 0.0113 0.01849
C 6.11848 30.56943 0.01087
C 6.18046 31.92089 -0.05697
C 4.97458 32.65568 -0.00725
C 2.42888 34.05656 0.02322
C 3.72975 30.51666 -0.01509
C 2.47601 29.80142 0.03267
C 2.43221 28.39898 0.02374
C 3.6993 27.75984 0.00402
C 3.69667 26.28146 0.0073
C 2.48028 25.54655 0.0174
C 2.42974 24.14893 0.03828
C 3.74237 23.41385 0.01226
C 3.62109 22.00537 -0.00279
C 7.44025 32.6563 -0.01142
C 2.39704 21.26788 0.01996
C 3.67876 19.24138 0.01465
C 2.41988 8.54107 -0.00074
C 2.46119 7.1146 -0.00518
C 3.74982 6.43013 0.0086
C 3.68709 4.90916 -0.00643
C 2.48342 4.28776 0.017
C 2.49516 2.8729 -0.03113
C 3.69563 2.15765 -0.02566
C 3.67031 0.71375 -0.00094
C 2.42969 19.83378 -0.03996
C 8.5932 31.92018 -0.00562
C 8.63635 30.50468 -0.00494
C 7.39391 29.78701 0.00054
C 11.07588 26.31461 -0.00191
C 9.87036 25.60646 0.00438
C 9.78716 24.15586 0.01291
C 11.12353 23.41839 0.00093
C 11.12303 22.01135 0.00057
C 9.87926 21.35329 -0.01634
C 9.78933 19.79293 -0.00334
C 11.07501 9.22678 0.02339
C 9.82596 7.13147 0.01641
C 11.03043 27.66202 0.00373
C 11.09401 6.40198 -0.00719
C 9.83861 4.31775 -0.01062
C 9.81593 2.86684 -0.00033
C 11.07748 2.08608 0.03589
C 11.05391 0.72131 -0.02759
C 9.82642 0.03523 0.0402
C 12.30899 32.67728 0.00572
C 13.49684 31.96085 0.03592
C 13.52354 30.54464 0.00406
C 12.31822 29.83629 0.00943
C 11.06279 4.99049 0.01364
C 19.65465 0.05394 0.00654
C 9.8634 28.39441 0.02147
C 11.08877 30.5484 -0.01118
C 7.37152 28.40557 0.03007
C 8.63831 27.71289 -0.00095
C 8.55105 26.33821 0.01572
C 7.33073 25.58499 -0.04848
C 7.3949 24.14545 -0.00892
C 8.53958 23.43638 -0.01362
C 8.60137 22.06473 -0.0008
C 7.4042 21.3004 0.0288
C 7.39604 19.873 0.00393
C 9.81066 29.84684 -0.014
C 8.63283 19.24728 0.00895
C 8.62324 6.39396 0.02888
C 8.55968 4.96471 -0.00482
C 7.33465 4.26724 -0.01384
C 7.38363 2.81473 0.03693
C 8.61702 2.10391 0.01745
C 8.54942 0.75619 0.00488
C 7.32641 0.01927 -0.01004
C 9.8669 32.73279 -0.02896
C 11.08429 31.93579 -0.00131
C 7.37403 7.12922 0.00685
C 22.08147 32.62313 -0.00703
C 23.38217 31.94253 -0.04076
C 23.37649 30.56942 -0.00652
C 30.68369 4.97796 0.02108
C 29.47578 4.24642 0.00716
C 29.49573 2.78005 0.00307
C 30.74984 2.14565 0.00346
C 30.68471 0.70287 0.01713
C 29.51963 0.03044 -0.01694
C 31.98091 32.63085 0.01428
C 33.20802 31.93515 -0.02142
C 33.21982 30.54419 0.0544
C 32.00884 29.83168 0.00026
C 31.97648 28.43673 0.00682
C 33.18551 27.67138 -0.01779
C 33.1978 26.28757 0.03794
C 31.98004 25.54384 0.01927
C 31.94627 24.17034 0.01574
C 33.25936 23.43272 -0.02383
C 33.2215 21.98396 -0.01429
C 32.02033 21.28137 -0.0136
C 31.94598 19.90396 0.00594
C 30.71959 6.40032 0.0103
C 29.53286 7.11618 0.07705
C 29.50917 8.53103 0.01908
C 30.74592 9.21654 0.01518
C 30.73209 30.53593 0.00924
C 29.5654 29.83082 0.02326
C 29.50737 28.33764 0.00261
C 30.76467 27.63749 0.03265
C 30.76148 26.23418 -0.02049
C 29.50967 25.59706 -0.01854
C 29.51294 24.12422 -0.01415
C 30.73357 23.45476 -0.03039
C 30.78742 21.9591 0.01836
C 33.17269 19.14618 -0.02474
C 29.48748 21.30434 0.03531
C 30.71136 19.14645 0.0101
C 30.7226 17.76371 0.01705
C 29.52977 17.05664 -0.0405
C 29.52371 15.57946 -0.01303
C 30.76122 14.9107 -0.01461
C 30.7556 13.52064 -0.02155
C 29.57405 12.75343 -0.00944
C 29.51318 11.3316 -0.03735
C 30.73816 10.65276 -0.00971
C 29.55048 19.84428 -0.00669
C 33.18972 17.72133 0.00369
C 31.99823 17.00536 0.00455
C 31.98984 15.61955 -0.00644
C 1.20584 23.43937 -0.02213
C 1.24122 22.06865 0.01951
C 0.00269 21.31567 -0.01678
C 0.02238 19.91106 0.01223
C 1.20242 19.15671 0.00648
C 1.21743 17.75435 0.02114
C 0.00799 17.01985 -0.02957
C 0.02733 15.66269 0.00343
C 0.01809 12.7527 -0.02656
C 34.39786 24.12709 0.02712
C 34.42037 11.39754 -0.02442
C 1.2477 9.24398 -0.00583
C 0.0125 8.5662 -0.02302
C 34.39795 7.04449 -0.02849
C 1.18582 6.35217 0.02931
C 1.21082 4.94951 0.00628
C 0.04984 4.23293 -0.0345
C 34.39674 2.80407 -0.00931
C 1.21712 2.14979 -0.00939
C 1.23893 0.67942 -0.00468
C 1.18657 10.67786 -0.00027
C 30.73785 31.89914 0.0014
C 34.42982 25.62648 0.00723
C 1.23759 27.74754 -0.05239
C 33.20097 14.91032 -0.01839
C 33.20196 13.45323 0.00137
C 31.9237 12.74891 0.00199
C 31.90577 11.37518 0.04381
C 33.20536 10.65614 0.02806
C 33.21756 9.21331 0.01504
C 31.97496 8.51663 -0.00069
C 31.94138 7.13265 0.04926
C 33.20453 6.41302 -0.03838
C 1.21377 26.32846 0.03076
C 33.18959 5.0033 0.00349
C 31.94788 2.81526 -0.00841
C 33.2064 2.15976 0.0001
C 33.21349 0.70975 -0.02927
C 31.98401 0.01518 -0.01404
C 34.4185 32.63066 0.01027
C 1.20517 31.94114 0.01831
C 1.22287 30.55708 -0.01037
C 34.42597 29.85088 -0.00439
C 0.01208 28.36102 -0.00598
C 31.9672 4.23035 -0.00323
C 3.64698 31.94915 0.00643
C 29.51181 32.68134 0.01324
C 28.28927 0.70898 0.01177
C 22.07641 4.19565 0.03374
C 22.115 2.82631 -0.02845
C 23.38199 2.12943 -0.03213
C 23.36729 0.71172 0.02239
C 22.13046 0.01282 0.01153
C 24.58954 32.61134 0.02734
C 25.82265 31.93662 -0.0055
C 25.84521 30.5512 0.01515
C 24.56996 29.81757 -0.00225
C 24.59449 28.38436 0.00071
C 25.81186 27.66163 -0.01107
C 25.80519 26.25193 -0.01586
C 24.59882 25.5708 -0.01971
C 24.61506 24.11484 -0.02118
C 25.79878 23.46563 0.00733
C 25.75871 21.9821 -0.00178
C 24.51525 21.28541 0.00768
C 24.59189 19.85347 -0.0276
C 25.78822 19.18706 0.03005
C 23.4026 4.95551 0.0296
C 23.39252 6.37051 0.03046
C 22.06937 7.09527 -0.00381
C 22.07712 8.44915 0.01852
C 22.15401 29.80508 0.0058
C 22.13322 28.37774 -0.00865
C 23.40677 27.66071 0.00675
C 23.39002 26.23883 -0.00311
C 22.16693 25.54586 0.00742
C 22.15089 24.11327 -0.01594
C 23.39522 23.36257 0.0106
C 23.32422 21.9971 -0.01154
C 22.10665 21.32577 -0.01721
C 25.83139 17.69499 -0.04078
C 22.17679 19.85596 -0.02422
C 23.31566 17.70089 0.00096
C 22.11607 17.0297 -0.01527
C 22.1591 15.60165 0.01087
C 23.37605 14.87665 0.00199
C 23.3907 13.49069 0.01511
C 22.10369 12.76356 -0.00478
C 22.13158 11.3718 -0.01662
C 23.37899 10.63219 -0.01185
C 23.4258 9.21788 0.01126
C 23.38895 19.18236 0.01277
C 24.57703 17.07317 0.02117
C 24.63771 15.57385 0.02737
C 25.84472 14.94249 -0.00498
C 28.3041 22.00442 -0.02815
C 27.03572 21.33669 -0.00942
C 27.02023 19.8686 0.00487
C 28.27424 19.18463 0.00826
C 28.24984 17.78655 -0.00294
C 27.04836 17.01945 0.00152
C 27.09681 15.64515 0.01257
C 28.26085 14.93925 0.02316
C 28.29373 13.44264 0.04185
C 28.29637 23.46885 0.00622
C 27.08496 12.78298 0.00194
C 28.33016 10.64408 0.02611
C 28.23362 9.2052 0.02198
C 27.09149 8.5281 0.01094
C 27.04765 7.07798 0.00235
C 28.37945 6.41849 0.01495
C 28.26684 5.00292 0.01259
C 27.06509 4.24178 0.01799
C 27.05507 2.81626 0.01699
C 28.21907 2.12522 -0.00416
C 27.00239 11.38038 -0.00621
C 27.04289 34.05621 0.04266
C 27.04859 24.149 -0.0032
C 28.30449 26.25421 -0.01654
C 25.76221 13.47848 0.00135
C 24.59304 12.77112 0.03102
C 24.5493 11.35232 0.02555
C 25.79699 10.63304 0.01423
C 25.80942 9.23607 -0.00285
C 24.59816 8.51627 -0.009
C 24.60102 7.06681 -0.01199
C 25.79984 6.41387 -0.00229
C 25.85866 4.92425 -0.00938
C 27.07637 25.54757 -0.00037
C 24.58442 4.25273 -0.0264
C 25.81583 2.1262 0.00684
C 25.8834 0.73672 -0.01052
C 24.63033 34.07363 -0.01679
C 27.01255 32.62488 0.00367
C 28.29187 31.9448 0.04306
C 28.27481 30.5586 0.00996
C 27.02227 29.84084 0.00195
C 27.05923 28.39452 -0.00802
C 28.32243 27.73576 -0.00218
C 24.64197 2.86452 -0.01154
C 2.45002 32.68785 0.00907
