338
Graphene
C 34.38877 34.06441 0.01295
C 9.80147 4.36501 0.00889
C 9.90332 2.90172 -0.00481
C 11.10041 2.16128 0.00979
C 11.0041 0.70168 0.01443
C 9.80319 0.03163 0.03505
C 12.26545 32.66572 -0.02815
C 13.52989 32.00252 -0.04147
C 13.6199 30.52066 -0.05302
C 12.33098 29.84919 0.00213
C 12.31077 28.41324 -0.00066
C 13.43466 27.58745 -0.00289
C 13.47236 26.09961 0.00028
C 12.1895 25.54044 -0.02213
C 13.50263 9.05304 0.03698
C 12.33704 8.46302 -0.00109
C 12.3007 7.03116 -0.00491
C 13.57173 6.36864 0.03338
C 10.99657 5.04762 -0.02162
C 13.52618 4.94757 -0.0258
C 11.04697 6.42266 -0.00619
C 9.87496 8.60565 0.02098
C 7.33273 4.33868 -0.01952
C 7.36073 2.86256 -0.02813
C 8.58691 2.19824 0.00374
C 8.57508 0.75261 0.00052
C 7.32144 0.01917 -0.03682
C 9.81787 32.71593 0.01965
C 11.02451 31.97289 0.02058
C 11.02464 30.50708 -0.01957
C 9.79389 29.87051 -0.0108
C 9.80799 28.41942 -0.00368
C 11.06436 27.82138 -0.02696
C 11.08519 26.36327 -0.00114
C 9.76911 25.60456 0.00228
C 9.92445 24.2337 0.00798
C 9.92261 11.24663 0.00422
C 11.14216 10.69664 0.0351
C 11.14206 9.2021 -0.03113
C 9.9251 7.20007 0.01848
C 8.53556 5.15582 0.05265
C 12.26836 4.35739 -0.0331
C 13.51464 2.0593 0.02188
C 18.39344 31.97379 -0.00652
C 18.38411 30.59172 0.0058
C 17.20025 29.83996 -0.00865
C 17.23404 28.44435 0.00675
C 18.46724 27.8801 -0.00311
C 18.34115 26.47936 0.00742
C 17.35575 25.59277 -0.01594
C 18.53335 9.26292 0.0106
C 17.24843 8.59543 -0.01154
C 17.25968 7.11078 -0.01721
C 18.42383 6.38344 -0.02422
C 18.35565 4.9257 0.01277
C 17.13535 4.20789 0.00096
C 17.20392 2.73195 -0.01527
C 18.40204 2.12058 0.01087
C 18.42544 0.6978 0.00199
C 17.20706 0.03751 0.01511
C 17.14669 32.65245 -0.04076
C 12.3237 2.84969 -0.00316
C 14.76592 34.04881 -0.00703
C 15.95451 2.0525 -0.04422
C 13.48781 0.64705 -0.01979
C 12.23564 34.02575 0.02691
C 14.75148 32.66531 -0.01581
C 15.90296 31.89992 0.01452
C 15.93235 30.47514 0.04892
C 14.727 29.70656 -0.00111
C 14.70163 28.261 -0.03557
C 16.00347 27.62527 0.03754
C 15.91482 26.26912 0.01739
C 14.82313 25.51406 0.00755
C 16.04674 9.25501 -0.0054
C 14.81707 8.56181 0.00667
C 14.7675 7.11274 0.00143
C 16.02196 6.40269 -0.017
C 15.92867 4.94696 0.00364
C 14.76367 4.30491 -0.00831
C 14.7462 2.82576 -0.02957
C 15.90165 0.61739 0.00654
C 8.6317 6.55056 -0.01717
C 7.3204 7.20794 0.00244
C 7.31225 8.55914 0.02299
C 2.43682 8.50075 0.03693
C 2.39987 7.09356 0.01745
C 3.6251 6.35599 0.00488
C 3.66071 4.99871 -0.01004
C 2.4491 4.26355 -0.02896
C 2.44866 2.89284 -0.00131
C 3.61693 2.1509 -0.01118
C 3.69143 0.70556 -0.014
C 2.46677 0.08054 0.02147
C 4.94894 32.69198 0.00373
C 6.22639 32.0091 -0.00191
C 6.14964 30.58412 0.00438
C 4.96925 29.84922 0.01291
C 4.89453 28.43936 0.00093
C 6.12739 27.78465 0.00057
C 6.14462 26.27164 -0.01634
C 4.87259 25.48984 -0.00334
C 3.68396 9.25569 -0.01384
C 4.96043 24.06634 0.02339
C 3.71526 10.64502 -0.00482
C 2.36659 12.76784 0.00685
C 3.67771 30.57628 0.0127
C 2.44529 29.91558 0.01396
C 2.44749 28.43524 0.01849
C 3.64263 27.65095 -0.01142
C 3.66581 26.25968 -0.00562
C 2.41062 25.61868 -0.00494
C 2.48595 24.11931 0.00054
C 3.69719 23.42476 0.03007
C 3.58879 22.00155 -0.00095
C 2.4007 21.26471 0.01572
C 2.39634 19.84783 -0.04848
C 3.64586 19.17087 -0.00892
C 3.68018 17.74191 -0.01362
C 2.45235 16.97367 -0.0008
C 2.44389 15.56075 0.0288
C 3.72966 14.82406 0.00393
C 3.63453 13.41111 0.00895
C 2.45062 11.323 0.02888
C 6.24138 23.40195 0.01641
C 6.26452 21.967 -0.00719
C 4.9369 21.32492 0.01364
C 8.60522 30.6205 -0.02971
C 7.42241 29.82294 0.02894
C 7.37421 28.38506 -0.01789
C 8.5853 27.69039 0.00444
C 8.52519 26.29239 -0.00925
C 7.34262 25.55692 0.01877
C 7.39584 24.1409 0.01363
C 8.72957 23.47246 -0.02162
C 8.59591 22.09481 0.00415
C 7.48122 21.29408 -0.0014
C 7.32873 19.84962 0.02162
C 7.27746 16.92679 0.0076
C 7.2355 15.54723 0.01241
C 7.42717 12.88035 -0.01454
C 7.36744 11.39277 0.01945
C 8.64731 10.65887 0.01416
C 8.61953 9.32038 0.03542
C 8.60694 32.04893 0.00165
C 7.32935 32.78286 0.02819
C 4.91589 0.04064 -0.00891
C 6.12007 0.75084 -0.01046
C 4.8068 19.86179 -0.01062
C 6.10723 19.21431 -0.00033
C 6.08891 17.66886 0.03589
C 4.83859 16.95681 -0.02759
C 4.90356 15.55831 0.0402
C 6.07666 14.87286 0.00572
C 6.14253 13.41701 0.03592
C 4.8753 12.67442 0.00406
C 19.65516 32.63021 -0.00478
C 4.90457 11.34505 0.00943
C 6.18459 9.32759 -0.01111
C 4.86415 8.52386 -0.01275
C 4.76726 7.15493 0.00985
C 6.05387 6.5353 -0.02245
C 6.05739 5.06441 -0.00428
C 4.81708 4.30483 0.03101
C 4.92235 2.84381 -0.01536
C 6.15619 2.1877 -0.02689
C 6.11082 10.72249 0.02841
C 20.91667 31.94691 -0.01662
C 20.91329 30.54463 -0.01185
C 19.60083 29.95348 0.01126
C 31.92826 29.827 -0.02142
C 31.92595 28.4335 0.0544
C 33.17895 27.70867 0.00026
C 33.25154 26.28457 0.00682
C 31.98711 25.60808 -0.01779
C 32.01362 24.14668 0.03794
C 33.17745 23.36878 0.01927
C 33.06321 21.92049 0.01574
C 31.78782 21.33063 -0.02383
C 31.78564 19.90565 -0.01429
C 33.03691 19.19185 -0.0136
C 33.15675 17.79868 0.00594
C 31.94185 17.01781 -0.02474
C 31.95038 15.67069 0.00369
C 33.20036 14.92777 0.00455
C 33.17789 13.47683 -0.00644
C 31.99525 12.82053 -0.01839
C 33.15564 30.5146 0.01428
C 31.97975 11.41714 0.00137
C 33.1622 31.93712 -0.01694
C 29.56873 0.03157 0.00346
C 30.60033 18.98539 -0.00669
C 30.76516 17.79076 0.0101
C 29.49535 15.5715 0.01705
C 30.69994 14.93608 -0.0405
C 30.74353 13.55094 -0.01303
C 29.59216 12.74395 -0.01461
C 29.53038 11.31853 -0.02155
C 30.79734 10.67055 -0.00944
C 30.66843 9.21975 -0.03735
C 29.52308 8.54809 -0.00971
C 29.51226 7.13087 0.01518
C 30.73395 6.30977 0.01908
C 30.65031 4.92841 0.07705
C 29.45902 4.26574 0.0103
C 29.38223 2.83479 0.02108
C 30.65441 2.15257 0.00716
C 30.77311 0.75493 0.00307
C 31.98735 32.69288 0.01713
C 33.18426 10.6856 0.00199
C 33.15459 9.19923 0.04381
C 31.85315 8.53139 0.02806
C 1.08258 17.72103 0.01223
C 34.27971 17.07161 0.00648
C 34.38082 15.68478 0.02114
C 1.18059 14.94096 -0.02957
C 1.16444 13.55918 0.00343
C 34.42662 12.85909 -0.02656
C 34.40493 11.40858 -0.02442
C 1.2069 10.60129 -0.00027
C 1.25327 9.23047 -0.00583
C 0.02041 8.53717 -0.02302
C 34.36443 7.09645 -0.02849
C 1.14547 6.36804 0.02931
C 1.21273 4.94247 0.00628
C 34.39259 4.25676 -0.0345
C 34.40798 2.79197 -0.00931
C 1.23494 2.10565 -0.00939
C 1.21773 0.72925 -0.00468
C 1.02155 19.17491 -0.01678
C 34.26391 19.92423 0.01951
C 34.29527 21.32145 -0.02213
C 1.13567 22.04062 0.02712
C 31.93626 7.08104 0.01504
C 33.12394 6.38932 -0.00069
C 33.18711 4.97974 0.04926
C 31.94776 4.23618 -0.03838
C 31.90488 2.78967 0.00349
C 33.14791 2.07354 -0.00323
C 33.11902 0.64529 -0.00841
C 31.92276 34.06077 0.0001
C 30.73133 22.23313 0.03531
C 0.04578 32.65192 -0.02927
C 1.19717 30.61564 0.01027
C 34.42939 29.85783 0.01831
C 34.39647 28.44368 -0.01037
C 1.1677 27.75589 -0.00439
C 1.15773 26.30005 -0.00598
C 0.00197 25.51843 -0.05239
C 34.42579 24.1266 0.03076
C 1.22539 23.45144 0.00723
C 1.27363 31.96786 -0.01404
C 3.691 31.99226 0.02635
C 30.81893 23.49385 0.01836
C 30.73249 26.25918 -0.01415
C 21.79186 11.3127 -0.0276
C 23.13835 10.67428 0.03005
C 23.31874 9.27517 -0.04078
C 22.16736 8.47968 0.02117
C 22.05523 7.06465 0.02737
C 23.25907 6.38014 -0.00498
C 23.22684 4.92358 0.00135
C 22.04162 4.23061 0.03102
C 22.1605 2.88025 0.02555
C 23.3589 2.15229 0.01423
C 23.32957 0.77336 -0.00285
C 22.03171 0.10395 -0.009
C 24.58169 32.70359 -0.01199
C 25.84496 31.94984 -0.00229
C 25.772 30.50543 -0.00938
C 24.58475 29.84503 -0.0264
C 24.52379 28.34941 -0.01154
C 22.07947 12.6952 0.00768
C 25.84029 27.72986 0.00684
C 23.31703 13.37705 -0.00178
C 22.05837 28.41778 -0.02118
C 19.7222 28.52199 0.01852
C 20.79006 27.66618 -0.00381
C 20.62446 10.57595 0.03046
C 20.83481 9.20645 0.0296
C 19.69076 8.47969 0.03374
C 19.62846 7.02583 -0.02845
C 20.85321 6.39465 -0.03213
C 20.86768 4.93077 0.02239
C 19.61334 4.21723 0.01153
C 19.70244 2.7979 0.02734
C 20.91696 2.17988 -0.0055
C 20.83623 0.79262 0.01515
C 19.66561 34.05969 -0.00225
C 22.1221 32.65784 0.00071
C 23.36511 31.99553 -0.01107
C 23.35757 30.56339 -0.01586
C 22.149 29.83879 -0.01971
C 23.30549 27.8325 0.00733
C 25.87381 13.46411 -0.01052
C 24.60335 12.8007 -0.01679
C 24.44382 11.39853 0.00367
C 28.24018 10.6399 0.01094
C 28.23413 9.22107 0.00235
C 27.00383 8.49077 0.01495
C 26.98164 7.0505 0.01259
C 28.27859 6.35379 0.01799
C 28.26261 4.97367 0.01699
C 26.99873 4.31908 -0.00416
C 26.95769 2.8537 0.01177
C 28.17393 2.15275 0.04266
C 28.342 0.69617 0.01324
C 27.11025 0.03468 0.0014
C 29.51443 32.66265 0.00924
C 30.7354 31.97627 0.02326
C 30.75137 30.53171 0.00261
C 29.48912 29.86807 0.03265
C 29.53318 28.47484 -0.02049
C 30.7509 27.70382 -0.01854
C 26.99656 11.30403 0.02198
C 27.04634 12.74061 0.02611
C 28.30539 13.44003 -0.00621
C 28.46852 14.89026 0.00194
C 25.72274 10.5916 0.04306
C 25.76964 9.1998 0.00996
C 24.49685 8.5225 0.00195
C 24.50381 7.10247 -0.00802
C 25.73142 6.37767 -0.00218
C 25.77211 5.03134 -0.01654
C 24.51931 4.30109 -0.00037
C 24.53082 2.87189 -0.0032
C 29.46506 25.61794 -0.03039
C 25.76031 2.13005 0.00622
C 24.59186 0.06327 -0.00942
C 27.01864 32.74677 0.00487
C 28.26171 32.04841 0.00826
C 28.25045 30.58678 -0.00294
C 27.03616 29.90267 0.00152
C 27.01225 28.47677 0.01257
C 28.27954 27.69751 0.02316
C 28.44317 26.31629 0.04185
C 25.83136 0.74201 -0.02815
C 2.52242 32.72525 -0.01378
