327
Graphene
C 0.08069 34.05973 0.01295
C 9.71886 4.29771 0.00213
C 9.84642 2.8217 -0.00066
C 11.09245 2.14825 -0.00289
C 11.11445 0.77098 0.00028
C 9.79805 0.0515 -0.02213
C 12.30951 32.62642 0.03698
C 13.48586 31.84539 -0.00109
C 11.0852 4.8655 -0.05302
C 13.42674 30.52024 -0.00491
C 12.30618 28.2982 -0.0258
C 13.51844 27.64741 -0.0331
C 13.63 26.29979 -0.00316
C 12.36463 25.60832 0.02188
C 12.26062 24.17986 -0.01979
C 13.59238 23.3749 0.02691
C 13.63156 21.92306 -0.01581
C 12.22618 29.71758 0.03338
C 11.18238 6.30145 -0.04147
C 9.8267 7.11951 -0.02815
C 9.67684 8.36461 0.03505
C 7.34336 2.79492 -0.0108
C 8.55912 2.209 -0.00368
C 8.59384 0.72639 -0.02696
C 7.39034 0.02678 -0.00114
C 9.88235 32.70326 0.00228
C 11.10595 31.95195 0.00798
C 11.09321 30.5081 0.00422
C 9.87272 29.87117 0.0351
C 9.8448 28.45757 -0.03113
C 11.04743 27.68946 0.02098
C 11.09664 26.27012 0.01848
C 9.82077 25.63466 -0.00619
C 9.84362 24.22634 -0.02162
C 11.07659 23.43107 0.00889
C 11.21989 22.00855 -0.00481
C 10.01368 21.2212 0.00979
C 9.81828 19.92199 0.01443
C 12.36666 21.34751 0.01452
C 7.37353 4.31178 -0.01957
C 12.14323 7.08243 0.04892
C 12.48695 2.92703 -0.03557
C 17.19864 28.36537 0.0106
C 18.44071 27.71849 -0.01154
C 18.50342 26.29898 -0.01721
C 17.30836 25.65686 -0.02422
C 17.19749 24.29249 0.01277
C 18.41909 23.48534 0.00096
C 18.41641 22.11086 -0.01527
C 17.13483 29.83242 -0.01594
C 17.22435 21.36359 0.01087
C 18.34749 19.05255 0.01511
C 18.45878 17.66335 -0.00478
C 18.40806 0.68464 -0.01662
C 17.15748 0.14549 -0.01185
C 19.6429 32.72492 0.01126
C 20.87882 31.94337 0.01852
C 20.93216 30.60627 -0.00381
C 17.20591 19.93241 0.00199
C 18.40577 30.47039 0.00742
C 18.41339 31.95109 -0.00311
C 17.18913 32.63086 0.00675
C 13.44735 1.98521 0.03754
C 13.53746 0.65493 0.01739
C 12.31465 34.05621 0.00755
C 14.65114 32.51427 -0.0054
C 15.91557 31.94555 0.00667
C 15.92449 30.52317 0.00143
C 14.71561 29.79984 -0.017
C 14.74747 28.4231 0.00364
C 15.92552 27.65238 -0.00831
C 16.02074 26.30925 -0.02957
C 14.85072 25.55181 -0.04422
C 14.78869 24.13598 0.00654
C 16.02189 23.50131 -0.00703
C 16.01531 22.08201 -0.04076
C 14.89728 21.41062 -0.00652
C 15.86694 0.55679 0.0058
C 14.7001 33.97133 -0.00865
C 12.24313 4.2018 -0.00111
C 19.65084 29.83435 0.03046
C 8.56976 5.02992 0.02058
C 7.33997 7.11498 -0.03682
C 2.38707 8.49505 0.00438
C 2.41158 7.13226 0.01291
C 3.69133 6.44165 0.00093
C 3.6822 4.99264 0.00057
C 2.47012 4.2067 -0.01634
C 2.46127 2.77806 -0.00334
C 3.69533 2.16048 0.02339
C 3.61703 9.20272 -0.00191
C 3.71369 0.68845 0.01641
C 4.97641 32.61878 0.01364
C 6.14823 31.95373 -0.01062
C 6.14975 30.51856 -0.00033
C 4.94564 29.84403 0.03589
C 4.84995 28.49716 -0.02759
C 6.0468 27.64059 0.0402
C 6.12308 26.21302 0.00572
C 2.49502 34.03474 -0.00719
C 3.60892 10.65279 0.00373
C 2.44915 11.36711 0.02147
C 2.46383 12.78901 -0.014
C 3.67692 30.56265 -0.00892
C 2.42934 29.83817 -0.01362
C 2.48147 28.42322 -0.0008
C 3.65272 27.76785 0.0288
C 3.67455 26.26793 0.00393
C 2.38822 25.63786 0.00895
C 2.3779 24.23862 0.00685
C 3.67404 23.4654 0.02888
C 3.6376 22.07664 -0.00482
C 2.42515 21.35647 -0.01384
C 2.39976 19.90451 0.03693
C 3.71948 19.13945 0.01745
C 3.74113 17.76415 0.00488
C 2.47495 17.02171 -0.01004
C 2.54944 15.60929 -0.02896
C 3.66654 14.88324 -0.00131
C 3.67789 13.44226 -0.01118
C 4.92785 25.54603 0.03592
C 8.58981 6.37218 0.01965
C 4.91803 24.13115 0.00406
C 6.16849 22.08563 0.02841
C 7.40062 32.67836 -0.0014
C 8.61638 31.982 0.02162
C 8.6533 30.56394 0.0076
C 7.33781 29.82638 0.01241
C 7.30808 28.43096 -0.01454
C 8.55667 27.7806 0.01945
C 8.62116 26.40062 0.01416
C 4.92875 34.01678 0.00415
C 7.37326 25.60055 0.03542
C 8.66376 23.48903 0.00244
C 8.72822 21.95909 -0.01717
C 7.44079 21.30442 0.05265
C 7.45935 19.90912 -0.01952
C 8.59285 19.31526 -0.02813
C 8.5165 9.01182 0.00374
C 7.26568 8.55284 0.00052
C 7.41453 24.19862 0.02299
C 6.05722 0.79079 -0.02162
C 6.07127 2.14716 0.01363
C 4.87327 2.85529 0.01877
C 4.96842 21.33608 -0.01111
C 4.90267 19.88135 -0.01275
C 6.19895 19.15893 0.00985
C 6.10056 17.73889 -0.02245
C 5.04369 17.04225 -0.00428
C 4.96529 15.56345 0.03101
C 6.01324 14.79604 -0.01536
C 5.99164 13.4353 -0.02689
C 4.88151 12.69903 -0.01046
C 4.87613 11.26002 -0.00891
C 6.0988 10.61154 0.02819
C 6.06933 9.32877 0.00165
C 4.8791 8.51382 -0.02971
C 4.87529 7.1144 0.02894
C 6.06646 6.39584 -0.01789
C 6.15584 5.01467 0.00444
C 4.90228 4.33664 -0.00925
C 6.16917 23.45458 0.00943
C 3.70635 31.9503 -0.04848
C 19.72573 28.40758 0.0296
C 20.88263 26.3644 -0.02845
C 33.1846 26.39399 0.00682
C 31.96251 25.66337 -0.01779
C 31.90869 24.23915 0.03794
C 33.2397 23.56607 0.01927
C 33.14591 22.15775 0.01574
C 31.91904 21.3311 -0.02383
C 31.95705 19.87637 -0.01429
C 33.10142 27.79825 0.00026
C 33.12182 19.12987 -0.0136
C 31.86253 17.06202 -0.02474
C 31.7976 15.5724 0.00369
C 33.16644 14.91427 0.00455
C 33.07901 13.54439 -0.00644
C 31.92052 12.87625 -0.01839
C 31.95642 11.47232 0.00137
C 33.08764 10.68286 0.00199
C 33.16908 17.69917 0.00594
C 31.8686 28.44465 0.0544
C 31.92249 29.90354 -0.02142
C 33.15593 30.54446 0.01428
C 30.73865 23.47201 -0.0405
C 30.69237 21.97115 -0.01303
C 29.49228 21.30763 -0.01461
C 29.4598 19.90671 -0.02155
C 30.66967 19.15392 -0.00944
C 30.69058 17.69534 -0.03735
C 29.41543 17.02621 -0.00971
C 30.76412 14.7427 0.01518
C 30.75457 6.38651 0.01908
C 30.74157 5.04796 0.07705
C 29.44261 4.31772 0.0103
C 29.50238 2.87878 0.02108
C 30.76654 2.12275 0.00716
C 30.81577 0.705 0.00307
C 29.56615 0.05353 0.00346
C 31.91435 32.57692 0.01713
C 33.24332 32.01256 -0.01694
C 33.13327 9.18946 0.04381
C 29.50444 24.03682 0.01705
C 31.84251 8.62481 0.02806
C 33.14989 6.36602 -0.00069
C 0.03106 17.04962 0.00648
C 34.3991 15.63022 0.02114
C 1.28268 14.89842 -0.02957
C 1.21541 13.50028 0.00343
C 34.34526 12.81783 -0.02656
C 34.37004 11.36385 -0.02442
C 1.19084 10.67264 -0.00027
C 1.2376 17.74529 0.01223
C 1.09795 9.19027 -0.00583
C 0.03427 7.05771 -0.02849
C 1.25603 6.34762 0.02931
C 1.28355 4.90783 0.00628
C 0.02037 4.25371 -0.0345
C 34.41982 2.90638 -0.00931
C 1.23536 2.09872 -0.00939
C 1.23685 0.73796 -0.00468
C 34.42581 8.46657 -0.02302
C 1.13367 19.18413 -0.01678
C 34.31684 19.95759 0.01951
C 34.37485 21.37595 -0.02213
C 33.16947 4.93889 0.04926
C 31.92734 4.25763 -0.03838
C 31.96814 2.80806 0.00349
C 33.24225 2.07327 -0.00323
C 33.23809 0.70789 -0.00841
C 32.02311 0.05955 0.0001
C 0.05657 32.67747 -0.02927
C 1.24143 31.98213 -0.01404
C 1.24736 30.55994 0.01027
C 34.39389 29.86803 0.01831
C 34.40496 28.47267 -0.01037
C 1.24148 27.79839 -0.00439
C 1.21386 26.37896 -0.00598
C 0.03017 25.73001 -0.05239
C 34.41403 24.25992 0.03076
C 1.21991 23.47595 0.00723
C 1.18425 22.05864 0.02712
C 31.89868 7.21282 0.01504
C 20.91994 27.72982 0.03374
C 29.35467 25.45666 0.0101
C 30.66866 27.68611 0.03531
C 22.10963 24.12691 0.00135
C 23.39515 23.4601 0.03102
C 23.35977 21.96229 0.02555
C 22.13688 21.37849 0.01423
C 22.13867 19.86246 -0.00285
C 23.42261 19.09833 -0.009
C 23.37502 17.72941 -0.01199
C 22.1259 25.57617 -0.00498
C 22.27626 17.24045 -0.00229
C 23.40138 0.59653 -0.0264
C 22.11684 34.03351 -0.01154
C 24.60049 32.62212 0.00684
C 25.83399 31.91409 -0.01052
C 25.80767 30.5455 -0.01679
C 24.59376 29.81521 0.00367
C 24.6538 28.42223 0.04306
C 23.05133 1.95108 -0.00938
C 23.30897 26.25789 0.02737
C 23.42279 27.67948 0.02117
C 22.18136 28.44079 -0.04078
C 19.73779 25.61207 -0.03213
C 19.68652 24.18927 0.02239
C 20.86417 23.47136 0.01153
C 20.89685 22.05788 0.02734
C 19.65421 21.39596 -0.0055
C 19.61669 19.95265 0.01515
C 20.83764 19.1476 -0.00225
C 20.97978 17.72951 0.00071
C 19.70825 17.0195 -0.01107
C 19.55756 15.68618 -0.01586
C 21.01112 2.17062 -0.01971
C 20.91537 0.76641 -0.02118
C 19.6273 0.07594 0.00733
C 22.17999 32.69754 -0.00178
C 23.37518 31.88714 0.00768
C 23.39614 30.46837 -0.0276
C 22.12586 29.77247 0.03005
C 25.82082 27.73 0.00996
C 30.70191 26.2819 -0.00669
C 25.73818 26.33156 0.00195
C 24.60685 24.17233 -0.00218
C 28.24346 21.9878 0.01799
C 27.04115 21.20973 0.01699
C 27.09593 19.84699 -0.00416
C 28.28047 19.1702 0.01177
C 28.3229 17.7911 0.04266
C 28.21288 4.81912 0.01324
C 27.08962 4.09169 0.0014
C 28.2741 23.37233 0.01259
C 27.01644 2.75106 0.00924
C 28.35508 0.68903 0.00261
C 27.16964 34.03651 0.03265
C 29.44873 32.68397 -0.02049
C 30.6777 31.93708 -0.01854
C 30.65714 30.51781 -0.01415
C 29.43863 29.74506 -0.03039
C 29.44816 28.26355 0.01836
C 28.24041 2.10216 0.02326
C 27.03077 24.10094 0.01495
C 26.95857 25.50391 0.00235
C 28.17345 26.20717 0.01094
C 25.83658 23.40008 -0.01654
C 25.8075 21.97727 -0.00037
C 24.56511 21.25259 -0.0032
C 24.60388 19.80984 0.00622
C 25.87594 19.06382 -0.02815
C 25.75104 17.69513 -0.00942
C 24.71746 4.07441 0.00487
C 24.40875 2.7403 0.00826
C 25.81697 1.97564 -0.00294
C 25.90274 0.63337 0.00152
C 24.61505 33.99831 0.01257
C 27.09422 32.64807 0.02316
C 28.28194 31.93298 0.04185
C 28.26929 30.48383 0.00194
C 27.05162 29.85294 -0.00621
C 27.05822 28.3952 0.02611
C 28.24624 27.58191 0.02198
C 24.49134 25.58426 -0.00802
C 2.47468 32.67061 0.01572
