442
Graphene
C 34.39897 0.00327 0.01295
C 13.44016 19.29172 0.00057
C 13.49409 17.76473 -0.01634
C 12.26053 17.08458 -0.00334
C 12.29777 15.70184 0.02339
C 13.4755 14.91114 0.01641
C 13.45591 13.50441 -0.00719
C 12.30978 12.80171 0.01364
C 12.33169 11.34927 -0.01062
C 13.53049 10.67891 -0.00033
C 13.52188 9.21662 0.03589
C 12.25249 8.48933 -0.02759
C 12.34787 7.12002 0.0402
C 13.60106 6.39541 0.00572
C 13.49517 5.0075 0.03592
C 12.3573 4.1966 0.00406
C 12.28743 2.81955 0.00943
C 13.47866 2.07507 0.02841
C 13.54567 0.59257 -0.01111
C 12.24183 33.98471 -0.01275
C 14.79968 32.68098 0.00985
C 15.96906 31.89156 -0.02245
C 15.9524 30.54049 -0.00428
C 14.76645 29.75899 0.03101
C 12.29369 19.97748 0.00093
C 12.25176 21.39261 0.01291
C 13.51346 22.06966 0.00438
C 13.51947 23.48675 -0.00191
C 11.08899 14.96193 0.03007
C 11.09767 13.53792 -0.00095
C 9.85751 12.85175 0.01572
C 9.83644 11.44639 -0.04848
C 11.03831 10.64164 -0.00892
C 11.09974 9.28779 -0.01362
C 9.88213 8.52023 -0.0008
C 9.83688 7.18751 0.0288
C 11.10806 6.44021 0.00393
C 11.09813 4.97389 0.00895
C 9.82144 4.32329 0.00685
C 14.70987 28.44645 -0.01536
C 9.89372 2.82473 0.02888
C 11.02711 0.60615 -0.01384
C 9.77448 0.03659 0.03693
C 12.21768 32.51025 0.01745
C 13.47912 31.93732 0.00488
C 13.52491 30.52653 -0.01004
C 12.24147 29.95265 -0.02896
C 12.26841 28.47622 -0.00131
C 13.44458 27.69097 -0.01118
C 13.52846 26.33304 -0.014
C 12.31193 25.60966 0.02147
C 12.28047 24.11899 0.00373
C 11.08293 2.07585 -0.00482
C 9.9074 15.67679 0.00054
C 16.04476 27.71451 -0.02689
C 14.79197 25.63004 -0.00891
C 17.22016 28.41551 0.01965
C 18.49126 27.71077 0.02058
C 18.52382 26.24986 -0.01957
C 17.27644 25.52231 -0.0108
C 17.16505 24.13496 -0.00368
C 18.46279 23.41701 -0.02696
C 18.39616 22.00547 -0.00114
C 17.13916 21.2632 0.00228
C 17.17631 19.81118 0.00798
C 18.4204 19.11637 0.00422
C 18.43036 17.75944 0.0351
C 17.14676 17.05306 -0.03113
C 17.16535 15.63934 0.02098
C 18.35727 14.96253 0.01848
C 18.43503 13.54043 -0.00619
C 17.239 12.75828 -0.02162
C 17.21314 11.33399 0.00889
C 18.46437 10.65546 -0.00481
C 18.439 9.23289 0.00979
C 17.19602 8.52856 0.01443
C 17.23195 7.10698 0.03505
C 18.37477 6.37325 -0.02815
C 18.31491 4.94638 -0.04147
C 17.2644 29.88022 -0.03682
C 18.45925 30.52174 0.00052
C 18.4294 31.99281 0.00374
C 17.15727 32.68579 -0.02813
C 14.80727 24.16024 0.02819
C 15.95692 23.41649 0.00165
C 16.01051 21.97572 -0.02971
C 14.7362 21.2958 0.02894
C 14.75012 19.90723 -0.01789
C 15.99357 19.09014 0.00444
C 15.89331 17.74405 -0.00925
C 14.67974 17.04632 0.01877
C 14.72363 15.63162 0.01363
C 15.98902 14.89846 -0.02162
C 15.98944 13.45625 0.00415
C 16.02081 26.2886 -0.01046
C 14.75151 12.7467 -0.0014
C 15.95389 10.69431 0.0076
C 16.00904 9.24266 0.01241
C 14.79595 8.51124 -0.01454
C 14.82561 7.08326 0.01945
C 16.02027 6.434 0.01416
C 15.918 4.90516 0.03542
C 14.73868 4.18918 0.02299
C 14.67546 2.79132 0.00244
C 15.89327 2.16047 -0.01717
C 15.92572 0.72075 0.05265
C 14.75729 0.02467 -0.01952
C 14.70266 11.33511 0.02162
C 9.9028 17.09412 -0.00494
C 11.04893 17.88604 -0.00562
C 11.03594 19.25875 -0.01142
C 3.65211 0.72872 0.03278
C 2.46702 0.02204 -0.00177
C 4.89728 32.67199 0.04421
C 6.10587 31.95992 0.00088
C 6.09008 30.60361 0.00828
C 4.92117 29.72419 -0.02375
C 5.02269 28.33763 0.00558
C 6.15641 27.67122 -0.0059
C 6.16011 26.26489 -0.01386
C 4.94408 25.64894 -0.02805
C 4.94489 24.14346 0.00081
C 6.14377 23.49243 0.00245
C 6.1506 22.06691 0.02728
C 4.99577 21.25042 -0.00039
C 4.89877 19.8263 0.0064
C 6.18222 19.11595 0.00211
C 6.09696 17.70995 -0.00449
C 4.90721 17.10161 -0.01979
C 4.87646 15.63637 0.02784
C 6.11851 14.9436 -0.01977
C 6.14333 13.56967 -0.00561
C 4.87262 12.76696 0.00208
C 4.89052 11.4379 0.01707
C 3.66393 2.18641 0.01138
C 2.47364 2.88898 -0.00407
C 2.47639 4.30228 -0.01299
C 3.72671 5.04722 -0.0154
C 3.75548 30.42319 -0.00374
C 2.48945 29.76274 -0.0213
C 2.41156 28.35385 0.01116
C 3.70815 27.73431 -0.0005
C 3.673 26.30859 -0.00018
C 2.41637 25.57496 0.01073
C 2.47626 24.20896 0.01984
C 3.63714 23.4854 0.00535
C 3.71296 22.00669 -0.00198
C 2.47846 21.2437 -0.00012
C 2.40787 19.93268 -0.04306
C 6.12377 10.7281 0.02769
C 3.66815 19.15426 -0.03672
C 2.40042 17.01502 0.00267
C 2.40182 15.5846 0.00787
C 3.67252 14.88664 0.02426
C 3.68749 13.49394 0.01218
C 2.41192 12.84372 -0.01471
C 2.47689 11.33945 -0.02827
C 3.69025 10.62957 0.01078
C 3.66904 9.22259 -0.00112
C 2.50653 8.52998 0.03345
C 2.45627 7.11034 0.00748
C 3.67534 6.427 0.00662
C 3.56865 17.75635 0.01913
C 6.12849 9.26017 -0.03291
C 4.87112 8.60171 -0.04999
C 4.90763 7.16475 0.04505
C 8.65117 10.76644 -0.00094
C 8.59148 9.3148 0.02322
C 7.38218 8.62896 -0.00725
C 7.37091 7.20143 -0.05697
C 8.56584 6.44096 0.01087
C 8.66396 5.01795 -0.01343
C 7.3542 4.2881 0.00988
C 7.40583 2.91102 0.0276
C 8.62809 2.21635 0.01305
C 8.57275 0.74341 -0.00077
C 7.37643 0.00212 0.03368
C 7.33745 11.37737 -0.02566
C 9.67896 32.69716 -0.02929
C 10.99647 30.56452 -0.03337
C 9.76656 29.85632 0.01227
C 9.76297 28.45946 0.00873
C 11.0753 27.77601 -0.00049
C 11.1433 26.37508 0.00848
C 9.87618 25.54854 -0.01303
C 9.8212 24.20739 -0.01378
C 11.09291 23.42616 0.02635
C 11.09896 22.09295 0.0127
C 9.82363 21.36782 0.01396
C 9.74834 19.95247 0.01849
C 10.96314 32.00751 -0.00966
C 17.12499 4.19858 -0.05302
C 7.37193 12.873 -0.03113
C 8.6032 14.86874 -0.00643
C 6.17689 6.48985 0.03284
C 6.12491 5.01524 -0.04307
C 4.92787 4.3244 0.03189
C 4.96209 2.87774 0.00031
C 6.20881 2.17666 -0.003
C 6.12617 0.77593 0.01402
C 4.88789 0.00385 0.02379
C 7.29158 32.71073 0.00907
C 8.44784 31.93838 0.00643
C 8.56701 30.53475 -0.01509
C 7.40098 29.77716 0.03267
C 8.5889 13.4996 0.017
C 7.40255 28.42672 0.02374
C 8.61216 26.30847 0.0073
C 7.42814 25.58571 0.0174
C 7.41225 24.18054 0.03828
C 8.60493 23.44429 0.01226
C 8.57087 22.05615 -0.00279
C 7.38406 21.29174 0.01996
C 7.35569 19.81365 -0.03996
C 8.54863 19.14098 0.01465
C 8.65087 17.81785 -0.00074
C 7.38734 17.03199 -0.00518
C 7.36222 15.60118 0.0086
C 8.61947 27.65826 0.00402
C 17.1373 2.82553 0.00213
C 18.45202 2.08625 -0.00066
C 18.37499 0.71441 -0.00289
C 29.52771 15.61929 0.01705
C 30.74054 14.83209 -0.0405
C 30.69884 13.44548 -0.01303
C 29.45823 12.7118 -0.01461
C 29.4761 11.30403 -0.02155
C 30.6996 10.63671 -0.00944
C 30.74853 9.17821 -0.03735
C 29.52201 8.41121 -0.00971
C 29.51993 7.03987 0.01518
C 30.80931 6.37327 0.01908
C 30.7575 4.87093 0.07705
C 29.46523 4.20921 0.0103
C 29.51401 2.82067 0.02108
C 30.72494 2.13439 0.00716
C 30.69965 0.72786 0.00307
C 29.50256 0.00977 0.00346
C 31.96668 32.66915 0.01713
C 33.2735 32.0339 -0.01694
C 33.18861 30.57363 0.01428
C 31.96274 29.86129 -0.02142
C 31.93713 28.45242 0.0544
C 33.20745 27.78485 0.00026
C 33.19234 26.31712 0.00682
C 29.48121 17.01307 0.0101
C 30.74439 17.72308 -0.00669
C 30.6107 19.11766 0.03531
C 29.40675 19.91751 0.01836
C 27.05976 11.30783 0.04185
C 28.29415 10.61738 0.00194
C 28.29366 9.17092 -0.00621
C 27.01786 8.50721 0.02611
C 27.01771 7.0854 0.02198
C 28.35176 6.37971 0.01094
C 28.30757 4.89836 0.00235
C 27.02416 4.24057 0.01495
C 27.06672 2.83902 0.01259
C 28.24417 2.15925 0.01799
C 28.24401 0.65512 0.01699
C 32.01734 25.59599 -0.01779
C 27.03258 34.0198 -0.00416
C 30.72503 31.98774 0.04266
C 30.68687 30.5679 0.01324
C 29.5005 29.72914 0.0014
C 29.45221 28.33556 0.00924
C 30.68893 27.73958 0.02326
C 30.72364 26.28998 0.00261
C 29.41915 25.76586 0.03265
C 29.24748 24.35043 -0.02049
C 30.69731 23.51869 -0.01854
C 30.68226 22.0843 -0.01415
C 29.45115 21.36102 -0.03039
C 29.47244 32.63352 0.01177
C 31.96556 24.20609 0.03794
C 33.17274 23.4206 0.01927
C 33.19808 22.01096 0.01574
C 34.41588 25.58673 -0.05239
C 34.39699 24.12838 0.03076
C 1.22681 23.39748 0.00723
C 1.2398 22.03481 0.02712
C 34.42107 21.26102 -0.02213
C 34.30038 19.7824 0.01951
C 1.07478 19.0818 -0.01678
C 1.0972 17.69339 0.01223
C 34.42741 17.02053 0.00648
C 0.01248 15.56258 0.02114
C 1.17137 14.82355 -0.02957
C 1.18546 26.33061 -0.00598
C 1.20006 13.42291 0.00343
C 34.43278 11.27683 -0.02442
C 1.2556 10.59073 -0.00027
C 1.24868 9.14948 -0.00583
C 0.10291 8.4059 -0.02302
C 0.0304 7.03435 -0.02849
C 1.26515 6.35895 0.02931
C 1.23734 4.96982 0.00628
C 34.41994 4.21585 -0.0345
C 0.02679 2.86303 -0.00931
C 1.3068 2.12308 -0.00939
C 1.27835 0.72722 -0.00468
C 0.0188 12.68184 -0.02656
C 27.02622 12.81201 0.02316
C 1.21747 27.66996 -0.00439
C 34.43122 29.90942 0.01831
C 31.8666 21.32434 -0.02383
C 31.88641 19.85721 -0.01429
C 33.06315 19.14014 -0.0136
C 33.10006 17.66788 0.00594
C 31.94484 16.92871 -0.02474
C 31.94255 15.52872 0.00369
C 33.17567 14.83366 0.00455
C 33.12812 13.38204 -0.00644
C 31.92216 12.68201 -0.01839
C 31.94992 11.32659 0.00137
C 33.27026 10.53614 0.00199
C 0.0311 28.46361 -0.01037
C 33.25191 9.14587 0.04381
C 31.98292 7.03393 0.01504
C 33.28435 6.3004 -0.00069
C 33.19928 4.88674 0.04926
C 31.9737 4.14739 -0.03838
C 32.01218 2.80679 0.00349
C 33.24008 2.12872 -0.00323
C 33.21483 0.75124 -0.00841
C 31.94466 0.04868 0.0001
C 0.03997 32.70283 -0.02927
C 1.26774 31.96208 -0.01404
C 1.27566 30.52695 0.01027
C 32.03881 8.38656 0.02806
C 3.69293 31.89405 -0.00141
C 28.24532 13.50197 0.01257
C 27.07088 15.67368 -0.00294
C 19.53405 4.22911 0.00654
C 19.61964 2.8631 -0.00703
C 20.86607 2.19584 -0.04076
C 20.87642 0.76104 -0.00652
C 19.66589 34.05097 0.0058
C 22.04015 32.70092 -0.00865
C 23.34754 31.98519 0.00675
C 23.36676 30.62997 -0.00311
C 22.15637 29.80283 0.00742
C 22.22488 28.40985 -0.01594
C 23.59255 27.53802 0.0106
C 23.44644 26.15748 -0.01154
C 22.11068 25.4296 -0.01721
C 22.19295 24.06825 -0.02422
C 23.44438 23.53983 0.01277
C 23.45259 22.08975 0.00096
C 22.12298 21.3721 -0.01527
C 22.04368 19.94854 0.01087
C 23.29822 19.13236 0.00199
C 23.34627 17.70193 0.01511
C 22.11517 16.96884 -0.00478
C 22.14687 15.56214 -0.01662
C 23.36808 14.92069 -0.01185
C 20.85721 4.9833 -0.04422
C 20.84482 6.35433 -0.02957
C 19.62784 7.02641 -0.00831
C 19.64871 8.50789 0.00364
C 17.16732 0.01624 0.00028
C 19.65635 32.62765 -0.02213
C 20.87769 31.95609 0.03698
C 20.92624 30.49704 -0.00109
C 19.72068 29.83276 -0.00491
C 19.72403 28.3292 0.03338
C 21.05114 27.72108 -0.0258
C 21.01584 26.27385 -0.0331
C 19.70794 25.53297 -0.00316
C 19.66274 24.15926 0.02188
C 20.91137 23.42736 -0.01979
C 23.36981 13.51618 0.01126
C 20.83344 21.93746 0.02691
C 19.64798 19.85616 0.01452
C 20.82558 19.2444 0.04892
C 20.83373 17.76123 -0.00111
C 19.60813 17.07797 -0.03557
C 19.6188 15.6738 0.03754
C 20.86569 14.92463 0.01739
C 20.88161 13.4361 0.00755
C 19.6507 12.7924 -0.0054
C 19.69469 11.39056 0.00667
C 20.88586 10.60152 0.00143
C 20.87987 9.15845 -0.017
C 19.60046 21.27393 -0.01581
C 22.09668 12.76096 0.01852
C 22.077 11.36353 -0.00381
C 23.37114 10.66292 0.03046
C 25.82958 10.6486 -0.00285
C 25.81879 9.27672 -0.009
C 24.55868 8.59387 -0.01199
C 24.62021 7.11226 -0.00229
C 25.87938 6.33917 -0.00938
C 25.80245 4.99092 -0.0264
C 24.60328 4.26884 -0.01154
C 24.57173 2.85385 0.00684
C 25.8508 2.09743 -0.01052
C 25.84636 0.75107 -0.01679
C 24.57514 0.05553 0.00367
C 24.63331 11.42362 0.01423
C 26.99898 32.61986 0.04306
C 28.23925 30.43825 0.00195
C 26.90388 29.71813 -0.00802
C 26.90506 28.2925 -0.00218
C 28.25537 27.67462 -0.01654
C 28.15304 23.43563 -0.00037
C 28.21592 22.00377 -0.0032
C 26.95455 21.27538 0.00622
C 27.02661 19.91781 -0.02815
C 28.24623 19.21784 -0.00942
C 28.31767 17.76675 0.00487
C 27.07188 17.0774 0.00826
C 28.26411 31.91809 0.00996
C 28.24146 14.91824 0.00152
C 24.57072 12.76262 0.02555
C 25.91584 14.8994 0.00135
C 23.34365 9.25384 0.0296
C 22.13419 8.51486 0.03374
C 22.14055 7.08256 -0.02845
C 23.40946 6.33198 -0.03213
C 23.3327 4.91937 0.02239
C 22.06386 4.30755 0.01153
C 22.12081 2.87202 0.02734
C 23.41234 2.18654 -0.0055
C 23.34193 0.74742 0.01515
C 22.11705 0.09232 -0.00225
C 24.57584 32.73127 0.00071
C 25.86404 13.51797 0.03102
C 25.77135 31.97261 -0.01107
C 24.64183 29.84252 -0.01971
C 24.7276 28.40339 -0.02118
C 24.74962 24.4128 0.00733
C 25.86271 23.53348 -0.00178
C 25.79238 21.98927 0.00768
C 24.57506 21.2841 -0.0276
C 24.44589 19.86231 0.03005
C 25.75157 19.16428 -0.04078
C 25.8246 17.75423 0.02117
C 24.53156 17.03353 0.02737
C 24.59059 15.59378 -0.00498
C 25.75746 30.5258 -0.01586
C 2.55089 32.64632 -0.03951
