305
Graphene
C 0.01442 0.01659 0.01295
C 18.49022 19.16223 -0.01581
C 18.41581 0.73813 0.01452
C 17.22326 0.01685 0.04892
C 19.71978 32.66188 -0.00111
C 20.9188 31.95389 -0.03557
C 20.94118 30.54679 0.03754
C 19.66326 29.76873 0.01739
C 19.63854 28.3944 0.00755
C 20.90332 27.61889 -0.0054
C 20.89568 26.26238 0.00667
C 19.71755 25.56357 0.00143
C 19.69637 24.11246 -0.017
C 20.93496 23.45756 0.00364
C 20.95166 22.00361 -0.00831
C 19.66299 21.36149 -0.02957
C 17.23097 19.88796 0.02691
C 19.67044 19.85601 -0.04422
C 17.21178 21.27622 -0.01979
C 18.4507 23.41713 -0.00316
C 13.46454 19.15052 0.03505
C 13.51654 0.71397 -0.02815
C 12.31909 34.07838 -0.04147
C 14.724 25.61721 -0.05302
C 14.70397 24.1624 0.00213
C 15.98685 23.44022 -0.00066
C 16.00506 22.02328 -0.00289
C 14.80911 21.31282 0.00028
C 14.79149 19.87224 -0.02213
C 15.97439 19.1979 0.03698
C 15.98852 0.63244 -0.00109
C 14.76302 0.00265 -0.00491
C 18.42296 26.30379 0.03338
C 17.22673 25.56997 -0.0258
C 17.19628 24.16331 -0.0331
C 18.45451 21.97688 0.02188
C 12.34607 19.88782 0.01443
C 20.9213 19.21169 0.00654
C 20.9774 2.10923 -0.04076
C 23.33345 14.86392 -0.01185
C 23.39977 13.485 0.01126
C 23.36306 10.58146 0.01852
C 23.33968 9.21769 -0.00381
C 23.3828 6.36551 0.03046
C 23.42027 4.97564 0.0296
C 22.12845 4.25068 0.03374
C 22.14781 2.83902 -0.02845
C 23.34516 2.16705 -0.03213
C 23.36408 0.77628 0.02239
C 22.15697 34.04034 0.01153
C 24.55891 32.61492 0.02734
C 25.81781 31.96904 -0.0055
C 25.82121 30.52494 0.01515
C 24.56177 29.83407 -0.00225
C 22.11353 15.63854 -0.01662
C 20.89729 17.70638 -0.00703
C 22.16534 17.07365 -0.00478
C 23.3774 19.13053 0.00199
C 20.95602 0.7313 -0.00652
C 19.6907 34.06535 0.0058
C 22.14987 32.62635 -0.00865
C 23.35084 31.95349 0.00675
C 23.34297 30.52226 -0.00311
C 22.15659 29.78679 0.00742
C 22.17137 28.33788 -0.01594
C 23.37171 27.69243 0.0106
C 23.33444 26.28214 -0.01154
C 22.10118 25.56824 -0.01721
C 22.0732 24.16691 -0.02422
C 23.35671 23.43309 0.01277
C 23.32185 21.99274 0.00096
C 22.14114 21.28662 -0.01527
C 22.15695 19.84794 0.01087
C 23.35716 17.75466 0.01511
C 12.26764 21.31099 0.00979
C 13.53369 22.03264 -0.00481
C 13.51669 23.45011 0.00889
C 3.68598 0.67862 -0.01111
C 2.45029 0.02441 -0.01275
C 4.9223 32.66161 0.00985
C 6.17319 31.97788 -0.02245
C 6.11558 30.54694 -0.00428
C 4.89796 29.83016 0.03101
C 4.87966 28.39596 -0.01536
C 6.13721 27.67954 -0.02689
C 6.14539 26.29613 -0.01046
C 4.95993 25.56928 -0.00891
C 4.96481 24.11486 0.02819
C 6.14216 23.44337 0.00165
C 4.91441 11.34265 -0.02971
C 4.88613 8.50199 0.02894
C 4.92223 7.11307 -0.01789
C 3.65471 2.13709 0.02841
C 6.14859 6.36951 0.00444
C 2.48062 2.83834 0.00943
C 3.64305 5.02861 0.03592
C 3.68136 30.51812 0.01291
C 2.46343 29.82921 0.00093
C 2.45573 28.40134 0.00057
C 3.69565 27.73598 -0.01634
C 3.72378 26.24714 -0.00334
C 2.45794 25.59125 0.02339
C 2.45205 24.17302 0.01641
C 3.69987 23.44493 -0.00719
C 2.44518 12.80285 0.01364
C 2.47681 11.44181 -0.01062
C 3.69348 10.62756 -0.00033
C 3.68418 9.24546 0.03589
C 2.4649 8.516 -0.02759
C 2.46636 7.1145 0.0402
C 3.63996 6.42313 0.00572
C 2.459 4.28589 0.00406
C 6.14124 4.95918 -0.00925
C 4.8996 4.25607 0.01877
C 4.9128 2.85852 0.01363
C 11.09359 30.46663 0.02058
C 9.85763 29.83585 -0.01957
C 9.82725 28.4001 -0.0108
C 11.12229 27.67644 -0.00368
C 11.07908 26.23941 -0.02696
C 9.80281 25.54469 -0.00114
C 9.82125 24.20932 0.00228
C 11.06412 23.42494 0.00798
C 11.05065 22.03217 0.00422
C 11.06528 0.69154 0.0351
C 9.85866 34.05132 -0.03113
C 12.26992 32.63281 0.02098
C 13.57161 26.22788 0.01848
C 12.25937 25.54458 -0.00619
C 12.28231 24.20235 -0.02162
C 11.05889 31.97308 0.01965
C 9.85303 32.67913 -0.03682
C 7.37492 0.01355 0.00052
C 8.6138 0.6523 0.00374
C 6.17099 2.1131 -0.02162
C 6.13591 0.74134 0.00415
C 4.92749 0.02706 -0.0014
C 7.38165 32.66747 0.02162
C 8.58881 31.89766 0.0076
C 8.59443 30.5157 0.01241
C 7.40802 29.79874 -0.01454
C 24.57936 28.41258 0.00071
C 7.36708 28.42597 0.01945
C 8.60252 26.30682 0.03542
C 7.4008 25.56278 0.02299
C 7.42191 24.11661 0.00244
C 8.65451 23.43504 -0.01717
C 7.40794 4.26488 0.05265
C 7.34509 2.75642 -0.01952
C 8.58326 2.10095 -0.02813
C 8.57145 27.73117 0.01416
C 3.69382 31.91379 0.00438
C 25.82448 27.66941 -0.01107
C 24.58414 25.59127 -0.01971
C 31.97857 24.13914 0.01574
C 33.25218 23.40301 -0.02383
C 33.19721 22.03383 -0.01429
C 31.97115 21.31983 -0.0136
C 31.96663 19.90317 0.00594
C 33.20124 19.1754 -0.02474
C 33.23497 17.72171 0.00369
C 32.01014 17.03627 0.00455
C 31.99388 15.60825 -0.00644
C 33.16306 14.93608 -0.01839
C 33.21874 13.45472 0.00137
C 31.96339 12.79715 0.00199
C 31.94491 11.38375 0.04381
C 33.23234 10.66272 0.02806
C 33.15955 9.29393 0.01504
C 31.98046 25.56438 0.01927
C 31.97933 8.53299 -0.00069
C 33.17215 26.28354 0.03794
C 31.96367 28.41909 0.00682
C 30.7387 10.64013 -0.00971
C 30.76389 9.21551 0.01518
C 29.5083 8.56167 0.01908
C 29.50365 7.13701 0.07705
C 30.72908 6.38219 0.0103
C 30.71743 4.98197 0.02108
C 29.49008 4.26353 0.00716
C 29.51875 2.80606 0.00307
C 30.75843 2.09683 0.00346
C 30.6899 0.7298 0.01713
C 29.50018 0.00958 -0.01694
C 32.01078 32.68911 0.01428
C 33.22609 31.90704 -0.02142
C 33.22487 30.53319 0.0544
C 31.94979 29.83056 0.00026
C 33.20408 27.67859 -0.01779
C 29.50232 11.4161 -0.03735
C 31.92424 7.10031 0.04926
C 33.18279 5.00278 0.00349
C 34.4086 15.57912 0.02114
C 1.22839 14.93247 -0.02957
C 1.20673 13.50549 0.00343
C 0.00621 12.77086 -0.02656
C 34.41613 11.35492 -0.02442
C 1.215 10.68239 -0.00027
C 1.23017 9.23756 -0.00583
C 0.01081 8.52341 -0.02302
C 0.00774 7.12983 -0.02849
C 1.20303 6.35745 0.02931
C 1.21131 4.95408 0.00628
C 34.42578 4.2279 -0.0345
C 34.41014 2.86279 -0.00931
C 1.28126 2.14112 -0.00939
C 1.26071 0.68545 -0.00468
C 0.03414 16.98965 0.00648
C 33.20027 6.40611 -0.03838
C 34.41667 19.8834 0.01223
C 1.2313 22.0254 0.01951
C 31.95782 4.24332 -0.00323
C 31.96524 2.80562 -0.00841
C 33.19628 2.15012 0.0001
C 33.22459 0.73049 -0.02927
C 31.97638 34.05543 -0.01404
C 0.02373 32.63149 0.01027
C 1.22743 31.95388 0.01831
C 1.23101 30.57398 -0.01037
C 0.00702 29.76115 -0.00439
C 34.41814 28.40835 -0.00598
C 1.25697 27.69063 -0.05239
C 1.19501 26.2545 0.03076
C 34.41101 25.59363 0.00723
C 34.39593 24.14222 0.02712
C 1.1993 23.44617 -0.02213
C 0.01643 21.31844 -0.01678
C 29.53447 12.72721 -0.00944
C 30.77912 13.48681 -0.02155
C 30.73137 14.94171 -0.01461
C 24.62099 4.2605 -0.0264
C 24.62273 2.81703 -0.01154
C 25.81776 2.13444 0.00684
C 25.83974 0.65776 -0.01052
C 24.61076 34.05948 -0.01679
C 27.04978 32.66111 0.00367
C 28.30546 31.97375 0.04306
C 28.26525 30.53756 0.00996
C 27.06898 29.86031 0.00195
C 27.05132 28.41382 -0.00802
C 28.31196 27.74655 -0.00218
C 28.2562 26.29386 -0.01654
C 27.05844 25.54664 -0.00037
C 27.07467 24.14637 -0.0032
C 28.29958 23.45117 0.00622
C 25.87404 4.98951 -0.00938
C 28.27084 21.96078 -0.02815
C 25.797 6.43048 -0.00229
C 24.59457 8.5251 -0.009
C 24.59493 24.16748 -0.02118
C 25.77782 23.39533 0.00733
C 25.80033 21.96215 -0.00178
C 24.55674 21.29794 0.00768
C 24.63161 19.90806 -0.0276
C 25.78402 19.1614 0.03005
C 25.76307 17.73799 -0.04078
C 24.56766 17.02778 0.02117
C 24.59551 15.63189 0.02737
C 25.85352 14.91105 -0.00498
C 25.82805 13.54727 0.00135
C 24.60443 12.79235 0.03102
C 24.57307 11.33187 0.02555
C 25.8272 10.64808 0.01423
C 25.81027 9.1965 -0.00285
C 24.5771 7.08255 -0.01199
C 27.05963 21.30002 -0.00942
C 27.06525 19.83909 0.00487
C 28.27381 19.15843 0.00826
C 30.72351 30.5375 0.00924
C 29.53979 29.81056 0.02326
C 29.48693 28.42648 0.00261
C 30.7231 27.67449 0.03265
C 30.72877 26.21194 -0.02049
C 29.5183 25.59501 -0.01854
C 29.51633 24.16393 -0.01415
C 30.78876 23.44958 -0.03039
C 30.73697 21.97297 0.01836
C 29.49578 21.28137 0.03531
C 29.51672 19.86757 -0.00669
C 30.72148 19.20964 0.0101
C 30.7534 17.70882 0.01705
C 29.54931 17.03537 -0.0405
C 29.48426 15.6149 -0.01303
C 30.74696 31.95408 0.0014
C 29.5336 32.66557 0.01324
C 27.04052 34.02482 0.04266
C 28.23344 0.70423 0.01177
C 28.2833 17.76877 -0.00294
C 27.04595 16.99948 0.00152
C 27.05277 15.64284 0.01257
C 28.28508 14.86704 0.02316
C 28.30354 13.46994 0.04185
C 27.07948 12.79008 0.00194
C 27.04178 11.36504 -0.00621
C 25.84322 26.229 -0.01586
C 28.28848 10.65472 0.02611
C 27.05701 8.50214 0.01094
C 27.0689 7.10066 0.00235
C 28.29674 6.36765 0.01495
C 28.28317 5.00274 0.01259
C 27.01868 4.24795 0.01799
C 27.00892 2.81892 0.01699
C 28.28796 2.08265 -0.00416
C 28.25978 9.23708 0.02198
C 2.48811 32.6802 -0.00191
